drugbank_target|O15379 Histone deacetylase 3 (DB02546; DB05223; DB11830)
 OpenBabel12092120103D

  0  0  0     0  0            999 V3000
M  V30 BEGIN CTAB
M  V30 COUNTS 6686 6783 0 0 0
M  V30 BEGIN ATOM
M  V30 1 H -0.908 1.98254 -0.117106 0
M  V30 2 N 0 1.576 0 0
M  V30 3 C 0.933 2.03868 1.02534 0
M  V30 4 C 1.911 0.928543 1.3348 0
M  V30 5 O 3.095 1.19667 1.45644 0
M  V30 6 C 0.222 2.43627 2.35294 0
M  V30 7 C -0.732 3.65373 2.2001 0
M  V30 8 S 0.101 5.13292 1.52614 0
M  V30 9 C 1.257 5.56322 2.86805 0
M  V30 10 H 1.49 2.90518 0.631377 0
M  V30 11 H -0.977 1.52953 0.210867 0
M  V30 12 H 0.981 2.67203 3.11629 0
M  V30 13 H -0.358 1.57376 2.7183 0
M  V30 14 H -1.165 3.90944 3.18086 0
M  V30 15 H -1.563 3.418 1.51819 0
M  V30 16 H 0.729 5.58782 3.83104 0
M  V30 17 H 1.672 6.56266 2.65933 0
M  V30 18 H 2.08 4.83886 2.90714 0
M  V30 19 N 1.4781 -0.272755 1.55222 0
M  V30 20 C 2.4411 -1.32041 1.87344 0
M  V30 21 C 3.4411 -1.42342 0.74803 0
M  V30 22 O 4.6311 -1.41488 1.0162 0
M  V30 23 C 1.7631 -2.70173 2.07893 0
M  V30 24 H 2.9561 -1.04789 2.80997 0
M  V30 25 H 0.5091 -0.51083 1.47717 0
M  V30 26 H 1.2441 -3.02605 1.16622 0
M  V30 27 H 1.0291 -2.64082 2.89833 0
M  V30 28 H 2.5191 -3.45869 2.34017 0
M  V30 29 N 2.9562 -1.48159 -0.537278 0
M  V30 30 C 3.9032 -1.62138 -1.64256 0
M  V30 31 C 4.8732 -0.463668 -1.59497 0
M  V30 32 O 6.0582 -0.686241 -1.78032 0
M  V30 33 C 3.1982 -1.66028 -3.02537 0
M  V30 34 C 2.3112 -2.92855 -3.17585 0
M  V30 35 C 1.4462 -2.87952 -4.46382 0
M  V30 36 C 0.4852 -4.09516 -4.54932 0
M  V30 37 N -0.3778 -4.02733 -5.75109 0
M  V30 38 H 4.4622 -2.56529 -1.51647 0
M  V30 39 H 1.9992 -1.27224 -0.738414 0
M  V30 40 H 3.9572 -1.66265 -3.82638 0
M  V30 41 H 2.5872 -0.751331 -3.13934 0
M  V30 42 H 1.6392 -3.02395 -2.30784 0
M  V30 43 H 2.9512 -3.82822 -3.19764 0
M  V30 44 H 2.1052 -2.8655 -5.34765 0
M  V30 45 H 0.8442 -1.95702 -4.46712 0
M  V30 46 H -0.1508 -4.11201 -3.64957 0
M  V30 47 H 1.0742 -5.02917 -4.56346 0
M  V30 48 H -0.9798 -3.13299 -5.76351 0
M  V30 49 H -1.0628 -4.86397 -5.78752 0
M  V30 50 H 0.2052 -4.05379 -6.65799 0
M  V30 51 N 4.4343 0.785586 -1.36625 0
M  V30 52 C 5.6623 1.57448 -1.3423 0
M  V30 53 C 6.0773 1.88649 0.0755653 0
M  V30 54 O 5.4343 1.50414 1.03354 0
M  V30 55 C 5.4853 2.89316 -2.16745 0
M  V30 56 O 5.2063 2.59459 -3.53005 0
M  V30 57 C 6.7073 3.83606 -2.22174 0
M  V30 58 H 3.9273 0.488226 -0.4603 0
M  V30 59 H 6.4713 0.974733 -1.79775 0
M  V30 60 H 4.6263 3.4575 -1.74745 0
M  V30 61 H 5.0403 3.43804 -3.96105 0
M  V30 62 H 6.5143 4.73181 -2.8426 0
M  V30 63 H 6.9913 4.21734 -1.22627 0
M  V30 64 H 7.5973 3.33104 -2.64427 0
M  V30 65 N 5.9124 1.20967 1.01018 0
M  V30 66 C 7.1584 1.02526 1.74975 0
M  V30 67 C 7.4914 -0.4408 1.89131 0
M  V30 68 O 6.7664 -1.32718 1.42184 0
M  V30 69 C 7.0494 1.71699 3.1653 0
M  V30 70 C 6.9024 3.25791 3.10129 0
M  V30 71 C 8.2214 1.45531 4.15342 0
M  V30 72 H 5.3404 0.373863 0.635134 0
M  V30 73 H 7.9824 1.49071 1.17805 0
M  V30 74 H 6.1324 1.32128 3.65341 0
M  V30 75 H 7.8044 3.74697 2.69072 0
M  V30 76 H 6.0474 3.56363 2.47362 0
M  V30 77 H 6.7184 3.69353 4.10222 0
M  V30 78 H 9.1944 1.79872 3.75213 0
M  V30 79 H 8.0704 1.96453 5.1254 0
M  V30 80 H 8.3314 0.384237 4.40427 0
M  V30 81 N 7.3905 -1.2043 1.01659 0
M  V30 82 C 8.3535 -2.21433 0.591616 0
M  V30 83 C 9.3535 -1.57203 -0.338226 0
M  V30 84 O 10.5435 -1.73737 -0.126918 0
M  V30 85 C 7.6755 -3.40628 -0.136058 0
M  V30 86 H 8.8685 -2.60545 1.48514 0
M  V30 87 H 6.4215 -1.33893 0.806379 0
M  V30 88 H 7.1565 -3.07019 -1.04449 0
M  V30 89 H 6.9415 -3.88475 0.531917 0
M  V30 90 H 8.4315 -4.15475 -0.420735 0
M  V30 91 N 8.8686 -0.792821 -1.36206 0
M  V30 92 C 10.0986 -0.378275 -2.03107 0
M  V30 93 C 10.5066 1.01119 -1.59911 0
M  V30 94 O 9.8496 1.66052 -0.785658 0
M  V30 95 C 9.9116 -0.366535 -3.57627 0
M  V30 96 C 9.5756 -1.70416 -4.24037 0
M  V30 97 C 10.5726 -2.6602 -4.46687 0
M  V30 98 C 8.2576 -1.98439 -4.6144 0
M  V30 99 C 10.2516 -3.8784 -5.05825 0
M  V30 100 C 7.9386 -3.20525 -5.20295 0
M  V30 101 C 8.9366 -4.15044 -5.42427 0
M  V30 102 O 8.6246 -5.34978 -6.00045 0
M  V30 103 H 8.3566 -0.153543 -0.658332 0
M  V30 104 H 10.9106 -1.07383 -1.75094 0
M  V30 105 H 9.1406 0.385539 -3.84773 0
M  V30 106 H 10.8296 0.0238088 -4.05893 0
M  V30 107 H 11.5956 -2.45658 -4.18183 0
M  V30 108 H 7.4746 -1.25686 -4.43536 0
M  V30 109 H 11.0186 -4.61628 -5.23015 0
M  V30 110 H 6.9156 -3.40764 -5.48225 0
M  V30 111 H 7.6836 -5.36088 -6.18508 0
M  V30 112 N 10.3467 1.47872 -0.545128 0
M  V30 113 C 11.5937 2.02493 -0.0165858 0
M  V30 114 C 11.9217 1.42073 1.32836 0
M  V30 115 O 11.1767 0.561459 1.87473 0
M  V30 116 C 11.4757 3.57131 0.13867 0
M  V30 117 C 11.1417 4.36411 -1.13384 0
M  V30 118 C 9.8037 4.57792 -1.48256 0
M  V30 119 C 12.1557 4.82223 -1.97764 0
M  V30 120 C 9.4837 5.22233 -2.67376 0
M  V30 121 C 11.8357 5.47977 -3.16076 0
M  V30 122 C 10.4997 5.67593 -3.51275 0
M  V30 123 H 9.7697 0.740975 -0.00606918 0
M  V30 124 H 12.4167 1.77683 -0.714207 0
M  V30 125 H 10.7217 3.80865 0.919172 0
M  V30 126 H 12.4187 3.97031 0.562782 0
M  V30 127 H 9.0087 4.2004 -0.852297 0
M  V30 128 H 13.1927 4.65493 -1.72132 0
M  V30 129 H 8.4487 5.35616 -2.94831 0
M  V30 130 H 12.6227 5.8244 -3.81755 0
M  V30 131 H 10.2497 6.17298 -4.43675 0
M  V30 132 N 11.8248 0.280983 1.55075 0
M  V30 133 C 13.0548 -0.336804 2.03836 0
M  V30 134 C 13.4628 -1.49577 1.15859 0
M  V30 135 O 12.8058 -1.82888 0.172503 0
M  V30 136 C 12.8678 -0.874616 3.48699 0
M  V30 137 C 12.5318 0.156478 4.56732 0
M  V30 138 C 13.5288 0.978032 5.10618 0
M  V30 139 C 11.2138 0.292409 5.01448 0
M  V30 140 C 13.2078 1.92165 6.07743 0
M  V30 141 C 10.8948 1.23949 5.98398 0
M  V30 142 C 11.8928 2.05261 6.51427 0
M  V30 143 O 11.5808 2.98367 7.4648 0
M  V30 144 H 11.3128 -0.0800885 0.671239 0
M  V30 145 H 13.8668 0.412589 2.01213 0
M  V30 146 H 12.0968 -1.67418 3.4858 0
M  V30 147 H 13.7858 -1.40612 3.80766 0
M  V30 148 H 14.5518 0.883782 4.7688 0
M  V30 149 H 10.4308 -0.330498 4.59814 0
M  V30 150 H 13.9748 2.55672 6.49059 0
M  V30 151 H 9.8718 1.33454 6.31554 0
M  V30 152 H 10.6398 2.93116 7.64215 0
M  V30 153 N 13.3029 -1.57598 0.00835791 0
M  V30 154 C 14.5799 -1.82172 -0.712235 0
M  V30 155 C 14.9599 -0.887873 -1.9152 0
M  V30 156 O 14.3079 0.06146 -2.28417 0
M  V30 157 C 14.5179 -3.30875 -1.11008 0
M  V30 158 C 15.8659 -3.96826 -1.51044 0
M  V30 159 O 16.8899 -3.35248 -1.20364 0
M  V30 160 O 15.7489 -5.05318 -2.08125 0
M  V30 161 H 12.8429 -0.750435 -0.347529 0
M  V30 162 H 15.3889 -1.69665 0.0344523 0
M  V30 163 H 14.1609 -3.90481 -0.252982 0
M  V30 164 H 13.7839 -3.48412 -1.9156 0
M  V30 165 N 14.781 0.264519 -1.55364 0
M  V30 166 C 16.192 0.834936 -1.6699 0
M  V30 167 C 16.543 1.86718 -0.602552 0
M  V30 168 O 15.668 2.14899 0.254425 0
M  V30 169 C 16.263 1.5212 -3.02729 0
M  V30 170 C 14.822 2.03954 -3.16354 0
M  V30 171 C 13.969 0.884498 -2.62815 0
M  V30 172 H 16.92 0.0406869 -1.58648 0
M  V30 173 H 16.941 2.38853 -2.96191 0
M  V30 174 H 16.453 0.769668 -3.80392 0
M  V30 175 H 14.554 2.82041 -2.43482 0
M  V30 176 H 14.667 2.24902 -4.23032 0
M  V30 177 H 13.031 1.2802 -2.20188 0
M  V30 178 H 13.814 0.14634 -3.42988 0
M  V30 179 N 16.2591 1.48442 0.529413 0
M  V30 180 C 17.5361 1.46978 1.29062 0
M  V30 181 C 17.9161 0.181769 2.10316 0
M  V30 182 O 17.2641 -0.836481 2.12639 0
M  V30 183 C 17.4741 2.7321 2.17157 0
M  V30 184 C 18.8221 3.21562 2.77278 0
M  V30 185 O 19.8461 2.74131 2.27444 0
M  V30 186 O 18.7051 4.04094 3.67927 0
M  V30 187 H 15.7991 0.587003 0.582543 0
M  V30 188 H 18.3451 1.60676 0.546021 0
M  V30 189 H 17.1171 3.58465 1.56903 0
M  V30 190 H 16.7401 2.62235 2.98862 0
M  V30 191 N 17.7372 -0.778329 1.37039 0
M  V30 192 C 18.9832 -1.53892 1.32079 0
M  V30 193 C 19.3162 -1.9396 -0.0965386 0
M  V30 194 O 18.5912 -1.63568 -1.05242 0
M  V30 195 C 18.8742 -2.80847 2.25382 0
M  V30 196 C 18.7272 -2.47076 3.75864 0
M  V30 197 C 20.0462 -3.82741 2.1725 0
M  V30 198 H 17.1652 -0.558303 0.48111 0
M  V30 199 H 19.8072 -0.893397 1.67685 0
M  V30 200 H 17.9572 -3.35931 1.95148 0
M  V30 201 H 19.6292 -1.97957 4.16666 0
M  V30 202 H 17.8722 -1.79863 3.94755 0
M  V30 203 H 18.5432 -3.37798 4.36574 0
M  V30 204 H 21.0192 -3.37133 2.43887 0
M  V30 205 H 19.8952 -4.69303 2.84686 0
M  V30 206 H 20.1562 -4.2652 1.16331 0
M  V30 207 N 19.2153 -1.21501 -1.00376 0
M  V30 208 C 20.4633 -1.03095 -1.73827 0
M  V30 209 C 20.7843 0.436341 -1.90055 0
M  V30 210 O 20.0543 1.31466 -1.45236 0
M  V30 211 H 18.6343 -0.378487 -0.644016 0
M  V30 212 H 21.2963 -1.52831 -1.20949 0
M  V30 213 H 20.3923 -1.49991 -2.73695 0
M  V30 214 N 20.6934 1.19889 -1.02296 0
M  V30 215 C 21.6414 2.24938 -0.592081 0
M  V30 216 C 22.6354 1.65257 0.372357 0
M  V30 217 O 23.8414 1.78371 0.241583 0
M  V30 218 H 20.2164 0.731787 -0.173182 0
M  V30 219 H 22.1874 2.58603 -1.48885 0
M  V30 220 C 20.9364 3.47668 0.047351 0
M  V30 221 H 20.2594 3.93875 -0.685772 0
M  V30 222 H 21.6994 4.22852 0.311862 0
M  V30 223 C 20.1584 3.11136 1.29212 0
M  V30 224 O 20.6884 3.2325 2.38479 0
M  V30 225 N 18.8944 2.65625 1.17863 0
M  V30 226 H 18.4414 2.55968 0.289493 0
M  V30 227 H 18.3994 2.41553 2.01245 0
M  V30 228 N 22.1715 0.800033 1.35784 0
M  V30 229 C 23.4185 0.377342 1.98953 0
M  V30 230 C 23.7465 -1.05378 1.6348 0
M  V30 231 O 23.0015 -1.74459 0.886707 0
M  V30 232 C 23.3005 0.500276 3.53881 0
M  V30 233 C 22.9665 1.89375 4.09204 0
M  V30 234 C 21.6285 2.27499 4.24025 0
M  V30 235 C 23.9805 2.8057 4.39238 0
M  V30 236 C 21.3085 3.562 4.66195 0
M  V30 237 C 23.6605 4.0871 4.82844 0
M  V30 238 C 22.3245 4.46843 4.95871 0
M  V30 239 H 21.5945 0.138079 0.728021 0
M  V30 240 H 24.2415 1.01955 1.62103 0
M  V30 241 H 22.5465 -0.225405 3.91151 0
M  V30 242 H 24.2435 0.154097 4.00704 0
M  V30 243 H 20.8335 1.58753 3.98115 0
M  V30 244 H 25.0175 2.52367 4.27346 0
M  V30 245 H 20.2735 3.85602 4.74469 0
M  V30 246 H 24.4475 4.79481 5.05046 0
M  V30 247 H 22.0745 5.46623 5.28306 0
M  V30 248 N 23.6496 -1.47581 0.552962 0
M  V30 249 C 24.5996 -2.26961 -0.217423 0
M  V30 250 C 25.5836 -1.34099 -0.889168 0
M  V30 251 O 26.7756 -1.58483 -0.788176 0
M  V30 252 C 23.9046 -3.19756 -1.24944 0
M  V30 253 C 22.9906 -4.20097 -0.581327 0
M  V30 254 N 23.3816 -5.04614 0.346171 0
M  V30 255 C 21.6796 -4.38099 -0.835767 0
M  V30 256 C 22.3806 -5.77052 0.733854 0
M  V30 257 N 21.3566 -5.43526 0.0896567 0
M  V30 258 H 25.1586 -2.89688 0.495761 0
M  V30 259 H 22.6726 -1.58068 0.372597 0
M  V30 260 H 24.6696 -3.75305 -1.81527 0
M  V30 261 H 23.3296 -2.58585 -1.96376 0
M  V30 262 H 24.3406 -5.12869 0.720098 0
M  V30 263 H 21.0176 -3.88102 -1.53892 0
M  V30 264 H 22.4076 -6.5504 1.49574 0
M  V30 265 N 25.1277 -0.289203 -1.54924 0
M  V30 266 C 26.3577 0.325989 -2.04012 0
M  V30 267 C 26.7657 1.48961 -1.1665 0
M  V30 268 O 26.1087 1.82794 -0.1822 0
M  V30 269 C 26.1707 0.856112 -3.49158 0
M  V30 270 C 25.8347 -0.180697 -4.56643 0
M  V30 271 C 26.8317 -1.0051 -5.10092 0
M  V30 272 C 24.5167 -0.318998 -5.01286 0
M  V30 273 C 26.5107 -1.95385 -6.06715 0
M  V30 274 C 24.1977 -1.27121 -5.97732 0
M  V30 275 C 25.1957 -2.08713 -6.50329 0
M  V30 276 O 24.8837 -3.02322 -7.44887 0
M  V30 277 H 24.6157 0.0765276 -0.671654 0
M  V30 278 H 27.1697 -0.423254 -2.00992 0
M  V30 279 H 25.3997 1.65567 -3.49463 0
M  V30 280 H 27.0887 1.38591 -3.81507 0
M  V30 281 H 27.8547 -0.90906 -4.76404 0
M  V30 282 H 23.7337 0.306108 -4.59983 0
M  V30 283 H 27.2777 -2.59111 -6.47694 0
M  V30 284 H 23.1747 -1.36801 -6.30837 0
M  V30 285 H 23.9427 -2.97165 -7.6265 0
M  V30 286 N 26.6058 1.57591 -0.0167156 0
M  V30 287 C 27.8538 1.90906 0.663285 0
M  V30 288 C 28.1748 0.892509 1.73376 0
M  V30 289 O 27.4448 -0.0677623 1.95783 0
M  V30 290 H 26.0248 0.704637 0.247983 0
M  V30 291 H 28.6868 1.94803 -0.0615909 0
M  V30 292 H 27.7828 2.9116 1.12393 0
M  V30 293 N 28.0839 -0.256276 1.55502 0
M  V30 294 C 29.0469 -1.30047 1.88734 0
M  V30 295 C 30.0469 -1.4154 0.763086 0
M  V30 296 O 31.2369 -1.40403 1.03115 0
M  V30 297 C 28.3689 -2.67953 2.10747 0
M  V30 298 H 29.5619 -1.01802 2.82093 0
M  V30 299 H 27.1149 -0.495134 1.4825 0
M  V30 300 H 27.8499 -3.01351 1.19825 0
M  V30 301 H 27.6349 -2.60993 2.92617 0
M  V30 302 H 29.1249 -3.43368 2.37673 0
M  V30 303 N 29.562 -1.4872 -0.521534 0
M  V30 304 C 30.81 -1.56857 -1.27437 0
M  V30 305 C 31.131 -0.247982 -1.93417 0
M  V30 306 O 30.401 0.731151 -1.81744 0
M  V30 307 H 28.981 -0.577885 -0.473347 0
M  V30 308 H 31.643 -1.85233 -0.606205 0
M  V30 309 H 30.739 -2.35402 -2.0492 0
M  V30 310 N 31.0401 0.771051 -1.3745 0
M  V30 311 C 31.9901 1.87456 -1.29785 0
M  V30 312 C 32.9741 1.59827 -0.185541 0
M  V30 313 O 34.1661 1.71945 -0.419997 0
M  V30 314 C 31.2951 3.24935 -1.1078 0
M  V30 315 C 30.3811 3.58514 -2.26558 0
M  V30 316 N 30.7721 3.6327 -3.5195 0
M  V30 317 C 29.0701 3.88683 -2.18727 0
M  V30 318 C 29.7711 3.93616 -4.283 0
M  V30 319 N 28.7471 4.09551 -3.57448 0
M  V30 320 H 32.5491 1.89386 -2.24745 0
M  V30 321 H 30.0631 0.967531 -1.30432 0
M  V30 322 H 32.0601 4.03881 -1.03374 0
M  V30 323 H 30.7201 3.24268 -0.16738 0
M  V30 324 H 31.7311 3.45458 -3.85848 0
M  V30 325 H 28.4081 3.95834 -1.32746 0
M  V30 326 H 29.7981 4.04066 -5.36824 0
M  V30 327 N 32.5182 1.22032 0.997298 0
M  V30 328 C 33.9292 1.0397 1.55071 0
M  V30 329 C 34.2802 -0.398192 1.92117 0
M  V30 330 O 33.4052 -1.28254 1.74298 0
M  V30 331 C 34.0002 1.88109 2.81781 0
M  V30 332 C 32.5592 1.74357 3.33581 0
M  V30 333 C 31.7062 1.84846 2.06706 0
M  V30 334 H 34.6572 1.35941 0.818883 0
M  V30 335 H 34.6782 1.39589 3.53971 0
M  V30 336 H 34.1902 2.92754 2.54787 0
M  V30 337 H 32.2912 0.72427 3.65493 0
M  V30 338 H 32.4042 2.56772 4.04481 0
M  V30 339 H 30.7682 1.28238 2.20062 0
M  V30 340 H 31.5512 2.91014 1.82114 0
M  V30 341 N 33.9963 -1.19345 1.0293 0
M  V30 342 C 34.9293 -2.21347 0.555029 0
M  V30 343 C 35.9073 -1.57492 -0.404351 0
M  V30 344 O 37.0913 -1.85741 -0.321352 0
M  V30 345 C 34.2183 -3.38163 -0.19064 0
M  V30 346 C 33.2643 -4.20375 0.720236 0
M  V30 347 S 34.0973 -4.88371 2.19668 0
M  V30 348 C 35.2533 -6.08597 1.46153 0
M  V30 349 H 35.4863 -2.61235 1.41929 0
M  V30 350 H 33.0193 -1.29598 0.839272 0
M  V30 351 H 34.9773 -4.05871 -0.614724 0
M  V30 352 H 33.6383 -2.9671 -1.03063 0
M  V30 353 H 32.8313 -5.03793 0.14455 0
M  V30 354 H 32.4333 -3.57987 1.08266 0
M  V30 355 H 34.7253 -6.73354 0.748357 0
M  V30 356 H 35.6683 -6.7065 2.27233 0
M  V30 357 H 36.0763 -5.56297 0.958842 0
M  V30 358 N 35.4744 -0.807222 -1.35358 0
M  V30 359 C 36.4214 -0.216037 -2.29787 0
M  V30 360 C 37.3914 0.650278 -1.52842 0
M  V30 361 O 38.5764 0.595227 -1.81278 0
M  V30 362 C 35.7164 0.628893 -3.39321 0
M  V30 363 C 34.8294 -0.257927 -4.31229 0
M  V30 364 C 33.9644 0.595069 -5.27856 0
M  V30 365 C 33.0034 -0.292111 -6.11403 0
M  V30 366 N 32.1404 0.520895 -7.00165 0
M  V30 367 H 36.9804 -1.02671 -2.79755 0
M  V30 368 H 34.5174 -0.517839 -1.37684 0
M  V30 369 H 36.4754 1.13393 -4.01494 0
M  V30 370 H 35.1054 1.40482 -2.90628 0
M  V30 371 H 34.1574 -0.881076 -3.70056 0
M  V30 372 H 35.4694 -0.940759 -4.89848 0
M  V30 373 H 34.6234 1.16522 -5.95405 0
M  V30 374 H 33.3624 1.31146 -4.69736 0
M  V30 375 H 32.3674 -0.874525 -5.428 0
M  V30 376 H 33.5924 -1.00638 -6.71602 0
M  V30 377 H 31.5384 1.22125 -6.44532 0
M  V30 378 H 31.4554 -0.103877 -7.55929 0
M  V30 379 H 32.7234 1.0743 -7.72062 0
M  V30 380 N 36.9525 1.47285 -0.560781 0
M  V30 381 C 38.3635 1.86258 -0.128343 0
M  V30 382 C 38.7145 1.46699 1.30284 0
M  V30 383 O 37.8395 0.871698 1.98067 0
M  V30 384 C 38.4345 3.38044 -0.22614 0
M  V30 385 C 36.9935 3.76096 0.151283 0
M  V30 386 C 36.1405 2.71335 -0.572084 0
M  V30 387 H 39.0915 1.38752 -0.770297 0
M  V30 388 H 39.1125 3.76441 0.554322 0
M  V30 389 H 38.6245 3.66806 -1.26788 0
M  V30 390 H 36.7255 3.52951 1.19399 0
M  V30 391 H 36.8385 4.78641 -0.209765 0
M  V30 392 H 35.2025 2.54696 -0.0147653 0
M  V30 393 H 35.9855 3.02938 -1.61504 0
M  V30 394 N 38.4306 0.297415 1.54768 0
M  V30 395 C 39.3806 -0.595275 2.20092 0
M  V30 396 C 40.3646 -1.10163 1.17273 0
M  V30 397 O 41.5566 -1.043 1.43006 0
M  V30 398 C 38.6856 -1.7684 2.94249 0
M  V30 399 C 37.7716 -1.27818 4.0438 0
M  V30 400 N 38.1626 -0.505695 5.03266 0
M  V30 401 C 36.4606 -1.55923 4.17857 0
M  V30 402 C 37.1616 -0.245094 5.81183 0
M  V30 403 N 36.1376 -0.823881 5.3732 0
M  V30 404 H 39.9396 0.00250837 2.939 0
M  V30 405 H 37.4536 0.102007 1.62079 0
M  V30 406 H 39.4506 -2.41944 3.39513 0
M  V30 407 H 38.1106 -2.36992 2.21957 0
M  V30 408 H 39.1216 -0.150928 5.1768 0
M  V30 409 H 35.7986 -2.16849 3.56767 0
M  V30 410 H 37.1886 0.375084 6.70852 0
M  V30 411 N 39.9087 -1.5758 0.0250728 0
M  V30 412 C 41.3247 -1.56124 -0.331282 0
M  V30 413 C 41.5247 -1.03029 -1.73169 0
M  V30 414 O 40.5807 -0.675215 -2.43305 0
M  V30 415 C 41.8937 -3.00139 -0.183584 0
M  V30 416 C 43.4417 -3.11946 -0.256654 0
M  V30 417 C 43.9167 -4.57793 -0.137792 0
M  V30 418 N 45.4077 -4.6279 -0.194904 0
M  V30 419 C 46.1427 -5.7326 -0.126655 0
M  V30 420 N 45.6387 -6.928 -0.00755288 0
M  V30 421 N 47.4317 -5.61811 -0.180348 0
M  V30 422 H 39.5827 -1.90424 0.94087 0
M  V30 423 H 41.8457 -0.875761 0.362968 0
M  V30 424 H 41.5517 -3.4292 0.780927 0
M  V30 425 H 41.4257 -3.64899 -0.955448 0
M  V30 426 H 43.8127 -2.69079 -1.21162 0
M  V30 427 H 43.8937 -2.49915 0.545517 0
M  V30 428 H 43.5377 -5.01339 0.813739 0
M  V30 429 H 43.4677 -5.17798 -0.958775 0
M  V30 430 H 45.9587 -3.76807 -0.287267 0
M  V30 431 H 46.2717 -7.72791 0.0379428 0
M  V30 432 H 44.6167 -6.94995 0.0271731 0
M  V30 433 H 47.8077 -4.6731 -0.271767 0
M  V30 434 H 47.9807 -6.47882 -0.123697 0
M  V30 435 N 41.3868 0.248026 -1.55636 0
M  V30 436 C 42.3168 1.31079 -1.93237 0
M  V30 437 C 43.2978 1.50264 -0.797174 0
M  V30 438 O 44.4828 1.62891 -1.05737 0
M  V30 439 C 41.6128 2.66575 -2.22609 0
M  V30 440 C 40.5668 2.62087 -3.3837 0
M  V30 441 C 39.8928 4.01369 -3.53281 0
M  V30 442 C 41.1928 2.19171 -4.7409 0
M  V30 443 H 42.8868 0.998556 -2.82257 0
M  V30 444 H 40.4328 0.47891 -1.35803 0
M  V30 445 H 42.3858 3.41057 -2.47503 0
M  V30 446 H 41.1098 2.99432 -1.30414 0
M  V30 447 H 39.7688 1.90063 -3.13483 0
M  V30 448 H 39.4168 4.31489 -2.58508 0
M  V30 449 H 39.1168 3.99254 -4.31127 0
M  V30 450 H 40.6408 4.77552 -3.80495 0
M  V30 451 H 42.0548 2.83384 -4.98363 0
M  V30 452 H 40.4518 2.2817 -5.5503 0
M  V30 453 H 41.5218 1.14336 -4.71227 0
M  V30 454 N 42.8649 1.48995 0.513639 0
M  V30 455 C 43.8279 1.64229 1.59879 0
M  V30 456 C 44.8279 0.514696 1.5234 0
M  V30 457 O 46.0179 0.78087 1.55718 0
M  V30 458 C 43.1499 1.62783 2.99524 0
M  V30 459 H 44.3429 2.61004 1.47705 0
M  V30 460 H 41.8959 1.37837 0.736936 0
M  V30 461 H 42.6309 0.675461 3.17188 0
M  V30 462 H 42.4159 2.4466 3.06404 0
M  V30 463 H 43.9059 1.76669 3.78388 0
M  V30 464 N 44.343 -0.763751 1.37857 0
M  V30 465 C 45.273 -1.89103 1.36975 0
M  V30 466 C 46.254 -1.68439 0.237152 0
M  V30 467 O 47.439 -1.8918 0.438713 0
M  V30 468 C 44.569 -3.26496 1.18395 0
M  V30 469 C 43.523 -3.61741 2.28751 0
M  V30 470 C 42.849 -4.97762 1.95286 0
M  V30 471 C 44.149 -3.67665 3.70972 0
M  V30 472 H 45.843 -1.90099 2.31307 0
M  V30 473 H 43.389 -0.91319 1.11341 0
M  V30 474 H 45.342 -4.05003 1.16406 0
M  V30 475 H 44.066 -3.25955 0.205215 0
M  V30 476 H 42.725 -2.85547 2.29909 0
M  V30 477 H 42.373 -4.93769 0.959221 0
M  V30 478 H 42.073 -5.22313 2.69189 0
M  V30 479 H 43.597 -5.7866 1.94898 0
M  V30 480 H 45.011 -4.36307 3.719 0
M  V30 481 H 43.408 -4.03718 4.43995 0
M  V30 482 H 44.478 -2.68134 4.0402 0
M  V30 483 N 45.8211 -1.22559 -0.990812 0
M  V30 484 C 47.0491 -1.07779 -1.76611 0
M  V30 485 C 47.4641 0.371513 -1.85109 0
M  V30 486 O 46.8211 1.25737 -1.32274 0
M  V30 487 C 46.8721 -1.68512 -3.19822 0
M  V30 488 O 46.5931 -3.07774 -3.1178 0
M  V30 489 C 48.0941 -1.59035 -4.13791 0
M  V30 490 H 45.3141 -0.377729 -0.554583 0
M  V30 491 H 47.8581 -1.62195 -1.24551 0
M  V30 492 H 46.0131 -1.18154 -3.68942 0
M  V30 493 H 46.4271 -3.37062 -4.01858 0
M  V30 494 H 47.9011 -2.0625 -5.1202 0
M  V30 495 H 48.3781 -0.547273 -4.35777 0
M  V30 496 H 48.9841 -2.08709 -3.70568 0
M  V30 497 N 47.2992 1.18797 -1.03562 0
M  V30 498 C 48.2492 2.20161 -0.592724 0
M  V30 499 C 49.2332 1.56772 0.362133 0
M  V30 500 O 50.4252 1.76062 0.182009 0
M  V30 501 C 47.5542 3.43266 0.0481024 0
M  V30 502 C 46.6402 4.13786 -0.9296 0
M  V30 503 N 47.0312 4.60388 -2.09467 0
M  V30 504 C 45.3292 4.39572 -0.754499 0
M  V30 505 C 46.0302 5.14619 -2.71187 0
M  V30 506 N 45.0062 5.05826 -1.991 0
M  V30 507 H 48.8082 2.53877 -1.48066 0
M  V30 508 H 46.3222 1.34946 -0.903514 0
M  V30 509 H 48.3192 4.15136 0.383058 0
M  V30 510 H 46.9792 3.11048 0.931636 0
M  V30 511 H 47.9902 4.54999 -2.47379 0
M  V30 512 H 44.6672 4.17425 0.0793713 0
M  V30 513 H 46.0572 5.60917 -3.69895 0
M  V30 514 N 48.7773 0.814389 1.34928 0
M  V30 515 C 50.0023 0.410097 2.03305 0
M  V30 516 C 50.4273 -0.973464 1.60951 0
M  V30 517 O 49.7853 -1.63185 0.789964 0
M  V30 518 C 49.8333 0.51049 3.56968 0
M  V30 519 O 48.9373 -0.473035 4.09678 0
M  V30 520 H 48.2783 0.170088 0.641846 0
M  V30 521 H 50.8083 1.10244 1.72358 0
M  V30 522 H 50.8183 0.383135 4.06197 0
M  V30 523 H 49.4933 1.51963 3.87144 0
M  V30 524 H 48.0703 -0.305272 3.71648 0
M  V30 525 N 50.2554 -1.46986 0.568584 0
M  V30 526 C 51.1854 -2.32946 -0.160753 0
M  V30 527 C 52.1664 -1.44487 -0.897631 0
M  V30 528 O 53.3514 -1.73327 -0.875867 0
M  V30 529 C 50.4814 -3.26494 -1.18403 0
M  V30 530 C 49.4354 -4.24282 -0.562895 0
M  V30 531 C 48.7614 -5.07236 -1.69163 0
M  V30 532 C 50.0614 -5.19989 0.490761 0
M  V30 533 H 51.7554 -2.94175 0.556916 0
M  V30 534 H 49.3014 -1.4146 0.26927 0
M  V30 535 H 51.2544 -3.85477 -1.70251 0
M  V30 536 H 49.9784 -2.63343 -1.93179 0
M  V30 537 H 48.6374 -3.66541 -0.0656164 0
M  V30 538 H 48.2854 -4.4048 -2.42871 0
M  V30 539 H 47.9854 -5.7345 -1.28174 0
M  V30 540 H 49.5094 -5.6908 -2.21314 0
M  V30 541 H 50.9234 -5.73271 0.0579047 0
M  V30 542 H 49.3204 -5.94469 0.820165 0
M  V30 543 H 50.3904 -4.64777 1.3824 0
M  V30 544 N 51.7335 -0.305618 -1.54608 0
M  V30 545 C 52.9795 0.302746 -2.00528 0
M  V30 546 C 53.3125 1.53184 -1.19367 0
M  V30 547 O 52.5875 1.92598 -0.271321 0
M  V30 548 C 52.8705 0.654756 -3.54097 0
M  V30 549 C 52.7235 -0.583793 -4.45995 0
M  V30 550 C 54.0425 1.47947 -4.14487 0
M  V30 551 H 51.1615 0.108564 -0.72896 0
M  V30 552 H 53.8035 -0.418634 -1.85331 0
M  V30 553 H 51.9535 1.26935 -3.67178 0
M  V30 554 H 53.6255 -1.22224 -4.44814 0
M  V30 555 H 51.8685 -1.21615 -4.16404 0
M  V30 556 H 52.5395 -0.293287 -5.5122 0
M  V30 557 H 55.0155 0.96013 -4.04871 0
M  V30 558 H 53.8915 1.69454 -5.22088 0
M  V30 559 H 54.1525 2.47011 -3.66658 0
M  V30 560 N 53.2116 1.57565 -0.0334293 0
M  V30 561 C 54.1416 2.13511 0.945265 0
M  V30 562 C 55.1226 1.05231 1.33643 0
M  V30 563 O 56.3076 1.33084 1.41429 0
M  V30 564 C 53.4376 2.6657 2.22616 0
M  V30 565 C 52.3916 3.79676 1.97561 0
M  V30 566 C 51.7176 4.1918 3.31952 0
M  V30 567 C 53.0176 5.0557 1.31135 0
M  V30 568 H 54.7116 2.95538 0.479325 0
M  V30 569 H 52.2576 1.42166 0.229115 0
M  V30 570 H 54.2106 3.04344 2.91466 0
M  V30 571 H 52.9346 1.8171 2.71384 0
M  V30 572 H 51.5936 3.42347 1.31127 0
M  V30 573 H 51.2416 3.31296 3.78487 0
M  V30 574 H 50.9416 4.95402 3.15992 0
M  V30 575 H 52.4656 4.59541 4.02063 0
M  V30 576 H 53.8796 5.40903 1.89992 0
M  V30 577 H 52.2766 5.86818 1.25559 0
M  V30 578 H 53.3466 4.84062 0.284894 0
M  V30 579 N 54.6897 -0.239769 1.55765 0
M  V30 580 C 55.6397 -1.30002 1.87306 0
M  V30 581 C 56.6237 -1.43156 0.73452 0
M  V30 582 O 57.8157 -1.46277 0.99659 0
M  V30 583 C 54.9447 -2.65409 2.17745 0
M  V30 584 C 54.0307 -2.56231 3.37945 0
M  V30 585 N 54.4217 -2.16689 4.57033 0
M  V30 586 C 52.7197 -2.87229 3.41197 0
M  V30 587 C 53.4207 -2.18318 5.39177 0
M  V30 588 N 52.3967 -2.58098 4.78421 0
M  V30 589 H 56.1987 -0.984912 2.76906 0
M  V30 590 H 53.7127 -0.448381 1.56087 0
M  V30 591 H 55.7097 -3.41934 2.38509 0
M  V30 592 H 54.3697 -2.97781 1.29448 0
M  V30 593 H 55.3807 -1.88116 4.82528 0
M  V30 594 H 52.0577 -3.24094 2.63191 0
M  V30 595 H 53.4477 -1.90025 6.44469 0
M  V30 596 N 56.1678 -1.49265 -0.50573 0
M  V30 597 C 57.3978 -1.61979 -1.28243 0
M  V30 598 C 57.8058 -0.288576 -1.86986 0
M  V30 599 O 57.1488 0.735408 -1.68337 0
M  V30 600 C 57.2108 -2.62632 -2.45489 0
M  V30 601 C 56.8748 -4.071 -2.07651 0
M  V30 602 C 57.8718 -4.94049 -1.61901 0
M  V30 603 C 55.5568 -4.52801 -2.17431 0
M  V30 604 C 57.5508 -6.24736 -1.26428 0
M  V30 605 C 55.2378 -5.83503 -1.8157 0
M  V30 606 C 56.2358 -6.69294 -1.36142 0
M  V30 607 O 55.9238 -7.9756 -1.00764 0
M  V30 608 H 55.6558 -0.54834 -0.395347 0
M  V30 609 H 58.2098 -1.96002 -0.614204 0
M  V30 610 H 56.4398 -2.2378 -3.15372 0
M  V30 611 H 58.1288 -2.64925 -3.07522 0
M  V30 612 H 58.8948 -4.5997 -1.53795 0
M  V30 613 H 54.7738 -3.86196 -2.51742 0
M  V30 614 H 58.3178 -6.91652 -0.908992 0
M  V30 615 H 54.2148 -6.17112 -1.89324 0
M  V30 616 H 54.9828 -8.10529 -1.13952 0
M  V30 617 N 57.6459 0.756429 -1.3826 0
M  V30 618 C 58.8939 1.51248 -1.34047 0
M  V30 619 C 59.2149 1.94875 0.0698372 0
M  V30 620 O 58.4849 1.67436 1.01696 0
M  V30 621 H 57.0649 0.561018 -0.493222 0
M  V30 622 H 59.7269 0.899347 -1.7291 0
M  V30 623 H 58.8229 2.40472 -1.98947 0
M  V30 624 N 59.124 1.23083 0.984299 0
M  V30 625 C 60.054 1.03292 2.09411 0
M  V30 626 C 61.035 -0.048923 1.7003 0
M  V30 627 O 62.22 0.114967 1.93859 0
M  V30 628 C 59.35 0.619155 3.41736 0
M  V30 629 C 58.304 1.64791 3.95004 0
M  V30 630 C 57.63 1.0897 5.23478 0
M  V30 631 C 58.93 3.03999 4.24714 0
M  V30 632 H 60.624 1.96119 2.26225 0
M  V30 633 H 58.17 0.944344 1.08711 0
M  V30 634 H 60.123 0.467777 4.18796 0
M  V30 635 H 58.847 -0.344786 3.24775 0
M  V30 636 H 57.506 1.78721 3.20085 0
M  V30 637 H 57.154 0.11686 5.02864 0
M  V30 638 H 56.854 1.77704 5.60085 0
M  V30 639 H 58.378 0.950093 6.03163 0
M  V30 640 H 59.792 2.93393 4.92538 0
M  V30 641 H 58.189 3.69936 4.72512 0
M  V30 642 H 59.259 3.53285 3.32142 0
M  V30 643 N 60.6021 -1.18246 1.0419 0
M  V30 644 C 61.8321 -1.91916 0.764961 0
M  V30 645 C 62.2401 -1.76485 -0.681898 0
M  V30 646 O 61.5831 -1.09275 -1.47664 0
M  V30 647 C 61.6451 -3.4373 1.05309 0
M  V30 648 C 61.3091 -3.8294 2.4941 0
M  V30 649 C 62.3061 -3.86621 3.47592 0
M  V30 650 C 59.9911 -4.142 2.84155 0
M  V30 651 C 61.9851 -4.21013 4.78568 0
M  V30 652 C 59.6721 -4.48262 4.15337 0
M  V30 653 C 60.6701 -4.51645 5.12353 0
M  V30 654 O 60.3581 -4.84911 6.41183 0
M  V30 655 H 60.0901 -0.61606 0.278292 0
M  V30 656 H 62.6441 -1.50947 1.39299 0
M  V30 657 H 60.8741 -3.84946 0.367933 0
M  V30 658 H 62.5631 -3.9865 0.763752 0
M  V30 659 H 63.3291 -3.62607 3.22089 0
M  V30 660 H 59.2081 -4.10743 2.09311 0
M  V30 661 H 62.7521 -4.23568 5.54289 0
M  V30 662 H 58.6491 -4.71737 4.40607 0
M  V30 663 H 59.4171 -5.02809 6.45852 0
M  V30 664 N 62.0802 -0.821533 -1.34494 0
M  V30 665 C 63.0272 -0.240397 -2.29545 0
M  V30 666 C 63.9972 0.634031 -1.53523 0
M  V30 667 O 65.1822 0.575966 -1.81899 0
M  V30 668 C 62.3222 0.592869 -3.39969 0
M  V30 669 C 61.4352 -0.30365 -4.30932 0
M  V30 670 C 60.5702 0.539049 -5.28458 0
M  V30 671 C 59.6092 -0.356942 -6.11058 0
M  V30 672 N 58.7462 0.446603 -7.00678 0
M  V30 673 H 63.5862 -1.05632 -2.7865 0
M  V30 674 H 61.1232 -0.532413 -1.37127 0
M  V30 675 H 63.0812 1.09129 -4.02675 0
M  V30 676 H 61.7112 1.37392 -2.92102 0
M  V30 677 H 60.7632 -0.920276 -3.691 0
M  V30 678 H 62.0752 -0.992661 -4.88823 0
M  V30 679 H 61.2292 1.102 -5.96608 0
M  V30 680 H 59.9682 1.26157 -4.71101 0
M  V30 681 H 58.9732 -0.932047 -5.41842 0
M  V30 682 H 60.1982 -1.07755 -6.70497 0
M  V30 683 H 58.1442 1.15282 -6.45791 0
M  V30 684 H 58.0612 -0.184048 -7.55776 0
M  V30 685 H 59.3292 0.992352 -7.73158 0
M  V30 686 N 63.5583 1.46682 -0.576371 0
M  V30 687 C 64.5053 2.30241 0.160499 0
M  V30 688 C 65.4753 1.40233 0.890162 0
M  V30 689 O 66.6603 1.69186 0.882084 0
M  V30 690 C 63.8003 3.24578 1.1723 0
M  V30 691 C 62.9133 4.29684 0.446736 0
M  V30 692 C 62.0483 5.11154 1.44551 0
M  V30 693 C 61.0873 6.08015 0.70599 0
M  V30 694 N 60.2243 6.82376 1.65251 0
M  V30 695 H 65.0643 2.92727 -0.558127 0
M  V30 696 H 62.6013 1.44272 -0.287056 0
M  V30 697 H 64.5593 3.77711 1.77172 0
M  V30 698 H 63.1893 2.63916 1.85872 0
M  V30 699 H 62.2413 3.79458 -0.267594 0
M  V30 700 H 63.5533 4.98626 -0.131686 0
M  V30 701 H 62.7073 5.68533 2.11791 0
M  V30 702 H 61.4463 4.42158 2.05786 0
M  V30 703 H 60.4513 5.49796 0.0197725 0
M  V30 704 H 61.6763 6.79028 0.09912 0
M  V30 705 H 59.6223 6.16094 2.25308 0
M  V30 706 H 59.5393 7.47556 1.12673 0
M  V30 707 H 60.8073 7.44316 2.31546 0
M  V30 708 N 65.0364 0.313813 1.54444 0
M  V30 709 C 65.9694 -0.598866 2.20202 0
M  V30 710 C 66.9474 -1.12318 1.17573 0
M  V30 711 O 68.1314 -1.18899 1.46271 0
M  V30 712 C 65.2584 -1.82071 2.85601 0
M  V30 713 C 64.3044 -1.42851 4.01865 0
M  V30 714 S 65.1374 -0.473512 5.33402 0
M  V30 715 C 66.2934 -1.70286 6.0229 0
M  V30 716 H 66.5264 -0.0402532 2.97273 0
M  V30 717 H 64.0594 0.0979165 1.54089 0
M  V30 718 H 66.0174 -2.52184 3.23904 0
M  V30 719 H 64.6784 -2.3505 2.08351 0
M  V30 720 H 63.8714 -2.33871 4.46453 0
M  V30 721 H 63.4734 -0.807198 3.65185 0
M  V30 722 H 65.7654 -2.64168 6.23876 0
M  V30 723 H 66.7084 -1.29932 6.96077 0
M  V30 724 H 67.1164 -1.88541 5.32083 0
M  V30 725 N 66.5145 -1.57545 0.0417849 0
M  V30 726 C 67.7635 -1.91494 -0.633492 0
M  V30 727 C 68.0765 -0.921084 -1.72556 0
M  V30 728 O 69.2825 -1.15228 -2.45835 0
M  V30 729 C 67.7385 -3.40072 -1.17808 0
M  V30 730 C 67.3465 -4.47843 -0.118633 0
M  V30 731 C 69.0905 -3.8307 -1.82915 0
M  V30 732 C 66.9975 -5.87529 -0.675578 0
M  V30 733 H 65.9275 -0.714653 -0.24039 0
M  V30 734 H 68.5785 -1.83175 0.109148 0
M  V30 735 H 66.9605 -3.43364 -1.97274 0
M  V30 736 H 68.1345 -4.56128 0.654494 0
M  V30 737 H 66.4495 -4.14128 0.434414 0
M  V30 738 H 69.0465 -4.84794 -2.25563 0
M  V30 739 H 69.3895 -3.1881 -2.67705 0
M  V30 740 H 69.9225 -3.82255 -1.10119 0
M  V30 741 H 66.6615 -6.55362 0.134475 0
M  V30 742 H 66.1815 -5.82824 -1.4169 0
M  V30 743 H 67.8605 -6.36491 -1.1614 0
M  V30 744 N 67.9926 0.231505 -1.5589 0
M  V30 745 C 69.2386 0.95877 -1.78705 0
M  V30 746 C 69.5716 1.8438 -0.609725 0
M  V30 747 O 68.8466 1.90521 0.391426 0
M  V30 748 C 69.1296 1.8062 -3.11526 0
M  V30 749 C 68.9826 0.948328 -4.39689 0
M  V30 750 C 70.3016 2.78585 -3.40703 0
M  V30 751 H 67.4206 0.347129 -0.650131 0
M  V30 752 H 70.0626 0.228259 -1.88624 0
M  V30 753 H 68.2126 2.42902 -3.03201 0
M  V30 754 H 69.8846 0.343016 -4.60023 0
M  V30 755 H 68.1276 0.253314 -4.3306 0
M  V30 756 H 68.7986 1.57543 -5.29041 0
M  V30 757 H 71.2746 2.26439 -3.49091 0
M  V30 758 H 70.1506 3.34988 -4.34826 0
M  V30 759 H 70.4116 3.55825 -2.62375 0
M  V30 760 N 69.4707 1.49531 0.497807 0
M  V30 761 C 70.7177 1.59179 1.25173 0
M  V30 762 C 71.0457 0.279932 1.92475 0
M  V30 763 O 70.3007 -0.732383 1.81479 0
M  V30 764 C 70.5997 2.70252 2.33878 0
M  V30 765 C 70.2657 4.11644 1.84012 0
M  V30 766 C 68.9277 4.50121 1.70132 0
M  V30 767 C 71.2797 5.00121 1.46725 0
M  V30 768 C 68.6077 5.74845 1.17348 0
M  V30 769 C 70.9597 6.25366 0.95392 0
M  V30 770 C 69.6237 6.6267 0.801538 0
M  V30 771 H 68.8937 0.582478 0.45804 0
M  V30 772 H 71.5407 1.83373 0.551948 0
M  V30 773 H 69.8457 2.40041 3.09657 0
M  V30 774 H 71.5427 2.74925 2.9192 0
M  V30 775 H 68.1327 3.81274 1.95775 0
M  V30 776 H 72.3167 4.71048 1.56294 0
M  V30 777 H 67.5727 6.02444 1.04264 0
M  V30 778 H 71.7467 6.93301 0.656225 0
M  V30 779 H 69.3737 7.59197 0.390351 0
M  V30 780 N 70.9488 -0.749086 1.3866 0
M  V30 781 C 71.8958 -1.86291 1.36251 0
M  V30 782 C 72.8658 -1.64578 0.224347 0
M  V30 783 O 74.0508 -1.86181 0.417279 0
M  V30 784 C 71.1908 -3.23644 1.19786 0
M  V30 785 C 70.3038 -3.57158 2.43027 0
M  V30 786 C 69.4388 -4.83838 2.19258 0
M  V30 787 C 68.4778 -5.10152 3.38247 0
M  V30 788 N 67.6148 -6.28029 3.13884 0
M  V30 789 H 72.4548 -1.87685 2.3147 0
M  V30 790 H 69.9918 -0.917287 1.14997 0
M  V30 791 H 71.9498 -4.0291 1.08254 0
M  V30 792 H 70.5798 -3.21566 0.282031 0
M  V30 793 H 69.6318 -2.72701 2.65214 0
M  V30 794 H 70.9438 -3.7253 3.31697 0
M  V30 795 H 70.0978 -5.71057 2.04888 0
M  V30 796 H 68.8368 -4.70614 1.2796 0
M  V30 797 H 67.8418 -4.21401 3.53131 0
M  V30 798 H 69.0668 -5.25271 4.30427 0
M  V30 799 H 67.0128 -6.1612 2.25238 0
M  V30 800 H 66.9298 -6.43922 3.96106 0
M  V30 801 H 68.1978 -7.18124 3.03179 0
M  V30 802 N 72.4269 -1.23603 -0.977757 0
M  V30 803 C 73.8379 -1.06424 -1.53398 0
M  V30 804 C 74.1889 0.367578 -1.92726 0
M  V30 805 O 73.3139 1.25465 -1.76316 0
M  V30 806 C 73.9089 -1.92568 -2.78753 0
M  V30 807 C 72.4679 -1.79642 -3.30765 0
M  V30 808 C 71.6149 -1.88111 -2.03739 0
M  V30 809 H 74.5659 -1.37227 -0.797152 0
M  V30 810 H 74.5869 -1.45203 -3.51705 0
M  V30 811 H 74.0989 -2.96771 -2.50098 0
M  V30 812 H 72.1999 -0.782325 -3.64294 0
M  V30 813 H 72.3129 -2.63174 -4.00345 0
M  V30 814 H 70.6769 -1.31723 -2.17994 0
M  V30 815 H 71.4599 -2.93875 -1.77461 0
M  V30 816 N 73.905 1.17692 -1.04816 0
M  V30 817 C 75.135 1.91508 -0.775128 0
M  V30 818 C 75.543 1.76844 0.67253 0
M  V30 819 O 74.886 1.10057 1.47082 0
M  V30 820 C 74.948 3.43167 -1.0713 0
M  V30 821 C 74.612 3.81612 -2.51438 0
M  V30 822 C 75.609 3.84772 -3.49638 0
M  V30 823 C 73.294 4.12687 -2.86348 0
M  V30 824 C 75.288 4.18469 -4.80794 0
M  V30 825 C 72.975 4.46053 -4.17708 0
M  V30 826 C 73.973 4.48921 -5.14741 0
M  V30 827 O 73.661 4.81504 -6.43746 0
M  V30 828 H 73.393 0.614575 -0.281555 0
M  V30 829 H 75.947 1.50206 -1.40098 0
M  V30 830 H 74.177 3.84745 -0.388342 0
M  V30 831 H 75.866 3.98239 -0.784883 0
M  V30 832 H 76.632 3.60893 -3.24008 0
M  V30 833 H 72.511 4.09627 -2.11486 0
M  V30 834 H 76.055 4.20623 -5.56527 0
M  V30 835 H 71.952 4.69393 -4.43103 0
M  V30 836 H 72.72 4.99377 -6.4851 0
M  V30 837 N 75.3831 0.828654 1.34056 0
M  V30 838 C 76.3151 0.212052 2.28217 0
M  V30 839 C 77.3281 -0.601362 1.51286 0
M  V30 840 O 78.5171 -0.430104 1.73241 0
M  V30 841 C 75.6171 -0.72088 3.31144 0
M  V30 842 C 74.7901 0.0509587 4.3737 0
M  V30 843 C 73.8491 -0.803766 5.20025 0
M  V30 844 O 72.8751 -0.246667 5.68665 0
M  V30 845 N 74.0771 -2.1227 5.40298 0
M  V30 846 H 76.8421 1.02105 2.81771 0
M  V30 847 H 74.4031 0.686153 1.46641 0
M  V30 848 H 76.3951 -1.29742 3.8334 0
M  V30 849 H 74.9651 -1.43061 2.77943 0
M  V30 850 H 74.1851 0.808831 3.85813 0
M  V30 851 H 75.4731 0.582065 5.0546 0
M  V30 852 H 74.8711 -2.59898 5.02464 0
M  V30 853 H 73.4281 -2.64796 5.95589 0
M  V30 854 N 76.8612 -1.46375 0.584142 0
M  V30 855 C 77.8242 -2.28784 -0.138108 0
M  V30 856 C 78.8242 -1.38471 -0.817462 0
M  V30 857 O 80.0142 -1.60833 -0.669199 0
M  V30 858 C 77.1462 -3.18892 -1.20503 0
M  V30 859 H 78.3392 -2.94117 0.586127 0
M  V30 860 H 75.8922 -1.52509 0.342171 0
M  V30 861 H 76.6272 -2.58309 -1.96079 0
M  V30 862 H 76.4122 -3.85388 -0.722384 0
M  V30 863 H 77.9022 -3.80914 -1.71155 0
M  V30 864 N 78.3393 -0.321999 -1.54275 0
M  V30 865 C 79.5643 0.285791 -2.05422 0
M  V30 866 C 79.9893 1.45124 -1.19669 0
M  V30 867 O 79.3473 1.80132 -0.205441 0
M  V30 868 C 79.3953 0.69956 -3.53749 0
M  V30 869 O 78.4993 1.8021 -3.70942 0
M  V30 870 H 77.8403 0.0518962 -0.661969 0
M  V30 871 H 80.3703 -0.469954 -1.9913 0
M  V30 872 H 80.3803 0.982649 -3.9599 0
M  V30 873 H 79.0553 -0.152864 -4.15619 0
M  V30 874 H 77.6323 1.51794 -3.40607 0
M  V30 875 N 79.8174 1.5752 -0.0501392 0
M  V30 876 C 80.7494 2.08413 0.95376 0
M  V30 877 C 81.7624 1.01175 1.27544 0
M  V30 878 O 82.9514 1.28744 1.23641 0
M  V30 879 C 80.0514 2.51138 2.27559 0
M  V30 880 C 79.2244 3.817 2.13598 0
M  V30 881 C 78.2834 4.10749 3.28895 0
M  V30 882 O 77.3094 4.80685 3.04845 0
M  V30 883 N 78.5114 3.62579 4.5334 0
M  V30 884 H 81.2764 2.95165 0.519383 0
M  V30 885 H 78.8374 1.61327 0.136127 0
M  V30 886 H 80.8294 2.67648 3.03557 0
M  V30 887 H 79.3994 1.6964 2.62567 0
M  V30 888 H 78.6194 3.74782 1.22197 0
M  V30 889 H 79.9074 4.67201 2.01496 0
M  V30 890 H 79.3054 3.06039 4.75769 0
M  V30 891 H 77.8624 3.84329 5.26436 0
M  V30 892 N 81.2955 -0.223234 1.56011 0
M  V30 893 C 82.2455 -1.28008 1.88674 0
M  V30 894 C 83.2295 -1.42369 0.749663 0
M  V30 895 O 84.4215 -1.45212 1.01205 0
M  V30 896 C 81.5505 -2.63084 2.20548 0
M  V30 897 C 80.6365 -2.52632 3.40643 0
M  V30 898 N 81.0275 -2.11829 4.59306 0
M  V30 899 C 79.3255 -2.83594 3.44224 0
M  V30 900 C 80.0265 -2.12587 5.41463 0
M  V30 901 N 79.0025 -2.5301 4.81131 0
M  V30 902 H 82.8045 -0.955487 2.77935 0
M  V30 903 H 80.3185 -0.431801 1.56554 0
M  V30 904 H 82.3155 -3.39385 2.42122 0
M  V30 905 H 80.9755 -2.96391 1.32599 0
M  V30 906 H 81.9865 -1.82988 4.84496 0
M  V30 907 H 78.6635 -3.21284 2.66614 0
M  V30 908 H 80.0535 -1.83179 6.46448 0
M  V30 909 N 82.7736 -1.49793 -0.48987 0
M  V30 910 C 84.0506 -1.50348 -1.25119 0
M  V30 911 C 84.4306 -0.237466 -2.0976 0
M  V30 912 O 83.7786 0.77981 -2.14782 0
M  V30 913 C 83.9886 -2.78872 -2.09837 0
M  V30 914 C 85.3366 -3.288 -2.68655 0
M  V30 915 O 86.3606 -2.80065 -2.20096 0
M  V30 916 O 85.2196 -4.13707 -3.57083 0
M  V30 917 H 82.3136 -0.602242 -0.566775 0
M  V30 918 H 84.8596 -1.62067 -0.503229 0
M  V30 919 H 83.6316 -3.62499 -1.47343 0
M  V30 920 H 83.2546 -2.70066 -2.91805 0
M  V30 921 N 84.2517 0.741722 -1.39055 0
M  V30 922 C 85.1847 1.86416 -1.31622 0
M  V30 923 C 86.1627 1.61473 -0.191076 0
M  V30 924 O 87.3467 1.84825 -0.370399 0
M  V30 925 C 84.4737 3.22266 -1.04221 0
M  V30 926 C 83.5197 3.66079 -2.18834 0
M  V30 927 S 84.3527 3.7623 -3.81066 0
M  V30 928 C 85.5087 5.14881 -3.55877 0
M  V30 929 H 85.7417 1.92437 -2.26617 0
M  V30 930 H 83.2747 0.905907 -1.25031 0
M  V30 931 H 85.2327 4.00714 -0.890964 0
M  V30 932 H 83.8937 3.1391 -0.109237 0
M  V30 933 H 83.0867 4.64648 -1.95238 0
M  V30 934 H 82.6887 2.94817 -2.30128 0
M  V30 935 H 84.9807 6.01006 -3.12726 0
M  V30 936 H 85.9237 5.43503 -4.53884 0
M  V30 937 H 86.3317 4.84239 -2.90126 0
M  V30 938 N 85.7298 1.2412 0.971189 0
M  V30 939 C 86.9698 1.09066 1.7287 0
M  V30 940 C 87.3338 -0.364794 1.88503 0
M  V30 941 O 88.5348 -0.636748 2.61149 0
M  V30 942 C 86.8058 1.80629 3.08396 0
M  V30 943 S 88.3648 1.81263 3.99611 0
M  V30 944 H 85.1828 0.390145 0.594397 0
M  V30 945 H 87.7848 1.57397 1.15959 0
M  V30 946 H 86.4888 2.85647 2.94676 0
M  V30 947 H 86.0198 1.32617 3.70373 0
M  V30 948 H 88.0348 0.877804 4.88374 0
M  V30 949 N 87.2079 -1.17134 1.05439 0
M  V30 950 C 88.6239 -1.39454 0.776201 0
M  V30 951 C 88.8239 -1.91454 -0.628307 0
M  V30 952 O 87.8799 -2.10777 -1.39031 0
M  V30 953 C 89.1929 -2.38305 1.83388 0
M  V30 954 C 90.7409 -2.52006 1.85639 0
M  V30 955 C 91.2159 -3.54133 2.90437 0
M  V30 956 N 92.7069 -3.61653 2.89415 0
M  V30 957 C 93.4419 -4.4044 3.67152 0
M  V30 958 N 92.9379 -5.22721 4.54681 0
M  V30 959 N 94.7309 -4.35337 3.55581 0
M  V30 960 H 86.8819 -0.817134 1.96053 0
M  V30 961 H 89.1449 -0.421626 0.849079 0
M  V30 962 H 88.8509 -2.07173 2.84204 0
M  V30 963 H 88.7249 -3.37841 1.67761 0
M  V30 964 H 91.1119 -2.82447 0.85486 0
M  V30 965 H 91.1929 -1.52537 2.05344 0
M  V30 966 H 90.8369 -3.24431 3.90777 0
M  V30 967 H 90.7669 -4.53313 2.67983 0
M  V30 968 H 93.2579 -3.02909 2.25952 0
M  V30 969 H 93.5709 -5.80027 5.10674 0
M  V30 970 H 91.9159 -5.22093 4.58741 0
M  V30 971 H 95.1069 -3.70112 2.86592 0
M  V30 972 H 95.2799 -4.96494 4.1641 0
M  V30 973 N 88.686 -0.835752 -1.33615 0
M  V30 974 C 89.933 -0.429959 -1.97883 0
M  V30 975 C 90.261 1.01006 -1.66217 0
M  V30 976 O 89.516 1.72047 -0.93265 0
M  V30 977 C 89.815 -0.593925 -3.52431 0
M  V30 978 C 89.481 -2.00158 -4.04039 0
M  V30 979 C 88.143 -2.38662 -4.17844 0
M  V30 980 C 90.495 -2.92117 -4.31644 0
M  V30 981 C 87.823 -3.68435 -4.56588 0
M  V30 982 C 90.175 -4.21368 -4.71838 0
M  V30 983 C 88.839 -4.59833 -4.83849 0
M  V30 984 H 88.109 -0.157333 -0.724104 0
M  V30 985 H 90.756 -1.06217 -1.59343 0
M  V30 986 H 89.061 0.121619 -3.91611 0
M  V30 987 H 90.758 -0.260282 -4.00154 0
M  V30 988 H 87.348 -1.69252 -3.93766 0
M  V30 989 H 91.532 -2.63608 -4.20505 0
M  V30 990 H 86.788 -3.98046 -4.64079 0
M  V30 991 H 90.962 -4.92703 -4.92155 0
M  V30 992 H 88.589 -5.60438 -5.13627 0
M  V30 993 N 90.1641 1.46063 -0.591896 0
M  V30 994 C 91.1141 2.27458 0.157172 0
M  V30 995 C 92.0981 1.3641 0.853301 0
M  V30 996 O 93.2901 1.60517 0.74588 0
M  V30 997 C 90.4191 3.22956 1.16423 0
M  V30 998 C 89.5051 4.2149 0.469742 0
M  V30 999 N 89.8961 5.03519 -0.479839 0
M  V30 1000 C 88.1941 4.40161 0.719319 0
M  V30 1001 C 88.8951 5.74904 -0.886591 0
M  V30 1002 N 87.8711 5.43097 -0.233731 0
M  V30 1003 H 91.6731 2.88272 -0.572392 0
M  V30 1004 H 89.1871 1.57024 -0.414375 0
M  V30 1005 H 91.1841 3.79986 1.71513 0
M  V30 1006 H 89.8441 2.63701 1.89451 0
M  V30 1007 H 90.8551 5.1078 -0.855823 0
M  V30 1008 H 87.5321 3.92046 1.43548 0
M  V30 1009 H 88.9221 6.50844 -1.66888 0
M  V30 1010 N 91.6422 0.330177 1.54103 0
M  V30 1011 C 92.8672 -0.274893 2.0557 0
M  V30 1012 C 93.2922 -1.44487 1.20437 0
M  V30 1013 O 92.6502 -1.80021 0.214991 0
M  V30 1014 C 92.6982 -0.68079 3.54115 0
M  V30 1015 O 91.8022 -1.7824 3.71893 0
M  V30 1016 H 91.1432 -0.0483849 0.662235 0
M  V30 1017 H 93.6732 0.480508 1.98878 0
M  V30 1018 H 93.6832 -0.961635 3.96505 0
M  V30 1019 H 92.3582 0.174903 4.15532 0
M  V30 1020 H 90.9352 -1.49985 3.41407 0
M  V30 1021 N 93.1203 -1.57491 0.0584922 0
M  V30 1022 C 94.0303 -2.15448 -0.928414 0
M  V30 1023 C 95.0463 -1.11416 -1.3365 0
M  V30 1024 O 96.2223 -1.4362 -1.41193 0
M  V30 1025 C 93.2873 -2.69393 -2.18239 0
M  V30 1026 C 92.3483 -3.88249 -1.83196 0
M  V30 1027 C 91.5813 -4.39613 -3.02616 0
M  V30 1028 O 91.8043 -3.90023 -4.16219 0
M  V30 1029 O 90.7383 -5.31111 -2.83204 0
M  V30 1030 H 94.5643 -3.00112 -0.465483 0
M  V30 1031 H 92.1493 -1.48499 -0.163826 0
M  V30 1032 H 94.0313 -3.04026 -2.91798 0
M  V30 1033 H 92.7063 -1.87796 -2.63656 0
M  V30 1034 H 91.6133 -3.58492 -1.06931 0
M  V30 1035 H 92.9463 -4.71098 -1.42573 0
M  V30 1036 N 94.5984 0.214957 -1.56127 0
M  V30 1037 C 95.8754 0.963093 -1.70247 0
M  V30 1038 C 96.2554 2.02166 -0.60764 0
M  V30 1039 O 95.6034 2.25244 0.384385 0
M  V30 1040 C 95.8134 1.56756 -3.11815 0
M  V30 1041 C 97.1614 2.0573 -3.7143 0
M  V30 1042 O 98.1854 1.66637 -3.14818 0
M  V30 1043 O 97.0444 2.77603 -4.70743 0
M  V30 1044 H 94.1384 0.450321 -0.693643 0
M  V30 1045 H 96.6844 0.206219 -1.68442 0
M  V30 1046 H 95.4564 0.803533 -3.82961 0
M  V30 1047 H 95.0794 2.3898 -3.17765 0
M  V30 1048 N 96.0765 1.50051 0.48192 0
M  V30 1049 C 97.3065 1.63999 1.2565 0
M  V30 1050 C 97.7145 0.318288 1.86504 0
M  V30 1051 O 97.0575 -0.708534 1.69486 0
M  V30 1052 C 97.1195 2.66504 2.4128 0
M  V30 1053 C 96.7835 4.10352 2.01148 0
M  V30 1054 C 97.7805 4.96562 1.54021 0
M  V30 1055 C 95.4655 4.56203 2.10199 0
M  V30 1056 C 97.4595 6.26668 1.16473 0
M  V30 1057 C 95.1465 5.86318 1.72264 0
M  V30 1058 C 96.1445 6.71375 1.25477 0
M  V30 1059 O 95.8325 7.99062 0.880626 0
M  V30 1060 H 95.5645 0.55456 0.386574 0
M  V30 1061 H 98.1185 1.96954 0.582944 0
M  V30 1062 H 96.3485 2.28769 3.11772 0
M  V30 1063 H 98.0375 2.69783 3.03268 0
M  V30 1064 H 98.8035 4.62358 1.46458 0
M  V30 1065 H 94.6825 3.90152 2.45566 0
M  V30 1066 H 98.2265 6.93011 0.798841 0
M  V30 1067 H 94.1235 6.20046 1.79482 0
M  V30 1068 H 94.8915 8.12239 1.01043 0
M  V30 1069 N 97.5546 -0.734337 1.39446 0
M  V30 1070 C 98.8036 -1.48937 1.36017 0
M  V30 1071 C 99.1166 -1.95557 -0.0409005 0
M  V30 1072 O 100.323 -2.70779 -0.19778 0
M  V30 1073 C 98.7786 -2.69125 2.38955 0
M  V30 1074 C 98.3866 -2.29452 3.8478 0
M  V30 1075 C 100.131 -3.46944 2.44603 0
M  V30 1076 C 98.0376 -3.46366 4.79358 0
M  V30 1077 H 96.9676 -0.559296 0.505672 0
M  V30 1078 H 99.6186 -0.800983 1.65095 0
M  V30 1079 H 98.0006 -3.40041 2.02948 0
M  V30 1080 H 99.1746 -1.66077 4.29831 0
M  V30 1081 H 97.4896 -1.64723 3.82433 0
M  V30 1082 H 100.087 -4.33907 3.12456 0
M  V30 1083 H 100.43 -3.89454 1.47076 0
M  V30 1084 H 100.963 -2.83056 2.79507 0
M  V30 1085 H 97.7016 -3.08905 5.78151 0
M  V30 1086 H 97.2216 -4.08719 4.38986 0
M  V30 1087 H 98.9006 -4.12691 4.98292 0
M  V30 1088 N 99.0327 -1.24633 -0.964593 0
M  V30 1089 C 100.31 -0.995809 -1.68354 0
M  V30 1090 C 100.69 0.480964 -2.05548 0
M  V30 1091 O 100.038 1.45599 -1.76105 0
M  V30 1092 C 100.248 -1.92177 -2.91323 0
M  V30 1093 C 101.596 -2.19446 -3.63495 0
M  V30 1094 O 102.62 -1.89855 -3.01386 0
M  V30 1095 O 101.479 -2.69714 -4.75307 0
M  V30 1096 H 98.5727 -0.376854 -0.736146 0
M  V30 1097 H 101.119 -1.35745 -1.0184 0
M  V30 1098 H 99.8907 -2.91938 -2.60553 0
M  V30 1099 H 99.5137 -1.56349 -3.65569 0
M  V30 1100 N 100.511 1.16574 -1.06058 0
M  V30 1101 C 101.758 1.87047 -0.775873 0
M  V30 1102 C 102.086 1.81562 0.697534 0
M  V30 1103 O 101.341 1.22445 1.52662 0
M  V30 1104 C 101.64 3.36195 -1.21275 0
M  V30 1105 C 101.306 3.6188 -2.68986 0
M  V30 1106 C 99.9678 3.68599 -3.09335 0
M  V30 1107 C 102.32 3.72648 -3.64394 0
M  V30 1108 C 99.6478 3.83584 -4.43937 0
M  V30 1109 C 102 3.89154 -4.98741 0
M  V30 1110 C 100.664 3.94114 -5.3873 0
M  V30 1111 H 99.9338 0.684452 -0.283912 0
M  V30 1112 H 102.581 1.37853 -1.32925 0
M  V30 1113 H 100.886 3.87505 -0.578528 0
M  V30 1114 H 102.583 3.89103 -0.969542 0
M  V30 1115 H 99.1728 3.57281 -2.36744 0
M  V30 1116 H 103.357 3.66769 -3.34356 0
M  V30 1117 H 98.6128 3.85677 -4.74409 0
M  V30 1118 H 102.787 3.96427 -5.72554 0
M  V30 1119 H 100.414 4.05478 -6.43033 0
M  V30 1120 N 101.989 0.842826 1.3317 0
M  V30 1121 C 102.919 0.294028 2.31641 0
M  V30 1122 C 103.9 -0.600401 1.59151 0
M  V30 1123 O 105.085 -0.523124 1.87022 0
M  V30 1124 C 102.215 -0.528416 3.43257 0
M  V30 1125 C 101.169 0.27056 4.27144 0
M  V30 1126 C 100.495 -0.675881 5.30411 0
M  V30 1127 C 101.795 1.48981 5.00602 0
M  V30 1128 H 103.489 1.11681 2.77791 0
M  V30 1129 H 101.035 0.538478 1.33553 0
M  V30 1130 H 102.988 -0.922674 4.11175 0
M  V30 1131 H 101.712 -1.38445 2.95805 0
M  V30 1132 H 100.371 0.646427 3.60856 0
M  V30 1133 H 100.019 -1.52842 4.79216 0
M  V30 1134 H 99.7189 -0.145374 5.8742 0
M  V30 1135 H 101.243 -1.06757 6.01195 0
M  V30 1136 H 102.657 1.16849 5.61266 0
M  V30 1137 H 101.054 1.95739 5.6728 0
M  V30 1138 H 102.124 2.25746 4.29147 0
M  V30 1139 N 103.467 -1.45747 0.599634 0
M  V30 1140 C 104.399 -2.28628 -0.161879 0
M  V30 1141 C 105.412 -1.39494 -0.839367 0
M  V30 1142 O 106.601 -1.63941 -0.706089 0
M  V30 1143 C 103.701 -3.15014 -1.24976 0
M  V30 1144 C 102.874 -4.32378 -0.660935 0
M  V30 1145 C 101.933 -5.00033 -1.63869 0
M  V30 1146 O 100.959 -5.57085 -1.1681 0
M  V30 1147 N 102.161 -4.98589 -2.97303 0
M  V30 1148 H 104.926 -2.94624 0.549265 0
M  V30 1149 H 102.487 -1.55847 0.438565 0
M  V30 1150 H 104.479 -3.5714 -1.9035 0
M  V30 1151 H 103.049 -2.5098 -1.86354 0
M  V30 1152 H 102.269 -3.9383 0.170688 0
M  V30 1153 H 103.557 -5.08197 -0.247619 0
M  V30 1154 H 102.955 -4.53514 -3.38145 0
M  V30 1155 H 101.512 -5.44603 -3.58121 0
M  V30 1156 N 104.945 -0.338344 -1.53925 0
M  V30 1157 C 106.361 0.0137736 -1.59594 0
M  V30 1158 C 106.561 1.49186 -1.35447 0
M  V30 1159 O 105.617 2.24987 -1.14616 0
M  V30 1160 C 106.93 -0.41773 -2.97784 0
M  V30 1161 C 108.478 -0.369633 -3.1081 0
M  V30 1162 C 108.953 -0.776524 -4.51369 0
M  V30 1163 N 110.444 -0.730506 -4.57403 0
M  V30 1164 C 111.179 -1.01736 -5.64303 0
M  V30 1165 N 110.675 -1.3721 -6.79077 0
M  V30 1166 N 112.468 -0.941942 -5.54151 0
M  V30 1167 H 104.619 -1.3012 -1.67876 0
M  V30 1168 H 106.882 -0.530082 -0.78595 0
M  V30 1169 H 106.588 -1.44811 -3.20504 0
M  V30 1170 H 106.462 0.209729 -3.76616 0
M  V30 1171 H 108.849 0.651568 -2.87817 0
M  V30 1172 H 108.93 -1.03223 -2.34049 0
M  V30 1173 H 108.574 -1.79571 -4.75096 0
M  V30 1174 H 108.504 -0.0914649 -5.26521 0
M  V30 1175 H 110.995 -0.468783 -3.74981 0
M  V30 1176 H 111.308 -1.57597 -7.5656 0
M  V30 1177 H 109.653 -1.4105 -6.80536 0
M  V30 1178 H 112.844 -0.664184 -4.63364 0
M  V30 1179 H 113.017 -1.16884 -6.37371 0
M  V30 1180 N 106.423 1.57458 -0.0668435 0
M  V30 1181 C 107.669 1.93587 0.6043 0
M  V30 1182 C 108.002 0.946722 1.69561 0
M  V30 1183 O 107.277 -0.0248516 1.94484 0
M  V30 1184 C 107.56 3.40014 1.18585 0
M  V30 1185 C 107.413 4.49685 0.101529 0
M  V30 1186 C 108.732 3.87154 2.09284 0
M  V30 1187 H 105.851 0.703958 0.218202 0
M  V30 1188 H 108.493 1.89542 -0.131804 0
M  V30 1189 H 106.643 3.43592 1.81319 0
M  V30 1190 H 108.315 4.5823 -0.531279 0
M  V30 1191 H 106.558 4.30059 -0.568487 0
M  V30 1192 H 107.229 5.49266 0.54874 0
M  V30 1193 H 109.705 3.85551 1.56491 0
M  V30 1194 H 108.581 4.90231 2.46911 0
M  V30 1195 H 108.842 3.2481 2.99918 0
M  V30 1196 N 107.901 -0.206675 1.56239 0
M  V30 1197 C 109.126 -0.949474 1.8439 0
M  V30 1198 C 109.551 -1.76549 0.649016 0
M  V30 1199 O 108.909 -1.76782 -0.402231 0
M  V30 1200 C 108.957 -1.83078 3.10668 0
M  V30 1201 O 108.061 -2.9281 2.90407 0
M  V30 1202 H 107.402 -0.268033 0.607499 0
M  V30 1203 H 109.932 -0.215488 2.03462 0
M  V30 1204 H 109.942 -2.2377 3.41161 0
M  V30 1205 H 108.617 -1.23112 3.97261 0
M  V30 1206 H 107.194 -2.55956 2.71184 0
M  V30 1207 N 109.379 -1.50304 -0.473955 0
M  V30 1208 C 110.79 -1.54042 -1.0549 0
M  V30 1209 C 111.141 -0.342248 -1.93192 0
M  V30 1210 O 110.266 0.545157 -2.09421 0
M  V30 1211 C 110.861 -2.79152 -1.91989 0
M  V30 1212 C 109.42 -2.8558 -2.45196 0
M  V30 1213 C 108.567 -2.48295 -1.2347 0
M  V30 1214 H 111.518 -1.5661 -0.256693 0
M  V30 1215 H 111.539 -2.60845 -2.7702 0
M  V30 1216 H 111.051 -3.66339 -1.28131 0
M  V30 1217 H 109.152 -2.02738 -3.12615 0
M  V30 1218 H 109.265 -3.88403 -2.80499 0
M  V30 1219 H 107.629 -2.00669 -1.56856 0
M  V30 1220 H 108.412 -3.37787 -0.612789 0
M  V30 1221 N 110.857 0.726932 -1.39834 0
M  V30 1222 C 112.085 1.51613 -1.40787 0
M  V30 1223 C 112.5 1.88799 -0.00451505 0
M  V30 1224 O 111.857 1.54662 0.968809 0
M  V30 1225 C 111.908 2.79863 -2.28821 0
M  V30 1226 O 111.629 2.44253 -3.63692 0
M  V30 1227 C 113.13 3.73837 -2.38245 0
M  V30 1228 H 110.35 0.468264 -0.480593 0
M  V30 1229 H 112.894 0.897607 -1.83748 0
M  V30 1230 H 111.049 3.38027 -1.89252 0
M  V30 1231 H 111.463 3.26695 -4.1033 0
M  V30 1232 H 112.937 4.60699 -3.04073 0
M  V30 1233 H 113.414 4.16153 -1.40403 0
M  V30 1234 H 114.02 3.21589 -2.78317 0
M  V30 1235 N 112.336 1.25143 0.95797 0
M  V30 1236 C 113.284 1.05019 2.07542 0
M  V30 1237 C 114.278 -0.0178751 1.69391 0
M  V30 1238 O 115.484 0.137472 1.79474 0
M  V30 1239 H 111.859 0.32265 0.679265 0
M  V30 1240 H 113.83 1.99759 2.21673 0
M  V30 1241 C 112.579 0.682074 3.40944 0
M  V30 1242 H 111.902 1.49573 3.70767 0
M  V30 1243 H 113.342 0.580945 4.20001 0
M  V30 1244 C 111.801 -0.611608 3.31302 0
M  V30 1245 O 112.331 -1.65465 3.66038 0
M  V30 1246 N 110.537 -0.595982 2.84423 0
M  V30 1247 H 110.084 0.253192 2.56353 0
M  V30 1248 H 110.042 -1.46173 2.78354 0
M  V30 1249 N 113.814 -1.1601 1.06675 0
M  V30 1250 C 114.747 -2.1947 0.625168 0
M  V30 1251 C 115.725 -1.58699 -0.354041 0
M  V30 1252 O 116.909 -1.86669 -0.262098 0
M  V30 1253 C 114.036 -3.38598 -0.0829593 0
M  V30 1254 C 113.082 -4.1787 0.853611 0
M  V30 1255 S 113.915 -4.81135 2.35094 0
M  V30 1256 C 115.071 -6.03639 1.65441 0
M  V30 1257 H 115.304 -2.56587 1.50168 0
M  V30 1258 H 112.837 -1.26862 0.880078 0
M  V30 1259 H 114.795 -4.07621 -0.485288 0
M  V30 1260 H 113.456 -2.99839 -0.935716 0
M  V30 1261 H 112.649 -5.03078 0.304755 0
M  V30 1262 H 112.251 -3.54361 1.196 0
M  V30 1263 H 114.543 -6.70632 0.962201 0
M  V30 1264 H 115.486 -6.63081 2.48454 0
M  V30 1265 H 115.894 -5.52965 1.13534 0
M  V30 1266 N 115.292 -0.849877 -1.32721 0
M  V30 1267 C 116.224 -0.248332 -2.27851 0
M  V30 1268 C 117.237 0.577218 -1.52224 0
M  V30 1269 O 118.426 0.402489 -1.73903 0
M  V30 1270 C 115.526 0.668107 -3.32249 0
M  V30 1271 C 114.699 -0.120534 -4.37234 0
M  V30 1272 C 113.758 0.720932 -5.21238 0
M  V30 1273 O 112.784 0.156166 -5.68986 0
M  V30 1274 N 113.986 2.03647 -5.43607 0
M  V30 1275 H 116.751 -1.06575 -2.80111 0
M  V30 1276 H 114.312 -0.709395 -1.45531 0
M  V30 1277 H 116.304 1.23627 -3.85355 0
M  V30 1278 H 114.874 1.38621 -2.80184 0
M  V30 1279 H 114.094 -0.870108 -3.84477 0
M  V30 1280 H 115.382 -0.662406 -5.0447 0
M  V30 1281 H 114.78 2.51871 -5.06535 0
M  V30 1282 H 113.337 2.55287 -5.99727 0
M  V30 1283 N 116.77 1.45427 -0.607355 0
M  V30 1284 C 118.018 2.01841 -0.102253 0
M  V30 1285 C 118.339 1.47832 1.27164 0
M  V30 1286 O 117.609 0.672497 1.83995 0
M  V30 1287 H 116.189 0.746188 -0.0348101 0
M  V30 1288 H 118.851 1.78229 -0.7887 0
M  V30 1289 H 117.947 3.12057 -0.0518585 0
M  V30 1290 N 118.248 0.346503 1.53744 0
M  V30 1291 C 119.495 -0.249104 2.00962 0
M  V30 1292 C 119.823 -1.5032 1.23426 0
M  V30 1293 O 119.078 -1.93217 0.310761 0
M  V30 1294 C 119.377 -0.605809 3.52228 0
M  V30 1295 C 119.043 0.551747 4.47512 0
M  V30 1296 C 117.705 0.86941 4.73281 0
M  V30 1297 C 120.057 1.32818 5.03993 0
M  V30 1298 C 117.385 1.96582 5.52786 0
M  V30 1299 C 119.737 2.41486 5.84694 0
M  V30 1300 C 118.401 2.73808 6.08757 0
M  V30 1301 H 117.671 -0.0911538 0.735372 0
M  V30 1302 H 120.318 0.475027 1.85515 0
M  V30 1303 H 118.623 -1.4107 3.65522 0
M  V30 1304 H 120.32 -1.07858 3.86222 0
M  V30 1305 H 116.91 0.294102 4.2759 0
M  V30 1306 H 121.094 1.09602 4.84047 0
M  V30 1307 H 116.35 2.22045 5.69654 0
M  V30 1308 H 120.524 3.02078 6.27473 0
M  V30 1309 H 118.151 3.58892 6.7015 0
M  V30 1310 N 119.726 -1.57421 0.075193 0
M  V30 1311 C 120.954 -1.97946 -0.602076 0
M  V30 1312 C 121.369 -0.953674 -1.62943 0
M  V30 1313 O 120.726 0.0592551 -1.82404 0
M  V30 1314 C 120.777 -3.38546 -1.26762 0
M  V30 1315 O 120.498 -4.37195 -0.281376 0
M  V30 1316 C 121.999 -3.93966 -2.03239 0
M  V30 1317 H 119.219 -0.650918 -0.162931 0
M  V30 1318 H 121.763 -2.03959 0.148601 0
M  V30 1319 H 119.918 -3.33609 -1.96936 0
M  V30 1320 H 120.332 -5.18975 -0.759267 0
M  V30 1321 H 121.806 -4.94555 -2.45193 0
M  V30 1322 H 122.283 -3.30693 -2.8903 0
M  V30 1323 H 122.889 -4.02315 -1.37924 0
M  V30 1324 N 121.204 0.198386 -1.56346 0
M  V30 1325 C 122.151 1.24589 -1.94284 0
M  V30 1326 C 123.121 1.454 -0.802997 0
M  V30 1327 O 124.306 1.58588 -1.06087 0
M  V30 1328 C 121.446 2.58631 -2.28482 0
M  V30 1329 C 120.559 2.45426 -3.55514 0
M  V30 1330 C 119.694 3.7215 -3.79049 0
M  V30 1331 C 118.733 3.53763 -4.99518 0
M  V30 1332 N 117.87 4.72491 -5.19323 0
M  V30 1333 H 122.71 0.915356 -2.83593 0
M  V30 1334 H 120.247 0.440629 -1.40346 0
M  V30 1335 H 122.205 3.3672 -2.46324 0
M  V30 1336 H 120.835 2.89734 -1.42317 0
M  V30 1337 H 119.887 1.58652 -3.45737 0
M  V30 1338 H 121.199 2.27772 -4.43758 0
M  V30 1339 H 120.353 4.58679 -3.97113 0
M  V30 1340 H 119.092 3.92754 -2.89129 0
M  V30 1341 H 118.097 2.65619 -4.8138 0
M  V30 1342 H 119.322 3.34607 -5.90944 0
M  V30 1343 H 117.268 4.93365 -4.3235 0
M  V30 1344 H 117.185 4.5765 -6.01741 0
M  V30 1345 H 118.453 5.6038 -5.41843 0
M  V30 1346 N 122.682 1.50554 0.465978 0
M  V30 1347 C 123.907 1.65838 1.24549 0
M  V30 1348 C 124.332 0.343486 1.84937 0
M  V30 1349 O 123.69 -0.69324 1.67523 0
M  V30 1350 C 123.738 2.75533 2.32624 0
M  V30 1351 O 122.842 2.37142 3.37398 0
M  V30 1352 H 122.183 0.553893 0.366194 0
M  V30 1353 H 124.713 1.96959 0.553927 0
M  V30 1354 H 124.723 2.98763 2.77857 0
M  V30 1355 H 123.398 3.70962 1.88043 0
M  V30 1356 H 121.975 2.24377 2.97841 0
M  V30 1357 N 124.16 -0.719506 1.40217 0
M  V30 1358 C 125.09 -1.8465 1.42922 0
M  V30 1359 C 126.071 -1.67599 0.29062 0
M  V30 1360 O 127.256 -1.87688 0.498677 0
M  V30 1361 C 124.386 -3.22565 1.28722 0
M  V30 1362 C 123.34 -3.54281 2.40144 0
M  V30 1363 C 122.666 -4.91298 2.11023 0
M  V30 1364 C 123.966 -3.55676 3.82481 0
M  V30 1365 H 125.66 -1.82644 2.37237 0
M  V30 1366 H 123.206 -0.877305 1.1419 0
M  V30 1367 H 125.159 -4.01095 1.29232 0
M  V30 1368 H 123.883 -3.25137 0.308811 0
M  V30 1369 H 122.542 -2.78088 2.38877 0
M  V30 1370 H 122.19 -4.90468 1.11582 0
M  V30 1371 H 121.89 -5.13485 2.8567 0
M  V30 1372 H 123.414 -5.72166 2.13209 0
M  V30 1373 H 124.828 -4.24254 3.85592 0
M  V30 1374 H 123.225 -3.89388 4.56614 0
M  V30 1375 H 124.295 -2.55144 4.12346 0
M  V30 1376 N 125.638 -1.25649 -0.95132 0
M  V30 1377 C 126.586 -1.06118 -2.06982 0
M  V30 1378 C 127.58 0.00889169 -1.69398 0
M  V30 1379 O 128.786 -0.146988 -1.79399 0
M  V30 1380 H 125.161 -0.326248 -0.677544 0
M  V30 1381 H 127.132 -2.00932 -2.2061 0
M  V30 1382 C 125.881 -0.700145 -3.40578 0
M  V30 1383 H 125.204 -1.51537 -3.69968 0
M  V30 1384 H 126.644 -0.603211 -4.19687 0
M  V30 1385 C 125.103 0.59403 -3.31622 0
M  V30 1386 O 125.633 1.63522 -3.66911 0
M  V30 1387 N 123.839 0.58089 -2.84735 0
M  V30 1388 H 123.386 -0.266783 -2.56215 0
M  V30 1389 H 123.344 1.44695 -2.79125 0
M  V30 1390 N 127.117 1.15442 -1.07289 0
M  V30 1391 C 128.08 2.18358 -0.696591 0
M  V30 1392 C 129.08 1.58637 0.262837 0
M  V30 1393 O 130.27 1.74145 0.0438809 0
M  V30 1394 C 127.402 3.4089 -0.0266151 0
M  V30 1395 H 128.595 2.53162 -1.60776 0
M  V30 1396 H 126.148 1.29893 -0.869342 0
M  V30 1397 H 126.883 3.11653 0.896822 0
M  V30 1398 H 126.668 3.85495 -0.716657 0
M  V30 1399 H 128.158 4.17009 0.222028 0
M  V30 1400 N 128.595 0.856903 1.32268 0
M  V30 1401 C 129.842 0.461386 1.97174 0
M  V30 1402 C 130.17 -0.983491 1.67803 0
M  V30 1403 O 129.425 -1.70541 0.959903 0
M  V30 1404 C 129.724 0.649919 3.51441 0
M  V30 1405 C 129.39 2.0656 4.00804 0
M  V30 1406 C 128.052 2.45279 4.13995 0
M  V30 1407 C 130.404 2.98947 4.26943 0
M  V30 1408 C 127.732 3.75653 4.50668 0
M  V30 1409 C 130.084 4.28822 4.65075 0
M  V30 1410 C 128.748 4.67472 4.76472 0
M  V30 1411 H 128.018 0.168833 0.72151 0
M  V30 1412 H 130.665 1.08739 1.57633 0
M  V30 1413 H 128.97 -0.0593018 3.91755 0
M  V30 1414 H 130.667 0.32391 3.9969 0
M  V30 1415 H 127.257 1.75495 3.91024 0
M  V30 1416 H 131.441 2.70265 4.16258 0
M  V30 1417 H 126.697 4.05379 4.57688 0
M  V30 1418 H 130.871 5.0047 4.84255 0
M  V30 1419 H 128.498 5.68539 5.04646 0
M  V30 1420 N 130.073 -1.45103 0.615059 0
M  V30 1421 C 131.021 -2.32331 -0.111791 0
M  V30 1422 C 132.015 -1.46409 -0.852102 0
M  V30 1423 O 133.221 -1.62849 -0.766821 0
M  V30 1424 H 129.596 -0.749993 -0.0549072 0
M  V30 1425 H 131.567 -2.91407 0.642225 0
M  V30 1426 C 130.316 -3.3015 -1.09071 0
M  V30 1427 H 129.639 -3.96265 -0.530485 0
M  V30 1428 H 131.079 -3.93898 -1.56908 0
M  V30 1429 C 129.538 -2.57875 -2.168 0
M  V30 1430 O 130.068 -2.36567 -3.24652 0
M  V30 1431 N 128.274 -2.17884 -1.92289 0
M  V30 1432 H 127.821 -2.35413 -1.04587 0
M  V30 1433 H 127.779 -1.6985 -2.64572 0
M  V30 1434 N 131.551 -0.354651 -1.53558 0
M  V30 1435 C 132.797 0.238797 -2.01389 0
M  V30 1436 C 133.13 1.49309 -1.2418 0
M  V30 1437 O 132.405 1.91638 -0.332457 0
M  V30 1438 C 132.688 0.541771 -3.56001 0
M  V30 1439 C 132.541 -0.725388 -4.43912 0
M  V30 1440 C 133.86 1.34685 -4.18984 0
M  V30 1441 H 130.979 0.0853177 -0.732045 0
M  V30 1442 H 133.621 -0.477384 -1.83905 0
M  V30 1443 H 131.771 1.15189 -3.71031 0
M  V30 1444 H 133.443 -1.36313 -4.407 0
M  V30 1445 H 131.686 -1.34801 -4.12324 0
M  V30 1446 H 132.357 -0.468505 -5.50008 0
M  V30 1447 H 134.833 0.830837 -4.07721 0
M  V30 1448 H 133.709 1.52759 -5.27215 0
M  V30 1449 H 133.97 2.35221 -3.74331 0
M  V30 1450 N 133.029 1.57378 -0.0835403 0
M  V30 1451 C 134.277 1.93547 0.581718 0
M  V30 1452 C 134.598 0.96524 1.69435 0
M  V30 1453 O 133.868 0.0153369 1.95894 0
M  V30 1454 H 132.448 0.714521 0.217874 0
M  V30 1455 H 135.11 1.94366 -0.144158 0
M  V30 1456 H 134.206 2.95665 0.999423 0
M  V30 1457 N 134.507 -0.190092 1.56449 0
M  V30 1458 C 135.784 -0.935886 1.71757 0
M  V30 1459 C 136.164 -2.01173 0.639726 0
M  V30 1460 O 135.512 -2.25827 -0.348502 0
M  V30 1461 C 135.722 -1.51775 3.1427 0
M  V30 1462 C 137.07 -1.99794 3.74656 0
M  V30 1463 O 138.094 -1.61607 3.1743 0
M  V30 1464 O 136.953 -2.70079 4.751 0
M  V30 1465 H 134.047 -0.439229 0.700719 0
M  V30 1466 H 136.593 -0.179395 1.68749 0
M  V30 1467 H 135.365 -0.742505 3.84191 0
M  V30 1468 H 134.988 -2.33894 3.21527 0
M  V30 1469 N 135.985 -1.50799 -0.457987 0
M  V30 1470 C 137.262 -1.52968 -1.21902 0
M  V30 1471 C 137.642 -0.281906 -2.09209 0
M  V30 1472 O 136.99 0.734076 -2.16388 0
M  V30 1473 C 137.2 -2.8326 -2.03875 0
M  V30 1474 C 138.548 -3.34425 -2.6162 0
M  V30 1475 O 139.572 -2.8467 -2.14106 0
M  V30 1476 O 138.431 -4.21188 -3.48228 0
M  V30 1477 H 135.525 -0.614129 -0.553873 0
M  V30 1478 H 138.071 -1.63098 -0.468739 0
M  V30 1479 H 136.843 -3.65543 -1.39621 0
M  V30 1480 H 136.466 -2.76195 -2.8601 0
M  V30 1481 N 137.463 0.71206 -1.40597 0
M  V30 1482 C 138.703 1.48438 -1.40519 0
M  V30 1483 C 139.067 1.91998 -0.00767611 0
M  V30 1484 O 140.268 2.6854 0.118239 0
M  V30 1485 C 138.539 2.67514 -2.37004 0
M  V30 1486 S 140.098 3.56875 -2.55315 0
M  V30 1487 H 136.916 0.507457 -0.498005 0
M  V30 1488 H 139.518 0.832355 -1.76896 0
M  V30 1489 H 138.222 2.33689 -3.37368 0
M  V30 1490 H 137.753 3.37625 -2.01923 0
M  V30 1491 H 139.768 4.62081 -1.8082 0
M  V30 1492 N 138.941 1.26152 0.944643 0
M  V30 1493 C 140.352 1.10454 1.50522 0
M  V30 1494 C 140.703 -0.31635 1.93633 0
M  V30 1495 O 139.828 -1.20746 1.79581 0
M  V30 1496 C 140.423 1.99891 2.73549 0
M  V30 1497 C 138.982 1.88348 3.25886 0
M  V30 1498 C 138.129 1.93447 1.9868 0
M  V30 1499 H 141.08 1.39292 0.760489 0
M  V30 1500 H 141.101 1.54477 3.47732 0
M  V30 1501 H 140.613 3.03297 2.42141 0
M  V30 1502 H 138.714 0.878636 3.62092 0
M  V30 1503 H 138.827 2.73696 3.93227 0
M  V30 1504 H 137.191 1.37456 2.14425 0
M  V30 1505 H 137.974 2.98476 1.69607 0
M  V30 1506 N 140.419 -1.14872 1.07899 0
M  V30 1507 C 141.665 -1.86064 0.806725 0
M  V30 1508 C 141.998 -1.82434 -0.665706 0
M  V30 1509 O 141.273 -1.25138 -1.48899 0
M  V30 1510 C 141.556 -3.34929 1.32267 0
M  V30 1511 C 141.409 -3.47161 2.86006 0
M  V30 1512 C 142.728 -4.29863 0.943717 0
M  V30 1513 H 139.847 -0.675591 0.294526 0
M  V30 1514 H 142.489 -1.34925 1.33773 0
M  V30 1515 H 140.639 -3.78611 0.870974 0
M  V30 1516 H 142.311 -3.12302 3.39507 0
M  V30 1517 H 140.554 -2.88539 3.23925 0
M  V30 1518 H 141.225 -4.51777 3.17177 0
M  V30 1519 H 143.701 -3.9417 1.33302 0
M  V30 1520 H 142.577 -5.32494 1.33198 0
M  V30 1521 H 142.838 -4.41846 -0.149796 0
M  V30 1522 N 141.898 -0.863906 -1.31812 0
M  V30 1523 C 143.145 -0.471836 -1.96926 0
M  V30 1524 C 143.473 0.974578 -1.68322 0
M  V30 1525 O 142.728 1.7003 -0.968933 0
M  V30 1526 C 143.027 -0.668547 -3.51091 0
M  V30 1527 C 142.693 -2.08683 -3.99703 0
M  V30 1528 C 141.355 -2.47471 -4.12688 0
M  V30 1529 C 143.707 -3.01207 -4.25351 0
M  V30 1530 C 141.035 -3.78037 -4.4867 0
M  V30 1531 C 143.387 -4.31282 -4.62794 0
M  V30 1532 C 142.051 -4.69992 -4.73987 0
M  V30 1533 H 141.321 -0.172657 -0.720604 0
M  V30 1534 H 143.968 -1.09573 -1.57054 0
M  V30 1535 H 142.273 0.0385252 -3.91781 0
M  V30 1536 H 143.97 -0.345102 -3.99512 0
M  V30 1537 H 140.56 -1.77566 -3.90087 0
M  V30 1538 H 144.744 -2.72469 -4.14819 0
M  V30 1539 H 140 -4.078 -4.55532 0
M  V30 1540 H 144.174 -5.03031 -4.81594 0
M  V30 1541 H 141.801 -5.71207 -5.01624 0
M  V30 1542 N 143.376 1.44774 -0.622745 0
M  V30 1543 C 144.787 1.85546 -0.207226 0
M  V30 1544 C 145.138 1.52093 1.23944 0
M  V30 1545 O 144.263 0.95492 1.94191 0
M  V30 1546 C 144.858 3.36781 -0.369313 0
M  V30 1547 C 143.417 3.76399 -0.00836847 0
M  V30 1548 C 142.564 2.68664 -0.686651 0
M  V30 1549 H 145.515 1.3536 -0.828454 0
M  V30 1550 H 145.536 3.78453 0.394162 0
M  V30 1551 H 145.048 3.61098 -1.42231 0
M  V30 1552 H 143.149 3.57698 1.04322 0
M  V30 1553 H 143.262 4.7732 -0.412584 0
M  V30 1554 H 141.626 2.54404 -0.122777 0
M  V30 1555 H 142.409 2.95815 -1.74208 0
M  V30 1556 N 144.854 0.36279 1.53368 0
M  V30 1557 C 146.102 -0.227326 2.00817 0
M  V30 1558 C 146.423 -1.49511 1.25186 0
M  V30 1559 O 145.693 -1.92482 0.364348 0
M  V30 1560 H 144.273 -0.0869923 0.741917 0
M  V30 1561 H 146.935 0.488381 1.88682 0
M  V30 1562 H 146.031 -0.456273 3.08747 0
M  V30 1563 N 146.332 -1.57332 0.0918853 0
M  V30 1564 C 147.262 -2.16872 -0.865371 0
M  V30 1565 C 148.243 -1.10118 -1.29646 0
M  V30 1566 O 149.428 -1.38242 -1.36392 0
M  V30 1567 C 146.558 -2.74649 -2.12569 0
M  V30 1568 C 145.512 -3.86747 -1.83333 0
M  V30 1569 C 144.838 -4.31212 -3.16166 0
M  V30 1570 C 146.138 -5.10089 -1.1228 0
M  V30 1571 H 147.832 -2.97114 -0.369307 0
M  V30 1572 H 145.378 -1.42918 -0.176194 0
M  V30 1573 H 147.331 -3.14952 -2.7997 0
M  V30 1574 H 146.055 -1.91657 -2.64452 0
M  V30 1575 H 144.714 -3.46978 -1.18331 0
M  V30 1576 H 144.362 -3.45115 -3.6593 0
M  V30 1577 H 144.062 -5.06788 -2.97388 0
M  V30 1578 H 145.586 -4.74146 -3.84731 0
M  V30 1579 H 147 -5.47582 -1.69785 0
M  V30 1580 H 145.397 -5.91073 -1.03693 0
M  V30 1581 H 146.467 -4.84786 -0.105041 0
M  V30 1582 N 147.81 0.181792 -1.56548 0
M  V30 1583 C 149.057 0.900097 -1.81396 0
M  V30 1584 C 149.385 1.82695 -0.667281 0
M  V30 1585 O 148.64 1.92614 0.346146 0
M  V30 1586 C 148.939 1.73728 -3.12335 0
M  V30 1587 C 148.605 0.960255 -4.40556 0
M  V30 1588 C 147.267 0.745766 -4.75386 0
M  V30 1589 C 149.619 0.414477 -5.19549 0
M  V30 1590 C 146.947 -0.0257694 -5.86694 0
M  V30 1591 C 149.299 -0.343916 -6.31664 0
M  V30 1592 C 147.963 -0.569301 -6.65068 0
M  V30 1593 H 147.233 0.329369 -0.663775 0
M  V30 1594 H 149.88 0.165647 -1.90782 0
M  V30 1595 H 148.185 2.54081 -2.98245 0
M  V30 1596 H 149.882 2.29591 -3.28769 0
M  V30 1597 H 146.472 1.13746 -4.13231 0
M  V30 1598 H 150.656 0.567554 -4.93044 0
M  V30 1599 H 145.912 -0.210233 -6.11038 0
M  V30 1600 H 150.086 -0.774133 -6.92084 0
M  V30 1601 H 147.713 -1.16903 -7.51158 0
M  V30 1602 N 149.288 1.51039 0.449983 0
M  V30 1603 C 150.198 1.74261 1.57067 0
M  V30 1604 C 151.214 0.626363 1.62335 0
M  V30 1605 O 152.39 0.907162 1.79812 0
M  V30 1606 C 149.455 1.85114 2.93144 0
M  V30 1607 C 148.516 3.0893 2.98095 0
M  V30 1608 C 147.749 3.19256 4.27681 0
M  V30 1609 O 147.972 2.35835 5.19363 0
M  V30 1610 O 146.906 4.12144 4.38658 0
M  V30 1611 H 150.732 2.69303 1.40391 0
M  V30 1612 H 148.317 1.35389 0.631688 0
M  V30 1613 H 150.199 1.94311 3.73926 0
M  V30 1614 H 148.874 0.932588 3.09975 0
M  V30 1615 H 147.781 3.0522 2.16314 0
M  V30 1616 H 149.114 4.00433 2.86206 0
M  V30 1617 N 150.766 -0.704594 1.40972 0
M  V30 1618 C 152.013 -1.46458 1.39844 0
M  V30 1619 C 152.341 -1.94499 0.00447594 0
M  V30 1620 O 151.596 -1.69275 -0.982057 0
M  V30 1621 C 151.895 -2.698 2.34399 0
M  V30 1622 C 151.561 -2.40464 3.81429 0
M  V30 1623 C 150.223 -2.32174 4.21484 0
M  V30 1624 C 152.575 -2.16086 4.74296 0
M  V30 1625 C 149.903 -1.97589 5.52427 0
M  V30 1626 C 152.255 -1.83011 6.05549 0
M  V30 1627 C 150.919 -1.7321 6.44635 0
M  V30 1628 H 150.189 -0.535927 0.511725 0
M  V30 1629 H 152.836 -0.806124 1.73706 0
M  V30 1630 H 151.141 -3.40536 1.93759 0
M  V30 1631 H 152.838 -3.27919 2.30804 0
M  V30 1632 H 149.428 -2.47808 3.49699 0
M  V30 1633 H 153.612 -2.2144 4.4416 0
M  V30 1634 H 148.868 -1.88547 5.81601 0
M  V30 1635 H 153.042 -1.63164 6.77016 0
M  V30 1636 H 150.669 -1.46179 7.46013 0
M  V30 1637 N 152.244 -1.26651 -0.937939 0
M  V30 1638 C 153.484 -1.13611 -1.69917 0
M  V30 1639 C 153.848 0.314687 -1.89404 0
M  V30 1640 O 155.049 0.567285 -2.62746 0
M  V30 1641 C 153.32 -1.88742 -3.03498 0
M  V30 1642 S 154.879 -1.91794 -3.94665 0
M  V30 1643 H 151.697 -0.405767 -0.583844 0
M  V30 1644 H 154.299 -1.60416 -1.11745 0
M  V30 1645 H 153.003 -2.9336 -2.86999 0
M  V30 1646 H 152.534 -1.42391 -3.66727 0
M  V30 1647 H 154.549 -1.00698 -4.85875 0
M  V30 1648 N 153.722 1.14298 -1.08507 0
M  V30 1649 C 154.947 1.8976 -0.837001 0
M  V30 1650 C 155.372 1.78097 0.605228 0
M  V30 1651 O 154.73 1.12188 1.4242 0
M  V30 1652 C 154.778 3.37685 -1.26495 0
M  V30 1653 O 153.882 4.10281 -0.417514 0
M  V30 1654 H 153.223 0.590365 -0.303917 0
M  V30 1655 H 155.753 1.44672 -1.44676 0
M  V30 1656 H 155.763 3.88501 -1.24625 0
M  V30 1657 H 154.438 3.45492 -2.31534 0
M  V30 1658 H 153.015 3.69536 -0.499722 0
M  V30 1659 N 155.201 0.870884 1.31352 0
M  V30 1660 C 156.617 0.562932 1.49343 0
M  V30 1661 C 156.817 -0.902725 1.80148 0
M  V30 1662 O 155.873 -1.68484 1.88067 0
M  V30 1663 C 157.186 1.46393 2.62659 0
M  V30 1664 C 158.734 1.46607 2.76542 0
M  V30 1665 C 159.209 2.35266 3.92955 0
M  V30 1666 N 160.7 2.33151 4.00243 0
M  V30 1667 C 161.435 2.98471 4.89594 0
M  V30 1668 N 160.931 3.72964 5.8384 0
M  V30 1669 N 162.724 2.87775 4.82848 0
M  V30 1670 H 154.875 1.81923 1.09626 0
M  V30 1671 H 157.138 0.777934 0.541777 0
M  V30 1672 H 156.844 2.50689 2.46674 0
M  V30 1673 H 156.718 1.16314 3.58819 0
M  V30 1674 H 159.105 0.43069 2.9194 0
M  V30 1675 H 159.186 1.8071 1.81046 0
M  V30 1676 H 158.83 3.38881 3.78315 0
M  V30 1677 H 158.76 1.98487 4.87761 0
M  V30 1678 H 161.251 1.79006 3.32814 0
M  V30 1679 H 161.564 4.19932 6.4875 0
M  V30 1680 H 159.909 3.77073 5.83816 0
M  V30 1681 H 163.1 2.29116 4.08195 0
M  V30 1682 H 163.273 3.38961 5.52277 0
M  V30 1683 N 156.679 -1.44442 0.630414 0
M  V30 1684 C 157.909 -2.06115 0.141465 0
M  V30 1685 C 158.317 -1.47179 -1.1889 0
M  V30 1686 O 157.66 -0.588873 -1.74006 0
M  V30 1687 C 157.722 -3.59467 -0.0484355 0
M  V30 1688 C 157.386 -4.40864 1.20366 0
M  V30 1689 C 158.383 -4.74391 2.12719 0
M  V30 1690 C 156.068 -4.8125 1.43887 0
M  V30 1691 C 158.062 -5.47186 3.26904 0
M  V30 1692 C 155.749 -5.53795 2.5837 0
M  V30 1693 C 156.747 -5.86682 3.49705 0
M  V30 1694 O 156.435 -6.57749 4.62191 0
M  V30 1695 H 156.167 -0.671648 0.0765792 0
M  V30 1696 H 158.721 -1.86312 0.864695 0
M  V30 1697 H 156.951 -3.77758 -0.826803 0
M  V30 1698 H 158.64 -4.02909 -0.491849 0
M  V30 1699 H 159.406 -4.43728 1.95781 0
M  V30 1700 H 155.285 -4.55073 0.736853 0
M  V30 1701 H 158.829 -5.72773 3.98217 0
M  V30 1702 H 154.726 -5.83872 2.75251 0
M  V30 1703 H 155.494 -6.76217 4.61164 0
M  V30 1704 N 158.157 -0.370918 -1.53173 0
M  V30 1705 C 159.385 0.217704 -2.05751 0
M  V30 1706 C 159.8 1.42018 -1.24404 0
M  V30 1707 O 159.157 1.80245 -0.286033 0
M  V30 1708 C 159.208 0.605954 -3.56385 0
M  V30 1709 O 158.929 -0.548734 -4.3465 0
M  V30 1710 C 160.43 1.2524 -4.25241 0
M  V30 1711 H 157.65 0.0371659 -0.66997 0
M  V30 1712 H 160.194 -0.530832 -1.9749 0
M  V30 1713 H 158.349 1.3044 -3.6478 0
M  V30 1714 H 158.763 -0.23376 -5.23979 0
M  V30 1715 H 160.237 1.47458 -5.3194 0
M  V30 1716 H 160.714 2.2143 -3.79296 0
M  V30 1717 H 161.32 0.595233 -4.21114 0
M  V30 1718 N 159.635 1.57281 -0.100228 0
M  V30 1719 C 160.883 1.94153 0.561157 0
M  V30 1720 C 161.204 0.983157 1.68401 0
M  V30 1721 O 160.474 0.0361132 1.95867 0
M  V30 1722 H 159.054 0.716791 0.210283 0
M  V30 1723 H 161.716 1.94202 -0.164765 0
M  V30 1724 H 160.812 2.96709 0.968008 0
M  V30 1725 N 161.113 -0.173488 1.56642 0
M  V30 1726 C 162.076 -1.19859 1.95362 0
M  V30 1727 C 163.076 -1.37296 0.83704 0
M  V30 1728 O 164.266 -1.34739 1.10413 0
M  V30 1729 C 161.398 -2.56405 2.24654 0
M  V30 1730 H 162.591 -0.867062 2.87092 0
M  V30 1731 H 160.144 -0.415853 1.50666 0
M  V30 1732 H 160.879 -2.94576 1.35631 0
M  V30 1733 H 160.664 -2.45115 3.06041 0
M  V30 1734 H 162.154 -3.30287 2.5554 0
M  V30 1735 N 162.591 -1.51276 -0.441967 0
M  V30 1736 C 163.816 -1.67799 -1.21895 0
M  V30 1737 C 164.241 -0.372864 -1.84367 0
M  V30 1738 O 163.599 0.666501 -1.68604 0
M  V30 1739 C 163.647 -2.79199 -2.28211 0
M  V30 1740 O 162.751 -2.42479 -3.33583 0
M  V30 1741 H 162.092 -0.559649 -0.357336 0
M  V30 1742 H 164.622 -1.97815 -0.522522 0
M  V30 1743 H 164.632 -3.03146 -2.73069 0
M  V30 1744 H 163.307 -3.73906 -1.82118 0
M  V30 1745 H 161.884 -2.29087 -2.94234 0
M  V30 1746 N 164.069 0.697108 -1.41344 0
M  V30 1747 C 164.999 1.82353 -1.45841 0
M  V30 1748 C 165.98 1.67115 -0.317247 0
M  V30 1749 O 167.165 1.86871 -0.528474 0
M  V30 1750 C 164.295 3.20476 -1.33838 0
M  V30 1751 C 163.249 3.50415 -2.4575 0
M  V30 1752 C 162.575 4.87878 -2.18813 0
M  V30 1753 C 163.875 3.49546 -3.88091 0
M  V30 1754 H 165.569 1.78846 -2.40113 0
M  V30 1755 H 163.115 0.859028 -1.15571 0
M  V30 1756 H 165.068 3.98988 -1.35596 0
M  V30 1757 H 163.792 3.24604 -0.360498 0
M  V30 1758 H 162.451 2.74253 -2.43271 0
M  V30 1759 H 162.099 4.8863 -1.19371 0
M  V30 1760 H 161.799 5.08875 -2.93803 0
M  V30 1761 H 163.323 5.68702 -2.22284 0
M  V30 1762 H 164.737 4.18066 -3.92293 0
M  V30 1763 H 163.134 3.82075 -4.62751 0
M  V30 1764 H 164.204 2.48552 -4.16353 0
M  V30 1765 N 165.547 1.27147 0.931209 0
M  V30 1766 C 166.479 1.05364 2.03546 0
M  V30 1767 C 167.492 0.0108438 1.62796 0
M  V30 1768 O 168.681 0.25202 1.76712 0
M  V30 1769 C 165.781 0.575566 3.33977 0
M  V30 1770 C 164.954 1.68985 4.03439 0
M  V30 1771 C 164.013 1.20813 5.12143 0
M  V30 1772 O 163.039 1.90712 5.363 0
M  V30 1773 N 164.241 0.0618851 5.80467 0
M  V30 1774 H 167.006 2.00454 2.22796 0
M  V30 1775 H 164.567 1.18666 1.10136 0
M  V30 1776 H 166.559 0.237264 4.04004 0
M  V30 1777 H 165.129 -0.282016 3.11325 0
M  V30 1778 H 164.349 2.19861 3.27192 0
M  V30 1779 H 165.637 2.4378 4.46597 0
M  V30 1780 H 165.035 -0.521621 5.6329 0
M  V30 1781 H 163.592 -0.217264 6.51438 0
M  V30 1782 N 167.025 -1.13721 1.09112 0
M  V30 1783 C 168.273 -1.84559 0.823562 0
M  V30 1784 C 168.594 -1.83754 -0.652658 0
M  V30 1785 O 167.864 -1.29102 -1.47342 0
M  V30 1786 H 166.444 -0.683376 0.301673 0
M  V30 1787 H 169.106 -1.37771 1.37859 0
M  V30 1788 H 168.202 -2.8917 1.17419 0
M  V30 1789 N 168.503 -0.877838 -1.30888 0
M  V30 1790 C 169.466 -0.344265 -2.266 0
M  V30 1791 C 170.466 0.50922 -1.52524 0
M  V30 1792 O 171.656 0.317398 -1.71284 0
M  V30 1793 C 168.788 0.510198 -3.37061 0
M  V30 1794 H 169.981 -1.1893 -2.7531 0
M  V30 1795 H 167.534 -0.654088 -1.41956 0
M  V30 1796 H 168.269 1.37612 -2.93655 0
M  V30 1797 H 168.054 -0.101047 -3.9197 0
M  V30 1798 H 169.544 0.875537 -4.08319 0
M  V30 1799 N 169.982 1.44106 -0.638065 0
M  V30 1800 C 171.21 2.06336 -0.152615 0
M  V30 1801 C 171.625 1.47731 1.17563 0
M  V30 1802 O 170.982 0.602806 1.72257 0
M  V30 1803 C 171.033 3.61479 -0.0391491 0
M  V30 1804 O 170.754 4.17903 -1.31487 0
M  V30 1805 C 172.255 4.40757 0.474176 0
M  V30 1806 H 169.475 0.665862 -0.0828776 0
M  V30 1807 H 172.019 1.84862 -0.87443 0
M  V30 1808 H 170.174 3.82191 0.633142 0
M  V30 1809 H 170.588 5.11416 -1.16421 0
M  V30 1810 H 172.062 5.49707 0.502562 0
M  V30 1811 H 172.539 4.12697 1.50258 0
M  V30 1812 H 173.145 4.24979 -0.165102 0
M  V30 1813 N 171.46 0.379036 1.52974 0
M  V30 1814 C 172.392 -0.495963 2.2377 0
M  V30 1815 C 173.405 -1.03517 1.25651 0
M  V30 1816 O 174.594 -0.939249 1.51791 0
M  V30 1817 C 171.694 -1.69894 2.93239 0
M  V30 1818 C 170.867 -1.2889 4.17979 0
M  V30 1819 C 169.926 -2.35543 4.70538 0
M  V30 1820 O 168.952 -1.97375 5.33883 0
M  V30 1821 N 170.154 -3.67318 4.49508 0
M  V30 1822 H 172.919 0.110523 2.99496 0
M  V30 1823 H 170.48 0.204878 1.60598 0
M  V30 1824 H 172.472 -2.40747 3.25304 0
M  V30 1825 H 171.042 -2.212 2.20883 0
M  V30 1826 H 170.262 -0.409676 3.92065 0
M  V30 1827 H 171.55 -0.991443 4.99047 0
M  V30 1828 H 170.948 -4.01095 3.98923 0
M  V30 1829 H 169.505 -4.34235 4.8609 0
M  V30 1830 N 172.938 -1.57226 0.108567 0
M  V30 1831 C 173.868 -2.17778 -0.84232 0
M  V30 1832 C 174.849 -1.11487 -1.2847 0
M  V30 1833 O 176.034 -1.39681 -1.34918 0
M  V30 1834 C 173.164 -2.76888 -2.09644 0
M  V30 1835 C 172.118 -3.88669 -1.79221 0
M  V30 1836 C 171.444 -4.34541 -3.11574 0
M  V30 1837 C 172.744 -5.11251 -1.06864 0
M  V30 1838 H 174.438 -2.97489 -0.337774 0
M  V30 1839 H 171.984 -1.43097 -0.161025 0
M  V30 1840 H 173.937 -3.17904 -2.76614 0
M  V30 1841 H 172.661 -1.94451 -2.62405 0
M  V30 1842 H 171.32 -3.48213 -1.14644 0
M  V30 1843 H 170.968 -3.48977 -3.62249 0
M  V30 1844 H 170.668 -5.09914 -2.91996 0
M  V30 1845 H 172.192 -4.782 -3.7968 0
M  V30 1846 H 173.606 -5.49352 -1.63968 0
M  V30 1847 H 172.003 -5.9214 -0.974178 0
M  V30 1848 H 173.073 -4.8487 -0.0536168 0
M  V30 1849 N 174.416 0.165178 -1.56732 0
M  V30 1850 C 175.364 1.22369 -1.97809 0
M  V30 1851 C 176.358 1.45488 -0.867741 0
M  V30 1852 O 177.564 1.45995 -1.05288 0
M  V30 1853 H 173.939 0.411486 -0.629431 0
M  V30 1854 H 175.91 0.850425 -2.86025 0
M  V30 1855 C 174.659 2.55403 -2.35934 0
M  V30 1856 H 173.982 2.38438 -3.20916 0
M  V30 1857 H 175.422 3.2814 -2.68514 0
M  V30 1858 C 173.881 3.14611 -1.20506 0
M  V30 1859 O 174.411 3.98626 -0.496016 0
M  V30 1860 N 172.617 2.7379 -0.97403 0
M  V30 1861 H 172.164 2.0557 -1.55238 0
M  V30 1862 H 172.122 3.1374 -0.203573 0
M  V30 1863 N 175.894 1.51508 0.433938 0
M  V30 1864 C 176.842 1.73646 1.54757 0
M  V30 1865 C 177.836 0.602854 1.5831 0
M  V30 1866 O 179.042 0.784318 1.62014 0
M  V30 1867 H 175.417 0.548718 0.51421 0
M  V30 1868 H 177.388 2.66991 1.33261 0
M  V30 1869 C 176.137 1.88172 2.92381 0
M  V30 1870 H 175.46 2.74808 2.90381 0
M  V30 1871 H 176.9 2.07672 3.6966 0
M  V30 1872 C 175.359 0.64239 3.30719 0
M  V30 1873 O 175.889 -0.201362 4.01195 0
M  V30 1874 N 174.095 0.485489 2.86516 0
M  V30 1875 H 173.642 1.17318 2.29334 0
M  V30 1876 H 173.6 -0.342482 3.12529 0
M  V30 1877 N 177.372 -0.689602 1.41712 0
M  V30 1878 C 178.319 -1.80345 1.44029 0
M  V30 1879 C 179.289 -1.63478 0.293948 0
M  V30 1880 O 180.474 -1.84244 0.495869 0
M  V30 1881 C 177.614 -3.18272 1.33405 0
M  V30 1882 C 176.727 -3.46529 2.57956 0
M  V30 1883 C 175.862 -4.74103 2.39582 0
M  V30 1884 C 174.901 -4.95347 3.5958 0
M  V30 1885 N 174.038 -6.14151 3.40239 0
M  V30 1886 H 178.878 -1.77698 2.39222 0
M  V30 1887 H 176.415 -0.867688 1.18784 0
M  V30 1888 H 178.373 -3.97956 1.25246 0
M  V30 1889 H 177.003 -3.2008 0.418164 0
M  V30 1890 H 176.055 -2.61207 2.76542 0
M  V30 1891 H 177.367 -3.58126 3.47199 0
M  V30 1892 H 176.521 -5.61853 2.28924 0
M  V30 1893 H 175.26 -4.64763 1.47805 0
M  V30 1894 H 174.265 -4.06044 3.70686 0
M  V30 1895 H 175.49 -5.06542 4.52318 0
M  V30 1896 H 173.436 -6.06013 2.51167 0
M  V30 1897 H 173.353 -6.26543 4.23061 0
M  V30 1898 H 174.621 -7.04619 3.33365 0
M  V30 1899 N 178.85 -1.27639 -0.924453 0
M  V30 1900 C 180.099 -1.13549 -1.66702 0
M  V30 1901 C 180.412 0.317487 -1.93006 0
M  V30 1902 O 181.618 0.579333 -2.65247 0
M  V30 1903 C 180.074 -1.98426 -3.00259 0
M  V30 1904 C 179.682 -3.484 -2.81641 0
M  V30 1905 C 181.426 -1.92993 -3.78092 0
M  V30 1906 C 179.333 -4.25464 -4.10773 0
M  V30 1907 H 178.263 -0.421351 -0.625283 0
M  V30 1908 H 180.914 -1.52085 -1.02676 0
M  V30 1909 H 179.296 -1.52736 -3.6536 0
M  V30 1910 H 180.47 -4.01973 -2.25287 0
M  V30 1911 H 178.785 -3.55245 -2.17232 0
M  V30 1912 H 181.382 -2.47844 -4.7379 0
M  V30 1913 H 181.725 -0.904281 -4.0636 0
M  V30 1914 H 182.258 -2.36595 -3.19793 0
M  V30 1915 H 178.997 -5.28566 -3.87683 0
M  V30 1916 H 178.517 -3.76667 -4.66779 0
M  V30 1917 H 180.196 -4.34812 -4.79111 0
M  V30 1918 N 180.328 1.1314 -1.09713 0
M  V30 1919 C 181.568 1.8613 -0.844683 0
M  V30 1920 C 181.932 1.81765 0.618491 0
M  V30 1921 O 183.133 2.50024 0.98699 0
M  V30 1922 C 181.404 3.30151 -1.36877 0
M  V30 1923 S 182.963 4.206 -1.25064 0
M  V30 1924 H 179.781 0.642056 -0.305427 0
M  V30 1925 H 182.383 1.36343 -1.4011 0
M  V30 1926 H 181.087 3.30883 -2.42786 0
M  V30 1927 H 180.618 3.85 -0.808614 0
M  V30 1928 H 182.633 4.95783 -0.203486 0
M  V30 1929 N 181.806 0.884767 1.30421 0
M  V30 1930 C 183.083 0.423185 1.90967 0
M  V30 1931 C 183.463 -1.09605 1.80416 0
M  V30 1932 O 182.811 -1.93126 1.22125 0
M  V30 1933 C 183.021 0.921056 3.36627 0
M  V30 1934 C 184.369 0.955903 4.137 0
M  V30 1935 O 185.393 0.867706 3.4547 0
M  V30 1936 O 184.252 1.08614 5.35598 0
M  V30 1937 H 181.346 0.129369 0.816819 0
M  V30 1938 H 183.892 0.973653 1.3899 0
M  V30 1939 H 182.664 1.96489 3.3839 0
M  V30 1940 H 182.287 0.349741 3.96059 0
M  V30 1941 N 183.284 -1.43765 0.645699 0
M  V30 1942 C 184.533 -2.01116 0.153412 0
M  V30 1943 C 184.846 -1.51493 -1.23731 0
M  V30 1944 O 186.052 -2.01067 -1.8244 0
M  V30 1945 C 184.508 -3.59206 0.223473 0
M  V30 1946 C 184.116 -4.17823 1.61642 0
M  V30 1947 C 185.86 -4.23972 -0.211597 0
M  V30 1948 C 183.767 -5.68183 1.64081 0
M  V30 1949 H 182.697 -0.752093 0.0535891 0
M  V30 1950 H 185.348 -1.6482 0.806633 0
M  V30 1951 H 183.73 -3.92867 -0.497118 0
M  V30 1952 H 184.904 -3.95674 2.36176 0
M  V30 1953 H 183.219 -3.65399 1.99681 0
M  V30 1954 H 185.816 -5.34275 -0.213112 0
M  V30 1955 H 186.159 -3.97352 -1.24165 0
M  V30 1956 H 186.692 -3.95166 0.456988 0
M  V30 1957 H 183.431 -5.99559 2.64971 0
M  V30 1958 H 182.951 -5.9241 0.938611 0
M  V30 1959 H 184.63 -6.32085 1.3812 0
M  V30 1960 N 184.763 -0.387143 -1.52771 0
M  V30 1961 C 185.726 0.436939 -2.24997 0
M  V30 1962 C 186.726 0.991991 -1.26555 0
M  V30 1963 O 187.916 0.874335 -1.50669 0
M  V30 1964 C 185.048 1.61281 -3.00335 0
M  V30 1965 H 186.241 -0.195365 -2.99263 0
M  V30 1966 H 183.794 -0.139218 -1.55679 0
M  V30 1967 H 184.529 2.2826 -2.30364 0
M  V30 1968 H 184.314 1.22154 -3.72587 0
M  V30 1969 H 185.804 2.19629 -3.5518 0
M  V30 1970 N 186.241 1.57166 -0.116904 0
M  V30 1971 C 187.49 1.94298 0.541407 0
M  V30 1972 C 187.803 1.00236 1.67964 0
M  V30 1973 O 189.009 1.26826 2.40057 0
M  V30 1974 C 187.465 3.45306 1.01449 0
M  V30 1975 C 187.073 4.47899 -0.0951738 0
M  V30 1976 C 188.817 3.91361 1.6443 0
M  V30 1977 C 186.724 5.90083 0.394491 0
M  V30 1978 H 185.654 0.725308 0.206019 0
M  V30 1979 H 188.305 1.82446 -0.196419 0
M  V30 1980 H 186.687 3.52385 1.80667 0
M  V30 1981 H 187.861 4.52486 -0.871374 0
M  V30 1982 H 186.176 4.11583 -0.631505 0
M  V30 1983 H 188.773 4.95004 2.02176 0
M  V30 1984 H 189.116 3.3122 2.52189 0
M  V30 1985 H 189.649 3.87073 0.917559 0
M  V30 1986 H 186.388 6.53974 -0.447004 0
M  V30 1987 H 185.908 5.88921 1.13722 0
M  V30 1988 H 187.587 6.41307 0.856399 0
M  V30 1989 N 187.719 -0.156864 1.56817 0
M  V30 1990 C 188.667 -1.21319 1.98455 0
M  V30 1991 C 189.661 -1.45025 0.875444 0
M  V30 1992 O 190.867 -1.45435 1.0606 0
M  V30 1993 H 187.242 -0.408142 0.631605 0
M  V30 1994 H 189.213 -0.835244 2.86472 0
M  V30 1995 C 187.962 -2.54148 2.37285 0
M  V30 1996 H 187.285 -2.36733 3.22176 0
M  V30 1997 H 188.725 -3.26712 2.70251 0
M  V30 1998 C 187.184 -3.13967 1.22173 0
M  V30 1999 O 187.714 -3.98357 0.517149 0
M  V30 2000 N 185.92 -2.7327 0.988536 0
M  V30 2001 H 185.467 -2.04744 1.56326 0
M  V30 2002 H 185.425 -3.13628 0.220209 0
M  V30 2003 N 189.197 -1.51736 -0.425897 0
M  V30 2004 C 190.443 -1.66174 -1.17294 0
M  V30 2005 C 190.798 -0.37876 -1.88635 0
M  V30 2006 O 190.091 0.626021 -1.81084 0
M  V30 2007 C 190.285 -2.81103 -2.20717 0
M  V30 2008 C 190.114 -4.20453 -1.59529 0
M  V30 2009 C 188.884 -4.86225 -1.37525 0
M  V30 2010 C 191.082 -5.03146 -1.06528 0
M  V30 2011 N 189.064 -6.09657 -0.720537 0
M  V30 2012 C 190.435 -6.17674 -0.536506 0
M  V30 2013 C 192.49 -4.88594 -0.958127 0
M  V30 2014 C 191.193 -7.19245 0.0888917 0
M  V30 2015 C 193.219 -5.90383 -0.346608 0
M  V30 2016 C 192.581 -7.04191 0.171564 0
M  V30 2017 H 188.68 -0.661871 -0.416475 0
M  V30 2018 H 191.264 -1.88997 -0.467801 0
M  V30 2019 H 189.435 -2.59924 -2.88607 0
M  V30 2020 H 191.167 -2.84662 -2.87663 0
M  V30 2021 H 187.922 -4.44293 -1.64015 0
M  V30 2022 H 188.346 -6.75756 -0.410292 0
M  V30 2023 H 192.988 -4.0085 -1.34459 0
M  V30 2024 H 190.706 -8.06628 0.48746 0
M  V30 2025 H 194.292 -5.81194 -0.265451 0
M  V30 2026 H 193.172 -7.81606 0.637309 0
M  V30 2027 N 190.675 0.682077 -1.42076 0
M  V30 2028 C 191.638 1.77756 -1.44691 0
M  V30 2029 C 192.638 1.5726 -0.335535 0
M  V30 2030 O 193.828 1.63686 -0.596037 0
M  V30 2031 C 190.96 3.16301 -1.27146 0
M  V30 2032 H 192.153 1.76826 -2.42224 0
M  V30 2033 H 189.706 0.891012 -1.28416 0
M  V30 2034 H 190.441 3.22862 -0.305075 0
M  V30 2035 H 190.226 3.32581 -2.07683 0
M  V30 2036 H 191.716 3.96241 -1.31843 0
M  V30 2037 N 192.153 1.28127 0.917671 0
M  V30 2038 C 193.401 1.14825 1.66312 0
M  V30 2039 C 193.722 -0.304379 1.9261 0
M  V30 2040 O 192.992 -1.21149 1.53947 0
M  V30 2041 H 191.572 0.421953 0.616413 0
M  V30 2042 H 194.234 1.608 1.10134 0
M  V30 2043 H 193.33 1.68489 2.62712 0
M  V30 2044 N 193.631 -1.12557 1.10312 0
M  V30 2045 C 194.879 -1.83675 0.843091 0
M  V30 2046 C 195.2 -1.84435 -0.633131 0
M  V30 2047 O 194.47 -1.30657 -1.45964 0
M  V30 2048 H 193.05 -0.680138 0.308904 0
M  V30 2049 H 195.712 -1.36301 1.39313 0
M  V30 2050 H 194.808 -2.87908 1.2048 0
M  V30 2051 N 195.109 -0.891671 -1.2995 0
M  V30 2052 C 196.039 -0.379797 -2.30391 0
M  V30 2053 C 197.02 0.540919 -1.6127 0
M  V30 2054 O 198.205 0.453352 -1.88834 0
M  V30 2055 C 195.335 0.400654 -3.44981 0
M  V30 2056 C 194.289 -0.428905 -4.25846 0
M  V30 2057 C 193.615 0.478557 -5.32554 0
M  V30 2058 C 194.915 -1.67458 -4.94727 0
M  V30 2059 H 196.609 -1.21914 -2.73454 0
M  V30 2060 H 194.155 -0.587675 -1.31462 0
M  V30 2061 H 196.108 0.769434 -4.14316 0
M  V30 2062 H 194.832 1.27371 -3.0074 0
M  V30 2063 H 193.491 -0.779911 -3.58208 0
M  V30 2064 H 193.139 1.34951 -4.84559 0
M  V30 2065 H 192.839 -0.0727433 -5.87555 0
M  V30 2066 H 194.363 0.843705 -6.04743 0
M  V30 2067 H 195.777 -1.376 -5.56542 0
M  V30 2068 H 194.174 -2.16659 -5.59624 0
M  V30 2069 H 195.244 -2.41518 -4.20473 0
M  V30 2070 N 196.587 1.43421 -0.653314 0
M  V30 2071 C 197.537 2.2792 0.060558 0
M  V30 2072 C 198.521 1.39906 0.794677 0
M  V30 2073 O 199.713 1.63536 0.677128 0
M  V30 2074 C 196.842 3.27603 1.0262 0
M  V30 2075 C 195.928 4.23104 0.290551 0
M  V30 2076 N 196.319 5.01031 -0.692967 0
M  V30 2077 C 194.617 4.42816 0.531984 0
M  V30 2078 C 195.318 5.70626 -1.12963 0
M  V30 2079 N 194.294 5.41617 -0.463867 0
M  V30 2080 H 198.096 2.85585 -0.694143 0
M  V30 2081 H 195.61 1.55126 -0.480602 0
M  V30 2082 H 197.607 3.86918 1.55242 0
M  V30 2083 H 196.267 2.71499 1.78096 0
M  V30 2084 H 197.278 5.0669 -1.07169 0
M  V30 2085 H 193.955 3.97782 1.26791 0
M  V30 2086 H 195.345 6.4318 -1.94343 0
M  V30 2087 N 198.065 0.39524 1.52563 0
M  V30 2088 C 199.015 -0.4541 2.23432 0
M  V30 2089 C 199.999 -1.02482 1.24042 0
M  V30 2090 O 201.191 -0.949938 1.49349 0
M  V30 2091 C 198.32 -1.57769 3.049 0
M  V30 2092 C 197.406 -1.01842 4.1169 0
M  V30 2093 N 197.797 -0.184613 5.05463 0
M  V30 2094 C 196.095 -1.29033 4.26927 0
M  V30 2095 C 196.796 0.125013 5.81566 0
M  V30 2096 N 195.772 -0.480498 5.41472 0
M  V30 2097 H 199.574 0.189413 2.93289 0
M  V30 2098 H 197.088 0.204877 1.61102 0
M  V30 2099 H 199.085 -2.19862 3.54212 0
M  V30 2100 H 197.745 -2.22397 2.36579 0
M  V30 2101 H 198.756 0.178602 5.17592 0
M  V30 2102 H 195.433 -1.93721 3.69836 0
M  V30 2103 H 196.823 0.800962 6.67109 0
M  V30 2104 N 199.544 -1.57102 0.125237 0
M  V30 2105 C 200.507 -2.14471 -0.80838 0
M  V30 2106 C 201.507 -1.0811 -1.19033 0
M  V30 2107 O 202.697 -1.33856 -1.11482 0
M  V30 2108 C 199.829 -2.69005 -2.09402 0
M  V30 2109 H 201.022 -2.98297 -0.309696 0
M  V30 2110 H 198.575 -1.55807 -0.124051 0
M  V30 2111 H 199.31 -1.88785 -2.63687 0
M  V30 2112 H 199.095 -3.46799 -1.82957 0
M  V30 2113 H 200.585 -3.13278 -2.76128 0
M  V30 2114 N 201.022 0.148545 -1.56898 0
M  V30 2115 C 201.969 1.18345 -1.98149 0
M  V30 2116 C 202.939 1.42772 -0.848848 0
M  V30 2117 O 204.124 1.55132 -1.11079 0
M  V30 2118 C 201.264 2.51231 -2.36594 0
M  V30 2119 C 200.377 2.33991 -3.63142 0
M  V30 2120 C 199.512 3.59902 -3.90697 0
M  V30 2121 C 198.551 3.37692 -5.1052 0
M  V30 2122 N 197.688 4.5573 -5.34092 0
M  V30 2123 H 202.528 0.82467 -2.86362 0
M  V30 2124 H 200.065 0.395756 -1.41676 0
M  V30 2125 H 202.023 3.28713 -2.56912 0
M  V30 2126 H 200.653 2.85059 -1.51463 0
M  V30 2127 H 199.705 1.47572 -3.50609 0
M  V30 2128 H 201.017 2.13539 -4.5078 0
M  V30 2129 H 200.171 4.45813 -4.11505 0
M  V30 2130 H 198.91 3.83357 -3.01477 0
M  V30 2131 H 197.915 2.5017 -4.89587 0
M  V30 2132 H 199.14 3.15637 -6.0129 0
M  V30 2133 H 197.086 4.79361 -4.47827 0
M  V30 2134 H 197.003 4.38274 -6.15996 0
M  V30 2135 H 198.271 5.42858 -5.59397 0
M  V30 2136 N 202.5 1.5196 0.417844 0
M  V30 2137 C 203.447 1.74678 1.50852 0
M  V30 2138 C 204.417 0.588947 1.55308 0
M  V30 2139 O 205.602 0.825544 1.72016 0
M  V30 2140 C 202.742 1.89544 2.88387 0
M  V30 2141 C 201.855 3.17166 2.93309 0
M  V30 2142 C 200.99 3.22513 4.22088 0
M  V30 2143 C 200.029 4.44372 4.20951 0
M  V30 2144 N 199.166 4.47161 5.41287 0
M  V30 2145 H 204.006 2.67768 1.30783 0
M  V30 2146 H 201.543 1.32689 0.63498 0
M  V30 2147 H 203.501 1.96146 3.68216 0
M  V30 2148 H 202.131 0.998424 3.06971 0
M  V30 2149 H 201.183 3.19778 2.06024 0
M  V30 2150 H 202.495 4.07021 2.88332 0
M  V30 2151 H 201.649 3.28139 5.10303 0
M  V30 2152 H 200.388 2.30581 4.29748 0
M  V30 2153 H 199.393 4.38902 3.31127 0
M  V30 2154 H 200.618 5.3759 4.14938 0
M  V30 2155 H 198.564 3.58108 5.49632 0
M  V30 2156 H 198.481 5.3085 5.3827 0
M  V30 2157 H 199.749 4.57005 6.3148 0
M  V30 2158 N 203.978 -0.674533 1.42435 0
M  V30 2159 C 205.225 -1.43459 1.42919 0
M  V30 2160 C 205.553 -1.94446 0.0457312 0
M  V30 2161 O 204.808 -1.7132 -0.94593 0
M  V30 2162 C 205.107 -2.64767 2.40069 0
M  V30 2163 C 204.773 -2.3232 3.86443 0
M  V30 2164 C 203.435 -2.23182 4.26314 0
M  V30 2165 C 205.787 -2.05977 4.78773 0
M  V30 2166 C 203.115 -1.85827 5.56494 0
M  V30 2167 C 205.467 -1.70125 6.09295 0
M  V30 2168 C 204.131 -1.59498 6.48164 0
M  V30 2169 H 203.401 -0.524952 0.522978 0
M  V30 2170 H 206.048 -0.769097 1.75377 0
M  V30 2171 H 204.353 -3.36349 2.00939 0
M  V30 2172 H 206.05 -3.22949 2.37707 0
M  V30 2173 H 202.64 -2.40334 3.54877 0
M  V30 2174 H 206.824 -2.11969 4.48757 0
M  V30 2175 H 202.08 -1.76168 5.8547 0
M  V30 2176 H 206.254 -1.48767 6.80324 0
M  V30 2177 H 203.881 -1.30322 7.48946 0
M  V30 2178 N 205.456 -1.28612 -0.910864 0
M  V30 2179 C 206.366 -1.14643 -2.0468 0
M  V30 2180 C 207.382 -0.0723121 -1.7385 0
M  V30 2181 O 208.558 -0.282178 -1.99413 0
M  V30 2182 C 205.623 -0.812561 -3.37044 0
M  V30 2183 C 204.684 -1.96935 -3.81465 0
M  V30 2184 C 203.917 -1.65131 -5.07511 0
M  V30 2185 O 204.14 -0.567013 -5.67575 0
M  V30 2186 O 203.074 -2.49585 -5.47714 0
M  V30 2187 H 206.9 -2.1001 -2.19384 0
M  V30 2188 H 204.485 -1.07958 -1.03274 0
M  V30 2189 H 206.367 -0.640441 -4.16505 0
M  V30 2190 H 205.042 0.111426 -3.23508 0
M  V30 2191 H 203.949 -2.19664 -3.02818 0
M  V30 2192 H 205.282 -2.87414 -3.99567 0
M  V30 2193 N 206.934 1.1197 -1.10907 0
M  V30 2194 C 207.897 2.16031 -0.765707 0
M  V30 2195 C 208.897 1.59393 0.212235 0
M  V30 2196 O 210.087 1.74196 -0.0115441 0
M  V30 2197 C 207.219 3.40632 -0.135053 0
M  V30 2198 H 208.412 2.47919 -1.68748 0
M  V30 2199 H 205.965 1.27061 -0.910226 0
M  V30 2200 H 206.7 3.14348 0.797218 0
M  V30 2201 H 206.485 3.8302 -0.838937 0
M  V30 2202 H 207.975 4.17505 0.0892469 0
M  V30 2203 N 208.412 0.89855 1.29475 0
M  V30 2204 C 209.637 0.538561 2.00285 0
M  V30 2205 C 210.062 -0.869135 1.66816 0
M  V30 2206 O 209.42 -1.57831 0.892145 0
M  V30 2207 C 209.468 0.736475 3.52999 0
M  V30 2208 O 208.572 -0.211537 4.11857 0
M  V30 2209 H 207.913 0.210563 0.62973 0
M  V30 2210 H 210.443 1.20982 1.64998 0
M  V30 2211 H 210.453 0.640685 4.02938 0
M  V30 2212 H 209.128 1.76276 3.76696 0
M  V30 2213 H 207.705 -0.0682991 3.72837 0
M  V30 2214 N 209.89 -1.43072 0.660911 0
M  V30 2215 C 211.138 -2.01323 0.177094 0
M  V30 2216 C 211.459 -1.5245 -1.2159 0
M  V30 2217 O 210.729 -0.740322 -1.81373 0
M  V30 2218 H 209.309 -0.744382 0.0624804 0
M  V30 2219 H 211.971 -1.75179 0.854305 0
M  V30 2220 H 211.067 -3.11649 0.167641 0
M  V30 2221 N 211.368 -0.403325 -1.52352 0
M  V30 2222 C 212.615 0.174347 -2.01748 0
M  V30 2223 C 212.943 1.45636 -1.2892 0
M  V30 2224 O 212.198 1.9193 -0.382258 0
M  V30 2225 C 212.497 0.474665 -3.54234 0
M  V30 2226 C 212.163 -0.717458 -4.45155 0
M  V30 2227 C 210.825 -1.04447 -4.69728 0
M  V30 2228 C 213.177 -1.51432 -4.98716 0
M  V30 2229 C 210.505 -2.16963 -5.45109 0
M  V30 2230 C 212.857 -2.6302 -5.75329 0
M  V30 2231 C 211.521 -2.96213 -5.98175 0
M  V30 2232 H 210.791 0.0637981 -0.738248 0
M  V30 2233 H 213.438 -0.543553 -1.83624 0
M  V30 2234 H 211.743 1.27406 -3.70506 0
M  V30 2235 H 213.44 0.934496 -3.89959 0
M  V30 2236 H 210.03 -0.452596 -4.26204 0
M  V30 2237 H 214.214 -1.27491 -4.79645 0
M  V30 2238 H 209.47 -2.43034 -5.61021 0
M  V30 2239 H 213.644 -3.25158 -6.15829 0
M  V30 2240 H 211.271 -3.83516 -6.56368 0
M  V30 2241 N 212.846 1.57033 -0.133567 0
M  V30 2242 C 214.086 1.97575 0.523789 0
M  V30 2243 C 214.45 1.01605 1.62912 0
M  V30 2244 O 215.651 1.3114 2.3464 0
M  V30 2245 C 213.922 3.42256 1.02935 0
M  V30 2246 S 215.481 4.04817 1.69319 0
M  V30 2247 H 212.299 0.690427 0.169799 0
M  V30 2248 H 214.901 1.94234 -0.222101 0
M  V30 2249 H 213.605 4.09842 0.213917 0
M  V30 2250 H 213.136 3.4928 1.81017 0
M  V30 2251 H 215.151 3.96767 2.97977 0
M  V30 2252 N 214.325 -0.140222 1.56975 0
M  V30 2253 C 215.555 -0.865181 1.87612 0
M  V30 2254 C 215.963 -1.74942 0.72055 0
M  V30 2255 O 215.306 -1.80917 -0.318561 0
M  V30 2256 C 215.368 -1.76782 3.13031 0
M  V30 2257 C 215.032 -1.06005 4.44536 0
M  V30 2258 C 216.029 -0.410768 5.18275 0
M  V30 2259 C 213.714 -1.04754 4.91255 0
M  V30 2260 C 215.708 0.241572 6.36942 0
M  V30 2261 C 213.395 -0.391394 6.09845 0
M  V30 2262 C 214.393 0.252029 6.82535 0
M  V30 2263 O 214.081 0.897757 7.98871 0
M  V30 2264 H 213.813 -0.255188 0.625983 0
M  V30 2265 H 216.367 -0.135653 2.04952 0
M  V30 2266 H 214.597 -2.53846 2.91718 0
M  V30 2267 H 216.286 -2.36533 3.29859 0
M  V30 2268 H 217.052 -0.412195 4.83245 0
M  V30 2269 H 212.931 -1.53777 4.34596 0
M  V30 2270 H 216.475 0.744375 6.93617 0
M  V30 2271 H 212.372 -0.387656 6.44335 0
M  V30 2272 H 213.14 0.800102 8.1458 0
M  V30 2273 N 215.803 -1.52179 -0.40978 0
M  V30 2274 C 217.049 -1.66453 -1.15851 0
M  V30 2275 C 217.382 -0.392972 -1.90182 0
M  V30 2276 O 216.657 0.608579 -1.84734 0
M  V30 2277 C 216.94 -2.88612 -2.15349 0
M  V30 2278 C 216.793 -4.25815 -1.44918 0
M  V30 2279 C 218.112 -3.06294 -3.16026 0
M  V30 2280 H 215.231 -0.60575 -0.419805 0
M  V30 2281 H 217.873 -1.84732 -0.444314 0
M  V30 2282 H 216.023 -2.73158 -2.76255 0
M  V30 2283 H 217.695 -4.52995 -0.871365 0
M  V30 2284 H 215.938 -4.27247 -0.751159 0
M  V30 2285 H 216.609 -5.07337 -2.17516 0
M  V30 2286 H 219.085 -3.20641 -2.65195 0
M  V30 2287 H 217.961 -3.93283 -3.8291 0
M  V30 2288 H 218.222 -2.19579 -3.83715 0
M  V30 2289 N 217.281 0.66697 -1.42791 0
M  V30 2290 C 218.229 1.80157 -1.47127 0
M  V30 2291 C 219.223 1.65825 -0.346199 0
M  V30 2292 O 220.429 1.72338 -0.519572 0
M  V30 2293 H 216.804 0.594158 -0.460956 0
M  V30 2294 H 218.775 1.73619 -2.42692 0
M  V30 2295 C 217.524 3.18351 -1.39813 0
M  V30 2296 H 216.847 3.3001 -2.25684 0
M  V30 2297 H 218.287 3.97736 -1.46908 0
M  V30 2298 C 216.746 3.36707 -0.11391 0
M  V30 2299 O 217.276 3.93027 0.830241 0
M  V30 2300 N 215.482 2.90586 -0.0285295 0
M  V30 2301 H 215.029 2.4494 -0.79764 0
M  V30 2302 H 214.987 3.03245 0.830063 0
M  V30 2303 N 218.759 1.29093 0.90403 0
M  V30 2304 C 220.036 1.075 1.63411 0
M  V30 2305 C 220.416 -0.382346 2.07609 0
M  V30 2306 O 219.764 -1.37031 1.82851 0
M  V30 2307 C 219.974 2.05858 2.81822 0
M  V30 2308 C 221.322 2.36539 3.52611 0
M  V30 2309 O 222.346 2.04019 2.91984 0
M  V30 2310 O 221.205 2.92085 4.61897 0
M  V30 2311 H 218.299 0.411547 0.717327 0
M  V30 2312 H 220.845 1.40449 0.952479 0
M  V30 2313 H 219.617 3.04037 2.46327 0
M  V30 2314 H 219.24 1.73613 3.57693 0
M  V30 2315 N 220.237 -1.11381 1.11499 0
M  V30 2316 C 221.486 -1.82494 0.858993 0
M  V30 2317 C 221.799 -1.85605 -0.617278 0
M  V30 2318 O 223.005 -2.52824 -0.989552 0
M  V30 2319 C 221.461 -3.27745 1.48699 0
M  V30 2320 C 221.069 -3.32961 2.99735 0
M  V30 2321 C 222.813 -4.03754 1.31085 0
M  V30 2322 C 220.72 -4.72612 3.55516 0
M  V30 2323 H 219.65 -0.683802 0.317696 0
M  V30 2324 H 222.301 -1.25331 1.34031 0
M  V30 2325 H 220.683 -3.84844 0.933339 0
M  V30 2326 H 221.857 -2.85741 3.61509 0
M  V30 2327 H 220.172 -2.70433 3.16631 0
M  V30 2328 H 222.769 -5.06891 1.70192 0
M  V30 2329 H 223.112 -4.15527 0.253496 0
M  V30 2330 H 223.645 -3.53043 1.83318 0
M  V30 2331 H 220.384 -4.66036 4.60967 0
M  V30 2332 H 219.904 -5.2024 2.98513 0
M  V30 2333 H 221.583 -5.4157 3.53992 0
M  V30 2334 N 221.715 -0.905404 -1.28997 0
M  V30 2335 C 222.961 -0.535039 -1.95615 0
M  V30 2336 C 223.294 0.917404 -1.71165 0
M  V30 2337 O 222.569 1.65123 -1.02785 0
M  V30 2338 C 222.852 -0.834918 -3.50287 0
M  V30 2339 C 222.705 -2.33948 -3.84172 0
M  V30 2340 C 224.024 -0.325318 -4.38896 0
M  V30 2341 H 221.143 -0.195861 -0.710498 0
M  V30 2342 H 223.785 -1.13313 -1.52513 0
M  V30 2343 H 221.935 -0.325904 -3.87131 0
M  V30 2344 H 223.607 -2.91847 -3.57243 0
M  V30 2345 H 221.85 -2.79789 -3.31513 0
M  V30 2346 H 222.521 -2.49987 -4.92149 0
M  V30 2347 H 224.997 -0.761256 -4.09077 0
M  V30 2348 H 223.873 -0.564295 -5.45992 0
M  V30 2349 H 224.134 0.774144 -4.35269 0
M  V30 2350 N 223.193 1.4272 -0.668489 0
M  V30 2351 C 224.442 2.00846 -0.185389 0
M  V30 2352 C 224.755 1.53442 1.21305 0
M  V30 2353 O 225.961 2.03944 1.79218 0
M  V30 2354 C 224.417 3.58805 -0.280591 0
M  V30 2355 C 224.025 4.15198 -1.68268 0
M  V30 2356 C 225.769 4.24255 0.14412 0
M  V30 2357 C 223.676 5.655 -1.73099 0
M  V30 2358 H 222.606 0.751145 -0.0655475 0
M  V30 2359 H 225.257 1.63516 -0.832752 0
M  V30 2360 H 223.639 3.93608 0.434553 0
M  V30 2361 H 224.813 3.91866 -2.42441 0
M  V30 2362 H 223.128 3.62176 -2.05469 0
M  V30 2363 H 225.725 5.34547 0.128086 0
M  V30 2364 H 226.068 3.99277 1.17827 0
M  V30 2365 H 226.601 3.94389 -0.519798 0
M  V30 2366 H 223.34 5.95268 -2.74475 0
M  V30 2367 H 222.86 5.90842 -1.03274 0
M  V30 2368 H 224.539 6.29808 -1.48158 0
M  V30 2369 N 224.671 0.411399 1.52136 0
M  V30 2370 C 225.919 -0.163322 2.01439 0
M  V30 2371 C 226.24 -1.45453 1.29879 0
M  V30 2372 O 225.51 -1.91225 0.4254 0
M  V30 2373 H 224.09 -0.0633447 0.744309 0
M  V30 2374 H 226.752 0.548161 1.87033 0
M  V30 2375 H 225.848 -0.357817 3.10042 0
M  V30 2376 N 226.149 -1.5696 0.141893 0
M  V30 2377 C 227.398 -1.95135 -0.510427 0
M  V30 2378 C 227.711 -1.02896 -1.66348 0
M  V30 2379 O 228.917 -1.30629 -2.38009 0
M  V30 2380 C 227.373 -3.46876 -0.959427 0
M  V30 2381 C 226.981 -4.47691 0.166419 0
M  V30 2382 C 228.725 -3.93927 -1.58183 0
M  V30 2383 C 226.632 -5.90636 -0.300565 0
M  V30 2384 H 225.562 -0.728494 -0.194454 0
M  V30 2385 H 228.213 -1.8211 0.22542 0
M  V30 2386 H 226.595 -3.55215 -1.75038 0
M  V30 2387 H 227.769 -4.51043 0.94325 0
M  V30 2388 H 226.084 -4.10527 0.696905 0
M  V30 2389 H 228.681 -4.98158 -1.94275 0
M  V30 2390 H 229.024 -3.3519 -2.46888 0
M  V30 2391 H 229.557 -3.88484 -0.855863 0
M  V30 2392 H 226.296 -6.5318 0.550989 0
M  V30 2393 H 225.816 -5.90655 -1.04338 0
M  V30 2394 H 227.495 -6.42588 -0.754265 0
M  V30 2395 N 227.627 0.131896 -1.57047 0
M  V30 2396 C 228.557 1.16384 -2.02428 0
M  V30 2397 C 229.538 1.43936 -0.90644 0
M  V30 2398 O 230.723 1.54599 -1.17528 0
M  V30 2399 C 227.853 2.49328 -2.4177 0
M  V30 2400 C 226.807 2.36266 -3.56879 0
M  V30 2401 C 226.133 3.74057 -3.8208 0
M  V30 2402 C 227.433 1.834 -4.89042 0
M  V30 2403 H 229.127 0.786433 -2.88887 0
M  V30 2404 H 226.673 0.376855 -1.38981 0
M  V30 2405 H 228.626 3.21759 -2.7212 0
M  V30 2406 H 227.35 2.88934 -1.52266 0
M  V30 2407 H 226.009 1.66286 -3.26718 0
M  V30 2408 H 225.657 4.11125 -2.89803 0
M  V30 2409 H 225.357 3.66174 -4.59554 0
M  V30 2410 H 226.881 4.48012 -4.1487 0
M  V30 2411 H 228.295 2.45636 -5.18011 0
M  V30 2412 H 226.692 1.8637 -5.70426 0
M  V30 2413 H 227.762 0.790662 -4.7841 0
M  V30 2414 N 229.106 1.52395 0.401703 0
M  V30 2415 C 230.016 1.7917 1.51444 0
M  V30 2416 C 231.032 0.677691 1.6026 0
M  V30 2417 O 232.208 0.963909 1.76835 0
M  V30 2418 C 229.273 1.94347 2.87107 0
M  V30 2419 C 228.334 3.18257 2.88116 0
M  V30 2420 C 227.567 3.32701 4.17308 0
M  V30 2421 O 227.79 2.52238 5.11598 0
M  V30 2422 O 226.724 4.25891 4.25324 0
M  V30 2423 H 230.55 2.73633 1.31752 0
M  V30 2424 H 228.135 1.3733 0.588296 0
M  V30 2425 H 230.017 2.06109 3.67555 0
M  V30 2426 H 228.692 1.03073 3.06851 0
M  V30 2427 H 227.599 3.11947 2.06494 0
M  V30 2428 H 228.932 4.09336 2.73322 0
M  V30 2429 N 230.584 -0.659388 1.43143 0
M  V30 2430 C 231.514 -1.78422 1.50625 0
M  V30 2431 C 232.495 -1.66216 0.361443 0
M  V30 2432 O 233.68 -1.85404 0.577834 0
M  V30 2433 C 230.81 -3.16815 1.42287 0
M  V30 2434 C 229.764 -3.43777 2.54954 0
M  V30 2435 C 229.09 -4.81905 2.31671 0
M  V30 2436 C 230.39 -3.39134 3.97222 0
M  V30 2437 H 232.084 -1.72417 2.44771 0
M  V30 2438 H 229.63 -0.828084 1.17808 0
M  V30 2439 H 231.583 -3.95253 1.46127 0
M  V30 2440 H 230.307 -3.23534 0.446435 0
M  V30 2441 H 228.966 -2.67707 2.50457 0
M  V30 2442 H 228.614 -4.85294 1.32284 0
M  V30 2443 H 228.314 -5.00906 3.07192 0
M  V30 2444 H 229.838 -5.62609 2.37284 0
M  V30 2445 H 231.252 -4.07518 4.03239 0
M  V30 2446 H 229.649 -3.69671 4.72719 0
M  V30 2447 H 230.719 -2.37426 4.22797 0
M  V30 2448 N 232.062 -1.29571 -0.897171 0
M  V30 2449 C 232.992 -1.17473 -2.01798 0
M  V30 2450 C 233.973 -0.068323 -1.69963 0
M  V30 2451 O 235.158 -0.248239 -1.92607 0
M  V30 2452 C 232.288 -0.853099 -3.36659 0
M  V30 2453 C 231.242 -1.9161 -3.82713 0
M  V30 2454 C 230.568 -1.44773 -5.14728 0
M  V30 2455 C 231.868 -3.32535 -4.02763 0
M  V30 2456 H 233.562 -2.11237 -2.12177 0
M  V30 2457 H 231.108 -1.01699 -1.01948 0
M  V30 2458 H 233.061 -0.755165 -4.14578 0
M  V30 2459 H 231.785 0.120236 -3.26379 0
M  V30 2460 H 230.444 -2.00346 -3.07013 0
M  V30 2461 H 230.092 -0.462995 -5.00865 0
M  V30 2462 H 229.792 -2.15865 -5.46513 0
M  V30 2463 H 231.316 -1.36334 -5.95185 0
M  V30 2464 H 232.73 -3.26626 -4.71156 0
M  V30 2465 H 231.127 -4.01607 -4.45905 0
M  V30 2466 H 232.197 -3.75326 -3.07016 0
M  V30 2467 N 233.54 1.10788 -1.12088 0
M  V30 2468 C 234.487 2.17025 -0.785407 0
M  V30 2469 C 235.457 1.64265 0.246191 0
M  V30 2470 O 236.642 1.90412 0.121584 0
M  V30 2471 C 233.782 3.44249 -0.242177 0
M  V30 2472 C 232.895 4.1098 -1.33115 0
M  V30 2473 C 232.03 5.25911 -0.747741 0
M  V30 2474 C 231.069 5.84538 -1.81609 0
M  V30 2475 N 230.206 6.90853 -1.25167 0
M  V30 2476 H 235.046 2.45066 -1.69548 0
M  V30 2477 H 232.583 1.20297 -0.846582 0
M  V30 2478 H 234.541 4.17101 0.0908026 0
M  V30 2479 H 233.171 3.16571 0.631072 0
M  V30 2480 H 232.223 3.36133 -1.78097 0
M  V30 2481 H 233.535 4.50601 -2.13917 0
M  V30 2482 H 232.689 6.056 -0.365216 0
M  V30 2483 H 231.428 4.87614 0.0915188 0
M  V30 2484 H 230.433 5.03522 -2.20785 0
M  V30 2485 H 231.658 6.249 -2.6585 0
M  V30 2486 H 229.604 6.54562 -0.434174 0
M  V30 2487 H 229.521 7.29166 -1.99633 0
M  V30 2488 H 230.789 7.7433 -0.896259 0
M  V30 2489 N 235.018 0.912232 1.28515 0
M  V30 2490 C 236.248 0.559604 1.98877 0
M  V30 2491 C 236.656 -0.863113 1.68366 0
M  V30 2492 O 235.999 -1.58304 0.931969 0
M  V30 2493 C 236.061 0.68703 3.52874 0
M  V30 2494 C 235.725 2.07901 4.06972 0
M  V30 2495 C 236.722 3.05157 4.20922 0
M  V30 2496 C 234.407 2.39178 4.417 0
M  V30 2497 C 236.401 4.31806 4.68852 0
M  V30 2498 C 234.088 3.66068 4.89324 0
M  V30 2499 C 235.086 4.62195 5.02856 0
M  V30 2500 O 234.774 5.86829 5.49442 0
M  V30 2501 H 234.506 0.212191 0.641834 0
M  V30 2502 H 237.06 1.22712 1.64715 0
M  V30 2503 H 235.29 -0.0375486 3.86682 0
M  V30 2504 H 236.979 0.341727 4.04459 0
M  V30 2505 H 237.745 2.82311 3.94367 0
M  V30 2506 H 233.624 1.65109 4.30418 0
M  V30 2507 H 237.168 5.06842 4.79329 0
M  V30 2508 H 233.065 3.88739 5.15318 0
M  V30 2509 H 233.833 5.89597 5.6773 0
M  V30 2510 N 236.496 -1.42363 0.676048 0
M  V30 2511 C 237.446 -2.27987 -0.0242903 0
M  V30 2512 C 238.43 -1.41153 -0.772319 0
M  V30 2513 O 239.622 -1.64592 -0.651025 0
M  V30 2514 C 236.751 -3.29195 -0.973953 0
M  V30 2515 C 235.837 -4.23512 -0.223202 0
M  V30 2516 N 236.228 -4.99865 0.772589 0
M  V30 2517 C 234.526 -4.43606 -0.461469 0
M  V30 2518 C 235.227 -5.68757 1.22027 0
M  V30 2519 N 234.203 -5.40811 0.549975 0
M  V30 2520 H 238.005 -2.84445 0.73949 0
M  V30 2521 H 235.519 -1.54341 0.50522 0
M  V30 2522 H 237.516 -3.89339 -1.49067 0
M  V30 2523 H 236.176 -2.74298 -1.73755 0
M  V30 2524 H 237.187 -5.04921 1.15217 0
M  V30 2525 H 233.864 -3.99749 -1.20446 0
M  V30 2526 H 235.254 -6.40007 2.0455 0
M  V30 2527 N 237.974 -0.419461 -1.51915 0
M  V30 2528 C 239.385 0.0477853 -1.86639 0
M  V30 2529 C 239.736 1.43531 -1.33766 0
M  V30 2530 O 238.861 2.05401 -0.68113 0
M  V30 2531 C 239.456 0.0934885 -3.38671 0
M  V30 2532 C 238.015 0.505097 -3.72996 0
M  V30 2533 C 237.162 -0.313792 -2.75519 0
M  V30 2534 H 240.113 -0.636088 -1.45395 0
M  V30 2535 H 240.134 0.906667 -3.6954 0
M  V30 2536 H 239.646 -0.916501 -3.77123 0
M  V30 2537 H 237.747 1.52135 -3.40126 0
M  V30 2538 H 237.86 0.242309 -4.78487 0
M  V30 2539 H 236.224 0.225363 -2.53701 0
M  V30 2540 H 237.007 -1.32232 -3.16812 0
M  V30 2541 N 239.452 1.56882 -0.150215 0
M  V30 2542 C 240.868 1.58263 0.20617 0
M  V30 2543 C 241.068 1.16464 1.64434 0
M  V30 2544 O 240.124 0.866422 2.3717 0
M  V30 2545 C 241.437 3.00649 -0.0555025 0
M  V30 2546 C 242.985 3.12999 0.00795388 0
M  V30 2547 C 243.46 4.5744 -0.226429 0
M  V30 2548 N 244.951 4.62875 -0.173469 0
M  V30 2549 C 245.686 5.72454 -0.329288 0
M  V30 2550 N 245.182 6.90669 -0.543005 0
M  V30 2551 N 246.975 5.61467 -0.266666 0
M  V30 2552 H 239.126 1.82345 -1.08922 0
M  V30 2553 H 241.389 0.844149 -0.431413 0
M  V30 2554 H 241.095 3.3563 -1.05096 0
M  V30 2555 H 240.969 3.71337 0.66246 0
M  V30 2556 H 243.356 2.77857 0.993966 0
M  V30 2557 H 243.437 2.4479 -0.742388 0
M  V30 2558 H 243.081 4.93287 -1.20956 0
M  V30 2559 H 243.011 5.2378 0.544274 0
M  V30 2560 H 245.502 3.77898 -0.0130709 0
M  V30 2561 H 245.815 7.70045 -0.651922 0
M  V30 2562 H 244.16 6.92581 -0.579366 0
M  V30 2563 H 247.351 4.67992 -0.100441 0
M  V30 2564 H 247.524 6.46816 -0.391535 0
M  V30 2565 N 240.93 -0.123565 1.57115 0
M  V30 2566 C 242.176 -0.833386 1.84885 0
M  V30 2567 C 242.509 -1.79742 0.735292 0
M  V30 2568 O 241.784 -1.92764 -0.25925 0
M  V30 2569 C 242.067 -1.5873 3.23228 0
M  V30 2570 C 241.92 -0.643183 4.45178 0
M  V30 2571 C 243.239 -2.54453 3.59085 0
M  V30 2572 H 240.358 -0.301518 0.6725 0
M  V30 2573 H 243 -0.097778 1.89748 0
M  V30 2574 H 241.15 -2.21438 3.19214 0
M  V30 2575 H 242.822 -0.0253015 4.61293 0
M  V30 2576 H 241.065 0.0456139 4.33776 0
M  V30 2577 H 241.736 -1.20724 5.38637 0
M  V30 2578 H 244.212 -2.01853 3.63861 0
M  V30 2579 H 243.088 -3.04238 4.5687 0
M  V30 2580 H 243.349 -3.36906 2.86264 0
M  V30 2581 N 242.408 -1.52605 -0.393616 0
M  V30 2582 C 243.338 -1.80022 -1.48709 0
M  V30 2583 C 244.319 -0.651995 -1.57108 0
M  V30 2584 O 245.504 -0.89913 -1.72132 0
M  V30 2585 C 242.634 -1.96492 -2.86371 0
M  V30 2586 C 241.588 -3.12161 -2.92813 0
M  V30 2587 C 240.914 -3.13877 -4.3288 0
M  V30 2588 C 242.214 -4.51322 -2.6288 0
M  V30 2589 H 243.908 -2.71589 -1.26015 0
M  V30 2590 H 241.454 -1.30684 -0.604778 0
M  V30 2591 H 243.407 -2.14255 -3.62867 0
M  V30 2592 H 242.131 -1.01611 -3.10391 0
M  V30 2593 H 240.79 -2.94173 -2.18764 0
M  V30 2594 H 240.438 -2.16687 -4.53933 0
M  V30 2595 H 240.138 -3.91576 -4.38112 0
M  V30 2596 H 241.662 -3.33789 -5.1129 0
M  V30 2597 H 243.076 -4.69435 -3.29096 0
M  V30 2598 H 241.473 -5.31053 -2.79468 0
M  V30 2599 H 242.543 -4.58353 -1.58242 0
M  V30 2600 N 243.887 0.651787 -1.4349 0
M  V30 2601 C 245.117 1.43728 -1.48411 0
M  V30 2602 C 245.525 1.8893 -0.10103 0
M  V30 2603 O 244.868 1.60182 0.899307 0
M  V30 2604 C 244.93 2.70411 -2.36893 0
M  V30 2605 C 244.594 2.4714 -3.8441 0
M  V30 2606 C 245.591 2.10271 -4.75481 0
M  V30 2607 C 243.276 2.6142 -4.28912 0
M  V30 2608 C 245.27 1.87982 -6.0905 0
M  V30 2609 C 242.957 2.38746 -5.62533 0
M  V30 2610 C 243.955 2.02083 -6.5242 0
M  V30 2611 O 243.643 1.79647 -7.8357 0
M  V30 2612 H 243.375 0.447962 -0.506267 0
M  V30 2613 H 245.929 0.80624 -1.88915 0
M  V30 2614 H 244.159 3.36079 -1.91278 0
M  V30 2615 H 245.848 3.32364 -2.33 0
M  V30 2616 H 246.614 1.98814 -4.42378 0
M  V30 2617 H 242.493 2.88931 -3.59222 0
M  V30 2618 H 246.037 1.5929 -6.7917 0
M  V30 2619 H 241.934 2.49806 -5.95203 0
M  V30 2620 H 242.702 1.9406 -7.95162 0
M  V30 2621 N 245.365 1.30045 0.890287 0
M  V30 2622 C 246.614 1.17929 1.63633 0
M  V30 2623 C 246.927 -0.266204 1.9378 0
M  V30 2624 O 248.133 -0.508804 2.6669 0
M  V30 2625 C 246.589 2.06317 2.94892 0
M  V30 2626 C 246.197 3.55745 2.72305 0
M  V30 2627 C 247.941 2.0295 3.72843 0
M  V30 2628 C 245.848 4.36205 3.99348 0
M  V30 2629 H 244.778 0.437782 0.613892 0
M  V30 2630 H 247.429 1.54754 0.986075 0
M  V30 2631 H 245.811 1.6237 3.61182 0
M  V30 2632 H 246.985 4.07805 2.1455 0
M  V30 2633 H 245.3 3.6088 2.07737 0
M  V30 2634 H 247.897 2.60319 4.67053 0
M  V30 2635 H 248.24 1.0117 4.0382 0
M  V30 2636 H 248.773 2.4499 3.13408 0
M  V30 2637 H 245.512 5.38659 3.73533 0
M  V30 2638 H 245.032 3.8891 4.56628 0
M  V30 2639 H 246.711 4.47362 4.67415 0
M  V30 2640 N 246.843 -1.10192 1.12674 0
M  V30 2641 C 248.12 -1.78717 0.794965 0
M  V30 2642 C 248.5 -1.98628 -0.714853 0
M  V30 2643 O 247.848 -1.58135 -1.64941 0
M  V30 2644 C 248.058 -3.11546 1.5729 0
M  V30 2645 C 249.406 -3.86382 1.76052 0
M  V30 2646 O 250.43 -3.21274 1.53823 0
M  V30 2647 O 249.289 -5.03246 2.13087 0
M  V30 2648 H 246.383 -0.774702 0.289423 0
M  V30 2649 H 248.929 -1.16819 1.23091 0
M  V30 2650 H 247.701 -2.92489 2.59935 0
M  V30 2651 H 247.324 -3.81164 1.13137 0
M  V30 2652 N 248.321 -0.919034 -1.28029 0
M  V30 2653 C 249.57 -0.550802 -1.94034 0
M  V30 2654 C 249.883 0.910877 -1.73096 0
M  V30 2655 O 251.089 1.3875 -2.33368 0
M  V30 2656 C 249.545 -0.934249 -3.47563 0
M  V30 2657 C 249.153 -2.41602 -3.7727 0
M  V30 2658 C 250.897 -0.636854 -4.19696 0
M  V30 2659 C 248.804 -2.73932 -5.24133 0
M  V30 2660 H 247.734 -0.202273 -0.726362 0
M  V30 2661 H 250.385 -1.11867 -1.45458 0
M  V30 2662 H 248.767 -0.295115 -3.94899 0
M  V30 2663 H 249.941 -3.10233 -3.40723 0
M  V30 2664 H 248.256 -2.68441 -3.18321 0
M  V30 2665 H 250.853 -0.855005 -5.2782 0
M  V30 2666 H 251.196 0.425575 -4.14119 0
M  V30 2667 H 251.729 -1.23469 -3.78154 0
M  V30 2668 H 248.468 -3.79049 -5.34792 0
M  V30 2669 H 247.988 -2.09942 -5.61858 0
M  V30 2670 H 249.667 -2.61215 -5.91925 0
M  V30 2671 N 249.799 1.42003 -0.683588 0
M  V30 2672 C 251.076 1.95112 -0.138075 0
M  V30 2673 C 251.456 1.62359 1.34918 0
M  V30 2674 O 250.804 0.924311 2.08971 0
M  V30 2675 C 251.014 3.46505 -0.416581 0
M  V30 2676 C 252.362 4.23254 -0.337834 0
M  V30 2677 O 253.386 3.54468 -0.35082 0
M  V30 2678 O 252.245 5.45743 -0.287596 0
M  V30 2679 H 249.339 0.826961 -0.00797996 0
M  V30 2680 H 251.885 1.51784 -0.758924 0
M  V30 2681 H 250.657 3.63582 -1.4465 0
M  V30 2682 H 250.28 3.969 0.235839 0
M  V30 2683 N 251.277 0.427512 1.51691 0
M  V30 2684 C 252.526 -0.143679 2.01188 0
M  V30 2685 C 252.839 -1.44642 1.31674 0
M  V30 2686 O 254.045 -2.09997 1.72086 0
M  V30 2687 C 252.501 -0.306602 3.58592 0
M  V30 2688 C 252.109 0.985125 4.37035 0
M  V30 2689 C 253.853 -0.832091 4.16265 0
M  V30 2690 C 251.76 0.788382 5.86122 0
M  V30 2691 H 250.69 -0.0574701 0.751807 0
M  V30 2692 H 253.341 0.555772 1.74881 0
M  V30 2693 H 251.723 -1.06882 3.81303 0
M  V30 2694 H 252.897 1.75492 4.26074 0
M  V30 2695 H 251.212 1.4384 3.90767 0
M  V30 2696 H 253.809 -0.995617 5.25349 0
M  V30 2697 H 254.152 -1.81186 3.74803 0
M  V30 2698 H 254.685 -0.128444 3.97593 0
M  V30 2699 H 251.424 1.74025 6.31978 0
M  V30 2700 H 250.944 0.0582143 5.99772 0
M  V30 2701 H 252.623 0.437722 6.45518 0
M  V30 2702 N 252.755 -1.56801 0.158532 0
M  V30 2703 C 253.705 -2.13923 -0.788738 0
M  V30 2704 C 254.689 -1.07006 -1.2016 0
M  V30 2705 O 255.881 -1.33159 -1.1661 0
M  V30 2706 C 253.01 -2.77348 -2.02319 0
M  V30 2707 C 252.096 -3.91404 -1.6329 0
M  V30 2708 N 252.487 -4.9677 -0.951463 0
M  V30 2709 C 250.785 -4.02326 -1.92482 0
M  V30 2710 C 251.486 -5.76698 -0.761221 0
M  V30 2711 N 250.462 -5.27859 -1.29869 0
M  V30 2712 H 254.264 -2.92757 -0.258995 0
M  V30 2713 H 251.778 -1.62344 -0.0426055 0
M  V30 2714 H 253.775 -3.16639 -2.71192 0
M  V30 2715 H 252.435 -1.99991 -2.558 0
M  V30 2716 H 253.446 -5.14284 -0.610928 0
M  V30 2717 H 250.123 -3.36059 -2.47732 0
M  V30 2718 H 251.513 -6.71529 -0.223284 0
M  V30 2719 N 254.233 0.115231 -1.57178 0
M  V30 2720 C 255.183 1.14707 -1.97044 0
M  V30 2721 C 256.167 1.36866 -0.845957 0
M  V30 2722 O 257.359 1.37895 -1.10968 0
M  V30 2723 C 254.488 2.47266 -2.38148 0
M  V30 2724 C 253.574 2.28566 -3.57237 0
M  V30 2725 N 253.965 1.79685 -4.72807 0
M  V30 2726 C 252.263 2.59208 -3.62943 0
M  V30 2727 C 252.964 1.74781 -5.54821 0
M  V30 2728 N 251.94 2.19264 -4.97417 0
M  V30 2729 H 255.742 0.761754 -2.83857 0
M  V30 2730 H 253.256 0.322928 -1.59157 0
M  V30 2731 H 255.253 3.219 -2.64927 0
M  V30 2732 H 253.913 2.86552 -1.52702 0
M  V30 2733 H 254.924 1.49177 -4.9595 0
M  V30 2734 H 251.601 3.02154 -2.88113 0
M  V30 2735 H 252.991 1.38212 -6.57531 0
M  V30 2736 N 255.711 1.52812 0.385517 0
M  V30 2737 C 256.959 1.67694 1.12797 0
M  V30 2738 C 257.28 0.421115 1.90399 0
M  V30 2739 O 256.55 -0.564551 1.87589 0
M  V30 2740 H 255.13 0.618155 0.419396 0
M  V30 2741 H 257.792 1.89938 0.436972 0
M  V30 2742 H 256.888 2.52896 1.82894 0
M  V30 2743 N 257.189 -0.644168 1.43834 0
M  V30 2744 C 258.466 -1.40188 1.36406 0
M  V30 2745 C 258.846 -2.11094 0.0163124 0
M  V30 2746 O 258.194 -2.05426 -1.00062 0
M  V30 2747 C 258.404 -2.3791 2.55343 0
M  V30 2748 C 259.752 -3.01637 2.98832 0
M  V30 2749 O 260.776 -2.48237 2.55455 0
M  V30 2750 O 259.635 -3.98477 3.74003 0
M  V30 2751 H 256.729 -0.626773 0.539523 0
M  V30 2752 H 259.275 -0.670317 1.559 0
M  V30 2753 H 258.047 -1.84525 3.4506 0
M  V30 2754 H 257.67 -3.18503 2.37995 0
M  V30 2755 N 258.668 -1.30515 -0.883378 0
M  V30 2756 C 259.916 -1.19194 -1.63209 0
M  V30 2757 C 260.237 0.253205 -1.93349 0
M  V30 2758 O 259.507 1.17025 -1.57105 0
M  V30 2759 H 258.087 -0.438148 -0.605009 0
M  V30 2760 H 260.749 -1.63663 -1.05832 0
M  V30 2761 H 259.845 -1.75396 -2.58153 0
M  V30 2762 N 260.146 1.09593 -1.13257 0
M  V30 2763 C 261.392 1.82003 -0.89458 0
M  V30 2764 C 261.725 1.85402 0.577906 0
M  V30 2765 O 261 1.32099 1.42759 0
M  V30 2766 C 261.283 3.28237 -1.48096 0
M  V30 2767 C 261.136 3.3312 -3.02244 0
M  V30 2768 C 262.455 4.24871 -1.14774 0
M  V30 2769 H 259.574 0.66077 -0.326424 0
M  V30 2770 H 262.216 1.28389 -1.40058 0
M  V30 2771 H 260.366 3.74024 -1.05062 0
M  V30 2772 H 262.038 2.95748 -3.54021 0
M  V30 2773 H 260.281 2.72756 -3.37323 0
M  V30 2774 H 260.952 4.3613 -3.38371 0
M  V30 2775 H 263.428 3.87361 -1.51957 0
M  V30 2776 H 262.304 5.25532 -1.58452 0
M  V30 2777 H 262.565 4.42058 -0.0611849 0
M  V30 2778 N 261.624 0.925811 1.2754 0
M  V30 2779 C 262.556 0.380753 2.26015 0
M  V30 2780 C 263.569 -0.487485 1.5533 0
M  V30 2781 O 264.758 -0.300413 1.75954 0
M  V30 2782 C 261.858 -0.473259 3.35579 0
M  V30 2783 C 261.031 0.375249 4.35787 0
M  V30 2784 C 260.09 -0.415809 5.24555 0
M  V30 2785 O 259.116 0.175834 5.68928 0
M  V30 2786 N 260.318 -1.71607 5.54555 0
M  V30 2787 H 263.083 1.22725 2.73421 0
M  V30 2788 H 260.644 0.793037 1.41147 0
M  V30 2789 H 262.636 -1.00949 3.91907 0
M  V30 2790 H 261.206 -1.2205 2.87789 0
M  V30 2791 H 260.426 1.09279 3.7875 0
M  V30 2792 H 261.714 0.955399 4.99749 0
M  V30 2793 H 261.112 -2.2191 5.20358 0
M  V30 2794 H 259.669 -2.19887 6.1359 0
M  V30 2795 N 263.102 -1.41638 0.69111 0
M  V30 2796 C 264.012 -2.34588 0.0233487 0
M  V30 2797 C 265.028 -1.55987 -0.770984 0
M  V30 2798 O 266.204 -1.88486 -0.709569 0
M  V30 2799 C 263.269 -3.34684 -0.904851 0
M  V30 2800 C 262.33 -4.29176 -0.103225 0
M  V30 2801 C 261.563 -5.2449 -0.987216 0
M  V30 2802 O 261.786 -5.2514 -2.22674 0
M  V30 2803 O 260.72 -6.00295 -0.439281 0
M  V30 2804 H 264.546 -2.93261 0.789416 0
M  V30 2805 H 262.131 -1.42417 0.45142 0
M  V30 2806 H 264.013 -3.96133 -1.43724 0
M  V30 2807 H 262.688 -2.78461 -1.65049 0
M  V30 2808 H 261.595 -3.71089 0.473655 0
M  V30 2809 H 262.928 -4.88484 0.60365 0
M  V30 2810 N 264.58 -0.43555 -1.51462 0
M  V30 2811 C 265.543 0.365137 -2.26273 0
M  V30 2812 C 266.543 0.951227 -1.29647 0
M  V30 2813 O 267.733 0.825958 -1.53374 0
M  V30 2814 C 264.865 1.51645 -3.05314 0
M  V30 2815 H 266.058 -0.290474 -2.9849 0
M  V30 2816 H 263.611 -0.188676 -1.55157 0
M  V30 2817 H 264.346 2.20816 -2.3751 0
M  V30 2818 H 264.131 1.10238 -3.76284 0
M  V30 2819 H 265.621 2.08218 -3.61987 0
M  V30 2820 N 266.058 1.56714 -0.166846 0
M  V30 2821 C 267.305 1.96747 0.479252 0
M  V30 2822 C 267.633 1.05263 1.63554 0
M  V30 2823 O 266.888 0.0858098 1.95512 0
M  V30 2824 C 267.187 3.42889 1.00806 0
M  V30 2825 C 266.853 4.50889 -0.0318574 0
M  V30 2826 C 265.515 4.8015 -0.317675 0
M  V30 2827 C 267.867 5.15949 -0.737956 0
M  V30 2828 C 265.195 5.71772 -1.31506 0
M  V30 2829 C 267.547 6.08647 -1.72429 0
M  V30 2830 C 266.211 6.36277 -2.0176 0
M  V30 2831 H 265.481 0.719949 0.175371 0
M  V30 2832 H 268.128 1.89756 -0.257864 0
M  V30 2833 H 266.433 3.4681 1.82291 0
M  V30 2834 H 268.13 3.71203 1.51689 0
M  V30 2835 H 264.72 4.28128 0.201088 0
M  V30 2836 H 268.904 4.93458 -0.530351 0
M  V30 2837 H 264.16 5.91465 -1.54853 0
M  V30 2838 H 268.334 6.58129 -2.27682 0
M  V30 2839 H 265.961 7.07075 -2.79194 0
M  V30 2840 N 267.536 -0.106894 1.57237 0
M  V30 2841 C 268.766 -0.825191 1.89405 0
M  V30 2842 C 269.174 -1.73374 0.757496 0
M  V30 2843 O 268.517 -1.81552 -0.280115 0
M  V30 2844 C 268.579 -1.70102 3.1671 0
M  V30 2845 C 268.243 -0.965523 4.46684 0
M  V30 2846 C 269.24 -0.300741 5.19029 0
M  V30 2847 C 266.925 -0.943105 4.93367 0
M  V30 2848 C 268.919 0.376622 6.36286 0
M  V30 2849 C 266.606 -0.261949 6.10538 0
M  V30 2850 C 267.604 0.396748 6.81847 0
M  V30 2851 O 267.292 1.06701 7.96787 0
M  V30 2852 H 267.024 -0.241852 0.631255 0
M  V30 2853 H 269.578 -0.0921491 2.05193 0
M  V30 2854 H 267.808 -2.47601 2.97036 0
M  V30 2855 H 269.497 -2.29483 3.34802 0
M  V30 2856 H 270.263 -0.309599 4.84011 0
M  V30 2857 H 266.142 -1.44524 4.3776 0
M  V30 2858 H 269.686 0.891334 6.91882 0
M  V30 2859 H 265.583 -0.250896 6.45012 0
M  V30 2860 H 266.351 0.972707 8.127 0
M  V30 2861 N 269.014 -1.53014 -0.377408 0
M  V30 2862 C 269.944 -1.81589 -1.46791 0
M  V30 2863 C 270.925 -0.668622 -1.56408 0
M  V30 2864 O 272.11 -0.917337 -1.71168 0
M  V30 2865 C 269.24 -1.99519 -2.8427 0
M  V30 2866 C 268.194 -3.15249 -2.89486 0
M  V30 2867 C 267.52 -3.18451 -4.29527 0
M  V30 2868 C 268.82 -4.54084 -2.58079 0
M  V30 2869 H 270.514 -2.7291 -1.23127 0
M  V30 2870 H 268.06 -1.31319 -0.590883 0
M  V30 2871 H 270.013 -2.18092 -3.60575 0
M  V30 2872 H 268.737 -1.04897 -3.09296 0
M  V30 2873 H 267.396 -2.96477 -2.15631 0
M  V30 2874 H 267.044 -2.2149 -4.5161 0
M  V30 2875 H 266.744 -3.962 -4.33934 0
M  V30 2876 H 268.268 -3.39193 -5.07721 0
M  V30 2877 H 269.682 -4.72899 -3.24098 0
M  V30 2878 H 268.079 -5.33987 -2.7382 0
M  V30 2879 H 269.149 -4.60006 -1.53372 0
M  V30 2880 N 270.492 0.636531 -1.44174 0
M  V30 2881 C 271.72 1.42353 -1.50144 0
M  V30 2882 C 272.135 1.88389 -0.124575 0
M  V30 2883 O 271.492 1.6051 0.868489 0
M  V30 2884 C 271.543 2.64744 -2.46156 0
M  V30 2885 O 271.264 2.20629 -3.7849 0
M  V30 2886 C 272.765 3.57929 -2.61537 0
M  V30 2887 H 269.985 0.436752 -0.5094 0
M  V30 2888 H 272.529 0.778933 -1.89084 0
M  V30 2889 H 270.684 3.25307 -2.10366 0
M  V30 2890 H 271.098 2.99938 -4.30276 0
M  V30 2891 H 272.572 4.40428 -3.32757 0
M  V30 2892 H 273.049 4.06382 -1.66585 0
M  V30 2893 H 273.655 3.03238 -2.98206 0
M  V30 2894 N 271.97 1.30982 0.876444 0
M  V30 2895 C 273.247 1.10942 1.61094 0
M  V30 2896 C 273.627 -0.338223 2.08373 0
M  V30 2897 O 272.975 -1.33122 1.85717 0
M  V30 2898 C 273.185 2.11789 2.77392 0
M  V30 2899 C 274.533 2.43965 3.47514 0
M  V30 2900 O 275.557 2.10166 2.87591 0
M  V30 2901 O 274.416 3.01817 4.55597 0
M  V30 2902 H 271.51 0.42667 0.708436 0
M  V30 2903 H 274.056 1.42438 0.922474 0
M  V30 2904 H 272.828 3.09194 2.39823 0
M  V30 2905 H 272.451 1.81161 3.5393 0
M  V30 2906 N 273.449 -1.08991 1.13837 0
M  V30 2907 C 274.865 -1.33312 0.877506 0
M  V30 2908 C 275.065 -1.95587 -0.48456 0
M  V30 2909 O 274.121 -2.20509 -1.23013 0
M  V30 2910 C 275.434 -2.24045 2.0056 0
M  V30 2911 C 276.982 -2.37542 2.03821 0
M  V30 2912 C 277.457 -3.31614 3.15905 0
M  V30 2913 N 278.948 -3.39189 3.15445 0
M  V30 2914 C 279.683 -4.11992 3.98811 0
M  V30 2915 N 279.179 -4.87553 4.92203 0
M  V30 2916 N 280.972 -4.07762 3.86894 0
M  V30 2917 H 273.123 -0.669456 2.01574 0
M  V30 2918 H 275.386 -0.357482 0.878015 0
M  V30 2919 H 275.092 -1.85521 2.98789 0
M  V30 2920 H 274.966 -3.24466 1.92359 0
M  V30 2921 H 277.353 -2.75327 1.06202 0
M  V30 2922 H 277.434 -1.36884 2.16093 0
M  V30 2923 H 277.078 -2.94551 4.13766 0
M  V30 2924 H 277.008 -4.32186 3.0087 0
M  V30 2925 H 279.499 -2.85314 2.47799 0
M  V30 2926 H 279.812 -5.40549 5.52292 0
M  V30 2927 H 278.157 -4.86627 4.96205 0
M  V30 2928 H 281.348 -3.47833 3.13257 0
M  V30 2929 H 281.521 -4.64238 4.52092 0
M  V30 2930 N 274.927 -0.932562 -1.27047 0
M  V30 2931 C 276.173 -0.576412 -1.94436 0
M  V30 2932 C 276.506 0.880891 -1.73072 0
M  V30 2933 O 275.781 1.62905 -1.06264 0
M  V30 2934 C 276.064 -0.909031 -3.48437 0
M  V30 2935 C 275.917 -2.42044 -3.79123 0
M  V30 2936 C 277.236 -0.418341 -4.38107 0
M  V30 2937 H 274.355 -0.210888 -0.706184 0
M  V30 2938 H 276.997 -1.16522 -1.50075 0
M  V30 2939 H 275.147 -0.407947 -3.86352 0
M  V30 2940 H 276.819 -2.99359 -3.50973 0
M  V30 2941 H 275.062 -2.86758 -3.25503 0
M  V30 2942 H 275.733 -2.6037 -4.86736 0
M  V30 2943 H 278.209 -0.847856 -4.0737 0
M  V30 2944 H 277.085 -0.679981 -5.44672 0
M  V30 2945 H 277.346 0.681642 -4.36814 0
M  V30 2946 N 276.405 1.4127 -0.698611 0
M  V30 2947 C 277.338 2.28195 0.0153898 0
M  V30 2948 C 278.316 1.42402 0.784883 0
M  V30 2949 O 279.5 1.71828 0.775067 0
M  V30 2950 C 276.627 3.22685 1.02918 0
M  V30 2951 C 275.673 4.25041 0.352501 0
M  V30 2952 S 276.506 5.27757 -0.907322 0
M  V30 2953 C 277.662 6.25812 0.104796 0
M  V30 2954 H 277.895 2.88403 -0.721858 0
M  V30 2955 H 275.428 1.46452 -0.488996 0
M  V30 2956 H 277.386 3.77655 1.60893 0
M  V30 2957 H 276.047 2.61566 1.73902 0
M  V30 2958 H 275.24 4.91437 1.11828 0
M  V30 2959 H 274.842 3.73682 -0.154254 0
M  V30 2960 H 277.134 6.70705 0.957103 0
M  V30 2961 H 278.077 7.06149 -0.525323 0
M  V30 2962 H 278.485 5.62615 0.460931 0
M  V30 2963 N 277.883 0.443576 1.51229 0
M  V30 2964 C 279.111 -0.11929 2.06556 0
M  V30 2965 C 279.526 -1.35921 1.31038 0
M  V30 2966 O 278.883 -1.78675 0.371704 0
M  V30 2967 C 278.934 -0.435228 3.5887 0
M  V30 2968 O 278.655 0.755486 4.31537 0
M  V30 2969 C 280.156 -1.04808 4.30732 0
M  V30 2970 H 277.376 -0.0051584 0.67098 0
M  V30 2971 H 279.92 0.624453 1.94733 0
M  V30 2972 H 278.075 -1.12887 3.70588 0
M  V30 2973 H 278.489 0.483491 5.22267 0
M  V30 2974 H 279.963 -1.2191 5.3837 0
M  V30 2975 H 280.44 -2.03081 3.89429 0
M  V30 2976 H 281.046 -0.393637 4.23474 0
M  V30 2977 N 279.361 -1.56624 0.175154 0
M  V30 2978 C 280.607 -1.9729 -0.469506 0
M  V30 2979 C 280.94 -1.06128 -1.62636 0
M  V30 2980 O 280.215 -0.109183 -1.94193 0
M  V30 2981 C 280.498 -3.47375 -0.948804 0
M  V30 2982 C 280.351 -4.49317 0.208491 0
M  V30 2983 C 281.67 -4.00652 -1.82116 0
M  V30 2984 H 278.789 -0.717317 -0.16919 0
M  V30 2985 H 281.431 -1.88184 0.262062 0
M  V30 2986 H 279.581 -3.55267 -1.57219 0
M  V30 2987 H 281.253 -4.53482 0.845682 0
M  V30 2988 H 279.496 -4.25121 0.863395 0
M  V30 2989 H 280.167 -5.51741 -0.169059 0
M  V30 2990 H 282.643 -3.95416 -1.2956 0
M  V30 2991 H 281.519 -5.06075 -2.12554 0
M  V30 2992 H 281.78 -3.44699 -2.7683 0
M  V30 2993 N 280.839 0.0985539 -1.57292 0
M  V30 2994 C 282.064 0.820196 -1.90493 0
M  V30 2995 C 282.489 1.71658 -0.769094 0
M  V30 2996 O 281.847 1.79133 0.279495 0
M  V30 2997 C 281.895 1.61242 -3.22542 0
M  V30 2998 O 280.999 2.72108 -3.09888 0
M  V30 2999 H 280.34 0.225547 -0.62452 0
M  V30 3000 H 282.87 0.0748159 -2.04463 0
M  V30 3001 H 282.88 1.99737 -3.55766 0
M  V30 3002 H 281.555 0.954535 -4.04798 0
M  V30 3003 H 280.132 2.36667 -2.88172 0
M  V30 3004 N 282.317 1.53212 0.369288 0
M  V30 3005 C 283.564 1.69215 1.11232 0
M  V30 3006 C 283.892 0.442048 1.8941 0
M  V30 3007 O 283.147 -0.575944 1.87033 0
M  V30 3008 C 283.446 2.89101 2.10132 0
M  V30 3009 C 283.112 4.25758 1.48463 0
M  V30 3010 C 281.774 4.6292 1.31372 0
M  V30 3011 C 284.126 5.10757 1.03811 0
M  V30 3012 C 281.454 5.82722 0.68207 0
M  V30 3013 C 283.806 6.31201 0.420487 0
M  V30 3014 C 282.47 6.67079 0.237038 0
M  V30 3015 H 281.74 0.619201 0.407027 0
M  V30 3016 H 284.387 1.87391 0.394552 0
M  V30 3017 H 282.692 2.65421 2.88199 0
M  V30 3018 H 284.389 2.98676 2.6757 0
M  V30 3019 H 280.979 3.96494 1.62758 0
M  V30 3020 H 285.163 4.82599 1.1581 0
M  V30 3021 H 280.419 6.09113 0.528316 0
M  V30 3022 H 284.593 6.96368 0.0662874 0
M  V30 3023 H 282.22 7.59774 -0.254477 0
M  V30 3024 N 283.795 -0.628877 1.44509 0
M  V30 3025 C 284.745 -1.7345 1.47983 0
M  V30 3026 C 285.729 -1.5715 0.345373 0
M  V30 3027 O 286.921 -1.66848 0.590829 0
M  V30 3028 C 284.05 -3.12143 1.42904 0
M  V30 3029 C 283.136 -3.33906 2.61472 0
M  V30 3030 N 283.527 -3.26024 3.86706 0
M  V30 3031 C 281.825 -3.64709 2.56716 0
M  V30 3032 C 282.526 -3.48536 4.65722 0
M  V30 3033 N 281.502 -3.71517 3.96832 0
M  V30 3034 H 285.304 -1.65818 2.42655 0
M  V30 3035 H 282.818 -0.831419 1.39503 0
M  V30 3036 H 284.815 -3.91433 1.43476 0
M  V30 3037 H 283.475 -3.2094 0.492717 0
M  V30 3038 H 284.486 -3.04893 4.18641 0
M  V30 3039 H 281.163 -3.80473 1.71891 0
M  V30 3040 H 282.553 -3.48016 5.74747 0
M  V30 3041 N 285.273 -1.31445 -0.869486 0
M  V30 3042 C 286.22 -1.19135 -1.97675 0
M  V30 3043 C 287.19 -0.0770266 -1.65921 0
M  V30 3044 O 288.375 -0.249972 -1.89155 0
M  V30 3045 C 285.515 -0.905149 -3.33018 0
M  V30 3046 C 284.628 -2.10285 -3.77365 0
M  V30 3047 C 283.763 -1.75339 -5.01427 0
M  V30 3048 C 282.802 -2.91515 -5.38224 0
M  V30 3049 N 281.939 -2.56762 -6.53466 0
M  V30 3050 H 286.779 -2.13853 -2.07535 0
M  V30 3051 H 284.316 -1.06379 -1.01597 0
M  V30 3052 H 286.274 -0.719765 -4.10944 0
M  V30 3053 H 284.904 0.00519624 -3.228 0
M  V30 3054 H 283.956 -2.39899 -2.95216 0
M  V30 3055 H 285.268 -2.97237 -4.00564 0
M  V30 3056 H 284.422 -1.53266 -5.87022 0
M  V30 3057 H 283.161 -0.855801 -4.80133 0
M  V30 3058 H 282.166 -3.14237 -4.51149 0
M  V30 3059 H 283.391 -3.81985 -5.61484 0
M  V30 3060 H 281.337 -1.69526 -6.33717 0
M  V30 3061 H 281.254 -3.37243 -6.76612 0
M  V30 3062 H 282.522 -2.38083 -7.42251 0
M  V30 3063 N 286.751 1.08385 -1.14413 0
M  V30 3064 C 287.981 1.8425 -0.934644 0
M  V30 3065 C 288.389 1.81907 0.520234 0
M  V30 3066 O 287.732 1.22126 1.37226 0
M  V30 3067 C 287.794 3.32853 -1.35828 0
M  V30 3068 C 287.458 3.5893 -2.82875 0
M  V30 3069 C 288.455 3.53756 -3.80989 0
M  V30 3070 C 286.14 3.86934 -3.20293 0
M  V30 3071 C 288.134 3.76216 -5.14529 0
M  V30 3072 C 285.821 4.09047 -4.54008 0
M  V30 3073 C 286.819 4.03682 -5.50936 0
M  V30 3074 O 286.507 4.25214 -6.82238 0
M  V30 3075 H 286.239 0.588502 -0.332628 0
M  V30 3076 H 288.793 1.37792 -1.52324 0
M  V30 3077 H 287.023 3.8007 -0.713019 0
M  V30 3078 H 288.712 3.90154 -1.11957 0
M  V30 3079 H 289.478 3.32135 -3.53428 0
M  V30 3080 H 285.357 3.9023 -2.45442 0
M  V30 3081 H 288.901 3.71943 -5.90173 0
M  V30 3082 H 284.798 4.30151 -4.8129 0
M  V30 3083 H 285.566 4.42619 -6.88499 0
M  V30 3084 N 288.23 0.939286 1.26551 0
M  V30 3085 C 289.478 0.58469 1.93457 0
M  V30 3086 C 289.799 -0.878774 1.74076 0
M  V30 3087 O 289.069 -1.62421 1.09528 0
M  V30 3088 H 287.649 0.21325 0.715914 0
M  V30 3089 H 290.311 1.1942 1.54029 0
M  V30 3090 H 289.407 0.800849 3.0165 0
M  V30 3091 N 289.708 -1.40897 0.706093 0
M  V30 3092 C 290.656 -2.32572 0.0361893 0
M  V30 3093 C 291.65 -1.51532 -0.757266 0
M  V30 3094 O 292.856 -1.67396 -0.661703 0
M  V30 3095 H 289.231 -0.751966 -0.00709935 0
M  V30 3096 H 291.202 -2.86733 0.826249 0
M  V30 3097 C 289.951 -3.36418 -0.87854 0
M  V30 3098 H 289.274 -3.98836 -0.277401 0
M  V30 3099 H 290.714 -4.0308 -1.3154 0
M  V30 3100 C 289.173 -2.71141 -1.99961 0
M  V30 3101 O 289.703 -2.56735 -3.0895 0
M  V30 3102 N 287.909 -2.29671 -1.78043 0
M  V30 3103 H 287.456 -2.41588 -0.894042 0
M  V30 3104 H 287.414 -1.86332 -2.53235 0
M  V30 3105 N 291.186 -0.45159 -1.50991 0
M  V30 3106 C 292.416 0.108177 -2.06317 0
M  V30 3107 C 292.824 1.35774 -1.31765 0
M  V30 3108 O 292.167 1.79838 -0.374694 0
M  V30 3109 C 292.229 0.481659 -3.56259 0
M  V30 3110 C 291.893 -0.663114 -4.52163 0
M  V30 3111 C 292.89 -1.53947 -4.96585 0
M  V30 3112 C 290.575 -0.8479 -4.95092 0
M  V30 3113 C 292.569 -2.58518 -5.82621 0
M  V30 3114 C 290.256 -1.89686 -5.80915 0
M  V30 3115 C 291.254 -2.76388 -6.24579 0
M  V30 3116 O 290.942 -3.79482 -7.08695 0
M  V30 3117 H 290.674 0.00499183 -0.675982 0
M  V30 3118 H 293.228 -0.633659 -1.95381 0
M  V30 3119 H 291.458 1.27641 -3.65027 0
M  V30 3120 H 293.147 0.974233 -3.94035 0
M  V30 3121 H 293.913 -1.4083 -4.64103 0
M  V30 3122 H 289.792 -0.18258 -4.60638 0
M  V30 3123 H 293.336 -3.26224 -6.16623 0
M  V30 3124 H 289.233 -2.02817 -6.12809 0
M  V30 3125 H 290.001 -3.76234 -7.26905 0
M  V30 3126 N 292.664 1.56529 -0.183458 0
M  V30 3127 C 293.911 1.97244 0.458357 0
M  V30 3128 C 294.239 1.06992 1.62428 0
M  V30 3129 O 293.494 0.106542 1.9541 0
M  V30 3130 C 293.793 3.43939 0.971637 0
M  V30 3131 C 293.459 4.5083 -0.0796784 0
M  V30 3132 C 292.121 4.79786 -0.368584 0
M  V30 3133 C 294.473 5.15138 -0.792638 0
M  V30 3134 C 291.801 5.70345 -1.37563 0
M  V30 3135 C 294.153 6.06784 -1.78875 0
M  V30 3136 C 292.817 6.34102 -2.08497 0
M  V30 3137 H 292.087 0.721768 0.167725 0
M  V30 3138 H 294.734 1.89472 -0.277976 0
M  V30 3139 H 293.039 3.48724 1.78602 0
M  V30 3140 H 294.736 3.72791 1.47744 0
M  V30 3141 H 291.326 4.28317 0.155668 0
M  V30 3142 H 295.51 4.92868 -0.582659 0
M  V30 3143 H 290.766 5.89789 -1.61118 0
M  V30 3144 H 294.94 6.55677 -2.3465 0
M  V30 3145 H 292.567 7.04074 -2.86678 0
M  V30 3146 N 294.142 -0.090211 1.57342 0
M  V30 3147 C 295.389 -0.792807 1.86335 0
M  V30 3148 C 295.717 -1.78494 0.772662 0
M  V30 3149 O 294.972 -1.94305 -0.233258 0
M  V30 3150 C 295.271 -1.55222 3.21933 0
M  V30 3151 C 294.937 -0.701765 4.45406 0
M  V30 3152 C 293.599 -0.467334 4.78925 0
M  V30 3153 C 295.951 -0.11086 5.21082 0
M  V30 3154 C 293.279 0.367785 5.85546 0
M  V30 3155 C 295.631 0.711609 6.28585 0
M  V30 3156 C 294.295 0.956086 6.60617 0
M  V30 3157 H 293.565 -0.290109 0.681849 0
M  V30 3158 H 296.212 -0.0541332 1.91423 0
M  V30 3159 H 294.517 -2.3626 3.12551 0
M  V30 3160 H 296.214 -2.10032 3.41595 0
M  V30 3161 H 292.804 -0.894598 4.1916 0
M  V30 3162 H 296.988 -0.279129 4.95514 0
M  V30 3163 H 292.244 0.566128 6.08773 0
M  V30 3164 H 296.418 1.17632 6.86393 0
M  V30 3165 H 294.045 1.60499 7.43064 0
M  V30 3166 N 295.62 -1.53406 -0.361157 0
M  V30 3167 C 297.031 -1.61442 -0.937728 0
M  V30 3168 C 297.382 -0.48461 -1.90121 0
M  V30 3169 O 296.507 0.388312 -2.12888 0
M  V30 3170 C 297.102 -2.92624 -1.70753 0
M  V30 3171 C 295.661 -3.02981 -2.23337 0
M  V30 3172 C 294.808 -2.5677 -1.04712 0
M  V30 3173 H 297.759 -1.58083 -0.139816 0
M  V30 3174 H 297.78 -2.80675 -2.56908 0
M  V30 3175 H 297.292 -3.74834 -1.00604 0
M  V30 3176 H 295.393 -2.25368 -2.96715 0
M  V30 3177 H 295.506 -4.0814 -2.50916 0
M  V30 3178 H 293.87 -2.11752 -1.41539 0
M  V30 3179 H 294.653 -3.41402 -0.360539 0
M  V30 3180 N 297.098 0.621204 -1.44841 0
M  V30 3181 C 298.346 1.37783 -1.47852 0
M  V30 3182 C 298.667 1.94653 -0.116224 0
M  V30 3183 O 297.937 1.76367 0.852737 0
M  V30 3184 H 296.517 0.511453 -0.544449 0
M  V30 3185 H 299.179 0.730446 -1.80694 0
M  V30 3186 H 298.275 2.20414 -2.20961 0
M  V30 3187 N 298.576 1.31904 0.862503 0
M  V30 3188 C 299.804 1.24998 1.64873 0
M  V30 3189 C 300.219 -0.183425 1.87907 0
M  V30 3190 O 299.576 -1.11794 1.44251 0
M  V30 3191 C 299.627 1.99829 3.01248 0
M  V30 3192 O 299.348 3.37575 2.79239 0
M  V30 3193 C 300.849 1.99852 3.95694 0
M  V30 3194 H 298.069 0.431599 0.513773 0
M  V30 3195 H 300.613 1.73901 1.07604 0
M  V30 3196 H 298.768 1.54668 3.55185 0
M  V30 3197 H 299.182 3.75776 3.65914 0
M  V30 3198 H 300.656 2.56709 4.88676 0
M  V30 3199 H 301.133 0.982852 4.28062 0
M  V30 3200 H 301.739 2.44926 3.47694 0
M  V30 3201 N 300.054 -1.07777 1.14986 0
M  V30 3202 C 301.302 -1.79934 0.920235 0
M  V30 3203 C 301.623 -1.86955 -0.554336 0
M  V30 3204 O 300.893 -1.36731 -1.40291 0
M  V30 3205 H 299.473 -0.666424 0.337473 0
M  V30 3206 H 302.135 -1.3027 1.44968 0
M  V30 3207 H 301.231 -2.82539 1.32583 0
M  V30 3208 N 301.532 -0.945985 -1.26051 0
M  V30 3209 C 302.809 -0.513816 -1.88731 0
M  V30 3210 C 303.189 1.00872 -1.8544 0
M  V30 3211 O 302.537 1.8708 -1.312 0
M  V30 3212 C 302.747 -1.08062 -3.31849 0
M  V30 3213 C 304.095 -1.1522 -4.08668 0
M  V30 3214 O 305.119 -1.03155 -3.40936 0
M  V30 3215 O 303.978 -1.34044 -5.29806 0
M  V30 3216 H 301.072 -0.168193 -0.809716 0
M  V30 3217 H 303.618 -1.03886 -1.34186 0
M  V30 3218 H 302.39 -2.1241 -3.2863 0
M  V30 3219 H 302.013 -0.538307 -3.93939 0
M  V30 3220 N 303.011 1.40521 -0.713556 0
M  V30 3221 C 303.944 2.28198 -0.00881422 0
M  V30 3222 C 304.922 1.43227 0.769735 0
M  V30 3223 O 306.106 1.72641 0.756799 0
M  V30 3224 C 303.233 3.23758 0.994899 0
M  V30 3225 C 302.279 4.25391 0.3074 0
M  V30 3226 S 303.112 5.26765 -0.963247 0
M  V30 3227 C 304.268 6.25888 0.0384143 0
M  V30 3228 H 304.501 2.87622 -0.752407 0
M  V30 3229 H 302.034 1.45925 -0.504502 0
M  V30 3230 H 303.992 3.79341 1.56879 0
M  V30 3231 H 302.653 2.63396 1.71118 0
M  V30 3232 H 301.846 4.92596 1.0661 0
M  V30 3233 H 301.448 3.73497 -0.193879 0
M  V30 3234 H 303.74 6.71683 0.885912 0
M  V30 3235 H 304.683 7.05552 -0.60019 0
M  V30 3236 H 305.091 5.63072 0.401233 0
M  V30 3237 N 304.489 0.459591 1.5075 0
M  V30 3238 C 305.719 -0.0972338 2.06371 0
M  V30 3239 C 306.127 -1.35074 1.32483 0
M  V30 3240 O 305.47 -1.79637 0.384226 0
M  V30 3241 C 305.532 -0.462759 3.56509 0
M  V30 3242 C 305.196 0.687084 4.51805 0
M  V30 3243 C 306.193 1.56578 4.95761 0
M  V30 3244 C 303.878 0.874144 4.94635 0
M  V30 3245 C 305.872 2.61604 5.81242 0
M  V30 3246 C 303.559 1.92765 5.79901 0
M  V30 3247 C 304.557 2.79697 6.23104 0
M  V30 3248 O 304.245 3.83235 7.06673 0
M  V30 3249 H 303.977 -0.00140687 0.675999 0
M  V30 3250 H 306.531 0.644011 1.95043 0
M  V30 3251 H 304.761 -1.25703 3.65699 0
M  V30 3252 H 306.45 -0.953323 3.94546 0
M  V30 3253 H 307.216 1.4329 4.6335 0
M  V30 3254 H 303.095 0.207006 4.60535 0
M  V30 3255 H 306.639 3.29489 6.14884 0
M  V30 3256 H 302.536 2.06064 6.11725 0
M  V30 3257 H 303.304 3.80084 7.24899 0
M  V30 3258 N 305.967 -1.56429 0.191757 0
M  V30 3259 C 306.877 -2.22541 -0.742481 0
M  V30 3260 C 307.893 -1.22342 -1.23727 0
M  V30 3261 O 309.069 -1.55069 -1.28513 0
M  V30 3262 C 306.134 -2.8692 -1.94623 0
M  V30 3263 C 305.195 -4.02378 -1.49633 0
M  V30 3264 C 304.428 -4.63678 -2.6427 0
M  V30 3265 O 304.651 -4.23895 -3.81666 0
M  V30 3266 O 303.585 -5.53202 -2.37174 0
M  V30 3267 H 307.411 -3.02977 -0.209462 0
M  V30 3268 H 304.996 -1.49353 -0.0373832 0
M  V30 3269 H 306.878 -3.27663 -2.64982 0
M  V30 3270 H 305.553 -2.09466 -2.46791 0
M  V30 3271 H 304.46 -3.66265 -0.761636 0
M  V30 3272 H 305.793 -4.81487 -1.02134 0
M  V30 3273 N 307.445 0.0818655 -1.57387 0
M  V30 3274 C 308.691 0.784074 -1.8703 0
M  V30 3275 C 309.024 1.77729 -0.782689 0
M  V30 3276 O 308.299 1.93384 0.208051 0
M  V30 3277 C 308.582 1.50105 -3.27323 0
M  V30 3278 C 308.435 0.524925 -4.46727 0
M  V30 3279 C 309.754 2.44843 -3.65705 0
M  V30 3280 H 306.873 0.283582 -0.680257 0
M  V30 3281 H 309.515 0.0474352 -1.89941 0
M  V30 3282 H 307.665 2.12897 -3.24972 0
M  V30 3283 H 309.337 -0.0970111 -4.61198 0
M  V30 3284 H 307.58 -0.160606 -4.33503 0
M  V30 3285 H 308.251 1.064 -5.41648 0
M  V30 3286 H 310.727 1.92135 -3.69085 0
M  V30 3287 H 309.603 2.92018 -4.64776 0
M  V30 3288 H 309.864 3.29197 -2.95096 0
M  V30 3289 N 308.923 1.53595 0.353017 0
M  V30 3290 C 310.171 1.70049 1.09215 0
M  V30 3291 C 310.492 0.461406 1.89463 0
M  V30 3292 O 309.762 -0.524633 1.88744 0
M  V30 3293 H 308.342 0.626912 0.40619 0
M  V30 3294 H 311.004 1.90822 0.396585 0
M  V30 3295 H 310.1 2.56718 1.77488 0
M  V30 3296 N 310.401 -0.613514 1.45168 0
M  V30 3297 C 311.364 -1.7065 1.53007 0
M  V30 3298 C 312.364 -1.5548 0.410184 0
M  V30 3299 O 313.554 -1.60656 0.673455 0
M  V30 3300 C 310.686 -3.09875 1.42093 0
M  V30 3301 H 311.879 -1.65068 2.50385 0
M  V30 3302 H 309.432 -0.828728 1.32521 0
M  V30 3303 H 310.167 -3.21039 0.458769 0
M  V30 3304 H 309.952 -3.22293 2.23315 0
M  V30 3305 H 311.442 -3.895 1.50598 0
M  V30 3306 N 311.879 -1.3236 -0.855495 0
M  V30 3307 C 312.789 -1.23221 -1.99634 0
M  V30 3308 C 313.805 -0.145983 -1.73387 0
M  V30 3309 O 314.981 -0.366502 -1.98037 0
M  V30 3310 C 312.046 -0.954782 -3.33294 0
M  V30 3311 C 311.107 -2.12937 -3.72769 0
M  V30 3312 C 310.34 -1.86508 -5.00051 0
M  V30 3313 O 310.563 -0.807231 -5.64659 0
M  V30 3314 O 309.497 -2.72591 -5.36636 0
M  V30 3315 H 313.323 -2.19126 -2.1028 0
M  V30 3316 H 310.908 -1.12241 -0.986018 0
M  V30 3317 H 312.79 -0.816519 -4.13414 0
M  V30 3318 H 311.465 -0.0258854 -3.2369 0
M  V30 3319 H 310.372 -2.3231 -2.93228 0
M  V30 3320 H 311.705 -3.04102 -3.87018 0
M  V30 3321 N 313.357 1.07166 -1.15556 0
M  V30 3322 C 314.582 1.84053 -0.955988 0
M  V30 3323 C 315.007 1.81586 0.490739 0
M  V30 3324 O 314.365 1.21018 1.34997 0
M  V30 3325 C 314.413 3.28957 -1.47714 0
M  V30 3326 O 313.517 4.06795 -0.677593 0
M  V30 3327 H 312.858 0.569842 -0.340847 0
M  V30 3328 H 315.388 1.35178 -1.53584 0
M  V30 3329 H 315.398 3.79788 -1.4908 0
M  V30 3330 H 314.073 3.30068 -2.53037 0
M  V30 3331 H 312.65 3.6561 -0.733721 0
M  V30 3332 N 314.835 0.952656 1.25548 0
M  V30 3333 C 316.083 0.605176 1.92826 0
M  V30 3334 C 316.404 -0.860261 1.74999 0
M  V30 3335 O 315.674 -1.6125 1.11244 0
M  V30 3336 H 314.254 0.220832 0.713612 0
M  V30 3337 H 316.916 1.21047 1.52754 0
M  V30 3338 H 316.012 0.832798 3.00784 0
M  V30 3339 N 316.313 -1.40141 0.720998 0
M  V30 3340 C 317.729 -1.54632 0.395113 0
M  V30 3341 C 317.929 -1.69115 -1.09555 0
M  V30 3342 O 316.985 -1.68377 -1.88163 0
M  V30 3343 C 318.298 -2.77177 1.1659 0
M  V30 3344 C 319.846 -2.91 1.15274 0
M  V30 3345 C 320.321 -4.16465 1.90579 0
M  V30 3346 N 321.812 -4.23476 1.87675 0
M  V30 3347 C 322.547 -5.19475 2.42762 0
M  V30 3348 N 322.043 -6.21348 3.06428 0
M  V30 3349 N 323.836 -5.11592 2.32874 0
M  V30 3350 H 315.987 -1.28986 1.68749 0
M  V30 3351 H 318.25 -0.62412 0.713567 0
M  V30 3352 H 317.956 -2.72771 2.22011 0
M  V30 3353 H 317.83 -3.69442 0.76108 0
M  V30 3354 H 320.217 -2.94907 0.106702 0
M  V30 3355 H 320.298 -1.99838 1.59682 0
M  V30 3356 H 319.942 -4.1332 2.95176 0
M  V30 3357 H 319.872 -5.06646 1.43587 0
M  V30 3358 H 322.363 -3.50497 1.41281 0
M  V30 3359 H 322.676 -6.91034 3.45965 0
M  V30 3360 H 321.021 -6.21777 3.10514 0
M  V30 3361 H 324.212 -4.30936 1.82789 0
M  V30 3362 H 324.385 -5.86233 2.76106 0
M  V30 3363 N 317.792 -0.46758 -1.50504 0
M  V30 3364 C 319.022 0.086288 -2.0642 0
M  V30 3365 C 319.43 1.34369 -1.33197 0
M  V30 3366 O 318.773 1.79431 -0.393747 0
M  V30 3367 C 318.835 0.443846 -3.5675 0
M  V30 3368 C 318.499 -0.711035 -4.51435 0
M  V30 3369 C 319.496 -1.59205 -4.94924 0
M  V30 3370 C 317.181 -0.900363 -4.94165 0
M  V30 3371 C 319.175 -2.64683 -5.79846 0
M  V30 3372 C 316.862 -1.95837 -5.7887 0
M  V30 3373 C 317.86 -2.82997 -6.21612 0
M  V30 3374 O 317.548 -3.86977 -7.0463 0
M  V30 3375 H 317.28 -0.00217814 -0.675996 0
M  V30 3376 H 319.834 -0.654346 -1.94698 0
M  V30 3377 H 318.064 1.23762 -3.6636 0
M  V30 3378 H 319.753 0.932386 -3.95046 0
M  V30 3379 H 320.519 -1.45745 -4.62583 0
M  V30 3380 H 316.398 -0.231427 -4.60419 0
M  V30 3381 H 319.942 -3.32745 -6.13128 0
M  V30 3382 H 315.839 -2.09305 -6.10624 0
M  V30 3383 H 316.607 -3.83923 -7.22873 0
M  V30 3384 N 319.27 1.56325 -0.20005 0
M  V30 3385 C 320.5 2.01811 0.442232 0
M  V30 3386 C 320.908 1.07932 1.55394 0
M  V30 3387 O 320.251 0.0772685 1.83537 0
M  V30 3388 C 320.313 3.43685 1.05457 0
M  V30 3389 C 319.977 4.56928 0.0809833 0
M  V30 3390 C 320.974 5.15009 -0.711471 0
M  V30 3391 C 318.659 5.0229 -0.0315364 0
M  V30 3392 C 320.653 6.16904 -1.60336 0
M  V30 3393 C 318.34 6.04028 -0.926981 0
M  V30 3394 C 319.338 6.6121 -1.71146 0
M  V30 3395 O 319.026 7.60971 -2.59189 0
M  V30 3396 H 318.758 0.666173 0.114848 0
M  V30 3397 H 321.312 2.03085 -0.307511 0
M  V30 3398 H 319.542 3.39413 1.85299 0
M  V30 3399 H 321.231 3.72948 1.60201 0
M  V30 3400 H 321.997 4.80827 -0.634873 0
M  V30 3401 H 317.876 4.57476 0.568902 0
M  V30 3402 H 321.42 6.61464 -2.21611 0
M  V30 3403 H 317.317 6.37634 -1.00468 0
M  V30 3404 H 318.085 7.7841 -2.53023 0
M  V30 3405 N 320.748 -0.0735177 1.57428 0
M  V30 3406 C 321.988 -0.778363 1.89 0
M  V30 3407 C 322.352 -1.7483 0.793634 0
M  V30 3408 O 323.553 -2.49811 0.992367 0
M  V30 3409 C 321.824 -1.46929 3.25802 0
M  V30 3410 S 323.383 -2.20943 3.79117 0
M  V30 3411 H 320.201 -0.258874 0.662197 0
M  V30 3412 H 322.803 -0.0345338 1.95469 0
M  V30 3413 H 321.507 -0.749532 4.03497 0
M  V30 3414 H 321.038 -2.25258 3.22525 0
M  V30 3415 H 323.053 -3.47435 3.54265 0
M  V30 3416 N 322.226 -1.5378 -0.344866 0
M  V30 3417 C 323.156 -1.84662 -1.42906 0
M  V30 3418 C 324.137 -0.701648 -1.54955 0
M  V30 3419 O 325.322 -0.953438 -1.69184 0
M  V30 3420 C 322.452 -2.05503 -2.79974 0
M  V30 3421 C 321.406 -3.21318 -2.82734 0
M  V30 3422 C 320.732 -3.2749 -4.22675 0
M  V30 3423 C 322.032 -4.59456 -2.48389 0
M  V30 3424 H 323.726 -2.75461 -1.17311 0
M  V30 3425 H 321.272 -1.32542 -0.562896 0
M  V30 3426 H 323.225 -2.25691 -3.55867 0
M  V30 3427 H 321.949 -1.11434 -3.07002 0
M  V30 3428 H 320.608 -3.00984 -2.09294 0
M  V30 3429 H 320.256 -2.31019 -4.4681 0
M  V30 3430 H 319.956 -4.05316 -4.25433 0
M  V30 3431 H 321.48 -3.49887 -5.00412 0
M  V30 3432 H 322.894 -4.79667 -3.13995 0
M  V30 3433 H 321.291 -5.39675 -2.62432 0
M  V30 3434 H 322.361 -4.63155 -1.4358 0
M  V30 3435 N 323.704 0.605807 -1.45491 0
M  V30 3436 C 324.652 1.73754 -1.54636 0
M  V30 3437 C 325.646 1.64207 -0.416219 0
M  V30 3438 O 326.852 1.69979 -0.592199 0
M  V30 3439 H 323.227 0.574073 -0.485741 0
M  V30 3440 H 325.198 1.63169 -2.49837 0
M  V30 3441 C 323.947 3.12135 -1.53189 0
M  V30 3442 H 323.27 3.20141 -2.39478 0
M  V30 3443 H 324.71 3.91147 -1.63645 0
M  V30 3444 C 323.169 3.35921 -0.256616 0
M  V30 3445 O 323.699 3.96194 0.662798 0
M  V30 3446 N 321.905 2.90204 -0.151751 0
M  V30 3447 H 321.452 2.41336 -0.90081 0
M  V30 3448 H 321.41 3.06492 0.700699 0
M  V30 3449 N 325.182 1.32811 0.848464 0
M  V30 3450 C 326.428 1.23907 1.60546 0
M  V30 3451 C 326.761 -0.197161 1.93197 0
M  V30 3452 O 326.036 -1.13596 1.5788 0
M  V30 3453 C 326.319 2.10489 2.92175 0
M  V30 3454 C 326.172 3.62522 2.66266 0
M  V30 3455 C 327.491 1.97075 3.93509 0
M  V30 3456 H 324.61 0.451459 0.58254 0
M  V30 3457 H 327.252 1.62818 0.979296 0
M  V30 3458 H 325.402 1.77434 3.45614 0
M  V30 3459 H 327.074 4.05821 2.19334 0
M  V30 3460 H 325.317 3.84879 2.00126 0
M  V30 3461 H 325.988 4.18437 3.6002 0
M  V30 3462 H 328.464 2.26045 3.49346 0
M  V30 3463 H 327.34 2.59923 4.83457 0
M  V30 3464 H 327.601 0.940186 4.31987 0
M  V30 3465 N 326.66 -1.06551 1.16123 0
M  V30 3466 C 328.071 -1.60768 0.949232 0
M  V30 3467 C 328.422 -1.89523 -0.507508 0
M  V30 3468 O 327.547 -1.66671 -1.38021 0
M  V30 3469 C 328.142 -2.92086 1.71671 0
M  V30 3470 C 326.701 -3.43015 1.54977 0
M  V30 3471 C 325.848 -2.16947 1.72711 0
M  V30 3472 H 328.799 -0.895354 1.31031 0
M  V30 3473 H 328.82 -3.6138 1.19099 0
M  V30 3474 H 328.332 -2.71127 2.7769 0
M  V30 3475 H 326.433 -3.69039 0.513873 0
M  V30 3476 H 326.546 -4.18516 2.33198 0
M  V30 3477 H 324.91 -2.27041 1.15431 0
M  V30 3478 H 325.693 -1.98473 2.80113 0
M  V30 3479 N 328.138 -0.959301 -1.25041 0
M  V30 3480 C 329.068 -0.501388 -2.28053 0
M  V30 3481 C 330.049 0.454673 -1.63911 0
M  V30 3482 O 331.234 0.352618 -1.90972 0
M  V30 3483 C 328.364 0.217224 -3.4662 0
M  V30 3484 C 327.318 -0.654034 -4.22973 0
M  V30 3485 C 326.644 0.195589 -5.34342 0
M  V30 3486 C 327.944 -1.93447 -4.85155 0
M  V30 3487 H 329.638 -1.36238 -2.66608 0
M  V30 3488 H 327.184 -0.656534 -1.28163 0
M  V30 3489 H 329.137 0.548732 -4.17812 0
M  V30 3490 H 327.861 1.1125 -3.07068 0
M  V30 3491 H 326.52 -0.968693 -3.5357 0
M  V30 3492 H 326.168 1.09076 -4.91031 0
M  V30 3493 H 325.868 -0.384091 -5.86343 0
M  V30 3494 H 327.392 0.521958 -6.08365 0
M  V30 3495 H 328.806 -1.66908 -5.48466 0
M  V30 3496 H 327.203 -2.46018 -5.47353 0
M  V30 3497 H 328.273 -2.63466 -4.07079 0
M  V30 3498 N 329.616 1.39756 -0.72842 0
M  V30 3499 C 331.032 1.5442 -0.403308 0
M  V30 3500 C 331.232 1.69694 1.08656 0
M  V30 3501 O 330.288 1.69373 1.87267 0
M  V30 3502 C 331.601 2.76555 -1.18058 0
M  V30 3503 C 333.149 2.90384 -1.16815 0
M  V30 3504 C 333.624 4.15449 -1.92785 0
M  V30 3505 N 335.115 4.22475 -1.89918 0
M  V30 3506 C 335.85 5.1818 -2.45514 0
M  V30 3507 N 335.346 6.19714 -3.09719 0
M  V30 3508 N 337.139 5.1035 -2.35584 0
M  V30 3509 H 329.29 1.28089 -1.69431 0
M  V30 3510 H 331.553 0.620327 -0.716867 0
M  V30 3511 H 331.259 2.7159 -2.23455 0
M  V30 3512 H 331.133 3.69033 -0.780662 0
M  V30 3513 H 333.52 2.94846 -0.12234 0
M  V30 3514 H 333.601 1.98988 -1.6074 0
M  V30 3515 H 333.245 4.11749 -2.97364 0
M  V30 3516 H 333.175 5.05877 -1.46272 0
M  V30 3517 H 335.666 3.49743 -1.43138 0
M  V30 3518 H 335.979 6.8919 -3.49625 0
M  V30 3519 H 334.324 6.20121 -3.13807 0
M  V30 3520 H 337.515 4.2996 -1.85072 0
M  V30 3521 H 337.688 5.84761 -2.79211 0
M  V30 3522 N 331.094 0.475555 1.50254 0
M  V30 3523 C 332.371 -0.139685 1.95101 0
M  V30 3524 C 332.751 -1.56555 1.41611 0
M  V30 3525 O 332.099 -2.19956 0.618993 0
M  V30 3526 C 332.309 -0.0784298 3.48912 0
M  V30 3527 C 333.657 -0.265095 4.23772 0
M  V30 3528 O 334.681 -0.154808 3.55863 0
M  V30 3529 O 333.54 -0.488327 5.44314 0
M  V30 3530 H 330.634 -0.109236 0.819754 0
M  V30 3531 H 333.18 0.536276 1.61004 0
M  V30 3532 H 331.952 0.916918 3.80405 0
M  V30 3533 H 331.575 -0.795655 3.89558 0
M  V30 3534 N 332.573 -1.56217 0.208337 0
M  V30 3535 C 333.821 -1.97558 -0.426076 0
M  V30 3536 C 334.142 -1.09683 -1.61229 0
M  V30 3537 O 333.412 -0.170956 -1.95153 0
M  V30 3538 H 331.992 -0.729575 -0.160405 0
M  V30 3539 H 334.654 -1.92606 0.298155 0
M  V30 3540 H 333.75 -3.02672 -0.761312 0
M  V30 3541 N 334.051 0.0651679 -1.57465 0
M  V30 3542 C 335.3 0.761916 -1.86756 0
M  V30 3543 C 335.613 1.78406 -0.801925 0
M  V30 3544 O 336.819 2.53084 -0.982885 0
M  V30 3545 C 335.275 1.40603 -3.31299 0
M  V30 3546 C 334.883 0.422115 -4.46007 0
M  V30 3547 C 336.627 2.08476 -3.69781 0
M  V30 3548 C 334.534 1.07252 -5.81593 0
M  V30 3549 H 333.464 0.288308 -0.696702 0
M  V30 3550 H 336.115 0.015344 -1.83494 0
M  V30 3551 H 334.497 2.20109 -3.29193 0
M  V30 3552 H 335.671 -0.343613 -4.59517 0
M  V30 3553 H 333.986 -0.152527 -4.16121 0
M  V30 3554 H 336.583 2.57925 -4.68379 0
M  V30 3555 H 336.926 2.88712 -2.99919 0
M  V30 3556 H 337.459 1.35792 -3.73905 0
M  V30 3557 H 334.198 0.310342 -6.54765 0
M  V30 3558 H 333.718 1.80895 -5.71872 0
M  V30 3559 H 335.397 1.59043 -6.27148 0
M  V30 3560 N 335.529 1.53961 0.336706 0
M  V30 3561 C 336.806 1.62171 1.09361 0
M  V30 3562 C 337.186 0.447263 2.06307 0
M  V30 3563 O 336.534 -0.559802 2.21537 0
M  V30 3564 C 336.744 2.98565 1.80721 0
M  V30 3565 C 338.092 3.54157 2.34218 0
M  V30 3566 O 339.116 3.00784 1.90807 0
M  V30 3567 O 337.975 4.47528 3.13657 0
M  V30 3568 H 335.069 0.6562 0.503319 0
M  V30 3569 H 337.615 1.66307 0.33765 0
M  V30 3570 H 336.387 3.75482 1.10132 0
M  V30 3571 H 336.01 2.9805 2.63158 0
M  V30 3572 N 337.007 -0.598083 1.45811 0
M  V30 3573 C 338.284 -1.35777 1.40797 0
M  V30 3574 C 338.664 -2.10935 0.083462 0
M  V30 3575 O 338.012 -2.08505 -0.934763 0
M  V30 3576 C 338.222 -2.29666 2.62783 0
M  V30 3577 C 339.57 -2.91977 3.08277 0
M  V30 3578 O 340.594 -2.39984 2.63223 0
M  V30 3579 O 339.453 -3.86376 3.86491 0
M  V30 3580 H 336.547 -0.609291 0.55919 0
M  V30 3581 H 339.093 -0.620379 1.57954 0
M  V30 3582 H 337.865 -1.73454 3.50756 0
M  V30 3583 H 337.488 -3.1077 2.48008 0
M  V30 3584 N 338.485 -1.33259 -0.841409 0
M  V30 3585 C 339.417 -1.19136 -1.95804 0
M  V30 3586 C 340.43 -0.122965 -1.62335 0
M  V30 3587 O 341.619 -0.373154 -1.74556 0
M  V30 3588 C 338.719 -0.804268 -3.29218 0
M  V30 3589 C 337.892 -1.96376 -3.90839 0
M  V30 3590 C 336.951 -1.55806 -5.02604 0
M  V30 3591 O 335.977 -2.27203 -5.21888 0
M  V30 3592 N 337.179 -0.461609 -5.78662 0
M  V30 3593 H 339.944 -2.15326 -2.08458 0
M  V30 3594 H 337.505 -1.25971 -1.017 0
M  V30 3595 H 339.497 -0.51501 -4.0141 0
M  V30 3596 H 338.067 0.0668809 -3.12528 0
M  V30 3597 H 337.287 -2.41879 -3.11269 0
M  V30 3598 H 338.575 -2.73966 -4.28742 0
M  V30 3599 H 337.973 0.132343 -5.65545 0
M  V30 3600 H 336.53 -0.232013 -6.51387 0
M  V30 3601 N 339.963 1.05934 -1.16686 0
M  V30 3602 C 341.188 1.83029 -0.975455 0
M  V30 3603 C 341.613 1.82096 0.471452 0
M  V30 3604 O 340.971 1.22443 1.33706 0
M  V30 3605 C 341.019 3.27372 -1.51195 0
M  V30 3606 O 340.123 4.06054 -0.720701 0
M  V30 3607 H 339.464 0.566194 -0.346872 0
M  V30 3608 H 341.994 1.33541 -1.55009 0
M  V30 3609 H 342.004 3.78186 -1.53099 0
M  V30 3610 H 340.679 3.27366 -2.56523 0
M  V30 3611 H 339.256 3.64812 -0.772458 0
M  V30 3612 N 341.441 0.965919 1.2453 0
M  V30 3613 C 342.671 0.643451 1.96324 0
M  V30 3614 C 343.079 -0.790927 1.71875 0
M  V30 3615 O 342.422 -1.54208 0.998273 0
M  V30 3616 C 342.484 0.836078 3.49643 0
M  V30 3617 C 342.148 2.24975 3.97788 0
M  V30 3618 C 343.145 3.22735 4.07601 0
M  V30 3619 C 340.83 2.57697 4.31158 0
M  V30 3620 C 342.824 4.51303 4.50116 0
M  V30 3621 C 340.511 3.86492 4.73357 0
M  V30 3622 C 341.509 4.83107 4.828 0
M  V30 3623 O 341.197 6.09605 5.24058 0
M  V30 3624 H 340.929 0.239223 0.632257 0
M  V30 3625 H 343.483 1.29587 1.59362 0
M  V30 3626 H 341.713 0.12649 3.86493 0
M  V30 3627 H 343.402 0.512965 4.02646 0
M  V30 3628 H 344.168 2.98783 3.82039 0
M  V30 3629 H 340.047 1.83216 4.23028 0
M  V30 3630 H 343.591 5.26716 4.57401 0
M  V30 3631 H 339.488 4.10245 4.98366 0
M  V30 3632 H 340.256 6.13146 5.42213 0
M  V30 3633 N 342.919 -1.39368 0.735821 0
M  V30 3634 C 343.866 -2.30599 0.0963825 0
M  V30 3635 C 344.836 -1.49257 -0.728794 0
M  V30 3636 O 346.021 -1.77941 -0.688588 0
M  V30 3637 C 343.161 -3.35596 -0.804305 0
M  V30 3638 C 342.274 -4.31987 0.0335761 0
M  V30 3639 C 341.409 -5.24053 -0.868461 0
M  V30 3640 C 340.448 -6.12095 -0.0258776 0
M  V30 3641 N 339.585 -6.96514 -0.883893 0
M  V30 3642 H 344.425 -2.8471 0.880002 0
M  V30 3643 H 341.962 -1.40188 0.445619 0
M  V30 3644 H 343.92 -3.95062 -1.34096 0
M  V30 3645 H 342.55 -2.82938 -1.55389 0
M  V30 3646 H 341.602 -3.74133 0.68766 0
M  V30 3647 H 342.914 -4.94074 0.685036 0
M  V30 3648 H 342.068 -5.88549 -1.47293 0
M  V30 3649 H 340.807 -4.62289 -1.5537 0
M  V30 3650 H 339.812 -5.4661 0.591386 0
M  V30 3651 H 341.037 -6.75923 0.656156 0
M  V30 3652 H 338.983 -6.37318 -1.55441 0
M  V30 3653 H 338.9 -7.55448 -0.288931 0
M  V30 3654 H 340.168 -7.65439 -1.4739 0
M  V30 3655 N 344.397 -0.483516 -1.5 0
M  V30 3656 C 345.347 0.32306 -2.257 0
M  V30 3657 C 346.331 0.950755 -1.29805 0
M  V30 3658 O 347.523 0.861247 -1.54634 0
M  V30 3659 C 344.652 1.39724 -3.13579 0
M  V30 3660 C 343.738 0.776663 -4.16928 0
M  V30 3661 N 344.129 -0.1104 -5.0568 0
M  V30 3662 C 342.427 1.03922 -4.33724 0
M  V30 3663 C 343.128 -0.46387 -5.79848 0
M  V30 3664 N 342.104 0.163987 -5.43353 0
M  V30 3665 H 345.906 -0.360086 -2.91686 0
M  V30 3666 H 343.42 -0.298456 -1.59634 0
M  V30 3667 H 345.417 1.98837 -3.66428 0
M  V30 3668 H 344.077 2.08225 -2.49143 0
M  V30 3669 H 345.088 -0.480069 -5.1567 0
M  V30 3670 H 341.765 1.71829 -3.80501 0
M  V30 3671 H 343.155 -1.18854 -6.61304 0
M  V30 3672 N 345.875 1.56104 -0.216619 0
M  V30 3673 C 346.805 2.23063 0.690296 0
M  V30 3674 C 347.786 1.20072 1.20485 0
M  V30 3675 O 348.971 1.48643 1.24976 0
M  V30 3676 C 346.101 2.90672 1.90072 0
M  V30 3677 C 345.055 4.00092 1.5202 0
M  V30 3678 C 344.381 4.54972 2.80899 0
M  V30 3679 C 345.681 5.17398 0.71391 0
M  V30 3680 H 347.375 2.99109 0.132038 0
M  V30 3681 H 344.921 1.43866 0.0620664 0
M  V30 3682 H 346.874 3.36204 2.54057 0
M  V30 3683 H 345.598 2.12066 2.48386 0
M  V30 3684 H 344.257 3.55283 0.903839 0
M  V30 3685 H 343.905 3.73102 3.37348 0
M  V30 3686 H 343.605 5.28817 2.56176 0
M  V30 3687 H 345.129 5.0322 3.45836 0
M  V30 3688 H 346.543 5.59342 1.25735 0
M  V30 3689 H 344.94 5.97444 0.563951 0
M  V30 3690 H 346.01 4.84088 -0.280527 0
M  V30 3691 N 347.353 -0.0568162 1.57498 0
M  V30 3692 C 348.6 -0.753104 1.87975 0
M  V30 3693 C 348.928 -1.76815 0.81035 0
M  V30 3694 O 348.183 -1.94756 -0.19199 0
M  V30 3695 C 348.482 -1.48359 3.25153 0
M  V30 3696 C 348.148 -0.60713 4.46794 0
M  V30 3697 C 346.81 -0.365642 4.79809 0
M  V30 3698 C 349.162 -0.000305978 5.212 0
M  V30 3699 C 346.49 0.491905 5.84634 0
M  V30 3700 C 348.842 0.844781 6.26934 0
M  V30 3701 C 347.506 1.096 6.58441 0
M  V30 3702 H 346.776 -0.27558 0.687849 0
M  V30 3703 H 349.423 -0.0135173 1.91495 0
M  V30 3704 H 347.728 -2.29577 3.17492 0
M  V30 3705 H 349.425 -2.02739 3.45974 0
M  V30 3706 H 346.015 -0.805487 4.20963 0
M  V30 3707 H 350.199 -0.173961 4.95995 0
M  V30 3708 H 345.455 0.695131 6.07436 0
M  V30 3709 H 349.629 1.32165 6.83744 0
M  V30 3710 H 347.256 1.76224 7.39492 0
M  V30 3711 N 348.832 -1.54138 -0.328536 0
M  V30 3712 C 349.764 -1.79509 -1.4251 0
M  V30 3713 C 350.777 -0.67688 -1.48061 0
M  V30 3714 O 351.966 -0.953898 -1.50874 0
M  V30 3715 C 349.066 -1.89337 -2.81078 0
M  V30 3716 C 348.239 -3.19443 -2.98789 0
M  V30 3717 C 347.298 -3.20036 -4.17688 0
M  V30 3718 O 346.324 -3.93697 -4.11086 0
M  V30 3719 N 347.526 -2.43467 -5.26976 0
M  V30 3720 H 350.291 -2.74139 -1.21111 0
M  V30 3721 H 347.852 -1.53373 -0.518499 0
M  V30 3722 H 349.844 -1.87167 -3.58818 0
M  V30 3723 H 348.414 -1.01826 -2.95551 0
M  V30 3724 H 347.634 -3.34614 -2.08391 0
M  V30 3725 H 348.922 -4.05354 -3.07515 0
M  V30 3726 H 348.32 -1.83201 -5.35214 0
M  V30 3727 H 346.877 -2.4708 -6.03154 0
M  V30 3728 N 350.31 0.590341 -1.46126 0
M  V30 3729 C 351.721 1.17243 -1.45296 0
M  V30 3730 C 352.072 1.95281 -0.189723 0
M  V30 3731 O 351.197 2.04502 0.707674 0
M  V30 3732 C 351.792 2.13284 -2.6324 0
M  V30 3733 C 350.351 2.66832 -2.65476 0
M  V30 3734 C 349.498 1.42557 -2.3785 0
M  V30 3735 H 352.449 0.378692 -1.54116 0
M  V30 3736 H 352.47 2.96619 -2.38323 0
M  V30 3737 H 351.982 1.56459 -3.55165 0
M  V30 3738 H 350.083 3.27548 -1.77603 0
M  V30 3739 H 350.196 3.10088 -3.65215 0
M  V30 3740 H 348.56 1.72107 -1.87753 0
M  V30 3741 H 349.343 0.875741 -3.31942 0
M  V30 3742 N 351.788 1.33704 0.83433 0
M  V30 3743 C 353.034 1.25603 1.59222 0
M  V30 3744 C 353.367 -0.176659 1.93395 0
M  V30 3745 O 352.642 -1.11915 1.59076 0
M  V30 3746 C 352.925 2.13576 2.89926 0
M  V30 3747 C 352.778 3.65326 2.62406 0
M  V30 3748 C 354.097 2.01238 3.91397 0
M  V30 3749 H 351.216 0.457613 0.577719 0
M  V30 3750 H 353.858 1.63848 0.961972 0
M  V30 3751 H 352.008 1.8109 3.43713 0
M  V30 3752 H 353.68 4.08124 2.15017 0
M  V30 3753 H 351.923 3.8698 1.96033 0
M  V30 3754 H 352.594 4.22232 3.55562 0
M  V30 3755 H 355.07 2.29738 3.46929 0
M  V30 3756 H 353.946 2.65036 4.80673 0
M  V30 3757 H 354.207 0.985951 4.30966 0
M  V30 3758 N 353.266 -1.05314 1.17247 0
M  V30 3759 C 354.515 -1.77685 0.954521 0
M  V30 3760 C 354.828 -1.88616 -0.518025 0
M  V30 3761 O 356.034 -2.57714 -0.854144 0
M  V30 3762 C 354.49 -3.19402 1.65863 0
M  V30 3763 C 354.098 -3.16605 3.16963 0
M  V30 3764 C 355.842 -3.96237 1.52303 0
M  V30 3765 C 353.749 -4.53103 3.80068 0
M  V30 3766 H 352.679 -0.666 0.353496 0
M  V30 3767 H 355.33 -1.1805 1.40486 0
M  V30 3768 H 353.712 -3.79355 1.13602 0
M  V30 3769 H 354.886 -2.66176 3.76148 0
M  V30 3770 H 353.201 -2.53268 3.30521 0
M  V30 3771 H 355.798 -4.97157 1.96822 0
M  V30 3772 H 356.141 -4.136 0.473401 0
M  V30 3773 H 356.674 -3.42829 2.01775 0
M  V30 3774 H 353.413 -4.40946 4.85023 0
M  V30 3775 H 352.933 -5.03686 3.2567 0
M  V30 3776 H 354.612 -5.22045 3.82202 0
M  V30 3777 N 354.744 -0.972509 -1.24016 0
M  V30 3778 C 355.692 -0.498562 -2.27194 0
M  V30 3779 C 356.686 0.440372 -1.63576 0
M  V30 3780 O 357.892 0.315133 -1.7722 0
M  V30 3781 H 354.267 -0.142775 -0.738322 0
M  V30 3782 H 356.238 -1.38065 -2.64539 0
M  V30 3783 C 354.987 0.191072 -3.47175 0
M  V30 3784 H 354.31 -0.522318 -3.96373 0
M  V30 3785 H 355.75 0.486445 -4.212 0
M  V30 3786 C 354.209 1.41967 -3.05527 0
M  V30 3787 O 354.739 2.51642 -3.13112 0
M  V30 3788 N 352.945 1.28746 -2.60524 0
M  V30 3789 H 352.492 0.395089 -2.54552 0
M  V30 3790 H 352.45 2.11061 -2.33025 0
M  V30 3791 N 356.222 1.38976 -0.743202 0
M  V30 3792 C 357.154 2.29096 -0.0689228 0
M  V30 3793 C 358.167 1.47229 0.694791 0
M  V30 3794 O 359.356 1.70212 0.537597 0
M  V30 3795 C 356.456 3.25988 0.926548 0
M  V30 3796 C 355.629 4.36833 0.222647 0
M  V30 3797 C 354.688 5.13981 1.12739 0
M  V30 3798 O 353.714 5.6601 0.601795 0
M  V30 3799 N 354.916 5.25966 2.45641 0
M  V30 3800 H 357.681 2.87604 -0.842846 0
M  V30 3801 H 355.242 1.50645 -0.593109 0
M  V30 3802 H 357.234 3.74476 1.5346 0
M  V30 3803 H 355.804 2.68453 1.60162 0
M  V30 3804 H 355.024 3.90116 -0.565983 0
M  V30 3805 H 356.312 5.0811 -0.264841 0
M  V30 3806 H 355.71 4.85228 2.9081 0
M  V30 3807 H 354.267 5.77865 3.01522 0
M  V30 3808 N 357.7 0.491464 1.49741 0
M  V30 3809 C 358.946 -0.0565092 2.02721 0
M  V30 3810 C 359.279 -1.37522 1.37118 0
M  V30 3811 O 358.554 -1.87866 0.503645 0
M  V30 3812 C 358.837 -0.219051 3.59433 0
M  V30 3813 C 358.69 1.12211 4.35579 0
M  V30 3814 C 360.009 -0.964157 4.29409 0
M  V30 3815 H 357.128 -0.0190627 0.736753 0
M  V30 3816 H 359.77 0.641021 1.7886 0
M  V30 3817 H 357.92 -0.813165 3.79895 0
M  V30 3818 H 359.592 1.75437 4.26637 0
M  V30 3819 H 357.835 1.71377 3.98513 0
M  V30 3820 H 358.506 0.961794 5.43556 0
M  V30 3821 H 360.982 -0.460378 4.13545 0
M  V30 3822 H 359.858 -1.04671 5.38828 0
M  V30 3823 H 360.119 -2.00563 3.93988 0
M  V30 3824 N 359.178 -1.55987 0.224894 0
M  V30 3825 C 360.424 -1.98684 -0.406502 0
M  V30 3826 C 360.757 -1.11248 -1.59177 0
M  V30 3827 O 360.032 -0.170909 -1.93748 0
M  V30 3828 C 360.315 -3.50218 -0.837808 0
M  V30 3829 C 360.168 -4.48426 0.351332 0
M  V30 3830 C 361.487 -4.06243 -1.69278 0
M  V30 3831 H 358.606 -0.722337 -0.146283 0
M  V30 3832 H 361.248 -1.87255 0.321799 0
M  V30 3833 H 359.398 -3.60089 -1.45837 0
M  V30 3834 H 361.07 -4.50562 0.989526 0
M  V30 3835 H 359.313 -4.22159 0.998207 0
M  V30 3836 H 359.984 -5.52 0.00655905 0
M  V30 3837 H 362.46 -3.99337 -1.16914 0
M  V30 3838 H 361.336 -5.12581 -1.96346 0
M  V30 3839 H 361.597 -3.53332 -2.65723 0
M  V30 3840 N 360.656 0.0484629 -1.57525 0
M  V30 3841 C 361.933 0.777447 -1.79486 0
M  V30 3842 C 362.313 1.94597 -0.818251 0
M  V30 3843 O 361.661 2.28047 0.143767 0
M  V30 3844 C 361.871 1.22864 -3.26658 0
M  V30 3845 C 363.219 1.65251 -3.91123 0
M  V30 3846 O 364.243 1.32372 -3.3069 0
M  V30 3847 O 363.102 2.26207 -4.97486 0
M  V30 3848 H 360.196 0.374357 -0.737419 0
M  V30 3849 H 362.742 0.0267359 -1.69679 0
M  V30 3850 H 361.514 0.393589 -3.89316 0
M  V30 3851 H 361.137 2.03996 -3.41279 0
M  V30 3852 N 362.134 1.5431 0.320358 0
M  V30 3853 C 363.381 1.72668 1.05792 0
M  V30 3854 C 363.709 0.502084 1.87908 0
M  V30 3855 O 362.964 -0.516149 1.88771 0
M  V30 3856 C 363.263 2.95639 2.00828 0
M  V30 3857 C 362.929 4.30265 1.34843 0
M  V30 3858 C 361.591 4.66865 1.16578 0
M  V30 3859 C 363.943 5.13801 0.875095 0
M  V30 3860 C 361.271 5.84597 0.496336 0
M  V30 3861 C 363.623 6.32219 0.219463 0
M  V30 3862 C 362.287 6.67495 0.0246915 0
M  V30 3863 H 361.557 0.631837 0.387121 0
M  V30 3864 H 364.204 1.88552 0.334735 0
M  V30 3865 H 362.509 2.74456 2.79609 0
M  V30 3866 H 364.206 3.07038 2.57932 0
M  V30 3867 H 360.796 4.01472 1.50061 0
M  V30 3868 H 364.98 4.86039 1.00398 0
M  V30 3869 H 360.236 6.10486 0.334264 0
M  V30 3870 H 364.41 6.96227 -0.155291 0
M  V30 3871 H 362.037 7.5858 -0.496065 0
M  V30 3872 N 363.613 -0.582584 1.46437 0
M  V30 3873 C 364.843 -1.36484 1.55099 0
M  V30 3874 C 365.251 -1.88233 0.191056 0
M  V30 3875 O 364.594 -1.6429 -0.821858 0
M  V30 3876 C 364.656 -2.588 2.49525 0
M  V30 3877 C 364.32 -2.28517 3.95764 0
M  V30 3878 C 365.317 -1.87346 4.84972 0
M  V30 3879 C 363.002 -2.40658 4.40896 0
M  V30 3880 C 364.996 -1.5871 6.17325 0
M  V30 3881 C 362.683 -2.11635 5.73284 0
M  V30 3882 C 363.681 -1.70725 6.61318 0
M  V30 3883 O 363.369 -1.42057 7.91249 0
M  V30 3884 H 363.101 -0.423297 0.527063 0
M  V30 3885 H 365.655 -0.715188 1.92547 0
M  V30 3886 H 363.885 -3.26571 2.07095 0
M  V30 3887 H 365.574 -3.20868 2.48593 0
M  V30 3888 H 366.34 -1.77481 4.5136 0
M  V30 3889 H 362.219 -2.71463 3.72598 0
M  V30 3890 H 365.763 -1.26704 6.85997 0
M  V30 3891 H 361.66 -2.21124 6.06444 0
M  V30 3892 H 362.428 -1.55901 8.03515 0
M  V30 3893 N 365.091 -1.34144 -0.827227 0
M  V30 3894 C 366.023 -1.21206 -1.9453 0
M  V30 3895 C 367.036 -0.140176 -1.62195 0
M  V30 3896 O 368.225 -0.391647 -1.7415 0
M  V30 3897 C 365.325 -0.839141 -3.28347 0
M  V30 3898 C 364.498 -2.0051 -3.88734 0
M  V30 3899 C 363.557 -1.61128 -5.00923 0
M  V30 3900 O 362.583 -2.32726 -5.19449 0
M  V30 3901 N 363.785 -0.522958 -5.7814 0
M  V30 3902 H 366.55 -2.17525 -2.06162 0
M  V30 3903 H 364.111 -1.27043 -1.00358 0
M  V30 3904 H 366.103 -0.557556 -4.00841 0
M  V30 3905 H 364.673 0.0337293 -3.12582 0
M  V30 3906 H 363.893 -2.45166 -3.08686 0
M  V30 3907 H 365.181 -2.78498 -4.25812 0
M  V30 3908 H 364.579 0.0723518 -5.65654 0
M  V30 3909 H 363.136 -0.301089 -6.51104 0
M  V30 3910 N 366.569 1.04691 -1.17803 0
M  V30 3911 C 367.98 1.59238 -0.974689 0
M  V30 3912 C 368.331 1.90306 0.477292 0
M  V30 3913 O 367.456 1.68846 1.35352 0
M  V30 3914 C 368.051 2.89318 -1.76296 0
M  V30 3915 C 366.61 3.40506 -1.60414 0
M  V30 3916 C 365.757 2.14172 -1.76141 0
M  V30 3917 H 368.708 0.874395 -1.32439 0
M  V30 3918 H 368.729 3.5944 -1.24833 0
M  V30 3919 H 368.241 2.66675 -2.81968 0
M  V30 3920 H 366.342 3.68175 -0.572519 0
M  V30 3921 H 366.455 4.14753 -2.39827 0
M  V30 3922 H 364.819 2.25176 -1.19028 0
M  V30 3923 H 365.602 1.93992 -2.83235 0
M  V30 3924 N 368.047 0.979072 1.23499 0
M  V30 3925 C 369.275 0.665202 1.95915 0
M  V30 3926 C 369.69 -0.767571 1.72493 0
M  V30 3927 O 369.047 -1.51635 1.01554 0
M  V30 3928 C 369.098 0.944438 3.48945 0
M  V30 3929 O 368.819 2.3209 3.71572 0
M  V30 3930 C 370.32 0.646336 4.38563 0
M  V30 3931 H 367.54 0.247218 0.623798 0
M  V30 3932 H 370.084 1.31009 1.57025 0
M  V30 3933 H 368.239 0.345575 3.85856 0
M  V30 3934 H 368.653 2.40957 4.65876 0
M  V30 3935 H 370.127 0.892091 5.44744 0
M  V30 3936 H 370.604 -0.419575 4.37191 0
M  V30 3937 H 371.21 1.22562 4.07258 0
M  V30 3938 N 369.525 -1.3858 0.750561 0
M  V30 3939 C 370.765 -2.02032 0.310258 0
M  V30 3940 C 371.129 -1.58288 -1.08668 0
M  V30 3941 O 372.33 -2.14049 -1.62593 0
M  V30 3942 C 370.601 -3.54856 0.425647 0
M  V30 3943 S 372.16 -4.38748 0.0674797 0
M  V30 3944 H 368.978 -0.700705 0.120554 0
M  V30 3945 H 371.58 -1.69134 0.980512 0
M  V30 3946 H 370.284 -3.84182 1.44335 0
M  V30 3947 H 369.815 -3.92527 -0.261894 0
M  V30 3948 H 371.83 -4.82835 -1.14388 0
M  V30 3949 N 371.003 -0.499398 -1.49478 0
M  V30 3950 C 372.252 0.0475259 -2.01644 0
M  V30 3951 C 372.565 1.38195 -1.38425 0
M  V30 3952 O 373.771 2.01547 -1.8191 0
M  V30 3953 C 372.227 0.135164 -3.59646 0
M  V30 3954 C 371.835 -1.19252 -4.31837 0
M  V30 3955 C 373.579 0.632538 -4.19761 0
M  V30 3956 C 371.486 -1.06713 -5.81693 0
M  V30 3957 H 370.416 0.0215349 -0.753692 0
M  V30 3958 H 373.067 -0.638577 -1.7203 0
M  V30 3959 H 371.449 0.885681 -3.85969 0
M  V30 3960 H 372.623 -1.9562 -4.17216 0
M  V30 3961 H 370.938 -1.62321 -3.83459 0
M  V30 3962 H 373.535 0.743833 -5.29501 0
M  V30 3963 H 373.878 1.63098 -3.83021 0
M  V30 3964 H 374.411 -0.0613987 -3.97753 0
M  V30 3965 H 371.15 -2.03979 -6.22955 0
M  V30 3966 H 370.67 -0.344307 -5.98811 0
M  V30 3967 H 372.349 -0.745208 -6.42694 0
M  V30 3968 N 372.481 1.55866 -0.233164 0
M  V30 3969 C 373.727 1.98897 0.395959 0
M  V30 3970 C 374.06 1.12091 1.58585 0
M  V30 3971 O 373.335 0.181182 1.93654 0
M  V30 3972 C 373.618 3.50658 0.819224 0
M  V30 3973 C 373.471 4.48233 -0.375109 0
M  V30 3974 C 374.79 4.07135 1.67121 0
M  V30 3975 H 371.909 0.723102 0.142451 0
M  V30 3976 H 374.551 1.87082 -0.331725 0
M  V30 3977 H 372.701 3.60857 1.43925 0
M  V30 3978 H 374.373 4.50031 -1.01341 0
M  V30 3979 H 372.616 4.21624 -1.02058 0
M  V30 3980 H 373.287 5.51988 -0.0358328 0
M  V30 3981 H 375.763 3.99952 1.14795 0
M  V30 3982 H 374.639 5.13615 1.93625 0
M  V30 3983 H 374.9 3.54736 2.63846 0
M  V30 3984 N 373.959 -0.0401083 1.57549 0
M  V30 3985 C 374.889 -1.04384 2.08869 0
M  V30 3986 C 375.87 -1.38407 0.988817 0
M  V30 3987 O 377.055 -1.47483 1.26342 0
M  V30 3988 C 374.185 -2.34808 2.55895 0
M  V30 3989 C 373.139 -2.15057 3.70047 0
M  V30 3990 C 372.465 -3.51145 4.03239 0
M  V30 3991 C 373.765 -1.54576 4.98902 0
M  V30 3992 H 375.459 -0.616666 2.92981 0
M  V30 3993 H 373.005 -0.295184 1.40942 0
M  V30 3994 H 374.958 -3.05346 2.90417 0
M  V30 3995 H 373.682 -2.79565 1.68853 0
M  V30 3996 H 372.341 -1.46954 3.35857 0
M  V30 3997 H 371.989 -3.93529 3.13279 0
M  V30 3998 H 371.689 -3.38758 4.80122 0
M  V30 3999 H 373.213 -4.23062 4.40285 0
M  V30 4000 H 374.627 -2.15017 5.31451 0
M  V30 4001 H 373.024 -1.52796 5.80322 0
M  V30 4002 H 374.094 -0.51039 4.82206 0
M  V30 4003 N 375.437 -1.54477 -0.31217 0
M  V30 4004 C 376.369 -1.81011 -1.40598 0
M  V30 4005 C 377.382 -0.692546 -1.47335 0
M  V30 4006 O 378.571 -0.969847 -1.49854 0
M  V30 4007 C 375.671 -1.92307 -2.79054 0
M  V30 4008 C 374.844 -3.22594 -2.95384 0
M  V30 4009 C 373.903 -3.24448 -4.1427 0
M  V30 4010 O 372.929 -3.98035 -4.06887 0
M  V30 4011 N 374.131 -2.49042 -5.24365 0
M  V30 4012 H 376.896 -2.75408 -1.18196 0
M  V30 4013 H 374.457 -1.53914 -0.502202 0
M  V30 4014 H 376.449 -1.90962 -3.56813 0
M  V30 4015 H 375.019 -1.04955 -2.94454 0
M  V30 4016 H 374.239 -3.36806 -2.04831 0
M  V30 4017 H 375.527 -4.08593 -3.03198 0
M  V30 4018 H 374.925 -1.88867 -5.33241 0
M  V30 4019 H 373.482 -2.53463 -6.005 0
M  V30 4020 N 376.915 0.57481 -1.46744 0
M  V30 4021 C 378.155 1.34369 -1.54027 0
M  V30 4022 C 378.519 1.91051 -0.190642 0
M  V30 4023 O 379.72 2.68444 -0.138255 0
M  V30 4024 C 377.991 2.43706 -2.61423 0
M  V30 4025 S 379.55 3.30915 -2.88167 0
M  V30 4026 H 376.368 0.45768 -0.544105 0
M  V30 4027 H 378.97 0.659959 -1.84024 0
M  V30 4028 H 377.674 2.0047 -3.58106 0
M  V30 4029 H 377.205 3.16842 -2.33184 0
M  V30 4030 H 379.22 4.42742 -2.24039 0
M  V30 4031 N 378.394 1.34581 0.820102 0
M  V30 4032 C 379.642 1.26845 1.57336 0
M  V30 4033 C 379.963 -0.160667 1.94337 0
M  V30 4034 O 379.233 -1.09396 1.6251 0
M  V30 4035 H 377.813 0.466514 0.583415 0
M  V30 4036 H 380.475 1.68526 0.979027 0
M  V30 4037 H 379.571 1.87513 2.4949 0
M  V30 4038 N 379.872 -1.04064 1.18357 0
M  V30 4039 C 380.835 -2.10243 0.912707 0
M  V30 4040 C 381.835 -1.60477 -0.101928 0
M  V30 4041 O 383.025 -1.73703 0.131517 0
M  V30 4042 C 380.157 -3.38893 0.369387 0
M  V30 4043 H 381.35 -2.35706 1.85426 0
M  V30 4044 H 378.903 -1.20489 0.995594 0
M  V30 4045 H 379.638 -3.19094 -0.578776 0
M  V30 4046 H 379.423 -3.76331 1.1008 0
M  V30 4047 H 380.913 -4.17128 0.198575 0
M  V30 4048 N 381.35 -0.985608 -1.22978 0
M  V30 4049 C 382.627 -0.573599 -1.87001 0
M  V30 4050 C 383.007 0.949213 -1.88555 0
M  V30 4051 O 382.355 1.82811 -1.37086 0
M  V30 4052 C 382.565 -1.18564 -3.28243 0
M  V30 4053 C 383.913 -1.28163 -4.04796 0
M  V30 4054 O 384.937 -1.13949 -3.37482 0
M  V30 4055 O 383.796 -1.50832 -5.25273 0
M  V30 4056 H 380.89 -0.193868 -0.803955 0
M  V30 4057 H 383.436 -1.08102 -1.30813 0
M  V30 4058 H 382.208 -2.22758 -3.21706 0
M  V30 4059 H 381.831 -0.663363 -3.92027 0
M  V30 4060 N 382.828 1.3818 -0.7579 0
M  V30 4061 C 384.053 2.04827 -0.325679 0
M  V30 4062 C 384.478 1.56788 1.03919 0
M  V30 4063 O 383.836 0.721811 1.66312 0
M  V30 4064 C 383.884 3.58774 -0.362447 0
M  V30 4065 O 382.988 4.07372 0.642033 0
M  V30 4066 H 382.329 0.64833 -0.143402 0
M  V30 4067 H 384.859 1.7677 -1.03023 0
M  V30 4068 H 384.869 4.07434 -0.214844 0
M  V30 4069 H 383.544 3.93096 -1.35824 0
M  V30 4070 H 382.121 3.70068 0.458688 0
M  V30 4071 N 384.306 0.507319 1.49211 0
M  V30 4072 C 385.236 -0.256939 2.32082 0
M  V30 4073 C 386.217 -0.956609 1.40652 0
M  V30 4074 O 387.402 -0.946788 1.69557 0
M  V30 4075 C 384.532 -1.31802 3.21318 0
M  V30 4076 C 383.486 -0.737855 4.21592 0
M  V30 4077 C 382.812 -1.89992 4.99807 0
M  V30 4078 C 384.112 0.275325 5.21574 0
M  V30 4079 H 385.806 0.434798 2.96226 0
M  V30 4080 H 383.352 0.210546 1.42452 0
M  V30 4081 H 385.305 -1.86045 3.78107 0
M  V30 4082 H 384.029 -2.03903 2.5513 0
M  V30 4083 H 382.688 -0.217126 3.65956 0
M  V30 4084 H 382.336 -2.60877 4.30061 0
M  V30 4085 H 382.036 -1.51777 5.6766 0
M  V30 4086 H 383.56 -2.44657 5.59442 0
M  V30 4087 H 384.974 -0.179193 5.7302 0
M  V30 4088 H 383.371 0.573649 5.97352 0
M  V30 4089 H 384.441 1.18903 4.70096 0
M  V30 4090 N 385.784 -1.5574 0.241426 0
M  V30 4091 C 387.032 -1.98417 -0.384075 0
M  V30 4092 C 387.353 -1.13078 -1.58866 0
M  V30 4093 O 386.623 -0.212312 -1.94746 0
M  V30 4094 H 385.203 -0.732813 -0.144894 0
M  V30 4095 H 387.865 -1.9193 0.338943 0
M  V30 4096 H 386.961 -3.04219 -0.696939 0
M  V30 4097 N 387.262 0.0317525 -1.57568 0
M  V30 4098 C 388.502 0.727979 -1.90997 0
M  V30 4099 C 388.866 1.72664 -0.839708 0
M  V30 4100 O 390.067 2.47092 -1.05825 0
M  V30 4101 C 388.338 1.38239 -3.29583 0
M  V30 4102 S 389.897 2.10814 -3.84841 0
M  V30 4103 H 386.715 0.241226 -0.668828 0
M  V30 4104 H 389.317 -0.0173037 -1.95492 0
M  V30 4105 H 388.021 0.642288 -4.05343 0
M  V30 4106 H 387.552 2.16628 -3.28384 0
M  V30 4107 H 389.567 3.3792 -3.63352 0
M  V30 4108 N 388.74 1.54641 0.303973 0
M  V30 4109 C 390.017 1.64455 1.05896 0
M  V30 4110 C 390.397 0.490923 2.05312 0
M  V30 4111 O 389.745 -0.512685 2.22674 0
M  V30 4112 C 389.955 3.02331 1.74347 0
M  V30 4113 C 391.303 3.59045 2.26653 0
M  V30 4114 O 392.327 3.04764 1.84384 0
M  V30 4115 O 391.186 4.54081 3.04093 0
M  V30 4116 H 388.28 0.666729 0.489287 0
M  V30 4117 H 390.826 1.66986 0.302298 0
M  V30 4118 H 389.598 3.77734 1.02142 0
M  V30 4119 H 389.221 3.03565 2.56777 0
M  V30 4120 N 390.218 -0.567019 1.47046 0
M  V30 4121 C 391.634 -0.891975 1.32348 0
M  V30 4122 C 391.834 -1.99154 0.306616 0
M  V30 4123 O 390.89 -2.50883 -0.28532 0
M  V30 4124 C 392.203 -1.29449 2.7141 0
M  V30 4125 C 393.751 -1.40646 2.79621 0
M  V30 4126 C 394.226 -1.84257 4.19301 0
M  V30 4127 N 395.717 -1.91424 4.21795 0
M  V30 4128 C 396.452 -2.26476 5.26779 0
M  V30 4129 N 395.948 -2.60211 6.42077 0
M  V30 4130 N 397.741 -2.27166 5.14152 0
M  V30 4131 H 389.892 0.159074 2.11803 0
M  V30 4132 H 392.155 0.00849752 0.947962 0
M  V30 4133 H 391.861 -0.560448 3.47206 0
M  V30 4134 H 391.735 -2.25273 3.02542 0
M  V30 4135 H 394.122 -2.13133 2.04104 0
M  V30 4136 H 394.203 -0.430339 2.52154 0
M  V30 4137 H 393.847 -1.12343 4.95319 0
M  V30 4138 H 393.777 -2.82855 4.44185 0
M  V30 4139 H 396.268 -1.6778 3.38612 0
M  V30 4140 H 396.581 -2.85956 7.17948 0
M  V30 4141 H 394.926 -2.57813 6.45413 0
M  V30 4142 H 398.117 -2.00244 4.23107 0
M  V30 4143 H 398.29 -2.54154 5.96079 0
M  V30 4144 N 391.696 -1.35014 -0.812953 0
M  V30 4145 C 392.626 -1.30069 -1.93919 0
M  V30 4146 C 393.607 -0.176275 -1.69184 0
M  V30 4147 O 394.792 -0.370227 -1.90638 0
M  V30 4148 C 391.922 -1.06547 -3.30552 0
M  V30 4149 C 390.876 -2.15561 -3.69753 0
M  V30 4150 C 390.202 -1.77214 -5.04479 0
M  V30 4151 C 391.502 -3.57476 -3.808 0
M  V30 4152 H 393.196 -2.24303 -1.98314 0
M  V30 4153 H 390.742 -1.07977 -0.952736 0
M  V30 4154 H 392.695 -1.01729 -4.08937 0
M  V30 4155 H 391.419 -0.0875719 -3.26483 0
M  V30 4156 H 390.078 -2.19466 -2.9365 0
M  V30 4157 H 389.726 -0.780589 -4.96906 0
M  V30 4158 H 389.426 -2.50184 -5.31678 0
M  V30 4159 H 390.95 -1.7391 -5.8531 0
M  V30 4160 H 392.364 -3.55929 -4.4943 0
M  V30 4161 H 390.761 -4.29152 -4.19462 0
M  V30 4162 H 391.831 -3.94091 -2.82525 0
M  V30 4163 N 393.175 1.03435 -1.18907 0
M  V30 4164 C 394.423 1.76394 -0.986382 0
M  V30 4165 C 394.744 1.88883 0.484567 0
M  V30 4166 O 394.014 1.41843 1.3512 0
M  V30 4167 H 392.594 0.65344 -0.361975 0
M  V30 4168 H 395.256 1.248 -1.49703 0
M  V30 4169 H 394.352 2.77424 -1.42978 0
M  V30 4170 N 394.653 0.992116 1.22453 0
M  V30 4171 C 395.893 0.675727 1.92907 0
M  V30 4172 C 396.257 -0.777762 1.75542 0
M  V30 4173 O 397.458 -1.20553 2.40251 0
M  V30 4174 C 395.729 1.0696 3.4102 0
M  V30 4175 S 397.288 0.871456 4.30059 0
M  V30 4176 H 394.106 0.247089 0.666684 0
M  V30 4177 H 396.708 1.27423 1.48269 0
M  V30 4178 H 395.412 2.12383 3.51172 0
M  V30 4179 H 394.943 0.462858 3.90668 0
M  V30 4180 H 396.958 -0.238436 4.95627 0
M  V30 4181 N 396.131 -1.37776 0.765217 0
M  V30 4182 C 397.378 -1.99849 0.326588 0
M  V30 4183 C 397.706 -1.60746 -1.09504 0
M  V30 4184 O 396.961 -0.84202 -1.76659 0
M  V30 4185 C 397.26 -3.5504 0.410053 0
M  V30 4186 C 396.926 -4.13891 1.78899 0
M  V30 4187 C 395.588 -4.29678 2.16635 0
M  V30 4188 C 397.94 -4.46236 2.69301 0
M  V30 4189 C 395.268 -4.7511 3.44221 0
M  V30 4190 C 397.62 -4.93089 3.9629 0
M  V30 4191 C 396.284 -5.07082 4.34078 0
M  V30 4192 H 395.554 -0.7313 0.119507 0
M  V30 4193 H 398.201 -1.64645 0.977968 0
M  V30 4194 H 396.506 -3.90451 -0.324878 0
M  V30 4195 H 398.203 -4.00966 0.0520699 0
M  V30 4196 H 394.793 -4.02026 1.48569 0
M  V30 4197 H 398.977 -4.3363 2.41409 0
M  V30 4198 H 394.233 -4.84129 3.73402 0
M  V30 4199 H 398.407 -5.17084 4.66472 0
M  V30 4200 H 396.034 -5.42046 5.33001 0
M  V30 4201 N 397.609 -0.515225 -1.4894 0
M  V30 4202 C 398.557 0.269115 -2.31038 0
M  V30 4203 C 399.551 0.949443 -1.40292 0
M  V30 4204 O 400.757 0.87551 -1.57273 0
M  V30 4205 H 397.132 0.10565 -0.744542 0
M  V30 4206 H 399.103 -0.443096 -2.95092 0
M  V30 4207 C 397.852 1.31213 -3.21991 0
M  V30 4208 H 397.175 0.798034 -3.91754 0
M  V30 4209 H 398.615 1.83263 -3.82349 0
M  V30 4210 C 397.074 2.33791 -2.42576 0
M  V30 4211 O 397.604 3.3995 -2.14003 0
M  V30 4212 N 395.81 2.06625 -2.0434 0
M  V30 4213 H 395.357 1.20314 -2.27777 0
M  V30 4214 H 395.315 2.75483 -1.51514 0
M  V30 4215 N 399.087 1.5561 -0.249682 0
M  V30 4216 C 400.017 2.24477 0.642826 0
M  V30 4217 C 400.998 1.22601 1.17911 0
M  V30 4218 O 402.183 1.5126 1.21795 0
M  V30 4219 C 399.313 2.94638 1.83863 0
M  V30 4220 C 398.267 4.03227 1.435 0
M  V30 4221 C 397.593 4.60828 2.71186 0
M  V30 4222 C 398.893 5.18796 0.604002 0
M  V30 4223 H 400.587 2.99321 0.0685625 0
M  V30 4224 H 398.133 1.43965 0.0315363 0
M  V30 4225 H 400.086 3.41517 2.46868 0
M  V30 4226 H 398.81 2.17287 2.43832 0
M  V30 4227 H 397.469 3.57121 0.828275 0
M  V30 4228 H 397.117 3.80174 3.29358 0
M  V30 4229 H 396.817 5.34132 2.44901 0
M  V30 4230 H 398.341 5.10442 3.35084 0
M  V30 4231 H 399.755 5.61883 1.13842 0
M  V30 4232 H 398.152 5.98506 0.437097 0
M  V30 4233 H 399.222 4.83384 -0.383147 0
M  V30 4234 N 400.565 -0.0233959 1.57583 0
M  V30 4235 C 401.79 -0.728376 1.94189 0
M  V30 4236 C 402.215 -1.67793 0.850119 0
M  V30 4237 O 401.573 -1.80262 -0.19371 0
M  V30 4238 C 401.621 -1.45669 3.29868 0
M  V30 4239 O 400.725 -2.57013 3.22518 0
M  V30 4240 H 400.066 -0.195493 0.63457 0
M  V30 4241 H 402.596 0.0228214 2.04587 0
M  V30 4242 H 402.606 -1.82535 3.6489 0
M  V30 4243 H 401.281 -0.760314 4.08891 0
M  V30 4244 H 399.858 -2.22648 2.99136 0
M  V30 4245 N 402.043 -1.548 -0.295768 0
M  V30 4246 C 403.292 -1.73538 -1.02798 0
M  V30 4247 C 403.605 -0.531159 -1.8825 0
M  V30 4248 O 404.811 -0.600458 -2.64777 0
M  V30 4249 C 403.267 -3.07051 -1.87744 0
M  V30 4250 C 402.875 -4.34968 -1.07269 0
M  V30 4251 C 404.619 -3.35146 -2.60533 0
M  V30 4252 C 402.526 -5.5953 -1.91521 0
M  V30 4253 H 401.456 -0.646794 -0.387522 0
M  V30 4254 H 404.107 -1.81278 -0.284718 0
M  V30 4255 H 402.489 -2.93289 -2.66078 0
M  V30 4256 H 403.663 -4.5958 -0.335117 0
M  V30 4257 H 401.978 -4.13847 -0.460384 0
M  V30 4258 H 404.575 -4.2541 -3.23929 0
M  V30 4259 H 404.918 -2.54255 -3.29636 0
M  V30 4260 H 405.451 -3.49902 -1.89244 0
M  V30 4261 H 402.19 -6.43103 -1.26878 0
M  V30 4262 H 401.71 -5.39096 -2.62937 0
M  V30 4263 H 403.389 -5.96982 -2.49442 0
M  V30 4264 N 403.521 0.559213 -1.47345 0
M  V30 4265 C 404.937 0.884943 -1.32819 0
M  V30 4266 C 405.137 1.98988 -0.317173 0
M  V30 4267 O 404.193 2.51031 0.272011 0
M  V30 4268 C 405.506 1.28007 -2.72093 0
M  V30 4269 C 407.054 1.39161 -2.80363 0
M  V30 4270 C 407.529 1.82031 -4.20272 0
M  V30 4271 N 409.02 1.89185 -4.22804 0
M  V30 4272 C 409.755 2.2368 -5.27973 0
M  V30 4273 N 409.251 2.56802 -6.43447 0
M  V30 4274 N 411.044 2.24436 -5.15349 0
M  V30 4275 H 403.195 -0.170304 -2.11716 0
M  V30 4276 H 405.458 -0.0135247 -0.947904 0
M  V30 4277 H 405.164 0.542027 -3.47498 0
M  V30 4278 H 405.038 2.23665 -3.03733 0
M  V30 4279 H 407.425 2.12048 -2.05231 0
M  V30 4280 H 407.506 0.41696 -2.52379 0
M  V30 4281 H 407.15 1.09715 -4.95908 0
M  V30 4282 H 407.08 2.80495 -4.45679 0
M  V30 4283 H 409.571 1.65982 -3.39497 0
M  V30 4284 H 409.884 2.82144 -7.19454 0
M  V30 4285 H 408.229 2.54387 -6.46771 0
M  V30 4286 H 411.42 1.97998 -4.24163 0
M  V30 4287 H 411.593 2.50989 -5.97418 0
M  V30 4288 N 404.999 1.35443 0.805782 0
M  V30 4289 C 406.247 1.28507 1.55982 0
M  V30 4290 C 406.568 -0.140046 1.94496 0
M  V30 4291 O 405.838 -1.07666 1.63661 0
M  V30 4292 H 404.418 0.472676 0.578434 0
M  V30 4293 H 407.08 1.69555 0.961098 0
M  V30 4294 H 406.176 1.90148 2.47488 0
M  V30 4295 N 406.477 -1.02803 1.19454 0
M  V30 4296 C 407.427 -2.0945 0.900827 0
M  V30 4297 C 408.411 -1.60335 -0.134715 0
M  V30 4298 O 409.603 -1.76857 0.0710924 0
M  V30 4299 C 406.732 -3.4044 0.442229 0
M  V30 4300 C 405.818 -3.96286 1.51056 0
M  V30 4301 N 406.209 -4.25785 2.73021 0
M  V30 4302 C 404.507 -4.24307 1.37404 0
M  V30 4303 C 405.208 -4.70654 3.41848 0
M  V30 4304 N 404.184 -4.72238 2.69243 0
M  V30 4305 H 407.986 -2.3015 1.82779 0
M  V30 4306 H 405.5 -1.20672 1.08683 0
M  V30 4307 H 407.497 -4.16354 0.21326 0
M  V30 4308 H 406.157 -3.21159 -0.478238 0
M  V30 4309 H 407.168 -4.15041 3.09776 0
M  V30 4310 H 403.845 -4.14285 0.517103 0
M  V30 4311 H 405.235 -5.02392 4.46152 0
M  V30 4312 N 407.956 -0.998596 -1.21925 0
M  V30 4313 C 409.204 -0.676325 -1.90448 0
M  V30 4314 C 409.525 0.794719 -1.78071 0
M  V30 4315 O 408.795 1.5701 -1.17152 0
M  V30 4316 H 407.375 -0.247165 -0.704925 0
M  V30 4317 H 410.037 -1.26633 -1.48156 0
M  V30 4318 H 409.133 -0.943858 -2.97486 0
M  V30 4319 N 409.434 1.37368 -0.772513 0
M  V30 4320 C 410.344 2.34053 -0.160081 0
M  V30 4321 C 411.36 1.60216 0.678728 0
M  V30 4322 O 412.536 1.92303 0.59847 0
M  V30 4323 C 409.601 3.3939 0.708182 0
M  V30 4324 C 408.662 4.29048 -0.147172 0
M  V30 4325 C 407.895 5.29354 0.679744 0
M  V30 4326 O 408.118 5.3723 1.91678 0
M  V30 4327 O 407.052 6.01835 0.0885444 0
M  V30 4328 H 410.878 2.88159 -0.959053 0
M  V30 4329 H 408.463 1.39543 -0.533685 0
M  V30 4330 H 410.345 4.03839 1.20384 0
M  V30 4331 H 409.02 2.8761 1.48533 0
M  V30 4332 H 407.927 3.67697 -0.689205 0
M  V30 4333 H 409.26 4.84134 -0.887423 0
M  V30 4334 N 410.912 0.523116 1.48665 0
M  V30 4335 C 412.152 -0.0115588 2.04397 0
M  V30 4336 C 412.516 -1.32225 1.39214 0
M  V30 4337 O 413.717 -1.94253 1.85793 0
M  V30 4338 C 411.988 -0.138119 3.57133 0
M  V30 4339 S 413.547 -0.623849 4.34343 0
M  V30 4340 H 410.365 0.00877706 0.710946 0
M  V30 4341 H 412.967 0.702116 1.82457 0
M  V30 4342 H 411.671 0.820748 4.02109 0
M  V30 4343 H 411.202 -0.876377 3.83514 0
M  V30 4344 H 413.217 -1.8895 4.58816 0
M  V30 4345 N 412.39 -1.55475 0.257931 0
M  V30 4346 C 413.636 -1.99502 -0.364266 0
M  V30 4347 C 413.969 -1.146 -1.56782 0
M  V30 4348 O 413.244 -0.211968 -1.93342 0
M  V30 4349 C 413.527 -3.51917 -0.763333 0
M  V30 4350 C 413.38 -4.4758 0.446371 0
M  V30 4351 C 414.699 -4.09742 -1.60623 0
M  V30 4352 H 411.818 -0.725277 -0.130929 0
M  V30 4353 H 414.46 -1.8653 0.361446 0
M  V30 4354 H 412.61 -3.63101 -1.38166 0
M  V30 4355 H 414.282 -4.48362 1.08487 0
M  V30 4356 H 412.525 -4.19947 1.08753 0
M  V30 4357 H 413.196 -5.51862 0.123645 0
M  V30 4358 H 415.672 -4.01727 -1.08418 0
M  V30 4359 H 414.548 -5.16631 -1.85429 0
M  V30 4360 H 414.809 -3.58889 -2.58169 0
M  V30 4361 N 413.868 0.0150385 -1.57593 0
M  V30 4362 C 414.778 1.02791 -2.10882 0
M  V30 4363 C 415.794 1.38702 -1.0506 0
M  V30 4364 O 416.97 1.47739 -1.36877 0
M  V30 4365 C 414.035 2.30568 -2.58919 0
M  V30 4366 C 413.096 2.01108 -3.79281 0
M  V30 4367 C 412.329 3.22794 -4.25018 0
M  V30 4368 O 412.552 4.33959 -3.70183 0
M  V30 4369 O 411.486 3.07672 -5.17322 0
M  V30 4370 H 415.312 0.604973 -2.97613 0
M  V30 4371 H 412.897 0.23292 -1.47573 0
M  V30 4372 H 414.779 3.05662 -2.90084 0
M  V30 4373 H 413.454 2.72129 -1.75293 0
M  V30 4374 H 412.361 1.23537 -3.53114 0
M  V30 4375 H 413.694 1.64394 -4.63935 0
M  V30 4376 N 415.346 1.54954 0.287554 0
M  V30 4377 C 416.576 1.78622 1.03816 0
M  V30 4378 C 416.984 0.552451 1.80955 0
M  V30 4379 O 416.327 -0.487665 1.77109 0
M  V30 4380 C 416.389 2.94975 2.055 0
M  V30 4381 C 416.053 4.32565 1.47433 0
M  V30 4382 C 417.05 5.12096 0.897436 0
M  V30 4383 C 414.735 4.79195 1.50591 0
M  V30 4384 C 416.729 6.36383 0.359851 0
M  V30 4385 C 414.416 6.03441 0.964459 0
M  V30 4386 C 415.414 6.81872 0.392413 0
M  V30 4387 O 415.102 8.03777 -0.140788 0
M  V30 4388 H 414.834 0.599144 0.313053 0
M  V30 4389 H 417.388 2.02761 0.328225 0
M  V30 4390 H 415.618 2.66493 2.80211 0
M  V30 4391 H 417.307 3.06097 2.6657 0
M  V30 4392 H 418.073 4.77209 0.865841 0
M  V30 4393 H 413.952 4.18167 1.94055 0
M  V30 4394 H 417.496 6.97545 -0.0872951 0
M  V30 4395 H 413.393 6.37813 0.993246 0
M  V30 4396 H 414.161 8.18495 -0.0287617 0
M  V30 4397 N 416.824 -0.551391 1.4764 0
M  V30 4398 C 418.07 -1.31024 1.54792 0
M  V30 4399 C 418.403 -1.9304 0.211967 0
M  V30 4400 O 417.678 -1.78175 -0.77999 0
M  V30 4401 C 417.961 -2.41593 2.67029 0
M  V30 4402 C 417.814 -1.84408 4.10261 0
M  V30 4403 C 419.133 -3.43488 2.75143 0
M  V30 4404 H 416.252 -0.475031 0.563485 0
M  V30 4405 H 418.894 -0.616454 1.79722 0
M  V30 4406 H 417.044 -3.00772 2.45904 0
M  V30 4407 H 418.716 -1.29445 4.42766 0
M  V30 4408 H 416.959 -1.15051 4.18265 0
M  V30 4409 H 417.63 -2.64367 4.84576 0
M  V30 4410 H 420.106 -2.94236 2.94218 0
M  V30 4411 H 418.982 -4.18274 3.55441 0
M  V30 4412 H 419.243 -4.02703 1.82435 0
M  V30 4413 N 418.302 -1.35869 -0.798587 0
M  V30 4414 C 419.249 -1.29446 -1.91082 0
M  V30 4415 C 420.219 -0.16487 -1.6528 0
M  V30 4416 O 421.404 -0.349888 -1.87564 0
M  V30 4417 C 418.544 -1.0804 -3.27752 0
M  V30 4418 C 417.657 -2.29993 -3.65687 0
M  V30 4419 C 416.792 -2.01673 -4.91428 0
M  V30 4420 C 415.831 -3.19636 -5.22015 0
M  V30 4421 N 414.968 -2.91039 -6.38937 0
M  V30 4422 H 419.808 -2.24553 -1.95907 0
M  V30 4423 H 417.345 -1.11615 -0.958148 0
M  V30 4424 H 419.303 -0.936586 -4.06551 0
M  V30 4425 H 417.933 -0.16592 -3.22373 0
M  V30 4426 H 416.985 -2.55211 -2.82085 0
M  V30 4427 H 418.297 -3.18052 -3.84245 0
M  V30 4428 H 417.451 -1.84168 -5.78072 0
M  V30 4429 H 416.19 -1.10911 -4.74921 0
M  V30 4430 H 415.195 -3.37709 -4.33858 0
M  V30 4431 H 416.42 -4.11211 -5.40447 0
M  V30 4432 H 414.366 -2.0288 -6.2384 0
M  V30 4433 H 414.283 -3.72635 -6.57784 0
M  V30 4434 H 415.551 -2.77093 -7.28587 0
M  V30 4435 N 419.78 1.02168 -1.19998 0
M  V30 4436 C 421.005 1.79833 -1.03319 0
M  V30 4437 C 421.43 1.83504 0.413281 0
M  V30 4438 O 420.788 1.26635 1.29743 0
M  V30 4439 C 420.836 3.22396 -1.61533 0
M  V30 4440 O 419.94 4.03555 -0.849519 0
M  V30 4441 H 419.281 0.554872 -0.364709 0
M  V30 4442 H 421.811 1.28542 -1.59179 0
M  V30 4443 H 421.821 3.73124 -1.65054 0
M  V30 4444 H 420.496 3.19039 -2.66809 0
M  V30 4445 H 419.073 3.62169 -0.888129 0
M  V30 4446 N 421.258 1.00505 1.21394 0
M  V30 4447 C 422.505 0.687774 1.90462 0
M  V30 4448 C 422.833 -0.78147 1.7811 0
M  V30 4449 O 422.088 -1.58208 1.1519 0
M  V30 4450 C 422.387 1.0546 3.41486 0
M  V30 4451 C 422.053 2.51812 3.74034 0
M  V30 4452 C 420.715 2.91804 3.82628 0
M  V30 4453 C 423.067 3.46614 3.8924 0
M  V30 4454 C 420.395 4.2556 4.03876 0
M  V30 4455 C 422.747 4.80044 4.11995 0
M  V30 4456 C 421.411 5.19759 4.18816 0
M  V30 4457 H 420.681 0.251674 0.696951 0
M  V30 4458 H 423.328 1.26349 1.43903 0
M  V30 4459 H 421.633 0.397133 3.89782 0
M  V30 4460 H 423.33 0.786976 3.93202 0
M  V30 4461 H 419.92 2.1982 3.67936 0
M  V30 4462 H 424.104 3.16883 3.81967 0
M  V30 4463 H 419.36 4.55901 4.07387 0
M  V30 4464 H 423.534 5.53439 4.22704 0
M  V30 4465 H 421.161 6.23418 4.35033 0
M  V30 4466 N 422.737 -1.36956 0.779787 0
M  V30 4467 C 423.685 -2.32053 0.15942 0
M  V30 4468 C 424.679 -1.55333 -0.675878 0
M  V30 4469 O 425.885 -1.70668 -0.57204 0
M  V30 4470 H 422.26 -0.751286 0.0327707 0
M  V30 4471 H 424.231 -2.8195 0.977078 0
M  V30 4472 C 422.98 -3.40602 -0.698977 0
M  V30 4473 H 422.303 -3.99746 -0.0655966 0
M  V30 4474 H 423.743 -4.09486 -1.09989 0
M  V30 4475 C 422.202 -2.81359 -1.85307 0
M  V30 4476 O 422.732 -2.72751 -2.94906 0
M  V30 4477 N 420.938 -2.38786 -1.65619 0
M  V30 4478 H 420.485 -2.45987 -0.764725 0
M  V30 4479 H 420.443 -1.99493 -2.43002 0
M  V30 4480 N 424.215 -0.530993 -1.48385 0
M  V30 4481 C 425.464 0.00474348 -2.01699 0
M  V30 4482 C 425.777 1.35227 -1.41325 0
M  V30 4483 O 426.983 1.97643 -1.86144 0
M  V30 4484 C 425.439 0.0588473 -3.59852 0
M  V30 4485 C 425.047 -1.28385 -4.2921 0
M  V30 4486 C 426.791 0.543358 -4.21008 0
M  V30 4487 C 424.698 -1.19028 -5.79298 0
M  V30 4488 H 423.628 0.00554317 -0.75398 0
M  V30 4489 H 426.279 -0.674924 -1.70637 0
M  V30 4490 H 424.661 0.803612 -3.8776 0
M  V30 4491 H 425.835 -2.04426 -4.12973 0
M  V30 4492 H 424.15 -1.70418 -3.7993 0
M  V30 4493 H 426.747 0.631351 -5.3096 0
M  V30 4494 H 427.09 1.54937 -3.86394 0
M  V30 4495 H 427.623 -0.145754 -3.97533 0
M  V30 4496 H 424.362 -2.17147 -6.18488 0
M  V30 4497 H 423.882 -0.471246 -5.97946 0
M  V30 4498 H 425.561 -0.881365 -6.40969 0
M  V30 4499 N 425.693 1.55336 -0.266172 0
M  V30 4500 C 427.104 1.85236 0.233315 0
M  V30 4501 C 427.455 1.18816 1.56132 0
M  V30 4502 O 426.58 0.473307 2.11161 0
M  V30 4503 C 427.175 3.36059 0.430113 0
M  V30 4504 C 425.734 3.66116 0.873842 0
M  V30 4505 C 424.881 2.77274 -0.0380016 0
M  V30 4506 H 427.832 1.51004 -0.488214 0
M  V30 4507 H 427.853 3.58681 1.26998 0
M  V30 4508 H 427.365 3.84373 -0.536588 0
M  V30 4509 H 425.466 3.23295 1.85233 0
M  V30 4510 H 425.579 4.73699 0.717358 0
M  V30 4511 H 423.943 2.50198 0.476759 0
M  V30 4512 H 424.726 3.284 -1.00042 0
M  V30 4513 N 427.171 -0.0066808 1.57599 0
M  V30 4514 C 428.101 -0.999296 2.11036 0
M  V30 4515 C 429.082 -1.36278 1.01795 0
M  V30 4516 O 430.267 -1.4477 1.29442 0
M  V30 4517 C 427.397 -2.29328 2.60818 0
M  V30 4518 C 426.351 -2.07159 3.74525 0
M  V30 4519 C 425.677 -3.42512 4.10596 0
M  V30 4520 C 426.977 -1.43959 5.02069 0
M  V30 4521 H 428.671 -0.554382 2.94223 0
M  V30 4522 H 426.217 -0.265221 1.41536 0
M  V30 4523 H 428.17 -2.99117 2.96828 0
M  V30 4524 H 426.894 -2.7592 1.74745 0
M  V30 4525 H 425.553 -1.39797 3.38899 0
M  V30 4526 H 425.201 -3.86795 3.21556 0
M  V30 4527 H 424.901 -3.28498 4.87199 0
M  V30 4528 H 426.425 -4.13628 4.4916 0
M  V30 4529 H 427.839 -2.03696 5.35893 0
M  V30 4530 H 426.236 -1.40452 5.83432 0
M  V30 4531 H 427.306 -0.407992 4.83181 0
M  V30 4532 N 428.649 -1.55105 -0.279332 0
M  V30 4533 C 429.579 -1.90557 -1.34945 0
M  V30 4534 C 430.56 -0.766738 -1.51839 0
M  V30 4535 O 431.745 -1.02434 -1.64988 0
M  V30 4536 C 428.875 -2.17193 -2.71006 0
M  V30 4537 C 427.829 -3.33021 -2.68851 0
M  V30 4538 C 427.155 -3.45123 -4.08405 0
M  V30 4539 C 428.455 -4.69578 -2.28678 0
M  V30 4540 H 430.149 -2.80188 -1.05522 0
M  V30 4541 H 427.695 -1.34811 -0.506173 0
M  V30 4542 H 429.648 -2.40581 -3.45975 0
M  V30 4543 H 428.372 -1.24355 -3.01999 0
M  V30 4544 H 427.031 -3.0959 -1.9634 0
M  V30 4545 H 426.679 -2.49762 -4.3661 0
M  V30 4546 H 426.379 -4.22995 -4.07859 0
M  V30 4547 H 427.903 -3.70796 -4.85121 0
M  V30 4548 H 429.317 -4.92553 -2.93368 0
M  V30 4549 H 427.714 -5.5032 -2.39306 0
M  V30 4550 H 428.784 -4.68828 -1.23807 0
M  V30 4551 N 430.127 0.543554 -1.4793 0
M  V30 4552 C 431.373 1.30201 -1.55485 0
M  V30 4553 C 431.706 1.92925 -0.222201 0
M  V30 4554 O 430.981 1.78586 0.77053 0
M  V30 4555 C 431.264 2.40174 -2.68307 0
M  V30 4556 C 431.117 1.8223 -4.11233 0
M  V30 4557 C 432.436 3.42024 -2.76961 0
M  V30 4558 H 429.555 0.472036 -0.565996 0
M  V30 4559 H 432.197 0.606914 -1.80046 0
M  V30 4560 H 430.347 2.99463 -2.47495 0
M  V30 4561 H 432.019 1.27096 -4.43446 0
M  V30 4562 H 430.262 1.12832 -4.18869 0
M  V30 4563 H 430.933 2.61793 -4.85972 0
M  V30 4564 H 433.409 2.92672 -2.95774 0
M  V30 4565 H 432.285 4.16383 -3.57654 0
M  V30 4566 H 432.546 4.0173 -1.84568 0
M  V30 4567 N 431.605 1.3629 0.791371 0
M  V30 4568 C 432.535 1.33137 1.91825 0
M  V30 4569 C 433.516 0.203168 1.68882 0
M  V30 4570 O 434.701 0.400509 1.90025 0
M  V30 4571 C 431.831 1.11793 3.28816 0
M  V30 4572 C 430.785 2.21417 3.66277 0
M  V30 4573 C 430.111 1.85218 5.01596 0
M  V30 4574 C 431.411 3.63489 3.75064 0
M  V30 4575 H 433.105 2.2743 1.9472 0
M  V30 4576 H 430.651 1.09479 0.935437 0
M  V30 4577 H 432.604 1.08222 4.07266 0
M  V30 4578 H 431.328 0.139501 3.26302 0
M  V30 4579 H 429.987 2.2411 2.90121 0
M  V30 4580 H 429.635 0.859544 4.95602 0
M  V30 4581 H 429.335 2.58611 5.27631 0
M  V30 4582 H 430.859 1.832 5.82469 0
M  V30 4583 H 432.273 3.63034 4.43711 0
M  V30 4584 H 430.67 4.35771 4.12582 0
M  V30 4585 H 431.74 3.98536 2.76219 0
M  V30 4586 N 433.083 -1.0153 1.20538 0
M  V30 4587 C 434.331 -1.74803 1.01432 0
M  V30 4588 C 434.652 -1.8963 -0.454456 0
M  V30 4589 O 433.922 -1.43975 -1.32846 0
M  V30 4590 H 432.502 -0.647598 0.372324 0
M  V30 4591 H 435.164 -1.22402 1.5167 0
M  V30 4592 H 434.26 -2.75114 1.47373 0
M  V30 4593 N 434.561 -1.01147 -1.20859 0
M  V30 4594 C 435.809 -0.696486 -1.89719 0
M  V30 4595 C 436.13 0.775788 -1.78904 0
M  V30 4596 O 435.4 1.55759 -1.18811 0
M  V30 4597 H 433.98 -0.254628 -0.702263 0
M  V30 4598 H 436.642 -1.28197 -1.46804 0
M  V30 4599 H 435.738 -0.975357 -2.96468 0
M  V30 4600 N 436.039 1.36541 -0.78704 0
M  V30 4601 C 437.287 1.98911 -0.357633 0
M  V30 4602 C 437.608 1.62778 1.07371 0
M  V30 4603 O 436.878 0.900612 1.73971 0
M  V30 4604 H 435.458 0.735734 -0.129246 0
M  V30 4605 H 438.12 1.66776 -1.00855 0
M  V30 4606 H 437.216 3.08874 -0.447549 0
M  V30 4607 N 437.518 0.538854 1.48102 0
M  V30 4608 C 438.766 0.00798599 2.02098 0
M  V30 4609 C 439.087 -1.33922 1.41739 0
M  V30 4610 O 438.357 -1.86932 0.585934 0
M  V30 4611 H 436.937 -3.62179e-05 0.747 0
M  V30 4612 H 439.599 0.7047 1.81714 0
M  V30 4613 H 438.695 -0.0937672 3.11959 0
M  V30 4614 N 438.996 -1.55193 0.274407 0
M  V30 4615 C 440.226 -2.03692 -0.345442 0
M  V30 4616 C 440.634 -1.15224 -1.50067 0
M  V30 4617 O 439.977 -0.164749 -1.8296 0
M  V30 4618 C 440.039 -3.48325 -0.88939 0
M  V30 4619 C 439.703 -4.56794 0.137115 0
M  V30 4620 C 440.7 -5.11028 0.956378 0
M  V30 4621 C 438.385 -5.01568 0.27115 0
M  V30 4622 C 440.379 -6.08552 1.89587 0
M  V30 4623 C 438.066 -5.98918 1.21412 0
M  V30 4624 C 439.064 -6.52291 2.02498 0
M  V30 4625 O 438.752 -7.47738 2.952 0
M  V30 4626 H 438.484 -0.670893 -0.0829332 0
M  V30 4627 H 441.038 -2.01387 0.404056 0
M  V30 4628 H 439.268 -3.47867 -1.68895 0
M  V30 4629 H 440.957 -3.80167 -1.42225 0
M  V30 4630 H 441.723 -4.7725 0.863559 0
M  V30 4631 H 437.602 -4.5967 -0.349987 0
M  V30 4632 H 441.146 -6.50137 2.52918 0
M  V30 4633 H 437.043 -6.32114 1.30776 0
M  V30 4634 H 437.811 -7.65451 2.89874 0
M  V30 4635 N 440.474 -0.00167713 -1.576 0
M  V30 4636 C 441.702 0.693759 -1.94922 0
M  V30 4637 C 442.117 1.67215 -0.876626 0
M  V30 4638 O 441.474 1.81929 0.144279 0
M  V30 4639 C 441.525 1.42416 -3.32265 0
M  V30 4640 O 441.246 0.485014 -4.35407 0
M  V30 4641 C 442.747 2.21395 -3.84056 0
M  V30 4642 H 439.967 0.193118 -0.642609 0
M  V30 4643 H 442.511 -0.0532952 -2.04431 0
M  V30 4644 H 440.666 2.12284 -3.24059 0
M  V30 4645 H 441.08 1.00053 -5.14868 0
M  V30 4646 H 442.554 2.67996 -4.82578 0
M  V30 4647 H 443.031 3.04142 -3.16851 0
M  V30 4648 H 443.637 1.56542 -3.95443 0
M  V30 4649 N 441.952 1.55251 0.271103 0
M  V30 4650 C 443.198 1.76207 1.00394 0
M  V30 4651 C 443.531 0.562604 1.85872 0
M  V30 4652 O 442.806 -0.439785 1.89463 0
M  V30 4653 C 443.089 3.06828 1.8849 0
M  V30 4654 C 442.942 4.37134 1.05992 0
M  V30 4655 C 444.261 3.33503 2.87165 0
M  V30 4656 H 441.38 0.641086 0.363562 0
M  V30 4657 H 444.022 1.87982 0.276189 0
M  V30 4658 H 442.172 2.96921 2.5054 0
M  V30 4659 H 443.844 4.59001 0.459978 0
M  V30 4660 H 442.087 4.32275 0.363443 0
M  V30 4661 H 442.758 5.2486 1.70955 0
M  V30 4662 H 445.234 3.43215 2.3525 0
M  V30 4663 H 444.11 4.2616 3.45946 0
M  V30 4664 H 444.371 2.53235 3.62387 0
M  V30 4665 N 443.43 -0.535701 1.48216 0
M  V30 4666 C 444.846 -0.863701 1.3421 0
M  V30 4667 C 445.046 -1.98458 0.34879 0
M  V30 4668 O 444.102 -2.51432 -0.23204 0
M  V30 4669 C 445.415 -1.23662 2.74095 0
M  V30 4670 C 446.963 -1.34683 2.82541 0
M  V30 4671 C 447.438 -1.75322 4.23115 0
M  V30 4672 N 448.929 -1.82434 4.2576 0
M  V30 4673 C 449.664 -2.15252 5.31464 0
M  V30 4674 N 449.16 -2.46533 6.47452 0
M  V30 4675 N 450.953 -2.16209 5.18855 0
M  V30 4676 H 443.104 0.203965 2.11418 0
M  V30 4677 H 445.367 0.0286033 0.947568 0
M  V30 4678 H 445.073 -0.486674 3.48316 0
M  V30 4679 H 444.947 -2.18805 3.07253 0
M  V30 4680 H 447.334 -2.08756 2.08579 0
M  V30 4681 H 447.415 -0.376756 2.5301 0
M  V30 4682 H 447.059 -1.01812 4.97591 0
M  V30 4683 H 446.989 -2.7337 4.50085 0
M  V30 4684 H 449.48 -1.6056 3.42095 0
M  V30 4685 H 449.793 -2.70662 7.23852 0
M  V30 4686 H 448.138 -2.44065 6.50736 0
M  V30 4687 H 451.329 -1.91224 4.2726 0
M  V30 4688 H 451.502 -2.41453 6.01335 0
M  V30 4689 N 444.908 -1.36708 -0.784132 0
M  V30 4690 C 445.856 -1.31533 -1.91838 0
M  V30 4691 C 446.85 -0.206205 -1.6814 0
M  V30 4692 O 448.056 -0.373519 -1.76082 0
M  V30 4693 H 444.431 -0.409613 -0.630651 0
M  V30 4694 H 446.402 -2.2731 -1.9332 0
M  V30 4695 C 445.151 -1.12679 -3.28936 0
M  V30 4696 H 444.474 -1.97274 -3.4774 0
M  V30 4697 H 445.914 -1.13106 -4.08636 0
M  V30 4698 C 444.373 0.168281 -3.36479 0
M  V30 4699 O 444.903 1.15625 -3.84699 0
M  V30 4700 N 443.109 0.214762 -2.89805 0
M  V30 4701 H 442.656 -0.589852 -2.50756 0
M  V30 4702 H 442.614 1.08094 -2.95234 0
M  V30 4703 N 446.386 1.0089 -1.21074 0
M  V30 4704 C 447.632 1.74866 -1.02712 0
M  V30 4705 C 447.965 1.89178 0.438787 0
M  V30 4706 O 447.24 1.42325 1.32567 0
M  V30 4707 C 447.523 3.16347 -1.72036 0
M  V30 4708 C 447.376 3.09782 -3.26121 0
M  V30 4709 C 448.695 4.15187 -1.45973 0
M  V30 4710 H 445.814 0.634736 -0.374539 0
M  V30 4711 H 448.456 1.17646 -1.49196 0
M  V30 4712 H 446.606 3.65201 -1.32517 0
M  V30 4713 H 448.278 2.68673 -3.74983 0
M  V30 4714 H 446.521 2.46982 -3.56626 0
M  V30 4715 H 447.192 4.09829 -3.6979 0
M  V30 4716 H 449.668 3.75022 -1.80272 0
M  V30 4717 H 448.544 5.12331 -1.96999 0
M  V30 4718 H 448.805 4.40386 -0.388924 0
M  V30 4719 N 447.864 1.01787 1.20321 0
M  V30 4720 C 448.827 0.593972 2.2137 0
M  V30 4721 C 449.827 -0.336553 1.57239 0
M  V30 4722 O 451.017 -0.125069 1.7375 0
M  V30 4723 C 448.149 -0.132433 3.40643 0
M  V30 4724 H 449.342 1.48791 2.60387 0
M  V30 4725 H 446.895 0.807803 1.33807 0
M  V30 4726 H 447.63 -1.04123 3.0713 0
M  V30 4727 H 447.415 0.53605 3.88418 0
M  V30 4728 H 448.905 -0.416314 4.1552 0
M  V30 4729 N 449.342 -1.36122 0.79427 0
M  V30 4730 C 450.758 -1.5232 0.476525 0
M  V30 4731 C 450.958 -1.74685 -1.00436 0
M  V30 4732 O 450.014 -1.78115 -1.78973 0
M  V30 4733 C 451.327 -2.70607 1.31119 0
M  V30 4734 C 452.875 -2.8448 1.30537 0
M  V30 4735 C 453.35 -4.05778 2.12387 0
M  V30 4736 N 454.841 -4.12933 2.09859 0
M  V30 4737 C 455.576 -5.05876 2.69957 0
M  V30 4738 N 455.072 -6.04232 3.38934 0
M  V30 4739 N 456.865 -4.98528 2.59665 0
M  V30 4740 H 449.016 -1.1986 1.75349 0
M  V30 4741 H 451.279 -0.585418 0.745647 0
M  V30 4742 H 450.985 -2.60619 2.36158 0
M  V30 4743 H 450.859 -3.64888 0.955843 0
M  V30 4744 H 453.246 -2.93927 0.262876 0
M  V30 4745 H 453.327 -1.91093 1.70051 0
M  V30 4746 H 452.971 -3.97092 3.1667 0
M  V30 4747 H 452.901 -4.98323 1.70242 0
M  V30 4748 H 455.392 -3.42515 1.59662 0
M  V30 4749 H 455.705 -6.71724 3.82109 0
M  V30 4750 H 454.05 -6.04443 3.43036 0
M  V30 4751 H 457.241 -4.20641 2.05375 0
M  V30 4752 H 457.414 -5.70773 3.06793 0
M  V30 4753 N 450.82 -0.546701 -1.47814 0
M  V30 4754 C 452.06 -0.0209604 -2.04389 0
M  V30 4755 C 452.424 1.29993 -1.413 0
M  V30 4756 O 453.625 1.91273 -1.8886 0
M  V30 4757 C 451.896 0.0812844 -3.57308 0
M  V30 4758 S 453.455 0.55467 -4.3528 0
M  V30 4759 H 450.273 -0.0200865 -0.710716 0
M  V30 4760 H 452.875 -0.731055 -1.81317 0
M  V30 4761 H 451.579 -0.884616 -4.00753 0
M  V30 4762 H 451.11 0.815253 -3.8486 0
M  V30 4763 H 453.125 1.81627 -4.61764 0
M  V30 4764 N 452.299 1.55045 -0.282633 0
M  V30 4765 C 453.545 2.0078 0.325436 0
M  V30 4766 C 453.9 1.1676 1.52921 0
M  V30 4767 O 453.193 0.231475 1.90197 0
M  V30 4768 C 453.387 3.49422 0.750938 0
M  V30 4769 C 453.216 4.47827 -0.410056 0
M  V30 4770 C 451.986 4.97288 -0.896239 0
M  V30 4771 C 454.184 4.98903 -1.24902 0
M  V30 4772 N 452.166 5.79508 -2.02591 0
M  V30 4773 C 453.537 5.78644 -2.22646 0
M  V30 4774 C 455.592 4.81126 -1.2815 0
M  V30 4775 C 454.295 6.42502 -3.23393 0
M  V30 4776 C 456.321 5.45789 -2.27745 0
M  V30 4777 C 455.683 6.25348 -3.24222 0
M  V30 4778 H 451.782 0.77747 0.08405 0
M  V30 4779 H 454.366 1.90369 -0.408368 0
M  V30 4780 H 452.537 3.60159 1.45395 0
M  V30 4781 H 454.269 3.81978 1.33698 0
M  V30 4782 H 451.024 4.71219 -0.474277 0
M  V30 4783 H 451.448 6.25308 -2.59459 0
M  V30 4784 H 456.09 4.19215 -0.549397 0
M  V30 4785 H 453.808 7.03558 -3.97533 0
M  V30 4786 H 457.394 5.33972 -2.31009 0
M  V30 4787 H 456.274 6.74498 -4.00027 0
M  V30 4788 N 453.777 0.010035 1.57597 0
M  V30 4789 C 455.005 -0.683413 1.95287 0
M  V30 4790 C 455.42 -1.66747 0.885481 0
M  V30 4791 O 454.777 -1.82003 -0.134629 0
M  V30 4792 C 454.828 -1.40652 3.33015 0
M  V30 4793 O 454.549 -0.461916 4.35658 0
M  V30 4794 C 456.05 -2.19356 3.85225 0
M  V30 4795 H 453.27 -0.189708 0.643624 0
M  V30 4796 H 455.814 0.0641359 2.04399 0
M  V30 4797 H 453.969 -2.10562 3.2518 0
M  V30 4798 H 454.383 -0.973215 5.15392 0
M  V30 4799 H 455.857 -2.65433 4.83993 0
M  V30 4800 H 456.334 -3.02457 3.18459 0
M  V30 4801 H 456.94 -1.54442 3.96267 0
M  V30 4802 N 455.255 -1.55392 -0.262866 0
M  V30 4803 C 456.485 -1.80251 -1.00961 0
M  V30 4804 C 456.893 -0.58117 -1.80053 0
M  V30 4805 O 456.236 0.459427 -1.77862 0
M  V30 4806 C 456.298 -2.98207 -2.00781 0
M  V30 4807 C 455.962 -4.34856 -1.40533 0
M  V30 4808 C 456.959 -5.13459 -0.815853 0
M  V30 4809 C 454.644 -4.8153 -1.42948 0
M  V30 4810 C 456.638 -6.36875 -0.258562 0
M  V30 4811 C 454.325 -6.04899 -0.868334 0
M  V30 4812 C 455.323 -6.8241 -0.283884 0
M  V30 4813 O 455.011 -8.03451 0.268644 0
M  V30 4814 H 454.743 -0.604049 -0.303482 0
M  V30 4815 H 457.297 -2.03257 -0.295926 0
M  V30 4816 H 455.527 -2.70917 -2.75936 0
M  V30 4817 H 457.216 -3.10299 -2.61667 0
M  V30 4818 H 457.982 -4.78526 -0.789812 0
M  V30 4819 H 453.861 -4.21201 -1.87378 0
M  V30 4820 H 457.405 -6.97318 0.198257 0
M  V30 4821 H 453.302 -6.39312 -0.891649 0
M  V30 4822 H 454.07 -8.18346 0.158974 0
M  V30 4823 N 456.733 0.527833 -1.48498 0
M  V30 4824 C 457.643 1.65907 -1.65867 0
M  V30 4825 C 458.659 1.6537 -0.541192 0
M  V30 4826 O 459.835 1.84282 -0.812534 0
M  V30 4827 C 456.9 3.02364 -1.69637 0
M  V30 4828 C 455.961 3.1374 -2.93028 0
M  V30 4829 C 455.194 4.43688 -2.96609 0
M  V30 4830 O 455.417 5.30913 -2.08538 0
M  V30 4831 O 454.351 4.59475 -3.88802 0
M  V30 4832 H 458.177 1.5419 -2.61647 0
M  V30 4833 H 455.762 0.701163 -1.31924 0
M  V30 4834 H 457.644 3.83515 -1.74625 0
M  V30 4835 H 456.319 3.14401 -0.770312 0
M  V30 4836 H 455.226 2.31877 -2.93571 0
M  V30 4837 H 456.559 3.06621 -3.85026 0
M  V30 4838 N 458.211 1.37122 0.776871 0
M  V30 4839 C 459.439 1.3523 1.5659 0
M  V30 4840 C 459.854 -0.0635518 1.88693 0
M  V30 4841 O 459.211 -1.02394 1.51069 0
M  V30 4842 C 459.262 2.18583 2.8793 0
M  V30 4843 O 458.983 3.5465 2.57206 0
M  V30 4844 C 460.484 2.24612 3.82183 0
M  V30 4845 H 457.704 0.4634 0.485285 0
M  V30 4846 H 460.248 1.80392 0.963266 0
M  V30 4847 H 458.403 1.76943 3.4463 0
M  V30 4848 H 458.817 3.98286 3.41275 0
M  V30 4849 H 460.291 2.87267 4.71361 0
M  V30 4850 H 460.768 1.25309 4.20944 0
M  V30 4851 H 461.374 2.66543 3.31414 0
M  V30 4852 N 459.689 -1.00246 1.21608 0
M  V30 4853 C 460.914 -1.78167 1.06167 0
M  V30 4854 C 461.339 -1.84138 -0.384035 0
M  V30 4855 O 460.697 -1.28683 -1.27712 0
M  V30 4856 C 460.745 -3.19786 1.66642 0
M  V30 4857 O 459.849 -4.02153 0.913613 0
M  V30 4858 H 459.19 -0.549 0.37349 0
M  V30 4859 H 461.72 -1.25994 1.61204 0
M  V30 4860 H 461.73 -3.70451 1.70969 0
M  V30 4861 H 460.405 -3.14754 2.7185 0
M  V30 4862 H 458.982 -3.60711 0.945635 0
M  V30 4863 N 461.167 -1.02423 -1.1978 0
M  V30 4864 C 462.097 -0.62157 -2.25075 0
M  V30 4865 C 463.078 0.367148 -1.6609 0
M  V30 4866 O 464.263 0.250892 -1.92573 0
M  V30 4867 C 461.393 0.0331826 -3.47284 0
M  V30 4868 C 460.347 -0.877323 -4.18912 0
M  V30 4869 C 459.673 -0.0879296 -5.34628 0
M  V30 4870 C 460.973 -2.18892 -4.74219 0
M  V30 4871 H 462.667 -1.50179 -2.59011 0
M  V30 4872 H 460.213 -0.723547 -1.24502 0
M  V30 4873 H 462.166 0.326488 -4.20133 0
M  V30 4874 H 460.89 0.948164 -3.12534 0
M  V30 4875 H 459.549 -1.15475 -3.47938 0
M  V30 4876 H 459.197 0.828941 -4.96123 0
M  V30 4877 H 458.897 -0.694359 -5.83483 0
M  V30 4878 H 460.421 0.198743 -6.10276 0
M  V30 4879 H 461.835 -1.95746 -5.38847 0
M  V30 4880 H 460.232 -2.74686 -5.33542 0
M  V30 4881 H 461.302 -2.84674 -3.92541 0
M  V30 4882 N 462.645 1.35699 -0.801477 0
M  V30 4883 C 463.575 2.32436 -0.222658 0
M  V30 4884 C 464.556 1.5723 0.649057 0
M  V30 4885 O 465.741 1.85324 0.580387 0
M  V30 4886 C 462.871 3.41469 0.633719 0
M  V30 4887 C 461.825 4.27774 -0.139083 0
M  V30 4888 C 461.151 5.28082 0.838666 0
M  V30 4889 C 462.451 5.04946 -1.33517 0
M  V30 4890 H 464.145 2.81094 -1.03086 0
M  V30 4891 H 461.691 1.35146 -0.497155 0
M  V30 4892 H 463.644 4.08143 1.04868 0
M  V30 4893 H 462.368 2.91408 1.47475 0
M  V30 4894 H 461.027 3.62673 -0.535156 0
M  V30 4895 H 460.675 4.7429 1.67506 0
M  V30 4896 H 460.375 5.86695 0.32594 0
M  V30 4897 H 461.899 5.97628 1.25194 0
M  V30 4898 H 463.313 5.64593 -0.995349 0
M  V30 4899 H 461.71 5.7303 -1.78202 0
M  V30 4900 H 462.78 4.35886 -2.12442 0
M  V30 4901 N 464.123 0.554532 1.47522 0
M  V30 4902 C 465.369 0.0295227 2.02779 0
M  V30 4903 C 465.702 -1.31582 1.42828 0
M  V30 4904 O 464.977 -1.85561 0.582872 0
M  V30 4905 C 465.26 -0.0664057 3.60039 0
M  V30 4906 C 465.113 1.30585 4.30427 0
M  V30 4907 C 466.432 -0.781162 4.33112 0
M  V30 4908 H 463.551 0.0122027 0.736899 0
M  V30 4909 H 466.193 0.716305 1.7598 0
M  V30 4910 H 464.343 -0.651307 3.83002 0
M  V30 4911 H 466.015 1.93374 4.18813 0
M  V30 4912 H 464.258 1.88125 3.90886 0
M  V30 4913 H 464.929 1.19147 5.38988 0
M  V30 4914 H 467.405 -0.284565 4.15126 0
M  V30 4915 H 466.281 -0.817237 5.42782 0
M  V30 4916 H 466.542 -1.83672 4.0214 0
M  V30 4917 N 465.601 -1.54893 0.290851 0
M  V30 4918 C 466.511 -2.26812 -0.59945 0
M  V30 4919 C 467.527 -1.29963 -1.15696 0
M  V30 4920 O 468.703 -1.62928 -1.18391 0
M  V30 4921 C 465.768 -2.98716 -1.75982 0
M  V30 4922 C 464.829 -4.1108 -1.2374 0
M  V30 4923 C 464.062 -4.79546 -2.34246 0
M  V30 4924 O 464.285 -4.47309 -3.53936 0
M  V30 4925 O 463.219 -5.67165 -2.01512 0
M  V30 4926 H 467.045 -3.03696 -0.0163561 0
M  V30 4927 H 464.63 -1.49289 0.0576755 0
M  V30 4928 H 466.512 -3.43851 -2.43607 0
M  V30 4929 H 465.187 -2.24737 -2.3297 0
M  V30 4930 H 464.094 -3.70367 -0.527163 0
M  V30 4931 H 465.427 -4.87007 -0.71307 0
M  V30 4932 N 467.08 -0.0183926 -1.57589 0
M  V30 4933 C 467.99 0.982943 -2.13015 0
M  V30 4934 C 469.006 1.36443 -1.07979 0
M  V30 4935 O 470.182 1.44802 -1.3998 0
M  V30 4936 C 467.247 2.25024 -2.63752 0
M  V30 4937 C 466.308 1.93018 -3.83461 0
M  V30 4938 C 465.541 3.13706 -4.31769 0
M  V30 4939 O 465.764 4.2601 -3.79305 0
M  V30 4940 O 464.698 2.96629 -5.23732 0
M  V30 4941 H 468.524 0.541709 -2.9883 0
M  V30 4942 H 466.109 0.201565 -1.48034 0
M  V30 4943 H 467.991 2.99441 -2.96502 0
M  V30 4944 H 466.666 2.68349 -1.81026 0
M  V30 4945 H 465.573 1.16019 -3.55655 0
M  V30 4946 H 466.906 1.54516 -4.67317 0
M  V30 4947 N 468.558 1.5553 0.254621 0
M  V30 4948 C 469.521 1.88872 1.29846 0
M  V30 4949 C 470.521 0.764591 1.41459 0
M  V30 4950 O 471.711 1.03265 1.40293 0
M  V30 4951 C 468.843 2.11032 2.67728 0
M  V30 4952 H 470.036 2.82201 1.01502 0
M  V30 4953 H 467.589 1.48303 0.493556 0
M  V30 4954 H 468.324 1.20146 3.01223 0
M  V30 4955 H 468.109 2.92895 2.60682 0
M  V30 4956 H 469.599 2.38038 3.43115 0
M  V30 4957 N 470.036 -0.519951 1.48776 0
M  V30 4958 C 471.285 -1.27175 1.56555 0
M  V30 4959 C 471.598 -1.9401 0.248869 0
M  V30 4960 O 472.804 -2.70725 0.205004 0
M  V30 4961 C 471.26 -2.30811 2.76142 0
M  V30 4962 C 470.868 -1.7 4.14493 0
M  V30 4963 C 472.612 -3.06937 2.9324 0
M  V30 4964 C 470.519 -2.71635 5.25327 0
M  V30 4965 H 469.449 -0.478329 0.582853 0
M  V30 4966 H 472.1 -0.547916 1.75129 0
M  V30 4967 H 470.482 -3.06274 2.51023 0
M  V30 4968 H 471.656 -1.00658 4.49672 0
M  V30 4969 H 469.971 -1.06331 4.02595 0
M  V30 4970 H 472.568 -3.82905 3.73213 0
M  V30 4971 H 472.911 -3.63409 2.03075 0
M  V30 4972 H 473.444 -2.38589 3.18308 0
M  V30 4973 H 470.183 -2.1997 6.1749 0
M  V30 4974 H 469.703 -3.39275 4.94624 0
M  V30 4975 H 471.382 -3.34429 5.53865 0
M  V30 4976 N 471.514 -1.37532 -0.769588 0
M  V30 4977 C 472.739 -1.36231 -1.56384 0
M  V30 4978 C 473.164 0.0495849 -1.88035 0
M  V30 4979 O 472.522 1.02723 -1.49391 0
M  V30 4980 C 472.57 -2.20986 -2.84952 0
M  V30 4981 O 471.674 -1.61597 -3.79421 0
M  V30 4982 H 471.015 -0.465387 -0.473615 0
M  V30 4983 H 473.545 -1.81085 -0.952342 0
M  V30 4984 H 473.555 -2.34277 -3.34034 0
M  V30 4985 H 472.23 -3.23612 -2.61243 0
M  V30 4986 H 470.807 -1.57359 -3.38072 0
M  V30 4987 N 472.992 0.995999 -1.22138 0
M  V30 4988 C 473.902 2.11985 -1.00496 0
M  V30 4989 C 474.918 1.7394 0.0457701 0
M  V30 4990 O 476.094 2.00868 -0.146273 0
M  V30 4991 C 473.159 3.41779 -0.582086 0
M  V30 4992 C 472.22 3.93943 -1.70608 0
M  V30 4993 C 471.453 5.17542 -1.30328 0
M  V30 4994 O 471.676 5.70114 -0.180743 0
M  V30 4995 O 470.61 5.63382 -2.11861 0
M  V30 4996 H 474.436 2.33123 -1.94647 0
M  V30 4997 H 472.021 1.10358 -1.00705 0
M  V30 4998 H 473.903 4.1989 -0.356467 0
M  V30 4999 H 472.578 3.22007 0.330592 0
M  V30 5000 H 471.485 3.17019 -1.98619 0
M  V30 5001 H 472.818 4.18141 -2.59651 0
M  V30 5002 N 474.47 1.03057 1.19235 0
M  V30 5003 C 475.38 0.622922 2.26179 0
M  V30 5004 C 476.396 -0.346113 1.70523 0
M  V30 5005 O 477.572 -0.203572 2.00369 0
M  V30 5006 C 474.637 -0.0182063 3.46695 0
M  V30 5007 C 473.698 0.998546 4.17526 0
M  V30 5008 C 472.931 0.387917 5.32288 0
M  V30 5009 O 473.154 -0.808668 5.64639 0
M  V30 5010 O 472.088 1.1116 5.91546 0
M  V30 5011 H 475.914 1.51363 2.63292 0
M  V30 5012 H 473.499 0.800856 1.26122 0
M  V30 5013 H 475.381 -0.375606 4.19723 0
M  V30 5014 H 474.056 -0.882895 3.11427 0
M  V30 5015 H 472.963 1.40756 3.4661 0
M  V30 5016 H 474.296 1.83366 4.56769 0
M  V30 5017 N 475.948 -1.35272 0.808662 0
M  V30 5018 C 476.878 -2.32315 0.234981 0
M  V30 5019 C 477.859 -1.57572 -0.64071 0
M  V30 5020 O 479.044 -1.8563 -0.570551 0
M  V30 5021 C 476.174 -3.41801 -0.615601 0
M  V30 5022 C 475.128 -4.27694 0.161767 0
M  V30 5023 C 474.454 -5.28519 -0.810649 0
M  V30 5024 C 475.754 -5.04231 1.36193 0
M  V30 5025 H 477.448 -2.80543 1.04575 0
M  V30 5026 H 474.994 -1.3488 0.504315 0
M  V30 5027 H 476.947 -4.08693 -1.02702 0
M  V30 5028 H 475.671 -2.92186 -1.45928 0
M  V30 5029 H 474.33 -3.62384 0.554382 0
M  V30 5030 H 473.978 -4.75171 -1.64988 0
M  V30 5031 H 473.678 -5.8686 -0.294822 0
M  V30 5032 H 475.202 -5.98283 -1.22023 0
M  V30 5033 H 476.616 -5.64058 1.02528 0
M  V30 5034 H 475.013 -5.72077 1.81239 0
M  V30 5035 H 476.083 -4.34753 2.14751 0
M  V30 5036 N 477.426 -0.562348 -1.47226 0
M  V30 5037 C 478.837 -0.130325 -1.86245 0
M  V30 5038 C 479.188 1.30128 -1.46838 0
M  V30 5039 O 478.313 1.97974 -0.873805 0
M  V30 5040 C 478.908 -0.229738 -3.3802 0
M  V30 5041 C 477.467 0.14728 -3.76112 0
M  V30 5042 C 476.614 -0.574971 -2.71274 0
M  V30 5043 H 479.565 -0.771773 -1.3867 0
M  V30 5044 H 479.586 0.550316 -3.76499 0
M  V30 5045 H 479.098 -1.27178 -3.66671 0
M  V30 5046 H 477.199 1.19023 -3.53078 0
M  V30 5047 H 477.312 -0.214858 -4.78618 0
M  V30 5048 H 475.676 -0.0174756 -2.54694 0
M  V30 5049 H 476.459 -1.61827 -3.02766 0
M  V30 5050 N 478.904 1.54736 -0.299062 0
M  V30 5051 C 480.134 2.04215 0.312992 0
M  V30 5052 C 480.542 1.17596 1.48215 0
M  V30 5053 O 479.885 0.193835 1.82674 0
M  V30 5054 C 479.947 3.49696 0.833862 0
M  V30 5055 C 479.611 4.56518 -0.20977 0
M  V30 5056 C 480.608 5.09442 -1.03756 0
M  V30 5057 C 478.293 5.01073 -0.35091 0
M  V30 5058 C 480.287 6.05459 -1.99244 0
M  V30 5059 C 477.974 5.9691 -1.30924 0
M  V30 5060 C 478.972 6.48987 -2.1285 0
M  V30 5061 O 478.66 7.42947 -3.07059 0
M  V30 5062 H 478.392 0.672128 0.0722494 0
M  V30 5063 H 480.946 2.00718 -0.436043 0
M  V30 5064 H 479.176 3.5051 1.63339 0
M  V30 5065 H 480.865 3.82381 1.36159 0
M  V30 5066 H 481.631 4.75816 -0.939376 0
M  V30 5067 H 477.51 4.60168 0.276813 0
M  V30 5068 H 481.054 6.46031 -2.63229 0
M  V30 5069 H 476.951 6.29953 -1.40815 0
M  V30 5070 H 477.719 7.60743 -3.02015 0
M  V30 5071 N 480.382 0.0267497 1.57577 0
M  V30 5072 C 481.607 -0.666227 1.96408 0
M  V30 5073 C 482.032 -1.65004 0.903071 0
M  V30 5074 O 481.39 -1.80787 -0.136263 0
M  V30 5075 C 481.438 -1.35101 3.34335 0
M  V30 5076 O 480.542 -2.46623 3.30531 0
M  V30 5077 H 479.883 -0.175206 0.640468 0
M  V30 5078 H 482.413 0.0878977 2.04411 0
M  V30 5079 H 482.423 -1.70834 3.70513 0
M  V30 5080 H 481.098 -0.629844 4.11103 0
M  V30 5081 H 479.675 -2.13019 3.06068 0
M  V30 5082 N 481.861 -1.55662 -0.24637 0
M  V30 5083 C 482.771 -1.93495 -1.32653 0
M  V30 5084 C 483.787 -0.835462 -1.5263 0
M  V30 5085 O 484.963 -1.1369 -1.66242 0
M  V30 5086 C 482.028 -2.22242 -2.66101 0
M  V30 5087 C 481.089 -3.45625 -2.54641 0
M  V30 5088 C 480.322 -3.72991 -3.81724 0
M  V30 5089 O 480.545 -3.02421 -4.8363 0
M  V30 5090 O 479.479 -4.66515 -3.80325 0
M  V30 5091 H 483.305 -2.85498 -1.03559 0
M  V30 5092 H 480.89 -1.42551 -0.44717 0
M  V30 5093 H 482.772 -2.42037 -3.44958 0
M  V30 5094 H 481.447 -1.33417 -2.94926 0
M  V30 5095 H 480.354 -3.31136 -1.74067 0
M  V30 5096 H 481.687 -4.34754 -2.3076 0
M  V30 5097 N 483.339 0.512053 -1.4905 0
M  V30 5098 C 484.569 1.28928 -1.61434 0
M  V30 5099 C 484.977 1.87107 -0.280647 0
M  V30 5100 O 484.32 1.68024 0.742537 0
M  V30 5101 C 484.382 2.466 -2.61588 0
M  V30 5102 C 484.046 2.09375 -4.06216 0
M  V30 5103 C 485.043 1.63994 -4.93358 0
M  V30 5104 C 482.728 2.19348 -4.51876 0
M  V30 5105 C 484.722 1.29076 -6.24194 0
M  V30 5106 C 482.409 1.84041 -5.82728 0
M  V30 5107 C 483.407 1.38978 -6.68711 0
M  V30 5108 O 483.095 1.04144 -7.97126 0
M  V30 5109 H 482.827 0.397668 -0.546659 0
M  V30 5110 H 485.381 0.622507 -1.9574 0
M  V30 5111 H 483.611 3.16318 -2.22441 0
M  V30 5112 H 485.3 3.08642 -2.63619 0
M  V30 5113 H 486.066 1.55744 -4.59313 0
M  V30 5114 H 481.945 2.53376 -3.85125 0
M  V30 5115 H 485.489 0.938303 -6.91261 0
M  V30 5116 H 481.386 1.91938 -6.16304 0
M  V30 5117 H 482.154 1.17387 -8.10039 0
M  V30 5118 N 484.817 1.37938 0.762283 0
M  V30 5119 C 486.064 1.33668 1.52115 0
M  V30 5120 C 486.392 -0.0759538 1.94352 0
M  V30 5121 O 485.647 -1.05121 1.6507 0
M  V30 5122 C 485.946 2.23042 2.79261 0
M  V30 5123 C 485.612 3.71159 2.56031 0
M  V30 5124 C 484.274 4.11523 2.49404 0
M  V30 5125 C 486.626 4.64955 2.35513 0
M  V30 5126 C 483.954 5.43784 2.20263 0
M  V30 5127 C 486.306 5.97464 2.07894 0
M  V30 5128 C 484.97 6.36922 1.99718 0
M  V30 5129 H 484.24 0.489127 0.556629 0
M  V30 5130 H 486.887 1.70224 0.877262 0
M  V30 5131 H 485.192 1.79512 3.48256 0
M  V30 5132 H 486.889 2.17047 3.37182 0
M  V30 5133 H 483.479 3.39153 2.62056 0
M  V30 5134 H 487.663 4.34623 2.39617 0
M  V30 5135 H 482.919 5.73307 2.12435 0
M  V30 5136 H 487.093 6.6969 1.91019 0
M  V30 5137 H 484.72 7.39331 1.76902 0
M  V30 5138 N 486.295 -0.989507 1.22664 0
M  V30 5139 C 487.205 -2.11449 1.01619 0
M  V30 5140 C 488.221 -1.73962 -0.036545 0
M  V30 5141 O 489.397 -2.00788 0.156924 0
M  V30 5142 C 486.462 -3.41465 0.600204 0
M  V30 5143 C 485.523 -3.93033 1.72695 0
M  V30 5144 C 484.756 -5.16844 1.33071 0
M  V30 5145 O 484.979 -5.7001 0.210975 0
M  V30 5146 O 483.913 -5.6225 2.14845 0
M  V30 5147 H 487.739 -2.32088 1.9588 0
M  V30 5148 H 485.324 -1.09823 1.01289 0
M  V30 5149 H 487.206 -4.19695 0.37873 0
M  V30 5150 H 485.881 -3.22178 -0.313511 0
M  V30 5151 H 484.788 -3.15961 2.00298 0
M  V30 5152 H 486.121 -4.16758 2.61865 0
M  V30 5153 N 487.773 -1.03688 -1.18687 0
M  V30 5154 C 489.003 -0.756819 -1.92239 0
M  V30 5155 C 489.411 0.689374 -1.76194 0
M  V30 5156 O 488.754 1.48126 -1.08648 0
M  V30 5157 C 488.816 -1.03851 -3.44173 0
M  V30 5158 C 488.48 -2.47785 -3.83994 0
M  V30 5159 C 489.477 -3.4595 -3.88091 0
M  V30 5160 C 487.162 -2.82397 -4.154 0
M  V30 5161 C 489.156 -4.76779 -4.23038 0
M  V30 5162 C 486.843 -4.13433 -4.50018 0
M  V30 5163 C 487.841 -5.10434 -4.53813 0
M  V30 5164 O 487.529 -6.39122 -4.87625 0
M  V30 5165 H 487.261 -0.275678 -0.617234 0
M  V30 5166 H 489.815 -1.38658 -1.51536 0
M  V30 5167 H 488.045 -0.351612 -3.85098 0
M  V30 5168 H 489.734 -0.746846 -3.9897 0
M  V30 5169 H 490.5 -3.20549 -3.63969 0
M  V30 5170 H 486.379 -2.07568 -4.11627 0
M  V30 5171 H 489.923 -5.52488 -4.25914 0
M  V30 5172 H 485.82 -4.38604 -4.736 0
M  V30 5173 H 486.588 -6.43715 -5.05542 0
M  V30 5174 N 489.251 1.34841 -0.815825 0
M  V30 5175 C 490.498 1.98499 -0.400535 0
M  V30 5176 C 490.826 1.64699 1.03463 0
M  V30 5177 O 490.081 0.907006 1.73412 0
M  V30 5178 C 490.38 3.53273 -0.541541 0
M  V30 5179 C 490.046 4.06966 -1.94138 0
M  V30 5180 C 488.708 4.21341 -2.32433 0
M  V30 5181 C 491.06 4.35933 -2.85677 0
M  V30 5182 C 488.388 4.62007 -3.61617 0
M  V30 5183 C 490.74 4.78042 -4.14317 0
M  V30 5184 C 489.404 4.90622 -4.52599 0
M  V30 5185 H 488.674 0.72636 -0.146566 0
M  V30 5186 H 491.321 1.60902 -1.0384 0
M  V30 5187 H 489.626 3.91387 0.179741 0
M  V30 5188 H 491.323 4.00497 -0.20085 0
M  V30 5189 H 487.913 3.96235 -1.63388 0
M  V30 5190 H 492.097 4.24372 -2.57337 0
M  V30 5191 H 487.353 4.69937 -3.91113 0
M  V30 5192 H 491.527 4.99415 -4.85342 0
M  V30 5193 H 489.154 5.2189 -5.52752 0
M  V30 5194 N 490.729 0.570148 1.46925 0
M  V30 5195 C 491.692 -0.159933 2.28641 0
M  V30 5196 C 492.692 -0.830638 1.37685 0
M  V30 5197 O 493.882 -0.684516 1.60187 0
M  V30 5198 C 491.014 -1.2354 3.17727 0
M  V30 5199 H 492.207 0.558035 2.94662 0
M  V30 5200 H 489.76 0.327603 1.52828 0
M  V30 5201 H 490.495 -1.98535 2.56426 0
M  V30 5202 H 490.28 -0.759125 3.84681 0
M  V30 5203 H 491.77 -1.74782 3.79264 0
M  V30 5204 N 492.207 -1.54576 0.307264 0
M  V30 5205 C 493.618 -1.8579 -0.184121 0
M  V30 5206 C 493.969 -1.22914 -1.52927 0
M  V30 5207 O 493.094 -0.529126 -2.09831 0
M  V30 5208 C 493.689 -3.37081 -0.340862 0
M  V30 5209 C 492.248 -3.68304 -0.776465 0
M  V30 5210 C 491.395 -2.77076 0.111503 0
M  V30 5211 H 494.346 -1.49656 0.528078 0
M  V30 5212 H 494.367 -3.61922 -1.17443 0
M  V30 5213 H 493.879 -3.82815 0.638309 0
M  V30 5214 H 491.98 -3.28092 -1.76596 0
M  V30 5215 H 492.093 -4.75434 -0.591512 0
M  V30 5216 H 490.457 -2.51374 -0.410256 0
M  V30 5217 H 491.24 -3.25632 1.08714 0
M  V30 5218 N 493.685 -0.035106 -1.57561 0
M  V30 5219 C 494.962 0.681212 -1.83354 0
M  V30 5220 C 495.342 1.89986 -0.920252 0
M  V30 5221 O 494.69 2.28489 0.0226815 0
M  V30 5222 C 494.9 1.05376 -3.32712 0
M  V30 5223 C 496.248 1.44286 -3.99333 0
M  V30 5224 O 497.272 1.14656 -3.37242 0
M  V30 5225 O 496.131 1.99518 -5.08778 0
M  V30 5226 H 493.225 0.334741 -0.756226 0
M  V30 5227 H 495.771 -0.0632448 -1.69582 0
M  V30 5228 H 494.543 0.186668 -3.90854 0
M  V30 5229 H 494.166 1.85619 -3.51613 0
M  V30 5230 N 495.163 1.55791 0.238111 0
M  V30 5231 C 496.41 1.78033 0.964907 0
M  V30 5232 C 496.738 0.600984 1.84982 0
M  V30 5233 O 495.993 -0.41536 1.91241 0
M  V30 5234 C 496.292 3.05869 1.84875 0
M  V30 5235 C 495.958 4.36808 1.11846 0
M  V30 5236 C 494.62 4.72388 0.916662 0
M  V30 5237 C 496.972 5.17717 0.60151 0
M  V30 5238 C 494.3 5.86406 0.185756 0
M  V30 5239 C 496.652 6.32494 -0.115972 0
M  V30 5240 C 495.316 6.66688 -0.329168 0
M  V30 5241 H 494.586 0.651469 0.353085 0
M  V30 5242 H 497.233 1.90061 0.234318 0
M  V30 5243 H 495.538 2.88891 2.64668 0
M  V30 5244 H 497.235 3.20278 2.41294 0
M  V30 5245 H 493.825 4.08862 1.28569 0
M  V30 5246 H 498.009 4.90678 0.744932 0
M  V30 5247 H 493.265 6.11399 0.0101886 0
M  V30 5248 H 497.439 6.94425 -0.524127 0
M  V30 5249 H 495.066 7.54884 -0.897474 0
M  V30 5250 N 496.642 -0.504142 1.49319 0
M  V30 5251 C 497.87 -1.28256 1.62351 0
M  V30 5252 C 498.285 -1.86502 0.293682 0
M  V30 5253 O 497.642 -1.67678 -0.720449 0
M  V30 5254 C 497.693 -2.41507 2.68992 0
M  V30 5255 O 497.414 -1.85656 3.96817 0
M  V30 5256 C 498.915 -3.32929 2.927 0
M  V30 5257 H 496.135 -0.389115 0.546654 0
M  V30 5258 H 498.679 -0.605531 1.95329 0
M  V30 5259 H 496.834 -3.05046 2.38801 0
M  V30 5260 H 497.248 -2.59981 4.55533 0
M  V30 5261 H 498.722 -4.0868 3.71058 0
M  V30 5262 H 499.199 -3.89733 2.02496 0
M  V30 5263 H 499.805 -2.75158 3.24296 0
M  V30 5264 N 498.12 -1.38341 -0.754957 0
M  V30 5265 C 499.05 -1.38176 -1.88227 0
M  V30 5266 C 500.031 -0.247873 -1.68284 0
M  V30 5267 O 501.216 -0.45075 -1.88896 0
M  V30 5268 C 498.346 -1.20471 -3.25736 0
M  V30 5269 C 497.3 -2.3105 -3.60278 0
M  V30 5270 C 496.626 -1.98452 -4.96509 0
M  V30 5271 C 497.926 -3.73305 -3.65295 0
M  V30 5272 H 499.62 -2.32512 -1.88622 0
M  V30 5273 H 497.166 -1.1192 -0.906082 0
M  V30 5274 H 499.119 -1.18982 -4.04254 0
M  V30 5275 H 497.843 -0.225965 -3.25817 0
M  V30 5276 H 496.502 -2.31723 -2.84078 0
M  V30 5277 H 496.15 -0.990641 -4.93148 0
M  V30 5278 H 495.85 -2.7251 -5.20588 0
M  V30 5279 H 497.374 -1.98578 -5.77407 0
M  V30 5280 H 498.788 -3.7467 -4.3393 0
M  V30 5281 H 497.185 -4.46557 -4.00883 0
M  V30 5282 H 498.255 -4.05719 -2.65556 0
M  V30 5283 N 499.598 0.982988 -1.23187 0
M  V30 5284 C 500.548 2.05962 -0.977942 0
M  V30 5285 C 501.532 1.60725 0.0751148 0
M  V30 5286 O 502.724 1.76471 -0.136683 0
M  V30 5287 C 499.853 3.38564 -0.568276 0
M  V30 5288 C 498.939 3.90407 -1.6566 0
M  V30 5289 N 499.33 4.15359 -2.88635 0
M  V30 5290 C 497.628 4.18915 -1.53058 0
M  V30 5291 C 498.329 4.57642 -3.5908 0
M  V30 5292 N 497.305 4.6192 -2.86584 0
M  V30 5293 H 501.107 2.23208 -1.91195 0
M  V30 5294 H 498.621 1.16555 -1.13087 0
M  V30 5295 H 500.618 4.15276 -0.36764 0
M  V30 5296 H 499.278 3.22712 0.358713 0
M  V30 5297 H 500.289 4.03258 -3.24966 0
M  V30 5298 H 496.966 4.12081 -0.670506 0
M  V30 5299 H 498.356 4.85488 -4.6449 0
M  V30 5300 N 501.076 1.04316 1.18135 0
M  V30 5301 C 502.487 0.775505 1.69832 0
M  V30 5302 C 502.838 -0.703348 1.8316 0
M  V30 5303 O 501.963 -1.54729 1.51287 0
M  V30 5304 C 502.558 1.40112 3.0847 0
M  V30 5305 C 501.117 1.18172 3.57368 0
M  V30 5306 C 500.264 1.49022 2.33854 0
M  V30 5307 H 503.215 1.20925 1.02775 0
M  V30 5308 H 503.236 0.805672 3.71873 0
M  V30 5309 H 502.748 2.47744 2.98738 0
M  V30 5310 H 500.849 0.124258 3.72393 0
M  V30 5311 H 500.962 1.8805 4.40652 0
M  V30 5312 H 499.326 0.909995 2.37889 0
M  V30 5313 H 500.109 2.57768 2.26738 0
M  V30 5314 N 502.554 -1.34406 0.822964 0
M  V30 5315 C 503.831 -1.92733 0.333641 0
M  V30 5316 C 504.211 -1.75107 -1.17901 0
M  V30 5317 O 503.559 -1.12983 -1.98613 0
M  V30 5318 C 503.769 -3.40557 0.763023 0
M  V30 5319 C 505.117 -4.17709 0.761879 0
M  V30 5320 O 506.141 -3.49141 0.705606 0
M  V30 5321 O 505 -5.40082 0.835109 0
M  V30 5322 H 502.094 -0.821964 0.0911249 0
M  V30 5323 H 504.64 -1.4338 0.907757 0
M  V30 5324 H 503.412 -3.47187 1.8049 0
M  V30 5325 H 503.035 -3.97259 0.164605 0
M  V30 5326 N 504.032 -0.577932 -1.46621 0
M  V30 5327 C 505.278 -0.0617793 -2.02706 0
M  V30 5328 C 505.611 1.29294 -1.44903 0
M  V30 5329 O 504.886 1.8461 -0.61232 0
M  V30 5330 C 505.169 0.00911824 -3.60099 0
M  V30 5331 C 505.022 -1.37416 -4.28295 0
M  V30 5332 C 506.341 0.712159 -4.343 0
M  V30 5333 H 503.46 -0.0239246 -0.736612 0
M  V30 5334 H 506.102 -0.744211 -1.74818 0
M  V30 5335 H 504.252 0.590292 -3.83989 0
M  V30 5336 H 505.924 -2.00013 -4.15683 0
M  V30 5337 H 504.167 -1.94319 -3.87843 0
M  V30 5338 H 504.838 -1.27707 -5.37024 0
M  V30 5339 H 507.314 0.218486 -4.15526 0
M  V30 5340 H 506.19 0.730782 -5.44014 0
M  V30 5341 H 506.451 1.77251 -4.05012 0
M  V30 5342 N 505.51 1.54411 -0.315457 0
M  V30 5343 C 506.735 2.05299 0.294496 0
M  V30 5344 C 507.16 1.19052 1.4563 0
M  V30 5345 O 506.518 0.197804 1.80218 0
M  V30 5346 C 506.566 3.5345 0.714549 0
M  V30 5347 O 505.67 3.70175 1.81781 0
M  V30 5348 H 505.011 0.661743 0.0547019 0
M  V30 5349 H 507.541 1.99327 -0.461508 0
M  V30 5350 H 507.551 3.9557 0.999426 0
M  V30 5351 H 506.226 4.1568 -0.135244 0
M  V30 5352 H 504.803 3.3996 1.53236 0
M  V30 5353 N 506.988 0.0434614 1.5754 0
M  V30 5354 C 508.216 -0.641835 1.96693 0
M  V30 5355 C 508.631 -1.64832 0.920652 0
M  V30 5356 O 507.988 -1.82247 -0.095993 0
M  V30 5357 C 508.039 -1.33557 3.35924 0
M  V30 5358 O 507.76 -0.369403 4.3654 0
M  V30 5359 C 509.261 -2.11135 3.89791 0
M  V30 5360 H 506.481 -0.176013 0.647503 0
M  V30 5361 H 509.025 0.107478 2.04217 0
M  V30 5362 H 507.18 -2.03617 3.29574 0
M  V30 5363 H 507.594 -0.863674 5.1734 0
M  V30 5364 H 509.068 -2.55107 4.89514 0
M  V30 5365 H 509.545 -2.95634 3.24803 0
M  V30 5366 H 510.151 -1.46002 3.99454 0
M  V30 5367 N 508.466 -1.55915 -0.229846 0
M  V30 5368 C 509.882 -1.48721 -0.579166 0
M  V30 5369 C 510.082 -0.736976 -1.87539 0
M  V30 5370 O 509.138 -0.273258 -2.51017 0
M  V30 5371 C 510.451 -2.9323 -0.666082 0
M  V30 5372 C 511.999 -3.03701 -0.757267 0
M  V30 5373 C 512.474 -4.49552 -0.8756 0
M  V30 5374 N 513.965 -4.53561 -0.940035 0
M  V30 5375 C 514.7 -5.63683 -1.05116 0
M  V30 5376 N 514.196 -6.83576 -1.12675 0
M  V30 5377 N 515.989 -5.51516 -1.08565 0
M  V30 5378 H 508.14 -2.03123 0.620857 0
M  V30 5379 H 510.403 -0.922898 0.21671 0
M  V30 5380 H 510.109 -3.51032 0.21664 0
M  V30 5381 H 509.983 -3.44668 -1.53243 0
M  V30 5382 H 512.37 -2.45969 -1.63043 0
M  V30 5383 H 512.451 -2.55446 0.134583 0
M  V30 5384 H 512.095 -5.079 -0.00692351 0
M  V30 5385 H 512.025 -4.95506 -1.78274 0
M  V30 5386 H 514.516 -3.67215 -0.892269 0
M  V30 5387 H 514.829 -7.63251 -1.21109 0
M  V30 5388 H 513.174 -6.86303 -1.09603 0
M  V30 5389 H 516.365 -4.5678 -1.02319 0
M  V30 5390 H 516.538 -6.37372 -1.1688 0
M  V30 5391 N 509.944 0.496216 -1.49584 0
M  V30 5392 C 511.193 1.24668 -1.58558 0
M  V30 5393 C 511.506 1.9359 -0.279703 0
M  V30 5394 O 512.712 2.70365 -0.248048 0
M  V30 5395 C 511.168 2.26388 -2.79779 0
M  V30 5396 C 510.776 1.63384 -4.17145 0
M  V30 5397 C 512.52 3.02233 -2.98086 0
M  V30 5398 C 510.427 2.63243 -5.29582 0
M  V30 5399 H 509.357 0.468995 -0.590389 0
M  V30 5400 H 512.008 0.519985 -1.75978 0
M  V30 5401 H 510.39 3.02241 -2.55863 0
M  V30 5402 H 511.564 0.93491 -4.51216 0
M  V30 5403 H 509.879 0.999121 -4.04236 0
M  V30 5404 H 512.476 3.76919 -3.79257 0
M  V30 5405 H 512.819 3.60132 -2.08831 0
M  V30 5406 H 513.352 2.33495 -3.22063 0
M  V30 5407 H 510.091 2.10119 -6.20911 0
M  V30 5408 H 509.611 3.31363 -4.99959 0
M  V30 5409 H 511.29 3.25575 -5.59115 0
M  V30 5410 N 511.423 1.38739 0.74761 0
M  V30 5411 C 512.333 1.38696 1.89211 0
M  V30 5412 C 513.349 0.283303 1.71678 0
M  V30 5413 O 514.525 0.522713 1.94498 0
M  V30 5414 C 511.59 1.21662 3.24653 0
M  V30 5415 C 510.651 2.41886 3.54669 0
M  V30 5416 C 509.884 2.25655 4.83648 0
M  V30 5417 O 510.107 1.25339 5.56459 0
M  V30 5418 O 509.041 3.14372 5.13277 0
M  V30 5419 H 512.867 2.35143 1.92202 0
M  V30 5420 H 510.452 1.19721 0.893708 0
M  V30 5421 H 512.334 1.14246 4.05618 0
M  V30 5422 H 511.009 0.283024 3.2246 0
M  V30 5423 H 509.916 2.54877 2.73841 0
M  V30 5424 H 511.249 3.33895 3.61628 0
M  V30 5425 N 512.901 -0.976442 1.23707 0
M  V30 5426 C 513.849 -2.09078 1.01927 0
M  V30 5427 C 514.843 -1.69345 -0.0430193 0
M  V30 5428 O 516.049 -1.79659 0.110814 0
M  V30 5429 H 512.424 -0.68398 0.312531 0
M  V30 5430 H 514.395 -2.24614 1.96447 0
M  V30 5431 C 513.144 -3.41919 0.631385 0
M  V30 5432 H 512.467 -3.72946 1.44053 0
M  V30 5433 H 513.907 -4.20817 0.518532 0
M  V30 5434 C 512.366 -3.30357 -0.660723 0
M  V30 5435 O 512.896 -3.63542 -1.70881 0
M  V30 5436 N 511.102 -2.83507 -0.638139 0
M  V30 5437 H 510.649 -2.567 0.215108 0
M  V30 5438 H 510.607 -2.76153 -1.50289 0
M  V30 5439 N 514.379 -1.04941 -1.1758 0
M  V30 5440 C 515.311 -0.606174 -2.21039 0
M  V30 5441 C 516.324 0.328763 -1.59446 0
M  V30 5442 O 517.513 0.121895 -1.78083 0
M  V30 5443 C 514.613 0.133294 -3.38638 0
M  V30 5444 C 513.786 -0.811711 -4.29802 0
M  V30 5445 C 512.845 -0.113958 -5.26077 0
M  V30 5446 O 511.871 -0.747237 -5.64274 0
M  V30 5447 N 513.073 1.14953 -5.69004 0
M  V30 5448 H 515.838 -1.49606 -2.59689 0
M  V30 5449 H 513.399 -0.930997 -1.32454 0
M  V30 5450 H 515.391 0.610144 -4.00074 0
M  V30 5451 H 513.961 0.924816 -2.98607 0
M  V30 5452 H 513.181 -1.46824 -3.65837 0
M  V30 5453 H 514.469 -1.45326 -4.87604 0
M  V30 5454 H 513.867 1.68441 -5.40041 0
M  V30 5455 H 512.424 1.57049 -6.32597 0
M  V30 5456 N 515.857 1.33968 -0.830081 0
M  V30 5457 C 516.805 2.31301 -0.245435 0
M  V30 5458 C 517.799 1.57734 0.617762 0
M  V30 5459 O 519.005 1.72674 0.508303 0
M  V30 5460 H 515.38 0.749552 -0.0606316 0
M  V30 5461 H 517.351 2.78129 -1.08105 0
M  V30 5462 C 516.1 3.42961 0.572084 0
M  V30 5463 H 515.423 3.99714 -0.0828118 0
M  V30 5464 H 516.863 4.13286 0.94715 0
M  V30 5465 C 515.322 2.88043 1.74737 0
M  V30 5466 O 515.852 2.83508 2.8458 0
M  V30 5467 N 514.058 2.44768 1.56642 0
M  V30 5468 H 513.605 2.48656 0.672901 0
M  V30 5469 H 513.563 2.08375 2.3543 0
M  V30 5470 N 517.335 0.585699 1.46312 0
M  V30 5471 C 518.56 0.0762461 2.0726 0
M  V30 5472 C 518.985 -1.22071 1.43109 0
M  V30 5473 O 518.343 -1.73804 0.515942 0
M  V30 5474 C 518.391 -0.0729404 3.60526 0
M  V30 5475 O 517.495 -1.1287 3.96654 0
M  V30 5476 H 516.836 0.0641558 0.660893 0
M  V30 5477 H 519.366 0.809492 1.87905 0
M  V30 5478 H 519.376 -0.278158 4.07051 0
M  V30 5479 H 518.051 0.874188 4.06609 0
M  V30 5480 H 516.628 -0.901703 3.61834 0
M  V30 5481 N 518.813 -1.54241 0.323641 0
M  V30 5482 C 520.229 -1.59574 -0.0290018 0
M  V30 5483 C 520.429 -1.34017 -1.50472 0
M  V30 5484 O 519.485 -1.12464 -2.26071 0
M  V30 5485 C 520.798 -2.98169 0.389295 0
M  V30 5486 C 522.346 -3.11148 0.339958 0
M  V30 5487 C 522.821 -4.5209 0.733418 0
M  V30 5488 N 524.312 -4.5808 0.686827 0
M  V30 5489 C 525.047 -5.65248 0.963464 0
M  V30 5490 N 524.543 -6.80355 1.30724 0
M  V30 5491 N 526.336 -5.55025 0.88902 0
M  V30 5492 H 518.487 -1.6911 1.28512 0
M  V30 5493 H 520.75 -0.790972 0.522558 0
M  V30 5494 H 520.456 -3.21871 1.41746 0
M  V30 5495 H 520.33 -3.76399 -0.245657 0
M  V30 5496 H 522.717 -2.87182 -0.679002 0
M  V30 5497 H 522.798 -2.35023 1.00985 0
M  V30 5498 H 522.442 -4.76788 1.75029 0
M  V30 5499 H 522.372 -5.26584 0.0412189 0
M  V30 5500 H 524.863 -3.75411 0.43298 0
M  V30 5501 H 525.176 -7.58029 1.5037 0
M  V30 5502 H 523.521 -6.81851 1.3455 0
M  V30 5503 H 526.712 -4.63977 0.619939 0
M  V30 5504 H 526.885 -6.38458 1.10797 0
M  V30 5505 N 520.291 -0.0518155 -1.57515 0
M  V30 5506 C 521.223 0.951542 -2.08515 0
M  V30 5507 C 522.236 1.27436 -1.01311 0
M  V30 5508 O 523.425 1.23504 -1.28876 0
M  V30 5509 C 520.525 2.27291 -2.5138 0
M  V30 5510 C 519.698 2.13191 -3.81927 0
M  V30 5511 C 518.757 3.28458 -4.11098 0
M  V30 5512 O 517.783 3.04334 -4.81009 0
M  V30 5513 N 518.985 4.52954 -3.63061 0
M  V30 5514 H 521.75 0.516242 -2.9522 0
M  V30 5515 H 519.311 0.13441 -1.61341 0
M  V30 5516 H 521.303 3.03272 -2.67971 0
M  V30 5517 H 519.873 2.62386 -1.69919 0
M  V30 5518 H 519.093 1.21798 -3.74912 0
M  V30 5519 H 520.381 2.00999 -4.67415 0
M  V30 5520 H 519.779 4.75444 -3.06545 0
M  V30 5521 H 518.336 5.26026 -3.84889 0
M  V30 5522 N 521.769 1.56035 0.221574 0
M  V30 5523 C 522.999 1.82864 0.961468 0
M  V30 5524 C 523.407 0.628703 1.78449 0
M  V30 5525 O 522.75 -0.412109 1.79018 0
M  V30 5526 C 522.812 3.03425 1.92804 0
M  V30 5527 C 522.476 4.38429 1.28954 0
M  V30 5528 C 523.473 5.15441 0.679431 0
M  V30 5529 C 521.158 4.85151 1.30131 0
M  V30 5530 C 523.152 6.37337 0.0896148 0
M  V30 5531 C 520.839 6.06989 0.707651 0
M  V30 5532 C 521.837 6.82923 0.102855 0
M  V30 5533 O 521.525 8.02456 -0.48157 0
M  V30 5534 H 521.257 0.611883 0.28736 0
M  V30 5535 H 523.811 2.0397 0.241932 0
M  V30 5536 H 522.041 2.78138 2.68656 0
M  V30 5537 H 523.73 3.17127 2.53348 0
M  V30 5538 H 524.496 4.80452 0.662661 0
M  V30 5539 H 520.375 4.26021 1.76145 0
M  V30 5540 H 523.919 6.96547 -0.383069 0
M  V30 5541 H 519.816 6.41451 0.721834 0
M  V30 5542 H 520.584 8.17636 -0.375887 0
M  V30 5543 N 523.247 -0.488276 1.49845 0
M  V30 5544 C 524.177 -1.59675 1.70371 0
M  V30 5545 C 525.158 -1.60878 0.552473 0
M  V30 5546 O 526.343 -1.77417 0.78973 0
M  V30 5547 C 523.473 -2.98098 1.782 0
M  V30 5548 C 522.427 -3.11761 2.93239 0
M  V30 5549 C 521.753 -4.51661 2.86193 0
M  V30 5550 C 523.053 -2.90589 4.33999 0
M  V30 5551 H 524.747 -1.42752 2.63177 0
M  V30 5552 H 522.293 -0.685317 1.26647 0
M  V30 5553 H 524.246 -3.75555 1.91144 0
M  V30 5554 H 522.97 -3.16138 0.820018 0
M  V30 5555 H 521.629 -2.36732 2.79917 0
M  V30 5556 H 521.277 -4.66595 1.87877 0
M  V30 5557 H 520.977 -4.61742 3.63412 0
M  V30 5558 H 522.501 -5.31162 3.01163 0
M  V30 5559 H 523.915 -3.57807 4.47936 0
M  V30 5560 H 522.312 -3.1213 5.12538 0
M  V30 5561 H 523.382 -1.86595 4.4756 0
M  V30 5562 N 524.725 -1.39134 -0.740242 0
M  V30 5563 C 526.002 -1.26584 -1.49117 0
M  V30 5564 C 526.382 0.126902 -2.10718 0
M  V30 5565 O 525.73 1.13765 -1.98166 0
M  V30 5566 C 525.94 -2.38619 -2.54681 0
M  V30 5567 C 527.288 -2.77685 -3.21211 0
M  V30 5568 O 528.312 -2.38029 -2.64991 0
M  V30 5569 O 527.171 -3.46115 -4.22926 0
M  V30 5570 H 524.265 -0.495769 -0.661923 0
M  V30 5571 H 526.811 -1.50995 -0.774514 0
M  V30 5572 H 525.583 -3.3175 -2.07504 0
M  V30 5573 H 525.206 -2.15845 -3.33911 0
M  V30 5574 N 526.204 0.969867 -1.24223 0
M  V30 5575 C 527.136 2.0669 -0.99055 0
M  V30 5576 C 528.149 1.62753 0.0392222 0
M  V30 5577 O 529.338 1.77403 -0.197561 0
M  V30 5578 C 526.438 3.35589 -0.472594 0
M  V30 5579 C 525.611 4.08444 -1.56499 0
M  V30 5580 C 524.67 5.15616 -1.05007 0
M  V30 5581 O 523.696 5.41911 -1.7413 0
M  V30 5582 N 524.898 5.80383 0.116641 0
M  V30 5583 H 527.663 2.28855 -1.93508 0
M  V30 5584 H 525.224 1.13733 -1.15223 0
M  V30 5585 H 527.216 4.04542 -0.112919 0
M  V30 5586 H 525.786 3.10311 0.377617 0
M  V30 5587 H 525.006 3.33798 -2.09696 0
M  V30 5588 H 526.294 4.53882 -2.29932 0
M  V30 5589 H 525.692 5.6142 0.694589 0
M  V30 5590 H 524.249 6.50462 0.417483 0
M  V30 5591 N 527.682 1.05563 1.17022 0
M  V30 5592 C 528.931 0.763036 1.8671 0
M  V30 5593 C 529.244 -0.712857 1.82147 0
M  V30 5594 O 530.45 -1.11955 2.47343 0
M  V30 5595 C 528.906 1.31474 3.35026 0
M  V30 5596 C 528.514 2.82034 3.48081 0
M  V30 5597 C 530.258 1.09935 4.10018 0
M  V30 5598 C 528.165 3.30486 4.90442 0
M  V30 5599 H 527.095 0.281747 0.699382 0
M  V30 5600 H 529.746 1.2734 1.32124 0
M  V30 5601 H 528.128 0.732171 3.89173 0
M  V30 5602 H 529.302 3.46178 3.04133 0
M  V30 5603 H 527.617 3.02156 2.86515 0
M  V30 5604 H 530.214 1.43632 5.15048 0
M  V30 5605 H 530.557 0.0373072 4.16283 0
M  V30 5606 H 531.09 1.64732 3.62089 0
M  V30 5607 H 527.829 4.36137 4.89352 0
M  V30 5608 H 527.349 2.71086 5.35044 0
M  V30 5609 H 529.028 3.25382 5.59227 0
M  V30 5610 N 529.16 -1.33526 0.837174 0
M  V30 5611 C 530.576 -1.50727 0.524743 0
M  V30 5612 C 530.776 -1.77792 -0.948279 0
M  V30 5613 O 529.832 -1.83719 -1.73216 0
M  V30 5614 C 531.145 -2.66299 1.39661 0
M  V30 5615 C 532.693 -2.80183 1.39521 0
M  V30 5616 C 533.168 -3.98815 2.25189 0
M  V30 5617 N 534.659 -4.06047 2.2289 0
M  V30 5618 C 535.394 -4.97032 2.85915 0
M  V30 5619 N 534.89 -5.93143 3.57985 0
M  V30 5620 N 536.683 -4.90015 2.75394 0
M  V30 5621 H 528.834 -1.1422 1.79074 0
M  V30 5622 H 531.097 -0.561399 0.763894 0
M  V30 5623 H 530.803 -2.52974 2.4433 0
M  V30 5624 H 530.677 -3.61663 1.07145 0
M  V30 5625 H 533.064 -2.92942 0.356253 0
M  V30 5626 H 533.145 -1.85586 1.76044 0
M  V30 5627 H 532.789 -3.86817 3.29143 0
M  V30 5628 H 532.719 -4.92654 1.86009 0
M  V30 5629 H 535.21 -3.37262 1.70478 0
M  V30 5630 H 535.523 -6.59227 4.03286 0
M  V30 5631 H 533.868 -5.93223 3.62093 0
M  V30 5632 H 537.059 -4.13894 2.18654 0
M  V30 5633 H 537.232 -5.60724 3.24796 0
M  V30 5634 N 530.638 -0.59345 -1.46 0
M  V30 5635 C 531.57 0.171569 -2.28557 0
M  V30 5636 C 532.583 0.845273 -1.39137 0
M  V30 5637 O 533.772 0.713033 -1.6364 0
M  V30 5638 C 530.872 1.26311 -3.14482 0
M  V30 5639 C 530.045 0.679258 -4.32094 0
M  V30 5640 C 529.104 1.65987 -4.99334 0
M  V30 5641 O 528.13 1.19171 -5.56585 0
M  V30 5642 N 529.332 2.99414 -4.97324 0
M  V30 5643 H 532.097 -0.536771 -2.94854 0
M  V30 5644 H 529.658 -0.431954 -1.56031 0
M  V30 5645 H 531.65 1.91863 -3.5633 0
M  V30 5646 H 530.22 1.87416 -2.50188 0
M  V30 5647 H 529.44 -0.153992 -3.93899 0
M  V30 5648 H 530.728 0.26916 -5.08088 0
M  V30 5649 H 530.126 3.40064 -4.52076 0
M  V30 5650 H 528.683 3.60426 -5.4308 0
M  V30 5651 N 532.116 1.54067 -0.331816 0
M  V30 5652 C 533.344 2.05131 0.269996 0
M  V30 5653 C 533.759 1.20749 1.45138 0
M  V30 5654 O 533.116 0.240069 1.80914 0
M  V30 5655 C 533.167 3.54728 0.696456 0
M  V30 5656 O 532.888 4.35906 -0.43794 0
M  V30 5657 C 534.389 4.21916 1.36021 0
M  V30 5658 H 531.609 0.668807 0.0542042 0
M  V30 5659 H 534.153 1.98777 -0.4804 0
M  V30 5660 H 532.308 3.61342 1.39681 0
M  V30 5661 H 532.722 5.24404 -0.100334 0
M  V30 5662 H 534.196 5.28015 1.60947 0
M  V30 5663 H 534.673 3.73538 2.31011 0
M  V30 5664 H 535.279 4.19463 0.702212 0
M  V30 5665 N 533.594 0.0601682 1.57485 0
M  V30 5666 C 534.843 -0.611101 1.9222 0
M  V30 5667 C 535.156 -1.71469 0.941159 0
M  V30 5668 O 536.362 -2.44473 1.18089 0
M  V30 5669 C 534.818 -1.13832 3.41424 0
M  V30 5670 C 534.426 -0.0663596 4.47951 0
M  V30 5671 C 536.17 -1.78432 3.85178 0
M  V30 5672 C 534.077 -0.606965 5.88277 0
M  V30 5673 H 533.007 -0.232033 0.71741 0
M  V30 5674 H 535.658 0.130518 1.83035 0
M  V30 5675 H 534.04 -1.93254 3.45643 0
M  V30 5676 H 535.214 0.707682 4.55333 0
M  V30 5677 H 533.529 0.482715 4.13593 0
M  V30 5678 H 536.126 -2.1989 4.87394 0
M  V30 5679 H 536.469 -2.63966 3.21913 0
M  V30 5680 H 537.002 -1.05651 3.83514 0
M  V30 5681 H 533.741 0.21095 6.5516 0
M  V30 5682 H 533.261 -1.34879 5.84438 0
M  V30 5683 H 534.94 -1.08704 6.37803 0
M  V30 5684 N 535.072 -1.5615 -0.213296 0
M  V30 5685 C 536.319 -1.79546 -0.936462 0
M  V30 5686 C 536.647 -0.630337 -1.84003 0
M  V30 5687 O 535.902 0.384883 -1.91878 0
M  V30 5688 C 536.201 -3.08772 -1.79985 0
M  V30 5689 C 535.867 -4.38532 -1.04882 0
M  V30 5690 C 534.529 -4.73787 -0.841393 0
M  V30 5691 C 536.881 -5.18609 -0.51907 0
M  V30 5692 C 534.209 -5.86627 -0.0924403 0
M  V30 5693 C 536.561 -6.32229 0.216581 0
M  V30 5694 C 535.225 -6.6608 0.435191 0
M  V30 5695 H 534.495 -0.657004 -0.342676 0
M  V30 5696 H 537.142 -1.9041 -0.204051 0
M  V30 5697 H 535.447 -2.93065 -2.60038 0
M  V30 5698 H 537.144 -3.24077 -2.36168 0
M  V30 5699 H 533.734 -4.10855 -1.22048 0
M  V30 5700 H 537.918 -4.91801 -0.666775 0
M  V30 5701 H 533.174 -6.11338 0.087081 0
M  V30 5702 H 537.348 -6.93503 0.634538 0
M  V30 5703 H 534.975 -7.5336 1.01746 0
M  V30 5704 N 536.55 0.480323 -1.50102 0
M  V30 5705 C 537.46 1.60547 -1.71061 0
M  V30 5706 C 538.476 1.63564 -0.593529 0
M  V30 5707 O 539.652 1.81604 -0.870751 0
M  V30 5708 C 536.717 2.96814 -1.79171 0
M  V30 5709 C 535.778 3.04259 -3.02861 0
M  V30 5710 C 535.011 4.34027 -3.10574 0
M  V30 5711 O 535.234 5.24009 -2.25323 0
M  V30 5712 O 534.168 4.46873 -4.03223 0
M  V30 5713 H 537.994 1.45788 -2.6642 0
M  V30 5714 H 535.579 0.658838 -1.34088 0
M  V30 5715 H 537.461 3.77765 -1.86738 0
M  V30 5716 H 536.136 3.11791 -0.869947 0
M  V30 5717 H 535.043 2.22419 -3.008 0
M  V30 5718 H 536.376 2.94216 -3.94586 0
M  V30 5719 N 538.028 1.39524 0.732853 0
M  V30 5720 C 538.976 1.38563 1.86824 0
M  V30 5721 C 539.97 0.268467 1.67259 0
M  V30 5722 O 541.176 0.438613 1.74574 0
M  V30 5723 H 537.551 0.432737 0.615014 0
M  V30 5724 H 539.522 2.34328 1.84751 0
M  V30 5725 C 538.271 1.2481 3.24527 0
M  V30 5726 H 537.594 2.10044 3.40179 0
M  V30 5727 H 539.034 1.28194 4.04156 0
M  V30 5728 C 537.493 -0.0432825 3.36872 0
M  V30 5729 O 538.023 -1.01268 3.88726 0
M  V30 5730 N 536.229 -0.107055 2.90403 0
M  V30 5731 H 535.776 0.682512 2.48394 0
M  V30 5732 H 535.734 -0.970618 2.99042 0
M  V30 5733 N 539.506 -0.963266 1.24736 0
M  V30 5734 C 540.436 -2.07628 1.06832 0
M  V30 5735 C 541.417 -1.70088 -0.0200566 0
M  V30 5736 O 542.602 -1.93636 0.147854 0
M  V30 5737 C 539.732 -3.40636 0.677069 0
M  V30 5738 C 538.686 -3.9215 1.71471 0
M  V30 5739 C 538.012 -5.21553 1.1784 0
M  V30 5740 C 539.312 -4.19493 3.11164 0
M  V30 5741 H 541.006 -2.22864 1.9993 0
M  V30 5742 H 538.552 -1.07093 0.96266 0
M  V30 5743 H 540.505 -4.17941 0.538792 0
M  V30 5744 H 539.229 -3.25313 -0.289612 0
M  V30 5745 H 537.888 -3.17005 1.84128 0
M  V30 5746 H 537.536 -5.02593 0.202195 0
M  V30 5747 H 537.236 -5.56988 1.87185 0
M  V30 5748 H 538.76 -6.01463 1.05233 0
M  V30 5749 H 540.174 -4.87487 3.01711 0
M  V30 5750 H 538.571 -4.66165 3.77902 0
M  V30 5751 H 539.641 -3.26097 3.58871 0
M  V30 5752 N 540.985 -1.06182 -1.16461 0
M  V30 5753 C 541.932 -0.671613 -2.20812 0
M  V30 5754 C 542.902 0.331186 -1.62765 0
M  V30 5755 O 544.087 0.22033 -1.89524 0
M  V30 5756 C 541.227 -0.063029 -3.45042 0
M  V30 5757 C 540.34 -1.11587 -4.1734 0
M  V30 5758 C 539.475 -0.473546 -5.29085 0
M  V30 5759 C 538.514 -1.51 -5.93182 0
M  V30 5760 N 537.651 -0.891118 -6.96422 0
M  V30 5761 H 542.491 -1.56589 -2.53542 0
M  V30 5762 H 540.028 -0.782951 -1.24532 0
M  V30 5763 H 541.986 0.307344 -4.16066 0
M  V30 5764 H 540.616 0.794663 -3.12866 0
M  V30 5765 H 539.668 -1.60396 -3.44931 0
M  V30 5766 H 540.98 -1.90221 -4.61104 0
M  V30 5767 H 540.134 -0.0501432 -6.06679 0
M  V30 5768 H 538.873 0.344687 -4.8648 0
M  V30 5769 H 537.878 -1.94331 -5.14311 0
M  V30 5770 H 539.103 -2.33031 -6.37866 0
M  V30 5771 H 537.049 -0.0935753 -6.55933 0
M  V30 5772 H 536.966 -1.61486 -7.38551 0
M  V30 5773 H 538.234 -0.492822 -7.77941 0
M  V30 5774 N 542.463 1.3308 -0.844243 0
M  V30 5775 C 543.396 2.27075 -0.226279 0
M  V30 5776 C 544.374 1.49911 0.629716 0
M  V30 5777 O 545.558 1.79068 0.588803 0
M  V30 5778 C 542.685 3.31767 0.681782 0
M  V30 5779 C 541.731 4.26384 -0.0994565 0
M  V30 5780 S 542.564 5.15186 -1.46094 0
M  V30 5781 C 543.72 6.23405 -0.558319 0
M  V30 5782 H 543.953 2.79141 -1.02312 0
M  V30 5783 H 541.486 1.40452 -0.641292 0
M  V30 5784 H 543.444 3.92566 1.20008 0
M  V30 5785 H 542.105 2.78507 1.45234 0
M  V30 5786 H 541.298 5.00514 0.591733 0
M  V30 5787 H 540.9 3.69949 -0.548991 0
M  V30 5788 H 543.192 6.77069 0.241672 0
M  V30 5789 H 544.135 6.96619 -1.26995 0
M  V30 5790 H 544.543 5.64333 -0.13728 0
M  V30 5791 N 543.941 0.601185 1.45683 0
M  V30 5792 C 544.871 -0.108824 2.33246 0
M  V30 5793 C 545.852 -0.865223 1.46451 0
M  V30 5794 O 547.037 -0.83704 1.75235 0
M  V30 5795 C 544.167 -1.11101 3.2905 0
M  V30 5796 C 543.121 -0.468244 4.25431 0
M  V30 5797 C 542.447 -1.57822 5.10878 0
M  V30 5798 C 543.747 0.606469 5.18767 0
M  V30 5799 H 545.441 0.622306 2.92861 0
M  V30 5800 H 542.987 0.300714 1.40825 0
M  V30 5801 H 544.94 -1.61622 3.89174 0
M  V30 5802 H 543.664 -1.87265 2.67581 0
M  V30 5803 H 542.323 0.0160484 3.66596 0
M  V30 5804 H 541.971 -2.32998 4.45781 0
M  V30 5805 H 541.671 -1.15369 5.76163 0
M  V30 5806 H 543.195 -2.08583 5.73869 0
M  V30 5807 H 544.609 0.185589 5.73 0
M  V30 5808 H 543.006 0.952381 5.92494 0
M  V30 5809 H 544.076 1.48559 4.61582 0
M  V30 5810 N 545.419 -1.53889 0.339982 0
M  V30 5811 C 546.367 -2.26391 -0.533822 0
M  V30 5812 C 547.361 -1.28404 -1.10493 0
M  V30 5813 O 548.567 -1.46124 -1.05108 0
M  V30 5814 H 544.942 -0.727385 -0.190828 0
M  V30 5815 H 546.913 -2.98233 0.0997484 0
M  V30 5816 C 545.662 -3.04707 -1.67479 0
M  V30 5817 H 544.985 -3.79934 -1.2446 0
M  V30 5818 H 546.425 -3.58657 -2.26144 0
M  V30 5819 C 544.884 -2.13989 -2.60212 0
M  V30 5820 O 545.414 -1.73361 -3.62366 0
M  V30 5821 N 543.62 -1.79141 -2.28816 0
M  V30 5822 H 543.167 -2.12378 -1.45785 0
M  V30 5823 H 543.125 -1.18725 -2.91121 0
M  V30 5824 N 546.897 -0.0685191 -1.57451 0
M  V30 5825 C 547.847 0.909895 -2.09057 0
M  V30 5826 C 548.831 1.26088 -0.999528 0
M  V30 5827 O 550.023 1.24041 -1.26265 0
M  V30 5828 C 547.152 2.17863 -2.65312 0
M  V30 5829 C 546.238 1.85427 -3.81415 0
M  V30 5830 N 546.629 1.23426 -4.9051 0
M  V30 5831 C 544.927 2.15196 -3.90649 0
M  V30 5832 C 545.628 1.09008 -5.71395 0
M  V30 5833 N 544.604 1.59871 -5.1956 0
M  V30 5834 H 548.406 0.426145 -2.90794 0
M  V30 5835 H 545.92 0.135462 -1.61834 0
M  V30 5836 H 547.917 2.88872 -3.00597 0
M  V30 5837 H 546.577 2.66829 -1.85021 0
M  V30 5838 H 547.588 0.904305 -5.09944 0
M  V30 5839 H 544.265 2.66562 -3.21327 0
M  V30 5840 H 545.655 0.607305 -6.6915 0
M  V30 5841 N 548.375 1.56261 0.205012 0
M  V30 5842 C 549.338 1.92908 1.23771 0
M  V30 5843 C 550.338 0.809208 1.38955 0
M  V30 5844 O 551.528 1.07676 1.36936 0
M  V30 5845 C 548.66 2.19442 2.60879 0
M  V30 5846 H 549.853 2.85287 0.924728 0
M  V30 5847 H 547.406 1.49798 0.446125 0
M  V30 5848 H 548.141 1.29668 2.97248 0
M  V30 5849 H 547.926 3.0104 2.51232 0
M  V30 5850 H 549.416 2.48833 3.35368 0
M  V30 5851 N 549.853 -0.472356 1.50355 0
M  V30 5852 C 551.264 -1.05326 1.54154 0
M  V30 5853 C 551.615 -1.93155 0.344303 0
M  V30 5854 O 550.74 -2.09479 -0.542928 0
M  V30 5855 C 551.335 -1.91691 2.79356 0
M  V30 5856 C 549.894 -2.44892 2.8584 0
M  V30 5857 C 549.041 -1.23205 2.48426 0
M  V30 5858 H 551.992 -0.255027 1.56637 0
M  V30 5859 H 552.013 -2.76742 2.6114 0
M  V30 5860 H 551.525 -1.27741 3.66475 0
M  V30 5861 H 549.626 -3.12399 2.0307 0
M  V30 5862 H 549.739 -2.80086 3.88701 0
M  V30 5863 H 548.103 -1.56643 2.00836 0
M  V30 5864 H 548.886 -0.609194 3.37852 0
M  V30 5865 N 551.331 -1.39911 -0.725443 0
M  V30 5866 C 552.556 -1.41137 -1.5197 0
M  V30 5867 C 552.981 -0.010262 -1.88097 0
M  V30 5868 O 552.339 0.979184 -1.52583 0
M  V30 5869 C 552.387 -2.2994 -2.77777 0
M  V30 5870 O 551.491 -1.73586 -3.74088 0
M  V30 5871 H 550.832 -0.480219 -0.458569 0
M  V30 5872 H 553.362 -1.84023 -0.894249 0
M  V30 5873 H 553.372 -2.44785 -3.26411 0
M  V30 5874 H 552.047 -3.31759 -2.50816 0
M  V30 5875 H 550.624 -1.68035 -3.32894 0
M  V30 5876 N 552.809 0.956637 -1.25245 0
M  V30 5877 C 554.055 1.70352 -1.10036 0
M  V30 5878 C 554.388 1.90869 0.358156 0
M  V30 5879 O 553.663 1.47819 1.26411 0
M  V30 5880 C 553.946 3.08766 -1.85298 0
M  V30 5881 C 553.799 2.95672 -3.38966 0
M  V30 5882 C 555.118 4.08622 -1.63451 0
M  V30 5883 H 552.237 0.618279 -0.401123 0
M  V30 5884 H 554.879 1.11212 -1.54051 0
M  V30 5885 H 553.029 3.59252 -1.47887 0
M  V30 5886 H 554.701 2.52527 -3.86041 0
M  V30 5887 H 552.944 2.31634 -3.6678 0
M  V30 5888 H 553.615 3.93776 -3.86839 0
M  V30 5889 H 556.091 3.67038 -1.96015 0
M  V30 5890 H 554.967 5.03514 -2.18551 0
M  V30 5891 H 555.228 4.3834 -0.575357 0
M  V30 5892 N 554.287 1.06798 1.15896 0
M  V30 5893 C 555.219 0.641263 2.20046 0
M  V30 5894 C 556.232 -0.303355 1.59949 0
M  V30 5895 O 557.421 -0.0935478 1.78255 0
M  V30 5896 C 554.521 -0.0794029 3.38807 0
M  V30 5897 C 553.694 0.879986 4.28457 0
M  V30 5898 C 552.753 0.197638 5.25829 0
M  V30 5899 O 551.779 0.836913 5.63014 0
M  V30 5900 N 552.981 -1.05886 5.70761 0
M  V30 5901 H 555.746 1.53718 2.57276 0
M  V30 5902 H 553.307 0.951951 1.30956 0
M  V30 5903 H 555.299 -0.546418 4.00994 0
M  V30 5904 H 553.869 -0.877193 3.0004 0
M  V30 5905 H 553.089 1.52625 3.63454 0
M  V30 5906 H 554.377 1.53065 4.8523 0
M  V30 5907 H 553.775 -1.59828 5.42652 0
M  V30 5908 H 552.332 -1.46965 6.35015 0
M  V30 5909 N 555.766 -1.3263 0.851289 0
M  V30 5910 C 557.015 -1.96633 0.449267 0
M  V30 5911 C 557.328 -1.68131 -0.999562 0
M  V30 5912 O 558.534 -2.25845 -1.50685 0
M  V30 5913 C 556.99 -3.51946 0.752446 0
M  V30 5914 C 556.598 -3.89311 2.21678 0
M  V30 5915 C 558.342 -4.22437 0.417983 0
M  V30 5916 C 556.249 -5.37655 2.46336 0
M  V30 5917 H 555.179 -0.735888 0.164269 0
M  V30 5918 H 557.83 -1.51073 1.0416 0
M  V30 5919 H 556.212 -3.95899 0.0895858 0
M  V30 5920 H 557.386 -3.56378 2.92115 0
M  V30 5921 H 555.701 -3.31836 2.51543 0
M  V30 5922 H 558.298 -5.31549 0.579674 0
M  V30 5923 H 558.641 -4.11349 -0.640115 0
M  V30 5924 H 559.174 -3.84057 1.03659 0
M  V30 5925 H 555.913 -5.5376 3.50757 0
M  V30 5926 H 555.433 -5.72005 1.80473 0
M  V30 5927 H 557.112 -6.04695 2.30115 0
M  V30 5928 N 557.244 -0.608902 -1.45362 0
M  V30 5929 C 558.194 0.130616 -2.27626 0
M  V30 5930 C 559.178 0.837323 -1.37396 0
M  V30 5931 O 560.37 0.727096 -1.61376 0
M  V30 5932 C 557.499 1.12646 -3.24293 0
M  V30 5933 C 556.585 0.42052 -4.2201 0
M  V30 5934 N 556.976 -0.538569 -5.02925 0
M  V30 5935 C 555.274 0.667901 -4.40971 0
M  V30 5936 C 555.975 -0.953625 -5.7383 0
M  V30 5937 N 554.951 -0.297097 -5.42788 0
M  V30 5938 H 558.753 -0.605996 -2.87585 0
M  V30 5939 H 556.267 -0.432672 -1.5653 0
M  V30 5940 H 558.264 1.67066 -3.81961 0
M  V30 5941 H 556.924 1.86361 -2.65894 0
M  V30 5942 H 557.935 -0.915375 -5.09746 0
M  V30 5943 H 554.612 1.38963 -3.93695 0
M  V30 5944 H 556.002 -1.74473 -6.48852 0
M  V30 5945 N 558.722 1.53707 -0.348139 0
M  V30 5946 C 559.999 1.93247 0.302475 0
M  V30 5947 C 560.379 1.28012 1.67857 0
M  V30 5948 O 559.727 0.43274 2.24365 0
M  V30 5949 C 559.937 3.47031 0.370159 0
M  V30 5950 C 561.285 4.20066 0.61882 0
M  V30 5951 O 562.309 3.53319 0.452087 0
M  V30 5952 O 561.168 5.38318 0.94215 0
M  V30 5953 H 558.262 0.807736 0.177458 0
M  V30 5954 H 560.808 1.64927 -0.399651 0
M  V30 5955 H 559.58 3.86745 -0.59534 0
M  V30 5956 H 559.203 3.81532 1.11888 0
M  V30 5957 N 560.2 0.0768682 1.57412 0
M  V30 5958 C 561.446 -0.591961 1.93968 0
M  V30 5959 C 561.779 -1.68954 0.9575 0
M  V30 5960 O 561.054 -1.94496 -0.0124675 0
M  V30 5961 C 561.337 -1.16418 3.40762 0
M  V30 5962 C 561.19 -0.0728933 4.49741 0
M  V30 5963 C 562.509 -2.06814 3.88479 0
M  V30 5964 H 559.628 -0.213716 0.705333 0
M  V30 5965 H 562.27 0.14387 1.89455 0
M  V30 5966 H 560.42 -1.79128 3.4474 0
M  V30 5967 H 562.092 0.560446 4.57883 0
M  V30 5968 H 560.335 0.595859 4.29688 0
M  V30 5969 H 561.006 -0.513755 5.49604 0
M  V30 5970 H 563.482 -1.54033 3.8654 0
M  V30 5971 H 562.358 -2.43785 4.91793 0
M  V30 5972 H 562.619 -2.97844 3.26713 0
M  V30 5973 N 561.678 -1.56367 -0.196722 0
M  V30 5974 C 563.089 -1.70462 -0.761545 0
M  V30 5975 C 563.44 -0.683161 -1.83922 0
M  V30 5976 O 562.565 0.160753 -2.15802 0
M  V30 5977 C 563.16 -3.09057 -1.38814 0
M  V30 5978 C 561.719 -3.24922 -1.90007 0
M  V30 5979 C 560.866 -2.66412 -0.769399 0
M  V30 5980 H 563.817 -1.58675 0.0283263 0
M  V30 5981 H 563.838 -3.06296 -2.2575 0
M  V30 5982 H 563.35 -3.83378 -0.603559 0
M  V30 5983 H 561.451 -2.55514 -2.71189 0
M  V30 5984 H 561.564 -4.3241 -2.06297 0
M  V30 5985 H 559.928 -2.25546 -1.18326 0
M  V30 5986 H 560.711 -3.433 0.00291773 0
M  V30 5987 N 563.156 0.464375 -1.50603 0
M  V30 5988 C 564.119 1.54393 -1.69397 0
M  V30 5989 C 565.119 1.50566 -0.564504 0
M  V30 5990 O 566.309 1.53066 -0.831645 0
M  V30 5991 C 563.441 2.9401 -1.72543 0
M  V30 5992 H 564.634 1.39044 -2.65719 0
M  V30 5993 H 562.187 0.69122 -1.40185 0
M  V30 5994 H 562.922 3.14795 -0.77938 0
M  V30 5995 H 562.707 2.98195 -2.54602 0
M  V30 5996 H 564.197 3.72375 -1.89015 0
M  V30 5997 N 564.634 1.40294 0.718013 0
M  V30 5998 C 565.911 1.2894 1.47084 0
M  V30 5999 C 566.291 -0.0933625 2.10893 0
M  V30 6000 O 565.639 -1.10598 1.99951 0
M  V30 6001 C 565.849 2.4264 2.50852 0
M  V30 6002 C 567.197 2.8276 3.16752 0
M  V30 6003 O 568.221 2.42215 2.61171 0
M  V30 6004 O 567.08 3.528 4.17366 0
M  V30 6005 H 564.174 0.506236 0.653952 0
M  V30 6006 H 566.72 1.52208 0.750394 0
M  V30 6007 H 565.492 3.35009 2.022 0
M  V30 6008 H 565.115 2.21129 3.30435 0
M  V30 6009 N 566.112 -0.949982 1.2575 0
M  V30 6010 C 567.042 -2.06483 1.09028 0
M  V30 6011 C 568.023 -1.701 -0.00201532 0
M  V30 6012 O 569.208 -1.93469 0.168383 0
M  V30 6013 C 566.338 -3.39899 0.71316 0
M  V30 6014 C 565.292 -3.90309 1.75621 0
M  V30 6015 C 564.618 -5.20274 1.23365 0
M  V30 6016 C 565.918 -4.16169 3.15596 0
M  V30 6017 H 567.612 -2.20731 2.02283 0
M  V30 6018 H 565.158 -1.06066 0.973964 0
M  V30 6019 H 567.111 -4.17346 0.58309 0
M  V30 6020 H 565.835 -3.25602 -0.255091 0
M  V30 6021 H 564.494 -3.15035 1.8748 0
M  V30 6022 H 564.142 -5.02351 0.255491 0
M  V30 6023 H 563.842 -5.54971 1.93082 0
M  V30 6024 H 565.366 -6.00314 1.11607 0
M  V30 6025 H 566.78 -4.84259 3.06864 0
M  V30 6026 H 565.177 -4.62131 3.82825 0
M  V30 6027 H 566.247 -3.22273 3.6231 0
M  V30 6028 N 567.59 -1.07411 -1.15328 0
M  V30 6029 C 568.52 -0.716472 -2.22236 0
M  V30 6030 C 569.501 0.296373 -1.67498 0
M  V30 6031 O 570.686 0.168989 -1.93463 0
M  V30 6032 C 567.816 -0.114142 -3.47112 0
M  V30 6033 C 566.77 -1.05421 -4.14814 0
M  V30 6034 C 566.096 -0.314604 -5.33774 0
M  V30 6035 C 567.396 -2.38808 -4.64508 0
M  V30 6036 H 569.09 -1.61029 -2.52408 0
M  V30 6037 H 566.636 -0.775702 -1.21321 0
M  V30 6038 H 568.589 0.148001 -4.2114 0
M  V30 6039 H 567.313 0.814755 -3.16274 0
M  V30 6040 H 565.972 -1.30128 -3.42728 0
M  V30 6041 H 565.62 0.617772 -4.99192 0
M  V30 6042 H 565.32 -0.941209 -5.80013 0
M  V30 6043 H 566.844 -0.0602747 -6.1057 0
M  V30 6044 H 568.258 -2.18424 -5.3006 0
M  V30 6045 H 566.655 -2.97069 -5.21412 0
M  V30 6046 H 567.725 -3.01067 -3.80114 0
M  V30 6047 N 569.068 1.32177 -0.85831 0
M  V30 6048 C 570.296 2.01313 -0.477582 0
M  V30 6049 C 570.711 1.6449 0.926736 0
M  V30 6050 O 570.068 0.868096 1.60531 0
M  V30 6051 C 570.119 3.56293 -0.611337 0
M  V30 6052 O 569.84 3.91794 -1.96034 0
M  V30 6053 C 571.341 4.42702 -0.230093 0
M  V30 6054 H 568.561 0.644323 -0.187322 0
M  V30 6055 H 571.105 1.68674 -1.15626 0
M  V30 6056 H 569.26 3.87395 0.0196494 0
M  V30 6057 H 569.674 4.86513 -1.95973 0
M  V30 6058 H 571.148 5.50727 -0.374674 0
M  V30 6059 H 571.625 4.3129 0.829779 0
M  V30 6060 H 572.231 4.16997 -0.836302 0
M  V30 6061 N 570.547 0.616602 1.45037 0
M  V30 6062 C 571.777 0.121791 2.06241 0
M  V30 6063 C 572.185 -1.20289 1.46038 0
M  V30 6064 O 571.528 -1.7456 0.572242 0
M  V30 6065 C 571.59 -0.0827345 3.59405 0
M  V30 6066 C 571.254 1.16153 4.41993 0
M  V30 6067 C 572.251 2.08183 4.76399 0
M  V30 6068 C 569.936 1.39288 4.82601 0
M  V30 6069 C 571.93 3.21668 5.5028 0
M  V30 6070 C 569.617 2.53073 5.56235 0
M  V30 6071 C 570.615 3.44091 5.89992 0
M  V30 6072 O 570.303 4.55894 6.6213 0
M  V30 6073 H 570.035 0.0701667 0.672349 0
M  V30 6074 H 572.589 0.846877 1.87129 0
M  V30 6075 H 570.819 -0.862812 3.76952 0
M  V30 6076 H 572.508 -0.530273 4.02421 0
M  V30 6077 H 573.274 1.91538 4.45576 0
M  V30 6078 H 569.153 0.693396 4.55755 0
M  V30 6079 H 572.697 3.92733 5.76547 0
M  V30 6080 H 568.594 2.69667 5.86472 0
M  V30 6081 H 569.362 4.5469 6.80587 0
M  V30 6082 N 572.025 -1.5352 0.356285 0
M  V30 6083 C 573.302 -1.93405 -0.292223 0
M  V30 6084 C 573.682 -1.28901 -1.67176 0
M  V30 6085 O 573.03 -0.444632 -2.24132 0
M  V30 6086 C 573.24 -3.47223 -0.35175 0
M  V30 6087 C 574.588 -4.20389 -0.596534 0
M  V30 6088 O 575.612 -3.53554 -0.433344 0
M  V30 6089 O 574.471 -5.3881 -0.913589 0
M  V30 6090 H 571.565 -0.808666 -0.173172 0
M  V30 6091 H 574.111 -1.64713 0.408391 0
M  V30 6092 H 572.883 -3.86423 0.615841 0
M  V30 6093 H 572.506 -3.8212 -1.09864 0
M  V30 6094 N 573.503 -0.0852151 -1.57369 0
M  V30 6095 C 574.919 0.271436 -1.57275 0
M  V30 6096 C 575.119 1.69109 -1.09565 0
M  V30 6097 O 574.175 2.40549 -0.767611 0
M  V30 6098 C 575.488 0.0688638 -3.00621 0
M  V30 6099 C 577.036 0.137373 -3.12698 0
M  V30 6100 C 577.511 -0.0370832 -4.57985 0
M  V30 6101 N 579.002 0.0180794 -4.63196 0
M  V30 6102 C 579.737 -0.0922953 -5.73326 0
M  V30 6103 N 579.233 -0.256948 -6.92323 0
M  V30 6104 N 581.026 -0.0342702 -5.6209 0
M  V30 6105 H 573.177 -1.01288 -1.86693 0
M  V30 6106 H 575.44 -0.396138 -0.861266 0
M  V30 6107 H 575.146 -0.911277 -3.39689 0
M  V30 6108 H 575.02 0.815442 -3.6828 0
M  V30 6109 H 577.407 1.10801 -2.73509 0
M  V30 6110 H 577.488 -0.640532 -2.47651 0
M  V30 6111 H 577.132 -1.00455 -4.97867 0
M  V30 6112 H 577.062 0.760392 -5.21081 0
M  V30 6113 H 579.553 0.143202 -3.77629 0
M  V30 6114 H 579.866 -0.332949 -7.72082 0
M  V30 6115 H 578.211 -0.292487 -6.94384 0
M  V30 6116 H 581.402 0.0931605 -4.68007 0
M  V30 6117 H 581.575 -0.12374 -6.47882 0
M  V30 6118 N 574.981 1.5647 0.188427 0
M  V30 6119 C 576.209 1.85131 0.923803 0
M  V30 6120 C 576.624 0.668537 1.76567 0
M  V30 6121 O 575.981 -0.362662 1.7886 0
M  V30 6122 C 576.032 3.12661 1.81453 0
M  V30 6123 O 575.753 4.26378 1.00665 0
M  V30 6124 C 577.254 3.54548 2.66103 0
M  V30 6125 H 574.474 0.614624 0.269218 0
M  V30 6126 H 577.018 2.03581 0.193671 0
M  V30 6127 H 575.173 2.96088 2.49821 0
M  V30 6128 H 575.587 4.99041 1.61425 0
M  V30 6129 H 577.061 4.4673 3.24247 0
M  V30 6130 H 577.538 2.77853 3.40139 0
M  V30 6131 H 578.144 3.73674 2.03096 0
M  V30 6132 N 576.459 -0.456382 1.50847 0
M  V30 6133 C 577.736 -1.21739 1.53098 0
M  V30 6134 C 578.116 -2.09179 0.284132 0
M  V30 6135 O 577.464 -2.16466 -0.731773 0
M  V30 6136 C 577.674 -2.03573 2.83477 0
M  V30 6137 C 579.022 -2.61264 3.34703 0
M  V30 6138 O 580.046 -2.13802 2.84898 0
M  V30 6139 O 578.905 -3.47779 4.21559 0
M  V30 6140 H 575.999 -0.553219 0.614718 0
M  V30 6141 H 578.545 -0.467003 1.63148 0
M  V30 6142 H 577.317 -1.39232 3.65691 0
M  V30 6143 H 576.94 -2.85716 2.76499 0
M  V30 6144 N 577.937 -1.40673 -0.710563 0
M  V30 6145 C 578.847 -1.43663 -1.85467 0
M  V30 6146 C 579.863 -0.328721 -1.70867 0
M  V30 6147 O 581.039 -0.574098 -1.93044 0
M  V30 6148 C 578.104 -1.30226 -3.21313 0
M  V30 6149 C 577.165 -2.51204 -3.48131 0
M  V30 6150 C 576.398 -2.38398 -4.77495 0
M  V30 6151 O 576.621 -1.40048 -5.5294 0
M  V30 6152 O 575.555 -3.2787 -5.04762 0
M  V30 6153 H 579.381 -2.40156 -1.859 0
M  V30 6154 H 576.966 -1.22049 -0.861652 0
M  V30 6155 H 578.848 -1.2496 -4.02446 0
M  V30 6156 H 577.523 -0.368419 -3.21597 0
M  V30 6157 H 576.43 -2.62048 -2.66987 0
M  V30 6158 H 577.763 -3.43366 -3.52648 0
M  V30 6159 N 579.415 0.9433 -1.26252 0
M  V30 6160 C 580.378 2.02326 -1.07689 0
M  V30 6161 C 581.378 1.60779 -0.0259174 0
M  V30 6162 O 582.568 1.72108 -0.269134 0
M  V30 6163 C 579.7 3.34886 -0.63752 0
M  V30 6164 H 580.893 2.20225 -2.0357 0
M  V30 6165 H 578.446 1.12197 -1.08819 0
M  V30 6166 H 579.181 3.22684 0.323377 0
M  V30 6167 H 578.966 3.66393 -1.39637 0
M  V30 6168 H 580.456 4.14231 -0.529418 0
M  V30 6169 N 580.893 1.08022 1.14757 0
M  V30 6170 C 582.17 0.720386 1.81851 0
M  V30 6171 C 582.55 -0.796375 1.95502 0
M  V30 6172 O 581.898 -1.71339 1.51179 0
M  V30 6173 C 582.108 1.44273 3.17783 0
M  V30 6174 C 583.456 1.59925 3.93331 0
M  V30 6175 O 584.48 1.40407 3.2736 0
M  V30 6176 O 583.339 1.92096 5.11626 0
M  V30 6177 H 580.433 0.257142 0.786007 0
M  V30 6178 H 582.979 1.18155 1.21809 0
M  V30 6179 H 581.751 2.47618 3.02987 0
M  V30 6180 H 581.374 0.97279 3.85516 0
M  V30 6181 N 582.371 -1.3172 0.865308 0
M  V30 6182 C 583.334 -2.26918 0.322627 0
M  V30 6183 C 584.334 -1.52031 -0.523751 0
M  V30 6184 O 585.524 -1.70973 -0.333727 0
M  V30 6185 C 582.656 -3.36558 -0.542338 0
M  V30 6186 H 583.849 -2.76432 1.16298 0
M  V30 6187 H 581.402 -1.42573 0.640512 0
M  V30 6188 H 582.137 -2.92329 -1.40407 0
M  V30 6189 H 581.922 -3.92048 0.0636395 0
M  V30 6190 H 583.412 -4.07465 -0.91446 0
M  V30 6191 N 583.85 -0.624285 -1.44708 0
M  V30 6192 C 584.76 0.0861083 -2.34442 0
M  V30 6193 C 585.776 0.84291 -1.5222 0
M  V30 6194 O 586.952 0.796723 -1.84971 0
M  V30 6195 C 584.017 1.05999 -3.30099 0
M  V30 6196 C 583.077 0.303316 -4.28227 0
M  V30 6197 C 582.311 1.23081 -5.19314 0
M  V30 6198 O 582.534 2.46929 -5.14181 0
M  V30 6199 O 581.468 0.71883 -5.97592 0
M  V30 6200 H 585.293 -0.651756 -2.96624 0
M  V30 6201 H 582.879 -0.384493 -1.44368 0
M  V30 6202 H 584.76 1.62046 -3.88997 0
M  V30 6203 H 583.436 1.77859 -2.70459 0
M  V30 6204 H 582.343 -0.300033 -3.72895 0
M  V30 6205 H 583.676 -0.375123 -4.90768 0
M  V30 6206 N 585.328 1.53329 -0.364422 0
M  V30 6207 C 586.238 2.29414 0.490552 0
M  V30 6208 C 587.254 1.35335 1.09363 0
M  V30 6209 O 588.43 1.68391 1.10483 0
M  V30 6210 C 585.495 3.06772 1.61529 0
M  V30 6211 C 584.556 4.16516 1.03986 0
M  V30 6212 C 583.789 4.90176 2.111 0
M  V30 6213 O 584.012 4.63687 3.32191 0
M  V30 6214 O 582.946 5.76134 1.74222 0
M  V30 6215 H 586.772 3.03428 -0.12856 0
M  V30 6216 H 584.357 1.48843 -0.128837 0
M  V30 6217 H 586.239 3.55082 2.26924 0
M  V30 6218 H 584.914 2.35596 2.21983 0
M  V30 6219 H 583.821 3.7246 0.349856 0
M  V30 6220 H 585.154 4.89855 0.4799 0
M  V30 6221 N 586.806 0.0935595 1.57322 0
M  V30 6222 C 588.222 -0.263091 1.57417 0
M  V30 6223 C 588.422 -1.68526 1.1046 0
M  V30 6224 O 587.478 -2.40139 0.780357 0
M  V30 6225 C 588.791 -0.0529201 3.00653 0
M  V30 6226 C 590.339 -0.120788 3.12767 0
M  V30 6227 C 590.814 0.0613707 4.57959 0
M  V30 6228 N 592.305 0.00648534 4.632 0
M  V30 6229 C 593.04 0.122699 5.73269 0
M  V30 6230 N 592.536 0.29366 6.92177 0
M  V30 6231 N 594.329 0.0640787 5.62063 0
M  V30 6232 H 586.48 1.02277 1.86154 0
M  V30 6233 H 588.743 0.4007 0.859153 0
M  V30 6234 H 588.449 0.929279 3.39201 0
M  V30 6235 H 588.323 -0.795899 3.68708 0
M  V30 6236 H 590.71 -1.09349 2.74093 0
M  V30 6237 H 590.791 0.653656 2.47307 0
M  V30 6238 H 590.435 1.03093 4.97327 0
M  V30 6239 H 590.365 -0.732748 5.21477 0
M  V30 6240 H 592.856 -0.123173 3.77699 0
M  V30 6241 H 593.169 0.37389 7.71895 0
M  V30 6242 H 591.514 0.329307 6.94219 0
M  V30 6243 H 594.705 -0.0683396 4.6805 0
M  V30 6244 H 594.878 0.158097 6.47807 0
M  V30 6245 N 588.284 -1.56567 -0.180126 0
M  V30 6246 C 589.532 -1.81133 -0.896392 0
M  V30 6247 C 589.853 -0.669114 -1.83161 0
M  V30 6248 O 589.123 0.311616 -1.93406 0
M  V30 6249 H 587.703 -0.668172 -0.333999 0
M  V30 6250 H 590.365 -1.94048 -0.182051 0
M  V30 6251 H 589.461 -2.74854 -1.47857 0
M  V30 6252 N 589.762 0.448376 -1.51087 0
M  V30 6253 C 591.173 1.0286 -1.5581 0
M  V30 6254 C 591.524 1.92583 -0.374989 0
M  V30 6255 O 590.649 2.10316 0.509533 0
M  V30 6256 C 591.244 1.87223 -2.8237 0
M  V30 6257 C 589.803 2.40314 -2.897 0
M  V30 6258 C 588.95 1.19238 -2.50355 0
M  V30 6259 H 591.901 0.230075 -1.57023 0
M  V30 6260 H 591.922 2.72553 -2.6551 0
M  V30 6261 H 591.434 1.21894 -3.68461 0
M  V30 6262 H 589.535 3.09129 -2.08014 0
M  V30 6263 H 589.648 2.73866 -3.93108 0
M  V30 6264 H 588.012 1.53428 -2.03303 0
M  V30 6265 H 588.795 0.555367 -3.38778 0
M  V30 6266 N 591.24 1.41047 0.703093 0
M  V30 6267 C 592.15 1.44645 1.84703 0
M  V30 6268 C 593.166 0.337778 1.7069 0
M  V30 6269 O 594.342 0.584327 1.92737 0
M  V30 6270 C 591.407 1.31928 3.20618 0
M  V30 6271 C 590.468 2.53047 3.46794 0
M  V30 6272 C 589.701 2.40927 4.76224 0
M  V30 6273 O 589.924 1.42978 5.5219 0
M  V30 6274 O 588.858 3.30543 5.03016 0
M  V30 6275 H 592.684 2.41139 1.84624 0
M  V30 6276 H 590.269 1.22504 0.855167 0
M  V30 6277 H 592.151 1.27092 4.01778 0
M  V30 6278 H 590.826 0.385469 3.21397 0
M  V30 6279 H 589.733 2.6346 2.65593 0
M  V30 6280 H 591.066 3.45231 3.50822 0
M  V30 6281 N 592.718 -0.936591 1.26751 0
M  V30 6282 C 593.628 -2.06949 1.10496 0
M  V30 6283 C 594.644 -1.7396 0.037271 0
M  V30 6284 O 595.82 -1.99941 0.241944 0
M  V30 6285 C 592.885 -3.38612 0.744491 0
M  V30 6286 C 591.946 -3.85355 1.89209 0
M  V30 6287 C 591.179 -5.10735 1.54873 0
M  V30 6288 O 591.402 -5.68602 0.452546 0
M  V30 6289 O 590.336 -5.52632 2.38499 0
M  V30 6290 H 594.162 -2.23571 2.05547 0
M  V30 6291 H 591.747 -1.05428 1.05855 0
M  V30 6292 H 593.629 -4.17711 0.556396 0
M  V30 6293 H 592.304 -3.23218 -0.176582 0
M  V30 6294 H 591.211 -3.07182 2.13518 0
M  V30 6295 H 592.544 -4.05277 2.79305 0
M  V30 6296 N 594.196 -1.08629 -1.14182 0
M  V30 6297 C 595.144 -0.71284 -2.21408 0
M  V30 6298 C 596.138 0.282457 -1.67029 0
M  V30 6299 O 597.344 0.144783 -1.79417 0
M  V30 6300 H 593.719 -0.212497 -0.721352 0
M  V30 6301 H 595.69 -1.6265 -2.50175 0
M  V30 6302 C 594.439 -0.140704 -3.47415 0
M  V30 6303 H 593.762 -0.897739 -3.8959 0
M  V30 6304 H 595.202 0.0827677 -4.23919 0
M  V30 6305 C 593.661 1.122 -3.17668 0
M  V30 6306 O 594.191 2.20652 -3.35672 0
M  V30 6307 N 592.397 1.03328 -2.71609 0
M  V30 6308 H 591.944 0.150666 -2.57159 0
M  V30 6309 H 591.902 1.8789 -2.52081 0
M  V30 6310 N 595.674 1.31259 -0.872281 0
M  V30 6311 C 596.904 2.00504 -0.498183 0
M  V30 6312 C 597.312 1.65632 0.914479 0
M  V30 6313 O 596.655 0.882849 1.61095 0
M  V30 6314 C 596.717 3.5482 -0.578194 0
M  V30 6315 C 596.381 4.13172 -1.95289 0
M  V30 6316 C 597.378 4.30107 -2.92069 0
M  V30 6317 C 595.063 4.48846 -2.25483 0
M  V30 6318 C 597.057 4.81908 -4.17185 0
M  V30 6319 C 594.744 5.00349 -3.50847 0
M  V30 6320 C 595.742 5.16831 -4.46514 0
M  V30 6321 O 595.43 5.67228 -5.69656 0
M  V30 6322 H 595.162 0.648055 -0.192354 0
M  V30 6323 H 597.716 1.6841 -1.17589 0
M  V30 6324 H 595.946 3.86383 0.156438 0
M  V30 6325 H 597.635 4.05318 -0.217192 0
M  V30 6326 H 598.401 4.02862 -2.7005 0
M  V30 6327 H 594.28 4.35292 -1.51795 0
M  V30 6328 H 597.824 4.94688 -4.91863 0
M  V30 6329 H 593.721 5.27028 -3.72708 0
M  V30 6330 H 594.489 5.85592 -5.7186 0
M  V30 6331 N 597.152 0.631951 1.44375 0
M  V30 6332 C 598.377 0.142146 2.06912 0
M  V30 6333 C 598.802 -1.17456 1.4692 0
M  V30 6334 O 598.16 -1.72074 0.570975 0
M  V30 6335 C 598.208 0.0417952 3.60576 0
M  V30 6336 O 597.312 -1.00194 4.00044 0
M  V30 6337 H 596.653 0.0851491 0.658518 0
M  V30 6338 H 599.183 0.868863 1.85235 0
M  V30 6339 H 599.193 -0.148517 4.0773 0
M  V30 6340 H 597.868 1.0031 4.03622 0
M  V30 6341 H 596.445 -0.786131 3.64519 0
M  V30 6342 N 598.631 -1.53133 0.372548 0
M  V30 6343 C 600.047 -1.59585 0.02178 0
M  V30 6344 C 600.247 -1.38736 -1.46132 0
M  V30 6345 O 599.303 -1.19599 -2.22379 0
M  V30 6346 C 600.616 -2.9678 0.483959 0
M  V30 6347 C 602.164 -3.09909 0.438775 0
M  V30 6348 C 602.639 -4.49527 0.876876 0
M  V30 6349 N 604.13 -4.55663 0.832214 0
M  V30 6350 C 604.865 -5.61896 1.14281 0
M  V30 6351 N 604.361 -6.75852 1.52303 0
M  V30 6352 N 606.154 -5.51916 1.06515 0
M  V30 6353 H 598.305 -1.64936 1.33827 0
M  V30 6354 H 600.568 -0.773947 0.547458 0
M  V30 6355 H 600.274 -3.17198 1.51915 0
M  V30 6356 H 600.148 -3.7699 -0.125784 0
M  V30 6357 H 602.535 -2.89197 -0.587294 0
M  V30 6358 H 602.616 -2.31691 1.0841 0
M  V30 6359 H 602.26 -4.70979 1.90109 0
M  V30 6360 H 602.19 -5.26186 0.208727 0
M  V30 6361 H 604.681 -3.73844 0.552195 0
M  V30 6362 H 604.994 -7.52862 1.7441 0
M  V30 6363 H 603.339 -6.77226 1.56175 0
M  V30 6364 H 606.53 -4.6177 0.767235 0
M  V30 6365 H 606.703 -6.34609 1.31053 0
M  V30 6366 N 600.109 -0.101901 -1.5727 0
M  V30 6367 C 601.52 0.426173 -1.81771 0
M  V30 6368 C 601.871 1.67725 -1.01797 0
M  V30 6369 O 600.996 2.14958 -0.249386 0
M  V30 6370 C 601.591 0.779962 -3.297 0
M  V30 6371 C 600.15 1.25275 -3.54941 0
M  V30 6372 C 599.297 0.252814 -2.76145 0
M  V30 6373 H 602.248 -0.32726 -1.55289 0
M  V30 6374 H 602.269 1.63891 -3.43395 0
M  V30 6375 H 601.781 -0.130778 -3.8788 0
M  V30 6376 H 599.882 2.18097 -3.021 0
M  V30 6377 H 599.995 1.20988 -4.63572 0
M  V30 6378 H 598.359 0.736362 -2.43823 0
M  V30 6379 H 599.142 -0.650724 -3.37076 0
M  V30 6380 N 601.587 1.56661 0.17182 0
M  V30 6381 C 602.497 1.99604 1.2327 0
M  V30 6382 C 603.513 0.907333 1.4847 0
M  V30 6383 O 604.689 1.21492 1.60629 0
M  V30 6384 C 601.754 2.34685 2.55194 0
M  V30 6385 C 600.815 3.57381 2.3786 0
M  V30 6386 C 600.048 3.90779 3.63494 0
M  V30 6387 O 600.271 3.25152 4.6865 0
M  V30 6388 O 599.205 4.84129 3.57634 0
M  V30 6389 H 603.031 2.90114 0.898192 0
M  V30 6390 H 600.616 1.44522 0.378647 0
M  V30 6391 H 602.498 2.5822 3.33017 0
M  V30 6392 H 601.173 1.47336 2.88225 0
M  V30 6393 H 600.08 3.39064 1.5807 0
M  V30 6394 H 601.413 4.45268 2.09754 0
M  V30 6395 N 603.065 -0.440357 1.51323 0
M  V30 6396 C 604.028 -1.51679 1.71832 0
M  V30 6397 C 605.028 -1.49648 0.588386 0
M  V30 6398 O 606.218 -1.51724 0.855891 0
M  V30 6399 C 603.35 -2.91228 1.77199 0
M  V30 6400 H 604.543 -1.34799 2.67898 0
M  V30 6401 H 602.096 -0.66883 1.41267 0
M  V30 6402 H 602.831 -3.13516 0.829363 0
M  V30 6403 H 602.616 -2.94107 2.59314 0
M  V30 6404 H 604.106 -3.69321 1.94915 0
M  V30 6405 N 604.543 -1.41418 -0.695603 0
M  V30 6406 C 605.954 -1.36335 -1.27552 0
M  V30 6407 C 606.305 -0.0464336 -1.96145 0
M  V30 6408 O 605.43 0.855304 -1.9878 0
M  V30 6409 C 606.025 -2.46941 -2.3196 0
M  V30 6410 C 604.584 -2.45256 -2.85529 0
M  V30 6411 C 603.731 -2.2679 -1.59566 0
M  V30 6412 H 606.682 -1.50934 -0.490362 0
M  V30 6413 H 606.703 -2.15997 -3.1325 0
M  V30 6414 H 606.215 -3.42775 -1.82008 0
M  V30 6415 H 604.316 -1.53179 -3.39657 0
M  V30 6416 H 604.429 -3.41565 -3.35961 0
M  V30 6417 H 602.793 -1.74667 -1.85374 0
M  V30 6418 H 603.576 -3.24651 -1.1161 0
M  V30 6419 N 606.021 0.929856 -1.27246 0
M  V30 6420 C 606.969 2.05151 -1.09616 0
M  V30 6421 C 607.963 1.69388 -0.0198617 0
M  V30 6422 O 609.169 1.79124 -0.177417 0
M  V30 6423 H 605.544 0.671909 -0.337701 0
M  V30 6424 H 607.515 2.17168 -2.04648 0
M  V30 6425 C 606.264 3.3934 -0.757851 0
M  V30 6426 H 605.587 3.67343 -1.57795 0
M  V30 6427 H 607.027 4.18603 -0.674358 0
M  V30 6428 C 605.486 3.32582 0.537658 0
M  V30 6429 O 606.016 3.69633 1.57271 0
M  V30 6430 N 604.222 2.8568 0.532478 0
M  V30 6431 H 603.769 2.55725 -0.310233 0
M  V30 6432 H 603.727 2.81541 1.39936 0
M  V30 6433 N 607.499 1.09233 1.13605 0
M  V30 6434 C 608.409 0.741939 2.22559 0
M  V30 6435 C 609.425 -0.255236 1.72118 0
M  V30 6436 O 610.601 -0.0970747 2.01166 0
M  V30 6437 C 607.666 0.165595 3.46304 0
M  V30 6438 C 606.727 1.21846 4.11645 0
M  V30 6439 C 605.96 0.669526 5.29484 0
M  V30 6440 O 606.183 -0.508228 5.68131 0
M  V30 6441 O 605.117 1.42361 5.84822 0
M  V30 6442 H 608.943 1.65107 2.54899 0
M  V30 6443 H 606.528 0.866584 1.21699 0
M  V30 6444 H 608.41 -0.152592 4.21124 0
M  V30 6445 H 607.085 -0.716573 3.15669 0
M  V30 6446 H 605.992 1.58931 3.38662 0
M  V30 6447 H 607.325 2.07321 4.46407 0
M  V30 6448 N 608.977 -1.30795 0.87923 0
M  V30 6449 C 610.224 -1.96362 0.494786 0
M  V30 6450 C 610.552 -1.69448 -0.954868 0
M  V30 6451 O 609.807 -0.988711 -1.68888 0
M  V30 6452 C 610.106 -3.50287 0.709476 0
M  V30 6453 C 609.772 -3.9724 2.13333 0
M  V30 6454 C 608.434 -4.09772 2.52271 0
M  V30 6455 C 610.786 -4.21807 3.06151 0
M  V30 6456 C 608.114 -4.44227 3.83248 0
M  V30 6457 C 610.466 -4.5773 4.36654 0
M  V30 6458 C 609.13 -4.68469 4.75492 0
M  V30 6459 H 608.4 -0.71854 0.181055 0
M  V30 6460 H 611.047 -1.55764 1.11399 0
M  V30 6461 H 609.352 -3.91799 0.0072 0
M  V30 6462 H 611.049 -3.99082 0.391703 0
M  V30 6463 H 607.639 -3.87988 1.82107 0
M  V30 6464 H 611.823 -4.11611 2.77291 0
M  V30 6465 H 607.079 -4.50741 4.13089 0
M  V30 6466 H 611.253 -4.7569 5.08617 0
M  V30 6467 H 608.88 -4.94923 5.77022 0
M  V30 6468 N 610.455 -0.639598 -1.44038 0
M  V30 6469 C 611.685 -0.154586 -2.06021 0
M  V30 6470 C 612.093 1.17951 -1.47933 0
M  V30 6471 O 611.436 1.73627 -0.59994 0
M  V30 6472 C 611.498 0.0255459 -3.59491 0
M  V30 6473 C 611.162 -1.2317 -4.40089 0
M  V30 6474 C 612.159 -2.15735 -4.73027 0
M  V30 6475 C 609.844 -1.46949 -4.80324 0
M  V30 6476 C 611.838 -3.30382 -5.45093 0
M  V30 6477 C 609.525 -2.61891 -5.52138 0
M  V30 6478 C 610.523 -3.53433 -5.84443 0
M  V30 6479 O 610.211 -4.6637 -6.54793 0
M  V30 6480 H 609.943 -0.0808543 -0.671147 0
M  V30 6481 H 612.497 -0.876541 -1.85758 0
M  V30 6482 H 610.727 0.802733 -3.78276 0
M  V30 6483 H 612.416 0.466184 -4.03214 0
M  V30 6484 H 613.182 -1.98602 -4.42473 0
M  V30 6485 H 609.061 -0.765815 -4.54595 0
M  V30 6486 H 612.605 -4.01856 -5.70226 0
M  V30 6487 H 608.502 -2.78964 -5.82108 0
M  V30 6488 H 609.27 -4.6546 -6.73267 0
M  V30 6489 N 611.933 1.52934 -0.380664 0
M  V30 6490 C 613.21 1.93845 0.261417 0
M  V30 6491 C 613.59 1.31544 1.65104 0
M  V30 6492 O 612.938 0.480234 2.23397 0
M  V30 6493 C 613.148 3.47739 0.296466 0
M  V30 6494 C 614.496 4.21284 0.529578 0
M  V30 6495 O 615.52 3.54199 0.377041 0
M  V30 6496 O 614.379 5.40195 0.827753 0
M  V30 6497 H 611.473 0.811318 0.160285 0
M  V30 6498 H 614.019 1.64042 -0.434544 0
M  V30 6499 H 612.791 3.85395 -0.67724 0
M  V30 6500 H 612.414 3.8382 1.0377 0
M  V30 6501 N 613.412 0.11024 1.57214 0
M  V30 6502 C 614.66 -0.548783 1.94506 0
M  V30 6503 C 614.981 -1.67772 0.99386 0
M  V30 6504 O 614.251 -1.9584 0.0485841 0
M  V30 6505 H 612.831 -0.205715 0.718116 0
M  V30 6506 H 615.493 0.177127 1.94093 0
M  V30 6507 H 614.589 -0.949096 2.97319 0
M  V30 6508 N 614.89 -1.56749 -0.16351 0
M  V30 6509 C 616.167 -1.73321 -0.906599 0
M  V30 6510 C 616.547 -0.673779 -2.00059 0
M  V30 6511 O 615.895 0.310121 -2.26386 0
M  V30 6512 C 616.105 -3.168 -1.46419 0
M  V30 6513 C 617.453 -3.77993 -1.93407 0
M  V30 6514 O 618.477 -3.20127 -1.56196 0
M  V30 6515 O 617.336 -4.79615 -2.61976 0
M  V30 6516 H 614.43 -0.708073 -0.427272 0
M  V30 6517 H 616.976 -1.69029 -0.150727 0
M  V30 6518 H 615.748 -3.85396 -0.677189 0
M  V30 6519 H 615.371 -3.2545 -2.28403 0
M  V30 6520 N 616.368 0.432326 -1.51554 0
M  V30 6521 C 617.318 1.52366 -1.69614 0
M  V30 6522 C 618.302 1.51205 -0.550083 0
M  V30 6523 O 619.494 1.57573 -0.806206 0
M  V30 6524 C 616.623 2.90513 -1.82913 0
M  V30 6525 C 615.709 2.9641 -3.03318 0
M  V30 6526 N 616.1 2.72043 -4.26411 0
M  V30 6527 C 614.398 3.27572 -3.02675 0
M  V30 6528 C 615.099 2.83912 -5.07709 0
M  V30 6529 N 614.075 3.15798 -4.42462 0
M  V30 6530 H 617.877 1.32285 -2.62446 0
M  V30 6531 H 615.391 0.639708 -1.4927 0
M  V30 6532 H 617.388 3.69032 -1.93962 0
M  V30 6533 H 616.048 3.1161 -0.912655 0
M  V30 6534 H 617.059 2.46876 -4.55272 0
M  V30 6535 H 613.736 3.54411 -2.20678 0
M  V30 6536 H 615.126 2.68984 -6.15709 0
M  V30 6537 N 617.846 1.41785 0.688094 0
M  V30 6538 C 619.123 1.32031 1.44316 0
M  V30 6539 C 619.503 -0.0486079 2.11044 0
M  V30 6540 O 618.851 -1.06332 2.02252 0
M  V30 6541 C 619.061 2.47906 2.45649 0
M  V30 6542 C 620.409 2.89415 3.10683 0
M  V30 6543 O 621.433 2.477 2.55975 0
M  V30 6544 O 620.292 3.61573 4.09789 0
M  V30 6545 H 617.386 0.519994 0.643067 0
M  V30 6546 H 619.932 1.53765 0.71794 0
M  V30 6547 H 618.704 3.39222 1.95048 0
M  V30 6548 H 618.327 2.28089 3.25671 0
M  V30 6549 N 619.324 -0.923095 1.27737 0
M  V30 6550 C 620.272 -2.04567 1.10703 0
M  V30 6551 C 621.266 -1.69375 0.0288445 0
M  V30 6552 O 622.472 -1.79027 0.186913 0
M  V30 6553 H 618.847 -0.670109 0.34126 0
M  V30 6554 H 620.818 -2.1608 2.05796 0
M  V30 6555 C 619.567 -3.38934 0.775837 0
M  V30 6556 H 618.89 -3.66501 1.59741 0
M  V30 6557 H 620.33 -4.18239 0.696548 0
M  V30 6558 C 618.789 -3.32863 -0.520012 0
M  V30 6559 O 619.319 -3.70462 -1.55308 0
M  V30 6560 N 617.525 -2.85958 -0.51732 0
M  V30 6561 H 617.072 -2.55557 0.32379 0
M  V30 6562 H 617.03 -2.82279 -1.38441 0
M  V30 6563 N 620.802 -1.09834 -1.13024 0
M  V30 6564 C 622.079 -0.749225 -1.80682 0
M  V30 6565 C 622.459 0.765171 -1.96744 0
M  V30 6566 O 621.807 1.68912 -1.53886 0
M  V30 6567 C 622.017 -1.49311 -3.15448 0
M  V30 6568 C 623.365 -1.66162 -3.90737 0
M  V30 6569 O 624.389 -1.45597 -3.25085 0
M  V30 6570 O 623.248 -2.00211 -5.08505 0
M  V30 6571 H 620.342 -0.269614 -0.781817 0
M  V30 6572 H 622.888 -1.20078 -1.19914 0
M  V30 6573 H 621.66 -2.52407 -2.99009 0
M  V30 6574 H 621.283 -1.034 -3.8392 0
M  V30 6575 N 622.28 1.30327 -0.886154 0
M  V30 6576 C 623.227 2.28099 -0.352069 0
M  V30 6577 C 624.197 1.56433 0.558397 0
M  V30 6578 O 625.382 1.84492 0.486561 0
M  V30 6579 C 622.522 3.42456 0.426346 0
M  V30 6580 C 621.635 4.28938 -0.513472 0
M  V30 6581 C 620.77 5.30458 0.280657 0
M  V30 6582 C 619.809 6.0859 -0.654556 0
M  V30 6583 N 618.946 7.02022 0.104322 0
M  V30 6584 H 623.786 2.73166 -1.19097 0
M  V30 6585 H 621.323 1.34367 -0.598662 0
M  V30 6586 H 623.281 4.07518 0.893587 0
M  V30 6587 H 621.911 2.98455 1.22981 0
M  V30 6588 H 620.963 3.64173 -1.09921 0
M  V30 6589 H 622.275 4.83399 -1.2299 0
M  V30 6590 H 621.429 6.01273 0.8097 0
M  V30 6591 H 620.168 4.76693 1.03029 0
M  V30 6592 H 619.173 5.36651 -1.19522 0
M  V30 6593 H 620.398 6.64443 -1.4033 0
M  V30 6594 H 618.344 6.50645 0.836472 0
M  V30 6595 H 618.261 7.53979 -0.552453 0
M  V30 6596 H 619.529 7.77077 0.614069 0
M  V30 6597 N 623.758 0.647228 1.43697 0
M  V30 6598 C 624.668 -0.0487997 2.34549 0
M  V30 6599 C 625.684 -0.818586 1.53542 0
M  V30 6600 O 626.86 -0.767195 1.86215 0
M  V30 6601 C 623.925 -1.00734 3.31743 0
M  V30 6602 C 622.986 -0.23515 4.28655 0
M  V30 6603 C 622.219 -1.14803 5.21206 0
M  V30 6604 O 622.442 -2.38717 5.18045 0
M  V30 6605 O 621.376 -0.623667 5.9866 0
M  V30 6606 H 625.202 0.698863 2.9555 0
M  V30 6607 H 622.787 0.407412 1.43738 0
M  V30 6608 H 624.669 -1.55837 3.91526 0
M  V30 6609 H 623.344 -1.73534 2.73254 0
M  V30 6610 H 622.251 0.359319 3.7237 0
M  V30 6611 H 623.584 0.453152 4.9011 0
M  V30 6612 N 625.236 -1.5273 0.388769 0
M  V30 6613 C 626.461 -2.0647 -0.19621 0
M  V30 6614 C 626.886 -1.25865 -1.39784 0
M  V30 6615 O 626.244 -0.283562 -1.79069 0
M  V30 6616 C 626.292 -3.56456 -0.5451 0
M  V30 6617 O 625.396 -3.78426 -1.63912 0
M  V30 6618 H 624.737 -0.663599 -0.023067 0
M  V30 6619 H 627.267 -1.96898 0.556084 0
M  V30 6620 H 627.277 -3.99888 -0.809557 0
M  V30 6621 H 625.952 -4.14561 0.333417 0
M  V30 6622 H 624.529 -3.46884 -1.36842 0
M  V30 6623 N 626.714 -0.118576 -1.57153 0
M  V30 6624 C 627.991 0.583062 -1.86708 0
M  V30 6625 C 628.371 1.84841 -1.01967 0
M  V30 6626 O 627.719 2.28288 -0.0984673 0
M  V30 6627 C 627.929 0.875912 -3.3783 0
M  V30 6628 C 629.277 1.22916 -4.0642 0
M  V30 6629 O 630.301 0.966188 -3.42846 0
M  V30 6630 O 629.16 1.72269 -5.18638 0
M  V30 6631 H 626.254 0.294185 -0.772906 0
M  V30 6632 H 628.8 -0.153048 -1.69008 0
M  V30 6633 H 627.572 -0.0207776 -3.91294 0
M  V30 6634 H 627.195 1.66719 -3.60958 0
M  V30 6635 N 628.193 1.56834 0.155195 0
M  V30 6636 C 629.439 1.83169 0.870467 0
M  V30 6637 C 629.772 0.698929 1.81187 0
M  V30 6638 O 629.047 -0.298035 1.92203 0
M  V30 6639 C 629.33 3.19965 1.65211 0
M  V30 6640 C 629.183 4.43792 0.732744 0
M  V30 6641 C 630.502 3.53885 2.61636 0
M  V30 6642 H 627.621 0.666288 0.315006 0
M  V30 6643 H 630.263 1.89513 0.135988 0
M  V30 6644 H 628.413 3.14687 2.27825 0
M  V30 6645 H 630.085 4.61148 0.118236 0
M  V30 6646 H 628.328 4.3378 0.0417906 0
M  V30 6647 H 628.999 5.36095 1.31552 0
M  V30 6648 H 631.475 3.5972 2.09143 0
M  V30 6649 H 630.351 4.50648 3.13381 0
M  V30 6650 H 630.612 2.79418 3.42605 0
M  V30 6651 N 629.671 -0.424282 1.51781 0
M  V30 6652 C 630.581 -1.54087 1.76902 0
M  V30 6653 C 631.597 -1.61249 0.653826 0
M  V30 6654 O 632.773 -1.78247 0.937552 0
M  V30 6655 C 629.838 -2.8996 1.90063 0
M  V30 6656 C 628.899 -2.92809 3.13945 0
M  V30 6657 C 628.132 -4.22201 3.26469 0
M  V30 6658 O 628.355 -5.15286 2.44616 0
M  V30 6659 O 627.289 -4.31599 4.1953 0
M  V30 6660 H 631.115 -1.358 2.71647 0
M  V30 6661 H 628.7 -0.608618 1.36441 0
M  V30 6662 H 630.582 -3.70575 2.0063 0
M  V30 6663 H 629.257 -3.08347 0.985067 0
M  V30 6664 H 628.164 -2.11102 3.08847 0
M  V30 6665 H 629.497 -2.79369 4.05233 0
M  V30 6666 N 631.149 -1.42148 -0.680565 0
M  V30 6667 C 632.398 -1.41604 -1.43636 0
M  V30 6668 C 632.711 -0.0337887 -1.95571 0
M  V30 6669 O 633.917 0.0942588 -2.71336 0
M  V30 6670 C 632.373 -2.49056 -2.59806 0
M  V30 6671 C 631.981 -3.9326 -2.14594 0
M  V30 6672 C 633.725 -2.5767 -3.37352 0
M  V30 6673 C 631.632 -4.92232 -3.27813 0
M  V30 6674 H 630.562 -0.526656 -0.539583 0
M  V30 6675 H 633.213 -1.68033 -0.737369 0
M  V30 6676 H 631.595 -2.15782 -3.32045 0
M  V30 6677 H 632.769 -4.35858 -1.49546 0
M  V30 6678 H 631.084 -3.88443 -1.50002 0
M  V30 6679 H 633.681 -3.28794 -4.21662 0
M  V30 6680 H 634.024 -1.61837 -3.83555 0
M  V30 6681 H 634.557 -2.90109 -2.72179 0
M  V30 6682 H 631.296 -5.89522 -2.86607 0
M  V30 6683 H 630.816 -4.5427 -3.91661 0
M  V30 6684 H 632.495 -5.13684 -3.93367 0
M  V30 6685 O 632.666 0.823011 -1.38956 0
M  V30 6686 H 633.357 1.46633 -1.26564 0
M  V30 END ATOM
M  V30 BEGIN BOND
M  V30 END BOND
M  V30 END CTAB
M  END
$$$$
