drugbank_drug|DB05319 9045_H|oportuzumab monatox|||SCFV-KAPPA-HEAVY-TOXIN (V-KAPPA(7-118)+LINKER(119-144)+VH(145-260)+TOX-DOMAIN(281-637))|||||||647||||MW 69566.3|MW 69566.3|
 OpenBabel12092119133D

  0  0  0     0  0            999 V3000
M  V30 BEGIN CTAB
M  V30 COUNTS 9631 9759 0 0 0
M  V30 BEGIN ATOM
M  V30 1 H -0.908 1.98254 -0.117106 0
M  V30 2 N 0 1.576 0 0
M  V30 3 C 0.95 2.04904 0.999926 0
M  V30 4 C 1.934 0.943764 1.30315 0
M  V30 5 O 3.126 1.20753 1.29413 0
M  V30 6 C 0.255 2.55589 2.29192 0
M  V30 7 C -0.659 3.72993 2.01834 0
M  V30 8 N -0.268 4.8468 1.44635 0
M  V30 9 C -1.97 3.80924 2.31977 0
M  V30 10 C -1.269 5.66115 1.33747 0
M  V30 11 N -2.293 5.12118 1.82308 0
M  V30 12 H 1.509 2.88666 0.55217 0
M  V30 13 H -0.977 1.61092 0.205694 0
M  V30 14 H 1.02 2.87754 3.01668 0
M  V30 15 H -0.32 1.73245 2.7462 0
M  V30 16 H 0.691 5.0553 1.12516 0
M  V30 17 H -2.632 3.09434 2.8028 0
M  V30 18 H -1.242 6.65877 0.897654 0
M  V30 19 N 1.4781 -0.272755 1.55222 0
M  V30 20 C 2.4281 -1.33946 1.84506 0
M  V30 21 C 3.4121 -1.44682 0.70399 0
M  V30 22 O 4.6041 -1.48358 0.965338 0
M  V30 23 C 1.7331 -2.69968 2.12067 0
M  V30 24 C 0.8191 -2.63341 3.32434 0
M  V30 25 N 1.2101 -2.26335 4.52334 0
M  V30 26 C -0.4919 -2.94402 3.35028 0
M  V30 27 C 0.2091 -2.29705 5.34425 0
M  V30 28 N -0.8149 -2.68188 4.72838 0
M  V30 29 H 2.9871 -1.04343 2.74754 0
M  V30 30 H 0.5011 -0.481389 1.55101 0
M  V30 31 H 2.4981 -3.46916 2.31202 0
M  V30 32 H 1.1581 -3.00459 1.23103 0
M  V30 33 H 2.1691 -1.98309 4.78429 0
M  V30 34 H -1.1539 -3.29603 2.56257 0
M  V30 35 H 0.2361 -2.03653 6.40293 0
M  V30 36 N 2.9562 -1.48159 -0.537278 0
M  V30 37 C 3.9062 -1.5854 -1.63857 0
M  V30 38 C 4.8902 -0.442969 -1.54682 0
M  V30 39 O 6.0822 -0.69401 -1.62827 0
M  V30 40 C 3.2112 -1.62144 -3.02596 0
M  V30 41 C 2.2972 -2.81841 -3.16901 0
M  V30 42 N 2.6882 -4.06337 -3.01204 0
M  V30 43 C 0.9862 -2.79021 -3.47942 0
M  V30 44 C 1.6872 -4.86606 -3.18731 0
M  V30 45 N 0.6632 -4.19288 -3.45974 0
M  V30 46 H 4.4652 -2.5255 -1.50319 0
M  V30 47 H 1.9792 -1.4443 -0.742555 0
M  V30 48 H 3.9762 -1.67674 -3.81695 0
M  V30 49 H 2.6362 -0.69245 -3.17231 0
M  V30 50 H 3.6472 -4.36888 -2.78117 0
M  V30 51 H 0.3242 -1.95347 -3.6898 0
M  V30 52 H 1.7142 -5.95385 -3.11394 0
M  V30 53 N 4.4343 0.785586 -1.36625 0
M  V30 54 C 5.3843 1.88822 -1.27789 0
M  V30 55 C 6.3683 1.60014 -0.168579 0
M  V30 56 O 7.5603 1.72381 -0.401737 0
M  V30 57 C 4.6893 3.26092 -1.07327 0
M  V30 58 C 3.7753 3.60897 -2.22743 0
M  V30 59 N 4.1663 3.66982 -3.48077 0
M  V30 60 C 2.4643 3.90981 -2.14593 0
M  V30 61 C 3.1653 3.98137 -4.24101 0
M  V30 62 N 2.1413 4.13319 -3.53084 0
M  V30 63 H 5.9433 1.91759 -2.22723 0
M  V30 64 H 3.4573 0.981311 -1.29399 0
M  V30 65 H 5.4543 4.04954 -0.990842 0
M  V30 66 H 4.1143 3.24428 -0.132977 0
M  V30 67 H 5.1253 3.49531 -3.82163 0
M  V30 68 H 1.8023 3.9722 -1.2854 0
M  V30 69 H 3.1923 4.09737 -5.32509 0
M  V30 70 N 5.9124 1.20967 1.01018 0
M  V30 71 C 6.8624 0.93182 2.08089 0
M  V30 72 C 7.8464 -0.110898 1.60517 0
M  V30 73 O 9.0384 0.0973392 1.76732 0
M  V30 74 C 6.1674 0.492719 3.39746 0
M  V30 75 C 5.2534 1.56922 3.94 0
M  V30 76 N 5.6444 2.79312 4.21686 0
M  V30 77 C 3.9424 1.43688 4.2222 0
M  V30 78 C 4.6434 3.48797 4.65527 0
M  V30 79 N 3.6194 2.76224 4.68189 0
M  V30 80 H 7.4214 1.86175 2.27412 0
M  V30 81 H 4.9354 1.10463 1.19045 0
M  V30 82 H 6.9324 0.275044 4.15992 0
M  V30 83 H 5.5924 -0.430509 3.21833 0
M  V30 84 H 6.6034 3.15903 4.10397 0
M  V30 85 H 3.2804 0.578548 4.13472 0
M  V30 86 H 4.6704 4.53561 4.95714 0
M  V30 87 N 7.3905 -1.2043 1.01659 0
M  V30 88 C 8.3405 -2.21076 0.557623 0
M  V30 89 C 9.3245 -1.56176 -0.387029 0
M  V30 90 O 10.5165 -1.7575 -0.209996 0
M  V30 91 C 7.6455 -3.43146 -0.102707 0
M  V30 92 C 6.7315 -4.15213 0.863652 0
M  V30 93 N 7.1225 -4.63662 2.02117 0
M  V30 94 C 5.4205 -4.40716 0.684472 0
M  V30 95 C 6.1215 -5.18868 2.62966 0
M  V30 96 N 5.0975 -5.0893 1.91027 0
M  V30 97 H 8.8995 -2.56201 1.44008 0
M  V30 98 H 6.4135 -1.36366 0.881931 0
M  V30 99 H 8.4105 -4.14475 -0.449054 0
M  V30 100 H 7.0705 -3.09526 -0.981003 0
M  V30 101 H 8.0815 -4.58877 2.40109 0
M  V30 102 H 4.7585 -4.17245 -0.14577 0
M  V30 103 H 6.1485 -5.6673 3.60924 0
M  V30 104 N 8.8686 -0.792821 -1.36206 0
M  V30 105 C 10.1456 -0.290627 -1.93429 0
M  V30 106 C 10.5256 1.21773 -1.72437 0
M  V30 107 O 9.8736 2.0108 -1.08531 0
M  V30 108 C 10.0836 -0.686973 -3.42172 0
M  V30 109 C 11.4316 -0.668643 -4.19302 0
M  V30 110 O 12.4556 -0.627658 -3.50626 0
M  V30 111 O 11.3146 -0.714597 -5.41808 0
M  V30 112 H 8.4086 -0.0727927 -0.82379 0
M  V30 113 H 10.9546 -0.875593 -1.45367 0
M  V30 114 H 9.7266 -1.72711 -3.51122 0
M  V30 115 H 9.3496 -0.0760733 -3.97527 0
M  V30 116 N 10.3467 1.47872 -0.545128 0
M  V30 117 C 11.5957 2.01695 -0.0145033 0
M  V30 118 C 11.9087 1.42609 1.33873 0
M  V30 119 O 13.1147 1.88021 1.95858 0
M  V30 120 C 11.5707 3.59892 0.0245068 0
M  V30 121 C 11.1787 4.27966 -1.32475 0
M  V30 122 C 12.9227 4.21507 0.50316 0
M  V30 123 C 10.8297 5.78136 -1.2455 0
M  V30 124 H 9.7597 0.753998 -0.00165172 0
M  V30 125 H 12.4107 1.69985 -0.691175 0
M  V30 126 H 10.7927 3.88509 0.766575 0
M  V30 127 H 11.9667 4.11003 -2.08357 0
M  V30 128 H 10.2817 3.78286 -1.74036 0
M  V30 129 H 12.8787 5.31538 0.580656 0
M  V30 130 H 13.2217 3.87855 1.51243 0
M  V30 131 H 13.7547 3.97376 -0.183681 0
M  V30 132 H 10.4937 6.16388 -2.23039 0
M  V30 133 H 10.0137 5.97469 -0.528282 0
M  V30 134 H 11.6927 6.40099 -0.942488 0
M  V30 135 N 11.8248 0.280983 1.55075 0
M  V30 136 C 12.7568 -0.637268 2.20163 0
M  V30 137 C 13.7698 -1.11298 1.18813 0
M  V30 138 O 14.9588 -1.03388 1.4551 0
M  V30 139 C 12.0588 -1.88199 2.81841 0
M  V30 140 C 11.2318 -1.55211 4.08936 0
M  V30 141 C 10.2908 -2.64991 4.54606 0
M  V30 142 O 9.3168 -2.30929 5.2025 0
M  V30 143 N 10.5188 -3.95161 4.25238 0
M  V30 144 H 13.2838 -0.0801694 2.99593 0
M  V30 145 H 10.8448 0.102329 1.61576 0
M  V30 146 H 12.8368 -2.60948 3.09335 0
M  V30 147 H 11.4068 -2.34799 2.06369 0
M  V30 148 H 10.6268 -0.658185 3.88666 0
M  V30 149 H 11.9148 -1.30681 4.91732 0
M  V30 150 H 11.3128 -4.25653 3.72607 0
M  V30 151 H 9.8698 -4.6427 4.5749 0
M  V30 152 N 13.3029 -1.57598 0.00835791 0
M  V30 153 C 14.2359 -2.04409 -1.01451 0
M  V30 154 C 15.2139 -0.935609 -1.32985 0
M  V30 155 O 16.3979 -1.20437 -1.45007 0
M  V30 156 C 13.5249 -2.44872 -2.33999 0
M  V30 157 C 12.5709 -3.66535 -2.18069 0
M  V30 158 S 13.4039 -5.14095 -1.4989 0
M  V30 159 C 14.5599 -5.57835 -2.8385 0
M  V30 160 H 14.7929 -2.90849 -0.615961 0
M  V30 161 H 12.3259 -1.53063 -0.202752 0
M  V30 162 H 14.2839 -2.68852 -3.10208 0
M  V30 163 H 12.9449 -1.58815 -2.70992 0
M  V30 164 H 12.1379 -3.92626 -3.16008 0
M  V30 165 H 11.7399 -3.426 -1.50004 0
M  V30 166 H 14.0319 -5.60806 -3.80136 0
M  V30 167 H 14.9749 -6.57667 -2.62449 0
M  V30 168 H 15.3829 -4.85421 -2.88144 0
M  V30 169 N 14.781 0.264519 -1.55364 0
M  V30 170 C 16.009 1.013 -1.80405 0
M  V30 171 C 16.424 1.79618 -0.581622 0
M  V30 172 O 15.781 1.76879 0.449468 0
M  V30 173 C 15.832 1.96487 -3.03439 0
M  V30 174 O 15.553 1.21341 -4.20961 0
M  V30 175 C 17.054 2.83079 -3.41147 0
M  V30 176 H 14.274 0.298875 -0.600762 0
M  V30 177 H 16.818 0.292736 -2.02394 0
M  V30 178 H 14.973 2.63965 -2.83551 0
M  V30 179 H 15.387 1.85573 -4.90574 0
M  V30 180 H 16.861 3.4565 -4.30384 0
M  V30 181 H 17.338 3.53286 -2.60932 0
M  V30 182 H 17.944 2.2108 -3.63323 0
M  V30 183 N 16.2591 1.48442 0.529413 0
M  V30 184 C 17.1911 1.59095 1.64989 0
M  V30 185 C 18.2041 0.475212 1.5571 0
M  V30 186 O 19.3931 0.746081 1.6216 0
M  V30 187 C 16.4931 1.50518 3.0364 0
M  V30 188 C 15.6661 2.77142 3.38395 0
M  V30 189 C 14.7251 2.62012 4.56329 0
M  V30 190 O 13.7511 3.35898 4.59522 0
M  V30 191 N 14.9531 1.71667 5.54536 0
M  V30 192 H 17.7181 2.55723 1.56287 0
M  V30 193 H 15.2791 1.45173 0.716697 0
M  V30 194 H 17.2711 1.38091 3.80412 0
M  V30 195 H 15.8411 0.618627 3.06418 0
M  V30 196 H 15.0611 3.0413 2.50796 0
M  V30 197 H 16.3491 3.61146 3.58401 0
M  V30 198 H 15.7471 1.10841 5.54735 0
M  V30 199 H 14.3041 1.65178 6.30523 0
M  V30 200 N 17.7372 -0.778329 1.37039 0
M  V30 201 C 18.9622 -1.57248 1.35233 0
M  V30 202 C 19.3872 -1.87999 -0.0615568 0
M  V30 203 O 18.7452 -1.48734 -1.03672 0
M  V30 204 C 18.7932 -2.86353 2.19167 0
M  V30 205 O 17.8972 -3.80442 1.59178 0
M  V30 206 H 17.2382 -0.476569 0.462362 0
M  V30 207 H 19.7682 -0.963853 1.80474 0
M  V30 208 H 19.7782 -3.35519 2.32145 0
M  V30 209 H 18.4532 -2.63299 3.21942 0
M  V30 210 H 17.0302 -3.39067 1.55203 0
M  V30 211 N 19.2153 -1.21501 -1.00376 0
M  V30 212 C 20.6263 -1.03146 -1.55621 0
M  V30 213 C 20.9773 0.408375 -1.91903 0
M  V30 214 O 20.1023 1.29177 -1.73616 0
M  V30 215 C 20.6973 -1.86612 -2.82775 0
M  V30 216 C 19.2563 -1.72586 -3.34501 0
M  V30 217 C 18.4033 -1.83747 -2.07683 0
M  V30 218 H 21.3543 -1.35505 -0.826081 0
M  V30 219 H 21.3753 -1.3771 -3.54706 0
M  V30 220 H 20.8873 -2.91399 -2.56336 0
M  V30 221 H 18.9883 -0.704877 -3.65872 0
M  V30 222 H 19.1013 -2.54623 -4.05837 0
M  V30 223 H 17.4653 -1.27069 -2.20739 0
M  V30 224 H 18.2483 -2.90044 -1.83655 0
M  V30 225 N 20.6934 1.19889 -1.02296 0
M  V30 226 C 21.9184 1.9393 -0.735237 0
M  V30 227 C 22.3434 1.74639 0.698782 0
M  V30 228 O 21.7014 1.04481 1.48167 0
M  V30 229 C 21.7494 3.43916 -1.08417 0
M  V30 230 O 20.8534 4.11917 -0.199446 0
M  V30 231 H 20.1944 0.605645 -0.272196 0
M  V30 232 H 22.7244 1.52137 -1.36804 0
M  V30 233 H 22.7344 3.9456 -1.03856 0
M  V30 234 H 21.4094 3.5728 -2.12894 0
M  V30 235 H 19.9864 3.71666 -0.303136 0
M  V30 236 N 22.1715 0.800033 1.35784 0
M  V30 237 C 23.3965 0.388511 2.03729 0
M  V30 238 C 23.8215 -0.990481 1.5991 0
M  V30 239 O 23.1795 -1.64013 0.772612 0
M  V30 240 C 23.2275 0.4726 3.5749 0
M  V30 241 O 22.3315 -0.51646 4.09153 0
M  V30 242 H 21.6725 0.163271 0.643614 0
M  V30 243 H 24.2025 1.0841 1.73518 0
M  V30 244 H 24.2125 0.34003 4.06581 0
M  V30 245 H 22.8875 1.47848 3.88734 0
M  V30 246 H 21.4645 -0.344673 3.71304 0
M  V30 247 N 23.6496 -1.47581 0.552962 0
M  V30 248 C 24.5796 -2.32762 -0.185451 0
M  V30 249 C 25.5606 -1.43527 -0.912905 0
M  V30 250 O 26.7456 -1.72388 -0.894201 0
M  V30 251 C 23.8756 -3.25219 -1.21859 0
M  V30 252 C 22.8296 -4.23661 -0.607864 0
M  V30 253 C 22.1556 -5.05413 -1.74533 0
M  V30 254 C 23.4556 -5.20481 0.435582 0
M  V30 255 H 25.1496 -2.94749 0.525684 0
M  V30 256 H 22.6956 -1.41738 0.254251 0
M  V30 257 H 24.6486 -3.8365 -1.7433 0
M  V30 258 H 23.3726 -2.61279 -1.95961 0
M  V30 259 H 22.0316 -3.66451 -0.104489 0
M  V30 260 H 21.6796 -4.3788 -2.47529 0
M  V30 261 H 21.3796 -5.72059 -1.34249 0
M  V30 262 H 22.9036 -5.66701 -2.27338 0
M  V30 263 H 24.3176 -5.733 -0.00290157 0
M  V30 264 H 22.7146 -5.95305 0.757067 0
M  V30 265 H 23.7846 -4.66217 1.33303 0
M  V30 266 N 25.1277 -0.289203 -1.54924 0
M  V30 267 C 26.3527 0.329299 -2.04769 0
M  V30 268 C 26.7777 1.4763 -1.16564 0
M  V30 269 O 26.1357 1.80527 -0.167186 0
M  V30 270 C 26.1837 0.774438 -3.52186 0
M  V30 271 O 25.2877 1.88038 -3.67036 0
M  V30 272 H 24.6287 0.0659259 -0.660719 0
M  V30 273 H 27.1587 -0.42761 -2.00082 0
M  V30 274 H 27.1687 1.06642 -3.93816 0
M  V30 275 H 25.8437 -0.0646707 -4.1585 0
M  V30 276 H 24.4207 1.58985 -3.3731 0
M  V30 277 N 26.6058 1.57591 -0.0167156 0
M  V30 278 C 27.5688 2.08393 0.954204 0
M  V30 279 C 28.5688 0.996531 1.26198 0
M  V30 280 O 29.7588 1.25858 1.20438 0
M  V30 281 C 26.8908 2.5394 2.27436 0
M  V30 282 H 28.0838 2.95455 0.514451 0
M  V30 283 H 25.6368 1.54582 0.231089 0
M  V30 284 H 26.3718 1.70171 2.76066 0
M  V30 285 H 26.1568 3.33371 2.06412 0
M  V30 286 H 27.6468 2.93512 2.97053 0
M  V30 287 N 28.0839 -0.256276 1.55502 0
M  V30 288 C 29.3089 -1.00766 1.81276 0
M  V30 289 C 29.7339 -1.78524 0.59252 0
M  V30 290 O 29.0919 -1.75413 -0.45827 0
M  V30 291 C 29.1399 -1.92869 3.04687 0
M  V30 292 O 28.2439 -3.019 2.80945 0
M  V30 293 H 27.5849 -0.287224 0.598664 0
M  V30 294 H 30.1149 -0.280109 2.02674 0
M  V30 295 H 30.1249 -2.34511 3.33869 0
M  V30 296 H 28.7999 -1.35689 3.93143 0
M  V30 297 H 27.3769 -2.64454 2.62904 0
M  V30 298 N 29.562 -1.4872 -0.521534 0
M  V30 299 C 30.808 -1.574 -1.27879 0
M  V30 300 C 31.141 -0.250817 -1.92573 0
M  V30 301 O 30.416 0.743934 -1.79711 0
M  V30 302 C 30.699 -2.71843 -2.36164 0
M  V30 303 C 30.552 -4.13893 -1.76105 0
M  V30 304 C 31.871 -2.82008 -3.37875 0
M  V30 305 H 28.99 -0.572941 -0.463581 0
M  V30 306 H 31.632 -1.80927 -0.580119 0
M  V30 307 H 29.782 -2.51914 -2.95756 0
M  V30 308 H 31.454 -4.45284 -1.20499 0
M  V30 309 H 29.697 -4.20498 -1.06601 0
M  V30 310 H 30.368 -4.89804 -2.5455 0
M  V30 311 H 32.844 -3.00086 -2.88249 0
M  V30 312 H 31.72 -3.63796 -4.11028 0
M  V30 313 H 31.981 -1.90511 -3.98946 0
M  V30 314 N 31.0401 0.771051 -1.3745 0
M  V30 315 C 32.2881 1.52661 -1.32435 0
M  V30 316 C 32.6091 1.9479 0.0905024 0
M  V30 317 O 31.8791 1.66348 1.03466 0
M  V30 318 H 30.4591 0.566218 -0.487244 0
M  V30 319 H 33.1211 0.917636 -1.71946 0
M  V30 320 H 32.2171 2.42568 -1.96385 0
M  V30 321 N 32.5182 1.22032 0.997298 0
M  V30 322 C 33.7952 0.950823 1.70935 0
M  V30 323 C 34.1752 -0.535292 2.042 0
M  V30 324 O 33.5232 -1.50217 1.72183 0
M  V30 325 C 33.7332 1.84386 2.96315 0
M  V30 326 C 35.0812 2.09732 3.69185 0
M  V30 327 O 36.1052 1.81798 3.06314 0
M  V30 328 O 34.9642 2.57018 4.82291 0
M  V30 329 H 32.0582 0.357204 0.745878 0
M  V30 330 H 34.6042 1.32997 1.05404 0
M  V30 331 H 33.3762 2.84928 2.68201 0
M  V30 332 H 32.9992 1.46602 3.69586 0
M  V30 333 N 33.9963 -1.19345 1.0293 0
M  V30 334 C 35.4123 -1.41069 0.746446 0
M  V30 335 C 35.6123 -1.90078 -0.668776 0
M  V30 336 O 34.6683 -2.0778 -1.4347 0
M  V30 337 C 35.9813 -2.42141 1.78292 0
M  V30 338 C 37.5293 -2.55887 1.80252 0
M  V30 339 C 38.0043 -3.60214 2.8286 0
M  V30 340 N 39.4953 -3.67711 2.81679 0
M  V30 341 C 40.2303 -4.48128 3.57727 0
M  V30 342 N 39.7263 -5.32248 4.43491 0
M  V30 343 N 41.5193 -4.42782 3.46267 0
M  V30 344 H 33.6703 -0.858536 1.94275 0
M  V30 345 H 35.9333 -0.439541 0.839945 0
M  V30 346 H 35.6393 -2.13155 2.79746 0
M  V30 347 H 35.5133 -3.41323 1.60557 0
M  V30 348 H 37.9003 -2.84196 0.794757 0
M  V30 349 H 37.9813 -1.56858 2.02062 0
M  V30 350 H 37.6253 -3.32647 3.83807 0
M  V30 351 H 37.5553 -4.58895 2.58307 0
M  V30 352 H 40.0463 -3.07634 2.19476 0
M  V30 353 H 40.3593 -5.90729 4.98256 0
M  V30 354 H 38.7043 -5.31707 4.47564 0
M  V30 355 H 41.8953 -3.76107 2.78677 0
M  V30 356 H 42.0683 -5.05215 4.05785 0
M  V30 357 N 35.4744 -0.807222 -1.35358 0
M  V30 358 C 36.7204 -0.388463 -1.99045 0
M  V30 359 C 37.0534 1.04184 -1.63888 0
M  V30 360 O 36.3284 1.72292 -0.902535 0
M  V30 361 C 36.6114 -0.572783 -3.55515 0
M  V30 362 C 36.4644 -2.04807 -4.00468 0
M  V30 363 C 37.7834 0.00114064 -4.401 0
M  V30 364 H 34.9024 -0.142619 -0.723069 0
M  V30 365 H 37.5444 -1.01687 -1.60498 0
M  V30 366 H 35.6944 -0.0378425 -3.88482 0
M  V30 367 H 37.3664 -2.64544 -3.77908 0
M  V30 368 H 35.6094 -2.54427 -3.51353 0
M  V30 369 H 36.2804 -2.12792 -5.09337 0
M  V30 370 H 38.7564 -0.455716 -4.13597 0
M  V30 371 H 37.6324 -0.157737 -5.48673 0
M  V30 372 H 37.8934 1.09488 -4.28328 0
M  V30 373 N 36.9525 1.47285 -0.560781 0
M  V30 374 C 38.1805 2.06855 -0.0430262 0
M  V30 375 C 38.5955 1.41291 1.25229 0
M  V30 376 O 37.9525 0.510648 1.7521 0
M  V30 377 C 38.0035 3.61178 0.152518 0
M  V30 378 O 37.7245 4.24285 -1.0915 0
M  V30 379 C 39.2255 4.37624 0.707145 0
M  V30 380 H 36.4455 0.669319 -0.0474652 0
M  V30 381 H 38.9895 1.89237 -0.77521 0
M  V30 382 H 37.1445 3.78298 0.834843 0
M  V30 383 H 37.5585 5.16868 -0.891482 0
M  V30 384 H 39.0325 5.46271 0.793244 0
M  V30 385 H 39.5095 4.04152 1.71923 0
M  V30 386 H 40.1155 4.25257 0.0604027 0
M  V30 387 N 38.4306 0.297415 1.54768 0
M  V30 388 C 39.6796 -0.313669 1.99246 0
M  V30 389 C 39.9926 -1.55281 1.18942 0
M  V30 390 O 41.1986 -2.23825 1.5367 0
M  V30 391 C 39.6546 -0.609407 3.54703 0
M  V30 392 C 39.2626 0.611192 4.43811 0
M  V30 393 C 41.0066 -1.18188 4.07715 0
M  V30 394 C 38.9136 0.288805 5.90694 0
M  V30 395 H 37.8436 -0.120979 0.744231 0
M  V30 396 H 40.4946 0.40556 1.78962 0
M  V30 397 H 38.8766 -1.38813 3.70873 0
M  V30 398 H 40.0506 1.3875 4.39414 0
M  V30 399 H 38.3656 1.10205 4.01552 0
M  V30 400 H 40.9626 -1.43727 5.15021 0
M  V30 401 H 41.3056 -2.12299 3.58099 0
M  V30 402 H 41.8386 -0.464944 3.95074 0
M  V30 403 H 38.5776 1.19838 6.44453 0
M  V30 404 H 38.0976 -0.450305 5.98107 0
M  V30 405 H 39.7766 -0.110933 6.46905 0
M  V30 406 N 39.9087 -1.5758 0.0250728 0
M  V30 407 C 41.1367 -1.9593 -0.664747 0
M  V30 408 C 41.5517 -0.901352 -1.65895 0
M  V30 409 O 40.9087 0.117255 -1.82123 0
M  V30 410 C 40.9597 -3.34342 -1.37468 0
M  V30 411 O 40.6807 -4.36079 -0.420324 0
M  V30 412 C 42.1817 -3.873 -2.1567 0
M  V30 413 H 39.4017 -0.645405 -0.183557 0
M  V30 414 H 41.9457 -2.04329 0.0836372 0
M  V30 415 H 40.1007 -3.27175 -2.0745 0
M  V30 416 H 40.5147 -5.16297 -0.923991 0
M  V30 417 H 41.9887 -4.86504 -2.60803 0
M  V30 418 H 42.4657 -3.21331 -2.99405 0
M  V30 419 H 43.0717 -3.97723 -1.50654 0
M  V30 420 N 41.3868 0.248026 -1.55636 0
M  V30 421 C 42.6268 0.983592 -1.79178 0
M  V30 422 C 42.9908 1.82567 -0.594414 0
M  V30 423 O 44.1918 2.59292 -0.708583 0
M  V30 424 C 42.4628 1.82228 -3.07454 0
M  V30 425 S 44.0218 2.61709 -3.52213 0
M  V30 426 H 40.8398 0.330866 -0.629324 0
M  V30 427 H 43.4418 0.251562 -1.93875 0
M  V30 428 H 42.1458 1.19333 -3.92668 0
M  V30 429 H 41.6768 2.59708 -2.95492 0
M  V30 430 H 43.6918 3.84655 -3.13457 0
M  V30 431 N 42.8649 1.48995 0.513639 0
M  V30 432 C 44.2809 1.35478 0.843682 0
M  V30 433 C 44.4809 0.378213 1.97919 0
M  V30 434 O 43.5369 -0.194689 2.51748 0
M  V30 435 C 44.8499 2.75901 1.1958 0
M  V30 436 C 46.3979 2.84509 1.30474 0
M  V30 437 C 46.8729 4.25671 1.69021 0
M  V30 438 N 48.3639 4.28422 1.76094 0
M  V30 439 C 49.0989 5.34601 2.07338 0
M  V30 440 N 48.5949 6.5104 2.36894 0
M  V30 441 N 50.3879 5.22007 2.08483 0
M  V30 442 H 42.5389 2.11092 -0.235328 0
M  V30 443 H 44.8019 0.947039 -0.0426669 0
M  V30 444 H 44.5079 3.49001 0.434913 0
M  V30 445 H 44.3819 3.10467 2.1422 0
M  V30 446 H 46.7689 2.11655 2.05637 0
M  V30 447 H 46.8499 2.53542 0.339155 0
M  V30 448 H 46.4939 4.99048 0.944135 0
M  V30 449 H 46.4239 4.54094 2.66658 0
M  V30 450 H 48.9149 3.44441 1.55464 0
M  V30 451 H 49.2279 7.2779 2.59887 0
M  V30 452 H 47.5729 6.54287 2.34378 0
M  V30 453 H 50.7639 4.30051 1.84861 0
M  V30 454 H 50.9369 6.04854 2.325 0
M  V30 455 N 44.343 -0.763751 1.37857 0
M  V30 456 C 45.568 -1.55805 1.36893 0
M  V30 457 C 45.993 -1.88054 -0.0416135 0
M  V30 458 O 45.351 -1.49825 -1.02089 0
M  V30 459 C 45.399 -2.84012 2.22192 0
M  V30 460 O 44.503 -3.78732 1.63204 0
M  V30 461 H 43.844 -0.471638 0.46739 0
M  V30 462 H 46.374 -0.944657 1.81487 0
M  V30 463 H 46.384 -3.33037 2.35691 0
M  V30 464 H 45.059 -2.59869 3.24716 0
M  V30 465 H 43.636 -3.37402 1.58791 0
M  V30 466 N 45.8211 -1.22559 -0.990812 0
M  V30 467 C 47.0491 -1.07779 -1.76611 0
M  V30 468 C 47.4641 0.371513 -1.85109 0
M  V30 469 O 46.8211 1.25737 -1.32274 0
M  V30 470 C 46.8721 -1.68512 -3.19822 0
M  V30 471 O 46.5931 -3.07774 -3.1178 0
M  V30 472 C 48.0941 -1.59035 -4.13791 0
M  V30 473 H 45.3141 -0.377729 -0.554583 0
M  V30 474 H 47.8581 -1.62195 -1.24551 0
M  V30 475 H 46.0131 -1.18154 -3.68942 0
M  V30 476 H 46.4271 -3.37062 -4.01858 0
M  V30 477 H 47.9011 -2.0625 -5.1202 0
M  V30 478 H 48.3781 -0.547273 -4.35777 0
M  V30 479 H 48.9841 -2.08709 -3.70568 0
M  V30 480 N 47.2992 1.18797 -1.03562 0
M  V30 481 C 48.2462 2.22253 -0.622259 0
M  V30 482 C 49.2162 1.61987 0.36736 0
M  V30 483 O 50.4012 1.88986 0.262492 0
M  V30 484 C 47.5412 3.45097 0.0138462 0
M  V30 485 C 46.6542 4.19722 -1.02263 0
M  V30 486 C 45.7892 5.30009 -0.355573 0
M  V30 487 C 44.8282 5.96399 -1.37749 0
M  V30 488 N 43.9652 6.98234 -0.735766 0
M  V30 489 H 48.8052 2.56968 -1.50903 0
M  V30 490 H 46.3422 1.26245 -0.755017 0
M  V30 491 H 48.3002 4.15279 0.399948 0
M  V30 492 H 46.9302 3.11018 0.864158 0
M  V30 493 H 45.9822 3.48418 -1.52673 0
M  V30 494 H 47.2942 4.65227 -1.79903 0
M  V30 495 H 46.4482 6.0664 0.0850095 0
M  V30 496 H 45.1872 4.85592 0.452967 0
M  V30 497 H 44.1922 5.18512 -1.82826 0
M  V30 498 H 45.4172 6.42899 -2.18764 0
M  V30 499 H 43.3632 6.55979 0.0525597 0
M  V30 500 H 43.2802 7.41965 -1.44995 0
M  V30 501 H 44.5482 7.78845 -0.31941 0
M  V30 502 N 48.7773 0.814389 1.34928 0
M  V30 503 C 50.0023 0.410097 2.03305 0
M  V30 504 C 50.4273 -0.973464 1.60951 0
M  V30 505 O 49.7853 -1.63185 0.789964 0
M  V30 506 C 49.8333 0.51049 3.56968 0
M  V30 507 O 48.9373 -0.473035 4.09678 0
M  V30 508 H 48.2783 0.170088 0.641846 0
M  V30 509 H 50.8083 1.10244 1.72358 0
M  V30 510 H 50.8183 0.383135 4.06197 0
M  V30 511 H 49.4933 1.51963 3.87144 0
M  V30 512 H 48.0703 -0.305272 3.71648 0
M  V30 513 N 50.2554 -1.46986 0.568584 0
M  V30 514 C 51.1854 -2.32946 -0.160753 0
M  V30 515 C 52.1664 -1.44487 -0.897631 0
M  V30 516 O 53.3514 -1.73327 -0.875867 0
M  V30 517 C 50.4814 -3.26494 -1.18403 0
M  V30 518 C 49.4354 -4.24282 -0.562895 0
M  V30 519 C 48.7614 -5.07236 -1.69163 0
M  V30 520 C 50.0614 -5.19989 0.490761 0
M  V30 521 H 51.7554 -2.94175 0.556916 0
M  V30 522 H 49.3014 -1.4146 0.26927 0
M  V30 523 H 51.2544 -3.85477 -1.70251 0
M  V30 524 H 49.9784 -2.63343 -1.93179 0
M  V30 525 H 48.6374 -3.66541 -0.0656164 0
M  V30 526 H 48.2854 -4.4048 -2.42871 0
M  V30 527 H 47.9854 -5.7345 -1.28174 0
M  V30 528 H 49.5094 -5.6908 -2.21314 0
M  V30 529 H 50.9234 -5.73271 0.0579047 0
M  V30 530 H 49.3204 -5.94469 0.820165 0
M  V30 531 H 50.3904 -4.64777 1.3824 0
M  V30 532 N 51.7335 -0.305618 -1.54608 0
M  V30 533 C 52.6635 0.561482 -2.26649 0
M  V30 534 C 53.6445 1.13415 -1.26772 0
M  V30 535 O 54.8295 1.16262 -1.55553 0
M  V30 536 C 51.9595 1.73122 -3.01075 0
M  V30 537 C 50.9135 1.2887 -4.08138 0
M  V30 538 C 50.2395 2.54396 -4.70305 0
M  V30 539 C 51.5395 0.416578 -5.20636 0
M  V30 540 H 53.2335 -0.0393902 -2.99374 0
M  V30 541 H 50.7795 -0.020385 -1.43986 0
M  V30 542 H 52.7325 2.34396 -3.50195 0
M  V30 543 H 51.4565 2.3584 -2.25936 0
M  V30 544 H 50.1155 0.698991 -3.59875 0
M  V30 545 H 49.7635 3.15439 -3.918 0
M  V30 546 H 49.4635 2.25486 -5.42614 0
M  V30 547 H 50.9875 3.16464 -5.2219 0
M  V30 548 H 52.4015 0.935116 -5.65622 0
M  V30 549 H 50.7985 0.221046 -5.99693 0
M  V30 550 H 51.8685 -0.557162 -4.81688 0
M  V30 551 N 53.2116 1.57565 -0.0334293 0
M  V30 552 C 54.1616 2.06978 0.956237 0
M  V30 553 C 55.1456 0.971193 1.28283 0
M  V30 554 O 56.3376 1.23471 1.26822 0
M  V30 555 C 53.4666 2.60393 2.23719 0
M  V30 556 C 52.5526 3.7719 1.93877 0
M  V30 557 N 52.9436 4.87639 1.34321 0
M  V30 558 C 51.2416 3.85758 2.23845 0
M  V30 559 C 51.9426 5.68825 1.21709 0
M  V30 560 N 50.9186 5.1587 1.71404 0
M  V30 561 H 54.7206 2.89773 0.490815 0
M  V30 562 H 52.2346 1.61492 0.171478 0
M  V30 563 H 54.2316 2.94088 2.95496 0
M  V30 564 H 52.8916 1.79031 2.70884 0
M  V30 565 H 53.9026 5.07803 1.01767 0
M  V30 566 H 50.5796 3.1531 2.73653 0
M  V30 567 H 51.9696 6.67631 0.75621 0
M  V30 568 N 54.6897 -0.239769 1.55765 0
M  V30 569 C 55.9147 -0.988373 1.82335 0
M  V30 570 C 56.3397 -1.77886 0.611421 0
M  V30 571 O 55.6977 -1.75889 -0.439639 0
M  V30 572 C 55.7457 -1.89627 3.06715 0
M  V30 573 O 54.8497 -2.98904 2.84131 0
M  V30 574 H 54.1907 -0.280858 0.601677 0
M  V30 575 H 56.7207 -0.258597 2.02959 0
M  V30 576 H 56.7307 -2.30957 3.36338 0
M  V30 577 H 55.4057 -1.31511 3.9456 0
M  V30 578 H 53.9827 -2.61651 2.65694 0
M  V30 579 N 56.1678 -1.49265 -0.50573 0
M  V30 580 C 57.1158 -1.66065 -1.62866 0
M  V30 581 C 58.1098 -0.526636 -1.61006 0
M  V30 582 O 59.3158 -0.706126 -1.65571 0
M  V30 583 H 55.6908 -0.52356 -0.539805 0
M  V30 584 H 57.6618 -2.60329 -1.45848 0
M  V30 585 C 56.4108 -1.74008 -3.01026 0
M  V30 586 H 55.7338 -2.6064 -3.03161 0
M  V30 587 H 57.1738 -1.89798 -3.79147 0
M  V30 588 C 55.6328 -0.483868 -3.33407 0
M  V30 589 O 56.1628 0.392548 -3.99777 0
M  V30 590 N 54.3688 -0.348236 -2.88506 0
M  V30 591 H 53.9158 -1.06242 -2.34671 0
M  V30 592 H 53.8738 0.491204 -3.10539 0
M  V30 593 N 57.6459 0.756429 -1.3826 0
M  V30 594 C 58.8939 1.51248 -1.34047 0
M  V30 595 C 59.2149 1.94875 0.0698372 0
M  V30 596 O 58.4849 1.67436 1.01696 0
M  V30 597 H 57.0649 0.561018 -0.493222 0
M  V30 598 H 59.7269 0.899347 -1.7291 0
M  V30 599 H 58.8229 2.40472 -1.98947 0
M  V30 600 N 59.124 1.23083 0.984299 0
M  V30 601 C 60.373 1.05466 1.71929 0
M  V30 602 C 60.686 -0.409211 1.91272 0
M  V30 603 O 61.892 -0.705226 2.62181 0
M  V30 604 C 60.348 1.83874 3.09384 0
M  V30 605 C 59.956 3.34566 2.97943 0
M  V30 606 C 61.7 1.74734 3.8687 0
M  V30 607 C 59.607 4.05381 4.30605 0
M  V30 608 H 58.537 0.391039 0.644674 0
M  V30 609 H 61.188 1.47013 1.09815 0
M  V30 610 H 59.57 1.35131 3.72231 0
M  V30 611 H 60.744 3.90767 2.44209 0
M  V30 612 H 59.059 3.44476 2.33934 0
M  V30 613 H 61.656 2.24957 4.85076 0
M  V30 614 H 61.999 0.709372 4.10212 0
M  V30 615 H 62.532 2.21067 3.30717 0
M  V30 616 H 59.271 5.09467 4.1246 0
M  V30 617 H 58.791 3.53967 4.84218 0
M  V30 618 H 60.47 4.11458 4.99311 0
M  V30 619 N 60.6021 -1.18246 1.0419 0
M  V30 620 C 61.8301 -1.92195 0.766072 0
M  V30 621 C 62.2451 -1.76247 -0.676933 0
M  V30 622 O 61.6021 -1.09293 -1.46155 0
M  V30 623 C 61.6531 -3.43568 1.12442 0
M  V30 624 O 61.3741 -3.59015 2.51078 0
M  V30 625 C 62.8751 -4.34613 0.873275 0
M  V30 626 H 60.0951 -0.610114 0.279288 0
M  V30 627 H 62.6391 -1.50007 1.38989 0
M  V30 628 H 60.7941 -3.8354 0.545542 0
M  V30 629 H 61.2081 -4.5273 2.64831 0
M  V30 630 H 62.6821 -5.39374 1.17385 0
M  V30 631 H 63.1591 -4.38781 -0.191909 0
M  V30 632 H 63.7651 -4.00341 1.43551 0
M  V30 633 N 62.0802 -0.821533 -1.34494 0
M  V30 634 C 63.3102 -0.421272 -2.02259 0
M  V30 635 C 63.7182 0.977047 -1.6202 0
M  V30 636 O 63.0612 1.64348 -0.820703 0
M  V30 637 C 63.1232 -0.44231 -3.56769 0
M  V30 638 C 62.7872 -1.79372 -4.20327 0
M  V30 639 C 63.7842 -2.75435 -4.40944 0
M  V30 640 C 61.4692 -2.08182 -4.57127 0
M  V30 641 C 63.4632 -3.98482 -4.97484 0
M  V30 642 C 61.1502 -3.31489 -5.13379 0
M  V30 643 C 62.1482 -4.26457 -5.33501 0
M  V30 644 O 61.8362 -5.47585 -5.88562 0
M  V30 645 H 61.5682 -0.167473 -0.654927 0
M  V30 646 H 64.1222 -1.11073 -1.72777 0
M  V30 647 H 62.3522 0.303836 -3.85505 0
M  V30 648 H 64.0412 -0.0622925 -4.05852 0
M  V30 649 H 64.8072 -2.54473 -4.12878 0
M  V30 650 H 60.6862 -1.35066 -4.4077 0
M  V30 651 H 64.2302 -4.72618 -5.13106 0
M  V30 652 H 60.1272 -3.52316 -5.40873 0
M  V30 653 H 60.8952 -5.49086 -6.06998 0
M  V30 654 N 63.5583 1.46682 -0.576371 0
M  V30 655 C 64.4883 2.33028 0.148397 0
M  V30 656 C 65.4693 1.44961 0.889956 0
M  V30 657 O 66.6543 1.73789 0.866662 0
M  V30 658 C 63.7843 3.27117 1.1667 0
M  V30 659 C 62.7383 4.24575 0.540386 0
M  V30 660 C 62.0643 5.08126 1.6647 0
M  V30 661 C 63.3643 5.19722 -0.518331 0
M  V30 662 H 65.0583 2.93875 -0.572509 0
M  V30 663 H 62.6043 1.41315 -0.276768 0
M  V30 664 H 64.5573 3.86374 1.68204 0
M  V30 665 H 63.2813 2.64364 1.9178 0
M  V30 666 H 61.9403 3.66571 0.0461769 0
M  V30 667 H 61.5883 4.41762 2.40531 0
M  V30 668 H 61.2883 5.74122 1.25131 0
M  V30 669 H 62.8123 5.70246 2.18293 0
M  V30 670 H 64.2263 5.73232 -0.0883058 0
M  V30 671 H 62.6233 5.94026 -0.851679 0
M  V30 672 H 63.6933 4.64037 -1.40703 0
M  V30 673 N 65.0364 0.313813 1.54444 0
M  V30 674 C 66.2664 -0.293491 2.04505 0
M  V30 675 C 66.6744 -1.47086 1.19005 0
M  V30 676 O 66.0174 -1.82481 0.211257 0
M  V30 677 C 66.0794 -0.800455 3.50475 0
M  V30 678 C 65.7434 0.253322 4.56297 0
M  V30 679 C 66.7404 1.08612 5.08428 0
M  V30 680 C 64.4254 0.398708 5.00715 0
M  V30 681 C 66.4194 2.05013 6.0353 0
M  V30 682 C 64.1064 1.36614 5.95634 0
M  V30 683 C 65.1044 2.19033 6.46926 0
M  V30 684 O 64.7924 3.14134 7.39983 0
M  V30 685 H 64.5244 -0.0658325 0.672787 0
M  V30 686 H 67.0784 0.455177 2.00293 0
M  V30 687 H 65.3084 -1.59987 3.52053 0
M  V30 688 H 66.9974 -1.32504 3.83663 0
M  V30 689 H 67.7634 0.984736 4.74898 0
M  V30 690 H 63.6424 -0.23289 4.60411 0
M  V30 691 H 67.1864 2.69382 6.4349 0
M  V30 692 H 63.0834 1.4682 6.28581 0
M  V30 693 H 63.8514 3.0926 7.57826 0
M  V30 694 N 66.5145 -1.57545 0.0417849 0
M  V30 695 C 67.7605 -1.93424 -0.629168 0
M  V30 696 C 68.1155 -0.919564 -1.69002 0
M  V30 697 O 67.4085 0.0626178 -1.91498 0
M  V30 698 C 67.6025 -3.33794 -1.27735 0
M  V30 699 C 67.4315 -4.48822 -0.280806 0
M  V30 700 C 66.2015 -5.05148 0.123869 0
M  V30 701 C 68.3995 -5.12148 0.470012 0
M  V30 702 N 66.3815 -6.03703 1.11426 0
M  V30 703 C 67.7525 -6.05921 1.31377 0
M  V30 704 C 69.8075 -4.95078 0.529343 0
M  V30 705 C 68.5105 -6.84459 2.21152 0
M  V30 706 C 70.5365 -5.74235 1.41448 0
M  V30 707 C 69.8985 -6.67634 2.24598 0
M  V30 708 H 65.9975 -0.755418 -0.202158 0
M  V30 709 H 68.5815 -1.94378 0.111923 0
M  V30 710 H 66.7525 -3.33635 -1.98852 0
M  V30 711 H 68.4845 -3.56988 -1.90635 0
M  V30 712 H 65.2395 -4.72923 -0.253178 0
M  V30 713 H 65.6635 -6.57674 1.60607 0
M  V30 714 H 70.3055 -4.22683 -0.0992798 0
M  V30 715 H 68.0235 -7.56151 2.85063 0
M  V30 716 H 71.6095 -5.63057 1.46484 0
M  V30 717 H 70.4895 -7.27817 2.9198 0
M  V30 718 N 67.9926 0.231505 -1.5589 0
M  V30 719 C 69.2226 0.973092 -1.82248 0
M  V30 720 C 69.6306 1.78845 -0.617328 0
M  V30 721 O 68.9736 1.78752 0.423499 0
M  V30 722 C 69.0356 1.94732 -3.02192 0
M  V30 723 C 68.6996 1.31743 -4.37599 0
M  V30 724 C 69.6966 0.712238 -5.14998 0
M  V30 725 C 67.3816 1.33218 -4.84312 0
M  V30 726 C 69.3756 0.130195 -6.37267 0
M  V30 727 C 67.0626 0.746286 -6.06526 0
M  V30 728 C 68.0606 0.146337 -6.82843 0
M  V30 729 O 67.7486 -0.430465 -8.02747 0
M  V30 730 H 67.4806 0.29125 -0.61004 0
M  V30 731 H 70.0346 0.254915 -2.03812 0
M  V30 732 H 68.2646 2.70422 -2.76422 0
M  V30 733 H 69.9536 2.55362 -3.15508 0
M  V30 734 H 70.7196 0.69324 -4.8002 0
M  V30 735 H 66.5986 1.78854 -4.24891 0
M  V30 736 H 70.1426 -0.33871 -6.96777 0
M  V30 737 H 66.0396 0.762663 -6.40979 0
M  V30 738 H 66.8076 -0.323818 -8.17859 0
M  V30 739 N 69.4707 1.49531 0.497807 0
M  V30 740 C 70.4027 1.62559 1.61578 0
M  V30 741 C 71.4157 0.508134 1.54667 0
M  V30 742 O 72.6047 0.780309 1.60541 0
M  V30 743 C 69.7047 1.56925 3.00379 0
M  V30 744 C 68.8777 2.84257 3.3244 0
M  V30 745 C 67.9367 2.71632 4.50669 0
M  V30 746 O 66.9627 3.4557 4.52294 0
M  V30 747 N 68.1647 1.83391 5.5077 0
M  V30 748 H 70.9297 2.58981 1.50828 0
M  V30 749 H 68.4907 1.4666 0.685743 0
M  V30 750 H 70.4827 1.46129 3.77397 0
M  V30 751 H 69.0527 0.683483 3.05037 0
M  V30 752 H 68.2727 3.09381 2.44289 0
M  V30 753 H 69.5607 3.68666 3.5066 0
M  V30 754 H 68.9587 1.22583 5.52259 0
M  V30 755 H 67.5157 1.78515 6.26878 0
M  V30 756 N 70.9488 -0.749086 1.3866 0
M  V30 757 C 71.8808 -1.87273 1.32142 0
M  V30 758 C 72.8938 -1.61127 0.232787 0
M  V30 759 O 74.0828 -1.71623 0.49069 0
M  V30 760 C 71.1828 -3.23005 1.02571 0
M  V30 761 C 70.3558 -3.7662 2.22433 0
M  V30 762 C 69.4148 -4.90879 1.89537 0
M  V30 763 O 68.4408 -5.05276 2.62078 0
M  V30 764 N 69.6428 -5.74198 0.853031 0
M  V30 765 H 72.4078 -1.93373 2.28969 0
M  V30 766 H 69.9688 -0.929216 1.32579 0
M  V30 767 H 71.9608 -3.96992 0.786085 0
M  V30 768 H 70.5308 -3.12262 0.145249 0
M  V30 769 H 69.7508 -2.94147 2.62434 0
M  V30 770 H 71.0388 -4.09173 3.02415 0
M  V30 771 H 70.4368 -5.6514 0.25155 0
M  V30 772 H 68.9938 -6.48313 0.67329 0
M  V30 773 N 72.4269 -1.23603 -0.977757 0
M  V30 774 C 73.3739 -1.01954 -2.07061 0
M  V30 775 C 74.3439 0.0638697 -1.65977 0
M  V30 776 O 75.5289 -0.0887624 -1.90593 0
M  V30 777 C 72.6689 -0.619658 -3.39491 0
M  V30 778 C 71.7819 -1.77547 -3.93829 0
M  V30 779 C 70.9169 -1.32212 -5.14484 0
M  V30 780 C 69.9559 -2.44852 -5.60994 0
M  V30 781 N 69.0929 -2.00456 -6.72876 0
M  V30 782 H 73.9329 -1.95495 -2.24913 0
M  V30 783 H 71.4699 -0.973861 -1.10247 0
M  V30 784 H 73.4279 -0.368898 -4.15566 0
M  V30 785 H 72.0579 0.278752 -3.21594 0
M  V30 786 H 71.1099 -2.14016 -3.14486 0
M  V30 787 H 72.4219 -2.62219 -4.24314 0
M  V30 788 H 71.5759 -1.02965 -5.97899 0
M  V30 789 H 70.3149 -0.445808 -4.85658 0
M  V30 790 H 69.3199 -2.74871 -4.76157 0
M  V30 791 H 70.5449 -3.33024 -5.91837 0
M  V30 792 H 68.4909 -1.15208 -6.45804 0
M  V30 793 H 68.4079 -2.78687 -7.02759 0
M  V30 794 H 69.6759 -1.7432 -7.59758 0
M  V30 795 N 73.905 1.17692 -1.04816 0
M  V30 796 C 75.316 1.69501 -0.782698 0
M  V30 797 C 75.667 1.83456 0.695577 0
M  V30 798 O 74.792 1.51942 1.54086 0
M  V30 799 C 75.387 3.07874 -1.41419 0
M  V30 800 C 73.946 3.56864 -1.19686 0
M  V30 801 C 73.093 2.3322 -1.50012 0
M  V30 802 H 76.044 1.02262 -1.2136 0
M  V30 803 H 76.065 3.71528 -0.821428 0
M  V30 804 H 75.577 2.97685 -2.49009 0
M  V30 805 H 73.678 3.72337 -0.140043 0
M  V30 806 H 73.791 4.39851 -1.89916 0
M  V30 807 H 72.155 2.37501 -0.920071 0
M  V30 808 H 72.938 2.25644 -2.58727 0
M  V30 809 N 75.3831 0.828654 1.34056 0
M  V30 810 C 76.6311 0.41863 1.97717 0
M  V30 811 C 76.9521 -1.02314 1.66002 0
M  V30 812 O 76.2221 -1.71119 0.953683 0
M  V30 813 H 74.8021 0.151809 0.731412 0
M  V30 814 H 77.4641 1.05936 1.63596 0
M  V30 815 H 76.5601 0.542318 3.07352 0
M  V30 816 N 76.8612 -1.46375 0.584142 0
M  V30 817 C 77.8082 -2.30323 -0.148286 0
M  V30 818 C 78.7782 -1.40703 -0.882713 0
M  V30 819 O 79.9632 -1.69651 -0.873099 0
M  V30 820 C 77.1032 -3.25196 -1.15507 0
M  V30 821 C 76.2162 -4.29915 -0.423943 0
M  V30 822 C 75.3512 -5.11914 -1.41838 0
M  V30 823 C 74.3902 -6.08381 -0.673736 0
M  V30 824 N 73.5272 -6.83242 -1.6163 0
M  V30 825 H 78.3672 -2.92427 0.573644 0
M  V30 826 H 75.9042 -1.44118 0.294703 0
M  V30 827 H 77.8622 -3.78646 -1.75166 0
M  V30 828 H 76.4922 -2.64898 -1.8447 0
M  V30 829 H 75.5442 -3.7931 0.287714 0
M  V30 830 H 76.8562 -4.98549 0.158128 0
M  V30 831 H 76.0102 -5.69648 -2.08773 0
M  V30 832 H 74.7492 -4.43243 -2.03438 0
M  V30 833 H 73.7542 -5.49799 0.00938483 0
M  V30 834 H 74.9792 -6.79071 -0.0631082 0
M  V30 835 H 72.9252 -6.1728 -2.22038 0
M  V30 836 H 72.8422 -7.48144 -1.08707 0
M  V30 837 H 74.1102 -7.45534 -2.27596 0
M  V30 838 N 78.3393 -0.321999 -1.54275 0
M  V30 839 C 79.3023 0.531975 -2.22941 0
M  V30 840 C 80.3023 1.04478 -1.22234 0
M  V30 841 O 81.4923 0.937452 -1.46825 0
M  V30 842 C 78.6243 1.73874 -2.93224 0
M  V30 843 H 79.8173 -0.0682612 -2.99822 0
M  V30 844 H 77.3703 -0.0730644 -1.56129 0
M  V30 845 H 78.1053 2.37825 -2.20476 0
M  V30 846 H 77.8903 1.37847 -3.6707 0
M  V30 847 H 79.3803 2.34496 -3.45545 0
M  V30 848 N 79.8174 1.5752 -0.0501392 0
M  V30 849 C 81.2284 1.80271 0.485705 0
M  V30 850 C 81.5794 0.96228 1.70981 0
M  V30 851 O 80.7044 0.178578 2.15662 0
M  V30 852 C 81.2994 3.26957 0.887938 0
M  V30 853 C 79.8584 3.5063 1.36877 0
M  V30 854 C 79.0054 2.75165 0.343468 0
M  V30 855 H 81.9564 1.56281 -0.276028 0
M  V30 856 H 81.9774 3.37821 1.75093 0
M  V30 857 H 81.4894 3.881 -0.0031809 0
M  V30 858 H 79.5904 2.94766 2.27911 0
M  V30 859 H 79.7034 4.59343 1.36164 0
M  V30 860 H 78.0674 2.4127 0.816128 0
M  V30 861 H 78.8504 3.39034 -0.539548 0
M  V30 862 N 81.2955 -0.223234 1.56011 0
M  V30 863 C 82.2425 -1.27664 1.92277 0
M  V30 864 C 83.2125 -1.46659 0.779763 0
M  V30 865 O 84.3975 -1.60256 1.03551 0
M  V30 866 C 81.5375 -2.62234 2.24338 0
M  V30 867 C 80.6505 -2.51051 3.51564 0
M  V30 868 C 79.7855 -3.78133 3.7308 0
M  V30 869 C 78.8245 -3.61665 4.93827 0
M  V30 870 N 77.9615 -4.80693 5.11741 0
M  V30 871 H 82.8015 -0.960358 2.82101 0
M  V30 872 H 80.3385 -0.462901 1.39627 0
M  V30 873 H 82.2965 -3.40596 2.40936 0
M  V30 874 H 80.9265 -2.91961 1.3769 0
M  V30 875 H 79.9785 -1.64132 3.43169 0
M  V30 876 H 81.2905 -2.34803 4.40079 0
M  V30 877 H 80.4445 -4.64938 3.89766 0
M  V30 878 H 79.1835 -3.97304 2.82844 0
M  V30 879 H 78.1885 -2.73244 4.77093 0
M  V30 880 H 79.4135 -3.43966 5.85546 0
M  V30 881 H 77.3595 -5.00181 4.24446 0
M  V30 882 H 77.2765 -4.67165 5.94384 0
M  V30 883 H 78.5445 -5.6893 5.3286 0
M  V30 884 N 82.7736 -1.49793 -0.48987 0
M  V30 885 C 83.7036 -1.70201 -1.59856 0
M  V30 886 C 84.6846 -0.55076 -1.60937 0
M  V30 887 O 85.8696 -0.787841 -1.77501 0
M  V30 888 C 82.9996 -1.77882 -2.98287 0
M  V30 889 C 81.9536 -2.92907 -3.12073 0
M  V30 890 C 81.2796 -2.85712 -4.51965 0
M  V30 891 C 82.5796 -4.3369 -2.91051 0
M  V30 892 H 84.2736 -2.63025 -1.43032 0
M  V30 893 H 81.8196 -1.26574 -0.686664 0
M  V30 894 H 83.7726 -1.90744 -3.75759 0
M  V30 895 H 82.4966 -0.816653 -3.16225 0
M  V30 896 H 81.1556 -2.79665 -2.37029 0
M  V30 897 H 80.8036 -1.8738 -4.66795 0
M  V30 898 H 80.5036 -3.62921 -4.62128 0
M  V30 899 H 82.0276 -3.00598 -5.31482 0
M  V30 900 H 83.4416 -4.47555 -3.58284 0
M  V30 901 H 81.8386 -5.12205 -3.12675 0
M  V30 902 H 82.9086 -4.47362 -1.87071 0
M  V30 903 N 84.2517 0.741722 -1.39055 0
M  V30 904 C 85.1817 1.869 -1.39966 0
M  V30 905 C 86.1627 1.6804 -0.26392 0
M  V30 906 O 87.3477 1.88458 -0.468755 0
M  V30 907 C 84.4777 3.24572 -1.23574 0
M  V30 908 C 83.4317 3.58056 -2.34477 0
M  V30 909 C 82.7577 4.94593 -2.0318 0
M  V30 910 C 84.0577 3.61716 -3.76774 0
M  V30 911 H 85.7517 1.86395 -2.34302 0
M  V30 912 H 83.2977 0.895361 -1.1278 0
M  V30 913 H 85.2507 4.031 -1.22834 0
M  V30 914 H 83.9747 3.25587 -0.257045 0
M  V30 915 H 82.6337 2.81854 -2.34423 0
M  V30 916 H 82.2817 4.92181 -1.03765 0
M  V30 917 H 81.9817 5.17964 -2.77465 0
M  V30 918 H 83.5057 5.75486 -2.04079 0
M  V30 919 H 84.9197 4.30335 -3.78794 0
M  V30 920 H 83.3167 3.96603 -4.50362 0
M  V30 921 H 84.3867 2.61672 -4.08235 0
M  V30 922 N 85.7298 1.2412 0.971189 0
M  V30 923 C 86.9788 1.07284 1.70801 0
M  V30 924 C 87.2918 -0.388902 1.91695 0
M  V30 925 O 88.4978 -0.677379 2.62914 0
M  V30 926 C 86.9538 1.87145 3.07416 0
M  V30 927 C 86.5618 3.37707 2.94377 0
M  V30 928 C 88.3058 1.78828 3.84995 0
M  V30 929 C 86.2128 4.09925 4.26281 0
M  V30 930 H 85.1428 0.397854 0.64049 0
M  V30 931 H 87.7938 1.4817 1.0825 0
M  V30 932 H 86.1758 1.39071 3.70777 0
M  V30 933 H 87.3498 3.93335 2.4005 0
M  V30 934 H 85.6648 3.46938 2.30267 0
M  V30 935 H 88.2618 2.30089 4.82662 0
M  V30 936 H 88.6048 0.75284 4.09436 0
M  V30 937 H 89.1378 2.24563 3.28354 0
M  V30 938 H 85.8768 5.13813 4.07033 0
M  V30 939 H 85.3968 3.59083 4.80437 0
M  V30 940 H 87.0758 4.1673 4.94919 0
M  V30 941 N 87.2079 -1.17134 1.05439 0
M  V30 942 C 88.4379 -1.91094 0.785274 0
M  V30 943 C 88.8459 -1.77198 -0.663142 0
M  V30 944 O 88.1889 -1.10835 -1.46497 0
M  V30 945 C 88.2509 -3.42594 1.08949 0
M  V30 946 C 87.9149 -3.80274 2.53458 0
M  V30 947 C 88.9119 -3.82912 3.51673 0
M  V30 948 C 86.5969 -4.11162 2.88532 0
M  V30 949 C 88.5909 -4.15913 4.83006 0
M  V30 950 C 86.2779 -4.43831 4.20068 0
M  V30 951 C 87.2759 -4.46185 5.17115 0
M  V30 952 O 86.9639 -4.78083 6.46291 0
M  V30 953 H 86.6959 -0.613073 0.284811 0
M  V30 954 H 89.2499 -1.49461 1.40893 0
M  V30 955 H 87.4799 -3.84534 0.408741 0
M  V30 956 H 89.1689 -3.97817 0.805991 0
M  V30 957 H 89.9349 -3.5917 3.25917 0
M  V30 958 H 85.8139 -4.085 2.13656 0
M  V30 959 H 89.3579 -4.17665 5.5875 0
M  V30 960 H 85.2549 -4.67037 4.45586 0
M  V30 961 H 86.0229 -4.9593 6.51149 0
M  V30 962 N 88.686 -0.835752 -1.33615 0
M  V30 963 C 89.618 -0.224151 -2.28101 0
M  V30 964 C 90.631 0.593331 -1.51603 0
M  V30 965 O 91.82 0.420911 -1.73466 0
M  V30 966 C 88.92 0.703309 -3.31522 0
M  V30 967 C 88.093 -0.0741528 -4.37337 0
M  V30 968 C 87.152 0.776176 -5.20444 0
M  V30 969 O 86.178 0.216506 -5.68788 0
M  V30 970 N 87.38 2.09401 -5.41416 0
M  V30 971 H 90.145 -1.03598 -2.81225 0
M  V30 972 H 87.706 -0.69392 -1.46275 0
M  V30 973 H 89.698 1.27707 -3.84022 0
M  V30 974 H 88.268 1.41585 -2.78698 0
M  V30 975 H 87.488 -0.82928 -3.85378 0
M  V30 976 H 88.776 -0.608863 -5.05144 0
M  V30 977 H 88.174 2.57229 -5.03835 0
M  V30 978 H 86.731 2.61633 -5.96985 0
M  V30 979 N 90.1641 1.46063 -0.591896 0
M  V30 980 C 91.0971 2.27452 0.184617 0
M  V30 981 C 92.0751 1.36188 0.888351 0
M  V30 982 O 93.2591 1.65606 0.90039 0
M  V30 983 C 90.3861 3.14162 1.26571 0
M  V30 984 C 89.4321 4.21255 0.666814 0
M  V30 985 S 90.2651 5.33034 -0.513345 0
M  V30 986 C 91.4211 6.23311 0.56872 0
M  V30 987 H 91.6541 2.92963 -0.505939 0
M  V30 988 H 89.1871 1.49676 -0.379014 0
M  V30 989 H 91.1451 3.6468 1.88463 0
M  V30 990 H 89.8061 2.47946 1.92826 0
M  V30 991 H 88.9991 4.81788 1.47974 0
M  V30 992 H 88.6011 3.73797 0.123359 0
M  V30 993 H 90.8931 6.61758 1.45198 0
M  V30 994 H 91.8361 7.081 -7.23824e-05 0
M  V30 995 H 92.2441 5.57646 0.876996 0
M  V30 996 N 91.6422 0.330177 1.54103 0
M  V30 997 C 92.8672 -0.274893 2.0557 0
M  V30 998 C 93.2922 -1.44487 1.20437 0
M  V30 999 O 92.6502 -1.80021 0.214991 0
M  V30 1000 C 92.6982 -0.68079 3.54115 0
M  V30 1001 O 91.8022 -1.7824 3.71893 0
M  V30 1002 H 91.1432 -0.0483849 0.662235 0
M  V30 1003 H 93.6732 0.480508 1.98878 0
M  V30 1004 H 93.6832 -0.961635 3.96505 0
M  V30 1005 H 92.3582 0.174903 4.15532 0
M  V30 1006 H 90.9352 -1.49985 3.41407 0
M  V30 1007 N 93.1203 -1.57491 0.0584922 0
M  V30 1008 C 94.0683 -2.13148 -0.931168 0
M  V30 1009 C 95.0623 -1.06507 -1.31729 0
M  V30 1010 O 96.2683 -1.24906 -1.29609 0
M  V30 1011 H 92.6433 -0.68137 -0.31818 0
M  V30 1012 H 94.6143 -2.95187 -0.436707 0
M  V30 1013 C 93.3633 -2.69732 -2.19408 0
M  V30 1014 H 92.6863 -3.51454 -1.90578 0
M  V30 1015 H 94.1263 -3.12287 -2.86798 0
M  V30 1016 C 92.5853 -1.63855 -2.94369 0
M  V30 1017 O 93.1153 -1.05565 -3.87581 0
M  V30 1018 N 91.3213 -1.35202 -2.57233 0
M  V30 1019 H 90.8683 -1.82791 -1.81508 0
M  V30 1020 H 90.8263 -0.645922 -3.07693 0
M  V30 1021 N 94.5984 0.214957 -1.56127 0
M  V30 1022 C 95.5284 1.2695 -1.95974 0
M  V30 1023 C 96.5094 1.48539 -0.828868 0
M  V30 1024 O 97.6944 1.60611 -1.09168 0
M  V30 1025 C 94.8244 2.61794 -2.28214 0
M  V30 1026 C 93.7784 2.54851 -3.43853 0
M  V30 1027 C 93.1044 3.93785 -3.61715 0
M  V30 1028 C 94.4044 2.09065 -4.78632 0
M  V30 1029 H 96.0984 0.93846 -2.84312 0
M  V30 1030 H 93.6444 0.449996 -1.36788 0
M  V30 1031 H 95.5974 3.35731 -2.54682 0
M  V30 1032 H 94.3214 2.96599 -1.36736 0
M  V30 1033 H 92.9804 1.8337 -3.17444 0
M  V30 1034 H 92.6284 4.25908 -2.67602 0
M  V30 1035 H 92.3284 3.90019 -4.39498 0
M  V30 1036 H 93.8524 4.69374 -3.90539 0
M  V30 1037 H 95.2664 2.7275 -5.04262 0
M  V30 1038 H 93.6634 2.16346 -5.59745 0
M  V30 1039 H 94.7334 1.04315 -4.73547 0
M  V30 1040 N 96.0765 1.50051 0.48192 0
M  V30 1041 C 97.0395 1.67584 1.5636 0
M  V30 1042 C 98.0395 0.546894 1.51214 0
M  V30 1043 O 99.2295 0.813725 1.54026 0
M  V30 1044 C 96.3615 1.691 2.96003 0
M  V30 1045 H 97.5545 2.64078 1.42136 0
M  V30 1046 H 95.1075 1.39369 0.707533 0
M  V30 1047 H 95.8425 0.742589 3.15684 0
M  V30 1048 H 95.6275 2.51105 3.01146 0
M  V30 1049 H 97.1175 1.84656 3.74556 0
M  V30 1050 N 97.5546 -0.734337 1.39446 0
M  V30 1051 C 98.7796 -1.52866 1.40167 0
M  V30 1052 C 99.2046 -1.881 -0.00171513 0
M  V30 1053 O 98.5626 -1.51957 -0.988879 0
M  V30 1054 C 98.6106 -2.79235 2.28167 0
M  V30 1055 O 97.7146 -3.75185 1.71201 0
M  V30 1056 H 97.0556 -0.461618 0.477289 0
M  V30 1057 H 99.5856 -0.905949 1.8345 0
M  V30 1058 H 99.5956 -3.27963 2.42702 0
M  V30 1059 H 98.2706 -2.52923 3.30156 0
M  V30 1060 H 96.8476 -3.33958 1.65912 0
M  V30 1061 N 99.0327 -1.24633 -0.964593 0
M  V30 1062 C 100.281 -1.08573 -1.70459 0
M  V30 1063 C 100.602 0.375655 -1.91347 0
M  V30 1064 O 99.8717 1.26779 -1.49345 0
M  V30 1065 H 98.4517 -0.398784 -0.631649 0
M  V30 1066 H 101.114 -1.56601 -1.16026 0
M  V30 1067 H 100.21 -1.58623 -2.68785 0
M  V30 1068 N 100.511 1.16574 -1.06058 0
M  V30 1069 C 101.757 1.87324 -0.777022 0
M  V30 1070 C 102.09 1.81351 0.694645 0
M  V30 1071 O 101.365 1.22753 1.50871 0
M  V30 1072 C 101.648 3.36991 -1.26922 0
M  V30 1073 C 101.501 3.51667 -2.80447 0
M  V30 1074 C 102.82 4.3131 -0.87521 0
M  V30 1075 H 99.9388 0.680191 -0.28374 0
M  V30 1076 H 102.581 1.37036 -1.3161 0
M  V30 1077 H 100.731 3.79949 -0.81063 0
M  V30 1078 H 102.403 3.17664 -3.34495 0
M  V30 1079 H 100.646 2.93656 -3.19294 0
M  V30 1080 H 101.317 4.56766 -3.0995 0
M  V30 1081 H 103.793 3.9624 -1.27014 0
M  V30 1082 H 102.669 5.34545 -1.2471 0
M  V30 1083 H 102.93 4.41552 0.220071 0
M  V30 1084 N 101.989 0.842826 1.3317 0
M  V30 1085 C 103.4 0.496651 1.79973 0
M  V30 1086 C 103.751 -0.984641 1.69703 0
M  V30 1087 O 102.876 -1.76743 1.24863 0
M  V30 1088 C 103.471 0.894727 3.26772 0
M  V30 1089 C 102.03 0.600629 3.71577 0
M  V30 1090 C 101.177 1.10091 2.5451 0
M  V30 1091 H 104.128 1.03116 1.20635 0
M  V30 1092 H 104.149 0.206347 3.7994 0
M  V30 1093 H 103.661 1.97287 3.34215 0
M  V30 1094 H 101.762 -0.467284 3.69658 0
M  V30 1095 H 101.875 1.15863 4.64879 0
M  V30 1096 H 100.239 0.52162 2.49301 0
M  V30 1097 H 101.022 2.18591 2.64713 0
M  V30 1098 N 103.467 -1.45747 0.599634 0
M  V30 1099 C 104.692 -2.07178 0.0960198 0
M  V30 1100 C 105.117 -1.44268 -1.207 0
M  V30 1101 O 104.475 -0.532503 -1.73303 0
M  V30 1102 C 104.523 -3.60579 -0.0385348 0
M  V30 1103 O 103.627 -3.97713 -1.0908 0
M  V30 1104 H 102.968 -0.660251 0.0704593 0
M  V30 1105 H 105.498 -1.87124 0.827385 0
M  V30 1106 H 105.508 -4.07298 -0.239304 0
M  V30 1107 H 104.183 -4.05756 0.912947 0
M  V30 1108 H 102.76 -3.62678 -0.867135 0
M  V30 1109 N 104.945 -0.338344 -1.53925 0
M  V30 1110 C 106.361 0.0137736 -1.59594 0
M  V30 1111 C 106.561 1.49186 -1.35447 0
M  V30 1112 O 105.617 2.24987 -1.14616 0
M  V30 1113 C 106.93 -0.41773 -2.97784 0
M  V30 1114 C 108.478 -0.369633 -3.1081 0
M  V30 1115 C 108.953 -0.776524 -4.51369 0
M  V30 1116 N 110.444 -0.730506 -4.57403 0
M  V30 1117 C 111.179 -1.01736 -5.64303 0
M  V30 1118 N 110.675 -1.3721 -6.79077 0
M  V30 1119 N 112.468 -0.941942 -5.54151 0
M  V30 1120 H 104.619 -1.3012 -1.67876 0
M  V30 1121 H 106.882 -0.530082 -0.78595 0
M  V30 1122 H 106.588 -1.44811 -3.20504 0
M  V30 1123 H 106.462 0.209729 -3.76616 0
M  V30 1124 H 108.849 0.651568 -2.87817 0
M  V30 1125 H 108.93 -1.03223 -2.34049 0
M  V30 1126 H 108.574 -1.79571 -4.75096 0
M  V30 1127 H 108.504 -0.0914649 -5.26521 0
M  V30 1128 H 110.995 -0.468783 -3.74981 0
M  V30 1129 H 111.308 -1.57597 -7.5656 0
M  V30 1130 H 109.653 -1.4105 -6.80536 0
M  V30 1131 H 112.844 -0.664184 -4.63364 0
M  V30 1132 H 113.017 -1.16884 -6.37371 0
M  V30 1133 N 106.423 1.57458 -0.0668435 0
M  V30 1134 C 107.67 1.93301 0.603406 0
M  V30 1135 C 107.998 0.946486 1.69917 0
M  V30 1136 O 107.253 -0.0387021 1.95662 0
M  V30 1137 C 107.552 3.35784 1.22409 0
M  V30 1138 C 107.218 4.50179 0.254955 0
M  V30 1139 C 105.88 4.81199 -0.0116746 0
M  V30 1140 C 108.232 5.19598 -0.408338 0
M  V30 1141 C 105.56 5.78978 -0.94877 0
M  V30 1142 C 107.912 6.18381 -1.33372 0
M  V30 1143 C 106.576 6.47821 -1.60887 0
M  V30 1144 H 105.846 0.707338 0.220802 0
M  V30 1145 H 108.493 1.91012 -0.136665 0
M  V30 1146 H 106.798 3.34515 2.03978 0
M  V30 1147 H 108.495 3.60804 1.74989 0
M  V30 1148 H 105.085 4.25983 0.472954 0
M  V30 1149 H 109.269 4.95832 -0.215456 0
M  V30 1150 H 104.525 6.00115 -1.16925 0
M  V30 1151 H 108.699 6.71277 -1.85367 0
M  V30 1152 H 106.326 7.23399 -2.33661 0
M  V30 1153 N 107.901 -0.206675 1.56239 0
M  V30 1154 C 109.126 -0.949474 1.8439 0
M  V30 1155 C 109.551 -1.76549 0.649016 0
M  V30 1156 O 108.909 -1.76782 -0.402231 0
M  V30 1157 C 108.957 -1.83078 3.10668 0
M  V30 1158 O 108.061 -2.9281 2.90407 0
M  V30 1159 H 107.402 -0.268033 0.607499 0
M  V30 1160 H 109.932 -0.215488 2.03462 0
M  V30 1161 H 109.942 -2.2377 3.41161 0
M  V30 1162 H 108.617 -1.23112 3.97261 0
M  V30 1163 H 107.194 -2.55956 2.71184 0
M  V30 1164 N 109.379 -1.50304 -0.473955 0
M  V30 1165 C 110.604 -1.65175 -1.25427 0
M  V30 1166 C 111.029 -0.333673 -1.85117 0
M  V30 1167 O 110.387 0.702114 -1.67153 0
M  V30 1168 C 110.435 -2.74295 -2.34082 0
M  V30 1169 O 109.539 -2.35349 -3.38651 0
M  V30 1170 H 108.88 -0.551944 -0.369126 0
M  V30 1171 H 111.41 -1.96662 -0.564364 0
M  V30 1172 H 111.42 -2.97285 -2.79438 0
M  V30 1173 H 110.095 -3.69959 -1.90008 0
M  V30 1174 H 108.672 -2.22794 -2.99027 0
M  V30 1175 N 110.857 0.726932 -1.39834 0
M  V30 1176 C 112.082 1.52121 -1.40976 0
M  V30 1177 C 112.507 1.88098 -0.00826029 0
M  V30 1178 O 111.865 1.52479 0.980807 0
M  V30 1179 C 111.913 2.78021 -2.29644 0
M  V30 1180 O 111.017 3.74272 -1.73188 0
M  V30 1181 H 110.358 0.45908 -0.479731 0
M  V30 1182 H 112.888 0.896207 -1.83927 0
M  V30 1183 H 112.898 3.26671 -2.44438 0
M  V30 1184 H 111.573 2.51169 -3.31492 0
M  V30 1185 H 110.15 3.33073 -1.6768 0
M  V30 1186 N 112.336 1.25143 0.95797 0
M  V30 1187 C 113.584 1.09476 1.69881 0
M  V30 1188 C 113.905 -0.365502 1.91544 0
M  V30 1189 O 113.175 -1.25985 1.50015 0
M  V30 1190 H 111.755 0.402128 0.629525 0
M  V30 1191 H 114.417 1.57214 1.15194 0
M  V30 1192 H 113.513 1.60046 2.6794 0
M  V30 1193 N 113.814 -1.1601 1.06675 0
M  V30 1194 C 115.039 -1.91068 0.806706 0
M  V30 1195 C 115.464 -1.77112 -0.633485 0
M  V30 1196 O 114.822 -1.09908 -1.44187 0
M  V30 1197 C 114.87 -3.39655 1.21106 0
M  V30 1198 O 113.974 -4.10893 0.352189 0
M  V30 1199 H 113.315 -0.595125 0.294486 0
M  V30 1200 H 115.845 -1.46955 1.42356 0
M  V30 1201 H 115.855 -3.90434 1.18428 0
M  V30 1202 H 114.53 -3.49132 2.26008 0
M  V30 1203 H 113.107 -3.70285 0.440868 0
M  V30 1204 N 115.292 -0.849877 -1.32721 0
M  V30 1205 C 116.54 -0.450032 -1.97026 0
M  V30 1206 C 116.861 0.996604 -1.67609 0
M  V30 1207 O 116.131 1.6958 -0.980786 0
M  V30 1208 H 114.711 -0.163426 -0.728904 0
M  V30 1209 H 117.373 -1.08526 -1.6189 0
M  V30 1210 H 116.469 -0.591146 -3.0645 0
M  V30 1211 N 116.77 1.45427 -0.607355 0
M  V30 1212 C 117.998 2.06614 -0.108814 0
M  V30 1213 C 118.413 1.45204 1.2067 0
M  V30 1214 O 117.77 0.566132 1.73497 0
M  V30 1215 C 117.821 3.61481 0.0375347 0
M  V30 1216 O 117.542 4.20598 -1.22593 0
M  V30 1217 C 119.043 4.39652 0.567561 0
M  V30 1218 H 116.263 0.66747 -0.0687351 0
M  V30 1219 H 118.807 1.86675 -0.835022 0
M  V30 1220 H 116.962 3.80762 0.714068 0
M  V30 1221 H 117.376 5.1377 -1.05547 0
M  V30 1222 H 118.85 5.48518 0.61905 0
M  V30 1223 H 119.327 4.09417 1.58978 0
M  V30 1224 H 119.933 4.25234 -0.0749202 0
M  V30 1225 N 118.248 0.346503 1.53744 0
M  V30 1226 C 119.525 -0.304532 1.93215 0
M  V30 1227 C 119.905 -1.67993 1.27834 0
M  V30 1228 O 119.253 -2.24411 0.430352 0
M  V30 1229 C 119.463 -0.373852 3.46992 0
M  V30 1230 C 120.811 -0.62329 4.2 0
M  V30 1231 O 121.835 -0.455847 3.53271 0
M  V30 1232 O 120.694 -0.947879 5.38217 0
M  V30 1233 H 117.788 -0.178318 0.807547 0
M  V30 1234 H 120.334 0.397895 1.64969 0
M  V30 1235 H 119.106 0.591224 3.86808 0
M  V30 1236 H 118.729 -1.12294 3.81413 0
M  V30 1237 N 119.726 -1.57421 0.075193 0
M  V30 1238 C 120.973 -1.93618 -0.593146 0
M  V30 1239 C 121.301 -0.955484 -1.69413 0
M  V30 1240 O 120.556 0.0283251 -1.9568 0
M  V30 1241 C 120.855 -3.36428 -1.20626 0
M  V30 1242 C 120.521 -4.50307 -0.231078 0
M  V30 1243 C 119.183 -4.81186 0.0371936 0
M  V30 1244 C 121.535 -5.19374 0.435888 0
M  V30 1245 C 118.863 -5.78466 0.979461 0
M  V30 1246 C 121.215 -6.17665 1.3665 0
M  V30 1247 C 119.879 -6.46958 1.6432 0
M  V30 1248 H 119.149 -0.708499 -0.217047 0
M  V30 1249 H 121.796 -1.90937 0.146793 0
M  V30 1250 H 120.101 -3.35592 -2.02201 0
M  V30 1251 H 121.798 -3.61727 -1.73073 0
M  V30 1252 H 118.388 -4.26227 -0.450357 0
M  V30 1253 H 122.572 -4.95711 0.241748 0
M  V30 1254 H 117.828 -5.99487 1.20106 0
M  V30 1255 H 122.002 -6.70284 1.88924 0
M  V30 1256 H 119.629 -7.2215 2.37494 0
M  V30 1257 N 121.204 0.198386 -1.56346 0
M  V30 1258 C 122.432 0.935572 -1.84539 0
M  V30 1259 C 122.847 1.76989 -0.657281 0
M  V30 1260 O 122.204 1.78626 0.374043 0
M  V30 1261 C 122.255 1.8344 -3.11499 0
M  V30 1262 O 121.976 1.03377 -4.25728 0
M  V30 1263 C 123.477 2.68355 -3.52846 0
M  V30 1264 H 120.697 0.273126 -0.612897 0
M  V30 1265 H 123.241 0.20663 -2.03453 0
M  V30 1266 H 121.396 2.51701 -2.94492 0
M  V30 1267 H 121.81 1.64599 -4.98003 0
M  V30 1268 H 123.284 3.27085 -4.44657 0
M  V30 1269 H 123.761 3.41901 -2.75681 0
M  V30 1270 H 124.367 2.05471 -3.72373 0
M  V30 1271 N 122.682 1.50554 0.465978 0
M  V30 1272 C 123.612 1.72722 1.57128 0
M  V30 1273 C 124.593 0.576294 1.6004 0
M  V30 1274 O 125.778 0.81598 1.76225 0
M  V30 1275 C 122.908 1.82605 2.95419 0
M  V30 1276 C 121.862 2.97835 3.07373 0
M  V30 1277 C 121.188 2.92867 4.47363 0
M  V30 1278 C 122.488 4.38265 2.84114 0
M  V30 1279 H 124.182 2.65267 1.38829 0
M  V30 1280 H 121.728 1.2765 0.666441 0
M  V30 1281 H 123.681 1.96698 3.72677 0
M  V30 1282 H 122.405 0.866858 3.14886 0
M  V30 1283 H 121.064 2.83401 2.3255 0
M  V30 1284 H 120.712 1.94783 4.63755 0
M  V30 1285 H 120.412 3.70227 4.56296 0
M  V30 1286 H 121.936 3.09015 5.26633 0
M  V30 1287 H 123.35 4.53198 3.51118 0
M  V30 1288 H 121.747 5.17115 3.04487 0
M  V30 1289 H 122.817 4.50281 1.7993 0
M  V30 1290 N 124.16 -0.719506 1.40217 0
M  V30 1291 C 125.388 -1.50864 1.41589 0
M  V30 1292 C 125.803 -1.88794 0.0145275 0
M  V30 1293 O 125.16 -1.55174 -0.960594 0
M  V30 1294 C 125.211 -2.78646 2.30302 0
M  V30 1295 O 124.932 -2.42321 3.64983 0
M  V30 1296 C 126.433 -3.72569 2.40224 0
M  V30 1297 H 123.653 -0.465709 0.48307 0
M  V30 1298 H 126.197 -0.88785 1.84221 0
M  V30 1299 H 124.352 -3.37019 1.91042 0
M  V30 1300 H 124.766 -3.24514 4.12057 0
M  V30 1301 H 126.24 -4.5908 3.06512 0
M  V30 1302 H 126.717 -4.15403 1.42608 0
M  V30 1303 H 127.323 -3.20109 2.80019 0
M  V30 1304 N 125.638 -1.25649 -0.95132 0
M  V30 1305 C 126.887 -1.09988 -1.69073 0
M  V30 1306 C 127.2 0.358355 -1.92289 0
M  V30 1307 O 128.406 0.635466 -2.63958 0
M  V30 1308 C 126.862 -1.92012 -3.044 0
M  V30 1309 C 126.47 -3.42347 -2.88968 0
M  V30 1310 C 128.214 -1.8493 -3.82101 0
M  V30 1311 C 126.121 -4.16655 -4.19705 0
M  V30 1312 H 125.051 -0.407993 -0.63408 0
M  V30 1313 H 127.702 -1.49873 -1.05879 0
M  V30 1314 H 126.084 -1.44952 -3.68517 0
M  V30 1315 H 127.258 -3.97104 -2.33762 0
M  V30 1316 H 125.573 -3.50557 -2.24719 0
M  V30 1317 H 128.17 -2.37739 -4.78941 0
M  V30 1318 H 128.513 -0.817883 -4.08187 0
M  V30 1319 H 129.046 -2.29758 -3.2474 0
M  V30 1320 H 125.785 -5.20224 -3.98807 0
M  V30 1321 H 125.305 -3.66681 -4.74663 0
M  V30 1322 H 126.984 -4.24551 -4.88227 0
M  V30 1323 N 127.117 1.15442 -1.07289 0
M  V30 1324 C 128.342 1.90638 -0.816828 0
M  V30 1325 C 128.767 1.77445 0.624083 0
M  V30 1326 O 128.125 1.10671 1.43602 0
M  V30 1327 C 128.173 3.39008 -1.22906 0
M  V30 1328 O 127.277 4.10701 -0.373975 0
M  V30 1329 H 126.618 0.593555 -0.297638 0
M  V30 1330 H 129.148 1.46198 -1.43134 0
M  V30 1331 H 129.158 3.89801 -1.20497 0
M  V30 1332 H 127.833 3.47929 -2.27856 0
M  V30 1333 H 126.41 3.70046 -0.460499 0
M  V30 1334 N 128.595 0.856903 1.32268 0
M  V30 1335 C 129.82 0.474569 2.01897 0
M  V30 1336 C 130.245 -0.921766 1.63967 0
M  V30 1337 O 129.603 -1.60589 0.84148 0
M  V30 1338 C 129.651 0.623799 3.55164 0
M  V30 1339 O 128.755 -0.342459 4.10976 0
M  V30 1340 H 128.096 0.190422 0.63611 0
M  V30 1341 H 130.626 1.15672 1.68764 0
M  V30 1342 H 130.636 0.512169 4.04773 0
M  V30 1343 H 129.311 1.64202 3.82113 0
M  V30 1344 H 127.888 -0.18688 3.72431 0
M  V30 1345 N 130.073 -1.45103 0.615059 0
M  V30 1346 C 131.003 -2.33339 -0.0865619 0
M  V30 1347 C 131.984 -1.4727 -0.851209 0
M  V30 1348 O 133.169 -1.76026 -0.820281 0
M  V30 1349 C 130.299 -3.30095 -1.07956 0
M  V30 1350 C 129.253 -4.25858 -0.427628 0
M  V30 1351 C 128.579 -5.12361 -1.5294 0
M  V30 1352 C 129.879 -5.18165 0.655944 0
M  V30 1353 H 131.573 -2.92254 0.650224 0
M  V30 1354 H 129.119 -1.40532 0.314138 0
M  V30 1355 H 131.072 -3.90698 -1.57901 0
M  V30 1356 H 129.796 -2.69355 -1.84703 0
M  V30 1357 H 128.455 -3.66564 0.0510292 0
M  V30 1358 H 128.103 -4.47984 -2.28734 0
M  V30 1359 H 127.803 -5.77238 -1.09865 0
M  V30 1360 H 129.327 -5.75833 -2.03098 0
M  V30 1361 H 130.741 -5.72796 0.240257 0
M  V30 1362 H 129.138 -5.91559 1.00888 0
M  V30 1363 H 130.208 -4.60144 1.52957 0
M  V30 1364 N 131.551 -0.354651 -1.53558 0
M  V30 1365 C 132.483 0.5315 -2.22952 0
M  V30 1366 C 133.496 1.05503 -1.23988 0
M  V30 1367 O 134.685 0.963279 -1.50277 0
M  V30 1368 C 131.785 1.74538 -2.90499 0
M  V30 1369 C 130.958 1.35524 -4.15875 0
M  V30 1370 C 130.017 2.42999 -4.66731 0
M  V30 1371 O 129.043 2.05844 -5.30676 0
M  V30 1372 N 130.245 3.74423 -4.43608 0
M  V30 1373 H 133.01 -0.0628615 -2.99634 0
M  V30 1374 H 130.571 -0.179302 -1.60904 0
M  V30 1375 H 132.563 2.45892 -3.21433 0
M  V30 1376 H 131.133 2.24686 -2.17336 0
M  V30 1377 H 130.353 0.471998 -3.91364 0
M  V30 1378 H 131.641 1.07071 -4.97406 0
M  V30 1379 H 131.039 4.07391 -3.92491 0
M  V30 1380 H 129.596 4.41913 -4.7912 0
M  V30 1381 N 133.029 1.57378 -0.0835403 0
M  V30 1382 C 134.44 1.81261 0.447358 0
M  V30 1383 C 134.791 0.998331 1.68902 0
M  V30 1384 O 133.916 0.224282 2.15235 0
M  V30 1385 C 134.511 3.28767 0.818386 0
M  V30 1386 C 133.07 3.53455 1.29409 0
M  V30 1387 C 132.217 2.75831 0.285024 0
M  V30 1388 H 135.168 1.5566 -0.309115 0
M  V30 1389 H 135.189 3.41459 1.67887 0
M  V30 1390 H 134.701 3.88006 -0.0855019 0
M  V30 1391 H 132.802 2.99534 2.21608 0
M  V30 1392 H 132.915 4.62128 1.2639 0
M  V30 1393 H 131.279 2.42947 0.764767 0
M  V30 1394 H 132.062 3.37813 -0.611341 0
M  V30 1395 N 134.507 -0.190092 1.56449 0
M  V30 1396 C 135.417 -1.25591 1.98152 0
M  V30 1397 C 136.433 -1.49519 0.889944 0
M  V30 1398 O 137.609 -1.62036 1.19609 0
M  V30 1399 C 134.674 -2.57916 2.3169 0
M  V30 1400 C 133.735 -2.42015 3.5458 0
M  V30 1401 C 132.968 -3.6803 3.8651 0
M  V30 1402 O 133.191 -4.72413 3.1966 0
M  V30 1403 O 132.125 -3.6326 4.79923 0
M  V30 1404 H 135.951 -0.931988 2.89046 0
M  V30 1405 H 133.536 -0.395488 1.4407 0
M  V30 1406 H 135.418 -3.36008 2.54316 0
M  V30 1407 H 134.093 -2.89925 1.43963 0
M  V30 1408 H 133 -1.62017 3.37196 0
M  V30 1409 H 134.333 -2.14937 4.4279 0
M  V30 1410 N 135.985 -1.50799 -0.457987 0
M  V30 1411 C 137.262 -1.52968 -1.21902 0
M  V30 1412 C 137.642 -0.281906 -2.09209 0
M  V30 1413 O 136.99 0.734076 -2.16388 0
M  V30 1414 C 137.2 -2.8326 -2.03875 0
M  V30 1415 C 138.548 -3.34425 -2.6162 0
M  V30 1416 O 139.572 -2.8467 -2.14106 0
M  V30 1417 O 138.431 -4.21188 -3.48228 0
M  V30 1418 H 135.525 -0.614129 -0.553873 0
M  V30 1419 H 138.071 -1.63098 -0.468739 0
M  V30 1420 H 136.843 -3.65543 -1.39621 0
M  V30 1421 H 136.466 -2.76195 -2.8601 0
M  V30 1422 N 137.463 0.71206 -1.40597 0
M  V30 1423 C 138.71 1.47197 -1.39065 0
M  V30 1424 C 139.038 1.94499 0.00583891 0
M  V30 1425 O 138.293 1.68752 0.99102 0
M  V30 1426 C 138.592 2.71039 -2.32965 0
M  V30 1427 C 138.258 2.42484 -3.80148 0
M  V30 1428 C 136.92 2.34406 -4.20247 0
M  V30 1429 C 139.272 2.18598 -4.73143 0
M  V30 1430 C 136.6 2.00516 -5.51371 0
M  V30 1431 C 138.952 1.8622 -6.0457 0
M  V30 1432 C 137.616 1.76626 -6.43708 0
M  V30 1433 H 136.886 0.538634 -0.508876 0
M  V30 1434 H 139.533 0.815325 -1.73276 0
M  V30 1435 H 137.838 3.41558 -1.91951 0
M  V30 1436 H 139.535 3.29138 -2.29061 0
M  V30 1437 H 136.125 2.49659 -3.4838 0
M  V30 1438 H 140.309 2.23793 -4.42979 0
M  V30 1439 H 135.565 1.91628 -5.80593 0
M  V30 1440 H 139.739 1.66752 -6.76141 0
M  V30 1441 H 137.366 1.50133 -7.45228 0
M  V30 1442 N 138.941 1.26152 0.944643 0
M  V30 1443 C 139.904 1.07474 2.0244 0
M  V30 1444 C 140.904 0.0242064 1.60782 0
M  V30 1445 O 142.094 0.267302 1.72137 0
M  V30 1446 C 139.226 0.633956 3.34953 0
M  V30 1447 H 140.419 2.03336 2.20442 0
M  V30 1448 H 137.972 1.087 1.12312 0
M  V30 1449 H 138.707 -0.326811 3.22649 0
M  V30 1450 H 138.492 1.39247 3.66542 0
M  V30 1451 H 139.982 0.52501 4.14287 0
M  V30 1452 N 140.419 -1.14872 1.07899 0
M  V30 1453 C 141.647 -1.89661 0.82683 0
M  V30 1454 C 142.062 -1.78312 -0.620519 0
M  V30 1455 O 141.419 -1.13888 -1.42604 0
M  V30 1456 C 141.47 -3.39817 1.23316 0
M  V30 1457 O 141.191 -3.50845 2.62372 0
M  V30 1458 C 142.692 -4.31615 1.0111 0
M  V30 1459 H 139.912 -0.60092 0.298557 0
M  V30 1460 H 142.456 -1.4551 1.43691 0
M  V30 1461 H 140.611 -3.8161 0.667286 0
M  V30 1462 H 141.025 -4.44076 2.79101 0
M  V30 1463 H 142.499 -5.35367 1.34486 0
M  V30 1464 H 142.976 -4.39169 -0.0522168 0
M  V30 1465 H 143.582 -3.95572 1.56215 0
M  V30 1466 N 141.898 -0.863906 -1.31812 0
M  V30 1467 C 143.128 -0.485406 -2.00817 0
M  V30 1468 C 143.536 0.925007 -1.65046 0
M  V30 1469 O 142.879 1.61653 -0.872574 0
M  V30 1470 C 142.941 -0.555589 -3.55181 0
M  V30 1471 C 142.605 -1.92654 -4.14407 0
M  V30 1472 C 143.602 -2.89324 -4.31958 0
M  V30 1473 C 141.287 -2.2262 -4.50273 0
M  V30 1474 C 143.281 -4.14108 -4.84555 0
M  V30 1475 C 140.968 -3.47654 -5.02573 0
M  V30 1476 C 141.966 -4.43214 -5.19664 0
M  V30 1477 O 141.654 -5.66033 -5.70843 0
M  V30 1478 H 141.386 -0.188224 -0.649267 0
M  V30 1479 H 143.94 -1.16514 -1.69156 0
M  V30 1480 H 142.17 0.181037 -3.86276 0
M  V30 1481 H 143.859 -0.19138 -4.05449 0
M  V30 1482 H 144.625 -2.6748 -4.04573 0
M  V30 1483 H 140.504 -1.4902 -4.3625 0
M  V30 1484 H 144.048 -4.88703 -4.9781 0
M  V30 1485 H 139.945 -3.69345 -5.29391 0
M  V30 1486 H 140.713 -5.6812 -5.89222 0
M  V30 1487 N 143.376 1.44774 -0.622745 0
M  V30 1488 C 144.606 2.06187 -0.130532 0
M  V30 1489 C 145.014 1.46547 1.19669 0
M  V30 1490 O 144.357 0.579636 1.74316 0
M  V30 1491 C 144.419 3.59437 0.0674983 0
M  V30 1492 C 144.083 4.41496 -1.18026 0
M  V30 1493 C 145.08 4.75512 -2.102 0
M  V30 1494 C 142.765 4.82007 -1.41333 0
M  V30 1495 C 144.759 5.48912 -3.23998 0
M  V30 1496 C 142.446 5.55157 -2.55429 0
M  V30 1497 C 143.444 5.88528 -3.46589 0
M  V30 1498 O 143.132 6.60191 -4.58697 0
M  V30 1499 H 142.864 0.672045 -0.0730162 0
M  V30 1500 H 145.418 1.86768 -0.854802 0
M  V30 1501 H 143.648 3.77314 0.846825 0
M  V30 1502 H 145.337 4.02642 0.513209 0
M  V30 1503 H 146.103 4.4476 -1.93425 0
M  V30 1504 H 141.982 4.55457 -0.712709 0
M  V30 1505 H 145.526 5.74877 -3.95174 0
M  V30 1506 H 141.423 5.85324 -2.72151 0
M  V30 1507 H 142.191 6.78654 -4.57571 0
M  V30 1508 N 144.854 0.36279 1.53368 0
M  V30 1509 C 146.094 -0.227882 2.03126 0
M  V30 1510 C 146.458 -1.4622 1.24434 0
M  V30 1511 O 147.659 -2.12831 1.64184 0
M  V30 1512 C 145.93 -0.515427 3.53664 0
M  V30 1513 S 147.489 -1.08017 4.25297 0
M  V30 1514 H 144.307 -0.0665377 0.70788 0
M  V30 1515 H 146.909 0.50501 1.88865 0
M  V30 1516 H 145.613 0.390436 4.08539 0
M  V30 1517 H 145.144 -1.27747 3.72081 0
M  V30 1518 H 147.159 -2.36462 4.36234 0
M  V30 1519 N 146.332 -1.57332 0.0918853 0
M  V30 1520 C 147.295 -2.12708 -0.85369 0
M  V30 1521 C 148.295 -1.05561 -1.213 0
M  V30 1522 O 149.485 -1.31461 -1.14296 0
M  V30 1523 C 146.617 -2.64503 -2.15061 0
M  V30 1524 H 147.81 -2.97573 -0.3729 0
M  V30 1525 H 145.363 -1.55509 -0.157072 0
M  V30 1526 H 146.098 -1.83149 -2.67632 0
M  V30 1527 H 145.883 -3.4284 -1.90272 0
M  V30 1528 H 147.373 -3.07351 -2.82711 0
M  V30 1529 N 147.81 0.181792 -1.56548 0
M  V30 1530 C 148.742 1.24956 -1.92142 0
M  V30 1531 C 149.755 1.41022 -0.813422 0
M  V30 1532 O 150.944 1.41212 -1.09186 0
M  V30 1533 C 148.044 2.61981 -2.14987 0
M  V30 1534 C 147.217 2.6735 -3.46183 0
M  V30 1535 C 146.276 3.85664 -3.5798 0
M  V30 1536 O 145.302 3.72148 -4.30691 0
M  V30 1537 N 146.504 5.01683 -2.92053 0
M  V30 1538 H 149.269 0.947329 -2.84334 0
M  V30 1539 H 146.83 0.371629 -1.57577 0
M  V30 1540 H 148.822 3.3958 -2.20154 0
M  V30 1541 H 147.392 2.84637 -1.2923 0
M  V30 1542 H 146.612 1.75925 -3.52766 0
M  V30 1543 H 147.9 2.67939 -4.32534 0
M  V30 1544 H 147.298 5.15564 -2.32832 0
M  V30 1545 H 145.855 5.77181 -3.0283 0
M  V30 1546 N 149.288 1.51039 0.449983 0
M  V30 1547 C 150.236 1.71995 1.5659 0
M  V30 1548 C 151.23 0.586029 1.5894 0
M  V30 1549 O 152.436 0.76709 1.62837 0
M  V30 1550 H 148.811 0.543233 0.520001 0
M  V30 1551 H 150.782 2.65562 1.36085 0
M  V30 1552 C 149.531 1.8506 2.9436 0
M  V30 1553 H 148.854 2.71712 2.93279 0
M  V30 1554 H 150.294 2.0374 3.71842 0
M  V30 1555 C 148.753 0.607277 3.31382 0
M  V30 1556 O 149.283 -0.243903 4.00959 0
M  V30 1557 N 147.489 0.455073 2.87015 0
M  V30 1558 H 147.036 1.14879 2.30566 0
M  V30 1559 H 146.994 -0.375611 3.12148 0
M  V30 1560 N 150.766 -0.704594 1.40972 0
M  V30 1561 C 151.696 -1.83124 1.44872 0
M  V30 1562 C 152.677 -1.67281 0.30838 0
M  V30 1563 O 153.862 -1.87149 0.518556 0
M  V30 1564 C 150.992 -3.21181 1.32136 0
M  V30 1565 C 149.946 -3.51714 2.43888 0
M  V30 1566 C 149.272 -4.89032 2.16222 0
M  V30 1567 C 150.572 -3.516 3.86232 0
M  V30 1568 H 152.266 -1.80117 2.39161 0
M  V30 1569 H 149.812 -0.865145 1.15114 0
M  V30 1570 H 151.765 -3.99702 1.33479 0
M  V30 1571 H 150.489 -3.24791 0.343279 0
M  V30 1572 H 149.148 -2.75539 2.41813 0
M  V30 1573 H 148.796 -4.89256 1.16778 0
M  V30 1574 H 148.496 -5.10426 2.911 0
M  V30 1575 H 150.02 -5.69873 2.19265 0
M  V30 1576 H 151.434 -4.2014 3.9007 0
M  V30 1577 H 149.831 -3.84523 4.60719 0
M  V30 1578 H 150.901 -2.50757 4.15029 0
M  V30 1579 N 152.244 -1.26651 -0.937939 0
M  V30 1580 C 153.154 -1.10276 -2.07066 0
M  V30 1581 C 154.17 -0.0354197 -1.73964 0
M  V30 1582 O 155.346 -0.239816 -1.99967 0
M  V30 1583 C 152.411 -0.740887 -3.38691 0
M  V30 1584 C 151.472 -1.88799 -3.85556 0
M  V30 1585 C 150.705 -1.54329 -5.10899 0
M  V30 1586 O 150.928 -0.446494 -5.6865 0
M  V30 1587 O 149.862 -2.37911 -5.52885 0
M  V30 1588 H 153.688 -2.05309 -2.23789 0
M  V30 1589 H 151.273 -1.05743 -1.0554 0
M  V30 1590 H 153.155 -0.55195 -4.1777 0
M  V30 1591 H 151.83 0.180022 -3.23199 0
M  V30 1592 H 150.737 -2.13191 -3.07409 0
M  V30 1593 H 152.07 -2.78874 -4.05574 0
M  V30 1594 N 153.722 1.14298 -1.08507 0
M  V30 1595 C 154.971 1.84708 -0.810305 0
M  V30 1596 C 155.284 1.83903 0.666271 0
M  V30 1597 O 156.49 2.50112 1.05624 0
M  V30 1598 C 154.946 3.31572 -1.39957 0
M  V30 1599 C 154.554 3.40791 -2.90801 0
M  V30 1600 C 156.298 4.07087 -1.20334 0
M  V30 1601 C 154.205 4.81872 -3.4286 0
M  V30 1602 H 153.135 0.691985 -0.299454 0
M  V30 1603 H 155.786 1.28841 -1.30661 0
M  V30 1604 H 154.168 3.87183 -0.830976 0
M  V30 1605 H 155.342 2.95225 -3.53806 0
M  V30 1606 H 153.657 2.78732 -3.0935 0
M  V30 1607 H 156.254 5.11225 -1.56693 0
M  V30 1608 H 156.597 4.16054 -0.143237 0
M  V30 1609 H 157.13 3.57779 -1.73893 0
M  V30 1610 H 153.869 4.78094 -4.48449 0
M  V30 1611 H 153.389 5.27972 -2.84615 0
M  V30 1612 H 155.068 5.50765 -3.39509 0
M  V30 1613 N 155.201 0.870884 1.31352 0
M  V30 1614 C 156.612 0.534714 1.78879 0
M  V30 1615 C 156.963 -0.948423 1.71754 0
M  V30 1616 O 156.088 -1.74055 1.28584 0
M  V30 1617 C 156.683 0.963839 3.24801 0
M  V30 1618 C 155.242 0.679311 3.70219 0
M  V30 1619 C 154.389 1.15465 2.52117 0
M  V30 1620 H 157.34 1.05651 1.18421 0
M  V30 1621 H 157.361 0.286892 3.79417 0
M  V30 1622 H 156.873 2.04332 3.29955 0
M  V30 1623 H 154.974 -0.388769 3.70566 0
M  V30 1624 H 155.087 1.25698 4.62317 0
M  V30 1625 H 153.451 0.574383 2.48139 0
M  V30 1626 H 154.234 2.24157 2.60016 0
M  V30 1627 N 156.679 -1.44442 0.630414 0
M  V30 1628 C 158.095 -1.56832 0.295973 0
M  V30 1629 C 158.295 -1.61806 -1.20088 0
M  V30 1630 O 157.351 -1.5607 -1.9849 0
M  V30 1631 C 158.664 -2.84031 0.987264 0
M  V30 1632 C 160.212 -2.97742 0.96534 0
M  V30 1633 C 160.687 -4.27743 1.63708 0
M  V30 1634 N 162.178 -4.34555 1.60364 0
M  V30 1635 C 162.913 -5.33862 2.09234 0
M  V30 1636 N 162.409 -6.39578 2.66292 0
M  V30 1637 N 164.202 -5.25366 1.99867 0
M  V30 1638 H 156.353 -1.39457 1.60205 0
M  V30 1639 H 158.616 -0.668237 0.672431 0
M  V30 1640 H 158.322 -2.86338 2.04215 0
M  V30 1641 H 158.196 -3.73534 0.524588 0
M  V30 1642 H 160.583 -2.94989 -0.0810639 0
M  V30 1643 H 160.664 -2.09589 1.4665 0
M  V30 1644 H 160.308 -4.31255 2.68293 0
M  V30 1645 H 160.238 -5.14752 1.11076 0
M  V30 1646 H 162.729 -3.58772 1.18705 0
M  V30 1647 H 163.042 -7.11637 3.01317 0
M  V30 1648 H 161.387 -6.40265 2.70343 0
M  V30 1649 H 164.578 -4.41688 1.55013 0
M  V30 1650 H 164.751 -6.02606 2.38265 0
M  V30 1651 N 158.157 -0.370918 -1.53173 0
M  V30 1652 C 159.385 0.217704 -2.05751 0
M  V30 1653 C 159.8 1.42018 -1.24404 0
M  V30 1654 O 159.157 1.80245 -0.286033 0
M  V30 1655 C 159.208 0.605954 -3.56385 0
M  V30 1656 O 158.929 -0.548734 -4.3465 0
M  V30 1657 C 160.43 1.2524 -4.25241 0
M  V30 1658 H 157.65 0.0371659 -0.66997 0
M  V30 1659 H 160.194 -0.530832 -1.9749 0
M  V30 1660 H 158.349 1.3044 -3.6478 0
M  V30 1661 H 158.763 -0.23376 -5.23979 0
M  V30 1662 H 160.237 1.47458 -5.3194 0
M  V30 1663 H 160.714 2.2143 -3.79296 0
M  V30 1664 H 161.32 0.595233 -4.21114 0
M  V30 1665 N 159.635 1.57281 -0.100228 0
M  V30 1666 C 160.882 1.94537 0.562268 0
M  V30 1667 C 161.21 0.982315 1.67871 0
M  V30 1668 O 160.465 0.00280936 1.957 0
M  V30 1669 C 160.764 3.38305 1.15259 0
M  V30 1670 C 160.43 4.50618 0.159409 0
M  V30 1671 C 159.092 4.81066 -0.113741 0
M  V30 1672 C 161.444 5.18615 -0.518461 0
M  V30 1673 C 158.772 5.76835 -1.07137 0
M  V30 1674 C 161.124 6.15412 -1.46459 0
M  V30 1675 C 159.788 6.44262 -1.74592 0
M  V30 1676 H 159.058 0.711863 0.205748 0
M  V30 1677 H 161.705 1.90679 -0.17715 0
M  V30 1678 H 160.01 3.38766 1.96836 0
M  V30 1679 H 161.707 3.64435 1.67297 0
M  V30 1680 H 158.297 4.2689 0.382491 0
M  V30 1681 H 162.481 4.95264 -0.320581 0
M  V30 1682 H 157.737 5.975 -1.29628 0
M  V30 1683 H 161.911 6.67194 -1.99564 0
M  V30 1684 H 159.538 7.1828 -2.48953 0
M  V30 1685 N 161.113 -0.173488 1.56642 0
M  V30 1686 C 162.361 -0.888706 1.81512 0
M  V30 1687 C 162.682 -1.82875 0.676872 0
M  V30 1688 O 161.952 -1.93536 -0.303414 0
M  V30 1689 H 160.532 -0.331164 0.669582 0
M  V30 1690 H 163.194 -0.173823 1.94123 0
M  V30 1691 H 162.29 -1.46691 2.75478 0
M  V30 1692 N 162.591 -1.51276 -0.441967 0
M  V30 1693 C 163.523 -1.68444 -1.55433 0
M  V30 1694 C 164.536 -0.565187 -1.52674 0
M  V30 1695 O 165.725 -0.839356 -1.57534 0
M  V30 1696 C 162.825 -1.67966 -2.94348 0
M  V30 1697 C 161.998 -2.964 -3.21661 0
M  V30 1698 C 161.057 -2.88171 -4.40277 0
M  V30 1699 O 160.083 -3.62119 -4.39157 0
M  V30 1700 N 161.285 -2.03706 -5.43584 0
M  V30 1701 H 164.05 -2.644 -1.41112 0
M  V30 1702 H 161.611 -1.49104 -0.630838 0
M  V30 1703 H 163.603 -1.60035 -3.71713 0
M  V30 1704 H 162.173 -0.796225 -3.0229 0
M  V30 1705 H 161.393 -3.18234 -2.32638 0
M  V30 1706 H 162.681 -3.81427 -3.36736 0
M  V30 1707 H 162.079 -1.42995 -5.47329 0
M  V30 1708 H 160.636 -2.01658 -6.1982 0
M  V30 1709 N 164.069 0.697108 -1.41344 0
M  V30 1710 C 165.317 1.45426 -1.40341 0
M  V30 1711 C 165.638 1.94996 -0.0128787 0
M  V30 1712 O 164.908 1.71599 0.945027 0
M  V30 1713 H 163.488 0.539594 -0.516573 0
M  V30 1714 H 166.15 0.825201 -1.76569 0
M  V30 1715 H 165.246 2.31817 -2.08967 0
M  V30 1716 N 165.547 1.27147 0.931209 0
M  V30 1717 C 166.775 1.16082 1.71267 0
M  V30 1718 C 167.19 -0.282772 1.8667 0
M  V30 1719 O 166.547 -1.19283 1.38122 0
M  V30 1720 C 166.598 1.8358 3.11417 0
M  V30 1721 O 166.319 3.22299 2.96741 0
M  V30 1722 C 167.82 1.78597 4.05732 0
M  V30 1723 H 165.04 0.403758 0.535929 0
M  V30 1724 H 167.584 1.67953 1.16671 0
M  V30 1725 H 165.739 1.35623 3.62885 0
M  V30 1726 H 166.153 3.55851 3.85319 0
M  V30 1727 H 167.627 2.30444 5.01597 0
M  V30 1728 H 168.104 0.754564 4.3267 0
M  V30 1729 H 168.71 2.26152 3.60188 0
M  V30 1730 N 167.025 -1.13721 1.09112 0
M  V30 1731 C 167.972 -2.19031 0.727591 0
M  V30 1732 C 168.942 -1.63555 -0.289656 0
M  V30 1733 O 170.127 -1.90023 -0.172026 0
M  V30 1734 C 167.267 -3.4477 0.15082 0
M  V30 1735 C 166.38 -4.14365 1.22172 0
M  V30 1736 C 165.515 -5.27709 0.608042 0
M  V30 1737 C 164.554 -5.89147 1.66047 0
M  V30 1738 N 163.691 -6.93929 1.06806 0
M  V30 1739 H 168.531 -2.49475 1.62991 0
M  V30 1740 H 166.068 -1.22499 0.81439 0
M  V30 1741 H 168.026 -4.16714 -0.201358 0
M  V30 1742 H 166.656 -3.14787 -0.714783 0
M  V30 1743 H 165.708 -3.40737 1.69122 0
M  V30 1744 H 167.02 -4.56114 2.01895 0
M  V30 1745 H 166.174 -6.06355 0.204523 0
M  V30 1746 H 164.913 -4.872 -0.220769 0
M  V30 1747 H 163.918 -5.09198 2.07357 0
M  V30 1748 H 165.143 -6.31729 2.49189 0
M  V30 1749 H 163.089 -6.55483 0.260476 0
M  V30 1750 H 163.006 -7.34202 1.8023 0
M  V30 1751 H 164.274 -7.76434 0.690644 0
M  V30 1752 N 168.503 -0.877838 -1.30888 0
M  V30 1753 C 169.749 -0.493426 -1.96706 0
M  V30 1754 C 170.082 0.953504 -1.6918 0
M  V30 1755 O 169.357 1.67266 -0.992594 0
M  V30 1756 C 169.64 -0.760429 -3.51979 0
M  V30 1757 C 169.493 -2.25747 -3.89048 0
M  V30 1758 C 170.812 -0.232148 -4.39487 0
M  V30 1759 H 167.931 -0.180746 -0.714493 0
M  V30 1760 H 170.573 -1.10052 -1.54882 0
M  V30 1761 H 168.723 -0.243715 -3.87735 0
M  V30 1762 H 170.395 -2.84204 -3.63354 0
M  V30 1763 H 168.638 -2.72694 -3.37373 0
M  V30 1764 H 169.309 -2.39491 -4.97341 0
M  V30 1765 H 171.785 -0.674314 -4.106 0
M  V30 1766 H 170.661 -0.448355 -5.47066 0
M  V30 1767 H 170.922 0.866297 -4.33529 0
M  V30 1768 N 169.982 1.44106 -0.638065 0
M  V30 1769 C 170.892 2.34513 0.0637334 0
M  V30 1770 C 171.908 1.53018 0.828346 0
M  V30 1771 O 173.084 1.85723 0.779036 0
M  V30 1772 C 170.149 3.31095 1.02844 0
M  V30 1773 C 169.21 4.28497 0.26244 0
M  V30 1774 C 168.443 5.20465 1.1812 0
M  V30 1775 O 168.666 5.16514 2.42011 0
M  V30 1776 O 167.6 5.98251 0.661774 0
M  V30 1777 H 171.426 2.95989 -0.68003 0
M  V30 1778 H 169.011 1.43994 -0.398252 0
M  V30 1779 H 170.893 3.90526 1.58327 0
M  V30 1780 H 169.568 2.72144 1.7527 0
M  V30 1781 H 168.475 3.72592 -0.335602 0
M  V30 1782 H 169.808 4.90388 -0.421936 0
M  V30 1783 N 171.46 0.379036 1.52974 0
M  V30 1784 C 172.39 -0.452706 2.29069 0
M  V30 1785 C 173.371 -1.07237 1.32039 0
M  V30 1786 O 174.556 -1.08708 1.60923 0
M  V30 1787 C 171.686 -1.5856 3.08992 0
M  V30 1788 C 170.64 -1.0925 4.13822 0
M  V30 1789 C 169.966 -2.31668 4.81907 0
M  V30 1790 C 171.266 -0.167702 5.22031 0
M  V30 1791 H 172.96 0.182181 2.98845 0
M  V30 1792 H 170.506 0.0890592 1.43724 0
M  V30 1793 H 172.459 -2.1742 3.6098 0
M  V30 1794 H 171.183 -2.24792 2.36931 0
M  V30 1795 H 169.842 -0.526494 3.628 0
M  V30 1796 H 169.49 -2.96386 4.06404 0
M  V30 1797 H 169.19 -1.9934 5.52754 0
M  V30 1798 H 170.714 -2.91189 5.36695 0
M  V30 1799 H 172.128 -0.664186 5.6944 0
M  V30 1800 H 170.525 0.0653265 6.00064 0
M  V30 1801 H 171.595 0.786347 4.78482 0
M  V30 1802 N 172.938 -1.57226 0.108567 0
M  V30 1803 C 173.885 -2.14756 -0.845481 0
M  V30 1804 C 174.855 -1.06971 -1.27068 0
M  V30 1805 O 176.04 -1.34827 -1.35005 0
M  V30 1806 C 173.18 -2.74298 -2.09415 0
M  V30 1807 C 172.293 -3.96358 -1.71826 0
M  V30 1808 C 171.428 -4.44021 -2.9158 0
M  V30 1809 C 170.467 -5.58637 -2.50181 0
M  V30 1810 N 169.604 -6.01091 -3.62814 0
M  V30 1811 H 174.444 -2.95961 -0.348035 0
M  V30 1812 H 171.981 -1.46226 -0.160106 0
M  V30 1813 H 173.939 -3.06945 -2.82561 0
M  V30 1814 H 172.569 -1.95801 -2.56636 0
M  V30 1815 H 171.621 -3.69939 -0.885947 0
M  V30 1816 H 172.933 -4.79504 -1.37394 0
M  V30 1817 H 172.087 -4.78522 -3.72963 0
M  V30 1818 H 170.826 -3.59803 -3.29231 0
M  V30 1819 H 169.831 -5.23751 -1.67228 0
M  V30 1820 H 171.056 -6.44613 -2.13659 0
M  V30 1821 H 169.002 -5.19817 -4.00158 0
M  V30 1822 H 168.919 -6.79066 -3.32273 0
M  V30 1823 H 170.187 -6.40227 -4.44668 0
M  V30 1824 N 174.416 0.165178 -1.56732 0
M  V30 1825 C 175.832 0.517174 -1.50988 0
M  V30 1826 C 176.032 1.84331 -0.813894 0
M  V30 1827 O 175.088 2.49672 -0.37682 0
M  V30 1828 C 176.401 0.544261 -2.95733 0
M  V30 1829 C 177.949 0.631039 -3.06573 0
M  V30 1830 C 178.424 0.68896 -4.52788 0
M  V30 1831 N 179.915 0.751683 -4.5706 0
M  V30 1832 C 180.65 0.817177 -5.67547 0
M  V30 1833 N 180.146 0.843129 -6.8765 0
M  V30 1834 N 181.939 0.856668 -5.55534 0
M  V30 1835 H 174.09 -0.704318 -2.00382 0
M  V30 1836 H 176.353 -0.254687 -0.913148 0
M  V30 1837 H 176.059 -0.361607 -3.49836 0
M  V30 1838 H 175.933 1.3886 -3.5071 0
M  V30 1839 H 178.32 1.52733 -2.52501 0
M  V30 1840 H 178.401 -0.240095 -2.54671 0
M  V30 1841 H 178.045 -0.2031 -5.07494 0
M  V30 1842 H 177.975 1.57633 -5.02454 0
M  V30 1843 H 180.466 0.739661 -3.70591 0
M  V30 1844 H 180.779 0.894448 -7.67606 0
M  V30 1845 H 179.124 0.811304 -6.90248 0
M  V30 1846 H 182.315 0.833437 -4.60621 0
M  V30 1847 H 182.488 0.904247 -6.4166 0
M  V30 1848 N 175.894 1.51508 0.433938 0
M  V30 1849 C 176.857 1.72473 1.50949 0
M  V30 1850 C 177.857 0.594725 1.49398 0
M  V30 1851 O 179.047 0.862315 1.5136 0
M  V30 1852 C 176.179 1.78431 2.90474 0
M  V30 1853 H 177.372 2.68467 1.33662 0
M  V30 1854 H 174.925 1.41549 0.662836 0
M  V30 1855 H 175.66 0.842645 3.13161 0
M  V30 1856 H 175.445 2.60558 2.93005 0
M  V30 1857 H 176.935 1.96479 3.68491 0
M  V30 1858 N 177.372 -0.689602 1.41712 0
M  V30 1859 C 178.6 -1.47827 1.44758 0
M  V30 1860 C 179.015 -1.88721 0.0545703 0
M  V30 1861 O 178.372 -1.57176 -0.927463 0
M  V30 1862 C 178.423 -2.73698 2.3616 0
M  V30 1863 O 178.144 -2.34524 3.7004 0
M  V30 1864 C 179.645 -3.67389 2.48072 0
M  V30 1865 H 176.865 -0.455357 0.49284 0
M  V30 1866 H 179.409 -0.848574 1.86063 0
M  V30 1867 H 177.564 -3.32891 1.98148 0
M  V30 1868 H 177.978 -3.15701 4.18847 0
M  V30 1869 H 179.452 -4.52475 3.16181 0
M  V30 1870 H 179.929 -4.12284 1.51388 0
M  V30 1871 H 180.535 -3.14097 2.86746 0
M  V30 1872 N 178.85 -1.27639 -0.924453 0
M  V30 1873 C 180.261 -1.12834 -1.48746 0
M  V30 1874 C 180.612 0.285505 -1.94112 0
M  V30 1875 O 179.737 1.17874 -1.81479 0
M  V30 1876 C 180.332 -2.04217 -2.70334 0
M  V30 1877 C 178.891 -1.93509 -3.22848 0
M  V30 1878 C 178.038 -1.96583 -1.95577 0
M  V30 1879 H 180.989 -1.40484 -0.738233 0
M  V30 1880 H 181.01 -1.59989 -3.4523 0
M  V30 1881 H 180.522 -3.07111 -2.37285 0
M  V30 1882 H 178.623 -0.936131 -3.60649 0
M  V30 1883 H 178.736 -2.79917 -3.88823 0
M  V30 1884 H 177.1 -1.4085 -2.12211 0
M  V30 1885 H 177.883 -3.01137 -1.64837 0
M  V30 1886 N 180.328 1.1314 -1.09713 0
M  V30 1887 C 181.553 1.88862 -0.857081 0
M  V30 1888 C 181.978 1.78729 0.586304 0
M  V30 1889 O 181.336 1.13692 1.41222 0
M  V30 1890 C 181.384 3.36325 -1.30069 0
M  V30 1891 O 180.488 4.09815 -0.461007 0
M  V30 1892 H 179.829 0.587108 -0.310162 0
M  V30 1893 H 182.359 1.43129 -1.46203 0
M  V30 1894 H 182.369 3.87157 -1.28738 0
M  V30 1895 H 181.044 3.43017 -2.35185 0
M  V30 1896 H 179.621 3.68986 -0.538888 0
M  V30 1897 N 181.806 0.884767 1.30421 0
M  V30 1898 C 182.756 0.322846 2.25703 0
M  V30 1899 C 183.74 -0.548582 1.51259 0
M  V30 1900 O 184.932 -0.39304 1.72581 0
M  V30 1901 C 182.061 -0.461787 3.4018 0
M  V30 1902 C 181.147 0.423717 4.21978 0
M  V30 1903 N 181.538 1.52408 4.82292 0
M  V30 1904 C 179.836 0.218795 4.45463 0
M  V30 1905 C 180.537 2.07136 5.43571 0
M  V30 1906 N 179.513 1.36635 5.26148 0
M  V30 1907 H 183.315 1.16363 2.69883 0
M  V30 1908 H 180.829 0.73415 1.44859 0
M  V30 1909 H 182.826 -0.880985 4.07485 0
M  V30 1910 H 181.486 -1.30001 2.9754 0
M  V30 1911 H 182.497 1.90693 4.81515 0
M  V30 1912 H 179.174 -0.582275 4.1342 0
M  V30 1913 H 180.564 2.99538 6.01437 0
M  V30 1914 N 183.284 -1.43765 0.645699 0
M  V30 1915 C 184.232 -2.32516 -0.0624849 0
M  V30 1916 C 185.226 -1.48183 -0.820855 0
M  V30 1917 O 186.432 -1.64439 -0.732106 0
M  V30 1918 H 182.807 -0.750989 -0.0389864 0
M  V30 1919 H 184.778 -2.89979 0.703892 0
M  V30 1920 C 183.527 -3.32389 -1.02044 0
M  V30 1921 H 182.85 -3.97301 -0.446312 0
M  V30 1922 H 184.29 -3.97138 -1.48517 0
M  V30 1923 C 182.749 -2.62416 -2.11281 0
M  V30 1924 O 183.279 -2.434 -3.19561 0
M  V30 1925 N 181.485 -2.21913 -1.87624 0
M  V30 1926 H 181.032 -2.37578 -0.995703 0
M  V30 1927 H 180.99 -1.75424 -2.6091 0
M  V30 1928 N 184.763 -0.387143 -1.52771 0
M  V30 1929 C 185.988 0.198407 -2.06449 0
M  V30 1930 C 186.413 1.39918 -1.25716 0
M  V30 1931 O 185.771 1.79099 -0.281657 0
M  V30 1932 C 185.819 0.548893 -3.56398 0
M  V30 1933 O 184.923 1.64315 -3.78252 0
M  V30 1934 H 184.264 0.0237731 -0.663574 0
M  V30 1935 H 186.794 -0.553989 -1.96957 0
M  V30 1936 H 186.804 0.813812 -3.99801 0
M  V30 1937 H 185.479 -0.329005 -4.14597 0
M  V30 1938 H 184.056 1.37211 -3.46738 0
M  V30 1939 N 186.241 1.57166 -0.116904 0
M  V30 1940 C 187.191 2.11756 0.845178 0
M  V30 1941 C 188.175 1.03783 1.22955 0
M  V30 1942 O 189.367 1.3002 1.20099 0
M  V30 1943 C 186.496 2.71886 2.09602 0
M  V30 1944 C 185.582 3.86937 1.7361 0
M  V30 1945 N 185.973 4.94073 1.08284 0
M  V30 1946 C 184.271 3.97082 2.03082 0
M  V30 1947 C 184.972 5.74477 0.913855 0
M  V30 1948 N 183.948 5.2423 1.43818 0
M  V30 1949 H 187.75 2.91967 0.336523 0
M  V30 1950 H 185.264 1.62174 0.0856332 0
M  V30 1951 H 187.261 3.09338 2.79492 0
M  V30 1952 H 185.921 1.93138 2.61013 0
M  V30 1953 H 186.932 5.12483 0.747067 0
M  V30 1954 H 183.609 3.29372 2.56554 0
M  V30 1955 H 184.999 6.70701 0.40125 0
M  V30 1956 N 187.719 -0.156864 1.56817 0
M  V30 1957 C 188.651 -1.21883 1.94106 0
M  V30 1958 C 189.664 -1.3971 0.835754 0
M  V30 1959 O 190.853 -1.39457 1.11418 0
M  V30 1960 C 187.953 -2.58527 2.19127 0
M  V30 1961 C 187.126 -2.61809 3.50393 0
M  V30 1962 C 186.185 -3.7992 3.64071 0
M  V30 1963 O 185.211 -3.65249 4.36557 0
M  V30 1964 N 186.413 -4.96973 2.99997 0
M  V30 1965 H 189.178 -0.901974 2.85805 0
M  V30 1966 H 186.739 -0.346513 1.58148 0
M  V30 1967 H 188.731 -3.36034 2.25529 0
M  V30 1968 H 187.301 -2.82545 1.33742 0
M  V30 1969 H 186.521 -1.7029 3.5552 0
M  V30 1970 H 187.809 -2.61024 4.36742 0
M  V30 1971 H 187.207 -5.11794 2.41004 0
M  V30 1972 H 185.764 -5.7229 3.11974 0
M  V30 1973 N 189.197 -1.51736 -0.425897 0
M  V30 1974 C 190.443 -1.65214 -1.1761 0
M  V30 1975 C 190.776 -0.372778 -1.90589 0
M  V30 1976 O 190.051 0.628139 -1.84078 0
M  V30 1977 C 190.334 -2.86312 -2.18398 0
M  V30 1978 C 190.187 -4.24254 -1.49426 0
M  V30 1979 C 191.506 -3.02925 -3.19256 0
M  V30 1980 H 188.625 -0.601263 -0.426206 0
M  V30 1981 H 191.267 -1.8425 -0.463882 0
M  V30 1982 H 189.417 -2.70213 -2.79137 0
M  V30 1983 H 191.089 -4.52046 -0.919362 0
M  V30 1984 H 189.332 -4.26426 -0.796432 0
M  V30 1985 H 190.003 -5.05001 -2.22885 0
M  V30 1986 H 192.479 -3.1781 -2.68581 0
M  V30 1987 H 191.355 -3.89199 -3.8706 0
M  V30 1988 H 191.616 -2.15497 -3.86023 0
M  V30 1989 N 190.675 0.682077 -1.42076 0
M  V30 1990 C 192.086 1.26246 -1.37546 0
M  V30 1991 C 192.437 1.96092 -0.0651481 0
M  V30 1992 O 191.562 1.99587 0.836297 0
M  V30 1993 C 192.157 2.29594 -2.49143 0
M  V30 1994 C 190.716 2.83175 -2.47969 0
M  V30 1995 C 189.863 1.57395 -2.28303 0
M  V30 1996 H 192.814 0.475937 -1.51395 0
M  V30 1997 H 192.835 3.11175 -2.18976 0
M  V30 1998 H 192.347 1.78729 -3.44496 0
M  V30 1999 H 190.448 3.3818 -1.56413 0
M  V30 2000 H 190.561 3.32687 -3.44755 0
M  V30 2001 H 188.925 1.83699 -1.76428 0
M  V30 2002 H 189.708 1.08507 -3.25701 0
M  V30 2003 N 192.153 1.28127 0.917671 0
M  V30 2004 C 193.378 1.18007 1.70555 0
M  V30 2005 C 193.803 -0.258257 1.86319 0
M  V30 2006 O 193.161 -1.1869 1.37049 0
M  V30 2007 C 193.209 1.87948 3.07746 0
M  V30 2008 O 192.313 1.18427 3.9503 0
M  V30 2009 H 191.654 0.409867 0.522403 0
M  V30 2010 H 194.184 1.69379 1.1477 0
M  V30 2011 H 194.194 1.95701 3.58001 0
M  V30 2012 H 192.869 2.92573 2.95591 0
M  V30 2013 H 191.446 1.18811 3.53466 0
M  V30 2014 N 193.631 -1.12557 1.10312 0
M  V30 2015 C 194.594 -2.16434 0.75424 0
M  V30 2016 C 195.594 -1.59278 -0.220685 0
M  V30 2017 O 196.784 -1.742 0.00230591 0
M  V30 2018 C 193.916 -3.40699 0.116987 0
M  V30 2019 H 195.109 -2.48811 1.67431 0
M  V30 2020 H 192.662 -1.27542 0.903475 0
M  V30 2021 H 193.397 -3.13921 -0.813877 0
M  V30 2022 H 193.182 -3.83459 0.818613 0
M  V30 2023 H 194.672 -4.17451 -0.111387 0
M  V30 2024 N 195.109 -0.891671 -1.2995 0
M  V30 2025 C 196.357 -0.512486 -1.95494 0
M  V30 2026 C 196.678 0.942776 -1.70695 0
M  V30 2027 O 195.948 1.66374 -1.03424 0
M  V30 2028 H 194.528 -0.186533 -0.723336 0
M  V30 2029 H 197.19 -1.13621 -1.58355 0
M  V30 2030 H 196.286 -0.688342 -3.04415 0
M  V30 2031 N 196.587 1.43421 -0.653314 0
M  V30 2032 C 197.835 2.01414 -0.166415 0
M  V30 2033 C 198.156 1.51803 1.22397 0
M  V30 2034 O 197.426 0.730693 1.81763 0
M  V30 2035 H 196.006 0.744703 -0.0585319 0
M  V30 2036 H 198.668 1.75629 -0.845003 0
M  V30 2037 H 197.764 3.11734 -0.151111 0
M  V30 2038 N 198.065 0.39524 1.52563 0
M  V30 2039 C 199.476 -0.0774719 1.86539 0
M  V30 2040 C 199.827 -1.45641 1.31466 0
M  V30 2041 O 198.952 -2.06459 0.648367 0
M  V30 2042 C 199.547 -0.147356 3.38479 0
M  V30 2043 C 198.106 -0.564373 3.72145 0
M  V30 2044 C 197.253 0.269919 2.75983 0
M  V30 2045 H 200.204 0.612876 1.46388 0
M  V30 2046 H 200.225 -0.965343 3.68051 0
M  V30 2047 H 199.737 0.856387 3.78534 0
M  V30 2048 H 197.838 -1.57527 3.37663 0
M  V30 2049 H 197.951 -0.318402 4.78041 0
M  V30 2050 H 196.315 -0.265696 2.5331 0
M  V30 2051 H 197.098 1.27175 3.18875 0
M  V30 2052 N 199.544 -1.57102 0.125237 0
M  V30 2053 C 200.772 -1.99761 -0.538797 0
M  V30 2054 C 201.187 -1.00503 -1.59827 0
M  V30 2055 O 200.544 0.00119474 -1.825 0
M  V30 2056 C 200.595 -3.42408 -1.15927 0
M  V30 2057 O 200.316 -4.37869 -0.142143 0
M  V30 2058 C 201.817 -4.00232 -1.90602 0
M  V30 2059 H 199.037 -0.655772 -0.14214 0
M  V30 2060 H 201.581 -2.03383 0.213413 0
M  V30 2061 H 199.736 -3.39706 -1.86223 0
M  V30 2062 H 200.15 -5.21128 -0.593775 0
M  V30 2063 H 201.624 -5.02105 -2.29335 0
M  V30 2064 H 202.101 -3.39721 -2.78363 0
M  V30 2065 H 202.707 -4.06499 -1.25055 0
M  V30 2066 N 201.022 0.148545 -1.56898 0
M  V30 2067 C 201.985 1.16736 -1.97244 0
M  V30 2068 C 202.985 1.35947 -0.858777 0
M  V30 2069 O 204.175 1.32966 -1.12542 0
M  V30 2070 C 201.307 2.52798 -2.28705 0
M  V30 2071 H 202.5 0.821279 -2.88435 0
M  V30 2072 H 200.053 0.391831 -1.51309 0
M  V30 2073 H 200.788 2.92381 -1.403 0
M  V30 2074 H 200.573 2.40216 -3.09901 0
M  V30 2075 H 202.063 3.26179 -2.60762 0
M  V30 2076 N 202.5 1.5196 0.417844 0
M  V30 2077 C 203.448 1.75278 1.52907 0
M  V30 2078 C 204.442 0.619611 1.57662 0
M  V30 2079 O 205.648 0.801457 1.61173 0
M  V30 2080 H 202.023 0.554141 0.508362 0
M  V30 2081 H 203.994 2.68389 1.30422 0
M  V30 2082 C 202.743 1.91262 2.90369 0
M  V30 2083 H 202.066 2.77872 2.8745 0
M  V30 2084 H 203.506 2.11581 3.67436 0
M  V30 2085 C 201.965 0.677431 3.30019 0
M  V30 2086 O 202.495 -0.158799 4.01386 0
M  V30 2087 N 200.701 0.515851 2.85985 0
M  V30 2088 H 200.248 1.19744 2.28077 0
M  V30 2089 H 200.206 -0.309315 3.12875 0
M  V30 2090 N 203.978 -0.674533 1.42435 0
M  V30 2091 C 205.203 -1.46784 1.46524 0
M  V30 2092 C 205.628 -1.87938 0.078066 0
M  V30 2093 O 204.986 -1.56014 -0.92354 0
M  V30 2094 C 205.034 -2.69307 2.39805 0
M  V30 2095 O 204.138 -3.67587 1.86959 0
M  V30 2096 H 203.479 -0.440959 0.496439 0
M  V30 2097 H 206.009 -0.827326 1.87127 0
M  V30 2098 H 206.019 -3.17374 2.56393 0
M  V30 2099 H 204.694 -2.38692 3.40586 0
M  V30 2100 H 203.271 -3.2662 1.79927 0
M  V30 2101 N 205.456 -1.28612 -0.910864 0
M  V30 2102 C 206.704 -1.15705 -1.65701 0
M  V30 2103 C 207.025 0.29416 -1.92769 0
M  V30 2104 O 206.295 1.20331 -1.54588 0
M  V30 2105 H 204.875 -0.425216 -0.614167 0
M  V30 2106 H 207.537 -1.61381 -1.0928 0
M  V30 2107 H 206.633 -1.6988 -2.61815 0
M  V30 2108 N 206.934 1.1197 -1.10907 0
M  V30 2109 C 208.162 1.87402 -0.876824 0
M  V30 2110 C 208.577 1.79894 0.573025 0
M  V30 2111 O 207.934 1.17629 1.39534 0
M  V30 2112 C 207.985 3.36428 -1.32282 0
M  V30 2113 O 207.706 3.43765 -2.71582 0
M  V30 2114 C 209.207 4.28783 -1.12518 0
M  V30 2115 H 206.427 0.592793 -0.314384 0
M  V30 2116 H 208.971 1.41649 -1.47499 0
M  V30 2117 H 207.126 3.79706 -0.768229 0
M  V30 2118 H 207.54 4.3652 -2.90776 0
M  V30 2119 H 209.014 5.31613 -1.48633 0
M  V30 2120 H 209.491 4.39153 -0.0642394 0
M  V30 2121 H 210.097 3.91291 -1.66648 0
M  V30 2122 N 208.412 0.89855 1.29475 0
M  V30 2123 C 209.637 0.538561 2.00285 0
M  V30 2124 C 210.062 -0.869135 1.66816 0
M  V30 2125 O 209.42 -1.57831 0.892145 0
M  V30 2126 C 209.468 0.736475 3.52999 0
M  V30 2127 O 208.572 -0.211537 4.11857 0
M  V30 2128 H 207.913 0.210563 0.62973 0
M  V30 2129 H 210.443 1.20982 1.64998 0
M  V30 2130 H 210.453 0.640685 4.02938 0
M  V30 2131 H 209.128 1.76276 3.76696 0
M  V30 2132 H 207.705 -0.0682991 3.72837 0
M  V30 2133 N 209.89 -1.43072 0.660911 0
M  V30 2134 C 211.138 -2.01323 0.177094 0
M  V30 2135 C 211.459 -1.5245 -1.2159 0
M  V30 2136 O 210.729 -0.740322 -1.81373 0
M  V30 2137 H 209.309 -0.744382 0.0624804 0
M  V30 2138 H 211.971 -1.75179 0.854305 0
M  V30 2139 H 211.067 -3.11649 0.167641 0
M  V30 2140 N 211.368 -0.403325 -1.52352 0
M  V30 2141 C 212.593 0.176499 -2.06648 0
M  V30 2142 C 213.018 1.38577 -1.27193 0
M  V30 2143 O 212.376 1.7879 -0.300637 0
M  V30 2144 C 212.424 0.511061 -3.5696 0
M  V30 2145 O 211.528 1.60294 -3.79973 0
M  V30 2146 H 210.869 0.0167337 -0.663789 0
M  V30 2147 H 213.399 -0.574848 -1.96359 0
M  V30 2148 H 213.409 0.771362 -4.00642 0
M  V30 2149 H 212.084 -0.37296 -4.14224 0
M  V30 2150 H 210.661 1.33526 -3.48174 0
M  V30 2151 N 212.846 1.57033 -0.133567 0
M  V30 2152 C 213.756 2.19632 0.824564 0
M  V30 2153 C 214.772 1.17666 1.28182 0
M  V30 2154 O 215.948 1.50193 1.3418 0
M  V30 2155 C 213.013 2.79499 2.05137 0
M  V30 2156 C 212.074 3.96548 1.64464 0
M  V30 2157 C 211.307 4.5355 2.81297 0
M  V30 2158 O 211.53 4.09438 3.97136 0
M  V30 2159 O 210.464 5.44018 2.57542 0
M  V30 2160 H 214.29 3.01991 0.321766 0
M  V30 2161 H 211.875 1.49112 0.0927889 0
M  V30 2162 H 213.757 3.17602 2.7696 0
M  V30 2163 H 212.432 2.00162 2.54395 0
M  V30 2164 H 211.339 3.63186 0.897048 0
M  V30 2165 H 212.672 4.77364 1.19934 0
M  V30 2166 N 214.325 -0.140222 1.56975 0
M  V30 2167 C 215.571 -0.852949 1.83991 0
M  V30 2168 C 215.904 -1.80512 0.716187 0
M  V30 2169 O 215.179 -1.92479 -0.279681 0
M  V30 2170 C 215.462 -1.6215 3.21527 0
M  V30 2171 C 215.315 -0.690363 4.4447 0
M  V30 2172 C 216.634 -2.58247 3.56366 0
M  V30 2173 H 213.753 -0.308634 0.669264 0
M  V30 2174 H 216.395 -0.117898 1.89634 0
M  V30 2175 H 214.545 -2.24812 3.16847 0
M  V30 2176 H 216.217 -0.0742264 4.6124 0
M  V30 2177 H 214.46 -0.000396433 4.338 0
M  V30 2178 H 215.131 -1.2643 5.37326 0
M  V30 2179 H 217.607 -2.05701 3.61699 0
M  V30 2180 H 216.483 -3.09067 4.53617 0
M  V30 2181 H 216.744 -3.39923 2.82674 0
M  V30 2182 N 215.803 -1.52179 -0.40978 0
M  V30 2183 C 216.735 -1.71703 -1.51825 0
M  V30 2184 C 217.748 -0.597445 -1.51441 0
M  V30 2185 O 218.937 -0.872582 -1.55719 0
M  V30 2186 C 216.037 -1.74171 -2.90719 0
M  V30 2187 C 215.21 -3.03156 -3.15302 0
M  V30 2188 C 214.269 -2.97445 -4.34065 0
M  V30 2189 O 213.295 -3.71352 -4.31377 0
M  V30 2190 N 214.497 -2.15191 -5.39141 0
M  V30 2191 H 217.262 -2.67334 -1.35472 0
M  V30 2192 H 214.823 -1.50409 -0.599069 0
M  V30 2193 H 216.815 -1.67884 -3.68235 0
M  V30 2194 H 215.385 -0.860166 -3.00533 0
M  V30 2195 H 214.605 -3.23097 -2.25836 0
M  V30 2196 H 215.893 -3.88484 -3.28569 0
M  V30 2197 H 215.291 -1.54573 -5.44173 0
M  V30 2198 H 213.848 -2.1476 -6.15403 0
M  V30 2199 N 217.281 0.66697 -1.42791 0
M  V30 2200 C 218.211 1.79218 -1.49677 0
M  V30 2201 C 219.192 1.66405 -0.352623 0
M  V30 2202 O 220.377 1.85708 -0.567993 0
M  V30 2203 C 217.507 3.17565 -1.40605 0
M  V30 2204 C 216.461 3.45124 -2.53127 0
M  V30 2205 C 215.787 4.83127 -2.29112 0
M  V30 2206 C 217.087 3.41236 -3.95418 0
M  V30 2207 H 218.781 1.73713 -2.43853 0
M  V30 2208 H 216.327 0.83432 -1.17367 0
M  V30 2209 H 218.28 3.96022 -1.44029 0
M  V30 2210 H 217.004 3.23767 -0.429271 0
M  V30 2211 H 215.663 2.69031 -2.49034 0
M  V30 2212 H 215.311 4.85988 -1.29709 0
M  V30 2213 H 215.011 5.02528 -3.04531 0
M  V30 2214 H 216.535 5.63859 -2.34297 0
M  V30 2215 H 217.949 4.09651 -4.01073 0
M  V30 2216 H 216.346 3.72173 -4.70752 0
M  V30 2217 H 217.416 2.39665 -4.21532 0
M  V30 2218 N 218.759 1.29093 0.90403 0
M  V30 2219 C 220.005 1.16986 1.65656 0
M  V30 2220 C 220.338 -0.278925 1.92186 0
M  V30 2221 O 219.613 -1.2019 1.5292 0
M  V30 2222 C 219.896 1.97908 3.0084 0
M  V30 2223 C 219.749 3.50903 2.81403 0
M  V30 2224 C 221.068 1.80208 4.01513 0
M  V30 2225 H 218.187 0.426346 0.601164 0
M  V30 2226 H 220.829 1.58518 1.04747 0
M  V30 2227 H 218.979 1.62616 3.52829 0
M  V30 2228 H 220.651 3.96153 2.36348 0
M  V30 2229 H 218.894 3.76045 2.1627 0
M  V30 2230 H 219.565 4.02791 3.77443 0
M  V30 2231 H 222.041 2.11025 3.58619 0
M  V30 2232 H 220.917 2.39184 4.94047 0
M  V30 2233 H 221.178 0.756119 4.35586 0
M  V30 2234 N 220.237 -1.11381 1.11499 0
M  V30 2235 C 221.169 -2.17207 0.731704 0
M  V30 2236 C 222.182 -1.61066 -0.236957 0
M  V30 2237 O 223.371 -1.78489 -0.0197591 0
M  V30 2238 C 220.471 -3.38846 0.0607624 0
M  V30 2239 C 219.644 -4.24451 1.0564 0
M  V30 2240 C 218.703 -5.24562 0.4149 0
M  V30 2241 O 217.729 -5.59071 1.069 0
M  V30 2242 N 218.931 -5.74651 -0.821943 0
M  V30 2243 H 221.696 -2.50699 1.64225 0
M  V30 2244 H 219.257 -1.26908 1.00529 0
M  V30 2245 H 221.249 -4.02911 -0.380139 0
M  V30 2246 H 219.819 -3.03411 -0.752376 0
M  V30 2247 H 219.039 -3.56833 1.67524 0
M  V30 2248 H 220.327 -4.78486 1.72998 0
M  V30 2249 H 219.725 -5.48797 -1.37252 0
M  V30 2250 H 218.282 -6.40549 -1.20582 0
M  V30 2251 N 221.715 -0.905404 -1.28997 0
M  V30 2252 C 222.94 -0.549175 -1.99997 0
M  V30 2253 C 223.365 0.860276 -1.67275 0
M  V30 2254 O 222.723 1.57355 -0.900502 0
M  V30 2255 C 222.771 -0.755185 -3.52604 0
M  V30 2256 O 221.875 0.189692 -4.11964 0
M  V30 2257 H 221.216 -0.213899 -0.628604 0
M  V30 2258 H 223.746 -1.21856 -1.64354 0
M  V30 2259 H 223.756 -0.662045 -4.02593 0
M  V30 2260 H 222.431 -1.78271 -3.75755 0
M  V30 2261 H 221.008 0.0485257 -3.72868 0
M  V30 2262 N 223.193 1.4272 -0.668489 0
M  V30 2263 C 224.441 2.01226 -0.187769 0
M  V30 2264 C 224.762 1.53092 1.2078 0
M  V30 2265 O 224.032 0.74993 1.80977 0
M  V30 2266 H 222.612 0.744041 -0.0664272 0
M  V30 2267 H 225.274 1.74723 -0.863583 0
M  V30 2268 H 224.37 3.11556 -0.184166 0
M  V30 2269 N 224.671 0.411399 1.52136 0
M  V30 2270 C 226.082 -0.0576826 1.86611 0
M  V30 2271 C 226.433 -1.44238 1.33003 0
M  V30 2272 O 225.558 -2.05759 0.670228 0
M  V30 2273 C 226.153 -0.111448 3.38617 0
M  V30 2274 C 224.712 -0.52487 3.72723 0
M  V30 2275 C 223.859 0.299176 2.75681 0
M  V30 2276 H 226.81 0.628368 1.4573 0
M  V30 2277 H 226.831 -0.926252 3.69054 0
M  V30 2278 H 226.343 0.896488 3.77604 0
M  V30 2279 H 224.444 -1.53936 3.39315 0
M  V30 2280 H 224.557 -0.267681 4.78352 0
M  V30 2281 H 222.921 -0.238814 2.53578 0
M  V30 2282 H 223.704 1.3055 3.17508 0
M  V30 2283 N 226.149 -1.5696 0.141893 0
M  V30 2284 C 227.397 -1.95573 -0.509484 0
M  V30 2285 C 227.718 -1.02746 -1.65736 0
M  V30 2286 O 226.988 -0.0880311 -1.95702 0
M  V30 2287 H 225.568 -0.722115 -0.191205 0
M  V30 2288 H 228.23 -1.93697 0.216196 0
M  V30 2289 H 227.326 -2.99171 -0.889 0
M  V30 2290 N 227.627 0.131896 -1.57047 0
M  V30 2291 C 228.557 1.16384 -2.02428 0
M  V30 2292 C 229.538 1.43936 -0.90644 0
M  V30 2293 O 230.723 1.54599 -1.17528 0
M  V30 2294 C 227.853 2.49328 -2.4177 0
M  V30 2295 C 226.807 2.36266 -3.56879 0
M  V30 2296 C 226.133 3.74057 -3.8208 0
M  V30 2297 C 227.433 1.834 -4.89042 0
M  V30 2298 H 229.127 0.786433 -2.88887 0
M  V30 2299 H 226.673 0.376855 -1.38981 0
M  V30 2300 H 228.626 3.21759 -2.7212 0
M  V30 2301 H 227.35 2.88934 -1.52266 0
M  V30 2302 H 226.009 1.66286 -3.26718 0
M  V30 2303 H 225.657 4.11125 -2.89803 0
M  V30 2304 H 225.357 3.66174 -4.59554 0
M  V30 2305 H 226.881 4.48012 -4.1487 0
M  V30 2306 H 228.295 2.45636 -5.18011 0
M  V30 2307 H 226.692 1.8637 -5.70426 0
M  V30 2308 H 227.762 0.790662 -4.7841 0
M  V30 2309 N 229.106 1.52395 0.401703 0
M  V30 2310 C 230.352 1.67065 1.14966 0
M  V30 2311 C 230.685 0.403052 1.89971 0
M  V30 2312 O 229.96 -0.598774 1.85054 0
M  V30 2313 C 230.243 2.8975 2.13815 0
M  V30 2314 C 230.096 4.26578 1.42658 0
M  V30 2315 C 231.415 3.07965 3.14397 0
M  V30 2316 H 228.534 0.607968 0.416587 0
M  V30 2317 H 231.176 1.84965 0.434511 0
M  V30 2318 H 229.326 2.74619 2.74803 0
M  V30 2319 H 230.998 4.53451 0.847329 0
M  V30 2320 H 229.241 4.27639 0.72849 0
M  V30 2321 H 229.912 5.08483 2.14823 0
M  V30 2322 H 232.388 3.22043 2.63491 0
M  V30 2323 H 231.264 3.95308 3.80819 0
M  V30 2324 H 231.525 2.21611 3.82545 0
M  V30 2325 N 230.584 -0.659388 1.43143 0
M  V30 2326 C 231.516 -1.7849 1.43784 0
M  V30 2327 C 232.529 -1.5932 0.334787 0
M  V30 2328 O 233.718 -1.68155 0.598842 0
M  V30 2329 C 230.818 -3.15828 1.22906 0
M  V30 2330 C 229.991 -3.61711 2.45934 0
M  V30 2331 C 229.05 -4.77831 2.20371 0
M  V30 2332 O 228.076 -4.87586 2.93681 0
M  V30 2333 N 229.278 -5.67611 1.21647 0
M  V30 2334 H 232.043 -1.7842 2.40803 0
M  V30 2335 H 229.604 -0.84302 1.3822 0
M  V30 2336 H 231.596 -3.91189 1.03697 0
M  V30 2337 H 230.166 -3.10707 0.343542 0
M  V30 2338 H 229.386 -2.76861 2.80609 0
M  V30 2339 H 230.674 -3.89112 3.27825 0
M  V30 2340 H 230.072 -5.62397 0.610449 0
M  V30 2341 H 228.629 -6.42719 1.08423 0
M  V30 2342 N 232.062 -1.29571 -0.897171 0
M  V30 2343 C 233.473 -1.15964 -1.46319 0
M  V30 2344 C 233.824 0.244267 -1.94674 0
M  V30 2345 O 232.949 1.13998 -1.83939 0
M  V30 2346 C 233.544 -2.09906 -2.65942 0
M  V30 2347 C 232.103 -2.00314 -3.18671 0
M  V30 2348 C 231.25 -2.00687 -1.91363 0
M  V30 2349 H 234.201 -1.42019 -0.708268 0
M  V30 2350 H 234.222 -1.67276 -3.41759 0
M  V30 2351 H 233.734 -3.12075 -2.30718 0
M  V30 2352 H 231.835 -1.01242 -3.58582 0
M  V30 2353 H 231.948 -2.88102 -3.82798 0
M  V30 2354 H 230.312 -1.45319 -2.09175 0
M  V30 2355 H 231.095 -3.04566 -1.58413 0
M  V30 2356 N 233.54 1.10788 -1.12088 0
M  V30 2357 C 234.788 1.8231 -0.872205 0
M  V30 2358 C 235.109 1.85419 0.603709 0
M  V30 2359 O 234.379 1.32963 1.43867 0
M  V30 2360 H 232.959 0.675137 -0.319686 0
M  V30 2361 H 235.621 1.34068 -1.41463 0
M  V30 2362 H 234.717 2.85955 -1.25045 0
M  V30 2363 N 235.018 0.912232 1.28515 0
M  V30 2364 C 236.266 0.543523 1.94654 0
M  V30 2365 C 236.587 -0.9155 1.72173 0
M  V30 2366 O 235.857 -1.64708 1.06058 0
M  V30 2367 H 234.437 0.198017 0.720277 0
M  V30 2368 H 237.099 1.16126 1.56527 0
M  V30 2369 H 236.195 0.736684 3.03281 0
M  V30 2370 N 236.496 -1.42363 0.676048 0
M  V30 2371 C 237.721 -2.06377 0.205705 0
M  V30 2372 C 238.146 -1.50463 -1.12883 0
M  V30 2373 O 237.504 -0.623619 -1.70237 0
M  V30 2374 C 237.552 -3.60277 0.152655 0
M  V30 2375 O 236.656 -4.02935 -0.87845 0
M  V30 2376 H 235.997 -0.655588 0.105359 0
M  V30 2377 H 238.527 -1.82475 0.925412 0
M  V30 2378 H 238.537 -4.07993 -0.0230675 0
M  V30 2379 H 237.212 -4.00346 1.12675 0
M  V30 2380 H 235.789 -3.66764 -0.673668 0
M  V30 2381 N 237.974 -0.419461 -1.51915 0
M  V30 2382 C 239.22 0.153166 -2.02221 0
M  V30 2383 C 239.553 1.43907 -1.30401 0
M  V30 2384 O 238.828 1.90055 -0.413438 0
M  V30 2385 C 239.111 0.390291 -3.57979 0
M  V30 2386 C 238.964 -0.913014 -4.40436 0
M  V30 2387 C 240.283 1.16794 -4.2432 0
M  V30 2388 H 237.402 0.0541924 -0.735005 0
M  V30 2389 H 240.044 -0.554955 -1.81715 0
M  V30 2390 H 238.194 0.993491 -3.75582 0
M  V30 2391 H 239.866 -1.54882 -4.34522 0
M  V30 2392 H 238.109 -1.52168 -4.06236 0
M  V30 2393 H 238.78 -0.701361 -5.47526 0
M  V30 2394 H 241.256 0.657161 -4.10878 0
M  V30 2395 H 240.132 1.3026 -5.3322 0
M  V30 2396 H 240.393 2.19132 -3.83971 0
M  V30 2397 N 239.452 1.56882 -0.150215 0
M  V30 2398 C 240.868 1.58263 0.20617 0
M  V30 2399 C 241.068 1.16464 1.64434 0
M  V30 2400 O 240.124 0.866422 2.3717 0
M  V30 2401 C 241.437 3.00649 -0.0555025 0
M  V30 2402 C 242.985 3.12999 0.00795388 0
M  V30 2403 C 243.46 4.5744 -0.226429 0
M  V30 2404 N 244.951 4.62875 -0.173469 0
M  V30 2405 C 245.686 5.72454 -0.329288 0
M  V30 2406 N 245.182 6.90669 -0.543005 0
M  V30 2407 N 246.975 5.61467 -0.266666 0
M  V30 2408 H 239.126 1.82345 -1.08922 0
M  V30 2409 H 241.389 0.844149 -0.431413 0
M  V30 2410 H 241.095 3.3563 -1.05096 0
M  V30 2411 H 240.969 3.71337 0.66246 0
M  V30 2412 H 243.356 2.77857 0.993966 0
M  V30 2413 H 243.437 2.4479 -0.742388 0
M  V30 2414 H 243.081 4.93287 -1.20956 0
M  V30 2415 H 243.011 5.2378 0.544274 0
M  V30 2416 H 245.502 3.77898 -0.0130709 0
M  V30 2417 H 245.815 7.70045 -0.651922 0
M  V30 2418 H 244.16 6.92581 -0.579366 0
M  V30 2419 H 247.351 4.67992 -0.100441 0
M  V30 2420 H 247.524 6.46816 -0.391535 0
M  V30 2421 N 240.93 -0.123565 1.57115 0
M  V30 2422 C 242.179 -0.830704 1.83799 0
M  V30 2423 C 242.492 -1.81259 0.735158 0
M  V30 2424 O 243.698 -2.56558 0.888278 0
M  V30 2425 C 242.154 -1.52802 3.25852 0
M  V30 2426 C 241.762 -0.587356 4.44133 0
M  V30 2427 C 243.506 -2.22056 3.61789 0
M  V30 2428 C 241.413 -1.28764 5.77212 0
M  V30 2429 H 240.343 -0.313967 0.685522 0
M  V30 2430 H 242.994 -0.0834359 1.8331 0
M  V30 2431 H 241.376 -2.32175 3.20797 0
M  V30 2432 H 242.55 0.172829 4.60476 0
M  V30 2433 H 240.865 -0.00201892 4.164 0
M  V30 2434 H 243.462 -2.75131 4.58483 0
M  V30 2435 H 243.805 -2.99644 2.88997 0
M  V30 2436 H 244.338 -1.49576 3.68608 0
M  V30 2437 H 241.077 -0.55314 6.53162 0
M  V30 2438 H 240.597 -2.01995 5.64764 0
M  V30 2439 H 242.276 -1.8221 6.20813 0
M  V30 2440 N 242.408 -1.52605 -0.393616 0
M  V30 2441 C 243.633 -1.71592 -1.16495 0
M  V30 2442 C 244.058 -0.43133 -1.83088 0
M  V30 2443 O 243.416 0.612523 -1.7064 0
M  V30 2444 C 243.464 -2.86318 -2.19213 0
M  V30 2445 O 242.568 -2.52969 -3.257 0
M  V30 2446 H 241.909 -0.570734 -0.33935 0
M  V30 2447 H 244.439 -1.99377 -0.459324 0
M  V30 2448 H 244.449 -3.1168 -2.63286 0
M  V30 2449 H 243.124 -3.79511 -1.7013 0
M  V30 2450 H 241.701 -2.38332 -2.86797 0
M  V30 2451 N 243.887 0.651787 -1.4349 0
M  V30 2452 C 245.127 1.42345 -1.46688 0
M  V30 2453 C 245.491 1.91793 -0.0891023 0
M  V30 2454 O 246.692 2.688 0.00423594 0
M  V30 2455 C 244.963 2.57221 -2.48137 0
M  V30 2456 S 246.522 3.45725 -2.70221 0
M  V30 2457 H 243.34 0.485878 -0.51908 0
M  V30 2458 H 245.942 0.756578 -1.80267 0
M  V30 2459 H 244.646 2.1917 -3.46976 0
M  V30 2460 H 244.177 3.28757 -2.16061 0
M  V30 2461 H 246.192 4.53996 -2.00255 0
M  V30 2462 N 245.365 1.30045 0.890287 0
M  V30 2463 C 246.328 1.15963 1.977 0
M  V30 2464 C 247.328 0.0923777 1.60534 0
M  V30 2465 O 248.518 0.340071 1.70848 0
M  V30 2466 C 245.65 0.775451 3.31963 0
M  V30 2467 H 246.843 2.12502 2.11619 0
M  V30 2468 H 244.396 1.13366 1.07601 0
M  V30 2469 H 245.131 -0.189671 3.23745 0
M  V30 2470 H 244.916 1.54668 3.60306 0
M  V30 2471 H 246.406 0.700251 4.11687 0
M  V30 2472 N 246.843 -1.10192 1.12674 0
M  V30 2473 C 247.806 -2.14786 0.799979 0
M  V30 2474 C 248.806 -1.59711 -0.18685 0
M  V30 2475 O 249.996 -1.74156 0.0392558 0
M  V30 2476 C 247.128 -3.40374 0.189228 0
M  V30 2477 H 248.321 -2.45203 1.72671 0
M  V30 2478 H 245.874 -1.25597 0.930326 0
M  V30 2479 H 246.609 -3.15577 -0.747107 0
M  V30 2480 H 246.394 -3.81637 0.899766 0
M  V30 2481 H 247.884 -4.17594 -0.0228143 0
M  V30 2482 N 248.321 -0.919034 -1.28029 0
M  V30 2483 C 249.546 -0.570357 -1.99403 0
M  V30 2484 C 249.971 0.842486 -1.68178 0
M  V30 2485 O 249.329 1.56391 -0.917141 0
M  V30 2486 C 249.377 -0.792541 -3.51783 0
M  V30 2487 O 248.481 0.145988 -4.12142 0
M  V30 2488 H 247.822 -0.220555 -0.6263 0
M  V30 2489 H 250.352 -1.23592 -1.63053 0
M  V30 2490 H 250.362 -0.704708 -4.01868 0
M  V30 2491 H 249.037 -1.82247 -3.73844 0
M  V30 2492 H 247.614 0.00897528 -3.72899 0
M  V30 2493 N 249.799 1.42003 -0.683588 0
M  V30 2494 C 251.047 2.01015 -0.209101 0
M  V30 2495 C 251.368 1.54365 1.19149 0
M  V30 2496 O 250.638 0.769083 1.80172 0
M  V30 2497 H 249.218 0.743294 -0.074315 0
M  V30 2498 H 251.88 1.73798 -0.882066 0
M  V30 2499 H 250.976 3.11343 -0.2172 0
M  V30 2500 N 251.277 0.427512 1.51691 0
M  V30 2501 C 252.507 -0.140986 2.06118 0
M  V30 2502 C 252.915 -1.37854 1.29588 0
M  V30 2503 O 252.258 -1.80411 0.346036 0
M  V30 2504 C 252.32 -0.538276 3.55447 0
M  V30 2505 C 251.984 0.591095 4.53161 0
M  V30 2506 C 252.981 1.46027 4.98971 0
M  V30 2507 C 250.666 0.769028 4.96378 0
M  V30 2508 C 252.66 2.49216 5.8666 0
M  V30 2509 C 250.347 1.80421 5.83859 0
M  V30 2510 C 251.345 2.66417 6.28897 0
M  V30 2511 O 251.033 3.68159 7.14643 0
M  V30 2512 H 250.765 -0.0157455 0.675817 0
M  V30 2513 H 253.319 0.602495 1.96365 0
M  V30 2514 H 251.549 -1.33432 3.6295 0
M  V30 2515 H 253.238 -1.0368 3.92435 0
M  V30 2516 H 254.004 1.33429 4.66285 0
M  V30 2517 H 249.883 0.109273 4.6087 0
M  V30 2518 H 253.427 3.16372 6.21735 0
M  V30 2519 H 249.324 1.93042 6.15959 0
M  V30 2520 H 250.092 3.64622 7.32798 0
M  V30 2521 N 252.755 -1.56801 0.158532 0
M  V30 2522 C 253.983 -2.00859 -0.496303 0
M  V30 2523 C 254.398 -1.03871 -1.57659 0
M  V30 2524 O 253.755 -0.0375165 -1.82461 0
M  V30 2525 C 253.806 -3.4479 -1.08638 0
M  V30 2526 O 253.527 -4.38072 -0.0492322 0
M  V30 2527 C 255.028 -4.04185 -1.8207 0
M  V30 2528 H 252.248 -0.65864 -0.128199 0
M  V30 2529 H 254.792 -2.02885 0.256506 0
M  V30 2530 H 252.947 -3.43579 -1.78975 0
M  V30 2531 H 253.361 -5.2227 -0.483102 0
M  V30 2532 H 254.835 -5.06857 -2.18633 0
M  V30 2533 H 255.312 -3.45549 -2.71095 0
M  V30 2534 H 255.918 -4.0906 -1.16405 0
M  V30 2535 N 254.233 0.115231 -1.57178 0
M  V30 2536 C 255.48 0.822351 -1.8505 0
M  V30 2537 C 255.808 1.79701 -0.744168 0
M  V30 2538 O 255.063 1.93909 0.26414 0
M  V30 2539 C 255.362 1.60324 -3.19423 0
M  V30 2540 C 255.028 0.772536 -4.44233 0
M  V30 2541 C 253.69 0.543468 -4.78121 0
M  V30 2542 C 256.042 0.193746 -5.2084 0
M  V30 2543 C 253.37 -0.274583 -5.86057 0
M  V30 2544 C 255.722 -0.611517 -6.29637 0
M  V30 2545 C 254.386 -0.850867 -6.62055 0
M  V30 2546 H 253.656 0.30092 -0.677147 0
M  V30 2547 H 256.303 0.0845802 -1.91313 0
M  V30 2548 H 254.608 2.41203 -3.08753 0
M  V30 2549 H 256.305 2.1544 -3.38211 0
M  V30 2550 H 252.895 0.96117 -4.17683 0
M  V30 2551 H 257.079 0.357926 -4.95008 0
M  V30 2552 H 252.335 -0.469206 -6.09597 0
M  V30 2553 H 256.509 -1.06697 -6.88178 0
M  V30 2554 H 254.136 -1.48657 -7.45523 0
M  V30 2555 N 255.711 1.52812 0.385517 0
M  V30 2556 C 256.939 1.71907 1.15133 0
M  V30 2557 C 257.354 0.439004 1.83625 0
M  V30 2558 O 256.711 -0.586765 1.7281 0
M  V30 2559 C 256.762 2.87099 2.19673 0
M  V30 2560 O 256.483 4.10151 1.53973 0
M  V30 2561 C 257.984 3.17902 3.08955 0
M  V30 2562 H 255.204 0.575479 0.345057 0
M  V30 2563 H 257.748 1.99476 0.45052 0
M  V30 2564 H 255.903 2.61982 2.85384 0
M  V30 2565 H 256.317 4.74514 2.23465 0
M  V30 2566 H 257.791 4.01959 3.7833 0
M  V30 2567 H 258.268 2.3243 3.72657 0
M  V30 2568 H 258.874 3.44871 2.48885 0
M  V30 2569 N 257.189 -0.644168 1.43834 0
M  V30 2570 C 258.137 -1.77793 1.49974 0
M  V30 2571 C 259.131 -1.65253 0.372536 0
M  V30 2572 O 260.337 -1.7149 0.546924 0
M  V30 2573 H 256.712 -0.58675 0.47035 0
M  V30 2574 H 258.683 -1.69736 2.45423 0
M  V30 2575 C 257.432 -3.16087 1.4486 0
M  V30 2576 H 256.755 -3.26378 2.30905 0
M  V30 2577 H 258.195 -3.95349 1.53217 0
M  V30 2578 C 256.654 -3.36484 0.167463 0
M  V30 2579 O 257.184 -3.94298 -0.767609 0
M  V30 2580 N 255.39 -2.90504 0.0747556 0
M  V30 2581 H 254.937 -2.4364 0.836507 0
M  V30 2582 H 254.895 -3.04527 -0.781714 0
M  V30 2583 N 258.668 -1.30515 -0.883378 0
M  V30 2584 C 259.898 -1.22182 -1.66599 0
M  V30 2585 C 260.306 0.217507 -1.87946 0
M  V30 2586 O 259.649 1.1554 -1.42815 0
M  V30 2587 C 259.711 -1.88146 -3.06335 0
M  V30 2588 C 259.375 -3.37476 -3.08154 0
M  V30 2589 C 260.372 -4.33443 -2.87094 0
M  V30 2590 C 258.057 -3.7895 -3.29701 0
M  V30 2591 C 260.051 -5.68858 -2.8754 0
M  V30 2592 C 257.738 -5.14482 -3.29776 0
M  V30 2593 C 258.736 -6.09246 -3.0872 0
M  V30 2594 O 258.424 -7.42302 -3.08615 0
M  V30 2595 H 258.156 -0.423898 -0.52658 0
M  V30 2596 H 260.71 -1.72703 -1.11188 0
M  V30 2597 H 258.94 -1.32157 -3.63416 0
M  V30 2598 H 260.629 -1.7391 -3.66756 0
M  V30 2599 H 261.395 -4.02733 -2.70243 0
M  V30 2600 H 257.274 -3.05631 -3.45124 0
M  V30 2601 H 260.818 -6.428 -2.71024 0
M  V30 2602 H 256.715 -5.44832 -3.46163 0
M  V30 2603 H 257.483 -7.5131 -3.24769 0
M  V30 2604 N 260.146 1.09593 -1.13257 0
M  V30 2605 C 261.394 1.81375 -0.891492 0
M  V30 2606 C 261.715 1.86049 0.584009 0
M  V30 2607 O 260.985 1.34481 1.42449 0
M  V30 2608 H 259.565 0.671708 -0.326828 0
M  V30 2609 H 262.227 1.3256 -1.42877 0
M  V30 2610 H 261.323 2.84612 -1.28071 0
M  V30 2611 N 261.624 0.925811 1.2754 0
M  V30 2612 C 262.557 0.367836 2.25216 0
M  V30 2613 C 263.535 -0.534738 1.53556 0
M  V30 2614 O 264.719 -0.475672 1.824 0
M  V30 2615 C 261.846 -0.47298 3.35381 0
M  V30 2616 C 260.892 0.365898 4.24928 0
M  V30 2617 S 261.725 1.78025 5.05042 0
M  V30 2618 C 262.881 0.947068 6.18693 0
M  V30 2619 H 263.114 1.19568 2.72196 0
M  V30 2620 H 260.647 0.727867 1.36167 0
M  V30 2621 H 262.605 -0.952242 3.99303 0
M  V30 2622 H 261.266 -1.27533 2.87044 0
M  V30 2623 H 260.459 -0.277582 5.03235 0
M  V30 2624 H 260.061 0.779261 3.65792 0
M  V30 2625 H 262.353 0.182201 6.77255 0
M  V30 2626 H 263.296 1.70309 6.87314 0
M  V30 2627 H 263.704 0.489913 5.6237 0
M  V30 2628 N 263.102 -1.41638 0.69111 0
M  V30 2629 C 264.05 -2.32597 0.0115199 0
M  V30 2630 C 265.044 -1.5072 -0.773296 0
M  V30 2631 O 266.25 -1.66685 -0.67942 0
M  V30 2632 H 262.625 -0.751849 -0.0150746 0
M  V30 2633 H 264.596 -2.87593 0.795791 0
M  V30 2634 C 263.345 -3.35467 -0.914172 0
M  V30 2635 H 262.668 -3.9852 -0.319687 0
M  V30 2636 H 264.108 -4.01662 -1.35808 0
M  V30 2637 C 262.567 -2.69004 -2.02826 0
M  V30 2638 O 263.097 -2.53444 -3.11655 0
M  V30 2639 N 261.303 -2.2777 -1.80469 0
M  V30 2640 H 260.85 -2.40626 -0.919615 0
M  V30 2641 H 260.808 -1.83635 -2.55197 0
M  V30 2642 N 264.58 -0.43555 -1.51462 0
M  V30 2643 C 265.826 0.123979 -2.03022 0
M  V30 2644 C 266.181 1.4054 -1.31401 0
M  V30 2645 O 265.474 1.86948 -0.419634 0
M  V30 2646 C 265.668 0.39942 -3.55161 0
M  V30 2647 C 265.497 -0.853754 -4.41521 0
M  V30 2648 C 264.267 -1.38675 -4.85898 0
M  V30 2649 C 266.465 -1.73939 -4.83994 0
M  V30 2650 N 264.447 -2.59265 -5.56466 0
M  V30 2651 C 265.818 -2.79135 -5.5361 0
M  V30 2652 C 267.873 -1.75402 -4.65981 0
M  V30 2653 C 266.576 -3.85737 -6.07124 0
M  V30 2654 C 268.602 -2.80938 -5.20411 0
M  V30 2655 C 267.964 -3.84854 -5.89972 0
M  V30 2656 H 264.063 0.00624887 -0.781975 0
M  V30 2657 H 266.647 -0.59582 -1.85359 0
M  V30 2658 H 264.818 1.08825 -3.72843 0
M  V30 2659 H 266.55 0.95015 -3.93388 0
M  V30 2660 H 263.305 -0.94094 -4.64159 0
M  V30 2661 H 263.729 -3.2041 -5.96378 0
M  V30 2662 H 268.371 -0.963926 -4.11665 0
M  V30 2663 H 266.089 -4.65586 -6.60496 0
M  V30 2664 H 269.675 -2.8301 -5.08327 0
M  V30 2665 H 268.555 -4.65176 -6.31333 0
M  V30 2666 N 266.058 1.56714 -0.166846 0
M  V30 2667 C 267.304 1.97039 0.479962 0
M  V30 2668 C 267.637 1.05264 1.63197 0
M  V30 2669 O 266.912 0.0988833 1.94248 0
M  V30 2670 C 267.195 3.46867 0.967212 0
M  V30 2671 C 267.048 4.49421 -0.18466 0
M  V30 2672 C 268.367 3.9968 1.84238 0
M  V30 2673 H 265.486 0.71641 0.172992 0
M  V30 2674 H 268.128 1.8832 -0.252079 0
M  V30 2675 H 266.278 3.54428 1.59101 0
M  V30 2676 H 267.95 4.53924 -0.821621 0
M  V30 2677 H 266.193 4.25573 -0.840837 0
M  V30 2678 H 266.864 5.51644 0.198317 0
M  V30 2679 H 269.34 3.94723 1.31655 0
M  V30 2680 H 268.216 5.04941 2.15234 0
M  V30 2681 H 268.477 3.43226 2.78654 0
M  V30 2682 N 267.536 -0.106894 1.57237 0
M  V30 2683 C 268.483 -1.13049 2.01217 0
M  V30 2684 C 269.453 -1.40471 0.886403 0
M  V30 2685 O 270.638 -1.52133 1.15153 0
M  V30 2686 C 267.778 -2.4487 2.43172 0
M  V30 2687 C 266.891 -2.24281 3.69218 0
M  V30 2688 C 266.026 -3.49417 4.00101 0
M  V30 2689 C 265.065 -3.24038 5.19294 0
M  V30 2690 N 264.202 -4.41409 5.45988 0
M  V30 2691 H 269.042 -0.748456 2.88448 0
M  V30 2692 H 266.579 -0.358054 1.42676 0
M  V30 2693 H 268.537 -3.21786 2.65537 0
M  V30 2694 H 267.167 -2.80944 1.58967 0
M  V30 2695 H 266.219 -1.38224 3.54398 0
M  V30 2696 H 267.531 -2.01512 4.56283 0
M  V30 2697 H 266.685 -4.34746 4.2318 0
M  V30 2698 H 265.424 -3.75229 3.11535 0
M  V30 2699 H 264.429 -2.37102 4.96047 0
M  V30 2700 H 265.654 -2.99584 6.09447 0
M  V30 2701 H 263.6 -4.67319 4.60379 0
M  V30 2702 H 263.517 -4.21788 6.274 0
M  V30 2703 H 264.785 -5.27836 5.73593 0
M  V30 2704 N 269.014 -1.53014 -0.377408 0
M  V30 2705 C 269.946 -1.74884 -1.48149 0
M  V30 2706 C 270.959 -0.629433 -1.5014 0
M  V30 2707 O 272.148 -0.905416 -1.53833 0
M  V30 2708 C 269.248 -1.80299 -2.86959 0
M  V30 2709 C 268.421 -3.09776 -3.08801 0
M  V30 2710 C 267.48 -3.06586 -4.27658 0
M  V30 2711 O 266.506 -3.80419 -4.23403 0
M  V30 2712 N 267.708 -2.26578 -5.34455 0
M  V30 2713 H 270.473 -2.70147 -1.29771 0
M  V30 2714 H 268.034 -1.51646 -0.56703 0
M  V30 2715 H 270.026 -1.75657 -3.64591 0
M  V30 2716 H 268.596 -0.92372 -2.98641 0
M  V30 2717 H 267.816 -3.27815 -2.18931 0
M  V30 2718 H 269.104 -3.95366 -3.20255 0
M  V30 2719 H 268.502 -1.66081 -5.40771 0
M  V30 2720 H 267.059 -2.27766 -6.10709 0
M  V30 2721 N 270.492 0.636531 -1.44174 0
M  V30 2722 C 271.455 1.73063 -1.50273 0
M  V30 2723 C 272.455 1.56113 -0.385397 0
M  V30 2724 O 273.645 1.61707 -0.64781 0
M  V30 2725 C 270.777 3.12096 -1.37145 0
M  V30 2726 H 271.97 1.69031 -2.47727 0
M  V30 2727 H 269.523 0.849706 -1.31186 0
M  V30 2728 H 270.258 3.21728 -0.407636 0
M  V30 2729 H 270.043 3.25805 -2.18159 0
M  V30 2730 H 271.533 3.91846 -1.44382 0
M  V30 2731 N 271.97 1.30982 0.876444 0
M  V30 2732 C 273.381 1.18277 1.44456 0
M  V30 2733 C 273.732 -0.213265 1.95037 0
M  V30 2734 O 272.857 -1.11057 1.85729 0
M  V30 2735 C 273.452 2.1411 2.62569 0
M  V30 2736 C 272.011 2.05358 3.15444 0
M  V30 2737 C 271.158 2.03706 1.88146 0
M  V30 2738 H 274.109 1.43127 0.685584 0
M  V30 2739 H 274.13 1.72692 3.39054 0
M  V30 2740 H 273.642 3.15706 2.25724 0
M  V30 2741 H 271.743 1.06934 3.56926 0
M  V30 2742 H 271.856 2.94156 3.78166 0
M  V30 2743 H 270.22 1.48629 2.06837 0
M  V30 2744 H 271.003 3.07047 1.53547 0
M  V30 2745 N 273.449 -1.08991 1.13837 0
M  V30 2746 C 274.697 -1.80899 0.901098 0
M  V30 2747 C 275.018 -1.86356 -0.574134 0
M  V30 2748 O 274.288 -1.35235 -1.41733 0
M  V30 2749 H 272.868 -0.669966 0.330386 0
M  V30 2750 H 275.53 -1.318 1.43578 0
M  V30 2751 H 274.626 -2.83929 1.29578 0
M  V30 2752 N 274.927 -0.932562 -1.27047 0
M  V30 2753 C 275.874 -0.434072 -2.26681 0
M  V30 2754 C 276.844 0.501639 -1.58344 0
M  V30 2755 O 278.029 0.419734 -1.86126 0
M  V30 2756 C 275.169 0.30261 -3.43771 0
M  V30 2757 C 274.282 -0.667774 -4.26808 0
M  V30 2758 C 273.417 0.0892393 -5.31125 0
M  V30 2759 C 272.456 -0.873532 -6.05835 0
M  V30 2760 N 271.593 -0.148832 -7.01942 0
M  V30 2761 H 276.433 -1.28868 -2.68695 0
M  V30 2762 H 273.97 -0.646713 -1.32121 0
M  V30 2763 H 275.928 0.746092 -4.10474 0
M  V30 2764 H 274.558 1.12142 -3.02695 0
M  V30 2765 H 273.61 -1.22978 -3.59973 0
M  V30 2766 H 274.922 -1.40337 -4.78651 0
M  V30 2767 H 274.076 0.592409 -6.03801 0
M  V30 2768 H 272.815 0.85777 -4.80097 0
M  V30 2769 H 271.82 -1.38791 -5.31994 0
M  V30 2770 H 273.045 -1.64193 -6.58952 0
M  V30 2771 H 270.991 0.601365 -6.53238 0
M  V30 2772 H 270.908 -0.82391 -7.51497 0
M  V30 2773 H 272.176 0.333527 -7.78786 0
M  V30 2774 N 276.405 1.4127 -0.698611 0
M  V30 2775 C 277.653 2.00782 -0.230409 0
M  V30 2776 C 277.974 1.5562 1.17505 0
M  V30 2777 O 277.244 0.78815 1.79346 0
M  V30 2778 H 275.824 0.742464 -0.0821944 0
M  V30 2779 H 278.486 1.72852 -0.90045 0
M  V30 2780 H 277.582 3.11095 -0.25021 0
M  V30 2781 N 277.883 0.443576 1.51229 0
M  V30 2782 C 278.813 -0.355142 2.30783 0
M  V30 2783 C 279.794 -1.0154 1.36468 0
M  V30 2784 O 280.979 -1.01785 1.65389 0
M  V30 2785 C 278.109 -1.45312 3.15439 0
M  V30 2786 C 277.063 -0.916002 4.18083 0
M  V30 2787 C 276.389 -2.1102 4.91299 0
M  V30 2788 C 277.689 0.0538602 5.22272 0
M  V30 2789 H 279.383 0.308767 2.97804 0
M  V30 2790 H 276.929 0.149937 1.43217 0
M  V30 2791 H 278.882 -2.01914 3.69876 0
M  V30 2792 H 277.606 -2.14541 2.46252 0
M  V30 2793 H 276.265 -0.372145 3.64706 0
M  V30 2794 H 275.913 -2.78882 4.18609 0
M  V30 2795 H 275.613 -1.75717 5.60712 0
M  V30 2796 H 277.137 -2.68164 5.48562 0
M  V30 2797 H 278.551 -0.422069 5.71744 0
M  V30 2798 H 276.948 0.319776 5.99247 0
M  V30 2799 H 278.018 0.98858 4.74716 0
M  V30 2800 N 279.361 -1.56624 0.175154 0
M  V30 2801 C 280.271 -2.21741 -0.766042 0
M  V30 2802 C 281.287 -1.21023 -1.25018 0
M  V30 2803 O 282.463 -1.53697 -1.3015 0
M  V30 2804 C 279.528 -2.84839 -1.97655 0
M  V30 2805 C 278.589 -4.00769 -1.53892 0
M  V30 2806 C 277.822 -4.60849 -2.69173 0
M  V30 2807 O 278.045 -4.19823 -3.86141 0
M  V30 2808 O 276.979 -5.50655 -2.43028 0
M  V30 2809 H 280.805 -3.02738 -0.241585 0
M  V30 2810 H 278.39 -1.49305 -0.053222 0
M  V30 2811 H 280.272 -3.24834 -2.68442 0
M  V30 2812 H 278.947 -2.06836 -2.48999 0
M  V30 2813 H 277.854 -3.65436 -0.80044 0
M  V30 2814 H 279.187 -4.80376 -1.07236 0
M  V30 2815 N 280.839 0.0985539 -1.57292 0
M  V30 2816 C 282.085 0.798769 -1.87059 0
M  V30 2817 C 282.44 1.76514 -0.76555 0
M  V30 2818 O 281.733 1.90181 0.232752 0
M  V30 2819 C 281.927 1.56927 -3.21105 0
M  V30 2820 C 281.756 0.679026 -4.44544 0
M  V30 2821 C 280.526 0.326071 -5.04247 0
M  V30 2822 C 282.724 -0.0124715 -5.14298 0
M  V30 2823 N 280.706 -0.572702 -6.11223 0
M  V30 2824 C 282.077 -0.769446 -6.15207 0
M  V30 2825 C 284.132 -0.0867545 -4.97824 0
M  V30 2826 C 282.835 -1.59376 -7.01421 0
M  V30 2827 C 284.861 -0.897955 -5.84543 0
M  V30 2828 C 284.223 -1.64306 -6.84969 0
M  V30 2829 H 280.322 0.268568 -0.734435 0
M  V30 2830 H 282.906 0.0614664 -1.94603 0
M  V30 2831 H 281.077 2.27748 -3.1462 0
M  V30 2832 H 282.809 2.21641 -3.38611 0
M  V30 2833 H 279.564 0.67295 -4.68795 0
M  V30 2834 H 279.988 -1.01454 -6.69355 0
M  V30 2835 H 284.63 0.474963 -4.20124 0
M  V30 2836 H 282.348 -2.16655 -7.78515 0
M  V30 2837 H 285.934 -0.958059 -5.73858 0
M  V30 2838 H 284.814 -2.26065 -7.50909 0
M  V30 2839 N 282.317 1.53212 0.369288 0
M  V30 2840 C 283.25 1.74166 1.4745 0
M  V30 2841 C 284.228 0.589923 1.51521 0
M  V30 2842 O 285.412 0.822078 1.69629 0
M  V30 2843 C 282.539 1.81711 2.8583 0
M  V30 2844 C 281.585 3.03649 2.99499 0
M  V30 2845 S 282.418 4.63242 2.6864 0
M  V30 2846 C 283.574 4.7363 4.09177 0
M  V30 2847 H 283.807 2.67636 1.29454 0
M  V30 2848 H 281.34 1.43754 0.563396 0
M  V30 2849 H 283.298 1.86743 3.65564 0
M  V30 2850 H 281.959 0.89299 3.01139 0
M  V30 2851 H 281.152 3.05526 4.00836 0
M  V30 2852 H 280.754 2.9671 2.27683 0
M  V30 2853 H 283.046 4.53456 5.03372 0
M  V30 2854 H 283.989 5.75682 4.12306 0
M  V30 2855 H 284.397 4.02295 3.96004 0
M  V30 2856 N 283.795 -0.628877 1.44509 0
M  V30 2857 C 285.043 -1.38565 1.4712 0
M  V30 2858 C 285.364 -1.94712 0.105899 0
M  V30 2859 O 284.634 -1.75912 -0.862079 0
M  V30 2860 H 283.214 -0.514333 0.541729 0
M  V30 2861 H 285.876 -0.740018 1.80305 0
M  V30 2862 H 284.972 -2.21583 2.19789 0
M  V30 2863 N 285.273 -1.31445 -0.869486 0
M  V30 2864 C 286.519 -1.22347 -1.62489 0
M  V30 2865 C 286.874 0.216204 -1.91181 0
M  V30 2866 O 286.167 1.14977 -1.53268 0
M  V30 2867 C 286.361 -2.00145 -2.96102 0
M  V30 2868 C 286.19 -3.51531 -2.80456 0
M  V30 2869 C 284.96 -4.20882 -2.79618 0
M  V30 2870 C 287.158 -4.46471 -2.5528 0
M  V30 2871 N 285.14 -5.58421 -2.55027 0
M  V30 2872 C 286.511 -5.71682 -2.39957 0
M  V30 2873 C 288.566 -4.35892 -2.40629 0
M  V30 2874 C 287.269 -6.87511 -2.11472 0
M  V30 2875 C 289.295 -5.51505 -2.13532 0
M  V30 2876 C 288.657 -6.75707 -1.98998 0
M  V30 2877 H 284.756 -0.502815 -0.598917 0
M  V30 2878 H 287.34 -1.65639 -1.02332 0
M  V30 2879 H 285.511 -1.59221 -3.54264 0
M  V30 2880 H 287.243 -1.83063 -3.60929 0
M  V30 2881 H 283.998 -3.72857 -2.92018 0
M  V30 2882 H 284.422 -6.30841 -2.45701 0
M  V30 2883 H 289.064 -3.40533 -2.50593 0
M  V30 2884 H 286.782 -7.82897 -2.00245 0
M  V30 2885 H 290.368 -5.45238 -2.02995 0
M  V30 2886 H 289.248 -7.63655 -1.78326 0
M  V30 2887 N 286.751 1.08385 -1.14413 0
M  V30 2888 C 288 1.80153 -0.907076 0
M  V30 2889 C 288.313 1.87176 0.567851 0
M  V30 2890 O 289.519 2.55359 0.922172 0
M  V30 2891 C 287.975 3.23687 -1.57336 0
M  V30 2892 C 287.583 3.24897 -3.08457 0
M  V30 2893 C 289.327 4.00136 -1.41744 0
M  V30 2894 C 287.234 4.6302 -3.67921 0
M  V30 2895 H 286.164 0.675139 -0.335714 0
M  V30 2896 H 288.815 1.21733 -1.37307 0
M  V30 2897 H 287.197 3.82234 -1.03505 0
M  V30 2898 H 288.371 2.76055 -3.68958 0
M  V30 2899 H 286.686 2.61943 -3.2369 0
M  V30 2900 H 289.283 5.02201 -1.83572 0
M  V30 2901 H 289.626 4.14709 -0.363576 0
M  V30 2902 H 290.159 3.48058 -1.92614 0
M  V30 2903 H 286.898 4.5365 -4.73161 0
M  V30 2904 H 286.418 5.12143 -3.12201 0
M  V30 2905 H 288.097 5.31994 -3.68227 0
M  V30 2906 N 288.23 0.939286 1.26551 0
M  V30 2907 C 289.178 0.43815 2.28436 0
M  V30 2908 C 290.172 -0.483587 1.62351 0
M  V30 2909 O 291.378 -0.362009 1.76322 0
M  V30 2910 H 287.753 0.123149 0.741848 0
M  V30 2911 H 289.724 1.31002 2.68106 0
M  V30 2912 C 288.473 -0.283052 3.46546 0
M  V30 2913 H 287.796 0.417043 3.97619 0
M  V30 2914 H 289.236 -0.597948 4.19763 0
M  V30 2915 C 287.695 -1.50018 3.01656 0
M  V30 2916 O 288.225 -2.59855 3.0633 0
M  V30 2917 N 286.431 -1.35608 2.57019 0
M  V30 2918 H 285.978 -0.46244 2.53415 0
M  V30 2919 H 285.936 -2.17165 2.27347 0
M  V30 2920 N 289.708 -1.40897 0.706093 0
M  V30 2921 C 290.936 -2.05373 0.250887 0
M  V30 2922 C 291.351 -1.53172 -1.10381 0
M  V30 2923 O 290.708 -0.684305 -1.69185 0
M  V30 2924 C 290.759 -3.6088 0.211571 0
M  V30 2925 O 290.48 -4.11153 1.51276 0
M  V30 2926 C 291.981 -4.42517 -0.263346 0
M  V30 2927 H 289.201 -0.66115 0.114552 0
M  V30 2928 H 291.745 -1.80479 0.961635 0
M  V30 2929 H 289.9 -3.84777 -0.450073 0
M  V30 2930 H 290.314 -5.05279 1.40689 0
M  V30 2931 H 291.788 -5.51479 -0.239718 0
M  V30 2932 H 292.265 -4.19396 -1.30397 0
M  V30 2933 H 292.871 -4.23708 0.367677 0
M  V30 2934 N 291.186 -0.45159 -1.50991 0
M  V30 2935 C 292.416 0.108177 -2.06317 0
M  V30 2936 C 292.824 1.35774 -1.31765 0
M  V30 2937 O 292.167 1.79838 -0.374694 0
M  V30 2938 C 292.229 0.481659 -3.56259 0
M  V30 2939 C 291.893 -0.663114 -4.52163 0
M  V30 2940 C 292.89 -1.53947 -4.96585 0
M  V30 2941 C 290.575 -0.8479 -4.95092 0
M  V30 2942 C 292.569 -2.58518 -5.82621 0
M  V30 2943 C 290.256 -1.89686 -5.80915 0
M  V30 2944 C 291.254 -2.76388 -6.24579 0
M  V30 2945 O 290.942 -3.79482 -7.08695 0
M  V30 2946 H 290.674 0.00499183 -0.675982 0
M  V30 2947 H 293.228 -0.633659 -1.95381 0
M  V30 2948 H 291.458 1.27641 -3.65027 0
M  V30 2949 H 293.147 0.974233 -3.94035 0
M  V30 2950 H 293.913 -1.4083 -4.64103 0
M  V30 2951 H 289.792 -0.18258 -4.60638 0
M  V30 2952 H 293.336 -3.26224 -6.16623 0
M  V30 2953 H 289.233 -2.02817 -6.12809 0
M  V30 2954 H 290.001 -3.76234 -7.26905 0
M  V30 2955 N 292.664 1.56529 -0.183458 0
M  V30 2956 C 293.892 2.01623 0.464285 0
M  V30 2957 C 294.307 1.06366 1.55986 0
M  V30 2958 O 293.664 0.0665398 1.82379 0
M  V30 2959 C 293.715 3.46475 1.03139 0
M  V30 2960 O 293.436 4.38095 -0.0204675 0
M  V30 2961 C 294.937 4.0703 1.75617 0
M  V30 2962 H 292.157 0.660596 0.117704 0
M  V30 2963 H 294.701 2.02451 -0.288751 0
M  V30 2964 H 292.856 3.46383 1.73486 0
M  V30 2965 H 293.27 5.22973 0.399952 0
M  V30 2966 H 294.744 5.10271 2.10542 0
M  V30 2967 H 295.221 3.49819 2.65563 0
M  V30 2968 H 295.827 4.1086 1.09882 0
M  V30 2969 N 294.142 -0.090211 1.57342 0
M  V30 2970 C 295.39 -0.791241 1.85967 0
M  V30 2971 C 295.711 -1.7903 0.772859 0
M  V30 2972 O 294.981 -1.94872 -0.200398 0
M  V30 2973 H 293.561 -0.295205 0.686195 0
M  V30 2974 H 296.223 -0.0706782 1.94772 0
M  V30 2975 H 295.319 -1.31882 2.82867 0
M  V30 2976 N 295.62 -1.53406 -0.361157 0
M  V30 2977 C 296.53 -1.83122 -1.4664 0
M  V30 2978 C 297.546 -0.719943 -1.58407 0
M  V30 2979 O 298.722 -1.01046 -1.74218 0
M  V30 2980 C 295.787 -2.01891 -2.81853 0
M  V30 2981 C 294.848 -3.25784 -2.79577 0
M  V30 2982 C 294.081 -3.43648 -4.0834 0
M  V30 2983 O 294.304 -2.65714 -5.0473 0
M  V30 2984 O 293.238 -4.37018 -4.13883 0
M  V30 2985 H 297.064 -2.7703 -1.24451 0
M  V30 2986 H 294.649 -1.38841 -0.551678 0
M  V30 2987 H 296.531 -2.15782 -3.61962 0
M  V30 2988 H 295.206 -1.11173 -3.0401 0
M  V30 2989 H 294.113 -3.17312 -1.98151 0
M  V30 2990 H 295.446 -4.16439 -2.62373 0
M  V30 2991 N 297.098 0.621204 -1.44841 0
M  V30 2992 C 298.323 1.41244 -1.51871 0
M  V30 2993 C 298.748 1.87519 -0.147764 0
M  V30 2994 O 298.106 1.59334 0.865 0
M  V30 2995 C 298.154 2.60221 -2.49634 0
M  V30 2996 O 297.258 3.60395 -2.00473 0
M  V30 2997 H 296.599 0.42223 -0.512463 0
M  V30 2998 H 299.129 0.757305 -1.90069 0
M  V30 2999 H 299.139 3.0764 -2.67996 0
M  V30 3000 H 297.814 2.25887 -3.4921 0
M  V30 3001 H 296.391 3.19717 -1.91925 0
M  V30 3002 N 298.576 1.31904 0.862503 0
M  V30 3003 C 299.804 1.24998 1.64873 0
M  V30 3004 C 300.219 -0.183425 1.87907 0
M  V30 3005 O 299.576 -1.11794 1.44251 0
M  V30 3006 C 299.627 1.99829 3.01248 0
M  V30 3007 O 299.348 3.37575 2.79239 0
M  V30 3008 C 300.849 1.99852 3.95694 0
M  V30 3009 H 298.069 0.431599 0.513773 0
M  V30 3010 H 300.613 1.73901 1.07604 0
M  V30 3011 H 298.768 1.54668 3.55185 0
M  V30 3012 H 299.182 3.75776 3.65914 0
M  V30 3013 H 300.656 2.56709 4.88676 0
M  V30 3014 H 301.133 0.982852 4.28062 0
M  V30 3015 H 301.739 2.44926 3.47694 0
M  V30 3016 N 300.054 -1.07777 1.14986 0
M  V30 3017 C 301.284 -1.83752 0.944402 0
M  V30 3018 C 301.692 -1.8218 -0.51058 0
M  V30 3019 O 301.035 -1.22852 -1.36576 0
M  V30 3020 C 301.097 -3.32128 1.37592 0
M  V30 3021 C 300.761 -3.57425 2.84775 0
M  V30 3022 C 301.758 -3.5173 3.8286 0
M  V30 3023 C 299.443 -3.8523 3.2234 0
M  V30 3024 C 301.437 -3.73482 5.16517 0
M  V30 3025 C 299.124 -4.06634 4.56171 0
M  V30 3026 C 300.122 -4.00754 5.53069 0
M  V30 3027 O 299.81 -4.2159 6.84483 0
M  V30 3028 H 299.542 -0.58673 0.335744 0
M  V30 3029 H 302.096 -1.36982 1.53052 0
M  V30 3030 H 300.326 -3.79686 0.733165 0
M  V30 3031 H 302.015 -3.89555 1.14024 0
M  V30 3032 H 302.781 -3.30256 3.55184 0
M  V30 3033 H 298.66 -3.88923 2.47508 0
M  V30 3034 H 302.204 -3.68808 5.92137 0
M  V30 3035 H 298.101 -4.27593 4.83564 0
M  V30 3036 H 298.869 -4.38961 6.90837 0
M  V30 3037 N 301.532 -0.945985 -1.26051 0
M  V30 3038 C 302.495 -0.463897 -2.24456 0
M  V30 3039 C 303.495 0.427655 -1.55009 0
M  V30 3040 O 304.685 0.226157 -1.72726 0
M  V30 3041 C 301.817 0.330812 -3.39291 0
M  V30 3042 H 303.01 -1.33357 -2.68619 0
M  V30 3043 H 300.563 -0.728416 -1.38289 0
M  V30 3044 H 301.298 1.21852 -3.00537 0
M  V30 3045 H 301.083 -0.308679 -3.90883 0
M  V30 3046 H 302.573 0.657865 -4.12386 0
M  V30 3047 N 303.011 1.40521 -0.713556 0
M  V30 3048 C 304.288 1.94775 -0.17943 0
M  V30 3049 C 304.668 1.65184 1.31444 0
M  V30 3050 O 304.016 0.968429 2.06963 0
M  V30 3051 C 304.226 3.45543 -0.489986 0
M  V30 3052 C 305.574 4.22442 -0.427536 0
M  V30 3053 O 306.598 3.53644 -0.425929 0
M  V30 3054 O 305.457 5.4501 -0.403292 0
M  V30 3055 H 302.551 0.826606 -0.0255192 0
M  V30 3056 H 305.097 1.5014 -0.790949 0
M  V30 3057 H 303.869 3.60432 -1.5233 0
M  V30 3058 H 303.492 3.97311 0.151598 0
M  V30 3059 N 304.489 0.459591 1.5075 0
M  V30 3060 C 305.714 -0.0996819 2.0716 0
M  V30 3061 C 306.139 -1.33761 1.32249 0
M  V30 3062 O 305.497 -1.77551 0.366786 0
M  V30 3063 C 305.545 -0.378226 3.58611 0
M  V30 3064 O 304.649 -1.46081 3.85661 0
M  V30 3065 H 303.99 0.00791392 0.663953 0
M  V30 3066 H 306.52 0.647329 1.9409 0
M  V30 3067 H 306.53 -0.622135 4.03229 0
M  V30 3068 H 305.205 0.526439 4.12555 0
M  V30 3069 H 303.782 -1.20511 3.5289 0
M  V30 3070 N 305.967 -1.56429 0.191757 0
M  V30 3071 C 307.214 -1.97485 -0.447891 0
M  V30 3072 C 307.542 -1.07852 -1.61859 0
M  V30 3073 O 306.797 -0.116903 -1.95351 0
M  V30 3074 C 307.096 -3.44449 -0.953384 0
M  V30 3075 C 306.762 -4.50781 0.103586 0
M  V30 3076 C 305.424 -4.79584 0.394023 0
M  V30 3077 C 307.776 -5.1471 0.819946 0
M  V30 3078 C 305.104 -5.69607 1.40585 0
M  V30 3079 C 307.456 -6.05827 1.8209 0
M  V30 3080 C 306.12 -6.32987 2.11857 0
M  V30 3081 H 305.39 -0.722648 -0.163895 0
M  V30 3082 H 308.037 -1.89322 0.28802 0
M  V30 3083 H 306.342 -3.49666 -1.76751 0
M  V30 3084 H 308.039 -3.73569 -1.45765 0
M  V30 3085 H 304.629 -4.28394 -0.132951 0
M  V30 3086 H 308.813 -4.92552 0.608789 0
M  V30 3087 H 304.069 -5.88926 1.64243 0
M  V30 3088 H 308.243 -6.54424 2.38123 0
M  V30 3089 H 305.87 -7.02544 2.90407 0
M  V30 3090 N 307.445 0.0818655 -1.57387 0
M  V30 3091 C 308.392 1.09834 -2.0299 0
M  V30 3092 C 309.362 1.39043 -0.908639 0
M  V30 3093 O 310.547 1.50282 -1.17559 0
M  V30 3094 C 307.687 2.40971 -2.47037 0
M  V30 3095 C 306.8 2.18379 -3.7274 0
M  V30 3096 C 305.935 3.43008 -4.0561 0
M  V30 3097 C 304.974 3.15736 -5.24383 0
M  V30 3098 N 304.111 4.32667 -5.52941 0
M  V30 3099 H 308.951 0.702472 -2.89602 0
M  V30 3100 H 306.488 0.33531 -1.43227 0
M  V30 3101 H 308.446 3.1752 -2.70623 0
M  V30 3102 H 307.076 2.78379 -1.63417 0
M  V30 3103 H 306.128 1.32569 -3.56552 0
M  V30 3104 H 307.44 1.94227 -4.59431 0
M  V30 3105 H 306.594 4.27958 -4.30043 0
M  V30 3106 H 305.333 3.70225 -3.17466 0
M  V30 3107 H 304.338 2.2918 -4.99757 0
M  V30 3108 H 305.563 2.8985 -6.14136 0
M  V30 3109 H 303.509 4.59935 -4.67756 0
M  V30 3110 H 303.426 4.11753 -6.34031 0
M  V30 3111 H 304.694 5.18644 -5.81918 0
M  V30 3112 N 308.923 1.53595 0.353017 0
M  V30 3113 C 310.171 1.70049 1.09215 0
M  V30 3114 C 310.492 0.461406 1.89463 0
M  V30 3115 O 309.762 -0.524633 1.88744 0
M  V30 3116 H 308.342 0.626912 0.40619 0
M  V30 3117 H 311.004 1.90822 0.396585 0
M  V30 3118 H 310.1 2.56718 1.77488 0
M  V30 3119 N 310.401 -0.613514 1.45168 0
M  V30 3120 C 311.817 -0.933629 1.29443 0
M  V30 3121 C 312.017 -2.00028 0.243101 0
M  V30 3122 O 311.073 -2.49848 -0.364992 0
M  V30 3123 C 312.386 -1.38018 2.67155 0
M  V30 3124 C 313.934 -1.49471 2.75004 0
M  V30 3125 C 314.409 -1.97503 4.13227 0
M  V30 3126 N 315.9 -2.04746 4.15491 0
M  V30 3127 C 316.635 -2.43121 5.19307 0
M  V30 3128 N 316.131 -2.80506 6.33473 0
M  V30 3129 N 317.924 -2.43408 5.06664 0
M  V30 3130 H 310.075 0.0916097 2.12202 0
M  V30 3131 H 312.338 -0.0216655 0.947752 0
M  V30 3132 H 312.044 -0.670625 3.45247 0
M  V30 3133 H 311.918 -2.34784 2.95222 0
M  V30 3134 H 314.305 -2.19519 1.9722 0
M  V30 3135 H 314.386 -0.510342 2.50657 0
M  V30 3136 H 314.03 -1.28045 4.91495 0
M  V30 3137 H 313.96 -2.96843 4.34962 0
M  V30 3138 H 316.451 -1.78468 3.33103 0
M  V30 3139 H 316.764 -3.08652 7.08487 0
M  V30 3140 H 315.109 -2.78216 6.36884 0
M  V30 3141 H 318.3 -2.13604 4.16523 0
M  V30 3142 H 318.473 -2.72989 5.87691 0
M  V30 3143 N 311.879 -1.3236 -0.855495 0
M  V30 3144 C 313.126 -1.22872 -1.60962 0
M  V30 3145 C 313.454 0.209658 -1.93367 0
M  V30 3146 O 312.709 1.16243 -1.57436 0
M  V30 3147 C 313.008 -2.03275 -2.93963 0
M  V30 3148 C 312.674 -3.5264 -2.80991 0
M  V30 3149 C 311.336 -3.93364 -2.7716 0
M  V30 3150 C 313.688 -4.47626 -2.66983 0
M  V30 3151 C 311.016 -5.27319 -2.572 0
M  V30 3152 C 313.368 -5.81723 -2.48558 0
M  V30 3153 C 312.032 -6.2165 -2.4312 0
M  V30 3154 H 311.302 -0.44962 -0.589001 0
M  V30 3155 H 313.949 -1.63777 -0.992442 0
M  V30 3156 H 312.254 -1.55095 -3.59795 0
M  V30 3157 H 313.951 -1.93303 -3.51333 0
M  V30 3158 H 310.541 -3.20295 -2.84797 0
M  V30 3159 H 314.725 -4.17084 -2.68988 0
M  V30 3160 H 309.981 -5.57311 -2.51424 0
M  V30 3161 H 314.155 -6.5494 -2.36699 0
M  V30 3162 H 311.782 -7.25388 -2.27412 0
M  V30 3163 N 313.357 1.07166 -1.15556 0
M  V30 3164 C 314.585 1.83514 -0.955519 0
M  V30 3165 C 315 1.82163 0.49621 0
M  V30 3166 O 314.357 1.23441 1.34419 0
M  V30 3167 C 314.408 3.30515 -1.46432 0
M  V30 3168 O 314.129 3.31937 -2.85918 0
M  V30 3169 C 315.63 4.23625 -1.30603 0
M  V30 3170 H 312.85 0.578926 -0.339244 0
M  V30 3171 H 315.394 1.35265 -1.53374 0
M  V30 3172 H 313.549 3.76106 -0.928584 0
M  V30 3173 H 313.963 4.23794 -3.09029 0
M  V30 3174 H 315.437 5.24831 -1.71047 0
M  V30 3175 H 315.914 4.38485 -0.250441 0
M  V30 3176 H 316.52 3.83871 -1.83094 0
M  V30 3177 N 314.835 0.952656 1.25548 0
M  V30 3178 C 316.082 0.606373 1.93208 0
M  V30 3179 C 316.41 -0.85631 1.74636 0
M  V30 3180 O 315.665 -1.62951 1.08376 0
M  V30 3181 C 315.964 0.908818 3.45652 0
M  V30 3182 C 315.63 2.35722 3.84378 0
M  V30 3183 C 314.292 2.75312 3.9466 0
M  V30 3184 C 316.644 3.29793 4.03591 0
M  V30 3185 C 313.972 4.08047 4.21562 0
M  V30 3186 C 316.324 4.62138 4.31985 0
M  V30 3187 C 314.988 5.01528 4.40484 0
M  V30 3188 H 314.258 0.221888 0.706998 0
M  V30 3189 H 316.905 1.20132 1.49133 0
M  V30 3190 H 315.21 0.231456 3.91116 0
M  V30 3191 H 316.907 0.619498 3.96186 0
M  V30 3192 H 313.497 2.04017 3.76928 0
M  V30 3193 H 317.681 3.00397 3.95064 0
M  V30 3194 H 312.937 4.38212 4.26357 0
M  V30 3195 H 317.111 5.35012 4.45797 0
M  V30 3196 H 314.738 6.04406 4.61083 0
M  V30 3197 N 316.313 -1.40141 0.720998 0
M  V30 3198 C 317.538 -2.05618 0.271258 0
M  V30 3199 C 317.963 -1.53978 -1.08039 0
M  V30 3200 O 317.321 -0.677463 -1.68167 0
M  V30 3201 C 317.369 -3.59609 0.267197 0
M  V30 3202 O 316.473 -4.05526 -0.749814 0
M  V30 3203 H 315.814 -0.651904 0.126162 0
M  V30 3204 H 318.344 -1.79439 0.982997 0
M  V30 3205 H 318.354 -4.0786 0.106744 0
M  V30 3206 H 317.029 -3.96559 1.25354 0
M  V30 3207 H 315.606 -3.68722 -0.556644 0
M  V30 3208 N 317.792 -0.46758 -1.50504 0
M  V30 3209 C 318.722 0.318381 -2.31319 0
M  V30 3210 C 319.703 0.993564 -1.38066 0
M  V30 3211 O 320.888 0.991411 -1.66987 0
M  V30 3212 C 318.018 1.40275 -3.17711 0
M  V30 3213 C 316.972 0.849373 -4.19487 0
M  V30 3214 C 316.298 2.03177 -4.94594 0
M  V30 3215 C 317.598 -0.136942 -5.2212 0
M  V30 3216 H 319.292 -0.356106 -2.97275 0
M  V30 3217 H 316.838 -0.172703 -1.42961 0
M  V30 3218 H 318.791 1.96004 -3.73042 0
M  V30 3219 H 317.515 2.10596 -2.49634 0
M  V30 3220 H 316.174 0.314076 -3.65252 0
M  V30 3221 H 315.822 2.72187 -4.22993 0
M  V30 3222 H 315.522 1.66774 -5.63436 0
M  V30 3223 H 317.046 2.59403 -5.52759 0
M  V30 3224 H 318.46 0.331056 -5.72343 0
M  V30 3225 H 316.857 -0.41507 -5.98663 0
M  V30 3226 H 317.927 -1.06398 -4.73083 0
M  V30 3227 N 319.27 1.56325 -0.20005 0
M  V30 3228 C 320.547 1.89484 0.48529 0
M  V30 3229 C 320.927 1.1143 1.79294 0
M  V30 3230 O 320.275 0.216919 2.27468 0
M  V30 3231 C 320.485 3.41923 0.699243 0
M  V30 3232 C 321.833 4.12256 1.01638 0
M  V30 3233 O 322.857 3.47402 0.786792 0
M  V30 3234 O 321.716 5.26887 1.45095 0
M  V30 3235 H 318.81 0.787144 0.253639 0
M  V30 3236 H 321.356 1.67985 -0.240633 0
M  V30 3237 H 320.128 3.90658 -0.224008 0
M  V30 3238 H 319.751 3.69131 1.47744 0
M  V30 3239 N 320.748 -0.0735177 1.57428 0
M  V30 3240 C 321.976 -0.785969 1.9139 0
M  V30 3241 C 322.391 -1.71207 0.795847 0
M  V30 3242 O 321.748 -1.81033 -0.230915 0
M  V30 3243 C 321.799 -1.58107 3.25091 0
M  V30 3244 O 321.52 -0.6922 4.32597 0
M  V30 3245 C 323.021 -2.39467 3.73055 0
M  V30 3246 H 320.241 -0.223558 0.632663 0
M  V30 3247 H 322.785 -0.044302 2.04452 0
M  V30 3248 H 320.94 -2.27503 3.13562 0
M  V30 3249 H 321.354 -1.24504 5.09508 0
M  V30 3250 H 322.828 -2.90716 4.69242 0
M  V30 3251 H 323.305 -3.18913 3.01979 0
M  V30 3252 H 323.911 -1.7523 3.87523 0
M  V30 3253 N 322.226 -1.5378 -0.344866 0
M  V30 3254 C 323.451 -1.75211 -1.10977 0
M  V30 3255 C 323.876 -0.48936 -1.81623 0
M  V30 3256 O 323.234 0.557925 -1.72502 0
M  V30 3257 C 323.282 -2.93147 -2.09993 0
M  V30 3258 O 322.386 -2.63203 -3.17487 0
M  V30 3259 H 321.727 -0.581241 -0.321021 0
M  V30 3260 H 324.257 -2.00738 -0.395661 0
M  V30 3261 H 324.267 -3.19898 -2.53237 0
M  V30 3262 H 322.942 -3.84731 -1.5797 0
M  V30 3263 H 321.519 -2.47336 -2.79069 0
M  V30 3264 N 323.704 0.605807 -1.45491 0
M  V30 3265 C 324.667 1.69836 -1.5391 0
M  V30 3266 C 325.667 1.55261 -0.418424 0
M  V30 3267 O 326.857 1.60296 -0.681965 0
M  V30 3268 C 323.989 3.09117 -1.43734 0
M  V30 3269 H 325.182 1.63738 -2.51257 0
M  V30 3270 H 322.735 0.821689 -1.32959 0
M  V30 3271 H 323.47 3.20791 -0.475788 0
M  V30 3272 H 323.255 3.21104 -2.25021 0
M  V30 3273 H 324.745 3.88696 -1.52661 0
M  V30 3274 N 325.182 1.32811 0.848464 0
M  V30 3275 C 326.407 1.26882 1.6406 0
M  V30 3276 C 326.832 -0.15913 1.87426 0
M  V30 3277 O 326.19 -1.11258 1.43148 0
M  V30 3278 C 326.238 2.03997 2.97351 0
M  V30 3279 O 325.342 1.39201 3.88197 0
M  V30 3280 H 324.683 0.436982 0.499943 0
M  V30 3281 H 327.213 1.75224 1.0563 0
M  V30 3282 H 327.223 2.14403 3.47124 0
M  V30 3283 H 325.898 3.0783 2.79666 0
M  V30 3284 H 324.475 1.37381 3.46671 0
M  V30 3285 N 326.66 -1.06551 1.16123 0
M  V30 3286 C 327.623 -2.12132 0.867906 0
M  V30 3287 C 328.623 -1.60224 -0.135944 0
M  V30 3288 O 329.813 -1.73943 0.0946422 0
M  V30 3289 C 326.945 -3.396 0.297419 0
M  V30 3290 H 328.138 -2.39586 1.80385 0
M  V30 3291 H 325.691 -1.22574 0.969812 0
M  V30 3292 H 326.426 -3.17794 -0.64633 0
M  V30 3293 H 326.211 -3.78581 1.02073 0
M  V30 3294 H 327.701 -4.17455 0.110052 0
M  V30 3295 N 328.138 -0.959301 -1.25041 0
M  V30 3296 C 329.101 -0.487677 -2.23952 0
M  V30 3297 C 330.101 0.41119 -1.55454 0
M  V30 3298 O 331.291 0.207825 -1.72956 0
M  V30 3299 C 328.423 0.294807 -3.39623 0
M  V30 3300 H 329.616 -1.36198 -2.67189 0
M  V30 3301 H 327.169 -0.743042 -1.37508 0
M  V30 3302 H 327.904 1.18658 -3.01813 0
M  V30 3303 H 327.689 -0.35012 -3.90534 0
M  V30 3304 H 329.179 0.614089 -4.1306 0
M  V30 3305 N 329.616 1.39756 -0.72842 0
M  V30 3306 C 330.846 2.04651 -0.283117 0
M  V30 3307 C 331.254 1.5502 1.08469 0
M  V30 3308 O 330.597 0.707343 1.69536 0
M  V30 3309 C 330.659 3.58947 -0.199309 0
M  V30 3310 C 330.323 4.31525 -1.5045 0
M  V30 3311 C 331.32 4.5861 -2.44894 0
M  V30 3312 C 329.005 4.70195 -1.76698 0
M  V30 3313 C 330.999 5.23366 -3.63822 0
M  V30 3314 C 328.686 5.3468 -2.95906 0
M  V30 3315 C 329.684 5.61198 -3.89289 0
M  V30 3316 O 329.372 6.24347 -5.06404 0
M  V30 3317 H 329.104 0.664777 -0.122666 0
M  V30 3318 H 331.658 1.79913 -0.990987 0
M  V30 3319 H 329.888 3.82556 0.56461 0
M  V30 3320 H 331.577 4.0534 0.213125 0
M  V30 3321 H 332.343 4.29187 -2.25883 0
M  V30 3322 H 328.222 4.48916 -1.04859 0
M  V30 3323 H 331.766 5.4398 -4.36728 0
M  V30 3324 H 327.663 5.63524 -3.14819 0
M  V30 3325 H 328.431 6.42842 -5.06652 0
M  V30 3326 N 331.094 0.475555 1.50254 0
M  V30 3327 C 332.024 -0.30611 2.31485 0
M  V30 3328 C 333.005 -0.986228 1.38591 0
M  V30 3329 O 334.19 -0.982541 1.67511 0
M  V30 3330 C 331.32 -1.38588 3.1845 0
M  V30 3331 C 330.274 -0.827115 4.19932 0
M  V30 3332 C 329.6 -2.00551 4.95665 0
M  V30 3333 C 330.9 0.16463 5.2204 0
M  V30 3334 H 332.594 0.371866 2.97082 0
M  V30 3335 H 330.14 0.180282 1.42867 0
M  V30 3336 H 332.093 -1.94023 3.74076 0
M  V30 3337 H 330.817 -2.09269 2.50747 0
M  V30 3338 H 329.476 -0.294702 3.65414 0
M  V30 3339 H 329.124 -2.6994 4.2443 0
M  V30 3340 H 328.824 -1.63784 5.64313 0
M  V30 3341 H 330.348 -2.56468 5.54127 0
M  V30 3342 H 331.762 -0.300699 5.72511 0
M  V30 3343 H 330.159 0.446813 5.98434 0
M  V30 3344 H 331.229 1.08905 4.72512 0
M  V30 3345 N 332.573 -1.56217 0.208337 0
M  V30 3346 C 333.505 -2.1695 -0.739276 0
M  V30 3347 C 334.518 -1.13492 -1.1672 0
M  V30 3348 O 335.707 -1.40529 -1.10063 0
M  V30 3349 C 332.807 -2.72755 -2.01142 0
M  V30 3350 C 331.98 -4.0125 -1.74118 0
M  V30 3351 C 331.039 -4.41749 -2.85909 0
M  V30 3352 O 330.065 -5.08912 -2.54946 0
M  V30 3353 N 331.267 -4.06342 -4.14568 0
M  V30 3354 H 334.032 -2.98893 -0.219837 0
M  V30 3355 H 331.593 -1.61878 0.0268445 0
M  V30 3356 H 333.585 -2.96826 -2.75094 0
M  V30 3357 H 332.155 -1.95191 -2.4417 0
M  V30 3358 H 331.375 -3.85173 -0.838775 0
M  V30 3359 H 332.663 -4.851 -1.53477 0
M  V30 3360 H 332.061 -3.52345 -4.42571 0
M  V30 3361 H 330.618 -4.35335 -4.85105 0
M  V30 3362 N 334.051 0.0651679 -1.57465 0
M  V30 3363 C 335.3 0.761916 -1.86756 0
M  V30 3364 C 335.613 1.78406 -0.801925 0
M  V30 3365 O 336.819 2.53084 -0.982885 0
M  V30 3366 C 335.275 1.40603 -3.31299 0
M  V30 3367 C 334.883 0.422115 -4.46007 0
M  V30 3368 C 336.627 2.08476 -3.69781 0
M  V30 3369 C 334.534 1.07252 -5.81593 0
M  V30 3370 H 333.464 0.288308 -0.696702 0
M  V30 3371 H 336.115 0.015344 -1.83494 0
M  V30 3372 H 334.497 2.20109 -3.29193 0
M  V30 3373 H 335.671 -0.343613 -4.59517 0
M  V30 3374 H 333.986 -0.152527 -4.16121 0
M  V30 3375 H 336.583 2.57925 -4.68379 0
M  V30 3376 H 336.926 2.88712 -2.99919 0
M  V30 3377 H 337.459 1.35792 -3.73905 0
M  V30 3378 H 334.198 0.310342 -6.54765 0
M  V30 3379 H 333.718 1.80895 -5.71872 0
M  V30 3380 H 335.397 1.59043 -6.27148 0
M  V30 3381 N 335.529 1.53961 0.336706 0
M  V30 3382 C 336.477 1.83136 1.43401 0
M  V30 3383 C 337.471 0.702313 1.54156 0
M  V30 3384 O 338.677 0.885765 1.56698 0
M  V30 3385 H 335.052 0.580309 0.478273 0
M  V30 3386 H 337.023 2.74925 1.16012 0
M  V30 3387 C 335.772 2.06385 2.79822 0
M  V30 3388 H 335.095 2.92718 2.72316 0
M  V30 3389 H 336.535 2.30761 3.55704 0
M  V30 3390 C 334.994 0.851414 3.25964 0
M  V30 3391 O 335.524 0.0541904 4.01663 0
M  V30 3392 N 333.73 0.66672 2.82848 0
M  V30 3393 H 333.277 1.31665 2.21409 0
M  V30 3394 H 333.235 -0.143032 3.14074 0
M  V30 3395 N 337.007 -0.598083 1.45811 0
M  V30 3396 C 338.232 -1.3881 1.54099 0
M  V30 3397 C 338.657 -1.8726 0.177578 0
M  V30 3398 O 338.015 -1.6069 -0.839541 0
M  V30 3399 C 338.063 -2.56217 2.53743 0
M  V30 3400 O 337.167 -3.5716 2.06182 0
M  V30 3401 H 336.508 -0.414024 0.519115 0
M  V30 3402 H 339.038 -0.726971 1.91249 0
M  V30 3403 H 339.048 -3.03337 2.72856 0
M  V30 3404 H 337.723 -2.20303 3.5276 0
M  V30 3405 H 336.3 -3.16624 1.96987 0
M  V30 3406 N 338.485 -1.33259 -0.841409 0
M  V30 3407 C 339.415 -1.25926 -1.96634 0
M  V30 3408 C 340.396 -0.140349 -1.6952 0
M  V30 3409 O 341.581 -0.329707 -1.91381 0
M  V30 3410 C 338.711 -0.99512 -3.32738 0
M  V30 3411 C 337.665 -2.0767 -3.74242 0
M  V30 3412 C 336.991 -1.66474 -5.08125 0
M  V30 3413 C 338.291 -3.49318 -3.88297 0
M  V30 3414 H 339.985 -2.20046 -2.03027 0
M  V30 3415 H 337.531 -1.05931 -0.975425 0
M  V30 3416 H 339.484 -0.930323 -4.11002 0
M  V30 3417 H 338.208 -0.0183004 -3.26595 0
M  V30 3418 H 336.867 -2.13187 -2.98239 0
M  V30 3419 H 336.515 -0.675012 -4.9845 0
M  V30 3420 H 336.215 -2.3885 -5.36865 0
M  V30 3421 H 337.739 -1.61455 -5.88867 0
M  V30 3422 H 339.153 -3.46316 -4.56879 0
M  V30 3423 H 337.55 -4.20158 -4.28471 0
M  V30 3424 H 338.62 -3.8801 -2.9082 0
M  V30 3425 N 339.963 1.05934 -1.16686 0
M  V30 3426 C 341.379 1.30938 -0.912542 0
M  V30 3427 C 341.579 1.96803 0.432533 0
M  V30 3428 O 340.635 2.23693 1.17123 0
M  V30 3429 C 341.948 2.18649 -2.06429 0
M  V30 3430 C 343.496 2.32055 -2.10047 0
M  V30 3431 C 343.971 3.23122 -3.24586 0
M  V30 3432 N 345.462 3.30706 -3.24327 0
M  V30 3433 C 346.197 4.01273 -4.09594 0
M  V30 3434 N 345.693 4.74332 -5.04956 0
M  V30 3435 N 347.486 3.97361 -3.97569 0
M  V30 3436 H 339.637 0.615777 -2.03278 0
M  V30 3437 H 341.9 0.334077 -0.887185 0
M  V30 3438 H 341.606 1.77534 -3.03603 0
M  V30 3439 H 341.48 3.19252 -2.00894 0
M  V30 3440 H 343.867 2.72415 -1.13464 0
M  V30 3441 H 343.948 1.31107 -2.19647 0
M  V30 3442 H 343.592 2.83477 -4.2143 0
M  V30 3443 H 343.522 4.24057 -3.12223 0
M  V30 3444 H 346.013 2.78644 -2.55276 0
M  V30 3445 H 346.326 5.25716 -5.6643 0
M  V30 3446 H 344.671 4.733 -5.08933 0
M  V30 3447 H 347.862 3.39405 -3.22369 0
M  V30 3448 H 348.035 4.52089 -4.64241 0
M  V30 3449 N 341.441 0.965919 1.2453 0
M  V30 3450 C 342.404 0.499547 2.2369 0
M  V30 3451 C 343.404 -0.40294 1.5567 0
M  V30 3452 O 344.594 -0.19865 1.73064 0
M  V30 3453 C 341.726 -0.276792 3.39774 0
M  V30 3454 H 342.919 1.37613 2.66463 0
M  V30 3455 H 340.472 0.750324 1.37112 0
M  V30 3456 H 341.207 -1.17055 3.02438 0
M  V30 3457 H 340.992 0.370826 3.90343 0
M  V30 3458 H 342.482 -0.592175 4.1338 0
M  V30 3459 N 342.919 -1.39368 0.735821 0
M  V30 3460 C 343.829 -2.34395 0.0979693 0
M  V30 3461 C 344.845 -1.58361 -0.720968 0
M  V30 3462 O 346.021 -1.90648 -0.649245 0
M  V30 3463 C 343.086 -3.37393 -0.797916 0
M  V30 3464 C 342.147 -4.29287 0.0333662 0
M  V30 3465 C 341.38 -5.27365 -0.819854 0
M  V30 3466 O 341.603 -5.31959 -2.05855 0
M  V30 3467 O 340.537 -6.01389 -0.248079 0
M  V30 3468 H 344.363 -2.90601 0.882315 0
M  V30 3469 H 341.948 -1.40909 0.4965 0
M  V30 3470 H 343.83 -4.00505 -1.31048 0
M  V30 3471 H 342.505 -2.83571 -1.56106 0
M  V30 3472 H 341.412 -3.69395 0.591475 0
M  V30 3473 H 342.745 -4.86317 0.758752 0
M  V30 3474 N 344.397 -0.483516 -1.5 0
M  V30 3475 C 345.674 0.129337 -1.95172 0
M  V30 3476 C 346.054 1.55802 -1.4244 0
M  V30 3477 O 345.402 2.19625 -0.630649 0
M  V30 3478 C 345.612 0.0599251 -3.48949 0
M  V30 3479 C 346.96 0.242617 -4.23906 0
M  V30 3480 O 347.984 0.135933 -3.55941 0
M  V30 3481 O 346.843 0.459454 -5.44565 0
M  V30 3482 H 343.937 0.104887 -0.820322 0
M  V30 3483 H 346.483 -0.544807 -1.60717 0
M  V30 3484 H 345.255 -0.937079 -3.79914 0
M  V30 3485 H 344.878 0.774984 -3.89974 0
M  V30 3486 N 345.875 1.56104 -0.216619 0
M  V30 3487 C 347.103 2.02563 0.421413 0
M  V30 3488 C 347.518 1.0965 1.53695 0
M  V30 3489 O 346.875 0.10521 1.82196 0
M  V30 3490 C 346.926 3.48584 0.957665 0
M  V30 3491 O 346.647 4.37953 -0.113389 0
M  V30 3492 C 348.148 4.10664 1.66943 0
M  V30 3493 H 345.368 0.662944 0.103665 0
M  V30 3494 H 347.912 2.01793 -0.331629 0
M  V30 3495 H 346.067 3.49985 1.661 0
M  V30 3496 H 346.481 5.23704 0.288932 0
M  V30 3497 H 347.955 5.14622 1.99671 0
M  V30 3498 H 348.432 3.55373 2.58083 0
M  V30 3499 H 349.038 4.13098 1.01142 0
M  V30 3500 N 347.353 -0.0568162 1.57498 0
M  V30 3501 C 348.316 -1.05038 2.03715 0
M  V30 3502 C 349.316 -1.30709 0.936577 0
M  V30 3503 O 350.506 -1.26178 1.20103 0
M  V30 3504 C 347.638 -2.39034 2.43055 0
M  V30 3505 H 348.831 -0.651715 2.92733 0
M  V30 3506 H 346.384 -0.302947 1.53336 0
M  V30 3507 H 347.119 -2.83703 1.57108 0
M  V30 3508 H 346.904 -2.21739 3.2338 0
M  V30 3509 H 348.394 -3.10421 2.79336 0
M  V30 3510 N 348.832 -1.54138 -0.328536 0
M  V30 3511 C 350.078 -1.7236 -1.06865 0
M  V30 3512 C 350.411 -0.493231 -1.87832 0
M  V30 3513 O 349.686 0.5098 -1.877 0
M  V30 3514 C 349.969 -2.99621 -1.99747 0
M  V30 3515 C 349.822 -4.32899 -1.22143 0
M  V30 3516 C 351.141 -3.22615 -2.99345 0
M  V30 3517 H 348.26 -0.627151 -0.387105 0
M  V30 3518 H 350.902 -1.86827 -0.345767 0
M  V30 3519 H 349.052 -2.87418 -2.61387 0
M  V30 3520 H 350.724 -4.56978 -0.630017 0
M  V30 3521 H 348.967 -4.30628 -0.523628 0
M  V30 3522 H 349.638 -5.18154 -1.90318 0
M  V30 3523 H 352.114 -3.34248 -2.47826 0
M  V30 3524 H 350.99 -4.13027 -3.61524 0
M  V30 3525 H 351.251 -2.3961 -3.71536 0
M  V30 3526 N 350.31 0.590341 -1.46126 0
M  V30 3527 C 351.54 1.37304 -1.54373 0
M  V30 3528 C 351.948 1.88332 -0.181071 0
M  V30 3529 O 351.291 1.63852 0.830559 0
M  V30 3530 C 351.353 2.6012 -2.48149 0
M  V30 3531 C 351.017 2.30613 -3.94546 0
M  V30 3532 C 352.014 1.89915 -4.83971 0
M  V30 3533 C 349.699 2.42993 -4.39613 0
M  V30 3534 C 351.693 1.61981 -6.16475 0
M  V30 3535 C 349.38 2.14672 -5.72153 0
M  V30 3536 C 350.378 1.7423 -6.60404 0
M  V30 3537 O 350.066 1.46251 -7.90485 0
M  V30 3538 H 349.798 0.426086 -0.524811 0
M  V30 3539 H 352.352 0.72539 -1.92165 0
M  V30 3540 H 350.582 3.27664 -2.05361 0
M  V30 3541 H 352.271 3.22182 -2.46887 0
M  V30 3542 H 353.037 1.79872 -4.50412 0
M  V30 3543 H 348.916 2.73435 -3.71153 0
M  V30 3544 H 352.46 1.30341 -6.85315 0
M  V30 3545 H 348.357 2.24337 -6.05263 0
M  V30 3546 H 349.125 1.6016 -8.02677 0
M  V30 3547 N 351.788 1.33704 0.83433 0
M  V30 3548 C 353.018 1.28281 1.6195 0
M  V30 3549 C 353.426 -0.147603 1.88623 0
M  V30 3550 O 352.769 -1.1016 1.47005 0
M  V30 3551 C 352.831 1.99386 2.99141 0
M  V30 3552 C 352.495 3.48681 2.95416 0
M  V30 3553 C 353.492 4.438 2.70809 0
M  V30 3554 C 351.177 3.90925 3.15409 0
M  V30 3555 C 353.171 5.79138 2.66229 0
M  V30 3556 C 350.858 5.26366 3.10454 0
M  V30 3557 C 351.856 6.20284 2.85895 0
M  V30 3558 O 351.544 7.53245 2.80852 0
M  V30 3559 H 351.276 0.44315 0.510484 0
M  V30 3560 H 353.83 1.76711 1.04702 0
M  V30 3561 H 352.06 1.45554 3.58261 0
M  V30 3562 H 353.749 1.87403 3.60049 0
M  V30 3563 H 354.515 4.12485 2.5511 0
M  V30 3564 H 350.394 3.18229 3.33543 0
M  V30 3565 H 353.938 6.52416 2.4698 0
M  V30 3566 H 349.835 5.57304 3.25703 0
M  V30 3567 H 350.603 7.62846 2.96661 0
M  V30 3568 N 353.266 -1.05314 1.17247 0
M  V30 3569 C 354.506 -1.79869 0.970898 0
M  V30 3570 C 354.87 -1.85594 -0.491808 0
M  V30 3571 O 356.071 -2.56229 -0.812409 0
M  V30 3572 C 354.342 -3.19937 1.59295 0
M  V30 3573 S 355.901 -4.10986 1.53741 0
M  V30 3574 H 352.719 -0.61949 0.348931 0
M  V30 3575 H 355.321 -1.26368 1.49169 0
M  V30 3576 H 354.025 -3.13372 2.65003 0
M  V30 3577 H 353.556 -3.78515 1.07191 0
M  V30 3578 H 355.571 -4.93203 0.544537 0
M  V30 3579 N 354.744 -0.972509 -1.24016 0
M  V30 3580 C 355.707 -0.511403 -2.23422 0
M  V30 3581 C 356.707 0.394679 -1.55881 0
M  V30 3582 O 357.897 0.189469 -1.73167 0
M  V30 3583 C 355.029 0.258769 -3.39916 0
M  V30 3584 H 356.222 -1.39024 -2.6573 0
M  V30 3585 H 353.775 -0.757585 -1.36713 0
M  V30 3586 H 354.51 1.1545 -3.03054 0
M  V30 3587 H 354.295 -0.391522 -3.9014 0
M  V30 3588 H 355.785 0.570244 -4.13688 0
M  V30 3589 N 356.222 1.38976 -0.743202 0
M  V30 3590 C 357.638 1.53984 -0.419664 0
M  V30 3591 C 357.838 1.70837 1.0685 0
M  V30 3592 O 356.894 1.7135 1.8546 0
M  V30 3593 C 358.207 2.75287 -1.20985 0
M  V30 3594 C 359.755 2.89129 -1.19889 0
M  V30 3595 C 360.23 4.13381 -1.97181 0
M  V30 3596 N 361.721 4.20437 -1.94389 0
M  V30 3597 C 362.456 5.15547 -2.50996 0
M  V30 3598 N 361.952 6.16395 -3.16274 0
M  V30 3599 N 363.745 5.07822 -2.40984 0
M  V30 3600 H 355.896 1.26285 -1.7078 0
M  V30 3601 H 358.159 0.612689 -0.723406 0
M  V30 3602 H 357.865 2.69204 -2.26323 0
M  V30 3603 H 357.739 3.68184 -0.819759 0
M  V30 3604 H 360.126 2.947 -0.153606 0
M  V30 3605 H 360.207 1.97272 -1.62841 0
M  V30 3606 H 359.851 4.08572 -3.01714 0
M  V30 3607 H 359.781 5.04298 -1.51629 0
M  V30 3608 H 362.272 3.48205 -1.46839 0
M  V30 3609 H 362.585 6.85443 -3.56915 0
M  V30 3610 H 360.93 6.16758 -3.20367 0
M  V30 3611 H 364.121 4.27973 -1.89622 0
M  V30 3612 H 364.294 5.81767 -2.85397 0
M  V30 3613 N 357.7 0.491464 1.49741 0
M  V30 3614 C 358.947 -0.0564256 2.02421 0
M  V30 3615 C 359.275 -1.37872 1.37192 0
M  V30 3616 O 358.53 -1.89375 0.493508 0
M  V30 3617 C 358.829 -0.267329 3.56399 0
M  V30 3618 C 358.495 0.975775 4.40215 0
M  V30 3619 C 357.157 1.31655 4.62839 0
M  V30 3620 C 359.509 1.80251 4.89039 0
M  V30 3621 C 356.837 2.48375 5.31532 0
M  V30 3622 C 359.189 2.96116 5.59015 0
M  V30 3623 C 357.853 3.30585 5.79888 0
M  V30 3624 H 357.123 -0.0206476 0.740712 0
M  V30 3625 H 359.77 0.649686 1.80143 0
M  V30 3626 H 358.075 -1.05588 3.77304 0
M  V30 3627 H 359.772 -0.705549 3.94744 0
M  V30 3628 H 356.362 0.700315 4.2284 0
M  V30 3629 H 360.546 1.55239 4.71396 0
M  V30 3630 H 355.802 2.7533 5.45897 0
M  V30 3631 H 359.976 3.60509 5.95824 0
M  V30 3632 H 357.603 4.21132 6.32892 0
M  V30 3633 N 359.178 -1.55987 0.224894 0
M  V30 3634 C 360.141 -2.19178 -0.670348 0
M  V30 3635 C 361.141 -1.15461 -1.11917 0
M  V30 3636 O 362.331 -1.40675 -1.02743 0
M  V30 3637 C 359.463 -2.81777 -1.9187 0
M  V30 3638 H 360.656 -2.99662 -0.119364 0
M  V30 3639 H 358.209 -1.5628 -0.0247128 0
M  V30 3640 H 358.944 -2.05172 -2.51147 0
M  V30 3641 H 358.729 -3.57732 -1.60531 0
M  V30 3642 H 360.219 -3.30205 -2.55645 0
M  V30 3643 N 360.656 0.0484629 -1.57525 0
M  V30 3644 C 361.905 0.742065 -1.87553 0
M  V30 3645 C 362.218 1.77545 -0.820802 0
M  V30 3646 O 363.424 2.52027 -1.00967 0
M  V30 3647 C 361.88 1.37081 -3.32771 0
M  V30 3648 C 361.488 0.374786 -4.4643 0
M  V30 3649 C 363.232 2.04542 -3.71972 0
M  V30 3650 C 361.139 1.01077 -5.82698 0
M  V30 3651 H 360.069 0.280903 -0.699721 0
M  V30 3652 H 362.72 -0.00411877 -1.835 0
M  V30 3653 H 361.102 2.16605 -3.31509 0
M  V30 3654 H 362.276 -0.392331 -4.59127 0
M  V30 3655 H 360.591 -0.196653 -4.15935 0
M  V30 3656 H 363.188 2.52943 -4.71088 0
M  V30 3657 H 363.531 2.85515 -3.02964 0
M  V30 3658 H 364.064 1.31819 -3.75325 0
M  V30 3659 H 360.803 0.240878 -6.55057 0
M  V30 3660 H 360.323 1.74819 -5.73758 0
M  V30 3661 H 362.002 1.52383 -6.28799 0
M  V30 3662 N 362.134 1.5431 0.320358 0
M  V30 3663 C 363.081 1.83918 1.39438 0
M  V30 3664 C 364.051 0.686525 1.51248 0
M  V30 3665 O 365.236 0.933269 1.66417 0
M  V30 3666 C 362.376 2.075 2.75749 0
M  V30 3667 C 361.489 3.35177 2.72544 0
M  V30 3668 C 360.624 3.48704 4.00723 0
M  V30 3669 C 359.663 4.70244 3.91838 0
M  V30 3670 N 358.8 4.80679 5.11754 0
M  V30 3671 H 363.64 2.75544 1.13489 0
M  V30 3672 H 361.177 1.36459 0.549309 0
M  V30 3673 H 363.135 2.19166 3.54996 0
M  V30 3674 H 361.765 1.19163 3 0
M  V30 3675 H 360.817 3.32233 1.85271 0
M  V30 3676 H 362.129 4.24534 2.61863 0
M  V30 3677 H 361.283 3.59928 4.88402 0
M  V30 3678 H 360.022 2.57445 4.14214 0
M  V30 3679 H 359.027 4.59072 3.02544 0
M  V30 3680 H 360.252 5.6289 3.7991 0
M  V30 3681 H 358.198 3.92337 5.25745 0
M  V30 3682 H 358.115 5.64007 5.0342 0
M  V30 3683 H 359.383 4.96239 6.01138 0
M  V30 3684 N 363.613 -0.582584 1.46437 0
M  V30 3685 C 364.861 -1.33814 1.51453 0
M  V30 3686 C 365.182 -1.94277 0.167792 0
M  V30 3687 O 364.452 -1.78566 -0.805677 0
M  V30 3688 H 363.032 -0.496838 0.557818 0
M  V30 3689 H 365.694 -0.682281 1.82568 0
M  V30 3690 H 364.79 -2.14479 2.26728 0
M  V30 3691 N 365.091 -1.34144 -0.827227 0
M  V30 3692 C 366.368 -1.16844 -1.56865 0
M  V30 3693 C 366.748 0.260654 -2.09485 0
M  V30 3694 O 366.096 1.26138 -1.9053 0
M  V30 3695 C 366.306 -2.21939 -2.6934 0
M  V30 3696 C 367.654 -2.56695 -3.3822 0
M  V30 3697 O 368.678 -2.20695 -2.79593 0
M  V30 3698 O 367.537 -3.18518 -4.44082 0
M  V30 3699 H 364.631 -0.452669 -0.692112 0
M  V30 3700 H 367.177 -1.45763 -0.868973 0
M  V30 3701 H 365.949 -3.17882 -2.28182 0
M  V30 3702 H 365.572 -1.94172 -3.46962 0
M  V30 3703 N 366.569 1.04691 -1.17803 0
M  V30 3704 C 367.799 1.81183 -0.992788 0
M  V30 3705 C 368.207 1.8347 0.462098 0
M  V30 3706 O 367.55 1.2643 1.33271 0
M  V30 3707 C 367.612 3.28363 -1.46349 0
M  V30 3708 C 367.276 3.49749 -2.94151 0
M  V30 3709 C 368.273 3.41456 -3.92051 0
M  V30 3710 C 365.958 3.76548 -3.32441 0
M  V30 3711 C 367.952 3.59656 -5.26238 0
M  V30 3712 C 365.639 3.94396 -4.66792 0
M  V30 3713 C 366.637 3.8595 -5.635 0
M  V30 3714 O 366.325 4.03294 -6.9542 0
M  V30 3715 H 366.057 0.577622 -0.351182 0
M  V30 3716 H 368.611 1.32876 -1.5663 0
M  V30 3717 H 366.841 3.77609 -0.833574 0
M  V30 3718 H 368.53 3.86395 -1.24313 0
M  V30 3719 H 369.296 3.20723 -3.63815 0
M  V30 3720 H 365.175 3.82224 -2.57732 0
M  V30 3721 H 368.719 3.52979 -6.01707 0
M  V30 3722 H 364.616 4.14622 -4.94731 0
M  V30 3723 H 365.384 4.2049 -7.02232 0
M  V30 3724 N 368.047 0.979072 1.23499 0
M  V30 3725 C 369.293 0.6578 1.9247 0
M  V30 3726 C 369.648 -0.799746 1.74991 0
M  V30 3727 O 368.941 -1.56922 1.09937 0
M  V30 3728 C 369.135 0.981932 3.43646 0
M  V30 3729 C 368.964 2.46944 3.75831 0
M  V30 3730 C 367.734 3.13119 3.96591 0
M  V30 3731 C 369.932 3.45006 3.81412 0
M  V30 3732 N 367.914 4.51489 4.15969 0
M  V30 3733 C 369.285 4.68778 4.05768 0
M  V30 3734 C 371.34 3.39505 3.64198 0
M  V30 3735 C 370.043 5.87723 4.14697 0
M  V30 3736 C 372.069 4.57814 3.7438 0
M  V30 3737 C 371.431 5.80381 3.99171 0
M  V30 3738 H 367.53 0.291746 0.72554 0
M  V30 3739 H 370.114 1.25626 1.48749 0
M  V30 3740 H 368.285 0.412179 3.86207 0
M  V30 3741 H 370.017 0.618068 3.99953 0
M  V30 3742 H 366.772 2.63619 3.93449 0
M  V30 3743 H 367.196 5.23221 4.29615 0
M  V30 3744 H 371.838 2.45773 3.44029 0
M  V30 3745 H 369.556 6.81874 4.33675 0
M  V30 3746 H 373.142 4.55132 3.62417 0
M  V30 3747 H 372.022 6.70398 4.06861 0
M  V30 3748 N 369.525 -1.3858 0.750561 0
M  V30 3749 C 370.773 -1.99789 0.30477 0
M  V30 3750 C 371.094 -1.59874 -1.11649 0
M  V30 3751 O 370.364 -0.85417 -1.76297 0
M  V30 3752 H 368.944 -0.738902 0.109694 0
M  V30 3753 H 371.606 -1.69391 0.963983 0
M  V30 3754 H 370.702 -3.09952 0.365499 0
M  V30 3755 N 371.003 -0.499398 -1.49478 0
M  V30 3756 C 371.935 0.316575 -2.27003 0
M  V30 3757 C 372.948 0.932047 -1.33479 0
M  V30 3758 O 374.137 0.815658 -1.58774 0
M  V30 3759 C 371.237 1.46055 -3.05812 0
M  V30 3760 C 370.41 0.952679 -4.26899 0
M  V30 3761 C 369.469 1.97407 -4.87767 0
M  V30 3762 O 368.495 1.54326 -5.4788 0
M  V30 3763 N 369.697 3.30436 -4.77276 0
M  V30 3764 H 372.462 -0.348168 -2.97671 0
M  V30 3765 H 370.023 -0.33185 -1.58463 0
M  V30 3766 H 372.015 2.14135 -3.43407 0
M  V30 3767 H 370.585 2.02948 -2.37762 0
M  V30 3768 H 369.805 0.0968248 -3.94081 0
M  V30 3769 H 371.093 0.59174 -5.05347 0
M  V30 3770 H 370.491 3.68126 -4.29534 0
M  V30 3771 H 369.048 3.94235 -5.19059 0
M  V30 3772 N 372.481 1.55866 -0.233164 0
M  V30 3773 C 373.729 1.9821 0.394593 0
M  V30 3774 C 374.05 1.12234 1.59463 0
M  V30 3775 O 373.32 0.201981 1.94856 0
M  V30 3776 H 371.9 0.732034 0.148778 0
M  V30 3777 H 374.562 1.92107 -0.32876 0
M  V30 3778 H 373.658 3.03845 0.713063 0
M  V30 3779 N 373.959 -0.0401083 1.57549 0
M  V30 3780 C 375.187 -0.745196 1.93014 0
M  V30 3781 C 375.602 -1.6948 0.831984 0
M  V30 3782 O 374.959 -1.81482 -0.192463 0
M  V30 3783 C 375.01 -1.51176 3.28372 0
M  V30 3784 O 374.731 -0.600284 4.33968 0
M  V30 3785 C 376.232 -2.315 3.78051 0
M  V30 3786 H 373.452 -0.210088 0.637263 0
M  V30 3787 H 375.996 -0.000924689 2.045 0
M  V30 3788 H 374.151 -2.20801 3.18317 0
M  V30 3789 H 374.565 -1.13669 5.12035 0
M  V30 3790 H 376.039 -2.80697 4.75303 0
M  V30 3791 H 376.516 -3.12436 3.08675 0
M  V30 3792 H 377.122 -1.66971 3.91153 0
M  V30 3793 N 375.437 -1.54477 -0.31217 0
M  V30 3794 C 376.367 -1.87652 -1.38957 0
M  V30 3795 C 377.348 -0.734358 -1.53431 0
M  V30 3796 O 378.533 -0.98911 -1.67123 0
M  V30 3797 C 375.663 -2.11396 -2.75552 0
M  V30 3798 C 374.617 -3.27243 -2.75855 0
M  V30 3799 C 373.943 -3.36382 -4.15633 0
M  V30 3800 C 375.243 -4.64622 -2.38587 0
M  V30 3801 H 376.937 -2.77887 -1.11442 0
M  V30 3802 H 374.483 -1.33707 -0.534655 0
M  V30 3803 H 376.436 -2.33189 -3.51 0
M  V30 3804 H 375.16 -1.17921 -3.04569 0
M  V30 3805 H 373.819 -3.05356 -2.02863 0
M  V30 3806 H 373.467 -2.40445 -4.41809 0
M  V30 3807 H 373.167 -4.14249 -4.1674 0
M  V30 3808 H 374.691 -3.60422 -4.92877 0
M  V30 3809 H 376.105 -4.86219 -3.03749 0
M  V30 3810 H 374.502 -5.45121 -2.50925 0
M  V30 3811 H 375.572 -4.66097 -1.33723 0
M  V30 3812 N 376.915 0.57481 -1.46744 0
M  V30 3813 C 377.845 1.69337 -1.60771 0
M  V30 3814 C 378.826 1.63825 -0.457736 0
M  V30 3815 O 380.011 1.8172 -0.684947 0
M  V30 3816 C 377.141 3.0798 -1.60517 0
M  V30 3817 C 376.095 3.28327 -2.74564 0
M  V30 3818 C 375.421 4.67578 -2.59373 0
M  V30 3819 C 376.721 3.15398 -4.16319 0
M  V30 3820 H 378.415 1.57853 -2.54407 0
M  V30 3821 H 375.961 0.75799 -1.22436 0
M  V30 3822 H 377.914 3.86061 -1.68923 0
M  V30 3823 H 376.638 3.20381 -0.634305 0
M  V30 3824 H 375.297 2.52649 -2.65639 0
M  V30 3825 H 374.945 4.76755 -1.60353 0
M  V30 3826 H 374.645 4.82144 -3.35873 0
M  V30 3827 H 376.169 5.47817 -2.69682 0
M  V30 3828 H 377.583 3.83315 -4.26313 0
M  V30 3829 H 375.98 3.41482 -4.93468 0
M  V30 3830 H 377.05 2.12372 -4.3592 0
M  V30 3831 N 378.394 1.34581 0.820102 0
M  V30 3832 C 379.622 1.3018 1.60813 0
M  V30 3833 C 380.037 -0.123551 1.88395 0
M  V30 3834 O 379.394 -1.07148 1.47735 0
M  V30 3835 C 379.445 2.09312 2.94739 0
M  V30 3836 O 379.166 3.46288 2.68358 0
M  V30 3837 C 380.667 2.1234 3.89136 0
M  V30 3838 H 377.887 0.447726 0.499782 0
M  V30 3839 H 380.431 1.77237 1.02017 0
M  V30 3840 H 378.586 1.65889 3.50085 0
M  V30 3841 H 379 3.87227 3.53774 0
M  V30 3842 H 380.474 2.72126 4.80262 0
M  V30 3843 H 380.951 1.11854 4.24718 0
M  V30 3844 H 381.557 2.55864 3.39726 0
M  V30 3845 N 379.872 -1.04064 1.18357 0
M  V30 3846 C 381.118 -1.77528 0.980397 0
M  V30 3847 C 381.451 -1.87948 -0.48879 0
M  V30 3848 O 380.726 -1.3876 -1.36293 0
M  V30 3849 C 381.009 -3.20797 1.63588 0
M  V30 3850 C 380.862 -3.1832 3.17793 0
M  V30 3851 C 382.181 -4.18911 1.34914 0
M  V30 3852 H 379.3 -0.644443 0.357578 0
M  V30 3853 H 381.942 -1.2156 1.46024 0
M  V30 3854 H 380.092 -3.68586 1.22788 0
M  V30 3855 H 381.764 -2.78521 3.67728 0
M  V30 3856 H 380.007 -2.56351 3.49952 0
M  V30 3857 H 380.678 -4.19489 3.58794 0
M  V30 3858 H 383.154 -3.7967 1.70265 0
M  V30 3859 H 382.03 -5.17374 1.83346 0
M  V30 3860 H 382.291 -4.41262 0.272027 0
M  V30 3861 N 381.35 -0.985608 -1.22978 0
M  V30 3862 C 382.575 -0.675254 -1.961 0
M  V30 3863 C 383 0.752154 -1.72407 0
M  V30 3864 O 382.358 1.5131 -0.998751 0
M  V30 3865 C 382.406 -0.977899 -3.47087 0
M  V30 3866 O 381.51 -0.072685 -4.12336 0
M  V30 3867 H 380.851 -0.253443 -0.613728 0
M  V30 3868 H 383.381 -1.32061 -1.56272 0
M  V30 3869 H 383.391 -0.916739 -3.97567 0
M  V30 3870 H 382.066 -2.01807 -3.63657 0
M  V30 3871 H 380.643 -0.188703 -3.72422 0
M  V30 3872 N 382.828 1.3818 -0.7579 0
M  V30 3873 C 384.053 2.04827 -0.325679 0
M  V30 3874 C 384.478 1.56788 1.03919 0
M  V30 3875 O 383.836 0.721811 1.66312 0
M  V30 3876 C 383.884 3.58774 -0.362447 0
M  V30 3877 O 382.988 4.07372 0.642033 0
M  V30 3878 H 382.329 0.64833 -0.143402 0
M  V30 3879 H 384.859 1.7677 -1.03023 0
M  V30 3880 H 384.869 4.07434 -0.214844 0
M  V30 3881 H 383.544 3.93096 -1.35824 0
M  V30 3882 H 382.121 3.70068 0.458688 0
M  V30 3883 N 384.306 0.507319 1.49211 0
M  V30 3884 C 385.216 -0.272136 2.33016 0
M  V30 3885 C 386.232 -0.961206 1.45041 0
M  V30 3886 O 387.408 -0.941191 1.78055 0
M  V30 3887 C 384.473 -1.31895 3.20631 0
M  V30 3888 C 383.534 -0.642648 4.24463 0
M  V30 3889 C 382.767 -1.63959 5.07891 0
M  V30 3890 O 382.99 -2.87007 4.92933 0
M  V30 3891 O 381.924 -1.19143 5.8999 0
M  V30 3892 H 385.75 0.413982 3.00865 0
M  V30 3893 H 383.335 0.268556 1.46966 0
M  V30 3894 H 385.217 -1.92446 3.7489 0
M  V30 3895 H 383.892 -1.98788 2.5547 0
M  V30 3896 H 382.799 0.00276252 3.741 0
M  V30 3897 H 384.132 -0.0160534 4.92197 0
M  V30 3898 N 385.784 -1.5574 0.241426 0
M  V30 3899 C 387.031 -1.9881 -0.384836 0
M  V30 3900 C 387.359 -1.12947 -1.58346 0
M  V30 3901 O 386.614 -0.178993 -1.9488 0
M  V30 3902 C 386.913 -3.47308 -0.843317 0
M  V30 3903 C 386.579 -4.50223 0.246946 0
M  V30 3904 C 385.241 -4.78088 0.546399 0
M  V30 3905 C 387.593 -5.11841 0.983282 0
M  V30 3906 C 384.921 -5.64846 1.58636 0
M  V30 3907 C 387.273 -5.99727 2.01272 0
M  V30 3908 C 385.937 -6.25927 2.31888 0
M  V30 3909 H 385.207 -0.727496 -0.140821 0
M  V30 3910 H 387.854 -1.8831 0.348106 0
M  V30 3911 H 386.159 -3.55112 -1.65537 0
M  V30 3912 H 387.856 -3.78017 -1.33806 0
M  V30 3913 H 384.446 -4.286 0.00340639 0
M  V30 3914 H 388.63 -4.90366 0.765182 0
M  V30 3915 H 383.886 -5.83403 1.82896 0
M  V30 3916 H 388.06 -6.46517 2.58823 0
M  V30 3917 H 385.687 -6.92949 3.12611 0
M  V30 3918 N 387.262 0.0317525 -1.57568 0
M  V30 3919 C 388.51 0.721676 -1.88776 0
M  V30 3920 C 388.831 1.76039 -0.838772 0
M  V30 3921 O 388.101 1.95482 0.127935 0
M  V30 3922 H 386.681 0.269534 -0.696678 0
M  V30 3923 H 389.343 -0.00165879 -1.949 0
M  V30 3924 H 388.439 1.21293 -2.87566 0
M  V30 3925 N 388.74 1.54641 0.303973 0
M  V30 3926 C 389.988 1.73437 1.0375 0
M  V30 3927 C 390.309 0.521449 1.87899 0
M  V30 3928 O 389.579 -0.46432 1.90318 0
M  V30 3929 H 388.159 0.639518 0.386039 0
M  V30 3930 H 390.821 1.91988 0.335675 0
M  V30 3931 H 389.917 2.62235 1.69231 0
M  V30 3932 N 390.218 -0.567019 1.47046 0
M  V30 3933 C 391.181 -1.65696 1.58359 0
M  V30 3934 C 392.181 -1.54097 0.459441 0
M  V30 3935 O 393.371 -1.58432 0.724225 0
M  V30 3936 C 390.503 -3.05197 1.51879 0
M  V30 3937 H 391.696 -1.57019 2.5551 0
M  V30 3938 H 389.249 -0.786148 1.3509 0
M  V30 3939 H 389.984 -3.19417 0.560673 0
M  V30 3940 H 389.769 -3.15025 2.33455 0
M  V30 3941 H 391.259 -3.84511 1.62913 0
M  V30 3942 N 391.696 -1.35014 -0.812953 0
M  V30 3943 C 393.107 -1.25035 -1.38648 0
M  V30 3944 C 393.458 0.119967 -1.95833 0
M  V30 3945 O 392.583 1.02069 -1.90816 0
M  V30 3946 C 393.178 -2.26394 -2.52054 0
M  V30 3947 C 391.737 -2.20175 -3.05287 0
M  V30 3948 C 390.884 -2.12451 -1.78213 0
M  V30 3949 H 393.835 -1.46235 -0.616516 0
M  V30 3950 H 393.856 -1.88672 -3.30429 0
M  V30 3951 H 393.368 -3.26116 -2.10404 0
M  V30 3952 H 391.469 -1.23841 -3.51417 0
M  V30 3953 H 391.582 -3.11863 -3.63701 0
M  V30 3954 H 389.946 -1.58328 -1.9951 0
M  V30 3955 H 390.729 -3.14024 -1.38723 0
M  V30 3956 N 393.175 1.03435 -1.18907 0
M  V30 3957 C 394.085 2.15075 -0.937015 0
M  V30 3958 C 395.101 1.73706 0.101085 0
M  V30 3959 O 396.277 2.01232 -0.0822948 0
M  V30 3960 C 393.342 3.43458 -0.473057 0
M  V30 3961 C 392.403 3.99172 -1.57989 0
M  V30 3962 C 391.636 5.21427 -1.13797 0
M  V30 3963 O 391.859 5.704 0.000725941 0
M  V30 3964 O 390.793 5.69837 -1.9383 0
M  V30 3965 H 394.619 2.39198 -1.87131 0
M  V30 3966 H 392.204 1.13506 -0.971427 0
M  V30 3967 H 394.086 4.20811 -0.222702 0
M  V30 3968 H 392.761 3.20793 0.432869 0
M  V30 3969 H 391.668 3.23178 -1.88433 0
M  V30 3970 H 393.001 4.2619 -2.46217 0
M  V30 3971 N 394.653 0.992116 1.22453 0
M  V30 3972 C 395.9 0.667534 1.91181 0
M  V30 3973 C 396.228 -0.800317 1.77271 0
M  V30 3974 O 395.483 -1.59421 1.13505 0
M  V30 3975 C 395.782 1.01832 3.42586 0
M  V30 3976 C 395.448 2.47831 3.76684 0
M  V30 3977 C 394.11 2.87729 3.85701 0
M  V30 3978 C 396.462 3.42466 3.92895 0
M  V30 3979 C 393.79 4.21252 4.08367 0
M  V30 3980 C 396.142 4.75648 4.17064 0
M  V30 3981 C 394.806 5.15288 4.24305 0
M  V30 3982 H 394.076 0.244268 0.699581 0
M  V30 3983 H 396.723 1.24816 1.45235 0
M  V30 3984 H 395.028 0.355769 3.90181 0
M  V30 3985 H 396.725 0.745228 3.94014 0
M  V30 3986 H 393.315 2.15905 3.70247 0
M  V30 3987 H 397.499 3.12814 3.85307 0
M  V30 3988 H 392.755 4.51554 4.122 0
M  V30 3989 H 396.929 5.48924 4.2855 0
M  V30 3990 H 394.556 6.18769 4.41621 0
M  V30 3991 N 396.131 -1.37776 0.765217 0
M  V30 3992 C 397.542 -1.82521 0.392819 0
M  V30 3993 C 397.893 -1.63789 -1.08017 0
M  V30 3994 O 397.018 -1.14542 -1.83601 0
M  V30 3995 C 397.613 -3.31358 0.706214 0
M  V30 3996 C 396.172 -3.74406 0.386952 0
M  V30 3997 C 395.319 -2.60394 0.953422 0
M  V30 3998 H 398.27 -1.2634 0.960412 0
M  V30 3999 H 398.291 -3.80498 -0.0114706 0
M  V30 4000 H 397.803 -3.44959 1.77833 0
M  V30 4001 H 395.904 -3.66377 -0.678112 0
M  V30 4002 H 396.017 -4.70749 0.890636 0
M  V30 4003 H 394.381 -2.51878 0.378064 0
M  V30 4004 H 395.164 -2.76791 2.03081 0
M  V30 4005 N 397.609 -0.515225 -1.4894 0
M  V30 4006 C 398.556 0.255567 -2.29381 0
M  V30 4007 C 399.526 0.947387 -1.36432 0
M  V30 4008 O 400.711 0.951288 -1.65394 0
M  V30 4009 C 397.851 1.30551 -3.19453 0
M  V30 4010 C 396.964 0.624029 -4.27469 0
M  V30 4011 C 396.099 1.65563 -5.0474 0
M  V30 4012 C 395.138 0.956802 -6.04576 0
M  V30 4013 N 394.275 1.93326 -6.74959 0
M  V30 4014 H 399.115 -0.436607 -2.94784 0
M  V30 4015 H 396.652 -0.227154 -1.45336 0
M  V30 4016 H 398.61 1.92639 -3.70062 0
M  V30 4017 H 397.24 1.96626 -2.56004 0
M  V30 4018 H 396.292 -0.110459 -3.8024 0
M  V30 4019 H 397.604 0.0746092 -4.98744 0
M  V30 4020 H 396.758 2.35119 -5.59289 0
M  V30 4021 H 395.497 2.23893 -4.3327 0
M  V30 4022 H 394.502 0.247097 -5.49244 0
M  V30 4023 H 395.727 0.379814 -6.78037 0
M  V30 4024 H 393.673 2.50591 -6.06251 0
M  V30 4025 H 393.59 1.43489 -7.42258 0
M  V30 4026 H 394.858 2.62126 -7.34105 0
M  V30 4027 N 399.087 1.5561 -0.249682 0
M  V30 4028 C 400.498 1.84979 0.252949 0
M  V30 4029 C 400.849 1.17153 1.57384 0
M  V30 4030 O 399.974 0.450884 2.11651 0
M  V30 4031 C 400.569 3.35584 0.465732 0
M  V30 4032 C 399.128 3.65169 0.912624 0
M  V30 4033 C 398.275 2.77299 -0.00859085 0
M  V30 4034 H 401.226 1.51513 -0.47217 0
M  V30 4035 H 401.247 3.57313 1.30795 0
M  V30 4036 H 400.759 3.8492 -0.49579 0
M  V30 4037 H 398.86 3.21312 1.88652 0
M  V30 4038 H 398.973 4.72912 0.767559 0
M  V30 4039 H 397.337 2.49678 0.50327 0
M  V30 4040 H 398.12 3.29442 -0.965537 0
M  V30 4041 N 400.565 -0.0233959 1.57583 0
M  V30 4042 C 401.79 -0.728376 1.94189 0
M  V30 4043 C 402.215 -1.67793 0.850119 0
M  V30 4044 O 401.573 -1.80262 -0.19371 0
M  V30 4045 C 401.621 -1.45669 3.29868 0
M  V30 4046 O 400.725 -2.57013 3.22518 0
M  V30 4047 H 400.066 -0.195493 0.63457 0
M  V30 4048 H 402.596 0.0228214 2.04587 0
M  V30 4049 H 402.606 -1.82535 3.6489 0
M  V30 4050 H 401.281 -0.760314 4.08891 0
M  V30 4051 H 399.858 -2.22648 2.99136 0
M  V30 4052 N 402.043 -1.548 -0.295768 0
M  V30 4053 C 403.271 -1.78327 -1.04914 0
M  V30 4054 C 403.686 -0.545316 -1.80753 0
M  V30 4055 O 403.043 0.485013 -1.75937 0
M  V30 4056 C 403.094 -2.99418 -2.02561 0
M  V30 4057 O 402.815 -4.18431 -1.29798 0
M  V30 4058 C 404.316 -3.35375 -2.89895 0
M  V30 4059 H 401.536 -0.594618 -0.310918 0
M  V30 4060 H 404.08 -2.01763 -0.333454 0
M  V30 4061 H 402.235 -2.78175 -2.69624 0
M  V30 4062 H 402.649 -4.86736 -1.95419 0
M  V30 4063 H 404.123 -4.23332 -3.54251 0
M  V30 4064 H 404.6 -2.53761 -3.58472 0
M  V30 4065 H 405.206 -3.58796 -2.28355 0
M  V30 4066 N 403.521 0.559213 -1.47345 0
M  V30 4067 C 404.932 1.14134 -1.47751 0
M  V30 4068 C 405.283 1.94834 -0.231103 0
M  V30 4069 O 404.408 2.05957 0.664137 0
M  V30 4070 C 405.003 2.07653 -2.67705 0
M  V30 4071 C 403.562 2.61141 -2.71076 0
M  V30 4072 C 402.709 1.3748 -2.40821 0
M  V30 4073 H 405.66 0.345917 -1.54884 0
M  V30 4074 H 405.681 2.91497 -2.44561 0
M  V30 4075 H 405.193 1.4889 -3.58404 0
M  V30 4076 H 403.294 3.23707 -1.84511 0
M  V30 4077 H 403.407 3.02272 -3.7171 0
M  V30 4078 H 401.771 1.68086 -1.91362 0
M  V30 4079 H 402.554 0.805135 -3.33725 0
M  V30 4080 N 404.999 1.35443 0.805782 0
M  V30 4081 C 406.41 1.25768 1.37983 0
M  V30 4082 C 406.761 -0.10958 1.95894 0
M  V30 4083 O 405.886 -1.01056 1.91355 0
M  V30 4084 C 406.481 2.27727 2.5085 0
M  V30 4085 C 405.04 2.2179 3.04115 0
M  V30 4086 C 404.187 2.13393 1.77084 0
M  V30 4087 H 407.138 1.4656 0.608752 0
M  V30 4088 H 407.159 1.90422 3.29424 0
M  V30 4089 H 406.671 3.27227 2.08671 0
M  V30 4090 H 404.772 1.25703 3.50756 0
M  V30 4091 H 404.885 3.13788 3.62042 0
M  V30 4092 H 403.249 1.59384 1.98668 0
M  V30 4093 H 404.032 3.14755 1.37056 0
M  V30 4094 N 406.477 -1.02803 1.19454 0
M  V30 4095 C 407.725 -1.75869 0.995722 0
M  V30 4096 C 408.046 -1.89138 -0.474543 0
M  V30 4097 O 407.316 -1.42558 -1.34366 0
M  V30 4098 H 405.896 -0.651511 0.365435 0
M  V30 4099 H 408.558 -1.24004 1.50363 0
M  V30 4100 H 407.654 -2.76661 1.44447 0
M  V30 4101 N 407.956 -0.998596 -1.21925 0
M  V30 4102 C 409.181 -0.696015 -1.95372 0
M  V30 4103 C 409.606 0.733826 -1.73195 0
M  V30 4104 O 408.964 1.50242 -1.01474 0
M  V30 4105 C 409.012 -1.01466 -3.4603 0
M  V30 4106 O 408.116 -0.116415 -4.12236 0
M  V30 4107 H 407.457 -0.259938 -0.611006 0
M  V30 4108 H 409.987 -1.33711 -1.54863 0
M  V30 4109 H 409.997 -0.958855 -3.96573 0
M  V30 4110 H 408.672 -2.05653 -3.61497 0
M  V30 4111 H 407.249 -0.228193 -3.72201 0
M  V30 4112 N 409.434 1.37368 -0.772513 0
M  V30 4113 C 410.659 2.0447 -0.347386 0
M  V30 4114 C 411.084 1.57882 1.0225 0
M  V30 4115 O 410.442 0.73941 1.65537 0
M  V30 4116 C 410.49 3.58369 -0.400479 0
M  V30 4117 O 409.594 4.0803 0.598789 0
M  V30 4118 H 408.935 0.646773 -0.15027 0
M  V30 4119 H 411.465 1.75667 -1.04892 0
M  V30 4120 H 411.475 4.07183 -0.258045 0
M  V30 4121 H 410.15 3.91633 -1.39986 0
M  V30 4122 H 408.727 3.70534 0.419411 0
M  V30 4123 N 410.912 0.523116 1.48665 0
M  V30 4124 C 412.16 -0.0134497 2.02096 0
M  V30 4125 C 412.481 -1.35418 1.40311 0
M  V30 4126 O 411.751 -1.87543 0.566074 0
M  V30 4127 H 410.331 -0.00795915 0.746958 0
M  V30 4128 H 412.993 0.685388 1.82451 0
M  V30 4129 H 412.089 -0.126849 3.11842 0
M  V30 4130 N 412.39 -1.55475 0.257931 0
M  V30 4131 C 413.32 -2.24815 -0.630912 0
M  V30 4132 C 414.301 -1.23224 -1.17259 0
M  V30 4133 O 415.486 -1.51904 -1.20991 0
M  V30 4134 C 412.616 -2.95609 -1.82298 0
M  V30 4135 C 411.57 -4.03982 -1.41359 0
M  V30 4136 C 410.896 -4.6226 -2.68738 0
M  V30 4137 C 412.196 -5.19109 -0.57648 0
M  V30 4138 H 413.89 -2.99354 -0.0526878 0
M  V30 4139 H 411.436 -1.4398 -0.023901 0
M  V30 4140 H 413.389 -3.42822 -2.45054 0
M  V30 4141 H 412.113 -2.18577 -2.42676 0
M  V30 4142 H 410.772 -3.57555 -0.809324 0
M  V30 4143 H 410.42 -3.81915 -3.27338 0
M  V30 4144 H 410.12 -5.35424 -2.42065 0
M  V30 4145 H 411.644 -5.12212 -3.32372 0
M  V30 4146 H 413.058 -5.62479 -1.10861 0
M  V30 4147 H 411.455 -5.98729 -0.405351 0
M  V30 4148 H 412.525 -4.83174 0.408776 0
M  V30 4149 N 413.868 0.0150385 -1.57593 0
M  V30 4150 C 414.778 1.02791 -2.10882 0
M  V30 4151 C 415.794 1.38702 -1.0506 0
M  V30 4152 O 416.97 1.47739 -1.36877 0
M  V30 4153 C 414.035 2.30568 -2.58919 0
M  V30 4154 C 413.096 2.01108 -3.79281 0
M  V30 4155 C 412.329 3.22794 -4.25018 0
M  V30 4156 O 412.552 4.33959 -3.70183 0
M  V30 4157 O 411.486 3.07672 -5.17322 0
M  V30 4158 H 415.312 0.604973 -2.97613 0
M  V30 4159 H 412.897 0.23292 -1.47573 0
M  V30 4160 H 414.779 3.05662 -2.90084 0
M  V30 4161 H 413.454 2.72129 -1.75293 0
M  V30 4162 H 412.361 1.23537 -3.53114 0
M  V30 4163 H 413.694 1.64394 -4.63935 0
M  V30 4164 N 415.346 1.54954 0.287554 0
M  V30 4165 C 416.594 1.74528 1.01904 0
M  V30 4166 C 416.915 0.541349 1.87335 0
M  V30 4167 O 416.185 -0.444108 1.908 0
M  V30 4168 H 414.765 0.643576 0.379235 0
M  V30 4169 H 417.427 1.92333 0.315294 0
M  V30 4170 H 416.523 2.64015 1.6644 0
M  V30 4171 N 416.824 -0.551391 1.4764 0
M  V30 4172 C 418.072 -1.30572 1.54258 0
M  V30 4173 C 418.393 -1.93877 0.208963 0
M  V30 4174 O 417.663 -1.80234 -0.767619 0
M  V30 4175 H 416.243 -0.484894 0.568231 0
M  V30 4176 H 418.905 -0.643402 1.83974 0
M  V30 4177 H 418.001 -2.09621 2.31226 0
M  V30 4178 N 418.302 -1.35869 -0.798587 0
M  V30 4179 C 419.527 -1.32883 -1.59238 0
M  V30 4180 C 419.952 0.0894587 -1.87887 0
M  V30 4181 O 419.31 1.05869 -1.47178 0
M  V30 4182 C 419.358 -2.14892 -2.89575 0
M  V30 4183 O 418.462 -1.53512 -3.82763 0
M  V30 4184 H 417.803 -0.455236 -0.48338 0
M  V30 4185 H 420.333 -1.79024 -0.990539 0
M  V30 4186 H 420.343 -2.27139 -3.38928 0
M  V30 4187 H 419.018 -3.17998 -2.68049 0
M  V30 4188 H 417.595 -1.50153 -3.41334 0
M  V30 4189 N 419.78 1.02168 -1.19998 0
M  V30 4190 C 420.71 2.12488 -0.96804 0
M  V30 4191 C 421.691 1.69799 0.101185 0
M  V30 4192 O 422.876 1.94121 -0.0552993 0
M  V30 4193 C 420.006 3.43479 -0.513776 0
M  V30 4194 C 418.96 3.99884 -1.52566 0
M  V30 4195 C 418.286 5.26582 -0.928214 0
M  V30 4196 C 419.586 4.33861 -2.90795 0
M  V30 4197 H 421.28 2.32149 -1.89069 0
M  V30 4198 H 418.826 1.11564 -0.910468 0
M  V30 4199 H 420.779 4.20036 -0.338774 0
M  V30 4200 H 419.503 3.23561 0.444493 0
M  V30 4201 H 418.162 3.25429 -1.68794 0
M  V30 4202 H 417.81 5.02986 0.0378289 0
M  V30 4203 H 417.51 5.65284 -1.60397 0
M  V30 4204 H 419.034 6.05799 -0.764167 0
M  V30 4205 H 420.448 5.01327 -2.78109 0
M  V30 4206 H 418.845 4.83664 -3.55231 0
M  V30 4207 H 419.915 3.42848 -3.42904 0
M  V30 4208 N 421.258 1.00505 1.21394 0
M  V30 4209 C 422.221 0.570459 2.21987 0
M  V30 4210 C 423.221 -0.353211 1.56873 0
M  V30 4211 O 424.411 -0.14349 1.73608 0
M  V30 4212 C 421.543 -0.168555 3.40483 0
M  V30 4213 H 422.736 1.46021 2.6195 0
M  V30 4214 H 420.289 0.793565 1.34656 0
M  V30 4215 H 421.024 -1.07374 3.06009 0
M  V30 4216 H 420.809 0.494823 3.88965 0
M  V30 4217 H 422.299 -0.460362 4.15055 0
M  V30 4218 N 422.737 -1.36956 0.779787 0
M  V30 4219 C 423.7 -2.2851 0.177662 0
M  V30 4220 C 424.7 -1.48393 -0.619377 0
M  V30 4221 O 425.89 -1.68505 -0.441785 0
M  V30 4222 C 423.022 -3.32428 -0.755279 0
M  V30 4223 H 424.215 -2.83269 0.984823 0
M  V30 4224 H 421.768 -1.46358 0.548544 0
M  V30 4225 H 422.503 -2.82808 -1.58714 0
M  V30 4226 H 422.288 -3.91659 -0.185817 0
M  V30 4227 H 423.778 -4.00824 -1.17174 0
M  V30 4228 N 424.215 -0.530993 -1.48385 0
M  V30 4229 C 425.145 0.219985 -2.32461 0
M  V30 4230 C 426.126 0.934111 -1.42156 0
M  V30 4231 O 427.311 0.919694 -1.71042 0
M  V30 4232 C 424.441 1.26674 -3.23375 0
M  V30 4233 C 423.395 0.67069 -4.22712 0
M  V30 4234 C 422.721 1.82017 -5.02766 0
M  V30 4235 C 424.021 -0.358268 -5.2107 0
M  V30 4236 H 425.715 -0.48187 -2.95497 0
M  V30 4237 H 423.261 -0.233182 -1.42099 0
M  V30 4238 H 425.214 1.80006 -3.81019 0
M  V30 4239 H 423.938 1.99818 -2.58341 0
M  V30 4240 H 422.597 0.158878 -3.66256 0
M  V30 4241 H 422.245 2.54002 -4.34157 0
M  V30 4242 H 421.945 1.42727 -5.70003 0
M  V30 4243 H 423.469 2.35725 -5.63264 0
M  V30 4244 H 424.883 0.0880081 -5.73232 0
M  V30 4245 H 423.28 -0.66861 -5.96364 0
M  V30 4246 H 424.35 -1.26367 -4.68145 0
M  V30 4247 N 425.693 1.55336 -0.266172 0
M  V30 4248 C 426.921 2.03801 0.356756 0
M  V30 4249 C 427.336 1.14485 1.50129 0
M  V30 4250 O 426.693 0.163121 1.8177 0
M  V30 4251 C 426.744 3.51455 0.846281 0
M  V30 4252 O 426.465 4.37371 -0.252663 0
M  V30 4253 C 427.966 4.15767 1.53794 0
M  V30 4254 H 425.186 0.665906 0.0825218 0
M  V30 4255 H 427.73 2.00636 -0.39566 0
M  V30 4256 H 425.885 3.55092 1.54881 0
M  V30 4257 H 426.299 5.24358 0.122173 0
M  V30 4258 H 427.773 5.20714 1.83198 0
M  V30 4259 H 428.25 3.63404 2.46646 0
M  V30 4260 H 428.856 4.16107 0.879488 0
M  V30 4261 N 427.171 -0.0066808 1.57599 0
M  V30 4262 C 428.134 -0.985035 2.06953 0
M  V30 4263 C 429.134 -1.27663 0.977687 0
M  V30 4264 O 430.324 -1.22293 1.24057 0
M  V30 4265 C 427.456 -2.3118 2.50536 0
M  V30 4266 H 428.649 -0.558255 2.94658 0
M  V30 4267 H 426.202 -0.254011 1.54222 0
M  V30 4268 H 426.937 -2.78561 1.66054 0
M  V30 4269 H 426.722 -2.11338 3.3027 0
M  V30 4270 H 428.212 -3.01377 2.8907 0
M  V30 4271 N 428.649 -1.55105 -0.279332 0
M  V30 4272 C 429.599 -1.83937 -1.34727 0
M  V30 4273 C 430.583 -0.69785 -1.44979 0
M  V30 4274 O 431.775 -0.95904 -1.48766 0
M  V30 4275 C 428.904 -2.1092 -2.70864 0
M  V30 4276 C 427.99 -3.31314 -2.64748 0
M  V30 4277 N 428.381 -4.51371 -2.2825 0
M  V30 4278 C 426.679 -3.33777 -2.95819 0
M  V30 4279 C 427.38 -5.33447 -2.31969 0
M  V30 4280 N 426.356 -4.71697 -2.7019 0
M  V30 4281 H 430.158 -2.74309 -1.05506 0
M  V30 4282 H 427.672 -1.54896 -0.487959 0
M  V30 4283 H 429.669 -2.2973 -3.47893 0
M  V30 4284 H 428.329 -1.21828 -3.00979 0
M  V30 4285 H 429.34 -4.77584 -2.00335 0
M  V30 4286 H 426.017 -2.54858 -3.30687 0
M  V30 4287 H 427.407 -6.39424 -2.06365 0
M  V30 4288 N 430.127 0.543554 -1.4793 0
M  V30 4289 C 431.059 1.665 -1.57513 0
M  V30 4290 C 432.072 1.56156 -0.460333 0
M  V30 4291 O 433.261 1.62865 -0.730573 0
M  V30 4292 C 430.361 3.05063 -1.47614 0
M  V30 4293 C 429.534 3.41024 -2.739 0
M  V30 4294 C 428.593 4.58809 -2.57645 0
M  V30 4295 O 427.619 4.62707 -3.31498 0
M  V30 4296 N 428.821 5.56149 -1.66368 0
M  V30 4297 H 431.586 1.5872 -2.5422 0
M  V30 4298 H 429.147 0.730517 -1.44482 0
M  V30 4299 H 431.139 3.81712 -1.34455 0
M  V30 4300 H 429.709 3.06994 -0.589359 0
M  V30 4301 H 428.929 2.53687 -3.01723 0
M  V30 4302 H 430.217 3.61831 -3.57709 0
M  V30 4303 H 429.615 5.55767 -1.05543 0
M  V30 4304 H 428.172 6.32071 -1.59154 0
M  V30 4305 N 431.605 1.3629 0.791371 0
M  V30 4306 C 432.568 1.30309 1.88553 0
M  V30 4307 C 433.568 0.211204 1.59407 0
M  V30 4308 O 434.758 0.465865 1.67855 0
M  V30 4309 C 431.89 1.01956 3.25297 0
M  V30 4310 H 433.083 2.27614 1.95273 0
M  V30 4311 H 430.636 1.21035 0.988953 0
M  V30 4312 H 431.371 0.050998 3.2426 0
M  V30 4313 H 431.156 1.80968 3.4784 0
M  V30 4314 H 432.646 1.0037 4.05359 0
M  V30 4315 N 433.083 -1.0153 1.20538 0
M  V30 4316 C 434.323 -1.76689 1.02763 0
M  V30 4317 C 434.687 -1.87065 -0.432513 0
M  V30 4318 O 435.888 -2.58684 -0.730481 0
M  V30 4319 C 434.159 -3.14707 1.69393 0
M  V30 4320 S 435.718 -4.05886 1.66738 0
M  V30 4321 H 432.536 -0.608076 0.368463 0
M  V30 4322 H 435.138 -1.21558 1.53114 0
M  V30 4323 H 433.842 -3.04782 2.74838 0
M  V30 4324 H 433.373 -3.74913 1.19179 0
M  V30 4325 H 435.388 -4.91221 0.70117 0
M  V30 4326 N 434.561 -1.01147 -1.20859 0
M  V30 4327 C 435.511 -0.548247 -2.2131 0
M  V30 4328 C 436.495 0.393646 -1.5601 0
M  V30 4329 O 437.687 0.217445 -1.75659 0
M  V30 4330 C 434.816 0.117252 -3.431 0
M  V30 4331 C 433.902 -0.846043 -4.15575 0
M  V30 4332 N 434.293 -2.00149 -4.64515 0
M  V30 4333 C 432.591 -0.665783 -4.41003 0
M  V30 4334 C 433.292 -2.60764 -5.19978 0
M  V30 4335 N 432.268 -1.88868 -5.09735 0
M  V30 4336 H 436.07 -1.42921 -2.56809 0
M  V30 4337 H 433.584 -0.876142 -1.36739 0
M  V30 4338 H 435.581 0.46662 -4.1428 0
M  V30 4339 H 434.241 0.994115 -3.09107 0
M  V30 4340 H 435.252 -2.38162 -4.5989 0
M  V30 4341 H 431.929 0.163456 -4.1718 0
M  V30 4342 H 433.319 -3.58519 -5.68255 0
M  V30 4343 N 436.039 1.36541 -0.78704 0
M  V30 4344 C 436.969 2.32659 -0.197992 0
M  V30 4345 C 437.95 1.56533 0.665697 0
M  V30 4346 O 439.135 1.84698 0.60001 0
M  V30 4347 C 436.265 3.40778 0.669901 0
M  V30 4348 C 435.219 4.27897 -0.0937039 0
M  V30 4349 C 434.545 5.27163 0.894629 0
M  V30 4350 C 435.845 5.06334 -1.28154 0
M  V30 4351 H 437.539 2.82171 -1.00099 0
M  V30 4352 H 435.085 1.35665 -0.482793 0
M  V30 4353 H 437.038 4.07008 1.09191 0
M  V30 4354 H 435.762 2.89827 1.50558 0
M  V30 4355 H 434.421 3.6322 -0.49666 0
M  V30 4356 H 434.069 4.72486 1.72527 0
M  V30 4357 H 433.769 5.86317 0.388149 0
M  V30 4358 H 435.293 5.96266 1.31525 0
M  V30 4359 H 436.707 5.65617 -0.93541 0
M  V30 4360 H 435.104 5.74888 -1.72115 0
M  V30 4361 H 436.174 4.38114 -2.07807 0
M  V30 4362 N 437.518 0.538854 1.48102 0
M  V30 4363 C 438.929 0.100679 1.86428 0
M  V30 4364 C 439.28 -1.32447 1.44749 0
M  V30 4365 O 438.405 -1.99339 0.842199 0
M  V30 4366 C 439 0.175933 3.38343 0
M  V30 4367 C 437.559 -0.207098 3.7583 0
M  V30 4368 C 436.706 0.531741 2.72154 0
M  V30 4369 H 439.657 0.749614 1.3988 0
M  V30 4370 H 439.678 -0.610144 3.75576 0
M  V30 4371 H 439.19 1.21328 3.68648 0
M  V30 4372 H 437.291 -1.24626 3.5114 0
M  V30 4373 H 437.404 0.138687 4.78899 0
M  V30 4374 H 435.768 -0.0230462 2.5469 0
M  V30 4375 H 436.551 1.56989 3.05302 0
M  V30 4376 N 438.996 -1.55193 0.274407 0
M  V30 4377 C 439.926 -2.25471 -0.607032 0
M  V30 4378 C 440.907 -1.24461 -1.15946 0
M  V30 4379 O 442.092 -1.53179 -1.19373 0
M  V30 4380 C 439.222 -2.97526 -1.79153 0
M  V30 4381 C 438.176 -4.05459 -1.37067 0
M  V30 4382 C 437.502 -4.65084 -2.6382 0
M  V30 4383 C 438.802 -5.19691 -0.521389 0
M  V30 4384 H 440.496 -2.99393 -0.0209343 0
M  V30 4385 H 438.042 -1.43997 -0.00862866 0
M  V30 4386 H 439.995 -3.45402 -2.41404 0
M  V30 4387 H 438.719 -2.21138 -2.40344 0
M  V30 4388 H 437.378 -3.58393 -0.771355 0
M  V30 4389 H 437.026 -3.85365 -3.23268 0
M  V30 4390 H 436.726 -5.37961 -2.36372 0
M  V30 4391 H 438.25 -5.15708 -3.26921 0
M  V30 4392 H 439.664 -5.63623 -1.04889 0
M  V30 4393 H 438.061 -5.99126 -0.341825 0
M  V30 4394 H 439.131 -4.82713 0.46 0
M  V30 4395 N 440.474 -0.00167713 -1.576 0
M  V30 4396 C 441.384 1.00548 -2.1196 0
M  V30 4397 C 442.4 1.3758 -1.06526 0
M  V30 4398 O 443.576 1.46278 -1.38436 0
M  V30 4399 C 440.641 2.27809 -2.6135 0
M  V30 4400 C 439.702 1.97074 -3.81393 0
M  V30 4401 C 438.935 3.18267 -4.28417 0
M  V30 4402 O 439.158 4.30009 -3.74765 0
M  V30 4403 O 438.092 3.02167 -5.20556 0
M  V30 4404 H 441.918 0.573373 -2.98238 0
M  V30 4405 H 439.503 0.217255 -1.47812 0
M  V30 4406 H 441.385 3.02568 -2.93309 0
M  V30 4407 H 440.06 2.70254 -1.78169 0
M  V30 4408 H 438.967 1.19785 -3.54404 0
M  V30 4409 H 440.3 1.59464 -4.65652 0
M  V30 4410 N 441.952 1.55251 0.271103 0
M  V30 4411 C 443.18 1.79974 1.02064 0
M  V30 4412 C 443.595 0.574003 1.79863 0
M  V30 4413 O 442.952 -0.456962 1.76686 0
M  V30 4414 C 443.003 3.02603 1.97772 0
M  V30 4415 O 442.724 4.20443 1.23124 0
M  V30 4416 C 444.225 3.39944 2.84522 0
M  V30 4417 H 441.445 0.599489 0.301419 0
M  V30 4418 H 443.989 2.02268 0.301313 0
M  V30 4419 H 442.144 2.8243 2.65165 0
M  V30 4420 H 442.558 4.89783 1.87651 0
M  V30 4421 H 444.032 4.28915 3.47471 0
M  V30 4422 H 444.509 2.59432 3.54389 0
M  V30 4423 H 445.115 3.62383 2.22618 0
M  V30 4424 N 443.43 -0.535701 1.48216 0
M  V30 4425 C 444.677 -1.29183 1.55942 0
M  V30 4426 C 445.005 -1.93125 0.230857 0
M  V30 4427 O 444.26 -1.79556 -0.778331 0
M  V30 4428 C 444.559 -2.4068 2.64212 0
M  V30 4429 C 444.225 -1.94428 4.06827 0
M  V30 4430 C 442.887 -1.81532 4.45645 0
M  V30 4431 C 445.239 -1.59405 4.96225 0
M  V30 4432 C 442.567 -1.31939 5.71672 0
M  V30 4433 C 444.919 -1.11276 6.22736 0
M  V30 4434 C 443.583 -0.969924 6.60416 0
M  V30 4435 H 442.853 -0.472715 0.570632 0
M  V30 4436 H 445.5 -0.598437 1.81909 0
M  V30 4437 H 443.805 -3.15666 2.32083 0
M  V30 4438 H 445.502 -2.98822 2.67407 0
M  V30 4439 H 442.092 -2.05415 3.76168 0
M  V30 4440 H 446.276 -1.68231 4.66917 0
M  V30 4441 H 441.532 -1.19562 5.99596 0
M  V30 4442 H 445.706 -0.832453 6.91407 0
M  V30 4443 H 443.333 -0.583436 7.57958 0
M  V30 4444 N 444.908 -1.36708 -0.784132 0
M  V30 4445 C 446.136 -1.34398 -1.57305 0
M  V30 4446 C 446.551 0.0735577 -1.88657 0
M  V30 4447 O 445.908 1.03193 -1.50524 0
M  V30 4448 C 445.959 -2.17053 -2.89085 0
M  V30 4449 O 445.68 -3.53281 -2.59083 0
M  V30 4450 C 447.181 -2.22583 -3.83369 0
M  V30 4451 H 444.401 -0.460819 -0.487736 0
M  V30 4452 H 446.945 -1.79879 -0.972819 0
M  V30 4453 H 445.1 -1.75113 -3.45564 0
M  V30 4454 H 445.514 -3.9647 -3.43383 0
M  V30 4455 H 446.988 -2.84763 -4.72878 0
M  V30 4456 H 447.465 -1.23075 -4.21603 0
M  V30 4457 H 448.071 -2.64781 -3.32823 0
M  V30 4458 N 446.386 1.0089 -1.21074 0
M  V30 4459 C 447.802 1.2695 -0.967257 0
M  V30 4460 C 448.002 1.9846 0.348673 0
M  V30 4461 O 447.058 2.28459 1.0753 0
M  V30 4462 C 448.371 2.09697 -2.15517 0
M  V30 4463 C 449.919 2.22937 -2.197 0
M  V30 4464 C 450.394 3.09064 -3.37999 0
M  V30 4465 N 451.885 3.16653 -3.38061 0
M  V30 4466 C 452.62 3.8354 -4.26245 0
M  V30 4467 N 452.116 4.52488 -5.2462 0
M  V30 4468 N 453.909 3.80141 -4.14064 0
M  V30 4469 H 446.06 0.529005 -2.05707 0
M  V30 4470 H 448.323 0.296148 -0.900556 0
M  V30 4471 H 448.029 1.64497 -3.10859 0
M  V30 4472 H 447.903 3.10444 -2.14253 0
M  V30 4473 H 450.29 2.67357 -1.24916 0
M  V30 4474 H 450.371 1.21673 -2.2501 0
M  V30 4475 H 450.015 2.65347 -4.33074 0
M  V30 4476 H 449.945 4.10433 -3.29928 0
M  V30 4477 H 452.436 2.67566 -2.66865 0
M  V30 4478 H 452.749 5.01219 -5.88217 0
M  V30 4479 H 451.094 4.51288 -5.28549 0
M  V30 4480 H 454.285 3.25427 -3.36474 0
M  V30 4481 H 454.458 4.31992 -4.82998 0
M  V30 4482 N 447.864 1.01787 1.20321 0
M  V30 4483 C 448.814 0.559976 2.21016 0
M  V30 4484 C 449.798 -0.385366 1.56217 0
M  V30 4485 O 450.99 -0.208126 1.75772 0
M  V30 4486 C 448.119 -0.0990553 3.43157 0
M  V30 4487 C 447.205 0.86807 4.15121 0
M  V30 4488 N 447.596 2.0261 4.63447 0
M  V30 4489 C 445.894 0.689162 4.40643 0
M  V30 4490 C 446.595 2.63518 5.18588 0
M  V30 4491 N 445.571 1.91569 5.08726 0
M  V30 4492 H 449.373 1.44281 2.56048 0
M  V30 4493 H 446.887 0.883381 1.36272 0
M  V30 4494 H 448.884 -0.444643 4.14522 0
M  V30 4495 H 447.544 -0.977709 3.0963 0
M  V30 4496 H 448.555 2.40598 4.58621 0
M  V30 4497 H 445.232 -0.14133 4.17261 0
M  V30 4498 H 446.622 3.61527 5.66346 0
M  V30 4499 N 449.342 -1.36122 0.79427 0
M  V30 4500 C 450.758 -1.5232 0.476525 0
M  V30 4501 C 450.958 -1.74685 -1.00436 0
M  V30 4502 O 450.014 -1.78115 -1.78973 0
M  V30 4503 C 451.327 -2.70607 1.31119 0
M  V30 4504 C 452.875 -2.8448 1.30537 0
M  V30 4505 C 453.35 -4.05778 2.12387 0
M  V30 4506 N 454.841 -4.12933 2.09859 0
M  V30 4507 C 455.576 -5.05876 2.69957 0
M  V30 4508 N 455.072 -6.04232 3.38934 0
M  V30 4509 N 456.865 -4.98528 2.59665 0
M  V30 4510 H 449.016 -1.1986 1.75349 0
M  V30 4511 H 451.279 -0.585418 0.745647 0
M  V30 4512 H 450.985 -2.60619 2.36158 0
M  V30 4513 H 450.859 -3.64888 0.955843 0
M  V30 4514 H 453.246 -2.93927 0.262876 0
M  V30 4515 H 453.327 -1.91093 1.70051 0
M  V30 4516 H 452.971 -3.97092 3.1667 0
M  V30 4517 H 452.901 -4.98323 1.70242 0
M  V30 4518 H 455.392 -3.42515 1.59662 0
M  V30 4519 H 455.705 -6.71724 3.82109 0
M  V30 4520 H 454.05 -6.04443 3.43036 0
M  V30 4521 H 457.241 -4.20641 2.05375 0
M  V30 4522 H 457.414 -5.70773 3.06793 0
M  V30 4523 N 450.82 -0.546701 -1.47814 0
M  V30 4524 C 451.752 0.244196 -2.27895 0
M  V30 4525 C 452.765 0.88911 -1.36377 0
M  V30 4526 O 453.954 0.764733 -1.61289 0
M  V30 4527 C 451.054 1.36252 -3.10304 0
M  V30 4528 C 450.227 0.816382 -4.29714 0
M  V30 4529 C 449.286 1.81789 -4.93801 0
M  V30 4530 O 448.312 1.36818 -5.52512 0
M  V30 4531 N 449.514 3.15085 -4.87547 0
M  V30 4532 H 452.279 -0.442694 -2.96412 0
M  V30 4533 H 449.84 -0.382095 -1.57327 0
M  V30 4534 H 451.832 2.03102 -3.50045 0
M  V30 4535 H 450.402 1.95281 -2.44099 0
M  V30 4536 H 449.622 -0.0285981 -3.9419 0
M  V30 4537 H 450.91 0.430668 -5.06974 0
M  V30 4538 H 450.308 3.54275 -4.41028 0
M  V30 4539 H 448.865 3.77522 -5.31339 0
M  V30 4540 N 452.299 1.55045 -0.282633 0
M  V30 4541 C 453.71 1.85473 0.213655 0
M  V30 4542 C 454.061 1.20465 1.54863 0
M  V30 4543 O 453.186 0.495676 2.10647 0
M  V30 4544 C 453.781 3.36496 0.394445 0
M  V30 4545 C 452.34 3.67022 0.834961 0
M  V30 4546 C 451.487 2.77218 -0.0674081 0
M  V30 4547 H 454.438 1.50478 -0.504202 0
M  V30 4548 H 454.459 3.60007 1.23186 0
M  V30 4549 H 453.971 3.83782 -0.577326 0
M  V30 4550 H 452.072 3.25241 1.81794 0
M  V30 4551 H 452.185 4.74433 0.667075 0
M  V30 4552 H 450.549 2.5069 0.450196 0
M  V30 4553 H 451.332 3.2732 -1.0352 0
M  V30 4554 N 453.777 0.010035 1.57597 0
M  V30 4555 C 455.193 -0.346164 1.55801 0
M  V30 4556 C 455.393 -1.74144 1.01371 0
M  V30 4557 O 454.449 -2.43938 0.651968 0
M  V30 4558 C 455.762 -0.212216 2.9995 0
M  V30 4559 C 457.31 -0.286409 3.11687 0
M  V30 4560 C 457.785 -0.18147 4.5764 0
M  V30 4561 N 459.276 -0.239056 4.62583 0
M  V30 4562 C 460.011 -0.181351 5.73113 0
M  V30 4563 N 459.507 -0.073661 6.92761 0
M  V30 4564 N 461.3 -0.233949 5.61613 0
M  V30 4565 H 453.451 0.922657 1.91313 0
M  V30 4566 H 455.714 0.354595 0.879185 0
M  V30 4567 H 455.42 0.748169 3.4365 0
M  V30 4568 H 455.294 -0.990224 3.6397 0
M  V30 4569 H 457.681 -1.23724 2.67911 0
M  V30 4570 H 457.762 0.521645 2.50425 0
M  V30 4571 H 457.406 0.765863 5.02093 0
M  V30 4572 H 457.336 -1.00814 5.1686 0
M  V30 4573 H 459.827 -0.32321 3.76515 0
M  V30 4574 H 460.14 -0.0358003 7.72792 0
M  V30 4575 H 458.485 -0.0391461 6.94989 0
M  V30 4576 H 461.676 -0.316347 4.6703 0
M  V30 4577 H 461.849 -0.185514 6.47734 0
M  V30 4578 N 455.255 -1.55392 -0.262866 0
M  V30 4579 C 456.503 -1.76127 -0.991147 0
M  V30 4580 C 456.824 -0.571083 -1.8645 0
M  V30 4581 O 456.094 0.413698 -1.91482 0
M  V30 4582 H 454.674 -0.649528 -0.368948 0
M  V30 4583 H 457.336 -1.9281 -0.284655 0
M  V30 4584 H 456.432 -2.6663 -1.62219 0
M  V30 4585 N 456.733 0.527833 -1.48498 0
M  V30 4586 C 457.979 1.28295 -1.57836 0
M  V30 4587 C 458.334 1.9077 -0.249943 0
M  V30 4588 O 457.627 1.76421 0.747402 0
M  V30 4589 C 457.821 2.39275 -2.65485 0
M  V30 4590 C 457.65 1.87679 -4.08664 0
M  V30 4591 C 456.42 1.70187 -4.75778 0
M  V30 4592 C 458.618 1.40409 -4.94762 0
M  V30 4593 N 456.6 1.13238 -6.03366 0
M  V30 4594 C 457.971 0.954216 -6.12613 0
M  V30 4595 C 460.026 1.28732 -4.8097 0
M  V30 4596 C 458.729 0.39915 -7.18192 0
M  V30 4597 C 460.755 0.746244 -5.86673 0
M  V30 4598 C 460.117 0.306457 -7.03733 0
M  V30 4599 H 456.216 0.460408 -0.632099 0
M  V30 4600 H 458.8 0.594913 -1.85388 0
M  V30 4601 H 456.971 3.05572 -2.3975 0
M  V30 4602 H 458.703 3.06308 -2.64495 0
M  V30 4603 H 455.458 1.93772 -4.32145 0
M  V30 4604 H 455.882 0.867687 -6.71417 0
M  V30 4605 H 460.524 1.61338 -3.90807 0
M  V30 4606 H 458.242 0.0607678 -8.08077 0
M  V30 4607 H 461.828 0.659041 -5.78055 0
M  V30 4608 H 460.708 -0.105708 -7.84129 0
M  V30 4609 N 458.211 1.37122 0.776871 0
M  V30 4610 C 459.121 1.34651 1.9211 0
M  V30 4611 C 460.137 0.246824 1.7224 0
M  V30 4612 O 461.313 0.48134 1.95563 0
M  V30 4613 C 458.378 1.14748 3.2716 0
M  V30 4614 C 457.439 2.34308 3.5972 0
M  V30 4615 C 456.672 2.15345 4.88326 0
M  V30 4616 O 456.895 1.13507 5.58992 0
M  V30 4617 O 455.829 3.03414 5.1983 0
M  V30 4618 H 459.655 2.31013 1.97146 0
M  V30 4619 H 457.24 1.17799 0.918901 0
M  V30 4620 H 459.122 1.05616 4.0795 0
M  V30 4621 H 457.797 0.214562 3.22988 0
M  V30 4622 H 456.704 2.49011 2.79185 0
M  V30 4623 H 458.037 3.26149 3.68629 0
M  V30 4624 N 459.689 -1.00246 1.21608 0
M  V30 4625 C 460.621 -2.09244 0.935401 0
M  V30 4626 C 461.634 -1.62592 -0.0823594 0
M  V30 4627 O 462.823 -1.77865 0.150456 0
M  V30 4628 C 459.923 -3.36724 0.383453 0
M  V30 4629 C 459.096 -4.1245 1.45615 0
M  V30 4630 C 458.155 -5.18219 0.912991 0
M  V30 4631 O 457.181 -5.46337 1.59701 0
M  V30 4632 N 458.383 -5.7987 -0.270478 0
M  V30 4633 H 461.148 -2.33905 1.87373 0
M  V30 4634 H 458.709 -1.16748 1.12167 0
M  V30 4635 H 460.701 -4.047 0.00562157 0
M  V30 4636 H 459.271 -3.09201 -0.459758 0
M  V30 4637 H 458.491 -3.39241 2.00772 0
M  V30 4638 H 459.779 -4.59819 2.17817 0
M  V30 4639 H 459.177 -5.59381 -0.843195 0
M  V30 4640 H 457.734 -6.49126 -0.589794 0
M  V30 4641 N 461.167 -1.02423 -1.1978 0
M  V30 4642 C 462.097 -0.62157 -2.25075 0
M  V30 4643 C 463.078 0.367148 -1.6609 0
M  V30 4644 O 464.263 0.250892 -1.92573 0
M  V30 4645 C 461.393 0.0331826 -3.47284 0
M  V30 4646 C 460.347 -0.877323 -4.18912 0
M  V30 4647 C 459.673 -0.0879296 -5.34628 0
M  V30 4648 C 460.973 -2.18892 -4.74219 0
M  V30 4649 H 462.667 -1.50179 -2.59011 0
M  V30 4650 H 460.213 -0.723547 -1.24502 0
M  V30 4651 H 462.166 0.326488 -4.20133 0
M  V30 4652 H 460.89 0.948164 -3.12534 0
M  V30 4653 H 459.549 -1.15475 -3.47938 0
M  V30 4654 H 459.197 0.828941 -4.96123 0
M  V30 4655 H 458.897 -0.694359 -5.83483 0
M  V30 4656 H 460.421 0.198743 -6.10276 0
M  V30 4657 H 461.835 -1.95746 -5.38847 0
M  V30 4658 H 460.232 -2.74686 -5.33542 0
M  V30 4659 H 461.302 -2.84674 -3.92541 0
M  V30 4660 N 462.645 1.35699 -0.801477 0
M  V30 4661 C 463.555 2.33661 -0.209691 0
M  V30 4662 C 464.571 1.6162 0.644591 0
M  V30 4663 O 465.747 1.93529 0.557545 0
M  V30 4664 C 462.812 3.40816 0.636033 0
M  V30 4665 C 461.873 4.28639 -0.238147 0
M  V30 4666 C 461.106 5.30676 0.567307 0
M  V30 4667 O 461.329 5.41174 1.8024 0
M  V30 4668 O 460.263 6.01887 -0.0391336 0
M  V30 4669 H 464.089 2.8606 -1.01996 0
M  V30 4670 H 461.674 1.38379 -0.563164 0
M  V30 4671 H 463.556 4.06301 1.11791 0
M  V30 4672 H 462.231 2.90696 1.42399 0
M  V30 4673 H 461.138 3.66152 -0.767044 0
M  V30 4674 H 462.471 4.82143 -0.989915 0
M  V30 4675 N 464.123 0.554532 1.47522 0
M  V30 4676 C 465.055 -0.232106 2.28022 0
M  V30 4677 C 466.068 -0.881865 1.36847 0
M  V30 4678 O 467.257 -0.756168 1.61692 0
M  V30 4679 C 464.357 -1.34604 3.11022 0
M  V30 4680 C 463.53 -0.793582 4.30141 0
M  V30 4681 C 462.589 -1.79168 4.94758 0
M  V30 4682 O 461.615 -1.33886 5.5323 0
M  V30 4683 N 462.817 -3.12495 4.89211 0
M  V30 4684 H 465.582 0.458407 2.96173 0
M  V30 4685 H 463.143 0.390433 1.57122 0
M  V30 4686 H 465.135 -2.01243 3.51118 0
M  V30 4687 H 463.705 -1.93983 2.45131 0
M  V30 4688 H 462.925 0.0495025 3.94169 0
M  V30 4689 H 464.213 -0.403776 5.07195 0
M  V30 4690 H 463.611 -3.51931 4.42901 0
M  V30 4691 H 462.168 -3.74698 5.33333 0
M  V30 4692 N 465.601 -1.54893 0.290851 0
M  V30 4693 C 466.841 -2.01842 -0.322388 0
M  V30 4694 C 467.205 -1.17477 -1.51865 0
M  V30 4695 O 468.406 -1.54077 -2.20258 0
M  V30 4696 C 466.677 -3.50874 -0.679844 0
M  V30 4697 S 468.236 -4.19796 -1.27739 0
M  V30 4698 H 465.054 -0.704005 -0.0994866 0
M  V30 4699 H 467.656 -1.91015 0.416358 0
M  V30 4700 H 466.36 -4.09915 0.199435 0
M  V30 4701 H 465.891 -3.65717 -1.44964 0
M  V30 4702 H 467.906 -4.24729 -2.56554 0
M  V30 4703 N 467.08 -0.0183926 -1.57589 0
M  V30 4704 C 468.328 0.661253 -1.90976 0
M  V30 4705 C 468.649 1.73281 -0.894353 0
M  V30 4706 O 467.919 1.9579 0.0656788 0
M  V30 4707 H 466.499 0.247233 -0.704901 0
M  V30 4708 H 469.161 -0.0636639 -1.94796 0
M  V30 4709 H 468.257 1.12083 -2.9128 0
M  V30 4710 N 468.558 1.5553 0.254621 0
M  V30 4711 C 469.788 1.80784 1.00004 0
M  V30 4712 C 470.196 0.59071 1.79742 0
M  V30 4713 O 469.539 -0.449988 1.78103 0
M  V30 4714 C 469.601 2.99268 1.99196 0
M  V30 4715 C 469.265 4.35595 1.38224 0
M  V30 4716 C 470.262 5.13884 0.788611 0
M  V30 4717 C 467.947 4.82281 1.40393 0
M  V30 4718 C 469.941 6.37004 0.224783 0
M  V30 4719 C 467.628 6.05351 0.836243 0
M  V30 4720 C 468.626 6.82551 0.24769 0
M  V30 4721 O 468.314 8.03297 -0.311249 0
M  V30 4722 H 468.046 0.60565 0.300274 0
M  V30 4723 H 470.6 2.03411 0.285143 0
M  V30 4724 H 468.83 2.72377 2.74496 0
M  V30 4725 H 470.519 3.11682 2.60018 0
M  V30 4726 H 471.285 4.78938 0.764423 0
M  V30 4727 H 467.164 4.22189 1.85142 0
M  V30 4728 H 470.708 6.97203 -0.235235 0
M  V30 4729 H 466.605 6.39776 0.857733 0
M  V30 4730 H 467.373 8.1825 -0.20237 0
M  V30 4731 N 470.036 -0.519951 1.48776 0
M  V30 4732 C 471.447 -1.10177 1.50725 0
M  V30 4733 C 471.798 -1.94153 0.282678 0
M  V30 4734 O 470.923 -2.07645 -0.609298 0
M  V30 4735 C 471.518 -2.00482 2.73116 0
M  V30 4736 C 470.077 -2.53862 2.77905 0
M  V30 4737 C 469.224 -1.31047 2.44381 0
M  V30 4738 H 472.175 -0.30473 1.55747 0
M  V30 4739 H 472.196 -2.8491 2.52203 0
M  V30 4740 H 471.708 -1.39335 3.62225 0
M  V30 4741 H 469.809 -3.18702 1.93029 0
M  V30 4742 H 469.922 -2.9231 3.79594 0
M  V30 4743 H 468.286 -1.62953 1.95751 0
M  V30 4744 H 469.069 -0.71637 3.35743 0
M  V30 4745 N 471.514 -1.37532 -0.769588 0
M  V30 4746 C 472.76 -1.33057 -1.53048 0
M  V30 4747 C 473.093 0.0841865 -1.94017 0
M  V30 4748 O 472.368 1.04198 -1.64235 0
M  V30 4749 C 472.651 -2.27166 -2.79406 0
M  V30 4750 C 472.504 -3.77429 -2.44677 0
M  V30 4751 C 473.823 -2.19683 -3.81349 0
M  V30 4752 H 470.942 -0.484655 -0.555228 0
M  V30 4753 H 473.584 -1.68251 -0.882702 0
M  V30 4754 H 471.734 -1.97283 -3.34682 0
M  V30 4755 H 473.406 -4.17918 -1.953 0
M  V30 4756 H 471.649 -3.95892 -1.77346 0
M  V30 4757 H 472.32 -4.38716 -3.35011 0
M  V30 4758 H 474.796 -2.46029 -3.35573 0
M  V30 4759 H 473.672 -2.87668 -4.67481 0
M  V30 4760 H 473.933 -1.19045 -4.25771 0
M  V30 4761 N 472.992 0.995999 -1.22138 0
M  V30 4762 C 473.924 2.08745 -0.946485 0
M  V30 4763 C 474.937 1.62633 0.0737356 0
M  V30 4764 O 476.126 1.77782 -0.159886 0
M  V30 4765 C 473.226 3.36516 -0.401305 0
M  V30 4766 C 472.399 4.11672 -1.47801 0
M  V30 4767 C 471.458 5.17728 -0.940461 0
M  V30 4768 O 470.484 5.45482 -1.62596 0
M  V30 4769 N 471.686 5.80005 0.239723 0
M  V30 4770 H 474.451 2.32908 -1.88611 0
M  V30 4771 H 472.012 1.16152 -1.12785 0
M  V30 4772 H 474.004 4.04691 -0.0270837 0
M  V30 4773 H 472.574 3.0944 0.443354 0
M  V30 4774 H 471.794 3.38171 -2.02568 0
M  V30 4775 H 473.082 4.58657 -2.20253 0
M  V30 4776 H 472.48 5.5982 0.813518 0
M  V30 4777 H 471.037 6.4943 0.555361 0
M  V30 4778 N 474.47 1.03057 1.19235 0
M  V30 4779 C 475.886 0.747947 1.40989 0
M  V30 4780 C 476.086 -0.666752 1.90149 0
M  V30 4781 O 475.142 -1.43249 2.07933 0
M  V30 4782 C 476.455 1.7855 2.41951 0
M  V30 4783 C 478.003 1.80524 2.55695 0
M  V30 4784 C 478.478 2.83243 3.59913 0
M  V30 4785 N 479.969 2.8207 3.67411 0
M  V30 4786 C 480.704 3.58204 4.47747 0
M  V30 4787 N 480.2 4.44057 5.31775 0
M  V30 4788 N 481.993 3.46738 4.42413 0
M  V30 4789 H 474.144 1.94367 0.856468 0
M  V30 4790 H 476.407 0.840412 0.438647 0
M  V30 4791 H 476.113 2.79973 2.12857 0
M  V30 4792 H 475.987 1.6092 3.41152 0
M  V30 4793 H 478.374 0.79778 2.84112 0
M  V30 4794 H 478.455 2.02229 1.56643 0
M  V30 4795 H 478.099 3.84161 3.32239 0
M  V30 4796 H 478.029 2.58795 4.5862 0
M  V30 4797 H 480.52 2.19803 3.074 0
M  V30 4798 H 480.833 4.98884 5.90199 0
M  V30 4799 H 479.178 4.48129 5.3123 0
M  V30 4800 H 482.369 2.79077 3.75811 0
M  V30 4801 H 482.542 4.06322 5.04783 0
M  V30 4802 N 475.948 -1.35272 0.808662 0
M  V30 4803 C 476.878 -2.32315 0.234981 0
M  V30 4804 C 477.859 -1.57572 -0.64071 0
M  V30 4805 O 479.044 -1.8563 -0.570551 0
M  V30 4806 C 476.174 -3.41801 -0.615601 0
M  V30 4807 C 475.128 -4.27694 0.161767 0
M  V30 4808 C 474.454 -5.28519 -0.810649 0
M  V30 4809 C 475.754 -5.04231 1.36193 0
M  V30 4810 H 477.448 -2.80543 1.04575 0
M  V30 4811 H 474.994 -1.3488 0.504315 0
M  V30 4812 H 476.947 -4.08693 -1.02702 0
M  V30 4813 H 475.671 -2.92186 -1.45928 0
M  V30 4814 H 474.33 -3.62384 0.554382 0
M  V30 4815 H 473.978 -4.75171 -1.64988 0
M  V30 4816 H 473.678 -5.8686 -0.294822 0
M  V30 4817 H 475.202 -5.98283 -1.22023 0
M  V30 4818 H 476.616 -5.64058 1.02528 0
M  V30 4819 H 475.013 -5.72077 1.81239 0
M  V30 4820 H 476.083 -4.34753 2.14751 0
M  V30 4821 N 477.426 -0.562348 -1.47226 0
M  V30 4822 C 478.672 -0.0402761 -2.0276 0
M  V30 4823 C 479.005 1.30823 -1.43523 0
M  V30 4824 O 478.28 1.85249 -0.592705 0
M  V30 4825 C 478.563 0.047311 -3.60069 0
M  V30 4826 C 478.416 -1.32865 -4.29729 0
M  V30 4827 C 479.735 0.758182 -4.3352 0
M  V30 4828 H 476.854 -0.0161105 -0.736824 0
M  V30 4829 H 479.496 -0.725628 -1.75598 0
M  V30 4830 H 477.646 0.630986 -3.83342 0
M  V30 4831 H 479.318 -1.95593 -4.17781 0
M  V30 4832 H 477.561 -1.90195 -3.89882 0
M  V30 4833 H 478.232 -1.22004 -5.38349 0
M  V30 4834 H 480.708 0.262546 -4.15271 0
M  V30 4835 H 479.584 0.78844 -5.43208 0
M  V30 4836 H 479.845 1.81537 -4.03109 0
M  V30 4837 N 478.904 1.54736 -0.299062 0
M  V30 4838 C 479.867 2.22127 0.565012 0
M  V30 4839 C 480.867 1.20669 1.06281 0
M  V30 4840 O 482.057 1.45417 0.959145 0
M  V30 4841 C 479.189 2.90611 1.78208 0
M  V30 4842 H 480.382 2.99891 -0.0237448 0
M  V30 4843 H 477.935 1.5622 -0.0498788 0
M  V30 4844 H 478.67 2.16921 2.41072 0
M  V30 4845 H 478.455 3.64984 1.43281 0
M  V30 4846 H 479.945 3.42026 2.396 0
M  V30 4847 N 480.382 0.0267497 1.57577 0
M  V30 4848 C 481.312 -0.954308 2.13108 0
M  V30 4849 C 482.293 -1.34088 1.04663 0
M  V30 4850 O 483.478 -1.41992 1.32484 0
M  V30 4851 C 480.608 -2.23744 2.65624 0
M  V30 4852 C 479.562 -1.99168 3.78835 0
M  V30 4853 C 478.888 -3.33726 4.17769 0
M  V30 4854 C 480.188 -1.33277 5.0501 0
M  V30 4855 H 481.882 -0.491848 2.95332 0
M  V30 4856 H 479.428 -0.23514 1.42067 0
M  V30 4857 H 481.381 -2.92754 3.03106 0
M  V30 4858 H 480.105 -2.72151 1.80558 0
M  V30 4859 H 478.764 -1.32577 3.41788 0
M  V30 4860 H 478.412 -3.79888 3.29688 0
M  V30 4861 H 478.112 -3.18089 4.94058 0
M  V30 4862 H 479.636 -4.04008 4.57832 0
M  V30 4863 H 481.05 -1.92283 5.40093 0
M  V30 4864 H 479.447 -1.28045 5.8628 0
M  V30 4865 H 480.517 -0.305411 4.83937 0
M  V30 4866 N 481.861 -1.55662 -0.24637 0
M  V30 4867 C 483.091 -1.81312 -0.990438 0
M  V30 4868 C 483.499 -0.600234 -1.79426 0
M  V30 4869 O 482.842 0.440537 -1.78339 0
M  V30 4870 C 482.904 -3.0032 -1.97607 0
M  V30 4871 C 482.568 -4.36322 -1.35912 0
M  V30 4872 C 483.565 -5.14295 -0.761348 0
M  V30 4873 C 481.25 -4.83019 -1.37833 0
M  V30 4874 C 483.244 -6.37114 -0.190998 0
M  V30 4875 C 480.931 -6.05786 -0.804128 0
M  V30 4876 C 481.929 -6.82672 -0.211489 0
M  V30 4877 O 481.617 -8.03121 0.353845 0
M  V30 4878 H 481.349 -0.607233 -0.297058 0
M  V30 4879 H 483.903 -2.0356 -0.274351 0
M  V30 4880 H 482.133 -2.73829 -2.73047 0
M  V30 4881 H 483.822 -3.13057 -2.58361 0
M  V30 4882 H 484.588 -4.79337 -0.739013 0
M  V30 4883 H 480.467 -4.23165 -1.829 0
M  V30 4884 H 484.011 -6.97069 0.272206 0
M  V30 4885 H 479.908 -6.40222 -0.823792 0
M  V30 4886 H 480.676 -8.18131 0.245761 0
M  V30 4887 N 483.339 0.512053 -1.4905 0
M  V30 4888 C 484.269 1.62365 -1.67809 0
M  V30 4889 C 485.25 1.61737 -0.526809 0
M  V30 4890 O 486.435 1.78651 -0.761404 0
M  V30 4891 C 483.565 3.00895 -1.73435 0
M  V30 4892 C 482.519 3.16387 -2.88242 0
M  V30 4893 C 481.845 4.56157 -2.78971 0
M  V30 4894 C 483.145 2.97457 -4.29321 0
M  V30 4895 H 484.839 1.46921 -2.60873 0
M  V30 4896 H 482.385 0.705379 -1.2554 0
M  V30 4897 H 484.338 3.78549 -1.85145 0
M  V30 4898 H 483.062 3.17403 -0.769619 0
M  V30 4899 H 481.721 2.41155 -2.76116 0
M  V30 4900 H 481.369 4.69525 -1.8043 0
M  V30 4901 H 481.069 4.67465 -3.5602 0
M  V30 4902 H 482.593 5.35886 -2.92675 0
M  V30 4903 H 484.007 3.64888 -4.42187 0
M  V30 4904 H 482.404 3.20245 -5.07507 0
M  V30 4905 H 483.474 1.93692 -4.44535 0
M  V30 4906 N 484.817 1.37938 0.762283 0
M  V30 4907 C 485.78 1.34279 1.85747 0
M  V30 4908 C 486.78 0.244969 1.58923 0
M  V30 4909 O 487.97 0.501365 1.66829 0
M  V30 4910 C 485.102 1.08833 3.23061 0
M  V30 4911 H 486.295 2.31705 1.90401 0
M  V30 4912 H 483.848 1.23105 0.963057 0
M  V30 4913 H 484.583 0.119767 3.24079 0
M  V30 4914 H 484.368 1.88306 3.43923 0
M  V30 4915 H 485.858 1.08946 4.03138 0
M  V30 4916 N 486.295 -0.989507 1.22664 0
M  V30 4917 C 487.258 -2.06183 1.00106 0
M  V30 4918 C 488.258 -1.60765 -0.0337726 0
M  V30 4919 O 489.448 -1.72989 0.205072 0
M  V30 4920 C 486.58 -3.37021 0.51279 0
M  V30 4921 H 487.773 -2.27629 1.95256 0
M  V30 4922 H 485.326 -1.16158 1.0458 0
M  V30 4923 H 486.061 -3.21261 -0.442917 0
M  V30 4924 H 485.846 -3.71323 1.25942 0
M  V30 4925 H 487.336 -4.1591 0.375315 0
M  V30 4926 N 487.773 -1.03688 -1.18687 0
M  V30 4927 C 489.189 -0.755413 -1.4059 0
M  V30 4928 C 489.389 0.656659 -1.905 0
M  V30 4929 O 488.445 1.42144 -2.08689 0
M  V30 4930 C 489.758 -1.7983 -2.41001 0
M  V30 4931 C 491.306 -1.81877 -2.54735 0
M  V30 4932 C 491.781 -2.85148 -3.58406 0
M  V30 4933 N 493.272 -2.84015 -3.6591 0
M  V30 4934 C 494.007 -3.60573 -4.45841 0
M  V30 4935 N 493.503 -4.46871 -5.29413 0
M  V30 4936 N 495.296 -3.49079 -4.40568 0
M  V30 4937 H 487.447 -1.94818 -0.846148 0
M  V30 4938 H 489.71 -0.842727 -0.434184 0
M  V30 4939 H 489.416 -2.81097 -2.1137 0
M  V30 4940 H 489.29 -1.62727 -3.40294 0
M  V30 4941 H 491.677 -0.812836 -2.83685 0
M  V30 4942 H 491.758 -2.03057 -1.55568 0
M  V30 4943 H 491.402 -3.85918 -3.30197 0
M  V30 4944 H 491.332 -2.61224 -4.57241 0
M  V30 4945 H 493.823 -2.21431 -3.0623 0
M  V30 4946 H 494.136 -5.02007 -5.87545 0
M  V30 4947 H 492.481 -4.5094 -5.28846 0
M  V30 4948 H 495.672 -2.81066 -3.74325 0
M  V30 4949 H 495.845 -4.08994 -5.02621 0
M  V30 4950 N 489.251 1.34841 -0.815825 0
M  V30 4951 C 490.181 2.32187 -0.247298 0
M  V30 4952 C 491.162 1.5791 0.632344 0
M  V30 4953 O 492.347 1.8593 0.560698 0
M  V30 4954 C 489.477 3.42122 0.597466 0
M  V30 4955 C 488.431 4.27602 -0.184446 0
M  V30 4956 C 487.757 5.28942 0.782609 0
M  V30 4957 C 489.057 5.03502 -1.38865 0
M  V30 4958 H 490.751 2.79985 -1.06061 0
M  V30 4959 H 488.297 1.34611 -0.511461 0
M  V30 4960 H 490.25 4.09232 1.00533 0
M  V30 4961 H 488.974 2.92956 1.44376 0
M  V30 4962 H 487.633 3.62085 -0.573592 0
M  V30 4963 H 487.281 4.7604 1.62466 0
M  V30 4964 H 486.981 5.87008 0.263695 0
M  V30 4965 H 488.505 5.98922 1.18848 0
M  V30 4966 H 489.919 5.63506 -1.05518 0
M  V30 4967 H 488.316 5.71108 -1.8427 0
M  V30 4968 H 489.386 4.33608 -2.17054 0
M  V30 4969 N 490.729 0.570148 1.46925 0
M  V30 4970 C 491.954 0.0542592 2.07329 0
M  V30 4971 C 492.379 -1.23582 1.41806 0
M  V30 4972 O 491.737 -1.74341 0.497479 0
M  V30 4973 C 491.785 -0.111175 3.60429 0
M  V30 4974 O 490.889 -1.17071 3.95434 0
M  V30 4975 H 490.23 0.0571425 0.661537 0
M  V30 4976 H 492.76 0.789516 1.88753 0
M  V30 4977 H 492.77 -0.321315 4.06733 0
M  V30 4978 H 491.445 0.831012 4.07513 0
M  V30 4979 H 490.022 -0.940029 3.60857 0
M  V30 4980 N 492.207 -1.54576 0.307264 0
M  V30 4981 C 493.453 -2.01272 -0.293453 0
M  V30 4982 C 493.808 -1.19178 -1.51044 0
M  V30 4983 O 493.101 -0.261704 -1.89804 0
M  V30 4984 C 493.295 -3.50572 -0.695253 0
M  V30 4985 C 493.124 -4.47118 0.481249 0
M  V30 4986 C 491.894 -4.958 0.97524 0
M  V30 4987 C 494.092 -4.96853 1.32823 0
M  V30 4988 N 492.074 -5.76212 2.11785 0
M  V30 4989 C 493.445 -5.75028 2.31824 0
M  V30 4990 C 495.5 -4.79026 1.35788 0
M  V30 4991 C 494.203 -6.37276 3.33574 0
M  V30 4992 C 496.229 -5.42097 2.364 0
M  V30 4993 C 495.591 -6.2011 3.34129 0
M  V30 4994 H 491.69 -0.778709 -0.0716705 0
M  V30 4995 H 494.274 -1.89695 0.438602 0
M  V30 4996 H 492.445 -3.62427 -1.39647 0
M  V30 4997 H 494.177 -3.84056 -1.27604 0
M  V30 4998 H 490.932 -4.70405 0.549184 0
M  V30 4999 H 491.356 -6.21101 2.69375 0
M  V30 5000 H 495.998 -4.18288 0.616021 0
M  V30 5001 H 493.716 -6.97144 4.08676 0
M  V30 5002 H 497.302 -5.30229 2.39475 0
M  V30 5003 H 496.182 -6.68049 4.10707 0
M  V30 5004 N 493.685 -0.035106 -1.57561 0
M  V30 5005 C 494.633 0.962707 -2.11742 0
M  V30 5006 C 495.627 1.33296 -1.0454 0
M  V30 5007 O 496.833 1.31449 -1.22968 0
M  V30 5008 H 493.208 0.32826 -0.676572 0
M  V30 5009 H 495.179 0.48048 -2.94506 0
M  V30 5010 C 493.928 2.23388 -2.66445 0
M  V30 5011 H 493.251 1.95774 -3.48587 0
M  V30 5012 H 494.691 2.91402 -3.07995 0
M  V30 5013 C 493.15 2.96769 -1.59467 0
M  V30 5014 O 493.68 3.89105 -0.998 0
M  V30 5015 N 491.886 2.59212 -1.31369 0
M  V30 5016 H 491.433 1.84202 -1.80076 0
M  V30 5017 H 491.391 3.08618 -0.600173 0
M  V30 5018 N 495.163 1.55791 0.238111 0
M  V30 5019 C 496.095 1.87513 1.31802 0
M  V30 5020 C 497.108 0.762053 1.43863 0
M  V30 5021 O 498.297 1.04024 1.45056 0
M  V30 5022 C 495.397 2.05402 2.69561 0
M  V30 5023 C 494.57 3.3632 2.79656 0
M  V30 5024 C 493.629 3.43844 3.98319 0
M  V30 5025 O 492.655 4.16994 3.87433 0
M  V30 5026 N 493.857 2.73777 5.11885 0
M  V30 5027 H 496.622 2.80734 1.04922 0
M  V30 5028 H 494.183 1.56135 0.428196 0
M  V30 5029 H 496.175 2.07769 3.47296 0
M  V30 5030 H 494.745 1.18884 2.89111 0
M  V30 5031 H 493.965 3.46195 1.88528 0
M  V30 5032 H 495.253 4.22594 2.83358 0
M  V30 5033 H 494.651 2.14094 5.23622 0
M  V30 5034 H 493.208 2.81825 5.87723 0
M  V30 5035 N 496.642 -0.504142 1.49319 0
M  V30 5036 C 497.888 -1.26033 1.58882 0
M  V30 5037 C 498.221 -1.92268 0.273274 0
M  V30 5038 O 497.496 -1.80567 -0.72291 0
M  V30 5039 C 497.779 -2.32976 2.7458 0
M  V30 5040 C 497.632 -1.71263 4.1592 0
M  V30 5041 C 498.951 -3.34561 2.85932 0
M  V30 5042 H 496.07 -0.456863 0.578312 0
M  V30 5043 H 498.712 -0.558965 1.81592 0
M  V30 5044 H 496.862 -2.92796 2.55348 0
M  V30 5045 H 498.534 -1.15294 4.4666 0
M  V30 5046 H 496.777 -1.01686 4.21714 0
M  V30 5047 H 497.448 -2.48816 4.92742 0
M  V30 5048 H 499.924 -2.84727 3.0343 0
M  V30 5049 H 498.8 -4.06754 3.68568 0
M  V30 5050 H 499.061 -3.96695 1.95154 0
M  V30 5051 N 498.12 -1.38341 -0.754957 0
M  V30 5052 C 499.397 -1.24995 -1.50451 0
M  V30 5053 C 499.777 0.149244 -2.10572 0
M  V30 5054 O 499.125 1.15861 -1.96948 0
M  V30 5055 C 499.335 -2.35904 -2.57197 0
M  V30 5056 C 500.683 -2.74262 -3.24138 0
M  V30 5057 O 501.707 -2.35205 -2.67501 0
M  V30 5058 O 500.566 -3.4161 -4.26574 0
M  V30 5059 H 497.66 -0.48872 -0.667144 0
M  V30 5060 H 500.206 -1.50165 -0.790486 0
M  V30 5061 H 498.978 -3.2953 -2.11011 0
M  V30 5062 H 498.601 -2.12291 -3.36182 0
M  V30 5063 N 499.598 0.982988 -1.23187 0
M  V30 5064 C 500.53 2.07729 -0.968572 0
M  V30 5065 C 501.543 1.62702 0.0564821 0
M  V30 5066 O 502.732 1.77603 -0.178733 0
M  V30 5067 C 499.832 3.36071 -0.436974 0
M  V30 5068 C 499.005 4.10081 -1.52159 0
M  V30 5069 C 498.064 5.16701 -0.99532 0
M  V30 5070 O 497.09 5.43727 -1.68373 0
M  V30 5071 N 498.292 5.80226 0.178192 0
M  V30 5072 H 501.057 2.30894 -1.9107 0
M  V30 5073 H 498.618 1.14949 -1.1401 0
M  V30 5074 H 500.61 4.04639 -0.0700051 0
M  V30 5075 H 499.18 3.09893 0.410509 0
M  V30 5076 H 498.4 3.36004 -2.06144 0
M  V30 5077 H 499.688 4.56295 -2.25105 0
M  V30 5078 H 499.086 5.60651 0.754096 0
M  V30 5079 H 497.643 6.49982 0.486449 0
M  V30 5080 N 501.076 1.04316 1.18135 0
M  V30 5081 C 502.322 0.749128 1.88457 0
M  V30 5082 C 502.655 -0.72149 1.803 0
M  V30 5083 O 501.93 -1.52676 1.205 0
M  V30 5084 C 502.213 1.21905 3.38838 0
M  V30 5085 C 502.066 2.75195 3.55792 0
M  V30 5086 C 503.385 0.811085 4.32561 0
M  V30 5087 H 500.504 0.273611 0.684329 0
M  V30 5088 H 503.146 1.29561 1.38975 0
M  V30 5089 H 501.296 0.754137 3.8111 0
M  V30 5090 H 502.968 3.29743 3.22595 0
M  V30 5091 H 501.211 3.14899 2.98364 0
M  V30 5092 H 501.882 3.03135 4.61317 0
M  V30 5093 H 504.358 1.21118 3.98082 0
M  V30 5094 H 503.234 1.16761 5.36338 0
M  V30 5095 H 503.495 -0.285596 4.41177 0
M  V30 5096 N 502.554 -1.34406 0.822964 0
M  V30 5097 C 503.803 -1.97542 0.407458 0
M  V30 5098 C 504.116 -1.65973 -1.035 0
M  V30 5099 O 505.322 -2.22598 -1.55442 0
M  V30 5100 C 503.778 -3.53463 0.677623 0
M  V30 5101 C 503.386 -3.93925 2.1337 0
M  V30 5102 C 505.13 -4.23229 0.328284 0
M  V30 5103 C 503.037 -5.42759 2.34876 0
M  V30 5104 H 501.967 -0.739207 0.148623 0
M  V30 5105 H 504.618 -1.53248 1.00932 0
M  V30 5106 H 503 -3.96 0.00558965 0
M  V30 5107 H 504.174 -3.62494 2.8449 0
M  V30 5108 H 502.489 -3.37097 2.44448 0
M  V30 5109 H 505.086 -5.32659 0.466794 0
M  V30 5110 H 505.429 -4.09899 -0.727224 0
M  V30 5111 H 505.962 -3.86169 0.954896 0
M  V30 5112 H 502.701 -5.61075 3.38932 0
M  V30 5113 H 502.221 -5.75704 1.68299 0
M  V30 5114 H 503.9 -6.0944 2.17236 0
M  V30 5115 N 504.032 -0.577932 -1.46621 0
M  V30 5116 C 505.448 -0.239242 -1.57797 0
M  V30 5117 C 505.648 1.25843 -1.57371 0
M  V30 5118 O 504.704 2.03988 -1.48813 0
M  V30 5119 C 506.017 -0.884227 -2.87405 0
M  V30 5120 C 507.565 -0.857373 -3.01028 0
M  V30 5121 C 508.04 -1.48181 -4.33366 0
M  V30 5122 N 509.531 -1.44593 -4.40053 0
M  V30 5123 C 510.266 -1.89852 -5.41058 0
M  V30 5124 N 509.762 -2.43062 -6.48762 0
M  V30 5125 N 511.555 -1.80797 -5.3223 0
M  V30 5126 H 503.706 -1.55073 -1.45142 0
M  V30 5127 H 505.969 -0.647903 -0.692044 0
M  V30 5128 H 505.675 -1.93759 -2.93514 0
M  V30 5129 H 505.549 -0.389585 -3.75183 0
M  V30 5130 H 507.936 0.187357 -2.94505 0
M  V30 5131 H 508.017 -1.38999 -2.14739 0
M  V30 5132 H 507.661 -2.52572 -4.40647 0
M  V30 5133 H 507.591 -0.924464 -5.18422 0
M  V30 5134 H 510.082 -1.05694 -3.62819 0
M  V30 5135 H 510.395 -2.75466 -7.22038 0
M  V30 5136 H 508.74 -2.47085 -6.49595 0
M  V30 5137 H 511.931 -1.38989 -4.46989 0
M  V30 5138 H 512.104 -2.16385 -6.10804 0
M  V30 5139 N 505.51 1.54411 -0.315457 0
M  V30 5140 C 506.458 2.25514 0.569771 0
M  V30 5141 C 507.452 1.2663 1.12522 0
M  V30 5142 O 508.658 1.44434 1.07419 0
M  V30 5143 H 505.033 0.724257 0.202376 0
M  V30 5144 H 507.004 2.98354 -0.0522895 0
M  V30 5145 C 505.753 3.02004 1.72305 0
M  V30 5146 H 505.076 3.77906 1.30488 0
M  V30 5147 H 506.516 3.55014 2.31821 0
M  V30 5148 C 504.975 2.09822 2.63583 0
M  V30 5149 O 505.505 1.67574 3.65078 0
M  V30 5150 N 503.711 1.75478 2.31637 0
M  V30 5151 H 503.258 2.10032 1.49145 0
M  V30 5152 H 503.216 1.14079 2.92973 0
M  V30 5153 N 506.988 0.0434614 1.5754 0
M  V30 5154 C 507.951 -0.918696 2.09982 0
M  V30 5155 C 508.951 -1.24488 1.01781 0
M  V30 5156 O 510.141 -1.18284 1.27885 0
M  V30 5157 C 507.273 -2.23093 2.57764 0
M  V30 5158 H 508.466 -0.464229 2.96285 0
M  V30 5159 H 506.019 -0.204818 1.54952 0
M  V30 5160 H 506.754 -2.73137 1.74832 0
M  V30 5161 H 506.539 -2.00724 3.36827 0
M  V30 5162 H 508.029 -2.92028 2.98512 0
M  V30 5163 N 508.466 -1.55915 -0.229846 0
M  V30 5164 C 509.396 -1.94754 -1.28815 0
M  V30 5165 C 510.377 -0.814657 -1.49323 0
M  V30 5166 O 511.562 -1.07631 -1.61645 0
M  V30 5167 C 508.692 -2.25705 -2.63959 0
M  V30 5168 C 507.646 -3.41406 -2.5812 0
M  V30 5169 C 506.972 -3.57941 -3.97218 0
M  V30 5170 C 508.272 -4.76616 -2.13623 0
M  V30 5171 H 509.966 -2.83404 -0.965547 0
M  V30 5172 H 507.512 -1.36353 -0.463028 0
M  V30 5173 H 509.465 -2.51467 -3.38146 0
M  V30 5174 H 508.189 -1.339 -2.9789 0
M  V30 5175 H 506.848 -3.1568 -1.86391 0
M  V30 5176 H 506.496 -2.63526 -4.28443 0
M  V30 5177 H 506.196 -4.35757 -3.94195 0
M  V30 5178 H 507.72 -3.86042 -4.73079 0
M  V30 5179 H 509.134 -5.01637 -2.77549 0
M  V30 5180 H 507.531 -5.57655 -2.21677 0
M  V30 5181 H 508.601 -4.7253 -1.08829 0
M  V30 5182 N 509.944 0.496216 -1.49584 0
M  V30 5183 C 510.907 1.57952 -1.66084 0
M  V30 5184 C 511.907 1.51729 -0.53244 0
M  V30 5185 O 513.097 1.54796 -0.79899 0
M  V30 5186 C 510.229 2.97604 -1.66268 0
M  V30 5187 H 511.422 1.44649 -2.6271 0
M  V30 5188 H 508.975 0.7208 -1.38687 0
M  V30 5189 H 509.71 3.16378 -0.712432 0
M  V30 5190 H 509.495 3.03528 -2.4822 0
M  V30 5191 H 510.985 3.76301 -1.81073 0
M  V30 5192 N 511.423 1.38739 0.74761 0
M  V30 5193 C 512.648 1.38702 1.54197 0
M  V30 5194 C 513.073 -0.019664 1.8809 0
M  V30 5195 O 512.431 -1.00333 1.51006 0
M  V30 5196 C 512.479 2.25492 2.814 0
M  V30 5197 O 511.583 1.67613 3.76802 0
M  V30 5198 H 510.924 0.472863 0.466151 0
M  V30 5199 H 513.454 1.82577 0.923413 0
M  V30 5200 H 513.464 2.39561 3.30264 0
M  V30 5201 H 512.139 3.27727 2.56062 0
M  V30 5202 H 510.716 1.62718 3.35526 0
M  V30 5203 N 512.901 -0.976442 1.23707 0
M  V30 5204 C 514.312 -1.53284 1.06587 0
M  V30 5205 C 514.663 -1.92765 -0.365526 0
M  V30 5206 O 513.788 -1.7645 -1.25277 0
M  V30 5207 C 514.383 -2.78548 1.92864 0
M  V30 5208 C 512.942 -3.30574 1.79994 0
M  V30 5209 C 512.089 -2.03538 1.88328 0
M  V30 5210 H 515.04 -0.795692 1.37311 0
M  V30 5211 H 515.061 -3.5155 1.45577 0
M  V30 5212 H 514.573 -2.49782 2.97037 0
M  V30 5213 H 512.674 -3.64211 0.786202 0
M  V30 5214 H 512.787 -4.00065 2.636 0
M  V30 5215 H 511.151 -2.17853 1.31954 0
M  V30 5216 H 511.934 -1.77149 2.94063 0
M  V30 5217 N 514.379 -1.04941 -1.1758 0
M  V30 5218 C 515.627 -0.756492 -1.87408 0
M  V30 5219 C 515.948 0.718478 -1.81281 0
M  V30 5220 O 515.218 1.519 -1.23706 0
M  V30 5221 H 513.798 -0.276841 -0.693807 0
M  V30 5222 H 516.46 -1.32803 -1.42652 0
M  V30 5223 H 515.556 -1.06918 -2.93215 0
M  V30 5224 N 515.857 1.33968 -0.830081 0
M  V30 5225 C 517.082 2.02813 -0.433796 0
M  V30 5226 C 517.507 1.62076 0.954614 0
M  V30 5227 O 516.865 0.808955 1.62252 0
M  V30 5228 C 516.913 3.56348 -0.552115 0
M  V30 5229 O 516.017 4.10202 0.425191 0
M  V30 5230 H 515.358 0.639817 -0.177567 0
M  V30 5231 H 517.888 1.7106 -1.12248 0
M  V30 5232 H 517.898 4.05722 -0.430513 0
M  V30 5233 H 516.573 3.85344 -1.56471 0
M  V30 5234 H 515.15 3.71979 0.261878 0
M  V30 5235 N 517.335 0.585699 1.46312 0
M  V30 5236 C 518.583 0.072278 2.01971 0
M  V30 5237 C 518.904 -1.29345 1.45928 0
M  V30 5238 O 518.174 -1.84973 0.645109 0
M  V30 5239 H 516.754 0.023729 0.746623 0
M  V30 5240 H 519.416 0.762155 1.7938 0
M  V30 5241 H 518.512 0.00552767 3.121 0
M  V30 5242 N 518.813 -1.54241 0.323641 0
M  V30 5243 C 520.061 -2.00174 -0.278359 0
M  V30 5244 C 520.382 -1.2134 -1.52648 0
M  V30 5245 O 519.652 -0.315244 -1.93347 0
M  V30 5246 H 518.232 -0.739463 -0.105845 0
M  V30 5247 H 520.894 -1.89864 0.440204 0
M  V30 5248 H 519.99 -3.07486 -0.5347 0
M  V30 5249 N 520.291 -0.0518155 -1.57515 0
M  V30 5250 C 521.568 0.661727 -1.84067 0
M  V30 5251 C 521.948 1.88999 -0.940351 0
M  V30 5252 O 521.296 2.285 -0.00155404 0
M  V30 5253 C 521.506 1.01841 -3.3381 0
M  V30 5254 C 522.854 1.40043 -4.00841 0
M  V30 5255 O 523.878 1.11073 -3.38439 0
M  V30 5256 O 522.737 1.94111 -5.10865 0
M  V30 5257 H 519.831 0.326702 -0.759733 0
M  V30 5258 H 522.377 -0.0812277 -1.69505 0
M  V30 5259 H 521.149 0.145202 -3.91031 0
M  V30 5260 H 520.772 1.81879 -3.53562 0
M  V30 5261 N 521.769 1.56035 0.221574 0
M  V30 5262 C 522.699 1.95434 1.2778 0
M  V30 5263 C 523.68 0.822564 1.48889 0
M  V30 5264 O 524.865 1.08486 1.61072 0
M  V30 5265 C 521.995 2.27102 2.62759 0
M  V30 5266 C 520.949 3.4277 2.56306 0
M  V30 5267 C 520.275 3.60043 3.95314 0
M  V30 5268 C 521.575 4.77742 2.11093 0
M  V30 5269 H 523.269 2.83912 0.950504 0
M  V30 5270 H 520.815 1.36596 0.455791 0
M  V30 5271 H 522.768 2.53256 3.36807 0
M  V30 5272 H 521.492 1.35478 2.97176 0
M  V30 5273 H 520.151 3.16664 1.84715 0
M  V30 5274 H 519.799 2.65794 4.27039 0
M  V30 5275 H 519.499 4.37841 3.91879 0
M  V30 5276 H 521.023 3.88545 4.71025 0
M  V30 5277 H 522.437 5.03102 2.74885 0
M  V30 5278 H 520.834 5.58823 2.18716 0
M  V30 5279 H 521.904 4.731 1.06321 0
M  V30 5280 N 523.247 -0.488276 1.49845 0
M  V30 5281 C 524.495 -1.23911 1.59657 0
M  V30 5282 C 524.816 -1.92816 0.291005 0
M  V30 5283 O 524.086 -1.83328 -0.690485 0
M  V30 5284 H 522.666 -0.460357 0.588286 0
M  V30 5285 H 525.328 -0.564794 1.86537 0
M  V30 5286 H 524.424 -1.99625 2.39909 0
M  V30 5287 N 524.725 -1.39134 -0.740242 0
M  V30 5288 C 525.635 -1.39697 -1.88473 0
M  V30 5289 C 526.651 -0.292403 -1.71526 0
M  V30 5290 O 527.827 -0.533021 -1.94219 0
M  V30 5291 C 524.892 -1.23382 -3.24003 0
M  V30 5292 C 523.953 -2.43763 -3.53381 0
M  V30 5293 C 523.186 -2.28216 -4.82445 0
M  V30 5294 O 523.409 -1.28288 -5.55786 0
M  V30 5295 O 522.343 -3.1709 -5.11603 0
M  V30 5296 H 526.169 -2.36159 -1.90952 0
M  V30 5297 H 523.754 -1.20194 -0.887346 0
M  V30 5298 H 525.636 -1.16395 -4.05006 0
M  V30 5299 H 524.311 -0.300121 -3.22306 0
M  V30 5300 H 523.218 -2.56325 -2.72485 0
M  V30 5301 H 524.551 -3.35808 -3.59852 0
M  V30 5302 N 526.204 0.969867 -1.24223 0
M  V30 5303 C 527.167 2.04564 -1.03373 0
M  V30 5304 C 528.167 1.60798 0.00819206 0
M  V30 5305 O 529.357 1.72641 -0.232567 0
M  V30 5306 C 526.489 3.36163 -0.566343 0
M  V30 5307 H 527.682 2.24494 -1.98853 0
M  V30 5308 H 525.235 1.1448 -1.06415 0
M  V30 5309 H 525.97 3.21925 0.391751 0
M  V30 5310 H 525.755 3.69273 -1.31834 0
M  V30 5311 H 527.245 4.1526 -0.441435 0
M  V30 5312 N 527.682 1.05563 1.17022 0
M  V30 5313 C 528.931 0.763036 1.8671 0
M  V30 5314 C 529.244 -0.712857 1.82147 0
M  V30 5315 O 530.45 -1.11955 2.47343 0
M  V30 5316 C 528.906 1.31474 3.35026 0
M  V30 5317 C 528.514 2.82034 3.48081 0
M  V30 5318 C 530.258 1.09935 4.10018 0
M  V30 5319 C 528.165 3.30486 4.90442 0
M  V30 5320 H 527.095 0.281747 0.699382 0
M  V30 5321 H 529.746 1.2734 1.32124 0
M  V30 5322 H 528.128 0.732171 3.89173 0
M  V30 5323 H 529.302 3.46178 3.04133 0
M  V30 5324 H 527.617 3.02156 2.86515 0
M  V30 5325 H 530.214 1.43632 5.15048 0
M  V30 5326 H 530.557 0.0373072 4.16283 0
M  V30 5327 H 531.09 1.64732 3.62089 0
M  V30 5328 H 527.829 4.36137 4.89352 0
M  V30 5329 H 527.349 2.71086 5.35044 0
M  V30 5330 H 529.028 3.25382 5.59227 0
M  V30 5331 N 529.16 -1.33526 0.837174 0
M  V30 5332 C 530.576 -1.50727 0.524743 0
M  V30 5333 C 530.776 -1.77792 -0.948279 0
M  V30 5334 O 529.832 -1.83719 -1.73216 0
M  V30 5335 C 531.145 -2.66299 1.39661 0
M  V30 5336 C 532.693 -2.80183 1.39521 0
M  V30 5337 C 533.168 -3.98815 2.25189 0
M  V30 5338 N 534.659 -4.06047 2.2289 0
M  V30 5339 C 535.394 -4.97032 2.85915 0
M  V30 5340 N 534.89 -5.93143 3.57985 0
M  V30 5341 N 536.683 -4.90015 2.75394 0
M  V30 5342 H 528.834 -1.1422 1.79074 0
M  V30 5343 H 531.097 -0.561399 0.763894 0
M  V30 5344 H 530.803 -2.52974 2.4433 0
M  V30 5345 H 530.677 -3.61663 1.07145 0
M  V30 5346 H 533.064 -2.92942 0.356253 0
M  V30 5347 H 533.145 -1.85586 1.76044 0
M  V30 5348 H 532.789 -3.86817 3.29143 0
M  V30 5349 H 532.719 -4.92654 1.86009 0
M  V30 5350 H 535.21 -3.37262 1.70478 0
M  V30 5351 H 535.523 -6.59227 4.03286 0
M  V30 5352 H 533.868 -5.93223 3.62093 0
M  V30 5353 H 537.059 -4.13894 2.18654 0
M  V30 5354 H 537.232 -5.60724 3.24796 0
M  V30 5355 N 530.638 -0.59345 -1.46 0
M  V30 5356 C 531.548 0.135817 -2.34207 0
M  V30 5357 C 532.564 0.875008 -1.50398 0
M  V30 5358 O 533.74 0.835778 -1.83239 0
M  V30 5359 C 530.805 1.12977 -3.27776 0
M  V30 5360 C 529.866 0.394081 -4.27487 0
M  V30 5361 C 529.099 1.34068 -5.16586 0
M  V30 5362 O 529.322 2.5778 -5.08828 0
M  V30 5363 O 528.256 0.845426 -5.95933 0
M  V30 5364 H 532.082 -0.588691 -2.9794 0
M  V30 5365 H 529.667 -0.353784 -1.45151 0
M  V30 5366 H 531.549 1.70261 -3.85473 0
M  V30 5367 H 530.224 1.83556 -2.66625 0
M  V30 5368 H 529.131 -0.220869 -3.73447 0
M  V30 5369 H 530.464 -0.270939 -4.91454 0
M  V30 5370 N 532.116 1.54067 -0.331816 0
M  V30 5371 C 533.048 2.22139 0.564538 0
M  V30 5372 C 534.061 1.22408 1.07332 0
M  V30 5373 O 535.25 1.4883 0.985481 0
M  V30 5374 C 532.35 2.87876 1.78831 0
M  V30 5375 C 531.523 4.13817 1.41682 0
M  V30 5376 C 530.582 4.63072 2.49901 0
M  V30 5377 O 529.608 5.27562 2.13699 0
M  V30 5378 N 530.81 4.38001 3.80967 0
M  V30 5379 H 533.575 2.99694 -0.0183736 0
M  V30 5380 H 531.136 1.61153 -0.155396 0
M  V30 5381 H 533.128 3.17747 2.50637 0
M  V30 5382 H 531.698 2.13977 2.27887 0
M  V30 5383 H 530.918 3.9062 0.530044 0
M  V30 5384 H 532.206 4.95762 1.14443 0
M  V30 5385 H 531.604 3.864 4.13173 0
M  V30 5386 H 530.161 4.72507 4.48977 0
M  V30 5387 N 533.594 0.0601682 1.57485 0
M  V30 5388 C 535.005 -0.474217 1.80577 0
M  V30 5389 C 535.356 -1.70365 0.973147 0
M  V30 5390 O 534.481 -2.15544 0.192306 0
M  V30 5391 C 535.076 -0.867102 3.27516 0
M  V30 5392 C 533.635 -1.34642 3.51495 0
M  V30 5393 C 532.782 -0.32594 2.75378 0
M  V30 5394 H 535.733 0.285973 1.56102 0
M  V30 5395 H 535.754 -1.72938 3.38929 0
M  V30 5396 H 535.266 0.0278927 3.8809 0
M  V30 5397 H 533.367 -2.2603 2.96212 0
M  V30 5398 H 533.48 -1.33237 4.60201 0
M  V30 5399 H 531.844 -0.800749 2.41785 0
M  V30 5400 H 532.627 0.561125 3.38683 0
M  V30 5401 N 535.072 -1.5615 -0.213296 0
M  V30 5402 C 535.982 -1.96265 -1.28519 0
M  V30 5403 C 536.998 -0.86765 -1.50824 0
M  V30 5404 O 538.174 -1.17191 -1.63793 0
M  V30 5405 C 535.239 -2.27836 -2.61327 0
M  V30 5406 C 534.3 -3.50949 -2.47252 0
M  V30 5407 C 533.533 -3.81004 -3.73727 0
M  V30 5408 O 533.756 -3.12612 -4.77106 0
M  V30 5409 O 532.69 -4.74477 -3.70344 0
M  V30 5410 H 536.516 -2.87631 -0.974795 0
M  V30 5411 H 534.101 -1.43467 -0.416832 0
M  V30 5412 H 535.983 -2.49299 -3.39747 0
M  V30 5413 H 534.658 -1.39643 -2.9203 0
M  V30 5414 H 533.565 -3.34754 -1.67004 0
M  V30 5415 H 534.898 -4.39551 -2.21486 0
M  V30 5416 N 536.55 0.480323 -1.50102 0
M  V30 5417 C 537.482 1.59669 -1.64433 0
M  V30 5418 C 538.495 1.54063 -0.52615 0
M  V30 5419 O 539.684 1.59619 -0.798992 0
M  V30 5420 C 536.784 2.98527 -1.6042 0
M  V30 5421 C 535.957 3.291 -2.88117 0
M  V30 5422 C 535.016 4.47468 -2.76873 0
M  V30 5423 O 534.042 4.4823 -3.50825 0
M  V30 5424 N 535.244 5.48593 -1.89806 0
M  V30 5425 H 538.009 1.47795 -2.60723 0
M  V30 5426 H 535.57 0.66858 -1.4745 0
M  V30 5427 H 537.562 3.75666 -1.50523 0
M  V30 5428 H 536.132 3.04218 -0.719036 0
M  V30 5429 H 535.352 2.40662 -3.12211 0
M  V30 5430 H 536.64 3.46334 -3.72734 0
M  V30 5431 H 536.038 5.50791 -1.2902 0
M  V30 5432 H 534.595 6.24752 -1.85819 0
M  V30 5433 N 538.028 1.39524 0.732853 0
M  V30 5434 C 538.991 1.38189 1.82857 0
M  V30 5435 C 539.991 0.278624 1.58368 0
M  V30 5436 O 541.181 0.536639 1.65728 0
M  V30 5437 C 538.313 1.15661 3.2068 0
M  V30 5438 H 539.506 2.35692 1.85444 0
M  V30 5439 H 537.059 1.2512 0.936728 0
M  V30 5440 H 537.794 0.188482 3.23752 0
M  V30 5441 H 537.579 1.95559 3.39852 0
M  V30 5442 H 539.069 1.17472 4.00737 0
M  V30 5443 N 539.506 -0.963266 1.24736 0
M  V30 5444 C 540.922 -1.23273 1.01371 0
M  V30 5445 C 541.122 -1.99618 -0.274776 0
M  V30 5446 O 540.178 -2.32293 -0.989769 0
M  V30 5447 C 541.491 -2.01554 2.23152 0
M  V30 5448 C 543.039 -2.14629 2.27823 0
M  V30 5449 C 543.514 -2.96307 3.49237 0
M  V30 5450 N 545.005 -3.03887 3.49581 0
M  V30 5451 C 545.74 -3.67456 4.40186 0
M  V30 5452 N 545.236 -4.32706 5.41052 0
M  V30 5453 N 547.029 -3.64511 4.27888 0
M  V30 5454 H 539.18 -0.452294 2.07528 0
M  V30 5455 H 541.443 -0.262521 0.910926 0
M  V30 5456 H 541.149 -1.52847 3.1675 0
M  V30 5457 H 541.023 -3.02278 2.25628 0
M  V30 5458 H 543.41 -2.62537 1.34753 0
M  V30 5459 H 543.491 -1.13238 2.2937 0
M  V30 5460 H 543.135 -2.49091 4.42624 0
M  V30 5461 H 543.065 -3.97905 3.44933 0
M  V30 5462 H 545.556 -2.57477 2.76611 0
M  V30 5463 H 545.869 -4.79042 6.06415 0
M  V30 5464 H 544.214 -4.31361 5.44934 0
M  V30 5465 H 547.405 -3.12715 3.4832 0
M  V30 5466 H 547.578 -4.13768 4.98698 0
M  V30 5467 N 540.985 -1.06182 -1.16461 0
M  V30 5468 C 541.915 -0.692861 -2.22984 0
M  V30 5469 C 542.896 0.314122 -1.67174 0
M  V30 5470 O 544.081 0.189499 -1.93273 0
M  V30 5471 C 541.211 -0.07732 -3.47214 0
M  V30 5472 C 540.165 -1.01015 -4.15909 0
M  V30 5473 C 539.491 -0.257973 -5.34077 0
M  V30 5474 C 540.791 -2.33868 -4.67015 0
M  V30 5475 H 542.485 -1.58343 -2.54102 0
M  V30 5476 H 540.031 -0.76279 -1.22137 0
M  V30 5477 H 541.984 0.19266 -4.20959 0
M  V30 5478 H 540.708 0.848254 -3.15392 0
M  V30 5479 H 539.367 -1.26486 -3.44088 0
M  V30 5480 H 539.015 0.670684 -4.98509 0
M  V30 5481 H 538.715 -0.879638 -5.80979 0
M  V30 5482 H 540.239 0.00448788 -6.106 0
M  V30 5483 H 541.653 -2.1279 -5.32347 0
M  V30 5484 H 540.05 -2.91522 -5.24533 0
M  V30 5485 H 541.12 -2.97019 -3.83286 0
M  V30 5486 N 542.463 1.3308 -0.844243 0
M  V30 5487 C 543.426 2.27403 -0.286485 0
M  V30 5488 C 544.426 1.51179 0.547872 0
M  V30 5489 O 545.616 1.70421 0.360886 0
M  V30 5490 C 542.748 3.35653 0.595813 0
M  V30 5491 H 543.941 2.78248 -1.11885 0
M  V30 5492 H 541.494 1.43574 -0.617749 0
M  V30 5493 H 542.229 2.90058 1.4504 0
M  V30 5494 H 542.014 3.921 -0.00125994 0
M  V30 5495 H 543.504 4.05958 0.979168 0
M  V30 5496 N 543.941 0.601185 1.45683 0
M  V30 5497 C 544.871 -0.108824 2.33246 0
M  V30 5498 C 545.852 -0.865223 1.46451 0
M  V30 5499 O 547.037 -0.83704 1.75235 0
M  V30 5500 C 544.167 -1.11101 3.2905 0
M  V30 5501 C 543.121 -0.468244 4.25431 0
M  V30 5502 C 542.447 -1.57822 5.10878 0
M  V30 5503 C 543.747 0.606469 5.18767 0
M  V30 5504 H 545.441 0.622306 2.92861 0
M  V30 5505 H 542.987 0.300714 1.40825 0
M  V30 5506 H 544.94 -1.61622 3.89174 0
M  V30 5507 H 543.664 -1.87265 2.67581 0
M  V30 5508 H 542.323 0.0160484 3.66596 0
M  V30 5509 H 541.971 -2.32998 4.45781 0
M  V30 5510 H 541.671 -1.15369 5.76163 0
M  V30 5511 H 543.195 -2.08583 5.73869 0
M  V30 5512 H 544.609 0.185589 5.73 0
M  V30 5513 H 543.006 0.952381 5.92494 0
M  V30 5514 H 544.076 1.48559 4.61582 0
M  V30 5515 N 545.419 -1.53889 0.339982 0
M  V30 5516 C 546.647 -2.05271 -0.259114 0
M  V30 5517 C 547.062 -1.21517 -1.44496 0
M  V30 5518 O 546.419 -0.24966 -1.80784 0
M  V30 5519 C 546.47 -3.55092 -0.677634 0
M  V30 5520 O 546.191 -4.35667 0.461051 0
M  V30 5521 C 547.692 -4.22631 -1.33782 0
M  V30 5522 H 544.912 -0.669085 -0.0506566 0
M  V30 5523 H 547.456 -1.9852 0.490935 0
M  V30 5524 H 545.611 -3.62077 -1.37763 0
M  V30 5525 H 546.025 -5.24343 0.128144 0
M  V30 5526 H 547.499 -5.28861 -1.58145 0
M  V30 5527 H 547.976 -3.74758 -2.29027 0
M  V30 5528 H 548.582 -4.19829 -0.679957 0
M  V30 5529 N 546.897 -0.0685191 -1.57451 0
M  V30 5530 C 547.827 0.89747 -2.15564 0
M  V30 5531 C 548.808 1.31266 -1.08181 0
M  V30 5532 O 549.993 1.38429 -1.36202 0
M  V30 5533 C 547.123 2.16623 -2.71463 0
M  V30 5534 C 546.077 1.89054 -3.83982 0
M  V30 5535 C 545.403 3.22532 -4.26471 0
M  V30 5536 C 546.703 1.1984 -5.08366 0
M  V30 5537 H 548.397 0.413373 -2.96533 0
M  V30 5538 H 545.943 0.197391 -1.42641 0
M  V30 5539 H 547.896 2.84614 -3.10761 0
M  V30 5540 H 546.62 2.67269 -1.8771 0
M  V30 5541 H 545.279 1.23469 -3.45183 0
M  V30 5542 H 544.927 3.71013 -3.39644 0
M  V30 5543 H 544.627 3.04879 -5.02317 0
M  V30 5544 H 546.151 3.91727 -4.68383 0
M  V30 5545 H 547.565 1.77896 -5.45001 0
M  V30 5546 H 545.962 1.12456 -5.89469 0
M  V30 5547 H 547.032 0.176996 -4.84577 0
M  V30 5548 N 548.375 1.56261 0.205012 0
M  V30 5549 C 549.338 1.92908 1.23771 0
M  V30 5550 C 550.338 0.809208 1.38955 0
M  V30 5551 O 551.528 1.07676 1.36936 0
M  V30 5552 C 548.66 2.19442 2.60879 0
M  V30 5553 H 549.853 2.85287 0.924728 0
M  V30 5554 H 547.406 1.49798 0.446125 0
M  V30 5555 H 548.141 1.29668 2.97248 0
M  V30 5556 H 547.926 3.0104 2.51232 0
M  V30 5557 H 549.416 2.48833 3.35368 0
M  V30 5558 N 549.853 -0.472356 1.50355 0
M  V30 5559 C 550.816 -1.5529 1.68576 0
M  V30 5560 C 551.816 -1.50863 0.556511 0
M  V30 5561 O 553.006 -1.53505 0.823516 0
M  V30 5562 C 550.138 -2.94921 1.70981 0
M  V30 5563 H 551.331 -1.40451 2.64978 0
M  V30 5564 H 548.884 -0.698645 1.39816 0
M  V30 5565 H 549.619 -3.15204 0.762675 0
M  V30 5566 H 549.404 -2.99541 2.53017 0
M  V30 5567 H 550.894 -3.73372 1.87037 0
M  V30 5568 N 551.331 -1.39911 -0.725443 0
M  V30 5569 C 552.294 -1.39156 -1.82121 0
M  V30 5570 C 553.294 -0.287018 -1.58218 0
M  V30 5571 O 554.484 -0.545421 -1.65441 0
M  V30 5572 C 551.616 -1.1736 -3.20062 0
M  V30 5573 H 552.809 -2.36672 -1.84191 0
M  V30 5574 H 550.362 -1.25615 -0.930079 0
M  V30 5575 H 551.097 -0.205648 -3.23647 0
M  V30 5576 H 550.882 -1.97358 -3.3881 0
M  V30 5577 H 552.372 -1.19596 -4.00108 0
M  V30 5578 N 552.809 0.956637 -1.25245 0
M  V30 5579 C 553.719 2.0868 -1.0719 0
M  V30 5580 C 554.735 1.73997 -0.00959074 0
M  V30 5581 O 555.911 2.00301 -0.210104 0
M  V30 5582 C 552.976 3.39754 -0.690526 0
M  V30 5583 C 552.037 3.88316 -1.83055 0
M  V30 5584 C 551.27 5.13134 -1.46728 0
M  V30 5585 O 551.493 5.6925 -0.362029 0
M  V30 5586 O 550.427 5.56356 -2.29677 0
M  V30 5587 H 554.253 2.26813 -2.01965 0
M  V30 5588 H 551.838 1.07098 -1.04165 0
M  V30 5589 H 553.72 4.18543 -0.489871 0
M  V30 5590 H 552.395 3.22896 0.227981 0
M  V30 5591 H 551.302 3.1054 -2.08604 0
M  V30 5592 H 552.635 4.09669 -2.72822 0
M  V30 5593 N 554.287 1.06798 1.15896 0
M  V30 5594 C 555.512 0.808739 1.90982 0
M  V30 5595 C 555.937 -0.6316 1.77179 0
M  V30 5596 O 555.295 -1.4407 1.10061 0
M  V30 5597 C 555.343 1.21468 3.39526 0
M  V30 5598 O 554.447 0.356562 4.10856 0
M  V30 5599 H 553.788 0.29512 0.594811 0
M  V30 5600 H 556.318 1.42513 1.46804 0
M  V30 5601 H 556.328 1.18844 3.90308 0
M  V30 5602 H 555.003 2.26379 3.48891 0
M  V30 5603 H 553.58 0.444808 3.70238 0
M  V30 5604 N 555.766 -1.3263 0.851289 0
M  V30 5605 C 556.676 -2.32722 0.296268 0
M  V30 5606 C 557.692 -1.63901 -0.584162 0
M  V30 5607 O 558.868 -1.95465 -0.485334 0
M  V30 5608 C 555.933 -3.42942 -0.509103 0
M  V30 5609 C 554.994 -4.2746 0.397069 0
M  V30 5610 C 554.227 -5.32416 -0.36996 0
M  V30 5611 O 554.45 -5.47491 -1.6003 0
M  V30 5612 O 553.384 -6.01327 0.262493 0
M  V30 5613 H 557.21 -2.82078 1.12543 0
M  V30 5614 H 554.795 -1.36194 0.614135 0
M  V30 5615 H 556.677 -4.1017 -0.96634 0
M  V30 5616 H 555.352 -2.95781 -1.31512 0
M  V30 5617 H 554.259 -3.63053 0.902411 0
M  V30 5618 H 555.592 -4.78136 1.16818 0
M  V30 5619 N 557.244 -0.608902 -1.45362 0
M  V30 5620 C 558.66 -0.272659 -1.57254 0
M  V30 5621 C 558.86 1.22477 -1.60005 0
M  V30 5622 O 557.916 2.00785 -1.53106 0
M  V30 5623 C 559.229 -0.944991 -2.85465 0
M  V30 5624 C 560.777 -0.921033 -2.99142 0
M  V30 5625 C 561.252 -1.5734 -4.30126 0
M  V30 5626 N 562.743 -1.53895 -4.36887 0
M  V30 5627 C 563.478 -2.01286 -5.36909 0
M  V30 5628 N 562.974 -2.56768 -6.43461 0
M  V30 5629 N 564.767 -1.92046 -5.28275 0
M  V30 5630 H 556.918 -1.58117 -1.4182 0
M  V30 5631 H 559.181 -0.662437 -0.678146 0
M  V30 5632 H 558.887 -1.99941 -2.89338 0
M  V30 5633 H 558.761 -0.469079 -3.74272 0
M  V30 5634 H 561.148 0.124846 -2.94836 0
M  V30 5635 H 561.229 -1.43522 -2.11743 0
M  V30 5636 H 560.873 -2.61862 -4.35191 0
M  V30 5637 H 560.803 -1.03422 -5.16344 0
M  V30 5638 H 563.294 -1.13366 -3.60495 0
M  V30 5639 H 563.607 -2.9072 -7.16032 0
M  V30 5640 H 561.952 -2.60808 -6.44208 0
M  V30 5641 H 565.143 -1.48439 -4.43941 0
M  V30 5642 H 565.316 -2.29293 -6.06077 0
M  V30 5643 N 558.722 1.53707 -0.348139 0
M  V30 5644 C 559.969 2.00988 0.246966 0
M  V30 5645 C 560.297 1.23586 1.50189 0
M  V30 5646 O 559.552 0.312817 1.93184 0
M  V30 5647 C 559.851 3.52292 0.602061 0
M  V30 5648 C 559.517 4.47453 -0.556509 0
M  V30 5649 C 558.179 4.73188 -0.874446 0
M  V30 5650 C 560.531 5.03851 -1.33354 0
M  V30 5651 C 557.859 5.52577 -1.9717 0
M  V30 5652 C 560.211 5.84437 -2.42108 0
M  V30 5653 C 558.875 6.08465 -2.74456 0
M  V30 5654 H 558.145 0.735469 0.0903712 0
M  V30 5655 H 560.792 1.85464 -0.477001 0
M  V30 5656 H 559.097 3.65672 1.40681 0
M  V30 5657 H 560.794 3.86337 1.07447 0
M  V30 5658 H 557.384 4.27558 -0.298652 0
M  V30 5659 H 561.568 4.8393 -1.10117 0
M  V30 5660 H 556.824 5.69418 -2.22651 0
M  V30 5661 H 560.998 6.27151 -3.02745 0
M  V30 5662 H 558.625 6.69768 -3.59604 0
M  V30 5663 N 560.2 0.0768682 1.57412 0
M  V30 5664 C 561.446 -0.591961 1.93968 0
M  V30 5665 C 561.779 -1.68954 0.9575 0
M  V30 5666 O 561.054 -1.94496 -0.0124675 0
M  V30 5667 C 561.337 -1.16418 3.40762 0
M  V30 5668 C 561.19 -0.0728933 4.49741 0
M  V30 5669 C 562.509 -2.06814 3.88479 0
M  V30 5670 H 559.628 -0.213716 0.705333 0
M  V30 5671 H 562.27 0.14387 1.89455 0
M  V30 5672 H 560.42 -1.79128 3.4474 0
M  V30 5673 H 562.092 0.560446 4.57883 0
M  V30 5674 H 560.335 0.595859 4.29688 0
M  V30 5675 H 561.006 -0.513755 5.49604 0
M  V30 5676 H 563.482 -1.54033 3.8654 0
M  V30 5677 H 562.358 -2.43785 4.91793 0
M  V30 5678 H 562.619 -2.97844 3.26713 0
M  V30 5679 N 561.678 -1.56367 -0.196722 0
M  V30 5680 C 563.094 -1.49916 -0.54749 0
M  V30 5681 C 563.294 -0.77659 -1.85934 0
M  V30 5682 O 562.35 -0.32644 -2.50381 0
M  V30 5683 C 563.663 -2.94577 -0.603734 0
M  V30 5684 C 565.211 -3.05239 -0.692677 0
M  V30 5685 C 565.686 -4.51308 -0.780046 0
M  V30 5686 N 567.177 -4.55453 -0.843616 0
M  V30 5687 C 567.912 -5.65786 -0.931358 0
M  V30 5688 N 567.408 -6.85812 -0.981503 0
M  V30 5689 N 569.201 -5.53695 -0.968421 0
M  V30 5690 H 561.352 -2.01761 0.663803 0
M  V30 5691 H 563.615 -0.918094 0.236238 0
M  V30 5692 H 563.321 -3.50494 0.29105 0
M  V30 5693 H 563.195 -3.47841 -1.45898 0
M  V30 5694 H 565.582 -2.49372 -1.57789 0
M  V30 5695 H 565.663 -2.55103 0.188736 0
M  V30 5696 H 565.307 -5.078 0.100811 0
M  V30 5697 H 565.237 -4.99176 -1.67724 0
M  V30 5698 H 567.728 -3.69025 -0.814176 0
M  V30 5699 H 568.041 -7.65648 -1.04892 0
M  V30 5700 H 566.386 -6.88474 -0.950208 0
M  V30 5701 H 569.577 -4.58848 -0.926072 0
M  V30 5702 H 569.75 -6.39708 -1.03334 0
M  V30 5703 N 563.156 0.464375 -1.50603 0
M  V30 5704 C 564.088 1.57916 -1.66118 0
M  V30 5705 C 565.101 1.53497 -0.54246 0
M  V30 5706 O 566.29 1.58763 -0.815877 0
M  V30 5707 C 563.39 2.96809 -1.63577 0
M  V30 5708 C 562.563 3.26026 -2.91592 0
M  V30 5709 C 561.622 4.44506 -2.81604 0
M  V30 5710 O 560.648 4.44484 -3.55559 0
M  V30 5711 N 561.85 5.46549 -1.95614 0
M  V30 5712 H 564.615 1.45022 -2.62276 0
M  V30 5713 H 562.176 0.652903 -1.48151 0
M  V30 5714 H 564.168 3.74048 -1.54499 0
M  V30 5715 H 562.738 3.03438 -0.751262 0
M  V30 5716 H 561.958 2.37337 -3.14746 0
M  V30 5717 H 563.246 3.42361 -3.76386 0
M  V30 5718 H 562.644 5.49391 -1.34854 0
M  V30 5719 H 561.201 6.22746 -1.92435 0
M  V30 5720 N 564.634 1.40294 0.718013 0
M  V30 5721 C 565.882 1.38167 1.47494 0
M  V30 5722 C 566.203 -0.01607 1.94993 0
M  V30 5723 O 565.473 -0.970396 1.70177 0
M  V30 5724 H 564.053 0.508505 0.547203 0
M  V30 5725 H 566.715 1.75324 0.851322 0
M  V30 5726 H 565.811 2.05503 2.34894 0
M  V30 5727 N 566.112 -0.949982 1.2575 0
M  V30 5728 C 567.34 -1.72972 1.13527 0
M  V30 5729 C 567.755 -1.8623 -0.310453 0
M  V30 5730 O 567.112 -1.36336 -1.2132 0
M  V30 5731 C 567.163 -3.14108 1.78936 0
M  V30 5732 O 566.884 -3.01493 3.17858 0
M  V30 5733 C 568.385 -4.08338 1.72554 0
M  V30 5734 H 565.605 -0.541864 0.395758 0
M  V30 5735 H 568.149 -1.19151 1.66202 0
M  V30 5736 H 566.304 -3.64858 1.30221 0
M  V30 5737 H 566.718 -3.90559 3.50092 0
M  V30 5738 H 568.192 -5.04963 2.22973 0
M  V30 5739 H 568.669 -4.33742 0.690251 0
M  V30 5740 H 569.275 -3.63506 2.2078 0
M  V30 5741 N 567.59 -1.07411 -1.15328 0
M  V30 5742 C 568.838 -0.796073 -1.85761 0
M  V30 5743 C 569.159 0.679864 -1.82764 0
M  V30 5744 O 568.429 1.49242 -1.269 0
M  V30 5745 H 567.009 -0.291495 -0.687779 0
M  V30 5746 H 569.671 -1.35799 -1.39802 0
M  V30 5747 H 568.767 -1.13114 -2.90881 0
M  V30 5748 N 569.068 1.32177 -0.85831 0
M  V30 5749 C 570.016 2.30729 -0.294442 0
M  V30 5750 C 571.01 1.59009 0.584165 0
M  V30 5751 O 572.216 1.73713 0.471562 0
M  V30 5752 H 568.591 0.748097 -0.0765171 0
M  V30 5753 H 570.562 2.75774 -1.1398 0
M  V30 5754 C 569.311 3.44098 0.499208 0
M  V30 5755 H 568.634 3.99449 -0.167579 0
M  V30 5756 H 570.074 4.15202 0.859273 0
M  V30 5757 C 568.533 2.91684 1.68588 0
M  V30 5758 O 569.063 2.89481 2.78503 0
M  V30 5759 N 567.269 2.48036 1.51415 0
M  V30 5760 H 566.816 2.50027 0.620006 0
M  V30 5761 H 566.774 2.13322 2.30957 0
M  V30 5762 N 570.547 0.616602 1.45037 0
M  V30 5763 C 571.824 0.0469086 1.95544 0
M  V30 5764 C 572.204 -1.42345 1.55888 0
M  V30 5765 O 571.552 -2.13055 0.825824 0
M  V30 5766 C 571.762 0.254489 3.48071 0
M  V30 5767 C 573.11 0.140025 4.24369 0
M  V30 5768 O 574.134 0.185084 3.55719 0
M  V30 5769 O 572.993 0.0327034 5.4649 0
M  V30 5770 H 570.087 -0.0306051 0.826433 0
M  V30 5771 H 572.633 0.687293 1.55159 0
M  V30 5772 H 571.405 1.27532 3.69934 0
M  V30 5773 H 571.028 -0.42073 3.95368 0
M  V30 5774 N 572.025 -1.5352 0.356285 0
M  V30 5775 C 572.935 -2.29151 -0.502712 0
M  V30 5776 C 573.951 -1.34753 -1.1008 0
M  V30 5777 O 575.127 -1.67803 -1.11374 0
M  V30 5778 C 572.192 -3.05911 -1.63154 0
M  V30 5779 C 571.253 -4.15958 -1.06194 0
M  V30 5780 C 570.486 -4.8905 -2.13696 0
M  V30 5781 O 570.709 -4.61919 -3.34645 0
M  V30 5782 O 569.643 -5.75202 -1.77275 0
M  V30 5783 H 573.469 -3.03492 0.112466 0
M  V30 5784 H 571.054 -1.4891 0.120942 0
M  V30 5785 H 572.936 -3.53874 -2.28804 0
M  V30 5786 H 571.611 -2.34415 -2.23229 0
M  V30 5787 H 570.518 -3.7227 -0.369603 0
M  V30 5788 H 571.851 -4.89593 -0.505872 0
M  V30 5789 N 573.503 -0.0852151 -1.57369 0
M  V30 5790 C 574.466 0.8627 -2.12344 0
M  V30 5791 C 575.466 1.21746 -1.05046 0
M  V30 5792 O 576.656 1.14852 -1.30976 0
M  V30 5793 C 573.788 2.1618 -2.63589 0
M  V30 5794 H 574.981 0.385511 -2.97412 0
M  V30 5795 H 572.534 0.163663 -1.55441 0
M  V30 5796 H 573.269 2.68406 -1.82013 0
M  V30 5797 H 573.054 1.91723 -3.4203 0
M  V30 5798 H 574.544 2.84011 -3.06149 0
M  V30 5799 N 574.981 1.5647 0.188427 0
M  V30 5800 C 576.229 1.80655 0.905986 0
M  V30 5801 C 576.55 0.659391 1.83513 0
M  V30 5802 O 575.82 -0.321868 1.93238 0
M  V30 5803 H 574.4 0.666391 0.337538 0
M  V30 5804 H 577.062 1.93949 0.192339 0
M  V30 5805 H 576.158 2.74066 1.49313 0
M  V30 5806 N 576.459 -0.456382 1.50847 0
M  V30 5807 C 577.422 -1.53493 1.70213 0
M  V30 5808 C 578.422 -1.50264 0.572481 0
M  V30 5809 O 579.612 -1.52623 0.839751 0
M  V30 5810 C 576.744 -2.93091 1.741 0
M  V30 5811 H 577.937 -1.37633 2.66453 0
M  V30 5812 H 575.49 -0.683776 1.4055 0
M  V30 5813 H 576.225 -3.14378 0.796063 0
M  V30 5814 H 576.01 -2.9684 2.5618 0
M  V30 5815 H 577.5 -3.71368 1.90987 0
M  V30 5816 N 577.937 -1.40673 -0.710563 0
M  V30 5817 C 578.9 -1.4108 -1.80635 0
M  V30 5818 C 579.9 -0.303783 -1.57904 0
M  V30 5819 O 581.09 -0.562937 -1.64853 0
M  V30 5820 C 578.222 -1.20748 -3.18799 0
M  V30 5821 H 579.415 -2.38612 -1.81671 0
M  V30 5822 H 576.968 -1.26595 -0.916704 0
M  V30 5823 H 577.703 -0.239964 -3.23411 0
M  V30 5824 H 577.488 -2.00941 -3.36698 0
M  V30 5825 H 578.978 -1.23833 -3.98817 0
M  V30 5826 N 579.415 0.9433 -1.26252 0
M  V30 5827 C 580.64 1.72898 -1.14547 0
M  V30 5828 C 581.065 1.85761 0.295743 0
M  V30 5829 O 580.423 1.3463 1.21427 0
M  V30 5830 C 580.471 3.11471 -1.8171 0
M  V30 5831 O 579.575 3.97336 -1.10445 0
M  V30 5832 H 578.916 0.530555 -0.399259 0
M  V30 5833 H 581.446 1.18159 -1.67032 0
M  V30 5834 H 581.456 3.61872 -1.88449 0
M  V30 5835 H 580.131 3.01425 -2.86558 0
M  V30 5836 H 578.708 3.55788 -1.11666 0
M  V30 5837 N 580.893 1.08022 1.14757 0
M  V30 5838 C 581.856 0.71048 2.1791 0
M  V30 5839 C 582.856 -0.252731 1.58801 0
M  V30 5840 O 584.046 -0.0327915 1.74169 0
M  V30 5841 C 581.178 0.0483203 3.40866 0
M  V30 5842 H 582.371 1.62384 2.52134 0
M  V30 5843 H 579.924 0.877595 1.29337 0
M  V30 5844 H 580.659 -0.876959 3.12218 0
M  V30 5845 H 580.444 0.741189 3.85031 0
M  V30 5846 H 581.934 -0.195471 4.17142 0
M  V30 5847 N 582.371 -1.3172 0.865308 0
M  V30 5848 C 583.648 -1.91574 0.394789 0
M  V30 5849 C 584.028 -1.78769 -1.12271 0
M  V30 5850 O 583.376 -1.19245 -1.94918 0
M  V30 5851 C 583.586 -3.37957 0.870982 0
M  V30 5852 C 584.934 -4.15073 0.894384 0
M  V30 5853 O 585.958 -3.4672 0.816325 0
M  V30 5854 O 584.817 -5.37151 1.00651 0
M  V30 5855 H 581.911 -0.818649 0.117229 0
M  V30 5856 H 584.457 -1.4042 0.952913 0
M  V30 5857 H 583.229 -3.41269 1.91444 0
M  V30 5858 H 582.852 -3.96534 0.290907 0
M  V30 5859 N 583.85 -0.624285 -1.44708 0
M  V30 5860 C 585.096 -0.126237 -2.02407 0
M  V30 5861 C 585.428 1.24618 -1.48943 0
M  V30 5862 O 584.704 1.82569 -0.670742 0
M  V30 5863 C 584.986 -0.105449 -3.59946 0
M  V30 5864 C 584.84 -1.50972 -4.23707 0
M  V30 5865 C 586.159 0.573629 -4.36346 0
M  V30 5866 H 583.278 -0.0473472 -0.735478 0
M  V30 5867 H 585.92 -0.799452 -1.72362 0
M  V30 5868 H 584.07 0.46783 -3.85673 0
M  V30 5869 H 585.742 -2.13136 -4.0911 0
M  V30 5870 H 583.985 -2.0656 -3.81465 0
M  V30 5871 H 584.656 -1.44727 -5.32689 0
M  V30 5872 H 587.132 0.0861787 -4.16011 0
M  V30 5873 H 586.008 0.557338 -5.46063 0
M  V30 5874 H 586.269 1.64276 -4.10446 0
M  V30 5875 N 585.328 1.53329 -0.364422 0
M  V30 5876 C 586.574 2.01537 0.225969 0
M  V30 5877 C 586.907 1.25128 1.48515 0
M  V30 5878 O 586.182 0.344653 1.91422 0
M  V30 5879 C 586.465 3.56339 0.519092 0
M  V30 5880 C 586.318 4.43441 -0.753639 0
M  V30 5881 C 587.637 4.19833 1.32015 0
M  V30 5882 H 584.756 0.732573 0.0806548 0
M  V30 5883 H 587.398 1.83597 -0.489084 0
M  V30 5884 H 585.548 3.71756 1.12825 0
M  V30 5885 H 587.22 4.39823 -1.39116 0
M  V30 5886 H 585.463 4.11457 -1.37424 0
M  V30 5887 H 586.134 5.49699 -0.503517 0
M  V30 5888 H 588.61 4.08242 0.804859 0
M  V30 5889 H 587.486 5.28177 1.49399 0
M  V30 5890 H 587.747 3.75821 2.32832 0
M  V30 5891 N 586.806 0.0935595 1.57322 0
M  V30 5892 C 588.031 -0.582324 1.99057 0
M  V30 5893 C 588.456 -1.61025 0.972242 0
M  V30 5894 O 587.814 -1.81202 -0.0594622 0
M  V30 5895 C 587.862 -1.20799 3.39765 0
M  V30 5896 O 586.966 -2.32382 3.40694 0
M  V30 5897 H 586.307 -0.147884 0.647323 0
M  V30 5898 H 588.837 0.174516 2.03854 0
M  V30 5899 H 588.847 -1.54966 3.77425 0
M  V30 5900 H 587.522 -0.454914 4.13405 0
M  V30 5901 H 586.099 -1.99845 3.14827 0
M  V30 5902 N 588.284 -1.56567 -0.180126 0
M  V30 5903 C 589.214 -1.98753 -1.22553 0
M  V30 5904 C 590.195 -0.86175 -1.46656 0
M  V30 5905 O 591.38 -1.12719 -1.58139 0
M  V30 5906 C 588.51 -2.33988 -2.56645 0
M  V30 5907 C 587.464 -3.49445 -2.47128 0
M  V30 5908 C 586.79 -3.70397 -3.8563 0
M  V30 5909 C 588.09 -4.83171 -1.98352 0
M  V30 5910 H 589.784 -2.86332 -0.874896 0
M  V30 5911 H 587.33 -1.37757 -0.419414 0
M  V30 5912 H 589.283 -2.62097 -3.29974 0
M  V30 5913 H 588.007 -1.43309 -2.93479 0
M  V30 5914 H 586.666 -3.2145 -1.76254 0
M  V30 5915 H 586.314 -2.77023 -4.19842 0
M  V30 5916 H 586.014 -4.48077 -3.80132 0
M  V30 5917 H 587.538 -4.00897 -4.60558 0
M  V30 5918 H 588.952 -5.10213 -2.61449 0
M  V30 5919 H 587.349 -5.64425 -2.03823 0
M  V30 5920 H 588.419 -4.75753 -0.937402 0
M  V30 5921 N 589.762 0.448376 -1.51087 0
M  V30 5922 C 590.99 1.22143 -1.66999 0
M  V30 5923 C 591.405 1.85283 -0.362699 0
M  V30 5924 O 590.762 1.70236 0.65772 0
M  V30 5925 C 590.813 2.31357 -2.7777 0
M  V30 5926 O 590.534 1.70801 -4.03434 0
M  V30 5927 C 592.035 3.21836 -3.04855 0
M  V30 5928 H 589.255 0.368558 -0.560719 0
M  V30 5929 H 591.799 0.532618 -1.97442 0
M  V30 5930 H 589.954 2.95973 -2.49958 0
M  V30 5931 H 590.368 2.42895 -4.64868 0
M  V30 5932 H 591.842 3.94627 -3.85971 0
M  V30 5933 H 592.319 3.81949 -2.16821 0
M  V30 5934 H 592.925 2.62933 -3.34285 0
M  V30 5935 N 591.24 1.41047 0.703093 0
M  V30 5936 C 592.48 1.41461 1.4754 0
M  V30 5937 C 592.844 0.0199013 1.9199 0
M  V30 5938 O 594.045 -0.101138 2.6861 0
M  V30 5939 C 592.316 2.38703 2.66 0
M  V30 5940 S 593.875 2.57582 3.55242 0
M  V30 5941 H 590.693 0.501226 0.504275 0
M  V30 5942 H 593.295 1.77422 0.821074 0
M  V30 5943 H 591.999 3.3885 2.31536 0
M  V30 5944 H 591.53 2.04069 3.36333 0
M  V30 5945 H 593.545 1.83758 4.6092 0
M  V30 5946 N 592.718 -0.936591 1.26751 0
M  V30 5947 C 594.129 -1.49816 1.1141 0
M  V30 5948 C 594.48 -1.9383 -0.304015 0
M  V30 5949 O 593.605 -1.80346 -1.196 0
M  V30 5950 C 594.2 -2.72271 2.01629 0
M  V30 5951 C 592.759 -3.2468 1.9042 0
M  V30 5952 C 591.906 -1.97444 1.94708 0
M  V30 5953 H 594.857 -0.751604 1.39773 0
M  V30 5954 H 594.878 -3.46741 1.56688 0
M  V30 5955 H 594.39 -2.40205 3.04833 0
M  V30 5956 H 592.491 -3.61525 0.901674 0
M  V30 5957 H 592.604 -3.91476 2.76195 0
M  V30 5958 H 590.968 -2.13545 1.38818 0
M  V30 5959 H 591.751 -1.67703 2.9955 0
M  V30 5960 N 594.196 -1.08629 -1.14182 0
M  V30 5961 C 595.442 -0.818556 -1.85546 0
M  V30 5962 C 595.775 0.654076 -1.82854 0
M  V30 5963 O 595.05 1.48099 -1.26083 0
M  V30 5964 C 595.333 -1.34397 -3.3408 0
M  V30 5965 C 595.186 -2.8821 -3.45333 0
M  V30 5966 C 596.505 -0.971069 -4.29253 0
M  V30 5967 H 593.624 -0.298821 -0.673702 0
M  V30 5968 H 596.266 -1.34629 -1.34071 0
M  V30 5969 H 594.416 -0.895064 -3.78049 0
M  V30 5970 H 596.088 -3.41488 -3.10134 0
M  V30 5971 H 594.331 -3.25756 -2.86471 0
M  V30 5972 H 595.002 -3.20047 -4.49749 0
M  V30 5973 H 597.478 -1.35809 -3.93313 0
M  V30 5974 H 596.354 -1.36586 -5.31635 0
M  V30 5975 H 596.615 0.121659 -4.41933 0
M  V30 5976 N 595.674 1.31259 -0.872281 0
M  V30 5977 C 596.637 2.26744 -0.334656 0
M  V30 5978 C 597.637 1.52307 0.515681 0
M  V30 5979 O 598.827 1.71148 0.324656 0
M  V30 5980 C 595.959 3.36841 0.524482 0
M  V30 5981 H 597.152 2.75812 -1.17762 0
M  V30 5982 H 594.705 1.42232 -0.648064 0
M  V30 5983 H 595.44 2.93069 1.38855 0
M  V30 5984 H 595.225 3.92009 -0.0844299 0
M  V30 5985 H 596.715 4.07944 0.892838 0
M  V30 5986 N 597.152 0.631951 1.44375 0
M  V30 5987 C 598.115 -0.0628142 2.29114 0
M  V30 5988 C 599.115 -0.771494 1.41084 0
M  V30 5989 O 600.305 -0.615959 1.62947 0
M  V30 5990 C 597.437 -1.09953 3.22681 0
M  V30 5991 H 598.63 0.682509 2.92031 0
M  V30 5992 H 596.183 0.392128 1.51301 0
M  V30 5993 H 596.918 -1.87481 2.64616 0
M  V30 5994 H 596.703 -0.595286 3.87555 0
M  V30 5995 H 598.193 -1.58538 3.86336 0
M  V30 5996 N 598.631 -1.53133 0.372548 0
M  V30 5997 C 599.879 -2.00958 -0.214534 0
M  V30 5998 C 600.2 -1.26135 -1.48711 0
M  V30 5999 O 599.47 -0.376597 -1.92246 0
M  V30 6000 H 598.05 -0.742456 -0.0822664 0
M  V30 6001 H 600.712 -1.88367 0.500385 0
M  V30 6002 H 599.808 -3.09031 -0.436605 0
M  V30 6003 N 600.109 -0.101901 -1.5727 0
M  V30 6004 C 601.019 0.868647 -2.17926 0
M  V30 6005 C 602.035 1.30527 -1.1506 0
M  V30 6006 O 603.211 1.37178 -1.47459 0
M  V30 6007 C 600.276 2.10727 -2.75309 0
M  V30 6008 C 599.337 1.7242 -3.93154 0
M  V30 6009 C 598.57 2.90377 -4.47791 0
M  V30 6010 O 598.793 4.05305 -4.01353 0
M  V30 6011 O 597.727 2.6845 -5.38719 0
M  V30 6012 H 601.553 0.382544 -3.01281 0
M  V30 6013 H 599.138 0.122812 -1.48894 0
M  V30 6014 H 601.02 2.83303 -3.11958 0
M  V30 6015 H 599.695 2.58376 -1.94996 0
M  V30 6016 H 598.602 0.970039 -3.61305 0
M  V30 6017 H 599.935 1.29528 -4.74851 0
M  V30 6018 N 601.587 1.56661 0.17182 0
M  V30 6019 C 602.827 1.83762 0.895029 0
M  V30 6020 C 603.191 0.682752 1.79451 0
M  V30 6021 O 604.392 0.834208 2.55528 0
M  V30 6022 C 602.663 3.15976 1.67015 0
M  V30 6023 S 604.222 3.64558 2.44219 0
M  V30 6024 H 601.04 0.644713 0.299778 0
M  V30 6025 H 603.642 1.94871 0.156701 0
M  V30 6026 H 602.346 3.98021 1.00039 0
M  V30 6027 H 601.877 3.07807 2.44986 0
M  V30 6028 H 603.892 3.31845 3.68909 0
M  V30 6029 N 603.065 -0.440357 1.51323 0
M  V30 6030 C 604.028 -1.51679 1.71832 0
M  V30 6031 C 605.028 -1.49648 0.588386 0
M  V30 6032 O 606.218 -1.51724 0.855891 0
M  V30 6033 C 603.35 -2.91228 1.77199 0
M  V30 6034 H 604.543 -1.34799 2.67898 0
M  V30 6035 H 602.096 -0.66883 1.41267 0
M  V30 6036 H 602.831 -3.13516 0.829363 0
M  V30 6037 H 602.616 -2.94107 2.59314 0
M  V30 6038 H 604.106 -3.69321 1.94915 0
M  V30 6039 N 604.543 -1.41418 -0.695603 0
M  V30 6040 C 605.791 -1.40496 -1.45277 0
M  V30 6041 C 606.112 -0.0149538 -1.94994 0
M  V30 6042 O 605.382 0.9432 -1.71699 0
M  V30 6043 H 603.962 -0.517147 -0.539044 0
M  V30 6044 H 606.624 -1.76656 -0.823321 0
M  V30 6045 H 605.72 -2.09214 -2.31595 0
M  V30 6046 N 606.021 0.929856 -1.27246 0
M  V30 6047 C 607.432 1.49223 -1.12203 0
M  V30 6048 C 607.783 1.93989 0.293731 0
M  V30 6049 O 606.908 1.80978 1.18642 0
M  V30 6050 C 607.503 2.71198 -2.0307 0
M  V30 6051 C 606.062 3.23666 -1.92139 0
M  V30 6052 C 605.209 1.96409 -1.95752 0
M  V30 6053 H 608.16 0.744181 -1.4017 0
M  V30 6054 H 608.181 3.45905 -1.58524 0
M  V30 6055 H 607.693 2.38585 -3.06102 0
M  V30 6056 H 605.794 3.61042 -0.920834 0
M  V30 6057 H 605.907 3.90006 -2.78267 0
M  V30 6058 H 604.271 2.12806 -1.39949 0
M  V30 6059 H 605.054 1.66113 -3.00436 0
M  V30 6060 N 607.499 1.09233 1.13605 0
M  V30 6061 C 608.462 0.733553 2.17144 0
M  V30 6062 C 609.462 -0.235873 1.59061 0
M  V30 6063 O 610.652 -0.0143167 1.74194 0
M  V30 6064 C 607.784 0.084471 3.40795 0
M  V30 6065 H 608.977 1.65049 2.50397 0
M  V30 6066 H 606.53 0.891264 1.28399 0
M  V30 6067 H 607.265 -0.843795 3.1313 0
M  V30 6068 H 607.05 0.781985 3.84223 0
M  V30 6069 H 608.54 -0.151216 4.17326 0
M  V30 6070 N 608.977 -1.30795 0.87923 0
M  V30 6071 C 610.254 -1.91145 0.415086 0
M  V30 6072 C 610.634 -1.7995 -1.10368 0
M  V30 6073 O 609.982 -1.21305 -1.93642 0
M  V30 6074 C 610.192 -3.37014 0.906778 0
M  V30 6075 C 611.54 -4.14101 0.938358 0
M  V30 6076 O 612.564 -3.45834 0.853053 0
M  V30 6077 O 611.423 -5.36054 1.06342 0
M  V30 6078 H 608.517 -0.81736 0.125905 0
M  V30 6079 H 611.063 -1.39401 0.967753 0
M  V30 6080 H 609.835 -3.3922 1.95053 0
M  V30 6081 H 609.458 -3.96204 0.332948 0
M  V30 6082 N 610.455 -0.639598 -1.44038 0
M  V30 6083 C 611.68 -0.153117 -2.06834 0
M  V30 6084 C 612.105 1.16676 -1.47541 0
M  V30 6085 O 611.463 1.71769 -0.580093 0
M  V30 6086 C 611.511 -0.0609169 -3.60549 0
M  V30 6087 O 610.615 0.98071 -4.00569 0
M  V30 6088 H 609.956 -0.0886402 -0.658057 0
M  V30 6089 H 612.486 -0.878674 -1.84771 0
M  V30 6090 H 612.496 0.126892 -4.07803 0
M  V30 6091 H 611.171 -1.0245 -4.03084 0
M  V30 6092 H 609.748 0.766789 -3.64931 0
M  V30 6093 N 611.933 1.52934 -0.380664 0
M  V30 6094 C 613.181 2.01069 0.203874 0
M  V30 6095 C 613.502 1.26922 1.4804 0
M  V30 6096 O 612.772 0.386787 1.92044 0
M  V30 6097 H 611.352 0.742882 0.0783279 0
M  V30 6098 H 614.014 1.88099 -0.510368 0
M  V30 6099 H 613.11 3.09258 0.42021 0
M  V30 6100 N 613.412 0.11024 1.57214 0
M  V30 6101 C 614.689 -0.592956 1.86396 0
M  V30 6102 C 615.069 -1.85379 1.00985 0
M  V30 6103 O 614.417 -2.28337 0.0863592 0
M  V30 6104 C 614.627 -0.893816 3.3736 0
M  V30 6105 C 615.975 -1.25069 4.05762 0
M  V30 6106 O 616.999 -0.984356 3.42329 0
M  V30 6107 O 615.858 -1.75017 5.17718 0
M  V30 6108 H 612.952 -0.29828 0.771335 0
M  V30 6109 H 615.498 0.144083 1.69087 0
M  V30 6110 H 614.27 2.6031e-05 3.913 0
M  V30 6111 H 613.893 -1.68631 3.60068 0
M  V30 6112 N 614.89 -1.56749 -0.16351 0
M  V30 6113 C 615.853 -1.96121 -1.18613 0
M  V30 6114 C 616.853 -0.845765 -1.36761 0
M  V30 6115 O 618.043 -1.11268 -1.34033 0
M  V30 6116 C 615.175 -2.26282 -2.54969 0
M  V30 6117 H 616.368 -2.87639 -0.848764 0
M  V30 6118 H 613.921 -1.50928 -0.406251 0
M  V30 6119 H 614.656 -1.37504 -2.93706 0
M  V30 6120 H 614.441 -3.07595 -2.43162 0
M  V30 6121 H 615.931 -2.57638 -3.28653 0
M  V30 6122 N 616.368 0.432326 -1.51554 0
M  V30 6123 C 617.298 1.53242 -1.76179 0
M  V30 6124 C 618.279 1.58717 -0.611801 0
M  V30 6125 O 619.464 1.74364 -0.855033 0
M  V30 6126 C 616.594 2.91278 -1.89141 0
M  V30 6127 C 615.548 3.00663 -3.04608 0
M  V30 6128 C 614.874 4.40728 -3.02759 0
M  V30 6129 C 616.174 2.74281 -4.44485 0
M  V30 6130 H 617.868 1.32886 -2.68294 0
M  V30 6131 H 615.414 0.637841 -1.29103 0
M  V30 6132 H 617.367 3.68203 -2.04951 0
M  V30 6133 H 616.091 3.12877 -0.936785 0
M  V30 6134 H 614.75 2.26179 -2.88511 0
M  V30 6135 H 614.398 4.59301 -2.05065 0
M  V30 6136 H 614.098 4.47936 -3.80299 0
M  V30 6137 H 615.622 5.19619 -3.20669 0
M  V30 6138 H 617.036 3.40936 -4.60907 0
M  V30 6139 H 615.433 2.92893 -5.23769 0
M  V30 6140 H 616.503 1.69856 -4.54177 0
M  V30 6141 N 617.846 1.41785 0.688094 0
M  V30 6142 C 618.776 1.47 1.8142 0
M  V30 6143 C 619.757 0.327881 1.6691 0
M  V30 6144 O 620.942 0.540362 1.86531 0
M  V30 6145 C 618.072 1.35876 3.19617 0
M  V30 6146 C 617.026 2.47976 3.48844 0
M  V30 6147 C 616.352 2.21915 4.86475 0
M  V30 6148 C 617.652 3.90309 3.47068 0
M  V30 6149 H 619.346 2.41247 1.77314 0
M  V30 6150 H 616.892 1.16116 0.851651 0
M  V30 6151 H 618.845 1.38134 3.98117 0
M  V30 6152 H 617.569 0.38116 3.24368 0
M  V30 6153 H 616.228 2.45013 2.72698 0
M  V30 6154 H 615.876 1.2248 4.8786 0
M  V30 6155 H 615.576 2.97037 5.06994 0
M  V30 6156 H 617.1 2.25901 5.67275 0
M  V30 6157 H 618.514 3.94947 4.1556 0
M  V30 6158 H 616.911 4.65175 3.7912 0
M  V30 6159 H 617.981 4.17927 2.45896 0
M  V30 6160 N 619.324 -0.923095 1.27737 0
M  V30 6161 C 620.234 -2.05765 1.12685 0
M  V30 6162 C 621.25 -1.73911 0.0557197 0
M  V30 6163 O 622.426 -1.99674 0.263137 0
M  V30 6164 C 619.491 -3.37804 0.780363 0
M  V30 6165 C 618.552 -3.83326 1.93286 0
M  V30 6166 C 617.785 -5.09064 1.60281 0
M  V30 6167 O 618.008 -5.6809 0.512828 0
M  V30 6168 O 616.942 -5.50071 2.44347 0
M  V30 6169 H 620.768 -2.21378 2.07907 0
M  V30 6170 H 618.353 -1.04299 1.06968 0
M  V30 6171 H 620.235 -4.17097 0.600668 0
M  V30 6172 H 618.91 -3.23387 -0.142291 0
M  V30 6173 H 617.817 -3.049 2.16764 0
M  V30 6174 H 619.15 -4.02292 2.83588 0
M  V30 6175 N 620.802 -1.09834 -1.13024 0
M  V30 6176 C 622.218 -0.828875 -1.36388 0
M  V30 6177 C 622.418 0.554756 -1.93713 0
M  V30 6178 O 621.474 1.30882 -2.15931 0
M  V30 6179 C 622.787 -1.92352 -2.3113 0
M  V30 6180 C 624.335 -1.95124 -2.44735 0
M  V30 6181 C 624.81 -3.03745 -3.42787 0
M  V30 6182 N 626.301 -3.03012 -3.5034 0
M  V30 6183 C 627.036 -3.83699 -4.26101 0
M  V30 6184 N 626.532 -4.74306 -5.04981 0
M  V30 6185 N 628.325 -3.71942 -4.21445 0
M  V30 6186 H 620.476 -1.99029 -0.74169 0
M  V30 6187 H 622.739 -0.864557 -0.388903 0
M  V30 6188 H 622.445 -2.91906 -1.96172 0
M  V30 6189 H 622.319 -1.80536 -3.3119 0
M  V30 6190 H 624.706 -0.962069 -2.78977 0
M  V30 6191 H 624.787 -2.11018 -1.44586 0
M  V30 6192 H 624.431 -4.02878 -3.09276 0
M  V30 6193 H 624.361 -2.85094 -4.42752 0
M  V30 6194 H 626.852 -2.37352 -2.94062 0
M  V30 6195 H 627.165 -5.32446 -5.60108 0
M  V30 6196 H 625.51 -4.78339 -5.04199 0
M  V30 6197 H 628.701 -3.00513 -3.589 0
M  V30 6198 H 628.874 -4.35062 -4.80235 0
M  V30 6199 N 622.28 1.30327 -0.886154 0
M  V30 6200 C 623.228 2.30052 -0.343317 0
M  V30 6201 C 624.222 1.60212 0.550305 0
M  V30 6202 O 625.428 1.74674 0.434609 0
M  V30 6203 H 621.803 0.746306 -0.0923681 0
M  V30 6204 H 623.774 2.73294 -1.19804 0
M  V30 6205 C 622.523 3.45079 0.426107 0
M  V30 6206 H 621.846 3.99003 -0.25227 0
M  V30 6207 H 623.286 4.16931 0.771009 0
M  V30 6208 C 621.745 2.95195 1.62363 0
M  V30 6209 O 622.275 2.95323 2.723 0
M  V30 6210 N 620.481 2.51192 1.4612 0
M  V30 6211 H 620.028 2.51286 0.566832 0
M  V30 6212 H 619.986 2.18173 2.2638 0
M  V30 6213 N 623.758 0.647228 1.43697 0
M  V30 6214 C 624.988 0.16551 2.05936 0
M  V30 6215 C 625.396 -1.17164 1.48557 0
M  V30 6216 O 624.739 -1.73307 0.60914 0
M  V30 6217 C 624.801 -0.00648082 3.59499 0
M  V30 6218 C 624.465 1.25503 4.39429 0
M  V30 6219 C 625.462 2.18241 4.71876 0
M  V30 6220 C 623.147 1.49494 4.79538 0
M  V30 6221 C 625.141 3.33268 5.43333 0
M  V30 6222 C 622.828 2.64815 5.50742 0
M  V30 6223 C 623.826 3.56528 5.82561 0
M  V30 6224 O 623.514 4.69836 6.52311 0
M  V30 6225 H 623.246 0.0844124 0.670709 0
M  V30 6226 H 625.8 0.88638 1.8529 0
M  V30 6227 H 624.03 -0.782661 3.78697 0
M  V30 6228 H 625.719 -0.444794 4.03456 0
M  V30 6229 H 626.485 2.00946 4.41413 0
M  V30 6230 H 622.364 0.789912 4.54182 0
M  V30 6231 H 625.908 4.04874 5.68087 0
M  V30 6232 H 621.805 2.82047 5.8062 0
M  V30 6233 H 622.573 4.69024 6.70789 0
M  V30 6234 N 625.236 -1.5273 0.388769 0
M  V30 6235 C 626.647 -1.86505 -0.0853788 0
M  V30 6236 C 626.998 -1.30847 -1.46197 0
M  V30 6237 O 626.123 -0.639609 -2.06732 0
M  V30 6238 C 626.718 -3.38414 -0.161703 0
M  V30 6239 C 625.277 -3.71902 -0.580144 0
M  V30 6240 C 624.424 -2.76095 0.258218 0
M  V30 6241 H 627.375 -1.46647 0.606665 0
M  V30 6242 H 627.396 -3.67638 -0.980936 0
M  V30 6243 H 626.908 -3.78893 0.840333 0
M  V30 6244 H 625.009 -3.36992 -1.58957 0
M  V30 6245 H 625.122 -4.77902 -0.338663 0
M  V30 6246 H 623.486 -2.53195 -0.276432 0
M  V30 6247 H 624.269 -3.19411 1.25822 0
M  V30 6248 N 626.714 -0.118576 -1.57153 0
M  V30 6249 C 627.942 0.54726 -1.99531 0
M  V30 6250 C 628.357 1.60251 -0.998246 0
M  V30 6251 O 627.714 1.82498 0.00893106 0
M  V30 6252 C 627.765 1.17378 -3.41913 0
M  V30 6253 O 627.486 0.160703 -4.37805 0
M  V30 6254 C 628.987 1.92297 -3.9942 0
M  V30 6255 H 626.207 0.144919 -0.655164 0
M  V30 6256 H 628.751 -0.20479 -2.03472 0
M  V30 6257 H 626.906 1.87661 -3.38913 0
M  V30 6258 H 627.32 0.61586 -5.20872 0
M  V30 6259 H 628.794 2.31462 -5.01128 0
M  V30 6260 H 629.271 2.79801 -3.38538 0
M  V30 6261 H 629.877 1.26777 -4.05965 0
M  V30 6262 N 628.193 1.56834 0.155195 0
M  V30 6263 C 629.441 1.82536 0.867462 0
M  V30 6264 C 629.762 0.698168 1.82073 0
M  V30 6265 O 629.032 -0.280807 1.93877 0
M  V30 6266 H 627.612 0.673401 0.323327 0
M  V30 6267 H 630.274 1.94313 0.151156 0
M  V30 6268 H 629.37 2.77171 1.43466 0
M  V30 6269 N 629.671 -0.424282 1.51781 0
M  V30 6270 C 630.634 -1.49848 1.73431 0
M  V30 6271 C 631.634 -1.49016 0.604225 0
M  V30 6272 O 632.824 -1.50808 0.871935 0
M  V30 6273 C 629.956 -2.89332 1.80277 0
M  V30 6274 H 631.149 -1.3195 2.69312 0
M  V30 6275 H 628.702 -0.653809 1.41968 0
M  V30 6276 H 629.437 -3.12618 0.862568 0
M  V30 6277 H 629.222 -2.9134 2.62419 0
M  V30 6278 H 630.712 -3.67233 1.98821 0
M  V30 6279 N 631.149 -1.42148 -0.680565 0
M  V30 6280 C 632.059 -1.47565 -1.82378 0
M  V30 6281 C 633.075 -0.36489 -1.70131 0
M  V30 6282 O 634.251 -0.614916 -1.91783 0
M  V30 6283 C 631.316 -1.37013 -3.18478 0
M  V30 6284 C 630.377 -2.58532 -3.42724 0
M  V30 6285 C 629.61 -2.48473 -4.72331 0
M  V30 6286 O 629.833 -1.51745 -5.49845 0
M  V30 6287 O 628.767 -3.38503 -4.97694 0
M  V30 6288 H 632.593 -2.44045 -1.80764 0
M  V30 6289 H 630.178 -1.23849 -0.835569 0
M  V30 6290 H 632.06 -1.33468 -3.99705 0
M  V30 6291 H 630.735 -0.436552 -3.20743 0
M  V30 6292 H 629.642 -2.67652 -2.61368 0
M  V30 6293 H 630.975 -3.50769 -3.45286 0
M  V30 6294 N 632.627 0.916307 -1.28225 0
M  V30 6295 C 633.874 1.66518 -1.1523 0
M  V30 6296 C 634.202 1.92178 0.299632 0
M  V30 6297 O 633.457 1.51842 1.2346 0
M  V30 6298 C 633.756 3.03125 -1.8934 0
M  V30 6299 C 633.422 2.97135 -3.39148 0
M  V30 6300 C 632.084 2.95208 -3.80007 0
M  V30 6301 C 634.436 2.87574 -4.34685 0
M  V30 6302 C 631.764 2.81518 -5.14747 0
M  V30 6303 C 634.116 2.75424 -5.69495 0
M  V30 6304 C 632.78 2.71854 -6.09632 0
M  V30 6305 H 632.05 0.609334 -0.421655 0
M  V30 6306 H 634.697 1.06776 -1.58969 0
M  V30 6307 H 633.002 3.66639 -1.38143 0
M  V30 6308 H 634.699 3.59968 -1.76704 0
M  V30 6309 H 631.289 2.99428 -3.06661 0
M  V30 6310 H 635.473 2.88152 -4.04082 0
M  V30 6311 H 630.729 2.77148 -5.44976 0
M  V30 6312 H 634.903 2.66993 -6.43185 0
M  V30 6313 H 632.53 2.61003 -7.1399 0
M  V30 6314 N 634.105 1.10431 1.1244 0
M  V30 6315 C 635.035 0.775143 2.20258 0
M  V30 6316 C 636.016 -0.25186 1.68225 0
M  V30 6317 O 637.201 -0.117637 1.93843 0
M  V30 6318 C 634.331 0.206133 3.46688 0
M  V30 6319 C 633.285 1.16382 4.11873 0
M  V30 6320 C 632.611 0.456014 5.32752 0
M  V30 6321 C 633.911 2.5104 4.58013 0
M  V30 6322 H 635.605 1.67665 2.4805 0
M  V30 6323 H 633.151 0.807595 1.19222 0
M  V30 6324 H 635.104 -0.036291 4.21384 0
M  V30 6325 H 633.828 -0.730614 3.18323 0
M  V30 6326 H 632.487 1.39169 3.39157 0
M  V30 6327 H 632.135 -0.485203 5.00654 0
M  V30 6328 H 631.835 1.09466 5.77314 0
M  V30 6329 H 633.359 0.222135 6.10196 0
M  V30 6330 H 634.773 2.32401 5.24083 0
M  V30 6331 H 633.17 3.10789 5.13352 0
M  V30 6332 H 634.24 3.11039 3.71998 0
M  V30 6333 N 635.583 -1.29855 0.893053 0
M  V30 6334 C 636.831 -1.9544 0.514566 0
M  V30 6335 C 637.152 -1.70795 -0.940959 0
M  V30 6336 O 636.422 -1.03601 -1.66264 0
M  V30 6337 H 635.002 -0.723137 0.187302 0
M  V30 6338 H 637.664 -1.58234 1.13789 0
M  V30 6339 H 636.76 -3.04341 0.691581 0
M  V30 6340 N 637.061 -0.65484 -1.43351 0
M  V30 6341 C 638.338 -0.0987371 -1.95351 0
M  V30 6342 C 638.718 1.38161 -1.59608 0
M  V30 6343 O 638.066 2.10791 -0.882021 0
M  V30 6344 C 638.276 -0.346684 -3.47274 0
M  V30 6345 C 639.624 -0.25249 -4.23849 0
M  V30 6346 O 640.648 -0.279332 -3.55103 0
M  V30 6347 O 639.507 -0.177584 -5.46211 0
M  V30 6348 H 636.601 0.0086829 -0.826954 0
M  V30 6349 H 639.147 -0.728189 -1.53282 0
M  V30 6350 H 637.919 -1.37296 -3.66423 0
M  V30 6351 H 637.542 0.315757 -3.96344 0
M  V30 6352 N 638.539 1.52521 -0.396863 0
M  V30 6353 C 639.787 2.01274 0.182536 0
M  V30 6354 C 640.108 1.28485 1.46685 0
M  V30 6355 O 639.378 0.407134 1.91623 0
M  V30 6356 H 637.958 0.743671 0.0704442 0
M  V30 6357 H 640.62 1.87547 -0.530289 0
M  V30 6358 H 639.716 3.09687 0.387385 0
M  V30 6359 N 640.017 0.126909 1.57088 0
M  V30 6360 C 641.265 -0.528123 1.95078 0
M  V30 6361 C 641.586 -1.66708 1.0116 0
M  V30 6362 O 640.856 -1.95777 0.0693527 0
M  V30 6363 H 639.436 -0.198087 0.720257 0
M  V30 6364 H 642.098 0.197703 1.93895 0
M  V30 6365 H 641.194 -0.917507 2.98309 0
M  V30 6366 N 641.495 -1.56914 -0.146875 0
M  V30 6367 C 642.772 -1.74273 -0.888165 0
M  V30 6368 C 643.152 -0.69496 -1.99333 0
M  V30 6369 O 642.5 0.286093 -2.26702 0
M  V30 6370 C 642.71 -3.18336 -1.43051 0
M  V30 6371 C 644.058 -3.80024 -1.89387 0
M  V30 6372 O 645.082 -3.21765 -1.52792 0
M  V30 6373 O 643.941 -4.82367 -2.56874 0
M  V30 6374 H 641.035 -0.712565 -0.419738 0
M  V30 6375 H 643.581 -1.6918 -0.132791 0
M  V30 6376 H 642.353 -3.86092 -0.636274 0
M  V30 6377 H 641.976 -3.27854 -2.24938 0
M  V30 6378 N 642.974 0.416227 -1.52004 0
M  V30 6379 C 644.22 1.16555 -1.6596 0
M  V30 6380 C 644.553 1.90347 -0.384906 0
M  V30 6381 O 643.828 1.84474 0.616405 0
M  V30 6382 C 644.111 2.1657 -2.87696 0
M  V30 6383 C 643.964 1.46722 -4.25197 0
M  V30 6384 C 645.283 3.17321 -3.04951 0
M  V30 6385 H 642.402 0.422369 -0.603965 0
M  V30 6386 H 645.044 0.452141 -1.84542 0
M  V30 6387 H 643.194 2.77411 -2.71985 0
M  V30 6388 H 644.866 0.89056 -4.52622 0
M  V30 6389 H 643.109 0.769263 -4.26925 0
M  V30 6390 H 643.78 2.19665 -5.0641 0
M  V30 6391 H 646.256 2.66552 -3.19514 0
M  V30 6392 H 645.132 3.84573 -3.91656 0
M  V30 6393 H 645.393 3.84643 -2.17951 0
M  V30 6394 N 644.452 1.42507 0.673017 0
M  V30 6395 C 645.677 1.4668 1.46627 0
M  V30 6396 C 646.102 0.080066 1.8793 0
M  V30 6397 O 645.46 -0.921879 1.56112 0
M  V30 6398 C 645.508 2.40091 2.69051 0
M  V30 6399 O 644.612 1.8735 3.67387 0
M  V30 6400 H 643.953 0.496908 0.44043 0
M  V30 6401 H 646.483 1.87215 0.825334 0
M  V30 6402 H 646.493 2.56731 3.17101 0
M  V30 6403 H 645.168 3.4084 2.3833 0
M  V30 6404 H 643.745 1.80274 3.26429 0
M  V30 6405 N 645.93 -0.909495 1.28709 0
M  V30 6406 C 647.177 -1.65905 1.16111 0
M  V30 6407 C 647.505 -1.92334 -0.289436 0
M  V30 6408 O 646.76 -1.52495 -1.22653 0
M  V30 6409 C 647.059 -3.02117 1.90945 0
M  V30 6410 C 646.725 -2.95332 3.40719 0
M  V30 6411 C 645.387 -2.93189 3.81567 0
M  V30 6412 C 647.739 -2.85264 4.36204 0
M  V30 6413 C 645.067 -2.78784 5.16233 0
M  V30 6414 C 647.419 -2.724 5.70948 0
M  V30 6415 C 646.083 -2.68617 6.11066 0
M  V30 6416 H 645.353 -0.60709 0.42488 0
M  V30 6417 H 648 -1.05932 1.59533 0
M  V30 6418 H 646.305 -3.65901 1.40085 0
M  V30 6419 H 648.002 -3.59026 1.7861 0
M  V30 6420 H 644.592 -2.97797 3.08245 0
M  V30 6421 H 648.776 -2.86005 4.05605 0
M  V30 6422 H 644.032 -2.74254 5.46438 0
M  V30 6423 H 648.206 -2.63579 6.44592 0
M  V30 6424 H 645.833 -2.57213 7.15364 0
M  V30 6425 N 647.408 -1.11026 -1.11852 0
M  V30 6426 C 648.633 -0.879064 -1.87849 0
M  V30 6427 C 649.058 0.565406 -1.79401 0
M  V30 6428 O 648.416 1.39886 -1.15333 0
M  V30 6429 C 648.464 -1.33985 -3.34784 0
M  V30 6430 O 647.568 -0.508803 -4.09249 0
M  V30 6431 H 646.909 -0.316992 -0.583448 0
M  V30 6432 H 649.439 -1.47863 -1.41413 0
M  V30 6433 H 649.449 -1.33248 -3.85628 0
M  V30 6434 H 648.124 -2.39172 -3.40249 0
M  V30 6435 H 646.701 -0.581913 -3.68332 0
M  V30 6436 N 648.886 1.2938 -0.899927 0
M  V30 6437 C 650.114 1.99691 -0.541386 0
M  V30 6438 C 650.529 1.67355 0.873936 0
M  V30 6439 O 649.886 0.918728 1.57688 0
M  V30 6440 C 649.937 3.54168 -0.72438 0
M  V30 6441 O 649.658 3.85359 -2.08399 0
M  V30 6442 C 651.159 4.41746 -0.370819 0
M  V30 6443 H 648.379 0.638037 -0.207726 0
M  V30 6444 H 650.923 1.6491 -1.20934 0
M  V30 6445 H 649.078 3.87261 -0.103607 0
M  V30 6446 H 649.492 4.80032 -2.11352 0
M  V30 6447 H 650.966 5.49256 -0.549693 0
M  V30 6448 H 651.443 4.33712 0.692148 0
M  V30 6449 H 652.049 4.14125 -0.968543 0
M  V30 6450 N 650.364 0.662433 1.43002 0
M  V30 6451 C 651.78 0.330835 1.56133 0
M  V30 6452 C 651.98 -1.16454 1.64441 0
M  V30 6453 O 651.036 -1.94964 1.60453 0
M  V30 6454 C 652.349 1.05029 2.81761 0
M  V30 6455 C 653.897 1.03142 2.95518 0
M  V30 6456 C 654.372 1.73196 4.2399 0
M  V30 6457 N 655.863 1.70004 4.30875 0
M  V30 6458 C 656.598 2.21074 5.29069 0
M  V30 6459 N 656.094 2.80473 6.33488 0
M  V30 6460 N 657.887 2.1152 5.20784 0
M  V30 6461 H 650.038 1.63272 1.35853 0
M  V30 6462 H 652.301 0.687149 0.653092 0
M  V30 6463 H 652.007 2.10542 2.81718 0
M  V30 6464 H 651.881 0.607664 3.72273 0
M  V30 6465 H 654.268 -0.0153339 2.95096 0
M  V30 6466 H 654.349 1.51282 2.0627 0
M  V30 6467 H 653.993 2.77833 4.25172 0
M  V30 6468 H 653.923 1.22515 5.1215 0
M  V30 6469 H 656.414 1.26667 3.56039 0
M  V30 6470 H 656.727 3.17094 7.04749 0
M  V30 6471 H 655.072 2.84538 6.34085 0
M  V30 6472 H 658.263 1.64814 4.38126 0
M  V30 6473 H 658.436 2.51629 5.97149 0
M  V30 6474 N 651.842 -1.52309 0.404946 0
M  V30 6475 C 653.09 -2.01368 -0.17186 0
M  V30 6476 C 653.411 -1.29261 -1.46002 0
M  V30 6477 O 652.681 -0.41729 -1.91404 0
M  V30 6478 H 651.261 -0.744034 -0.0664993 0
M  V30 6479 H 653.923 -1.87263 0.540228 0
M  V30 6480 H 653.019 -3.09888 -0.370957 0
M  V30 6481 N 653.32 -0.135238 -1.57019 0
M  V30 6482 C 654.548 0.526066 -2.001 0
M  V30 6483 C 654.963 1.59184 -1.01519 0
M  V30 6484 O 654.32 1.82497 -0.0104258 0
M  V30 6485 C 654.371 1.13744 -3.43139 0
M  V30 6486 O 654.092 0.114259 -4.37951 0
M  V30 6487 C 655.593 1.8805 -4.01438 0
M  V30 6488 H 652.813 0.137962 -0.656664 0
M  V30 6489 H 655.357 -0.226359 -2.03243 0
M  V30 6490 H 653.512 1.84056 -3.40885 0
M  V30 6491 H 653.926 0.56058 -5.21496 0
M  V30 6492 H 655.4 2.26133 -5.03555 0
M  V30 6493 H 655.877 2.76194 -3.41487 0
M  V30 6494 H 656.483 1.22464 -4.07287 0
M  V30 6495 N 654.798 1.5699 0.138552 0
M  V30 6496 C 655.73 1.95515 1.1961 0
M  V30 6497 C 656.743 0.852002 1.38726 0
M  V30 6498 O 657.932 1.13038 1.38147 0
M  V30 6499 C 655.032 2.2213 2.55952 0
M  V30 6500 C 654.205 3.53424 2.57702 0
M  V30 6501 C 653.264 3.6848 3.75645 0
M  V30 6502 O 652.29 4.4079 3.60129 0
M  V30 6503 N 653.492 3.05777 4.93438 0
M  V30 6504 H 656.257 2.86838 0.868557 0
M  V30 6505 H 653.818 1.58542 0.328033 0
M  V30 6506 H 655.81 2.29435 3.33379 0
M  V30 6507 H 654.38 1.3703 2.80965 0
M  V30 6508 H 653.6 3.57484 1.6613 0
M  V30 6509 H 654.888 4.39759 2.55909 0
M  V30 6510 H 654.286 2.46961 5.08947 0
M  V30 6511 H 652.843 3.18631 5.6861 0
M  V30 6512 N 656.276 -0.40816 1.52223 0
M  V30 6513 C 657.224 -1.51788 1.76248 0
M  V30 6514 C 658.218 -1.57264 0.629638 0
M  V30 6515 O 659.424 -1.60659 0.811704 0
M  V30 6516 H 655.799 -0.504823 0.557367 0
M  V30 6517 H 657.77 -1.2871 2.69214 0
M  V30 6518 C 656.519 -2.89145 1.93107 0
M  V30 6519 H 655.842 -2.85674 2.79697 0
M  V30 6520 H 657.282 -3.66082 2.13916 0
M  V30 6521 C 655.741 -3.29581 0.698431 0
M  V30 6522 O 656.271 -4.01479 -0.133238 0
M  V30 6523 N 654.477 -2.85651 0.53405 0
M  V30 6524 H 654.024 -2.2731 1.21194 0
M  V30 6525 H 653.982 -3.13065 -0.289387 0
M  V30 6526 N 657.755 -1.42862 -0.66545 0
M  V30 6527 C 659.001 -1.4504 -1.426 0
M  V30 6528 C 659.356 -0.0690217 -1.92276 0
M  V30 6529 O 658.649 0.91036 -1.68591 0
M  V30 6530 C 658.843 -2.4175 -2.63233 0
M  V30 6531 C 658.672 -3.89155 -2.25362 0
M  V30 6532 C 657.442 -4.57619 -2.14273 0
M  V30 6533 C 659.64 -4.79326 -1.86417 0
M  V30 6534 N 657.622 -5.90006 -1.69604 0
M  V30 6535 C 658.993 -6.00892 -1.52738 0
M  V30 6536 C 661.048 -4.66696 -1.73492 0
M  V30 6537 C 659.751 -7.11232 -1.0743 0
M  V30 6538 C 661.777 -5.77027 -1.29589 0
M  V30 6539 C 661.139 -6.97712 -0.968393 0
M  V30 6540 H 657.238 -0.585889 -0.517936 0
M  V30 6541 H 659.822 -1.78956 -0.767002 0
M  V30 6542 H 657.993 -2.09881 -3.26809 0
M  V30 6543 H 659.725 -2.34447 -3.29874 0
M  V30 6544 H 656.48 -4.11957 -2.33641 0
M  V30 6545 H 656.904 -6.60249 -1.49666 0
M  V30 6546 H 661.546 -3.7386 -1.97455 0
M  V30 6547 H 659.264 -8.03907 -0.822147 0
M  V30 6548 H 662.85 -5.6927 -1.20095 0
M  V30 6549 H 661.73 -7.81634 -0.63384 0
M  V30 6550 N 659.233 0.902656 -1.29189 0
M  V30 6551 C 660.461 1.68639 -1.19869 0
M  V30 6552 C 660.876 1.87254 0.241121 0
M  V30 6553 O 660.233 1.40745 1.16177 0
M  V30 6554 C 660.284 3.07251 -1.90471 0
M  V30 6555 O 660.005 2.89488 -3.28829 0
M  V30 6556 C 661.506 4.01653 -1.8759 0
M  V30 6557 H 658.726 0.526802 -0.415596 0
M  V30 6558 H 661.27 1.12901 -1.7051 0
M  V30 6559 H 659.425 3.59774 -1.43672 0
M  V30 6560 H 659.839 3.77296 -3.64346 0
M  V30 6561 H 661.313 4.96339 -2.4156 0
M  V30 6562 H 661.79 4.30881 -0.850756 0
M  V30 6563 H 662.396 3.55061 -2.34119 0
M  V30 6564 N 660.711 1.11618 1.11262 0
M  V30 6565 C 661.957 0.867463 1.83311 0
M  V30 6566 C 662.29 -0.605366 1.84524 0
M  V30 6567 O 661.565 -1.44704 1.29965 0
M  V30 6568 C 661.848 1.43207 3.30399 0
M  V30 6569 C 661.701 2.97265 3.3757 0
M  V30 6570 C 663.02 1.08454 4.26528 0
M  V30 6571 H 660.139 0.316578 0.665543 0
M  V30 6572 H 662.781 1.38137 1.30454 0
M  V30 6573 H 660.931 0.994982 3.75543 0
M  V30 6574 H 662.603 3.49591 3.00971 0
M  V30 6575 H 660.846 3.33237 2.77733 0
M  V30 6576 H 661.517 3.31859 4.41105 0
M  V30 6577 H 663.993 1.4619 3.89574 0
M  V30 6578 H 662.869 1.50633 5.27826 0
M  V30 6579 H 663.13 -0.00444568 4.421 0
M  V30 6580 N 662.189 -1.289 0.906776 0
M  V30 6581 C 663.099 -2.31256 0.394707 0
M  V30 6582 C 664.115 -1.66231 -0.514121 0
M  V30 6583 O 665.291 -1.97347 -0.401994 0
M  V30 6584 C 662.356 -3.44792 -0.363191 0
M  V30 6585 C 661.417 -4.25391 0.578012 0
M  V30 6586 C 660.65 -5.33506 -0.143811 0
M  V30 6587 O 660.873 -5.53786 -1.36665 0
M  V30 6588 O 659.807 -5.99673 0.5173 0
M  V30 6589 H 663.633 -2.77051 1.24405 0
M  V30 6590 H 661.218 -1.33466 0.671346 0
M  V30 6591 H 663.1 -4.139 -0.791503 0
M  V30 6592 H 661.775 -3.01093 -1.18848 0
M  V30 6593 H 660.682 -3.58899 1.05558 0
M  V30 6594 H 662.015 -4.72752 1.36992 0
M  V30 6595 N 663.667 -0.670007 -1.42649 0
M  V30 6596 C 665.083 -0.33911 -1.55956 0
M  V30 6597 C 665.283 1.1558 -1.65056 0
M  V30 6598 O 664.339 1.94111 -1.61485 0
M  V30 6599 C 665.652 -1.06522 -2.812 0
M  V30 6600 C 667.2 -1.04708 -2.94966 0
M  V30 6601 C 667.675 -1.75442 -4.23065 0
M  V30 6602 N 669.166 -1.72286 -4.29967 0
M  V30 6603 C 669.901 -2.23877 -5.27889 0
M  V30 6604 N 669.397 -2.83829 -6.31991 0
M  V30 6605 N 671.19 -2.14279 -5.19654 0
M  V30 6606 H 663.341 -1.6399 -1.34986 0
M  V30 6607 H 665.604 -0.690603 -0.649439 0
M  V30 6608 H 665.31 -2.12033 -2.80597 0
M  V30 6609 H 665.184 -0.627398 -3.71946 0
M  V30 6610 H 667.571 -0.000315966 -2.951 0
M  V30 6611 H 667.652 -1.52374 -2.05465 0
M  V30 6612 H 667.296 -2.80084 -4.23693 0
M  V30 6613 H 667.226 -1.25229 -5.11493 0
M  V30 6614 H 669.717 -1.28554 -3.55362 0
M  V30 6615 H 670.03 -3.20827 -7.03057 0
M  V30 6616 H 668.375 -2.87896 -6.32567 0
M  V30 6617 H 671.566 -1.67135 -4.37245 0
M  V30 6618 H 671.739 -2.54792 -5.95806 0
M  V30 6619 N 665.145 1.52092 -0.413018 0
M  V30 6620 C 666.075 2.30021 0.401567 0
M  V30 6621 C 667.056 1.34395 1.04269 0
M  V30 6622 O 668.241 1.63304 1.05097 0
M  V30 6623 C 665.371 3.12447 1.51638 0
M  V30 6624 C 664.325 4.16153 1.00005 0
M  V30 6625 C 663.651 4.86948 2.20875 0
M  V30 6626 C 664.951 5.22275 0.0513757 0
M  V30 6627 H 666.645 2.98365 -0.248704 0
M  V30 6628 H 664.191 1.4349 -0.121052 0
M  V30 6629 H 666.144 3.65733 2.09326 0
M  V30 6630 H 664.868 2.41879 2.19458 0
M  V30 6631 H 663.527 3.63882 0.445549 0
M  V30 6632 H 663.175 4.12905 2.8726 0
M  V30 6633 H 662.875 5.57057 1.86978 0
M  V30 6634 H 664.399 5.43048 2.79162 0
M  V30 6635 H 665.813 5.70778 0.537176 0
M  V30 6636 H 664.21 5.9977 -0.198977 0
M  V30 6637 H 665.28 4.76611 -0.892736 0
M  V30 6638 N 666.623 0.143563 1.56945 0
M  V30 6639 C 667.553 -0.7936 2.196 0
M  V30 6640 C 668.534 -1.25955 1.14321 0
M  V30 6641 O 669.719 -1.31773 1.42651 0
M  V30 6642 C 666.849 -2.03424 2.81489 0
M  V30 6643 C 665.803 -1.70519 3.92565 0
M  V30 6644 C 665.129 -3.01817 4.41373 0
M  V30 6645 C 666.429 -0.95449 5.13504 0
M  V30 6646 H 668.123 -0.271423 2.98167 0
M  V30 6647 H 665.669 -0.12911 1.4342 0
M  V30 6648 H 667.622 -2.69463 3.23987 0
M  V30 6649 H 666.346 -2.58008 2.00248 0
M  V30 6650 H 665.005 -1.06859 3.5068 0
M  V30 6651 H 664.653 -3.54386 3.56959 0
M  V30 6652 H 664.353 -2.80565 5.16292 0
M  V30 6653 H 665.877 -3.68934 4.86539 0
M  V30 6654 H 667.291 -1.5169 5.52868 0
M  V30 6655 H 665.688 -0.842035 5.94163 0
M  V30 6656 H 666.758 0.0544033 4.84869 0
M  V30 6657 N 668.101 -1.57061 -0.130224 0
M  V30 6658 C 669.033 -1.96147 -1.18571 0
M  V30 6659 C 670.046 -0.859347 -1.38272 0
M  V30 6660 O 671.235 -1.13769 -1.37545 0
M  V30 6661 C 668.335 -2.23484 -2.54771 0
M  V30 6662 C 667.508 -3.54786 -2.55824 0
M  V30 6663 C 666.567 -3.70467 -3.73686 0
M  V30 6664 O 665.593 -4.42693 -3.57787 0
M  V30 6665 N 666.795 -3.08389 -4.91809 0
M  V30 6666 H 669.56 -2.87295 -0.853333 0
M  V30 6667 H 667.121 -1.58714 -0.319621 0
M  V30 6668 H 669.113 -2.312 -3.32158 0
M  V30 6669 H 667.683 -1.38518 -2.80235 0
M  V30 6670 H 666.903 -3.5836 -1.64232 0
M  V30 6671 H 668.191 -4.4111 -2.53573 0
M  V30 6672 H 667.589 -2.49656 -5.0763 0
M  V30 6673 H 666.146 -3.21642 -5.66912 0
M  V30 6674 N 669.579 0.400081 -1.52437 0
M  V30 6675 C 670.542 1.4707 -1.75793 0
M  V30 6676 C 671.542 1.48036 -0.627856 0
M  V30 6677 O 672.732 1.49401 -0.895817 0
M  V30 6678 C 669.864 2.86427 -1.84858 0
M  V30 6679 H 671.057 1.27649 -2.71377 0
M  V30 6680 H 668.61 0.631141 -1.42991 0
M  V30 6681 H 669.345 3.11207 -0.912194 0
M  V30 6682 H 669.13 2.87128 -2.6702 0
M  V30 6683 H 670.62 3.64023 -2.04638 0
M  V30 6684 N 671.057 1.43213 0.657864 0
M  V30 6685 C 672.007 1.44459 1.76396 0
M  V30 6686 C 672.991 0.313641 1.57814 0
M  V30 6687 O 674.183 0.557094 1.68004 0
M  V30 6688 C 671.312 1.36586 3.14959 0
M  V30 6689 C 670.398 2.54692 3.39106 0
M  V30 6690 N 670.789 3.80059 3.33749 0
M  V30 6691 C 669.087 2.49316 3.69807 0
M  V30 6692 C 669.788 4.58606 3.57849 0
M  V30 6693 N 668.764 3.89267 3.79437 0
M  V30 6694 H 672.566 2.39265 1.70673 0
M  V30 6695 H 670.08 1.378 0.859357 0
M  V30 6696 H 672.077 1.35561 3.94245 0
M  V30 6697 H 670.737 0.427956 3.21867 0
M  V30 6698 H 671.748 4.12414 3.13266 0
M  V30 6699 H 668.425 1.6419 3.83859 0
M  V30 6700 H 669.815 5.67619 3.59525 0
M  V30 6701 N 672.536 -0.895792 1.29666 0
M  V30 6702 C 673.952 -1.17726 1.07763 0
M  V30 6703 C 674.152 -2.00794 -0.168576 0
M  V30 6704 O 673.208 -2.37213 -0.865244 0
M  V30 6705 C 674.521 -1.89441 2.33522 0
M  V30 6706 C 676.069 -2.02251 2.3888 0
M  V30 6707 C 676.544 -2.77378 3.64452 0
M  V30 6708 N 678.035 -2.8493 3.65198 0
M  V30 6709 C 678.77 -3.43606 4.59045 0
M  V30 6710 N 678.266 -4.03417 5.63228 0
M  V30 6711 N 680.059 -3.41317 4.46608 0
M  V30 6712 H 672.21 -0.341652 2.09634 0
M  V30 6713 H 674.473 -0.213865 0.923561 0
M  V30 6714 H 674.179 -1.35842 3.24407 0
M  V30 6715 H 674.053 -2.89893 2.41334 0
M  V30 6716 H 676.44 -2.55025 1.4848 0
M  V30 6717 H 676.521 -1.0092 2.3505 0
M  V30 6718 H 676.165 -2.25279 4.55205 0
M  V30 6719 H 676.095 -3.79062 3.65541 0
M  V30 6720 H 678.586 -2.42453 2.89871 0
M  V30 6721 H 678.899 -4.46224 6.30955 0
M  V30 6722 H 677.244 -4.01868 5.67033 0
M  V30 6723 H 680.435 -2.93812 3.64407 0
M  V30 6724 H 680.608 -3.86751 5.1993 0
M  V30 6725 N 674.014 -1.12206 -1.10668 0
M  V30 6726 C 674.946 -0.74552 -2.16736 0
M  V30 6727 C 675.959 0.226696 -1.61214 0
M  V30 6728 O 677.148 0.0083936 -1.78498 0
M  V30 6729 C 674.248 -0.0823368 -3.388 0
M  V30 6730 C 673.421 -1.08341 -4.2377 0
M  V30 6731 C 672.48 -0.448292 -5.24287 0
M  V30 6732 O 671.506 -1.10458 -5.58379 0
M  V30 6733 N 672.708 0.785336 -5.75163 0
M  V30 6734 H 675.473 -1.65818 -2.49649 0
M  V30 6735 H 673.034 -1.01335 -1.26265 0
M  V30 6736 H 675.026 0.354476 -4.03145 0
M  V30 6737 H 673.596 0.733041 -3.03884 0
M  V30 6738 H 672.816 -1.69792 -3.55759 0
M  V30 6739 H 674.104 -1.76042 -4.77375 0
M  V30 6740 H 673.502 1.33755 -5.4966 0
M  V30 6741 H 672.059 1.16501 -6.41304 0
M  V30 6742 N 675.492 1.28418 -0.913599 0
M  V30 6743 C 676.422 2.29713 -0.418847 0
M  V30 6744 C 677.403 1.62165 0.513469 0
M  V30 6745 O 678.588 1.89576 0.421235 0
M  V30 6746 C 675.718 3.45612 0.342042 0
M  V30 6747 C 674.672 4.25056 -0.501123 0
M  V30 6748 C 673.998 5.3329 0.388097 0
M  V30 6749 C 675.298 4.91814 -1.75831 0
M  V30 6750 H 676.992 2.71346 -1.26538 0
M  V30 6751 H 674.538 1.30446 -0.609903 0
M  V30 6752 H 676.491 4.15562 0.699 0
M  V30 6753 H 675.215 3.02858 1.22248 0
M  V30 6754 H 673.874 3.56833 -0.840598 0
M  V30 6755 H 673.522 4.8678 1.26707 0
M  V30 6756 H 673.222 5.87347 -0.172459 0
M  V30 6757 H 674.746 6.06088 0.74094 0
M  V30 6758 H 676.16 5.54126 -1.47026 0
M  V30 6759 H 674.557 5.55866 -2.26126 0
M  V30 6760 H 675.627 4.16313 -2.4862 0
M  V30 6761 N 676.97 0.677563 1.42291 0
M  V30 6762 C 677.88 0.000962654 2.346 0
M  V30 6763 C 678.896 -0.785833 1.55244 0
M  V30 6764 O 680.072 -0.727523 1.87801 0
M  V30 6765 C 677.137 -0.936746 3.33805 0
M  V30 6766 C 676.198 -0.144173 4.29058 0
M  V30 6767 C 675.431 -1.03722 5.23524 0
M  V30 6768 O 675.654 -2.27675 5.22992 0
M  V30 6769 O 674.588 -0.496542 5.99848 0
M  V30 6770 H 678.414 0.761397 2.94001 0
M  V30 6771 H 675.999 0.43781 1.42841 0
M  V30 6772 H 677.881 -1.47497 3.94744 0
M  V30 6773 H 676.556 -1.67698 2.76874 0
M  V30 6774 H 675.463 0.438224 3.71524 0
M  V30 6775 H 676.796 0.55701 4.89038 0
M  V30 6776 N 678.448 -1.51871 0.421078 0
M  V30 6777 C 679.358 -2.31077 -0.405069 0
M  V30 6778 C 680.374 -1.39301 -1.04265 0
M  V30 6779 O 681.55 -1.72376 -1.04157 0
M  V30 6780 C 678.615 -3.12556 -1.50032 0
M  V30 6781 C 677.676 -4.20088 -0.884559 0
M  V30 6782 C 676.909 -4.97673 -1.92762 0
M  V30 6783 O 677.132 -4.75696 -3.14753 0
M  V30 6784 O 676.066 -5.82203 -1.52719 0
M  V30 6785 H 679.892 -3.02742 0.241086 0
M  V30 6786 H 677.477 -1.48263 0.183991 0
M  V30 6787 H 679.359 -3.6326 -2.13589 0
M  V30 6788 H 678.034 -2.43672 -2.13086 0
M  V30 6789 H 676.941 -3.73502 -0.211379 0
M  V30 6790 H 678.274 -4.91298 -0.297763 0
M  V30 6791 N 679.926 -0.151884 -1.56866 0
M  V30 6792 C 681.342 0.204486 -1.58285 0
M  V30 6793 C 681.542 1.6431 -1.16639 0
M  V30 6794 O 680.598 2.37077 -0.868946 0
M  V30 6795 C 681.911 -0.0587019 -3.00643 0
M  V30 6796 C 683.459 0.00462303 -3.13 0
M  V30 6797 C 683.934 -0.231297 -4.57416 0
M  V30 6798 N 685.425 -0.178394 -4.62856 0
M  V30 6799 C 686.16 -0.335379 -5.72418 0
M  V30 6800 N 685.656 -0.550355 -6.90611 0
M  V30 6801 N 687.449 -0.272641 -5.61438 0
M  V30 6802 H 679.6 -1.09116 -1.82229 0
M  V30 6803 H 681.863 -0.432311 -0.843689 0
M  V30 6804 H 681.569 -1.05453 -3.35518 0
M  V30 6805 H 681.443 0.658508 -3.71407 0
M  V30 6806 H 683.83 0.991009 -2.77962 0
M  V30 6807 H 683.911 -0.744992 -2.44711 0
M  V30 6808 H 683.555 -1.2148 -4.93158 0
M  V30 6809 H 683.485 0.5387 -5.23837 0
M  V30 6810 H 685.976 -0.0170923 -3.77896 0
M  V30 6811 H 686.289 -0.660116 -7.69976 0
M  V30 6812 H 684.634 -0.586736 -6.92519 0
M  V30 6813 H 687.825 -0.105421 -4.67981 0
M  V30 6814 H 687.998 -0.398418 -6.46774 0
M  V30 6815 N 681.404 1.57128 0.121893 0
M  V30 6816 C 682.652 1.84335 0.828548 0
M  V30 6817 C 682.973 0.736632 1.80551 0
M  V30 6818 O 682.243 -0.23962 1.94429 0
M  V30 6819 H 680.823 0.680108 0.30897 0
M  V30 6820 H 683.485 1.9459 0.109906 0
M  V30 6821 H 682.581 2.80152 1.37554 0
M  V30 6822 N 682.882 -0.391992 1.52647 0
M  V30 6823 C 684.112 -1.15692 1.71169 0
M  V30 6824 C 684.52 -1.84285 0.428444 0
M  V30 6825 O 683.863 -1.73393 -0.606669 0
M  V30 6826 C 683.925 -2.25033 2.80357 0
M  V30 6827 C 683.589 -1.76433 4.21569 0
M  V30 6828 C 684.586 -1.2427 5.0483 0
M  V30 6829 C 682.271 -1.82746 4.67877 0
M  V30 6830 C 684.265 -0.790657 6.32477 0
M  V30 6831 C 681.952 -1.37153 5.9551 0
M  V30 6832 C 682.95 -0.853997 6.7764 0
M  V30 6833 O 682.638 -0.404708 8.02881 0
M  V30 6834 H 682.37 -0.35297 0.576531 0
M  V30 6835 H 684.924 -0.464994 2.00067 0
M  V30 6836 H 683.154 -2.97641 2.46874 0
M  V30 6837 H 684.843 -2.86718 2.87311 0
M  V30 6838 H 685.609 -1.18752 4.70237 0
M  V30 6839 H 681.488 -2.21971 4.04042 0
M  V30 6840 H 685.032 -0.386024 6.96531 0
M  V30 6841 H 680.929 -1.42356 6.29607 0
M  V30 6842 H 681.697 -0.526459 8.16805 0
M  V30 6843 N 684.36 -1.4356 -0.65026 0
M  V30 6844 C 685.606 -1.45549 -1.41221 0
M  V30 6845 C 685.939 -0.0805472 -1.94033 0
M  V30 6846 O 685.214 0.899043 -1.72475 0
M  V30 6847 C 685.497 -2.50028 -2.59148 0
M  V30 6848 C 685.35 -3.96808 -2.1181 0
M  V30 6849 C 686.669 -2.51212 -3.61359 0
M  V30 6850 H 683.788 -0.529967 -0.512156 0
M  V30 6851 H 686.43 -1.75127 -0.736933 0
M  V30 6852 H 684.58 -2.24937 -3.16758 0
M  V30 6853 H 686.252 -4.32966 -1.59178 0
M  V30 6854 H 684.495 -4.09498 -1.43156 0
M  V30 6855 H 685.166 -4.6553 -2.96625 0
M  V30 6856 H 687.642 -2.73583 -3.13515 0
M  V30 6857 H 686.518 -3.26252 -4.41419 0
M  V30 6858 H 686.779 -1.54701 -4.1415 0
M  V30 6859 N 685.838 0.888903 -1.30139 0
M  V30 6860 C 687.085 1.64037 -1.18736 0
M  V30 6861 C 687.413 1.92771 0.258801 0
M  V30 6862 O 686.668 1.54427 1.20212 0
M  V30 6863 C 686.967 2.99041 -1.95728 0
M  V30 6864 C 686.633 2.89874 -3.45375 0
M  V30 6865 C 685.295 2.87082 -3.86183 0
M  V30 6866 C 687.647 2.78289 -4.40687 0
M  V30 6867 C 684.975 2.70536 -5.20603 0
M  V30 6868 C 687.327 2.63282 -5.75209 0
M  V30 6869 C 685.991 2.58861 -6.15262 0
M  V30 6870 H 685.261 0.600253 -0.434485 0
M  V30 6871 H 687.908 1.0338 -1.61198 0
M  V30 6872 H 686.213 3.63626 -1.45888 0
M  V30 6873 H 687.91 3.56139 -1.843 0
M  V30 6874 H 684.5 2.92856 -3.12943 0
M  V30 6875 H 688.684 2.79516 -4.10103 0
M  V30 6876 H 683.94 2.65526 -5.50732 0
M  V30 6877 H 688.114 2.5329 -6.48704 0
M  V30 6878 H 685.741 2.45799 -7.19366 0
M  V30 6879 N 687.317 1.12792 1.10072 0
M  V30 6880 C 688.563 0.886857 1.82381 0
M  V30 6881 C 688.896 -0.58576 1.85155 0
M  V30 6882 O 688.171 -1.43317 1.31493 0
M  V30 6883 C 688.454 1.46703 3.28862 0
M  V30 6884 C 688.307 3.00829 3.34398 0
M  V30 6885 C 689.626 1.12971 4.25353 0
M  V30 6886 H 686.745 0.32362 0.662148 0
M  V30 6887 H 689.387 1.39513 1.28982 0
M  V30 6888 H 687.537 1.03476 3.74466 0
M  V30 6889 H 689.209 3.52764 2.97247 0
M  V30 6890 H 687.452 3.36164 2.74183 0
M  V30 6891 H 688.123 3.36519 4.3756 0
M  V30 6892 H 690.599 1.50313 3.88001 0
M  V30 6893 H 689.475 1.56223 5.26199 0
M  V30 6894 H 689.736 0.0424452 4.4208 0
M  V30 6895 N 688.795 -1.27931 0.920396 0
M  V30 6896 C 690.043 -1.94304 0.555906 0
M  V30 6897 C 690.364 -1.72753 -0.904519 0
M  V30 6898 O 689.634 -1.07104 -1.64029 0
M  V30 6899 H 688.214 -0.719001 0.202599 0
M  V30 6900 H 690.876 -1.55785 1.1712 0
M  V30 6901 H 689.972 -3.02806 0.755981 0
M  V30 6902 N 690.273 -0.685099 -1.4193 0
M  V30 6903 C 691.503 -0.220052 -2.05425 0
M  V30 6904 C 691.911 1.13185 -1.51611 0
M  V30 6905 O 691.254 1.71631 -0.654875 0
M  V30 6906 C 691.316 -0.0888364 -3.5939 0
M  V30 6907 C 690.98 -1.37109 -4.35947 0
M  V30 6908 C 691.977 -2.30675 -4.65924 0
M  V30 6909 C 689.662 -1.62155 -4.75406 0
M  V30 6910 C 691.656 -3.47556 -5.34306 0
M  V30 6911 C 689.343 -2.79324 -5.43527 0
M  V30 6912 C 690.341 -3.71848 -5.72903 0
M  V30 6913 O 690.029 -4.86966 -6.39624 0
M  V30 6914 H 689.761 -0.102165 -0.668235 0
M  V30 6915 H 692.315 -0.935194 -1.82875 0
M  V30 6916 H 690.545 0.681981 -3.80639 0
M  V30 6917 H 692.234 0.337669 -4.04493 0
M  V30 6918 H 693 -2.12579 -4.3593 0
M  V30 6919 H 688.879 -0.910053 -4.51928 0
M  V30 6920 H 692.423 -4.19794 -5.57153 0
M  V30 6921 H 688.32 -2.97342 -5.72938 0
M  V30 6922 H 689.088 -4.86644 -6.58118 0
M  V30 6923 N 691.751 1.51645 -0.429126 0
M  V30 6924 C 692.701 2.24388 0.404217 0
M  V30 6925 C 693.685 1.26294 0.996933 0
M  V30 6926 O 694.877 1.51428 0.916434 0
M  V30 6927 C 692.006 3.08338 1.50938 0
M  V30 6928 C 691.092 4.13857 0.926464 0
M  V30 6929 N 691.483 5.05749 0.0719732 0
M  V30 6930 C 689.781 4.29695 1.19491 0
M  V30 6931 C 690.482 5.81143 -0.254528 0
M  V30 6932 N 689.458 5.42408 0.359763 0
M  V30 6933 H 693.26 2.92794 -0.254697 0
M  V30 6934 H 690.774 1.60606 -0.240712 0
M  V30 6935 H 692.771 3.59022 2.11918 0
M  V30 6936 H 691.431 2.41475 2.17072 0
M  V30 6937 H 692.442 5.17066 -0.293854 0
M  V30 6938 H 689.119 3.74059 1.85434 0
M  V30 6939 H 690.509 6.65159 -0.949365 0
M  V30 6940 N 693.229 0.160201 1.56784 0
M  V30 6941 C 694.477 -0.486625 1.96154 0
M  V30 6942 C 694.798 -1.64525 1.04673 0
M  V30 6943 O 694.068 -1.95586 0.110864 0
M  V30 6944 H 692.648 -0.182764 0.724297 0
M  V30 6945 H 695.31 0.238787 1.93432 0
M  V30 6946 H 694.406 -0.854025 3.00188 0
M  V30 6947 N 694.707 -1.5719 -0.113559 0
M  V30 6948 C 695.935 -1.89328 -0.834422 0
M  V30 6949 C 696.35 -0.752018 -1.73177 0
M  V30 6950 O 695.707 0.276912 -1.80387 0
M  V30 6951 C 695.758 -3.20962 -1.66329 0
M  V30 6952 O 695.479 -4.30695 -0.802069 0
M  V30 6953 C 696.98 -3.6684 -2.48884 0
M  V30 6954 H 694.2 -0.626769 -0.239587 0
M  V30 6955 H 696.744 -2.04273 -0.0963195 0
M  V30 6956 H 694.899 -3.0767 -2.35409 0
M  V30 6957 H 695.313 -5.06175 -1.37431 0
M  V30 6958 H 696.787 -4.61692 -3.02563 0
M  V30 6959 H 697.264 -2.93765 -3.26495 0
M  V30 6960 H 697.87 -3.82938 -1.85036 0
M  V30 6961 N 696.185 0.383891 -1.52853 0
M  V30 6962 C 697.432 1.12842 -1.68146 0
M  V30 6963 C 697.76 1.89823 -0.423954 0
M  V30 6964 O 697.015 1.86475 0.593765 0
M  V30 6965 C 697.314 2.12881 -2.87082 0
M  V30 6966 C 696.98 1.52519 -4.24322 0
M  V30 6967 C 695.642 1.35783 -4.61645 0
M  V30 6968 C 697.994 1.0868 -5.09743 0
M  V30 6969 C 695.322 0.737643 -5.82044 0
M  V30 6970 C 697.674 0.480699 -6.30771 0
M  V30 6971 C 696.338 0.300681 -6.66822 0
M  V30 6972 H 695.608 0.412917 -0.615289 0
M  V30 6973 H 698.255 0.412416 -1.87006 0
M  V30 6974 H 696.56 2.90719 -2.62659 0
M  V30 6975 H 698.257 2.70408 -2.96109 0
M  V30 6976 H 694.847 1.66534 -3.94923 0
M  V30 6977 H 699.031 1.2041 -4.81472 0
M  V30 6978 H 694.287 0.586415 -6.08581 0
M  V30 6979 H 698.461 0.132733 -6.96273 0
M  V30 6980 H 696.088 -0.181966 -7.59982 0
M  V30 6981 N 697.663 1.43903 0.642637 0
M  V30 6982 C 698.593 1.52697 1.76652 0
M  V30 6983 C 699.574 0.380816 1.65782 0
M  V30 6984 O 700.759 0.599432 1.84717 0
M  V30 6985 C 697.889 1.45975 3.15133 0
M  V30 6986 C 696.843 2.58949 3.40778 0
M  V30 6987 C 696.169 2.37279 4.79169 0
M  V30 6988 C 697.469 4.01153 3.34475 0
M  V30 6989 H 699.163 2.46766 1.69549 0
M  V30 6990 H 696.709 1.18767 0.814279 0
M  V30 6991 H 698.662 1.5073 3.93521 0
M  V30 6992 H 697.386 0.484162 3.22991 0
M  V30 6993 H 696.045 2.53564 2.64765 0
M  V30 6994 H 695.693 1.37939 4.83717 0
M  V30 6995 H 695.393 3.13016 4.97287 0
M  V30 6996 H 696.917 2.43834 5.59801 0
M  V30 6997 H 698.331 4.07968 4.02784 0
M  V30 6998 H 696.728 4.77001 3.64129 0
M  V30 6999 H 697.798 4.25539 2.32475 0
M  V30 7000 N 699.141 -0.881989 1.30609 0
M  V30 7001 C 700.051 -2.02076 1.19174 0
M  V30 7002 C 701.067 -1.73645 0.11102 0
M  V30 7003 O 702.243 -1.98735 0.326528 0
M  V30 7004 C 699.308 -3.3515 0.887438 0
M  V30 7005 C 698.369 -3.76983 2.05383 0
M  V30 7006 C 697.602 -5.03707 1.76395 0
M  V30 7007 O 697.825 -5.66171 0.693302 0
M  V30 7008 O 696.759 -5.42019 2.61723 0
M  V30 7009 H 700.585 -2.14652 2.14845 0
M  V30 7010 H 698.17 -1.00843 1.10232 0
M  V30 7011 H 700.052 -4.14975 0.73306 0
M  V30 7012 H 698.727 -3.23676 -0.0393354 0
M  V30 7013 H 697.634 -2.97849 2.26355 0
M  V30 7014 H 698.967 -3.93066 2.96243 0
M  V30 7015 N 700.619 -1.13374 -1.09472 0
M  V30 7016 C 701.582 -0.813639 -2.14272 0
M  V30 7017 C 702.582 0.176677 -1.59826 0
M  V30 7018 O 703.772 -0.0503441 -1.74127 0
M  V30 7019 C 700.904 -0.210897 -3.40247 0
M  V30 7020 H 702.097 -1.74229 -2.44099 0
M  V30 7021 H 699.65 -0.938304 -1.25002 0
M  V30 7022 H 700.385 0.726998 -3.16046 0
M  V30 7023 H 700.17 -0.924048 -3.81056 0
M  V30 7024 H 701.66 -0.00377603 -4.176 0
M  V30 7025 N 702.098 1.27442 -0.927168 0
M  V30 7026 C 703.061 2.2512 -0.430525 0
M  V30 7027 C 704.061 1.54357 0.450619 0
M  V30 7028 O 705.251 1.72371 0.251774 0
M  V30 7029 C 702.383 3.38763 0.381144 0
M  V30 7030 H 703.576 2.70569 -1.29354 0
M  V30 7031 H 701.129 1.39355 -0.707806 0
M  V30 7032 H 701.864 2.98695 1.263 0
M  V30 7033 H 701.649 3.91298 -0.250618 0
M  V30 7034 H 703.139 4.11364 0.719012 0
M  V30 7035 N 703.576 0.692616 1.41565 0
M  V30 7036 C 704.508 -0.0137132 2.29196 0
M  V30 7037 C 705.521 -0.747417 1.44629 0
M  V30 7038 O 706.71 -0.598611 1.68163 0
M  V30 7039 C 703.81 -1.04347 3.22436 0
M  V30 7040 C 702.983 -0.379985 4.35746 0
M  V30 7041 C 702.042 -1.31195 5.09583 0
M  V30 7042 O 701.068 -0.805455 5.63472 0
M  V30 7043 N 702.27 -2.64443 5.16769 0
M  V30 7044 H 705.035 0.738614 2.90456 0
M  V30 7045 H 702.596 0.538415 1.52685 0
M  V30 7046 H 704.588 -1.6686 3.687 0
M  V30 7047 H 703.158 -1.69736 2.62504 0
M  V30 7048 H 702.378 0.424975 3.91903 0
M  V30 7049 H 703.666 0.0814904 5.08735 0
M  V30 7050 H 703.064 -3.08114 4.74428 0
M  V30 7051 H 701.621 -3.22159 5.66619 0
M  V30 7052 N 705.054 -1.51416 0.437162 0
M  V30 7053 C 706.279 -2.0699 -0.130424 0
M  V30 7054 C 706.704 -1.30249 -1.35709 0
M  V30 7055 O 706.062 -0.340388 -1.78076 0
M  V30 7056 C 706.11 -3.5801 -0.43142 0
M  V30 7057 O 705.214 -3.8345 -1.5179 0
M  V30 7058 H 704.555 -0.663997 -0.00194339 0
M  V30 7059 H 707.085 -1.95029 0.618445 0
M  V30 7060 H 707.095 -4.02261 -0.681926 0
M  V30 7061 H 705.77 -4.13291 0.465137 0
M  V30 7062 H 704.347 -3.51062 -1.25737 0
M  V30 7063 N 706.532 -0.168513 -1.56696 0
M  V30 7064 C 707.781 0.477233 -1.95973 0
M  V30 7065 C 708.094 1.64578 -1.05704 0
M  V30 7066 O 709.3 2.35758 -1.3465 0
M  V30 7067 C 707.756 0.900413 -3.48455 0
M  V30 7068 C 707.364 -0.242382 -4.47344 0
M  V30 7069 C 709.108 1.51474 -3.96555 0
M  V30 7070 C 707.015 0.200272 -5.91061 0
M  V30 7071 H 705.945 0.182061 -0.73169 0
M  V30 7072 H 708.596 -0.256297 -1.81701 0
M  V30 7073 H 706.978 1.68984 -3.58135 0
M  V30 7074 H 708.152 -1.01967 -4.49377 0
M  V30 7075 H 706.467 -0.766484 -4.09285 0
M  V30 7076 H 709.064 1.85792 -5.01384 0
M  V30 7077 H 709.407 2.41163 -3.39332 0
M  V30 7078 H 709.94 0.789802 -3.89881 0
M  V30 7079 H 706.679 -0.661775 -6.52151 0
M  V30 7080 H 706.199 0.942979 -5.92341 0
M  V30 7081 H 707.878 0.645088 -6.43776 0
M  V30 7082 N 708.01 1.57248 0.105221 0
M  V30 7083 C 709.256 1.85845 0.811753 0
M  V30 7084 C 709.589 0.756219 1.78871 0
M  V30 7085 O 708.864 -0.236736 1.93054 0
M  V30 7086 C 709.147 3.25059 1.54947 0
M  V30 7087 C 709 4.45898 0.591185 0
M  V30 7088 C 710.319 3.6203 2.50245 0
M  V30 7089 H 707.438 0.675973 0.293649 0
M  V30 7090 H 710.08 1.89849 0.0756269 0
M  V30 7091 H 708.23 3.21776 2.17698 0
M  V30 7092 H 709.902 4.61291 -0.0285352 0
M  V30 7093 H 708.145 4.33693 -0.0962343 0
M  V30 7094 H 708.816 5.40009 1.1443 0
M  V30 7095 H 711.292 3.66192 1.97593 0
M  V30 7096 H 710.168 4.60389 2.98886 0
M  V30 7097 H 710.429 2.90176 3.33542 0
M  V30 7098 N 709.488 -0.375779 1.53054 0
M  V30 7099 C 710.735 -1.11948 1.68742 0
M  V30 7100 C 711.063 -1.89596 0.434015 0
M  V30 7101 O 710.318 -1.86787 -0.583867 0
M  V30 7102 C 710.617 -2.11356 2.88207 0
M  V30 7103 C 710.283 -1.50266 4.25124 0
M  V30 7104 C 708.945 -1.33333 4.62359 0
M  V30 7105 C 711.297 -1.05976 5.10312 0
M  V30 7106 C 708.625 -0.706765 5.82427 0
M  V30 7107 C 710.977 -0.447241 6.31017 0
M  V30 7108 C 709.641 -0.265314 6.66973 0
M  V30 7109 H 708.911 -0.409648 0.61747 0
M  V30 7110 H 711.558 -0.402492 1.87222 0
M  V30 7111 H 709.863 -2.89322 2.64197 0
M  V30 7112 H 711.56 -2.68833 2.97539 0
M  V30 7113 H 708.15 -1.64437 3.95801 0
M  V30 7114 H 712.334 -1.17855 4.82104 0
M  V30 7115 H 707.59 -0.554132 6.08884 0
M  V30 7116 H 711.764 -0.0958064 6.96334 0
M  V30 7117 H 709.391 0.222267 7.59875 0
M  V30 7118 N 710.966 -1.44241 -0.634997 0
M  V30 7119 C 712.214 -1.46531 -1.39187 0
M  V30 7120 C 712.535 -0.0976441 -1.94755 0
M  V30 7121 O 711.805 0.869528 -1.75545 0
M  V30 7122 H 710.385 -0.539544 -0.516625 0
M  V30 7123 H 713.047 -1.79989 -0.747655 0
M  V30 7124 H 712.143 -2.18848 -2.22513 0
M  V30 7125 N 712.444 0.87505 -1.31075 0
M  V30 7126 C 713.692 1.62447 -1.20231 0
M  V30 7127 C 714.013 1.93506 0.240888 0
M  V30 7128 O 713.283 1.57847 1.16022 0
M  V30 7129 H 711.863 0.602207 -0.441991 0
M  V30 7130 H 714.525 1.04788 -1.64334 0
M  V30 7131 H 713.621 2.57031 -1.77036 0
M  V30 7132 N 713.922 1.13953 1.08869 0
M  V30 7133 C 715.168 0.906151 1.8143 0
M  V30 7134 C 715.501 -0.566089 1.85766 0
M  V30 7135 O 714.776 -1.41915 1.33006 0
M  V30 7136 C 715.059 1.50183 3.27287 0
M  V30 7137 C 714.912 3.04359 3.31189 0
M  V30 7138 C 716.231 1.17477 4.24131 0
M  V30 7139 H 713.35 0.330624 0.658678 0
M  V30 7140 H 715.992 1.40873 1.27495 0
M  V30 7141 H 714.142 1.07442 3.73348 0
M  V30 7142 H 715.814 3.55896 2.93488 0
M  V30 7143 H 714.057 3.39053 2.70602 0
M  V30 7144 H 714.728 3.41141 4.33966 0
M  V30 7145 H 717.204 1.5442 3.86385 0
M  V30 7146 H 716.08 1.61795 5.24513 0
M  V30 7147 H 716.341 0.0893312 4.4201 0
M  V30 7148 N 715.4 -1.26948 0.933913 0
M  V30 7149 C 716.816 -1.46419 0.635103 0
M  V30 7150 C 717.016 -1.84336 -0.813785 0
M  V30 7151 O 716.072 -1.96061 -1.59111 0
M  V30 7152 C 717.385 -2.55206 1.5903 0
M  V30 7153 C 718.933 -2.69062 1.5992 0
M  V30 7154 C 719.408 -3.81013 2.54152 0
M  V30 7155 N 720.899 -3.88395 2.52395 0
M  V30 7156 C 721.634 -4.74454 3.21996 0
M  V30 7157 N 721.13 -5.64954 4.00997 0
M  V30 7158 N 722.923 -4.68237 3.10983 0
M  V30 7159 H 715.074 -1.00622 1.87053 0
M  V30 7160 H 717.337 -0.503189 0.803433 0
M  V30 7161 H 717.043 -2.34153 2.62422 0
M  V30 7162 H 716.917 -3.52719 1.33677 0
M  V30 7163 H 719.304 -2.89492 0.572569 0
M  V30 7164 H 719.385 -1.72016 1.89325 0
M  V30 7165 H 719.029 -3.61336 3.5693 0
M  V30 7166 H 718.959 -4.77499 2.22041 0
M  V30 7167 H 721.45 -3.23687 1.95025 0
M  V30 7168 H 721.763 -6.27496 4.51074 0
M  V30 7169 H 720.108 -5.6473 4.05099 0
M  V30 7170 H 723.299 -3.96535 2.48753 0
M  V30 7171 H 723.472 -5.35087 3.65494 0
M  V30 7172 N 716.879 -0.700114 -1.41195 0
M  V30 7173 C 717.842 -0.0465706 -2.29153 0
M  V30 7174 C 718.842 0.703302 -1.44604 0
M  V30 7175 O 720.032 0.537513 -1.657 0
M  V30 7176 C 717.164 0.944324 -3.2756 0
M  V30 7177 H 718.357 -0.821064 -2.88442 0
M  V30 7178 H 715.91 -0.463869 -1.49258 0
M  V30 7179 H 716.645 1.74642 -2.73259 0
M  V30 7180 H 716.43 0.409701 -3.89954 0
M  V30 7181 H 717.92 1.39925 -3.9346 0
M  V30 7182 N 718.357 1.51182 -0.445186 0
M  V30 7183 C 719.773 1.59299 -0.0978954 0
M  V30 7184 C 719.973 1.4555 1.39346 0
M  V30 7185 O 719.029 1.30073 2.16419 0
M  V30 7186 C 720.342 2.94133 -0.625005 0
M  V30 7187 C 721.89 3.07463 -0.586137 0
M  V30 7188 C 722.365 4.44832 -1.09035 0
M  V30 7189 N 723.856 4.51173 -1.04867 0
M  V30 7190 C 724.591 5.55804 -1.40959 0
M  V30 7191 N 724.087 6.67816 -1.84375 0
M  V30 7192 N 725.88 5.46205 -1.32726 0
M  V30 7193 H 718.031 1.58363 -1.41544 0
M  V30 7194 H 720.294 0.746946 -0.58376 0
M  V30 7195 H 720 3.09589 -1.66876 0
M  V30 7196 H 719.874 3.77161 -0.0542262 0
M  V30 7197 H 722.261 2.9167 0.448646 0
M  V30 7198 H 722.342 2.26255 -1.19341 0
M  V30 7199 H 721.986 4.61372 -2.12364 0
M  V30 7200 H 721.916 5.24591 -0.459539 0
M  V30 7201 H 724.407 3.70783 -0.729932 0
M  V30 7202 H 724.72 7.43683 -2.10131 0
M  V30 7203 H 723.065 6.69003 -1.88308 0
M  V30 7204 H 726.256 4.57583 -0.986678 0
M  V30 7205 H 726.429 6.27634 -1.61182 0
M  V30 7206 N 719.835 0.176821 1.56605 0
M  V30 7207 C 721.06 -0.47599 2.01864 0
M  V30 7208 C 721.485 -1.55645 1.05623 0
M  V30 7209 O 720.843 -1.81263 0.0366729 0
M  V30 7210 C 720.891 -1.02619 3.4569 0
M  V30 7211 O 719.995 -2.13996 3.52533 0
M  V30 7212 H 719.336 -0.113363 0.654251 0
M  V30 7213 H 721.866 0.28233 2.02643 0
M  V30 7214 H 721.876 -1.34742 3.85109 0
M  V30 7215 H 720.551 -0.235138 4.15235 0
M  V30 7216 H 719.128 -1.82876 3.24978 0
M  V30 7217 N 721.313 -1.57302 -0.09688 0
M  V30 7218 C 722.245 -1.98618 -1.14384 0
M  V30 7219 C 723.258 -0.888483 -1.36418 0
M  V30 7220 O 724.447 -1.16661 -1.35101 0
M  V30 7221 C 721.547 -2.28838 -2.49973 0
M  V30 7222 C 720.72 -3.60132 -2.48241 0
M  V30 7223 C 719.779 -3.7831 -3.65743 0
M  V30 7224 O 718.805 -4.50183 -3.48316 0
M  V30 7225 N 720.007 -3.18752 -4.85157 0
M  V30 7226 H 722.772 -2.8904 -0.792202 0
M  V30 7227 H 720.333 -1.59356 -0.285883 0
M  V30 7228 H 722.325 -2.38193 -3.27179 0
M  V30 7229 H 720.895 -1.44431 -2.77233 0
M  V30 7230 H 720.115 -3.61763 -1.56593 0
M  V30 7231 H 721.403 -4.46389 -2.4416 0
M  V30 7232 H 720.801 -2.60368 -5.0222 0
M  V30 7233 H 719.358 -3.33595 -5.59962 0
M  V30 7234 N 722.791 0.367657 -1.53252 0
M  V30 7235 C 724.068 1.12606 -1.59935 0
M  V30 7236 C 724.448 2.07167 -0.405606 0
M  V30 7237 O 723.796 2.20364 0.604323 0
M  V30 7238 C 724.006 1.86699 -2.94863 0
M  V30 7239 C 725.354 2.41306 -3.49366 0
M  V30 7240 O 726.378 1.96828 -2.96879 0
M  V30 7241 O 725.237 3.2261 -4.41118 0
M  V30 7242 H 722.331 0.516438 -0.645926 0
M  V30 7243 H 724.877 0.371088 -1.65593 0
M  V30 7244 H 723.649 1.17674 -3.73187 0
M  V30 7245 H 723.272 2.6911 -2.92687 0
M  V30 7246 N 724.269 1.44576 0.627338 0
M  V30 7247 C 725.199 1.54562 1.75022 0
M  V30 7248 C 726.18 0.398378 1.65369 0
M  V30 7249 O 727.365 0.61899 1.84071 0
M  V30 7250 C 724.495 1.49309 3.13567 0
M  V30 7251 C 723.449 2.62549 3.38012 0
M  V30 7252 C 722.775 2.42348 4.76625 0
M  V30 7253 C 724.075 4.04678 3.30202 0
M  V30 7254 H 725.769 2.4855 1.66922 0
M  V30 7255 H 723.315 1.19624 0.801636 0
M  V30 7256 H 725.268 1.54895 3.919 0
M  V30 7257 H 723.992 0.518392 3.2246 0
M  V30 7258 H 722.651 2.56358 2.62061 0
M  V30 7259 H 722.299 1.43062 4.82226 0
M  V30 7260 H 721.999 3.18273 4.93939 0
M  V30 7261 H 723.523 2.49758 5.57183 0
M  V30 7262 H 724.937 4.12217 3.98435 0
M  V30 7263 H 723.334 4.80836 3.5905 0
M  V30 7264 H 724.404 4.2798 2.27949 0
M  V30 7265 N 725.747 -0.868086 1.31537 0
M  V30 7266 C 727.024 -1.60384 1.11965 0
M  V30 7267 C 727.404 -2.08584 -0.324949 0
M  V30 7268 O 726.752 -1.86561 -1.31937 0
M  V30 7269 C 726.962 -2.76038 2.13551 0
M  V30 7270 C 728.31 -3.45954 2.46173 0
M  V30 7271 O 729.334 -2.86247 2.11993 0
M  V30 7272 O 728.193 -4.53666 3.04711 0
M  V30 7273 H 725.287 -0.705705 0.431172 0
M  V30 7274 H 727.833 -0.913385 1.43022 0
M  V30 7275 H 726.605 -2.37849 3.10714 0
M  V30 7276 H 726.228 -3.52769 1.83411 0
M  V30 7277 N 727.225 -1.14528 -1.08264 0
M  V30 7278 C 728.188 -0.83632 -2.13397 0
M  V30 7279 C 729.188 0.159715 -1.60005 0
M  V30 7280 O 730.378 -0.0688098 -1.74064 0
M  V30 7281 C 727.51 -0.246973 -3.40004 0
M  V30 7282 H 728.703 -1.76808 -2.42237 0
M  V30 7283 H 726.256 -0.951509 -1.24 0
M  V30 7284 H 726.991 0.693436 -3.168 0
M  V30 7285 H 726.776 -0.964412 -3.80055 0
M  V30 7286 H 728.266 -0.0480679 -4.17572 0
M  V30 7287 N 728.703 1.26451 -0.940633 0
M  V30 7288 C 729.952 1.93071 -0.583656 0
M  V30 7289 C 730.265 1.74618 0.881366 0
M  V30 7290 O 731.471 2.35689 1.34769 0
M  V30 7291 C 729.927 3.45927 -0.993106 0
M  V30 7292 C 729.535 3.73115 -2.4797 0
M  V30 7293 C 731.279 4.18554 -0.707998 0
M  V30 7294 C 729.186 5.19408 -2.82788 0
M  V30 7295 H 728.116 0.722824 -0.214572 0
M  V30 7296 H 730.767 1.43538 -1.1432 0
M  V30 7297 H 729.149 3.94341 -0.362099 0
M  V30 7298 H 730.323 3.35408 -3.15971 0
M  V30 7299 H 728.638 3.13719 -2.73805 0
M  V30 7300 H 731.235 5.26293 -0.94447 0
M  V30 7301 H 731.578 4.14782 0.355225 0
M  V30 7302 H 732.111 3.76003 -1.2987 0
M  V30 7303 H 728.85 5.28281 -3.88071 0
M  V30 7304 H 728.37 5.58214 -2.19449 0
M  V30 7305 H 730.049 5.87407 -2.71224 0
M  V30 7306 N 730.181 0.707592 1.40822 0
M  V30 7307 C 731.427 0.252828 2.01823 0
M  V30 7308 C 731.782 -1.13876 1.55081 0
M  V30 7309 O 731.075 -1.75993 0.757439 0
M  V30 7310 C 731.269 0.262892 3.56432 0
M  V30 7311 C 731.098 1.65392 4.18181 0
M  V30 7312 C 729.868 2.25966 4.5196 0
M  V30 7313 C 732.066 2.60272 4.4358 0
M  V30 7314 N 730.048 3.57508 4.9906 0
M  V30 7315 C 731.419 3.76509 4.92586 0
M  V30 7316 C 733.474 2.58386 4.25607 0
M  V30 7317 C 732.177 4.91157 5.25507 0
M  V30 7318 C 734.203 3.72155 4.59625 0
M  V30 7319 C 733.565 4.87123 5.08813 0
M  V30 7320 H 729.664 0.138172 0.769696 0
M  V30 7321 H 732.248 0.927667 1.7118 0
M  V30 7322 H 730.419 -0.381479 3.86522 0
M  V30 7323 H 732.151 -0.20783 4.04166 0
M  V30 7324 H 728.906 1.78138 4.38821 0
M  V30 7325 H 729.33 4.24968 5.27002 0
M  V30 7326 H 733.972 1.7071 3.86805 0
M  V30 7327 H 731.69 5.79483 5.63227 0
M  V30 7328 H 735.276 3.71961 4.47366 0
M  V30 7329 H 734.156 5.73698 5.3464 0
M  V30 7330 N 731.66 -1.50943 0.453197 0
M  V30 7331 C 733.076 -1.59245 0.106342 0
M  V30 7332 C 733.276 -1.46287 -1.38572 0
M  V30 7333 O 732.332 -1.31219 -2.15726 0
M  V30 7334 C 733.645 -2.93797 0.640595 0
M  V30 7335 C 735.193 -3.07148 0.602435 0
M  V30 7336 C 735.668 -4.44247 1.11393 0
M  V30 7337 N 737.159 -4.50611 1.07258 0
M  V30 7338 C 737.894 -5.55049 1.43905 0
M  V30 7339 N 737.39 -6.66828 1.87914 0
M  V30 7340 N 739.183 -5.45494 1.35621 0
M  V30 7341 H 731.334 -1.5761 1.42382 0
M  V30 7342 H 733.597 -0.74384 0.587713 0
M  V30 7343 H 733.303 -3.087 1.68515 0
M  V30 7344 H 733.177 -3.77127 0.0742272 0
M  V30 7345 H 735.564 -2.91903 -0.433171 0
M  V30 7346 H 735.645 -2.25619 1.20539 0
M  V30 7347 H 735.289 -4.60239 2.14808 0
M  V30 7348 H 735.219 -5.2434 0.487353 0
M  V30 7349 H 737.71 -3.70391 0.749585 0
M  V30 7350 H 738.023 -7.42558 2.14072 0
M  V30 7351 H 736.368 -6.67995 1.91853 0
M  V30 7352 H 739.559 -4.57053 1.01093 0
M  V30 7353 H 739.732 -6.2677 1.64508 0
M  V30 7354 N 733.138 -0.185124 -1.56509 0
M  V30 7355 C 734.386 0.455357 -1.96903 0
M  V30 7356 C 734.707 1.62839 -1.07277 0
M  V30 7357 O 733.977 1.95385 -0.141966 0
M  V30 7358 H 732.557 0.171218 -0.727113 0
M  V30 7359 H 735.219 -0.26953 -1.93027 0
M  V30 7360 H 734.315 0.80616 -3.01509 0
M  V30 7361 N 734.616 1.57351 0.0885366 0
M  V30 7362 C 735.863 1.86419 0.790824 0
M  V30 7363 C 736.191 0.774561 1.78412 0
M  V30 7364 O 735.446 -0.23119 1.9433 0
M  V30 7365 C 735.745 3.22098 1.5488 0
M  V30 7366 C 735.411 4.4548 0.697025 0
M  V30 7367 C 734.073 4.78975 0.462237 0
M  V30 7368 C 736.425 5.21094 0.105315 0
M  V30 7369 C 733.753 5.85507 -0.374016 0
M  V30 7370 C 736.105 6.28509 -0.718298 0
M  V30 7371 C 734.769 6.60515 -0.963116 0
M  V30 7372 H 734.039 0.682157 0.289383 0
M  V30 7373 H 736.686 1.91429 0.0520961 0
M  V30 7374 H 734.991 3.12803 2.35927 0
M  V30 7375 H 736.688 3.41819 2.09669 0
M  V30 7376 H 733.278 4.19255 0.890137 0
M  V30 7377 H 737.462 4.95544 0.273856 0
M  V30 7378 H 732.718 6.08713 -0.572606 0
M  V30 7379 H 736.892 6.86268 -1.18362 0
M  V30 7380 H 734.519 7.42893 -1.6129 0
M  V30 7381 N 736.094 -0.359525 1.53444 0
M  V30 7382 C 737.324 -1.12036 1.73585 0
M  V30 7383 C 737.732 -1.83335 0.467438 0
M  V30 7384 O 737.075 -1.74641 -0.569753 0
M  V30 7385 C 737.137 -2.19036 2.85068 0
M  V30 7386 C 736.801 -1.67451 4.25217 0
M  V30 7387 C 737.798 -1.13534 5.07352 0
M  V30 7388 C 735.483 -1.72781 4.71648 0
M  V30 7389 C 737.477 -0.656321 6.34012 0
M  V30 7390 C 735.164 -1.2449 5.98285 0
M  V30 7391 C 736.162 -0.710068 6.79299 0
M  V30 7392 O 735.85 -0.234314 8.03558 0
M  V30 7393 H 735.582 -0.340662 0.583888 0
M  V30 7394 H 738.136 -0.422452 2.01009 0
M  V30 7395 H 736.366 -2.92338 2.53131 0
M  V30 7396 H 738.055 -2.80559 2.93328 0
M  V30 7397 H 738.821 -1.08751 4.7265 0
M  V30 7398 H 734.7 -2.13351 4.08659 0
M  V30 7399 H 738.244 -0.238193 6.97193 0
M  V30 7400 H 734.141 -1.28969 6.32485 0
M  V30 7401 H 734.909 -0.353084 8.17738 0
M  V30 7402 N 737.572 -1.44907 -0.619662 0
M  V30 7403 C 738.821 -1.47569 -1.37501 0
M  V30 7404 C 739.134 -0.116707 -1.95252 0
M  V30 7405 O 740.34 -0.020909 -2.71492 0
M  V30 7406 C 738.796 -2.59851 -2.49009 0
M  V30 7407 C 738.404 -4.02008 -1.97722 0
M  V30 7408 C 740.148 -2.71746 -3.2612 0
M  V30 7409 C 738.055 -5.05693 -3.0664 0
M  V30 7410 H 736.985 -0.549068 -0.51676 0
M  V30 7411 H 739.636 -1.71009 -0.665437 0
M  V30 7412 H 738.018 -2.29671 -3.22594 0
M  V30 7413 H 739.192 -4.41809 -1.30925 0
M  V30 7414 H 737.507 -3.94456 -1.33392 0
M  V30 7415 H 740.104 -3.46382 -4.07337 0
M  V30 7416 H 740.447 -1.77959 -3.76346 0
M  V30 7417 H 740.98 -3.01392 -2.5963 0
M  V30 7418 H 737.719 -6.01148 -2.61345 0
M  V30 7419 H 737.239 -4.70473 -3.72042 0
M  V30 7420 H 738.918 -5.29906 -3.71226 0
M  V30 7421 N 739.05 0.861098 -1.31996 0
M  V30 7422 C 740.013 1.95068 -1.20338 0
M  V30 7423 C 741.013 1.60289 -0.128114 0
M  V30 7424 O 742.203 1.70048 -0.378044 0
M  V30 7425 C 739.335 3.30153 -0.849205 0
M  V30 7426 H 740.528 2.06833 -2.17164 0
M  V30 7427 H 738.081 1.05049 -1.15734 0
M  V30 7428 H 738.816 3.24087 0.117508 0
M  V30 7429 H 738.601 3.56771 -1.62655 0
M  V30 7430 H 740.091 4.10025 -0.791782 0
M  V30 7431 N 740.528 1.15101 1.07655 0
M  V30 7432 C 741.776 0.922149 1.79836 0
M  V30 7433 C 742.097 -0.552346 1.87014 0
M  V30 7434 O 741.367 -1.40145 1.3688 0
M  V30 7435 H 739.947 0.338182 0.666064 0
M  V30 7436 H 742.609 1.45107 1.30115 0
M  V30 7437 H 741.705 1.32883 2.82398 0
M  V30 7438 N 742.006 -1.2595 0.947325 0
M  V30 7439 C 743.283 -1.88676 0.515824 0
M  V30 7440 C 743.663 -1.85547 -1.00675 0
M  V30 7441 O 743.011 -1.31399 -1.8694 0
M  V30 7442 C 743.221 -3.31734 1.08415 0
M  V30 7443 C 744.569 -4.08545 1.15654 0
M  V30 7444 O 745.593 -3.40826 1.03517 0
M  V30 7445 O 744.452 -5.29663 1.34608 0
M  V30 7446 H 741.546 -0.809537 0.169055 0
M  V30 7447 H 744.092 -1.34075 1.04029 0
M  V30 7448 H 742.864 -3.28404 2.1276 0
M  V30 7449 H 742.487 -3.93882 0.542499 0
M  V30 7450 N 743.484 -0.715051 -1.40445 0
M  V30 7451 C 744.895 -0.326763 -1.83818 0
M  V30 7452 C 745.246 1.13851 -1.59789 0
M  V30 7453 O 744.371 1.87611 -1.07848 0
M  V30 7454 C 744.966 -0.586297 -3.33688 0
M  V30 7455 C 743.525 -0.251724 -3.75557 0
M  V30 7456 C 742.672 -0.858928 -2.63662 0
M  V30 7457 H 745.623 -0.914241 -1.2972 0
M  V30 7458 H 745.644 0.148636 -3.8021 0
M  V30 7459 H 745.156 -1.65281 -3.51146 0
M  V30 7460 H 743.257 0.809754 -3.63695 0
M  V30 7461 H 743.37 -0.720348 -4.73654 0
M  V30 7462 H 741.734 -0.287013 -2.53078 0
M  V30 7463 H 742.517 -1.9297 -2.83932 0
M  V30 7464 N 744.962 1.50701 -0.461195 0
M  V30 7465 C 745.925 2.2686 0.326679 0
M  V30 7466 C 746.925 1.31243 0.929085 0
M  V30 7467 O 748.115 1.54754 0.799807 0
M  V30 7468 C 745.247 3.07844 1.46441 0
M  V30 7469 H 746.44 2.97954 -0.341095 0
M  V30 7470 H 743.993 1.54814 -0.214984 0
M  V30 7471 H 744.728 2.41223 2.16753 0
M  V30 7472 H 744.513 3.78101 1.03836 0
M  V30 7473 H 746.003 3.65469 2.02044 0
M  V30 7474 N 746.441 0.193421 1.56409 0
M  V30 7475 C 747.371 -0.723334 2.22014 0
M  V30 7476 C 748.352 -1.22254 1.1827 0
M  V30 7477 O 749.537 -1.27168 1.46771 0
M  V30 7478 C 746.667 -1.94366 2.87818 0
M  V30 7479 C 745.621 -1.57943 3.97791 0
M  V30 7480 C 744.947 -2.87623 4.50752 0
M  V30 7481 C 746.247 -0.790639 5.16281 0
M  V30 7482 H 747.941 -0.176426 2.9888 0
M  V30 7483 H 745.487 -0.0834166 1.43758 0
M  V30 7484 H 747.44 -2.5902 3.32396 0
M  V30 7485 H 746.164 -2.51507 2.08355 0
M  V30 7486 H 744.823 -0.956482 3.53903 0
M  V30 7487 H 744.471 -3.4285 3.68053 0
M  V30 7488 H 744.171 -2.63998 5.24956 0
M  V30 7489 H 745.695 -3.53268 4.9803 0
M  V30 7490 H 747.109 -1.34024 5.57414 0
M  V30 7491 H 745.506 -0.65258 5.96541 0
M  V30 7492 H 746.576 0.208633 4.84451 0
M  V30 7493 N 747.919 -1.57396 -0.0801906 0
M  V30 7494 C 748.882 -2.02133 -1.0805 0
M  V30 7495 C 749.882 -0.91707 -1.32085 0
M  V30 7496 O 751.072 -1.18217 -1.27947 0
M  V30 7497 C 748.204 -2.39479 -2.42616 0
M  V30 7498 H 749.397 -2.91733 -0.6951 0
M  V30 7499 H 746.95 -1.52869 -0.325677 0
M  V30 7500 H 747.685 -1.52879 -2.86004 0
M  V30 7501 H 747.47 -3.20052 -2.26515 0
M  V30 7502 H 748.96 -2.74697 -3.14534 0
M  V30 7503 N 749.397 0.351382 -1.53633 0
M  V30 7504 C 750.627 1.11113 -1.74176 0
M  V30 7505 C 751.035 1.83084 -0.477154 0
M  V30 7506 O 750.378 1.74941 0.560483 0
M  V30 7507 C 750.44 2.17521 -2.86225 0
M  V30 7508 C 750.104 1.65193 -4.26099 0
M  V30 7509 C 751.101 1.10842 -5.07947 0
M  V30 7510 C 748.786 1.70277 -4.72558 0
M  V30 7511 C 750.78 0.622689 -6.34351 0
M  V30 7512 C 748.467 1.21316 -5.98937 0
M  V30 7513 C 749.465 0.674033 -6.79666 0
M  V30 7514 O 749.153 0.191696 -8.03671 0
M  V30 7515 H 748.885 0.33756 -0.585687 0
M  V30 7516 H 751.439 0.411786 -2.0123 0
M  V30 7517 H 749.669 2.90991 -2.54678 0
M  V30 7518 H 751.358 2.78999 -2.94812 0
M  V30 7519 H 752.124 1.06243 -4.7322 0
M  V30 7520 H 748.003 2.11181 -4.09785 0
M  V30 7521 H 751.547 0.201216 -6.9731 0
M  V30 7522 H 747.444 1.25613 -6.3316 0
M  V30 7523 H 748.212 0.309712 -8.17914 0
M  V30 7524 N 750.875 1.45233 0.611969 0
M  V30 7525 C 752.123 1.48727 1.36838 0
M  V30 7526 C 752.444 0.128616 1.94575 0
M  V30 7527 O 751.714 -0.84149 1.76906 0
M  V30 7528 H 750.294 0.547695 0.507976 0
M  V30 7529 H 752.956 1.81156 0.718925 0
M  V30 7530 H 752.052 2.2236 2.19003 0
M  V30 7531 N 752.353 -0.854086 1.3245 0
M  V30 7532 C 753.583 -1.63836 1.25862 0
M  V30 7533 C 753.991 -1.88383 -0.175588 0
M  V30 7534 O 753.334 -1.45353 -1.1233 0
M  V30 7535 C 753.396 -3.02068 1.94923 0
M  V30 7536 C 753.06 -3.0056 3.44257 0
M  V30 7537 C 754.057 -2.77368 4.39731 0
M  V30 7538 C 751.742 -3.21177 3.862 0
M  V30 7539 C 753.736 -2.74797 5.75122 0
M  V30 7540 C 751.423 -3.18234 5.217 0
M  V30 7541 C 752.421 -2.95072 6.15972 0
M  V30 7542 O 752.109 -2.92003 7.48992 0
M  V30 7543 H 751.841 -0.517007 0.435523 0
M  V30 7544 H 754.395 -1.07314 1.75137 0
M  V30 7545 H 752.625 -3.60382 1.40219 0
M  V30 7546 H 754.314 -3.62791 1.82037 0
M  V30 7547 H 755.08 -2.61205 4.08653 0
M  V30 7548 H 750.959 -3.38231 3.13243 0
M  V30 7549 H 754.503 -2.56638 6.48678 0
M  V30 7550 H 750.4 -3.33941 5.52407 0
M  V30 7551 H 751.168 -3.07953 7.58358 0
M  V30 7552 N 753.831 -1.1567 -1.07043 0
M  V30 7553 C 754.794 -0.858906 -2.12498 0
M  V30 7554 C 755.794 0.142735 -1.60165 0
M  V30 7555 O 756.984 -0.0872678 -1.73981 0
M  V30 7556 C 754.116 -0.283021 -3.39723 0
M  V30 7557 H 755.309 -1.79368 -2.40348 0
M  V30 7558 H 752.862 -0.964608 -1.22984 0
M  V30 7559 H 753.597 0.659796 -3.17517 0
M  V30 7560 H 753.382 -1.00467 -3.7901 0
M  V30 7561 H 754.872 -0.0923543 -4.17498 0
M  V30 7562 N 755.309 1.25446 -0.953992 0
M  V30 7563 C 756.241 2.25111 -0.431004 0
M  V30 7564 C 757.254 1.56377 0.452764 0
M  V30 7565 O 758.443 1.76579 0.261144 0
M  V30 7566 C 755.543 3.3655 0.39839 0
M  V30 7567 C 754.716 4.34843 -0.472229 0
M  V30 7568 C 753.775 5.25351 0.29886 0
M  V30 7569 O 752.801 5.68396 -0.302522 0
M  V30 7570 N 754.003 5.5824 1.59211 0
M  V30 7571 H 756.768 2.70619 -1.28785 0
M  V30 7572 H 754.329 1.39346 -0.824281 0
M  V30 7573 H 756.321 3.94059 0.921941 0
M  V30 7574 H 754.891 2.90436 1.15609 0
M  V30 7575 H 754.111 3.76222 -1.17689 0
M  V30 7576 H 755.399 4.97497 -1.06648 0
M  V30 7577 H 754.797 5.25172 2.10264 0
M  V30 7578 H 753.354 6.18336 2.06164 0
M  V30 7579 N 756.787 0.722489 1.40064 0
M  V30 7580 C 758.064 0.191829 1.94657 0
M  V30 7581 C 758.444 -1.30389 1.66018 0
M  V30 7582 O 757.792 -2.06342 0.981588 0
M  V30 7583 C 758.002 0.511978 3.45224 0
M  V30 7584 C 759.35 0.454426 4.22161 0
M  V30 7585 O 760.374 0.448438 3.53366 0
M  V30 7586 O 759.233 0.437986 5.44742 0
M  V30 7587 H 756.327 0.0307821 0.826427 0
M  V30 7588 H 758.873 0.800493 1.49634 0
M  V30 7589 H 757.645 1.54622 3.59455 0
M  V30 7590 H 757.268 -0.126296 3.97399 0
M  V30 7591 N 758.265 -1.50454 0.469181 0
M  V30 7592 C 759.197 -2.26319 -0.362247 0
M  V30 7593 C 760.21 -1.31574 -0.958751 0
M  V30 7594 O 761.399 -1.57099 -0.847482 0
M  V30 7595 C 758.499 -3.02808 -1.52187 0
M  V30 7596 C 757.672 -4.24893 -1.03849 0
M  V30 7597 C 756.731 -4.83691 -2.07194 0
M  V30 7598 O 755.757 -5.44659 -1.65333 0
M  V30 7599 N 756.959 -4.70522 -3.39985 0
M  V30 7600 H 759.724 -2.98312 0.288124 0
M  V30 7601 H 757.285 -1.59099 0.299856 0
M  V30 7602 H 759.277 -3.39023 -2.21011 0
M  V30 7603 H 757.847 -2.33625 -2.07697 0
M  V30 7604 H 757.067 -3.93806 -0.176203 0
M  V30 7605 H 758.355 -5.04053 -0.693435 0
M  V30 7606 H 757.753 -4.2203 -3.76706 0
M  V30 7607 H 756.31 -5.11011 -4.04612 0
M  V30 7608 N 759.743 -0.201713 -1.56304 0
M  V30 7609 C 760.653 0.728296 -2.23009 0
M  V30 7610 C 761.669 1.22945 -1.23128 0
M  V30 7611 O 762.845 1.27523 -1.55884 0
M  V30 7612 C 759.91 1.92792 -2.88153 0
M  V30 7613 C 758.971 1.47068 -4.03323 0
M  V30 7614 C 758.204 2.61312 -4.65351 0
M  V30 7615 O 758.427 3.7896 -4.26317 0
M  V30 7616 O 757.361 2.33646 -5.54701 0
M  V30 7617 H 761.187 0.190166 -3.03104 0
M  V30 7618 H 758.772 0.0278725 -1.49374 0
M  V30 7619 H 760.654 2.6289 -3.29343 0
M  V30 7620 H 759.329 2.45452 -2.11033 0
M  V30 7621 H 758.236 0.738299 -3.66742 0
M  V30 7622 H 759.569 0.990666 -4.82127 0
M  V30 7623 N 761.222 1.57436 0.0718424 0
M  V30 7624 C 762.633 1.75975 0.623678 0
M  V30 7625 C 762.984 0.827155 1.77912 0
M  V30 7626 O 762.109 0.0112425 2.16397 0
M  V30 7627 C 762.704 3.1911 1.13816 0
M  V30 7628 C 761.263 3.38994 1.63586 0
M  V30 7629 C 760.41 2.71684 0.555261 0
M  V30 7630 H 763.361 1.57948 -0.154328 0
M  V30 7631 H 763.382 3.23267 2.00696 0
M  V30 7632 H 762.894 3.86962 0.296998 0
M  V30 7633 H 760.995 2.76256 2.50027 0
M  V30 7634 H 761.108 4.47436 1.71283 0
M  V30 7635 H 759.472 2.34236 1.00029 0
M  V30 7636 H 760.255 3.42191 -0.275712 0
M  V30 7637 N 762.7 -0.34323 1.53817 0
M  V30 7638 C 763.977 -1.10047 1.61706 0
M  V30 7639 C 764.357 -2.06495 0.438514 0
M  V30 7640 O 763.705 -2.21297 -0.569188 0
M  V30 7641 C 763.915 -1.81985 2.97796 0
M  V30 7642 C 765.263 -2.35717 3.53161 0
M  V30 7643 O 766.287 -1.9208 2.99973 0
M  V30 7644 O 765.146 -3.15551 4.46195 0
M  V30 7645 H 762.24 -0.506096 0.654061 0
M  V30 7646 H 764.786 -0.344697 1.66162 0
M  V30 7647 H 763.558 -1.11722 3.75012 0
M  V30 7648 H 763.181 -2.64419 2.96931 0
M  V30 7649 N 764.178 -1.45556 -0.604258 0
M  V30 7650 C 765.141 -1.54091 -1.69672 0
M  V30 7651 C 766.141 -0.420076 -1.55216 0
M  V30 7652 O 767.331 -0.683671 -1.60224 0
M  V30 7653 C 764.463 -1.44063 -3.08964 0
M  V30 7654 H 765.656 -2.51431 -1.6347 0
M  V30 7655 H 763.209 -1.33046 -0.820273 0
M  V30 7656 H 763.944 -0.479201 -3.2074 0
M  V30 7657 H 763.729 -2.25362 -3.20865 0
M  V30 7658 H 765.219 -1.53075 -3.88533 0
M  V30 7659 N 765.656 0.84705 -1.32902 0
M  V30 7660 C 767.072 1.13645 -1.12058 0
M  V30 7661 C 767.272 2.01281 0.093937 0
M  V30 7662 O 766.328 2.4026 0.776608 0
M  V30 7663 C 767.641 1.80644 -2.40392 0
M  V30 7664 C 769.189 1.93246 -2.46221 0
M  V30 7665 C 769.664 2.6366 -3.74496 0
M  V30 7666 N 771.155 2.71179 -3.75521 0
M  V30 7667 C 771.89 3.26332 -4.71482 0
M  V30 7668 N 771.386 3.82236 -5.77813 0
M  V30 7669 N 773.179 3.24507 -4.58968 0
M  V30 7670 H 765.33 0.263612 -2.10758 0
M  V30 7671 H 767.593 0.17944 -0.930863 0
M  V30 7672 H 767.299 1.23708 -3.29225 0
M  V30 7673 H 767.173 2.80736 -2.51926 0
M  V30 7674 H 769.56 2.49338 -1.57843 0
M  V30 7675 H 769.641 0.921272 -2.38634 0
M  V30 7676 H 769.285 2.08229 -4.63253 0
M  V30 7677 H 769.215 3.65234 -3.79357 0
M  V30 7678 H 771.706 2.31527 -2.9867 0
M  V30 7679 H 772.019 4.22499 -6.47082 0
M  V30 7680 H 770.364 3.80546 -5.81558 0
M  V30 7681 H 773.555 2.80085 -3.7506 0
M  V30 7682 H 773.728 3.67188 -5.33926 0
M  V30 7683 N 767.134 1.16236 1.06428 0
M  V30 7684 C 768.382 0.941171 1.78847 0
M  V30 7685 C 768.703 -0.53248 1.87589 0
M  V30 7686 O 767.973 -1.38686 1.38358 0
M  V30 7687 H 766.553 0.345228 0.66244 0
M  V30 7688 H 769.215 1.46479 1.28569 0
M  V30 7689 H 768.311 1.35871 2.80972 0
M  V30 7690 N 768.612 -1.24939 0.960631 0
M  V30 7691 C 770.028 -1.45039 0.666018 0
M  V30 7692 C 770.228 -1.86021 -0.774501 0
M  V30 7693 O 769.284 -1.99392 -1.54916 0
M  V30 7694 C 770.597 -2.51775 1.64408 0
M  V30 7695 C 772.145 -2.6561 1.65592 0
M  V30 7696 C 772.62 -3.75536 2.62177 0
M  V30 7697 N 774.111 -3.82954 2.60577 0
M  V30 7698 C 774.846 -4.67517 3.31987 0
M  V30 7699 N 774.342 -5.56321 4.1289 0
M  V30 7700 N 776.135 -4.61535 3.20845 0
M  V30 7701 H 768.286 -0.96632 1.89145 0
M  V30 7702 H 770.549 -0.486034 0.813926 0
M  V30 7703 H 770.255 -2.28534 2.67329 0
M  V30 7704 H 770.129 -3.49804 1.41128 0
M  V30 7705 H 772.516 -2.88212 0.633846 0
M  V30 7706 H 772.597 -1.67962 1.92931 0
M  V30 7707 H 772.241 -3.53684 3.64514 0
M  V30 7708 H 772.171 -4.72682 2.32119 0
M  V30 7709 H 774.662 -3.19478 2.01847 0
M  V30 7710 H 774.975 -6.17787 4.64283 0
M  V30 7711 H 773.32 -5.5601 4.16987 0
M  V30 7712 H 776.511 -3.91169 2.57108 0
M  V30 7713 H 776.684 -5.27214 3.76762 0
M  V30 7714 N 770.09 -0.729906 -1.39679 0
M  V30 7715 C 771.339 -0.272534 -1.9985 0
M  V30 7716 C 771.652 1.14519 -1.58571 0
M  V30 7717 O 772.858 1.70182 -2.11543 0
M  V30 7718 C 771.314 -0.436322 -3.57245 0
M  V30 7719 C 770.922 -1.86161 -4.0749 0
M  V30 7720 C 772.666 -0.0404679 -4.24481 0
M  V30 7721 C 770.573 -1.97522 -5.5744 0
M  V30 7722 H 769.503 -0.0981428 -0.747585 0
M  V30 7723 H 772.154 -0.903056 -1.59741 0
M  V30 7724 H 770.536 0.263015 -3.95126 0
M  V30 7725 H 771.71 -2.59248 -3.80955 0
M  V30 7726 H 770.025 -2.21021 -3.529 0
M  V30 7727 H 772.622 -0.104437 -5.34598 0
M  V30 7728 H 772.965 1.00357 -4.04023 0
M  V30 7729 H 773.498 -0.690774 -3.91757 0
M  V30 7730 H 770.237 -3.00096 -5.82771 0
M  V30 7731 H 769.757 -1.28864 -5.85794 0
M  V30 7732 H 771.436 -1.754 -6.22771 0
M  V30 7733 N 771.568 1.50203 -0.477153 0
M  V30 7734 C 772.984 1.59056 -0.131663 0
M  V30 7735 C 773.184 1.48473 1.36227 0
M  V30 7736 O 772.24 1.34635 2.13611 0
M  V30 7737 C 773.553 2.92741 -0.687254 0
M  V30 7738 C 775.101 3.0615 -0.651223 0
M  V30 7739 C 775.576 4.42419 -1.18446 0
M  V30 7740 N 777.067 4.48847 -1.14413 0
M  V30 7741 C 777.802 5.52689 -1.52717 0
M  V30 7742 N 777.298 6.63754 -1.98499 0
M  V30 7743 N 779.091 5.43267 -1.44282 0
M  V30 7744 H 771.242 1.55325 -1.44872 0
M  V30 7745 H 773.505 0.734395 -0.599473 0
M  V30 7746 H 773.211 3.0598 -1.73405 0
M  V30 7747 H 773.085 3.76961 -0.134215 0
M  V30 7748 H 775.472 2.92556 0.386677 0
M  V30 7749 H 775.553 2.23673 -1.24114 0
M  V30 7750 H 775.197 4.56763 -2.22103 0
M  V30 7751 H 775.127 5.23498 -0.570709 0
M  V30 7752 H 777.618 3.69152 -0.808416 0
M  V30 7753 H 777.931 7.39059 -2.25859 0
M  V30 7754 H 776.276 6.64858 -2.02456 0
M  V30 7755 H 779.467 4.55387 -1.08352 0
M  V30 7756 H 779.64 6.24074 -1.74459 0
M  V30 7757 N 773.046 0.209999 1.56195 0
M  V30 7758 C 773.994 -0.721416 2.2113 0
M  V30 7759 C 774.988 -1.20852 1.18706 0
M  V30 7760 O 776.194 -1.16968 1.36815 0
M  V30 7761 H 772.569 -0.251033 0.708863 0
M  V30 7762 H 774.54 -0.150193 2.98022 0
M  V30 7763 C 773.289 -1.92392 2.89621 0
M  V30 7764 H 772.612 -1.5582 3.68185 0
M  V30 7765 H 774.052 -2.55367 3.38473 0
M  V30 7766 C 772.511 -2.77208 1.91461 0
M  V30 7767 O 773.041 -3.75603 1.42426 0
M  V30 7768 N 771.247 -2.43006 1.59363 0
M  V30 7769 H 770.794 -1.63047 1.99433 0
M  V30 7770 H 770.752 -3.00036 0.939449 0
M  V30 7771 N 774.524 -1.57472 -0.0634922 0
M  V30 7772 C 775.772 -1.87283 -0.759563 0
M  V30 7773 C 776.093 -0.803135 -1.77693 0
M  V30 7774 O 775.363 0.167293 -1.95184 0
M  V30 7775 H 773.943 -0.691106 -0.283516 0
M  V30 7776 H 776.605 -1.94864 -0.0376091 0
M  V30 7777 H 775.701 -2.85064 -1.27062 0
M  V30 7778 N 776.003 0.335068 -1.53997 0
M  V30 7779 C 776.966 1.39481 -1.81872 0
M  V30 7780 C 777.966 1.4524 -0.690078 0
M  V30 7781 O 779.156 1.45467 -0.958377 0
M  V30 7782 C 776.288 2.78329 -1.9684 0
M  V30 7783 H 777.481 1.16024 -2.76547 0
M  V30 7784 H 775.034 0.569926 -1.45539 0
M  V30 7785 H 775.769 3.07058 -1.04337 0
M  V30 7786 H 775.554 2.75544 -2.78958 0
M  V30 7787 H 777.044 3.55016 -2.19894 0
M  V30 7788 N 777.481 1.45874 0.596531 0
M  V30 7789 C 778.411 1.5824 1.71705 0
M  V30 7790 C 779.392 0.433366 1.64487 0
M  V30 7791 O 780.577 0.657895 1.82717 0
M  V30 7792 C 777.707 1.55927 3.10329 0
M  V30 7793 C 776.661 2.69659 3.32367 0
M  V30 7794 C 775.987 2.52403 4.71377 0
M  V30 7795 C 777.287 4.11591 3.21544 0
M  V30 7796 H 778.981 2.52035 1.61613 0
M  V30 7797 H 776.527 1.21297 0.776082 0
M  V30 7798 H 778.48 1.63173 3.88526 0
M  V30 7799 H 777.204 0.586674 3.21288 0
M  V30 7800 H 775.863 2.61859 2.56564 0
M  V30 7801 H 775.511 1.53258 4.79083 0
M  V30 7802 H 775.211 3.28679 4.87077 0
M  V30 7803 H 776.735 2.6152 5.5176 0
M  V30 7804 H 778.149 4.20576 3.89601 0
M  V30 7805 H 776.546 4.88344 3.4877 0
M  V30 7806 H 777.616 4.32719 2.1882 0
M  V30 7807 N 778.959 -0.83999 1.33349 0
M  V30 7808 C 779.889 -1.965 1.26135 0
M  V30 7809 C 780.87 -1.69505 0.142152 0
M  V30 7810 O 782.055 -1.91346 0.331743 0
M  V30 7811 C 779.185 -3.32632 0.99866 0
M  V30 7812 C 778.139 -3.74021 2.08068 0
M  V30 7813 C 777.465 -5.07947 1.67014 0
M  V30 7814 C 778.765 -3.87925 3.49731 0
M  V30 7815 H 780.459 -2.02793 2.20262 0
M  V30 7816 H 778.005 -0.974297 1.06035 0
M  V30 7817 H 779.958 -4.10903 0.934696 0
M  V30 7818 H 778.682 -3.26593 0.0217759 0
M  V30 7819 H 777.341 -2.98012 2.13505 0
M  V30 7820 H 776.989 -4.98378 0.680316 0
M  V30 7821 H 776.689 -5.36611 2.39422 0
M  V30 7822 H 778.213 -5.88695 1.62082 0
M  V30 7823 H 779.627 -4.5651 3.46802 0
M  V30 7824 H 778.024 -4.28023 4.20614 0
M  V30 7825 H 779.094 -2.90407 3.88319 0
M  V30 7826 N 780.437 -1.16799 -1.0581 0
M  V30 7827 C 781.853 -0.913935 -1.30841 0
M  V30 7828 C 782.053 0.430439 -1.96849 0
M  V30 7829 O 781.109 1.16885 -2.23817 0
M  V30 7830 C 782.422 -2.06662 -2.18429 0
M  V30 7831 C 783.97 -2.10294 -2.31831 0
M  V30 7832 C 784.445 -3.2493 -3.22776 0
M  V30 7833 N 785.936 -3.24678 -3.30361 0
M  V30 7834 C 786.671 -4.10021 -4.00837 0
M  V30 7835 N 786.167 -5.05461 -4.73795 0
M  V30 7836 N 787.96 -3.97991 -3.96937 0
M  V30 7837 H 780.111 -2.03343 -0.613613 0
M  V30 7838 H 782.374 -0.88754 -0.333133 0
M  V30 7839 H 782.08 -3.03791 -1.77211 0
M  V30 7840 H 781.954 -2.01233 -3.19038 0
M  V30 7841 H 784.341 -1.13754 -2.72294 0
M  V30 7842 H 784.422 -2.19786 -1.30873 0
M  V30 7843 H 784.066 -4.21731 -2.83028 0
M  V30 7844 H 783.996 -3.12674 -4.23725 0
M  V30 7845 H 786.487 -2.55573 -2.78372 0
M  V30 7846 H 786.8 -5.66989 -5.25113 0
M  V30 7847 H 785.145 -5.09436 -4.72758 0
M  V30 7848 H 788.336 -3.2273 -3.39062 0
M  V30 7849 H 788.509 -4.64722 -4.51594 0
M  V30 7850 N 781.915 1.24427 -0.967243 0
M  V30 7851 C 783.161 1.92772 -0.629812 0
M  V30 7852 C 783.494 1.75436 0.832827 0
M  V30 7853 O 782.769 1.10716 1.59913 0
M  V30 7854 C 783.052 3.45798 -1.00477 0
M  V30 7855 C 782.905 3.72304 -2.52407 0
M  V30 7856 C 784.224 4.36787 -0.538999 0
M  V30 7857 H 781.343 0.700099 -0.230282 0
M  V30 7858 H 783.985 1.46805 -1.20616 0
M  V30 7859 H 782.135 3.8508 -0.514336 0
M  V30 7860 H 783.807 3.42584 -3.08924 0
M  V30 7861 H 782.05 3.17472 -2.95625 0
M  V30 7862 H 782.721 4.7937 -2.73693 0
M  V30 7863 H 785.197 4.04877 -0.959874 0
M  V30 7864 H 784.073 5.4259 -0.829926 0
M  V30 7865 H 784.334 4.38527 0.560923 0
M  V30 7866 N 783.393 0.737304 1.3929 0
M  V30 7867 C 784.623 0.296143 2.04467 0
M  V30 7868 C 785.031 -1.0748 1.55707 0
M  V30 7869 O 784.374 -1.69082 0.718123 0
M  V30 7870 C 784.436 0.222161 3.58813 0
M  V30 7871 C 784.1 1.53195 4.30558 0
M  V30 7872 C 785.097 2.47809 4.57041 0
M  V30 7873 C 782.782 1.79688 4.6906 0
M  V30 7874 C 784.776 3.67147 5.21039 0
M  V30 7875 C 782.463 2.99304 5.32785 0
M  V30 7876 C 783.461 3.92855 5.58708 0
M  V30 7877 O 783.149 5.1037 6.2111 0
M  V30 7878 H 782.881 0.126896 0.663983 0
M  V30 7879 H 785.435 1.00242 1.79278 0
M  V30 7880 H 783.665 -0.540239 3.82908 0
M  V30 7881 H 785.354 -0.187311 4.05468 0
M  V30 7882 H 786.12 2.28611 4.2774 0
M  V30 7883 H 781.999 1.07716 4.48239 0
M  V30 7884 H 785.543 4.40183 5.41188 0
M  V30 7885 H 781.44 3.18401 5.61508 0
M  V30 7886 H 782.208 5.10735 6.39603 0
M  V30 7887 N 784.871 -1.49948 0.485112 0
M  V30 7888 C 786.117 -2.02695 -0.0651022 0
M  V30 7889 C 786.45 -1.36534 -1.38102 0
M  V30 7890 O 785.725 -0.495677 -1.88078 0
M  V30 7891 C 786.008 -3.59337 -0.234285 0
M  V30 7892 C 785.861 -4.3605 1.10364 0
M  V30 7893 C 787.18 -4.28996 -0.982351 0
M  V30 7894 H 784.299 -0.736666 -0.0221856 0
M  V30 7895 H 786.941 -1.7913 0.633433 0
M  V30 7896 H 785.091 -3.79546 -0.829262 0
M  V30 7897 H 786.763 -4.27377 1.73627 0
M  V30 7898 H 785.006 -3.99236 1.69686 0
M  V30 7899 H 785.677 -5.43959 0.938743 0
M  V30 7900 H 788.153 -4.13346 -0.477904 0
M  V30 7901 H 787.029 -5.38379 -1.06955 0
M  V30 7902 H 787.29 -3.93135 -2.02231 0
M  V30 7903 N 786.349 -0.21828 -1.56081 0
M  V30 7904 C 787.76 0.290166 -1.84431 0
M  V30 7905 C 788.111 1.59712 -1.13958 0
M  V30 7906 O 787.236 2.12516 -0.40815 0
M  V30 7907 C 787.831 0.53325 -3.34577 0
M  V30 7908 C 786.39 0.986011 -3.63256 0
M  V30 7909 C 785.537 0.0472798 -2.7726 0
M  V30 7910 H 788.488 -0.441548 -1.52434 0
M  V30 7911 H 788.509 1.37967 -3.54606 0
M  V30 7912 H 788.021 -0.418137 -3.85841 0
M  V30 7913 H 786.122 1.95087 -3.17446 0
M  V30 7914 H 786.235 0.862684 -4.71269 0
M  V30 7915 H 784.599 0.553471 -2.48614 0
M  V30 7916 H 785.382 -0.898966 -3.31321 0
M  V30 7917 N 787.827 1.57504 0.0551401 0
M  V30 7918 C 789.243 1.54236 0.410292 0
M  V30 7919 C 789.443 0.940839 1.78187 0
M  V30 7920 O 788.499 0.550541 2.46425 0
M  V30 7921 C 789.812 2.98816 0.336064 0
M  V30 7922 C 791.36 3.10236 0.415047 0
M  V30 7923 C 791.835 4.56499 0.37055 0
M  V30 7924 N 793.326 4.61199 0.43013 0
M  V30 7925 C 794.061 5.71873 0.418179 0
M  V30 7926 N 793.557 6.91864 0.360056 0
M  V30 7927 N 795.35 5.60165 0.465977 0
M  V30 7928 H 787.501 1.94965 -0.842759 0
M  V30 7929 H 789.764 0.893096 -0.317937 0
M  V30 7930 H 789.47 3.4645 -0.605429 0
M  V30 7931 H 789.344 3.59564 1.13988 0
M  V30 7932 H 791.731 2.62566 1.34697 0
M  V30 7933 H 791.812 2.52367 -0.417648 0
M  V30 7934 H 791.456 5.0483 -0.557592 0
M  V30 7935 H 791.386 5.12249 1.221 0
M  V30 7936 H 793.877 3.74857 0.478623 0
M  V30 7937 H 794.19 7.71983 0.35532 0
M  V30 7938 H 792.535 6.94233 0.326492 0
M  V30 7939 H 795.726 4.65322 0.509194 0
M  V30 7940 H 795.899 6.46413 0.453194 0
M  V30 7941 N 789.305 -0.326896 1.54172 0
M  V30 7942 C 790.53 -1.08924 1.76494 0
M  V30 7943 C 790.955 -1.81039 0.510523 0
M  V30 7944 O 790.313 -1.73141 -0.537756 0
M  V30 7945 C 790.361 -2.06558 2.95578 0
M  V30 7946 O 789.465 -3.14394 2.6689 0
M  V30 7947 H 788.806 -0.314216 0.584948 0
M  V30 7948 H 791.336 -0.372207 2.01186 0
M  V30 7949 H 791.346 -2.49487 3.22832 0
M  V30 7950 H 790.021 -1.53469 3.86549 0
M  V30 7951 H 788.598 -2.76164 2.50576 0
M  V30 7952 N 790.784 -1.46188 -0.588786 0
M  V30 7953 C 792.009 -1.5498 -1.37826 0
M  V30 7954 C 792.434 -0.189498 -1.87143 0
M  V30 7955 O 791.792 0.829293 -1.61222 0
M  V30 7956 C 791.84 -2.55369 -2.54596 0
M  V30 7957 O 790.944 -2.08452 -3.55839 0
M  V30 7958 H 790.285 -0.521741 -0.41071 0
M  V30 7959 H 792.815 -1.91708 -0.714779 0
M  V30 7960 H 792.825 -2.74782 -3.01594 0
M  V30 7961 H 791.5 -3.54155 -2.18052 0
M  V30 7962 H 790.077 -1.98999 -3.15363 0
M  V30 7963 N 792.262 0.832906 -1.33792 0
M  V30 7964 C 793.192 1.95828 -1.27176 0
M  V30 7965 C 794.173 1.69427 -0.15114 0
M  V30 7966 O 795.358 1.91167 -0.341886 0
M  V30 7967 C 792.488 3.32098 -1.01629 0
M  V30 7968 C 791.442 3.72912 -2.10049 0
M  V30 7969 C 790.768 5.07054 -1.69706 0
M  V30 7970 C 792.068 3.86064 -3.51783 0
M  V30 7971 H 793.762 2.01622 -2.21334 0
M  V30 7972 H 791.308 0.96866 -1.0655 0
M  V30 7973 H 793.261 4.10402 -0.956474 0
M  V30 7974 H 791.985 3.26577 -0.0390956 0
M  V30 7975 H 790.644 2.96876 -2.15082 0
M  V30 7976 H 790.292 4.9801 -0.706737 0
M  V30 7977 H 789.992 5.35333 -2.42264 0
M  V30 7978 H 791.516 5.87827 -1.65202 0
M  V30 7979 H 792.93 4.54665 -3.49218 0
M  V30 7980 H 791.327 4.25787 -4.22878 0
M  V30 7981 H 792.397 2.88344 -3.89854 0
M  V30 7982 N 793.74 1.17359 1.05189 0
M  V30 7983 C 795.151 0.96793 1.5965 0
M  V30 7984 C 795.502 -0.485355 1.90102 0
M  V30 7985 O 794.627 -1.36066 1.6827 0
M  V30 7986 C 795.222 1.75068 2.90063 0
M  V30 7987 C 793.781 1.58969 3.41183 0
M  V30 7988 C 792.928 1.75231 2.14917 0
M  V30 7989 H 795.879 1.32067 0.880001 0
M  V30 7990 H 795.9 1.23308 3.59966 0
M  V30 7991 H 795.412 2.80835 2.67868 0
M  V30 7992 H 793.513 0.556906 3.68415 0
M  V30 7993 H 793.626 2.38067 4.15766 0
M  V30 7994 H 791.99 1.18073 2.25679 0
M  V30 7995 H 792.773 2.8241 1.95191 0
M  V30 7996 N 795.218 -1.23913 0.973828 0
M  V30 7997 C 796.466 -1.91771 0.637817 0
M  V30 7998 C 796.787 -1.76434 -0.830435 0
M  V30 7999 O 796.057 -1.13965 -1.59339 0
M  V30 8000 H 794.637 -0.709761 0.232912 0
M  V30 8001 H 797.299 -1.50677 1.23622 0
M  V30 8002 H 796.395 -2.99327 0.883731 0
M  V30 8003 N 796.696 -0.74468 -1.38897 0
M  V30 8004 C 797.943 -0.296884 -2.00312 0
M  V30 8005 C 798.271 1.11878 -1.59102 0
M  V30 8006 O 797.526 1.7789 -0.815702 0
M  V30 8007 C 797.825 -0.357302 -3.55609 0
M  V30 8008 C 797.491 -1.72736 -4.16501 0
M  V30 8009 C 796.153 -2.10232 -4.32846 0
M  V30 8010 C 798.505 -2.62647 -4.50184 0
M  V30 8011 C 795.833 -3.3713 -4.80167 0
M  V30 8012 C 798.185 -3.88926 -4.98918 0
M  V30 8013 C 796.849 -4.26503 -5.1347 0
M  V30 8014 H 796.119 -0.108638 -0.732993 0
M  V30 8015 H 798.766 -0.953419 -1.66079 0
M  V30 8016 H 797.071 0.382805 -3.89925 0
M  V30 8017 H 798.768 0.0074596 -4.00999 0
M  V30 8018 H 795.358 -1.42585 -4.04187 0
M  V30 8019 H 799.542 -2.34945 -4.37166 0
M  V30 8020 H 794.798 -3.66174 -4.89619 0
M  V30 8021 H 798.972 -4.58745 -5.23952 0
M  V30 8022 H 796.599 -5.24896 -5.49898 0
M  V30 8023 N 798.174 1.49689 -0.493057 0
M  V30 8024 C 799.404 2.06536 0.0512397 0
M  V30 8025 C 799.812 1.35459 1.32089 0
M  V30 8026 O 799.155 0.424145 1.78736 0
M  V30 8027 C 799.217 3.57452 0.383231 0
M  V30 8028 C 798.881 4.50163 -0.787555 0
M  V30 8029 C 799.878 4.92151 -1.67582 0
M  V30 8030 C 797.563 4.92565 -0.984109 0
M  V30 8031 C 799.557 5.7527 -2.74487 0
M  V30 8032 C 797.244 5.75463 -2.05634 0
M  V30 8033 C 798.242 6.16719 -2.93507 0
M  V30 8034 O 797.93 6.97961 -3.98881 0
M  V30 8035 H 797.662 0.675862 -0.0136516 0
M  V30 8036 H 800.216 1.9356 -0.687298 0
M  V30 8037 H 798.446 3.68408 1.17526 0
M  V30 8038 H 800.135 3.96572 0.8652 0
M  V30 8039 H 800.901 4.60043 -1.53575 0
M  V30 8040 H 796.78 4.5996 -0.309541 0
M  V30 8041 H 800.324 6.07392 -3.43104 0
M  V30 8042 H 796.221 6.06983 -2.19639 0
M  V30 8043 H 796.989 7.16253 -3.96137 0
M  V30 8044 N 799.652 0.226554 1.55963 0
M  V30 8045 C 801.068 -0.128733 1.5908 0
M  V30 8046 C 801.268 -1.58558 1.24345 0
M  V30 8047 O 800.324 -2.32661 0.981069 0
M  V30 8048 C 801.637 0.202076 3.0002 0
M  V30 8049 C 803.185 0.144718 3.12665 0
M  V30 8050 C 803.66 0.449272 4.55791 0
M  V30 8051 N 805.151 0.399026 4.61478 0
M  V30 8052 C 805.886 0.608106 5.70166 0
M  V30 8053 N 805.382 0.879227 6.87198 0
M  V30 8054 N 807.175 0.5402 5.59498 0
M  V30 8055 H 799.326 1.17686 1.76816 0
M  V30 8056 H 801.589 0.472072 0.822102 0
M  V30 8057 H 801.295 1.21341 3.30105 0
M  V30 8058 H 801.169 -0.480554 3.74126 0
M  V30 8059 H 803.556 -0.857261 2.82374 0
M  V30 8060 H 803.637 0.860899 2.40878 0
M  V30 8061 H 803.281 1.44871 4.86801 0
M  V30 8062 H 803.211 -0.288157 5.25811 0
M  V30 8063 H 805.702 0.197372 3.77384 0
M  V30 8064 H 806.015 1.02673 7.65949 0
M  V30 8065 H 804.36 0.916477 6.88931 0
M  V30 8066 H 807.551 0.328581 4.66945 0
M  V30 8067 H 807.724 0.706548 6.44137 0
M  V30 8068 N 801.13 -1.57531 -0.0467866 0
M  V30 8069 C 802.358 -1.92696 -0.753371 0
M  V30 8070 C 802.773 -0.824792 -1.69831 0
M  V30 8071 O 802.13 0.200155 -1.81399 0
M  V30 8072 C 802.181 -3.27728 -1.52566 0
M  V30 8073 O 801.902 -4.3371 -0.618674 0
M  V30 8074 C 803.403 -3.77066 -2.33101 0
M  V30 8075 H 800.623 -0.636367 -0.212788 0
M  V30 8076 H 803.167 -2.04498 -0.00959361 0
M  V30 8077 H 801.322 -3.17378 -2.22148 0
M  V30 8078 H 801.736 -5.11548 -1.15839 0
M  V30 8079 H 803.21 -4.74109 -2.82709 0
M  V30 8080 H 803.687 -3.07348 -3.13741 0
M  V30 8081 H 804.293 -3.90442 -1.68628 0
M  V30 8082 N 802.608 0.318715 -1.54344 0
M  V30 8083 C 803.856 1.054 -1.72439 0
M  V30 8084 C 804.177 1.88388 -0.503495 0
M  V30 8085 O 803.447 1.89866 0.48246 0
M  V30 8086 H 802.027 0.392124 -0.635805 0
M  V30 8087 H 804.689 0.35398 -1.91659 0
M  V30 8088 H 803.785 1.71726 -2.60608 0
M  V30 8089 N 804.086 1.46499 0.581025 0
M  V30 8090 C 805.016 1.60052 1.70017 0
M  V30 8091 C 805.997 0.450788 1.64018 0
M  V30 8092 O 807.182 0.677237 1.82009 0
M  V30 8093 C 804.312 1.5921 3.08658 0
M  V30 8094 C 803.266 2.73169 3.29488 0
M  V30 8095 C 802.592 2.57389 4.68674 0
M  V30 8096 C 803.892 4.14978 3.1716 0
M  V30 8097 H 805.586 2.53735 1.5893 0
M  V30 8098 H 803.132 1.22113 0.763173 0
M  V30 8099 H 805.085 1.67285 3.86773 0
M  V30 8100 H 803.809 0.620718 3.20647 0
M  V30 8101 H 802.468 2.64566 2.53773 0
M  V30 8102 H 802.116 1.58331 4.77431 0
M  V30 8103 H 801.816 3.33826 4.83564 0
M  V30 8104 H 803.34 2.67358 5.48956 0
M  V30 8105 H 804.754 4.24684 3.85119 0
M  V30 8106 H 803.151 4.92016 3.4357 0
M  V30 8107 H 804.221 4.35016 2.14218 0
M  V30 8108 N 805.565 -0.825799 1.34232 0
M  V30 8109 C 806.793 -1.61363 1.29497 0
M  V30 8110 C 807.208 -1.88341 -0.131536 0
M  V30 8111 O 806.565 -1.47279 -1.07773 0
M  V30 8112 C 806.616 -2.95623 2.08061 0
M  V30 8113 O 806.337 -2.69824 3.45147 0
M  V30 8114 C 807.838 -3.90032 2.10688 0
M  V30 8115 H 805.058 -0.501676 0.445603 0
M  V30 8116 H 807.602 -1.02767 1.76803 0
M  V30 8117 H 805.757 -3.50785 1.64404 0
M  V30 8118 H 806.171 -3.55412 3.85723 0
M  V30 8119 H 807.645 -4.81411 2.70087 0
M  V30 8120 H 808.122 -4.25188 1.10052 0
M  V30 8121 H 808.728 -3.40807 2.54422 0
M  V30 8122 N 807.043 -1.17915 -1.04565 0
M  V30 8123 C 807.973 -0.925033 -2.14395 0
M  V30 8124 C 808.954 0.135375 -1.6956 0
M  V30 8125 O 810.139 -0.0161774 -1.94193 0
M  V30 8126 C 807.269 -0.444469 -3.44444 0
M  V30 8127 C 806.223 -1.44478 -4.02877 0
M  V30 8128 C 805.549 -0.821933 -5.28345 0
M  V30 8129 C 806.849 -2.81995 -4.39632 0
M  V30 8130 H 808.543 -1.84354 -2.35911 0
M  V30 8131 H 806.089 -0.887806 -1.13375 0
M  V30 8132 H 808.042 -0.254078 -4.20633 0
M  V30 8133 H 806.766 0.509592 -3.226 0
M  V30 8134 H 805.425 -1.62203 -3.28764 0
M  V30 8135 H 805.073 0.139161 -5.02807 0
M  V30 8136 H 804.773 -1.48976 -5.68401 0
M  V30 8137 H 806.297 -0.641959 -6.07216 0
M  V30 8138 H 807.711 -2.67952 -5.06828 0
M  V30 8139 H 806.108 -3.45414 -4.90723 0
M  V30 8140 H 807.178 -3.35927 -3.49687 0
M  V30 8141 N 808.521 1.23394 -0.980386 0
M  V30 8142 C 809.484 2.23092 -0.525619 0
M  V30 8143 C 810.484 1.56129 0.384745 0
M  V30 8144 O 811.674 1.73284 0.178439 0
M  V30 8145 C 808.806 3.40074 0.23712 0
M  V30 8146 H 809.999 2.64839 -1.40714 0
M  V30 8147 H 807.552 1.36227 -0.766275 0
M  V30 8148 H 808.287 3.03783 1.13518 0
M  V30 8149 H 808.072 3.89883 -0.416356 0
M  V30 8150 H 809.562 4.14043 0.543892 0
M  V30 8151 N 809.999 0.752036 1.385 0
M  V30 8152 C 810.962 0.131587 2.28822 0
M  V30 8153 C 811.962 -0.649149 1.47115 0
M  V30 8154 O 813.152 -0.475645 1.67581 0
M  V30 8155 C 810.284 -0.822101 3.30839 0
M  V30 8156 H 811.477 0.927551 2.85196 0
M  V30 8157 H 809.03 0.518945 1.47434 0
M  V30 8158 H 809.765 -1.6438 2.79553 0
M  V30 8159 H 809.55 -0.264689 3.91206 0
M  V30 8160 H 811.04 -1.25226 3.98382 0
M  V30 8161 N 811.477 -1.49425 0.500989 0
M  V30 8162 C 812.888 -1.86624 0.0532011 0
M  V30 8163 C 813.239 -1.41331 -1.36088 0
M  V30 8164 O 812.364 -0.791195 -2.01418 0
M  V30 8165 C 812.959 -3.38681 0.0897693 0
M  V30 8166 C 811.518 -3.75181 -0.302677 0
M  V30 8167 C 810.665 -2.73419 0.462307 0
M  V30 8168 H 813.616 -1.41743 0.713773 0
M  V30 8169 H 813.637 -3.73902 -0.705528 0
M  V30 8170 H 813.149 -3.71616 1.11907 0
M  V30 8171 H 811.25 -3.47855 -1.33521 0
M  V30 8172 H 811.363 -4.79097 0.0167653 0
M  V30 8173 H 809.727 -2.54548 -0.0878557 0
M  V30 8174 H 810.51 -3.09198 1.49169 0
M  V30 8175 N 812.955 -0.234822 -1.55841 0
M  V30 8176 C 813.865 0.680828 -2.24504 0
M  V30 8177 C 814.881 1.20306 -1.25708 0
M  V30 8178 O 816.057 1.24188 -1.58554 0
M  V30 8179 C 813.122 1.86636 -2.92178 0
M  V30 8180 C 812.183 1.3848 -4.06352 0
M  V30 8181 C 811.416 2.51382 -4.70789 0
M  V30 8182 O 811.639 3.69831 -4.34259 0
M  V30 8183 O 810.573 2.21828 -5.59532 0
M  V30 8184 H 814.399 0.12583 -3.03439 0
M  V30 8185 H 811.984 -0.00381817 -1.494 0
M  V30 8186 H 813.866 2.55845 -3.34845 0
M  V30 8187 H 812.541 2.40921 -2.16192 0
M  V30 8188 H 811.448 0.660341 -3.68226 0
M  V30 8189 H 812.781 0.888177 -4.8412 0
M  V30 8190 N 814.433 1.57553 0.0384317 0
M  V30 8191 C 815.396 2.04927 1.02653 0
M  V30 8192 C 816.396 0.951768 1.29607 0
M  V30 8193 O 817.586 1.21568 1.24768 0
M  V30 8194 C 814.718 2.45828 2.36181 0
M  V30 8195 H 815.911 2.93474 0.617508 0
M  V30 8196 H 813.464 1.53679 0.285031 0
M  V30 8197 H 814.199 1.60408 2.8185 0
M  V30 8198 H 813.984 3.25945 2.1795 0
M  V30 8199 H 815.474 2.82939 3.0714 0
M  V30 8200 N 815.911 -0.310526 1.54511 0
M  V30 8201 C 816.874 -1.3657 1.84068 0
M  V30 8202 C 817.874 -1.44123 0.713097 0
M  V30 8203 O 819.064 -1.43924 0.981399 0
M  V30 8204 C 816.196 -2.75162 2.01243 0
M  V30 8205 H 817.389 -1.1161 2.78358 0
M  V30 8206 H 814.942 -0.546699 1.46427 0
M  V30 8207 H 815.677 -3.05359 1.09208 0
M  V30 8208 H 815.462 -2.71071 2.83307 0
M  V30 8209 H 816.952 -3.51473 2.25514 0
M  V30 8210 N 817.389 -1.46805 -0.573248 0
M  V30 8211 C 818.637 -1.52302 -1.32847 0
M  V30 8212 C 818.958 -0.180159 -1.94166 0
M  V30 8213 O 818.228 0.794291 -1.79075 0
M  V30 8214 H 816.808 -0.56097 -0.493276 0
M  V30 8215 H 819.47 -1.82998 -0.670642 0
M  V30 8216 H 818.566 -2.28089 -2.13031 0
M  V30 8217 N 818.867 0.818669 -1.34668 0
M  V30 8218 C 819.777 1.9616 -1.2868 0
M  V30 8219 C 820.793 1.72918 -0.193742 0
M  V30 8220 O 821.969 1.96951 -0.420975 0
M  V30 8221 C 819.034 3.30534 -1.04633 0
M  V30 8222 C 818.095 3.66755 -2.23136 0
M  V30 8223 C 817.328 4.94717 -2.00227 0
M  V30 8224 O 817.551 5.62218 -0.96264 0
M  V30 8225 O 816.485 5.28915 -2.87286 0
M  V30 8226 H 820.311 2.04157 -2.24842 0
M  V30 8227 H 817.896 0.954691 -1.14917 0
M  V30 8228 H 819.778 4.11005 -0.930216 0
M  V30 8229 H 818.453 3.23495 -0.115139 0
M  V30 8230 H 817.36 2.8671 -2.40308 0
M  V30 8231 H 818.693 3.78484 -3.1466 0
M  V30 8232 N 820.346 1.18468 1.03938 0
M  V30 8233 C 821.592 0.982286 1.77423 0
M  V30 8234 C 821.925 -0.48679 1.88 0
M  V30 8235 O 821.2 -1.36146 1.38905 0
M  V30 8236 C 821.483 1.63929 3.20623 0
M  V30 8237 C 821.336 3.18132 3.17982 0
M  V30 8238 C 822.655 1.3536 4.18767 0
M  V30 8239 H 819.774 0.358264 0.644062 0
M  V30 8240 H 822.416 1.46154 1.21405 0
M  V30 8241 H 820.566 1.2318 3.68455 0
M  V30 8242 H 822.238 3.68024 2.78129 0
M  V30 8243 H 820.481 3.50225 2.55978 0
M  V30 8244 H 821.152 3.5924 4.19107 0
M  V30 8245 H 823.628 1.70669 3.79488 0
M  V30 8246 H 822.504 1.83896 5.17178 0
M  V30 8247 H 822.765 0.276722 4.41233 0
M  V30 8248 N 821.824 -1.22873 0.986916 0
M  V30 8249 C 822.734 -2.28277 0.540978 0
M  V30 8250 C 823.75 -1.69164 -0.407363 0
M  V30 8251 O 824.926 -1.99504 -0.275674 0
M  V30 8252 C 821.991 -3.46404 -0.143181 0
M  V30 8253 C 821.052 -4.20854 0.847375 0
M  V30 8254 C 820.285 -5.33341 0.19577 0
M  V30 8255 O 820.508 -5.61356 -1.0117 0
M  V30 8256 O 819.442 -5.95169 0.897623 0
M  V30 8257 H 823.268 -2.68578 1.41773 0
M  V30 8258 H 820.853 -1.28927 0.754867 0
M  V30 8259 H 822.735 -4.18096 -0.526676 0
M  V30 8260 H 821.41 -3.08041 -0.994593 0
M  V30 8261 H 820.317 -3.51459 1.28169 0
M  V30 8262 H 821.65 -4.63082 1.6678 0
M  V30 8263 N 823.302 -0.75937 -1.38099 0
M  V30 8264 C 824.718 -0.437606 -1.53483 0
M  V30 8265 C 824.918 1.04849 -1.72072 0
M  V30 8266 O 823.974 1.83448 -1.73502 0
M  V30 8267 C 825.287 -1.24189 -2.73857 0
M  V30 8268 C 826.835 -1.23255 -2.8771 0
M  V30 8269 C 827.31 -2.01992 -4.11051 0
M  V30 8270 N 828.801 -1.99282 -4.1814 0
M  V30 8271 C 829.536 -2.56996 -5.12583 0
M  V30 8272 N 829.032 -3.23446 -6.12662 0
M  V30 8273 N 830.825 -2.46894 -5.04975 0
M  V30 8274 H 822.976 -1.72242 -1.24283 0
M  V30 8275 H 825.239 -0.730507 -0.604205 0
M  V30 8276 H 824.945 -2.29449 -2.66545 0
M  V30 8277 H 824.819 -0.862672 -3.67203 0
M  V30 8278 H 827.206 -0.187988 -2.94501 0
M  V30 8279 H 827.287 -1.65132 -1.95359 0
M  V30 8280 H 826.931 -3.06462 -4.05023 0
M  V30 8281 H 826.861 -1.57505 -5.02494 0
M  V30 8282 H 829.352 -1.50893 -3.46467 0
M  V30 8283 H 829.665 -3.6489 -6.81231 0
M  V30 8284 H 828.01 -3.27543 -6.12977 0
M  V30 8285 H 831.201 -1.94604 -4.25731 0
M  V30 8286 H 831.374 -2.92168 -5.78396 0
M  V30 8287 N 824.78 1.49157 -0.508906 0
M  V30 8288 C 825.71 2.32109 0.254469 0
M  V30 8289 C 826.691 1.40754 0.955111 0
M  V30 8290 O 827.876 1.69658 0.944983 0
M  V30 8291 C 825.006 3.21458 1.3146 0
M  V30 8292 C 823.96 4.2167 0.733368 0
M  V30 8293 C 823.286 5.00009 1.8946 0
M  V30 8294 C 824.586 5.21544 -0.280875 0
M  V30 8295 H 826.28 2.9618 -0.43795 0
M  V30 8296 H 823.826 1.4243 -0.212062 0
M  V30 8297 H 825.779 3.78305 1.85643 0
M  V30 8298 H 824.503 2.55346 2.03632 0
M  V30 8299 H 823.162 3.65979 0.213231 0
M  V30 8300 H 822.81 4.30338 2.60419 0
M  V30 8301 H 822.51 5.67821 1.51173 0
M  V30 8302 H 824.034 5.59702 2.44061 0
M  V30 8303 H 825.448 5.73039 0.173095 0
M  V30 8304 H 823.845 5.97291 -0.580006 0
M  V30 8305 H 824.915 4.69969 -1.19404 0
M  V30 8306 N 826.258 0.243083 1.55714 0
M  V30 8307 C 827.507 -0.383188 1.98027 0
M  V30 8308 C 827.82 -1.59347 1.13436 0
M  V30 8309 O 829.026 -2.29065 1.45745 0
M  V30 8310 C 827.482 -0.733135 3.52354 0
M  V30 8311 C 827.09 0.455539 4.45678 0
M  V30 8312 C 828.834 -1.32381 4.03331 0
M  V30 8313 C 826.741 0.0819591 5.91343 0
M  V30 8314 H 825.671 -0.146944 0.739543 0
M  V30 8315 H 828.322 0.342697 1.80272 0
M  V30 8316 H 826.704 -1.51704 3.65789 0
M  V30 8317 H 827.878 1.23291 4.44 0
M  V30 8318 H 826.193 0.960886 4.05162 0
M  V30 8319 H 828.79 -1.61658 5.09677 0
M  V30 8320 H 829.133 -2.24698 3.50452 0
M  V30 8321 H 829.666 -0.602885 3.93205 0
M  V30 8322 H 826.405 0.972171 6.48251 0
M  V30 8323 H 825.925 -0.659291 5.96166 0
M  V30 8324 H 827.604 -0.3372 6.46121 0
M  V30 8325 N 827.736 -1.57571 -0.0300757 0
M  V30 8326 C 828.984 -1.88852 -0.719666 0
M  V30 8327 C 829.305 -0.840645 -1.75949 0
M  V30 8328 O 828.575 0.125854 -1.95495 0
M  V30 8329 H 827.155 -0.696965 -0.268792 0
M  V30 8330 H 829.817 -1.949 0.00373285 0
M  V30 8331 H 828.913 -2.87695 -1.20987 0
M  V30 8332 N 829.214 0.302327 -1.54673 0
M  V30 8333 C 830.164 1.37443 -1.81916 0
M  V30 8334 C 831.148 1.45999 -0.676251 0
M  V30 8335 O 832.34 1.50174 -0.93685 0
M  V30 8336 C 829.469 2.73966 -2.06876 0
M  V30 8337 C 828.555 2.69637 -3.27348 0
M  V30 8338 N 828.946 2.34926 -4.47933 0
M  V30 8339 C 827.244 3.00742 -3.29348 0
M  V30 8340 C 827.945 2.39862 -5.29944 0
M  V30 8341 N 826.921 2.77163 -4.67634 0
M  V30 8342 H 830.723 1.09567 -2.72713 0
M  V30 8343 H 828.237 0.5109 -1.54154 0
M  V30 8344 H 830.234 3.51265 -2.2454 0
M  V30 8345 H 828.894 3.02754 -1.17346 0
M  V30 8346 H 829.905 2.07403 -4.74557 0
M  V30 8347 H 826.582 3.34434 -2.49921 0
M  V30 8348 H 827.972 2.15835 -6.3629 0
M  V30 8349 N 830.692 1.47107 0.565454 0
M  V30 8350 C 832.103 1.47266 1.1476 0
M  V30 8351 C 832.454 0.222841 1.9493 0
M  V30 8352 O 831.579 -0.672862 2.05673 0
M  V30 8353 C 832.174 2.66822 2.08785 0
M  V30 8354 C 830.733 2.69967 2.62288 0
M  V30 8355 C 829.88 2.40236 1.38499 0
M  V30 8356 H 832.831 1.54736 0.352479 0
M  V30 8357 H 832.852 2.43323 2.92531 0
M  V30 8358 H 832.364 3.5777 1.50408 0
M  V30 8359 H 830.465 1.83137 3.24487 0
M  V30 8360 H 830.578 3.70426 3.03845 0
M  V30 8361 H 828.942 1.90648 1.68895 0
M  V30 8362 H 829.725 3.33381 0.819274 0
M  V30 8363 N 832.17 -0.811516 1.35101 0
M  V30 8364 C 833.1 -1.9378 1.30275 0
M  V30 8365 C 834.081 -1.69165 0.178075 0
M  V30 8366 O 835.266 -1.90599 0.372256 0
M  V30 8367 C 832.396 -3.30439 1.06899 0
M  V30 8368 C 831.35 -3.69523 2.15955 0
M  V30 8369 C 830.676 -5.0429 1.77751 0
M  V30 8370 C 831.976 -3.80419 3.57881 0
M  V30 8371 H 833.67 -1.98075 2.24514 0
M  V30 8372 H 831.216 -0.951586 1.08078 0
M  V30 8373 H 833.169 -4.08828 1.02164 0
M  V30 8374 H 831.893 -3.26473 0.0910462 0
M  V30 8375 H 830.552 -2.93416 2.19778 0
M  V30 8376 H 830.2 -4.96823 0.785876 0
M  V30 8377 H 829.9 -5.31411 2.5075 0
M  V30 8378 H 831.424 -5.85125 1.74533 0
M  V30 8379 H 832.838 -4.49051 3.56407 0
M  V30 8380 H 831.235 -4.19005 4.29598 0
M  V30 8381 H 832.305 -2.82105 3.94391 0
M  V30 8382 N 833.648 -1.19017 -1.03309 0
M  V30 8383 C 835.059 -0.993206 -1.5809 0
M  V30 8384 C 835.41 0.45505 -1.9085 0
M  V30 8385 O 834.535 1.33372 -1.70414 0
M  V30 8386 C 835.13 -1.79661 -2.87241 0
M  V30 8387 C 833.689 -1.64377 -3.38611 0
M  V30 8388 C 832.836 -1.78628 -2.12102 0
M  V30 8389 H 835.787 -1.3345 -0.858879 0
M  V30 8390 H 835.808 -1.29019 -3.57958 0
M  V30 8391 H 835.32 -2.85061 -2.63366 0
M  V30 8392 H 833.421 -0.615447 -3.67482 0
M  V30 8393 H 833.534 -2.44651 -4.11926 0
M  V30 8394 H 831.898 -1.21648 -2.23772 0
M  V30 8395 H 832.681 -2.8548 -1.90673 0
M  V30 8396 N 835.127 1.22348 -0.993418 0
M  V30 8397 C 836.057 2.26584 -0.564088 0
M  V30 8398 C 837.038 1.65102 0.409298 0
M  V30 8399 O 838.223 1.91872 0.299819 0
M  V30 8400 C 835.353 3.47087 0.121554 0
M  V30 8401 C 834.307 4.21009 -0.770429 0
M  V30 8402 C 833.633 5.34678 0.0481586 0
M  V30 8403 C 834.933 4.79636 -2.06752 0
M  V30 8404 H 836.627 2.62749 -1.43538 0
M  V30 8405 H 834.173 1.26303 -0.691628 0
M  V30 8406 H 836.126 4.19166 0.433303 0
M  V30 8407 H 834.85 3.1002 1.0274 0
M  V30 8408 H 833.509 3.50764 -1.06583 0
M  V30 8409 H 833.157 4.93852 0.954933 0
M  V30 8410 H 832.857 5.85061 -0.545641 0
M  V30 8411 H 834.381 6.09573 0.353991 0
M  V30 8412 H 835.795 5.43654 -1.81969 0
M  V30 8413 H 834.192 5.4036 -2.61019 0
M  V30 8414 H 835.262 3.99659 -2.74592 0
M  V30 8415 N 836.605 0.766683 1.37694 0
M  V30 8416 C 838.021 0.445739 1.53249 0
M  V30 8417 C 838.221 -1.03935 1.72626 0
M  V30 8418 O 837.277 -1.82525 1.74473 0
M  V30 8419 C 838.59 1.2564 2.73194 0
M  V30 8420 C 840.138 1.24779 2.87053 0
M  V30 8421 C 840.613 2.04169 4.09974 0
M  V30 8422 N 842.104 2.01497 4.17077 0
M  V30 8423 C 842.839 2.5971 5.11212 0
M  V30 8424 N 842.335 3.26691 6.10938 0
M  V30 8425 N 844.128 2.49568 5.03659 0
M  V30 8426 H 836.279 1.72899 1.23368 0
M  V30 8427 H 838.542 0.733701 0.600322 0
M  V30 8428 H 838.248 2.30859 2.65324 0
M  V30 8429 H 838.122 0.882133 3.6674 0
M  V30 8430 H 840.509 0.203603 2.94397 0
M  V30 8431 H 840.59 1.66166 1.9448 0
M  V30 8432 H 840.234 3.08606 4.03392 0
M  V30 8433 H 840.164 1.60167 5.01651 0
M  V30 8434 H 842.655 1.52728 3.45662 0
M  V30 8435 H 842.968 3.68497 6.79286 0
M  V30 8436 H 841.313 3.30789 6.11231 0
M  V30 8437 H 844.504 1.96859 4.24693 0
M  V30 8438 H 844.677 2.95231 5.76839 0
M  V30 8439 N 838.083 -1.48885 0.516809 0
M  V30 8440 C 839.013 -2.32241 -0.242157 0
M  V30 8441 C 839.994 -1.41258 -0.947633 0
M  V30 8442 O 841.179 -1.70156 -0.935973 0
M  V30 8443 C 838.309 -3.22151 -1.29754 0
M  V30 8444 C 837.263 -4.22053 -0.710995 0
M  V30 8445 C 836.589 -5.01007 -1.86806 0
M  V30 8446 C 837.889 -5.21388 0.30853 0
M  V30 8447 H 839.583 -2.95943 0.453651 0
M  V30 8448 H 837.129 -1.42316 0.219612 0
M  V30 8449 H 839.082 -3.79284 -1.83634 0
M  V30 8450 H 837.806 -2.56423 -2.02274 0
M  V30 8451 H 836.465 -3.66087 -0.193819 0
M  V30 8452 H 836.113 -4.31713 -2.58133 0
M  V30 8453 H 835.813 -5.68615 -1.48159 0
M  V30 8454 H 837.337 -5.60989 -2.4109 0
M  V30 8455 H 838.751 -5.73122 -0.142703 0
M  V30 8456 H 837.148 -5.96975 0.611673 0
M  V30 8457 H 838.218 -4.69329 1.21894 0
M  V30 8458 N 839.561 -0.251338 -1.55583 0
M  V30 8459 C 840.838 0.422729 -1.90977 0
M  V30 8460 C 841.218 1.75534 -1.17265 0
M  V30 8461 O 840.566 2.26632 -0.291588 0
M  V30 8462 C 840.776 0.586448 -3.44037 0
M  V30 8463 C 842.124 0.880294 -4.15375 0
M  V30 8464 O 843.148 0.672148 -3.49801 0
M  V30 8465 O 842.007 1.27694 -5.31372 0
M  V30 8466 H 839.101 0.227622 -0.795058 0
M  V30 8467 H 841.647 -0.295733 -1.67103 0
M  V30 8468 H 840.419 -0.352327 -3.89711 0
M  V30 8469 H 840.042 1.35528 -3.73789 0
M  V30 8470 N 841.039 1.57585 0.0217189 0
M  V30 8471 C 842.002 2.06004 1.00474 0
M  V30 8472 C 843.002 0.965461 1.2859 0
M  V30 8473 O 844.192 1.22884 1.23471 0
M  V30 8474 C 841.324 2.48319 2.33561 0
M  V30 8475 H 842.517 2.94112 0.586346 0
M  V30 8476 H 840.07 1.53973 0.268716 0
M  V30 8477 H 840.805 1.63389 2.80133 0
M  V30 8478 H 840.59 3.28239 2.1448 0
M  V30 8479 H 842.08 2.86181 3.04122 0
M  V30 8480 N 842.517 -0.29412 1.54831 0
M  V30 8481 C 843.766 -1.02614 1.73647 0
M  V30 8482 C 844.079 -1.88193 0.533162 0
M  V30 8483 O 845.285 -2.64713 0.603275 0
M  V30 8484 C 843.741 -1.87417 3.07251 0
M  V30 8485 C 843.349 -1.06806 4.35082 0
M  V30 8486 C 845.093 -2.60176 3.35423 0
M  V30 8487 C 843 -1.90926 5.59733 0
M  V30 8488 H 841.93 -0.386834 0.647206 0
M  V30 8489 H 844.581 -0.282789 1.81308 0
M  V30 8490 H 842.963 -2.65765 2.93572 0
M  V30 8491 H 844.137 -0.330226 4.59615 0
M  V30 8492 H 842.452 -0.455979 4.13896 0
M  V30 8493 H 845.049 -3.23476 4.25755 0
M  V30 8494 H 845.392 -3.29365 2.54606 0
M  V30 8495 H 845.925 -1.88871 3.50103 0
M  V30 8496 H 842.664 -1.26194 6.43238 0
M  V30 8497 H 842.184 -2.62363 5.39375 0
M  V30 8498 H 843.863 -2.48807 5.97247 0
M  V30 8499 N 843.995 -1.47404 -0.557645 0
M  V30 8500 C 845.223 -1.57622 -1.34026 0
M  V30 8501 C 845.638 -0.226256 -1.87439 0
M  V30 8502 O 844.995 0.78043 -1.64971 0
M  V30 8503 C 845.046 -2.60111 -2.51047 0
M  V30 8504 O 844.767 -3.89866 -1.99841 0
M  V30 8505 C 846.268 -2.80508 -3.43264 0
M  V30 8506 H 843.488 -0.532271 -0.40857 0
M  V30 8507 H 846.032 -1.93019 -0.675555 0
M  V30 8508 H 844.187 -2.27648 -3.13457 0
M  V30 8509 H 844.601 -4.45864 -2.76234 0
M  V30 8510 H 846.075 -3.56084 -4.21792 0
M  V30 8511 H 846.552 -1.88314 -3.9678 0
M  V30 8512 H 847.158 -3.14166 -2.86671 0
M  V30 8513 N 845.473 0.80434 -1.35529 0
M  V30 8514 C 846.721 1.55845 -1.28673 0
M  V30 8515 C 847.042 1.94511 0.137976 0
M  V30 8516 O 846.312 1.63775 1.07492 0
M  V30 8517 H 844.892 0.577931 -0.473291 0
M  V30 8518 H 847.554 0.959293 -1.69657 0
M  V30 8519 H 846.65 2.47285 -1.90411 0
M  V30 8520 N 846.951 1.19563 1.02676 0
M  V30 8521 C 848.362 1.00158 1.57561 0
M  V30 8522 C 848.713 -0.444922 1.91089 0
M  V30 8523 O 847.838 -1.32466 1.71119 0
M  V30 8524 C 848.433 1.81181 2.86284 0
M  V30 8525 C 846.992 1.66171 3.37734 0
M  V30 8526 C 846.139 1.7975 2.11152 0
M  V30 8527 H 849.09 1.33904 0.85179 0
M  V30 8528 H 849.111 1.30916 3.57269 0
M  V30 8529 H 848.623 2.86454 2.6185 0
M  V30 8530 H 846.724 0.634927 3.6715 0
M  V30 8531 H 846.837 2.46832 4.10622 0
M  V30 8532 H 845.201 1.22833 2.23123 0
M  V30 8533 H 845.984 2.86487 1.89157 0
M  V30 8534 N 848.429 -1.21819 0.999893 0
M  V30 8535 C 849.339 -2.27691 0.565159 0
M  V30 8536 C 850.355 -1.69587 -0.389398 0
M  V30 8537 O 851.531 -1.99786 -0.254499 0
M  V30 8538 C 848.596 -3.46537 -0.106432 0
M  V30 8539 C 847.657 -4.19932 0.891964 0
M  V30 8540 C 846.89 -5.33103 0.252327 0
M  V30 8541 O 847.113 -5.62398 -0.952103 0
M  V30 8542 O 846.047 -5.94184 0.960698 0
M  V30 8543 H 849.873 -2.67059 1.44613 0
M  V30 8544 H 847.458 -1.28119 0.768499 0
M  V30 8545 H 849.34 -4.18631 -0.482301 0
M  V30 8546 H 848.015 -3.09079 -0.961865 0
M  V30 8547 H 846.922 -3.5008 1.3189 0
M  V30 8548 H 848.255 -4.61287 1.71682 0
M  V30 8549 N 849.908 -0.773975 -1.37286 0
M  V30 8550 C 850.818 -0.162571 -2.34036 0
M  V30 8551 C 851.834 0.677022 -1.60289 0
M  V30 8552 O 853.01 0.596423 -1.92366 0
M  V30 8553 C 850.075 0.70457 -3.39465 0
M  V30 8554 C 849.136 -0.151738 -4.29032 0
M  V30 8555 C 848.369 0.674111 -5.29426 0
M  V30 8556 O 848.592 1.91107 -5.37433 0
M  V30 8557 O 847.526 0.0821398 -6.01844 0
M  V30 8558 H 851.352 -0.962119 -2.88057 0
M  V30 8559 H 848.937 -0.53517 -1.39486 0
M  V30 8560 H 850.819 1.19954 -4.03967 0
M  V30 8561 H 849.494 1.48227 -2.87768 0
M  V30 8562 H 848.401 -0.693118 -3.67623 0
M  V30 8563 H 849.734 -0.892575 -4.84039 0
M  V30 8564 N 851.386 1.48609 -0.524698 0
M  V30 8565 C 852.296 2.33318 0.244923 0
M  V30 8566 C 853.312 1.46153 0.944214 0
M  V30 8567 O 854.488 1.79141 0.920347 0
M  V30 8568 C 851.553 3.22149 1.28144 0
M  V30 8569 C 850.614 4.25184 0.593068 0
M  V30 8570 C 849.847 5.0977 1.5802 0
M  V30 8571 O 850.07 4.96249 2.81235 0
M  V30 8572 O 849.004 5.9134 1.1225 0
M  V30 8573 H 852.83 3.00362 -0.449066 0
M  V30 8574 H 850.415 1.46643 -0.285689 0
M  V30 8575 H 852.297 3.77111 1.88057 0
M  V30 8576 H 850.972 2.57772 1.95793 0
M  V30 8577 H 849.879 3.74071 -0.0464214 0
M  V30 8578 H 851.212 4.92183 -0.0413893 0
M  V30 8579 N 852.864 0.259585 1.55447 0
M  V30 8580 C 854.112 -0.360893 1.98852 0
M  V30 8581 C 854.433 -1.57535 1.14924 0
M  V30 8582 O 853.703 -1.94485 0.235025 0
M  V30 8583 H 852.283 -0.136332 0.734454 0
M  V30 8584 H 854.945 0.361319 1.91522 0
M  V30 8585 H 854.041 -0.661388 3.05012 0
M  V30 8586 N 854.342 -1.57594 -0.0133615 0
M  V30 8587 C 855.59 -1.89605 -0.699596 0
M  V30 8588 C 855.911 -0.85926 -1.75048 0
M  V30 8589 O 855.181 0.105112 -1.95618 0
M  V30 8590 H 853.761 -0.699776 -0.261385 0
M  V30 8591 H 856.423 -1.94885 0.0244044 0
M  V30 8592 H 855.519 -2.88962 -1.17928 0
M  V30 8593 N 855.82 0.285905 -1.54985 0
M  V30 8594 C 857.236 0.632405 -1.46536 0
M  V30 8595 C 857.436 1.90074 -0.668888 0
M  V30 8596 O 856.492 2.51839 -0.182586 0
M  V30 8597 C 857.805 0.771361 -2.90638 0
M  V30 8598 C 859.353 0.866262 -3.00774 0
M  V30 8599 C 859.828 1.0371 -4.46103 0
M  V30 8600 N 861.319 1.10294 -4.49877 0
M  V30 8601 C 862.054 1.25369 -5.59527 0
M  V30 8602 N 861.55 1.37246 -6.7907 0
M  V30 8603 N 863.343 1.28377 -5.47244 0
M  V30 8604 H 855.494 -0.547226 -2.0523 0
M  V30 8605 H 857.757 -0.183298 -0.930111 0
M  V30 8606 H 857.463 -0.0899485 -3.51585 0
M  V30 8607 H 857.337 1.65569 -3.3892 0
M  V30 8608 H 859.724 1.71805 -2.39931 0
M  V30 8609 H 859.805 -0.0424049 -2.55765 0
M  V30 8610 H 859.449 0.190021 -5.07544 0
M  V30 8611 H 859.379 1.96022 -4.88757 0
M  V30 8612 H 861.87 1.02407 -3.6376 0
M  V30 8613 H 862.183 1.48546 -7.58389 0
M  V30 8614 H 860.528 1.34274 -6.81906 0
M  V30 8615 H 863.719 1.1872 -4.52795 0
M  V30 8616 H 863.892 1.39782 -6.32744 0
M  V30 8617 N 857.298 1.47698 0.54982 0
M  V30 8618 C 858.228 1.63622 1.66583 0
M  V30 8619 C 859.209 0.485477 1.63025 0
M  V30 8620 O 860.394 0.715692 1.80531 0
M  V30 8621 C 857.524 1.65721 3.05211 0
M  V30 8622 C 856.478 2.80097 3.2362 0
M  V30 8623 C 855.804 2.67272 4.63109 0
M  V30 8624 C 857.104 4.21612 3.08286 0
M  V30 8625 H 858.798 2.57049 1.53512 0
M  V30 8626 H 856.344 1.23705 0.737099 0
M  V30 8627 H 858.297 1.75451 3.83138 0
M  V30 8628 H 857.021 0.688593 3.19258 0
M  V30 8629 H 855.68 2.69889 2.48104 0
M  V30 8630 H 855.328 1.68422 4.73965 0
M  V30 8631 H 855.028 3.44008 4.76374 0
M  V30 8632 H 856.552 2.78942 5.43161 0
M  V30 8633 H 857.966 4.32758 3.76024 0
M  V30 8634 H 856.363 4.99193 3.33057 0
M  V30 8635 H 857.433 4.39462 2.04942 0
M  V30 8636 N 858.776 -0.797141 1.35954 0
M  V30 8637 C 859.686 -1.94088 1.31784 0
M  V30 8638 C 860.702 -1.72588 0.221227 0
M  V30 8639 O 861.878 -1.96256 0.452255 0
M  V30 8640 C 858.943 -3.28828 1.09878 0
M  V30 8641 C 858.004 -3.63158 2.28942 0
M  V30 8642 C 857.237 -4.91469 2.08072 0
M  V30 8643 O 857.46 -5.60616 1.05196 0
M  V30 8644 O 856.394 -5.24277 2.95664 0
M  V30 8645 H 860.22 -2.00554 2.28061 0
M  V30 8646 H 857.805 -0.936288 1.16422 0
M  V30 8647 H 859.687 -4.09473 0.995485 0
M  V30 8648 H 858.362 -3.23271 0.16659 0
M  V30 8649 H 857.269 -2.82851 2.44839 0
M  V30 8650 H 858.602 -3.7343 3.20641 0
M  V30 8651 N 860.254 -1.20106 -1.0204 0
M  V30 8652 C 861.482 -1.0344 -1.79186 0
M  V30 8653 C 861.897 0.416542 -1.84148 0
M  V30 8654 O 861.254 1.28925 -1.29168 0
M  V30 8655 C 861.305 -1.60663 -3.23836 0
M  V30 8656 O 861.026 -3.00079 -3.19193 0
M  V30 8657 C 862.527 -1.48897 -4.17546 0
M  V30 8658 H 859.747 -0.364093 -0.563629 0
M  V30 8659 H 862.291 -1.5911 -1.28469 0
M  V30 8660 H 860.446 -1.09122 -3.71714 0
M  V30 8661 H 860.86 -3.27162 -4.09958 0
M  V30 8662 H 862.334 -1.93703 -5.16898 0
M  V30 8663 H 862.811 -0.440843 -4.36982 0
M  V30 8664 H 863.417 -1.9961 -3.75547 0
M  V30 8665 N 861.732 1.21287 -1.00634 0
M  V30 8666 C 862.981 1.89706 -0.685178 0
M  V30 8667 C 863.294 1.79044 0.787566 0
M  V30 8668 O 864.5 2.42502 1.22086 0
M  V30 8669 C 862.956 3.40176 -1.17508 0
M  V30 8670 C 862.564 3.59446 -2.674 0
M  V30 8671 C 864.308 4.14213 -0.928869 0
M  V30 8672 C 862.215 5.03688 -3.09923 0
M  V30 8673 H 861.145 0.710434 -0.252586 0
M  V30 8674 H 863.796 1.37277 -1.21768 0
M  V30 8675 H 862.178 3.91867 -0.570622 0
M  V30 8676 H 863.352 3.18188 -3.33306 0
M  V30 8677 H 861.667 2.98764 -2.9005 0
M  V30 8678 H 864.264 5.20546 -1.22212 0
M  V30 8679 H 864.607 4.16082 0.134859 0
M  V30 8680 H 865.14 3.68591 -1.49619 0
M  V30 8681 H 861.879 5.06968 -4.15529 0
M  V30 8682 H 861.399 5.45796 -2.4873 0
M  V30 8683 H 863.078 5.72204 -3.0198 0
M  V30 8684 N 863.21 0.781244 1.36873 0
M  V30 8685 C 864.14 0.188128 2.32741 0
M  V30 8686 C 865.121 -0.672326 1.56249 0
M  V30 8687 O 866.306 -0.607835 1.84442 0
M  V30 8688 C 863.436 -0.684341 3.40491 0
M  V30 8689 C 862.39 0.0755641 4.27933 0
M  V30 8690 C 861.716 -0.916968 5.26779 0
M  V30 8691 C 863.016 1.26006 5.06873 0
M  V30 8692 H 864.71 0.989016 2.82593 0
M  V30 8693 H 862.256 0.477038 1.35869 0
M  V30 8694 H 864.209 -1.10915 4.06541 0
M  V30 8695 H 862.933 -1.51785 2.89187 0
M  V30 8696 H 861.592 0.481258 3.63427 0
M  V30 8697 H 861.24 -1.74528 4.71751 0
M  V30 8698 H 860.94 -0.413 5.86147 0
M  V30 8699 H 862.464 -1.34052 5.95703 0
M  V30 8700 H 863.878 0.911425 5.66009 0
M  V30 8701 H 862.275 1.69676 5.75613 0
M  V30 8702 H 863.345 2.05948 4.38991 0
M  V30 8703 N 864.689 -1.48329 0.532571 0
M  V30 8704 C 865.937 -2.021 -0.000581206 0
M  V30 8705 C 866.258 -1.4117 -1.34522 0
M  V30 8706 O 865.528 -0.578005 -1.87179 0
M  V30 8707 H 864.108 -0.746993 -0.00320281 0
M  V30 8708 H 866.77 -1.82011 0.696991 0
M  V30 8709 H 865.866 -3.11917 -0.106991 0
M  V30 8710 N 866.167 -0.267825 -1.55308 0
M  V30 8711 C 867.413 0.34458 -2.0046 0
M  V30 8712 C 867.768 1.54028 -1.15296 0
M  V30 8713 O 867.061 1.90409 -0.213316 0
M  V30 8714 C 867.255 0.784247 -3.48689 0
M  V30 8715 C 867.084 -0.367304 -4.48197 0
M  V30 8716 C 865.854 -0.848746 -4.98121 0
M  V30 8717 C 868.052 -1.20136 -5.00072 0
M  V30 8718 N 866.034 -1.97052 -5.81415 0
M  V30 8719 C 867.405 -2.17115 -5.80742 0
M  V30 8720 C 869.46 -1.23553 -4.82327 0
M  V30 8721 C 868.163 -3.17248 -6.45559 0
M  V30 8722 C 870.189 -2.22527 -5.47938 0
M  V30 8723 C 869.551 -3.1824 -6.28413 0
M  V30 8724 H 865.65 0.091465 -0.776633 0
M  V30 8725 H 868.234 -0.390184 -1.9075 0
M  V30 8726 H 866.405 1.48825 -3.58756 0
M  V30 8727 H 868.137 1.37337 -3.80684 0
M  V30 8728 H 864.892 -0.429291 -4.7165 0
M  V30 8729 H 865.316 -2.53481 -6.27755 0
M  V30 8730 H 869.958 -0.50937 -4.1972 0
M  V30 8731 H 867.676 -3.90801 -7.07319 0
M  V30 8732 H 871.262 -2.25904 -5.36152 0
M  V30 8733 H 870.142 -3.93573 -6.78285 0
M  V30 8734 N 867.645 1.57599 0.00500368 0
M  V30 8735 C 869.056 1.78462 0.54848 0
M  V30 8736 C 869.407 0.901869 1.74243 0
M  V30 8737 O 868.532 0.103014 2.16155 0
M  V30 8738 C 869.127 3.2365 1.00179 0
M  V30 8739 C 867.686 3.45627 1.49061 0
M  V30 8740 C 866.833 2.73794 0.439531 0
M  V30 8741 H 869.784 1.57151 -0.22118 0
M  V30 8742 H 869.805 3.31488 1.86805 0
M  V30 8743 H 869.317 3.87873 0.132607 0
M  V30 8744 H 867.418 2.86612 2.38085 0
M  V30 8745 H 867.531 4.54298 1.52152 0
M  V30 8746 H 865.895 2.38267 0.900043 0
M  V30 8747 H 866.678 3.40714 -0.420599 0
M  V30 8748 N 869.123 -0.277682 1.55134 0
M  V30 8749 C 870.053 -1.34742 1.90701 0
M  V30 8750 C 871.034 -1.51757 0.768354 0
M  V30 8751 O 872.219 -1.64879 1.02609 0
M  V30 8752 C 869.349 -2.70775 2.17481 0
M  V30 8753 C 868.303 -2.68497 3.33307 0
M  V30 8754 C 867.629 -4.08037 3.45557 0
M  V30 8755 C 868.929 -2.28178 4.69821 0
M  V30 8756 H 870.623 -1.05224 2.803 0
M  V30 8757 H 868.169 -0.504738 1.34864 0
M  V30 8758 H 870.122 -3.45719 2.40949 0
M  V30 8759 H 868.846 -3.01867 1.24676 0
M  V30 8760 H 867.505 -1.9601 3.09799 0
M  V30 8761 H 867.153 -4.36344 2.50226 0
M  V30 8762 H 866.853 -4.07409 4.23429 0
M  V30 8763 H 868.377 -4.84726 3.71312 0
M  V30 8764 H 869.791 -2.92843 4.92865 0
M  V30 8765 H 868.188 -2.3872 5.50575 0
M  V30 8766 H 869.258 -1.23308 4.6896 0
M  V30 8767 N 870.601 -1.47988 -0.541979 0
M  V30 8768 C 871.564 -1.61148 -1.62984 0
M  V30 8769 C 872.564 -0.48553 -1.53295 0
M  V30 8770 O 873.754 -0.751012 -1.5718 0
M  V30 8771 C 870.886 -1.57038 -3.02576 0
M  V30 8772 H 872.079 -2.58138 -1.52659 0
M  V30 8773 H 869.632 -1.36405 -0.763106 0
M  V30 8774 H 870.367 -0.614807 -3.18419 0
M  V30 8775 H 870.152 -2.38769 -3.11018 0
M  V30 8776 H 871.642 -1.69416 -3.81691 0
M  V30 8777 N 872.079 0.78992 -1.36375 0
M  V30 8778 C 872.989 1.93386 -1.32812 0
M  V30 8779 C 874.005 1.72468 -0.230377 0
M  V30 8780 O 875.181 1.96014 -0.462657 0
M  V30 8781 C 872.246 3.2824 -1.11621 0
M  V30 8782 C 871.307 3.61939 -2.30865 0
M  V30 8783 C 870.54 4.90359 -2.10675 0
M  V30 8784 O 870.763 5.6005 -1.08168 0
M  V30 8785 O 869.697 5.22702 -2.9844 0
M  V30 8786 H 873.523 1.99342 -2.29121 0
M  V30 8787 H 871.108 0.9301 -1.16917 0
M  V30 8788 H 872.99 4.08939 -1.01719 0
M  V30 8789 H 871.665 3.23178 -0.183732 0
M  V30 8790 H 870.572 2.81549 -2.46335 0
M  V30 8791 H 871.905 3.71725 -3.22617 0
M  V30 8792 N 873.557 1.20646 1.01402 0
M  V30 8793 C 874.973 0.961866 1.27359 0
M  V30 8794 C 875.173 -0.357083 1.98311 0
M  V30 8795 O 874.229 -1.08498 2.28001 0
M  V30 8796 C 875.542 2.14627 2.10609 0
M  V30 8797 C 877.09 2.18753 2.23866 0
M  V30 8798 C 877.565 3.36686 3.10494 0
M  V30 8799 N 879.056 3.36716 3.18083 0
M  V30 8800 C 879.791 4.24615 3.85343 0
M  V30 8801 N 879.287 5.22697 4.54708 0
M  V30 8802 N 881.08 4.12449 3.81893 0
M  V30 8803 H 873.231 2.05481 0.537721 0
M  V30 8804 H 875.494 0.899292 0.299963 0
M  V30 8805 H 875.2 3.10159 1.65814 0
M  V30 8806 H 875.074 2.12935 3.11349 0
M  V30 8807 H 877.461 1.23782 2.67885 0
M  V30 8808 H 877.542 2.24492 1.22626 0
M  V30 8809 H 877.186 4.31945 2.67181 0
M  V30 8810 H 877.116 3.28185 4.11828 0
M  V30 8811 H 879.607 2.65728 2.68695 0
M  V30 8812 H 879.92 5.86087 5.03708 0
M  V30 8813 H 878.265 5.26631 4.53525 0
M  V30 8814 H 881.456 3.35091 3.26851 0
M  V30 8815 H 881.629 4.81162 4.34035 0
M  V30 8816 N 875.035 -1.20752 1.01276 0
M  V30 8817 C 876.263 -1.94006 0.718976 0
M  V30 8818 C 876.678 -1.74544 -0.719711 0
M  V30 8819 O 876.035 -1.05697 -1.48776 0
M  V30 8820 C 876.086 -3.46208 1.04031 0
M  V30 8821 O 875.807 -3.65031 2.42248 0
M  V30 8822 C 877.308 -4.36614 0.767032 0
M  V30 8823 H 874.528 -0.616743 0.264327 0
M  V30 8824 H 877.072 -1.53352 1.3529 0
M  V30 8825 H 875.227 -3.84756 0.451852 0
M  V30 8826 H 875.641 -4.59054 2.53712 0
M  V30 8827 H 877.115 -5.42076 1.04198 0
M  V30 8828 H 877.592 -4.38182 -0.298851 0
M  V30 8829 H 878.198 -4.03723 1.33746 0
M  V30 8830 N 876.513 -0.788492 -1.36457 0
M  V30 8831 C 877.759 -0.360995 -1.99561 0
M  V30 8832 C 878.092 1.06433 -1.62437 0
M  V30 8833 O 877.367 1.7352 -0.878705 0
M  V30 8834 C 877.65 -0.523735 -3.56271 0
M  V30 8835 C 877.503 -1.99268 -4.03252 0
M  V30 8836 C 878.822 0.0617908 -4.40057 0
M  V30 8837 H 875.941 -0.13264 -0.724966 0
M  V30 8838 H 878.583 -0.994659 -1.61884 0
M  V30 8839 H 876.733 0.0156979 -3.88497 0
M  V30 8840 H 878.405 -2.59311 -3.81518 0
M  V30 8841 H 876.648 -2.49561 -3.54826 0
M  V30 8842 H 877.319 -2.05752 -5.12221 0
M  V30 8843 H 879.795 -0.398674 -4.14186 0
M  V30 8844 H 878.671 -0.0821089 -5.48839 0
M  V30 8845 H 878.932 1.15381 -4.26778 0
M  V30 8846 N 877.991 1.48044 -0.54043 0
M  V30 8847 C 879.237 2.02797 -0.0101718 0
M  V30 8848 C 879.57 1.41565 1.32939 0
M  V30 8849 O 878.845 0.565139 1.86109 0
M  V30 8850 C 879.128 3.59959 0.100758 0
M  V30 8851 C 878.981 4.31654 -1.26471 0
M  V30 8852 C 880.3 4.32347 0.822455 0
M  V30 8853 H 877.419 0.736982 -0.00517052 0
M  V30 8854 H 880.061 1.76656 -0.69948 0
M  V30 8855 H 878.211 3.82363 0.687824 0
M  V30 8856 H 879.883 4.20639 -1.89369 0
M  V30 8857 H 878.126 3.92663 -1.84386 0
M  V30 8858 H 878.797 5.401 -1.13998 0
M  V30 8859 H 881.273 4.14835 0.324164 0
M  V30 8860 H 880.149 5.41978 0.868993 0
M  V30 8861 H 880.41 4.00369 1.87501 0
M  V30 8862 N 879.47 0.276058 1.55163 0
M  V30 8863 C 880.719 -0.341098 1.98795 0
M  V30 8864 C 881.032 -1.56905 1.16791 0
M  V30 8865 O 882.238 -2.25922 1.50571 0
M  V30 8866 C 880.694 -0.658231 3.5383 0
M  V30 8867 C 880.302 0.549972 4.44611 0
M  V30 8868 C 882.046 -1.23796 4.06048 0
M  V30 8869 C 879.953 0.207373 5.91036 0
M  V30 8870 H 878.883 -0.131224 0.742493 0
M  V30 8871 H 881.534 0.380858 1.79504 0
M  V30 8872 H 879.916 -1.43911 3.68925 0
M  V30 8873 H 881.09 1.32681 4.41285 0
M  V30 8874 H 879.405 1.04661 4.03032 0
M  V30 8875 H 882.002 -1.50811 5.12991 0
M  V30 8876 H 882.345 -2.17214 3.55139 0
M  V30 8877 H 882.878 -0.519345 3.94395 0
M  V30 8878 H 879.617 1.10946 6.46043 0
M  V30 8879 H 879.137 -0.532687 5.9743 0
M  V30 8880 H 880.816 -0.200072 6.46691 0
M  V30 8881 N 880.948 -1.576 0.00335426 0
M  V30 8882 C 882.359 -1.7875 -0.539008 0
M  V30 8883 C 882.71 -0.911097 -1.73763 0
M  V30 8884 O 881.835 -0.114476 -2.16097 0
M  V30 8885 C 882.43 -3.24177 -0.984611 0
M  V30 8886 C 880.989 -3.46412 -1.47226 0
M  V30 8887 C 880.136 -2.74024 -0.425004 0
M  V30 8888 H 883.087 -1.57032 0.229511 0
M  V30 8889 H 883.108 -3.32474 -1.85044 0
M  V30 8890 H 882.62 -3.87938 -0.112035 0
M  V30 8891 H 880.721 -2.8787 -2.36562 0
M  V30 8892 H 880.834 -4.55098 -1.49741 0
M  V30 8893 H 879.198 -2.38741 -0.887394 0
M  V30 8894 H 879.981 -3.40486 0.438662 0
M  V30 8895 N 882.426 0.269451 -1.5528 0
M  V30 8896 C 883.651 1.02299 -1.80415 0
M  V30 8897 C 884.076 1.7902 -0.577363 0
M  V30 8898 O 883.434 1.75018 0.473125 0
M  V30 8899 C 883.482 1.95445 -3.0304 0
M  V30 8900 O 882.586 3.04271 -2.78375 0
M  V30 8901 H 881.927 0.292289 -0.596207 0
M  V30 8902 H 884.457 0.297282 -2.02429 0
M  V30 8903 H 884.467 2.37333 -3.31869 0
M  V30 8904 H 883.142 1.39017 -3.91978 0
M  V30 8905 H 881.719 2.66673 -2.60653 0
M  V30 8906 N 883.904 1.48273 0.534124 0
M  V30 8907 C 884.867 1.6201 1.62127 0
M  V30 8908 C 885.867 0.493653 1.53035 0
M  V30 8909 O 887.057 0.759337 1.56779 0
M  V30 8910 C 884.189 1.5864 3.01739 0
M  V30 8911 H 885.382 2.58944 1.51288 0
M  V30 8912 H 882.935 1.36808 0.755861 0
M  V30 8913 H 883.67 0.631685 3.18088 0
M  V30 8914 H 883.455 2.40415 3.09747 0
M  V30 8915 H 884.945 1.71438 3.80787 0
M  V30 8916 N 885.382 -0.782676 1.36792 0
M  V30 8917 C 886.631 -1.53605 1.30723 0
M  V30 8918 C 886.944 -1.95294 -0.109296 0
M  V30 8919 O 888.15 -2.69921 -0.292398 0
M  V30 8920 C 886.606 -2.77321 2.29393 0
M  V30 8921 C 886.214 -2.42774 3.76517 0
M  V30 8922 C 887.958 -3.55289 2.32314 0
M  V30 8923 C 885.865 -3.62926 4.66947 0
M  V30 8924 H 884.795 -0.576646 0.485794 0
M  V30 8925 H 887.446 -0.858255 1.62192 0
M  V30 8926 H 885.828 -3.46934 1.90927 0
M  V30 8927 H 887.002 -1.81014 4.23758 0
M  V30 8928 H 885.317 -1.78002 3.76436 0
M  V30 8929 H 887.914 -4.44573 2.97083 0
M  V30 8930 H 888.257 -3.94361 1.3336 0
M  V30 8931 H 888.79 -2.92662 2.69432 0
M  V30 8932 H 885.529 -3.28944 5.66989 0
M  V30 8933 H 885.049 -4.23828 4.24418 0
M  V30 8934 H 886.728 -4.29873 4.83548 0
M  V30 8935 N 886.86 -1.21182 -1.00761 0
M  V30 8936 C 888.271 -1.02652 -1.55947 0
M  V30 8937 C 888.622 0.414466 -1.91772 0
M  V30 8938 O 887.747 1.29727 -1.73204 0
M  V30 8939 C 888.342 -1.85713 -2.83366 0
M  V30 8940 C 886.901 -1.71523 -3.35048 0
M  V30 8941 C 886.048 -1.83087 -2.08265 0
M  V30 8942 H 888.999 -1.35242 -0.830379 0
M  V30 8943 H 889.02 -1.36583 -3.55141 0
M  V30 8944 H 888.532 -2.90584 -2.5726 0
M  V30 8945 H 886.633 -0.693257 -3.66094 0
M  V30 8946 H 886.746 -2.53333 -4.06644 0
M  V30 8947 H 885.11 -1.26367 -2.21141 0
M  V30 8948 H 885.893 -2.8946 -1.84575 0
M  V30 8949 N 888.338 1.20213 -1.01915 0
M  V30 8950 C 889.566 1.93622 -0.729255 0
M  V30 8951 C 889.981 1.74923 0.710444 0
M  V30 8952 O 889.338 1.06484 1.48214 0
M  V30 8953 C 889.389 3.45651 -1.05865 0
M  V30 8954 O 889.11 3.63741 -2.44181 0
M  V30 8955 C 890.611 4.36201 -0.790176 0
M  V30 8956 H 887.831 0.615333 -0.267594 0
M  V30 8957 H 890.375 1.52633 -1.36101 0
M  V30 8958 H 888.53 3.84511 -0.47225 0
M  V30 8959 H 888.944 4.57702 -2.56143 0
M  V30 8960 H 890.418 5.41516 -1.07071 0
M  V30 8961 H 890.895 4.38334 0.275609 0
M  V30 8962 H 891.501 4.03008 -1.35885 0
M  V30 8963 N 889.816 0.795718 1.36037 0
M  V30 8964 C 891.093 0.294743 1.93367 0
M  V30 8965 C 891.473 -1.21406 1.72696 0
M  V30 8966 O 890.821 -2.00849 1.08959 0
M  V30 8967 C 891.031 0.694254 3.42025 0
M  V30 8968 C 892.379 0.677566 4.19159 0
M  V30 8969 O 893.403 0.635119 3.50492 0
M  V30 8970 O 892.262 0.726127 5.41655 0
M  V30 8971 H 889.356 0.0745459 0.823633 0
M  V30 8972 H 891.902 0.878685 1.4518 0
M  V30 8973 H 890.674 1.73458 3.50753 0
M  V30 8974 H 890.297 0.0845338 3.9751 0
M  V30 8975 N 891.294 -1.47756 0.548274 0
M  V30 8976 C 892.705 -1.8636 0.112547 0
M  V30 8977 C 893.056 -1.45589 -1.31523 0
M  V30 8978 O 892.181 -0.854874 -1.98799 0
M  V30 8979 C 892.776 -3.38224 0.197473 0
M  V30 8980 C 891.335 -3.75954 -0.183163 0
M  V30 8981 C 890.482 -2.7181 0.549059 0
M  V30 8982 H 893.433 -1.394 0.758506 0
M  V30 8983 H 893.454 -3.75957 -0.586217 0
M  V30 8984 H 892.966 -3.67868 1.23673 0
M  V30 8985 H 891.067 -3.51926 -1.22387 0
M  V30 8986 H 891.18 -4.78801 0.169178 0
M  V30 8987 H 889.544 -2.54699 -0.00682862 0
M  V30 8988 H 890.327 -3.04296 1.5893 0
M  V30 8989 N 892.772 -0.284283 -1.55015 0
M  V30 8990 C 894.188 0.069603 -1.59448 0
M  V30 8991 C 894.388 1.53833 -1.30144 0
M  V30 8992 O 893.444 2.2886 -1.06674 0
M  V30 8993 C 894.757 -0.313287 -2.99064 0
M  V30 8994 C 896.305 -0.260662 -3.11913 0
M  V30 8995 C 896.78 -0.618127 -4.5381 0
M  V30 8996 N 898.271 -0.570026 -4.59679 0
M  V30 8997 C 899.006 -0.8193 -5.67517 0
M  V30 8998 N 898.502 -1.13367 -6.83462 0
M  V30 8999 N 900.295 -0.747482 -5.57108 0
M  V30 9000 H 892.446 -1.24167 -1.72326 0
M  V30 9001 H 894.709 -0.502259 -0.804015 0
M  V30 9002 H 894.415 -1.33509 -3.25374 0
M  V30 9003 H 894.289 0.341369 -3.75652 0
M  V30 9004 H 896.676 0.751869 -2.85361 0
M  V30 9005 H 896.757 -0.949706 -2.37517 0
M  V30 9006 H 896.401 -1.62839 -4.81088 0
M  V30 9007 H 896.331 0.092807 -5.26518 0
M  V30 9008 H 898.822 -0.3373 -3.76392 0
M  V30 9009 H 899.135 -1.3103 -7.61611 0
M  V30 9010 H 897.48 -1.17154 -6.85055 0
M  V30 9011 H 900.671 -0.501658 -4.65404 0
M  V30 9012 H 900.844 -0.945128 -6.4107 0
M  V30 9013 N 894.251 1.57596 -0.0117121 0
M  V30 9014 C 895.199 2.1029 0.994035 0
M  V30 9015 C 896.193 1.02549 1.34833 0
M  V30 9016 O 897.399 1.21003 1.3326 0
M  V30 9017 H 893.774 0.671624 0.338268 0
M  V30 9018 H 895.745 2.93761 0.524147 0
M  V30 9019 C 894.494 2.63099 2.27319 0
M  V30 9020 H 893.817 3.45642 2.00927 0
M  V30 9021 H 895.257 3.03635 2.95942 0
M  V30 9022 C 893.716 1.55044 2.99104 0
M  V30 9023 O 894.246 0.940127 3.90544 0
M  V30 9024 N 892.452 1.27506 2.61133 0
M  V30 9025 H 891.999 1.77322 1.86855 0
M  V30 9026 H 891.957 0.554292 3.09475 0
M  V30 9027 N 895.729 -0.261212 1.5542 0
M  V30 9028 C 896.975 -0.992699 1.76843 0
M  V30 9029 C 897.308 -1.8551 0.574428 0
M  V30 9030 O 896.583 -1.89739 -0.427713 0
M  V30 9031 C 896.866 -1.86532 3.08022 0
M  V30 9032 C 896.719 -1.03206 4.378 0
M  V30 9033 C 898.038 -2.85036 3.35324 0
M  V30 9034 H 895.157 -0.359473 0.643388 0
M  V30 9035 H 897.799 -0.264214 1.88154 0
M  V30 9036 H 895.949 -2.48644 2.9851 0
M  V30 9037 H 897.621 -0.430743 4.59285 0
M  V30 9038 H 895.864 -0.335911 4.32497 0
M  V30 9039 H 896.535 -1.6761 5.25938 0
M  V30 9040 H 899.011 -2.3306 3.44706 0
M  V30 9041 H 897.887 -3.43226 4.28354 0
M  V30 9042 H 898.148 -3.60768 2.55537 0
M  V30 9043 N 897.207 -1.48554 -0.526253 0
M  V30 9044 C 898.455 -1.56452 -1.27935 0
M  V30 9045 C 898.776 -0.24184 -1.93495 0
M  V30 9046 O 898.046 0.736917 -1.81511 0
M  V30 9047 H 896.626 -0.576379 -0.47518 0
M  V30 9048 H 899.288 -1.85039 -0.612083 0
M  V30 9049 H 898.384 -2.34751 -2.05666 0
M  V30 9050 N 898.685 0.775411 -1.37205 0
M  V30 9051 C 899.933 1.53081 -1.3195 0
M  V30 9052 C 900.254 1.9476 0.0966864 0
M  V30 9053 O 899.524 1.66019 1.03993 0
M  V30 9054 H 898.104 0.567762 -0.485444 0
M  V30 9055 H 900.766 0.92309 -1.71654 0
M  V30 9056 H 899.862 2.4319 -1.95614 0
M  V30 9057 N 900.163 1.21714 1.00117 0
M  V30 9058 C 901.44 0.945391 1.71236 0
M  V30 9059 C 901.82 -0.541772 2.0403 0
M  V30 9060 O 901.168 -1.50763 1.71705 0
M  V30 9061 C 901.378 1.83444 2.96899 0
M  V30 9062 C 902.726 2.08558 3.69849 0
M  V30 9063 O 903.75 1.80824 3.06889 0
M  V30 9064 O 902.609 2.55485 4.83104 0
M  V30 9065 H 899.703 0.354834 0.747009 0
M  V30 9066 H 902.249 1.32661 1.05825 0
M  V30 9067 H 901.021 2.84075 2.69105 0
M  V30 9068 H 900.644 1.45428 3.70049 0
M  V30 9069 N 901.641 -1.19671 1.02551 0
M  V30 9070 C 902.571 -2.25009 0.623965 0
M  V30 9071 C 903.552 -1.66129 -0.36538 0
M  V30 9072 O 904.737 -1.92599 -0.248842 0
M  V30 9073 C 901.867 -3.47287 -0.0294869 0
M  V30 9074 C 900.821 -4.18818 0.881781 0
M  V30 9075 C 900.147 -5.34618 0.0936189 0
M  V30 9076 C 901.447 -4.73986 2.19396 0
M  V30 9077 H 903.141 -2.58851 1.50454 0
M  V30 9078 H 900.687 -1.24425 0.724872 0
M  V30 9079 H 902.64 -4.20168 -0.322016 0
M  V30 9080 H 901.364 -3.12635 -0.944838 0
M  V30 9081 H 900.023 -3.47815 1.15845 0
M  V30 9082 H 899.671 -4.9621 -0.823661 0
M  V30 9083 H 899.371 -5.83409 0.700568 0
M  V30 9084 H 900.895 -6.10297 -0.192249 0
M  V30 9085 H 902.309 -5.38639 1.96319 0
M  V30 9086 H 900.706 -5.3325 2.75254 0
M  V30 9087 H 901.776 -3.92238 2.85092 0
M  V30 9088 N 903.119 -0.802921 -1.35613 0
M  V30 9089 C 904.396 -0.304993 -1.93208 0
M  V30 9090 C 904.776 1.20488 -1.73337 0
M  V30 9091 O 904.124 2.00268 -1.10022 0
M  V30 9092 C 904.334 -0.712383 -3.41652 0
M  V30 9093 C 905.682 -0.699785 -4.18794 0
M  V30 9094 O 906.706 -0.653698 -3.5015 0
M  V30 9095 O 905.565 -0.754842 -5.41262 0
M  V30 9096 H 902.659 -0.0789127 -0.823226 0
M  V30 9097 H 905.205 -0.886372 -1.44712 0
M  V30 9098 H 903.977 -1.75316 -3.49829 0
M  V30 9099 H 903.6 -0.105614 -3.9746 0
M  V30 9100 N 904.597 1.47463 -0.556102 0
M  V30 9101 C 906.008 1.86298 -0.122429 0
M  V30 9102 C 906.359 1.46285 1.30749 0
M  V30 9103 O 905.484 0.865405 1.98342 0
M  V30 9104 C 906.079 3.38115 -0.215407 0
M  V30 9105 C 904.638 3.76046 0.163223 0
M  V30 9106 C 903.785 2.71515 -0.563466 0
M  V30 9107 H 906.736 1.38996 -0.765888 0
M  V30 9108 H 906.757 3.76263 0.566271 0
M  V30 9109 H 906.269 3.67207 -1.25622 0
M  V30 9110 H 904.37 3.5257 1.20519 0
M  V30 9111 H 904.483 4.78705 -0.194568 0
M  V30 9112 H 902.847 2.54699 -0.00667879 0
M  V30 9113 H 903.63 3.03449 -1.60542 0
M  V30 9114 N 906.075 0.2925 1.54862 0
M  V30 9115 C 907.3 -0.32494 2.04839 0
M  V30 9116 C 907.725 -1.47381 1.16877 0
M  V30 9117 O 907.083 -1.80492 0.171028 0
M  V30 9118 C 907.131 -0.76694 3.5235 0
M  V30 9119 O 906.235 -1.87256 3.67436 0
M  V30 9120 H 905.576 -0.0645195 0.660858 0
M  V30 9121 H 908.106 0.431867 1.9999 0
M  V30 9122 H 908.116 -1.05804 3.94043 0
M  V30 9123 H 906.791 0.0735212 4.15835 0
M  V30 9124 H 905.368 -1.58266 3.37648 0
M  V30 9125 N 907.553 -1.57587 0.0200696 0
M  V30 9126 C 908.778 -1.96124 -0.674547 0
M  V30 9127 C 909.203 -0.896068 -1.65385 0
M  V30 9128 O 908.561 0.143925 -1.80728 0
M  V30 9129 C 908.609 -3.3376 -1.36517 0
M  V30 9130 O 907.713 -3.29483 -2.48022 0
M  V30 9131 H 907.054 -0.639719 -0.177919 0
M  V30 9132 H 909.584 -2.04447 0.0792317 0
M  V30 9133 H 909.594 -3.69785 -1.72403 0
M  V30 9134 H 908.269 -4.10832 -0.647265 0
M  V30 9135 H 906.846 -3.05162 -2.14314 0
M  V30 9136 N 909.032 0.252966 -1.55557 0
M  V30 9137 C 910.281 0.979736 -1.76307 0
M  V30 9138 C 910.594 1.86714 -0.582871 0
M  V30 9139 O 911.8 2.6302 -0.673247 0
M  V30 9140 C 910.256 1.79205 -3.12112 0
M  V30 9141 C 909.864 0.952333 -4.37761 0
M  V30 9142 C 911.608 2.51191 -3.42203 0
M  V30 9143 C 909.515 1.76018 -5.64599 0
M  V30 9144 H 908.445 0.369538 -0.657235 0
M  V30 9145 H 911.096 0.234619 -1.81994 0
M  V30 9146 H 909.478 2.57888 -3.00515 0
M  V30 9147 H 910.652 0.208251 -4.60329 0
M  V30 9148 H 908.967 0.346082 -4.14959 0
M  V30 9149 H 911.564 3.12074 -4.34182 0
M  V30 9150 H 911.907 3.22499 -2.63249 0
M  V30 9151 H 912.44 1.79523 -3.54988 0
M  V30 9152 H 909.179 1.09095 -6.46358 0
M  V30 9153 H 908.699 2.4797 -5.46142 0
M  V30 9154 H 910.378 2.32884 -6.03634 0
M  V30 9155 N 910.51 1.48831 0.518367 0
M  V30 9156 C 911.921 1.50842 1.10016 0
M  V30 9157 C 912.272 0.284744 1.94123 0
M  V30 9158 O 911.397 -0.607088 2.0771 0
M  V30 9159 C 911.992 2.73329 2.00191 0
M  V30 9160 C 910.551 2.78175 2.53566 0
M  V30 9161 C 909.698 2.4452 1.30786 0
M  V30 9162 H 912.649 1.55779 0.303073 0
M  V30 9163 H 912.67 2.52506 2.84642 0
M  V30 9164 H 912.182 3.62374 1.3895 0
M  V30 9165 H 910.283 1.93368 3.18496 0
M  V30 9166 H 910.396 3.79905 2.91906 0
M  V30 9167 H 908.76 1.95924 1.62744 0
M  V30 9168 H 909.543 3.35819 0.712797 0
M  V30 9169 N 911.988 -0.768124 1.37614 0
M  V30 9170 C 913.265 -1.51637 1.23554 0
M  V30 9171 C 913.645 -2.1042 -0.169331 0
M  V30 9172 O 912.993 -1.95834 -1.17735 0
M  V30 9173 C 913.203 -2.59436 2.33439 0
M  V30 9174 C 914.551 -3.2674 2.71157 0
M  V30 9175 O 915.575 -2.69733 2.32642 0
M  V30 9176 O 914.434 -4.29814 3.37524 0
M  V30 9177 H 911.528 -0.671778 0.482332 0
M  V30 9178 H 914.074 -0.804779 1.49403 0
M  V30 9179 H 912.846 -2.14146 3.27502 0
M  V30 9180 H 912.469 -3.38192 2.09073 0
M  V30 9181 N 913.466 -1.22244 -0.994698 0
M  V30 9182 C 914.413 -0.990906 -2.08446 0
M  V30 9183 C 915.383 0.086737 -1.65873 0
M  V30 9184 O 916.568 -0.0624882 -1.90698 0
M  V30 9185 C 913.708 -0.572813 -3.40313 0
M  V30 9186 C 912.821 -1.72103 -3.96238 0
M  V30 9187 C 911.956 -1.2511 -5.16257 0
M  V30 9188 C 910.995 -2.37098 -5.64315 0
M  V30 9189 N 910.132 -1.91164 -6.75574 0
M  V30 9190 H 914.972 -1.92377 -2.27585 0
M  V30 9191 H 912.509 -0.958576 -1.11578 0
M  V30 9192 H 914.467 -0.311594 -4.16035 0
M  V30 9193 H 913.097 0.323044 -3.21179 0
M  V30 9194 H 912.149 -2.09662 -3.17405 0
M  V30 9195 H 913.461 -2.56347 -4.27888 0
M  V30 9196 H 912.615 -0.947152 -5.99261 0
M  V30 9197 H 911.354 -0.378836 -4.86226 0
M  V30 9198 H 910.359 -2.68283 -4.799 0
M  V30 9199 H 911.584 -3.24837 -5.96371 0
M  V30 9200 H 909.53 -1.06298 -6.47331 0
M  V30 9201 H 909.447 -2.68975 -7.06533 0
M  V30 9202 H 910.715 -1.63833 -7.62088 0
M  V30 9203 N 914.944 1.19125 -1.03184 0
M  V30 9204 C 915.854 2.26112 -0.625329 0
M  V30 9205 C 916.87 1.7056 0.344298 0
M  V30 9206 O 918.046 2.0039 0.20144 0
M  V30 9207 C 915.111 3.46697 0.0145169 0
M  V30 9208 C 914.172 4.17419 -1.00299 0
M  V30 9209 C 913.405 5.32247 -0.393581 0
M  V30 9210 O 913.628 5.64724 0.802659 0
M  V30 9211 O 912.562 5.91428 -1.1179 0
M  V30 9212 H 916.388 2.63131 -1.51643 0
M  V30 9213 H 913.973 1.26036 -0.802197 0
M  V30 9214 H 915.855 4.19762 0.371139 0
M  V30 9215 H 914.53 3.11521 0.879581 0
M  V30 9216 H 913.437 3.4646 -1.41125 0
M  V30 9217 H 914.77 4.56573 -1.83852 0
M  V30 9218 N 916.422 0.810101 1.35185 0
M  V30 9219 C 917.354 0.180581 2.28488 0
M  V30 9220 C 918.367 -0.622154 1.50443 0
M  V30 9221 O 919.556 -0.453938 1.72632 0
M  V30 9222 C 916.656 -0.766447 3.30119 0
M  V30 9223 C 915.829 -0.00932028 4.37399 0
M  V30 9224 C 914.888 -0.875354 5.18868 0
M  V30 9225 O 913.914 -0.325012 5.68271 0
M  V30 9226 N 915.116 -2.19695 5.37321 0
M  V30 9227 H 917.881 0.98212 2.83151 0
M  V30 9228 H 915.442 0.665879 1.47573 0
M  V30 9229 H 917.434 -1.35012 3.81515 0
M  V30 9230 H 916.004 -1.46878 2.75945 0
M  V30 9231 H 915.224 0.755585 3.86891 0
M  V30 9232 H 916.512 0.512352 5.06214 0
M  V30 9233 H 915.91 -2.66797 4.98834 0
M  V30 9234 H 914.467 -2.72978 5.91884 0
M  V30 9235 N 917.9 -1.47166 0.563914 0
M  V30 9236 C 918.863 -2.28571 -0.169624 0
M  V30 9237 C 919.863 -1.37331 -0.836467 0
M  V30 9238 O 921.053 -1.59896 -0.6913 0
M  V30 9239 C 918.185 -3.17201 -1.24886 0
M  V30 9240 H 919.378 -2.94896 0.545539 0
M  V30 9241 H 916.931 -1.52966 0.321121 0
M  V30 9242 H 917.666 -2.55582 -1.99621 0
M  V30 9243 H 917.451 -3.84356 -0.775426 0
M  V30 9244 H 918.941 -3.7852 -1.76388 0
M  V30 9245 N 919.378 -0.300708 -1.54705 0
M  V30 9246 C 920.627 0.309428 -1.99312 0
M  V30 9247 C 920.94 1.55027 -1.19272 0
M  V30 9248 O 922.146 2.23498 -1.54146 0
M  V30 9249 C 920.602 0.601856 -3.54832 0
M  V30 9250 C 920.21 -0.620636 -4.4368 0
M  V30 9251 C 921.954 1.1732 -4.07966 0
M  V30 9252 C 919.861 -0.301376 -5.90632 0
M  V30 9253 H 918.791 0.119395 -0.744487 0
M  V30 9254 H 921.442 -0.409368 -1.78875 0
M  V30 9255 H 919.824 1.38024 -3.71168 0
M  V30 9256 H 920.998 -1.39685 -4.39118 0
M  V30 9257 H 919.313 -1.1106 -4.01316 0
M  V30 9258 H 921.91 1.42631 -5.15326 0
M  V30 9259 H 922.253 2.11537 -3.5855 0
M  V30 9260 H 922.786 0.456534 -3.95172 0
M  V30 9261 H 919.525 -1.21209 -6.44196 0
M  V30 9262 H 919.045 0.437574 -5.98202 0
M  V30 9263 H 920.724 0.097164 -6.46927 0
M  V30 9264 N 920.856 1.57574 -0.0284266 0
M  V30 9265 C 922.081 1.96479 0.664137 0
M  V30 9266 C 922.506 0.904826 1.64908 0
M  V30 9267 O 921.864 -0.134339 1.80802 0
M  V30 9268 C 921.912 3.34479 1.34745 0
M  V30 9269 O 921.016 3.30794 2.46271 0
M  V30 9270 H 920.357 0.640654 0.174524 0
M  V30 9271 H 922.887 2.04402 -0.0900729 0
M  V30 9272 H 922.897 3.70694 1.7044 0
M  V30 9273 H 921.572 4.1117 0.625468 0
M  V30 9274 H 920.149 3.06294 2.12693 0
M  V30 9275 N 922.334 -0.244713 1.55689 0
M  V30 9276 C 923.297 -1.2864 1.89695 0
M  V30 9277 C 924.297 -1.40969 0.773583 0
M  V30 9278 O 925.487 -1.39632 1.04156 0
M  V30 9279 C 922.619 -2.66379 2.12732 0
M  V30 9280 H 923.812 -0.997033 2.82841 0
M  V30 9281 H 921.365 -0.484103 1.48614 0
M  V30 9282 H 922.1 -3.00452 1.22062 0
M  V30 9283 H 921.885 -2.58812 2.94549 0
M  V30 9284 H 923.375 -3.41592 2.40218 0
M  V30 9285 N 923.813 -1.49104 -0.510467 0
M  V30 9286 C 924.743 -1.67981 -1.62187 0
M  V30 9287 C 925.724 -0.528529 -1.6168 0
M  V30 9288 O 926.909 -0.763305 -1.7857 0
M  V30 9289 C 924.039 -1.73755 -3.0071 0
M  V30 9290 C 922.993 -2.88579 -3.1608 0
M  V30 9291 C 922.319 -2.79457 -4.5586 0
M  V30 9292 C 923.619 -4.29638 -2.97 0
M  V30 9293 H 925.313 -2.61029 -1.46643 0
M  V30 9294 H 922.859 -1.25615 -0.704042 0
M  V30 9295 H 924.812 -1.85548 -3.78352 0
M  V30 9296 H 923.536 -0.772996 -3.17321 0
M  V30 9297 H 922.195 -2.76372 -2.40861 0
M  V30 9298 H 921.843 -1.80929 -4.69333 0
M  V30 9299 H 921.543 -3.56518 -4.67086 0
M  V30 9300 H 923.067 -2.93245 -5.35574 0
M  V30 9301 H 924.481 -4.42575 -3.64418 0
M  V30 9302 H 922.878 -5.07847 -3.19704 0
M  V30 9303 H 923.948 -4.44741 -1.93219 0
M  V30 9304 N 925.291 0.760815 -1.38019 0
M  V30 9305 C 926.702 1.33773 -1.30237 0
M  V30 9306 C 927.053 1.96148 0.0451153 0
M  V30 9307 O 926.178 1.94574 0.9471 0
M  V30 9308 C 926.773 2.43227 -2.35851 0
M  V30 9309 C 925.332 2.96659 -2.31669 0
M  V30 9310 C 924.479 1.69972 -2.191 0
M  V30 9311 H 927.43 0.560237 -1.48482 0
M  V30 9312 H 927.451 3.22985 -2.01149 0
M  V30 9313 H 926.963 1.978 -3.33911 0
M  V30 9314 H 925.064 3.46433 -1.37167 0
M  V30 9315 H 925.177 3.51529 -3.25521 0
M  V30 9316 H 923.541 1.9332 -1.65829 0
M  V30 9317 H 924.324 1.26633 -3.19091 0
M  V30 9318 N 926.769 1.22769 0.988202 0
M  V30 9319 C 928.046 0.9635 1.70223 0
M  V30 9320 C 928.426 -0.520102 2.04593 0
M  V30 9321 O 927.774 -1.48934 1.73295 0
M  V30 9322 C 927.984 1.86583 2.94937 0
M  V30 9323 C 929.332 2.12469 3.67616 0
M  V30 9324 O 930.356 1.84069 3.04954 0
M  V30 9325 O 929.215 2.60595 4.80367 0
M  V30 9326 H 926.309 0.362737 0.743203 0
M  V30 9327 H 928.855 1.33776 1.04412 0
M  V30 9328 H 927.627 2.86913 2.66077 0
M  V30 9329 H 927.25 1.49344 3.68486 0
M  V30 9330 N 928.247 -1.18576 1.03814 0
M  V30 9331 C 929.477 -1.92158 0.758864 0
M  V30 9332 C 929.885 -1.76267 -0.687498 0
M  V30 9333 O 929.228 -1.08806 -1.4801 0
M  V30 9334 C 929.29 -3.44063 1.04217 0
M  V30 9335 C 928.954 -3.8373 2.48193 0
M  V30 9336 C 929.951 -3.87722 3.46363 0
M  V30 9337 C 927.636 -4.151 2.82838 0
M  V30 9338 C 929.63 -4.2253 4.77229 0
M  V30 9339 C 927.317 -4.49578 4.13911 0
M  V30 9340 C 928.315 -4.53269 5.10917 0
M  V30 9341 O 928.003 -4.86945 6.39641 0
M  V30 9342 H 927.735 -0.61694 0.276335 0
M  V30 9343 H 930.289 -1.51388 1.38819 0
M  V30 9344 H 928.519 -3.85061 0.355709 0
M  V30 9345 H 930.208 -3.9889 0.751091 0
M  V30 9346 H 930.974 -3.63627 3.20936 0
M  V30 9347 H 926.853 -4.11406 2.08006 0
M  V30 9348 H 930.397 -4.25326 5.52941 0
M  V30 9349 H 926.294 -4.73133 4.39107 0
M  V30 9350 H 927.062 -5.04857 6.44253 0
M  V30 9351 N 929.725 -0.817259 -1.34754 0
M  V30 9352 C 930.688 -0.240611 -2.27934 0
M  V30 9353 C 931.688 0.578219 -1.50044 0
M  V30 9354 O 932.878 0.395148 -1.69659 0
M  V30 9355 C 930.01 0.663318 -3.34384 0
M  V30 9356 H 931.203 -1.06257 -2.80445 0
M  V30 9357 H 928.756 -0.588697 -1.4479 0
M  V30 9358 H 929.491 1.50855 -2.87077 0
M  V30 9359 H 929.276 0.0777388 -3.92023 0
M  V30 9360 H 930.766 1.06076 -4.03903 0
M  V30 9361 N 931.203 1.46865 -0.571711 0
M  V30 9362 C 932.428 2.07323 -0.0564655 0
M  V30 9363 C 932.853 1.41938 1.23431 0
M  V30 9364 O 932.211 0.499334 1.74288 0
M  V30 9365 C 932.259 3.6044 0.107339 0
M  V30 9366 O 931.363 3.95558 1.1665 0
M  V30 9367 H 930.704 0.661475 -0.0578465 0
M  V30 9368 H 933.234 1.88669 -0.791524 0
M  V30 9369 H 933.244 4.06767 0.316987 0
M  V30 9370 H 931.919 4.07425 -0.835348 0
M  V30 9371 H 930.496 3.60957 0.936189 0
M  V30 9372 N 932.681 0.308908 1.54543 0
M  V30 9373 C 933.613 -0.597453 2.21276 0
M  V30 9374 C 934.626 -1.09137 1.20801 0
M  V30 9375 O 935.815 -1.00747 1.47351 0
M  V30 9376 C 932.915 -1.83085 2.85189 0
M  V30 9377 C 932.088 -1.4781 4.11669 0
M  V30 9378 C 931.147 -2.56748 4.59311 0
M  V30 9379 O 930.173 -2.21507 5.24331 0
M  V30 9380 N 931.375 -3.87427 4.32297 0
M  V30 9381 H 934.14 -0.0261183 2.99689 0
M  V30 9382 H 931.701 0.131456 1.61365 0
M  V30 9383 H 933.693 -2.55326 3.13992 0
M  V30 9384 H 932.263 -2.31039 2.1057 0
M  V30 9385 H 931.483 -0.587974 3.8979 0
M  V30 9386 H 932.771 -1.2179 4.94009 0
M  V30 9387 H 932.169 -4.18863 3.80224 0
M  V30 9388 H 930.726 -4.55942 4.6579 0
M  V30 9389 N 934.159 -1.57557 0.0367827 0
M  V30 9390 C 935.57 -1.79853 -0.500971 0
M  V30 9391 C 935.921 -0.947749 -1.71791 0
M  V30 9392 O 935.046 -0.160287 -2.15806 0
M  V30 9393 C 935.641 -3.26193 -0.915626 0
M  V30 9394 C 934.2 -3.49457 -1.39845 0
M  V30 9395 C 933.347 -2.74864 -0.366784 0
M  V30 9396 H 936.298 -1.56509 0.262768 0
M  V30 9397 H 936.319 -3.36324 -1.7795 0
M  V30 9398 H 935.831 -3.88089 -0.0297227 0
M  V30 9399 H 933.932 -2.92823 -2.30402 0
M  V30 9400 H 934.045 -4.58172 -1.40054 0
M  V30 9401 H 932.409 -2.4057 -0.836554 0
M  V30 9402 H 933.192 -3.39479 0.510785 0
M  V30 9403 N 935.637 0.236453 -1.55816 0
M  V30 9404 C 936.885 0.96111 -1.77784 0
M  V30 9405 C 937.206 1.85454 -0.602648 0
M  V30 9406 O 936.476 1.92157 0.381137 0
M  V30 9407 H 935.056 0.35787 -0.655697 0
M  V30 9408 H 937.718 0.251888 -1.93265 0
M  V30 9409 H 936.814 1.5767 -2.69345 0
M  V30 9410 N 937.115 1.49373 0.502552 0
M  V30 9411 C 938.062 1.65927 1.60427 0
M  V30 9412 C 939.032 0.500768 1.58371 0
M  V30 9413 O 940.217 0.727606 1.76382 0
M  V30 9414 C 937.357 1.73043 2.9858 0
M  V30 9415 C 936.47 3.00187 3.10663 0
M  V30 9416 C 935.605 2.98292 4.3954 0
M  V30 9417 C 934.644 4.20022 4.4525 0
M  V30 9418 N 933.781 4.16046 5.65553 0
M  V30 9419 H 938.621 2.59998 1.45619 0
M  V30 9420 H 936.158 1.28912 0.708519 0
M  V30 9421 H 938.116 1.7515 3.78653 0
M  V30 9422 H 936.746 0.824397 3.12095 0
M  V30 9423 H 935.798 3.07699 2.23663 0
M  V30 9424 H 937.11 3.9018 3.10742 0
M  V30 9425 H 936.264 2.98953 5.27932 0
M  V30 9426 H 935.003 2.06075 4.42023 0
M  V30 9427 H 934.008 4.19607 3.5526 0
M  V30 9428 H 935.233 5.13431 4.44484 0
M  V30 9429 H 933.179 3.26665 5.68881 0
M  V30 9430 H 933.096 4.99773 5.67242 0
M  V30 9431 H 934.364 4.20807 6.56156 0
M  V30 9432 N 938.594 -0.753485 1.38421 0
M  V30 9433 C 940.005 -1.33081 1.30944 0
M  V30 9434 C 940.356 -1.96169 -0.0347124 0
M  V30 9435 O 939.481 -1.95073 -0.936768 0
M  V30 9436 C 940.076 -2.41973 2.37138 0
M  V30 9437 C 938.635 -2.95426 2.33239 0
M  V30 9438 C 937.782 -1.68808 2.19998 0
M  V30 9439 H 940.733 -0.552354 1.48777 0
M  V30 9440 H 940.754 -3.21913 2.02859 0
M  V30 9441 H 940.266 -1.96027 3.34956 0
M  V30 9442 H 938.367 -3.45701 1.39003 0
M  V30 9443 H 938.48 -3.49798 3.27381 0
M  V30 9444 H 936.844 -1.92438 1.66852 0
M  V30 9445 H 937.627 -1.24939 3.19758 0
M  V30 9446 N 940.072 -1.23292 -0.981677 0
M  V30 9447 C 941.483 -1.05936 -1.53735 0
M  V30 9448 C 941.834 0.373695 -1.92608 0
M  V30 9449 O 940.959 1.26024 -1.75917 0
M  V30 9450 C 941.554 -1.91682 -2.79363 0
M  V30 9451 C 940.113 -1.78591 -3.31334 0
M  V30 9452 C 939.26 -1.87463 -2.04335 0
M  V30 9453 H 942.211 -1.36973 -0.801505 0
M  V30 9454 H 942.232 -1.44085 -3.52164 0
M  V30 9455 H 941.744 -2.95975 -2.51039 0
M  V30 9456 H 939.845 -0.770755 -3.64541 0
M  V30 9457 H 939.958 -2.61902 -4.01179 0
M  V30 9458 H 938.322 -1.3103 -2.18411 0
M  V30 9459 H 939.105 -2.9331 -1.78394 0
M  V30 9460 N 941.55 1.18024 -1.04442 0
M  V30 9461 C 942.5 2.19714 -0.609069 0
M  V30 9462 C 943.484 1.57037 0.350473 0
M  V30 9463 O 944.676 1.76192 0.16892 0
M  V30 9464 C 941.805 3.43293 0.0225911 0
M  V30 9465 C 940.891 4.13084 -0.960325 0
M  V30 9466 N 941.282 4.58819 -2.12883 0
M  V30 9467 C 939.58 4.38999 -0.787146 0
M  V30 9468 C 940.281 5.12589 -2.75004 0
M  V30 9469 N 939.257 5.04333 -2.02853 0
M  V30 9470 H 943.059 2.5277 -1.49948 0
M  V30 9471 H 940.573 1.34271 -0.913517 0
M  V30 9472 H 942.57 4.1541 0.352196 0
M  V30 9473 H 941.23 3.11731 0.908495 0
M  V30 9474 H 942.241 4.53148 -2.50754 0
M  V30 9475 H 938.918 4.17472 0.048348 0
M  V30 9476 H 940.308 5.58152 -3.74053 0
M  V30 9477 N 943.028 0.824394 1.34319 0
M  V30 9478 C 943.978 0.219624 2.2694 0
M  V30 9479 C 944.962 -0.616964 1.48601 0
M  V30 9480 O 946.154 -0.471303 1.7061 0
M  V30 9481 C 943.283 -0.616379 3.37721 0
M  V30 9482 C 942.369 0.230917 4.23471 0
M  V30 9483 N 942.76 1.30264 4.88738 0
M  V30 9484 C 941.058 0.0155016 4.45997 0
M  V30 9485 C 941.759 1.82141 5.52449 0
M  V30 9486 N 940.735 1.12508 5.3183 0
M  V30 9487 H 944.537 1.03939 2.74907 0
M  V30 9488 H 942.051 0.667353 1.48055 0
M  V30 9489 H 944.048 -1.06582 4.03046 0
M  V30 9490 H 942.708 -1.43429 2.91304 0
M  V30 9491 H 943.719 1.68545 4.89707 0
M  V30 9492 H 940.396 -0.770128 4.10336 0
M  V30 9493 H 941.786 2.7181 6.14466 0
M  V30 9494 N 944.506 -1.46559 0.579492 0
M  V30 9495 C 945.456 -2.27316 -0.17645 0
M  V30 9496 C 946.44 -1.35681 -0.864835 0
M  V30 9497 O 947.632 -1.59879 -0.759462 0
M  V30 9498 C 944.761 -3.21957 -1.19157 0
M  V30 9499 C 943.847 -4.21077 -0.505459 0
M  V30 9500 N 944.238 -5.03908 0.437133 0
M  V30 9501 C 942.536 -4.39535 -0.75661 0
M  V30 9502 C 943.237 -5.75635 0.837819 0
M  V30 9503 N 942.213 -5.43276 0.187679 0
M  V30 9504 H 946.015 -2.88747 0.547932 0
M  V30 9505 H 943.529 -1.5737 0.401048 0
M  V30 9506 H 945.526 -3.78518 -1.74728 0
M  V30 9507 H 944.186 -2.62085 -1.9168 0
M  V30 9508 H 945.197 -5.11487 0.812488 0
M  V30 9509 H 941.874 -3.90815 -1.46867 0
M  V30 9510 H 943.264 -6.52235 1.61364 0
M  V30 9511 N 945.984 -0.3171 -1.54377 0
M  V30 9512 C 946.934 0.567199 -2.20832 0
M  V30 9513 C 947.918 1.08661 -1.18666 0
M  V30 9514 O 949.11 1.0247 -1.44322 0
M  V30 9515 C 946.239 1.73079 -2.96477 0
M  V30 9516 C 945.325 1.22658 -4.05975 0
M  V30 9517 N 945.716 0.441565 -5.03869 0
M  V30 9518 C 944.014 1.50589 -4.19808 0
M  V30 9519 C 944.715 0.171063 -5.81448 0
M  V30 9520 N 943.691 0.755389 -5.38326 0
M  V30 9521 H 947.493 -0.0399349 -2.93873 0
M  V30 9522 H 945.007 -0.122639 -1.61936 0
M  V30 9523 H 947.004 2.37601 -3.42566 0
M  V30 9524 H 945.664 2.34146 -2.24957 0
M  V30 9525 H 946.675 0.0849921 -5.1783 0
M  V30 9526 H 943.352 2.12288 -3.595 0
M  V30 9527 H 944.742 -0.460484 -6.7032 0
M  V30 9528 N 947.462 1.57535 -0.0451378 0
M  V30 9529 C 948.412 2.07683 0.940829 0
M  V30 9530 C 949.396 0.9807 1.27558 0
M  V30 9531 O 950.588 1.2441 1.25901 0
M  V30 9532 C 947.717 2.62049 2.21778 0
M  V30 9533 C 946.803 3.78621 1.91068 0
M  V30 9534 N 947.194 4.88623 1.30694 0
M  V30 9535 C 945.492 3.87411 2.20972 0
M  V30 9536 C 946.193 5.69714 1.17478 0
M  V30 9537 N 945.169 5.17129 1.67566 0
M  V30 9538 H 948.971 2.90129 0.469267 0
M  V30 9539 H 946.485 1.61615 0.159472 0
M  V30 9540 H 948.482 2.96276 2.93302 0
M  V30 9541 H 947.142 1.81039 2.69546 0
M  V30 9542 H 948.153 5.08545 0.979907 0
M  V30 9543 H 944.83 3.17335 2.71302 0
M  V30 9544 H 946.22 6.68174 0.706574 0
M  V30 9545 N 948.94 -0.228186 1.55939 0
M  V30 9546 C 949.89 -1.28607 1.88267 0
M  V30 9547 C 950.874 -1.42606 0.745139 0
M  V30 9548 O 952.066 -1.45533 1.00743 0
M  V30 9549 C 949.195 -2.63783 2.19712 0
M  V30 9550 C 948.281 -2.53712 3.3984 0
M  V30 9551 N 948.672 -2.13287 4.58631 0
M  V30 9552 C 946.97 -2.84686 3.43322 0
M  V30 9553 C 947.671 -2.14305 5.40785 0
M  V30 9554 N 946.647 -2.54536 4.80325 0
M  V30 9555 H 950.449 -0.964307 2.7763 0
M  V30 9556 H 947.963 -0.436769 1.56416 0
M  V30 9557 H 949.96 -3.40152 2.41044 0
M  V30 9558 H 948.62 -2.9681 1.31657 0
M  V30 9559 H 949.631 -1.84525 4.83912 0
M  V30 9560 H 946.308 -3.22129 2.65592 0
M  V30 9561 H 947.698 -1.85231 6.45863 0
M  V30 9562 N 950.418 -1.49637 -0.494624 0
M  V30 9563 C 951.365 -1.66776 -1.59545 0
M  V30 9564 C 952.335 -0.509159 -1.58104 0
M  V30 9565 O 953.52 -0.736949 -1.75993 0
M  V30 9566 C 950.66 -1.74624 -2.97658 0
M  V30 9567 C 949.773 -3.01831 -3.09067 0
M  V30 9568 C 948.908 -3.00619 -4.37952 0
M  V30 9569 C 947.947 -4.22378 -4.43016 0
M  V30 9570 N 947.084 -4.1904 -5.63339 0
M  V30 9571 H 951.924 -2.60767 -1.44238 0
M  V30 9572 H 949.461 -1.29286 -0.701673 0
M  V30 9573 H 951.419 -1.77156 -3.77719 0
M  V30 9574 H 950.049 -0.840936 -3.11654 0
M  V30 9575 H 949.101 -3.08881 -2.22029 0
M  V30 9576 H 950.413 -3.91823 -3.08669 0
M  V30 9577 H 949.567 -3.01749 -5.26339 0
M  V30 9578 H 948.306 -2.08416 -4.40924 0
M  V30 9579 H 947.311 -4.21485 -3.5303 0
M  V30 9580 H 948.536 -5.15781 -4.41755 0
M  V30 9581 H 946.482 -3.29677 -5.67141 0
M  V30 9582 H 946.399 -5.02774 -5.64583 0
M  V30 9583 H 947.667 -4.24281 -6.53916 0
M  V30 9584 N 951.896 0.746133 -1.38819 0
M  V30 9585 C 953.173 1.49652 -1.25951 0
M  V30 9586 C 953.553 2.10663 0.135833 0
M  V30 9587 O 952.901 1.97682 1.14604 0
M  V30 9588 C 953.111 2.5569 -2.37537 0
M  V30 9589 C 954.459 3.22385 -2.76321 0
M  V30 9590 O 955.483 2.65998 -2.36904 0
M  V30 9591 O 954.342 4.2439 -3.44319 0
M  V30 9592 H 951.436 0.664019 -0.492958 0
M  V30 9593 H 953.982 0.780908 -1.50665 0
M  V30 9594 H 952.754 2.08908 -3.30867 0
M  V30 9595 H 952.377 3.34823 -2.14427 0
M  V30 9596 N 953.375 1.23811 0.975125 0
M  V30 9597 C 954.285 1.0408 2.10249 0
M  V30 9598 C 955.301 -0.0162404 1.73992 0
M  V30 9599 O 956.477 0.180346 2.00591 0
M  V30 9600 C 953.542 0.640013 3.40741 0
M  V30 9601 C 952.603 1.7727 3.90991 0
M  V30 9602 C 951.836 1.39094 5.15256 0
M  V30 9603 O 952.059 0.277483 5.69725 0
M  V30 9604 O 950.993 2.21392 5.59704 0
M  V30 9605 H 954.819 1.98575 2.29786 0
M  V30 9606 H 952.404 1.02563 1.08633 0
M  V30 9607 H 954.286 0.427684 4.19224 0
M  V30 9608 H 952.961 -0.27589 3.22522 0
M  V30 9609 H 951.868 2.03971 3.13602 0
M  V30 9610 H 953.201 2.66711 4.13674 0
M  V30 9611 N 954.853 -1.17469 1.05066 0
M  V30 9612 C 955.783 -2.23635 0.671552 0
M  V30 9613 C 956.764 -1.66867 -0.33006 0
M  V30 9614 O 957.949 -1.93084 -0.207933 0
M  V30 9615 C 955.079 -3.47272 0.0441845 0
M  V30 9616 C 954.033 -4.16854 0.97042 0
M  V30 9617 C 953.359 -5.34299 0.206998 0
M  V30 9618 C 954.659 -4.69225 2.29401 0
M  V30 9619 H 956.353 -2.55602 1.55911 0
M  V30 9620 H 953.899 -1.2286 0.751101 0
M  V30 9621 H 955.852 -4.20756 -0.23282 0
M  V30 9622 H 954.576 -3.14568 -0.878311 0
M  V30 9623 H 953.235 -3.4528 1.23197 0
M  V30 9624 H 952.883 -4.97846 -0.718222 0
M  V30 9625 H 952.583 -5.81792 0.82416 0
M  V30 9626 H 954.107 -6.10568 -0.0627525 0
M  V30 9627 H 955.521 -5.34353 2.077 0
M  V30 9628 H 953.918 -5.27291 2.86503 0
M  V30 9629 H 954.988 -3.86102 2.93348 0
M  V30 9630 O 956.37 -0.966437 -1.29392 0
M  V30 9631 H 957.061 -0.604752 -1.84018 0
M  V30 END ATOM
M  V30 BEGIN BOND
M  V30 END BOND
M  V30 END CTAB
M  END
$$$$
