drugbank_target|P16422 Epithelial cell adhesion molecule (DB05319; DB05831; DB06607; DB09336; DB11075)
 OpenBabel12092120213D

  0  0  0     0  0            999 V3000
M  V30 BEGIN CTAB
M  V30 COUNTS 4917 4950 0 0 0
M  V30 BEGIN ATOM
M  V30 1 H -0.908 1.98254 -0.117106 0
M  V30 2 N 0 1.576 0 0
M  V30 3 C 0.933 2.03868 1.02534 0
M  V30 4 C 1.911 0.928543 1.3348 0
M  V30 5 O 3.095 1.19667 1.45644 0
M  V30 6 C 0.222 2.43627 2.35294 0
M  V30 7 C -0.732 3.65373 2.2001 0
M  V30 8 S 0.101 5.13292 1.52614 0
M  V30 9 C 1.257 5.56322 2.86805 0
M  V30 10 H 1.49 2.90518 0.631377 0
M  V30 11 H -0.977 1.52953 0.210867 0
M  V30 12 H 0.981 2.67203 3.11629 0
M  V30 13 H -0.358 1.57376 2.7183 0
M  V30 14 H -1.165 3.90944 3.18086 0
M  V30 15 H -1.563 3.418 1.51819 0
M  V30 16 H 0.729 5.58782 3.83104 0
M  V30 17 H 1.672 6.56266 2.65933 0
M  V30 18 H 2.08 4.83886 2.90714 0
M  V30 19 N 1.4781 -0.272755 1.55222 0
M  V30 20 C 2.4411 -1.32041 1.87344 0
M  V30 21 C 3.4411 -1.42342 0.74803 0
M  V30 22 O 4.6311 -1.41488 1.0162 0
M  V30 23 C 1.7631 -2.70173 2.07893 0
M  V30 24 H 2.9561 -1.04789 2.80997 0
M  V30 25 H 0.5091 -0.51083 1.47717 0
M  V30 26 H 1.2441 -3.02605 1.16622 0
M  V30 27 H 1.0291 -2.64082 2.89833 0
M  V30 28 H 2.5191 -3.45869 2.34017 0
M  V30 29 N 2.9562 -1.48159 -0.537278 0
M  V30 30 C 4.3672 -1.49429 -1.11928 0
M  V30 31 C 4.7182 -0.26 -1.9447 0
M  V30 32 O 3.8432 0.633489 -2.0692 0
M  V30 33 C 4.4382 -2.70758 -2.03656 0
M  V30 34 C 2.9972 -2.74923 -2.57088 0
M  V30 35 C 2.1442 -2.42835 -1.3389 0
M  V30 36 H 5.0952 -1.55381 -0.322886 0
M  V30 37 H 5.1162 -2.48861 -2.87834 0
M  V30 38 H 4.6282 -3.60575 -1.43553 0
M  V30 39 H 2.7292 -1.89296 -3.20933 0
M  V30 40 H 2.8422 -3.76157 -2.9672 0
M  V30 41 H 1.2062 -1.93836 -1.65226 0
M  V30 42 H 1.9892 -3.34884 -0.755504 0
M  V30 43 N 4.4343 0.785586 -1.36625 0
M  V30 44 C 5.8453 1.36101 -1.27803 0
M  V30 45 C 6.1963 1.96035 0.0804875 0
M  V30 46 O 5.3213 1.92834 0.982042 0
M  V30 47 C 5.9163 2.47442 -2.31426 0
M  V30 48 C 4.4753 3.00789 -2.26281 0
M  V30 49 C 3.6223 1.73896 -2.15999 0
M  V30 50 H 6.5733 0.586928 -1.47448 0
M  V30 51 H 6.5943 3.2656 -1.95291 0
M  V30 52 H 6.1063 2.03791 -3.30289 0
M  V30 53 H 4.2073 3.48851 -1.30896 0
M  V30 54 H 4.3203 3.57343 -3.19128 0
M  V30 55 H 2.6843 1.9628 -1.62316 0
M  V30 56 H 3.4673 1.32368 -3.16755 0
M  V30 57 N 5.9124 1.20967 1.01018 0
M  V30 58 C 6.8444 0.922059 2.09835 0
M  V30 59 C 7.8574 -0.0927106 1.62536 0
M  V30 60 O 9.0464 0.139127 1.77957 0
M  V30 61 C 6.1464 0.362004 3.36961 0
M  V30 62 C 5.3194 1.42986 4.13369 0
M  V30 63 C 4.3784 0.879976 5.1879 0
M  V30 64 O 3.4044 1.56219 5.47343 0
M  V30 65 N 4.6064 -0.307396 5.79686 0
M  V30 66 H 7.3714 1.8588 2.35093 0
M  V30 67 H 4.9324 1.11422 1.1746 0
M  V30 68 H 6.9244 -0.0201474 4.04695 0
M  V30 69 H 5.4944 -0.479437 3.08902 0
M  V30 70 H 4.7144 1.98608 3.40512 0
M  V30 71 H 6.0024 2.14885 4.61196 0
M  V30 72 H 5.4004 -0.878796 5.58832 0
M  V30 73 H 3.9574 -0.631115 6.48737 0
M  V30 74 N 7.3905 -1.2043 1.01659 0
M  V30 75 C 8.6365 -1.90079 0.706963 0
M  V30 76 C 8.9695 -1.78648 -0.761474 0
M  V30 77 O 8.2445 -1.17069 -1.55323 0
M  V30 78 C 8.5275 -3.41469 1.14327 0
M  V30 79 C 8.3805 -3.61833 2.67201 0
M  V30 80 C 9.6995 -4.34261 0.714529 0
M  V30 81 H 6.8185 -0.690254 0.2583 0
M  V30 82 H 9.4605 -1.41826 1.26433 0
M  V30 83 H 7.6105 -3.82696 0.669056 0
M  V30 84 H 9.2825 -3.2986 3.22475 0
M  V30 85 H 7.5255 -3.05304 3.08175 0
M  V30 86 H 8.1965 -4.67955 2.92783 0
M  V30 87 H 10.6725 -4.00682 1.12221 0
M  V30 88 H 9.5485 -5.38806 1.04784 0
M  V30 89 H 9.8095 -4.40431 -0.383799 0
M  V30 90 N 8.8686 -0.792821 -1.36206 0
M  V30 91 C 9.7986 -0.207853 -2.32573 0
M  V30 92 C 10.7796 0.659055 -1.56813 0
M  V30 93 O 11.9646 0.592176 -1.84951 0
M  V30 94 C 9.0946 0.655449 -3.41059 0
M  V30 95 C 8.0486 -0.111842 -4.27854 0
M  V30 96 C 7.3746 0.872274 -5.27537 0
M  V30 97 C 8.6746 -1.30299 -5.05786 0
M  V30 98 H 10.3686 -1.01294 -2.81744 0
M  V30 99 H 7.9146 -0.48854 -1.3546 0
M  V30 100 H 9.8676 1.07464 -4.07467 0
M  V30 101 H 8.5916 1.49328 -2.90463 0
M  V30 102 H 7.2506 -0.512053 -3.63006 0
M  V30 103 H 6.8986 1.70523 -4.73214 0
M  V30 104 H 6.5986 0.363291 -5.86476 0
M  V30 105 H 8.1226 1.28996 -5.96818 0
M  V30 106 H 9.5366 -0.959379 -5.65216 0
M  V30 107 H 7.9336 -1.7455 -5.74154 0
M  V30 108 H 9.0036 -2.09663 -4.37229 0
M  V30 109 N 10.3467 1.47872 -0.545128 0
M  V30 110 C 11.3097 2.28337 0.198717 0
M  V30 111 C 12.3097 1.36255 0.853888 0
M  V30 112 O 13.4997 1.59003 0.711606 0
M  V30 113 C 10.6317 3.15585 1.28915 0
M  V30 114 H 11.8247 2.95567 -0.507941 0
M  V30 115 H 9.3777 1.53362 -0.301616 0
M  V30 116 H 10.1127 2.53019 2.02859 0
M  V30 117 H 9.8977 3.83337 0.824309 0
M  V30 118 H 11.3877 3.76243 1.81194 0
M  V30 119 N 11.8248 0.280983 1.55075 0
M  V30 120 C 13.0718 -0.334115 1.99725 0
M  V30 121 C 13.3998 -1.5542 1.1694 0
M  V30 122 O 12.6548 -1.94361 0.228531 0
M  V30 123 C 12.9538 -0.754656 3.49342 0
M  V30 124 C 12.6198 0.361445 4.49449 0
M  V30 125 C 11.2818 0.667893 4.76542 0
M  V30 126 C 13.6338 1.11322 5.09173 0
M  V30 127 C 10.9618 1.7296 5.60626 0
M  V30 128 C 13.3138 2.1647 5.9441 0
M  V30 129 C 11.9778 2.47742 6.19822 0
M  V30 130 H 11.2478 -0.122261 0.730844 0
M  V30 131 H 13.8948 0.395917 1.87363 0
M  V30 132 H 12.1998 -1.56446 3.5921 0
M  V30 133 H 13.8968 -1.24142 3.813 0
M  V30 134 H 10.4868 0.112481 4.28452 0
M  V30 135 H 14.6708 0.88973 4.8826 0
M  V30 136 H 9.9268 1.97684 5.78559 0
M  V30 137 H 14.1008 2.75193 6.3972 0
M  V30 138 H 11.7278 3.30145 6.84769 0
M  V30 139 N 13.3029 -1.57598 0.00835791 0
M  V30 140 C 14.5509 -1.90551 -0.6734 0
M  V30 141 C 14.8719 -0.883301 -1.73847 0
M  V30 142 O 14.1419 0.0781442 -1.95744 0
M  V30 143 H 12.7219 -0.703312 -0.251717 0
M  V30 144 H 15.3839 -1.94833 0.0512592 0
M  V30 145 H 14.4799 -2.9056 -1.13935 0
M  V30 146 N 14.781 0.264519 -1.55364 0
M  V30 147 C 15.711 1.33121 -1.91836 0
M  V30 148 C 16.692 1.51101 -0.781192 0
M  V30 149 O 17.877 1.64003 -1.04003 0
M  V30 150 C 15.007 2.68921 -2.19769 0
M  V30 151 C 13.961 2.65661 -3.35571 0
M  V30 152 C 13.287 4.05093 -3.49004 0
M  V30 153 C 14.587 2.24187 -4.71739 0
M  V30 154 H 16.281 1.02844 -2.81182 0
M  V30 155 H 13.827 0.493286 -1.35287 0
M  V30 156 H 15.78 3.43663 -2.43872 0
M  V30 157 H 14.504 3.00799 -1.27231 0
M  V30 158 H 13.163 1.93377 -3.1145 0
M  V30 159 H 12.811 4.34206 -2.53917 0
M  V30 160 H 12.511 4.03804 -4.26868 0
M  V30 161 H 14.035 4.81561 -3.75408 0
M  V30 162 H 15.449 2.88654 -4.9533 0
M  V30 163 H 13.846 2.34044 -5.52579 0
M  V30 164 H 14.916 1.19327 -4.69988 0
M  V30 165 N 16.2591 1.48442 0.529413 0
M  V30 166 C 17.1891 1.65902 1.64313 0
M  V30 167 C 18.1701 0.507897 1.6234 0
M  V30 168 O 19.3551 0.740503 1.79528 0
M  V30 169 C 16.4851 1.69911 3.02898 0
M  V30 170 C 15.4391 2.8453 3.19729 0
M  V30 171 C 14.7651 2.73629 4.59381 0
M  V30 172 C 16.0651 4.25821 3.02447 0
M  V30 173 H 17.7591 2.5914 1.49955 0
M  V30 174 H 15.3051 1.24709 0.719982 0
M  V30 175 H 17.2581 1.80715 3.80684 0
M  V30 176 H 15.9821 0.732524 3.18279 0
M  V30 177 H 14.6411 2.73283 2.44361 0
M  V30 178 H 14.2891 1.74938 4.71599 0
M  V30 179 H 13.9891 3.50541 4.71588 0
M  V30 180 H 15.5131 2.86401 5.39265 0
M  V30 181 H 16.9271 4.37898 3.70024 0
M  V30 182 H 15.3241 5.03735 3.26146 0
M  V30 183 H 16.3941 4.42244 1.98867 0
M  V30 184 N 17.7372 -0.778329 1.37039 0
M  V30 185 C 18.6672 -1.90546 1.34962 0
M  V30 186 C 19.6482 -1.68681 0.219274 0
M  V30 187 O 20.8332 -1.89634 0.418624 0
M  V30 188 C 17.9632 -3.27734 1.14925 0
M  V30 189 C 16.9172 -3.64147 2.24902 0
M  V30 190 C 16.2432 -4.99806 1.89996 0
M  V30 191 C 17.5432 -3.71579 3.67051 0
M  V30 192 H 19.2372 -1.92541 2.29277 0
M  V30 193 H 16.7832 -0.924948 1.10366 0
M  V30 194 H 18.7362 -4.06215 1.12104 0
M  V30 195 H 17.4602 -3.26154 0.170631 0
M  V30 196 H 16.1192 -2.8797 2.26868 0
M  V30 197 H 15.7672 -4.94759 0.906796 0
M  V30 198 H 15.4672 -5.25139 2.63634 0
M  V30 199 H 16.9912 -5.80694 1.88749 0
M  V30 200 H 18.4052 -4.40227 3.67251 0
M  V30 201 H 16.8022 -4.08405 4.39688 0
M  V30 202 H 17.8722 -2.72404 4.01154 0
M  V30 203 N 19.2153 -1.21501 -1.00376 0
M  V30 204 C 20.1783 -0.976927 -2.07337 0
M  V30 205 C 21.1783 0.0525322 -1.60714 0
M  V30 206 O 22.3683 -0.184869 -1.73216 0
M  V30 207 C 19.5003 -0.473423 -3.37597 0
M  V30 208 H 20.6933 -1.92587 -2.29892 0
M  V30 209 H 18.2463 -1.03217 -1.17371 0
M  V30 210 H 18.9813 0.480379 -3.20722 0
M  V30 211 H 18.7663 -1.216 -3.72768 0
M  V30 212 H 20.2563 -0.32675 -4.1632 0
M  V30 213 N 20.6934 1.19889 -1.02296 0
M  V30 214 C 21.6564 2.21116 -0.603351 0
M  V30 215 C 22.6564 1.5738 0.329884 0
M  V30 216 O 23.8464 1.73802 0.117702 0
M  V30 217 C 20.9784 3.40696 0.117992 0
M  V30 218 H 22.1714 2.59754 -1.49893 0
M  V30 219 H 19.7244 1.33463 -0.813468 0
M  V30 220 H 20.4594 3.07569 1.0282 0
M  V30 221 H 20.2444 3.88188 -0.552511 0
M  V30 222 H 21.7344 4.15692 0.398696 0
M  V30 223 N 22.1715 0.800033 1.35784 0
M  V30 224 C 23.1345 0.211565 2.28221 0
M  V30 225 C 24.1345 -0.59728 1.49296 0
M  V30 226 O 25.3245 -0.416721 1.69142 0
M  V30 227 C 22.4565 -0.705846 3.33513 0
M  V30 228 H 23.6495 1.02677 2.81776 0
M  V30 229 H 21.2025 0.570211 1.45528 0
M  V30 230 H 21.9375 -1.54498 2.85133 0
M  V30 231 H 21.7225 -0.127655 3.91892 0
M  V30 232 H 23.2125 -1.11211 4.02519 0
M  V30 233 N 23.6496 -1.47581 0.552962 0
M  V30 234 C 24.8776 -2.06875 0.0320556 0
M  V30 235 C 25.2926 -1.40625 -1.25976 0
M  V30 236 O 24.6496 -0.501349 -1.75479 0
M  V30 237 C 24.7006 -3.61092 -0.17167 0
M  V30 238 O 24.4216 -4.24858 1.06899 0
M  V30 239 C 25.9226 -4.37242 -0.730344 0
M  V30 240 H 23.1426 -0.669561 0.043915 0
M  V30 241 H 25.6866 -1.89646 0.765163 0
M  V30 242 H 23.8416 -3.7785 -0.854894 0
M  V30 243 H 24.2556 -5.17334 0.864059 0
M  V30 244 H 25.7296 -5.45842 -0.822203 0
M  V30 245 H 26.2066 -4.03235 -1.74064 0
M  V30 246 H 26.8126 -4.25219 -0.0829543 0
M  V30 247 N 25.1277 -0.289203 -1.54924 0
M  V30 248 C 26.0907 0.579144 -2.21762 0
M  V30 249 C 27.0907 1.07047 -1.1999 0
M  V30 250 O 28.2807 0.968384 -1.44803 0
M  V30 251 C 25.4127 1.80055 -2.8947 0
M  V30 252 H 26.6057 -0.00464908 -2.999 0
M  V30 253 H 24.1587 -0.0399306 -1.56249 0
M  V30 254 H 24.8937 2.42449 -2.15381 0
M  V30 255 H 24.6787 1.45602 -3.64064 0
M  V30 256 H 26.1687 2.41773 -3.40493 0
M  V30 257 N 26.6058 1.57591 -0.0167156 0
M  V30 258 C 27.8338 1.95575 0.675128 0
M  V30 259 C 28.2488 0.892542 1.6637 0
M  V30 260 O 27.6058 -0.126912 1.82058 0
M  V30 261 C 27.6568 3.33608 1.39239 0
M  V30 262 O 27.3778 4.3585 0.443444 0
M  V30 263 C 28.8788 3.86151 2.17721 0
M  V30 264 H 26.0988 0.644423 0.186978 0
M  V30 265 H 28.6428 2.0437 -0.0728 0
M  V30 266 H 26.7978 3.2607 2.09182 0
M  V30 267 H 27.2118 5.158 0.951358 0
M  V30 268 H 28.6858 4.85114 2.63379 0
M  V30 269 H 29.1628 3.19738 3.01105 0
M  V30 270 H 29.7688 3.96918 1.52761 0
M  V30 271 N 28.0839 -0.256276 1.55502 0
M  V30 272 C 29.3309 -0.985619 1.76895 0
M  V30 273 C 29.6589 -1.85671 0.579355 0
M  V30 274 O 28.9139 -1.90744 -0.437651 0
M  V30 275 C 29.2129 -1.88432 3.03691 0
M  V30 276 C 28.8789 -1.16936 4.35473 0
M  V30 277 C 27.5409 -0.97173 4.71286 0
M  V30 278 C 29.8929 -0.661889 5.1698 0
M  V30 279 C 27.2209 -0.254179 5.86149 0
M  V30 280 C 29.5729 0.042149 6.32586 0
M  V30 281 C 28.2369 0.25134 6.67027 0
M  V30 282 H 27.5069 -0.360663 0.647304 0
M  V30 283 H 30.1539 -0.256483 1.89775 0
M  V30 284 H 28.4589 -2.68021 2.85783 0
M  V30 285 H 30.1559 -2.45015 3.1744 0
M  V30 286 H 26.7459 -1.33332 4.07333 0
M  V30 287 H 30.9299 -0.802145 4.89775 0
M  V30 288 H 26.1859 -0.0815408 6.11346 0
M  V30 289 H 30.3599 0.443049 6.94989 0
M  V30 290 H 27.9869 0.809314 7.5588 0
M  V30 291 N 29.562 -1.4872 -0.521534 0
M  V30 292 C 30.525 -1.63379 -1.60748 0
M  V30 293 C 31.525 -0.50661 -1.52611 0
M  V30 294 O 32.715 -0.772601 -1.5613 0
M  V30 295 C 29.847 -1.61192 -3.00383 0
M  V30 296 H 31.04 -2.60217 -1.49087 0
M  V30 297 H 28.593 -1.37444 -0.744235 0
M  V30 298 H 29.328 -0.65863 -3.17541 0
M  V30 299 H 29.113 -2.43032 -3.07698 0
M  V30 300 H 30.603 -1.7466 -3.7932 0
M  V30 301 N 31.0401 0.771051 -1.3745 0
M  V30 302 C 32.0031 1.86598 -1.33093 0
M  V30 303 C 33.0031 1.59076 -0.234845 0
M  V30 304 O 34.1931 1.67145 -0.490732 0
M  V30 305 C 31.3251 3.23747 -1.06773 0
M  V30 306 H 32.5181 1.91873 -2.30488 0
M  V30 307 H 30.0711 0.970876 -1.2249 0
M  V30 308 H 30.8061 3.24148 -0.099129 0
M  V30 309 H 30.5911 3.45115 -1.86112 0
M  V30 310 H 32.0811 4.03824 -1.06377 0
M  V30 311 N 32.5182 1.22032 0.997298 0
M  V30 312 C 33.4812 0.987909 2.06816 0
M  V30 313 C 34.4812 -0.0440084 1.6074 0
M  V30 314 O 35.6712 0.194053 1.73116 0
M  V30 315 C 32.8032 0.49132 3.37341 0
M  V30 316 H 33.9962 1.93803 2.28868 0
M  V30 317 H 31.5492 1.03838 1.16822 0
M  V30 318 H 32.2842 -0.463364 3.20973 0
M  V30 319 H 32.0692 1.23575 3.72118 0
M  V30 320 H 33.5592 0.348824 4.16141 0
M  V30 321 N 33.9963 -1.19345 1.0293 0
M  V30 322 C 34.9283 -2.22036 0.56857 0
M  V30 323 C 35.9413 -1.58865 -0.355779 0
M  V30 324 O 37.1303 -1.77851 -0.152103 0
M  V30 325 C 34.2303 -3.38363 -0.190752 0
M  V30 326 C 33.4033 -4.31118 0.738643 0
M  V30 327 C 32.4623 -5.26194 0.0246497 0
M  V30 328 O 31.4883 -5.65461 0.651354 0
M  V30 329 N 32.6903 -5.66971 -1.24594 0
M  V30 330 H 35.4553 -2.6219 1.45177 0
M  V30 331 H 33.0163 -1.34015 0.908381 0
M  V30 332 H 35.0083 -3.98981 -0.677961 0
M  V30 333 H 33.5783 -2.96994 -0.975366 0
M  V30 334 H 32.7983 -3.68276 1.40593 0
M  V30 335 H 34.0863 -4.90001 1.37029 0
M  V30 336 H 33.4843 -5.37104 -1.77583 0
M  V30 337 H 32.0413 -6.2984 -1.67764 0
M  V30 338 N 35.4744 -0.807222 -1.35358 0
M  V30 339 C 36.3844 -0.219594 -2.3357 0
M  V30 340 C 37.4004 0.637734 -1.61892 0
M  V30 341 O 38.5764 0.549336 -1.93763 0
M  V30 342 C 35.6414 0.62158 -3.41083 0
M  V30 343 C 34.7024 -0.256315 -4.28534 0
M  V30 344 C 33.9354 0.544807 -5.30912 0
M  V30 345 O 34.1584 1.77944 -5.41934 0
M  V30 346 O 33.0924 -0.0646478 -6.01865 0
M  V30 347 H 36.9184 -1.03208 -2.85625 0
M  V30 348 H 34.5034 -0.569025 -1.38139 0
M  V30 349 H 36.3854 1.10067 -4.06772 0
M  V30 350 H 35.0604 1.41165 -2.91297 0
M  V30 351 H 33.9674 -0.782559 -3.65823 0
M  V30 352 H 35.3004 -1.01034 -4.81719 0
M  V30 353 N 36.9525 1.47285 -0.560781 0
M  V30 354 C 37.8625 2.33846 0.187954 0
M  V30 355 C 38.8785 1.48412 0.908293 0
M  V30 356 O 40.0545 1.81332 0.876388 0
M  V30 357 C 37.1195 3.25178 1.2025 0
M  V30 358 C 36.1805 4.26504 0.489208 0
M  V30 359 C 35.4135 5.13472 1.45542 0
M  V30 360 O 35.6365 5.02959 2.6905 0
M  V30 361 O 34.5705 5.93902 0.977963 0
M  V30 362 H 38.3965 2.99177 -0.522177 0
M  V30 363 H 35.9815 1.45903 -0.321364 0
M  V30 364 H 37.8635 3.81584 1.78805 0
M  V30 365 H 36.5385 2.6247 1.89449 0
M  V30 366 H 35.4455 3.73847 -0.137627 0
M  V30 367 H 36.7785 4.91935 -0.161399 0
M  V30 368 N 38.4306 0.297415 1.54768 0
M  V30 369 C 39.6706 -0.313829 2.01976 0
M  V30 370 C 40.0346 -1.51366 1.1812 0
M  V30 371 O 41.2356 -2.19603 1.5501 0
M  V30 372 C 39.5066 -0.664964 3.51159 0
M  V30 373 S 41.0656 -1.25958 4.20333 0
M  V30 374 H 37.8836 -0.0965014 0.704421 0
M  V30 375 H 40.4856 0.424451 1.90837 0
M  V30 376 H 39.1896 0.21681 4.09827 0
M  V30 377 H 38.7206 -1.43413 3.66328 0
M  V30 378 H 40.7356 -2.54751 4.25813 0
M  V30 379 N 39.9087 -1.5758 0.0250728 0
M  V30 380 C 41.1547 -1.91917 -0.655413 0
M  V30 381 C 41.4877 -0.901433 -1.72011 0
M  V30 382 O 40.7627 0.0764069 -1.9435 0
M  V30 383 C 41.0457 -3.36751 -1.27558 0
M  V30 384 C 40.8987 -4.49258 -0.220719 0
M  V30 385 C 42.2177 -3.81469 -2.19475 0
M  V30 386 H 39.3367 -0.697925 -0.23679 0
M  V30 387 H 41.9787 -1.89825 0.0815036 0
M  V30 388 H 40.1287 -3.38664 -1.90365 0
M  V30 389 H 41.8007 -4.59478 0.409601 0
M  V30 390 H 40.0437 -4.31415 0.454264 0
M  V30 391 H 40.7147 -5.47618 -0.694175 0
M  V30 392 H 43.1907 -3.81266 -1.66659 0
M  V30 393 H 42.0667 -4.83512 -2.59822 0
M  V30 394 H 42.3277 -3.16744 -3.08424 0
M  V30 395 N 41.3868 0.248026 -1.55636 0
M  V30 396 C 42.6268 0.983592 -1.79178 0
M  V30 397 C 42.9908 1.82567 -0.594414 0
M  V30 398 O 44.1918 2.59292 -0.708583 0
M  V30 399 C 42.4628 1.82228 -3.07454 0
M  V30 400 S 44.0218 2.61709 -3.52213 0
M  V30 401 H 40.8398 0.330866 -0.629324 0
M  V30 402 H 43.4418 0.251562 -1.93875 0
M  V30 403 H 42.1458 1.19333 -3.92668 0
M  V30 404 H 41.6768 2.59708 -2.95492 0
M  V30 405 H 43.6918 3.84655 -3.13457 0
M  V30 406 N 42.8649 1.48995 0.513639 0
M  V30 407 C 43.7749 1.67443 1.64317 0
M  V30 408 C 44.7909 0.556947 1.64846 0
M  V30 409 O 45.9669 0.830082 1.83498 0
M  V30 410 C 43.0319 1.72515 3.00732 0
M  V30 411 C 42.0929 2.96009 3.1093 0
M  V30 412 C 41.3259 3.00829 4.40837 0
M  V30 413 O 41.5489 2.13594 5.28898 0
M  V30 414 O 40.4829 3.93168 4.55744 0
M  V30 415 H 44.3089 2.63106 1.51687 0
M  V30 416 H 41.8939 1.32588 0.688543 0
M  V30 417 H 43.7759 1.78277 3.81831 0
M  V30 418 H 42.4509 0.800278 3.13651 0
M  V30 419 H 41.3579 2.9577 2.29065 0
M  V30 420 H 42.6909 3.87934 3.02933 0
M  V30 421 N 44.343 -0.763751 1.37857 0
M  V30 422 C 45.291 -1.89864 1.34367 0
M  V30 423 C 46.285 -1.67816 0.231143 0
M  V30 424 O 47.491 -1.75508 0.399617 0
M  V30 425 H 43.866 -0.624501 0.41893 0
M  V30 426 H 45.837 -1.89925 2.30155 0
M  V30 427 C 44.586 -3.27227 1.1755 0
M  V30 428 H 43.909 -3.44773 2.02414 0
M  V30 429 H 45.349 -4.06911 1.1916 0
M  V30 430 C 43.808 -3.36692 -0.118311 0
M  V30 431 O 44.338 -3.86374 -1.09902 0
M  V30 432 N 42.544 -2.90092 -0.171717 0
M  V30 433 H 42.091 -2.49853 0.627012 0
M  V30 434 H 42.049 -2.96806 -1.03699 0
M  V30 435 N 45.8211 -1.22559 -0.990812 0
M  V30 436 C 47.0511 -1.07623 -1.76355 0
M  V30 437 C 47.4591 0.37601 -1.85426 0
M  V30 438 O 46.8021 1.27228 -1.32509 0
M  V30 439 C 46.8641 -1.61507 -3.21179 0
M  V30 440 C 46.5281 -3.10146 -3.35646 0
M  V30 441 C 47.5251 -4.07553 -3.22796 0
M  V30 442 C 45.2101 -3.49644 -3.60631 0
M  V30 443 C 47.2041 -5.42442 -3.34716 0
M  V30 444 C 44.8911 -4.84682 -3.72192 0
M  V30 445 C 45.8891 -5.8089 -3.59243 0
M  V30 446 O 45.5771 -7.13476 -3.70415 0
M  V30 447 H 45.3091 -0.377745 -0.560611 0
M  V30 448 H 47.8631 -1.62658 -1.25425 0
M  V30 449 H 46.0931 -1.00881 -3.73309 0
M  V30 450 H 47.7821 -1.42202 -3.80175 0
M  V30 451 H 48.5481 -3.78381 -3.03403 0
M  V30 452 H 44.4271 -2.75282 -3.69785 0
M  V30 453 H 47.9711 -6.17518 -3.24526 0
M  V30 454 H 43.8681 -5.13534 -3.91092 0
M  V30 455 H 44.6361 -7.21083 -3.87275 0
M  V30 456 N 47.2992 1.18797 -1.03562 0
M  V30 457 C 48.2462 2.22253 -0.622259 0
M  V30 458 C 49.2162 1.61987 0.36736 0
M  V30 459 O 50.4012 1.88986 0.262492 0
M  V30 460 C 47.5412 3.45097 0.0138462 0
M  V30 461 C 46.6542 4.19722 -1.02263 0
M  V30 462 C 45.7892 5.30009 -0.355573 0
M  V30 463 C 44.8282 5.96399 -1.37749 0
M  V30 464 N 43.9652 6.98234 -0.735766 0
M  V30 465 H 48.8052 2.56968 -1.50903 0
M  V30 466 H 46.3422 1.26245 -0.755017 0
M  V30 467 H 48.3002 4.15279 0.399948 0
M  V30 468 H 46.9302 3.11018 0.864158 0
M  V30 469 H 45.9822 3.48418 -1.52673 0
M  V30 470 H 47.2942 4.65227 -1.79903 0
M  V30 471 H 46.4482 6.0664 0.0850095 0
M  V30 472 H 45.1872 4.85592 0.452967 0
M  V30 473 H 44.1922 5.18512 -1.82826 0
M  V30 474 H 45.4172 6.42899 -2.18764 0
M  V30 475 H 43.3632 6.55979 0.0525597 0
M  V30 476 H 43.2802 7.41965 -1.44995 0
M  V30 477 H 44.5482 7.78845 -0.31941 0
M  V30 478 N 48.7773 0.814389 1.34928 0
M  V30 479 C 49.7073 0.244827 2.32213 0
M  V30 480 C 50.6883 -0.634024 1.57842 0
M  V30 481 O 51.8733 -0.562676 1.8587 0
M  V30 482 C 49.0033 -0.601106 3.42058 0
M  V30 483 C 47.9573 0.179896 4.27622 0
M  V30 484 C 47.2833 -0.788237 5.28858 0
M  V30 485 C 48.5833 1.38329 5.03649 0
M  V30 486 H 50.2773 1.05763 2.80097 0
M  V30 487 H 47.8233 0.510029 1.34665 0
M  V30 488 H 49.7763 -1.00968 4.09125 0
M  V30 489 H 48.5003 -1.44688 2.92802 0
M  V30 490 H 47.1593 0.569739 3.62146 0
M  V30 491 H 46.8073 -1.62973 4.75866 0
M  V30 492 H 46.5073 -0.269942 5.8698 0
M  V30 493 H 48.0313 -1.19485 5.98795 0
M  V30 494 H 49.4453 1.04918 5.63618 0
M  V30 495 H 47.8423 1.83662 5.71304 0
M  V30 496 H 48.9123 2.16592 4.33839 0
M  V30 497 N 50.2554 -1.46986 0.568584 0
M  V30 498 C 51.2184 -2.28624 -0.162366 0
M  V30 499 C 52.2184 -1.37596 -0.832103 0
M  V30 500 O 53.4084 -1.60115 -0.68622 0
M  V30 501 C 50.5404 -3.17596 -1.23878 0
M  V30 502 H 51.7334 -2.94722 0.554899 0
M  V30 503 H 49.2864 -1.52863 0.325976 0
M  V30 504 H 50.0214 -2.56214 -1.98808 0
M  V30 505 H 49.8064 -3.846 -0.763219 0
M  V30 506 H 51.2964 -3.79078 -1.75185 0
M  V30 507 N 51.7335 -0.305618 -1.54608 0
M  V30 508 C 52.9795 0.302746 -2.00528 0
M  V30 509 C 53.3125 1.53184 -1.19367 0
M  V30 510 O 52.5875 1.92598 -0.271321 0
M  V30 511 C 52.8705 0.654756 -3.54097 0
M  V30 512 C 52.7235 -0.583793 -4.45995 0
M  V30 513 C 54.0425 1.47947 -4.14487 0
M  V30 514 H 51.1615 0.108564 -0.72896 0
M  V30 515 H 53.8035 -0.418634 -1.85331 0
M  V30 516 H 51.9535 1.26935 -3.67178 0
M  V30 517 H 53.6255 -1.22224 -4.44814 0
M  V30 518 H 51.8685 -1.21615 -4.16404 0
M  V30 519 H 52.5395 -0.293287 -5.5122 0
M  V30 520 H 55.0155 0.96013 -4.04871 0
M  V30 521 H 53.8915 1.69454 -5.22088 0
M  V30 522 H 54.1525 2.47011 -3.66658 0
M  V30 523 N 53.2116 1.57565 -0.0334293 0
M  V30 524 C 54.1596 2.1164 0.96496 0
M  V30 525 C 55.1536 1.04398 1.33407 0
M  V30 526 O 56.3596 1.22828 1.3158 0
M  V30 527 H 52.7346 0.676222 0.32898 0
M  V30 528 H 54.7056 2.94455 0.483614 0
M  V30 529 C 53.4546 2.66207 2.23672 0
M  V30 530 H 52.7776 3.48378 1.96145 0
M  V30 531 H 54.2176 3.07685 2.9173 0
M  V30 532 C 52.6766 1.59151 2.96939 0
M  V30 533 O 53.2066 0.993858 3.89211 0
M  V30 534 N 51.4126 1.31093 2.59351 0
M  V30 535 H 50.9596 1.7988 1.84393 0
M  V30 536 H 50.9176 0.596889 3.08682 0
M  V30 537 N 54.6897 -0.239769 1.55765 0
M  V30 538 C 55.9297 -0.974076 1.79697 0
M  V30 539 C 56.2937 -1.82249 0.604088 0
M  V30 540 O 57.4947 -2.58913 0.722324 0
M  V30 541 C 55.7657 -1.80595 3.08416 0
M  V30 542 S 57.3247 -2.59838 3.53596 0
M  V30 543 H 54.1427 -0.327524 0.63107 0
M  V30 544 H 56.7447 -0.241277 1.94005 0
M  V30 545 H 55.4487 -1.17249 3.93295 0
M  V30 546 H 54.9797 -2.58137 2.96865 0
M  V30 547 H 56.9947 -3.82987 3.15492 0
M  V30 548 N 56.1678 -1.49265 -0.50573 0
M  V30 549 C 57.4148 -1.58513 -1.26015 0
M  V30 550 C 57.7428 -0.26972 -1.92621 0
M  V30 551 O 56.9978 0.741997 -1.81088 0
M  V30 552 C 57.2968 -2.69008 -2.35308 0
M  V30 553 C 56.9628 -4.10662 -1.86192 0
M  V30 554 C 55.6248 -4.49212 -1.72516 0
M  V30 555 C 57.9768 -4.99336 -1.49375 0
M  V30 556 C 55.3048 -5.74214 -1.20394 0
M  V30 557 C 57.6568 -6.24852 -0.987072 0
M  V30 558 C 56.3208 -6.62236 -0.836669 0
M  V30 559 H 55.5908 -0.580041 -0.461122 0
M  V30 560 H 58.2378 -1.83078 -0.561665 0
M  V30 561 H 56.5428 -2.38396 -3.10926 0
M  V30 562 H 58.2398 -2.73373 -2.93374 0
M  V30 563 H 54.8298 -3.8023 -1.97795 0
M  V30 564 H 59.0138 -4.70212 -1.5879 0
M  V30 565 H 54.2698 -6.01883 -1.07458 0
M  V30 566 H 58.4438 -6.92944 -0.692983 0
M  V30 567 H 56.0708 -7.58979 -0.430607 0
M  V30 568 N 57.6459 0.756429 -1.3826 0
M  V30 569 C 58.8919 1.51772 -1.34511 0
M  V30 570 C 59.2249 1.94089 0.0656691 0
M  V30 571 O 58.4999 1.65221 1.02626 0
M  V30 572 C 58.7829 2.77226 -2.29821 0
M  V30 573 C 58.6359 2.41065 -3.79747 0
M  V30 574 C 59.9549 3.79236 -2.23312 0
M  V30 575 H 57.0739 0.550578 -0.489931 0
M  V30 576 H 59.7159 0.866607 -1.69086 0
M  V30 577 H 57.8659 3.32784 -2.00467 0
M  V30 578 H 59.5379 1.91303 -4.19763 0
M  V30 579 H 57.7809 1.7356 -3.97567 0
M  V30 580 H 58.4519 3.3081 -4.41892 0
M  V30 581 H 60.9279 3.3321 -2.49219 0
M  V30 582 H 59.8039 4.64714 -2.92116 0
M  V30 583 H 60.0649 4.24615 -1.23102 0
M  V30 584 N 59.124 1.23083 0.984299 0
M  V30 585 C 60.072 1.00593 2.09723 0
M  V30 586 C 61.066 -0.0538014 1.69315 0
M  V30 587 O 62.272 0.0993719 1.79725 0
M  V30 588 H 58.647 0.30817 0.685956 0
M  V30 589 H 60.618 1.95012 2.2586 0
M  V30 590 C 59.367 0.609601 3.42314 0
M  V30 591 H 58.69 1.41675 3.73856 0
M  V30 592 H 60.13 0.491726 4.21139 0
M  V30 593 C 58.589 -0.681745 3.2993 0
M  V30 594 O 59.119 -1.73192 3.62446 0
M  V30 595 N 57.325 -0.656178 2.83095 0
M  V30 596 H 56.872 0.198759 2.56832 0
M  V30 597 H 56.83 -1.52044 2.75191 0
M  V30 598 N 60.6021 -1.18246 1.0419 0
M  V30 599 C 61.5501 -2.23968 0.627792 0
M  V30 600 C 62.5441 -1.65828 -0.346019 0
M  V30 601 O 63.7501 -1.78733 -0.213175 0
M  V30 602 H 60.1251 -0.728939 0.184802 0
M  V30 603 H 62.0961 -2.56202 1.52981 0
M  V30 604 C 60.8451 -3.47699 0.00796591 0
M  V30 605 H 60.1681 -3.92734 0.748347 0
M  V30 606 H 61.6081 -4.23294 -0.24455 0
M  V30 607 C 60.0671 -3.13153 -1.24246 0
M  V30 608 O 60.5971 -3.27003 -2.33307 0
M  V30 609 N 58.8031 -2.67467 -1.13622 0
M  V30 610 H 58.3501 -2.56396 -0.248734 0
M  V30 611 H 58.3081 -2.44724 -1.97377 0
M  V30 612 N 62.0802 -0.821533 -1.34494 0
M  V30 613 C 63.0282 -0.230702 -2.31453 0
M  V30 614 C 64.0222 0.627793 -1.57338 0
M  V30 615 O 65.2282 0.519288 -1.72347 0
M  V30 616 H 61.6032 -0.0558577 -0.749923 0
M  V30 617 H 63.5742 -1.06332 -2.78812 0
M  V30 618 C 62.3232 0.59391 -3.4259 0
M  V30 619 H 61.6462 -0.0573588 -3.99759 0
M  V30 620 H 63.0862 0.973446 -4.12674 0
M  V30 621 C 61.5452 1.76568 -2.86924 0
M  V30 622 O 62.0752 2.8638 -2.81691 0
M  V30 623 N 60.2812 1.58198 -2.43766 0
M  V30 624 H 59.8282 0.68872 -2.48222 0
M  V30 625 H 59.7862 2.36752 -2.06871 0
M  V30 626 N 63.5583 1.46682 -0.576371 0
M  V30 627 C 64.9743 1.57822 -0.237562 0
M  V30 628 C 65.1743 1.57237 1.26011 0
M  V30 629 O 64.2303 1.48596 2.04146 0
M  V30 630 C 65.5433 2.87499 -0.881168 0
M  V30 631 C 67.0913 3.01119 -0.85417 0
M  V30 632 C 67.5663 4.33524 -1.4772 0
M  V30 633 N 69.0573 4.40207 -1.44125 0
M  V30 634 C 69.7923 5.4126 -1.89276 0
M  V30 635 N 69.2883 6.49021 -2.42371 0
M  V30 636 N 71.0813 5.32422 -1.80231 0
M  V30 637 H 63.2323 1.45306 -1.54919 0
M  V30 638 H 65.4953 0.692733 -0.647167 0
M  V30 639 H 65.2013 2.9372 -1.93447 0
M  V30 640 H 65.0753 3.75224 -0.385592 0
M  V30 641 H 67.4623 2.94485 0.190491 0
M  V30 642 H 67.5433 2.14887 -1.3877 0
M  V30 643 H 67.1873 4.40916 -2.52103 0
M  V30 644 H 67.1173 5.1852 -0.918947 0
M  V30 645 H 69.6083 3.62931 -1.05307 0
M  V30 646 H 69.9213 7.2233 -2.74698 0
M  V30 647 H 68.2663 6.49858 -2.46393 0
M  V30 648 H 71.4573 4.47137 -1.38514 0
M  V30 649 H 71.6303 6.11034 -2.15735 0
M  V30 650 N 65.0364 0.313813 1.54444 0
M  V30 651 C 65.9684 -0.590425 2.21465 0
M  V30 652 C 66.9814 -1.08753 1.21147 0
M  V30 653 O 68.1704 -1.00278 1.4767 0
M  V30 654 C 65.2704 -1.82179 2.85769 0
M  V30 655 C 64.4434 -1.46502 4.12136 0
M  V30 656 C 63.5024 -2.55288 4.60124 0
M  V30 657 O 62.5284 -2.19842 5.25032 0
M  V30 658 N 63.7304 -3.86053 4.33525 0
M  V30 659 H 66.4954 -0.0166033 2.99695 0
M  V30 660 H 64.0564 0.136578 1.61323 0
M  V30 661 H 66.0484 -2.54328 3.14801 0
M  V30 662 H 64.6184 -2.30369 2.11303 0
M  V30 663 H 63.8384 -0.575595 3.89975 0
M  V30 664 H 65.1264 -1.20221 4.94393 0
M  V30 665 H 64.5244 -4.17654 3.81552 0
M  V30 666 H 63.0814 -4.54461 4.67235 0
M  V30 667 N 66.5145 -1.57545 0.0417849 0
M  V30 668 C 67.7545 -1.94185 -0.63809 0
M  V30 669 C 68.1185 -0.919339 -1.68559 0
M  V30 670 O 69.3195 -1.17236 -2.41886 0
M  V30 671 C 67.5905 -3.35672 -1.22714 0
M  V30 672 S 69.1495 -3.94256 -1.92633 0
M  V30 673 H 65.9675 -0.679353 -0.209764 0
M  V30 674 H 68.5695 -1.95199 0.108479 0
M  V30 675 H 67.2735 -4.07898 -0.452503 0
M  V30 676 H 66.8045 -3.38132 -2.01073 0
M  V30 677 H 68.8195 -3.7872 -3.20602 0
M  V30 678 N 67.9926 0.231505 -1.5589 0
M  V30 679 C 68.9246 1.31006 -1.8807 0
M  V30 680 C 69.9376 1.43539 -0.768145 0
M  V30 681 O 71.1266 1.44614 -1.04638 0
M  V30 682 C 68.2266 2.68688 -2.06543 0
M  V30 683 C 67.3996 2.78228 -3.37502 0
M  V30 684 C 66.4586 3.96857 -3.4553 0
M  V30 685 O 65.4846 3.85662 -4.18633 0
M  V30 686 N 66.6866 5.1072 -2.75944 0
M  V30 687 H 69.4516 1.03731 -2.81176 0
M  V30 688 H 67.0126 0.421573 -1.56315 0
M  V30 689 H 69.0046 3.46412 -2.09239 0
M  V30 690 H 67.5746 2.88605 -1.20109 0
M  V30 691 H 66.7946 1.87059 -3.46991 0
M  V30 692 H 68.0826 2.81564 -4.23791 0
M  V30 693 H 67.4806 5.2271 -2.16311 0
M  V30 694 H 66.0376 5.86523 -2.84314 0
M  V30 695 N 69.4707 1.49531 0.497807 0
M  V30 696 C 70.7107 1.60799 1.26187 0
M  V30 697 C 71.0747 0.289627 1.89803 0
M  V30 698 O 72.2757 0.277512 2.67364 0
M  V30 699 C 70.5467 2.73729 2.29798 0
M  V30 700 S 72.1057 3.04968 3.155 0
M  V30 701 H 68.9237 0.567145 0.428798 0
M  V30 702 H 71.5257 1.87204 0.563477 0
M  V30 703 H 70.2297 3.68036 1.81597 0
M  V30 704 H 69.7607 2.49328 3.04301 0
M  V30 705 H 71.7757 2.46735 4.30507 0
M  V30 706 N 70.9488 -0.749086 1.3866 0
M  V30 707 C 72.1768 -1.53834 1.38358 0
M  V30 708 C 72.5918 -1.88783 -0.0255219 0
M  V30 709 O 71.9488 -1.53101 -0.993292 0
M  V30 710 C 71.9998 -2.83468 2.2434 0
M  V30 711 O 71.7208 -2.50008 3.5976 0
M  V30 712 C 73.2218 -3.7758 2.32267 0
M  V30 713 H 70.4418 -0.47585 0.473083 0
M  V30 714 H 72.9858 -0.926726 1.82297 0
M  V30 715 H 71.1408 -3.40995 1.83851 0
M  V30 716 H 71.5548 -3.33182 4.05081 0
M  V30 717 H 73.0288 -4.65478 2.96706 0
M  V30 718 H 73.5058 -4.18334 1.33765 0
M  V30 719 H 74.1118 -3.25976 2.73166 0
M  V30 720 N 72.4269 -1.23603 -0.977757 0
M  V30 721 C 73.6519 -1.09735 -1.75991 0
M  V30 722 C 74.0769 0.346858 -1.84874 0
M  V30 723 O 73.4349 1.25093 -1.3123 0
M  V30 724 C 73.4829 -1.73051 -3.16363 0
M  V30 725 O 72.5869 -0.994452 -4.0023 0
M  V30 726 H 71.9279 -0.384476 -0.541364 0
M  V30 727 H 74.4579 -1.6371 -1.2272 0
M  V30 728 H 74.4679 -1.78398 -3.66931 0
M  V30 729 H 73.1429 -2.78137 -3.09213 0
M  V30 730 H 71.7199 -1.01812 -3.58732 0
M  V30 731 N 73.905 1.17692 -1.04816 0
M  V30 732 C 75.151 1.88137 -0.75711 0
M  V30 733 C 75.484 1.80604 0.713841 0
M  V30 734 O 74.759 1.21146 1.52164 0
M  V30 735 C 75.042 3.38318 -1.2334 0
M  V30 736 C 74.895 3.54622 -2.76701 0
M  V30 737 C 76.214 4.32214 -0.829415 0
M  V30 738 H 73.333 0.683163 -0.27651 0
M  V30 739 H 75.975 1.38424 -1.30149 0
M  V30 740 H 74.125 3.80787 -0.770286 0
M  V30 741 H 75.797 3.21194 -3.31107 0
M  V30 742 H 74.04 2.97026 -3.16161 0
M  V30 743 H 74.711 4.60028 -3.05088 0
M  V30 744 H 77.187 3.97565 -1.22805 0
M  V30 745 H 76.063 5.35838 -1.19033 0
M  V30 746 H 76.324 4.41294 0.266891 0
M  V30 747 N 75.3831 0.828654 1.34056 0
M  V30 748 C 76.6311 0.41863 1.97717 0
M  V30 749 C 76.9521 -1.02314 1.66002 0
M  V30 750 O 76.2221 -1.71119 0.953683 0
M  V30 751 H 74.8021 0.151809 0.731412 0
M  V30 752 H 77.4641 1.05936 1.63596 0
M  V30 753 H 76.5601 0.542318 3.07352 0
M  V30 754 N 76.8612 -1.46375 0.584142 0
M  V30 755 C 77.8242 -2.28784 -0.138108 0
M  V30 756 C 78.8242 -1.38471 -0.817462 0
M  V30 757 O 80.0142 -1.60833 -0.669199 0
M  V30 758 C 77.1462 -3.18892 -1.20503 0
M  V30 759 H 78.3392 -2.94117 0.586127 0
M  V30 760 H 75.8922 -1.52509 0.342171 0
M  V30 761 H 76.6272 -2.58309 -1.96079 0
M  V30 762 H 76.4122 -3.85388 -0.722384 0
M  V30 763 H 77.9022 -3.80914 -1.71155 0
M  V30 764 N 78.3393 -0.321999 -1.54275 0
M  V30 765 C 79.2713 0.578671 -2.21775 0
M  V30 766 C 80.2843 1.08109 -1.21722 0
M  V30 767 O 81.4733 0.994938 -1.482 0
M  V30 768 C 78.5733 1.80661 -2.86731 0
M  V30 769 C 77.7463 1.44314 -4.12907 0
M  V30 770 C 76.8053 2.52845 -4.61472 0
M  V30 771 O 75.8313 2.17054 -5.2619 0
M  V30 772 N 77.0333 3.83748 -4.35566 0
M  V30 773 H 79.7983 0.000709447 -2.997 0
M  V30 774 H 77.3593 -0.145132 -1.61248 0
M  V30 775 H 79.3513 2.52655 -3.16145 0
M  V30 776 H 77.9213 2.29245 -2.12521 0
M  V30 777 H 77.1413 0.554906 -3.90275 0
M  V30 778 H 78.4293 1.17598 -4.95023 0
M  V30 779 H 77.8273 4.15625 -3.83761 0
M  V30 780 H 76.3843 4.51977 -4.69638 0
M  V30 781 N 79.8174 1.5752 -0.0501392 0
M  V30 782 C 80.7654 2.12651 0.942459 0
M  V30 783 C 81.7594 1.05807 1.32292 0
M  V30 784 O 82.9654 1.24217 1.3027 0
M  V30 785 H 79.3404 0.679673 0.321789 0
M  V30 786 H 81.3114 2.94951 0.452356 0
M  V30 787 C 80.0604 2.68565 2.20836 0
M  V30 788 H 79.3834 3.50439 1.92439 0
M  V30 789 H 80.8234 3.10761 2.8845 0
M  V30 790 C 79.2824 1.62291 2.95234 0
M  V30 791 O 79.8124 1.03508 3.88135 0
M  V30 792 N 78.0184 1.33836 2.57946 0
M  V30 793 H 77.5654 1.81826 1.82475 0
M  V30 794 H 77.5234 0.629595 3.08032 0
M  V30 795 N 81.2955 -0.223234 1.56011 0
M  V30 796 C 82.5235 -0.964812 1.83027 0
M  V30 797 C 82.9385 -1.78013 0.62904 0
M  V30 798 O 82.2955 -1.78008 -0.402414 0
M  V30 799 C 82.3465 -1.88373 3.08542 0
M  V30 800 O 82.0675 -1.10137 4.2403 0
M  V30 801 C 83.5685 -2.73934 3.48533 0
M  V30 802 H 80.7885 -0.282842 0.608475 0
M  V30 803 H 83.3325 -0.238971 2.03099 0
M  V30 804 H 81.4875 -2.56354 2.9045 0
M  V30 805 H 81.9015 -1.72501 4.95322 0
M  V30 806 H 83.3755 -3.34117 4.39397 0
M  V30 807 H 83.8525 -3.46244 2.70207 0
M  V30 808 H 84.4585 -2.11369 3.69057 0
M  V30 809 N 82.7736 -1.49793 -0.48987 0
M  V30 810 C 84.0196 -1.60078 -1.24511 0
M  V30 811 C 84.3526 -0.291608 -1.91998 0
M  V30 812 O 83.6276 0.705647 -1.81248 0
M  V30 813 C 83.9106 -2.76791 -2.30345 0
M  V30 814 C 83.7636 -4.17535 -1.67286 0
M  V30 815 C 85.0826 -2.89111 -3.31817 0
M  V30 816 H 82.2016 -0.582645 -0.451324 0
M  V30 817 H 84.8436 -1.82117 -0.541612 0
M  V30 818 H 82.9936 -2.5813 -2.90346 0
M  V30 819 H 84.6656 -4.4774 -1.11026 0
M  V30 820 H 82.9086 -4.22665 -0.976577 0
M  V30 821 H 83.5796 -4.95094 -2.44103 0
M  V30 822 H 86.0556 -3.06133 -2.81819 0
M  V30 823 H 84.9316 -3.72433 -4.03219 0
M  V30 824 H 85.1926 -1.9893 -3.94815 0
M  V30 825 N 84.2517 0.741722 -1.39055 0
M  V30 826 C 85.5007 1.49656 -1.35225 0
M  V30 827 C 85.8137 1.95533 0.0512708 0
M  V30 828 O 87.0197 2.7067 0.212138 0
M  V30 829 C 85.4757 2.70389 -2.37525 0
M  V30 830 C 85.0837 2.31489 -3.83558 0
M  V30 831 C 86.8277 3.48236 -2.42759 0
M  V30 832 C 84.7347 3.48903 -4.77515 0
M  V30 833 H 83.6647 0.56197 -0.502699 0
M  V30 834 H 86.3157 0.809727 -1.64668 0
M  V30 835 H 84.6977 3.41113 -2.01142 0
M  V30 836 H 85.8717 1.68354 -4.28945 0
M  V30 837 H 84.1867 1.66749 -3.81554 0
M  V30 838 H 86.7837 4.35558 -3.1015 0
M  V30 839 H 87.1267 3.90229 -1.45008 0
M  V30 840 H 87.6597 2.84535 -2.78002 0
M  V30 841 H 84.3987 3.11966 -5.76504 0
M  V30 842 H 83.9187 4.11041 -4.36813 0
M  V30 843 H 85.5977 4.15328 -4.96096 0
M  V30 844 N 85.7298 1.2412 0.971189 0
M  V30 845 C 86.9698 1.09066 1.7287 0
M  V30 846 C 87.3338 -0.364794 1.88503 0
M  V30 847 O 88.5348 -0.636748 2.61149 0
M  V30 848 C 86.8058 1.80629 3.08396 0
M  V30 849 S 88.3648 1.81263 3.99611 0
M  V30 850 H 85.1828 0.390145 0.594397 0
M  V30 851 H 87.7848 1.57397 1.15959 0
M  V30 852 H 86.4888 2.85647 2.94676 0
M  V30 853 H 86.0198 1.32617 3.70373 0
M  V30 854 H 88.0348 0.877804 4.88374 0
M  V30 855 N 87.2079 -1.17134 1.05439 0
M  V30 856 C 88.4329 -1.91913 0.786396 0
M  V30 857 C 88.8579 -1.7643 -0.652234 0
M  V30 858 O 88.2159 -1.08372 -1.45345 0
M  V30 859 C 88.2639 -3.40921 1.17497 0
M  V30 860 O 87.3679 -4.11244 0.308589 0
M  V30 861 H 86.7089 -0.598215 0.288158 0
M  V30 862 H 89.2389 -1.48457 1.4079 0
M  V30 863 H 89.2489 -3.91668 1.14281 0
M  V30 864 H 87.9239 -3.5151 2.22292 0
M  V30 865 H 86.5009 -3.70731 0.40157 0
M  V30 866 N 88.686 -0.835752 -1.33615 0
M  V30 867 C 89.633 -0.26473 -2.29277 0
M  V30 868 C 90.603 0.617712 -1.54187 0
M  V30 869 O 91.788 0.556641 -1.825 0
M  V30 870 C 88.928 0.556777 -3.40579 0
M  V30 871 C 88.041 -0.349339 -4.30585 0
M  V30 872 C 87.176 0.482969 -5.29 0
M  V30 873 C 86.215 -0.421732 -6.10645 0
M  V30 874 N 85.352 0.372262 -7.01112 0
M  V30 875 H 90.192 -1.08582 -2.77514 0
M  V30 876 H 87.729 -0.546927 -1.36554 0
M  V30 877 H 89.687 1.04852 -4.03809 0
M  V30 878 H 88.317 1.34286 -2.93542 0
M  V30 879 H 87.369 -0.959372 -3.68104 0
M  V30 880 H 88.681 -1.04445 -4.87742 0
M  V30 881 H 87.835 1.03866 -5.97743 0
M  V30 882 H 86.574 1.21153 -4.72412 0
M  V30 883 H 85.579 -0.989464 -5.40823 0
M  V30 884 H 86.804 -1.14861 -6.69316 0
M  V30 885 H 84.75 1.08426 -6.46977 0
M  V30 886 H 84.667 -0.264198 -7.55538 0
M  V30 887 H 85.935 0.910293 -7.74167 0
M  V30 888 N 90.1641 1.46063 -0.591896 0
M  V30 889 C 91.0941 2.33172 0.123673 0
M  V30 890 C 92.0751 1.45897 0.87453 0
M  V30 891 O 93.2601 1.74698 0.848181 0
M  V30 892 C 90.3901 3.28336 1.13194 0
M  V30 893 C 89.3441 4.25124 0.495324 0
M  V30 894 C 88.6701 5.09863 1.61071 0
M  V30 895 C 89.9701 5.19143 -0.573425 0
M  V30 896 H 91.6641 2.93252 -0.603646 0
M  V30 897 H 89.2101 1.41014 -0.291741 0
M  V30 898 H 91.1631 3.88137 1.64097 0
M  V30 899 H 89.8871 2.66383 1.88965 0
M  V30 900 H 88.5461 3.66599 0.00729452 0
M  V30 901 H 88.1941 4.44288 2.35832 0
M  V30 902 H 87.8941 5.75417 1.19035 0
M  V30 903 H 89.4181 5.72529 2.12233 0
M  V30 904 H 90.8321 5.73106 -0.1491 0
M  V30 905 H 89.2291 5.93089 -0.914636 0
M  V30 906 H 90.2991 4.62519 -1.45617 0
M  V30 907 N 91.6422 0.330177 1.54103 0
M  V30 908 C 92.6052 -0.520144 2.2322 0
M  V30 909 C 93.6052 -1.03828 1.22786 0
M  V30 910 O 94.7952 -0.929652 1.4732 0
M  V30 911 C 91.9272 -1.72317 2.94142 0
M  V30 912 H 93.1202 0.0841605 2.99782 0
M  V30 913 H 90.6732 0.0813433 1.56088 0
M  V30 914 H 91.4082 -2.36653 2.21734 0
M  V30 915 H 91.1932 -1.35898 3.67796 0
M  V30 916 H 92.6832 -2.3266 3.46784 0
M  V30 917 N 93.1203 -1.57491 0.0584922 0
M  V30 918 C 94.0833 -2.1085 -0.898617 0
M  V30 919 C 95.0833 -1.02964 -1.23511 0
M  V30 920 O 96.2733 -1.29007 -1.17059 0
M  V30 921 C 93.4053 -2.59881 -2.20623 0
M  V30 922 H 94.5983 -2.96715 -0.435936 0
M  V30 923 H 92.1513 -1.55141 -0.190023 0
M  V30 924 H 92.8863 -1.77431 -2.71457 0
M  V30 925 H 92.6713 -3.38727 -1.97501 0
M  V30 926 H 94.1613 -3.01285 -2.89166 0
M  V30 927 N 94.5984 0.214957 -1.56127 0
M  V30 928 C 95.5454 1.26642 -1.92952 0
M  V30 929 C 96.5154 1.46244 -0.78753 0
M  V30 930 O 97.7004 1.59704 -1.04399 0
M  V30 931 C 94.8404 2.6104 -2.25726 0
M  V30 932 C 93.9534 2.49183 -3.52891 0
M  V30 933 C 93.0884 3.76149 -3.7508 0
M  V30 934 C 92.1274 3.59041 -4.95738 0
M  V30 935 N 91.2644 4.77972 -5.14283 0
M  V30 936 H 96.1044 0.945384 -2.82607 0
M  V30 937 H 93.6414 0.455489 -1.3987 0
M  V30 938 H 95.5994 3.39313 -2.42739 0
M  V30 939 H 94.2294 2.91227 -1.39236 0
M  V30 940 H 93.2814 1.6231 -3.44034 0
M  V30 941 H 94.5934 2.32466 -4.41318 0
M  V30 942 H 93.7474 4.62865 -3.92226 0
M  V30 943 H 92.4864 3.95799 -2.84947 0
M  V30 944 H 91.4914 2.7071 -4.78535 0
M  V30 945 H 92.7164 3.40856 -5.87362 0
M  V30 946 H 90.6624 4.97923 -4.27093 0
M  V30 947 H 90.5794 4.64006 -5.96853 0
M  V30 948 H 91.8474 5.66096 -5.35869 0
M  V30 949 N 96.0765 1.50051 0.48192 0
M  V30 950 C 97.3165 1.62128 1.24474 0
M  V30 951 C 97.6805 0.309742 1.89485 0
M  V30 952 O 98.8815 0.305854 2.67054 0
M  V30 953 C 97.1525 2.76151 2.26882 0
M  V30 954 S 98.7115 3.08297 3.12247 0
M  V30 955 H 95.5295 0.571661 0.422759 0
M  V30 956 H 98.1315 1.87791 0.54359 0
M  V30 957 H 96.8355 3.69942 1.77683 0
M  V30 958 H 96.3665 2.52541 3.0164 0
M  V30 959 H 98.3815 2.51287 4.27866 0
M  V30 960 N 97.5546 -0.734337 1.39446 0
M  V30 961 C 98.4846 -1.86155 1.40955 0
M  V30 962 C 99.4656 -1.67898 0.272827 0
M  V30 963 O 100.651 -1.88207 0.478743 0
M  V30 964 C 97.7806 -3.23912 1.25294 0
M  V30 965 C 96.7346 -3.56808 2.36373 0
M  V30 966 C 96.0606 -4.93508 2.058 0
M  V30 967 C 97.3606 -3.59713 3.78687 0
M  V30 968 H 99.0546 -1.8515 2.35287 0
M  V30 969 H 96.6006 -0.889367 1.13253 0
M  V30 970 H 98.5536 -4.02443 1.2497 0
M  V30 971 H 97.2776 -3.25446 0.274308 0
M  V30 972 H 95.9366 -2.80606 2.35914 0
M  V30 973 H 95.5846 -4.91623 1.06374 0
M  V30 974 H 95.2846 -5.16486 2.80208 0
M  V30 975 H 96.8086 -5.74396 2.07128 0
M  V30 976 H 98.2226 -4.2832 3.81071 0
M  V30 977 H 96.6196 -3.94209 4.52459 0
M  V30 978 H 97.6896 -2.59504 4.09617 0
M  V30 979 N 99.0327 -1.24633 -0.964593 0
M  V30 980 C 100.279 -1.08949 -1.71049 0
M  V30 981 C 100.612 0.370302 -1.90637 0
M  V30 982 O 99.8867 1.27349 -1.47011 0
M  V30 983 C 100.17 -1.83329 -3.0994 0
M  V30 984 C 100.023 -3.37077 -2.97824 0
M  V30 985 C 101.342 -1.60846 -4.09654 0
M  V30 986 H 98.4607 -0.397178 -0.620821 0
M  V30 987 H 101.103 -1.5334 -1.12191 0
M  V30 988 H 99.2527 -1.45597 -3.60186 0
M  V30 989 H 100.925 -3.84425 -2.5498 0
M  V30 990 H 99.1677 -3.65298 -2.33965 0
M  V30 991 H 99.8387 -3.84324 -3.96231 0
M  V30 992 H 102.315 -1.93674 -3.68279 0
M  V30 993 H 101.191 -2.1534 -5.04896 0
M  V30 994 H 101.452 -0.547434 -4.38698 0
M  V30 995 N 100.511 1.16574 -1.06058 0
M  V30 996 C 101.444 2.19798 -0.61352 0
M  V30 997 C 102.422 1.58509 0.362453 0
M  V30 998 O 103.606 1.86527 0.271994 0
M  V30 999 C 100.733 3.3855 0.100915 0
M  V30 1000 C 99.7788 4.18317 -0.831438 0
M  V30 1001 S 100.612 4.82375 -2.32539 0
M  V30 1002 C 101.768 6.04508 -1.62238 0
M  V30 1003 H 102.001 2.5738 -1.48805 0
M  V30 1004 H 99.5338 1.27327 -0.873338 0
M  V30 1005 H 101.492 4.07358 0.506898 0
M  V30 1006 H 100.153 2.99338 0.951604 0
M  V30 1007 H 99.3458 5.03232 -0.278071 0
M  V30 1008 H 98.9478 3.5499 -1.17719 0
M  V30 1009 H 101.24 6.71133 -0.926622 0
M  V30 1010 H 102.183 6.64389 -2.44934 0
M  V30 1011 H 102.591 5.53559 -1.106 0
M  V30 1012 N 101.989 0.842826 1.3317 0
M  V30 1013 C 102.936 0.276885 2.29133 0
M  V30 1014 C 103.906 -0.609527 1.54512 0
M  V30 1015 O 105.091 -0.546955 1.82792 0
M  V30 1016 C 102.231 -0.538707 3.40869 0
M  V30 1017 C 101.344 0.372169 4.30394 0
M  V30 1018 C 100.479 -0.454908 5.29249 0
M  V30 1019 C 99.5179 0.45411 6.10413 0
M  V30 1020 N 98.6549 -0.335075 7.013 0
M  V30 1021 H 103.495 1.10052 2.76934 0
M  V30 1022 H 101.032 0.554161 1.36262 0
M  V30 1023 H 102.99 -1.02709 4.0436 0
M  V30 1024 H 101.62 -1.32727 2.9425 0
M  V30 1025 H 100.672 0.97888 3.6759 0
M  V30 1026 H 101.984 1.0703 4.87182 0
M  V30 1027 H 101.138 -1.00695 5.98285 0
M  V30 1028 H 99.8769 -1.18646 4.73048 0
M  V30 1029 H 98.8819 1.01813 5.40291 0
M  V30 1030 H 100.107 1.18409 6.68697 0
M  V30 1031 H 98.0529 -1.04994 6.47543 0
M  V30 1032 H 97.9699 0.304262 7.55387 0
M  V30 1033 H 99.2379 -0.869224 7.74638 0
M  V30 1034 N 103.467 -1.45747 0.599634 0
M  V30 1035 C 104.43 -2.28917 -0.113835 0
M  V30 1036 C 105.43 -1.3933 -0.802729 0
M  V30 1037 O 106.62 -1.61534 -0.652103 0
M  V30 1038 C 103.752 -3.20152 -1.17114 0
M  V30 1039 H 104.945 -2.93478 0.617289 0
M  V30 1040 H 102.498 -1.52137 0.358327 0
M  V30 1041 H 103.233 -2.60374 -1.93329 0
M  V30 1042 H 103.018 -3.86133 -0.681468 0
M  V30 1043 H 104.508 -3.82708 -1.67105 0
M  V30 1044 N 104.945 -0.338344 -1.53925 0
M  V30 1045 C 105.855 0.529421 -2.28548 0
M  V30 1046 C 106.871 1.11645 -1.3346 0
M  V30 1047 O 108.047 1.13325 -1.66492 0
M  V30 1048 C 105.112 1.66713 -3.03987 0
M  V30 1049 C 104.173 1.11041 -4.14691 0
M  V30 1050 C 103.406 2.19389 -4.86522 0
M  V30 1051 O 103.629 3.40013 -4.57982 0
M  V30 1052 O 102.563 1.83976 -5.73094 0
M  V30 1053 H 106.389 -0.0770399 -3.03602 0
M  V30 1054 H 103.974 -0.103555 -1.49041 0
M  V30 1055 H 105.856 2.32918 -3.5118 0
M  V30 1056 H 104.531 2.25949 -2.31794 0
M  V30 1057 H 103.438 0.413024 -3.71813 0
M  V30 1058 H 104.771 0.562975 -4.8897 0
M  V30 1059 N 106.423 1.57458 -0.0668435 0
M  V30 1060 C 107.356 2.08033 0.93795 0
M  V30 1061 C 108.334 0.984321 1.29421 0
M  V30 1062 O 109.518 1.25736 1.40437 0
M  V30 1063 C 106.645 2.53388 2.24749 0
M  V30 1064 C 105.691 3.74376 2.04315 0
M  V30 1065 S 106.524 5.19303 1.30706 0
M  V30 1066 C 107.68 5.67986 2.62951 0
M  V30 1067 H 107.913 2.92935 0.50759 0
M  V30 1068 H 105.446 1.5371 0.145804 0
M  V30 1069 H 107.404 2.8018 3.00016 0
M  V30 1070 H 106.065 1.68763 2.64911 0
M  V30 1071 H 105.258 4.04083 3.01218 0
M  V30 1072 H 104.86 3.47931 1.37186 0
M  V30 1073 H 107.152 5.74528 3.5906 0
M  V30 1074 H 108.095 6.66955 2.3786 0
M  V30 1075 H 108.503 4.95781 2.69929 0
M  V30 1076 N 107.901 -0.206675 1.56239 0
M  V30 1077 C 108.849 -1.27571 1.94495 0
M  V30 1078 C 109.843 -1.47737 0.828862 0
M  V30 1079 O 111.049 -1.48735 1.0138 0
M  V30 1080 H 107.424 -0.428029 0.6183 0
M  V30 1081 H 109.395 -0.925961 2.8367 0
M  V30 1082 C 108.144 -2.61568 2.29079 0
M  V30 1083 H 107.467 -2.46863 3.14482 0
M  V30 1084 H 108.907 -3.35144 2.5972 0
M  V30 1085 C 107.366 -3.17695 1.12123 0
M  V30 1086 O 107.896 -3.99801 0.390153 0
M  V30 1087 N 106.102 -2.76276 0.901097 0
M  V30 1088 H 105.649 -2.09613 1.49733 0
M  V30 1089 H 105.607 -3.1417 0.120319 0
M  V30 1090 N 109.379 -1.50304 -0.473955 0
M  V30 1091 C 110.627 -1.60832 -1.22382 0
M  V30 1092 C 110.948 -0.30939 -1.9253 0
M  V30 1093 O 110.218 0.67296 -1.83978 0
M  V30 1094 H 108.798 -0.592652 -0.454723 0
M  V30 1095 H 111.46 -1.87068 -0.546968 0
M  V30 1096 H 110.556 -2.41803 -1.97327 0
M  V30 1097 N 110.857 0.726932 -1.39834 0
M  V30 1098 C 112.082 1.52121 -1.40976 0
M  V30 1099 C 112.507 1.88098 -0.00826029 0
M  V30 1100 O 111.865 1.52479 0.980807 0
M  V30 1101 C 111.913 2.78021 -2.29644 0
M  V30 1102 O 111.017 3.74272 -1.73188 0
M  V30 1103 H 110.358 0.45908 -0.479731 0
M  V30 1104 H 112.888 0.896207 -1.83927 0
M  V30 1105 H 112.898 3.26671 -2.44438 0
M  V30 1106 H 111.573 2.51169 -3.31492 0
M  V30 1107 H 110.15 3.33073 -1.6768 0
M  V30 1108 N 112.336 1.25143 0.95797 0
M  V30 1109 C 113.283 1.05235 2.05412 0
M  V30 1110 C 114.253 -0.0374561 1.66058 0
M  V30 1111 O 115.438 0.119073 1.90428 0
M  V30 1112 C 112.578 0.673589 3.38462 0
M  V30 1113 C 111.691 1.8379 3.90954 0
M  V30 1114 C 110.826 1.40381 5.12315 0
M  V30 1115 C 109.865 2.53746 5.57027 0
M  V30 1116 N 109.002 2.11136 6.69601 0
M  V30 1117 H 113.842 1.99048 2.21774 0
M  V30 1118 H 111.379 0.991277 1.08683 0
M  V30 1119 H 113.337 0.434964 4.14926 0
M  V30 1120 H 111.967 -0.227554 3.21997 0
M  V30 1121 H 111.019 2.18992 3.11041 0
M  V30 1122 H 112.331 2.68937 4.20089 0
M  V30 1123 H 111.485 1.12464 5.96185 0
M  V30 1124 H 110.224 0.523015 4.84887 0
M  V30 1125 H 109.229 2.82412 4.71724 0
M  V30 1126 H 110.454 3.42398 5.86464 0
M  V30 1127 H 108.4 1.25468 6.4389 0
M  V30 1128 H 108.317 2.89832 6.98236 0
M  V30 1129 H 109.585 1.86385 7.56889 0
M  V30 1130 N 113.814 -1.1601 1.06675 0
M  V30 1131 C 114.744 -2.22688 0.702307 0
M  V30 1132 C 115.725 -1.67306 -0.307032 0
M  V30 1133 O 116.91 -1.93352 -0.181305 0
M  V30 1134 C 114.04 -3.47178 0.092038 0
M  V30 1135 C 112.994 -4.15477 1.02777 0
M  V30 1136 C 112.32 -5.33963 0.28061 0
M  V30 1137 C 113.62 -4.66019 2.35846 0
M  V30 1138 H 115.314 -2.53429 1.59419 0
M  V30 1139 H 112.86 -1.21813 0.767961 0
M  V30 1140 H 114.813 -4.21037 -0.174814 0
M  V30 1141 H 113.537 -3.15749 -0.834877 0
M  V30 1142 H 112.196 -3.43549 1.27944 0
M  V30 1143 H 111.844 -4.98788 -0.649545 0
M  V30 1144 H 111.544 -5.806 0.904258 0
M  V30 1145 H 113.068 -6.10596 0.021396 0
M  V30 1146 H 114.482 -5.3144 2.15045 0
M  V30 1147 H 112.879 -5.23293 2.93743 0
M  V30 1148 H 113.949 -3.82023 2.98641 0
M  V30 1149 N 115.292 -0.849877 -1.32721 0
M  V30 1150 C 116.54 -0.450032 -1.97026 0
M  V30 1151 C 116.861 0.996604 -1.67609 0
M  V30 1152 O 116.131 1.6958 -0.980786 0
M  V30 1153 H 114.711 -0.163426 -0.728904 0
M  V30 1154 H 117.373 -1.08526 -1.6189 0
M  V30 1155 H 116.469 -0.591146 -3.0645 0
M  V30 1156 N 116.77 1.45427 -0.607355 0
M  V30 1157 C 118.186 1.57283 -0.270985 0
M  V30 1158 C 118.386 1.59875 1.22647 0
M  V30 1159 O 117.442 1.52893 2.00948 0
M  V30 1160 C 118.755 2.85566 -0.941952 0
M  V30 1161 C 120.303 2.9924 -0.917849 0
M  V30 1162 C 120.778 4.30293 -1.56882 0
M  V30 1163 N 122.269 4.37051 -1.5343 0
M  V30 1164 C 123.004 5.37123 -2.00715 0
M  V30 1165 N 122.5 6.43734 -2.56084 0
M  V30 1166 N 124.293 5.28479 -1.91484 0
M  V30 1167 H 116.444 1.41988 -1.57966 0
M  V30 1168 H 118.707 0.67885 -0.661715 0
M  V30 1169 H 118.413 2.8955 -1.99633 0
M  V30 1170 H 118.287 3.74322 -0.465096 0
M  V30 1171 H 120.674 2.94822 0.127984 0
M  V30 1172 H 120.755 2.11895 -1.43297 0
M  V30 1173 H 120.399 4.35469 -2.61398 0
M  V30 1174 H 120.329 5.16454 -1.02873 0
M  V30 1175 H 122.82 3.60615 -1.12982 0
M  V30 1176 H 123.133 7.16341 -2.89958 0
M  V30 1177 H 121.478 6.44485 -2.60122 0
M  V30 1178 H 124.669 4.44098 -1.47967 0
M  V30 1179 H 124.842 6.0632 -2.28648 0
M  V30 1180 N 118.248 0.346503 1.53744 0
M  V30 1181 C 119.664 -0.00530975 1.59599 0
M  V30 1182 C 119.864 -1.48465 1.36236 0
M  V30 1183 O 118.92 -2.24376 1.15808 0
M  V30 1184 C 120.233 0.433516 2.97559 0
M  V30 1185 C 121.781 0.386111 3.10609 0
M  V30 1186 C 122.256 0.800451 4.50951 0
M  V30 1187 N 123.747 0.754753 4.5701 0
M  V30 1188 C 124.482 1.04727 5.63755 0
M  V30 1189 N 123.978 1.4081 6.7834 0
M  V30 1190 N 125.771 0.971316 5.53644 0
M  V30 1191 H 117.922 1.31009 1.67184 0
M  V30 1192 H 120.185 0.534242 0.783128 0
M  V30 1193 H 119.891 1.46509 3.19731 0
M  V30 1194 H 119.765 -0.189753 3.76722 0
M  V30 1195 H 122.152 -0.636295 2.88158 0
M  V30 1196 H 122.233 1.04462 2.33498 0
M  V30 1197 H 121.877 1.82088 4.74137 0
M  V30 1198 H 121.807 0.119386 5.26465 0
M  V30 1199 H 124.298 0.488662 3.74727 0
M  V30 1200 H 124.611 1.61607 7.55714 0
M  V30 1201 H 122.956 1.44657 6.79779 0
M  V30 1202 H 126.147 0.688748 4.63005 0
M  V30 1203 H 126.32 1.20263 6.36742 0
M  V30 1204 N 119.726 -1.57421 0.075193 0
M  V30 1205 C 120.689 -2.11791 -0.876203 0
M  V30 1206 C 121.689 -1.04268 -1.22412 0
M  V30 1207 O 122.879 -1.30242 -1.15684 0
M  V30 1208 C 120.011 -2.62207 -2.17854 0
M  V30 1209 H 121.204 -2.9716 -0.40444 0
M  V30 1210 H 118.757 -1.55333 -0.173557 0
M  V30 1211 H 119.492 -1.803 -2.6956 0
M  V30 1212 H 119.277 -3.40802 -1.93897 0
M  V30 1213 H 120.767 -3.04335 -2.85955 0
M  V30 1214 N 121.204 0.198386 -1.56346 0
M  V30 1215 C 122.151 1.24589 -1.94284 0
M  V30 1216 C 123.121 1.454 -0.802997 0
M  V30 1217 O 124.306 1.58588 -1.06087 0
M  V30 1218 C 121.446 2.58631 -2.28482 0
M  V30 1219 C 120.559 2.45426 -3.55514 0
M  V30 1220 C 119.694 3.7215 -3.79049 0
M  V30 1221 C 118.733 3.53763 -4.99518 0
M  V30 1222 N 117.87 4.72491 -5.19323 0
M  V30 1223 H 122.71 0.915356 -2.83593 0
M  V30 1224 H 120.247 0.440629 -1.40346 0
M  V30 1225 H 122.205 3.3672 -2.46324 0
M  V30 1226 H 120.835 2.89734 -1.42317 0
M  V30 1227 H 119.887 1.58652 -3.45737 0
M  V30 1228 H 121.199 2.27772 -4.43758 0
M  V30 1229 H 120.353 4.58679 -3.97113 0
M  V30 1230 H 119.092 3.92754 -2.89129 0
M  V30 1231 H 118.097 2.65619 -4.8138 0
M  V30 1232 H 119.322 3.34607 -5.90944 0
M  V30 1233 H 117.268 4.93365 -4.3235 0
M  V30 1234 H 117.185 4.5765 -6.01741 0
M  V30 1235 H 118.453 5.6038 -5.41843 0
M  V30 1236 N 122.682 1.50554 0.465978 0
M  V30 1237 C 124.093 1.54599 1.04671 0
M  V30 1238 C 124.444 0.352488 1.93008 0
M  V30 1239 O 123.569 -0.534044 2.09707 0
M  V30 1240 C 124.164 2.80166 1.90505 0
M  V30 1241 C 122.723 2.86876 2.43678 0
M  V30 1242 C 121.87 2.48947 1.22151 0
M  V30 1243 H 124.821 1.56744 0.248384 0
M  V30 1244 H 124.842 2.62311 2.75633 0
M  V30 1245 H 124.354 3.67013 1.26186 0
M  V30 1246 H 122.455 2.04393 3.11536 0
M  V30 1247 H 122.568 3.89885 2.78436 0
M  V30 1248 H 120.932 2.01498 1.5579 0
M  V30 1249 H 121.715 3.38107 0.594866 0
M  V30 1250 N 124.16 -0.719506 1.40217 0
M  V30 1251 C 125.07 -1.86378 1.42479 0
M  V30 1252 C 126.086 -1.71073 0.317834 0
M  V30 1253 O 127.262 -1.93406 0.561794 0
M  V30 1254 C 124.327 -3.22136 1.28178 0
M  V30 1255 C 123.388 -3.49723 2.48982 0
M  V30 1256 C 122.621 -4.79004 2.35353 0
M  V30 1257 O 122.844 -5.53821 1.36524 0
M  V30 1258 O 121.778 -5.06839 3.2465 0
M  V30 1259 H 125.604 -1.87425 2.38968 0
M  V30 1260 H 123.189 -0.869405 1.21498 0
M  V30 1261 H 125.071 -4.03234 1.22395 0
M  V30 1262 H 123.746 -3.21825 0.347934 0
M  V30 1263 H 122.653 -2.6865 2.60342 0
M  V30 1264 H 123.986 -3.54828 3.41113 0
M  V30 1265 N 125.638 -1.25649 -0.95132 0
M  V30 1266 C 126.886 -1.10375 -1.69298 0
M  V30 1267 C 127.207 0.355339 -1.91735 0
M  V30 1268 O 126.477 1.25188 -1.50681 0
M  V30 1269 H 125.057 -0.405461 -0.627384 0
M  V30 1270 H 127.719 -1.57823 -1.14358 0
M  V30 1271 H 126.815 -1.61465 -2.67087 0
M  V30 1272 N 127.117 1.15442 -1.07289 0
M  V30 1273 C 128.08 2.18358 -0.696591 0
M  V30 1274 C 129.08 1.58637 0.262837 0
M  V30 1275 O 130.27 1.74145 0.0438809 0
M  V30 1276 C 127.402 3.4089 -0.0266151 0
M  V30 1277 H 128.595 2.53162 -1.60776 0
M  V30 1278 H 126.148 1.29893 -0.869342 0
M  V30 1279 H 126.883 3.11653 0.896822 0
M  V30 1280 H 126.668 3.85495 -0.716657 0
M  V30 1281 H 128.158 4.17009 0.222028 0
M  V30 1282 N 128.595 0.856903 1.32268 0
M  V30 1283 C 129.525 0.31858 2.31316 0
M  V30 1284 C 130.506 -0.583487 1.59779 0
M  V30 1285 O 131.691 -0.503259 1.87566 0
M  V30 1286 C 128.821 -0.491979 3.43798 0
M  V30 1287 C 127.775 0.315849 4.26833 0
M  V30 1288 C 127.101 -0.619586 5.31098 0
M  V30 1289 C 128.401 1.54282 4.98993 0
M  V30 1290 H 130.095 1.14621 2.76591 0
M  V30 1291 H 127.641 0.552613 1.32974 0
M  V30 1292 H 129.594 -0.879012 4.1213 0
M  V30 1293 H 128.318 -1.35299 2.97257 0
M  V30 1294 H 126.977 0.684664 3.6015 0
M  V30 1295 H 126.625 -1.47751 4.8081 0
M  V30 1296 H 126.325 -0.0830621 5.87541 0
M  V30 1297 H 127.849 -1.00375 6.02293 0
M  V30 1298 H 129.263 1.22796 5.59995 0
M  V30 1299 H 127.66 2.01745 5.65172 0
M  V30 1300 H 128.73 2.30285 4.26728 0
M  V30 1301 N 130.073 -1.45103 0.615059 0
M  V30 1302 C 131.005 -2.28786 -0.13762 0
M  V30 1303 C 132.018 -1.40376 -0.824525 0
M  V30 1304 O 133.207 -1.64681 -0.688662 0
M  V30 1305 C 130.307 -3.16322 -1.21628 0
M  V30 1306 C 129.48 -4.33054 -0.615039 0
M  V30 1307 C 128.539 -5.01743 -1.58556 0
M  V30 1308 O 127.565 -5.58293 -1.10895 0
M  V30 1309 N 128.767 -5.01714 -2.91998 0
M  V30 1310 H 131.532 -2.94025 0.580483 0
M  V30 1311 H 129.093 -1.55373 0.45507 0
M  V30 1312 H 131.085 -3.59139 -1.86552 0
M  V30 1313 H 129.655 -2.52943 -1.83681 0
M  V30 1314 H 128.875 -3.93627 0.21245 0
M  V30 1315 H 130.163 -5.08431 -0.193704 0
M  V30 1316 H 129.561 -4.57075 -3.33316 0
M  V30 1317 H 128.118 -5.48371 -3.52325 0
M  V30 1318 N 131.551 -0.354651 -1.53558 0
M  V30 1319 C 132.499 0.512195 -2.26891 0
M  V30 1320 C 133.493 1.09263 -1.29452 0
M  V30 1321 O 134.699 1.03709 -1.47121 0
M  V30 1322 H 131.074 0.183878 -0.729173 0
M  V30 1323 H 133.045 -0.128202 -2.98124 0
M  V30 1324 C 131.794 1.64563 -3.06291 0
M  V30 1325 H 131.117 1.20829 -3.81104 0
M  V30 1326 H 132.557 2.22711 -3.60799 0
M  V30 1327 C 131.016 2.58158 -2.16462 0
M  V30 1328 O 131.546 3.60695 -1.76811 0
M  V30 1329 N 129.752 2.27096 -1.81317 0
M  V30 1330 H 129.299 1.43751 -2.1376 0
M  V30 1331 H 129.257 2.89975 -1.21498 0
M  V30 1332 N 133.029 1.57378 -0.0835403 0
M  V30 1333 C 133.977 2.14602 0.89714 0
M  V30 1334 C 134.971 1.08589 1.30018 0
M  V30 1335 O 136.177 1.26952 1.27606 0
M  V30 1336 H 132.552 0.686346 0.3073 0
M  V30 1337 H 134.523 2.95845 0.38969 0
M  V30 1338 C 133.272 2.73188 2.15089 0
M  V30 1339 H 132.595 3.54442 1.84962 0
M  V30 1340 H 134.035 3.1681 2.81793 0
M  V30 1341 C 132.494 1.68517 2.91725 0
M  V30 1342 O 133.024 1.11718 3.85852 0
M  V30 1343 N 131.23 1.39277 2.55049 0
M  V30 1344 H 130.777 1.85655 1.78577 0
M  V30 1345 H 130.735 0.694791 3.06627 0
M  V30 1346 N 134.507 -0.190092 1.56449 0
M  V30 1347 C 135.784 -0.935886 1.71757 0
M  V30 1348 C 136.164 -2.01173 0.639726 0
M  V30 1349 O 135.512 -2.25827 -0.348502 0
M  V30 1350 C 135.722 -1.51775 3.1427 0
M  V30 1351 C 137.07 -1.99794 3.74656 0
M  V30 1352 O 138.094 -1.61607 3.1743 0
M  V30 1353 O 136.953 -2.70079 4.751 0
M  V30 1354 H 134.047 -0.439229 0.700719 0
M  V30 1355 H 136.593 -0.179395 1.68749 0
M  V30 1356 H 135.365 -0.742505 3.84191 0
M  V30 1357 H 134.988 -2.33894 3.21527 0
M  V30 1358 N 135.985 -1.50799 -0.457987 0
M  V30 1359 C 137.233 -1.62121 -1.2067 0
M  V30 1360 C 137.554 -0.329793 -1.92191 0
M  V30 1361 O 136.824 0.653409 -1.84682 0
M  V30 1362 H 135.404 -0.597441 -0.448411 0
M  V30 1363 H 138.066 -1.87637 -0.527096 0
M  V30 1364 H 137.162 -2.43882 -1.94751 0
M  V30 1365 N 137.463 0.71206 -1.40597 0
M  V30 1366 C 138.393 1.83889 -1.43899 0
M  V30 1367 C 139.374 1.67442 -0.299504 0
M  V30 1368 O 140.559 1.87421 -0.508624 0
M  V30 1369 C 137.689 3.21877 -1.30431 0
M  V30 1370 C 136.643 3.53002 -2.42019 0
M  V30 1371 C 135.969 4.90172 -2.13626 0
M  V30 1372 C 137.269 3.53643 -3.84362 0
M  V30 1373 H 138.963 1.81383 -2.38203 0
M  V30 1374 H 136.509 0.871237 -1.14654 0
M  V30 1375 H 138.462 4.00404 -1.31357 0
M  V30 1376 H 137.186 3.24968 -0.326049 0
M  V30 1377 H 135.845 2.76818 -2.40349 0
M  V30 1378 H 135.493 4.89869 -1.14182 0
M  V30 1379 H 135.193 5.11962 -2.88389 0
M  V30 1380 H 136.717 5.71028 -2.1624 0
M  V30 1381 H 138.131 4.22203 -3.87837 0
M  V30 1382 H 136.528 3.86961 -4.58673 0
M  V30 1383 H 137.598 2.52954 -4.13693 0
M  V30 1384 N 138.941 1.26152 0.944643 0
M  V30 1385 C 140.171 1.14094 1.72239 0
M  V30 1386 C 140.579 -0.306931 1.86694 0
M  V30 1387 O 139.922 -1.22222 1.3714 0
M  V30 1388 C 139.984 1.73316 3.14963 0
M  V30 1389 C 139.648 3.2239 3.23904 0
M  V30 1390 C 140.645 4.19252 3.07447 0
M  V30 1391 C 138.33 3.62788 3.47405 0
M  V30 1392 C 140.324 5.54491 3.14353 0
M  V30 1393 C 138.011 4.98162 3.53947 0
M  V30 1394 C 139.009 5.93823 3.37436 0
M  V30 1395 O 138.697 7.26732 3.43679 0
M  V30 1396 H 138.429 0.398292 0.546205 0
M  V30 1397 H 140.983 1.67201 1.19301 0
M  V30 1398 H 139.213 1.14667 3.69308 0
M  V30 1399 H 140.902 1.56214 3.74636 0
M  V30 1400 H 141.668 3.8938 2.8915 0
M  V30 1401 H 137.547 2.88816 3.59313 0
M  V30 1402 H 141.091 6.29137 3.01384 0
M  V30 1403 H 136.988 5.27695 3.71763 0
M  V30 1404 H 137.756 7.3496 3.60245 0
M  V30 1405 N 140.419 -1.14872 1.07899 0
M  V30 1406 C 141.696 -1.81928 0.71845 0
M  V30 1407 C 142.076 -1.95417 -0.798455 0
M  V30 1408 O 141.424 -1.50997 -1.715 0
M  V30 1409 C 141.634 -3.17937 1.43935 0
M  V30 1410 C 142.982 -3.93501 1.59506 0
M  V30 1411 O 144.006 -3.27509 1.40058 0
M  V30 1412 O 142.865 -5.1183 1.91551 0
M  V30 1413 H 139.959 -0.78628 0.256305 0
M  V30 1414 H 142.505 -1.21934 1.18026 0
M  V30 1415 H 141.277 -3.0325 2.47295 0
M  V30 1416 H 140.9 -3.85619 0.968687 0
M  V30 1417 N 141.898 -0.863906 -1.31812 0
M  V30 1418 C 143.309 -0.52522 -1.7916 0
M  V30 1419 C 143.66 0.957518 -1.71248 0
M  V30 1420 O 142.785 1.74734 -1.27659 0
M  V30 1421 C 143.38 -0.9466 -3.25307 0
M  V30 1422 C 141.939 -0.659668 -3.70574 0
M  V30 1423 C 141.086 -1.14126 -2.52726 0
M  V30 1424 H 144.037 -1.05022 -1.1898 0
M  V30 1425 H 144.058 -0.266766 -3.79564 0
M  V30 1426 H 143.57 -2.02579 -3.31034 0
M  V30 1427 H 141.671 0.408416 -3.70355 0
M  V30 1428 H 141.784 -1.23245 -4.62977 0
M  V30 1429 H 140.148 -0.561216 -2.4844 0
M  V30 1430 H 140.931 -2.22775 -2.61201 0
M  V30 1431 N 143.376 1.44774 -0.622745 0
M  V30 1432 C 144.653 1.95522 -0.0551974 0
M  V30 1433 C 145.033 1.5649 1.41683 0
M  V30 1434 O 144.381 0.834848 2.12703 0
M  V30 1435 C 144.591 3.4796 -0.269242 0
M  V30 1436 C 145.939 4.24306 -0.158014 0
M  V30 1437 O 146.963 3.55637 -0.200162 0
M  V30 1438 O 145.822 5.46471 -0.0558693 0
M  V30 1439 H 142.916 0.826556 0.0271015 0
M  V30 1440 H 145.462 1.54866 -0.693864 0
M  V30 1441 H 144.234 3.6939 -1.29099 0
M  V30 1442 H 143.857 3.95543 0.403966 0
M  V30 1443 N 144.854 0.36279 1.53368 0
M  V30 1444 C 146.094 -0.227882 2.03126 0
M  V30 1445 C 146.458 -1.4622 1.24434 0
M  V30 1446 O 147.659 -2.12831 1.64184 0
M  V30 1447 C 145.93 -0.515427 3.53664 0
M  V30 1448 S 147.489 -1.08017 4.25297 0
M  V30 1449 H 144.307 -0.0665377 0.70788 0
M  V30 1450 H 146.909 0.50501 1.88865 0
M  V30 1451 H 145.613 0.390436 4.08539 0
M  V30 1452 H 145.144 -1.27747 3.72081 0
M  V30 1453 H 147.159 -2.36462 4.36234 0
M  V30 1454 N 146.332 -1.57332 0.0918853 0
M  V30 1455 C 147.609 -1.85691 -0.614668 0
M  V30 1456 C 147.989 -0.988146 -1.86545 0
M  V30 1457 O 147.337 -0.0597055 -2.28422 0
M  V30 1458 C 147.547 -3.36294 -0.933126 0
M  V30 1459 C 148.895 -4.04275 -1.29796 0
M  V30 1460 O 149.919 -3.41157 -1.02424 0
M  V30 1461 O 148.778 -5.1564 -1.81047 0
M  V30 1462 H 145.872 -0.767802 -0.307261 0
M  V30 1463 H 148.418 -1.69244 0.12434 0
M  V30 1464 H 147.19 -3.91273 -0.0456404 0
M  V30 1465 H 146.813 -3.58076 -1.72822 0
M  V30 1466 N 147.81 0.181792 -1.56548 0
M  V30 1467 C 148.72 1.24538 -1.98815 0
M  V30 1468 C 149.736 1.49045 -0.897861 0
M  V30 1469 O 150.912 1.61399 -1.20467 0
M  V30 1470 C 147.977 2.56683 -2.33055 0
M  V30 1471 C 147.038 2.40131 -3.55859 0
M  V30 1472 C 146.271 3.65975 -3.88456 0
M  V30 1473 O 146.494 4.70711 -3.22161 0
M  V30 1474 O 145.428 3.6071 -4.81842 0
M  V30 1475 H 149.254 0.916647 -2.89536 0
M  V30 1476 H 146.839 0.387842 -1.44278 0
M  V30 1477 H 148.721 3.34655 -2.56094 0
M  V30 1478 H 147.396 2.89157 -1.45498 0
M  V30 1479 H 146.303 1.60226 -3.38051 0
M  V30 1480 H 147.636 2.12585 -4.43924 0
M  V30 1481 N 149.288 1.51039 0.449983 0
M  V30 1482 C 150.513 1.6715 1.22783 0
M  V30 1483 C 150.938 0.363081 1.84563 0
M  V30 1484 O 150.296 -0.675433 1.68249 0
M  V30 1485 C 150.344 2.77985 2.29689 0
M  V30 1486 O 149.448 2.40707 3.34864 0
M  V30 1487 H 148.789 0.557746 0.360299 0
M  V30 1488 H 151.319 1.97535 0.533005 0
M  V30 1489 H 151.329 3.01693 2.74673 0
M  V30 1490 H 150.004 3.72935 1.84098 0
M  V30 1491 H 148.581 2.27523 2.95445 0
M  V30 1492 N 150.766 -0.704594 1.40972 0
M  V30 1493 C 152.014 -1.46169 1.39568 0
M  V30 1494 C 152.335 -1.95 0.00253745 0
M  V30 1495 O 151.605 -1.71095 -0.954114 0
M  V30 1496 H 150.185 -0.542326 0.513704 0
M  V30 1497 H 152.847 -0.834553 1.76128 0
M  V30 1498 H 151.943 -2.32922 2.07735 0
M  V30 1499 N 152.244 -1.26651 -0.937939 0
M  V30 1500 C 153.174 -1.10993 -2.05433 0
M  V30 1501 C 154.155 -0.0142161 -1.70094 0
M  V30 1502 O 155.34 -0.186837 -1.93299 0
M  V30 1503 C 152.47 -0.745561 -3.39203 0
M  V30 1504 C 151.424 -1.79337 -3.88616 0
M  V30 1505 C 150.75 -1.28324 -5.19073 0
M  V30 1506 C 152.05 -3.19553 -4.13138 0
M  V30 1507 H 153.744 -2.0438 -2.1879 0
M  V30 1508 H 151.29 -0.984041 -1.05131 0
M  V30 1509 H 153.243 -0.622888 -4.16771 0
M  V30 1510 H 151.967 0.22401 -3.25831 0
M  V30 1511 H 150.626 -1.90477 -3.13231 0
M  V30 1512 H 150.274 -0.303414 -5.02084 0
M  V30 1513 H 149.974 -1.98369 -5.53103 0
M  V30 1514 H 151.498 -1.1733 -5.99221 0
M  V30 1515 H 152.912 -3.11471 -4.81309 0
M  V30 1516 H 151.309 -3.87218 -4.58457 0
M  V30 1517 H 152.379 -3.65368 -3.18801 0
M  V30 1518 N 153.722 1.14298 -1.08507 0
M  V30 1519 C 154.969 1.85359 -0.815373 0
M  V30 1520 C 155.297 1.83001 0.658865 0
M  V30 1521 O 154.552 1.25655 1.50031 0
M  V30 1522 C 154.851 3.33547 -1.28379 0
M  V30 1523 C 154.517 3.56093 -2.76602 0
M  V30 1524 C 153.179 3.61955 -3.17084 0
M  V30 1525 C 155.531 3.64834 -3.72217 0
M  V30 1526 C 152.859 3.74082 -4.51973 0
M  V30 1527 C 155.211 3.78487 -5.06883 0
M  V30 1528 C 153.875 3.82598 -5.46969 0
M  V30 1529 H 153.145 0.678276 -0.298366 0
M  V30 1530 H 155.792 1.35002 -1.35819 0
M  V30 1531 H 154.097 3.86191 -0.660593 0
M  V30 1532 H 155.794 3.86959 -1.05186 0
M  V30 1533 H 152.384 3.52179 -2.4427 0
M  V30 1534 H 156.568 3.59595 -3.42061 0
M  V30 1535 H 151.824 3.75527 -4.82483 0
M  V30 1536 H 155.998 3.84193 -5.80834 0
M  V30 1537 H 153.625 3.91747 -6.51489 0
M  V30 1538 N 155.201 0.870884 1.31352 0
M  V30 1539 C 156.148 0.325425 2.28494 0
M  V30 1540 C 157.118 -0.576615 1.5577 0
M  V30 1541 O 158.303 -0.508059 1.83911 0
M  V30 1542 C 155.443 -0.466283 3.41935 0
M  V30 1543 C 154.556 0.463378 4.29508 0
M  V30 1544 C 153.691 -0.342544 5.30094 0
M  V30 1545 C 152.73 0.583486 6.09313 0
M  V30 1546 N 151.867 -0.186244 7.01853 0
M  V30 1547 H 156.707 1.15901 2.74538 0
M  V30 1548 H 154.244 0.58294 1.35056 0
M  V30 1549 H 156.202 -0.941085 4.06447 0
M  V30 1550 H 154.832 -1.26456 2.97 0
M  V30 1551 H 153.884 1.05663 3.65431 0
M  V30 1552 H 155.196 1.1734 4.84802 0
M  V30 1553 H 154.35 -0.879816 6.00287 0
M  V30 1554 H 153.089 -1.08585 4.75458 0
M  V30 1555 H 152.094 1.13251 5.3801 0
M  V30 1556 H 153.319 1.32566 6.66035 0
M  V30 1557 H 151.265 -0.912348 6.49625 0
M  V30 1558 H 151.182 0.464422 7.54572 0
M  V30 1559 H 152.45 -0.704716 7.76308 0
M  V30 1560 N 156.679 -1.44442 0.630414 0
M  V30 1561 C 157.642 -2.29107 -0.0652523 0
M  V30 1562 C 158.642 -1.41002 -0.772995 0
M  V30 1563 O 159.832 -1.62881 -0.617692 0
M  V30 1564 C 156.964 -3.22564 -1.10296 0
M  V30 1565 H 158.157 -2.92103 0.679401 0
M  V30 1566 H 155.71 -1.51343 0.390517 0
M  V30 1567 H 156.445 -2.64416 -1.87762 0
M  V30 1568 H 156.23 -3.87491 -0.59941 0
M  V30 1569 H 157.72 -3.86167 -1.5895 0
M  V30 1570 N 158.157 -0.370918 -1.53173 0
M  V30 1571 C 159.104 0.473035 -2.259 0
M  V30 1572 C 160.074 1.07311 -1.26781 0
M  V30 1573 O 161.259 1.1046 -1.55574 0
M  V30 1574 C 158.399 1.60405 -3.05556 0
M  V30 1575 C 157.512 1.02863 -4.19575 0
M  V30 1576 C 156.647 2.12918 -4.86661 0
M  V30 1577 C 155.686 1.52869 -5.92704 0
M  V30 1578 N 154.823 2.56779 -6.53459 0
M  V30 1579 H 159.663 -0.153649 -2.97604 0
M  V30 1580 H 157.2 -0.0875946 -1.46839 0
M  V30 1581 H 159.158 2.27034 -3.50016 0
M  V30 1582 H 157.788 2.20131 -2.36097 0
M  V30 1583 H 156.84 0.252465 -3.79561 0
M  V30 1584 H 158.152 0.549642 -4.95762 0
M  V30 1585 H 157.306 2.87356 -5.34333 0
M  V30 1586 H 156.045 2.6417 -4.09958 0
M  V30 1587 H 155.05 0.769479 -5.44389 0
M  V30 1588 H 156.275 1.02435 -6.7133 0
M  V30 1589 H 154.221 3.07235 -5.79606 0
M  V30 1590 H 154.138 2.13583 -7.25202 0
M  V30 1591 H 155.406 3.30903 -7.05779 0
M  V30 1592 N 159.635 1.57281 -0.100228 0
M  V30 1593 C 160.567 2.11342 0.886972 0
M  V30 1594 C 161.58 1.05182 1.24261 0
M  V30 1595 O 162.769 1.32613 1.19483 0
M  V30 1596 C 159.869 2.5825 2.19454 0
M  V30 1597 C 159.042 3.88302 2.01346 0
M  V30 1598 C 158.101 4.21004 3.15661 0
M  V30 1599 O 157.127 4.9014 2.89398 0
M  V30 1600 N 158.329 3.76818 4.41575 0
M  V30 1601 H 161.094 2.96668 0.425216 0
M  V30 1602 H 158.655 1.61678 0.0847334 0
M  V30 1603 H 160.647 2.7717 2.94888 0
M  V30 1604 H 159.217 1.77907 2.57037 0
M  V30 1605 H 158.437 3.7848 1.10212 0
M  V30 1606 H 159.725 4.73375 1.8653 0
M  V30 1607 H 159.123 3.2102 4.65792 0
M  V30 1608 H 157.68 4.00882 5.13942 0
M  V30 1609 N 161.113 -0.173488 1.56642 0
M  V30 1610 C 162.353 -0.896984 1.83667 0
M  V30 1611 C 162.717 -1.79523 0.680842 0
M  V30 1612 O 163.918 -2.55616 0.831488 0
M  V30 1613 C 162.189 -1.67351 3.15798 0
M  V30 1614 S 163.748 -2.44607 3.64298 0
M  V30 1615 H 160.566 -0.300464 0.644393 0
M  V30 1616 H 163.168 -0.158775 1.94854 0
M  V30 1617 H 161.872 -1.00462 3.97914 0
M  V30 1618 H 161.403 -2.45313 3.07546 0
M  V30 1619 H 163.418 -3.69261 3.31452 0
M  V30 1620 N 162.591 -1.51276 -0.441967 0
M  V30 1621 C 163.539 -1.72823 -1.55676 0
M  V30 1622 C 164.533 -0.59445 -1.58627 0
M  V30 1623 O 165.739 -0.775715 -1.62427 0
M  V30 1624 H 162.114 -0.545983 -0.517113 0
M  V30 1625 H 164.085 -2.6628 -1.34675 0
M  V30 1626 C 162.834 -1.86619 -2.93375 0
M  V30 1627 H 162.157 -2.73264 -2.91834 0
M  V30 1628 H 163.597 -2.05709 -3.70756 0
M  V30 1629 C 162.056 -0.624842 -3.31055 0
M  V30 1630 O 162.586 0.222636 -4.01083 0
M  V30 1631 N 160.792 -0.470288 -2.86769 0
M  V30 1632 H 160.339 -1.161 -2.29953 0
M  V30 1633 H 160.297 0.359051 -3.12343 0
M  V30 1634 N 164.069 0.697108 -1.41344 0
M  V30 1635 C 165.317 1.45426 -1.40341 0
M  V30 1636 C 165.638 1.94996 -0.0128787 0
M  V30 1637 O 164.908 1.71599 0.945027 0
M  V30 1638 H 163.488 0.539594 -0.516573 0
M  V30 1639 H 166.15 0.825201 -1.76569 0
M  V30 1640 H 165.246 2.31817 -2.08967 0
M  V30 1641 N 165.547 1.27147 0.931209 0
M  V30 1642 C 166.775 1.16082 1.71267 0
M  V30 1643 C 167.19 -0.282772 1.8667 0
M  V30 1644 O 166.547 -1.19283 1.38122 0
M  V30 1645 C 166.598 1.8358 3.11417 0
M  V30 1646 O 166.319 3.22299 2.96741 0
M  V30 1647 C 167.82 1.78597 4.05732 0
M  V30 1648 H 165.04 0.403758 0.535929 0
M  V30 1649 H 167.584 1.67953 1.16671 0
M  V30 1650 H 165.739 1.35623 3.62885 0
M  V30 1651 H 166.153 3.55851 3.85319 0
M  V30 1652 H 167.627 2.30444 5.01597 0
M  V30 1653 H 168.104 0.754564 4.3267 0
M  V30 1654 H 168.71 2.26152 3.60188 0
M  V30 1655 N 167.025 -1.13721 1.09112 0
M  V30 1656 C 168.25 -1.89314 0.847053 0
M  V30 1657 C 168.675 -1.78416 -0.595774 0
M  V30 1658 O 168.033 -1.12942 -1.41823 0
M  V30 1659 C 168.081 -3.3701 1.28284 0
M  V30 1660 O 167.185 -4.10054 0.439267 0
M  V30 1661 H 166.526 -0.588745 0.307044 0
M  V30 1662 H 169.056 -1.43902 1.45442 0
M  V30 1663 H 169.066 -3.87834 1.26683 0
M  V30 1664 H 167.741 -3.4426 2.33363 0
M  V30 1665 H 166.318 -3.69266 0.519312 0
M  V30 1666 N 168.503 -0.877838 -1.30888 0
M  V30 1667 C 169.436 -0.283995 -2.26426 0
M  V30 1668 C 170.414 0.591361 -1.51465 0
M  V30 1669 O 171.598 0.54304 -1.80509 0
M  V30 1670 C 168.725 0.597129 -3.33395 0
M  V30 1671 C 167.771 -0.207937 -4.25993 0
M  V30 1672 S 168.604 -1.59158 -5.11301 0
M  V30 1673 C 169.76 -0.716791 -6.21782 0
M  V30 1674 H 169.993 -1.09383 -2.76446 0
M  V30 1675 H 167.526 -0.676828 -1.38775 0
M  V30 1676 H 169.484 1.09978 -3.95493 0
M  V30 1677 H 168.145 1.38099 -2.82113 0
M  V30 1678 H 167.338 0.464163 -5.01858 0
M  V30 1679 H 166.94 -0.642963 -3.68432 0
M  V30 1680 H 169.232 0.0692833 -6.77465 0
M  V30 1681 H 170.175 -1.44682 -6.93161 0
M  V30 1682 H 170.583 -0.280855 -5.63801 0
M  V30 1683 N 169.982 1.44106 -0.638065 0
M  V30 1684 C 171.222 2.03858 -0.148733 0
M  V30 1685 C 171.586 1.49153 1.20903 0
M  V30 1686 O 172.787 2.00452 1.79088 0
M  V30 1687 C 171.058 3.57117 -0.142314 0
M  V30 1688 S 172.617 4.37897 0.281385 0
M  V30 1689 H 169.435 0.708069 -0.0644912 0
M  V30 1690 H 172.037 1.7639 -0.843009 0
M  V30 1691 H 170.741 3.94436 -1.13349 0
M  V30 1692 H 170.272 3.89205 0.572988 0
M  V30 1693 H 172.287 4.72218 1.52395 0
M  V30 1694 N 171.46 0.379036 1.52974 0
M  V30 1695 C 172.706 -0.199244 2.02422 0
M  V30 1696 C 173.061 -1.4532 1.26095 0
M  V30 1697 O 172.354 -1.88377 0.34996 0
M  V30 1698 C 172.548 -0.53096 3.53434 0
M  V30 1699 C 172.377 0.689298 4.44386 0
M  V30 1700 C 171.147 1.20546 4.9071 0
M  V30 1701 C 173.345 1.55856 4.90116 0
M  V30 1702 N 171.327 2.38434 5.65705 0
M  V30 1703 C 172.698 2.58396 5.63588 0
M  V30 1704 C 174.753 1.57986 4.7217 0
M  V30 1705 C 173.456 3.62939 6.21022 0
M  V30 1706 C 175.482 2.6143 5.30479 0
M  V30 1707 C 174.844 3.62693 6.03849 0
M  V30 1708 H 170.943 -0.0352671 0.781204 0
M  V30 1709 H 173.527 0.526614 1.87443 0
M  V30 1710 H 171.698 -1.22588 3.68547 0
M  V30 1711 H 173.43 -1.0955 3.89591 0
M  V30 1712 H 170.185 0.768022 4.67331 0
M  V30 1713 H 170.609 2.98055 6.07859 0
M  V30 1714 H 175.251 0.810475 4.14959 0
M  V30 1715 H 172.969 4.40751 6.77321 0
M  V30 1716 H 176.555 2.63949 5.18481 0
M  V30 1717 H 175.435 4.41424 6.48163 0
M  V30 1718 N 172.938 -1.57226 0.108567 0
M  V30 1719 C 174.178 -1.96717 -0.555155 0
M  V30 1720 C 174.542 -0.990003 -1.64508 0
M  V30 1721 O 175.743 -1.2739 -2.36696 0
M  V30 1722 C 174.014 -3.40575 -1.08367 0
M  V30 1723 S 175.573 -4.02072 -1.75737 0
M  V30 1724 H 172.391 -0.687638 -0.180762 0
M  V30 1725 H 174.993 -1.94563 0.191172 0
M  V30 1726 H 173.697 -4.0945 -0.279092 0
M  V30 1727 H 173.228 -3.46356 -1.86551 0
M  V30 1728 H 175.243 -3.91977 -3.04251 0
M  V30 1729 N 174.416 0.165178 -1.56732 0
M  V30 1730 C 175.662 0.882112 -1.82611 0
M  V30 1731 C 175.995 1.81628 -0.687378 0
M  V30 1732 O 175.27 1.92009 0.310267 0
M  V30 1733 C 175.553 1.67245 -3.18906 0
M  V30 1734 C 175.406 0.760987 -4.43316 0
M  V30 1735 C 176.725 2.63884 -3.52212 0
M  V30 1736 H 173.844 0.319242 -0.664269 0
M  V30 1737 H 176.486 0.148052 -1.89422 0
M  V30 1738 H 174.636 2.29824 -3.1323 0
M  V30 1739 H 176.308 0.147596 -4.61064 0
M  V30 1740 H 174.551 0.0694102 -4.33744 0
M  V30 1741 H 175.222 1.34962 -5.35247 0
M  V30 1742 H 177.698 2.11429 -3.58381 0
M  V30 1743 H 176.574 3.16245 -4.48643 0
M  V30 1744 H 176.835 3.44377 -2.77231 0
M  V30 1745 N 175.894 1.51508 0.433938 0
M  V30 1746 C 176.842 1.73646 1.54757 0
M  V30 1747 C 177.836 0.602854 1.5831 0
M  V30 1748 O 179.042 0.784318 1.62014 0
M  V30 1749 H 175.417 0.548718 0.51421 0
M  V30 1750 H 177.388 2.66991 1.33261 0
M  V30 1751 C 176.137 1.88172 2.92381 0
M  V30 1752 H 175.46 2.74808 2.90381 0
M  V30 1753 H 176.9 2.07672 3.6966 0
M  V30 1754 C 175.359 0.64239 3.30719 0
M  V30 1755 O 175.889 -0.201362 4.01195 0
M  V30 1756 N 174.095 0.485489 2.86516 0
M  V30 1757 H 173.642 1.17318 2.29334 0
M  V30 1758 H 173.6 -0.342482 3.12529 0
M  V30 1759 N 177.372 -0.689602 1.41712 0
M  V30 1760 C 178.6 -1.47827 1.44758 0
M  V30 1761 C 179.015 -1.88721 0.0545703 0
M  V30 1762 O 178.372 -1.57176 -0.927463 0
M  V30 1763 C 178.423 -2.73698 2.3616 0
M  V30 1764 O 178.144 -2.34524 3.7004 0
M  V30 1765 C 179.645 -3.67389 2.48072 0
M  V30 1766 H 176.865 -0.455357 0.49284 0
M  V30 1767 H 179.409 -0.848574 1.86063 0
M  V30 1768 H 177.564 -3.32891 1.98148 0
M  V30 1769 H 177.978 -3.15701 4.18847 0
M  V30 1770 H 179.452 -4.52475 3.16181 0
M  V30 1771 H 179.929 -4.12284 1.51388 0
M  V30 1772 H 180.535 -3.14097 2.86746 0
M  V30 1773 N 178.85 -1.27639 -0.924453 0
M  V30 1774 C 179.813 -1.10681 -2.00705 0
M  V30 1775 C 180.813 -0.0497823 -1.60723 0
M  V30 1776 O 182.003 -0.294654 -1.7169 0
M  V30 1777 C 179.135 -0.687164 -3.33902 0
M  V30 1778 H 180.328 -2.06817 -2.17179 0
M  V30 1779 H 177.881 -1.10473 -1.10569 0
M  V30 1780 H 178.616 0.275439 -3.23128 0
M  V30 1781 H 178.401 -1.45061 -3.6428 0
M  V30 1782 H 179.891 -0.590853 -4.13399 0
M  V30 1783 N 180.328 1.1314 -1.09713 0
M  V30 1784 C 181.576 1.84119 -0.833338 0
M  V30 1785 C 181.897 1.84097 0.642904 0
M  V30 1786 O 181.167 1.29881 1.46655 0
M  V30 1787 H 179.747 0.681766 -0.305293 0
M  V30 1788 H 182.409 1.37038 -1.38588 0
M  V30 1789 H 181.505 2.88543 -1.18951 0
M  V30 1790 N 181.806 0.884767 1.30421 0
M  V30 1791 C 183.052 0.503851 1.96441 0
M  V30 1792 C 183.385 -0.944518 1.69684 0
M  V30 1793 O 182.66 -1.66737 1.00145 0
M  V30 1794 C 182.943 0.779085 3.51571 0
M  V30 1795 C 182.796 2.27807 3.87846 0
M  V30 1796 C 184.115 0.255452 4.39358 0
M  V30 1797 H 181.234 0.184533 0.713524 0
M  V30 1798 H 183.876 1.10872 1.54297 0
M  V30 1799 H 182.026 0.264274 3.876 0
M  V30 1800 H 183.698 2.86127 3.61841 0
M  V30 1801 H 181.941 2.74479 3.35922 0
M  V30 1802 H 182.612 2.42125 4.96064 0
M  V30 1803 H 185.088 0.696079 4.10236 0
M  V30 1804 H 183.964 0.477361 5.4682 0
M  V30 1805 H 184.225 -0.843293 4.33983 0
M  V30 1806 N 183.284 -1.43765 0.645699 0
M  V30 1807 C 184.7 -1.56509 0.312591 0
M  V30 1808 C 184.9 -1.6307 -1.18365 0
M  V30 1809 O 183.956 -1.58167 -1.96824 0
M  V30 1810 C 185.269 -2.82968 1.01733 0
M  V30 1811 C 186.817 -2.96701 0.996865 0
M  V30 1812 C 187.292 -4.25982 1.68236 0
M  V30 1813 N 188.783 -4.32829 1.64964 0
M  V30 1814 C 189.518 -5.31613 2.14885 0
M  V30 1815 N 189.014 -6.36718 2.73061 0
M  V30 1816 N 190.807 -5.23217 2.05428 0
M  V30 1817 H 182.958 -1.3775 1.61675 0
M  V30 1818 H 185.221 -0.661067 0.679481 0
M  V30 1819 H 184.927 -2.84156 2.0724 0
M  V30 1820 H 184.801 -3.72957 0.564177 0
M  V30 1821 H 187.188 -2.95058 -0.0497719 0
M  V30 1822 H 187.269 -2.08022 1.48865 0
M  V30 1823 H 186.913 -4.28386 2.72852 0
M  V30 1824 H 186.843 -5.13545 1.16529 0
M  V30 1825 H 189.334 -3.57493 1.22503 0
M  V30 1826 H 189.647 -7.08401 3.08848 0
M  V30 1827 H 187.992 -6.37362 2.77118 0
M  V30 1828 H 191.183 -4.40019 1.59689 0
M  V30 1829 H 191.356 -6.00045 2.44643 0
M  V30 1830 N 184.763 -0.387143 -1.52771 0
M  V30 1831 C 186.179 -0.037007 -1.59557 0
M  V30 1832 C 186.379 1.44801 -1.40124 0
M  V30 1833 O 185.435 2.21227 -1.21716 0
M  V30 1834 C 186.748 -0.512256 -2.96305 0
M  V30 1835 C 188.296 -0.468328 -3.09476 0
M  V30 1836 C 188.771 -0.919731 -4.4867 0
M  V30 1837 N 190.262 -0.875656 -4.54848 0
M  V30 1838 C 190.997 -1.19637 -5.6078 0
M  V30 1839 N 190.493 -1.58745 -6.74368 0
M  V30 1840 N 192.286 -1.11776 -5.50874 0
M  V30 1841 H 184.437 -1.35395 -1.63652 0
M  V30 1842 H 186.7 -0.554818 -0.768688 0
M  V30 1843 H 186.406 -1.54935 -3.15734 0
M  V30 1844 H 186.28 0.089805 -3.77093 0
M  V30 1845 H 188.667 0.559671 -2.89744 0
M  V30 1846 H 188.748 -1.10616 -2.30646 0
M  V30 1847 H 188.392 -1.94595 -4.69143 0
M  V30 1848 H 188.322 -0.258927 -5.25963 0
M  V30 1849 H 190.813 -0.587843 -3.733 0
M  V30 1850 H 191.126 -1.81586 -7.51163 0
M  V30 1851 H 189.471 -1.6263 -6.75705 0
M  V30 1852 H 192.662 -0.811264 -4.61016 0
M  V30 1853 H 192.835 -1.37103 -6.3333 0
M  V30 1854 N 186.241 1.57166 -0.116904 0
M  V30 1855 C 187.469 1.99473 0.549383 0
M  V30 1856 C 187.884 0.996541 1.60357 0
M  V30 1857 O 187.241 -0.0108731 1.82497 0
M  V30 1858 C 187.292 3.41788 1.17741 0
M  V30 1859 O 187.013 4.37788 0.165362 0
M  V30 1860 C 188.514 3.99216 1.92722 0
M  V30 1861 H 185.734 0.655009 0.145616 0
M  V30 1862 H 188.278 2.03494 -0.202625 0
M  V30 1863 H 186.433 3.38713 1.88021 0
M  V30 1864 H 186.847 5.20806 0.621403 0
M  V30 1865 H 188.321 5.00882 2.31995 0
M  V30 1866 H 188.798 3.3824 2.80161 0
M  V30 1867 H 189.404 4.0583 1.27209 0
M  V30 1868 N 187.719 -0.156864 1.56817 0
M  V30 1869 C 188.996 -0.899244 1.73704 0
M  V30 1870 C 189.376 -1.99771 0.682254 0
M  V30 1871 O 188.724 -2.26515 -0.300522 0
M  V30 1872 C 188.934 -1.45075 3.17418 0
M  V30 1873 C 190.282 -1.91802 3.7881 0
M  V30 1874 O 191.306 -1.54838 3.20786 0
M  V30 1875 O 190.165 -2.5994 4.80722 0
M  V30 1876 H 187.259 -0.424267 0.709878 0
M  V30 1877 H 189.805 -0.143561 1.69092 0
M  V30 1878 H 188.577 -0.660846 3.85679 0
M  V30 1879 H 188.2 -2.27021 3.26416 0
M  V30 1880 N 189.197 -1.51736 -0.425897 0
M  V30 1881 C 190.144 -1.73875 -1.51776 0
M  V30 1882 C 191.114 -0.580702 -1.55618 0
M  V30 1883 O 192.299 -0.81641 -1.72451 0
M  V30 1884 C 189.439 -1.88012 -2.89388 0
M  V30 1885 C 188.552 -3.15606 -2.94986 0
M  V30 1886 C 187.687 -3.20271 -4.23793 0
M  V30 1887 C 186.726 -4.42134 -4.23302 0
M  V30 1888 N 185.863 -4.44284 -5.43651 0
M  V30 1889 H 190.703 -2.67071 -1.32201 0
M  V30 1890 H 188.24 -1.32351 -0.642008 0
M  V30 1891 H 190.198 -1.9419 -3.69251 0
M  V30 1892 H 188.828 -0.98213 -3.07496 0
M  V30 1893 H 187.88 -3.18681 -2.07717 0
M  V30 1894 H 189.192 -4.05486 -2.90486 0
M  V30 1895 H 188.346 -3.25428 -5.12036 0
M  V30 1896 H 187.085 -2.28299 -4.30965 0
M  V30 1897 H 186.09 -4.3714 -3.3345 0
M  V30 1898 H 187.315 -5.35382 -4.17783 0
M  V30 1899 H 185.261 -3.55188 -5.51523 0
M  V30 1900 H 185.178 -5.27988 -5.41078 0
M  V30 1901 H 186.446 -4.53649 -6.33895 0
M  V30 1902 N 190.675 0.682077 -1.42076 0
M  V30 1903 C 191.952 1.43755 -1.32642 0
M  V30 1904 C 192.332 2.11063 0.0396611 0
M  V30 1905 O 191.68 2.02701 1.05474 0
M  V30 1906 C 191.89 2.44596 -2.48946 0
M  V30 1907 C 193.238 3.09454 -2.9073 0
M  V30 1908 O 194.262 2.54922 -2.48783 0
M  V30 1909 O 193.121 4.08253 -3.63307 0
M  V30 1910 H 190.215 0.640857 -0.522715 0
M  V30 1911 H 192.761 0.711415 -1.54068 0
M  V30 1912 H 191.533 1.93609 -3.40046 0
M  V30 1913 H 191.156 3.24701 -2.29467 0
M  V30 1914 N 192.153 1.28127 0.917671 0
M  V30 1915 C 193.381 1.17892 1.70026 0
M  V30 1916 C 193.796 -0.262958 1.8696 0
M  V30 1917 O 193.153 -1.17811 1.3938 0
M  V30 1918 C 193.204 1.86872 3.09453 0
M  V30 1919 O 192.925 3.25428 2.93306 0
M  V30 1920 C 194.426 1.8289 4.03815 0
M  V30 1921 H 191.646 0.40942 0.531617 0
M  V30 1922 H 194.19 1.69181 1.14883 0
M  V30 1923 H 192.345 1.39464 3.61426 0
M  V30 1924 H 192.759 3.59918 3.81523 0
M  V30 1925 H 194.233 2.35751 4.99125 0
M  V30 1926 H 194.71 0.800412 4.31845 0
M  V30 1927 H 195.316 2.29959 3.57769 0
M  V30 1928 N 193.631 -1.12557 1.10312 0
M  V30 1929 C 194.541 -2.21841 0.763142 0
M  V30 1930 C 195.557 -1.72354 -0.238801 0
M  V30 1931 O 196.733 -2.01249 -0.0778746 0
M  V30 1932 C 193.798 -3.46131 0.198632 0
M  V30 1933 C 192.859 -4.10464 1.25769 0
M  V30 1934 C 192.092 -5.28821 0.72002 0
M  V30 1935 O 192.315 -5.6859 -0.453993 0
M  V30 1936 O 191.249 -5.83437 1.47935 0
M  V30 1937 H 195.075 -2.53312 1.67532 0
M  V30 1938 H 192.66 -1.20867 0.878157 0
M  V30 1939 H 194.542 -4.2125 -0.112401 0
M  V30 1940 H 193.217 -3.16338 -0.686419 0
M  V30 1941 H 192.124 -3.3713 1.62156 0
M  V30 1942 H 193.457 -4.44408 2.11571 0
M  V30 1943 N 195.109 -0.891671 -1.2995 0
M  V30 1944 C 196.358 -0.509521 -1.95158 0
M  V30 1945 C 196.671 0.947388 -1.71125 0
M  V30 1946 O 197.877 1.43669 -2.30372 0
M  V30 1947 C 196.333 -0.860315 -3.49466 0
M  V30 1948 C 195.941 -2.33545 -3.8231 0
M  V30 1949 C 197.685 -0.547687 -4.20952 0
M  V30 1950 C 195.592 -2.62752 -5.29826 0
M  V30 1951 H 194.522 -0.18682 -0.730489 0
M  V30 1952 H 197.173 -1.08756 -1.47798 0
M  V30 1953 H 195.555 -0.211285 -3.95436 0
M  V30 1954 H 196.729 -3.02936 -3.47227 0
M  V30 1955 H 195.044 -2.61629 -3.23944 0
M  V30 1956 H 197.641 -0.742854 -5.29515 0
M  V30 1957 H 197.984 0.51332 -4.13123 0
M  V30 1958 H 198.517 -1.1542 -3.80688 0
M  V30 1959 H 195.256 -3.6762 -5.42712 0
M  V30 1960 H 194.776 -1.97977 -5.66185 0
M  V30 1961 H 196.455 -2.48601 -5.97333 0
M  V30 1962 N 196.587 1.43421 -0.653314 0
M  V30 1963 C 197.815 2.06163 -0.174491 0
M  V30 1964 C 198.23 1.48969 1.1599 0
M  V30 1965 O 197.587 0.621042 1.71608 0
M  V30 1966 C 197.638 3.61417 -0.0774865 0
M  V30 1967 O 197.359 4.16485 -1.35912 0
M  V30 1968 C 198.86 4.41235 0.427402 0
M  V30 1969 H 196.08 0.664946 -0.0899353 0
M  V30 1970 H 198.624 1.83924 -0.893988 0
M  V30 1971 H 196.779 3.82841 0.59257 0
M  V30 1972 H 197.193 5.10153 -1.21839 0
M  V30 1973 H 198.667 5.5021 0.44423 0
M  V30 1974 H 199.144 4.14268 1.45873 0
M  V30 1975 H 199.75 4.2478 -0.210167 0
M  V30 1976 N 198.065 0.39524 1.52563 0
M  V30 1977 C 199.305 -0.184744 2.03563 0
M  V30 1978 C 199.669 -1.43548 1.27507 0
M  V30 1979 O 200.87 -2.093 1.68662 0
M  V30 1980 C 199.141 -0.440294 3.54678 0
M  V30 1981 S 200.7 -0.989712 4.27493 0
M  V30 1982 H 197.518 -0.0515075 0.709132 0
M  V30 1983 H 200.12 0.544957 1.87751 0
M  V30 1984 H 198.824 0.477005 4.07618 0
M  V30 1985 H 198.355 -1.19825 3.74707 0
M  V30 1986 H 200.37 -2.27155 4.41152 0
M  V30 1987 N 199.544 -1.57102 0.125237 0
M  V30 1988 C 200.769 -2.0019 -0.542101 0
M  V30 1989 C 201.194 -1.00449 -1.59034 0
M  V30 1990 O 200.552 0.0229423 -1.81285 0
M  V30 1991 C 200.6 -3.42129 -1.13929 0
M  V30 1992 O 199.704 -3.45307 -2.2547 0
M  V30 1993 H 199.045 -0.650171 -0.134812 0
M  V30 1994 H 201.575 -2.03461 0.215553 0
M  V30 1995 H 201.585 -3.80471 -1.4733 0
M  V30 1996 H 200.26 -4.14237 -0.371531 0
M  V30 1997 H 198.837 -3.1879 -1.93462 0
M  V30 1998 N 201.022 0.148545 -1.56898 0
M  V30 1999 C 201.932 1.20293 -2.01412 0
M  V30 2000 C 202.948 1.47107 -0.929273 0
M  V30 2001 O 204.124 1.58807 -1.23863 0
M  V30 2002 C 201.189 2.51682 -2.38447 0
M  V30 2003 C 200.25 2.32529 -3.60872 0
M  V30 2004 C 199.483 3.57653 -3.96132 0
M  V30 2005 O 199.706 4.63771 -3.32073 0
M  V30 2006 O 198.64 3.50408 -4.89385 0
M  V30 2007 H 202.466 0.855025 -2.91416 0
M  V30 2008 H 200.051 0.357151 -1.45068 0
M  V30 2009 H 201.933 3.29147 -2.63135 0
M  V30 2010 H 200.608 2.86006 -1.51599 0
M  V30 2011 H 199.515 1.53019 -3.41373 0
M  V30 2012 H 200.848 2.03121 -4.48333 0
M  V30 2013 N 202.5 1.5196 0.417844 0
M  V30 2014 C 203.916 1.40569 0.755816 0
M  V30 2015 C 204.116 0.503316 1.95113 0
M  V30 2016 O 203.172 -0.0341925 2.52477 0
M  V30 2017 C 204.485 2.82947 1.01791 0
M  V30 2018 C 206.033 2.92231 1.12116 0
M  V30 2019 C 206.508 4.35559 1.41608 0
M  V30 2020 N 207.999 4.38753 1.48491 0
M  V30 2021 C 208.734 5.46705 1.7292 0
M  V30 2022 N 208.23 6.64788 1.95011 0
M  V30 2023 N 210.023 5.34209 1.74863 0
M  V30 2024 H 202.174 2.09168 -0.369098 0
M  V30 2025 H 204.437 0.942409 -0.102809 0
M  V30 2026 H 204.143 3.5106 0.212081 0
M  V30 2027 H 204.017 3.23462 1.94042 0
M  V30 2028 H 206.404 2.24304 1.9176 0
M  V30 2029 H 206.485 2.55185 0.177225 0
M  V30 2030 H 206.129 5.04042 0.624848 0
M  V30 2031 H 206.059 4.70133 2.37239 0
M  V30 2032 H 208.55 3.5363 1.33244 0
M  V30 2033 H 208.863 7.42845 2.13076 0
M  V30 2034 H 207.208 6.67869 1.92293 0
M  V30 2035 H 210.399 4.40937 1.57137 0
M  V30 2036 H 210.572 6.18415 1.93563 0
M  V30 2037 N 203.978 -0.674533 1.42435 0
M  V30 2038 C 205.224 -1.43671 1.43131 0
M  V30 2039 C 205.557 -1.94142 0.0476021 0
M  V30 2040 O 204.832 -1.70924 -0.928188 0
M  V30 2041 C 205.115 -2.63355 2.45594 0
M  V30 2042 C 204.968 -2.18514 3.93156 0
M  V30 2043 C 206.287 -3.65571 2.45043 0
M  V30 2044 H 203.406 -0.521077 0.521198 0
M  V30 2045 H 206.048 -0.766551 1.7385 0
M  V30 2046 H 204.198 -3.2053 2.19528 0
M  V30 2047 H 205.87 -1.66504 4.30202 0
M  V30 2048 H 204.113 -1.50086 4.07009 0
M  V30 2049 H 204.784 -3.04484 4.60428 0
M  V30 2050 H 207.26 -3.18113 2.68223 0
M  V30 2051 H 206.136 -4.46893 3.18713 0
M  V30 2052 H 206.397 -4.16716 1.47649 0
M  V30 2053 N 205.456 -1.28612 -0.910864 0
M  V30 2054 C 206.872 -1.06381 -1.18976 0
M  V30 2055 C 207.072 0.191998 -2.00583 0
M  V30 2056 O 206.128 0.892869 -2.36187 0
M  V30 2057 C 207.441 -2.31295 -1.92154 0
M  V30 2058 C 208.989 -2.36503 -2.05025 0
M  V30 2059 C 209.464 -3.61191 -2.81612 0
M  V30 2060 N 210.955 -3.61847 -2.89172 0
M  V30 2061 C 211.69 -4.55004 -3.4894 0
M  V30 2062 N 211.186 -5.58482 -4.09963 0
M  V30 2063 N 212.979 -4.42594 -3.46506 0
M  V30 2064 H 205.13 -2.09221 -0.366094 0
M  V30 2065 H 207.393 -0.921003 -0.224629 0
M  V30 2066 H 207.099 -3.228 -1.39618 0
M  V30 2067 H 206.973 -2.37934 -2.9269 0
M  V30 2068 H 209.36 -1.45494 -2.5674 0
M  V30 2069 H 209.441 -2.33857 -1.03657 0
M  V30 2070 H 209.085 -4.52545 -2.30576 0
M  V30 2071 H 209.015 -3.61092 -3.83302 0
M  V30 2072 H 211.506 -2.87022 -2.45819 0
M  V30 2073 H 211.819 -6.25704 -4.53557 0
M  V30 2074 H 210.164 -5.62305 -4.08459 0
M  V30 2075 H 213.355 -3.60953 -2.98045 0
M  V30 2076 H 213.528 -5.15381 -3.92793 0
M  V30 2077 N 206.934 1.1197 -1.10907 0
M  V30 2078 C 208.162 1.87402 -0.876824 0
M  V30 2079 C 208.577 1.79894 0.573025 0
M  V30 2080 O 207.934 1.17629 1.39534 0
M  V30 2081 C 207.985 3.36428 -1.32282 0
M  V30 2082 O 207.706 3.43765 -2.71582 0
M  V30 2083 C 209.207 4.28783 -1.12518 0
M  V30 2084 H 206.427 0.592793 -0.314384 0
M  V30 2085 H 208.971 1.41649 -1.47499 0
M  V30 2086 H 207.126 3.79706 -0.768229 0
M  V30 2087 H 207.54 4.3652 -2.90776 0
M  V30 2088 H 209.014 5.31613 -1.48633 0
M  V30 2089 H 209.491 4.39153 -0.0642394 0
M  V30 2090 H 210.097 3.91291 -1.66648 0
M  V30 2091 N 208.412 0.89855 1.29475 0
M  V30 2092 C 209.642 0.538479 1.99459 0
M  V30 2093 C 210.05 -0.880922 1.67441 0
M  V30 2094 O 209.393 -1.59283 0.915127 0
M  V30 2095 C 209.455 0.649564 3.53583 0
M  V30 2096 C 209.119 2.03573 4.09154 0
M  V30 2097 C 210.116 3.00675 4.24135 0
M  V30 2098 C 207.801 2.3448 4.44212 0
M  V30 2099 C 209.795 4.26809 4.73405 0
M  V30 2100 C 207.482 3.60857 4.93179 0
M  V30 2101 C 208.48 4.56836 5.0773 0
M  V30 2102 O 208.168 5.80969 5.55635 0
M  V30 2103 H 207.9 0.205372 0.644048 0
M  V30 2104 H 210.454 1.20958 1.66007 0
M  V30 2105 H 208.684 -0.0785592 3.8662 0
M  V30 2106 H 210.373 0.29881 4.04799 0
M  V30 2107 H 211.139 2.78112 3.97339 0
M  V30 2108 H 207.018 1.60534 4.32145 0
M  V30 2109 H 210.562 5.0173 4.84678 0
M  V30 2110 H 206.459 3.83251 5.19412 0
M  V30 2111 H 207.227 5.83542 5.73952 0
M  V30 2112 N 209.89 -1.43072 0.660911 0
M  V30 2113 C 211.136 -2.02545 0.186337 0
M  V30 2114 C 211.491 -1.51253 -1.18913 0
M  V30 2115 O 210.784 -0.699167 -1.78388 0
M  V30 2116 C 210.978 -3.57103 0.145563 0
M  V30 2117 C 210.807 -4.23393 1.51554 0
M  V30 2118 C 209.577 -4.59144 2.10984 0
M  V30 2119 C 211.775 -4.51897 2.45548 0
M  V30 2120 N 209.757 -5.10545 3.40907 0
M  V30 2121 C 211.128 -5.04698 3.6011 0
M  V30 2122 C 213.183 -4.33872 2.44253 0
M  V30 2123 C 211.886 -5.41371 4.73613 0
M  V30 2124 C 213.912 -4.71612 3.56842 0
M  V30 2125 C 213.274 -5.24553 4.70131 0
M  V30 2126 H 209.373 -0.773823 0.112792 0
M  V30 2127 H 211.957 -1.74137 0.870885 0
M  V30 2128 H 210.128 -3.85059 -0.508353 0
M  V30 2129 H 211.86 -4.03264 -0.340598 0
M  V30 2130 H 208.615 -4.4444 1.63615 0
M  V30 2131 H 209.039 -5.40689 4.07411 0
M  V30 2132 H 213.681 -3.92208 1.579 0
M  V30 2133 H 211.399 -5.81975 5.60652 0
M  V30 2134 H 214.985 -4.59354 3.57051 0
M  V30 2135 H 213.865 -5.53213 5.5581 0
M  V30 2136 N 211.368 -0.403325 -1.52352 0
M  V30 2137 C 212.617 0.175668 -2.00934 0
M  V30 2138 C 212.93 1.46718 -1.29356 0
M  V30 2139 O 214.136 2.12708 -1.68724 0
M  V30 2140 C 212.592 0.363612 -3.58058 0
M  V30 2141 C 212.2 -0.915472 -4.38547 0
M  V30 2142 C 213.944 0.89821 -4.14888 0
M  V30 2143 C 211.851 -0.695035 -5.87302 0
M  V30 2144 H 210.781 0.0694234 -0.750797 0
M  V30 2145 H 213.432 -0.527879 -1.75743 0
M  V30 2146 H 211.814 1.12935 -3.79555 0
M  V30 2147 H 212.988 -1.68691 -4.28812 0
M  V30 2148 H 211.303 -1.37606 -3.93006 0
M  V30 2149 H 213.9 1.07907 -5.23699 0
M  V30 2150 H 214.243 1.87126 -3.71873 0
M  V30 2151 H 214.776 0.191681 -3.97338 0
M  V30 2152 H 211.515 -1.63948 -6.34666 0
M  V30 2153 H 211.035 0.0372116 -5.99788 0
M  V30 2154 H 212.714 -0.33497 -6.46132 0
M  V30 2155 N 212.846 1.57033 -0.133567 0
M  V30 2156 C 214.095 1.94861 0.520768 0
M  V30 2157 C 214.408 1.02012 1.66892 0
M  V30 2158 O 215.614 1.29365 2.38699 0
M  V30 2159 C 214.07 3.46362 0.977809 0
M  V30 2160 C 213.678 4.47773 -0.142674 0
M  V30 2161 C 215.422 3.93083 1.60269 0
M  V30 2162 C 213.329 5.90468 0.331883 0
M  V30 2163 H 212.259 0.727453 0.198315 0
M  V30 2164 H 214.91 1.82227 -0.215759 0
M  V30 2165 H 213.292 3.54282 1.7692 0
M  V30 2166 H 214.466 4.51536 -0.919317 0
M  V30 2167 H 212.781 4.10891 -0.675124 0
M  V30 2168 H 215.378 4.97121 1.96914 0
M  V30 2169 H 215.721 3.33876 2.48662 0
M  V30 2170 H 216.254 3.88025 0.876453 0
M  V30 2171 H 212.993 6.53463 -0.516341 0
M  V30 2172 H 212.513 5.90094 1.07469 0
M  V30 2173 H 214.192 6.42179 0.788332 0
M  V30 2174 N 214.325 -0.140222 1.56975 0
M  V30 2175 C 215.574 -0.850152 1.82908 0
M  V30 2176 C 215.887 -1.82028 0.715892 0
M  V30 2177 O 217.093 -2.57485 0.861016 0
M  V30 2178 C 215.549 -1.5625 3.24213 0
M  V30 2179 C 215.157 -0.63443 4.43485 0
M  V30 2180 C 216.901 -2.25881 3.59413 0
M  V30 2181 C 214.808 -1.34879 5.75814 0
M  V30 2182 H 213.738 -0.321221 0.682153 0
M  V30 2183 H 216.389 -0.102874 1.83211 0
M  V30 2184 H 214.771 -2.35565 3.18316 0
M  V30 2185 H 215.945 0.12398 4.60633 0
M  V30 2186 H 214.26 -0.0461836 4.16374 0
M  V30 2187 H 216.857 -2.79978 4.5554 0
M  V30 2188 H 217.2 -3.02693 2.85802 0
M  V30 2189 H 217.733 -1.53477 3.67001 0
M  V30 2190 H 214.472 -0.622385 6.52539 0
M  V30 2191 H 213.992 -2.07974 5.6259 0
M  V30 2192 H 215.671 -1.88784 6.18845 0
M  V30 2193 N 215.803 -1.52179 -0.40978 0
M  V30 2194 C 216.713 -1.78364 -1.52392 0
M  V30 2195 C 217.729 -0.669183 -1.60617 0
M  V30 2196 O 218.905 -0.954518 -1.77344 0
M  V30 2197 C 215.97 -1.92822 -2.88133 0
M  V30 2198 C 215.031 -3.16725 -2.898 0
M  V30 2199 C 214.264 -3.30483 -4.19067 0
M  V30 2200 O 214.487 -2.49522 -5.12928 0
M  V30 2201 O 213.421 -4.2363 -4.27576 0
M  V30 2202 H 217.247 -2.72931 -1.33201 0
M  V30 2203 H 214.832 -1.37016 -0.59557 0
M  V30 2204 H 216.714 -2.04157 -3.68643 0
M  V30 2205 H 215.389 -1.01444 -3.07393 0
M  V30 2206 H 214.296 -3.10848 -2.08146 0
M  V30 2207 H 215.629 -4.07881 -2.75489 0
M  V30 2208 N 217.281 0.66697 -1.42791 0
M  V30 2209 C 218.211 1.79218 -1.49677 0
M  V30 2210 C 219.192 1.66405 -0.352623 0
M  V30 2211 O 220.377 1.85708 -0.567993 0
M  V30 2212 C 217.507 3.17565 -1.40605 0
M  V30 2213 C 216.461 3.45124 -2.53127 0
M  V30 2214 C 215.787 4.83127 -2.29112 0
M  V30 2215 C 217.087 3.41236 -3.95418 0
M  V30 2216 H 218.781 1.73713 -2.43853 0
M  V30 2217 H 216.327 0.83432 -1.17367 0
M  V30 2218 H 218.28 3.96022 -1.44029 0
M  V30 2219 H 217.004 3.23767 -0.429271 0
M  V30 2220 H 215.663 2.69031 -2.49034 0
M  V30 2221 H 215.311 4.85988 -1.29709 0
M  V30 2222 H 215.011 5.02528 -3.04531 0
M  V30 2223 H 216.535 5.63859 -2.34297 0
M  V30 2224 H 217.949 4.09651 -4.01073 0
M  V30 2225 H 216.346 3.72173 -4.70752 0
M  V30 2226 H 217.416 2.39665 -4.21532 0
M  V30 2227 N 218.759 1.29093 0.90403 0
M  V30 2228 C 219.706 1.13853 2.00764 0
M  V30 2229 C 220.676 0.0330084 1.66067 0
M  V30 2230 O 221.861 0.199733 1.89752 0
M  V30 2231 C 219.001 0.816537 3.35301 0
M  V30 2232 C 218.114 2.00206 3.82807 0
M  V30 2233 C 217.249 1.61983 5.059 0
M  V30 2234 C 216.288 2.77143 5.45764 0
M  V30 2235 N 215.425 2.39346 6.60044 0
M  V30 2236 H 220.265 2.08276 2.13132 0
M  V30 2237 H 217.802 1.03648 1.04381 0
M  V30 2238 H 219.76 0.610557 4.12708 0
M  V30 2239 H 218.39 -0.090779 3.22672 0
M  V30 2240 H 217.442 2.31988 3.01473 0
M  V30 2241 H 218.754 2.86512 4.08304 0
M  V30 2242 H 217.908 1.37649 5.90879 0
M  V30 2243 H 216.647 0.728202 4.82233 0
M  V30 2244 H 215.652 3.02165 4.59322 0
M  V30 2245 H 216.877 3.66964 5.71414 0
M  V30 2246 H 214.823 1.52665 6.37989 0
M  V30 2247 H 214.74 3.19185 6.85315 0
M  V30 2248 H 216.008 2.1832 7.48303 0
M  V30 2249 N 220.237 -1.11381 1.11499 0
M  V30 2250 C 221.187 -2.15555 0.74298 0
M  V30 2251 C 222.171 -1.58894 -0.253276 0
M  V30 2252 O 223.363 -1.76897 -0.0602918 0
M  V30 2253 C 220.492 -3.42782 0.188481 0
M  V30 2254 C 219.578 -4.064 1.21244 0
M  V30 2255 N 219.969 -4.44864 2.40685 0
M  V30 2256 C 218.267 -4.3333 1.05552 0
M  V30 2257 C 218.968 -4.94715 3.05994 0
M  V30 2258 N 217.944 -4.90909 2.33472 0
M  V30 2259 H 221.746 -2.43074 1.65203 0
M  V30 2260 H 219.26 -1.28401 0.994329 0
M  V30 2261 H 221.257 -4.16789 -0.0961693 0
M  V30 2262 H 219.917 -3.16727 -0.715149 0
M  V30 2263 H 220.928 -4.36876 2.78136 0
M  V30 2264 H 217.605 -4.1698 0.208372 0
M  V30 2265 H 218.995 -5.34103 4.07656 0
M  V30 2266 N 221.715 -0.905404 -1.28997 0
M  V30 2267 C 222.662 -0.385892 -2.27551 0
M  V30 2268 C 223.632 0.535113 -1.57244 0
M  V30 2269 O 224.817 0.459119 -1.85194 0
M  V30 2270 C 221.957 0.375461 -3.43051 0
M  V30 2271 C 221.07 -0.577092 -4.28128 0
M  V30 2272 C 220.205 0.201879 -5.30816 0
M  V30 2273 C 219.244 -0.744829 -6.07551 0
M  V30 2274 N 218.381 9.42587e-05 -7.021 0
M  V30 2275 H 223.221 -1.23139 -2.71368 0
M  V30 2276 H 220.758 -0.618542 -1.33463 0
M  V30 2277 H 222.716 0.832992 -4.088 0
M  V30 2278 H 221.346 1.18537 -3.00248 0
M  V30 2279 H 220.398 -1.15315 -3.62501 0
M  V30 2280 H 221.71 -1.30152 -4.8152 0
M  V30 2281 H 220.864 0.720351 -6.02408 0
M  V30 2282 H 219.603 0.959413 -4.7817 0
M  V30 2283 H 218.608 -1.27475 -5.34818 0
M  V30 2284 H 219.833 -1.50178 -6.62286 0
M  V30 2285 H 217.779 0.739791 -6.51815 0
M  V30 2286 H 217.696 -0.664321 -7.53076 0
M  V30 2287 H 218.964 0.498644 -7.77903 0
M  V30 2288 N 223.193 1.4272 -0.668489 0
M  V30 2289 C 224.156 2.292 0.00448567 0
M  V30 2290 C 225.156 1.43001 0.735339 0
M  V30 2291 O 226.346 1.64461 0.57429 0
M  V30 2292 C 223.478 3.25375 1.01705 0
M  V30 2293 H 224.671 2.90199 -0.756608 0
M  V30 2294 H 222.224 1.50254 -0.430506 0
M  V30 2295 H 222.959 2.69301 1.80686 0
M  V30 2296 H 222.744 3.88944 0.496463 0
M  V30 2297 H 224.234 3.90245 1.48655 0
M  V30 2298 N 224.671 0.411399 1.52136 0
M  V30 2299 C 226.087 0.0623865 1.59478 0
M  V30 2300 C 226.287 -1.42554 1.4241 0
M  V30 2301 O 225.343 -2.19263 1.2522 0
M  V30 2302 C 226.656 0.559331 2.95452 0
M  V30 2303 C 228.204 0.517503 3.08692 0
M  V30 2304 C 228.679 0.990994 4.4715 0
M  V30 2305 N 230.17 0.947908 4.53397 0
M  V30 2306 C 230.905 1.28544 5.58806 0
M  V30 2307 N 230.401 1.69454 6.71757 0
M  V30 2308 N 232.194 1.20526 5.49026 0
M  V30 2309 H 224.345 1.37982 1.61477 0
M  V30 2310 H 226.608 0.566977 0.759764 0
M  V30 2311 H 226.314 1.59938 3.1323 0
M  V30 2312 H 226.188 -0.0298014 3.77188 0
M  V30 2313 H 228.575 -0.513505 2.90598 0
M  V30 2314 H 228.656 1.14272 2.28857 0
M  V30 2315 H 228.3 2.02034 4.65988 0
M  V30 2316 H 228.23 0.34257 5.25485 0
M  V30 2317 H 230.721 0.647157 3.72317 0
M  V30 2318 H 231.034 1.93513 7.48179 0
M  V30 2319 H 229.379 1.73359 6.73032 0
M  V30 2320 H 232.57 0.884505 4.59667 0
M  V30 2321 H 232.743 1.47161 6.31069 0
M  V30 2322 N 226.149 -1.5696 0.141893 0
M  V30 2323 C 227.059 -2.20066 -0.812905 0
M  V30 2324 C 228.075 -1.18344 -1.27557 0
M  V30 2325 O 229.251 -1.50902 -1.33381 0
M  V30 2326 C 226.316 -2.80583 -2.03652 0
M  V30 2327 C 225.377 -3.97414 -1.62359 0
M  V30 2328 C 224.61 -4.55036 -2.78887 0
M  V30 2329 O 224.833 -4.11538 -3.94959 0
M  V30 2330 O 223.767 -5.45376 -2.54653 0
M  V30 2331 H 227.593 -3.02157 -0.305746 0
M  V30 2332 H 225.178 -1.49159 -0.0848799 0
M  V30 2333 H 227.06 -3.19067 -2.75272 0
M  V30 2334 H 225.735 -2.01508 -2.5333 0
M  V30 2335 H 224.642 -3.63656 -0.877775 0
M  V30 2336 H 225.975 -4.77994 -1.17401 0
M  V30 2337 N 227.627 0.131896 -1.57047 0
M  V30 2338 C 228.574 1.16236 -1.99393 0
M  V30 2339 C 229.544 1.41863 -0.863943 0
M  V30 2340 O 230.729 1.53946 -1.12718 0
M  V30 2341 C 227.869 2.48708 -2.39245 0
M  V30 2342 C 226.982 2.30127 -3.65603 0
M  V30 2343 C 226.117 3.55738 -3.94492 0
M  V30 2344 C 225.156 3.32259 -5.14073 0
M  V30 2345 N 224.293 4.50039 -5.38896 0
M  V30 2346 H 229.133 0.794251 -2.87221 0
M  V30 2347 H 226.67 0.380707 -1.42088 0
M  V30 2348 H 228.628 3.25969 -2.60384 0
M  V30 2349 H 227.258 2.83437 -1.54478 0
M  V30 2350 H 226.31 1.43845 -3.52154 0
M  V30 2351 H 227.622 2.08746 -4.5302 0
M  V30 2352 H 226.776 4.41423 -4.1621 0
M  V30 2353 H 225.515 3.80138 -3.05526 0
M  V30 2354 H 224.52 2.44963 -4.92212 0
M  V30 2355 H 225.745 3.09242 -6.04604 0
M  V30 2356 H 223.691 4.74584 -4.52886 0
M  V30 2357 H 223.608 4.31716 -6.2061 0
M  V30 2358 H 224.876 5.36895 -5.65123 0
M  V30 2359 N 229.106 1.52395 0.401703 0
M  V30 2360 C 230.517 1.58899 0.980202 0
M  V30 2361 C 230.868 0.434032 1.91339 0
M  V30 2362 O 229.993 -0.444619 2.11783 0
M  V30 2363 C 230.588 2.87994 1.78451 0
M  V30 2364 C 229.147 2.96953 2.31292 0
M  V30 2365 C 228.294 2.53903 1.11483 0
M  V30 2366 H 231.245 1.57657 0.18168 0
M  V30 2367 H 231.266 2.73765 2.64259 0
M  V30 2368 H 230.778 3.72035 1.10506 0
M  V30 2369 H 228.879 2.17422 3.02586 0
M  V30 2370 H 228.992 4.01344 2.61649 0
M  V30 2371 H 227.356 2.07925 1.47104 0
M  V30 2372 H 228.139 3.40326 0.450928 0
M  V30 2373 N 230.584 -0.659388 1.43143 0
M  V30 2374 C 231.814 -1.44513 1.47646 0
M  V30 2375 C 232.222 -1.88981 0.0910095 0
M  V30 2376 O 231.565 -1.59702 -0.907789 0
M  V30 2377 C 231.627 -2.71663 2.35456 0
M  V30 2378 C 231.291 -2.49175 3.83094 0
M  V30 2379 C 232.288 -2.1279 4.74359 0
M  V30 2380 C 229.973 -2.63691 4.27519 0
M  V30 2381 C 231.967 -1.9121 6.08044 0
M  V30 2382 C 229.654 -2.41726 5.61259 0
M  V30 2383 C 230.652 -2.0554 6.51339 0
M  V30 2384 O 230.34 -1.838 7.82606 0
M  V30 2385 H 230.072 -0.45064 0.503884 0
M  V30 2386 H 232.626 -0.816248 1.88485 0
M  V30 2387 H 230.856 -3.37089 1.89493 0
M  V30 2388 H 232.545 -3.33595 2.31235 0
M  V30 2389 H 233.311 -2.01157 4.41317 0
M  V30 2390 H 229.19 -2.90832 3.57684 0
M  V30 2391 H 232.734 -1.62889 6.78316 0
M  V30 2392 H 228.631 -2.52959 5.9387 0
M  V30 2393 H 229.399 -1.98275 7.94122 0
M  V30 2394 N 232.062 -1.29571 -0.897171 0
M  V30 2395 C 233.339 -1.08365 -1.62839 0
M  V30 2396 C 233.719 0.371331 -2.07808 0
M  V30 2397 O 233.067 1.3606 -1.83576 0
M  V30 2398 C 233.277 -2.0735 -2.80726 0
M  V30 2399 C 234.625 -2.38406 -3.51351 0
M  V30 2400 O 235.649 -2.05564 -2.90898 0
M  V30 2401 O 234.508 -2.9453 -4.60341 0
M  V30 2402 H 231.602 -0.415345 -0.715134 0
M  V30 2403 H 234.148 -1.40952 -0.945018 0
M  V30 2404 H 232.92 -3.05339 -2.44711 0
M  V30 2405 H 232.543 -1.75507 -3.56767 0
M  V30 2406 N 233.54 1.10788 -1.12088 0
M  V30 2407 C 234.765 1.87002 -0.896949 0
M  V30 2408 C 235.19 1.79933 0.548261 0
M  V30 2409 O 234.548 1.16662 1.38779 0
M  V30 2410 C 234.596 3.3349 -1.37174 0
M  V30 2411 O 233.7 4.08745 -0.547831 0
M  V30 2412 H 233.041 0.580397 -0.322545 0
M  V30 2413 H 235.571 1.39996 -1.49206 0
M  V30 2414 H 235.581 3.84339 -1.36922 0
M  V30 2415 H 234.256 3.37951 -2.42408 0
M  V30 2416 H 232.833 3.6776 -0.617034 0
M  V30 2417 N 235.018 0.912232 1.28515 0
M  V30 2418 C 235.965 0.397954 2.27343 0
M  V30 2419 C 236.935 -0.526766 1.57526 0
M  V30 2420 O 238.12 -0.449292 1.85435 0
M  V30 2421 C 235.26 -0.357263 3.43246 0
M  V30 2422 C 234.373 0.599788 4.27816 0
M  V30 2423 C 233.508 -0.173725 5.30916 0
M  V30 2424 C 232.547 0.777039 6.07148 0
M  V30 2425 N 231.684 0.0371398 7.0209 0
M  V30 2426 H 236.524 1.24577 2.70711 0
M  V30 2427 H 234.061 0.625612 1.33133 0
M  V30 2428 H 236.019 -0.8113 4.09236 0
M  V30 2429 H 234.649 -1.16943 3.00872 0
M  V30 2430 H 233.701 1.17235 3.61884 0
M  V30 2431 H 235.013 1.32704 4.80823 0
M  V30 2432 H 234.167 -0.688394 6.02782 0
M  V30 2433 H 232.906 -0.934041 4.78672 0
M  V30 2434 H 231.911 1.3031 5.34134 0
M  V30 2435 H 233.136 1.53689 6.61481 0
M  V30 2436 H 231.082 -0.705213 6.52198 0
M  V30 2437 H 230.999 0.704249 7.52713 0
M  V30 2438 H 232.267 -0.457383 7.78157 0
M  V30 2439 N 236.496 -1.42363 0.676048 0
M  V30 2440 C 237.721 -2.06377 0.205705 0
M  V30 2441 C 238.146 -1.50463 -1.12883 0
M  V30 2442 O 237.504 -0.623619 -1.70237 0
M  V30 2443 C 237.552 -3.60277 0.152655 0
M  V30 2444 O 236.656 -4.02935 -0.87845 0
M  V30 2445 H 235.997 -0.655588 0.105359 0
M  V30 2446 H 238.527 -1.82475 0.925412 0
M  V30 2447 H 238.537 -4.07993 -0.0230675 0
M  V30 2448 H 237.212 -4.00346 1.12675 0
M  V30 2449 H 235.789 -3.66764 -0.673668 0
M  V30 2450 N 237.974 -0.419461 -1.51915 0
M  V30 2451 C 238.904 0.391813 -2.30189 0
M  V30 2452 C 239.885 1.03699 -1.34836 0
M  V30 2453 O 241.07 1.04403 -1.63748 0
M  V30 2454 C 238.2 1.50312 -3.13087 0
M  V30 2455 C 237.154 0.9824 -4.16573 0
M  V30 2456 C 236.48 2.18809 -4.8788 0
M  V30 2457 C 237.78 0.0292356 -5.22292 0
M  V30 2458 H 239.474 -0.26135 -2.98257 0
M  V30 2459 H 237.02 -0.127134 -1.43438 0
M  V30 2460 H 238.973 2.07773 -3.66617 0
M  V30 2461 H 237.697 2.18431 -2.42807 0
M  V30 2462 H 236.356 0.430119 -3.64068 0
M  V30 2463 H 236.004 2.85507 -4.14119 0
M  V30 2464 H 235.704 1.84615 -5.57845 0
M  V30 2465 H 237.228 2.76858 -5.44226 0
M  V30 2466 H 238.642 0.512976 -5.71 0
M  V30 2467 H 237.039 -0.2244 -5.9968 0
M  V30 2468 H 238.109 -0.912931 -4.76228 0
M  V30 2469 N 239.452 1.56882 -0.150215 0
M  V30 2470 C 240.868 1.58263 0.20617 0
M  V30 2471 C 241.068 1.16464 1.64434 0
M  V30 2472 O 240.124 0.866422 2.3717 0
M  V30 2473 C 241.437 3.00649 -0.0555025 0
M  V30 2474 C 242.985 3.12999 0.00795388 0
M  V30 2475 C 243.46 4.5744 -0.226429 0
M  V30 2476 N 244.951 4.62875 -0.173469 0
M  V30 2477 C 245.686 5.72454 -0.329288 0
M  V30 2478 N 245.182 6.90669 -0.543005 0
M  V30 2479 N 246.975 5.61467 -0.266666 0
M  V30 2480 H 239.126 1.82345 -1.08922 0
M  V30 2481 H 241.389 0.844149 -0.431413 0
M  V30 2482 H 241.095 3.3563 -1.05096 0
M  V30 2483 H 240.969 3.71337 0.66246 0
M  V30 2484 H 243.356 2.77857 0.993966 0
M  V30 2485 H 243.437 2.4479 -0.742388 0
M  V30 2486 H 243.081 4.93287 -1.20956 0
M  V30 2487 H 243.011 5.2378 0.544274 0
M  V30 2488 H 245.502 3.77898 -0.0130709 0
M  V30 2489 H 245.815 7.70045 -0.651922 0
M  V30 2490 H 244.16 6.92581 -0.579366 0
M  V30 2491 H 247.351 4.67992 -0.100441 0
M  V30 2492 H 247.524 6.46816 -0.391535 0
M  V30 2493 N 240.93 -0.123565 1.57115 0
M  V30 2494 C 242.158 -0.846461 1.88793 0
M  V30 2495 C 242.573 -1.73652 0.740976 0
M  V30 2496 O 241.93 -1.80207 -0.288393 0
M  V30 2497 C 241.981 -1.6837 3.19897 0
M  V30 2498 O 241.702 -0.829477 4.30176 0
M  V30 2499 C 243.203 -2.51214 3.65248 0
M  V30 2500 H 240.423 -0.243573 0.625231 0
M  V30 2501 H 242.967 -0.109324 2.04208 0
M  V30 2502 H 241.122 -2.37364 3.06165 0
M  V30 2503 H 241.536 -1.40651 5.0529 0
M  V30 2504 H 243.01 -3.05497 4.59756 0
M  V30 2505 H 243.487 -3.28359 2.9168 0
M  V30 2506 H 244.093 -1.8747 3.81752 0
M  V30 2507 N 242.408 -1.52605 -0.393616 0
M  V30 2508 C 243.371 -1.76415 -1.46323 0
M  V30 2509 C 244.371 -0.634126 -1.47768 0
M  V30 2510 O 245.561 -0.902142 -1.4902 0
M  V30 2511 C 242.693 -1.8607 -2.85641 0
M  V30 2512 H 243.886 -2.71916 -1.26498 0
M  V30 2513 H 241.439 -1.43257 -0.625073 0
M  V30 2514 H 242.174 -0.925378 -3.10817 0
M  V30 2515 H 241.959 -2.68235 -2.85993 0
M  V30 2516 H 243.449 -2.06179 -3.63153 0
M  V30 2517 N 243.887 0.651787 -1.4349 0
M  V30 2518 C 244.817 1.77621 -1.51569 0
M  V30 2519 C 245.798 1.66022 -0.370253 0
M  V30 2520 O 246.983 1.85095 -0.587658 0
M  V30 2521 C 244.113 3.16056 -1.43966 0
M  V30 2522 C 243.067 3.4242 -2.56774 0
M  V30 2523 C 242.393 4.8067 -2.34223 0
M  V30 2524 C 243.693 3.37023 -3.99015 0
M  V30 2525 H 245.387 1.71117 -2.45681 0
M  V30 2526 H 242.933 0.821825 -1.18246 0
M  V30 2527 H 244.886 3.94472 -1.48221 0
M  V30 2528 H 243.61 3.23293 -0.463586 0
M  V30 2529 H 242.269 2.66375 -2.51873 0
M  V30 2530 H 241.917 4.84585 -1.34856 0
M  V30 2531 H 241.617 4.9927 -3.09844 0
M  V30 2532 H 243.141 5.61342 -2.40265 0
M  V30 2533 H 244.555 4.05374 -4.05395 0
M  V30 2534 H 242.952 3.67159 -4.74673 0
M  V30 2535 H 244.022 2.3518 -4.2405 0
M  V30 2536 N 245.365 1.30045 0.890287 0
M  V30 2537 C 246.297 1.11786 2.00091 0
M  V30 2538 C 247.31 0.0626307 1.62679 0
M  V30 2539 O 248.499 0.308112 1.75821 0
M  V30 2540 C 245.599 0.681527 3.31977 0
M  V30 2541 C 244.772 1.81735 3.97858 0
M  V30 2542 C 243.831 1.37045 5.08041 0
M  V30 2543 O 242.857 2.07677 5.29961 0
M  V30 2544 N 244.059 0.246525 5.79976 0
M  V30 2545 H 246.824 2.07441 2.16306 0
M  V30 2546 H 244.385 1.2211 1.06305 0
M  V30 2547 H 246.377 0.365675 4.03045 0
M  V30 2548 H 244.947 -0.182828 3.12065 0
M  V30 2549 H 244.167 2.30159 3.20032 0
M  V30 2550 H 245.455 2.57865 4.38615 0
M  V30 2551 H 244.853 -0.34215 5.64664 0
M  V30 2552 H 243.41 -0.00990438 6.51799 0
M  V30 2553 N 246.843 -1.10192 1.12674 0
M  V30 2554 C 247.79 -2.16606 0.796906 0
M  V30 2555 C 248.76 -1.64394 -0.237476 0
M  V30 2556 O 249.945 -1.90474 -0.111484 0
M  V30 2557 C 247.085 -3.44116 0.26043 0
M  V30 2558 C 246.198 -4.10268 1.35293 0
M  V30 2559 C 245.333 -5.25507 0.775621 0
M  V30 2560 C 244.372 -5.83567 1.84706 0
M  V30 2561 N 243.509 -6.90179 1.28829 0
M  V30 2562 H 248.349 -2.44163 1.70846 0
M  V30 2563 H 245.886 -1.19846 0.85295 0
M  V30 2564 H 247.844 -4.17143 -0.0686814 0
M  V30 2565 H 246.474 -3.16901 -0.614274 0
M  V30 2566 H 245.526 -3.35184 1.79877 0
M  V30 2567 H 246.838 -4.4946 2.16303 0
M  V30 2568 H 245.992 -6.05398 0.397327 0
M  V30 2569 H 244.731 -4.87656 -0.0656581 0
M  V30 2570 H 243.736 -5.02344 2.23452 0
M  V30 2571 H 244.961 -6.23482 2.69161 0
M  V30 2572 H 242.907 -6.54322 0.468881 0
M  V30 2573 H 242.824 -7.28097 2.03497 0
M  V30 2574 H 244.092 -7.73844 0.937311 0
M  V30 2575 N 248.321 -0.919034 -1.28029 0
M  V30 2576 C 249.231 -0.416756 -2.30869 0
M  V30 2577 C 250.247 0.498235 -1.66714 0
M  V30 2578 O 251.423 0.383144 -1.97722 0
M  V30 2579 C 248.488 0.330274 -3.45123 0
M  V30 2580 C 247.549 -0.618578 -4.2482 0
M  V30 2581 C 246.782 0.0928959 -5.33619 0
M  V30 2582 O 247.005 1.31375 -5.55065 0
M  V30 2583 O 245.939 -0.574499 -5.99152 0
M  V30 2584 H 249.765 -1.27043 -2.75851 0
M  V30 2585 H 247.35 -0.684052 -1.3282 0
M  V30 2586 H 249.232 0.751972 -4.14636 0
M  V30 2587 H 247.907 1.1597 -3.02213 0
M  V30 2588 H 246.814 -1.08978 -3.57875 0
M  V30 2589 H 248.147 -1.41497 -4.71423 0
M  V30 2590 N 249.799 1.42003 -0.683588 0
M  V30 2591 C 251.048 2.00638 -0.206681 0
M  V30 2592 C 251.361 1.5472 1.19671 0
M  V30 2593 O 252.567 2.05833 1.77045 0
M  V30 2594 C 251.023 3.58487 -0.318632 0
M  V30 2595 C 250.631 4.1339 -1.72663 0
M  V30 2596 C 252.375 4.24384 0.0991141 0
M  V30 2597 C 250.282 5.63633 -1.79087 0
M  V30 2598 H 249.212 0.750408 -0.0735107 0
M  V30 2599 H 251.863 1.62624 -0.850048 0
M  V30 2600 H 250.245 3.94047 0.392781 0
M  V30 2601 H 251.419 3.89273 -2.46583 0
M  V30 2602 H 249.734 3.59976 -2.09299 0
M  V30 2603 H 252.331 5.34652 0.0713833 0
M  V30 2604 H 252.674 4.00505 1.13586 0
M  V30 2605 H 253.207 3.93816 -0.561599 0
M  V30 2606 H 249.946 5.92323 -2.80774 0
M  V30 2607 H 249.466 5.89714 -1.09535 0
M  V30 2608 H 251.145 6.28201 -1.5483 0
M  V30 2609 N 251.277 0.427512 1.51691 0
M  V30 2610 C 252.505 -0.141191 2.06418 0
M  V30 2611 C 252.92 -1.37303 1.29589 0
M  V30 2612 O 252.277 -1.79059 0.352732 0
M  V30 2613 C 252.328 -0.473266 3.58389 0
M  V30 2614 O 252.049 0.709673 4.32314 0
M  V30 2615 C 253.55 -1.09371 4.29596 0
M  V30 2616 H 250.77 -0.0122747 0.670888 0
M  V30 2617 H 253.314 0.603764 1.95384 0
M  V30 2618 H 251.469 -1.16812 3.69369 0
M  V30 2619 H 251.883 0.42807 5.2275 0
M  V30 2620 H 253.357 -1.27613 5.37046 0
M  V30 2621 H 253.834 -2.072 3.87253 0
M  V30 2622 H 254.44 -0.43853 4.23033 0
M  V30 2623 N 252.755 -1.56801 0.158532 0
M  V30 2624 C 253.983 -2.00859 -0.496303 0
M  V30 2625 C 254.398 -1.03871 -1.57659 0
M  V30 2626 O 253.755 -0.0375165 -1.82461 0
M  V30 2627 C 253.806 -3.4479 -1.08638 0
M  V30 2628 O 253.527 -4.38072 -0.0492322 0
M  V30 2629 C 255.028 -4.04185 -1.8207 0
M  V30 2630 H 252.248 -0.65864 -0.128199 0
M  V30 2631 H 254.792 -2.02885 0.256506 0
M  V30 2632 H 252.947 -3.43579 -1.78975 0
M  V30 2633 H 253.361 -5.2227 -0.483102 0
M  V30 2634 H 254.835 -5.06857 -2.18633 0
M  V30 2635 H 255.312 -3.45549 -2.71095 0
M  V30 2636 H 255.918 -4.0906 -1.16405 0
M  V30 2637 N 254.233 0.115231 -1.57178 0
M  V30 2638 C 255.649 0.468877 -1.52557 0
M  V30 2639 C 255.849 1.81649 -0.872125 0
M  V30 2640 O 254.905 2.48347 -0.45606 0
M  V30 2641 C 256.218 0.4499 -2.97315 0
M  V30 2642 C 257.766 0.533185 -3.08425 0
M  V30 2643 C 258.241 0.54456 -4.54751 0
M  V30 2644 N 259.732 0.605892 -4.5922 0
M  V30 2645 C 260.467 0.636203 -5.6986 0
M  V30 2646 N 259.963 0.623931 -6.89985 0
M  V30 2647 N 261.756 0.679496 -5.57978 0
M  V30 2648 H 253.907 -0.767712 -1.9804 0
M  V30 2649 H 256.17 -0.283609 -0.904583 0
M  V30 2650 H 255.876 -0.472721 -3.48509 0
M  V30 2651 H 255.75 1.27632 -3.5495 0
M  V30 2652 H 258.137 1.44623 -2.57232 0
M  V30 2653 H 258.218 -0.320995 -2.53778 0
M  V30 2654 H 257.862 -0.364452 -5.06591 0
M  V30 2655 H 257.792 1.41568 -5.07214 0
M  V30 2656 H 260.283 0.621386 -3.72756 0
M  V30 2657 H 260.596 0.649787 -7.70063 0
M  V30 2658 H 258.941 0.591296 -6.9248 0
M  V30 2659 H 262.132 0.686472 -4.63039 0
M  V30 2660 H 262.305 0.69965 -6.44212 0
M  V30 2661 N 255.711 1.52812 0.385517 0
M  V30 2662 C 256.941 1.71658 1.14966 0
M  V30 2663 C 257.349 0.436253 1.84102 0
M  V30 2664 O 256.692 -0.599313 1.73649 0
M  V30 2665 C 256.754 2.81309 2.23843 0
M  V30 2666 C 256.418 4.22313 1.74644 0
M  V30 2667 C 257.415 5.05352 1.22129 0
M  V30 2668 C 255.1 4.68648 1.80761 0
M  V30 2669 C 257.094 6.32807 0.763838 0
M  V30 2670 C 254.781 5.96086 1.34627 0
M  V30 2671 C 255.779 6.77996 0.825264 0
M  V30 2672 O 255.467 8.03045 0.370669 0
M  V30 2673 H 255.199 0.578022 0.350523 0
M  V30 2674 H 257.753 2.00263 0.456509 0
M  V30 2675 H 255.983 2.48133 2.96592 0
M  V30 2676 H 257.672 2.88524 2.85497 0
M  V30 2677 H 258.438 4.70736 1.16758 0
M  V30 2678 H 254.317 4.04979 2.20256 0
M  V30 2679 H 257.861 6.96689 0.356494 0
M  V30 2680 H 253.758 6.30205 1.39686 0
M  V30 2681 H 254.526 8.17021 0.491829 0
M  V30 2682 N 257.189 -0.644168 1.43834 0
M  V30 2683 C 258.121 -1.76955 1.45669 0
M  V30 2684 C 259.134 -1.58956 0.351666 0
M  V30 2685 O 260.323 -1.6751 0.616644 0
M  V30 2686 C 257.423 -3.14507 1.26248 0
M  V30 2687 C 256.596 -3.59083 2.49757 0
M  V30 2688 C 255.655 -4.75467 2.25427 0
M  V30 2689 O 254.681 -4.84444 2.98836 0
M  V30 2690 N 255.883 -5.66289 1.27661 0
M  V30 2691 H 258.648 -1.75856 2.42682 0
M  V30 2692 H 256.209 -0.828312 1.39106 0
M  V30 2693 H 258.201 -3.90067 1.0784 0
M  V30 2694 H 256.771 -3.10325 0.376478 0
M  V30 2695 H 255.991 -2.7387 2.8353 0
M  V30 2696 H 257.279 -3.85613 3.31934 0
M  V30 2697 H 256.677 -5.61718 0.670064 0
M  V30 2698 H 255.234 -6.41533 1.15234 0
M  V30 2699 N 258.668 -1.30515 -0.883378 0
M  V30 2700 C 259.598 -1.19607 -2.00541 0
M  V30 2701 C 260.579 -0.086346 -1.69881 0
M  V30 2702 O 261.764 -0.268654 -1.92333 0
M  V30 2703 C 258.894 -0.888758 -3.35736 0
M  V30 2704 C 257.848 -1.95659 -3.8066 0
M  V30 2705 C 257.174 -1.50224 -5.13164 0
M  V30 2706 C 258.474 -3.36788 -3.99213 0
M  V30 2707 H 260.168 -2.13476 -2.09925 0
M  V30 2708 H 257.714 -1.02775 -1.00863 0
M  V30 2709 H 259.667 -0.799094 -4.13754 0
M  V30 2710 H 258.391 0.0856125 -3.26488 0
M  V30 2711 H 257.05 -2.03591 -3.04871 0
M  V30 2712 H 256.698 -0.516092 -5.00345 0
M  V30 2713 H 256.398 -2.2165 -5.44192 0
M  V30 2714 H 257.922 -1.42639 -5.93706 0
M  V30 2715 H 259.336 -3.31605 -4.67665 0
M  V30 2716 H 257.733 -4.06314 -4.41621 0
M  V30 2717 H 258.803 -3.78561 -3.03017 0
M  V30 2718 N 260.146 1.09593 -1.13257 0
M  V30 2719 C 261.423 1.78293 -0.804432 0
M  V30 2720 C 261.803 1.99004 0.70431 0
M  V30 2721 O 261.151 1.59007 1.641 0
M  V30 2722 C 261.361 3.10707 -1.5894 0
M  V30 2723 C 262.709 3.85443 -1.78099 0
M  V30 2724 O 263.733 3.20454 -1.55525 0
M  V30 2725 O 262.592 5.02108 -2.15753 0
M  V30 2726 H 259.686 0.773156 -0.293528 0
M  V30 2727 H 262.232 1.16164 -1.23709 0
M  V30 2728 H 261.004 2.91106 -2.61482 0
M  V30 2729 H 260.627 3.80558 -1.15157 0
M  V30 2730 N 261.624 0.925811 1.2754 0
M  V30 2731 C 263.035 0.610102 1.7645 0
M  V30 2732 C 263.386 -0.874723 1.75622 0
M  V30 2733 O 262.511 -1.68444 1.35851 0
M  V30 2734 C 263.106 1.10073 3.20421 0
M  V30 2735 C 261.665 0.835723 3.67005 0
M  V30 2736 C 260.812 1.26054 2.46993 0
M  V30 2737 H 263.763 1.10579 1.13833 0
M  V30 2738 H 263.784 0.447557 3.77859 0
M  V30 2739 H 263.296 2.18143 3.20991 0
M  V30 2740 H 261.397 -0.231249 3.71882 0
M  V30 2741 H 261.51 1.45193 4.56569 0
M  V30 2742 H 259.874 0.679111 2.45479 0
M  V30 2743 H 260.657 2.34984 2.50275 0
M  V30 2744 N 263.102 -1.41638 0.69111 0
M  V30 2745 C 264.049 -2.30789 0.0229705 0
M  V30 2746 C 265.019 -1.46863 -0.775911 0
M  V30 2747 O 266.204 -1.75661 -0.74485 0
M  V30 2748 C 263.344 -3.32868 -0.910666 0
M  V30 2749 C 262.457 -4.31875 -0.103874 0
M  V30 2750 C 261.592 -5.21024 -1.03475 0
M  V30 2751 C 260.631 -6.11702 -0.220598 0
M  V30 2752 N 259.768 -6.93349 -1.10504 0
M  V30 2753 H 264.608 -2.87366 0.788978 0
M  V30 2754 H 262.145 -1.41535 0.400794 0
M  V30 2755 H 264.103 -3.90596 -1.46597 0
M  V30 2756 H 262.733 -2.77851 -1.64312 0
M  V30 2757 H 261.785 -3.76131 0.568285 0
M  V30 2758 H 263.097 -4.96003 0.527504 0
M  V30 2759 H 262.251 -5.83565 -1.65943 0
M  V30 2760 H 260.99 -4.57112 -1.69999 0
M  V30 2761 H 259.995 -5.48215 0.417187 0
M  V30 2762 H 261.22 -6.77668 0.440784 0
M  V30 2763 H 259.166 -6.3205 -1.75638 0
M  V30 2764 H 259.083 -7.54146 -0.529125 0
M  V30 2765 H 260.351 -7.60362 -1.71667 0
M  V30 2766 N 264.58 -0.43555 -1.51462 0
M  V30 2767 C 265.827 0.131514 -2.02072 0
M  V30 2768 C 266.155 1.42868 -1.31981 0
M  V30 2769 O 265.41 1.91076 -0.422883 0
M  V30 2770 C 265.709 0.39942 -3.55161 0
M  V30 2771 C 265.375 -0.81172 -4.43533 0
M  V30 2772 C 264.037 -1.14387 -4.67407 0
M  V30 2773 C 266.389 -1.61976 -4.95392 0
M  V30 2774 C 263.717 -2.28477 -5.40384 0
M  V30 2775 C 266.069 -2.75164 -5.6962 0
M  V30 2776 C 264.733 -3.08835 -5.91758 0
M  V30 2777 H 264.003 0.0481244 -0.739436 0
M  V30 2778 H 266.65 -0.58238 -1.8243 0
M  V30 2779 H 264.955 1.19519 -3.73125 0
M  V30 2780 H 266.652 0.85157 -3.91854 0
M  V30 2781 H 263.242 -0.542898 -4.25148 0
M  V30 2782 H 267.426 -1.37637 -4.76833 0
M  V30 2783 H 262.682 -2.5488 -5.55739 0
M  V30 2784 H 266.856 -3.38147 -6.08793 0
M  V30 2785 H 264.483 -3.97353 -6.48086 0
M  V30 2786 N 266.058 1.56714 -0.166846 0
M  V30 2787 C 267.307 1.95922 0.479318 0
M  V30 2788 C 267.62 1.05529 1.6469 0
M  V30 2789 O 268.826 1.34399 2.35901 0
M  V30 2790 C 267.282 3.48359 0.90412 0
M  V30 2791 C 266.89 4.47369 -0.237621 0
M  V30 2792 C 268.634 3.96394 1.51896 0
M  V30 2793 C 266.541 5.91039 0.206561 0
M  V30 2794 H 265.471 0.731495 0.18284 0
M  V30 2795 H 268.122 1.81728 -0.254363 0
M  V30 2796 H 266.504 3.57955 1.69365 0
M  V30 2797 H 267.678 4.49485 -1.01489 0
M  V30 2798 H 265.993 4.09366 -0.762128 0
M  V30 2799 H 268.59 5.01186 1.86325 0
M  V30 2800 H 268.933 3.39075 2.41524 0
M  V30 2801 H 269.466 3.89796 0.79395 0
M  V30 2802 H 266.205 6.52221 -0.654834 0
M  V30 2803 H 265.725 5.9224 0.949282 0
M  V30 2804 H 267.404 6.43707 0.651939 0
M  V30 2805 N 267.536 -0.106894 1.57237 0
M  V30 2806 C 268.764 -0.826389 1.8968 0
M  V30 2807 C 269.179 -1.72856 0.759353 0
M  V30 2808 O 268.536 -1.80503 -0.269263 0
M  V30 2809 C 268.587 -1.64967 3.21665 0
M  V30 2810 O 268.308 -0.783804 4.31031 0
M  V30 2811 C 269.809 -2.47326 3.67892 0
M  V30 2812 H 267.029 -0.236927 0.627779 0
M  V30 2813 H 269.573 -0.0876593 2.04312 0
M  V30 2814 H 267.728 -2.34103 3.08666 0
M  V30 2815 H 268.142 -1.35284 5.06753 0
M  V30 2816 H 269.616 -3.00604 4.6297 0
M  V30 2817 H 270.093 -3.25247 2.95146 0
M  V30 2818 H 270.699 -1.83411 3.83719 0
M  V30 2819 N 269.014 -1.53014 -0.377408 0
M  V30 2820 C 270.239 -1.72818 -1.14668 0
M  V30 2821 C 270.664 -0.450725 -1.8262 0
M  V30 2822 O 270.022 0.59439 -1.7128 0
M  V30 2823 C 270.07 -2.88627 -2.16164 0
M  V30 2824 O 269.174 -2.56409 -3.22998 0
M  V30 2825 H 268.515 -0.574301 -0.333278 0
M  V30 2826 H 271.045 -1.99853 -0.438152 0
M  V30 2827 H 271.055 -3.14455 -2.59966 0
M  V30 2828 H 269.73 -3.81294 -1.66095 0
M  V30 2829 H 268.307 -2.4136 -2.84253 0
M  V30 2830 N 270.492 0.636531 -1.44174 0
M  V30 2831 C 271.741 1.39213 -1.45954 0
M  V30 2832 C 272.054 1.95374 -0.0939119 0
M  V30 2833 O 273.26 2.71498 0.0107767 0
M  V30 2834 C 271.716 2.52025 -2.56927 0
M  V30 2835 C 271.324 2.024 -3.99673 0
M  V30 2836 C 273.068 3.29269 -2.67922 0
M  V30 2837 C 270.975 3.12521 -5.0208 0
M  V30 2838 H 269.905 0.523132 -0.542999 0
M  V30 2839 H 272.556 0.685349 -1.70221 0
M  V30 2840 H 270.938 3.25253 -2.25891 0
M  V30 2841 H 272.112 1.36073 -4.40251 0
M  V30 2842 H 270.427 1.37987 -3.92872 0
M  V30 2843 H 273.024 4.11352 -3.41605 0
M  V30 2844 H 273.367 3.78397 -1.73555 0
M  V30 2845 H 273.9 2.63129 -2.98342 0
M  V30 2846 H 270.639 2.68343 -5.98057 0
M  V30 2847 H 270.159 3.77507 -4.66099 0
M  V30 2848 H 271.838 3.77385 -5.25538 0
M  V30 2849 N 271.97 1.30982 0.876444 0
M  V30 2850 C 272.9 1.20668 1.99903 0
M  V30 2851 C 273.881 0.095354 1.69833 0
M  V30 2852 O 275.066 0.27885 1.92188 0
M  V30 2853 C 272.196 0.90655 3.3526 0
M  V30 2854 C 271.15 1.97675 3.79617 0
M  V30 2855 C 270.476 1.52943 5.1236 0
M  V30 2856 C 271.776 3.389 3.97422 0
M  V30 2857 H 273.47 2.14586 2.0879 0
M  V30 2858 H 271.016 1.03308 1.00317 0
M  V30 2859 H 272.969 0.821025 4.13324 0
M  V30 2860 H 271.693 -0.0682969 3.26529 0
M  V30 2861 H 270.352 2.05205 3.03787 0
M  V30 2862 H 270 0.54262 5.00065 0
M  V30 2863 H 269.7 2.24532 5.43009 0
M  V30 2864 H 271.224 1.45786 5.92941 0
M  V30 2865 H 272.638 3.34081 4.659 0
M  V30 2866 H 271.035 4.0865 4.3946 0
M  V30 2867 H 272.105 3.80163 3.01006 0
M  V30 2868 N 273.449 -1.08991 1.13837 0
M  V30 2869 C 274.679 -1.84743 0.924859 0
M  V30 2870 C 275.087 -1.81629 -0.529874 0
M  V30 2871 O 274.43 -1.21397 -1.37872 0
M  V30 2872 C 274.492 -3.33568 1.34061 0
M  V30 2873 C 274.156 -3.60425 2.80968 0
M  V30 2874 C 275.153 -3.55771 3.79108 0
M  V30 2875 C 272.838 -3.88627 3.18236 0
M  V30 2876 C 274.832 -3.78939 5.12527 0
M  V30 2877 C 272.519 -4.11449 4.51833 0
M  V30 2878 C 273.517 -4.06598 5.48787 0
M  V30 2879 O 273.205 -4.28826 6.79973 0
M  V30 2880 H 272.937 -0.590258 0.329502 0
M  V30 2881 H 275.491 -1.38598 1.51591 0
M  V30 2882 H 273.721 -3.80442 0.692853 0
M  V30 2883 H 275.41 -3.90743 1.09886 0
M  V30 2884 H 276.176 -3.34005 3.51661 0
M  V30 2885 H 272.055 -3.91526 2.43369 0
M  V30 2886 H 275.599 -3.75068 5.88192 0
M  V30 2887 H 271.496 -4.32698 4.79002 0
M  V30 2888 H 272.264 -4.46264 6.86142 0
M  V30 2889 N 274.927 -0.932562 -1.27047 0
M  V30 2890 C 275.837 -0.441219 -2.30414 0
M  V30 2891 C 276.853 0.480525 -1.67233 0
M  V30 2892 O 278.029 0.362151 -1.98117 0
M  V30 2893 C 275.094 0.293651 -3.45454 0
M  V30 2894 C 274.155 -0.663601 -4.2414 0
M  V30 2895 C 273.388 0.0362932 -5.33688 0
M  V30 2896 O 273.611 1.2548 -5.56427 0
M  V30 2897 O 272.545 -0.638015 -5.98509 0
M  V30 2898 H 276.371 -1.29962 -2.74488 0
M  V30 2899 H 273.956 -0.6981 -1.32087 0
M  V30 2900 H 275.838 0.707951 -4.15411 0
M  V30 2901 H 274.513 1.12758 -3.03426 0
M  V30 2902 H 273.42 -1.12768 -3.56699 0
M  V30 2903 H 274.753 -1.46489 -4.69896 0
M  V30 2904 N 276.405 1.4127 -0.698611 0
M  V30 2905 C 277.353 2.32588 -0.023855 0
M  V30 2906 C 278.347 1.51128 0.765292 0
M  V30 2907 O 279.553 1.67043 0.670571 0
M  V30 2908 H 275.928 0.751918 0.0110871 0
M  V30 2909 H 277.899 2.87167 -0.811031 0
M  V30 2910 C 276.648 3.35947 0.896369 0
M  V30 2911 H 275.971 3.98684 0.298548 0
M  V30 2912 H 277.411 4.02376 1.33676 0
M  V30 2913 C 275.87 2.70076 2.01396 0
M  V30 2914 O 276.4 2.55093 3.10307 0
M  V30 2915 N 274.606 2.28724 1.79259 0
M  V30 2916 H 274.153 2.4111 0.906841 0
M  V30 2917 H 274.111 1.84986 2.54219 0
M  V30 2918 N 277.883 0.443576 1.51229 0
M  V30 2919 C 278.831 -0.37904 2.29491 0
M  V30 2920 C 279.825 -1.0153 1.35603 0
M  V30 2921 O 281.031 -0.94955 1.52917 0
M  V30 2922 H 277.406 -0.141053 0.738653 0
M  V30 2923 H 279.377 0.301799 2.9687 0
M  V30 2924 C 278.126 -1.46426 3.15364 0
M  V30 2925 H 277.449 -0.984037 3.87501 0
M  V30 2926 H 278.889 -2.01297 3.7317 0
M  V30 2927 C 277.348 -2.45099 2.31146 0
M  V30 2928 O 277.878 -3.49773 1.9754 0
M  V30 2929 N 276.084 -2.16139 1.94249 0
M  V30 2930 H 275.631 -1.31044 2.21777 0
M  V30 2931 H 275.589 -2.82398 1.38198 0
M  V30 2932 N 279.361 -1.56624 0.175154 0
M  V30 2933 C 280.607 -1.9729 -0.469506 0
M  V30 2934 C 280.94 -1.06128 -1.62636 0
M  V30 2935 O 280.215 -0.109183 -1.94193 0
M  V30 2936 C 280.498 -3.47375 -0.948804 0
M  V30 2937 C 280.351 -4.49317 0.208491 0
M  V30 2938 C 281.67 -4.00652 -1.82116 0
M  V30 2939 H 278.789 -0.717317 -0.16919 0
M  V30 2940 H 281.431 -1.88184 0.262062 0
M  V30 2941 H 279.581 -3.55267 -1.57219 0
M  V30 2942 H 281.253 -4.53482 0.845682 0
M  V30 2943 H 279.496 -4.25121 0.863395 0
M  V30 2944 H 280.167 -5.51741 -0.169059 0
M  V30 2945 H 282.643 -3.95416 -1.2956 0
M  V30 2946 H 281.519 -5.06075 -2.12554 0
M  V30 2947 H 281.78 -3.44699 -2.7683 0
M  V30 2948 N 280.839 0.0985539 -1.57292 0
M  V30 2949 C 282.088 0.801358 -1.85098 0
M  V30 2950 C 282.401 1.80066 -0.763902 0
M  V30 2951 O 283.607 2.55112 -0.928981 0
M  V30 2952 C 282.063 1.47599 -3.28242 0
M  V30 2953 C 281.671 0.516624 -4.45011 0
M  V30 2954 C 283.415 2.16272 -3.65276 0
M  V30 2955 C 281.322 1.19564 -5.79188 0
M  V30 2956 H 280.252 0.303022 -0.69043 0
M  V30 2957 H 282.903 0.0542623 -1.8342 0
M  V30 2958 H 281.285 2.27042 -3.2445 0
M  V30 2959 H 282.459 -0.246065 -4.60143 0
M  V30 2960 H 280.774 -0.064227 -4.1635 0
M  V30 2961 H 283.371 2.67802 -4.62803 0
M  V30 2962 H 283.714 2.95009 -2.93727 0
M  V30 2963 H 284.247 1.43693 -3.70941 0
M  V30 2964 H 280.986 0.449157 -6.53959 0
M  V30 2965 H 280.506 1.92984 -5.67906 0
M  V30 2966 H 282.185 1.7231 -6.23633 0
M  V30 2967 N 282.317 1.53212 0.369288 0
M  V30 2968 C 283.545 1.73119 1.13303 0
M  V30 2969 C 283.96 0.458455 1.83149 0
M  V30 2970 O 283.317 -0.568403 1.73423 0
M  V30 2971 C 283.368 2.89413 2.16616 0
M  V30 2972 O 283.089 4.11761 1.49614 0
M  V30 2973 C 284.59 3.21161 3.05566 0
M  V30 2974 H 281.81 0.579107 0.338934 0
M  V30 2975 H 284.354 1.99942 0.429338 0
M  V30 2976 H 282.509 2.64994 2.82589 0
M  V30 2977 H 282.923 4.76858 2.18419 0
M  V30 2978 H 284.397 4.05949 3.74045 0
M  V30 2979 H 284.874 2.36369 3.70171 0
M  V30 2980 H 285.48 3.47492 2.45213 0
M  V30 2981 N 283.795 -0.628877 1.44509 0
M  V30 2982 C 285.044 -1.38437 1.4669 0
M  V30 2983 C 285.357 -1.95322 0.104272 0
M  V30 2984 O 286.563 -2.715 0.00362163 0
M  V30 2985 C 285.019 -2.50659 2.5826 0
M  V30 2986 C 284.627 -2.00277 4.0074 0
M  V30 2987 C 286.371 -3.27844 2.69664 0
M  V30 2988 C 284.278 -3.09854 5.0373 0
M  V30 2989 H 283.208 -0.520245 0.545766 0
M  V30 2990 H 285.859 -0.676313 1.70582 0
M  V30 2991 H 284.241 -3.2405 2.27612 0
M  V30 2992 H 285.415 -1.33736 4.40966 0
M  V30 2993 H 283.73 -1.35901 3.93599 0
M  V30 2994 H 286.327 -4.09534 3.43781 0
M  V30 2995 H 286.67 -3.77471 1.75559 0
M  V30 2996 H 287.203 -2.61543 2.99733 0
M  V30 2997 H 283.942 -2.65168 5.99472 0
M  V30 2998 H 283.462 -3.7503 4.68095 0
M  V30 2999 H 285.141 -3.74592 5.27532 0
M  V30 3000 N 285.273 -1.31445 -0.869486 0
M  V30 3001 C 286.55 -1.11795 -1.60503 0
M  V30 3002 C 286.93 0.327168 -2.08549 0
M  V30 3003 O 286.278 1.32135 -1.8642 0
M  V30 3004 C 286.488 -2.13258 -2.76265 0
M  V30 3005 C 287.836 -2.45805 -3.46215 0
M  V30 3006 O 288.86 -2.11688 -2.86473 0
M  V30 3007 O 287.719 -3.04228 -4.5399 0
M  V30 3008 H 284.813 -0.430421 -0.706163 0
M  V30 3009 H 287.359 -1.42925 -0.914907 0
M  V30 3010 H 286.131 -3.10461 -2.3818 0
M  V30 3011 H 285.754 -1.83035 -3.52964 0
M  V30 3012 N 286.751 1.08385 -1.14413 0
M  V30 3013 C 287.681 2.17321 -0.854044 0
M  V30 3014 C 288.662 1.69024 0.191049 0
M  V30 3015 O 289.847 1.94141 0.0476779 0
M  V30 3016 C 286.977 3.45719 -0.330983 0
M  V30 3017 C 285.931 4.07409 -1.31155 0
M  V30 3018 C 285.257 5.30762 -0.64778 0
M  V30 3019 C 286.557 4.48665 -2.67388 0
M  V30 3020 H 288.251 2.41845 -1.76498 0
M  V30 3021 H 285.797 1.16233 -0.850051 0
M  V30 3022 H 287.75 4.21241 -0.115645 0
M  V30 3023 H 286.474 3.2075 0.615381 0
M  V30 3024 H 285.133 3.33919 -1.51306 0
M  V30 3025 H 284.781 5.02078 0.304398 0
M  V30 3026 H 284.481 5.72992 -1.30207 0
M  V30 3027 H 286.005 6.08998 -0.441972 0
M  V30 3028 H 287.419 5.15364 -2.51143 0
M  V30 3029 H 285.816 5.01814 -3.29093 0
M  V30 3030 H 286.886 3.60543 -3.24248 0
M  V30 3031 N 288.23 0.939286 1.26551 0
M  V30 3032 C 289.476 0.586715 1.94128 0
M  V30 3033 C 289.809 -0.8717 1.73537 0
M  V30 3034 O 289.084 -1.62339 1.07127 0
M  V30 3035 C 289.367 0.927497 3.4795 0
M  V30 3036 C 289.22 2.44052 3.77834 0
M  V30 3037 C 290.539 0.441569 4.37879 0
M  V30 3038 H 287.658 0.21463 0.705055 0
M  V30 3039 H 290.3 1.17316 1.49455 0
M  V30 3040 H 288.45 0.428431 3.8613 0
M  V30 3041 H 290.122 3.01216 3.4938 0
M  V30 3042 H 288.365 2.8848 3.23978 0
M  V30 3043 H 289.036 2.62947 4.85348 0
M  V30 3044 H 291.512 0.869448 4.06915 0
M  V30 3045 H 290.388 0.708856 5.44304 0
M  V30 3046 H 290.649 -0.658467 4.37169 0
M  V30 3047 N 289.708 -1.40897 0.706093 0
M  V30 3048 C 290.64 -2.29199 0.00815776 0
M  V30 3049 C 291.653 -1.45336 -0.733582 0
M  V30 3050 O 292.842 -1.68727 -0.582537 0
M  V30 3051 C 289.942 -3.23417 -1.01265 0
M  V30 3052 C 289.115 -4.36089 -0.338387 0
M  V30 3053 C 288.174 -5.10811 -1.26326 0
M  V30 3054 O 287.2 -5.64215 -0.751651 0
M  V30 3055 N 288.402 -5.19269 -2.595 0
M  V30 3056 H 291.167 -2.89738 0.766297 0
M  V30 3057 H 288.728 -1.52164 0.55296 0
M  V30 3058 H 290.72 -3.70276 -1.63334 0
M  V30 3059 H 289.29 -2.64112 -1.67223 0
M  V30 3060 H 288.51 -3.91479 0.462352 0
M  V30 3061 H 289.798 -5.08634 0.130031 0
M  V30 3062 H 289.196 -4.77347 -3.03573 0
M  V30 3063 H 287.753 -5.69667 -3.16737 0
M  V30 3064 N 291.186 -0.45159 -1.50991 0
M  V30 3065 C 292.134 0.366864 -2.29689 0
M  V30 3066 C 293.128 1.00809 -1.36139 0
M  V30 3067 O 294.334 0.941427 -1.53418 0
M  V30 3068 H 290.709 0.137133 -0.739391 0
M  V30 3069 H 292.68 -0.317538 -2.96706 0
M  V30 3070 C 291.429 1.44751 -3.16137 0
M  V30 3071 H 290.752 0.963473 -3.88017 0
M  V30 3072 H 292.192 1.99315 -3.74232 0
M  V30 3073 C 290.651 2.43869 -2.32442 0
M  V30 3074 O 291.181 3.4872 -1.99392 0
M  V30 3075 N 289.387 2.15105 -1.95392 0
M  V30 3076 H 288.934 1.29866 -2.22469 0
M  V30 3077 H 288.892 2.81661 -1.39693 0
M  V30 3078 N 292.664 1.56529 -0.183458 0
M  V30 3079 C 293.889 2.02064 0.467428 0
M  V30 3080 C 294.314 1.06282 1.55196 0
M  V30 3081 O 293.672 0.0443565 1.81246 0
M  V30 3082 C 293.72 3.46122 1.01153 0
M  V30 3083 O 292.824 3.53437 2.12499 0
M  V30 3084 H 292.165 0.654726 0.110588 0
M  V30 3085 H 294.695 2.02521 -0.290917 0
M  V30 3086 H 294.705 3.85676 1.33108 0
M  V30 3087 H 293.38 4.15331 0.217533 0
M  V30 3088 H 291.957 3.2575 1.81497 0
M  V30 3089 N 294.142 -0.090211 1.57342 0
M  V30 3090 C 295.367 -0.810082 1.90925 0
M  V30 3091 C 295.792 -1.71248 0.778187 0
M  V30 3092 O 295.15 -1.79278 -0.269991 0
M  V30 3093 C 295.198 -1.59529 3.23393 0
M  V30 3094 O 294.302 -2.70461 3.11327 0
M  V30 3095 H 293.643 -0.222231 0.625707 0
M  V30 3096 H 296.173 -0.0639716 2.045 0
M  V30 3097 H 296.183 -1.97847 3.5682 0
M  V30 3098 H 294.858 -0.933055 4.05299 0
M  V30 3099 H 293.435 -2.35135 2.89423 0
M  V30 3100 N 295.62 -1.53406 -0.361157 0
M  V30 3101 C 296.552 -1.76446 -1.46286 0
M  V30 3102 C 297.565 -0.645322 -1.49464 0
M  V30 3103 O 298.754 -0.921681 -1.52864 0
M  V30 3104 C 295.854 -1.83332 -2.85031 0
M  V30 3105 C 295.027 -3.13033 -3.05498 0
M  V30 3106 C 294.086 -3.11104 -4.24383 0
M  V30 3107 O 293.112 -3.84888 -4.19344 0
M  V30 3108 N 294.314 -2.32234 -5.32022 0
M  V30 3109 H 297.079 -2.71508 -1.26899 0
M  V30 3110 H 294.64 -1.52238 -0.550915 0
M  V30 3111 H 296.632 -1.79514 -3.62708 0
M  V30 3112 H 295.202 -0.955342 -2.97644 0
M  V30 3113 H 294.422 -3.30119 -2.15442 0
M  V30 3114 H 295.71 -3.9874 -3.16044 0
M  V30 3115 H 295.108 -1.71807 -5.38979 0
M  V30 3116 H 293.665 -2.3423 -6.08259 0
M  V30 3117 N 297.098 0.621204 -1.44841 0
M  V30 3118 C 298.045 1.73267 -1.5247 0
M  V30 3119 C 299.015 1.6189 -0.371611 0
M  V30 3120 O 300.2 1.81668 -0.58321 0
M  V30 3121 C 297.34 3.11545 -1.48438 0
M  V30 3122 C 296.453 3.33827 -2.74196 0
M  V30 3123 C 295.588 4.62133 -2.61929 0
M  V30 3124 C 294.627 4.77627 -3.82804 0
M  V30 3125 N 293.764 5.97219 -3.69153 0
M  V30 3126 H 298.604 1.66082 -2.47428 0
M  V30 3127 H 296.141 0.810026 -1.22788 0
M  V30 3128 H 298.099 3.91528 -1.4409 0
M  V30 3129 H 296.729 3.1772 -0.570402 0
M  V30 3130 H 295.781 2.47715 -2.88689 0
M  V30 3131 H 297.093 3.41153 -3.6389 0
M  V30 3132 H 296.247 5.50291 -2.5547 0
M  V30 3133 H 294.986 4.57182 -1.69811 0
M  V30 3134 H 293.991 3.87896 -3.89637 0
M  V30 3135 H 295.216 4.84385 -4.75971 0
M  V30 3136 H 293.162 5.93339 -2.79794 0
M  V30 3137 H 293.079 6.05644 -4.52472 0
M  V30 3138 H 294.347 6.87912 -3.66603 0
M  V30 3139 N 298.576 1.31904 0.862503 0
M  V30 3140 C 299.804 1.24998 1.64873 0
M  V30 3141 C 300.219 -0.183425 1.87907 0
M  V30 3142 O 299.576 -1.11794 1.44251 0
M  V30 3143 C 299.627 1.99829 3.01248 0
M  V30 3144 O 299.348 3.37575 2.79239 0
M  V30 3145 C 300.849 1.99852 3.95694 0
M  V30 3146 H 298.069 0.431599 0.513773 0
M  V30 3147 H 300.613 1.73901 1.07604 0
M  V30 3148 H 298.768 1.54668 3.55185 0
M  V30 3149 H 299.182 3.75776 3.65914 0
M  V30 3150 H 300.656 2.56709 4.88676 0
M  V30 3151 H 301.133 0.982852 4.28062 0
M  V30 3152 H 301.739 2.44926 3.47694 0
M  V30 3153 N 300.054 -1.07777 1.14986 0
M  V30 3154 C 300.986 -2.14769 0.800436 0
M  V30 3155 C 301.999 -1.61739 -0.185595 0
M  V30 3156 O 303.188 -1.78462 0.0370358 0
M  V30 3157 C 300.288 -3.38481 0.168533 0
M  V30 3158 C 299.461 -4.20876 1.1909 0
M  V30 3159 C 298.52 -5.22976 0.581575 0
M  V30 3160 O 297.546 -5.55388 1.24633 0
M  V30 3161 N 298.748 -5.76976 -0.638706 0
M  V30 3162 H 301.513 -2.45348 1.72118 0
M  V30 3163 H 299.074 -1.23645 1.04515 0
M  V30 3164 H 301.066 -4.03916 -0.251764 0
M  V30 3165 H 299.636 -3.05651 -0.655467 0
M  V30 3166 H 298.856 -3.51322 1.78791 0
M  V30 3167 H 300.144 -4.7274 1.88133 0
M  V30 3168 H 299.542 -5.52886 -1.19723 0
M  V30 3169 H 298.099 -6.44061 -1.00142 0
M  V30 3170 N 301.532 -0.945985 -1.26051 0
M  V30 3171 C 302.48 -0.450259 -2.282 0
M  V30 3172 C 303.474 0.47497 -1.62605 0
M  V30 3173 O 304.68 0.352653 -1.76512 0
M  V30 3174 H 301.055 -0.127081 -0.741184 0
M  V30 3175 H 303.026 -1.32422 -2.67408 0
M  V30 3176 C 301.775 0.26467 -3.46691 0
M  V30 3177 H 301.098 -0.438123 -3.97392 0
M  V30 3178 H 302.538 0.575678 -4.20074 0
M  V30 3179 C 300.997 1.48416 -3.02447 0
M  V30 3180 O 301.527 2.58227 -3.07704 0
M  V30 3181 N 299.733 1.34243 -2.57735 0
M  V30 3182 H 299.28 0.448994 -2.53657 0
M  V30 3183 H 299.238 2.15957 -2.28495 0
M  V30 3184 N 303.011 1.40521 -0.713556 0
M  V30 3185 C 304.288 1.94775 -0.17943 0
M  V30 3186 C 304.668 1.65184 1.31444 0
M  V30 3187 O 304.016 0.968429 2.06963 0
M  V30 3188 C 304.226 3.45543 -0.489986 0
M  V30 3189 C 305.574 4.22442 -0.427536 0
M  V30 3190 O 306.598 3.53644 -0.425929 0
M  V30 3191 O 305.457 5.4501 -0.403292 0
M  V30 3192 H 302.551 0.826606 -0.0255192 0
M  V30 3193 H 305.097 1.5014 -0.790949 0
M  V30 3194 H 303.869 3.60432 -1.5233 0
M  V30 3195 H 303.492 3.97311 0.151598 0
M  V30 3196 N 304.489 0.459591 1.5075 0
M  V30 3197 C 305.735 -0.0994966 2.02556 0
M  V30 3198 C 306.068 -1.40399 1.3417 0
M  V30 3199 O 305.343 -1.88892 0.463683 0
M  V30 3200 C 305.626 -0.295242 3.58888 0
M  V30 3201 C 305.479 1.02947 4.37861 0
M  V30 3202 C 306.798 -1.05502 4.27267 0
M  V30 3203 H 303.917 -0.034686 0.736183 0
M  V30 3204 H 306.559 0.602938 1.8018 0
M  V30 3205 H 304.709 -0.893563 3.78084 0
M  V30 3206 H 306.381 1.66348 4.30263 0
M  V30 3207 H 304.624 1.62885 4.02058 0
M  V30 3208 H 305.295 0.846281 5.45474 0
M  V30 3209 H 307.771 -0.547993 4.12476 0
M  V30 3210 H 306.647 -1.16077 5.36486 0
M  V30 3211 H 306.908 -2.08875 3.89645 0
M  V30 3212 N 305.967 -1.56429 0.191757 0
M  V30 3213 C 307.244 -1.89224 -0.495332 0
M  V30 3214 C 307.624 -1.10478 -1.79883 0
M  V30 3215 O 306.972 -0.204852 -2.2758 0
M  V30 3216 C 307.182 -3.41548 -0.717367 0
M  V30 3217 C 308.53 -4.11711 -1.03823 0
M  V30 3218 O 309.554 -3.4698 -0.805204 0
M  V30 3219 O 308.413 -5.2611 -1.47887 0
M  V30 3220 H 305.507 -0.785788 -0.25781 0
M  V30 3221 H 308.053 -1.68111 0.231721 0
M  V30 3222 H 306.825 -3.90772 0.203287 0
M  V30 3223 H 306.448 -3.68342 -1.497 0
M  V30 3224 N 307.445 0.0818655 -1.57387 0
M  V30 3225 C 308.694 0.781681 -1.85937 0
M  V30 3226 C 309.007 1.79246 -0.782957 0
M  V30 3227 O 310.213 2.54112 -0.955987 0
M  V30 3228 C 308.669 1.44109 -3.29789 0
M  V30 3229 C 308.277 0.469396 -4.45534 0
M  V30 3230 C 310.021 2.12386 -3.67549 0
M  V30 3231 C 307.928 1.13415 -5.80423 0
M  V30 3232 H 306.858 0.295682 -0.693605 0
M  V30 3233 H 309.509 0.0348051 -1.83467 0
M  V30 3234 H 307.891 2.23588 -3.2684 0
M  V30 3235 H 309.065 -0.294856 -4.59856 0
M  V30 3236 H 307.38 -0.108383 -4.16259 0
M  V30 3237 H 309.977 2.62878 -4.65617 0
M  V30 3238 H 310.32 2.91877 -2.96839 0
M  V30 3239 H 310.853 1.39751 -3.72444 0
M  V30 3240 H 307.592 0.379771 -6.54399 0
M  V30 3241 H 307.112 1.8695 -5.69921 0
M  V30 3242 H 308.791 1.65686 -6.25426 0
M  V30 3243 N 308.923 1.53595 0.353017 0
M  V30 3244 C 309.886 1.80232 1.41594 0
M  V30 3245 C 310.886 0.673081 1.46035 0
M  V30 3246 O 312.076 0.941335 1.46576 0
M  V30 3247 C 309.208 1.93578 2.80607 0
M  V30 3248 H 310.401 2.75174 1.19244 0
M  V30 3249 H 307.954 1.44864 0.586872 0
M  V30 3250 H 308.689 1.00746 3.08254 0
M  V30 3251 H 308.474 2.75724 2.78781 0
M  V30 3252 H 309.964 2.15735 3.57558 0
M  V30 3253 N 310.401 -0.613514 1.45168 0
M  V30 3254 C 311.678 -1.37263 1.39349 0
M  V30 3255 C 312.058 -2.11012 0.0610848 0
M  V30 3256 O 311.406 -2.07502 -0.956825 0
M  V30 3257 C 311.616 -2.3244 2.60332 0
M  V30 3258 C 312.964 -2.9523 3.05163 0
M  V30 3259 O 313.988 -2.42762 2.60663 0
M  V30 3260 O 312.847 -3.90454 3.82372 0
M  V30 3261 H 309.941 -0.615188 0.552696 0
M  V30 3262 H 312.487 -0.637097 1.57287 0
M  V30 3263 H 311.259 -1.77164 3.48896 0
M  V30 3264 H 310.882 -3.13383 2.44698 0
M  V30 3265 N 311.879 -1.3236 -0.855495 0
M  V30 3266 C 313.125 -1.23054 -1.612 0
M  V30 3267 C 313.458 0.207404 -1.93089 0
M  V30 3268 O 312.733 1.14432 -1.57275 0
M  V30 3269 C 313.016 -2.08937 -2.93287 0
M  V30 3270 C 312.869 -3.61105 -2.68185 0
M  V30 3271 C 314.188 -1.94986 -3.94549 0
M  V30 3272 H 311.307 -0.448364 -0.584926 0
M  V30 3273 H 313.949 -1.62297 -0.987917 0
M  V30 3274 H 312.099 -1.75599 -3.46551 0
M  V30 3275 H 313.771 -4.04652 -2.21483 0
M  V30 3276 H 312.014 -3.83813 -2.02164 0
M  V30 3277 H 312.685 -4.16522 -3.62234 0
M  V30 3278 H 315.161 -2.24189 -3.5054 0
M  V30 3279 H 314.037 -2.57356 -4.84829 0
M  V30 3280 H 314.298 -0.917263 -4.3248 0
M  V30 3281 N 313.357 1.07166 -1.15556 0
M  V30 3282 C 314.32 2.12589 -0.856644 0
M  V30 3283 C 315.32 1.6015 0.14444 0
M  V30 3284 O 316.51 1.7399 -0.0854163 0
M  V30 3285 C 313.642 3.39753 -0.279405 0
M  V30 3286 H 314.835 2.40539 -1.79112 0
M  V30 3287 H 312.388 1.23086 -0.963298 0
M  V30 3288 H 313.123 3.17447 0.663174 0
M  V30 3289 H 312.908 3.79117 -1.00063 0
M  V30 3290 H 314.398 4.17507 -0.0879113 0
M  V30 3291 N 314.835 0.952656 1.25548 0
M  V30 3292 C 316.065 0.622592 1.96996 0
M  V30 3293 C 316.473 -0.809112 1.71026 0
M  V30 3294 O 315.816 -1.55258 0.981861 0
M  V30 3295 C 315.878 0.798946 3.5051 0
M  V30 3296 C 315.542 2.20744 4.00151 0
M  V30 3297 C 316.539 3.18394 4.11001 0
M  V30 3298 C 314.224 2.5311 4.33867 0
M  V30 3299 C 316.218 4.46504 4.54877 0
M  V30 3300 C 313.905 3.8145 4.7743 0
M  V30 3301 C 314.903 4.77959 4.87897 0
M  V30 3302 O 314.591 6.04012 5.30494 0
M  V30 3303 H 314.323 0.232503 0.634758 0
M  V30 3304 H 316.877 1.2789 1.60728 0
M  V30 3305 H 315.107 0.0854903 3.86605 0
M  V30 3306 H 316.796 0.47023 4.03167 0
M  V30 3307 H 317.562 2.94715 3.85186 0
M  V30 3308 H 313.441 1.78719 4.24948 0
M  V30 3309 H 316.985 5.21835 4.62962 0
M  V30 3310 H 312.882 4.04936 5.0269 0
M  V30 3311 H 313.65 6.0736 5.48685 0
M  V30 3312 N 316.313 -1.40141 0.720998 0
M  V30 3313 C 317.543 -2.04798 0.27226 0
M  V30 3314 C 317.951 -1.54442 -1.09289 0
M  V30 3315 O 317.294 -0.698342 -1.69908 0
M  V30 3316 C 317.356 -3.59048 0.18027 0
M  V30 3317 C 317.02 -4.32317 1.48159 0
M  V30 3318 C 318.017 -4.59902 2.42458 0
M  V30 3319 C 315.702 -4.71125 1.74202 0
M  V30 3320 C 317.696 -5.25288 3.61042 0
M  V30 3321 C 315.383 -5.36242 2.93066 0
M  V30 3322 C 316.381 -5.63254 3.86308 0
M  V30 3323 O 316.069 -6.27024 5.03086 0
M  V30 3324 H 315.801 -0.665419 0.119139 0
M  V30 3325 H 318.355 -1.80436 0.981432 0
M  V30 3326 H 316.585 -3.82251 -0.58489 0
M  V30 3327 H 318.274 -4.05221 -0.234618 0
M  V30 3328 H 319.04 -4.30379 2.23604 0
M  V30 3329 H 314.919 -4.49466 1.02477 0
M  V30 3330 H 318.463 -5.46289 4.33837 0
M  V30 3331 H 314.36 -5.65185 3.11826 0
M  V30 3332 H 315.128 -6.4552 5.03235 0
M  V30 3333 N 317.792 -0.46758 -1.50504 0
M  V30 3334 C 319.039 0.0886219 -2.02306 0
M  V30 3335 C 319.367 1.40037 -1.34981 0
M  V30 3336 O 318.622 1.90136 -0.463318 0
M  V30 3337 C 318.921 0.323995 -3.55928 0
M  V30 3338 C 318.587 -0.905618 -4.41712 0
M  V30 3339 C 317.249 -1.24275 -4.64875 0
M  V30 3340 C 319.601 -1.72448 -4.91845 0
M  V30 3341 C 316.929 -2.39888 -5.35417 0
M  V30 3342 C 319.281 -2.87185 -5.63656 0
M  V30 3343 C 317.945 -3.21317 -5.85074 0
M  V30 3344 H 317.215 0.0324291 -0.74029 0
M  V30 3345 H 319.862 -0.620945 -1.81153 0
M  V30 3346 H 318.167 1.11577 -3.75577 0
M  V30 3347 H 319.864 0.76826 -3.93572 0
M  V30 3348 H 316.454 -0.632956 -4.239 0
M  V30 3349 H 320.638 -1.4772 -4.73806 0
M  V30 3350 H 315.894 -2.66611 -5.50208 0
M  V30 3351 H 320.068 -3.50985 -6.01484 0
M  V30 3352 H 317.695 -4.1101 -6.39511 0
M  V30 3353 N 319.27 1.56325 -0.20005 0
M  V30 3354 C 320.18 2.22931 0.730668 0
M  V30 3355 C 321.196 1.22997 1.23076 0
M  V30 3356 O 322.372 1.55748 1.27689 0
M  V30 3357 C 319.437 2.87948 1.93098 0
M  V30 3358 C 318.498 4.03166 1.47497 0
M  V30 3359 C 317.731 4.65073 2.61807 0
M  V30 3360 O 317.954 4.25913 3.79413 0
M  V30 3361 O 316.888 5.54452 2.34237 0
M  V30 3362 H 320.714 3.03084 0.193391 0
M  V30 3363 H 318.299 1.49371 0.0294621 0
M  V30 3364 H 320.181 3.29063 2.6324 0
M  V30 3365 H 318.856 2.10771 2.45677 0
M  V30 3366 H 317.763 3.66664 0.742201 0
M  V30 3367 H 319.096 4.82022 0.995796 0
M  V30 3368 N 320.748 -0.0735177 1.57428 0
M  V30 3369 C 321.695 -1.08756 2.0357 0
M  V30 3370 C 322.665 -1.38559 0.916 0
M  V30 3371 O 323.85 -1.49656 1.18354 0
M  V30 3372 C 320.99 -2.39657 2.48311 0
M  V30 3373 C 320.103 -2.16399 3.73892 0
M  V30 3374 C 319.238 -3.40852 4.07423 0
M  V30 3375 C 318.277 -3.1295 5.2605 0
M  V30 3376 N 317.414 -4.29729 5.55228 0
M  V30 3377 H 322.254 -0.687104 2.8997 0
M  V30 3378 H 319.791 -0.327709 1.43403 0
M  V30 3379 H 321.749 -3.16081 2.72303 0
M  V30 3380 H 320.379 -2.77508 1.64891 0
M  V30 3381 H 319.431 -1.30676 3.57251 0
M  V30 3382 H 320.743 -1.91788 4.60455 0
M  V30 3383 H 319.897 -4.25671 4.32306 0
M  V30 3384 H 318.636 -3.68537 3.19425 0
M  V30 3385 H 317.641 -2.26526 5.00965 0
M  V30 3386 H 318.866 -2.86589 6.15665 0
M  V30 3387 H 316.812 -4.57448 4.70188 0
M  V30 3388 H 316.729 -4.08385 6.36206 0
M  V30 3389 H 317.997 -5.1555 5.84661 0
M  V30 3390 N 322.226 -1.5378 -0.344866 0
M  V30 3391 C 323.503 -1.61589 -1.10219 0
M  V30 3392 C 323.883 -0.436316 -2.06542 0
M  V30 3393 O 323.231 0.571543 -2.21237 0
M  V30 3394 C 323.441 -2.97602 -1.82301 0
M  V30 3395 C 324.789 -3.5291 -2.36093 0
M  V30 3396 O 325.813 -2.99768 -1.924 0
M  V30 3397 O 324.672 -4.45859 -3.16026 0
M  V30 3398 H 321.766 -0.653522 -0.506792 0
M  V30 3399 H 324.312 -1.66126 -0.346465 0
M  V30 3400 H 323.084 -3.74893 -1.12121 0
M  V30 3401 H 322.707 -2.9665 -2.64735 0
M  V30 3402 N 323.704 0.605807 -1.45491 0
M  V30 3403 C 324.95 1.36679 -1.49823 0
M  V30 3404 C 325.283 1.93693 -0.140175 0
M  V30 3405 O 324.558 1.75158 0.845581 0
M  V30 3406 C 324.841 2.51337 -2.57879 0
M  V30 3407 C 324.694 1.99508 -4.03134 0
M  V30 3408 C 326.013 3.53463 -2.62205 0
M  V30 3409 H 323.132 0.495617 -0.545466 0
M  V30 3410 H 325.774 0.682732 -1.7731 0
M  V30 3411 H 323.924 3.09691 -2.34571 0
M  V30 3412 H 325.596 1.45789 -4.37656 0
M  V30 3413 H 323.839 1.30496 -4.13707 0
M  V30 3414 H 324.51 2.82169 -4.74431 0
M  V30 3415 H 326.986 3.04953 -2.83095 0
M  V30 3416 H 325.862 4.31178 -3.39672 0
M  V30 3417 H 326.123 4.09197 -1.67363 0
M  V30 3418 N 325.182 1.32811 0.848464 0
M  V30 3419 C 326.129 1.22265 1.95755 0
M  V30 3420 C 327.099 0.103413 1.65778 0
M  V30 3421 O 328.284 0.280033 1.88734 0
M  V30 3422 C 325.424 0.958014 3.31536 0
M  V30 3423 C 324.537 2.16262 3.73971 0
M  V30 3424 C 323.672 1.83295 4.98575 0
M  V30 3425 C 322.711 3.00041 5.33518 0
M  V30 3426 N 321.848 2.67125 6.49299 0
M  V30 3427 H 326.688 2.17128 2.04107 0
M  V30 3428 H 324.225 1.07982 0.998913 0
M  V30 3429 H 326.183 0.785052 4.09747 0
M  V30 3430 H 324.813 0.046159 3.22767 0
M  V30 3431 H 323.865 2.44565 2.91362 0
M  V30 3432 H 325.177 3.03572 3.95785 0
M  V30 3433 H 324.331 1.62586 5.84509 0
M  V30 3434 H 323.07 0.932078 4.7871 0
M  V30 3435 H 322.075 3.21374 4.46093 0
M  V30 3436 H 323.3 3.90869 5.55336 0
M  V30 3437 H 321.246 1.79586 6.3094 0
M  V30 3438 H 321.163 3.47965 6.71161 0
M  V30 3439 H 322.431 2.49861 7.3837 0
M  V30 3440 N 326.66 -1.06551 1.16123 0
M  V30 3441 C 327.908 -1.78947 0.939267 0
M  V30 3442 C 328.229 -1.87532 -0.534476 0
M  V30 3443 O 327.499 -1.38211 -1.38833 0
M  V30 3444 H 326.079 -0.662807 0.344523 0
M  V30 3445 H 328.741 -1.28725 1.46342 0
M  V30 3446 H 327.837 -2.81117 1.35572 0
M  V30 3447 N 328.138 -0.959301 -1.25041 0
M  V30 3448 C 329.048 -0.489994 -2.29426 0
M  V30 3449 C 330.064 0.444944 -1.68215 0
M  V30 3450 O 331.24 0.320046 -1.98841 0
M  V30 3451 C 328.305 0.220309 -3.45999 0
M  V30 3452 C 327.366 -0.753418 -4.22637 0
M  V30 3453 C 326.599 -0.076918 -5.33645 0
M  V30 3454 O 326.822 1.13649 -5.58963 0
M  V30 3455 O 325.756 -0.764824 -5.97021 0
M  V30 3456 H 329.582 -1.35755 -2.71669 0
M  V30 3457 H 327.167 -0.725961 -1.30576 0
M  V30 3458 H 329.049 0.619677 -4.16819 0
M  V30 3459 H 327.724 1.06296 -3.0575 0
M  V30 3460 H 326.631 -1.20308 -3.54227 0
M  V30 3461 H 327.964 -1.56423 -4.66683 0
M  V30 3462 N 329.616 1.39756 -0.72842 0
M  V30 3463 C 330.841 2.05472 -0.282159 0
M  V30 3464 C 331.266 1.54549 1.07221 0
M  V30 3465 O 330.624 0.686372 1.67805 0
M  V30 3466 C 330.672 3.59462 -0.286264 0
M  V30 3467 O 329.776 4.05918 0.728298 0
M  V30 3468 H 329.117 0.651226 -0.129618 0
M  V30 3469 H 331.647 1.78915 -0.992499 0
M  V30 3470 H 331.657 4.07798 -0.128373 0
M  V30 3471 H 330.332 3.95889 -1.27456 0
M  V30 3472 H 328.909 3.69012 0.537081 0
M  V30 3473 N 331.094 0.475555 1.50254 0
M  V30 3474 C 332.024 -0.30611 2.31485 0
M  V30 3475 C 333.005 -0.986228 1.38591 0
M  V30 3476 O 334.19 -0.982541 1.67511 0
M  V30 3477 C 331.32 -1.38588 3.1845 0
M  V30 3478 C 330.274 -0.827115 4.19932 0
M  V30 3479 C 329.6 -2.00551 4.95665 0
M  V30 3480 C 330.9 0.16463 5.2204 0
M  V30 3481 H 332.594 0.371866 2.97082 0
M  V30 3482 H 330.14 0.180282 1.42867 0
M  V30 3483 H 332.093 -1.94023 3.74076 0
M  V30 3484 H 330.817 -2.09269 2.50747 0
M  V30 3485 H 329.476 -0.294702 3.65414 0
M  V30 3486 H 329.124 -2.6994 4.2443 0
M  V30 3487 H 328.824 -1.63784 5.64313 0
M  V30 3488 H 330.348 -2.56468 5.54127 0
M  V30 3489 H 331.762 -0.300699 5.72511 0
M  V30 3490 H 330.159 0.446813 5.98434 0
M  V30 3491 H 331.229 1.08905 4.72512 0
M  V30 3492 N 332.573 -1.56217 0.208337 0
M  V30 3493 C 333.82 -1.97949 -0.42692 0
M  V30 3494 C 334.148 -1.09562 -1.60706 0
M  V30 3495 O 333.403 -0.137616 -1.95216 0
M  V30 3496 C 333.702 -3.45441 -0.916797 0
M  V30 3497 C 333.368 -4.50646 0.151391 0
M  V30 3498 C 332.03 -4.79139 0.444867 0
M  V30 3499 C 334.382 -5.13811 0.874492 0
M  V30 3500 C 331.71 -5.68084 1.46619 0
M  V30 3501 C 334.062 -6.03861 1.88506 0
M  V30 3502 C 332.726 -6.30704 2.18559 0
M  V30 3503 H 331.996 -0.724345 -0.156221 0
M  V30 3504 H 334.643 -1.89006 0.308084 0
M  V30 3505 H 332.948 -3.51521 -1.73032 0
M  V30 3506 H 334.645 -3.75094 -1.41794 0
M  V30 3507 H 331.235 -4.28511 -0.0875068 0
M  V30 3508 H 335.419 -4.91879 0.660996 0
M  V30 3509 H 330.675 -5.87151 1.7048 0
M  V30 3510 H 334.849 -6.51861 2.45051 0
M  V30 3511 H 332.476 -6.99424 2.97843 0
M  V30 3512 N 334.051 0.0651679 -1.57465 0
M  V30 3513 C 335.001 1.0838 -2.00594 0
M  V30 3514 C 335.985 1.34106 -0.889071 0
M  V30 3515 O 337.177 1.34295 -1.15299 0
M  V30 3516 C 334.306 2.39565 -2.45894 0
M  V30 3517 C 333.392 2.17085 -3.64328 0
M  V30 3518 N 333.783 1.64553 -4.78285 0
M  V30 3519 C 332.081 2.4753 -3.71006 0
M  V30 3520 C 332.782 1.57042 -5.60101 0
M  V30 3521 N 331.758 2.03328 -5.04141 0
M  V30 3522 H 335.56 0.671062 -2.86136 0
M  V30 3523 H 333.074 0.27213 -1.60104 0
M  V30 3524 H 335.071 3.13308 -2.75034 0
M  V30 3525 H 333.731 2.81549 -1.61741 0
M  V30 3526 H 334.742 1.33323 -5.00445 0
M  V30 3527 H 331.419 2.92835 -2.9758 0
M  V30 3528 H 332.809 1.17223 -6.61595 0
M  V30 3529 N 335.529 1.53961 0.336706 0
M  V30 3530 C 336.754 1.75797 1.10046 0
M  V30 3531 C 337.179 0.498985 1.81361 0
M  V30 3532 O 336.537 -0.548769 1.72795 0
M  V30 3533 C 336.585 2.94257 2.08436 0
M  V30 3534 O 335.689 2.64883 3.16087 0
M  V30 3535 H 335.03 0.582936 0.317934 0
M  V30 3536 H 337.56 2.00945 0.38501 0
M  V30 3537 H 337.57 3.21237 2.51537 0
M  V30 3538 H 336.245 3.85564 1.55927 0
M  V30 3539 H 334.822 2.48812 2.77753 0
M  V30 3540 N 337.007 -0.598083 1.45811 0
M  V30 3541 C 337.954 -1.7082 1.55207 0
M  V30 3542 C 338.924 -1.61278 0.39732 0
M  V30 3543 O 340.109 -1.80717 0.612038 0
M  V30 3544 C 337.249 -3.09144 1.53376 0
M  V30 3545 C 336.362 -3.29423 2.79472 0
M  V30 3546 C 335.497 -4.57907 2.69248 0
M  V30 3547 C 334.536 -4.71476 3.90354 0
M  V30 3548 N 333.673 -5.9127 3.78608 0
M  V30 3549 H 338.513 -1.62125 2.50039 0
M  V30 3550 H 336.05 -0.790389 1.24062 0
M  V30 3551 H 338.008 -3.89186 1.50301 0
M  V30 3552 H 336.638 -3.16773 0.620876 0
M  V30 3553 H 335.69 -2.43091 2.92594 0
M  V30 3554 H 337.002 -3.3532 3.69272 0
M  V30 3555 H 336.156 -5.46157 2.64192 0
M  V30 3556 H 334.895 -4.54423 1.77063 0
M  V30 3557 H 333.9 -3.81648 3.95759 0
M  V30 3558 H 335.125 -4.76751 4.83617 0
M  V30 3559 H 333.071 -5.88813 2.89199 0
M  V30 3560 H 332.988 -5.98369 4.6205 0
M  V30 3561 H 334.256 -6.81992 3.77501 0
M  V30 3562 N 338.485 -1.33259 -0.841409 0
M  V30 3563 C 339.432 -1.23302 -1.95103 0
M  V30 3564 C 340.402 -0.112204 -1.65721 0
M  V30 3565 O 341.587 -0.290038 -1.88583 0
M  V30 3566 C 338.727 -0.975583 -3.31023 0
M  V30 3567 C 337.84 -2.18243 -3.72819 0
M  V30 3568 C 336.975 -1.85936 -4.97595 0
M  V30 3569 C 336.014 -3.02866 -5.3192 0
M  V30 3570 N 335.151 -2.70565 -6.47873 0
M  V30 3571 H 339.991 -2.18207 -2.02952 0
M  V30 3572 H 337.528 -1.0851 -0.993173 0
M  V30 3573 H 339.486 -0.80677 -4.09325 0
M  V30 3574 H 338.116 -0.0632755 -3.22738 0
M  V30 3575 H 337.168 -2.46107 -2.90061 0
M  V30 3576 H 338.48 -3.05666 -3.94169 0
M  V30 3577 H 337.634 -1.65684 -5.83638 0
M  V30 3578 H 336.373 -0.957452 -4.78209 0
M  V30 3579 H 335.378 -3.23736 -4.44382 0
M  V30 3580 H 336.603 -3.93809 -5.53255 0
M  V30 3581 H 334.549 -1.8293 -6.29978 0
M  V30 3582 H 334.466 -3.51519 -6.69306 0
M  V30 3583 H 335.734 -2.53774 -7.37034 0
M  V30 3584 N 339.963 1.05934 -1.16686 0
M  V30 3585 C 340.896 2.1295 -0.820225 0
M  V30 3586 C 341.874 1.61242 0.209722 0
M  V30 3587 O 343.058 1.88271 0.0929688 0
M  V30 3588 C 340.185 3.3797 -0.22223 0
M  V30 3589 C 339.231 4.08488 -1.22637 0
M  V30 3590 S 340.064 4.58015 -2.77457 0
M  V30 3591 C 341.22 5.86292 -2.19117 0
M  V30 3592 H 341.453 2.42025 -1.72659 0
M  V30 3593 H 338.986 1.18423 -0.990722 0
M  V30 3594 H 340.944 4.10335 0.116322 0
M  V30 3595 H 339.605 3.07045 0.66196 0
M  V30 3596 H 338.798 4.98291 -0.756455 0
M  V30 3597 H 338.4 3.42154 -1.51019 0
M  V30 3598 H 340.692 6.59246 -1.56209 0
M  V30 3599 H 341.635 6.38019 -3.07144 0
M  V30 3600 H 342.043 5.40497 -1.62858 0
M  V30 3601 N 341.441 0.965919 1.2453 0
M  V30 3602 C 342.718 0.543777 1.87889 0
M  V30 3603 C 343.098 -0.97909 1.87021 0
M  V30 3604 O 342.446 -1.84969 1.3416 0
M  V30 3605 C 342.656 1.13327 3.30088 0
M  V30 3606 C 344.004 1.21707 4.06783 0
M  V30 3607 O 345.028 1.08566 3.39252 0
M  V30 3608 O 343.887 1.42456 5.27606 0
M  V30 3609 H 340.981 0.181054 0.806938 0
M  V30 3610 H 343.527 1.06007 1.32516 0
M  V30 3611 H 342.299 2.17612 3.25209 0
M  V30 3612 H 341.922 0.600911 3.93033 0
M  V30 3613 N 342.919 -1.39368 0.735821 0
M  V30 3614 C 343.849 -2.33234 0.111506 0
M  V30 3615 C 344.83 -1.53954 -0.723334 0
M  V30 3616 O 346.015 -1.82344 -0.668147 0
M  V30 3617 C 343.145 -3.38057 -0.795917 0
M  V30 3618 C 342.099 -4.2795 -0.065172 0
M  V30 3619 C 341.425 -5.23479 -1.08967 0
M  V30 3620 C 342.725 -5.10741 1.09273 0
M  V30 3621 H 344.419 -2.85692 0.895571 0
M  V30 3622 H 341.965 -1.37364 0.432109 0
M  V30 3623 H 343.918 -4.02675 -1.24221 0
M  V30 3624 H 342.642 -2.8404 -1.61211 0
M  V30 3625 H 341.301 -3.64813 0.361511 0
M  V30 3626 H 340.949 -4.65758 -1.89944 0
M  V30 3627 H 340.649 -5.84472 -0.605489 0
M  V30 3628 H 342.173 -5.90974 -1.53565 0
M  V30 3629 H 343.587 -5.68699 0.724841 0
M  V30 3630 H 341.984 -5.8088 1.50659 0
M  V30 3631 H 343.054 -4.45525 1.91404 0
M  V30 3632 N 344.397 -0.483516 -1.5 0
M  V30 3633 C 345.625 0.0644831 -2.06799 0
M  V30 3634 C 346.04 1.32399 -1.34596 0
M  V30 3635 O 345.397 1.77626 -0.418946 0
M  V30 3636 C 345.448 0.339927 -3.59898 0
M  V30 3637 O 345.169 -0.869635 -4.29382 0
M  V30 3638 C 346.67 0.933515 -4.33359 0
M  V30 3639 H 343.89 -0.0126333 -0.670881 0
M  V30 3640 H 346.434 -0.675864 -1.93009 0
M  V30 3641 H 344.589 1.03022 -3.7345 0
M  V30 3642 H 345.003 -0.62179 -5.20801 0
M  V30 3643 H 346.477 1.07593 -5.41413 0
M  V30 3644 H 346.954 1.92685 -3.94676 0
M  V30 3645 H 347.56 0.281221 -4.24369 0
M  V30 3646 N 345.875 1.56104 -0.216619 0
M  V30 3647 C 347.121 1.98466 0.417033 0
M  V30 3648 C 347.454 1.10403 1.59765 0
M  V30 3649 O 346.729 0.160632 1.93836 0
M  V30 3650 C 347.012 3.49769 0.85637 0
M  V30 3651 C 346.865 4.48606 -0.327546 0
M  V30 3652 C 348.184 4.05339 1.7143 0
M  V30 3653 H 345.303 0.721551 0.150112 0
M  V30 3654 H 347.945 1.87423 -0.311864 0
M  V30 3655 H 346.095 3.5931 1.47745 0
M  V30 3656 H 347.767 4.5108 -0.965618 0
M  V30 3657 H 346.01 4.22682 -0.975805 0
M  V30 3658 H 346.681 5.51995 0.0227149 0
M  V30 3659 H 349.157 3.98712 1.19031 0
M  V30 3660 H 348.033 5.11533 1.99061 0
M  V30 3661 H 348.294 3.51918 2.67593 0
M  V30 3662 N 347.353 -0.0568162 1.57498 0
M  V30 3663 C 348.301 -1.08452 2.05769 0
M  V30 3664 C 349.295 -1.39164 0.965903 0
M  V30 3665 O 350.501 -1.38395 1.15095 0
M  V30 3666 H 346.876 -0.367148 0.656282 0
M  V30 3667 H 348.847 -0.651368 2.91204 0
M  V30 3668 C 347.596 -2.38543 2.52968 0
M  V30 3669 H 346.919 -2.15765 3.36579 0
M  V30 3670 H 348.359 -3.08863 2.90481 0
M  V30 3671 C 346.818 -3.05562 1.41893 0
M  V30 3672 O 347.348 -3.94262 0.769442 0
M  V30 3673 N 345.554 -2.6643 1.16032 0
M  V30 3674 H 345.101 -1.94387 1.6903 0
M  V30 3675 H 345.059 -3.11593 0.419219 0
M  V30 3676 N 348.832 -1.54138 -0.328536 0
M  V30 3677 C 350.08 -1.71765 -1.06496 0
M  V30 3678 C 350.401 -0.49149 -1.88704 0
M  V30 3679 O 349.671 0.494539 -1.89555 0
M  V30 3680 H 348.251 -0.633295 -0.396164 0
M  V30 3681 H 350.913 -1.91429 -0.366176 0
M  V30 3682 H 350.009 -2.5951 -1.73381 0
M  V30 3683 N 350.31 0.590341 -1.46126 0
M  V30 3684 C 351.22 1.72793 -1.58681 0
M  V30 3685 C 352.236 1.67516 -0.470566 0
M  V30 3686 O 353.412 1.87562 -0.733642 0
M  V30 3687 C 350.477 3.09287 -1.5666 0
M  V30 3688 C 349.538 3.25886 -2.79458 0
M  V30 3689 C 348.771 4.55869 -2.77524 0
M  V30 3690 O 348.994 5.3928 -1.85832 0
M  V30 3691 O 347.928 4.75552 -3.68964 0
M  V30 3692 H 351.754 1.65149 -2.54872 0
M  V30 3693 H 349.339 0.756486 -1.28832 0
M  V30 3694 H 351.221 3.90577 -1.58202 0
M  V30 3695 H 349.896 3.17385 -0.636271 0
M  V30 3696 H 348.803 2.44119 -2.83472 0
M  V30 3697 H 350.136 3.22675 -3.71674 0
M  V30 3698 N 351.788 1.33704 0.83433 0
M  V30 3699 C 352.72 1.20172 1.9517 0
M  V30 3700 C 353.733 0.131572 1.62267 0
M  V30 3701 O 354.922 0.382406 1.74356 0
M  V30 3702 C 352.022 0.821716 3.28787 0
M  V30 3703 C 351.195 1.98446 3.89792 0
M  V30 3704 C 350.254 1.58469 5.01771 0
M  V30 3705 O 349.28 2.29968 5.20676 0
M  V30 3706 N 350.482 0.492291 5.78409 0
M  V30 3707 H 353.247 2.16429 2.07313 0
M  V30 3708 H 350.808 1.26509 1.0103 0
M  V30 3709 H 352.8 0.536291 4.01131 0
M  V30 3710 H 351.37 -0.0503058 3.1256 0
M  V30 3711 H 350.59 2.43526 3.09982 0
M  V30 3712 H 351.878 2.76236 4.27283 0
M  V30 3713 H 351.276 -0.102349 5.65607 0
M  V30 3714 H 349.833 0.266555 6.51255 0
M  V30 3715 N 353.266 -1.05314 1.17247 0
M  V30 3716 C 354.196 -2.1498 0.911362 0
M  V30 3717 C 355.177 -1.69471 -0.146169 0
M  V30 3718 O 356.362 -1.942 0.003812 0
M  V30 3719 C 353.492 -3.4472 0.422528 0
M  V30 3720 C 352.446 -4.03789 1.4191 0
M  V30 3721 C 351.772 -5.28858 0.788274 0
M  V30 3722 C 353.072 -4.41418 2.7919 0
M  V30 3723 H 354.766 -2.3708 1.82848 0
M  V30 3724 H 352.312 -1.13938 0.880569 0
M  V30 3725 H 354.265 -4.20787 0.227289 0
M  V30 3726 H 352.989 -3.22269 -0.530123 0
M  V30 3727 H 351.648 -3.2979 1.60106 0
M  V30 3728 H 351.296 -5.02709 -0.171173 0
M  V30 3729 H 350.996 -5.69338 1.45353 0
M  V30 3730 H 352.52 -6.07612 0.603282 0
M  V30 3731 H 353.934 -5.08524 2.64719 0
M  V30 3732 H 352.331 -4.92913 3.42282 0
M  V30 3733 H 353.401 -3.51819 3.33693 0
M  V30 3734 N 354.744 -0.972509 -1.24016 0
M  V30 3735 C 356.021 -0.553733 -1.87598 0
M  V30 3736 C 356.401 0.969158 -1.87538 0
M  V30 3737 O 355.749 1.84255 -1.35139 0
M  V30 3738 C 355.959 -1.15076 -3.29482 0
M  V30 3739 C 357.307 -1.23862 -4.06132 0
M  V30 3740 O 358.331 -1.10363 -3.38672 0
M  V30 3741 O 357.19 -1.45252 -5.26844 0
M  V30 3742 H 354.284 -0.185331 -0.805966 0
M  V30 3743 H 356.83 -1.06709 -1.31952 0
M  V30 3744 H 355.602 -2.19333 -3.2405 0
M  V30 3745 H 355.225 -0.621746 -3.92709 0
M  V30 3746 N 356.222 1.38976 -0.743202 0
M  V30 3747 C 357.152 2.33171 -0.123873 0
M  V30 3748 C 358.133 1.54336 0.71516 0
M  V30 3749 O 359.318 1.82696 0.658467 0
M  V30 3750 C 356.448 3.38474 0.777978 0
M  V30 3751 C 355.402 4.27979 0.0424758 0
M  V30 3752 C 354.728 5.2405 1.06189 0
M  V30 3753 C 356.028 5.10155 -1.1198 0
M  V30 3754 H 357.722 2.85213 -0.910709 0
M  V30 3755 H 355.268 1.37133 -0.439388 0
M  V30 3756 H 357.221 4.03328 1.22084 0
M  V30 3757 H 355.945 2.84891 1.59702 0
M  V30 3758 H 354.604 3.64616 -0.380853 0
M  V30 3759 H 354.252 4.66758 1.87472 0
M  V30 3760 H 353.952 5.84785 0.574485 0
M  V30 3761 H 355.476 5.9178 1.50428 0
M  V30 3762 H 356.89 5.68307 -0.75499 0
M  V30 3763 H 355.287 5.80073 -1.53738 0
M  V30 3764 H 356.357 4.44504 -1.93764 0
M  V30 3765 N 357.7 0.491464 1.49741 0
M  V30 3766 C 358.977 -0.118984 1.95238 0
M  V30 3767 C 359.357 -1.55044 1.43264 0
M  V30 3768 O 358.705 -2.19287 0.642287 0
M  V30 3769 C 358.915 -0.0414187 3.48975 0
M  V30 3770 C 360.263 -0.220133 4.24029 0
M  V30 3771 O 361.287 -0.117055 3.56008 0
M  V30 3772 O 360.146 -0.430567 5.44801 0
M  V30 3773 H 357.24 -0.100536 0.820866 0
M  V30 3774 H 359.786 0.553322 1.60426 0
M  V30 3775 H 358.558 0.957214 3.79412 0
M  V30 3776 H 358.181 -0.754292 3.9038 0
M  V30 3777 N 359.178 -1.55987 0.224894 0
M  V30 3778 C 360.589 -1.84553 -0.282345 0
M  V30 3779 C 360.94 -1.14634 -1.59227 0
M  V30 3780 O 360.065 -0.417155 -2.12341 0
M  V30 3781 C 360.66 -3.348 -0.519062 0
M  V30 3782 C 359.219 -3.63671 -0.970604 0
M  V30 3783 C 358.366 -2.77277 -0.0355261 0
M  V30 3784 H 361.317 -1.52245 0.448006 0
M  V30 3785 H 361.338 -3.55187 -1.36463 0
M  V30 3786 H 360.85 -3.8566 0.43449 0
M  V30 3787 H 358.951 -3.1827 -1.9374 0
M  V30 3788 H 359.064 -4.71631 -0.842698 0
M  V30 3789 H 357.428 -2.48846 -0.542927 0
M  V30 3790 H 358.211 -3.30937 0.913003 0
M  V30 3791 N 360.656 0.0484629 -1.57525 0
M  V30 3792 C 361.904 0.741657 -1.88 0
M  V30 3793 C 362.225 1.76918 -0.820054 0
M  V30 3794 O 361.495 1.95335 0.148661 0
M  V30 3795 H 360.075 0.276908 -0.69378 0
M  V30 3796 H 362.737 0.019013 -1.94891 0
M  V30 3797 H 361.833 1.24336 -2.86264 0
M  V30 3798 N 362.134 1.5431 0.320358 0
M  V30 3799 C 363.066 1.80262 1.41556 0
M  V30 3800 C 364.079 0.684723 1.477 0
M  V30 3801 O 365.268 0.961886 1.50366 0
M  V30 3802 C 362.368 1.90825 2.8007 0
M  V30 3803 C 361.541 3.21023 2.97091 0
M  V30 3804 C 360.6 3.22247 4.15985 0
M  V30 3805 O 359.626 3.95871 4.08992 0
M  V30 3806 N 360.828 2.46258 5.25678 0
M  V30 3807 H 363.593 2.74778 1.19655 0
M  V30 3808 H 361.154 1.53646 0.510358 0
M  V30 3809 H 363.146 1.89067 3.57821 0
M  V30 3810 H 361.716 1.03392 2.95006 0
M  V30 3811 H 360.936 3.35715 2.06614 0
M  V30 3812 H 362.224 4.0698 3.05361 0
M  V30 3813 H 361.622 1.86037 5.34235 0
M  V30 3814 H 360.179 2.50275 6.01835 0
M  V30 3815 N 363.613 -0.582584 1.46437 0
M  V30 3816 C 364.841 -1.36682 1.55324 0
M  V30 3817 C 365.256 -1.87796 0.194409 0
M  V30 3818 O 364.613 -1.63623 -0.808318 0
M  V30 3819 C 364.664 -2.55426 2.55812 0
M  V30 3820 O 364.385 -2.0643 3.86417 0
M  V30 3821 C 365.886 -3.47976 2.74641 0
M  V30 3822 H 363.106 -0.417545 0.525259 0
M  V30 3823 H 365.65 -0.708219 1.91845 0
M  V30 3824 H 363.805 -3.17275 2.22295 0
M  V30 3825 H 364.219 -2.83762 4.41111 0
M  V30 3826 H 365.693 -4.27775 3.48874 0
M  V30 3827 H 366.17 -3.99919 1.81553 0
M  V30 3828 H 366.776 -2.91962 3.09255 0
M  V30 3829 N 365.091 -1.34144 -0.827227 0
M  V30 3830 C 366.021 -1.28005 -1.95287 0
M  V30 3831 C 367.002 -0.158321 -1.69362 0
M  V30 3832 O 368.187 -0.349987 -1.9102 0
M  V30 3833 C 365.317 -1.03036 -3.31664 0
M  V30 3834 C 364.271 -2.11628 -3.72019 0
M  V30 3835 C 363.597 -1.71854 -5.0633 0
M  V30 3836 C 364.897 -3.53417 -3.8457 0
M  V30 3837 H 366.591 -2.22187 -2.00682 0
M  V30 3838 H 364.137 -1.0696 -0.964135 0
M  V30 3839 H 366.09 -0.973863 -4.09993 0
M  V30 3840 H 364.814 -0.0529391 -3.26557 0
M  V30 3841 H 363.473 -2.16339 -2.95961 0
M  V30 3842 H 363.121 -0.727841 -4.97706 0
M  V30 3843 H 362.821 -2.44531 -5.34302 0
M  V30 3844 H 364.345 -1.67692 -5.87122 0
M  V30 3845 H 365.759 -3.51142 -4.5318 0
M  V30 3846 H 364.156 -4.24679 -4.2399 0
M  V30 3847 H 365.226 -3.91072 -2.86689 0
M  V30 3848 N 366.569 1.04691 -1.17803 0
M  V30 3849 C 367.818 1.77176 -0.963931 0
M  V30 3850 C 368.131 1.88888 0.508015 0
M  V30 3851 O 369.337 2.58164 0.840465 0
M  V30 3852 C 367.793 3.18518 -1.67555 0
M  V30 3853 C 367.401 3.14919 -3.18637 0
M  V30 3854 C 369.145 3.95424 -1.54402 0
M  V30 3855 C 367.052 4.51081 -3.82466 0
M  V30 3856 H 365.982 0.664116 -0.357023 0
M  V30 3857 H 368.633 1.17303 -1.4111 0
M  V30 3858 H 367.015 3.78748 -1.15613 0
M  V30 3859 H 368.189 2.64178 -3.77554 0
M  V30 3860 H 366.504 2.51512 -3.31859 0
M  V30 3861 H 369.101 4.96106 -1.99456 0
M  V30 3862 H 369.444 4.13343 -0.495329 0
M  V30 3863 H 369.977 3.41754 -2.0359 0
M  V30 3864 H 366.716 4.38368 -4.87354 0
M  V30 3865 H 366.236 5.01951 -3.28337 0
M  V30 3866 H 367.915 5.2001 -3.84965 0
M  V30 3867 N 368.047 0.979072 1.23499 0
M  V30 3868 C 369.277 0.664237 1.95631 0
M  V30 3869 C 369.685 -0.772653 1.72704 0
M  V30 3870 O 369.028 -1.53141 1.01457 0
M  V30 3871 C 369.09 0.873115 3.48736 0
M  V30 3872 C 368.754 2.29182 3.95379 0
M  V30 3873 C 369.751 3.2704 4.04155 0
M  V30 3874 C 367.436 2.62256 4.28401 0
M  V30 3875 C 369.43 4.56052 4.45304 0
M  V30 3876 C 367.117 3.91491 4.69231 0
M  V30 3877 C 368.115 4.88201 4.77649 0
M  V30 3878 O 367.803 6.15129 5.17563 0
M  V30 3879 H 367.535 0.245915 0.629684 0
M  V30 3880 H 370.089 1.3127 1.57979 0
M  V30 3881 H 368.319 0.167476 3.86337 0
M  V30 3882 H 370.008 0.555642 4.02079 0
M  V30 3883 H 370.774 3.02819 3.78848 0
M  V30 3884 H 366.653 1.87692 4.21061 0
M  V30 3885 H 370.197 5.31538 4.51789 0
M  V30 3886 H 366.094 4.15508 4.93987 0
M  V30 3887 H 366.862 6.18862 5.35679 0
M  V30 3888 N 369.525 -1.3858 0.750561 0
M  V30 3889 C 370.755 -2.04175 0.31564 0
M  V30 3890 C 371.163 -1.56726 -1.05989 0
M  V30 3891 O 370.506 -0.734225 -1.68389 0
M  V30 3892 C 370.568 -3.58585 0.256389 0
M  V30 3893 C 370.232 -4.29077 1.57296 0
M  V30 3894 C 371.229 -4.54656 2.52159 0
M  V30 3895 C 368.914 -4.67324 1.84156 0
M  V30 3896 C 370.908 -5.17512 3.72103 0
M  V30 3897 C 368.595 -5.29905 3.04374 0
M  V30 3898 C 369.593 -5.54933 3.98168 0
M  V30 3899 O 369.281 -6.16212 5.16273 0
M  V30 3900 H 369.013 -0.662742 0.133226 0
M  V30 3901 H 371.567 -1.78313 1.01948 0
M  V30 3902 H 369.797 -3.83406 -0.503677 0
M  V30 3903 H 371.486 -4.05628 -0.148612 0
M  V30 3904 H 372.252 -4.25539 2.32683 0
M  V30 3905 H 368.131 -4.47191 1.11988 0
M  V30 3906 H 371.675 -5.36963 4.45327 0
M  V30 3907 H 367.572 -5.58444 3.23745 0
M  V30 3908 H 368.34 -6.34701 5.16815 0
M  V30 3909 N 371.003 -0.499398 -1.49478 0
M  V30 3910 C 372.249 0.0457576 -2.02748 0
M  V30 3911 C 372.582 1.36793 -1.37846 0
M  V30 3912 O 371.857 1.87596 -0.513601 0
M  V30 3913 C 372.14 0.199986 -3.59544 0
M  V30 3914 C 371.993 -1.1452 -4.34977 0
M  V30 3915 C 373.312 0.94137 -4.29914 0
M  V30 3916 H 370.431 0.0151552 -0.736844 0
M  V30 3917 H 373.073 -0.650498 -1.78518 0
M  V30 3918 H 371.223 0.793007 -3.8032 0
M  V30 3919 H 372.895 -1.77697 -4.25701 0
M  V30 3920 H 371.138 -1.73488 -3.97598 0
M  V30 3921 H 371.809 -0.990607 -5.43039 0
M  V30 3922 H 374.285 0.43844 -4.13784 0
M  V30 3923 H 373.161 1.01812 -5.39375 0
M  V30 3924 H 373.422 1.98471 -3.95046 0
M  V30 3925 N 372.481 1.55866 -0.233164 0
M  V30 3926 C 373.758 1.90471 0.444988 0
M  V30 3927 C 374.138 1.15209 1.7689 0
M  V30 3928 O 373.486 0.265119 2.26957 0
M  V30 3929 C 373.696 3.4333 0.626559 0
M  V30 3930 C 375.044 4.14319 0.92871 0
M  V30 3931 O 376.068 3.48993 0.712926 0
M  V30 3932 O 374.927 5.29846 1.33887 0
M  V30 3933 H 372.021 0.792347 0.236885 0
M  V30 3934 H 374.567 1.67437 -0.276211 0
M  V30 3935 H 373.339 3.90095 -0.306822 0
M  V30 3936 H 372.962 3.72181 1.39881 0
M  V30 3937 N 373.959 -0.0401083 1.57549 0
M  V30 3938 C 374.869 -1.06133 2.0922 0
M  V30 3939 C 375.885 -1.40356 1.0284 0
M  V30 3940 O 377.061 -1.49897 1.34509 0
M  V30 3941 C 374.126 -2.34658 2.55218 0
M  V30 3942 C 373.187 -2.07117 3.76033 0
M  V30 3943 C 372.42 -3.29514 4.19829 0
M  V30 3944 O 372.643 -4.39794 3.63232 0
M  V30 3945 O 371.577 -3.15863 5.12362 0
M  V30 3946 H 375.403 -0.652244 2.96613 0
M  V30 3947 H 372.988 -0.256368 1.47184 0
M  V30 3948 H 374.87 -3.10239 2.85184 0
M  V30 3949 H 373.545 -2.74883 1.70941 0
M  V30 3950 H 372.452 -1.29139 3.51104 0
M  V30 3951 H 373.785 -1.71754 4.61261 0
M  V30 3952 N 375.437 -1.54477 -0.31217 0
M  V30 3953 C 376.384 -1.84655 -1.38461 0
M  V30 3954 C 377.354 -0.694536 -1.50882 0
M  V30 3955 O 378.539 -0.942081 -1.6592 0
M  V30 3956 C 375.679 -2.0896 -2.74645 0
M  V30 3957 C 374.792 -3.36618 -2.70763 0
M  V30 3958 C 373.927 -3.50824 -3.98868 0
M  V30 3959 C 372.966 -4.72315 -3.89339 0
M  V30 3960 N 372.103 -4.83387 -5.09197 0
M  V30 3961 H 376.943 -2.76142 -1.12026 0
M  V30 3962 H 374.48 -1.36748 -0.542065 0
M  V30 3963 H 376.438 -2.21045 -3.53829 0
M  V30 3964 H 375.068 -1.20752 -2.99364 0
M  V30 3965 H 374.12 -3.33211 -1.83506 0
M  V30 3966 H 375.432 -4.25917 -2.59608 0
M  V30 3967 H 374.586 -3.62513 -4.86486 0
M  V30 3968 H 373.325 -2.59638 -4.12843 0
M  V30 3969 H 372.33 -4.6067 -3.00105 0
M  V30 3970 H 373.555 -5.64897 -3.76919 0
M  V30 3971 H 371.501 -3.9512 -5.23657 0
M  V30 3972 H 371.418 -5.66669 -5.00422 0
M  V30 3973 H 372.686 -4.9942 -5.98498 0
M  V30 3974 N 376.915 0.57481 -1.46744 0
M  V30 3975 C 377.878 1.66533 -1.57478 0
M  V30 3976 C 378.878 1.54338 -0.451263 0
M  V30 3977 O 380.068 1.58814 -0.715813 0
M  V30 3978 C 377.2 3.05999 -1.50259 0
M  V30 3979 H 378.393 1.58372 -2.54673 0
M  V30 3980 H 375.946 0.793301 -1.34672 0
M  V30 3981 H 376.681 3.19709 -0.543725 0
M  V30 3982 H 376.466 3.16259 -2.31781 0
M  V30 3983 H 377.956 3.8537 -1.60872 0
M  V30 3984 N 378.394 1.34581 0.820102 0
M  V30 3985 C 379.805 1.24298 1.39309 0
M  V30 3986 C 380.156 -0.130351 1.95767 0
M  V30 3987 O 379.281 -1.0308 1.90272 0
M  V30 3988 C 379.876 2.25054 2.53251 0
M  V30 3989 C 378.435 2.18552 3.0645 0
M  V30 3990 C 377.582 2.11503 1.79337 0
M  V30 3991 H 380.533 1.45906 0.624262 0
M  V30 3992 H 380.554 1.86917 3.31425 0
M  V30 3993 H 380.066 3.24996 2.1213 0
M  V30 3994 H 378.167 1.21976 3.52069 0
M  V30 3995 H 378.28 3.0993 3.65349 0
M  V30 3996 H 376.644 1.57268 2.00347 0
M  V30 3997 H 377.427 3.13284 1.40386 0
M  V30 3998 N 379.872 -1.04064 1.18357 0
M  V30 3999 C 380.782 -2.15569 0.925596 0
M  V30 4000 C 381.798 -1.7365 -0.110295 0
M  V30 4001 O 382.974 -2.01273 0.0716218 0
M  V30 4002 C 380.039 -3.43704 0.454836 0
M  V30 4003 C 379.1 -4.00004 1.55869 0
M  V30 4004 C 378.333 -5.22023 1.1103 0
M  V30 4005 O 378.556 -5.70392 -0.0309756 0
M  V30 4006 O 377.49 -5.70856 1.90805 0
M  V30 4007 H 381.316 -2.40187 1.8586 0
M  V30 4008 H 378.901 -1.1402 0.965394 0
M  V30 4009 H 380.783 -4.20923 0.200382 0
M  V30 4010 H 379.458 -3.20559 -0.449876 0
M  V30 4011 H 378.365 -3.24172 1.86716 0
M  V30 4012 H 379.698 -4.2749 2.43953 0
M  V30 4013 N 381.35 -0.985608 -1.22978 0
M  V30 4014 C 382.597 -0.657386 -1.91532 0
M  V30 4015 C 382.925 0.809707 -1.76845 0
M  V30 4016 O 382.18 1.60021 -1.12658 0
M  V30 4017 C 382.479 -1.00014 -3.43121 0
M  V30 4018 C 382.145 -2.4583 -3.77993 0
M  V30 4019 C 380.807 -2.85679 -3.87222 0
M  V30 4020 C 383.159 -3.40378 -3.94705 0
M  V30 4021 C 380.487 -4.19081 -4.10595 0
M  V30 4022 C 382.839 -4.73429 -4.1958 0
M  V30 4023 C 381.503 -5.1303 -4.27032 0
M  V30 4024 H 380.773 -0.240555 -0.700867 0
M  V30 4025 H 383.42 -1.24044 -1.45895 0
M  V30 4026 H 381.725 -0.335072 -3.90365 0
M  V30 4027 H 383.422 -0.724322 -3.94404 0
M  V30 4028 H 380.012 -2.13939 -3.71387 0
M  V30 4029 H 384.196 -3.10766 -3.8696 0
M  V30 4030 H 379.452 -4.49362 -4.14589 0
M  V30 4031 H 383.626 -5.46644 -4.31455 0
M  V30 4032 H 381.253 -6.16418 -4.44896 0
M  V30 4033 N 382.828 1.3818 -0.7579 0
M  V30 4034 C 384.053 2.04827 -0.325679 0
M  V30 4035 C 384.478 1.56788 1.03919 0
M  V30 4036 O 383.836 0.721811 1.66312 0
M  V30 4037 C 383.884 3.58774 -0.362447 0
M  V30 4038 O 382.988 4.07372 0.642033 0
M  V30 4039 H 382.329 0.64833 -0.143402 0
M  V30 4040 H 384.859 1.7677 -1.03023 0
M  V30 4041 H 384.869 4.07434 -0.214844 0
M  V30 4042 H 383.544 3.93096 -1.35824 0
M  V30 4043 H 382.121 3.70068 0.458688 0
M  V30 4044 N 384.306 0.507319 1.49211 0
M  V30 4045 C 385.239 -0.314509 2.26022 0
M  V30 4046 C 386.217 -0.964849 1.30879 0
M  V30 4047 O 387.401 -0.993707 1.6018 0
M  V30 4048 C 384.528 -1.44346 3.06402 0
M  V30 4049 C 383.574 -0.90685 4.16748 0
M  V30 4050 S 384.407 0.207392 5.35098 0
M  V30 4051 C 385.563 -0.924573 6.19033 0
M  V30 4052 H 385.796 0.337416 2.95379 0
M  V30 4053 H 383.329 0.292718 1.516 0
M  V30 4054 H 385.287 -2.09029 3.53295 0
M  V30 4055 H 383.948 -2.06702 2.36502 0
M  V30 4056 H 383.141 -1.75309 4.72528 0
M  V30 4057 H 382.743 -0.33712 3.72478 0
M  V30 4058 H 385.035 -1.82839 6.52362 0
M  V30 4059 H 385.978 -0.405248 7.06939 0
M  V30 4060 H 386.386 -1.19476 5.51712 0
M  V30 4061 N 385.784 -1.5574 0.241426 0
M  V30 4062 C 386.716 -2.18469 -0.693091 0
M  V30 4063 C 387.729 -1.15942 -1.14286 0
M  V30 4064 O 388.918 -1.42832 -1.07058 0
M  V30 4065 C 386.018 -2.7696 -1.95311 0
M  V30 4066 C 385.191 -4.04853 -1.65568 0
M  V30 4067 C 384.25 -4.47715 -2.76474 0
M  V30 4068 O 383.276 -5.14205 -2.44094 0
M  V30 4069 N 384.478 -4.15044 -4.05855 0
M  V30 4070 H 387.243 -2.99292 -0.156388 0
M  V30 4071 H 384.804 -1.61784 0.0611752 0
M  V30 4072 H 386.796 -3.02594 -2.68736 0
M  V30 4073 H 385.366 -2.00326 -2.39975 0
M  V30 4074 H 384.586 -3.86865 -0.756886 0
M  V30 4075 H 385.874 -4.88246 -1.43153 0
M  V30 4076 H 385.272 -3.61654 -4.34998 0
M  V30 4077 H 383.829 -4.45526 -4.75762 0
M  V30 4078 N 387.262 0.0317525 -1.57568 0
M  V30 4079 C 388.51 0.721676 -1.88776 0
M  V30 4080 C 388.831 1.76039 -0.838772 0
M  V30 4081 O 388.101 1.95482 0.127935 0
M  V30 4082 H 386.681 0.269534 -0.696678 0
M  V30 4083 H 389.343 -0.00165879 -1.949 0
M  V30 4084 H 388.439 1.21293 -2.87566 0
M  V30 4085 N 388.74 1.54641 0.303973 0
M  V30 4086 C 389.67 1.88386 1.3796 0
M  V30 4087 C 390.651 0.742485 1.5304 0
M  V30 4088 O 391.836 0.997959 1.66597 0
M  V30 4089 C 388.966 2.12854 2.74427 0
M  V30 4090 C 387.92 3.28702 2.74115 0
M  V30 4091 C 387.246 3.38582 4.13844 0
M  V30 4092 C 388.546 4.65881 2.3612 0
M  V30 4093 H 390.24 2.78474 1.09966 0
M  V30 4094 H 387.786 1.33988 0.527556 0
M  V30 4095 H 389.739 2.35047 3.49758 0
M  V30 4096 H 388.463 1.19535 3.03939 0
M  V30 4097 H 387.122 3.06428 2.0124 0
M  V30 4098 H 386.77 2.42784 4.40528 0
M  V30 4099 H 386.47 4.16453 4.14537 0
M  V30 4100 H 387.994 3.63031 4.90959 0
M  V30 4101 H 389.408 4.87823 3.01167 0
M  V30 4102 H 387.805 5.46444 2.48031 0
M  V30 4103 H 388.875 4.66799 1.3125 0
M  V30 4104 N 390.218 -0.567019 1.47046 0
M  V30 4105 C 391.165 -1.67489 1.58796 0
M  V30 4106 C 392.135 -1.60399 0.43144 0
M  V30 4107 O 393.32 -1.79378 0.650233 0
M  V30 4108 C 390.46 -3.05821 1.59899 0
M  V30 4109 C 389.573 -3.2342 2.86397 0
M  V30 4110 C 388.708 -4.52093 2.789 0
M  V30 4111 C 387.747 -4.6309 4.00267 0
M  V30 4112 N 386.884 -5.83106 3.91064 0
M  V30 4113 H 391.724 -1.56785 2.53422 0
M  V30 4114 H 389.261 -0.763896 1.2571 0
M  V30 4115 H 391.219 -3.8591 1.58522 0
M  V30 4116 H 389.849 -3.15384 0.687929 0
M  V30 4117 H 388.901 -2.3683 2.97684 0
M  V30 4118 H 390.213 -3.27412 3.76301 0
M  V30 4119 H 389.367 -5.4043 2.75718 0
M  V30 4120 H 388.106 -4.50565 1.86662 0
M  V30 4121 H 387.111 -3.73168 4.03765 0
M  V30 4122 H 388.336 -4.66386 4.93621 0
M  V30 4123 H 386.282 -5.82546 3.01623 0
M  V30 4124 H 386.199 -5.88434 4.74638 0
M  V30 4125 H 387.467 -6.73831 3.91882 0
M  V30 4126 N 391.696 -1.35014 -0.812953 0
M  V30 4127 C 392.659 -1.27292 -1.90602 0
M  V30 4128 C 393.659 -0.185817 -1.59723 0
M  V30 4129 O 394.849 -0.439102 -1.68575 0
M  V30 4130 C 391.981 -0.967676 -3.26877 0
M  V30 4131 H 393.174 -2.24479 -1.9887 0
M  V30 4132 H 390.727 -1.19446 -1.00808 0
M  V30 4133 H 391.462 0.0005954 -3.243 0
M  V30 4134 H 391.247 -1.75412 -3.50675 0
M  V30 4135 H 392.737 -0.939085 -4.06904 0
M  V30 4136 N 393.175 1.03435 -1.18907 0
M  V30 4137 C 394.423 1.76394 -0.986382 0
M  V30 4138 C 394.744 1.88883 0.484567 0
M  V30 4139 O 394.014 1.41843 1.3512 0
M  V30 4140 H 392.594 0.65344 -0.361975 0
M  V30 4141 H 395.256 1.248 -1.49703 0
M  V30 4142 H 394.352 2.77424 -1.42978 0
M  V30 4143 N 394.653 0.992116 1.22453 0
M  V30 4144 C 395.899 0.668523 1.91464 0
M  V30 4145 C 396.232 -0.797313 1.77078 0
M  V30 4146 O 395.507 -1.5765 1.13916 0
M  V30 4147 C 395.79 1.07424 3.43703 0
M  V30 4148 C 395.643 2.59857 3.67143 0
M  V30 4149 C 396.962 0.626891 4.35612 0
M  V30 4150 H 394.081 0.244341 0.695318 0
M  V30 4151 H 396.723 1.2355 1.44345 0
M  V30 4152 H 394.873 0.591816 3.83966 0
M  V30 4153 H 396.545 3.15764 3.3629 0
M  V30 4154 H 394.788 3.01961 3.11451 0
M  V30 4155 H 395.459 2.83296 4.73759 0
M  V30 4156 H 397.935 1.04125 4.02861 0
M  V30 4157 H 396.811 0.939076 5.40807 0
M  V30 4158 H 397.072 -0.472457 4.39568 0
M  V30 4159 N 396.131 -1.37776 0.765217 0
M  V30 4160 C 397.38 -1.99092 0.323307 0
M  V30 4161 C 397.693 -1.61434 -1.10446 0
M  V30 4162 O 398.899 -2.15805 -1.64743 0
M  V30 4163 C 397.355 -3.56019 0.527098 0
M  V30 4164 C 396.963 -4.0262 1.96471 0
M  V30 4165 C 398.707 -4.2424 0.148483 0
M  V30 4166 C 396.614 -5.52233 2.11644 0
M  V30 4167 H 395.544 -0.744846 0.117137 0
M  V30 4168 H 398.195 -1.57391 0.943417 0
M  V30 4169 H 396.577 -3.95667 -0.162372 0
M  V30 4170 H 397.751 -3.74234 2.68859 0
M  V30 4171 H 396.066 -3.47161 2.29931 0
M  V30 4172 H 398.663 -5.34159 0.240456 0
M  V30 4173 H 399.006 -4.06446 -0.900422 0
M  V30 4174 H 399.539 -3.89872 0.79025 0
M  V30 4175 H 396.278 -5.74945 3.1483 0
M  V30 4176 H 395.798 -5.82324 1.4373 0
M  V30 4177 H 397.477 -6.18106 1.91193 0
M  V30 4178 N 397.609 -0.515225 -1.4894 0
M  V30 4179 C 398.572 0.244681 -2.2789 0
M  V30 4180 C 399.572 0.881166 -1.34507 0
M  V30 4181 O 400.762 0.743497 -1.57537 0
M  V30 4182 C 397.894 1.35247 -3.12923 0
M  V30 4183 H 399.087 -0.448289 -2.96531 0
M  V30 4184 H 396.64 -0.270656 -1.53939 0
M  V30 4185 H 397.375 2.07916 -2.48881 0
M  V30 4186 H 397.16 0.901374 -3.81599 0
M  V30 4187 H 398.65 1.88737 -3.72516 0
M  V30 4188 N 399.087 1.5561 -0.249682 0
M  V30 4189 C 400.333 1.99306 0.374841 0
M  V30 4190 C 400.666 1.13767 1.57387 0
M  V30 4191 O 399.941 0.201711 1.93451 0
M  V30 4192 C 400.224 3.51507 0.781986 0
M  V30 4193 C 400.077 4.4781 -0.422629 0
M  V30 4194 C 401.396 4.08884 1.62793 0
M  V30 4195 H 398.515 0.724572 0.134773 0
M  V30 4196 H 401.157 1.86719 -0.351549 0
M  V30 4197 H 399.307 3.62363 1.4009 0
M  V30 4198 H 400.979 4.48931 -1.06108 0
M  V30 4199 H 399.222 4.20518 -1.06524 0
M  V30 4200 H 399.893 5.51919 -0.0943766 0
M  V30 4201 H 402.369 4.01147 1.10547 0
M  V30 4202 H 401.245 5.1564 1.88166 0
M  V30 4203 H 401.506 3.57515 2.60068 0
M  V30 4204 N 400.565 -0.0233959 1.57583 0
M  V30 4205 C 401.814 -0.712133 1.8871 0
M  V30 4206 C 402.127 -1.76217 0.848944 0
M  V30 4207 O 403.333 -2.50389 1.04964 0
M  V30 4208 C 401.789 -1.3177 3.3491 0
M  V30 4209 C 401.397 -0.303715 4.46969 0
M  V30 4210 C 403.141 -1.98598 3.75179 0
M  V30 4211 C 401.048 -0.917945 5.84233 0
M  V30 4212 H 399.978 -0.269735 0.704101 0
M  V30 4213 H 402.629 0.0333114 1.8347 0
M  V30 4214 H 401.011 -2.11304 3.34913 0
M  V30 4215 H 402.185 0.465325 4.58445 0
M  V30 4216 H 400.5 0.2628 4.1557 0
M  V30 4217 H 403.097 -2.45416 4.75053 0
M  V30 4218 H 403.44 -2.80659 3.07468 0
M  V30 4219 H 403.973 -1.25831 3.77374 0
M  V30 4220 H 400.712 -0.136633 6.55358 0
M  V30 4221 H 400.232 -1.65669 5.76467 0
M  V30 4222 H 401.911 -1.4236 6.31144 0
M  V30 4223 N 402.043 -1.548 -0.295768 0
M  V30 4224 C 403.289 -1.74588 -1.03184 0
M  V30 4225 C 403.622 -0.532962 -1.86744 0
M  V30 4226 O 402.897 0.469872 -1.88739 0
M  V30 4227 C 403.18 -3.03791 -1.93347 0
M  V30 4228 C 403.033 -4.35392 -1.12933 0
M  V30 4229 C 404.352 -3.28892 -2.92435 0
M  V30 4230 H 401.471 -0.635221 -0.373715 0
M  V30 4231 H 404.113 -1.87519 -0.30606 0
M  V30 4232 H 402.263 -2.92898 -2.55232 0
M  V30 4233 H 403.935 -4.58211 -0.532943 0
M  V30 4234 H 402.178 -4.31642 -0.432168 0
M  V30 4235 H 402.849 -5.22074 -1.79284 0
M  V30 4236 H 405.325 -3.39429 -2.4068 0
M  V30 4237 H 404.201 -4.20603 -3.52682 0
M  V30 4238 H 404.462 -2.47437 -3.6637 0
M  V30 4239 N 403.521 0.559213 -1.47345 0
M  V30 4240 C 404.767 1.31843 -1.54095 0
M  V30 4241 C 405.1 1.93149 -0.201726 0
M  V30 4242 O 404.375 1.77759 0.789428 0
M  V30 4243 C 404.658 2.43006 -2.65744 0
M  V30 4244 C 404.511 1.86581 -4.09277 0
M  V30 4245 C 405.83 3.44943 -2.73318 0
M  V30 4246 H 402.949 0.478012 -0.560957 0
M  V30 4247 H 405.591 0.625977 -1.79392 0
M  V30 4248 H 403.741 3.02072 -2.44305 0
M  V30 4249 H 405.413 1.31792 -4.42073 0
M  V30 4250 H 403.656 1.17268 -4.17649 0
M  V30 4251 H 404.327 2.66933 -4.83168 0
M  V30 4252 H 406.803 2.95793 -2.92653 0
M  V30 4253 H 405.679 4.20153 -3.53218 0
M  V30 4254 H 405.94 4.03665 -1.80296 0
M  V30 4255 N 404.999 1.35443 0.805782 0
M  V30 4256 C 406.245 1.28952 1.56522 0
M  V30 4257 C 406.578 -0.135597 1.93726 0
M  V30 4258 O 405.853 -1.08516 1.61414 0
M  V30 4259 C 406.136 2.19678 2.85331 0
M  V30 4260 C 405.989 3.7081 2.54598 0
M  V30 4261 C 407.308 2.09495 3.8704 0
M  V30 4262 H 404.427 0.469764 0.567883 0
M  V30 4263 H 407.069 1.65851 0.927001 0
M  V30 4264 H 405.219 1.8834 3.39795 0
M  V30 4265 H 406.891 4.12593 2.06312 0
M  V30 4266 H 405.134 3.91051 1.8778 0
M  V30 4267 H 405.805 4.29679 3.46525 0
M  V30 4268 H 408.281 2.37045 3.41978 0
M  V30 4269 H 407.157 2.75173 4.74943 0
M  V30 4270 H 407.418 1.07714 4.28777 0
M  V30 4271 N 406.477 -1.02803 1.19454 0
M  V30 4272 C 407.723 -1.76478 0.999171 0
M  V30 4273 C 408.056 -1.88456 -0.468828 0
M  V30 4274 O 407.331 -1.40198 -1.34814 0
M  V30 4275 C 407.614 -3.19044 1.66981 0
M  V30 4276 C 407.467 -3.14932 3.21151 0
M  V30 4277 C 408.786 -4.17456 1.39349 0
M  V30 4278 H 405.905 -0.640614 0.364393 0
M  V30 4279 H 408.547 -1.20005 1.47305 0
M  V30 4280 H 406.697 -3.67263 1.2669 0
M  V30 4281 H 408.369 -2.74605 3.70661 0
M  V30 4282 H 406.612 -2.52625 3.52652 0
M  V30 4283 H 407.283 -4.1566 3.63223 0
M  V30 4284 H 409.759 -3.77842 1.74283 0
M  V30 4285 H 408.635 -5.154 1.88823 0
M  V30 4286 H 408.896 -4.40949 0.318813 0
M  V30 4287 N 407.956 -0.998596 -1.21925 0
M  V30 4288 C 409.205 -0.673085 -1.90138 0
M  V30 4289 C 409.518 0.79895 -1.78539 0
M  V30 4290 O 410.724 1.23628 -2.4172 0
M  V30 4291 C 409.18 -1.15339 -3.40918 0
M  V30 4292 C 408.788 -2.65106 -3.61141 0
M  V30 4293 C 410.532 -0.902476 -4.14796 0
M  V30 4294 C 408.439 -3.0671 -5.05651 0
M  V30 4295 H 407.369 -0.248057 -0.712028 0
M  V30 4296 H 410.02 -1.20891 -1.38049 0
M  V30 4297 H 408.402 -0.545658 -3.92223 0
M  V30 4298 H 409.576 -3.31274 -3.20304 0
M  V30 4299 H 407.891 -2.88142 -3.00605 0
M  V30 4300 H 410.488 -1.18895 -5.21314 0
M  V30 4301 H 410.831 0.161349 -4.15987 0
M  V30 4302 H 411.364 -1.47269 -3.69536 0
M  V30 4303 H 408.103 -4.12292 -5.09603 0
M  V30 4304 H 407.623 -2.45249 -5.47369 0
M  V30 4305 H 409.302 -2.9833 -5.74115 0
M  V30 4306 N 409.434 1.37368 -0.772513 0
M  V30 4307 C 410.397 2.28601 -0.165541 0
M  V30 4308 C 411.397 1.48062 0.627238 0
M  V30 4309 O 412.587 1.68268 0.450715 0
M  V30 4310 C 409.719 3.32023 0.772897 0
M  V30 4311 H 410.912 2.83787 -0.969787 0
M  V30 4312 H 408.465 1.46647 -0.540775 0
M  V30 4313 H 409.2 2.81962 1.60212 0
M  V30 4314 H 408.985 3.91555 0.206585 0
M  V30 4315 H 410.475 4.00197 1.19298 0
M  V30 4316 N 410.912 0.523116 1.48665 0
M  V30 4317 C 412.158 -0.0134963 2.02796 0
M  V30 4318 C 412.491 -1.34582 1.40004 0
M  V30 4319 O 411.766 -1.86756 0.543381 0
M  V30 4320 C 412.049 -0.14276 3.59817 0
M  V30 4321 C 411.902 1.21425 4.331 0
M  V30 4322 C 413.221 -0.872856 4.31357 0
M  V30 4323 H 410.34 -0.00343074 0.736992 0
M  V30 4324 H 412.982 0.678816 1.7746 0
M  V30 4325 H 411.132 -0.732401 3.81534 0
M  V30 4326 H 412.804 1.84447 4.2282 0
M  V30 4327 H 411.047 1.79791 3.94788 0
M  V30 4328 H 411.718 1.07687 5.41394 0
M  V30 4329 H 414.194 -0.372555 4.14429 0
M  V30 4330 H 413.07 -0.932185 5.40927 0
M  V30 4331 H 413.331 -1.92161 3.98154 0
M  V30 4332 N 412.39 -1.55475 0.257931 0
M  V30 4333 C 413.636 -1.99502 -0.364266 0
M  V30 4334 C 413.969 -1.146 -1.56782 0
M  V30 4335 O 413.244 -0.211968 -1.93342 0
M  V30 4336 C 413.527 -3.51917 -0.763333 0
M  V30 4337 C 413.38 -4.4758 0.446371 0
M  V30 4338 C 414.699 -4.09742 -1.60623 0
M  V30 4339 H 411.818 -0.725277 -0.130929 0
M  V30 4340 H 414.46 -1.8653 0.361446 0
M  V30 4341 H 412.61 -3.63101 -1.38166 0
M  V30 4342 H 414.282 -4.48362 1.08487 0
M  V30 4343 H 412.525 -4.19947 1.08753 0
M  V30 4344 H 413.196 -5.51862 0.123645 0
M  V30 4345 H 415.672 -4.01727 -1.08418 0
M  V30 4346 H 414.548 -5.16631 -1.85429 0
M  V30 4347 H 414.809 -3.58889 -2.58169 0
M  V30 4348 N 413.868 0.0150385 -1.57593 0
M  V30 4349 C 414.831 0.995996 -2.06428 0
M  V30 4350 C 415.831 1.2818 -0.970903 0
M  V30 4351 O 417.021 1.22949 -1.23406 0
M  V30 4352 C 414.153 2.32506 -2.49307 0
M  V30 4353 H 415.346 0.573873 -2.94358 0
M  V30 4354 H 412.899 0.262186 -1.54085 0
M  V30 4355 H 413.634 2.79438 -1.64575 0
M  V30 4356 H 413.419 2.13087 -3.29145 0
M  V30 4357 H 414.909 3.02906 -2.87468 0
M  V30 4358 N 415.346 1.54954 0.287554 0
M  V30 4359 C 416.594 1.74528 1.01904 0
M  V30 4360 C 416.915 0.541349 1.87335 0
M  V30 4361 O 416.185 -0.444108 1.908 0
M  V30 4362 H 414.765 0.643576 0.379235 0
M  V30 4363 H 417.427 1.92333 0.315294 0
M  V30 4364 H 416.523 2.64015 1.6644 0
M  V30 4365 N 416.824 -0.551391 1.4764 0
M  V30 4366 C 418.073 -1.30467 1.53822 0
M  V30 4367 C 418.386 -1.94495 0.207661 0
M  V30 4368 O 419.592 -2.71099 0.147533 0
M  V30 4369 C 418.048 -2.36616 2.71184 0
M  V30 4370 C 417.656 -1.78754 4.10793 0
M  V30 4371 C 419.4 -3.13088 2.86663 0
M  V30 4372 C 417.307 -2.82717 5.19447 0
M  V30 4373 H 416.237 -0.490584 0.572576 0
M  V30 4374 H 418.888 -0.58494 1.73927 0
M  V30 4375 H 417.27 -3.11529 2.4447 0
M  V30 4376 H 418.444 -1.10173 4.47435 0
M  V30 4377 H 416.759 -1.14846 4.00249 0
M  V30 4378 H 419.356 -3.90736 3.65007 0
M  V30 4379 H 419.699 -3.67635 1.95321 0
M  V30 4380 H 420.232 -2.45288 3.13175 0
M  V30 4381 H 416.971 -2.33018 6.12685 0
M  V30 4382 H 416.491 -3.4969 4.87316 0
M  V30 4383 H 418.17 -3.46102 5.46646 0
M  V30 4384 N 418.302 -1.35869 -0.798587 0
M  V30 4385 C 419.548 -1.2978 -1.55836 0
M  V30 4386 C 419.881 0.125322 -1.93795 0
M  V30 4387 O 419.156 1.07658 -1.61987 0
M  V30 4388 C 419.439 -2.21188 -2.84162 0
M  V30 4389 C 419.292 -3.72155 -2.52628 0
M  V30 4390 C 420.611 -2.11545 -3.85923 0
M  V30 4391 H 417.73 -0.472769 -0.565383 0
M  V30 4392 H 420.372 -1.66341 -0.918192 0
M  V30 4393 H 418.522 -1.90139 -3.38791 0
M  V30 4394 H 420.194 -4.13682 -2.04121 0
M  V30 4395 H 418.437 -3.92042 -1.85704 0
M  V30 4396 H 419.108 -4.31511 -3.44242 0
M  V30 4397 H 421.584 -2.38855 -3.40716 0
M  V30 4398 H 420.46 -2.77688 -4.73477 0
M  V30 4399 H 420.721 -1.09987 -4.282 0
M  V30 4400 N 419.78 1.02168 -1.19998 0
M  V30 4401 C 421.026 1.75945 -1.00852 0
M  V30 4402 C 421.359 1.88702 0.458828 0
M  V30 4403 O 420.634 1.40911 1.34069 0
M  V30 4404 C 420.917 3.18154 -1.68671 0
M  V30 4405 C 420.77 3.13224 -3.22817 0
M  V30 4406 C 422.089 4.16711 -1.41561 0
M  V30 4407 H 419.208 0.638673 -0.367785 0
M  V30 4408 H 421.85 1.19222 -1.4794 0
M  V30 4409 H 420 3.66586 -1.28636 0
M  V30 4410 H 421.672 2.72635 -3.72112 0
M  V30 4411 H 419.915 2.50751 -3.53986 0
M  V30 4412 H 420.586 4.13728 -3.65422 0
M  V30 4413 H 423.062 3.76913 -1.76284 0
M  V30 4414 H 421.938 5.14391 -1.91553 0
M  V30 4415 H 422.199 4.40774 -0.342193 0
M  V30 4416 N 421.258 1.00505 1.21394 0
M  V30 4417 C 422.188 0.585684 2.26035 0
M  V30 4418 C 423.169 -0.393525 1.65485 0
M  V30 4419 O 424.354 -0.281497 1.92149 0
M  V30 4420 C 421.484 -0.0884283 3.47187 0
M  V30 4421 C 420.438 0.810567 4.20254 0
M  V30 4422 C 419.764 0.00286382 5.347 0
M  V30 4423 C 421.064 2.1132 4.77641 0
M  V30 4424 H 422.758 1.46039 2.61368 0
M  V30 4425 H 420.304 0.703648 1.25638 0
M  V30 4426 H 422.257 -0.393286 4.19561 0
M  V30 4427 H 420.981 -0.997766 3.10986 0
M  V30 4428 H 419.64 1.09925 3.49731 0
M  V30 4429 H 419.288 -0.907765 4.94741 0
M  V30 4430 H 418.988 0.601444 5.84514 0
M  V30 4431 H 420.512 -0.295808 6.09883 0
M  V30 4432 H 421.926 1.87148 5.41893 0
M  V30 4433 H 420.323 2.66164 5.37845 0
M  V30 4434 H 421.393 2.78393 3.9702 0
M  V30 4435 N 422.737 -1.36956 0.779787 0
M  V30 4436 C 423.983 -1.99787 0.348281 0
M  V30 4437 C 424.316 -1.61756 -1.07465 0
M  V30 4438 O 423.591 -0.867639 -1.74075 0
M  V30 4439 C 423.874 -3.56597 0.50104 0
M  V30 4440 C 423.727 -4.04513 1.96697 0
M  V30 4441 C 425.046 -4.40008 -0.0898097 0
M  V30 4442 H 422.165 -0.725796 0.128022 0
M  V30 4443 H 424.807 -1.62514 0.984331 0
M  V30 4444 H 422.957 -3.88479 -0.0404347 0
M  V30 4445 H 424.629 -3.83161 2.56876 0
M  V30 4446 H 422.872 -3.56408 2.47297 0
M  V30 4447 H 423.543 -5.1352 2.02486 0
M  V30 4448 H 426.019 -4.14431 0.372293 0
M  V30 4449 H 424.895 -5.4888 0.0471605 0
M  V30 4450 H 425.156 -4.26035 -1.18096 0
M  V30 4451 N 424.215 -0.530993 -1.48385 0
M  V30 4452 C 425.464 0.00474348 -2.01699 0
M  V30 4453 C 425.777 1.35227 -1.41325 0
M  V30 4454 O 426.983 1.97643 -1.86144 0
M  V30 4455 C 425.439 0.0588473 -3.59852 0
M  V30 4456 C 425.047 -1.28385 -4.2921 0
M  V30 4457 C 426.791 0.543358 -4.21008 0
M  V30 4458 C 424.698 -1.19028 -5.79298 0
M  V30 4459 H 423.628 0.00554317 -0.75398 0
M  V30 4460 H 426.279 -0.674924 -1.70637 0
M  V30 4461 H 424.661 0.803612 -3.8776 0
M  V30 4462 H 425.835 -2.04426 -4.12973 0
M  V30 4463 H 424.15 -1.70418 -3.7993 0
M  V30 4464 H 426.747 0.631351 -5.3096 0
M  V30 4465 H 427.09 1.54937 -3.86394 0
M  V30 4466 H 427.623 -0.145754 -3.97533 0
M  V30 4467 H 424.362 -2.17147 -6.18488 0
M  V30 4468 H 423.882 -0.471246 -5.97946 0
M  V30 4469 H 425.561 -0.881365 -6.40969 0
M  V30 4470 N 425.693 1.55336 -0.266172 0
M  V30 4471 C 426.918 2.04258 0.359661 0
M  V30 4472 C 427.343 1.14359 1.49344 0
M  V30 4473 O 426.701 0.140369 1.80756 0
M  V30 4474 C 426.749 3.50997 0.826635 0
M  V30 4475 O 425.853 3.64204 1.93466 0
M  V30 4476 H 425.194 0.659668 0.075727 0
M  V30 4477 H 427.724 2.00694 -0.39786 0
M  V30 4478 H 427.734 3.9219 1.12477 0
M  V30 4479 H 426.409 4.159 -0.00293032 0
M  V30 4480 H 424.986 3.34913 1.63974 0
M  V30 4481 N 427.171 -0.0066808 1.57599 0
M  V30 4482 C 428.587 -0.36267 1.55425 0
M  V30 4483 C 428.787 -1.75209 0.995187 0
M  V30 4484 O 427.843 -2.44616 0.626058 0
M  V30 4485 C 429.156 -0.244017 2.99708 0
M  V30 4486 C 430.704 -0.319451 3.11366 0
M  V30 4487 C 431.179 -0.229998 4.57422 0
M  V30 4488 N 432.67 -0.288105 4.62303 0
M  V30 4489 C 433.405 -0.242127 5.72889 0
M  V30 4490 N 432.901 -0.147133 6.92644 0
M  V30 4491 N 434.694 -0.293502 5.61333 0
M  V30 4492 H 426.845 0.902314 1.92281 0
M  V30 4493 H 429.108 0.34525 0.882896 0
M  V30 4494 H 428.814 0.711678 3.44424 0
M  V30 4495 H 428.688 -1.02877 3.629 0
M  V30 4496 H 431.075 -1.26559 2.66584 0
M  V30 4497 H 431.156 0.495055 2.50964 0
M  V30 4498 H 430.8 0.712566 5.02877 0
M  V30 4499 H 430.73 -1.0629 5.15761 0
M  V30 4500 H 433.221 -0.363126 3.76151 0
M  V30 4501 H 433.534 -0.117763 7.7271 0
M  V30 4502 H 431.879 -0.112857 6.94908 0
M  V30 4503 H 435.07 -0.365864 4.66668 0
M  V30 4504 H 435.243 -0.254204 6.47501 0
M  V30 4505 N 428.649 -1.55105 -0.279332 0
M  V30 4506 C 429.596 -1.8755 -1.34513 0
M  V30 4507 C 430.566 -0.726384 -1.49375 0
M  V30 4508 O 431.751 -0.977063 -1.63884 0
M  V30 4509 C 428.891 -2.14738 -2.70151 0
M  V30 4510 C 428.004 -3.42285 -2.63562 0
M  V30 4511 C 427.139 -3.59206 -3.91337 0
M  V30 4512 C 426.178 -4.80467 -3.79233 0
M  V30 4513 N 425.315 -4.94079 -4.98829 0
M  V30 4514 H 430.155 -2.78456 -1.06143 0
M  V30 4515 H 427.692 -1.37867 -0.512936 0
M  V30 4516 H 429.65 -2.28501 -3.49061 0
M  V30 4517 H 428.28 -1.27075 -2.96735 0
M  V30 4518 H 427.332 -3.37029 -1.76397 0
M  V30 4519 H 428.644 -4.31328 -2.50515 0
M  V30 4520 H 427.798 -3.72751 -4.78687 0
M  V30 4521 H 426.537 -2.68337 -4.07243 0
M  V30 4522 H 425.542 -4.66932 -2.90266 0
M  V30 4523 H 426.767 -5.72765 -3.64852 0
M  V30 4524 H 424.713 -4.06139 -5.15158 0
M  V30 4525 H 424.63 -5.77156 -4.8829 0
M  V30 4526 H 425.898 -5.12003 -5.8777 0
M  V30 4527 N 430.127 0.543554 -1.4793 0
M  V30 4528 C 431.074 1.64942 -1.6144 0
M  V30 4529 C 432.044 1.59692 -0.456903 0
M  V30 4530 O 433.229 1.78321 -0.678688 0
M  V30 4531 C 430.369 3.03238 -1.64744 0
M  V30 4532 C 429.482 3.18823 -2.91506 0
M  V30 4533 C 428.617 4.47599 -2.86057 0
M  V30 4534 C 427.656 4.56664 -4.07584 0
M  V30 4535 N 426.793 5.76811 -4.00292 0
M  V30 4536 H 431.633 1.52733 -2.55884 0
M  V30 4537 H 429.17 0.7438 -1.2691 0
M  V30 4538 H 431.128 3.83339 -1.64641 0
M  V30 4539 H 429.758 3.1425 -0.738017 0
M  V30 4540 H 428.81 2.32064 -3.01414 0
M  V30 4541 H 430.122 3.21384 -3.81463 0
M  V30 4542 H 429.276 5.35975 -2.84281 0
M  V30 4543 H 428.015 4.47538 -1.93807 0
M  V30 4544 H 427.02 3.66697 -4.09651 0
M  V30 4545 H 428.245 4.58474 -5.00978 0
M  V30 4546 H 426.191 5.77673 -3.10853 0
M  V30 4547 H 426.108 5.80808 -4.8394 0
M  V30 4548 H 427.376 6.67512 -4.02553 0
M  V30 4549 N 431.605 1.3629 0.791371 0
M  V30 4550 C 433.021 1.16661 1.08914 0
M  V30 4551 C 433.221 -0.0106266 2.01497 0
M  V30 4552 O 432.277 -0.676596 2.43266 0
M  V30 4553 C 433.59 2.47656 1.70549 0
M  V30 4554 C 435.138 2.54002 1.82899 0
M  V30 4555 C 435.613 3.85078 2.47949 0
M  V30 4556 N 437.104 3.86413 2.5542 0
M  V30 4557 C 437.839 4.84572 3.06557 0
M  V30 4558 N 437.335 5.93124 3.58016 0
M  V30 4559 N 439.128 4.71994 3.05251 0
M  V30 4560 H 431.279 2.11668 0.176238 0
M  V30 4561 H 433.542 0.937486 0.140796 0
M  V30 4562 H 433.248 3.34059 1.09989 0
M  V30 4563 H 433.122 2.63319 2.70079 0
M  V30 4564 H 435.509 1.68018 2.42598 0
M  V30 4565 H 435.59 2.42239 0.821808 0
M  V30 4566 H 435.234 4.71467 1.88895 0
M  V30 4567 H 435.164 3.94135 3.49235 0
M  V30 4568 H 437.655 3.07988 2.18979 0
M  V30 4569 H 437.968 6.63999 3.95381 0
M  V30 4570 H 436.313 5.96796 3.56173 0
M  V30 4571 H 439.504 3.86321 2.64336 0
M  V30 4572 H 439.677 5.48653 3.44796 0
M  V30 4573 N 433.083 -1.0153 1.20538 0
M  V30 4574 C 434.016 -2.09759 0.898695 0
M  V30 4575 C 434.994 -1.61909 -0.149733 0
M  V30 4576 O 436.178 -1.88486 -0.0230293 0
M  V30 4577 C 433.305 -3.36913 0.347512 0
M  V30 4578 C 432.351 -4.03655 1.37713 0
M  V30 4579 S 433.184 -4.47402 2.94265 0
M  V30 4580 C 434.34 -5.77756 2.40726 0
M  V30 4581 H 434.573 -2.3545 1.81523 0
M  V30 4582 H 432.106 -1.14665 1.03399 0
M  V30 4583 H 434.064 -4.10484 0.0360518 0
M  V30 4584 H 432.725 -3.09291 -0.547546 0
M  V30 4585 H 431.918 -4.9514 0.940872 0
M  V30 4586 H 431.52 -3.36313 1.63614 0
M  V30 4587 H 433.812 -6.52994 1.80569 0
M  V30 4588 H 434.755 -6.2618 3.30612 0
M  V30 4589 H 435.163 -5.34081 1.82806 0
M  V30 4590 N 434.561 -1.01147 -1.20859 0
M  V30 4591 C 435.524 -0.582224 -2.21682 0
M  V30 4592 C 436.524 0.344887 -1.57058 0
M  V30 4593 O 437.714 0.134281 -1.73682 0
M  V30 4594 C 434.846 0.150496 -3.40568 0
M  V30 4595 H 436.039 -1.47408 -2.61172 0
M  V30 4596 H 433.592 -0.800695 -1.34233 0
M  V30 4597 H 434.327 1.0575 -3.06574 0
M  V30 4598 H 434.112 -0.515444 -3.88697 0
M  V30 4599 H 435.602 0.438344 -4.15293 0
M  V30 4600 N 436.039 1.36541 -0.78704 0
M  V30 4601 C 436.986 2.30082 -0.181901 0
M  V30 4602 C 437.956 1.5186 0.672896 0
M  V30 4603 O 439.141 1.80374 0.622072 0
M  V30 4604 C 436.281 3.3835 0.679197 0
M  V30 4605 C 435.394 4.31565 -0.193882 0
M  V30 4606 C 434.529 5.26915 0.673364 0
M  V30 4607 C 433.568 6.11769 -0.201315 0
M  V30 4608 N 432.705 6.99315 0.624777 0
M  V30 4609 H 437.545 2.81248 -0.985064 0
M  V30 4610 H 435.082 1.38437 -0.497342 0
M  V30 4611 H 437.04 3.99767 1.19341 0
M  V30 4612 H 435.67 2.8851 1.44781 0
M  V30 4613 H 434.722 3.71323 -0.826044 0
M  V30 4614 H 436.034 4.91191 -0.867937 0
M  V30 4615 H 435.188 5.9361 1.25348 0
M  V30 4616 H 433.927 4.67737 1.38105 0
M  V30 4617 H 432.932 5.44039 -0.793849 0
M  V30 4618 H 434.157 6.73022 -0.906568 0
M  V30 4619 H 432.103 6.42648 1.3168 0
M  V30 4620 H 432.02 7.56 0.00835237 0
M  V30 4621 H 433.288 7.70382 1.18879 0
M  V30 4622 N 437.518 0.538854 1.48102 0
M  V30 4623 C 438.748 0.0122958 2.06596 0
M  V30 4624 C 439.156 -1.27861 1.39457 0
M  V30 4625 O 438.499 -1.77348 0.478907 0
M  V30 4626 C 438.561 -0.273131 3.58461 0
M  V30 4627 C 438.225 0.92561 4.47528 0
M  V30 4628 C 439.222 1.82637 4.86765 0
M  V30 4629 C 436.907 1.13511 4.89306 0
M  V30 4630 C 438.901 2.92047 5.66558 0
M  V30 4631 C 436.588 2.23233 5.68868 0
M  V30 4632 C 437.586 3.12333 6.07402 0
M  V30 4633 O 437.274 4.20155 6.85365 0
M  V30 4634 H 437.006 0.0344283 0.675123 0
M  V30 4635 H 439.56 0.746494 1.91355 0
M  V30 4636 H 437.79 -1.06141 3.71848 0
M  V30 4637 H 439.479 -0.742842 3.99045 0
M  V30 4638 H 440.245 1.67649 4.55103 0
M  V30 4639 H 436.124 0.450835 4.5879 0
M  V30 4640 H 439.668 3.6162 5.96554 0
M  V30 4641 H 435.565 2.38201 5.99942 0
M  V30 4642 H 436.333 4.17975 7.03732 0
M  V30 4643 N 438.996 -1.55193 0.274407 0
M  V30 4644 C 439.906 -2.26164 -0.623473 0
M  V30 4645 C 440.922 -1.28729 -1.17068 0
M  V30 4646 O 442.098 -1.61663 -1.20112 0
M  V30 4647 C 439.163 -2.96833 -1.7914 0
M  V30 4648 C 438.224 -4.09745 -1.28093 0
M  V30 4649 C 437.457 -4.77034 -2.3932 0
M  V30 4650 O 437.68 -4.4353 -3.5866 0
M  V30 4651 O 436.614 -5.64996 -2.07516 0
M  V30 4652 H 440.44 -3.03661 -0.0485661 0
M  V30 4653 H 438.025 -1.49341 0.0418382 0
M  V30 4654 H 439.907 -3.41248 -2.4724 0
M  V30 4655 H 438.582 -2.22253 -2.35341 0
M  V30 4656 H 437.489 -3.69787 -0.566416 0
M  V30 4657 H 438.822 -4.86224 -0.764683 0
M  V30 4658 N 440.474 -0.00167713 -1.576 0
M  V30 4659 C 441.421 0.989195 -2.08527 0
M  V30 4660 C 442.391 1.34031 -0.981065 0
M  V30 4661 O 443.576 1.43839 -1.2536 0
M  V30 4662 C 440.716 2.27537 -2.59463 0
M  V30 4663 C 439.829 1.98314 -3.83791 0
M  V30 4664 C 438.964 3.21025 -4.23222 0
M  V30 4665 C 438.003 2.87495 -5.40382 0
M  V30 4666 N 437.14 4.02749 -5.75098 0
M  V30 4667 H 441.98 0.547973 -2.92919 0
M  V30 4668 H 439.517 0.258917 -1.44803 0
M  V30 4669 H 441.475 3.02729 -2.87073 0
M  V30 4670 H 440.105 2.69325 -1.77943 0
M  V30 4671 H 439.157 1.13482 -3.63078 0
M  V30 4672 H 440.469 1.69601 -4.69081 0
M  V30 4673 H 439.623 4.04561 -4.52123 0
M  V30 4674 H 438.362 3.52877 -3.36644 0
M  V30 4675 H 437.367 2.02367 -5.11202 0
M  V30 4676 H 438.592 2.56889 -6.28637 0
M  V30 4677 H 436.538 4.34494 -4.91478 0
M  V30 4678 H 436.455 3.77566 -6.54966 0
M  V30 4679 H 437.723 4.87068 -6.08592 0
M  V30 4680 N 441.952 1.55251 0.271103 0
M  V30 4681 C 442.915 1.87484 1.31842 0
M  V30 4682 C 443.915 0.749545 1.42262 0
M  V30 4683 O 445.105 1.01771 1.4138 0
M  V30 4684 C 442.237 2.0818 2.69951 0
M  V30 4685 H 443.43 2.81108 1.0449 0
M  V30 4686 H 440.983 1.47771 0.509258 0
M  V30 4687 H 441.718 1.16944 3.02481 0
M  V30 4688 H 441.503 2.90114 2.63774 0
M  V30 4689 H 442.993 2.34385 3.4562 0
M  V30 4690 N 443.43 -0.535701 1.48216 0
M  V30 4691 C 444.34 -1.66785 1.64985 0
M  V30 4692 C 445.356 -1.65654 0.532414 0
M  V30 4693 O 446.532 -1.8471 0.80275 0
M  V30 4694 C 443.597 -3.0326 1.68031 0
M  V30 4695 C 442.658 -3.1529 2.9136 0
M  V30 4696 C 441.891 -4.45255 2.94252 0
M  V30 4697 O 442.114 -5.32011 2.05719 0
M  V30 4698 O 441.048 -4.6153 3.86359 0
M  V30 4699 H 444.874 -1.55576 2.60825 0
M  V30 4700 H 442.459 -0.70815 1.31551 0
M  V30 4701 H 444.341 -3.84436 1.72589 0
M  V30 4702 H 443.016 -3.14805 0.753628 0
M  V30 4703 H 441.923 -2.3343 2.92337 0
M  V30 4704 H 443.256 -3.08658 3.83394 0
M  V30 4705 N 444.908 -1.36708 -0.784132 0
M  V30 4706 C 446.157 -1.30559 -1.53744 0
M  V30 4707 C 446.47 0.111374 -1.95283 0
M  V30 4708 O 447.676 0.29527 -2.6989 0
M  V30 4709 C 446.132 -2.29098 -2.77565 0
M  V30 4710 C 445.74 -3.76258 -2.43174 0
M  V30 4711 C 447.484 -2.31936 -3.55536 0
M  V30 4712 C 445.391 -4.6656 -3.63422 0
M  V30 4713 H 444.321 -0.48518 -0.577162 0
M  V30 4714 H 446.972 -1.62101 -0.859981 0
M  V30 4715 H 445.354 -1.90557 -3.47137 0
M  V30 4716 H 446.528 -4.23565 -1.81465 0
M  V30 4717 H 444.843 -3.76246 -1.78403 0
M  V30 4718 H 447.44 -2.9661 -4.44889 0
M  V30 4719 H 447.783 -1.3294 -3.94503 0
M  V30 4720 H 448.316 -2.6912 -2.92949 0
M  V30 4721 H 445.055 -5.66638 -3.29547 0
M  V30 4722 H 444.575 -4.23966 -4.24279 0
M  V30 4723 H 446.254 -4.8309 -4.30387 0
M  V30 4724 N 446.386 1.0089 -1.21074 0
M  V30 4725 C 447.333 2.09588 -0.966512 0
M  V30 4726 C 448.303 1.65761 0.106089 0
M  V30 4727 O 449.488 1.90758 -0.0402287 0
M  V30 4728 C 446.628 3.40958 -0.533058 0
M  V30 4729 C 445.741 3.9822 -1.67467 0
M  V30 4730 C 444.876 5.17682 -1.19076 0
M  V30 4731 C 443.915 5.67043 -2.30496 0
M  V30 4732 N 443.052 6.77759 -1.83267 0
M  V30 4733 H 447.892 2.29815 -1.89708 0
M  V30 4734 H 445.429 1.12689 -0.945489 0
M  V30 4735 H 447.387 4.1637 -0.263019 0
M  V30 4736 H 446.017 3.20781 0.360505 0
M  V30 4737 H 445.069 3.1983 -2.05944 0
M  V30 4738 H 446.381 4.3085 -2.51336 0
M  V30 4739 H 445.535 6.00326 -0.877151 0
M  V30 4740 H 444.274 4.86635 -0.322066 0
M  V30 4741 H 443.279 4.82999 -2.62664 0
M  V30 4742 H 444.504 6.00121 -3.17855 0
M  V30 4743 H 442.45 6.48527 -0.987356 0
M  V30 4744 H 442.367 7.09624 -2.60711 0
M  V30 4745 H 443.635 7.63949 -1.54928 0
M  V30 4746 N 447.864 1.01787 1.20321 0
M  V30 4747 C 448.774 0.598898 2.26827 0
M  V30 4748 C 449.79 -0.36418 1.70146 0
M  V30 4749 O 450.966 -0.224812 2.00141 0
M  V30 4750 C 448.031 -0.0549769 3.46656 0
M  V30 4751 C 447.092 0.954205 4.18561 0
M  V30 4752 C 446.325 0.331439 5.3267 0
M  V30 4753 O 446.548 -0.86851 5.63749 0
M  V30 4754 O 445.482 1.0488 5.92692 0
M  V30 4755 H 449.308 1.48562 2.64883 0
M  V30 4756 H 446.893 0.787434 1.26964 0
M  V30 4757 H 448.775 -0.420102 4.19301 0
M  V30 4758 H 447.45 -0.915876 3.10473 0
M  V30 4759 H 446.357 1.37072 3.48083 0
M  V30 4760 H 447.69 1.78511 4.58688 0
M  V30 4761 N 449.342 -1.36122 0.79427 0
M  V30 4762 C 450.275 -2.27759 0.141845 0
M  V30 4763 C 451.253 -1.47471 -0.684921 0
M  V30 4764 O 452.437 -1.76759 -0.654857 0
M  V30 4765 C 449.564 -3.29008 -0.804446 0
M  V30 4766 C 448.61 -4.26459 -0.0588617 0
M  V30 4767 S 449.443 -5.20253 1.26873 0
M  V30 4768 C 450.599 -6.25048 0.326562 0
M  V30 4769 H 450.832 -2.82746 0.918818 0
M  V30 4770 H 448.365 -1.42736 0.588722 0
M  V30 4771 H 450.323 -3.87842 -1.34495 0
M  V30 4772 H 448.984 -2.72924 -1.5547 0
M  V30 4773 H 448.177 -4.97973 -0.777087 0
M  V30 4774 H 447.779 -3.71731 0.411309 0
M  V30 4775 H 450.071 -6.75705 -0.492795 0
M  V30 4776 H 451.014 -7.00852 1.01053 0
M  V30 4777 H 451.422 -5.64454 -0.0722627 0
M  V30 4778 N 450.82 -0.546701 -1.47814 0
M  V30 4779 C 452.068 -0.0187037 -2.02091 0
M  V30 4780 C 452.389 1.33168 -1.42447 0
M  V30 4781 O 451.659 1.86619 -0.595839 0
M  V30 4782 H 450.239 -0.00392531 -0.74699 0
M  V30 4783 H 452.901 -0.714327 -1.81338 0
M  V30 4784 H 451.997 0.0772219 -3.12004 0
M  V30 4785 N 452.299 1.55045 -0.282633 0
M  V30 4786 C 453.209 2.26491 0.61147 0
M  V30 4787 C 454.225 1.29348 1.16384 0
M  V30 4788 O 455.401 1.62298 1.19253 0
M  V30 4789 C 452.466 2.97779 1.77563 0
M  V30 4790 C 451.527 4.10418 1.25919 0
M  V30 4791 C 450.76 4.78297 2.36786 0
M  V30 4792 O 450.983 4.45426 3.56303 0
M  V30 4793 O 449.917 5.66089 2.04517 0
M  V30 4794 H 453.743 3.03683 0.0324615 0
M  V30 4795 H 451.328 1.49317 -0.0497576 0
M  V30 4796 H 453.21 3.42554 2.45427 0
M  V30 4797 H 451.885 2.23498 2.34159 0
M  V30 4798 H 450.792 3.70082 0.546797 0
M  V30 4799 H 452.125 4.86622 0.738887 0
M  V30 4800 N 453.777 0.010035 1.57597 0
M  V30 4801 C 454.71 -1.01234 2.04516 0
M  V30 4802 C 455.688 -1.32886 0.937024 0
M  V30 4803 O 456.872 -1.44879 1.20592 0
M  V30 4804 C 453.999 -2.33738 2.45121 0
M  V30 4805 C 453.045 -2.17679 3.66767 0
M  V30 4806 S 453.878 -1.49343 5.14254 0
M  V30 4807 C 455.034 -2.83256 5.58137 0
M  V30 4808 H 455.267 -0.612866 2.90914 0
M  V30 4809 H 452.8 -0.201124 1.53084 0
M  V30 4810 H 454.758 -3.09922 2.69182 0
M  V30 4811 H 453.419 -2.70823 1.59103 0
M  V30 4812 H 452.612 -3.1559 3.92962 0
M  V30 4813 H 452.214 -1.4964 3.42759 0
M  V30 4814 H 454.506 -3.79538 5.6121 0
M  V30 4815 H 455.449 -2.61749 6.57946 0
M  V30 4816 H 455.857 -2.87627 4.85727 0
M  V30 4817 N 455.255 -1.55392 -0.262866 0
M  V30 4818 C 456.205 -1.85355 -1.32768 0
M  V30 4819 C 457.189 -0.713188 -1.44231 0
M  V30 4820 O 458.381 -0.974765 -1.47741 0
M  V30 4821 C 455.51 -2.13781 -2.68612 0
M  V30 4822 C 454.596 -3.34104 -2.61219 0
M  V30 4823 N 454.987 -4.53766 -2.2345 0
M  V30 4824 C 453.285 -3.36895 -2.92263 0
M  V30 4825 C 453.986 -5.35877 -2.26298 0
M  V30 4826 N 452.962 -4.74536 -2.65172 0
M  V30 4827 H 456.764 -2.75413 -1.02591 0
M  V30 4828 H 454.278 -1.55405 -0.471503 0
M  V30 4829 H 456.275 -2.33407 -3.45437 0
M  V30 4830 H 454.935 -1.25013 -2.99669 0
M  V30 4831 H 455.946 -4.79682 -1.95258 0
M  V30 4832 H 452.623 -2.58351 -3.27965 0
M  V30 4833 H 454.013 -6.41577 -1.99572 0
M  V30 4834 N 456.733 0.527833 -1.48498 0
M  V30 4835 C 458.149 0.856571 -1.34666 0
M  V30 4836 C 458.349 1.98271 -0.35931 0
M  V30 4837 O 457.405 2.51551 0.218703 0
M  V30 4838 C 458.718 1.22207 -2.74747 0
M  V30 4839 C 460.266 1.33183 -2.83251 0
M  V30 4840 C 460.741 1.73075 -4.24039 0
M  V30 4841 N 462.232 1.80174 -4.26722 0
M  V30 4842 C 462.967 2.1243 -5.32598 0
M  V30 4843 N 462.463 2.43096 -6.4875 0
M  V30 4844 N 464.256 2.13454 -5.19994 0
M  V30 4845 H 456.407 -0.215174 -2.11307 0
M  V30 4846 H 458.67 -0.0336281 -0.947403 0
M  V30 4847 H 458.376 0.468195 -3.4857 0
M  V30 4848 H 458.25 2.17173 -3.08409 0
M  V30 4849 H 460.637 2.07647 -2.09683 0
M  V30 4850 H 460.718 0.363333 -2.53206 0
M  V30 4851 H 460.362 0.991712 -4.98124 0
M  V30 4852 H 460.292 2.70979 -4.51529 0
M  V30 4853 H 462.783 1.58744 -3.42942 0
M  V30 4854 H 463.096 2.6682 -7.25277 0
M  V30 4855 H 461.441 2.40611 -6.52021 0
M  V30 4856 H 464.632 1.88956 -4.28268 0
M  V30 4857 H 464.805 2.38261 -6.02608 0
M  V30 4858 N 458.211 1.37122 0.776871 0
M  V30 4859 C 459.121 1.34651 1.9211 0
M  V30 4860 C 460.137 0.246824 1.7224 0
M  V30 4861 O 461.313 0.48134 1.95563 0
M  V30 4862 C 458.378 1.14748 3.2716 0
M  V30 4863 C 457.439 2.34308 3.5972 0
M  V30 4864 C 456.672 2.15345 4.88326 0
M  V30 4865 O 456.895 1.13507 5.58992 0
M  V30 4866 O 455.829 3.03414 5.1983 0
M  V30 4867 H 459.655 2.31013 1.97146 0
M  V30 4868 H 457.24 1.17799 0.918901 0
M  V30 4869 H 459.122 1.05616 4.0795 0
M  V30 4870 H 457.797 0.214562 3.22988 0
M  V30 4871 H 456.704 2.49011 2.79185 0
M  V30 4872 H 458.037 3.26149 3.68629 0
M  V30 4873 N 459.689 -1.00246 1.21608 0
M  V30 4874 C 460.619 -2.10921 1.00172 0
M  V30 4875 C 461.6 -1.69938 -0.0741587 0
M  V30 4876 O 462.785 -1.94009 0.0861753 0
M  V30 4877 C 459.915 -3.42618 0.568355 0
M  V30 4878 C 458.869 -3.97407 1.58909 0
M  V30 4879 C 458.195 -5.25038 1.01187 0
M  V30 4880 C 459.495 -4.2918 2.97661 0
M  V30 4881 H 461.189 -2.29112 1.92739 0
M  V30 4882 H 458.735 -1.10101 0.928102 0
M  V30 4883 H 460.688 -4.19444 0.405555 0
M  V30 4884 H 459.412 -3.24227 -0.392961 0
M  V30 4885 H 458.071 -3.22703 1.73949 0
M  V30 4886 H 457.719 -5.02982 0.0421965 0
M  V30 4887 H 457.419 -5.62661 1.6937 0
M  V30 4888 H 458.943 -6.04507 0.860448 0
M  V30 4889 H 460.357 -4.96839 2.86049 0
M  V30 4890 H 458.754 -4.77952 3.6288 0
M  V30 4891 H 459.824 -3.3735 3.48315 0
M  V30 4892 N 461.167 -1.02423 -1.1978 0
M  V30 4893 C 462.115 -0.594474 -2.24875 0
M  V30 4894 C 463.109 0.370598 -1.65296 0
M  V30 4895 O 464.315 0.239684 -1.78397 0
M  V30 4896 H 460.69 -0.173961 -0.731602 0
M  V30 4897 H 462.661 -1.4916 -2.58445 0
M  V30 4898 C 461.41 0.0436512 -3.47673 0
M  V30 4899 H 460.733 -0.689963 -3.93801 0
M  V30 4900 H 462.173 0.307362 -4.22884 0
M  V30 4901 C 460.632 1.28881 -3.11274 0
M  V30 4902 O 461.162 2.38135 -3.23503 0
M  V30 4903 N 459.368 1.1758 -2.6575 0
M  V30 4904 H 458.915 0.286769 -2.55999 0
M  V30 4905 H 458.873 2.00988 -2.41767 0
M  V30 4906 N 462.645 1.35699 -0.801477 0
M  V30 4907 C 463.608 2.28199 -0.213994 0
M  V30 4908 C 464.608 1.49359 0.595691 0
M  V30 4909 O 465.798 1.69186 0.414921 0
M  V30 4910 C 462.93 3.33587 0.702297 0
M  V30 4911 H 464.123 2.81666 -1.02976 0
M  V30 4912 H 461.676 1.45467 -0.571759 0
M  V30 4913 H 462.411 2.85297 1.54195 0
M  V30 4914 H 462.196 3.91906 0.123484 0
M  V30 4915 H 463.686 4.02638 1.10783 0
M  V30 4916 O 464.162 0.695624 1.45751 0
M  V30 4917 H 464.853 0.234379 1.92277 0
M  V30 END ATOM
M  V30 BEGIN BOND
M  V30 END BOND
M  V30 END CTAB
M  END
$$$$
