drugbank_target|P0A8P1 Leucyl/phenylalanyl-tRNA--protein transferase (DB08437)
 OpenBabel12092120513D

  0  0  0     0  0            999 V3000
M  V30 BEGIN CTAB
M  V30 COUNTS 5289 5647 0 0 0
M  V30 BEGIN ATOM
M  V30 1 H -2.588 8.49073 -0.0679273 0
M  V30 2 O -1.492 9.37262 0.0843559 0
M  V30 3 P 0 8.791 0 0
M  V30 4 O 1.422 9.31096 0.027933 0
M  V30 5 O -0.36 7.77869 -1.04071 0
M  V30 6 O -0.323 8.09533 1.41463 0
M  V30 7 C -0.483 9.0349 2.53943 0
M  V30 8 C 0.057 8.35226 3.79016 0
M  V30 9 O -0.999 7.57992 4.15078 0
M  V30 10 C 1.275 7.45087 3.67298 0
M  V30 11 O 2.013 7.27796 4.85194 0
M  V30 12 C 0.606 6.17323 3.12027 0
M  V30 13 O 1.405 5.04231 3.47188 0
M  V30 14 C -0.731 6.19961 3.81809 0
M  V30 15 H -0.699 5.58218 4.73051 0
M  V30 16 H 0.484 6.21726 2.02589 0
M  V30 17 H 1.968 7.86112 2.9231 0
M  V30 18 H 0.274 9.11627 4.55076 0
M  V30 19 H 0.084 9.9573 2.34194 0
M  V30 20 H -1.546 9.2792 2.67832 0
M  V30 21 H 1.093 4.67702 4.28772 0
M  V30 22 P 2.95057 7.39546 4.75277 0
M  V30 23 O 4.37157 7.81861 5.05793 0
M  V30 24 O 2.59057 7.1065 3.32998 0
M  V30 25 O 2.62757 6.04542 5.56673 0
M  V30 26 C 2.46657 6.22839 7.02169 0
M  V30 27 C 3.00757 4.97725 7.70406 0
M  V30 28 O 1.95257 4.13208 7.58899 0
M  V30 29 C 4.22557 4.28231 7.11815 0
M  V30 30 O 4.96357 3.49945 8.01648 0
M  V30 31 C 3.55757 3.5063 5.96244 0
M  V30 32 O 4.35557 2.37008 5.64352 0
M  V30 33 C 2.21957 3.15122 6.56374 0
M  V30 34 N 1.17657 3.22311 5.55692 0
M  V30 35 C 1.34557 3.99655 4.46046 0
M  V30 36 N 0.31857 3.97599 3.63918 0
M  V30 37 C -0.56643 3.11159 4.25334 0
M  V30 38 C -1.83343 2.64972 3.85157 0
M  V30 39 N -2.39843 1.78482 4.74759 0
M  V30 40 C -1.79643 1.37463 5.90819 0
M  V30 41 N -0.61943 1.7733 6.31889 0
M  V30 42 C -0.04443 2.64393 5.43725 0
M  V30 43 H 3.43457 4.12931 5.06895 0
M  V30 44 H 4.91757 5.03285 6.70911 0
M  V30 45 H 3.22357 5.20001 8.76217 0
M  V30 46 H 3.03357 7.11046 7.35349 0
M  V30 47 H 1.40357 6.35815 7.26986 0
M  V30 48 H 2.24557 4.58037 4.27732 0
M  V30 49 H 4.04357 1.61619 6.13468 0
M  V30 50 P 5.90114 3.65191 7.99657 0
M  V30 51 O 7.32314 3.8425 8.48115 0
M  V30 52 O 5.54114 4.17805 6.64342 0
M  V30 53 O 5.57814 2.07613 7.95143 0
M  V30 54 C 5.41814 1.44328 9.27336 0
M  V30 55 C 5.95814 0.0220036 9.17197 0
M  V30 56 O 4.90214 -0.626867 8.61923 0
M  V30 57 C 7.17614 -0.24586 8.30336 0
M  V30 58 O 7.91414 -1.39011 8.63583 0
M  V30 59 C 6.50714 -0.273849 6.91158 0
M  V30 60 O 7.30614 -1.06348 6.02892 0
M  V30 61 C 5.17014 -0.897649 7.22545 0
M  V30 62 H 5.20214 -1.9841 7.04286 0
M  V30 63 H 6.38514 0.739928 6.497 0
M  V30 64 H 7.86914 0.60668 8.36503 0
M  V30 65 H 6.17514 -0.352479 10.1829 0
M  V30 66 H 5.98514 2.00611 10.0304 0
M  V30 67 H 4.35514 1.41843 9.55327 0
M  V30 68 H 6.99414 -1.95734 6.03555 0
M  V30 69 P 8.85171 -1.25109 8.70152 0
M  V30 70 O 10.2737 -1.35274 9.21221 0
M  V30 71 O 8.49171 -0.0769065 7.84762 0
M  V30 72 O 8.52871 -2.55232 7.81161 0
M  V30 73 C 8.36871 -3.79939 8.58154 0
M  V30 74 C 8.90871 -4.94023 7.72785 0
M  V30 75 O 7.85271 -5.18726 6.91205 0
M  V30 76 C 10.1267 -4.69597 6.85231 0
M  V30 77 O 10.8647 -5.83832 6.51337 0
M  V30 78 C 9.45771 -3.96706 5.66633 0
M  V30 79 O 10.2567 -4.15414 4.49689 0
M  V30 80 C 8.12071 -4.66153 5.59313 0
M  V30 81 H 8.15271 -5.47679 4.85214 0
M  V30 82 H 9.33571 -2.89008 5.86566 0
M  V30 83 H 10.8197 -4.0121 7.36511 0
M  V30 84 H 9.12571 -5.80182 8.37584 0
M  V30 85 H 8.93571 -3.73517 9.52265 0
M  V30 86 H 7.30571 -3.97163 8.80359 0
M  V30 87 H 9.94471 -4.90969 4.01921 0
M  V30 88 P 11.8023 -5.75688 6.64379 0
M  V30 89 O 13.2243 -6.11849 7.01846 0
M  V30 90 O 11.4423 -4.30744 6.56026 0
M  V30 91 O 11.4793 -6.37042 5.19165 0
M  V30 92 C 11.3193 -7.83578 5.16515 0
M  V30 93 C 11.8593 -8.33398 3.83019 0
M  V30 94 O 10.8033 -8.10074 3.01034 0
M  V30 95 C 13.0773 -7.65514 3.2257 0
M  V30 96 O 13.8153 -8.4329 2.32297 0
M  V30 97 C 12.4083 -6.40075 2.62207 0
M  V30 98 O 13.2073 -5.92589 1.53712 0
M  V30 99 C 11.0713 -6.9454 2.18503 0
M  V30 100 H 11.1033 -7.23063 1.12091 0
M  V30 101 H 12.2863 -5.6025 3.37201 0
M  V30 102 H 13.7703 -7.35707 4.02681 0
M  V30 103 H 12.0763 -9.40912 3.9095 0
M  V30 104 H 11.8863 -8.29056 5.99158 0
M  V30 105 H 10.2563 -8.10073 5.25882 0
M  V30 106 H 12.8953 -6.30324 0.726794 0
M  V30 107 P 14.7528 -8.4349 2.47671 0
M  V30 108 O 16.1748 -8.94167 2.5964 0
M  V30 109 O 14.3928 -7.1704 3.19006 0
M  V30 110 O 14.4298 -8.16596 0.923387 0
M  V30 111 C 14.2698 -9.38437 0.108857 0
M  V30 112 C 14.8098 -9.08175 -1.28353 0
M  V30 113 O 13.7538 -8.44229 -1.84713 0
M  V30 114 C 16.0278 -8.18386 -1.42505 0
M  V30 115 O 16.7659 -8.3501 -2.60497 0
M  V30 116 C 15.3588 -6.80225 -1.25468 0
M  V30 117 O 16.1578 -5.81621 -1.91066 0
M  V30 118 C 14.0218 -7.02416 -1.9168 0
M  V30 119 H 14.0538 -6.6888 -2.96621 0
M  V30 120 H 15.2368 -6.53617 -0.192223 0
M  V30 121 H 16.7208 -8.36622 -0.589963 0
M  V30 122 H 15.0268 -10.0291 -1.79807 0
M  V30 123 H 14.8368 -10.2138 0.558219 0
M  V30 124 H 13.2068 -9.6579 0.0444202 0
M  V30 125 H 15.8458 -5.69556 -2.79637 0
M  V30 126 P 17.7034 -8.4349 -2.47671 0
M  V30 127 O 19.1254 -8.92593 -2.65 0
M  V30 128 O 17.3434 -7.7568 -1.19296 0
M  V30 129 O 17.3804 -7.36886 -3.63805 0
M  V30 130 C 17.2204 -7.95349 -4.982 0
M  V30 131 C 17.7604 -6.94612 -5.98974 0
M  V30 132 O 16.7044 -6.10347 -6.11815 0
M  V30 133 C 18.9784 -6.11426 -5.62335 0
M  V30 134 O 19.7164 -5.6162 -6.70584 0
M  V30 135 C 18.3094 -5.04409 -4.73308 0
M  V30 136 O 19.1084 -3.85992 -4.75183 0
M  V30 137 C 16.9724 -4.8728 -5.41006 0
M  V30 138 H 17.0044 -4.02333 -6.11157 0
M  V30 139 H 18.1874 -5.39466 -3.69543 0
M  V30 140 H 19.6714 -6.71916 -5.01943 0
M  V30 141 H 17.9774 -7.4649 -6.93477 0
M  V30 142 H 17.7874 -8.89416 -5.05237 0
M  V30 143 H 16.1574 -8.14876 -5.18409 0
M  V30 144 H 18.7964 -3.27957 -5.4317 0
M  V30 145 P 20.654 -5.75688 -6.64379 0
M  V30 146 O 22.075 -6.07692 -7.0558 0
M  V30 147 O 20.294 -5.88047 -5.19722 0
M  V30 148 O 20.331 -4.2322 -7.04443 0
M  V30 149 C 20.17 -3.99785 -8.49201 0
M  V30 150 C 20.711 -2.60516 -8.79425 0
M  V30 151 O 19.656 -1.82663 -8.44573 0
M  V30 152 C 21.929 -2.10343 -8.03628 0
M  V30 153 O 22.667 -1.09919 -8.67766 0
M  V30 154 C 21.261 -1.68446 -6.70876 0
M  V30 155 O 22.059 -0.684109 -6.08265 0
M  V30 156 C 19.923 -1.17436 -7.18567 0
M  V30 157 N 18.88 -1.52699 -6.23988 0
M  V30 158 C 19.049 -2.578 -5.40574 0
M  V30 159 N 18.022 -2.78966 -4.61193 0
M  V30 160 C 17.137 -1.78725 -4.95769 0
M  V30 161 C 15.87 -1.45727 -4.44207 0
M  V30 162 N 15.305 -0.374977 -5.05812 0
M  V30 163 C 15.907 0.345585 -6.05615 0
M  V30 164 N 17.084 0.0787651 -6.56253 0
M  V30 165 C 17.659 -1.00499 -5.96189 0
M  V30 166 H 21.138 -2.53396 -6.02698 0
M  V30 167 H 22.621 -2.93881 -7.85526 0
M  V30 168 H 20.927 -2.52078 -9.87225 0
M  V30 169 H 20.737 -4.75072 -9.05887 0
M  V30 170 H 19.107 -4.05244 -8.76668 0
M  V30 171 H 19.949 -3.18977 -5.3945 0
M  V30 172 H 21.747 0.177619 -6.34151 0
M  V30 173 P 23.6046 -1.25109 -8.70152 0
M  V30 174 O 25.0266 -1.29744 -9.22016 0
M  V30 175 O 23.2446 -2.13714 -7.55141 0
M  V30 176 O 23.2816 0.248149 -8.21425 0
M  V30 177 C 23.1216 1.22779 -9.30434 0
M  V30 178 C 23.6616 2.56293 -8.80664 0
M  V30 179 O 22.6056 3.02979 -8.09349 0
M  V30 180 C 24.8796 2.57523 -7.89775 0
M  V30 181 O 25.6176 3.7668 -7.89438 0
M  V30 182 C 24.2106 2.20997 -6.55446 0
M  V30 183 O 25.0096 2.71895 -5.48509 0
M  V30 184 C 22.8736 2.89693 -6.67988 0
M  V30 185 H 22.9056 3.88793 -6.19859 0
M  V30 186 H 24.0886 1.12046 -6.44229 0
M  V30 187 H 25.5726 1.7746 -8.19711 0
M  V30 188 H 23.8786 3.20706 -9.67112 0
M  V30 189 H 23.6886 0.901032 -10.1892 0
M  V30 190 H 22.0586 1.33049 -9.56592 0
M  V30 191 H 24.6976 3.57847 -5.23962 0
M  V30 192 P 26.5551 3.65191 -7.99657 0
M  V30 193 O 27.9771 3.89332 -8.45794 0
M  V30 194 O 26.1951 2.28472 -7.50807 0
M  V30 195 O 26.2321 4.64972 -6.77611 0
M  V30 196 C 26.0721 6.06319 -7.16352 0
M  V30 197 C 26.6121 6.91731 -6.02299 0
M  V30 198 O 25.5561 6.92449 -5.17064 0
M  V30 199 C 27.8301 6.43627 -5.25174 0
M  V30 200 O 28.5681 7.43686 -4.60469 0
M  V30 201 C 27.1611 5.40275 -4.31916 0
M  V30 202 O 27.9601 5.25279 -3.14438 0
M  V30 203 C 25.8241 6.04847 -4.05327 0
M  V30 204 H 25.8561 6.62195 -3.11261 0
M  V30 205 H 27.0391 4.42556 -4.81383 0
M  V30 206 H 28.5231 5.92458 -5.93643 0
M  V30 207 H 26.8291 7.92655 -6.402 0
M  V30 208 H 26.6391 6.26671 -8.0846 0
M  V30 209 H 25.0091 6.29101 -7.32804 0
M  V30 210 H 27.6481 5.84315 -2.47318 0
M  V30 211 P 29.5057 7.39546 -4.75277 0
M  V30 212 O 30.9277 7.84798 -5.01039 0
M  V30 213 O 29.1457 5.9812 -5.08098 0
M  V30 214 O 29.1827 7.57503 -3.1866 0
M  V30 215 C 29.0227 8.97357 -2.74833 0
M  V30 216 C 29.5627 9.07548 -1.32709 0
M  V30 217 O 28.5067 8.62072 -0.606159 0
M  V30 218 C 30.7807 8.25383 -0.938334 0
M  V30 219 O 31.5187 8.74577 0.146954 0
M  V30 220 C 30.1117 6.8802 -0.712559 0
M  V30 221 O 30.9107 6.1189 0.194655 0
M  V30 222 C 28.7747 7.27966 -0.139777 0
M  V30 223 H 28.8067 7.25354 0.961601 0
M  V30 224 H 29.9897 6.32557 -1.65702 0
M  V30 225 H 31.4737 8.19355 -1.79097 0
M  V30 226 H 29.7797 10.1294 -1.10029 0
M  V30 227 H 29.5897 9.64276 -3.41316 0
M  V30 228 H 27.9597 9.25417 -2.76357 0
M  V30 229 H 30.5987 6.25267 1.07847 0
M  V30 230 P 32.4563 8.791 -9.96115e-15 0
M  V30 231 O 33.8773 9.31196 0.027936 0
M  V30 232 O 32.0963 7.77869 -1.04071 0
M  V30 233 O 32.1333 8.09533 1.41463 0
M  V30 234 C 31.9723 9.03587 2.5397 0
M  V30 235 C 32.5133 8.35226 3.79016 0
M  V30 236 O 31.4583 7.57904 4.1503 0
M  V30 237 C 33.7313 7.45087 3.67298 0
M  V30 238 O 34.4693 7.27796 4.85194 0
M  V30 239 C 33.0633 6.17323 3.12027 0
M  V30 240 O 33.8613 5.04496 3.46627 0
M  V30 241 C 31.7253 6.19961 3.81809 0
M  V30 242 N 30.6823 5.71575 2.93223 0
M  V30 243 C 30.8513 5.77362 1.59168 0
M  V30 244 N 29.8243 5.3123 0.911893 0
M  V30 245 C 28.9393 4.91717 1.89588 0
M  V30 246 C 27.6723 4.3114 1.8076 0
M  V30 247 N 27.0733 3.99821 0.632928 0
M  V30 248 N 27.1073 4.06823 3.02898 0
M  V30 249 C 27.7093 4.35062 4.22711 0
M  V30 250 N 28.8863 4.90805 4.35707 0
M  V30 251 C 29.4613 5.16382 3.14469 0
M  V30 252 H 31.7573 5.58142 4.72986 0
M  V30 253 H 32.9403 6.21428 2.0318 0
M  V30 254 H 34.4233 7.86112 2.9231 0
M  V30 255 H 32.7293 9.11171 4.55987 0
M  V30 256 H 32.5393 9.9573 2.34194 0
M  V30 257 H 30.9093 9.2792 2.67832 0
M  V30 258 H 27.1733 4.09052 5.13359 0
M  V30 259 H 31.7513 6.16575 1.12198 0
M  V30 260 H 26.1433 3.55423 0.632085 0
M  V30 261 H 27.5473 4.20317 -0.256712 0
M  V30 262 H 33.5493 4.67628 4.28704 0
M  V30 263 P 35.4068 7.39546 4.75277 0
M  V30 264 O 36.8288 7.81777 5.05738 0
M  V30 265 O 35.0468 7.1065 3.32998 0
M  V30 266 O 35.0838 6.04542 5.56673 0
M  V30 267 C 34.9238 6.22772 7.02095 0
M  V30 268 C 35.4638 4.97725 7.70406 0
M  V30 269 O 34.4078 4.13256 7.58987 0
M  V30 270 C 36.6818 4.28231 7.11815 0
M  V30 271 O 37.4198 3.49945 8.01648 0
M  V30 272 C 36.0128 3.5063 5.96244 0
M  V30 273 O 36.8118 2.36482 5.64681 0
M  V30 274 C 34.6758 3.15122 6.56374 0
M  V30 275 H 34.7078 2.13853 6.99751 0
M  V30 276 H 35.8908 4.13501 5.06559 0
M  V30 277 H 37.3748 5.03285 6.70911 0
M  V30 278 H 35.6808 5.20877 8.75697 0
M  V30 279 H 35.4908 7.11046 7.35349 0
M  V30 280 H 33.8608 6.35815 7.26986 0
M  V30 281 H 36.4998 1.61644 6.13565 0
M  V30 282 P 38.3574 3.65191 7.99657 0
M  V30 283 O 39.7794 3.8425 8.48115 0
M  V30 284 O 37.9974 4.17805 6.64342 0
M  V30 285 O 38.0344 2.07613 7.95143 0
M  V30 286 C 37.8744 1.44328 9.27336 0
M  V30 287 C 38.4144 0.0220036 9.17197 0
M  V30 288 O 37.3584 -0.626867 8.61923 0
M  V30 289 C 39.6324 -0.24586 8.30336 0
M  V30 290 O 40.3704 -1.39011 8.63583 0
M  V30 291 C 38.9634 -0.273849 6.91158 0
M  V30 292 O 39.7624 -1.06348 6.02892 0
M  V30 293 C 37.6264 -0.897649 7.22545 0
M  V30 294 H 37.6584 -1.9841 7.04286 0
M  V30 295 H 38.8414 0.739928 6.497 0
M  V30 296 H 40.3254 0.60668 8.36503 0
M  V30 297 H 38.6314 -0.352479 10.1829 0
M  V30 298 H 38.4414 2.00611 10.0304 0
M  V30 299 H 36.8114 1.41843 9.55327 0
M  V30 300 H 39.4504 -1.95734 6.03555 0
M  V30 301 P 41.308 -1.25109 8.70152 0
M  V30 302 O 42.73 -1.35274 9.21221 0
M  V30 303 O 40.948 -0.0769065 7.84762 0
M  V30 304 O 40.985 -2.55232 7.81161 0
M  V30 305 C 40.825 -3.79939 8.58154 0
M  V30 306 C 41.365 -4.94023 7.72785 0
M  V30 307 O 40.309 -5.18726 6.91205 0
M  V30 308 C 42.583 -4.69597 6.85231 0
M  V30 309 O 43.321 -5.83832 6.51337 0
M  V30 310 C 41.914 -3.96706 5.66633 0
M  V30 311 O 42.713 -4.15414 4.49689 0
M  V30 312 C 40.577 -4.66153 5.59313 0
M  V30 313 H 40.609 -5.47679 4.85214 0
M  V30 314 H 41.792 -2.89008 5.86566 0
M  V30 315 H 43.276 -4.0121 7.36511 0
M  V30 316 H 41.582 -5.80182 8.37584 0
M  V30 317 H 41.392 -3.73517 9.52265 0
M  V30 318 H 39.762 -3.97163 8.80359 0
M  V30 319 H 42.401 -4.90969 4.01921 0
M  V30 320 P 44.2585 -5.75688 6.64379 0
M  V30 321 O 45.6805 -6.11849 7.01846 0
M  V30 322 O 43.8985 -4.30744 6.56026 0
M  V30 323 O 43.9355 -6.37042 5.19165 0
M  V30 324 C 43.7755 -7.83578 5.16515 0
M  V30 325 C 44.3155 -8.33398 3.83019 0
M  V30 326 O 43.2595 -8.10074 3.01034 0
M  V30 327 C 45.5335 -7.65514 3.2257 0
M  V30 328 O 46.2715 -8.4329 2.32297 0
M  V30 329 C 44.8645 -6.40075 2.62207 0
M  V30 330 O 45.6635 -5.92589 1.53712 0
M  V30 331 C 43.5275 -6.9454 2.18503 0
M  V30 332 H 43.5595 -7.23063 1.12091 0
M  V30 333 H 44.7425 -5.6025 3.37201 0
M  V30 334 H 46.2265 -7.35707 4.02681 0
M  V30 335 H 44.5325 -9.40912 3.9095 0
M  V30 336 H 44.3425 -8.29056 5.99158 0
M  V30 337 H 42.7125 -8.10073 5.25882 0
M  V30 338 H 45.3515 -6.30324 0.726794 0
M  V30 339 P 47.2091 -8.4349 2.47671 0
M  V30 340 O 48.6311 -8.94167 2.5964 0
M  V30 341 O 46.8491 -7.1704 3.19006 0
M  V30 342 O 46.8861 -8.16596 0.923387 0
M  V30 343 C 46.7261 -9.38437 0.108857 0
M  V30 344 C 47.2661 -9.08175 -1.28353 0
M  V30 345 O 46.2101 -8.44229 -1.84713 0
M  V30 346 C 48.4841 -8.18386 -1.42505 0
M  V30 347 O 49.2221 -8.3501 -2.60497 0
M  V30 348 C 47.8151 -6.80225 -1.25468 0
M  V30 349 O 48.6141 -5.81621 -1.91066 0
M  V30 350 C 46.4781 -7.02416 -1.9168 0
M  V30 351 H 46.5101 -6.6888 -2.96621 0
M  V30 352 H 47.6931 -6.53617 -0.192223 0
M  V30 353 H 49.1771 -8.36622 -0.589963 0
M  V30 354 H 47.4831 -10.0291 -1.79807 0
M  V30 355 H 47.2931 -10.2138 0.558219 0
M  V30 356 H 45.6631 -9.6579 0.0444202 0
M  V30 357 H 48.3021 -5.69556 -2.79637 0
M  V30 358 P 50.1597 -8.4349 -2.47671 0
M  V30 359 O 51.5817 -8.92785 -2.65057 0
M  V30 360 O 49.7997 -7.7568 -1.19296 0
M  V30 361 O 49.8367 -7.36886 -3.63805 0
M  V30 362 C 49.6767 -7.95349 -4.982 0
M  V30 363 C 50.2167 -6.94537 -5.98908 0
M  V30 364 O 49.1617 -6.10347 -6.11815 0
M  V30 365 C 51.4347 -6.11426 -5.62335 0
M  V30 366 O 52.1727 -5.6162 -6.70584 0
M  V30 367 C 50.7667 -5.04409 -4.73308 0
M  V30 368 O 51.5647 -3.85929 -4.75106 0
M  V30 369 C 49.4287 -4.8728 -5.41006 0
M  V30 370 N 48.3857 -4.65812 -4.42377 0
M  V30 371 C 48.4477 -5.27109 -3.24335 0
M  V30 372 N 47.4027 -4.94293 -2.47735 0
M  V30 373 C 46.6687 -4.1271 -3.23359 0
M  V30 374 C 45.3627 -3.56384 -2.99934 0
M  V30 375 O 44.6297 -3.69331 -2.00616 0
M  V30 376 N 44.9327 -2.80206 -4.03316 0
M  V30 377 C 45.6817 -2.58614 -5.2172 0
M  V30 378 N 45.0847 -1.75154 -6.13278 0
M  V30 379 N 46.8347 -3.13689 -5.47619 0
M  V30 380 C 47.2917 -3.90921 -4.46436 0
M  V30 381 H 49.4607 -4.02333 -6.11157 0
M  V30 382 H 50.6437 -5.39383 -3.69487 0
M  V30 383 H 52.1287 -6.71414 -5.02615 0
M  V30 384 H 50.4337 -7.4649 -6.93477 0
M  V30 385 H 50.2437 -8.89416 -5.05237 0
M  V30 386 H 48.6127 -8.14876 -5.18409 0
M  V30 387 H 44.0367 -2.36355 -3.95916 0
M  V30 388 H 49.2437 -5.95212 -2.93859 0
M  V30 389 H 44.1737 -1.32473 -5.91856 0
M  V30 390 H 45.5497 -1.5588 -7.03026 0
M  V30 391 H 51.2537 -3.27906 -5.43085 0
M  V30 392 P 53.1103 -5.75688 -6.64379 0
M  V30 393 O 54.5313 -6.07692 -7.0558 0
M  V30 394 O 52.7503 -5.88047 -5.19722 0
M  V30 395 O 52.7873 -4.2322 -7.04443 0
M  V30 396 C 52.6263 -3.99785 -8.49201 0
M  V30 397 C 53.1673 -2.60516 -8.79425 0
M  V30 398 O 52.1123 -1.82663 -8.44573 0
M  V30 399 C 54.3853 -2.10343 -8.03628 0
M  V30 400 O 55.1233 -1.09919 -8.67766 0
M  V30 401 C 53.7173 -1.68446 -6.70876 0
M  V30 402 O 54.5153 -0.684109 -6.08265 0
M  V30 403 C 52.3793 -1.17436 -7.18567 0
M  V30 404 N 51.3363 -1.52699 -6.23988 0
M  V30 405 C 51.5053 -2.578 -5.40574 0
M  V30 406 N 50.4783 -2.78966 -4.61193 0
M  V30 407 C 49.5933 -1.78725 -4.95769 0
M  V30 408 C 48.3263 -1.45727 -4.44207 0
M  V30 409 N 47.7273 -2.13994 -3.43613 0
M  V30 410 N 47.7613 -0.374977 -5.05812 0
M  V30 411 C 48.3633 0.345585 -6.05615 0
M  V30 412 N 49.5403 0.0787651 -6.56253 0
M  V30 413 C 50.1153 -1.00499 -5.96189 0
M  V30 414 H 52.4113 -0.0804622 -7.31556 0
M  V30 415 H 53.5943 -2.53396 -6.02698 0
M  V30 416 H 55.0773 -2.93881 -7.85526 0
M  V30 417 H 53.3833 -2.52078 -9.87225 0
M  V30 418 H 53.1933 -4.75072 -9.05887 0
M  V30 419 H 51.5633 -4.05244 -8.76668 0
M  V30 420 H 47.8273 1.20098 -6.4532 0
M  V30 421 H 52.4053 -3.18977 -5.3945 0
M  V30 422 H 46.7973 -1.84983 -3.10004 0
M  V30 423 H 48.2013 -2.9465 -3.00843 0
M  V30 424 H 54.2033 0.177619 -6.34151 0
M  V30 425 P 56.0608 -1.25109 -8.70152 0
M  V30 426 O 57.4828 -1.29744 -9.22016 0
M  V30 427 O 55.7008 -2.13714 -7.55141 0
M  V30 428 O 55.7378 0.248149 -8.21425 0
M  V30 429 C 55.5778 1.22779 -9.30434 0
M  V30 430 C 56.1178 2.56293 -8.80664 0
M  V30 431 O 55.0618 3.02979 -8.09349 0
M  V30 432 C 57.3358 2.57523 -7.89775 0
M  V30 433 O 58.0738 3.7668 -7.89438 0
M  V30 434 C 56.6668 2.20997 -6.55446 0
M  V30 435 O 57.4658 2.71895 -5.48509 0
M  V30 436 C 55.3298 2.89693 -6.67988 0
M  V30 437 H 55.3618 3.88793 -6.19859 0
M  V30 438 H 56.5448 1.12046 -6.44229 0
M  V30 439 H 58.0288 1.7746 -8.19711 0
M  V30 440 H 56.3348 3.20706 -9.67112 0
M  V30 441 H 56.1448 0.901032 -10.1892 0
M  V30 442 H 54.5148 1.33049 -9.56592 0
M  V30 443 H 57.1538 3.57847 -5.23962 0
M  V30 444 P 59.0114 3.65191 -7.99657 0
M  V30 445 O 60.4324 3.89374 -8.45885 0
M  V30 446 O 58.6514 2.28472 -7.50807 0
M  V30 447 O 58.6884 4.64972 -6.77611 0
M  V30 448 C 58.5274 6.06383 -7.16428 0
M  V30 449 C 59.0684 6.91731 -6.02299 0
M  V30 450 O 58.0134 6.92369 -5.17005 0
M  V30 451 C 60.2864 6.43627 -5.25174 0
M  V30 452 O 61.0244 7.43686 -4.60469 0
M  V30 453 C 59.6184 5.40275 -4.31916 0
M  V30 454 O 60.4164 5.24878 -3.14911 0
M  V30 455 C 58.2804 6.04847 -4.05327 0
M  V30 456 N 57.2374 5.04166 -3.98114 0
M  V30 457 C 57.4064 3.84629 -4.59066 0
M  V30 458 N 56.3794 3.0363 -4.45343 0
M  V30 459 C 55.4944 3.76722 -3.68523 0
M  V30 460 C 54.2274 3.43528 -3.17088 0
M  V30 461 N 53.6624 4.44526 -2.44231 0
M  V30 462 C 54.2644 5.65243 -2.20146 0
M  V30 463 N 55.4414 6.00221 -2.65453 0
M  V30 464 C 56.0164 5.00564 -3.39083 0
M  V30 465 H 59.4954 4.42969 -4.80867 0
M  V30 466 H 60.9784 5.92458 -5.93643 0
M  V30 467 H 59.2844 7.93295 -6.39407 0
M  V30 468 H 59.0944 6.26671 -8.0846 0
M  V30 469 H 57.4644 6.29101 -7.32804 0
M  V30 470 H 58.3064 3.58193 -5.14248 0
M  V30 471 H 60.1044 5.84223 -2.47279 0
M  V30 472 P 61.962 7.39546 -4.75277 0
M  V30 473 O 63.384 7.84798 -5.01039 0
M  V30 474 O 61.602 5.9812 -5.08098 0
M  V30 475 O 61.639 7.57503 -3.1866 0
M  V30 476 C 61.479 8.97357 -2.74833 0
M  V30 477 C 62.019 9.07548 -1.32709 0
M  V30 478 O 60.963 8.62072 -0.606159 0
M  V30 479 C 63.237 8.25383 -0.938334 0
M  V30 480 O 63.975 8.74577 0.146954 0
M  V30 481 C 62.568 6.8802 -0.712559 0
M  V30 482 O 63.367 6.1189 0.194655 0
M  V30 483 C 61.231 7.27966 -0.139777 0
M  V30 484 H 61.263 7.25354 0.961601 0
M  V30 485 H 62.446 6.32557 -1.65702 0
M  V30 486 H 63.93 8.19355 -1.79097 0
M  V30 487 H 62.236 10.1294 -1.10029 0
M  V30 488 H 62.046 9.64276 -3.41316 0
M  V30 489 H 60.416 9.25417 -2.76357 0
M  V30 490 H 63.055 6.25267 1.07847 0
M  V30 491 P 64.9125 8.791 -3.55383e-14 0
M  V30 492 O 66.3345 9.31096 0.027933 0
M  V30 493 O 64.5525 7.77869 -1.04071 0
M  V30 494 O 64.5895 8.09533 1.41463 0
M  V30 495 C 64.4295 9.0349 2.53943 0
M  V30 496 C 64.9695 8.35226 3.79016 0
M  V30 497 O 63.9135 7.57992 4.15078 0
M  V30 498 C 66.1875 7.45087 3.67298 0
M  V30 499 O 66.9255 7.27796 4.85194 0
M  V30 500 C 65.5185 6.17323 3.12027 0
M  V30 501 O 66.3175 5.04231 3.47188 0
M  V30 502 C 64.1815 6.19961 3.81809 0
M  V30 503 H 64.2135 5.58218 4.73051 0
M  V30 504 H 65.3965 6.21726 2.02589 0
M  V30 505 H 66.8805 7.86112 2.9231 0
M  V30 506 H 65.1865 9.11627 4.55076 0
M  V30 507 H 64.9965 9.9573 2.34194 0
M  V30 508 H 63.3665 9.2792 2.67832 0
M  V30 509 H 66.0055 4.67702 4.28772 0
M  V30 510 P 67.8631 7.39546 4.75277 0
M  V30 511 O 69.2851 7.81777 5.05738 0
M  V30 512 O 67.5031 7.1065 3.32998 0
M  V30 513 O 67.5401 6.04542 5.56673 0
M  V30 514 C 67.3801 6.22772 7.02095 0
M  V30 515 C 67.9201 4.97725 7.70406 0
M  V30 516 O 66.8641 4.13256 7.58987 0
M  V30 517 C 69.1381 4.28231 7.11815 0
M  V30 518 O 69.8761 3.49945 8.01648 0
M  V30 519 C 68.4691 3.5063 5.96244 0
M  V30 520 O 69.2681 2.36482 5.64681 0
M  V30 521 C 67.1321 3.15122 6.56374 0
M  V30 522 H 67.1641 2.13853 6.99751 0
M  V30 523 H 68.3471 4.13501 5.06559 0
M  V30 524 H 69.8311 5.03285 6.70911 0
M  V30 525 H 68.1371 5.20877 8.75697 0
M  V30 526 H 67.9471 7.11046 7.35349 0
M  V30 527 H 66.3171 6.35815 7.26986 0
M  V30 528 H 68.9561 1.61644 6.13565 0
M  V30 529 P 70.8137 3.65191 7.99657 0
M  V30 530 O 72.2357 3.84333 8.48297 0
M  V30 531 O 70.4537 4.17805 6.64342 0
M  V30 532 O 70.4907 2.07613 7.95143 0
M  V30 533 C 70.3307 1.44328 9.27336 0
M  V30 534 C 70.8707 0.0220012 9.17097 0
M  V30 535 O 69.8157 -0.626867 8.61923 0
M  V30 536 C 72.0887 -0.24586 8.30336 0
M  V30 537 O 72.8267 -1.39011 8.63583 0
M  V30 538 C 71.4207 -0.273849 6.91158 0
M  V30 539 O 72.2187 -1.06331 6.02794 0
M  V30 540 C 70.0827 -0.897649 7.22545 0
M  V30 541 N 69.0397 -0.292839 6.41732 0
M  V30 542 C 69.1017 1.00068 6.10757 0
M  V30 543 N 68.0567 1.36468 5.35794 0
M  V30 544 C 67.3227 0.258894 5.2366 0
M  V30 545 C 66.0167 0.0670682 4.65752 0
M  V30 546 O 65.2837 0.902443 4.10497 0
M  V30 547 N 65.5867 -1.2131 4.75881 0
M  V30 548 C 66.3357 -2.24934 5.37101 0
M  V30 549 N 65.7387 -3.48783 5.33984 0
M  V30 550 N 67.4887 -2.0844 5.95684 0
M  V30 551 C 67.9457 -0.81395 5.87791 0
M  V30 552 H 70.1147 -1.9841 7.04286 0
M  V30 553 H 71.2977 0.739815 6.49601 0
M  V30 554 H 72.7827 0.598315 8.36563 0
M  V30 555 H 71.0877 -0.352479 10.1829 0
M  V30 556 H 70.8977 2.00611 10.0304 0
M  V30 557 H 69.2667 1.41843 9.55327 0
M  V30 558 H 64.6907 -1.44434 4.37895 0
M  V30 559 H 69.8977 1.67697 6.42268 0
M  V30 560 H 64.8277 -3.60543 4.87699 0
M  V30 561 H 66.2037 -4.29232 5.7819 0
M  V30 562 H 71.9077 -1.95704 6.0346 0
M  V30 563 P 73.7642 -1.25109 8.70152 0
M  V30 564 O 75.1862 -1.35274 9.21221 0
M  V30 565 O 73.4042 -0.0769065 7.84762 0
M  V30 566 O 73.4412 -2.55232 7.81161 0
M  V30 567 C 73.2812 -3.79939 8.58154 0
M  V30 568 C 73.8212 -4.94023 7.72785 0
M  V30 569 O 72.7652 -5.18726 6.91205 0
M  V30 570 C 75.0392 -4.69597 6.85231 0
M  V30 571 O 75.7772 -5.83832 6.51337 0
M  V30 572 C 74.3702 -3.96706 5.66633 0
M  V30 573 O 75.1692 -4.15414 4.49689 0
M  V30 574 C 73.0332 -4.66153 5.59313 0
M  V30 575 H 73.0652 -5.47679 4.85214 0
M  V30 576 H 74.2482 -2.89008 5.86566 0
M  V30 577 H 75.7322 -4.0121 7.36511 0
M  V30 578 H 74.0382 -5.80182 8.37584 0
M  V30 579 H 73.8482 -3.73517 9.52265 0
M  V30 580 H 72.2182 -3.97163 8.80359 0
M  V30 581 H 74.8572 -4.90969 4.01921 0
M  V30 582 P 76.7148 -5.75688 6.64379 0
M  V30 583 O 78.1368 -6.11849 7.01846 0
M  V30 584 O 76.3548 -4.30744 6.56026 0
M  V30 585 O 76.3918 -6.37042 5.19165 0
M  V30 586 C 76.2318 -7.83578 5.16515 0
M  V30 587 C 76.7718 -8.33398 3.83019 0
M  V30 588 O 75.7158 -8.10074 3.01034 0
M  V30 589 C 77.9898 -7.65514 3.2257 0
M  V30 590 O 78.7278 -8.4329 2.32297 0
M  V30 591 C 77.3208 -6.40075 2.62207 0
M  V30 592 O 78.1198 -5.92589 1.53712 0
M  V30 593 C 75.9838 -6.9454 2.18503 0
M  V30 594 H 76.0158 -7.23063 1.12091 0
M  V30 595 H 77.1988 -5.6025 3.37201 0
M  V30 596 H 78.6828 -7.35707 4.02681 0
M  V30 597 H 76.9888 -9.40912 3.9095 0
M  V30 598 H 76.7988 -8.29056 5.99158 0
M  V30 599 H 75.1688 -8.10073 5.25882 0
M  V30 600 H 77.8078 -6.30324 0.726794 0
M  V30 601 P 79.6654 -8.4349 2.47671 0
M  V30 602 O 81.0864 -8.94263 2.59668 0
M  V30 603 O 79.3054 -7.1704 3.19006 0
M  V30 604 O 79.3424 -8.16596 0.923387 0
M  V30 605 C 79.1814 -9.38537 0.108869 0
M  V30 606 C 79.7224 -9.08175 -1.28353 0
M  V30 607 O 78.6674 -8.44131 -1.84692 0
M  V30 608 C 80.9404 -8.18386 -1.42505 0
M  V30 609 O 81.6784 -8.3501 -2.60497 0
M  V30 610 C 80.2724 -6.80225 -1.25468 0
M  V30 611 O 81.0704 -5.81716 -1.90454 0
M  V30 612 C 78.9344 -7.02416 -1.9168 0
M  V30 613 N 77.8914 -6.31033 -1.20314 0
M  V30 614 C 78.0604 -5.98817 0.0994088 0
M  V30 615 N 77.0334 -5.35403 0.621694 0
M  V30 616 C 76.1484 -5.25212 -0.43376 0
M  V30 617 C 74.8814 -4.64602 -0.519722 0
M  V30 618 N 74.2824 -4.01457 0.519136 0
M  V30 619 N 74.3164 -4.7568 -1.76013 0
M  V30 620 C 74.9184 -5.3653 -2.83017 0
M  V30 621 N 76.0954 -5.93676 -2.79782 0
M  V30 622 C 76.6704 -5.84061 -1.56249 0
M  V30 623 H 78.9664 -6.68789 -2.9658 0
M  V30 624 H 80.1494 -6.53498 -0.198729 0
M  V30 625 H 81.6324 -8.36622 -0.589963 0
M  V30 626 H 79.9384 -10.0273 -1.8081 0
M  V30 627 H 79.7484 -10.2138 0.558219 0
M  V30 628 H 78.1184 -9.6579 0.0444202 0
M  V30 629 H 74.3824 -5.37113 -3.77321 0
M  V30 630 H 78.9604 -6.23209 0.660562 0
M  V30 631 H 73.3524 -3.58834 0.394862 0
M  V30 632 H 74.7564 -3.96059 1.43048 0
M  V30 633 H 80.7584 -5.69466 -2.79593 0
M  V30 634 P 82.616 -8.4349 -2.47671 0
M  V30 635 O 84.038 -8.92593 -2.65 0
M  V30 636 O 82.256 -7.7568 -1.19296 0
M  V30 637 O 82.293 -7.36886 -3.63805 0
M  V30 638 C 82.133 -7.95349 -4.982 0
M  V30 639 C 82.673 -6.94612 -5.98974 0
M  V30 640 O 81.617 -6.10347 -6.11815 0
M  V30 641 C 83.891 -6.11426 -5.62335 0
M  V30 642 O 84.629 -5.6162 -6.70584 0
M  V30 643 C 83.222 -5.04409 -4.73308 0
M  V30 644 O 84.021 -3.85992 -4.75183 0
M  V30 645 C 81.885 -4.8728 -5.41006 0
M  V30 646 H 81.917 -4.02333 -6.11157 0
M  V30 647 H 83.1 -5.39466 -3.69543 0
M  V30 648 H 84.584 -6.71916 -5.01943 0
M  V30 649 H 82.89 -7.4649 -6.93477 0
M  V30 650 H 82.7 -8.89416 -5.05237 0
M  V30 651 H 81.07 -8.14876 -5.18409 0
M  V30 652 H 83.709 -3.27957 -5.4317 0
M  V30 653 P 85.5665 -5.75688 -6.64379 0
M  V30 654 O 86.9885 -6.07758 -7.05656 0
M  V30 655 O 85.2065 -5.88047 -5.19722 0
M  V30 656 O 85.2435 -4.2322 -7.04443 0
M  V30 657 C 85.0835 -3.99743 -8.4911 0
M  V30 658 C 85.6235 -2.60487 -8.79329 0
M  V30 659 O 84.5685 -1.82684 -8.4467 0
M  V30 660 C 86.8415 -2.10343 -8.03628 0
M  V30 661 O 87.5795 -1.09919 -8.67766 0
M  V30 662 C 86.1735 -1.68446 -6.70876 0
M  V30 663 O 86.9715 -0.678026 -6.08333 0
M  V30 664 C 84.8355 -1.17436 -7.18567 0
M  V30 665 N 83.7925 -1.52699 -6.23988 0
M  V30 666 C 83.8545 -2.68084 -5.57824 0
M  V30 667 N 82.8095 -2.8189 -4.75643 0
M  V30 668 C 82.0755 -1.72373 -4.95155 0
M  V30 669 C 80.7695 -1.37653 -4.44996 0
M  V30 670 O 80.0365 -2.02239 -3.68445 0
M  V30 671 N 80.3395 -0.17675 -4.90782 0
M  V30 672 C 81.0885 0.645036 -5.78716 0
M  V30 673 N 80.4915 1.84214 -6.10618 0
M  V30 674 N 82.2415 0.321732 -6.30279 0
M  V30 675 C 82.6985 -0.87502 -5.86913 0
M  V30 676 H 84.8675 -0.0804732 -7.31656 0
M  V30 677 H 86.0505 -2.53998 -6.02444 0
M  V30 678 H 87.5355 -2.93095 -7.8582 0
M  V30 679 H 85.8405 -2.53065 -9.86973 0
M  V30 680 H 85.6505 -4.75072 -9.05887 0
M  V30 681 H 84.0195 -4.05244 -8.76668 0
M  V30 682 H 79.4435 0.152143 -4.60849 0
M  V30 683 H 84.6505 -3.41852 -5.69006 0
M  V30 684 H 79.5805 2.08538 -5.69521 0
M  V30 685 H 80.9565 2.4895 -6.75698 0
M  V30 686 H 86.6605 0.177619 -6.34151 0
M  V30 687 P 88.5171 -1.25109 -8.70152 0
M  V30 688 O 89.9391 -1.29772 -9.22214 0
M  V30 689 O 88.1571 -2.13714 -7.55141 0
M  V30 690 O 88.1941 0.248149 -8.21425 0
M  V30 691 C 88.0341 1.22779 -9.30434 0
M  V30 692 C 88.5741 2.56265 -8.80568 0
M  V30 693 O 87.5191 3.02979 -8.09349 0
M  V30 694 C 89.7921 2.57523 -7.89775 0
M  V30 695 O 90.5301 3.7668 -7.89438 0
M  V30 696 C 89.1241 2.20997 -6.55446 0
M  V30 697 O 89.9221 2.71851 -5.48419 0
M  V30 698 C 87.7861 2.89693 -6.67988 0
M  V30 699 N 86.7431 2.08895 -6.07487 0
M  V30 700 C 86.8051 0.760559 -6.14209 0
M  V30 701 N 85.7601 0.200108 -5.52538 0
M  V30 702 C 85.0261 1.22692 -5.09742 0
M  V30 703 C 83.7201 1.24782 -4.48775 0
M  V30 704 O 82.9871 0.290617 -4.19294 0
M  V30 705 N 83.2901 2.50468 -4.22428 0
M  V30 706 C 84.0391 3.67142 -4.51974 0
M  V30 707 N 83.4421 4.85096 -4.14091 0
M  V30 708 N 85.1921 3.67821 -5.12831 0
M  V30 709 C 85.6491 2.43698 -5.4105 0
M  V30 710 H 87.8181 3.88793 -6.19859 0
M  V30 711 H 89.0011 1.12029 -6.4413 0
M  V30 712 H 90.4861 1.78279 -8.19533 0
M  V30 713 H 88.7911 3.20706 -9.67112 0
M  V30 714 H 88.6011 0.901032 -10.1892 0
M  V30 715 H 86.9701 1.33049 -9.56592 0
M  V30 716 H 82.3941 2.61953 -3.79465 0
M  V30 717 H 87.6011 0.200439 -6.63497 0
M  V30 718 H 82.5311 4.8334 -3.66367 0
M  V30 719 H 83.9071 5.7474 -4.33841 0
M  V30 720 H 89.6111 3.5779 -5.23879 0
M  V30 721 P 91.4677 3.65191 -7.99657 0
M  V30 722 O 92.8897 3.89332 -8.45794 0
M  V30 723 O 91.1077 2.28472 -7.50807 0
M  V30 724 O 91.1447 4.64972 -6.77611 0
M  V30 725 C 90.9847 6.06319 -7.16352 0
M  V30 726 C 91.5247 6.91731 -6.02299 0
M  V30 727 O 90.4687 6.92449 -5.17064 0
M  V30 728 C 92.7427 6.43627 -5.25174 0
M  V30 729 O 93.4807 7.43686 -4.60469 0
M  V30 730 C 92.0737 5.40275 -4.31916 0
M  V30 731 O 92.8727 5.25279 -3.14438 0
M  V30 732 C 90.7367 6.04847 -4.05327 0
M  V30 733 H 90.7687 6.62195 -3.11261 0
M  V30 734 H 91.9517 4.42556 -4.81383 0
M  V30 735 H 93.4357 5.92458 -5.93643 0
M  V30 736 H 91.7417 7.92655 -6.402 0
M  V30 737 H 91.5517 6.26671 -8.0846 0
M  V30 738 H 89.9217 6.29101 -7.32804 0
M  V30 739 H 92.5607 5.84315 -2.47318 0
M  V30 740 P 94.4182 7.39546 -4.75277 0
M  V30 741 O 95.8402 7.84798 -5.01039 0
M  V30 742 O 94.0582 5.9812 -5.08098 0
M  V30 743 O 94.0952 7.57503 -3.1866 0
M  V30 744 C 93.9352 8.97357 -2.74833 0
M  V30 745 C 94.4752 9.07548 -1.32709 0
M  V30 746 O 93.4192 8.62072 -0.606159 0
M  V30 747 C 95.6932 8.25383 -0.938334 0
M  V30 748 O 96.4312 8.74577 0.146954 0
M  V30 749 C 95.0242 6.8802 -0.712559 0
M  V30 750 O 95.8232 6.1189 0.194655 0
M  V30 751 C 93.6872 7.27966 -0.139777 0
M  V30 752 H 93.7192 7.25354 0.961601 0
M  V30 753 H 94.9022 6.32557 -1.65702 0
M  V30 754 H 96.3862 8.19355 -1.79097 0
M  V30 755 H 94.6922 10.1294 -1.10029 0
M  V30 756 H 94.5022 9.64276 -3.41316 0
M  V30 757 H 92.8722 9.25417 -2.76357 0
M  V30 758 H 95.5112 6.25267 1.07847 0
M  V30 759 P 97.3688 8.791 -6.89233e-14 0
M  V30 760 O 98.7908 9.31096 0.027933 0
M  V30 761 O 97.0088 7.77869 -1.04071 0
M  V30 762 O 97.0458 8.09533 1.41463 0
M  V30 763 C 96.8858 9.0349 2.53943 0
M  V30 764 C 97.4258 8.35226 3.79016 0
M  V30 765 O 96.3698 7.57992 4.15078 0
M  V30 766 C 98.6438 7.45087 3.67298 0
M  V30 767 O 99.3818 7.27796 4.85194 0
M  V30 768 C 97.9748 6.17323 3.12027 0
M  V30 769 O 98.7738 5.04231 3.47188 0
M  V30 770 C 96.6378 6.19961 3.81809 0
M  V30 771 H 96.6698 5.58218 4.73051 0
M  V30 772 H 97.8528 6.21726 2.02589 0
M  V30 773 H 99.3368 7.86112 2.9231 0
M  V30 774 H 97.6428 9.11627 4.55076 0
M  V30 775 H 97.4528 9.9573 2.34194 0
M  V30 776 H 95.8228 9.2792 2.67832 0
M  V30 777 H 98.4618 4.67702 4.28772 0
M  V30 778 P 100.319 7.39546 4.75277 0
M  V30 779 O 101.741 7.81777 5.05738 0
M  V30 780 O 99.9594 7.1065 3.32998 0
M  V30 781 O 99.9964 6.04542 5.56673 0
M  V30 782 C 99.8364 6.22772 7.02095 0
M  V30 783 C 100.376 4.97725 7.70406 0
M  V30 784 O 99.3204 4.13256 7.58987 0
M  V30 785 C 101.594 4.28231 7.11815 0
M  V30 786 O 102.332 3.49945 8.01648 0
M  V30 787 C 100.925 3.5063 5.96244 0
M  V30 788 O 101.724 2.36482 5.64681 0
M  V30 789 C 99.5884 3.15122 6.56374 0
M  V30 790 H 99.6204 2.13853 6.99751 0
M  V30 791 H 100.803 4.13501 5.06559 0
M  V30 792 H 102.287 5.03285 6.70911 0
M  V30 793 H 100.593 5.20877 8.75697 0
M  V30 794 H 100.403 7.11046 7.35349 0
M  V30 795 H 98.7734 6.35815 7.26986 0
M  V30 796 H 101.412 1.61644 6.13565 0
M  V30 797 P 103.27 3.65191 7.99657 0
M  V30 798 O 104.691 3.84292 8.48206 0
M  V30 799 O 102.91 4.17805 6.64342 0
M  V30 800 O 102.947 2.07613 7.95143 0
M  V30 801 C 102.786 1.44344 9.27435 0
M  V30 802 C 103.327 0.0220036 9.17197 0
M  V30 803 O 102.272 -0.626794 8.61824 0
M  V30 804 C 104.545 -0.24586 8.30336 0
M  V30 805 O 105.283 -1.39011 8.63583 0
M  V30 806 C 103.877 -0.273849 6.91158 0
M  V30 807 O 104.675 -1.05728 6.029 0
M  V30 808 C 102.539 -0.897649 7.22545 0
M  V30 809 N 101.496 -0.292839 6.41732 0
M  V30 810 C 101.665 0.950603 5.91308 0
M  V30 811 N 100.638 1.37732 5.21105 0
M  V30 812 C 99.7529 0.318109 5.26039 0
M  V30 813 C 98.4859 0.146766 4.6727 0
M  V30 814 N 97.8869 1.08519 3.89983 0
M  V30 815 N 97.9209 -1.06525 4.95887 0
M  V30 816 C 98.5229 -2.0378 5.71347 0
M  V30 817 N 99.6999 -1.92445 6.27451 0
M  V30 818 C 100.275 -0.715382 6.00353 0
M  V30 819 H 102.571 -1.98383 7.04189 0
M  V30 820 H 103.754 0.733318 6.49674 0
M  V30 821 H 105.237 0.60668 8.36503 0
M  V30 822 H 103.543 -0.362662 10.1825 0
M  V30 823 H 103.353 2.00611 10.0304 0
M  V30 824 H 101.723 1.41843 9.55327 0
M  V30 825 H 97.9869 -2.97041 5.85344 0
M  V30 826 H 102.565 1.54076 6.07465 0
M  V30 827 H 96.9569 0.901517 3.49562 0
M  V30 828 H 98.3609 1.97957 3.71669 0
M  V30 829 H 104.363 -1.95704 6.0346 0
M  V30 830 P 106.221 -1.25109 8.70152 0
M  V30 831 O 107.642 -1.35288 9.2132 0
M  V30 832 O 105.861 -0.0769065 7.84762 0
M  V30 833 O 105.898 -2.55232 7.81161 0
M  V30 834 C 105.737 -3.79979 8.58246 0
M  V30 835 C 106.278 -4.94023 7.72785 0
M  V30 836 O 105.223 -5.18666 6.91125 0
M  V30 837 C 107.496 -4.69597 6.85231 0
M  V30 838 O 108.234 -5.83832 6.51337 0
M  V30 839 C 106.828 -3.96706 5.66633 0
M  V30 840 O 107.626 -4.14896 4.5003 0
M  V30 841 C 105.49 -4.66153 5.59313 0
M  V30 842 N 104.447 -3.71582 5.24027 0
M  V30 843 C 104.616 -2.39715 5.48833 0
M  V30 844 N 103.589 -1.65863 5.12845 0
M  V30 845 C 102.704 -2.57637 4.5973 0
M  V30 846 C 101.437 -2.40278 4.01027 0
M  V30 847 N 100.872 -3.57711 3.59575 0
M  V30 848 C 101.474 -4.80324 3.70476 0
M  V30 849 N 102.651 -5.01121 4.23801 0
M  V30 850 C 103.226 -3.84757 4.66372 0
M  V30 851 H 106.705 -2.8955 5.86187 0
M  V30 852 H 108.188 -4.0121 7.36511 0
M  V30 853 H 106.494 -5.81019 8.37003 0
M  V30 854 H 106.304 -3.73517 9.52265 0
M  V30 855 H 104.674 -3.97163 8.80359 0
M  V30 856 H 105.516 -1.98804 5.94332 0
M  V30 857 H 107.314 -4.90891 4.01857 0
M  V30 858 P 109.171 -5.75688 6.64379 0
M  V30 859 O 110.593 -6.11849 7.01846 0
M  V30 860 O 108.811 -4.30744 6.56026 0
M  V30 861 O 108.848 -6.37042 5.19165 0
M  V30 862 C 108.688 -7.83578 5.16515 0
M  V30 863 C 109.228 -8.33398 3.83019 0
M  V30 864 O 108.172 -8.10074 3.01034 0
M  V30 865 C 110.446 -7.65514 3.2257 0
M  V30 866 O 111.184 -8.4329 2.32297 0
M  V30 867 C 109.777 -6.40075 2.62207 0
M  V30 868 O 110.576 -5.92589 1.53712 0
M  V30 869 C 108.44 -6.9454 2.18503 0
M  V30 870 H 108.472 -7.23063 1.12091 0
M  V30 871 H 109.655 -5.6025 3.37201 0
M  V30 872 H 111.139 -7.35707 4.02681 0
M  V30 873 H 109.445 -9.40912 3.9095 0
M  V30 874 H 109.255 -8.29056 5.99158 0
M  V30 875 H 107.625 -8.10073 5.25882 0
M  V30 876 H 110.264 -6.30324 0.726794 0
M  V30 877 P 112.122 -8.4349 2.47671 0
M  V30 878 O 113.544 -8.94167 2.5964 0
M  V30 879 O 111.762 -7.1704 3.19006 0
M  V30 880 O 111.799 -8.16596 0.923387 0
M  V30 881 C 111.639 -9.38437 0.108857 0
M  V30 882 C 112.179 -9.08175 -1.28353 0
M  V30 883 O 111.123 -8.44229 -1.84713 0
M  V30 884 C 113.397 -8.18386 -1.42505 0
M  V30 885 O 114.135 -8.3501 -2.60497 0
M  V30 886 C 112.728 -6.80225 -1.25468 0
M  V30 887 O 113.527 -5.81621 -1.91066 0
M  V30 888 C 111.391 -7.02416 -1.9168 0
M  V30 889 H 111.423 -6.6888 -2.96621 0
M  V30 890 H 112.606 -6.53617 -0.192223 0
M  V30 891 H 114.09 -8.36622 -0.589963 0
M  V30 892 H 112.396 -10.0291 -1.79807 0
M  V30 893 H 112.206 -10.2138 0.558219 0
M  V30 894 H 110.576 -9.6579 0.0444202 0
M  V30 895 H 113.215 -5.69556 -2.79637 0
M  V30 896 P 115.072 -8.4349 -2.47671 0
M  V30 897 O 116.494 -8.92593 -2.65 0
M  V30 898 O 114.712 -7.7568 -1.19296 0
M  V30 899 O 114.749 -7.36886 -3.63805 0
M  V30 900 C 114.589 -7.95349 -4.982 0
M  V30 901 C 115.129 -6.94612 -5.98974 0
M  V30 902 O 114.073 -6.10347 -6.11815 0
M  V30 903 C 116.347 -6.11426 -5.62335 0
M  V30 904 O 117.085 -5.6162 -6.70584 0
M  V30 905 C 115.678 -5.04409 -4.73308 0
M  V30 906 O 116.477 -3.85992 -4.75183 0
M  V30 907 C 114.341 -4.8728 -5.41006 0
M  V30 908 H 114.373 -4.02333 -6.11157 0
M  V30 909 H 115.556 -5.39466 -3.69543 0
M  V30 910 H 117.04 -6.71916 -5.01943 0
M  V30 911 H 115.346 -7.4649 -6.93477 0
M  V30 912 H 115.156 -8.89416 -5.05237 0
M  V30 913 H 113.526 -8.14876 -5.18409 0
M  V30 914 H 116.165 -3.27957 -5.4317 0
M  V30 915 P 118.023 -5.75688 -6.64379 0
M  V30 916 O 119.444 -6.07692 -7.0558 0
M  V30 917 O 117.663 -5.88047 -5.19722 0
M  V30 918 O 117.7 -4.2322 -7.04443 0
M  V30 919 C 117.539 -3.99785 -8.49201 0
M  V30 920 C 118.08 -2.60516 -8.79425 0
M  V30 921 O 117.025 -1.82663 -8.44573 0
M  V30 922 C 119.298 -2.10343 -8.03628 0
M  V30 923 O 120.036 -1.09919 -8.67766 0
M  V30 924 C 118.63 -1.68446 -6.70876 0
M  V30 925 O 119.428 -0.684109 -6.08265 0
M  V30 926 C 117.292 -1.17436 -7.18567 0
M  V30 927 N 116.249 -1.52699 -6.23988 0
M  V30 928 C 116.418 -2.578 -5.40574 0
M  V30 929 N 115.391 -2.78966 -4.61193 0
M  V30 930 C 114.506 -1.78725 -4.95769 0
M  V30 931 C 113.239 -1.45727 -4.44207 0
M  V30 932 N 112.64 -2.13994 -3.43613 0
M  V30 933 N 112.674 -0.374977 -5.05812 0
M  V30 934 C 113.276 0.345585 -6.05615 0
M  V30 935 N 114.453 0.0787651 -6.56253 0
M  V30 936 C 115.028 -1.00499 -5.96189 0
M  V30 937 H 117.324 -0.0804622 -7.31556 0
M  V30 938 H 118.507 -2.53396 -6.02698 0
M  V30 939 H 119.99 -2.93881 -7.85526 0
M  V30 940 H 118.296 -2.52078 -9.87225 0
M  V30 941 H 118.106 -4.75072 -9.05887 0
M  V30 942 H 116.476 -4.05244 -8.76668 0
M  V30 943 H 112.74 1.20098 -6.4532 0
M  V30 944 H 117.318 -3.18977 -5.3945 0
M  V30 945 H 111.71 -1.84983 -3.10004 0
M  V30 946 H 113.114 -2.9465 -3.00843 0
M  V30 947 H 119.116 0.177619 -6.34151 0
M  V30 948 P 120.973 -1.25109 -8.70152 0
M  V30 949 O 122.374 -1.3516 -9.26897 0
M  V30 950 O 120.595 -2.18141 -7.59181 0
M  V30 951 O 120.65 0.248118 -8.21325 0
M  V30 952 C 120.49 1.22779 -9.30434 0
M  V30 953 C 121.03 2.56265 -8.80568 0
M  V30 954 O 119.974 3.02944 -8.09255 0
M  V30 955 C 122.247 2.57523 -7.89775 0
M  V30 956 O 122.986 3.7668 -7.89438 0
M  V30 957 C 121.58 2.20997 -6.55446 0
M  V30 958 O 122.378 2.71851 -5.48419 0
M  V30 959 C 120.242 2.89693 -6.67988 0
M  V30 960 N 119.199 2.08895 -6.07487 0
M  V30 961 C 118.164 2.72974 -5.43836 0
M  V30 962 O 118.203 3.97779 -5.34036 0
M  V30 963 N 117.152 2.0005 -4.91983 0
M  V30 964 C 117.2 0.66501 -5.00098 0
M  V30 965 C 118.296 -0.0100979 -5.61099 0
M  V30 966 C 119.262 0.74189 -6.14236 0
M  V30 967 H 120.274 3.8874 -6.19774 0
M  V30 968 H 121.457 1.12673 -6.44018 0
M  V30 969 H 122.941 1.783 -8.19631 0
M  V30 970 H 121.247 3.21673 -9.66791 0
M  V30 971 H 121.056 0.901032 -10.1892 0
M  V30 972 H 119.426 1.33036 -9.56493 0
M  V30 973 H 118.344 -1.09591 -5.64358 0
M  V30 974 H 120.108 0.260263 -6.6359 0
M  V30 975 H 122.162 3.62759 -5.33442 0
M  V30 976 P 123.924 3.65191 -7.99657 0
M  V30 977 O 125.346 3.89332 -8.45794 0
M  V30 978 O 123.564 2.28472 -7.50807 0
M  V30 979 O 123.601 4.64972 -6.77611 0
M  V30 980 C 123.441 6.06319 -7.16352 0
M  V30 981 C 123.981 6.91731 -6.02299 0
M  V30 982 O 122.925 6.92449 -5.17064 0
M  V30 983 C 125.199 6.43627 -5.25174 0
M  V30 984 O 125.937 7.43686 -4.60469 0
M  V30 985 C 124.53 5.40275 -4.31916 0
M  V30 986 O 125.329 5.25279 -3.14438 0
M  V30 987 C 123.193 6.04847 -4.05327 0
M  V30 988 H 123.225 6.62195 -3.11261 0
M  V30 989 H 124.408 4.42556 -4.81383 0
M  V30 990 H 125.892 5.92458 -5.93643 0
M  V30 991 H 124.198 7.92655 -6.402 0
M  V30 992 H 124.008 6.26671 -8.0846 0
M  V30 993 H 122.378 6.29101 -7.32804 0
M  V30 994 H 125.017 5.84315 -2.47318 0
M  V30 995 P 126.875 7.39546 -4.75277 0
M  V30 996 O 128.296 7.84882 -5.01092 0
M  V30 997 O 126.515 5.9812 -5.08098 0
M  V30 998 O 126.552 7.57503 -3.1866 0
M  V30 999 C 126.391 8.97452 -2.74862 0
M  V30 1000 C 126.932 9.07548 -1.32709 0
M  V30 1001 O 125.877 8.61972 -0.606089 0
M  V30 1002 C 128.15 8.25383 -0.938334 0
M  V30 1003 O 128.888 8.74577 0.146954 0
M  V30 1004 C 127.482 6.8802 -0.712559 0
M  V30 1005 O 128.28 6.1181 0.188505 0
M  V30 1006 C 126.144 7.27966 -0.139777 0
M  V30 1007 N 125.101 6.39368 -0.623421 0
M  V30 1008 C 125.27 5.71761 -1.78245 0
M  V30 1009 N 124.243 4.962 -2.10491 0
M  V30 1010 C 123.358 5.16158 -1.0635 0
M  V30 1011 C 122.091 4.60425 -0.810266 0
M  V30 1012 N 121.526 5.06 0.348685 0
M  V30 1013 C 122.128 5.94532 1.20395 0
M  V30 1014 N 123.305 6.48452 1.01191 0
M  V30 1015 C 123.88 6.04423 -0.146291 0
M  V30 1016 H 127.359 6.32625 -1.65044 0
M  V30 1017 H 128.842 8.19355 -1.79097 0
M  V30 1018 H 127.148 10.1305 -1.09016 0
M  V30 1019 H 126.958 9.64276 -3.41316 0
M  V30 1020 H 125.328 9.25417 -2.76357 0
M  V30 1021 H 126.17 5.79354 -2.38959 0
M  V30 1022 H 127.968 6.25169 1.0783 0
M  V30 1023 P 129.825 8.791 -1.02308e-13 0
M  V30 1024 O 131.247 9.31296 0.027939 0
M  V30 1025 O 129.465 7.77869 -1.04071 0
M  V30 1026 O 129.502 8.09533 1.41463 0
M  V30 1027 C 129.342 9.0349 2.53943 0
M  V30 1028 C 129.882 8.35135 3.78975 0
M  V30 1029 O 128.827 7.57992 4.15078 0
M  V30 1030 C 131.1 7.45087 3.67298 0
M  V30 1031 O 131.838 7.27796 4.85194 0
M  V30 1032 C 130.432 6.17323 3.12027 0
M  V30 1033 O 131.23 5.04149 3.47132 0
M  V30 1034 C 129.094 6.19961 3.81809 0
M  V30 1035 N 128.051 5.71575 2.93223 0
M  V30 1036 C 128.113 5.97133 1.62693 0
M  V30 1037 N 127.068 5.44066 0.984414 0
M  V30 1038 C 126.334 4.87093 1.93987 0
M  V30 1039 C 125.028 4.26449 1.8738 0
M  V30 1040 O 124.295 4.1089 0.884377 0
M  V30 1041 N 124.598 3.82483 3.08036 0
M  V30 1042 C 125.347 3.95124 4.27727 0
M  V30 1043 N 124.75 3.4084 5.39089 0
M  V30 1044 N 126.5 4.55264 4.3706 0
M  V30 1045 C 126.957 5.00861 3.18217 0
M  V30 1046 H 129.126 5.58218 4.73051 0
M  V30 1047 H 130.309 6.21631 2.02558 0
M  V30 1048 H 131.794 7.85819 2.93096 0
M  V30 1049 H 130.099 9.11627 4.55076 0
M  V30 1050 H 129.909 9.9573 2.34194 0
M  V30 1051 H 128.278 9.2792 2.67832 0
M  V30 1052 H 123.702 3.38323 3.1329 0
M  V30 1053 H 128.909 6.53891 1.14265 0
M  V30 1054 H 123.839 2.93852 5.30559 0
M  V30 1055 H 125.215 3.47631 6.30632 0
M  V30 1056 H 130.919 4.67628 4.28704 0
M  V30 1057 P 132.776 7.39546 4.75277 0
M  V30 1058 O 134.198 7.81777 5.05738 0
M  V30 1059 O 132.416 7.1065 3.32998 0
M  V30 1060 O 132.453 6.04542 5.56673 0
M  V30 1061 C 132.293 6.22772 7.02095 0
M  V30 1062 C 132.833 4.97725 7.70406 0
M  V30 1063 O 131.777 4.13256 7.58987 0
M  V30 1064 C 134.051 4.28231 7.11815 0
M  V30 1065 O 134.789 3.49945 8.01648 0
M  V30 1066 C 133.382 3.5063 5.96244 0
M  V30 1067 O 134.181 2.36482 5.64681 0
M  V30 1068 C 132.045 3.15122 6.56374 0
M  V30 1069 H 132.077 2.13853 6.99751 0
M  V30 1070 H 133.26 4.13501 5.06559 0
M  V30 1071 H 134.744 5.03285 6.70911 0
M  V30 1072 H 133.05 5.20877 8.75697 0
M  V30 1073 H 132.86 7.11046 7.35349 0
M  V30 1074 H 131.23 6.35815 7.26986 0
M  V30 1075 H 133.869 1.61644 6.13565 0
M  V30 1076 P 135.726 3.65191 7.99657 0
M  V30 1077 O 137.148 3.8425 8.48115 0
M  V30 1078 O 135.366 4.17805 6.64342 0
M  V30 1079 O 135.403 2.07613 7.95143 0
M  V30 1080 C 135.243 1.44328 9.27336 0
M  V30 1081 C 135.783 0.0220036 9.17197 0
M  V30 1082 O 134.727 -0.626867 8.61923 0
M  V30 1083 C 137.001 -0.24586 8.30336 0
M  V30 1084 O 137.739 -1.39011 8.63583 0
M  V30 1085 C 136.332 -0.273849 6.91158 0
M  V30 1086 O 137.131 -1.06348 6.02892 0
M  V30 1087 C 134.995 -0.897649 7.22545 0
M  V30 1088 H 135.027 -1.9841 7.04286 0
M  V30 1089 H 136.21 0.739928 6.497 0
M  V30 1090 H 137.694 0.60668 8.36503 0
M  V30 1091 H 136 -0.352479 10.1829 0
M  V30 1092 H 135.81 2.00611 10.0304 0
M  V30 1093 H 134.18 1.41843 9.55327 0
M  V30 1094 H 136.819 -1.95734 6.03555 0
M  V30 1095 P 138.677 -1.25109 8.70152 0
M  V30 1096 O 140.099 -1.35274 9.21221 0
M  V30 1097 O 138.317 -0.0769065 7.84762 0
M  V30 1098 O 138.354 -2.55232 7.81161 0
M  V30 1099 C 138.194 -3.79939 8.58154 0
M  V30 1100 C 138.734 -4.94023 7.72785 0
M  V30 1101 O 137.678 -5.18726 6.91205 0
M  V30 1102 C 139.952 -4.69597 6.85231 0
M  V30 1103 O 140.69 -5.83832 6.51337 0
M  V30 1104 C 139.283 -3.96706 5.66633 0
M  V30 1105 O 140.082 -4.15414 4.49689 0
M  V30 1106 C 137.946 -4.66153 5.59313 0
M  V30 1107 H 137.978 -5.47679 4.85214 0
M  V30 1108 H 139.161 -2.89008 5.86566 0
M  V30 1109 H 140.645 -4.0121 7.36511 0
M  V30 1110 H 138.951 -5.80182 8.37584 0
M  V30 1111 H 138.761 -3.73517 9.52265 0
M  V30 1112 H 137.131 -3.97163 8.80359 0
M  V30 1113 H 139.77 -4.90969 4.01921 0
M  V30 1114 P 141.627 -5.75688 6.64379 0
M  V30 1115 O 143.049 -6.11849 7.01846 0
M  V30 1116 O 141.267 -4.30744 6.56026 0
M  V30 1117 O 141.304 -6.37042 5.19165 0
M  V30 1118 C 141.144 -7.83578 5.16515 0
M  V30 1119 C 141.684 -8.33398 3.83019 0
M  V30 1120 O 140.628 -8.10074 3.01034 0
M  V30 1121 C 142.902 -7.65514 3.2257 0
M  V30 1122 O 143.64 -8.4329 2.32297 0
M  V30 1123 C 142.233 -6.40075 2.62207 0
M  V30 1124 O 143.032 -5.92589 1.53712 0
M  V30 1125 C 140.896 -6.9454 2.18503 0
M  V30 1126 H 140.928 -7.23063 1.12091 0
M  V30 1127 H 142.111 -5.6025 3.37201 0
M  V30 1128 H 143.595 -7.35707 4.02681 0
M  V30 1129 H 141.901 -9.40912 3.9095 0
M  V30 1130 H 141.711 -8.29056 5.99158 0
M  V30 1131 H 140.081 -8.10073 5.25882 0
M  V30 1132 H 142.72 -6.30324 0.726794 0
M  V30 1133 P 144.578 -8.4349 2.47671 0
M  V30 1134 O 146 -8.94167 2.5964 0
M  V30 1135 O 144.218 -7.1704 3.19006 0
M  V30 1136 O 144.255 -8.16596 0.923387 0
M  V30 1137 C 144.095 -9.38437 0.108857 0
M  V30 1138 C 144.635 -9.08175 -1.28353 0
M  V30 1139 O 143.579 -8.44229 -1.84713 0
M  V30 1140 C 145.853 -8.18386 -1.42505 0
M  V30 1141 O 146.591 -8.3501 -2.60497 0
M  V30 1142 C 145.184 -6.80225 -1.25468 0
M  V30 1143 O 145.983 -5.81621 -1.91066 0
M  V30 1144 C 143.847 -7.02416 -1.9168 0
M  V30 1145 H 143.879 -6.6888 -2.96621 0
M  V30 1146 H 145.062 -6.53617 -0.192223 0
M  V30 1147 H 146.546 -8.36622 -0.589963 0
M  V30 1148 H 144.852 -10.0291 -1.79807 0
M  V30 1149 H 144.662 -10.2138 0.558219 0
M  V30 1150 H 143.032 -9.6579 0.0444202 0
M  V30 1151 H 145.671 -5.69556 -2.79637 0
M  V30 1152 P 147.528 -8.4349 -2.47671 0
M  V30 1153 O 148.95 -8.92593 -2.65 0
M  V30 1154 O 147.168 -7.7568 -1.19296 0
M  V30 1155 O 147.205 -7.36886 -3.63805 0
M  V30 1156 C 147.045 -7.95349 -4.982 0
M  V30 1157 C 147.585 -6.94612 -5.98974 0
M  V30 1158 O 146.529 -6.10347 -6.11815 0
M  V30 1159 C 148.803 -6.11426 -5.62335 0
M  V30 1160 O 149.541 -5.6162 -6.70584 0
M  V30 1161 C 148.134 -5.04409 -4.73308 0
M  V30 1162 O 148.933 -3.85992 -4.75183 0
M  V30 1163 C 146.797 -4.8728 -5.41006 0
M  V30 1164 H 146.829 -4.02333 -6.11157 0
M  V30 1165 H 148.012 -5.39466 -3.69543 0
M  V30 1166 H 149.496 -6.71916 -5.01943 0
M  V30 1167 H 147.802 -7.4649 -6.93477 0
M  V30 1168 H 147.612 -8.89416 -5.05237 0
M  V30 1169 H 145.982 -8.14876 -5.18409 0
M  V30 1170 H 148.621 -3.27957 -5.4317 0
M  V30 1171 P 150.479 -5.75688 -6.64379 0
M  V30 1172 O 151.901 -6.07627 -7.05504 0
M  V30 1173 O 150.119 -5.88047 -5.19722 0
M  V30 1174 O 150.156 -4.2322 -7.04443 0
M  V30 1175 C 149.996 -3.99743 -8.4911 0
M  V30 1176 C 150.536 -2.60516 -8.79425 0
M  V30 1177 O 149.48 -1.82684 -8.4467 0
M  V30 1178 C 151.754 -2.10343 -8.03628 0
M  V30 1179 O 152.492 -1.09919 -8.67766 0
M  V30 1180 C 151.085 -1.68446 -6.70876 0
M  V30 1181 O 151.884 -0.678137 -6.08433 0
M  V30 1182 C 149.748 -1.17436 -7.18567 0
M  V30 1183 H 149.78 -0.0804732 -7.31656 0
M  V30 1184 H 150.963 -2.54037 -6.02537 0
M  V30 1185 H 152.447 -2.93881 -7.85526 0
M  V30 1186 H 150.753 -2.53065 -9.86973 0
M  V30 1187 H 150.563 -4.75072 -9.05887 0
M  V30 1188 H 148.933 -4.05244 -8.76668 0
M  V30 1189 H 151.572 0.177647 -6.34251 0
M  V30 1190 P 153.43 -1.25109 -8.70152 0
M  V30 1191 O 154.852 -1.29772 -9.22214 0
M  V30 1192 O 153.07 -2.13714 -7.55141 0
M  V30 1193 O 153.107 0.248149 -8.21425 0
M  V30 1194 C 152.947 1.22779 -9.30434 0
M  V30 1195 C 153.487 2.56265 -8.80568 0
M  V30 1196 O 152.432 3.02979 -8.09349 0
M  V30 1197 C 154.705 2.57523 -7.89775 0
M  V30 1198 O 155.443 3.7668 -7.89438 0
M  V30 1199 C 154.037 2.20997 -6.55446 0
M  V30 1200 O 154.835 2.71851 -5.48419 0
M  V30 1201 C 152.699 2.89693 -6.67988 0
M  V30 1202 N 151.656 2.08895 -6.07487 0
M  V30 1203 C 151.718 0.760559 -6.14209 0
M  V30 1204 N 150.673 0.200108 -5.52538 0
M  V30 1205 C 149.939 1.22692 -5.09742 0
M  V30 1206 C 148.633 1.24782 -4.48775 0
M  V30 1207 O 147.9 0.290617 -4.19294 0
M  V30 1208 N 148.203 2.50468 -4.22428 0
M  V30 1209 C 148.952 3.67142 -4.51974 0
M  V30 1210 N 148.355 4.85096 -4.14091 0
M  V30 1211 N 150.105 3.67821 -5.12831 0
M  V30 1212 C 150.562 2.43698 -5.4105 0
M  V30 1213 H 152.731 3.88793 -6.19859 0
M  V30 1214 H 153.914 1.12029 -6.4413 0
M  V30 1215 H 155.399 1.78279 -8.19533 0
M  V30 1216 H 153.704 3.20706 -9.67112 0
M  V30 1217 H 153.514 0.901032 -10.1892 0
M  V30 1218 H 151.883 1.33049 -9.56592 0
M  V30 1219 H 147.307 2.61953 -3.79465 0
M  V30 1220 H 152.514 0.200439 -6.63497 0
M  V30 1221 H 147.444 4.8334 -3.66367 0
M  V30 1222 H 148.82 5.7474 -4.33841 0
M  V30 1223 H 154.524 3.5779 -5.23879 0
M  V30 1224 P 156.38 3.65191 -7.99657 0
M  V30 1225 O 157.802 3.89332 -8.45794 0
M  V30 1226 O 156.02 2.28472 -7.50807 0
M  V30 1227 O 156.057 4.64972 -6.77611 0
M  V30 1228 C 155.897 6.06319 -7.16352 0
M  V30 1229 C 156.437 6.91731 -6.02299 0
M  V30 1230 O 155.381 6.92449 -5.17064 0
M  V30 1231 C 157.655 6.43627 -5.25174 0
M  V30 1232 O 158.393 7.43686 -4.60469 0
M  V30 1233 C 156.986 5.40275 -4.31916 0
M  V30 1234 O 157.785 5.25279 -3.14438 0
M  V30 1235 C 155.649 6.04847 -4.05327 0
M  V30 1236 H 155.681 6.62195 -3.11261 0
M  V30 1237 H 156.864 4.42556 -4.81383 0
M  V30 1238 H 158.348 5.92458 -5.93643 0
M  V30 1239 H 156.654 7.92655 -6.402 0
M  V30 1240 H 156.464 6.26671 -8.0846 0
M  V30 1241 H 154.834 6.29101 -7.32804 0
M  V30 1242 H 157.473 5.84315 -2.47318 0
M  V30 1243 P 159.331 7.39546 -4.75277 0
M  V30 1244 O 160.753 7.84798 -5.01039 0
M  V30 1245 O 158.971 5.9812 -5.08098 0
M  V30 1246 O 159.008 7.57503 -3.1866 0
M  V30 1247 C 158.848 8.97357 -2.74833 0
M  V30 1248 C 159.388 9.07548 -1.32709 0
M  V30 1249 O 158.332 8.62072 -0.606159 0
M  V30 1250 C 160.606 8.25383 -0.938334 0
M  V30 1251 O 161.344 8.74577 0.146954 0
M  V30 1252 C 159.937 6.8802 -0.712559 0
M  V30 1253 O 160.736 6.1189 0.194655 0
M  V30 1254 C 158.6 7.27966 -0.139777 0
M  V30 1255 H 158.632 7.25354 0.961601 0
M  V30 1256 H 159.815 6.32557 -1.65702 0
M  V30 1257 H 161.299 8.19355 -1.79097 0
M  V30 1258 H 159.605 10.1294 -1.10029 0
M  V30 1259 H 159.415 9.64276 -3.41316 0
M  V30 1260 H 157.785 9.25417 -2.76357 0
M  V30 1261 H 160.424 6.25267 1.07847 0
M  V30 1262 P 162.281 8.791 -1.35693e-13 0
M  V30 1263 O 163.703 9.31096 0.027933 0
M  V30 1264 O 161.921 7.77869 -1.04071 0
M  V30 1265 O 161.958 8.09533 1.41463 0
M  V30 1266 C 161.798 9.0349 2.53943 0
M  V30 1267 C 162.338 8.35226 3.79016 0
M  V30 1268 O 161.282 7.57992 4.15078 0
M  V30 1269 C 163.556 7.45087 3.67298 0
M  V30 1270 O 164.294 7.27796 4.85194 0
M  V30 1271 C 162.887 6.17323 3.12027 0
M  V30 1272 O 163.686 5.04231 3.47188 0
M  V30 1273 C 161.55 6.19961 3.81809 0
M  V30 1274 H 161.582 5.58218 4.73051 0
M  V30 1275 H 162.765 6.21726 2.02589 0
M  V30 1276 H 164.249 7.86112 2.9231 0
M  V30 1277 H 162.555 9.11627 4.55076 0
M  V30 1278 H 162.365 9.9573 2.34194 0
M  V30 1279 H 160.735 9.2792 2.67832 0
M  V30 1280 H 163.374 4.67702 4.28772 0
M  V30 1281 P 165.232 7.39546 4.75277 0
M  V30 1282 O 166.654 7.81777 5.05738 0
M  V30 1283 O 164.872 7.1065 3.32998 0
M  V30 1284 O 164.909 6.04542 5.56673 0
M  V30 1285 C 164.749 6.22772 7.02095 0
M  V30 1286 C 165.289 4.97725 7.70406 0
M  V30 1287 O 164.233 4.13256 7.58987 0
M  V30 1288 C 166.507 4.28231 7.11815 0
M  V30 1289 O 167.245 3.49945 8.01648 0
M  V30 1290 C 165.838 3.5063 5.96244 0
M  V30 1291 O 166.637 2.36482 5.64681 0
M  V30 1292 C 164.501 3.15122 6.56374 0
M  V30 1293 H 164.533 2.13853 6.99751 0
M  V30 1294 H 165.716 4.13501 5.06559 0
M  V30 1295 H 167.2 5.03285 6.70911 0
M  V30 1296 H 165.506 5.20877 8.75697 0
M  V30 1297 H 165.316 7.11046 7.35349 0
M  V30 1298 H 163.686 6.35815 7.26986 0
M  V30 1299 H 166.325 1.61644 6.13565 0
M  V30 1300 P 168.182 3.65191 7.99657 0
M  V30 1301 O 169.604 3.8425 8.48115 0
M  V30 1302 O 167.822 4.17805 6.64342 0
M  V30 1303 O 167.859 2.07613 7.95143 0
M  V30 1304 C 167.699 1.44328 9.27336 0
M  V30 1305 C 168.239 0.0220036 9.17197 0
M  V30 1306 O 167.183 -0.626867 8.61923 0
M  V30 1307 C 169.457 -0.24586 8.30336 0
M  V30 1308 O 170.195 -1.39011 8.63583 0
M  V30 1309 C 168.788 -0.273849 6.91158 0
M  V30 1310 O 169.587 -1.06348 6.02892 0
M  V30 1311 C 167.451 -0.897649 7.22545 0
M  V30 1312 H 167.483 -1.9841 7.04286 0
M  V30 1313 H 168.666 0.739928 6.497 0
M  V30 1314 H 170.15 0.60668 8.36503 0
M  V30 1315 H 168.456 -0.352479 10.1829 0
M  V30 1316 H 168.266 2.00611 10.0304 0
M  V30 1317 H 166.636 1.41843 9.55327 0
M  V30 1318 H 169.275 -1.95734 6.03555 0
M  V30 1319 P 171.133 -1.25109 8.70152 0
M  V30 1320 O 172.555 -1.35274 9.21221 0
M  V30 1321 O 170.773 -0.0769065 7.84762 0
M  V30 1322 O 170.81 -2.55232 7.81161 0
M  V30 1323 C 170.65 -3.79939 8.58154 0
M  V30 1324 C 171.19 -4.94023 7.72785 0
M  V30 1325 O 170.134 -5.18726 6.91205 0
M  V30 1326 C 172.408 -4.69597 6.85231 0
M  V30 1327 O 173.146 -5.83832 6.51337 0
M  V30 1328 C 171.739 -3.96706 5.66633 0
M  V30 1329 O 172.538 -4.15414 4.49689 0
M  V30 1330 C 170.402 -4.66153 5.59313 0
M  V30 1331 H 170.434 -5.47679 4.85214 0
M  V30 1332 H 171.617 -2.89008 5.86566 0
M  V30 1333 H 173.101 -4.0121 7.36511 0
M  V30 1334 H 171.407 -5.80182 8.37584 0
M  V30 1335 H 171.217 -3.73517 9.52265 0
M  V30 1336 H 169.587 -3.97163 8.80359 0
M  V30 1337 H 172.226 -4.90969 4.01921 0
M  V30 1338 P 174.084 -5.75688 6.64379 0
M  V30 1339 O 175.506 -6.11849 7.01846 0
M  V30 1340 O 173.724 -4.30744 6.56026 0
M  V30 1341 O 173.761 -6.37042 5.19165 0
M  V30 1342 C 173.601 -7.83578 5.16515 0
M  V30 1343 C 174.141 -8.33398 3.83019 0
M  V30 1344 O 173.085 -8.10074 3.01034 0
M  V30 1345 C 175.359 -7.65514 3.2257 0
M  V30 1346 O 176.097 -8.4329 2.32297 0
M  V30 1347 C 174.69 -6.40075 2.62207 0
M  V30 1348 O 175.489 -5.92589 1.53712 0
M  V30 1349 C 173.353 -6.9454 2.18503 0
M  V30 1350 H 173.385 -7.23063 1.12091 0
M  V30 1351 H 174.568 -5.6025 3.37201 0
M  V30 1352 H 176.052 -7.35707 4.02681 0
M  V30 1353 H 174.358 -9.40912 3.9095 0
M  V30 1354 H 174.168 -8.29056 5.99158 0
M  V30 1355 H 172.538 -8.10073 5.25882 0
M  V30 1356 H 175.177 -6.30324 0.726794 0
M  V30 1357 P 177.034 -8.4349 2.47671 0
M  V30 1358 O 178.456 -8.94167 2.5964 0
M  V30 1359 O 176.674 -7.1704 3.19006 0
M  V30 1360 O 176.711 -8.16596 0.923387 0
M  V30 1361 C 176.551 -9.38437 0.108857 0
M  V30 1362 C 177.091 -9.08175 -1.28353 0
M  V30 1363 O 176.035 -8.44229 -1.84713 0
M  V30 1364 C 178.309 -8.18386 -1.42505 0
M  V30 1365 O 179.047 -8.3501 -2.60497 0
M  V30 1366 C 177.64 -6.80225 -1.25468 0
M  V30 1367 O 178.439 -5.81621 -1.91066 0
M  V30 1368 C 176.303 -7.02416 -1.9168 0
M  V30 1369 H 176.335 -6.6888 -2.96621 0
M  V30 1370 H 177.518 -6.53617 -0.192223 0
M  V30 1371 H 179.002 -8.36622 -0.589963 0
M  V30 1372 H 177.308 -10.0291 -1.79807 0
M  V30 1373 H 177.118 -10.2138 0.558219 0
M  V30 1374 H 175.488 -9.6579 0.0444202 0
M  V30 1375 H 178.127 -5.69556 -2.79637 0
M  V30 1376 P 179.985 -8.4349 -2.47671 0
M  V30 1377 O 181.407 -8.92593 -2.65 0
M  V30 1378 O 179.625 -7.7568 -1.19296 0
M  V30 1379 O 179.662 -7.36886 -3.63805 0
M  V30 1380 C 179.502 -7.95349 -4.982 0
M  V30 1381 C 180.042 -6.94612 -5.98974 0
M  V30 1382 O 178.986 -6.10347 -6.11815 0
M  V30 1383 C 181.26 -6.11426 -5.62335 0
M  V30 1384 O 181.998 -5.6162 -6.70584 0
M  V30 1385 C 180.591 -5.04409 -4.73308 0
M  V30 1386 O 181.39 -3.85992 -4.75183 0
M  V30 1387 C 179.254 -4.8728 -5.41006 0
M  V30 1388 H 179.286 -4.02333 -6.11157 0
M  V30 1389 H 180.469 -5.39466 -3.69543 0
M  V30 1390 H 181.953 -6.71916 -5.01943 0
M  V30 1391 H 180.259 -7.4649 -6.93477 0
M  V30 1392 H 180.069 -8.89416 -5.05237 0
M  V30 1393 H 178.439 -8.14876 -5.18409 0
M  V30 1394 H 181.078 -3.27957 -5.4317 0
M  V30 1395 P 182.935 -5.75688 -6.64379 0
M  V30 1396 O 184.357 -6.07627 -7.05504 0
M  V30 1397 O 182.575 -5.88047 -5.19722 0
M  V30 1398 O 182.612 -4.2322 -7.04443 0
M  V30 1399 C 182.452 -3.99743 -8.4911 0
M  V30 1400 C 182.992 -2.60516 -8.79425 0
M  V30 1401 O 181.936 -1.82684 -8.4467 0
M  V30 1402 C 184.21 -2.10343 -8.03628 0
M  V30 1403 O 184.948 -1.09919 -8.67766 0
M  V30 1404 C 183.541 -1.68446 -6.70876 0
M  V30 1405 O 184.34 -0.678137 -6.08433 0
M  V30 1406 C 182.204 -1.17436 -7.18567 0
M  V30 1407 H 182.236 -0.0804732 -7.31656 0
M  V30 1408 H 183.419 -2.54037 -6.02537 0
M  V30 1409 H 184.903 -2.93881 -7.85526 0
M  V30 1410 H 183.209 -2.53065 -9.86973 0
M  V30 1411 H 183.019 -4.75072 -9.05887 0
M  V30 1412 H 181.389 -4.05244 -8.76668 0
M  V30 1413 H 184.028 0.177647 -6.34251 0
M  V30 1414 P 185.886 -1.25109 -8.70152 0
M  V30 1415 O 187.307 -1.29758 -9.22115 0
M  V30 1416 O 185.526 -2.13714 -7.55141 0
M  V30 1417 O 185.563 0.248149 -8.21425 0
M  V30 1418 C 185.402 1.22792 -9.30533 0
M  V30 1419 C 185.943 2.56293 -8.80664 0
M  V30 1420 O 184.888 3.02944 -8.09255 0
M  V30 1421 C 187.161 2.57523 -7.89775 0
M  V30 1422 O 187.899 3.7668 -7.89438 0
M  V30 1423 C 186.493 2.20997 -6.55446 0
M  V30 1424 O 187.291 2.71302 -5.48691 0
M  V30 1425 C 185.155 2.89693 -6.67988 0
M  V30 1426 N 184.112 2.08895 -6.07487 0
M  V30 1427 C 184.281 0.753809 -5.94137 0
M  V30 1428 N 183.254 0.146592 -5.38801 0
M  V30 1429 C 182.369 1.1768 -5.13693 0
M  V30 1430 C 181.102 1.17563 -4.52477 0
M  V30 1431 N 180.537 2.41918 -4.45789 0
M  V30 1432 C 181.139 3.56493 -4.90792 0
M  V30 1433 N 182.316 3.61423 -5.47817 0
M  V30 1434 C 182.891 2.37779 -5.5588 0
M  V30 1435 H 186.37 1.12673 -6.44018 0
M  V30 1436 H 187.853 1.7746 -8.19711 0
M  V30 1437 H 186.159 3.21673 -9.66791 0
M  V30 1438 H 185.969 0.901032 -10.1892 0
M  V30 1439 H 184.339 1.33049 -9.56592 0
M  V30 1440 H 185.181 0.233081 -6.26266 0
M  V30 1441 H 186.979 3.5779 -5.23879 0
M  V30 1442 P 188.836 3.65191 -7.99657 0
M  V30 1443 O 190.257 3.89374 -8.45885 0
M  V30 1444 O 188.476 2.28472 -7.50807 0
M  V30 1445 O 188.513 4.64972 -6.77611 0
M  V30 1446 C 188.352 6.06383 -7.16428 0
M  V30 1447 C 188.893 6.91731 -6.02299 0
M  V30 1448 O 187.838 6.92369 -5.17005 0
M  V30 1449 C 190.111 6.43627 -5.25174 0
M  V30 1450 O 190.849 7.43686 -4.60469 0
M  V30 1451 C 189.443 5.40275 -4.31916 0
M  V30 1452 O 190.241 5.24878 -3.14911 0
M  V30 1453 C 188.105 6.04847 -4.05327 0
M  V30 1454 N 187.062 5.04166 -3.98114 0
M  V30 1455 C 187.231 3.84629 -4.59066 0
M  V30 1456 N 186.204 3.0363 -4.45343 0
M  V30 1457 C 185.319 3.76722 -3.68523 0
M  V30 1458 C 184.052 3.43528 -3.17088 0
M  V30 1459 N 183.453 2.23665 -3.37397 0
M  V30 1460 N 183.487 4.44526 -2.44231 0
M  V30 1461 C 184.089 5.65243 -2.20146 0
M  V30 1462 N 185.266 6.00221 -2.65453 0
M  V30 1463 C 185.841 5.00564 -3.39083 0
M  V30 1464 H 188.137 6.62104 -3.11218 0
M  V30 1465 H 189.32 4.42969 -4.80867 0
M  V30 1466 H 190.803 5.92458 -5.93643 0
M  V30 1467 H 189.109 7.93295 -6.39407 0
M  V30 1468 H 188.919 6.26671 -8.0846 0
M  V30 1469 H 187.289 6.29101 -7.32804 0
M  V30 1470 H 183.553 6.36894 -1.5883 0
M  V30 1471 H 188.131 3.58193 -5.14248 0
M  V30 1472 H 182.523 2.05145 -2.97047 0
M  V30 1473 H 183.927 1.51255 -3.92998 0
M  V30 1474 H 189.929 5.84223 -2.47279 0
M  V30 1475 P 191.787 7.39546 -4.75277 0
M  V30 1476 O 193.209 7.84798 -5.01039 0
M  V30 1477 O 191.427 5.9812 -5.08098 0
M  V30 1478 O 191.464 7.57503 -3.1866 0
M  V30 1479 C 191.304 8.97357 -2.74833 0
M  V30 1480 C 191.844 9.07548 -1.32709 0
M  V30 1481 O 190.788 8.62072 -0.606159 0
M  V30 1482 C 193.062 8.25383 -0.938334 0
M  V30 1483 O 193.8 8.74577 0.146954 0
M  V30 1484 C 192.393 6.8802 -0.712559 0
M  V30 1485 O 193.192 6.1189 0.194655 0
M  V30 1486 C 191.056 7.27966 -0.139777 0
M  V30 1487 H 191.088 7.25354 0.961601 0
M  V30 1488 H 192.271 6.32557 -1.65702 0
M  V30 1489 H 193.755 8.19355 -1.79097 0
M  V30 1490 H 192.061 10.1294 -1.10029 0
M  V30 1491 H 191.871 9.64276 -3.41316 0
M  V30 1492 H 190.241 9.25417 -2.76357 0
M  V30 1493 H 192.88 6.25267 1.07847 0
M  V30 1494 P 194.738 8.791 1.12009e-13 0
M  V30 1495 O 196.16 9.31096 0.027933 0
M  V30 1496 O 194.378 7.77869 -1.04071 0
M  V30 1497 O 194.415 8.09533 1.41463 0
M  V30 1498 C 194.255 9.0349 2.53943 0
M  V30 1499 C 194.795 8.35226 3.79016 0
M  V30 1500 O 193.739 7.57992 4.15078 0
M  V30 1501 C 196.013 7.45087 3.67298 0
M  V30 1502 O 196.751 7.27796 4.85194 0
M  V30 1503 C 195.344 6.17323 3.12027 0
M  V30 1504 O 196.143 5.04231 3.47188 0
M  V30 1505 C 194.007 6.19961 3.81809 0
M  V30 1506 H 194.039 5.58218 4.73051 0
M  V30 1507 H 195.222 6.21726 2.02589 0
M  V30 1508 H 196.706 7.86112 2.9231 0
M  V30 1509 H 195.012 9.11627 4.55076 0
M  V30 1510 H 194.822 9.9573 2.34194 0
M  V30 1511 H 193.192 9.2792 2.67832 0
M  V30 1512 H 195.831 4.67702 4.28772 0
M  V30 1513 P 197.688 7.39546 4.75277 0
M  V30 1514 O 199.11 7.81777 5.05738 0
M  V30 1515 O 197.328 7.1065 3.32998 0
M  V30 1516 O 197.365 6.04542 5.56673 0
M  V30 1517 C 197.205 6.22772 7.02095 0
M  V30 1518 C 197.745 4.97725 7.70406 0
M  V30 1519 O 196.689 4.13256 7.58987 0
M  V30 1520 C 198.963 4.28231 7.11815 0
M  V30 1521 O 199.701 3.49945 8.01648 0
M  V30 1522 C 198.294 3.5063 5.96244 0
M  V30 1523 O 199.093 2.36482 5.64681 0
M  V30 1524 C 196.957 3.15122 6.56374 0
M  V30 1525 H 196.989 2.13853 6.99751 0
M  V30 1526 H 198.172 4.13501 5.06559 0
M  V30 1527 H 199.656 5.03285 6.70911 0
M  V30 1528 H 197.962 5.20877 8.75697 0
M  V30 1529 H 197.772 7.11046 7.35349 0
M  V30 1530 H 196.142 6.35815 7.26986 0
M  V30 1531 H 198.781 1.61644 6.13565 0
M  V30 1532 P 200.639 3.65191 7.99657 0
M  V30 1533 O 202.061 3.8425 8.48115 0
M  V30 1534 O 200.279 4.17805 6.64342 0
M  V30 1535 O 200.316 2.07613 7.95143 0
M  V30 1536 C 200.156 1.44328 9.27336 0
M  V30 1537 C 200.696 0.0220036 9.17197 0
M  V30 1538 O 199.64 -0.626867 8.61923 0
M  V30 1539 C 201.914 -0.24586 8.30336 0
M  V30 1540 O 202.652 -1.39011 8.63583 0
M  V30 1541 C 201.245 -0.273849 6.91158 0
M  V30 1542 O 202.044 -1.06348 6.02892 0
M  V30 1543 C 199.908 -0.897649 7.22545 0
M  V30 1544 H 199.94 -1.9841 7.04286 0
M  V30 1545 H 201.123 0.739928 6.497 0
M  V30 1546 H 202.607 0.60668 8.36503 0
M  V30 1547 H 200.913 -0.352479 10.1829 0
M  V30 1548 H 200.723 2.00611 10.0304 0
M  V30 1549 H 199.093 1.41843 9.55327 0
M  V30 1550 H 201.732 -1.95734 6.03555 0
M  V30 1551 P 203.589 -1.25109 8.70152 0
M  V30 1552 O 205.011 -1.35274 9.21221 0
M  V30 1553 O 203.229 -0.0769065 7.84762 0
M  V30 1554 O 203.266 -2.55232 7.81161 0
M  V30 1555 C 203.106 -3.79939 8.58154 0
M  V30 1556 C 203.646 -4.94023 7.72785 0
M  V30 1557 O 202.59 -5.18726 6.91205 0
M  V30 1558 C 204.864 -4.69597 6.85231 0
M  V30 1559 O 205.602 -5.83832 6.51337 0
M  V30 1560 C 204.195 -3.96706 5.66633 0
M  V30 1561 O 204.994 -4.15414 4.49689 0
M  V30 1562 C 202.858 -4.66153 5.59313 0
M  V30 1563 H 202.89 -5.47679 4.85214 0
M  V30 1564 H 204.073 -2.89008 5.86566 0
M  V30 1565 H 205.557 -4.0121 7.36511 0
M  V30 1566 H 203.863 -5.80182 8.37584 0
M  V30 1567 H 203.673 -3.73517 9.52265 0
M  V30 1568 H 202.043 -3.97163 8.80359 0
M  V30 1569 H 204.682 -4.90969 4.01921 0
M  V30 1570 P 206.54 -5.75688 6.64379 0
M  V30 1571 O 207.962 -6.11849 7.01846 0
M  V30 1572 O 206.18 -4.30744 6.56026 0
M  V30 1573 O 206.217 -6.37042 5.19165 0
M  V30 1574 C 206.057 -7.83578 5.16515 0
M  V30 1575 C 206.597 -8.33398 3.83019 0
M  V30 1576 O 205.541 -8.10074 3.01034 0
M  V30 1577 C 207.815 -7.65514 3.2257 0
M  V30 1578 O 208.553 -8.4329 2.32297 0
M  V30 1579 C 207.146 -6.40075 2.62207 0
M  V30 1580 O 207.945 -5.92589 1.53712 0
M  V30 1581 C 205.809 -6.9454 2.18503 0
M  V30 1582 H 205.841 -7.23063 1.12091 0
M  V30 1583 H 207.024 -5.6025 3.37201 0
M  V30 1584 H 208.508 -7.35707 4.02681 0
M  V30 1585 H 206.814 -9.40912 3.9095 0
M  V30 1586 H 206.624 -8.29056 5.99158 0
M  V30 1587 H 204.994 -8.10073 5.25882 0
M  V30 1588 H 207.633 -6.30324 0.726794 0
M  V30 1589 P 209.49 -8.4349 2.47671 0
M  V30 1590 O 210.912 -8.94167 2.5964 0
M  V30 1591 O 209.13 -7.1704 3.19006 0
M  V30 1592 O 209.167 -8.16596 0.923387 0
M  V30 1593 C 209.007 -9.38437 0.108857 0
M  V30 1594 C 209.547 -9.08175 -1.28353 0
M  V30 1595 O 208.491 -8.44229 -1.84713 0
M  V30 1596 C 210.765 -8.18386 -1.42505 0
M  V30 1597 O 211.503 -8.3501 -2.60497 0
M  V30 1598 C 210.096 -6.80225 -1.25468 0
M  V30 1599 O 210.895 -5.81621 -1.91066 0
M  V30 1600 C 208.759 -7.02416 -1.9168 0
M  V30 1601 H 208.791 -6.6888 -2.96621 0
M  V30 1602 H 209.974 -6.53617 -0.192223 0
M  V30 1603 H 211.458 -8.36622 -0.589963 0
M  V30 1604 H 209.764 -10.0291 -1.79807 0
M  V30 1605 H 209.574 -10.2138 0.558219 0
M  V30 1606 H 207.944 -9.6579 0.0444202 0
M  V30 1607 H 210.583 -5.69556 -2.79637 0
M  V30 1608 P 212.441 -8.4349 -2.47671 0
M  V30 1609 O 213.863 -8.92593 -2.65 0
M  V30 1610 O 212.081 -7.7568 -1.19296 0
M  V30 1611 O 212.118 -7.36886 -3.63805 0
M  V30 1612 C 211.958 -7.95349 -4.982 0
M  V30 1613 C 212.498 -6.94612 -5.98974 0
M  V30 1614 O 211.442 -6.10347 -6.11815 0
M  V30 1615 C 213.716 -6.11426 -5.62335 0
M  V30 1616 O 214.454 -5.6162 -6.70584 0
M  V30 1617 C 213.047 -5.04409 -4.73308 0
M  V30 1618 O 213.846 -3.85992 -4.75183 0
M  V30 1619 C 211.71 -4.8728 -5.41006 0
M  V30 1620 H 211.742 -4.02333 -6.11157 0
M  V30 1621 H 212.925 -5.39466 -3.69543 0
M  V30 1622 H 214.409 -6.71916 -5.01943 0
M  V30 1623 H 212.715 -7.4649 -6.93477 0
M  V30 1624 H 212.525 -8.89416 -5.05237 0
M  V30 1625 H 210.895 -8.14876 -5.18409 0
M  V30 1626 H 213.534 -3.27957 -5.4317 0
M  V30 1627 P 215.392 -5.75688 -6.64379 0
M  V30 1628 O 216.814 -6.07627 -7.05504 0
M  V30 1629 O 215.032 -5.88047 -5.19722 0
M  V30 1630 O 215.069 -4.2322 -7.04443 0
M  V30 1631 C 214.909 -3.99743 -8.4911 0
M  V30 1632 C 215.449 -2.60516 -8.79425 0
M  V30 1633 O 214.393 -1.82684 -8.4467 0
M  V30 1634 C 216.667 -2.10343 -8.03628 0
M  V30 1635 O 217.405 -1.09919 -8.67766 0
M  V30 1636 C 215.998 -1.68446 -6.70876 0
M  V30 1637 O 216.797 -0.678137 -6.08433 0
M  V30 1638 C 214.661 -1.17436 -7.18567 0
M  V30 1639 H 214.693 -0.0804732 -7.31656 0
M  V30 1640 H 215.876 -2.54037 -6.02537 0
M  V30 1641 H 217.36 -2.93881 -7.85526 0
M  V30 1642 H 215.666 -2.53065 -9.86973 0
M  V30 1643 H 215.476 -4.75072 -9.05887 0
M  V30 1644 H 213.846 -4.05244 -8.76668 0
M  V30 1645 H 216.485 0.177647 -6.34251 0
M  V30 1646 P 218.342 -1.25109 -8.70152 0
M  V30 1647 O 219.764 -1.29744 -9.22016 0
M  V30 1648 O 217.982 -2.13714 -7.55141 0
M  V30 1649 O 218.019 0.248149 -8.21425 0
M  V30 1650 C 217.859 1.22779 -9.30434 0
M  V30 1651 C 218.399 2.56293 -8.80664 0
M  V30 1652 O 217.343 3.02979 -8.09349 0
M  V30 1653 C 219.617 2.57523 -7.89775 0
M  V30 1654 O 220.355 3.7668 -7.89438 0
M  V30 1655 C 218.948 2.20997 -6.55446 0
M  V30 1656 O 219.747 2.71895 -5.48509 0
M  V30 1657 C 217.611 2.89693 -6.67988 0
M  V30 1658 H 217.643 3.88793 -6.19859 0
M  V30 1659 H 218.826 1.12046 -6.44229 0
M  V30 1660 H 220.31 1.7746 -8.19711 0
M  V30 1661 H 218.616 3.20706 -9.67112 0
M  V30 1662 H 218.426 0.901032 -10.1892 0
M  V30 1663 H 216.796 1.33049 -9.56592 0
M  V30 1664 H 219.435 3.57847 -5.23962 0
M  V30 1665 P 221.293 3.65191 -7.99657 0
M  V30 1666 O 222.714 3.89374 -8.45885 0
M  V30 1667 O 220.933 2.28472 -7.50807 0
M  V30 1668 O 220.97 4.64972 -6.77611 0
M  V30 1669 C 220.809 6.06383 -7.16428 0
M  V30 1670 C 221.35 6.91731 -6.02299 0
M  V30 1671 O 220.295 6.92369 -5.17005 0
M  V30 1672 C 222.568 6.43627 -5.25174 0
M  V30 1673 O 223.306 7.43686 -4.60469 0
M  V30 1674 C 221.9 5.40275 -4.31916 0
M  V30 1675 O 222.698 5.24878 -3.14911 0
M  V30 1676 C 220.562 6.04847 -4.05327 0
M  V30 1677 N 219.519 5.04166 -3.98114 0
M  V30 1678 C 219.688 3.84629 -4.59066 0
M  V30 1679 N 218.661 3.0363 -4.45343 0
M  V30 1680 C 217.776 3.76722 -3.68523 0
M  V30 1681 C 216.509 3.43528 -3.17088 0
M  V30 1682 N 215.944 4.44526 -2.44231 0
M  V30 1683 C 216.546 5.65243 -2.20146 0
M  V30 1684 N 217.723 6.00221 -2.65453 0
M  V30 1685 C 218.298 5.00564 -3.39083 0
M  V30 1686 H 221.777 4.42969 -4.80867 0
M  V30 1687 H 223.26 5.92458 -5.93643 0
M  V30 1688 H 221.566 7.93295 -6.39407 0
M  V30 1689 H 221.376 6.26671 -8.0846 0
M  V30 1690 H 219.746 6.29101 -7.32804 0
M  V30 1691 H 220.588 3.58193 -5.14248 0
M  V30 1692 H 222.386 5.84223 -2.47279 0
M  V30 1693 P 224.243 7.39546 -4.75277 0
M  V30 1694 O 225.665 7.84798 -5.01039 0
M  V30 1695 O 223.883 5.9812 -5.08098 0
M  V30 1696 O 223.92 7.57503 -3.1866 0
M  V30 1697 C 223.76 8.97357 -2.74833 0
M  V30 1698 C 224.3 9.07548 -1.32709 0
M  V30 1699 O 223.244 8.62072 -0.606159 0
M  V30 1700 C 225.518 8.25383 -0.938334 0
M  V30 1701 O 226.256 8.74577 0.146954 0
M  V30 1702 C 224.849 6.8802 -0.712559 0
M  V30 1703 O 225.648 6.1189 0.194655 0
M  V30 1704 C 223.512 7.27966 -0.139777 0
M  V30 1705 H 223.544 7.25354 0.961601 0
M  V30 1706 H 224.727 6.32557 -1.65702 0
M  V30 1707 H 226.211 8.19355 -1.79097 0
M  V30 1708 H 224.517 10.1294 -1.10029 0
M  V30 1709 H 224.327 9.64276 -3.41316 0
M  V30 1710 H 222.697 9.25417 -2.76357 0
M  V30 1711 H 225.336 6.25267 1.07847 0
M  V30 1712 P 227.194 8.791 4.22174e-13 0
M  V30 1713 O 228.616 9.31096 0.027933 0
M  V30 1714 O 226.834 7.77869 -1.04071 0
M  V30 1715 O 226.871 8.09533 1.41463 0
M  V30 1716 C 226.711 9.0349 2.53943 0
M  V30 1717 C 227.251 8.35226 3.79016 0
M  V30 1718 O 226.195 7.57992 4.15078 0
M  V30 1719 C 228.469 7.45087 3.67298 0
M  V30 1720 O 229.207 7.27796 4.85194 0
M  V30 1721 C 227.8 6.17323 3.12027 0
M  V30 1722 O 228.599 5.04231 3.47188 0
M  V30 1723 C 226.463 6.19961 3.81809 0
M  V30 1724 H 226.495 5.58218 4.73051 0
M  V30 1725 H 227.678 6.21726 2.02589 0
M  V30 1726 H 229.162 7.86112 2.9231 0
M  V30 1727 H 227.468 9.11627 4.55076 0
M  V30 1728 H 227.278 9.9573 2.34194 0
M  V30 1729 H 225.648 9.2792 2.67832 0
M  V30 1730 H 228.287 4.67702 4.28772 0
M  V30 1731 P 230.144 7.39546 4.75277 0
M  V30 1732 O 231.566 7.81777 5.05738 0
M  V30 1733 O 229.784 7.1065 3.32998 0
M  V30 1734 O 229.821 6.04542 5.56673 0
M  V30 1735 C 229.661 6.22772 7.02095 0
M  V30 1736 C 230.201 4.97725 7.70406 0
M  V30 1737 O 229.145 4.13256 7.58987 0
M  V30 1738 C 231.419 4.28231 7.11815 0
M  V30 1739 O 232.157 3.49945 8.01648 0
M  V30 1740 C 230.75 3.5063 5.96244 0
M  V30 1741 O 231.549 2.36482 5.64681 0
M  V30 1742 C 229.413 3.15122 6.56374 0
M  V30 1743 H 229.445 2.13853 6.99751 0
M  V30 1744 H 230.628 4.13501 5.06559 0
M  V30 1745 H 232.112 5.03285 6.70911 0
M  V30 1746 H 230.418 5.20877 8.75697 0
M  V30 1747 H 230.228 7.11046 7.35349 0
M  V30 1748 H 228.598 6.35815 7.26986 0
M  V30 1749 H 231.237 1.61644 6.13565 0
M  V30 1750 P 233.095 3.65191 7.99657 0
M  V30 1751 O 234.516 3.84292 8.48206 0
M  V30 1752 O 232.735 4.17805 6.64342 0
M  V30 1753 O 232.772 2.07613 7.95143 0
M  V30 1754 C 232.611 1.44344 9.27435 0
M  V30 1755 C 233.152 0.0220036 9.17197 0
M  V30 1756 O 232.097 -0.626794 8.61824 0
M  V30 1757 C 234.37 -0.24586 8.30336 0
M  V30 1758 O 235.108 -1.39011 8.63583 0
M  V30 1759 C 233.702 -0.273849 6.91158 0
M  V30 1760 O 234.5 -1.05728 6.029 0
M  V30 1761 C 232.364 -0.897649 7.22545 0
M  V30 1762 N 231.321 -0.292839 6.41732 0
M  V30 1763 C 231.49 0.950603 5.91308 0
M  V30 1764 N 230.463 1.37732 5.21105 0
M  V30 1765 C 229.578 0.318109 5.26039 0
M  V30 1766 C 228.311 0.146766 4.6727 0
M  V30 1767 N 227.746 -1.06525 4.95887 0
M  V30 1768 C 228.348 -2.0378 5.71347 0
M  V30 1769 N 229.525 -1.92445 6.27451 0
M  V30 1770 C 230.1 -0.715382 6.00353 0
M  V30 1771 H 233.579 0.733318 6.49674 0
M  V30 1772 H 235.062 0.60668 8.36503 0
M  V30 1773 H 233.368 -0.362662 10.1825 0
M  V30 1774 H 233.178 2.00611 10.0304 0
M  V30 1775 H 231.548 1.41843 9.55327 0
M  V30 1776 H 232.39 1.54076 6.07465 0
M  V30 1777 H 234.188 -1.95704 6.0346 0
M  V30 1778 P 236.046 -1.25109 8.70152 0
M  V30 1779 O 237.468 -1.35274 9.21221 0
M  V30 1780 O 235.686 -0.0769065 7.84762 0
M  V30 1781 O 235.723 -2.55232 7.81161 0
M  V30 1782 C 235.563 -3.79939 8.58154 0
M  V30 1783 C 236.103 -4.94023 7.72785 0
M  V30 1784 O 235.047 -5.18726 6.91205 0
M  V30 1785 C 237.321 -4.69597 6.85231 0
M  V30 1786 O 238.059 -5.83832 6.51337 0
M  V30 1787 C 236.652 -3.96706 5.66633 0
M  V30 1788 O 237.451 -4.15414 4.49689 0
M  V30 1789 C 235.315 -4.66153 5.59313 0
M  V30 1790 H 235.347 -5.47679 4.85214 0
M  V30 1791 H 236.53 -2.89008 5.86566 0
M  V30 1792 H 238.014 -4.0121 7.36511 0
M  V30 1793 H 236.32 -5.80182 8.37584 0
M  V30 1794 H 236.13 -3.73517 9.52265 0
M  V30 1795 H 234.5 -3.97163 8.80359 0
M  V30 1796 H 237.139 -4.90969 4.01921 0
M  V30 1797 P 238.996 -5.75688 6.64379 0
M  V30 1798 O 240.418 -6.11849 7.01846 0
M  V30 1799 O 238.636 -4.30744 6.56026 0
M  V30 1800 O 238.673 -6.37042 5.19165 0
M  V30 1801 C 238.513 -7.83578 5.16515 0
M  V30 1802 C 239.053 -8.33398 3.83019 0
M  V30 1803 O 237.997 -8.10074 3.01034 0
M  V30 1804 C 240.271 -7.65514 3.2257 0
M  V30 1805 O 241.009 -8.4329 2.32297 0
M  V30 1806 C 239.602 -6.40075 2.62207 0
M  V30 1807 O 240.401 -5.92589 1.53712 0
M  V30 1808 C 238.265 -6.9454 2.18503 0
M  V30 1809 H 238.297 -7.23063 1.12091 0
M  V30 1810 H 239.48 -5.6025 3.37201 0
M  V30 1811 H 240.964 -7.35707 4.02681 0
M  V30 1812 H 239.27 -9.40912 3.9095 0
M  V30 1813 H 239.08 -8.29056 5.99158 0
M  V30 1814 H 237.45 -8.10073 5.25882 0
M  V30 1815 H 240.089 -6.30324 0.726794 0
M  V30 1816 P 241.947 -8.4349 2.47671 0
M  V30 1817 O 243.369 -8.94167 2.5964 0
M  V30 1818 O 241.587 -7.1704 3.19006 0
M  V30 1819 O 241.624 -8.16596 0.923387 0
M  V30 1820 C 241.464 -9.38437 0.108857 0
M  V30 1821 C 242.004 -9.08175 -1.28353 0
M  V30 1822 O 240.948 -8.44229 -1.84713 0
M  V30 1823 C 243.222 -8.18386 -1.42505 0
M  V30 1824 O 243.96 -8.3501 -2.60497 0
M  V30 1825 C 242.553 -6.80225 -1.25468 0
M  V30 1826 O 243.352 -5.81621 -1.91066 0
M  V30 1827 C 241.216 -7.02416 -1.9168 0
M  V30 1828 H 241.248 -6.6888 -2.96621 0
M  V30 1829 H 242.431 -6.53617 -0.192223 0
M  V30 1830 H 243.915 -8.36622 -0.589963 0
M  V30 1831 H 242.221 -10.0291 -1.79807 0
M  V30 1832 H 242.031 -10.2138 0.558219 0
M  V30 1833 H 240.401 -9.6579 0.0444202 0
M  V30 1834 H 243.04 -5.69556 -2.79637 0
M  V30 1835 P 244.897 -8.4349 -2.47671 0
M  V30 1836 O 246.318 -8.92689 -2.65029 0
M  V30 1837 O 244.537 -7.7568 -1.19296 0
M  V30 1838 O 244.574 -7.36886 -3.63805 0
M  V30 1839 C 244.413 -7.95433 -4.98253 0
M  V30 1840 C 244.954 -6.94612 -5.98974 0
M  V30 1841 O 243.899 -6.10277 -6.11744 0
M  V30 1842 C 246.172 -6.11426 -5.62335 0
M  V30 1843 O 246.91 -5.6162 -6.70584 0
M  V30 1844 C 245.504 -5.04409 -4.73308 0
M  V30 1845 O 246.302 -3.86404 -4.74719 0
M  V30 1846 C 244.166 -4.8728 -5.41006 0
M  V30 1847 N 243.123 -4.65812 -4.42377 0
M  V30 1848 C 243.292 -5.09132 -3.15382 0
M  V30 1849 N 242.265 -4.84021 -2.3716 0
M  V30 1850 C 241.38 -4.18386 -3.20441 0
M  V30 1851 C 240.113 -3.6275 -2.94905 0
M  V30 1852 N 239.548 -3.05008 -4.05243 0
M  V30 1853 C 240.15 -2.98348 -5.28159 0
M  V30 1854 N 241.327 -3.48171 -5.56333 0
M  V30 1855 C 241.902 -4.06869 -4.47212 0
M  V30 1856 H 245.381 -5.39013 -3.70026 0
M  V30 1857 H 246.864 -6.71916 -5.01943 0
M  V30 1858 H 245.17 -7.45796 -6.94223 0
M  V30 1859 H 244.98 -8.89416 -5.05237 0
M  V30 1860 H 243.35 -8.14876 -5.18409 0
M  V30 1861 H 244.192 -5.59989 -2.81362 0
M  V30 1862 H 245.99 -3.27906 -5.43085 0
M  V30 1863 P 247.848 -5.75688 -6.64379 0
M  V30 1864 O 249.27 -6.07627 -7.05504 0
M  V30 1865 O 247.488 -5.88047 -5.19722 0
M  V30 1866 O 247.525 -4.2322 -7.04443 0
M  V30 1867 C 247.365 -3.99743 -8.4911 0
M  V30 1868 C 247.905 -2.60516 -8.79425 0
M  V30 1869 O 246.849 -1.82684 -8.4467 0
M  V30 1870 C 249.123 -2.10343 -8.03628 0
M  V30 1871 O 249.861 -1.09919 -8.67766 0
M  V30 1872 C 248.454 -1.68446 -6.70876 0
M  V30 1873 O 249.253 -0.678137 -6.08433 0
M  V30 1874 C 247.117 -1.17436 -7.18567 0
M  V30 1875 H 247.149 -0.0804732 -7.31656 0
M  V30 1876 H 248.332 -2.54037 -6.02537 0
M  V30 1877 H 249.816 -2.93881 -7.85526 0
M  V30 1878 H 248.122 -2.53065 -9.86973 0
M  V30 1879 H 247.932 -4.75072 -9.05887 0
M  V30 1880 H 246.302 -4.05244 -8.76668 0
M  V30 1881 H 248.941 0.177647 -6.34251 0
M  V30 1882 P 250.798 -1.25109 -8.70152 0
M  V30 1883 O 252.22 -1.29744 -9.22016 0
M  V30 1884 O 250.438 -2.13714 -7.55141 0
M  V30 1885 O 250.475 0.248149 -8.21425 0
M  V30 1886 C 250.315 1.22779 -9.30434 0
M  V30 1887 C 250.855 2.56293 -8.80664 0
M  V30 1888 O 249.799 3.02979 -8.09349 0
M  V30 1889 C 252.073 2.57523 -7.89775 0
M  V30 1890 O 252.811 3.7668 -7.89438 0
M  V30 1891 C 251.404 2.20997 -6.55446 0
M  V30 1892 O 252.203 2.71895 -5.48509 0
M  V30 1893 C 250.067 2.89693 -6.67988 0
M  V30 1894 H 250.099 3.88793 -6.19859 0
M  V30 1895 H 251.282 1.12046 -6.44229 0
M  V30 1896 H 252.766 1.7746 -8.19711 0
M  V30 1897 H 251.072 3.20706 -9.67112 0
M  V30 1898 H 250.882 0.901032 -10.1892 0
M  V30 1899 H 249.252 1.33049 -9.56592 0
M  V30 1900 H 251.891 3.57847 -5.23962 0
M  V30 1901 P 253.749 3.65191 -7.99657 0
M  V30 1902 O 255.15 3.87414 -8.52829 0
M  V30 1903 O 253.371 2.26932 -7.566 0
M  V30 1904 O 253.426 4.64915 -6.77529 0
M  V30 1905 C 253.266 6.06319 -7.16352 0
M  V30 1906 C 253.806 6.91655 -6.02234 0
M  V30 1907 O 252.75 6.92369 -5.17005 0
M  V30 1908 C 255.023 6.43627 -5.25174 0
M  V30 1909 O 255.762 7.43686 -4.60469 0
M  V30 1910 C 254.356 5.40275 -4.31916 0
M  V30 1911 O 255.154 5.25193 -3.14386 0
M  V30 1912 C 253.018 6.04847 -4.05327 0
M  V30 1913 N 251.975 5.04166 -3.98114 0
M  V30 1914 C 250.94 5.2366 -3.09923 0
M  V30 1915 O 250.979 6.23355 -2.34204 0
M  V30 1916 N 249.928 4.34279 -3.05727 0
M  V30 1917 C 249.976 3.26317 -3.84756 0
M  V30 1918 C 251.072 3.02504 -4.72573 0
M  V30 1919 C 252.038 3.94493 -4.76618 0
M  V30 1920 H 253.05 6.62104 -3.11218 0
M  V30 1921 H 254.233 4.42969 -4.80867 0
M  V30 1922 H 255.717 5.93122 -5.93121 0
M  V30 1923 H 254.023 7.93295 -6.39407 0
M  V30 1924 H 253.832 6.26671 -8.0846 0
M  V30 1925 H 252.202 6.29036 -7.32728 0
M  V30 1926 H 251.12 2.12921 -5.34017 0
M  V30 1927 H 252.884 3.80658 -5.44176 0
M  V30 1928 H 254.938 5.93572 -2.52637 0
M  V30 1929 P 256.7 7.39546 -4.75277 0
M  V30 1930 O 258.121 7.84882 -5.01092 0
M  V30 1931 O 256.34 5.9812 -5.08098 0
M  V30 1932 O 256.377 7.57503 -3.1866 0
M  V30 1933 C 256.216 8.97452 -2.74862 0
M  V30 1934 C 256.757 9.07548 -1.32709 0
M  V30 1935 O 255.702 8.61972 -0.606089 0
M  V30 1936 C 257.975 8.25383 -0.938334 0
M  V30 1937 O 258.713 8.74577 0.146954 0
M  V30 1938 C 257.307 6.8802 -0.712559 0
M  V30 1939 O 258.105 6.1181 0.188505 0
M  V30 1940 C 255.969 7.27966 -0.139777 0
M  V30 1941 N 254.926 6.39368 -0.623421 0
M  V30 1942 C 255.095 5.71761 -1.78245 0
M  V30 1943 N 254.068 4.962 -2.10491 0
M  V30 1944 C 253.183 5.16158 -1.0635 0
M  V30 1945 C 251.916 4.60425 -0.810266 0
M  V30 1946 N 251.351 5.06 0.348685 0
M  V30 1947 C 251.953 5.94532 1.20395 0
M  V30 1948 N 253.13 6.48452 1.01191 0
M  V30 1949 C 253.705 6.04423 -0.146291 0
M  V30 1950 H 257.184 6.32625 -1.65044 0
M  V30 1951 H 258.667 8.19355 -1.79097 0
M  V30 1952 H 256.973 10.1305 -1.09016 0
M  V30 1953 H 256.783 9.64276 -3.41316 0
M  V30 1954 H 255.153 9.25417 -2.76357 0
M  V30 1955 H 255.995 5.79354 -2.38959 0
M  V30 1956 H 257.793 6.25169 1.0783 0
M  V30 1957 P 259.65 8.791 7.3234e-13 0
M  V30 1958 O 261.072 9.31096 0.027933 0
M  V30 1959 O 259.29 7.77869 -1.04071 0
M  V30 1960 O 259.327 8.09533 1.41463 0
M  V30 1961 C 259.167 9.0349 2.53943 0
M  V30 1962 C 259.707 8.35226 3.79016 0
M  V30 1963 O 258.651 7.57992 4.15078 0
M  V30 1964 C 260.925 7.45087 3.67298 0
M  V30 1965 O 261.663 7.27796 4.85194 0
M  V30 1966 C 260.256 6.17323 3.12027 0
M  V30 1967 O 261.055 5.04231 3.47188 0
M  V30 1968 C 258.919 6.19961 3.81809 0
M  V30 1969 H 258.951 5.58218 4.73051 0
M  V30 1970 H 260.134 6.21726 2.02589 0
M  V30 1971 H 261.618 7.86112 2.9231 0
M  V30 1972 H 259.924 9.11627 4.55076 0
M  V30 1973 H 259.734 9.9573 2.34194 0
M  V30 1974 H 258.104 9.2792 2.67832 0
M  V30 1975 H 260.743 4.67702 4.28772 0
M  V30 1976 P 262.601 7.39546 4.75277 0
M  V30 1977 O 264.023 7.81777 5.05738 0
M  V30 1978 O 262.241 7.1065 3.32998 0
M  V30 1979 O 262.278 6.04542 5.56673 0
M  V30 1980 C 262.118 6.22772 7.02095 0
M  V30 1981 C 262.658 4.97725 7.70406 0
M  V30 1982 O 261.602 4.13256 7.58987 0
M  V30 1983 C 263.876 4.28231 7.11815 0
M  V30 1984 O 264.614 3.49945 8.01648 0
M  V30 1985 C 263.207 3.5063 5.96244 0
M  V30 1986 O 264.006 2.36482 5.64681 0
M  V30 1987 C 261.87 3.15122 6.56374 0
M  V30 1988 H 261.902 2.13853 6.99751 0
M  V30 1989 H 263.085 4.13501 5.06559 0
M  V30 1990 H 264.569 5.03285 6.70911 0
M  V30 1991 H 262.875 5.20877 8.75697 0
M  V30 1992 H 262.685 7.11046 7.35349 0
M  V30 1993 H 261.055 6.35815 7.26986 0
M  V30 1994 H 263.694 1.61644 6.13565 0
M  V30 1995 P 265.551 3.65191 7.99657 0
M  V30 1996 O 266.973 3.8425 8.48115 0
M  V30 1997 O 265.191 4.17805 6.64342 0
M  V30 1998 O 265.228 2.07613 7.95143 0
M  V30 1999 C 265.068 1.44328 9.27336 0
M  V30 2000 C 265.608 0.0220036 9.17197 0
M  V30 2001 O 264.552 -0.626867 8.61923 0
M  V30 2002 C 266.826 -0.24586 8.30336 0
M  V30 2003 O 267.564 -1.39011 8.63583 0
M  V30 2004 C 266.157 -0.273849 6.91158 0
M  V30 2005 O 266.956 -1.06348 6.02892 0
M  V30 2006 C 264.82 -0.897649 7.22545 0
M  V30 2007 H 264.852 -1.9841 7.04286 0
M  V30 2008 H 266.035 0.739928 6.497 0
M  V30 2009 H 267.519 0.60668 8.36503 0
M  V30 2010 H 265.825 -0.352479 10.1829 0
M  V30 2011 H 265.635 2.00611 10.0304 0
M  V30 2012 H 264.005 1.41843 9.55327 0
M  V30 2013 H 266.644 -1.95734 6.03555 0
M  V30 2014 P 268.502 -1.25109 8.70152 0
M  V30 2015 O 269.924 -1.35274 9.21221 0
M  V30 2016 O 268.142 -0.0769065 7.84762 0
M  V30 2017 O 268.179 -2.55232 7.81161 0
M  V30 2018 C 268.019 -3.79939 8.58154 0
M  V30 2019 C 268.559 -4.94023 7.72785 0
M  V30 2020 O 267.503 -5.18726 6.91205 0
M  V30 2021 C 269.777 -4.69597 6.85231 0
M  V30 2022 O 270.515 -5.83832 6.51337 0
M  V30 2023 C 269.108 -3.96706 5.66633 0
M  V30 2024 O 269.907 -4.15414 4.49689 0
M  V30 2025 C 267.771 -4.66153 5.59313 0
M  V30 2026 H 267.803 -5.47679 4.85214 0
M  V30 2027 H 268.986 -2.89008 5.86566 0
M  V30 2028 H 270.47 -4.0121 7.36511 0
M  V30 2029 H 268.776 -5.80182 8.37584 0
M  V30 2030 H 268.586 -3.73517 9.52265 0
M  V30 2031 H 266.956 -3.97163 8.80359 0
M  V30 2032 H 269.595 -4.90969 4.01921 0
M  V30 2033 P 271.452 -5.75688 6.64379 0
M  V30 2034 O 272.853 -6.11991 7.09136 0
M  V30 2035 O 271.074 -4.30899 6.62018 0
M  V30 2036 O 271.129 -6.36965 5.19102 0
M  V30 2037 C 270.969 -7.83578 5.16515 0
M  V30 2038 C 271.509 -8.33307 3.82977 0
M  V30 2039 O 270.453 -8.0998 3.00999 0
M  V30 2040 C 272.726 -7.65514 3.2257 0
M  V30 2041 O 273.465 -8.4329 2.32297 0
M  V30 2042 C 272.059 -6.40075 2.62207 0
M  V30 2043 O 272.857 -5.92492 1.53687 0
M  V30 2044 C 270.721 -6.9454 2.18503 0
M  V30 2045 N 269.678 -5.95905 2.39948 0
M  V30 2046 C 268.643 -5.89764 1.49837 0
M  V30 2047 O 268.682 -6.64088 0.490975 0
M  V30 2048 N 267.631 -5.02821 1.70992 0
M  V30 2049 C 267.679 -4.21498 2.77236 0
M  V30 2050 C 268.775 -4.23389 3.68205 0
M  V30 2051 C 269.741 -5.12792 3.46171 0
M  V30 2052 H 270.753 -7.22964 1.12076 0
M  V30 2053 H 271.936 -5.60502 3.36589 0
M  V30 2054 H 273.42 -7.36197 4.01993 0
M  V30 2055 H 271.726 -9.41302 3.90009 0
M  V30 2056 H 271.535 -8.29056 5.99158 0
M  V30 2057 H 269.905 -8.09989 5.25828 0
M  V30 2058 H 268.823 -3.54747 4.52399 0
M  V30 2059 H 270.587 -5.18551 4.1489 0
M  V30 2060 H 272.641 -6.40705 0.751752 0
M  V30 2061 P 274.403 -8.4349 2.47671 0
M  V30 2062 O 275.824 -8.94263 2.59668 0
M  V30 2063 O 274.043 -7.1704 3.19006 0
M  V30 2064 O 274.08 -8.16596 0.923387 0
M  V30 2065 C 273.919 -9.38537 0.108869 0
M  V30 2066 C 274.46 -9.08175 -1.28353 0
M  V30 2067 O 273.405 -8.44131 -1.84692 0
M  V30 2068 C 275.678 -8.18386 -1.42505 0
M  V30 2069 O 276.416 -8.3501 -2.60497 0
M  V30 2070 C 275.01 -6.80225 -1.25468 0
M  V30 2071 O 275.808 -5.81716 -1.90454 0
M  V30 2072 C 273.672 -7.02416 -1.9168 0
M  V30 2073 N 272.629 -6.31033 -1.20314 0
M  V30 2074 C 272.798 -5.98817 0.0994088 0
M  V30 2075 N 271.771 -5.35403 0.621694 0
M  V30 2076 C 270.886 -5.25212 -0.43376 0
M  V30 2077 C 269.619 -4.64602 -0.519722 0
M  V30 2078 N 269.02 -4.01457 0.519136 0
M  V30 2079 N 269.054 -4.7568 -1.76013 0
M  V30 2080 C 269.656 -5.3653 -2.83017 0
M  V30 2081 N 270.833 -5.93676 -2.79782 0
M  V30 2082 C 271.408 -5.84061 -1.56249 0
M  V30 2083 H 273.704 -6.68789 -2.9658 0
M  V30 2084 H 274.887 -6.53498 -0.198729 0
M  V30 2085 H 276.37 -8.36622 -0.589963 0
M  V30 2086 H 274.676 -10.0273 -1.8081 0
M  V30 2087 H 274.486 -10.2138 0.558219 0
M  V30 2088 H 272.856 -9.6579 0.0444202 0
M  V30 2089 H 269.12 -5.37113 -3.77321 0
M  V30 2090 H 273.698 -6.23209 0.660562 0
M  V30 2091 H 268.09 -3.58834 0.394862 0
M  V30 2092 H 269.494 -3.96059 1.43048 0
M  V30 2093 H 275.496 -5.69466 -2.79593 0
M  V30 2094 P 277.354 -8.4349 -2.47671 0
M  V30 2095 O 278.776 -8.92593 -2.65 0
M  V30 2096 O 276.994 -7.7568 -1.19296 0
M  V30 2097 O 277.031 -7.36886 -3.63805 0
M  V30 2098 C 276.871 -7.95349 -4.982 0
M  V30 2099 C 277.411 -6.94612 -5.98974 0
M  V30 2100 O 276.355 -6.10347 -6.11815 0
M  V30 2101 C 278.629 -6.11426 -5.62335 0
M  V30 2102 O 279.367 -5.6162 -6.70584 0
M  V30 2103 C 277.96 -5.04409 -4.73308 0
M  V30 2104 O 278.759 -3.85992 -4.75183 0
M  V30 2105 C 276.623 -4.8728 -5.41006 0
M  V30 2106 H 276.655 -4.02333 -6.11157 0
M  V30 2107 H 277.838 -5.39466 -3.69543 0
M  V30 2108 H 279.322 -6.71916 -5.01943 0
M  V30 2109 H 277.628 -7.4649 -6.93477 0
M  V30 2110 H 277.438 -8.89416 -5.05237 0
M  V30 2111 H 275.808 -8.14876 -5.18409 0
M  V30 2112 H 278.447 -3.27957 -5.4317 0
M  V30 2113 P 280.304 -5.75688 -6.64379 0
M  V30 2114 O 281.726 -6.07758 -7.05656 0
M  V30 2115 O 279.944 -5.88047 -5.19722 0
M  V30 2116 O 279.981 -4.2322 -7.04443 0
M  V30 2117 C 279.821 -3.99743 -8.4911 0
M  V30 2118 C 280.361 -2.60487 -8.79329 0
M  V30 2119 O 279.306 -1.82684 -8.4467 0
M  V30 2120 C 281.579 -2.10343 -8.03628 0
M  V30 2121 O 282.317 -1.09919 -8.67766 0
M  V30 2122 C 280.911 -1.68446 -6.70876 0
M  V30 2123 O 281.709 -0.678026 -6.08333 0
M  V30 2124 C 279.573 -1.17436 -7.18567 0
M  V30 2125 N 278.53 -1.52699 -6.23988 0
M  V30 2126 C 278.592 -2.68084 -5.57824 0
M  V30 2127 N 277.547 -2.8189 -4.75643 0
M  V30 2128 C 276.813 -1.72373 -4.95155 0
M  V30 2129 C 275.507 -1.37653 -4.44996 0
M  V30 2130 O 274.774 -2.02239 -3.68445 0
M  V30 2131 N 275.077 -0.17675 -4.90782 0
M  V30 2132 C 275.826 0.645036 -5.78716 0
M  V30 2133 N 275.229 1.84214 -6.10618 0
M  V30 2134 N 276.979 0.321732 -6.30279 0
M  V30 2135 C 277.436 -0.87502 -5.86913 0
M  V30 2136 H 279.605 -0.0804732 -7.31656 0
M  V30 2137 H 280.788 -2.53998 -6.02444 0
M  V30 2138 H 282.273 -2.93095 -7.8582 0
M  V30 2139 H 280.578 -2.53065 -9.86973 0
M  V30 2140 H 280.388 -4.75072 -9.05887 0
M  V30 2141 H 278.757 -4.05244 -8.76668 0
M  V30 2142 H 274.181 0.152143 -4.60849 0
M  V30 2143 H 279.388 -3.41852 -5.69006 0
M  V30 2144 H 274.318 2.08538 -5.69521 0
M  V30 2145 H 275.694 2.4895 -6.75698 0
M  V30 2146 H 281.398 0.177619 -6.34151 0
M  V30 2147 P 283.255 -1.25109 -8.70152 0
M  V30 2148 O 284.677 -1.29744 -9.22016 0
M  V30 2149 O 282.895 -2.13714 -7.55141 0
M  V30 2150 O 282.932 0.248149 -8.21425 0
M  V30 2151 C 282.772 1.22779 -9.30434 0
M  V30 2152 C 283.312 2.56293 -8.80664 0
M  V30 2153 O 282.256 3.02979 -8.09349 0
M  V30 2154 C 284.53 2.57523 -7.89775 0
M  V30 2155 O 285.268 3.7668 -7.89438 0
M  V30 2156 C 283.861 2.20997 -6.55446 0
M  V30 2157 O 284.66 2.71895 -5.48509 0
M  V30 2158 C 282.524 2.89693 -6.67988 0
M  V30 2159 H 282.556 3.88793 -6.19859 0
M  V30 2160 H 283.739 1.12046 -6.44229 0
M  V30 2161 H 285.223 1.7746 -8.19711 0
M  V30 2162 H 283.529 3.20706 -9.67112 0
M  V30 2163 H 283.339 0.901032 -10.1892 0
M  V30 2164 H 281.709 1.33049 -9.56592 0
M  V30 2165 H 284.348 3.57847 -5.23962 0
M  V30 2166 P 286.205 3.65191 -7.99657 0
M  V30 2167 O 287.627 3.89332 -8.45794 0
M  V30 2168 O 285.845 2.28472 -7.50807 0
M  V30 2169 O 285.882 4.64972 -6.77611 0
M  V30 2170 C 285.722 6.06319 -7.16352 0
M  V30 2171 C 286.262 6.91731 -6.02299 0
M  V30 2172 O 285.206 6.92449 -5.17064 0
M  V30 2173 C 287.48 6.43627 -5.25174 0
M  V30 2174 O 288.218 7.43686 -4.60469 0
M  V30 2175 C 286.811 5.40275 -4.31916 0
M  V30 2176 O 287.61 5.25279 -3.14438 0
M  V30 2177 C 285.474 6.04847 -4.05327 0
M  V30 2178 H 285.506 6.62195 -3.11261 0
M  V30 2179 H 286.689 4.42556 -4.81383 0
M  V30 2180 H 288.173 5.92458 -5.93643 0
M  V30 2181 H 286.479 7.92655 -6.402 0
M  V30 2182 H 286.289 6.26671 -8.0846 0
M  V30 2183 H 284.659 6.29101 -7.32804 0
M  V30 2184 H 287.298 5.84315 -2.47318 0
M  V30 2185 P 289.156 7.39546 -4.75277 0
M  V30 2186 O 290.578 7.84798 -5.01039 0
M  V30 2187 O 288.796 5.9812 -5.08098 0
M  V30 2188 O 288.833 7.57503 -3.1866 0
M  V30 2189 C 288.673 8.97357 -2.74833 0
M  V30 2190 C 289.213 9.07548 -1.32709 0
M  V30 2191 O 288.157 8.62072 -0.606159 0
M  V30 2192 C 290.431 8.25383 -0.938334 0
M  V30 2193 O 291.169 8.74577 0.146954 0
M  V30 2194 C 289.762 6.8802 -0.712559 0
M  V30 2195 O 290.561 6.1189 0.194655 0
M  V30 2196 C 288.425 7.27966 -0.139777 0
M  V30 2197 H 288.457 7.25354 0.961601 0
M  V30 2198 H 289.64 6.32557 -1.65702 0
M  V30 2199 H 291.124 8.19355 -1.79097 0
M  V30 2200 H 289.43 10.1294 -1.10029 0
M  V30 2201 H 289.24 9.64276 -3.41316 0
M  V30 2202 H 287.61 9.25417 -2.76357 0
M  V30 2203 H 290.249 6.25267 1.07847 0
M  V30 2204 P 292.106 8.791 1.04251e-12 0
M  V30 2205 O 293.528 9.31096 0.027933 0
M  V30 2206 O 291.746 7.77869 -1.04071 0
M  V30 2207 O 291.783 8.09533 1.41463 0
M  V30 2208 C 291.623 9.0349 2.53943 0
M  V30 2209 C 292.163 8.35226 3.79016 0
M  V30 2210 O 291.107 7.57992 4.15078 0
M  V30 2211 C 293.381 7.45087 3.67298 0
M  V30 2212 O 294.119 7.27796 4.85194 0
M  V30 2213 C 292.712 6.17323 3.12027 0
M  V30 2214 O 293.511 5.04231 3.47188 0
M  V30 2215 C 291.375 6.19961 3.81809 0
M  V30 2216 H 291.407 5.58218 4.73051 0
M  V30 2217 H 292.59 6.21726 2.02589 0
M  V30 2218 H 294.074 7.86112 2.9231 0
M  V30 2219 H 292.38 9.11627 4.55076 0
M  V30 2220 H 292.19 9.9573 2.34194 0
M  V30 2221 H 290.56 9.2792 2.67832 0
M  V30 2222 H 293.199 4.67702 4.28772 0
M  V30 2223 P 295.057 7.39546 4.75277 0
M  V30 2224 O 296.479 7.81945 5.05847 0
M  V30 2225 O 294.697 7.1065 3.32998 0
M  V30 2226 O 294.734 6.04542 5.56673 0
M  V30 2227 C 294.574 6.22772 7.02095 0
M  V30 2228 C 295.114 4.97671 7.70322 0
M  V30 2229 O 294.059 4.13256 7.58987 0
M  V30 2230 C 296.332 4.28231 7.11815 0
M  V30 2231 O 297.07 3.49945 8.01648 0
M  V30 2232 C 295.664 3.5063 5.96244 0
M  V30 2233 O 296.462 2.36443 5.64589 0
M  V30 2234 C 294.326 3.15122 6.56374 0
M  V30 2235 N 293.283 3.22311 5.55692 0
M  V30 2236 C 293.345 4.14382 4.59701 0
M  V30 2237 N 292.3 4.04476 3.76958 0
M  V30 2238 C 291.566 3.04892 4.26534 0
M  V30 2239 C 290.26 2.57447 3.88189 0
M  V30 2240 O 289.527 2.9785 2.96543 0
M  V30 2241 N 289.83 1.55228 4.65922 0
M  V30 2242 C 290.579 1.01152 5.73447 0
M  V30 2243 N 289.982 -0.0472117 6.37783 0
M  V30 2244 N 291.732 1.467 6.13813 0
M  V30 2245 C 292.189 2.4931 5.38487 0
M  V30 2246 H 294.358 2.13853 6.99751 0
M  V30 2247 H 295.541 4.13438 5.06482 0
M  V30 2248 H 297.026 5.02614 6.71414 0
M  V30 2249 H 295.331 5.20877 8.75697 0
M  V30 2250 H 295.141 7.11046 7.35349 0
M  V30 2251 H 293.51 6.35815 7.26986 0
M  V30 2252 H 288.934 1.15238 4.46468 0
M  V30 2253 H 294.141 4.88312 4.49647 0
M  V30 2254 H 289.071 -0.396382 6.05203 0
M  V30 2255 H 290.447 -0.484997 7.18465 0
M  V30 2256 H 296.151 1.61619 6.13468 0
M  V30 2257 P 298.008 3.65191 7.99657 0
M  V30 2258 O 299.409 3.90823 8.51272 0
M  V30 2259 O 297.63 4.23191 6.66972 0
M  V30 2260 O 297.685 2.07587 7.95046 0
M  V30 2261 C 297.525 1.44328 9.27336 0
M  V30 2262 C 298.065 0.0220012 9.17097 0
M  V30 2263 O 297.009 -0.626794 8.61824 0
M  V30 2264 C 299.282 -0.24586 8.30336 0
M  V30 2265 O 300.021 -1.39011 8.63583 0
M  V30 2266 C 298.615 -0.273849 6.91158 0
M  V30 2267 O 299.413 -1.06331 6.02794 0
M  V30 2268 C 297.277 -0.897649 7.22545 0
M  V30 2269 N 296.234 -0.292839 6.41732 0
M  V30 2270 C 295.199 -1.08701 5.98712 0
M  V30 2271 O 295.238 -2.31211 6.24471 0
M  V30 2272 N 294.187 -0.533391 5.28415 0
M  V30 2273 C 294.235 0.770866 4.98576 0
M  V30 2274 N 293.225 1.29482 4.30134 0
M  V30 2275 C 295.331 1.59049 5.38086 0
M  V30 2276 C 296.297 1.01866 6.10256 0
M  V30 2277 H 297.309 -1.98383 7.04189 0
M  V30 2278 H 298.492 0.733318 6.49674 0
M  V30 2279 H 299.976 0.598386 8.36663 0
M  V30 2280 H 298.282 -0.362662 10.1825 0
M  V30 2281 H 298.091 2.00611 10.0304 0
M  V30 2282 H 296.461 1.41828 9.55228 0
M  V30 2283 H 295.379 2.6415 5.10622 0
M  V30 2284 H 297.143 1.61983 6.44042 0
M  V30 2285 H 292.435 0.69888 4.01361 0
M  V30 2286 H 293.23 2.29327 4.05781 0
M  V30 2287 H 299.197 -1.97777 6.14035 0
M  V30 2288 P 300.958 -1.25109 8.70152 0
M  V30 2289 O 302.379 -1.35288 9.2132 0
M  V30 2290 O 300.598 -0.0769065 7.84762 0
M  V30 2291 O 300.635 -2.55232 7.81161 0
M  V30 2292 C 300.474 -3.79979 8.58246 0
M  V30 2293 C 301.015 -4.94023 7.72785 0
M  V30 2294 O 299.96 -5.18666 6.91125 0
M  V30 2295 C 302.233 -4.69597 6.85231 0
M  V30 2296 O 302.971 -5.83832 6.51337 0
M  V30 2297 C 301.565 -3.96706 5.66633 0
M  V30 2298 O 302.363 -4.14896 4.5003 0
M  V30 2299 C 300.227 -4.66153 5.59313 0
M  V30 2300 N 299.184 -3.71582 5.24027 0
M  V30 2301 C 299.353 -2.39715 5.48833 0
M  V30 2302 N 298.326 -1.65863 5.12845 0
M  V30 2303 C 297.441 -2.57637 4.5973 0
M  V30 2304 C 296.174 -2.40278 4.01027 0
M  V30 2305 N 295.575 -1.19549 3.86744 0
M  V30 2306 N 295.609 -3.57711 3.59575 0
M  V30 2307 C 296.211 -4.80324 3.70476 0
M  V30 2308 N 297.388 -5.01121 4.23801 0
M  V30 2309 C 297.963 -3.84757 4.66372 0
M  V30 2310 H 300.259 -5.47604 4.85148 0
M  V30 2311 H 301.442 -2.8955 5.86187 0
M  V30 2312 H 302.925 -4.0121 7.36511 0
M  V30 2313 H 301.231 -5.81019 8.37003 0
M  V30 2314 H 301.041 -3.73517 9.52265 0
M  V30 2315 H 299.411 -3.97163 8.80359 0
M  V30 2316 H 295.675 -5.66348 3.3183 0
M  V30 2317 H 300.253 -1.98804 5.94332 0
M  V30 2318 H 294.645 -1.13147 3.4281 0
M  V30 2319 H 296.049 -0.344074 4.19692 0
M  V30 2320 H 302.051 -4.90891 4.01857 0
M  V30 2321 P 303.909 -5.75688 6.64379 0
M  V30 2322 O 305.331 -6.11849 7.01846 0
M  V30 2323 O 303.549 -4.30744 6.56026 0
M  V30 2324 O 303.586 -6.37042 5.19165 0
M  V30 2325 C 303.426 -7.83578 5.16515 0
M  V30 2326 C 303.966 -8.33398 3.83019 0
M  V30 2327 O 302.91 -8.10074 3.01034 0
M  V30 2328 C 305.184 -7.65514 3.2257 0
M  V30 2329 O 305.922 -8.4329 2.32297 0
M  V30 2330 C 304.515 -6.40075 2.62207 0
M  V30 2331 O 305.314 -5.92589 1.53712 0
M  V30 2332 C 303.178 -6.9454 2.18503 0
M  V30 2333 H 303.21 -7.23063 1.12091 0
M  V30 2334 H 304.393 -5.6025 3.37201 0
M  V30 2335 H 305.877 -7.35707 4.02681 0
M  V30 2336 H 304.183 -9.40912 3.9095 0
M  V30 2337 H 303.993 -8.29056 5.99158 0
M  V30 2338 H 302.363 -8.10073 5.25882 0
M  V30 2339 H 305.002 -6.30324 0.726794 0
M  V30 2340 P 306.859 -8.4349 2.47671 0
M  V30 2341 O 308.281 -8.94167 2.5964 0
M  V30 2342 O 306.499 -7.1704 3.19006 0
M  V30 2343 O 306.536 -8.16596 0.923387 0
M  V30 2344 C 306.376 -9.38437 0.108857 0
M  V30 2345 C 306.916 -9.08175 -1.28353 0
M  V30 2346 O 305.86 -8.44229 -1.84713 0
M  V30 2347 C 308.134 -8.18386 -1.42505 0
M  V30 2348 O 308.872 -8.3501 -2.60497 0
M  V30 2349 C 307.465 -6.80225 -1.25468 0
M  V30 2350 O 308.264 -5.81621 -1.91066 0
M  V30 2351 C 306.128 -7.02416 -1.9168 0
M  V30 2352 H 306.16 -6.6888 -2.96621 0
M  V30 2353 H 307.343 -6.53617 -0.192223 0
M  V30 2354 H 308.827 -8.36622 -0.589963 0
M  V30 2355 H 307.133 -10.0291 -1.79807 0
M  V30 2356 H 306.943 -10.2138 0.558219 0
M  V30 2357 H 305.313 -9.6579 0.0444202 0
M  V30 2358 H 307.952 -5.69556 -2.79637 0
M  V30 2359 P 309.81 -8.4349 -2.47671 0
M  V30 2360 O 311.231 -8.92689 -2.65029 0
M  V30 2361 O 309.45 -7.7568 -1.19296 0
M  V30 2362 O 309.487 -7.36886 -3.63805 0
M  V30 2363 C 309.326 -7.95433 -4.98253 0
M  V30 2364 C 309.867 -6.94612 -5.98974 0
M  V30 2365 O 308.812 -6.10277 -6.11744 0
M  V30 2366 C 311.085 -6.11426 -5.62335 0
M  V30 2367 O 311.823 -5.6162 -6.70584 0
M  V30 2368 C 310.417 -5.04409 -4.73308 0
M  V30 2369 O 311.215 -3.86404 -4.74719 0
M  V30 2370 C 309.079 -4.8728 -5.41006 0
M  V30 2371 N 308.036 -4.65812 -4.42377 0
M  V30 2372 C 308.205 -5.09132 -3.15382 0
M  V30 2373 N 307.178 -4.84021 -2.3716 0
M  V30 2374 C 306.293 -4.18386 -3.20441 0
M  V30 2375 C 305.026 -3.6275 -2.94905 0
M  V30 2376 N 304.461 -3.05008 -4.05243 0
M  V30 2377 C 305.063 -2.98348 -5.28159 0
M  V30 2378 N 306.24 -3.48171 -5.56333 0
M  V30 2379 C 306.815 -4.06869 -4.47212 0
M  V30 2380 H 310.294 -5.39013 -3.70026 0
M  V30 2381 H 311.777 -6.71916 -5.01943 0
M  V30 2382 H 310.083 -7.45796 -6.94223 0
M  V30 2383 H 309.893 -8.89416 -5.05237 0
M  V30 2384 H 308.263 -8.14876 -5.18409 0
M  V30 2385 H 309.105 -5.59989 -2.81362 0
M  V30 2386 H 310.903 -3.27906 -5.43085 0
M  V30 2387 P 312.76 -5.75688 -6.64379 0
M  V30 2388 O 314.182 -6.07627 -7.05504 0
M  V30 2389 O 312.4 -5.88047 -5.19722 0
M  V30 2390 O 312.437 -4.2322 -7.04443 0
M  V30 2391 C 312.277 -3.99743 -8.4911 0
M  V30 2392 C 312.817 -2.60516 -8.79425 0
M  V30 2393 O 311.761 -1.82684 -8.4467 0
M  V30 2394 C 314.035 -2.10343 -8.03628 0
M  V30 2395 O 314.773 -1.09919 -8.67766 0
M  V30 2396 C 313.366 -1.68446 -6.70876 0
M  V30 2397 O 314.165 -0.678137 -6.08433 0
M  V30 2398 C 312.029 -1.17436 -7.18567 0
M  V30 2399 H 312.061 -0.0804732 -7.31656 0
M  V30 2400 H 313.244 -2.54037 -6.02537 0
M  V30 2401 H 314.728 -2.93881 -7.85526 0
M  V30 2402 H 313.034 -2.53065 -9.86973 0
M  V30 2403 H 312.844 -4.75072 -9.05887 0
M  V30 2404 H 311.214 -4.05244 -8.76668 0
M  V30 2405 H 313.853 0.177647 -6.34251 0
M  V30 2406 P 315.711 -1.25109 -8.70152 0
M  V30 2407 O 317.133 -1.29744 -9.22016 0
M  V30 2408 O 315.351 -2.13714 -7.55141 0
M  V30 2409 O 315.388 0.248149 -8.21425 0
M  V30 2410 C 315.228 1.22779 -9.30434 0
M  V30 2411 C 315.768 2.56293 -8.80664 0
M  V30 2412 O 314.712 3.02979 -8.09349 0
M  V30 2413 C 316.986 2.57523 -7.89775 0
M  V30 2414 O 317.724 3.7668 -7.89438 0
M  V30 2415 C 316.317 2.20997 -6.55446 0
M  V30 2416 O 317.116 2.71895 -5.48509 0
M  V30 2417 C 314.98 2.89693 -6.67988 0
M  V30 2418 H 315.012 3.88793 -6.19859 0
M  V30 2419 H 316.195 1.12046 -6.44229 0
M  V30 2420 H 317.679 1.7746 -8.19711 0
M  V30 2421 H 315.985 3.20706 -9.67112 0
M  V30 2422 H 315.795 0.901032 -10.1892 0
M  V30 2423 H 314.165 1.33049 -9.56592 0
M  V30 2424 H 316.804 3.57847 -5.23962 0
M  V30 2425 P 318.662 3.65191 -7.99657 0
M  V30 2426 O 320.084 3.89416 -8.45976 0
M  V30 2427 O 318.302 2.28472 -7.50807 0
M  V30 2428 O 318.339 4.64972 -6.77611 0
M  V30 2429 C 318.179 6.06319 -7.16352 0
M  V30 2430 C 318.719 6.91655 -6.02234 0
M  V30 2431 O 317.664 6.92449 -5.17064 0
M  V30 2432 C 319.937 6.43627 -5.25174 0
M  V30 2433 O 320.675 7.43686 -4.60469 0
M  V30 2434 C 319.269 5.40275 -4.31916 0
M  V30 2435 O 320.067 5.25193 -3.14386 0
M  V30 2436 C 317.931 6.04847 -4.05327 0
M  V30 2437 N 316.888 5.04166 -3.98114 0
M  V30 2438 C 316.95 3.96049 -4.75587 0
M  V30 2439 N 315.905 3.15559 -4.54006 0
M  V30 2440 C 315.171 3.78802 -3.62491 0
M  V30 2441 C 313.865 3.476 -3.10071 0
M  V30 2442 O 313.132 2.51136 -3.37021 0
M  V30 2443 N 313.435 4.39088 -2.19956 0
M  V30 2444 C 314.184 5.53215 -1.81733 0
M  V30 2445 N 313.587 6.31963 -0.860928 0
M  V30 2446 N 315.337 5.86688 -2.32562 0
M  V30 2447 C 315.794 4.97525 -3.23407 0
M  V30 2448 H 317.963 6.62195 -3.11261 0
M  V30 2449 H 319.146 4.42488 -4.8131 0
M  V30 2450 H 320.631 5.93051 -5.9305 0
M  V30 2451 H 318.936 7.92655 -6.402 0
M  V30 2452 H 318.746 6.26671 -8.0846 0
M  V30 2453 H 317.115 6.29101 -7.32804 0
M  V30 2454 H 312.539 4.25523 -1.77604 0
M  V30 2455 H 317.746 3.75576 -5.47333 0
M  V30 2456 H 312.676 6.04684 -0.468946 0
M  V30 2457 H 314.052 7.18054 -0.542422 0
M  V30 2458 H 319.756 5.84223 -2.47279 0
M  V30 2459 P 321.612 7.39546 -4.75277 0
M  V30 2460 O 323.034 7.84798 -5.01039 0
M  V30 2461 O 321.252 5.9812 -5.08098 0
M  V30 2462 O 321.289 7.57503 -3.1866 0
M  V30 2463 C 321.129 8.97357 -2.74833 0
M  V30 2464 C 321.669 9.07548 -1.32709 0
M  V30 2465 O 320.613 8.62072 -0.606159 0
M  V30 2466 C 322.887 8.25383 -0.938334 0
M  V30 2467 O 323.625 8.74577 0.146954 0
M  V30 2468 C 322.218 6.8802 -0.712559 0
M  V30 2469 O 323.017 6.1189 0.194655 0
M  V30 2470 C 320.881 7.27966 -0.139777 0
M  V30 2471 H 320.913 7.25354 0.961601 0
M  V30 2472 H 322.096 6.32557 -1.65702 0
M  V30 2473 H 323.58 8.19355 -1.79097 0
M  V30 2474 H 321.886 10.1294 -1.10029 0
M  V30 2475 H 321.696 9.64276 -3.41316 0
M  V30 2476 H 320.066 9.25417 -2.76357 0
M  V30 2477 H 322.705 6.25267 1.07847 0
M  V30 2478 P 324.563 8.791 1.35267e-12 0
M  V30 2479 O 325.985 9.31096 0.027933 0
M  V30 2480 O 324.203 7.77869 -1.04071 0
M  V30 2481 O 324.24 8.09533 1.41463 0
M  V30 2482 C 324.08 9.0349 2.53943 0
M  V30 2483 C 324.62 8.35226 3.79016 0
M  V30 2484 O 323.564 7.57992 4.15078 0
M  V30 2485 C 325.838 7.45087 3.67298 0
M  V30 2486 O 326.576 7.27796 4.85194 0
M  V30 2487 C 325.169 6.17323 3.12027 0
M  V30 2488 O 325.968 5.04231 3.47188 0
M  V30 2489 C 323.832 6.19961 3.81809 0
M  V30 2490 H 323.864 5.58218 4.73051 0
M  V30 2491 H 325.047 6.21726 2.02589 0
M  V30 2492 H 326.531 7.86112 2.9231 0
M  V30 2493 H 324.837 9.11627 4.55076 0
M  V30 2494 H 324.647 9.9573 2.34194 0
M  V30 2495 H 323.017 9.2792 2.67832 0
M  V30 2496 H 325.656 4.67702 4.28772 0
M  V30 2497 P 327.513 7.39546 4.75277 0
M  V30 2498 O 328.935 7.81777 5.05738 0
M  V30 2499 O 327.153 7.1065 3.32998 0
M  V30 2500 O 327.19 6.04542 5.56673 0
M  V30 2501 C 327.03 6.22772 7.02095 0
M  V30 2502 C 327.57 4.97725 7.70406 0
M  V30 2503 O 326.514 4.13256 7.58987 0
M  V30 2504 C 328.788 4.28231 7.11815 0
M  V30 2505 O 329.526 3.49945 8.01648 0
M  V30 2506 C 328.119 3.5063 5.96244 0
M  V30 2507 O 328.918 2.36482 5.64681 0
M  V30 2508 C 326.782 3.15122 6.56374 0
M  V30 2509 H 326.814 2.13853 6.99751 0
M  V30 2510 H 327.997 4.13501 5.06559 0
M  V30 2511 H 329.481 5.03285 6.70911 0
M  V30 2512 H 327.787 5.20877 8.75697 0
M  V30 2513 H 327.597 7.11046 7.35349 0
M  V30 2514 H 325.967 6.35815 7.26986 0
M  V30 2515 H 328.606 1.61644 6.13565 0
M  V30 2516 P 330.464 3.65191 7.99657 0
M  V30 2517 O 331.886 3.8425 8.48115 0
M  V30 2518 O 330.104 4.17805 6.64342 0
M  V30 2519 O 330.141 2.07613 7.95143 0
M  V30 2520 C 329.981 1.44328 9.27336 0
M  V30 2521 C 330.521 0.0220036 9.17197 0
M  V30 2522 O 329.465 -0.626867 8.61923 0
M  V30 2523 C 331.739 -0.24586 8.30336 0
M  V30 2524 O 332.477 -1.39011 8.63583 0
M  V30 2525 C 331.07 -0.273849 6.91158 0
M  V30 2526 O 331.869 -1.06348 6.02892 0
M  V30 2527 C 329.733 -0.897649 7.22545 0
M  V30 2528 H 329.765 -1.9841 7.04286 0
M  V30 2529 H 330.948 0.739928 6.497 0
M  V30 2530 H 332.432 0.60668 8.36503 0
M  V30 2531 H 330.738 -0.352479 10.1829 0
M  V30 2532 H 330.548 2.00611 10.0304 0
M  V30 2533 H 328.918 1.41843 9.55327 0
M  V30 2534 H 331.557 -1.95734 6.03555 0
M  V30 2535 P 333.414 -1.25109 8.70152 0
M  V30 2536 O 334.835 -1.35288 9.2132 0
M  V30 2537 O 333.054 -0.0769065 7.84762 0
M  V30 2538 O 333.091 -2.55232 7.81161 0
M  V30 2539 C 332.93 -3.79979 8.58246 0
M  V30 2540 C 333.471 -4.94023 7.72785 0
M  V30 2541 O 332.416 -5.18666 6.91125 0
M  V30 2542 C 334.689 -4.69597 6.85231 0
M  V30 2543 O 335.427 -5.83832 6.51337 0
M  V30 2544 C 334.021 -3.96706 5.66633 0
M  V30 2545 O 334.819 -4.14896 4.5003 0
M  V30 2546 C 332.683 -4.66153 5.59313 0
M  V30 2547 N 331.64 -3.71582 5.24027 0
M  V30 2548 C 331.809 -2.39715 5.48833 0
M  V30 2549 N 330.782 -1.65863 5.12845 0
M  V30 2550 C 329.897 -2.57637 4.5973 0
M  V30 2551 C 328.63 -2.40278 4.01027 0
M  V30 2552 N 328.065 -3.57711 3.59575 0
M  V30 2553 C 328.667 -4.80324 3.70476 0
M  V30 2554 N 329.844 -5.01121 4.23801 0
M  V30 2555 C 330.419 -3.84757 4.66372 0
M  V30 2556 H 333.898 -2.8955 5.86187 0
M  V30 2557 H 335.381 -4.0121 7.36511 0
M  V30 2558 H 333.687 -5.81019 8.37003 0
M  V30 2559 H 333.497 -3.73517 9.52265 0
M  V30 2560 H 331.867 -3.97163 8.80359 0
M  V30 2561 H 332.709 -1.98804 5.94332 0
M  V30 2562 H 334.507 -4.90891 4.01857 0
M  V30 2563 P 336.365 -5.75688 6.64379 0
M  V30 2564 O 337.787 -6.11981 7.01997 0
M  V30 2565 O 336.005 -4.30744 6.56026 0
M  V30 2566 O 336.042 -6.37042 5.19165 0
M  V30 2567 C 335.882 -7.83578 5.16515 0
M  V30 2568 C 336.422 -8.33307 3.82977 0
M  V30 2569 O 335.367 -8.10074 3.01034 0
M  V30 2570 C 337.64 -7.65514 3.2257 0
M  V30 2571 O 338.378 -8.4329 2.32297 0
M  V30 2572 C 336.972 -6.40075 2.62207 0
M  V30 2573 O 337.77 -5.92492 1.53687 0
M  V30 2574 C 335.634 -6.9454 2.18503 0
M  V30 2575 N 334.591 -5.95905 2.39948 0
M  V30 2576 C 334.653 -5.13994 3.44742 0
M  V30 2577 N 333.608 -4.30684 3.46712 0
M  V30 2578 C 332.874 -4.65583 2.41086 0
M  V30 2579 C 331.568 -4.20877 1.99581 0
M  V30 2580 O 330.835 -3.35913 2.52616 0
M  V30 2581 N 331.138 -4.83271 0.873406 0
M  V30 2582 C 331.887 -5.82006 0.185129 0
M  V30 2583 N 331.29 -6.30619 -0.95439 0
M  V30 2584 N 333.04 -6.28443 0.578524 0
M  V30 2585 C 333.497 -5.68486 1.70138 0
M  V30 2586 H 335.666 -7.23063 1.12091 0
M  V30 2587 H 336.849 -5.60165 3.3715 0
M  V30 2588 H 338.334 -7.3611 4.01946 0
M  V30 2589 H 336.639 -9.40912 3.9095 0
M  V30 2590 H 336.449 -8.29056 5.99158 0
M  V30 2591 H 334.818 -8.10073 5.25882 0
M  V30 2592 H 330.242 -4.58323 0.505262 0
M  V30 2593 H 335.449 -5.14564 4.1935 0
M  V30 2594 H 330.379 -5.93402 -1.25364 0
M  V30 2595 H 331.755 -7.0425 -1.50254 0
M  V30 2596 H 337.459 -6.30224 0.72668 0
M  V30 2597 P 339.316 -8.4349 2.47671 0
M  V30 2598 O 340.738 -8.94167 2.5964 0
M  V30 2599 O 338.956 -7.1704 3.19006 0
M  V30 2600 O 338.993 -8.16596 0.923387 0
M  V30 2601 C 338.833 -9.38437 0.108857 0
M  V30 2602 C 339.373 -9.08175 -1.28353 0
M  V30 2603 O 338.317 -8.44229 -1.84713 0
M  V30 2604 C 340.591 -8.18386 -1.42505 0
M  V30 2605 O 341.329 -8.3501 -2.60497 0
M  V30 2606 C 339.922 -6.80225 -1.25468 0
M  V30 2607 O 340.721 -5.81621 -1.91066 0
M  V30 2608 C 338.585 -7.02416 -1.9168 0
M  V30 2609 H 338.617 -6.6888 -2.96621 0
M  V30 2610 H 339.8 -6.53617 -0.192223 0
M  V30 2611 H 341.284 -8.36622 -0.589963 0
M  V30 2612 H 339.59 -10.0291 -1.79807 0
M  V30 2613 H 339.4 -10.2138 0.558219 0
M  V30 2614 H 337.77 -9.6579 0.0444202 0
M  V30 2615 H 340.409 -5.69556 -2.79637 0
M  V30 2616 P 342.266 -8.4349 -2.47671 0
M  V30 2617 O 343.688 -8.92593 -2.65 0
M  V30 2618 O 341.906 -7.7568 -1.19296 0
M  V30 2619 O 341.943 -7.36886 -3.63805 0
M  V30 2620 C 341.783 -7.95349 -4.982 0
M  V30 2621 C 342.323 -6.94612 -5.98974 0
M  V30 2622 O 341.267 -6.10347 -6.11815 0
M  V30 2623 C 343.541 -6.11426 -5.62335 0
M  V30 2624 O 344.279 -5.6162 -6.70584 0
M  V30 2625 C 342.872 -5.04409 -4.73308 0
M  V30 2626 O 343.671 -3.85992 -4.75183 0
M  V30 2627 C 341.535 -4.8728 -5.41006 0
M  V30 2628 H 341.567 -4.02333 -6.11157 0
M  V30 2629 H 342.75 -5.39466 -3.69543 0
M  V30 2630 H 344.234 -6.71916 -5.01943 0
M  V30 2631 H 342.54 -7.4649 -6.93477 0
M  V30 2632 H 342.35 -8.89416 -5.05237 0
M  V30 2633 H 340.72 -8.14876 -5.18409 0
M  V30 2634 H 343.359 -3.27957 -5.4317 0
M  V30 2635 P 345.217 -5.75688 -6.64379 0
M  V30 2636 O 346.639 -6.07627 -7.05504 0
M  V30 2637 O 344.857 -5.88047 -5.19722 0
M  V30 2638 O 344.894 -4.2322 -7.04443 0
M  V30 2639 C 344.734 -3.99743 -8.4911 0
M  V30 2640 C 345.274 -2.60516 -8.79425 0
M  V30 2641 O 344.218 -1.82684 -8.4467 0
M  V30 2642 C 346.492 -2.10343 -8.03628 0
M  V30 2643 O 347.23 -1.09919 -8.67766 0
M  V30 2644 C 345.823 -1.68446 -6.70876 0
M  V30 2645 O 346.622 -0.678137 -6.08433 0
M  V30 2646 C 344.486 -1.17436 -7.18567 0
M  V30 2647 H 344.518 -0.0804732 -7.31656 0
M  V30 2648 H 345.701 -2.54037 -6.02537 0
M  V30 2649 H 347.185 -2.93881 -7.85526 0
M  V30 2650 H 345.491 -2.53065 -9.86973 0
M  V30 2651 H 345.301 -4.75072 -9.05887 0
M  V30 2652 H 343.671 -4.05244 -8.76668 0
M  V30 2653 H 346.31 0.177647 -6.34251 0
M  V30 2654 P 348.167 -1.25109 -8.70152 0
M  V30 2655 O 349.588 -1.29758 -9.22115 0
M  V30 2656 O 347.807 -2.13714 -7.55141 0
M  V30 2657 O 347.844 0.248149 -8.21425 0
M  V30 2658 C 347.683 1.22792 -9.30533 0
M  V30 2659 C 348.224 2.56293 -8.80664 0
M  V30 2660 O 347.169 3.02944 -8.09255 0
M  V30 2661 C 349.442 2.57523 -7.89775 0
M  V30 2662 O 350.18 3.7668 -7.89438 0
M  V30 2663 C 348.774 2.20997 -6.55446 0
M  V30 2664 O 349.572 2.71302 -5.48691 0
M  V30 2665 C 347.436 2.89693 -6.67988 0
M  V30 2666 N 346.393 2.08895 -6.07487 0
M  V30 2667 C 346.562 0.753809 -5.94137 0
M  V30 2668 N 345.535 0.146592 -5.38801 0
M  V30 2669 C 344.65 1.1768 -5.13693 0
M  V30 2670 C 343.383 1.17563 -4.52477 0
M  V30 2671 N 342.784 0.057481 -4.04759 0
M  V30 2672 N 342.818 2.41918 -4.45789 0
M  V30 2673 C 343.42 3.56493 -4.90792 0
M  V30 2674 N 344.597 3.61423 -5.47817 0
M  V30 2675 C 345.172 2.37779 -5.5588 0
M  V30 2676 H 347.468 3.8874 -6.19774 0
M  V30 2677 H 348.651 1.12673 -6.44018 0
M  V30 2678 H 350.134 1.7746 -8.19711 0
M  V30 2679 H 348.44 3.21673 -9.66791 0
M  V30 2680 H 348.25 0.901032 -10.1892 0
M  V30 2681 H 346.62 1.33049 -9.56592 0
M  V30 2682 H 342.884 4.49919 -4.77947 0
M  V30 2683 H 347.462 0.233081 -6.26266 0
M  V30 2684 H 341.854 0.119831 -3.60801 0
M  V30 2685 H 343.258 -0.852272 -4.12385 0
M  V30 2686 H 349.26 3.5779 -5.23879 0
M  V30 2687 P 351.118 3.65191 -7.99657 0
M  V30 2688 O 352.519 3.87414 -8.52829 0
M  V30 2689 O 350.74 2.26932 -7.566 0
M  V30 2690 O 350.795 4.64915 -6.77529 0
M  V30 2691 C 350.635 6.06319 -7.16352 0
M  V30 2692 C 351.175 6.91655 -6.02234 0
M  V30 2693 O 350.119 6.92369 -5.17005 0
M  V30 2694 C 352.392 6.43627 -5.25174 0
M  V30 2695 O 353.131 7.43686 -4.60469 0
M  V30 2696 C 351.725 5.40275 -4.31916 0
M  V30 2697 O 352.523 5.25193 -3.14386 0
M  V30 2698 C 350.387 6.04847 -4.05327 0
M  V30 2699 N 349.344 5.04166 -3.98114 0
M  V30 2700 C 348.309 5.2366 -3.09923 0
M  V30 2701 O 348.348 6.23355 -2.34204 0
M  V30 2702 N 347.297 4.34279 -3.05727 0
M  V30 2703 C 347.345 3.26317 -3.84756 0
M  V30 2704 C 348.441 3.02504 -4.72573 0
M  V30 2705 C 349.407 3.94493 -4.76618 0
M  V30 2706 H 350.419 6.62104 -3.11218 0
M  V30 2707 H 351.602 4.42969 -4.80867 0
M  V30 2708 H 353.086 5.93122 -5.93121 0
M  V30 2709 H 351.392 7.93295 -6.39407 0
M  V30 2710 H 351.201 6.26671 -8.0846 0
M  V30 2711 H 349.571 6.29036 -7.32728 0
M  V30 2712 H 348.489 2.12921 -5.34017 0
M  V30 2713 H 350.253 3.80658 -5.44176 0
M  V30 2714 H 352.307 5.93572 -2.52637 0
M  V30 2715 P 354.068 7.39546 -4.75277 0
M  V30 2716 O 355.49 7.84798 -5.01039 0
M  V30 2717 O 353.708 5.9812 -5.08098 0
M  V30 2718 O 353.745 7.57503 -3.1866 0
M  V30 2719 C 353.585 8.97357 -2.74833 0
M  V30 2720 C 354.125 9.07548 -1.32709 0
M  V30 2721 O 353.069 8.62072 -0.606159 0
M  V30 2722 C 355.343 8.25383 -0.938334 0
M  V30 2723 O 356.081 8.74577 0.146954 0
M  V30 2724 C 354.674 6.8802 -0.712559 0
M  V30 2725 O 355.473 6.1189 0.194655 0
M  V30 2726 C 353.337 7.27966 -0.139777 0
M  V30 2727 H 353.369 7.25354 0.961601 0
M  V30 2728 H 354.552 6.32557 -1.65702 0
M  V30 2729 H 356.036 8.19355 -1.79097 0
M  V30 2730 H 354.342 10.1294 -1.10029 0
M  V30 2731 H 354.152 9.64276 -3.41316 0
M  V30 2732 H 352.522 9.25417 -2.76357 0
M  V30 2733 H 355.161 6.25267 1.07847 0
M  V30 2734 P 357.019 8.791 1.66284e-12 0
M  V30 2735 O 358.44 9.31196 0.027936 0
M  V30 2736 O 356.659 7.77869 -1.04071 0
M  V30 2737 O 356.696 8.09533 1.41463 0
M  V30 2738 C 356.535 9.03587 2.5397 0
M  V30 2739 C 357.076 8.35226 3.79016 0
M  V30 2740 O 356.021 7.57904 4.1503 0
M  V30 2741 C 358.294 7.45087 3.67298 0
M  V30 2742 O 359.032 7.27796 4.85194 0
M  V30 2743 C 357.626 6.17323 3.12027 0
M  V30 2744 O 358.424 5.04496 3.46627 0
M  V30 2745 C 356.288 6.19961 3.81809 0
M  V30 2746 N 355.245 5.71575 2.93223 0
M  V30 2747 C 355.414 5.77362 1.59168 0
M  V30 2748 N 354.387 5.3123 0.911893 0
M  V30 2749 C 353.502 4.91717 1.89588 0
M  V30 2750 C 352.235 4.3114 1.8076 0
M  V30 2751 N 351.67 4.06823 3.02898 0
M  V30 2752 C 352.272 4.35062 4.22711 0
M  V30 2753 N 353.449 4.90805 4.35707 0
M  V30 2754 C 354.024 5.16382 3.14469 0
M  V30 2755 H 357.503 6.21428 2.0318 0
M  V30 2756 H 358.986 7.86112 2.9231 0
M  V30 2757 H 357.292 9.11171 4.55987 0
M  V30 2758 H 357.102 9.9573 2.34194 0
M  V30 2759 H 355.472 9.2792 2.67832 0
M  V30 2760 H 356.314 6.16575 1.12198 0
M  V30 2761 H 358.112 4.67628 4.28704 0
M  V30 2762 P 359.97 7.39546 4.75277 0
M  V30 2763 O 361.392 7.81777 5.05738 0
M  V30 2764 O 359.61 7.1065 3.32998 0
M  V30 2765 O 359.647 6.04542 5.56673 0
M  V30 2766 C 359.487 6.22772 7.02095 0
M  V30 2767 C 360.027 4.97725 7.70406 0
M  V30 2768 O 358.971 4.13256 7.58987 0
M  V30 2769 C 361.245 4.28231 7.11815 0
M  V30 2770 O 361.983 3.49945 8.01648 0
M  V30 2771 C 360.576 3.5063 5.96244 0
M  V30 2772 O 361.375 2.36482 5.64681 0
M  V30 2773 C 359.239 3.15122 6.56374 0
M  V30 2774 H 359.271 2.13853 6.99751 0
M  V30 2775 H 360.454 4.13501 5.06559 0
M  V30 2776 H 361.938 5.03285 6.70911 0
M  V30 2777 H 360.244 5.20877 8.75697 0
M  V30 2778 H 360.054 7.11046 7.35349 0
M  V30 2779 H 358.424 6.35815 7.26986 0
M  V30 2780 H 361.063 1.61644 6.13565 0
M  V30 2781 P 362.92 3.65191 7.99657 0
M  V30 2782 O 364.342 3.8425 8.48115 0
M  V30 2783 O 362.56 4.17805 6.64342 0
M  V30 2784 O 362.597 2.07613 7.95143 0
M  V30 2785 C 362.437 1.44328 9.27336 0
M  V30 2786 C 362.977 0.0220036 9.17197 0
M  V30 2787 O 361.921 -0.626867 8.61923 0
M  V30 2788 C 364.195 -0.24586 8.30336 0
M  V30 2789 O 364.933 -1.39011 8.63583 0
M  V30 2790 C 363.526 -0.273849 6.91158 0
M  V30 2791 O 364.325 -1.06348 6.02892 0
M  V30 2792 C 362.189 -0.897649 7.22545 0
M  V30 2793 H 362.221 -1.9841 7.04286 0
M  V30 2794 H 363.404 0.739928 6.497 0
M  V30 2795 H 364.888 0.60668 8.36503 0
M  V30 2796 H 363.194 -0.352479 10.1829 0
M  V30 2797 H 363.004 2.00611 10.0304 0
M  V30 2798 H 361.374 1.41843 9.55327 0
M  V30 2799 H 364.013 -1.95734 6.03555 0
M  V30 2800 P 365.871 -1.25109 8.70152 0
M  V30 2801 O 367.293 -1.35274 9.21221 0
M  V30 2802 O 365.511 -0.0769065 7.84762 0
M  V30 2803 O 365.548 -2.55232 7.81161 0
M  V30 2804 C 365.388 -3.79939 8.58154 0
M  V30 2805 C 365.928 -4.94023 7.72785 0
M  V30 2806 O 364.872 -5.18726 6.91205 0
M  V30 2807 C 367.146 -4.69597 6.85231 0
M  V30 2808 O 367.884 -5.83832 6.51337 0
M  V30 2809 C 366.477 -3.96706 5.66633 0
M  V30 2810 O 367.276 -4.15414 4.49689 0
M  V30 2811 C 365.14 -4.66153 5.59313 0
M  V30 2812 H 365.172 -5.47679 4.85214 0
M  V30 2813 H 366.355 -2.89008 5.86566 0
M  V30 2814 H 367.839 -4.0121 7.36511 0
M  V30 2815 H 366.145 -5.80182 8.37584 0
M  V30 2816 H 365.955 -3.73517 9.52265 0
M  V30 2817 H 364.325 -3.97163 8.80359 0
M  V30 2818 H 366.964 -4.90969 4.01921 0
M  V30 2819 P 368.821 -5.75688 6.64379 0
M  V30 2820 O 370.243 -6.11849 7.01846 0
M  V30 2821 O 368.461 -4.30744 6.56026 0
M  V30 2822 O 368.498 -6.37042 5.19165 0
M  V30 2823 C 368.338 -7.83578 5.16515 0
M  V30 2824 C 368.878 -8.33398 3.83019 0
M  V30 2825 O 367.822 -8.10074 3.01034 0
M  V30 2826 C 370.096 -7.65514 3.2257 0
M  V30 2827 O 370.834 -8.4329 2.32297 0
M  V30 2828 C 369.427 -6.40075 2.62207 0
M  V30 2829 O 370.226 -5.92589 1.53712 0
M  V30 2830 C 368.09 -6.9454 2.18503 0
M  V30 2831 H 368.122 -7.23063 1.12091 0
M  V30 2832 H 369.305 -5.6025 3.37201 0
M  V30 2833 H 370.789 -7.35707 4.02681 0
M  V30 2834 H 369.095 -9.40912 3.9095 0
M  V30 2835 H 368.905 -8.29056 5.99158 0
M  V30 2836 H 367.275 -8.10073 5.25882 0
M  V30 2837 H 369.914 -6.30324 0.726794 0
M  V30 2838 P 371.772 -8.4349 2.47671 0
M  V30 2839 O 373.194 -8.94359 2.59696 0
M  V30 2840 O 371.412 -7.1704 3.19006 0
M  V30 2841 O 371.449 -8.16596 0.923387 0
M  V30 2842 C 371.289 -9.38437 0.108857 0
M  V30 2843 C 371.829 -9.08076 -1.28339 0
M  V30 2844 O 370.774 -8.44229 -1.84713 0
M  V30 2845 C 373.047 -8.18386 -1.42505 0
M  V30 2846 O 373.785 -8.3501 -2.60497 0
M  V30 2847 C 372.379 -6.80225 -1.25468 0
M  V30 2848 O 373.177 -5.81526 -1.91035 0
M  V30 2849 C 371.041 -7.02416 -1.9168 0
M  V30 2850 N 369.998 -6.31033 -1.20314 0
M  V30 2851 C 370.06 -6.18781 0.121293 0
M  V30 2852 N 369.015 -5.49762 0.588272 0
M  V30 2853 C 368.281 -5.22015 -0.488988 0
M  V30 2854 C 366.975 -4.61966 -0.596448 0
M  V30 2855 O 366.242 -4.19162 0.309059 0
M  V30 2856 N 366.545 -4.53773 -1.878 0
M  V30 2857 C 367.294 -4.99623 -2.99082 0
M  V30 2858 N 366.697 -4.78912 -4.21227 0
M  V30 2859 N 368.447 -5.59957 -2.91093 0
M  V30 2860 C 368.904 -5.70225 -1.64218 0
M  V30 2861 H 371.073 -6.6888 -2.96621 0
M  V30 2862 H 372.256 -6.53517 -0.192194 0
M  V30 2863 H 373.741 -8.36563 -0.598329 0
M  V30 2864 H 372.046 -10.0291 -1.79807 0
M  V30 2865 H 371.856 -10.2138 0.558219 0
M  V30 2866 H 370.225 -9.6579 0.0444202 0
M  V30 2867 H 365.649 -4.12883 -2.05283 0
M  V30 2868 H 370.856 -6.59596 0.745856 0
M  V30 2869 H 365.786 -4.31425 -4.2628 0
M  V30 2870 H 367.162 -5.11219 -5.07148 0
M  V30 2871 H 372.866 -5.69466 -2.79593 0
M  V30 2872 P 374.722 -8.4349 -2.47671 0
M  V30 2873 O 376.144 -8.92593 -2.65 0
M  V30 2874 O 374.362 -7.7568 -1.19296 0
M  V30 2875 O 374.399 -7.36886 -3.63805 0
M  V30 2876 C 374.239 -7.95349 -4.982 0
M  V30 2877 C 374.779 -6.94612 -5.98974 0
M  V30 2878 O 373.723 -6.10347 -6.11815 0
M  V30 2879 C 375.997 -6.11426 -5.62335 0
M  V30 2880 O 376.735 -5.6162 -6.70584 0
M  V30 2881 C 375.328 -5.04409 -4.73308 0
M  V30 2882 O 376.127 -3.85992 -4.75183 0
M  V30 2883 C 373.991 -4.8728 -5.41006 0
M  V30 2884 H 374.023 -4.02333 -6.11157 0
M  V30 2885 H 375.206 -5.39466 -3.69543 0
M  V30 2886 H 376.69 -6.71916 -5.01943 0
M  V30 2887 H 374.996 -7.4649 -6.93477 0
M  V30 2888 H 374.806 -8.89416 -5.05237 0
M  V30 2889 H 373.176 -8.14876 -5.18409 0
M  V30 2890 H 375.815 -3.27957 -5.4317 0
M  V30 2891 P 377.673 -5.75688 -6.64379 0
M  V30 2892 O 379.094 -6.07692 -7.0558 0
M  V30 2893 O 377.313 -5.88047 -5.19722 0
M  V30 2894 O 377.35 -4.2322 -7.04443 0
M  V30 2895 C 377.189 -3.99785 -8.49201 0
M  V30 2896 C 377.73 -2.60516 -8.79425 0
M  V30 2897 O 376.675 -1.82663 -8.44573 0
M  V30 2898 C 378.948 -2.10343 -8.03628 0
M  V30 2899 O 379.686 -1.09919 -8.67766 0
M  V30 2900 C 378.28 -1.68446 -6.70876 0
M  V30 2901 O 379.078 -0.684109 -6.08265 0
M  V30 2902 C 376.942 -1.17436 -7.18567 0
M  V30 2903 N 375.899 -1.52699 -6.23988 0
M  V30 2904 C 376.068 -2.578 -5.40574 0
M  V30 2905 N 375.041 -2.78966 -4.61193 0
M  V30 2906 C 374.156 -1.78725 -4.95769 0
M  V30 2907 C 372.889 -1.45727 -4.44207 0
M  V30 2908 N 372.29 -2.13994 -3.43613 0
M  V30 2909 N 372.324 -0.374977 -5.05812 0
M  V30 2910 C 372.926 0.345585 -6.05615 0
M  V30 2911 N 374.103 0.0787651 -6.56253 0
M  V30 2912 C 374.678 -1.00499 -5.96189 0
M  V30 2913 H 376.974 -0.0804622 -7.31556 0
M  V30 2914 H 378.157 -2.53396 -6.02698 0
M  V30 2915 H 379.64 -2.93881 -7.85526 0
M  V30 2916 H 377.946 -2.52078 -9.87225 0
M  V30 2917 H 377.756 -4.75072 -9.05887 0
M  V30 2918 H 376.126 -4.05244 -8.76668 0
M  V30 2919 H 372.39 1.20098 -6.4532 0
M  V30 2920 H 376.968 -3.18977 -5.3945 0
M  V30 2921 H 371.36 -1.84983 -3.10004 0
M  V30 2922 H 372.764 -2.9465 -3.00843 0
M  V30 2923 H 378.766 0.177619 -6.34151 0
M  V30 2924 P 380.624 -1.25109 -8.70152 0
M  V30 2925 O 382.046 -1.29744 -9.22016 0
M  V30 2926 O 380.264 -2.13714 -7.55141 0
M  V30 2927 O 380.301 0.248149 -8.21425 0
M  V30 2928 C 380.141 1.22779 -9.30434 0
M  V30 2929 C 380.681 2.56293 -8.80664 0
M  V30 2930 O 379.625 3.02979 -8.09349 0
M  V30 2931 C 381.899 2.57523 -7.89775 0
M  V30 2932 O 382.637 3.7668 -7.89438 0
M  V30 2933 C 381.23 2.20997 -6.55446 0
M  V30 2934 O 382.029 2.71895 -5.48509 0
M  V30 2935 C 379.893 2.89693 -6.67988 0
M  V30 2936 H 379.925 3.88793 -6.19859 0
M  V30 2937 H 381.108 1.12046 -6.44229 0
M  V30 2938 H 382.592 1.7746 -8.19711 0
M  V30 2939 H 380.898 3.20706 -9.67112 0
M  V30 2940 H 380.708 0.901032 -10.1892 0
M  V30 2941 H 379.078 1.33049 -9.56592 0
M  V30 2942 H 381.717 3.57847 -5.23962 0
M  V30 2943 P 383.574 3.65191 -7.99657 0
M  V30 2944 O 384.996 3.89332 -8.45794 0
M  V30 2945 O 383.214 2.28472 -7.50807 0
M  V30 2946 O 383.251 4.64972 -6.77611 0
M  V30 2947 C 383.091 6.06319 -7.16352 0
M  V30 2948 C 383.631 6.91731 -6.02299 0
M  V30 2949 O 382.575 6.92449 -5.17064 0
M  V30 2950 C 384.849 6.43627 -5.25174 0
M  V30 2951 O 385.587 7.43686 -4.60469 0
M  V30 2952 C 384.18 5.40275 -4.31916 0
M  V30 2953 O 384.979 5.25279 -3.14438 0
M  V30 2954 C 382.843 6.04847 -4.05327 0
M  V30 2955 H 382.875 6.62195 -3.11261 0
M  V30 2956 H 384.058 4.42556 -4.81383 0
M  V30 2957 H 385.542 5.92458 -5.93643 0
M  V30 2958 H 383.848 7.92655 -6.402 0
M  V30 2959 H 383.658 6.26671 -8.0846 0
M  V30 2960 H 382.028 6.29101 -7.32804 0
M  V30 2961 H 384.667 5.84315 -2.47318 0
M  V30 2962 P 386.525 7.39546 -4.75277 0
M  V30 2963 O 387.947 7.84798 -5.01039 0
M  V30 2964 O 386.165 5.9812 -5.08098 0
M  V30 2965 O 386.202 7.57503 -3.1866 0
M  V30 2966 C 386.042 8.97357 -2.74833 0
M  V30 2967 C 386.582 9.07548 -1.32709 0
M  V30 2968 O 385.526 8.62072 -0.606159 0
M  V30 2969 C 387.8 8.25383 -0.938334 0
M  V30 2970 O 388.538 8.74577 0.146954 0
M  V30 2971 C 387.131 6.8802 -0.712559 0
M  V30 2972 O 387.93 6.1189 0.194655 0
M  V30 2973 C 385.794 7.27966 -0.139777 0
M  V30 2974 H 385.826 7.25354 0.961601 0
M  V30 2975 H 387.009 6.32557 -1.65702 0
M  V30 2976 H 388.493 8.19355 -1.79097 0
M  V30 2977 H 386.799 10.1294 -1.10029 0
M  V30 2978 H 386.609 9.64276 -3.41316 0
M  V30 2979 H 384.979 9.25417 -2.76357 0
M  V30 2980 H 387.618 6.25267 1.07847 0
M  V30 2981 P 389.475 8.791 1.973e-12 0
M  V30 2982 O 390.897 9.31096 0.027933 0
M  V30 2983 O 389.115 7.77869 -1.04071 0
M  V30 2984 O 389.152 8.09533 1.41463 0
M  V30 2985 C 388.992 9.0349 2.53943 0
M  V30 2986 C 389.532 8.35226 3.79016 0
M  V30 2987 O 388.476 7.57992 4.15078 0
M  V30 2988 C 390.75 7.45087 3.67298 0
M  V30 2989 O 391.488 7.27796 4.85194 0
M  V30 2990 C 390.081 6.17323 3.12027 0
M  V30 2991 O 390.88 5.04231 3.47188 0
M  V30 2992 C 388.744 6.19961 3.81809 0
M  V30 2993 H 388.776 5.58218 4.73051 0
M  V30 2994 H 389.959 6.21726 2.02589 0
M  V30 2995 H 391.443 7.86112 2.9231 0
M  V30 2996 H 389.749 9.11627 4.55076 0
M  V30 2997 H 389.559 9.9573 2.34194 0
M  V30 2998 H 387.929 9.2792 2.67832 0
M  V30 2999 H 390.568 4.67702 4.28772 0
M  V30 3000 P 392.426 7.39546 4.75277 0
M  V30 3001 O 393.848 7.81777 5.05738 0
M  V30 3002 O 392.066 7.1065 3.32998 0
M  V30 3003 O 392.103 6.04542 5.56673 0
M  V30 3004 C 391.943 6.22772 7.02095 0
M  V30 3005 C 392.483 4.97725 7.70406 0
M  V30 3006 O 391.427 4.13256 7.58987 0
M  V30 3007 C 393.701 4.28231 7.11815 0
M  V30 3008 O 394.439 3.49945 8.01648 0
M  V30 3009 C 393.032 3.5063 5.96244 0
M  V30 3010 O 393.831 2.36482 5.64681 0
M  V30 3011 C 391.695 3.15122 6.56374 0
M  V30 3012 H 391.727 2.13853 6.99751 0
M  V30 3013 H 392.91 4.13501 5.06559 0
M  V30 3014 H 394.394 5.03285 6.70911 0
M  V30 3015 H 392.7 5.20877 8.75697 0
M  V30 3016 H 392.51 7.11046 7.35349 0
M  V30 3017 H 390.88 6.35815 7.26986 0
M  V30 3018 H 393.519 1.61644 6.13565 0
M  V30 3019 P 395.376 3.65191 7.99657 0
M  V30 3020 O 396.798 3.8425 8.48115 0
M  V30 3021 O 395.016 4.17805 6.64342 0
M  V30 3022 O 395.053 2.07613 7.95143 0
M  V30 3023 C 394.893 1.44328 9.27336 0
M  V30 3024 C 395.433 0.0220036 9.17197 0
M  V30 3025 O 394.377 -0.626867 8.61923 0
M  V30 3026 C 396.651 -0.24586 8.30336 0
M  V30 3027 O 397.389 -1.39011 8.63583 0
M  V30 3028 C 395.982 -0.273849 6.91158 0
M  V30 3029 O 396.781 -1.06348 6.02892 0
M  V30 3030 C 394.645 -0.897649 7.22545 0
M  V30 3031 H 394.677 -1.9841 7.04286 0
M  V30 3032 H 395.86 0.739928 6.497 0
M  V30 3033 H 397.344 0.60668 8.36503 0
M  V30 3034 H 395.65 -0.352479 10.1829 0
M  V30 3035 H 395.46 2.00611 10.0304 0
M  V30 3036 H 393.83 1.41843 9.55327 0
M  V30 3037 H 396.469 -1.95734 6.03555 0
M  V30 3038 P 398.327 -1.25109 8.70152 0
M  V30 3039 O 399.748 -1.35288 9.2132 0
M  V30 3040 O 397.967 -0.0769065 7.84762 0
M  V30 3041 O 398.004 -2.55232 7.81161 0
M  V30 3042 C 397.843 -3.79979 8.58246 0
M  V30 3043 C 398.384 -4.94023 7.72785 0
M  V30 3044 O 397.329 -5.18666 6.91125 0
M  V30 3045 C 399.602 -4.69597 6.85231 0
M  V30 3046 O 400.34 -5.83832 6.51337 0
M  V30 3047 C 398.934 -3.96706 5.66633 0
M  V30 3048 O 399.732 -4.14896 4.5003 0
M  V30 3049 C 397.596 -4.66153 5.59313 0
M  V30 3050 N 396.553 -3.71582 5.24027 0
M  V30 3051 C 396.722 -2.39715 5.48833 0
M  V30 3052 N 395.695 -1.65863 5.12845 0
M  V30 3053 C 394.81 -2.57637 4.5973 0
M  V30 3054 C 393.543 -2.40278 4.01027 0
M  V30 3055 N 392.978 -3.57711 3.59575 0
M  V30 3056 C 393.58 -4.80324 3.70476 0
M  V30 3057 N 394.757 -5.01121 4.23801 0
M  V30 3058 C 395.332 -3.84757 4.66372 0
M  V30 3059 H 398.811 -2.8955 5.86187 0
M  V30 3060 H 400.294 -4.0121 7.36511 0
M  V30 3061 H 398.6 -5.81019 8.37003 0
M  V30 3062 H 398.41 -3.73517 9.52265 0
M  V30 3063 H 396.78 -3.97163 8.80359 0
M  V30 3064 H 397.622 -1.98804 5.94332 0
M  V30 3065 H 399.42 -4.90891 4.01857 0
M  V30 3066 P 401.278 -5.75688 6.64379 0
M  V30 3067 O 402.7 -6.11849 7.01846 0
M  V30 3068 O 400.918 -4.30744 6.56026 0
M  V30 3069 O 400.955 -6.37042 5.19165 0
M  V30 3070 C 400.795 -7.83578 5.16515 0
M  V30 3071 C 401.335 -8.33398 3.83019 0
M  V30 3072 O 400.279 -8.10074 3.01034 0
M  V30 3073 C 402.553 -7.65514 3.2257 0
M  V30 3074 O 403.291 -8.4329 2.32297 0
M  V30 3075 C 401.884 -6.40075 2.62207 0
M  V30 3076 O 402.683 -5.92589 1.53712 0
M  V30 3077 C 400.547 -6.9454 2.18503 0
M  V30 3078 H 400.579 -7.23063 1.12091 0
M  V30 3079 H 401.762 -5.6025 3.37201 0
M  V30 3080 H 403.246 -7.35707 4.02681 0
M  V30 3081 H 401.552 -9.40912 3.9095 0
M  V30 3082 H 401.362 -8.29056 5.99158 0
M  V30 3083 H 399.732 -8.10073 5.25882 0
M  V30 3084 H 402.371 -6.30324 0.726794 0
M  V30 3085 P 404.228 -8.4349 2.47671 0
M  V30 3086 O 405.65 -8.94167 2.5964 0
M  V30 3087 O 403.868 -7.1704 3.19006 0
M  V30 3088 O 403.905 -8.16596 0.923387 0
M  V30 3089 C 403.745 -9.38437 0.108857 0
M  V30 3090 C 404.285 -9.08175 -1.28353 0
M  V30 3091 O 403.229 -8.44229 -1.84713 0
M  V30 3092 C 405.503 -8.18386 -1.42505 0
M  V30 3093 O 406.241 -8.3501 -2.60497 0
M  V30 3094 C 404.834 -6.80225 -1.25468 0
M  V30 3095 O 405.633 -5.81621 -1.91066 0
M  V30 3096 C 403.497 -7.02416 -1.9168 0
M  V30 3097 H 403.529 -6.6888 -2.96621 0
M  V30 3098 H 404.712 -6.53617 -0.192223 0
M  V30 3099 H 406.196 -8.36622 -0.589963 0
M  V30 3100 H 404.502 -10.0291 -1.79807 0
M  V30 3101 H 404.312 -10.2138 0.558219 0
M  V30 3102 H 402.682 -9.6579 0.0444202 0
M  V30 3103 H 405.321 -5.69556 -2.79637 0
M  V30 3104 P 407.179 -8.4349 -2.47671 0
M  V30 3105 O 408.601 -8.92593 -2.65 0
M  V30 3106 O 406.819 -7.7568 -1.19296 0
M  V30 3107 O 406.856 -7.36886 -3.63805 0
M  V30 3108 C 406.696 -7.95349 -4.982 0
M  V30 3109 C 407.236 -6.94612 -5.98974 0
M  V30 3110 O 406.18 -6.10347 -6.11815 0
M  V30 3111 C 408.454 -6.11426 -5.62335 0
M  V30 3112 O 409.192 -5.6162 -6.70584 0
M  V30 3113 C 407.785 -5.04409 -4.73308 0
M  V30 3114 O 408.584 -3.85992 -4.75183 0
M  V30 3115 C 406.448 -4.8728 -5.41006 0
M  V30 3116 H 406.48 -4.02333 -6.11157 0
M  V30 3117 H 407.663 -5.39466 -3.69543 0
M  V30 3118 H 409.147 -6.71916 -5.01943 0
M  V30 3119 H 407.453 -7.4649 -6.93477 0
M  V30 3120 H 407.263 -8.89416 -5.05237 0
M  V30 3121 H 405.633 -8.14876 -5.18409 0
M  V30 3122 H 408.272 -3.27957 -5.4317 0
M  V30 3123 P 410.129 -5.75688 -6.64379 0
M  V30 3124 O 411.551 -6.07627 -7.05504 0
M  V30 3125 O 409.769 -5.88047 -5.19722 0
M  V30 3126 O 409.806 -4.2322 -7.04443 0
M  V30 3127 C 409.646 -3.99743 -8.4911 0
M  V30 3128 C 410.186 -2.60516 -8.79425 0
M  V30 3129 O 409.13 -1.82684 -8.4467 0
M  V30 3130 C 411.404 -2.10343 -8.03628 0
M  V30 3131 O 412.142 -1.09919 -8.67766 0
M  V30 3132 C 410.735 -1.68446 -6.70876 0
M  V30 3133 O 411.534 -0.678137 -6.08433 0
M  V30 3134 C 409.398 -1.17436 -7.18567 0
M  V30 3135 H 409.43 -0.0804732 -7.31656 0
M  V30 3136 H 410.613 -2.54037 -6.02537 0
M  V30 3137 H 412.097 -2.93881 -7.85526 0
M  V30 3138 H 410.403 -2.53065 -9.86973 0
M  V30 3139 H 410.213 -4.75072 -9.05887 0
M  V30 3140 H 408.583 -4.05244 -8.76668 0
M  V30 3141 H 411.222 0.177647 -6.34251 0
M  V30 3142 P 413.08 -1.25109 -8.70152 0
M  V30 3143 O 414.502 -1.29744 -9.22016 0
M  V30 3144 O 412.72 -2.13714 -7.55141 0
M  V30 3145 O 412.757 0.248149 -8.21425 0
M  V30 3146 C 412.597 1.22779 -9.30434 0
M  V30 3147 C 413.137 2.56293 -8.80664 0
M  V30 3148 O 412.081 3.02979 -8.09349 0
M  V30 3149 C 414.355 2.57523 -7.89775 0
M  V30 3150 O 415.093 3.7668 -7.89438 0
M  V30 3151 C 413.686 2.20997 -6.55446 0
M  V30 3152 O 414.485 2.71895 -5.48509 0
M  V30 3153 C 412.349 2.89693 -6.67988 0
M  V30 3154 H 412.381 3.88793 -6.19859 0
M  V30 3155 H 413.564 1.12046 -6.44229 0
M  V30 3156 H 415.048 1.7746 -8.19711 0
M  V30 3157 H 413.354 3.20706 -9.67112 0
M  V30 3158 H 413.164 0.901032 -10.1892 0
M  V30 3159 H 411.534 1.33049 -9.56592 0
M  V30 3160 H 414.173 3.57847 -5.23962 0
M  V30 3161 P 416.03 3.65191 -7.99657 0
M  V30 3162 O 417.452 3.89416 -8.45976 0
M  V30 3163 O 415.67 2.28472 -7.50807 0
M  V30 3164 O 415.707 4.64972 -6.77611 0
M  V30 3165 C 415.547 6.06319 -7.16352 0
M  V30 3166 C 416.087 6.91655 -6.02234 0
M  V30 3167 O 415.032 6.92449 -5.17064 0
M  V30 3168 C 417.305 6.43627 -5.25174 0
M  V30 3169 O 418.043 7.43686 -4.60469 0
M  V30 3170 C 416.637 5.40275 -4.31916 0
M  V30 3171 O 417.435 5.25193 -3.14386 0
M  V30 3172 C 415.299 6.04847 -4.05327 0
M  V30 3173 N 414.256 5.04166 -3.98114 0
M  V30 3174 C 414.318 3.96049 -4.75587 0
M  V30 3175 N 413.273 3.15559 -4.54006 0
M  V30 3176 C 412.539 3.78802 -3.62491 0
M  V30 3177 C 411.233 3.476 -3.10071 0
M  V30 3178 O 410.5 2.51136 -3.37021 0
M  V30 3179 N 410.803 4.39088 -2.19956 0
M  V30 3180 C 411.552 5.53215 -1.81733 0
M  V30 3181 N 410.955 6.31963 -0.860928 0
M  V30 3182 N 412.705 5.86688 -2.32562 0
M  V30 3183 C 413.162 4.97525 -3.23407 0
M  V30 3184 H 415.331 6.62195 -3.11261 0
M  V30 3185 H 416.514 4.42488 -4.8131 0
M  V30 3186 H 417.999 5.93051 -5.9305 0
M  V30 3187 H 416.304 7.92655 -6.402 0
M  V30 3188 H 416.114 6.26671 -8.0846 0
M  V30 3189 H 414.483 6.29101 -7.32804 0
M  V30 3190 H 409.907 4.25523 -1.77604 0
M  V30 3191 H 415.114 3.75576 -5.47333 0
M  V30 3192 H 410.044 6.04684 -0.468946 0
M  V30 3193 H 411.42 7.18054 -0.542422 0
M  V30 3194 H 417.124 5.84223 -2.47279 0
M  V30 3195 P 418.981 7.39546 -4.75277 0
M  V30 3196 O 420.403 7.84966 -5.01146 0
M  V30 3197 O 418.621 5.9812 -5.08098 0
M  V30 3198 O 418.658 7.57503 -3.1866 0
M  V30 3199 C 418.498 8.97357 -2.74833 0
M  V30 3200 C 419.038 9.0745 -1.32694 0
M  V30 3201 O 417.983 8.62072 -0.606159 0
M  V30 3202 C 420.256 8.25383 -0.938334 0
M  V30 3203 O 420.994 8.74577 0.146954 0
M  V30 3204 C 419.588 6.8802 -0.712559 0
M  V30 3205 O 420.386 6.11791 0.194623 0
M  V30 3206 C 418.25 7.27966 -0.139777 0
M  V30 3207 N 417.207 6.39368 -0.623421 0
M  V30 3208 C 417.269 5.90299 -1.85969 0
M  V30 3209 N 416.224 5.10919 -2.1133 0
M  V30 3210 C 415.49 5.14646 -1.0015 0
M  V30 3211 C 414.184 4.60057 -0.729219 0
M  V30 3212 O 413.451 3.93476 -1.47746 0
M  V30 3213 N 413.754 4.88302 0.523505 0
M  V30 3214 C 414.503 5.63646 1.46207 0
M  V30 3215 N 413.906 5.78186 2.69239 0
M  V30 3216 N 415.656 6.19285 1.21544 0
M  V30 3217 C 416.113 5.93392 -0.0308487 0
M  V30 3218 H 418.282 7.25354 0.961601 0
M  V30 3219 H 419.465 6.3246 -1.65676 0
M  V30 3220 H 420.95 8.19533 -1.78278 0
M  V30 3221 H 419.255 10.1294 -1.10029 0
M  V30 3222 H 419.065 9.64276 -3.41316 0
M  V30 3223 H 417.434 9.25417 -2.76357 0
M  V30 3224 H 412.858 4.53993 0.806451 0
M  V30 3225 H 418.065 6.11865 -2.57394 0
M  V30 3226 H 412.995 5.34046 2.87467 0
M  V30 3227 H 414.371 6.33391 3.42578 0
M  V30 3228 H 420.075 6.25169 1.0783 0
M  V30 3229 P 421.932 8.791 2.28317e-12 0
M  V30 3230 O 423.354 9.31096 0.027933 0
M  V30 3231 O 421.572 7.77869 -1.04071 0
M  V30 3232 O 421.609 8.09533 1.41463 0
M  V30 3233 C 421.449 9.0349 2.53943 0
M  V30 3234 C 421.989 8.35226 3.79016 0
M  V30 3235 O 420.933 7.57992 4.15078 0
M  V30 3236 C 423.207 7.45087 3.67298 0
M  V30 3237 O 423.945 7.27796 4.85194 0
M  V30 3238 C 422.538 6.17323 3.12027 0
M  V30 3239 O 423.337 5.04231 3.47188 0
M  V30 3240 C 421.201 6.19961 3.81809 0
M  V30 3241 H 421.233 5.58218 4.73051 0
M  V30 3242 H 422.416 6.21726 2.02589 0
M  V30 3243 H 423.9 7.86112 2.9231 0
M  V30 3244 H 422.206 9.11627 4.55076 0
M  V30 3245 H 422.016 9.9573 2.34194 0
M  V30 3246 H 420.386 9.2792 2.67832 0
M  V30 3247 H 423.025 4.67702 4.28772 0
M  V30 3248 P 424.882 7.39546 4.75277 0
M  V30 3249 O 426.283 7.89013 5.04841 0
M  V30 3250 O 424.504 7.16603 3.32298 0
M  V30 3251 O 424.559 6.04468 5.56605 0
M  V30 3252 C 424.399 6.22772 7.02095 0
M  V30 3253 C 424.939 4.97671 7.70322 0
M  V30 3254 O 423.883 4.13208 7.58899 0
M  V30 3255 C 426.156 4.28231 7.11815 0
M  V30 3256 O 426.895 3.49945 8.01648 0
M  V30 3257 C 425.489 3.5063 5.96244 0
M  V30 3258 O 426.287 2.36443 5.64589 0
M  V30 3259 C 424.151 3.15122 6.56374 0
M  V30 3260 N 423.108 3.22311 5.55692 0
M  V30 3261 C 422.073 2.32244 5.62437 0
M  V30 3262 O 422.112 1.43107 6.50341 0
M  V30 3263 N 421.061 2.40811 4.73368 0
M  V30 3264 C 421.109 3.344 3.77753 0
M  V30 3265 C 422.205 4.24712 3.66679 0
M  V30 3266 C 423.171 4.15625 4.58307 0
M  V30 3267 H 424.183 2.13823 6.99656 0
M  V30 3268 H 425.366 4.12931 5.06895 0
M  V30 3269 H 426.85 5.02674 6.71494 0
M  V30 3270 H 425.156 5.20001 8.76217 0
M  V30 3271 H 424.965 7.11046 7.35349 0
M  V30 3272 H 423.335 6.35749 7.26911 0
M  V30 3273 H 422.253 4.9828 2.86753 0
M  V30 3274 H 424.017 4.84464 4.54228 0
M  V30 3275 H 426.071 1.65592 6.23485 0
M  V30 3276 P 427.833 3.65191 7.99657 0
M  V30 3277 O 429.255 3.84333 8.48297 0
M  V30 3278 O 427.473 4.17805 6.64342 0
M  V30 3279 O 427.51 2.07613 7.95143 0
M  V30 3280 C 427.35 1.44328 9.27336 0
M  V30 3281 C 427.89 0.0220012 9.17097 0
M  V30 3282 O 426.835 -0.626867 8.61923 0
M  V30 3283 C 429.108 -0.24586 8.30336 0
M  V30 3284 O 429.846 -1.39011 8.63583 0
M  V30 3285 C 428.44 -0.273849 6.91158 0
M  V30 3286 O 429.238 -1.06331 6.02794 0
M  V30 3287 C 427.102 -0.897649 7.22545 0
M  V30 3288 N 426.059 -0.292839 6.41732 0
M  V30 3289 C 426.121 1.00068 6.10757 0
M  V30 3290 N 425.076 1.36468 5.35794 0
M  V30 3291 C 424.342 0.258894 5.2366 0
M  V30 3292 C 423.036 0.0670682 4.65752 0
M  V30 3293 O 422.303 0.902443 4.10497 0
M  V30 3294 N 422.606 -1.2131 4.75881 0
M  V30 3295 C 423.355 -2.24934 5.37101 0
M  V30 3296 N 422.758 -3.48783 5.33984 0
M  V30 3297 N 424.508 -2.0844 5.95684 0
M  V30 3298 C 424.965 -0.81395 5.87791 0
M  V30 3299 H 427.134 -1.9841 7.04286 0
M  V30 3300 H 428.317 0.739815 6.49601 0
M  V30 3301 H 429.802 0.598315 8.36563 0
M  V30 3302 H 428.107 -0.352479 10.1829 0
M  V30 3303 H 427.917 2.00611 10.0304 0
M  V30 3304 H 426.286 1.41843 9.55327 0
M  V30 3305 H 421.71 -1.44434 4.37895 0
M  V30 3306 H 426.917 1.67697 6.42268 0
M  V30 3307 H 421.847 -3.60543 4.87699 0
M  V30 3308 H 423.223 -4.29232 5.7819 0
M  V30 3309 H 428.927 -1.95704 6.0346 0
M  V30 3310 P 430.783 -1.25109 8.70152 0
M  V30 3311 O 432.205 -1.35274 9.21221 0
M  V30 3312 O 430.423 -0.0769065 7.84762 0
M  V30 3313 O 430.46 -2.55232 7.81161 0
M  V30 3314 C 430.3 -3.79939 8.58154 0
M  V30 3315 C 430.84 -4.94023 7.72785 0
M  V30 3316 O 429.784 -5.18726 6.91205 0
M  V30 3317 C 432.058 -4.69597 6.85231 0
M  V30 3318 O 432.796 -5.83832 6.51337 0
M  V30 3319 C 431.389 -3.96706 5.66633 0
M  V30 3320 O 432.188 -4.15414 4.49689 0
M  V30 3321 C 430.052 -4.66153 5.59313 0
M  V30 3322 H 430.084 -5.47679 4.85214 0
M  V30 3323 H 431.267 -2.89008 5.86566 0
M  V30 3324 H 432.751 -4.0121 7.36511 0
M  V30 3325 H 431.057 -5.80182 8.37584 0
M  V30 3326 H 430.867 -3.73517 9.52265 0
M  V30 3327 H 429.237 -3.97163 8.80359 0
M  V30 3328 H 431.876 -4.90969 4.01921 0
M  V30 3329 P 433.734 -5.75688 6.64379 0
M  V30 3330 O 435.155 -6.11915 7.01921 0
M  V30 3331 O 433.374 -4.30744 6.56026 0
M  V30 3332 O 433.411 -6.37042 5.19165 0
M  V30 3333 C 433.25 -7.83662 5.1657 0
M  V30 3334 C 433.791 -8.33398 3.83019 0
M  V30 3335 O 432.736 -8.0998 3.00999 0
M  V30 3336 C 435.009 -7.65514 3.2257 0
M  V30 3337 O 435.747 -8.4329 2.32297 0
M  V30 3338 C 434.341 -6.40075 2.62207 0
M  V30 3339 O 435.139 -5.92338 1.5428 0
M  V30 3340 C 433.003 -6.9454 2.18503 0
M  V30 3341 N 431.96 -5.95905 2.39948 0
M  V30 3342 C 432.129 -4.98383 3.32108 0
M  V30 3343 N 431.102 -4.16798 3.41761 0
M  V30 3344 C 430.217 -4.65287 2.47461 0
M  V30 3345 C 428.95 -4.18946 2.07461 0
M  V30 3346 N 428.351 -3.09661 2.60717 0
M  V30 3347 N 428.385 -4.95327 1.09101 0
M  V30 3348 C 428.987 -6.04369 0.519812 0
M  V30 3349 N 430.164 -6.50694 0.855982 0
M  V30 3350 C 430.739 -5.75818 1.84322 0
M  V30 3351 H 433.035 -7.22964 1.12076 0
M  V30 3352 H 434.218 -5.60502 3.36589 0
M  V30 3353 H 435.701 -7.35707 4.02681 0
M  V30 3354 H 434.007 -9.41302 3.90009 0
M  V30 3355 H 433.817 -8.29056 5.99158 0
M  V30 3356 H 432.187 -8.10073 5.25882 0
M  V30 3357 H 428.451 -6.55843 -0.270373 0
M  V30 3358 H 433.029 -4.88564 3.92502 0
M  V30 3359 H 427.421 -2.80523 2.27218 0
M  V30 3360 H 428.825 -2.55848 3.34465 0
M  V30 3361 H 434.827 -6.30224 0.72668 0
M  V30 3362 P 436.684 -8.4349 2.47671 0
M  V30 3363 O 438.106 -8.94167 2.5964 0
M  V30 3364 O 436.324 -7.1704 3.19006 0
M  V30 3365 O 436.361 -8.16596 0.923387 0
M  V30 3366 C 436.201 -9.38437 0.108857 0
M  V30 3367 C 436.741 -9.08175 -1.28353 0
M  V30 3368 O 435.685 -8.44229 -1.84713 0
M  V30 3369 C 437.959 -8.18386 -1.42505 0
M  V30 3370 O 438.697 -8.3501 -2.60497 0
M  V30 3371 C 437.29 -6.80225 -1.25468 0
M  V30 3372 O 438.089 -5.81621 -1.91066 0
M  V30 3373 C 435.953 -7.02416 -1.9168 0
M  V30 3374 H 435.985 -6.6888 -2.96621 0
M  V30 3375 H 437.168 -6.53617 -0.192223 0
M  V30 3376 H 438.652 -8.36622 -0.589963 0
M  V30 3377 H 436.958 -10.0291 -1.79807 0
M  V30 3378 H 436.768 -10.2138 0.558219 0
M  V30 3379 H 435.138 -9.6579 0.0444202 0
M  V30 3380 H 437.777 -5.69556 -2.79637 0
M  V30 3381 P 439.635 -8.4349 -2.47671 0
M  V30 3382 O 441.057 -8.92785 -2.65057 0
M  V30 3383 O 439.275 -7.7568 -1.19296 0
M  V30 3384 O 439.312 -7.36886 -3.63805 0
M  V30 3385 C 439.152 -7.95349 -4.982 0
M  V30 3386 C 439.692 -6.94537 -5.98908 0
M  V30 3387 O 438.637 -6.10347 -6.11815 0
M  V30 3388 C 440.91 -6.11426 -5.62335 0
M  V30 3389 O 441.648 -5.6162 -6.70584 0
M  V30 3390 C 440.242 -5.04409 -4.73308 0
M  V30 3391 O 441.04 -3.85929 -4.75106 0
M  V30 3392 C 438.904 -4.8728 -5.41006 0
M  V30 3393 N 437.861 -4.65812 -4.42377 0
M  V30 3394 C 437.923 -5.27109 -3.24335 0
M  V30 3395 N 436.878 -4.94293 -2.47735 0
M  V30 3396 C 436.144 -4.1271 -3.23359 0
M  V30 3397 C 434.838 -3.56384 -2.99934 0
M  V30 3398 O 434.105 -3.69331 -2.00616 0
M  V30 3399 N 434.408 -2.80206 -4.03316 0
M  V30 3400 C 435.157 -2.58614 -5.2172 0
M  V30 3401 N 434.56 -1.75154 -6.13278 0
M  V30 3402 N 436.31 -3.13689 -5.47619 0
M  V30 3403 C 436.767 -3.90921 -4.46436 0
M  V30 3404 H 438.936 -4.02333 -6.11157 0
M  V30 3405 H 440.119 -5.39383 -3.69487 0
M  V30 3406 H 441.604 -6.71414 -5.02615 0
M  V30 3407 H 439.909 -7.4649 -6.93477 0
M  V30 3408 H 439.719 -8.89416 -5.05237 0
M  V30 3409 H 438.088 -8.14876 -5.18409 0
M  V30 3410 H 433.512 -2.36355 -3.95916 0
M  V30 3411 H 438.719 -5.95212 -2.93859 0
M  V30 3412 H 433.649 -1.32473 -5.91856 0
M  V30 3413 H 435.025 -1.5588 -7.03026 0
M  V30 3414 H 440.729 -3.27906 -5.43085 0
M  V30 3415 P 442.586 -5.75688 -6.64379 0
M  V30 3416 O 444.008 -6.07627 -7.05504 0
M  V30 3417 O 442.226 -5.88047 -5.19722 0
M  V30 3418 O 442.263 -4.2322 -7.04443 0
M  V30 3419 C 442.103 -3.99743 -8.4911 0
M  V30 3420 C 442.643 -2.60516 -8.79425 0
M  V30 3421 O 441.587 -1.82684 -8.4467 0
M  V30 3422 C 443.861 -2.10343 -8.03628 0
M  V30 3423 O 444.599 -1.09919 -8.67766 0
M  V30 3424 C 443.192 -1.68446 -6.70876 0
M  V30 3425 O 443.991 -0.678137 -6.08433 0
M  V30 3426 C 441.855 -1.17436 -7.18567 0
M  V30 3427 H 441.887 -0.0804732 -7.31656 0
M  V30 3428 H 443.07 -2.54037 -6.02537 0
M  V30 3429 H 444.554 -2.93881 -7.85526 0
M  V30 3430 H 442.86 -2.53065 -9.86973 0
M  V30 3431 H 442.67 -4.75072 -9.05887 0
M  V30 3432 H 441.04 -4.05244 -8.76668 0
M  V30 3433 H 443.679 0.177647 -6.34251 0
M  V30 3434 P 445.536 -1.25109 -8.70152 0
M  V30 3435 O 446.958 -1.29744 -9.22016 0
M  V30 3436 O 445.176 -2.13714 -7.55141 0
M  V30 3437 O 445.213 0.248149 -8.21425 0
M  V30 3438 C 445.053 1.22779 -9.30434 0
M  V30 3439 C 445.593 2.56293 -8.80664 0
M  V30 3440 O 444.537 3.02979 -8.09349 0
M  V30 3441 C 446.811 2.57523 -7.89775 0
M  V30 3442 O 447.549 3.7668 -7.89438 0
M  V30 3443 C 446.142 2.20997 -6.55446 0
M  V30 3444 O 446.941 2.71895 -5.48509 0
M  V30 3445 C 444.805 2.89693 -6.67988 0
M  V30 3446 H 444.837 3.88793 -6.19859 0
M  V30 3447 H 446.02 1.12046 -6.44229 0
M  V30 3448 H 447.504 1.7746 -8.19711 0
M  V30 3449 H 445.81 3.20706 -9.67112 0
M  V30 3450 H 445.62 0.901032 -10.1892 0
M  V30 3451 H 443.99 1.33049 -9.56592 0
M  V30 3452 H 446.629 3.57847 -5.23962 0
M  V30 3453 P 448.487 3.65191 -7.99657 0
M  V30 3454 O 449.909 3.89332 -8.45794 0
M  V30 3455 O 448.127 2.28472 -7.50807 0
M  V30 3456 O 448.164 4.64972 -6.77611 0
M  V30 3457 C 448.004 6.06319 -7.16352 0
M  V30 3458 C 448.544 6.91731 -6.02299 0
M  V30 3459 O 447.488 6.92449 -5.17064 0
M  V30 3460 C 449.762 6.43627 -5.25174 0
M  V30 3461 O 450.5 7.43686 -4.60469 0
M  V30 3462 C 449.093 5.40275 -4.31916 0
M  V30 3463 O 449.892 5.25279 -3.14438 0
M  V30 3464 C 447.756 6.04847 -4.05327 0
M  V30 3465 H 447.788 6.62195 -3.11261 0
M  V30 3466 H 448.971 4.42556 -4.81383 0
M  V30 3467 H 450.455 5.92458 -5.93643 0
M  V30 3468 H 448.761 7.92655 -6.402 0
M  V30 3469 H 448.571 6.26671 -8.0846 0
M  V30 3470 H 446.941 6.29101 -7.32804 0
M  V30 3471 H 449.58 5.84315 -2.47318 0
M  V30 3472 P 451.437 7.39546 -4.75277 0
M  V30 3473 O 452.838 7.86988 -5.07993 0
M  V30 3474 O 451.059 5.99957 -5.13804 0
M  V30 3475 O 451.114 7.57411 -3.18621 0
M  V30 3476 C 450.954 8.97357 -2.74833 0
M  V30 3477 C 451.494 9.0745 -1.32694 0
M  V30 3478 O 450.438 8.61972 -0.606089 0
M  V30 3479 C 452.711 8.25383 -0.938334 0
M  V30 3480 O 453.45 8.74577 0.146954 0
M  V30 3481 C 452.044 6.8802 -0.712559 0
M  V30 3482 O 452.842 6.11791 0.194623 0
M  V30 3483 C 450.706 7.27966 -0.139777 0
M  V30 3484 N 449.663 6.39368 -0.623421 0
M  V30 3485 C 448.628 6.08088 0.223886 0
M  V30 3486 O 448.667 6.5102 1.39986 0
M  V30 3487 N 447.616 5.30627 -0.224051 0
M  V30 3488 C 447.664 4.82531 -1.47257 0
M  V30 3489 N 446.654 4.07328 -1.89378 0
M  V30 3490 C 448.76 5.09974 -2.34008 0
M  V30 3491 C 449.726 5.89548 -1.87678 0
M  V30 3492 H 450.738 7.25255 0.961469 0
M  V30 3493 H 451.921 6.32625 -1.65044 0
M  V30 3494 H 453.405 8.19631 -1.78299 0
M  V30 3495 H 451.711 10.1305 -1.09016 0
M  V30 3496 H 451.52 9.64276 -3.41316 0
M  V30 3497 H 449.89 9.25321 -2.76328 0
M  V30 3498 H 448.808 4.67832 -3.3413 0
M  V30 3499 H 450.572 6.14434 -2.51991 0
M  V30 3500 H 445.864 3.87329 -1.26296 0
M  V30 3501 H 446.659 3.69014 -2.84741 0
M  V30 3502 H 452.626 6.35931 1.08377 0
M  V30 3503 P 454.388 8.791 2.59334e-12 0
M  V30 3504 O 455.81 9.31296 0.027939 0
M  V30 3505 O 454.028 7.77869 -1.04071 0
M  V30 3506 O 454.065 8.09533 1.41463 0
M  V30 3507 C 453.905 9.0349 2.53943 0
M  V30 3508 C 454.445 8.35135 3.78975 0
M  V30 3509 O 453.39 7.57992 4.15078 0
M  V30 3510 C 455.663 7.45087 3.67298 0
M  V30 3511 O 456.401 7.27796 4.85194 0
M  V30 3512 C 454.995 6.17323 3.12027 0
M  V30 3513 O 455.793 5.04149 3.47132 0
M  V30 3514 C 453.657 6.19961 3.81809 0
M  V30 3515 N 452.614 5.71575 2.93223 0
M  V30 3516 C 452.676 5.97133 1.62693 0
M  V30 3517 N 451.631 5.44066 0.984414 0
M  V30 3518 C 450.897 4.87093 1.93987 0
M  V30 3519 C 449.591 4.26449 1.8738 0
M  V30 3520 O 448.858 4.1089 0.884377 0
M  V30 3521 N 449.161 3.82483 3.08036 0
M  V30 3522 C 449.91 3.95124 4.27727 0
M  V30 3523 N 449.313 3.4084 5.39089 0
M  V30 3524 N 451.063 4.55264 4.3706 0
M  V30 3525 C 451.52 5.00861 3.18217 0
M  V30 3526 H 453.689 5.58218 4.73051 0
M  V30 3527 H 454.872 6.21631 2.02558 0
M  V30 3528 H 456.357 7.85819 2.93096 0
M  V30 3529 H 454.662 9.11627 4.55076 0
M  V30 3530 H 454.472 9.9573 2.34194 0
M  V30 3531 H 452.841 9.2792 2.67832 0
M  V30 3532 H 448.265 3.38323 3.1329 0
M  V30 3533 H 453.472 6.53891 1.14265 0
M  V30 3534 H 448.402 2.93852 5.30559 0
M  V30 3535 H 449.778 3.47631 6.30632 0
M  V30 3536 H 455.482 4.67628 4.28704 0
M  V30 3537 P 457.338 7.39546 4.75277 0
M  V30 3538 O 458.76 7.81777 5.05738 0
M  V30 3539 O 456.978 7.1065 3.32998 0
M  V30 3540 O 457.015 6.04542 5.56673 0
M  V30 3541 C 456.855 6.22772 7.02095 0
M  V30 3542 C 457.395 4.97725 7.70406 0
M  V30 3543 O 456.339 4.13256 7.58987 0
M  V30 3544 C 458.613 4.28231 7.11815 0
M  V30 3545 O 459.351 3.49945 8.01648 0
M  V30 3546 C 457.944 3.5063 5.96244 0
M  V30 3547 O 458.743 2.36482 5.64681 0
M  V30 3548 C 456.607 3.15122 6.56374 0
M  V30 3549 H 456.639 2.13853 6.99751 0
M  V30 3550 H 457.822 4.13501 5.06559 0
M  V30 3551 H 459.306 5.03285 6.70911 0
M  V30 3552 H 457.612 5.20877 8.75697 0
M  V30 3553 H 457.422 7.11046 7.35349 0
M  V30 3554 H 455.792 6.35815 7.26986 0
M  V30 3555 H 458.431 1.61644 6.13565 0
M  V30 3556 P 460.289 3.65191 7.99657 0
M  V30 3557 O 461.711 3.8425 8.48115 0
M  V30 3558 O 459.929 4.17805 6.64342 0
M  V30 3559 O 459.966 2.07613 7.95143 0
M  V30 3560 C 459.806 1.44328 9.27336 0
M  V30 3561 C 460.346 0.0220036 9.17197 0
M  V30 3562 O 459.29 -0.626867 8.61923 0
M  V30 3563 C 461.564 -0.24586 8.30336 0
M  V30 3564 O 462.302 -1.39011 8.63583 0
M  V30 3565 C 460.895 -0.273849 6.91158 0
M  V30 3566 O 461.694 -1.06348 6.02892 0
M  V30 3567 C 459.558 -0.897649 7.22545 0
M  V30 3568 H 459.59 -1.9841 7.04286 0
M  V30 3569 H 460.773 0.739928 6.497 0
M  V30 3570 H 462.257 0.60668 8.36503 0
M  V30 3571 H 460.563 -0.352479 10.1829 0
M  V30 3572 H 460.373 2.00611 10.0304 0
M  V30 3573 H 458.743 1.41843 9.55327 0
M  V30 3574 H 461.382 -1.95734 6.03555 0
M  V30 3575 P 463.239 -1.25109 8.70152 0
M  V30 3576 O 464.661 -1.35274 9.21221 0
M  V30 3577 O 462.879 -0.0769065 7.84762 0
M  V30 3578 O 462.916 -2.55232 7.81161 0
M  V30 3579 C 462.756 -3.79939 8.58154 0
M  V30 3580 C 463.296 -4.94023 7.72785 0
M  V30 3581 O 462.24 -5.18726 6.91205 0
M  V30 3582 C 464.514 -4.69597 6.85231 0
M  V30 3583 O 465.252 -5.83832 6.51337 0
M  V30 3584 C 463.845 -3.96706 5.66633 0
M  V30 3585 O 464.644 -4.15414 4.49689 0
M  V30 3586 C 462.508 -4.66153 5.59313 0
M  V30 3587 H 462.54 -5.47679 4.85214 0
M  V30 3588 H 463.723 -2.89008 5.86566 0
M  V30 3589 H 465.207 -4.0121 7.36511 0
M  V30 3590 H 463.513 -5.80182 8.37584 0
M  V30 3591 H 463.323 -3.73517 9.52265 0
M  V30 3592 H 461.693 -3.97163 8.80359 0
M  V30 3593 H 464.332 -4.90969 4.01921 0
M  V30 3594 P 466.19 -5.75688 6.64379 0
M  V30 3595 O 467.612 -6.11849 7.01846 0
M  V30 3596 O 465.83 -4.30744 6.56026 0
M  V30 3597 O 465.867 -6.37042 5.19165 0
M  V30 3598 C 465.707 -7.83578 5.16515 0
M  V30 3599 C 466.247 -8.33398 3.83019 0
M  V30 3600 O 465.191 -8.10074 3.01034 0
M  V30 3601 C 467.465 -7.65514 3.2257 0
M  V30 3602 O 468.203 -8.4329 2.32297 0
M  V30 3603 C 466.796 -6.40075 2.62207 0
M  V30 3604 O 467.595 -5.92589 1.53712 0
M  V30 3605 C 465.459 -6.9454 2.18503 0
M  V30 3606 H 465.491 -7.23063 1.12091 0
M  V30 3607 H 466.674 -5.6025 3.37201 0
M  V30 3608 H 468.158 -7.35707 4.02681 0
M  V30 3609 H 466.464 -9.40912 3.9095 0
M  V30 3610 H 466.274 -8.29056 5.99158 0
M  V30 3611 H 464.644 -8.10073 5.25882 0
M  V30 3612 H 467.283 -6.30324 0.726794 0
M  V30 3613 P 469.141 -8.4349 2.47671 0
M  V30 3614 O 470.563 -8.94167 2.5964 0
M  V30 3615 O 468.781 -7.1704 3.19006 0
M  V30 3616 O 468.818 -8.16596 0.923387 0
M  V30 3617 C 468.658 -9.38437 0.108857 0
M  V30 3618 C 469.198 -9.08175 -1.28353 0
M  V30 3619 O 468.142 -8.44229 -1.84713 0
M  V30 3620 C 470.416 -8.18386 -1.42505 0
M  V30 3621 O 471.154 -8.3501 -2.60497 0
M  V30 3622 C 469.747 -6.80225 -1.25468 0
M  V30 3623 O 470.546 -5.81621 -1.91066 0
M  V30 3624 C 468.41 -7.02416 -1.9168 0
M  V30 3625 H 468.442 -6.6888 -2.96621 0
M  V30 3626 H 469.625 -6.53617 -0.192223 0
M  V30 3627 H 471.109 -8.36622 -0.589963 0
M  V30 3628 H 469.415 -10.0291 -1.79807 0
M  V30 3629 H 469.225 -10.2138 0.558219 0
M  V30 3630 H 467.595 -9.6579 0.0444202 0
M  V30 3631 H 470.234 -5.69556 -2.79637 0
M  V30 3632 P 472.091 -8.4349 -2.47671 0
M  V30 3633 O 473.512 -8.92689 -2.65029 0
M  V30 3634 O 471.731 -7.7568 -1.19296 0
M  V30 3635 O 471.768 -7.36886 -3.63805 0
M  V30 3636 C 471.607 -7.95433 -4.98253 0
M  V30 3637 C 472.148 -6.94612 -5.98974 0
M  V30 3638 O 471.093 -6.10277 -6.11744 0
M  V30 3639 C 473.366 -6.11426 -5.62335 0
M  V30 3640 O 474.104 -5.6162 -6.70584 0
M  V30 3641 C 472.698 -5.04409 -4.73308 0
M  V30 3642 O 473.496 -3.86404 -4.74719 0
M  V30 3643 C 471.36 -4.8728 -5.41006 0
M  V30 3644 N 470.317 -4.65812 -4.42377 0
M  V30 3645 C 470.486 -5.09132 -3.15382 0
M  V30 3646 N 469.459 -4.84021 -2.3716 0
M  V30 3647 C 468.574 -4.18386 -3.20441 0
M  V30 3648 C 467.307 -3.6275 -2.94905 0
M  V30 3649 N 466.742 -3.05008 -4.05243 0
M  V30 3650 C 467.344 -2.98348 -5.28159 0
M  V30 3651 N 468.521 -3.48171 -5.56333 0
M  V30 3652 C 469.096 -4.06869 -4.47212 0
M  V30 3653 H 472.575 -5.39013 -3.70026 0
M  V30 3654 H 474.058 -6.71916 -5.01943 0
M  V30 3655 H 472.364 -7.45796 -6.94223 0
M  V30 3656 H 472.174 -8.89416 -5.05237 0
M  V30 3657 H 470.544 -8.14876 -5.18409 0
M  V30 3658 H 471.386 -5.59989 -2.81362 0
M  V30 3659 H 473.184 -3.27906 -5.43085 0
M  V30 3660 P 475.042 -5.75688 -6.64379 0
M  V30 3661 O 476.464 -6.07627 -7.05504 0
M  V30 3662 O 474.682 -5.88047 -5.19722 0
M  V30 3663 O 474.719 -4.2322 -7.04443 0
M  V30 3664 C 474.559 -3.99743 -8.4911 0
M  V30 3665 C 475.099 -2.60516 -8.79425 0
M  V30 3666 O 474.043 -1.82684 -8.4467 0
M  V30 3667 C 476.317 -2.10343 -8.03628 0
M  V30 3668 O 477.055 -1.09919 -8.67766 0
M  V30 3669 C 475.648 -1.68446 -6.70876 0
M  V30 3670 O 476.447 -0.678137 -6.08433 0
M  V30 3671 C 474.311 -1.17436 -7.18567 0
M  V30 3672 H 474.343 -0.0804732 -7.31656 0
M  V30 3673 H 475.526 -2.54037 -6.02537 0
M  V30 3674 H 477.01 -2.93881 -7.85526 0
M  V30 3675 H 475.316 -2.53065 -9.86973 0
M  V30 3676 H 475.126 -4.75072 -9.05887 0
M  V30 3677 H 473.496 -4.05244 -8.76668 0
M  V30 3678 H 476.135 0.177647 -6.34251 0
M  V30 3679 P 477.992 -1.25109 -8.70152 0
M  V30 3680 O 479.414 -1.29744 -9.22016 0
M  V30 3681 O 477.632 -2.13714 -7.55141 0
M  V30 3682 O 477.669 0.248149 -8.21425 0
M  V30 3683 C 477.509 1.22779 -9.30434 0
M  V30 3684 C 478.049 2.56293 -8.80664 0
M  V30 3685 O 476.993 3.02979 -8.09349 0
M  V30 3686 C 479.267 2.57523 -7.89775 0
M  V30 3687 O 480.005 3.7668 -7.89438 0
M  V30 3688 C 478.598 2.20997 -6.55446 0
M  V30 3689 O 479.397 2.71895 -5.48509 0
M  V30 3690 C 477.261 2.89693 -6.67988 0
M  V30 3691 H 477.293 3.88793 -6.19859 0
M  V30 3692 H 478.476 1.12046 -6.44229 0
M  V30 3693 H 479.96 1.7746 -8.19711 0
M  V30 3694 H 478.266 3.20706 -9.67112 0
M  V30 3695 H 478.076 0.901032 -10.1892 0
M  V30 3696 H 476.446 1.33049 -9.56592 0
M  V30 3697 H 479.085 3.57847 -5.23962 0
M  V30 3698 P 480.943 3.65191 -7.99657 0
M  V30 3699 O 482.365 3.89332 -8.45794 0
M  V30 3700 O 480.583 2.28472 -7.50807 0
M  V30 3701 O 480.62 4.64972 -6.77611 0
M  V30 3702 C 480.46 6.06319 -7.16352 0
M  V30 3703 C 481 6.91731 -6.02299 0
M  V30 3704 O 479.944 6.92449 -5.17064 0
M  V30 3705 C 482.218 6.43627 -5.25174 0
M  V30 3706 O 482.956 7.43686 -4.60469 0
M  V30 3707 C 481.549 5.40275 -4.31916 0
M  V30 3708 O 482.348 5.25279 -3.14438 0
M  V30 3709 C 480.212 6.04847 -4.05327 0
M  V30 3710 H 480.244 6.62195 -3.11261 0
M  V30 3711 H 481.427 4.42556 -4.81383 0
M  V30 3712 H 482.911 5.92458 -5.93643 0
M  V30 3713 H 481.217 7.92655 -6.402 0
M  V30 3714 H 481.027 6.26671 -8.0846 0
M  V30 3715 H 479.397 6.29101 -7.32804 0
M  V30 3716 H 482.036 5.84315 -2.47318 0
M  V30 3717 P 483.893 7.39546 -4.75277 0
M  V30 3718 O 485.314 7.84882 -5.01092 0
M  V30 3719 O 483.533 5.9812 -5.08098 0
M  V30 3720 O 483.57 7.57503 -3.1866 0
M  V30 3721 C 483.409 8.97452 -2.74862 0
M  V30 3722 C 483.95 9.07548 -1.32709 0
M  V30 3723 O 482.895 8.61972 -0.606089 0
M  V30 3724 C 485.168 8.25383 -0.938334 0
M  V30 3725 O 485.906 8.74577 0.146954 0
M  V30 3726 C 484.5 6.8802 -0.712559 0
M  V30 3727 O 485.298 6.1181 0.188505 0
M  V30 3728 C 483.162 7.27966 -0.139777 0
M  V30 3729 N 482.119 6.39368 -0.623421 0
M  V30 3730 C 482.288 5.71761 -1.78245 0
M  V30 3731 N 481.261 4.962 -2.10491 0
M  V30 3732 C 480.376 5.16158 -1.0635 0
M  V30 3733 C 479.109 4.60425 -0.810266 0
M  V30 3734 N 478.51 3.7057 -1.62914 0
M  V30 3735 N 478.544 5.06 0.348685 0
M  V30 3736 C 479.146 5.94532 1.20395 0
M  V30 3737 N 480.323 6.48452 1.01191 0
M  V30 3738 C 480.898 6.04423 -0.146291 0
M  V30 3739 H 483.194 7.25255 0.961469 0
M  V30 3740 H 484.377 6.32625 -1.65044 0
M  V30 3741 H 485.86 8.19355 -1.79097 0
M  V30 3742 H 484.166 10.1305 -1.09016 0
M  V30 3743 H 483.976 9.64276 -3.41316 0
M  V30 3744 H 482.346 9.25417 -2.76357 0
M  V30 3745 H 478.61 6.21659 2.10714 0
M  V30 3746 H 483.188 5.79354 -2.38959 0
M  V30 3747 H 477.58 3.33174 -1.38982 0
M  V30 3748 H 478.984 3.39714 -2.48836 0
M  V30 3749 H 484.986 6.25169 1.0783 0
M  V30 3750 P 486.844 8.791 2.9035e-12 0
M  V30 3751 O 488.266 9.31096 0.027933 0
M  V30 3752 O 486.484 7.77869 -1.04071 0
M  V30 3753 O 486.521 8.09533 1.41463 0
M  V30 3754 C 486.361 9.0349 2.53943 0
M  V30 3755 C 486.901 8.35226 3.79016 0
M  V30 3756 O 485.845 7.57992 4.15078 0
M  V30 3757 C 488.119 7.45087 3.67298 0
M  V30 3758 O 488.857 7.27796 4.85194 0
M  V30 3759 C 487.45 6.17323 3.12027 0
M  V30 3760 O 488.249 5.04231 3.47188 0
M  V30 3761 C 486.113 6.19961 3.81809 0
M  V30 3762 H 486.145 5.58218 4.73051 0
M  V30 3763 H 487.328 6.21726 2.02589 0
M  V30 3764 H 488.812 7.86112 2.9231 0
M  V30 3765 H 487.118 9.11627 4.55076 0
M  V30 3766 H 486.928 9.9573 2.34194 0
M  V30 3767 H 485.298 9.2792 2.67832 0
M  V30 3768 H 487.937 4.67702 4.28772 0
M  V30 3769 P 489.795 7.39546 4.75277 0
M  V30 3770 O 491.217 7.81777 5.05738 0
M  V30 3771 O 489.435 7.1065 3.32998 0
M  V30 3772 O 489.472 6.04542 5.56673 0
M  V30 3773 C 489.312 6.22772 7.02095 0
M  V30 3774 C 489.852 4.97725 7.70406 0
M  V30 3775 O 488.796 4.13256 7.58987 0
M  V30 3776 C 491.07 4.28231 7.11815 0
M  V30 3777 O 491.808 3.49945 8.01648 0
M  V30 3778 C 490.401 3.5063 5.96244 0
M  V30 3779 O 491.2 2.36482 5.64681 0
M  V30 3780 C 489.064 3.15122 6.56374 0
M  V30 3781 H 489.096 2.13853 6.99751 0
M  V30 3782 H 490.279 4.13501 5.06559 0
M  V30 3783 H 491.763 5.03285 6.70911 0
M  V30 3784 H 490.069 5.20877 8.75697 0
M  V30 3785 H 489.879 7.11046 7.35349 0
M  V30 3786 H 488.249 6.35815 7.26986 0
M  V30 3787 H 490.888 1.61644 6.13565 0
M  V30 3788 P 492.745 3.65191 7.99657 0
M  V30 3789 O 494.167 3.8425 8.48115 0
M  V30 3790 O 492.385 4.17805 6.64342 0
M  V30 3791 O 492.422 2.07613 7.95143 0
M  V30 3792 C 492.262 1.44328 9.27336 0
M  V30 3793 C 492.802 0.0220036 9.17197 0
M  V30 3794 O 491.746 -0.626867 8.61923 0
M  V30 3795 C 494.02 -0.24586 8.30336 0
M  V30 3796 O 494.758 -1.39011 8.63583 0
M  V30 3797 C 493.351 -0.273849 6.91158 0
M  V30 3798 O 494.15 -1.06348 6.02892 0
M  V30 3799 C 492.014 -0.897649 7.22545 0
M  V30 3800 H 492.046 -1.9841 7.04286 0
M  V30 3801 H 493.229 0.739928 6.497 0
M  V30 3802 H 494.713 0.60668 8.36503 0
M  V30 3803 H 493.019 -0.352479 10.1829 0
M  V30 3804 H 492.829 2.00611 10.0304 0
M  V30 3805 H 491.199 1.41843 9.55327 0
M  V30 3806 H 493.838 -1.95734 6.03555 0
M  V30 3807 P 495.696 -1.25109 8.70152 0
M  V30 3808 O 497.117 -1.35288 9.2132 0
M  V30 3809 O 495.336 -0.0769065 7.84762 0
M  V30 3810 O 495.373 -2.55232 7.81161 0
M  V30 3811 C 495.212 -3.79979 8.58246 0
M  V30 3812 C 495.753 -4.94023 7.72785 0
M  V30 3813 O 494.698 -5.18666 6.91125 0
M  V30 3814 C 496.971 -4.69597 6.85231 0
M  V30 3815 O 497.709 -5.83832 6.51337 0
M  V30 3816 C 496.303 -3.96706 5.66633 0
M  V30 3817 O 497.101 -4.14896 4.5003 0
M  V30 3818 C 494.965 -4.66153 5.59313 0
M  V30 3819 N 493.922 -3.71582 5.24027 0
M  V30 3820 C 494.091 -2.39715 5.48833 0
M  V30 3821 N 493.064 -1.65863 5.12845 0
M  V30 3822 C 492.179 -2.57637 4.5973 0
M  V30 3823 C 490.912 -2.40278 4.01027 0
M  V30 3824 N 490.313 -1.19549 3.86744 0
M  V30 3825 N 490.347 -3.57711 3.59575 0
M  V30 3826 C 490.949 -4.80324 3.70476 0
M  V30 3827 N 492.126 -5.01121 4.23801 0
M  V30 3828 C 492.701 -3.84757 4.66372 0
M  V30 3829 H 494.997 -5.47604 4.85148 0
M  V30 3830 H 496.18 -2.8955 5.86187 0
M  V30 3831 H 497.663 -4.0121 7.36511 0
M  V30 3832 H 495.969 -5.81019 8.37003 0
M  V30 3833 H 495.779 -3.73517 9.52265 0
M  V30 3834 H 494.149 -3.97163 8.80359 0
M  V30 3835 H 490.413 -5.66348 3.3183 0
M  V30 3836 H 494.991 -1.98804 5.94332 0
M  V30 3837 H 489.383 -1.13147 3.4281 0
M  V30 3838 H 490.787 -0.344074 4.19692 0
M  V30 3839 H 496.789 -4.90891 4.01857 0
M  V30 3840 P 498.646 -5.75688 6.64379 0
M  V30 3841 O 500.068 -6.11849 7.01846 0
M  V30 3842 O 498.286 -4.30744 6.56026 0
M  V30 3843 O 498.323 -6.37042 5.19165 0
M  V30 3844 C 498.163 -7.83578 5.16515 0
M  V30 3845 C 498.703 -8.33398 3.83019 0
M  V30 3846 O 497.647 -8.10074 3.01034 0
M  V30 3847 C 499.921 -7.65514 3.2257 0
M  V30 3848 O 500.659 -8.4329 2.32297 0
M  V30 3849 C 499.252 -6.40075 2.62207 0
M  V30 3850 O 500.051 -5.92589 1.53712 0
M  V30 3851 C 497.915 -6.9454 2.18503 0
M  V30 3852 H 497.947 -7.23063 1.12091 0
M  V30 3853 H 499.13 -5.6025 3.37201 0
M  V30 3854 H 500.614 -7.35707 4.02681 0
M  V30 3855 H 498.92 -9.40912 3.9095 0
M  V30 3856 H 498.73 -8.29056 5.99158 0
M  V30 3857 H 497.1 -8.10073 5.25882 0
M  V30 3858 H 499.739 -6.30324 0.726794 0
M  V30 3859 P 501.597 -8.4349 2.47671 0
M  V30 3860 O 503.019 -8.94167 2.5964 0
M  V30 3861 O 501.237 -7.1704 3.19006 0
M  V30 3862 O 501.274 -8.16596 0.923387 0
M  V30 3863 C 501.114 -9.38437 0.108857 0
M  V30 3864 C 501.654 -9.08175 -1.28353 0
M  V30 3865 O 500.598 -8.44229 -1.84713 0
M  V30 3866 C 502.872 -8.18386 -1.42505 0
M  V30 3867 O 503.61 -8.3501 -2.60497 0
M  V30 3868 C 502.203 -6.80225 -1.25468 0
M  V30 3869 O 503.002 -5.81621 -1.91066 0
M  V30 3870 C 500.866 -7.02416 -1.9168 0
M  V30 3871 H 500.898 -6.6888 -2.96621 0
M  V30 3872 H 502.081 -6.53617 -0.192223 0
M  V30 3873 H 503.565 -8.36622 -0.589963 0
M  V30 3874 H 501.871 -10.0291 -1.79807 0
M  V30 3875 H 501.681 -10.2138 0.558219 0
M  V30 3876 H 500.051 -9.6579 0.0444202 0
M  V30 3877 H 502.69 -5.69556 -2.79637 0
M  V30 3878 P 504.547 -8.4349 -2.47671 0
M  V30 3879 O 505.969 -8.92593 -2.65 0
M  V30 3880 O 504.187 -7.7568 -1.19296 0
M  V30 3881 O 504.224 -7.36886 -3.63805 0
M  V30 3882 C 504.064 -7.95349 -4.982 0
M  V30 3883 C 504.604 -6.94612 -5.98974 0
M  V30 3884 O 503.548 -6.10347 -6.11815 0
M  V30 3885 C 505.822 -6.11426 -5.62335 0
M  V30 3886 O 506.56 -5.6162 -6.70584 0
M  V30 3887 C 505.153 -5.04409 -4.73308 0
M  V30 3888 O 505.952 -3.85992 -4.75183 0
M  V30 3889 C 503.816 -4.8728 -5.41006 0
M  V30 3890 H 503.848 -4.02333 -6.11157 0
M  V30 3891 H 505.031 -5.39466 -3.69543 0
M  V30 3892 H 506.515 -6.71916 -5.01943 0
M  V30 3893 H 504.821 -7.4649 -6.93477 0
M  V30 3894 H 504.631 -8.89416 -5.05237 0
M  V30 3895 H 503.001 -8.14876 -5.18409 0
M  V30 3896 H 505.64 -3.27957 -5.4317 0
M  V30 3897 P 507.498 -5.75688 -6.64379 0
M  V30 3898 O 508.92 -6.07627 -7.05504 0
M  V30 3899 O 507.138 -5.88047 -5.19722 0
M  V30 3900 O 507.175 -4.2322 -7.04443 0
M  V30 3901 C 507.015 -3.99743 -8.4911 0
M  V30 3902 C 507.555 -2.60516 -8.79425 0
M  V30 3903 O 506.499 -1.82684 -8.4467 0
M  V30 3904 C 508.773 -2.10343 -8.03628 0
M  V30 3905 O 509.511 -1.09919 -8.67766 0
M  V30 3906 C 508.104 -1.68446 -6.70876 0
M  V30 3907 O 508.903 -0.678137 -6.08433 0
M  V30 3908 C 506.767 -1.17436 -7.18567 0
M  V30 3909 H 506.799 -0.0804732 -7.31656 0
M  V30 3910 H 507.982 -2.54037 -6.02537 0
M  V30 3911 H 509.466 -2.93881 -7.85526 0
M  V30 3912 H 507.772 -2.53065 -9.86973 0
M  V30 3913 H 507.582 -4.75072 -9.05887 0
M  V30 3914 H 505.952 -4.05244 -8.76668 0
M  V30 3915 H 508.591 0.177647 -6.34251 0
M  V30 3916 P 510.449 -1.25109 -8.70152 0
M  V30 3917 O 511.85 -1.3516 -9.26897 0
M  V30 3918 O 510.071 -2.18141 -7.59181 0
M  V30 3919 O 510.126 0.248118 -8.21325 0
M  V30 3920 C 509.966 1.22779 -9.30434 0
M  V30 3921 C 510.506 2.56265 -8.80568 0
M  V30 3922 O 509.45 3.02944 -8.09255 0
M  V30 3923 C 511.723 2.57523 -7.89775 0
M  V30 3924 O 512.462 3.7668 -7.89438 0
M  V30 3925 C 511.056 2.20997 -6.55446 0
M  V30 3926 O 511.854 2.71851 -5.48419 0
M  V30 3927 C 509.718 2.89693 -6.67988 0
M  V30 3928 N 508.675 2.08895 -6.07487 0
M  V30 3929 C 507.64 2.72974 -5.43836 0
M  V30 3930 O 507.679 3.97779 -5.34036 0
M  V30 3931 N 506.628 2.0005 -4.91983 0
M  V30 3932 C 506.676 0.66501 -5.00098 0
M  V30 3933 N 505.666 -0.0305439 -4.4919 0
M  V30 3934 C 507.772 -0.0100979 -5.61099 0
M  V30 3935 C 508.738 0.74189 -6.14236 0
M  V30 3936 H 509.75 3.8874 -6.19774 0
M  V30 3937 H 510.933 1.12673 -6.44018 0
M  V30 3938 H 512.417 1.783 -8.19631 0
M  V30 3939 H 510.723 3.21673 -9.66791 0
M  V30 3940 H 510.532 0.901032 -10.1892 0
M  V30 3941 H 508.902 1.33036 -9.56493 0
M  V30 3942 H 507.82 -1.09591 -5.64358 0
M  V30 3943 H 509.584 0.260263 -6.6359 0
M  V30 3944 H 504.876 0.460194 -4.04793 0
M  V30 3945 H 505.671 -1.05716 -4.53953 0
M  V30 3946 H 511.638 3.62759 -5.33442 0
M  V30 3947 P 513.399 3.65191 -7.99657 0
M  V30 3948 O 514.821 3.89332 -8.45794 0
M  V30 3949 O 513.039 2.28472 -7.50807 0
M  V30 3950 O 513.076 4.64972 -6.77611 0
M  V30 3951 C 512.916 6.06319 -7.16352 0
M  V30 3952 C 513.456 6.91731 -6.02299 0
M  V30 3953 O 512.4 6.92449 -5.17064 0
M  V30 3954 C 514.674 6.43627 -5.25174 0
M  V30 3955 O 515.412 7.43686 -4.60469 0
M  V30 3956 C 514.005 5.40275 -4.31916 0
M  V30 3957 O 514.804 5.25279 -3.14438 0
M  V30 3958 C 512.668 6.04847 -4.05327 0
M  V30 3959 H 512.7 6.62195 -3.11261 0
M  V30 3960 H 513.883 4.42556 -4.81383 0
M  V30 3961 H 515.367 5.92458 -5.93643 0
M  V30 3962 H 513.673 7.92655 -6.402 0
M  V30 3963 H 513.483 6.26671 -8.0846 0
M  V30 3964 H 511.853 6.29101 -7.32804 0
M  V30 3965 H 514.492 5.84315 -2.47318 0
M  V30 3966 P 516.35 7.39546 -4.75277 0
M  V30 3967 O 517.772 7.84798 -5.01039 0
M  V30 3968 O 515.99 5.9812 -5.08098 0
M  V30 3969 O 516.027 7.57503 -3.1866 0
M  V30 3970 C 515.867 8.97357 -2.74833 0
M  V30 3971 C 516.407 9.07548 -1.32709 0
M  V30 3972 O 515.351 8.62072 -0.606159 0
M  V30 3973 C 517.625 8.25383 -0.938334 0
M  V30 3974 O 518.363 8.74577 0.146954 0
M  V30 3975 C 516.956 6.8802 -0.712559 0
M  V30 3976 O 517.755 6.1189 0.194655 0
M  V30 3977 C 515.619 7.27966 -0.139777 0
M  V30 3978 H 515.651 7.25354 0.961601 0
M  V30 3979 H 516.834 6.32557 -1.65702 0
M  V30 3980 H 518.318 8.19355 -1.79097 0
M  V30 3981 H 516.624 10.1294 -1.10029 0
M  V30 3982 H 516.434 9.64276 -3.41316 0
M  V30 3983 H 514.804 9.25417 -2.76357 0
M  V30 3984 H 517.443 6.25267 1.07847 0
M  V30 3985 P 519.3 8.791 3.21367e-12 0
M  V30 3986 O 520.722 9.31096 0.027933 0
M  V30 3987 O 518.94 7.77869 -1.04071 0
M  V30 3988 O 518.977 8.09533 1.41463 0
M  V30 3989 C 518.817 9.0349 2.53943 0
M  V30 3990 C 519.357 8.35226 3.79016 0
M  V30 3991 O 518.301 7.57992 4.15078 0
M  V30 3992 C 520.575 7.45087 3.67298 0
M  V30 3993 O 521.313 7.27796 4.85194 0
M  V30 3994 C 519.906 6.17323 3.12027 0
M  V30 3995 O 520.705 5.04231 3.47188 0
M  V30 3996 C 518.569 6.19961 3.81809 0
M  V30 3997 H 518.601 5.58218 4.73051 0
M  V30 3998 H 519.784 6.21726 2.02589 0
M  V30 3999 H 521.268 7.86112 2.9231 0
M  V30 4000 H 519.574 9.11627 4.55076 0
M  V30 4001 H 519.384 9.9573 2.34194 0
M  V30 4002 H 517.754 9.2792 2.67832 0
M  V30 4003 H 520.393 4.67702 4.28772 0
M  V30 4004 P 522.251 7.39546 4.75277 0
M  V30 4005 O 523.673 7.81777 5.05738 0
M  V30 4006 O 521.891 7.1065 3.32998 0
M  V30 4007 O 521.928 6.04542 5.56673 0
M  V30 4008 C 521.768 6.22772 7.02095 0
M  V30 4009 C 522.308 4.97725 7.70406 0
M  V30 4010 O 521.252 4.13256 7.58987 0
M  V30 4011 C 523.526 4.28231 7.11815 0
M  V30 4012 O 524.264 3.49945 8.01648 0
M  V30 4013 C 522.857 3.5063 5.96244 0
M  V30 4014 O 523.656 2.36482 5.64681 0
M  V30 4015 C 521.52 3.15122 6.56374 0
M  V30 4016 H 521.552 2.13853 6.99751 0
M  V30 4017 H 522.735 4.13501 5.06559 0
M  V30 4018 H 524.219 5.03285 6.70911 0
M  V30 4019 H 522.525 5.20877 8.75697 0
M  V30 4020 H 522.335 7.11046 7.35349 0
M  V30 4021 H 520.705 6.35815 7.26986 0
M  V30 4022 H 523.344 1.61644 6.13565 0
M  V30 4023 P 525.201 3.65191 7.99657 0
M  V30 4024 O 526.623 3.84333 8.48297 0
M  V30 4025 O 524.841 4.17805 6.64342 0
M  V30 4026 O 524.878 2.07613 7.95143 0
M  V30 4027 C 524.718 1.44328 9.27336 0
M  V30 4028 C 525.258 0.0220012 9.17097 0
M  V30 4029 O 524.203 -0.626867 8.61923 0
M  V30 4030 C 526.476 -0.24586 8.30336 0
M  V30 4031 O 527.214 -1.39011 8.63583 0
M  V30 4032 C 525.808 -0.273849 6.91158 0
M  V30 4033 O 526.606 -1.06331 6.02794 0
M  V30 4034 C 524.47 -0.897649 7.22545 0
M  V30 4035 N 523.427 -0.292839 6.41732 0
M  V30 4036 C 523.489 1.00068 6.10757 0
M  V30 4037 N 522.444 1.36468 5.35794 0
M  V30 4038 C 521.71 0.258894 5.2366 0
M  V30 4039 C 520.404 0.0670682 4.65752 0
M  V30 4040 O 519.671 0.902443 4.10497 0
M  V30 4041 N 519.974 -1.2131 4.75881 0
M  V30 4042 C 520.723 -2.24934 5.37101 0
M  V30 4043 N 520.126 -3.48783 5.33984 0
M  V30 4044 N 521.876 -2.0844 5.95684 0
M  V30 4045 C 522.333 -0.81395 5.87791 0
M  V30 4046 H 524.502 -1.9841 7.04286 0
M  V30 4047 H 525.685 0.739815 6.49601 0
M  V30 4048 H 527.17 0.598315 8.36563 0
M  V30 4049 H 525.475 -0.352479 10.1829 0
M  V30 4050 H 525.285 2.00611 10.0304 0
M  V30 4051 H 523.654 1.41843 9.55327 0
M  V30 4052 H 519.078 -1.44434 4.37895 0
M  V30 4053 H 524.285 1.67697 6.42268 0
M  V30 4054 H 519.215 -3.60543 4.87699 0
M  V30 4055 H 520.591 -4.29232 5.7819 0
M  V30 4056 H 526.295 -1.95704 6.0346 0
M  V30 4057 P 528.152 -1.25109 8.70152 0
M  V30 4058 O 529.574 -1.35274 9.21221 0
M  V30 4059 O 527.792 -0.0769065 7.84762 0
M  V30 4060 O 527.829 -2.55232 7.81161 0
M  V30 4061 C 527.669 -3.79939 8.58154 0
M  V30 4062 C 528.209 -4.94023 7.72785 0
M  V30 4063 O 527.153 -5.18726 6.91205 0
M  V30 4064 C 529.427 -4.69597 6.85231 0
M  V30 4065 O 530.165 -5.83832 6.51337 0
M  V30 4066 C 528.758 -3.96706 5.66633 0
M  V30 4067 O 529.557 -4.15414 4.49689 0
M  V30 4068 C 527.421 -4.66153 5.59313 0
M  V30 4069 H 527.453 -5.47679 4.85214 0
M  V30 4070 H 528.636 -2.89008 5.86566 0
M  V30 4071 H 530.12 -4.0121 7.36511 0
M  V30 4072 H 528.426 -5.80182 8.37584 0
M  V30 4073 H 528.236 -3.73517 9.52265 0
M  V30 4074 H 526.606 -3.97163 8.80359 0
M  V30 4075 H 529.245 -4.90969 4.01921 0
M  V30 4076 P 531.103 -5.75688 6.64379 0
M  V30 4077 O 532.525 -6.11981 7.01997 0
M  V30 4078 O 530.743 -4.30744 6.56026 0
M  V30 4079 O 530.78 -6.37042 5.19165 0
M  V30 4080 C 530.62 -7.83578 5.16515 0
M  V30 4081 C 531.16 -8.33307 3.82977 0
M  V30 4082 O 530.105 -8.10074 3.01034 0
M  V30 4083 C 532.378 -7.65514 3.2257 0
M  V30 4084 O 533.116 -8.4329 2.32297 0
M  V30 4085 C 531.71 -6.40075 2.62207 0
M  V30 4086 O 532.508 -5.92492 1.53687 0
M  V30 4087 C 530.372 -6.9454 2.18503 0
M  V30 4088 N 529.329 -5.95905 2.39948 0
M  V30 4089 C 529.391 -5.13994 3.44742 0
M  V30 4090 N 528.346 -4.30684 3.46712 0
M  V30 4091 C 527.612 -4.65583 2.41086 0
M  V30 4092 C 526.306 -4.20877 1.99581 0
M  V30 4093 O 525.573 -3.35913 2.52616 0
M  V30 4094 N 525.876 -4.83271 0.873406 0
M  V30 4095 C 526.625 -5.82006 0.185129 0
M  V30 4096 N 526.028 -6.30619 -0.95439 0
M  V30 4097 N 527.778 -6.28443 0.578524 0
M  V30 4098 C 528.235 -5.68486 1.70138 0
M  V30 4099 H 530.404 -7.23063 1.12091 0
M  V30 4100 H 531.587 -5.60165 3.3715 0
M  V30 4101 H 533.072 -7.3611 4.01946 0
M  V30 4102 H 531.377 -9.40912 3.9095 0
M  V30 4103 H 531.187 -8.29056 5.99158 0
M  V30 4104 H 529.556 -8.10073 5.25882 0
M  V30 4105 H 524.98 -4.58323 0.505262 0
M  V30 4106 H 530.187 -5.14564 4.1935 0
M  V30 4107 H 525.117 -5.93402 -1.25364 0
M  V30 4108 H 526.493 -7.0425 -1.50254 0
M  V30 4109 H 532.197 -6.30224 0.72668 0
M  V30 4110 P 534.053 -8.4349 2.47671 0
M  V30 4111 O 535.475 -8.94359 2.59696 0
M  V30 4112 O 533.693 -7.1704 3.19006 0
M  V30 4113 O 533.73 -8.16596 0.923387 0
M  V30 4114 C 533.57 -9.38437 0.108857 0
M  V30 4115 C 534.11 -9.08076 -1.28339 0
M  V30 4116 O 533.055 -8.44229 -1.84713 0
M  V30 4117 C 535.328 -8.18386 -1.42505 0
M  V30 4118 O 536.066 -8.3501 -2.60497 0
M  V30 4119 C 534.66 -6.80225 -1.25468 0
M  V30 4120 O 535.458 -5.81526 -1.91035 0
M  V30 4121 C 533.322 -7.02416 -1.9168 0
M  V30 4122 N 532.279 -6.31033 -1.20314 0
M  V30 4123 C 532.341 -6.18781 0.121293 0
M  V30 4124 N 531.296 -5.49762 0.588272 0
M  V30 4125 C 530.562 -5.22015 -0.488988 0
M  V30 4126 C 529.256 -4.61966 -0.596448 0
M  V30 4127 O 528.523 -4.19162 0.309059 0
M  V30 4128 N 528.826 -4.53773 -1.878 0
M  V30 4129 C 529.575 -4.99623 -2.99082 0
M  V30 4130 N 528.978 -4.78912 -4.21227 0
M  V30 4131 N 530.728 -5.59957 -2.91093 0
M  V30 4132 C 531.185 -5.70225 -1.64218 0
M  V30 4133 H 533.354 -6.6888 -2.96621 0
M  V30 4134 H 534.537 -6.53517 -0.192194 0
M  V30 4135 H 536.022 -8.36563 -0.598329 0
M  V30 4136 H 534.327 -10.0291 -1.79807 0
M  V30 4137 H 534.137 -10.2138 0.558219 0
M  V30 4138 H 532.506 -9.6579 0.0444202 0
M  V30 4139 H 527.93 -4.12883 -2.05283 0
M  V30 4140 H 533.137 -6.59596 0.745856 0
M  V30 4141 H 528.067 -4.31425 -4.2628 0
M  V30 4142 H 529.443 -5.11219 -5.07148 0
M  V30 4143 H 535.147 -5.69466 -2.79593 0
M  V30 4144 P 537.004 -8.4349 -2.47671 0
M  V30 4145 O 538.426 -8.92593 -2.65 0
M  V30 4146 O 536.644 -7.7568 -1.19296 0
M  V30 4147 O 536.681 -7.36886 -3.63805 0
M  V30 4148 C 536.521 -7.95349 -4.982 0
M  V30 4149 C 537.061 -6.94612 -5.98974 0
M  V30 4150 O 536.005 -6.10347 -6.11815 0
M  V30 4151 C 538.279 -6.11426 -5.62335 0
M  V30 4152 O 539.017 -5.6162 -6.70584 0
M  V30 4153 C 537.61 -5.04409 -4.73308 0
M  V30 4154 O 538.409 -3.85992 -4.75183 0
M  V30 4155 C 536.273 -4.8728 -5.41006 0
M  V30 4156 H 536.305 -4.02333 -6.11157 0
M  V30 4157 H 537.488 -5.39466 -3.69543 0
M  V30 4158 H 538.972 -6.71916 -5.01943 0
M  V30 4159 H 537.278 -7.4649 -6.93477 0
M  V30 4160 H 537.088 -8.89416 -5.05237 0
M  V30 4161 H 535.458 -8.14876 -5.18409 0
M  V30 4162 H 538.097 -3.27957 -5.4317 0
M  V30 4163 P 539.954 -5.75688 -6.64379 0
M  V30 4164 O 541.376 -6.07627 -7.05504 0
M  V30 4165 O 539.594 -5.88047 -5.19722 0
M  V30 4166 O 539.631 -4.2322 -7.04443 0
M  V30 4167 C 539.471 -3.99743 -8.4911 0
M  V30 4168 C 540.011 -2.60516 -8.79425 0
M  V30 4169 O 538.955 -1.82684 -8.4467 0
M  V30 4170 C 541.229 -2.10343 -8.03628 0
M  V30 4171 O 541.967 -1.09919 -8.67766 0
M  V30 4172 C 540.56 -1.68446 -6.70876 0
M  V30 4173 O 541.359 -0.678137 -6.08433 0
M  V30 4174 C 539.223 -1.17436 -7.18567 0
M  V30 4175 H 539.255 -0.0804732 -7.31656 0
M  V30 4176 H 540.438 -2.54037 -6.02537 0
M  V30 4177 H 541.922 -2.93881 -7.85526 0
M  V30 4178 H 540.228 -2.53065 -9.86973 0
M  V30 4179 H 540.038 -4.75072 -9.05887 0
M  V30 4180 H 538.408 -4.05244 -8.76668 0
M  V30 4181 H 541.047 0.177647 -6.34251 0
M  V30 4182 P 542.905 -1.25109 -8.70152 0
M  V30 4183 O 544.327 -1.29744 -9.22016 0
M  V30 4184 O 542.545 -2.13714 -7.55141 0
M  V30 4185 O 542.582 0.248149 -8.21425 0
M  V30 4186 C 542.422 1.22779 -9.30434 0
M  V30 4187 C 542.962 2.56293 -8.80664 0
M  V30 4188 O 541.906 3.02979 -8.09349 0
M  V30 4189 C 544.18 2.57523 -7.89775 0
M  V30 4190 O 544.918 3.7668 -7.89438 0
M  V30 4191 C 543.511 2.20997 -6.55446 0
M  V30 4192 O 544.31 2.71895 -5.48509 0
M  V30 4193 C 542.174 2.89693 -6.67988 0
M  V30 4194 H 542.206 3.88793 -6.19859 0
M  V30 4195 H 543.389 1.12046 -6.44229 0
M  V30 4196 H 544.873 1.7746 -8.19711 0
M  V30 4197 H 543.179 3.20706 -9.67112 0
M  V30 4198 H 542.989 0.901032 -10.1892 0
M  V30 4199 H 541.359 1.33049 -9.56592 0
M  V30 4200 H 543.998 3.57847 -5.23962 0
M  V30 4201 P 545.855 3.65191 -7.99657 0
M  V30 4202 O 547.277 3.89332 -8.45794 0
M  V30 4203 O 545.495 2.28472 -7.50807 0
M  V30 4204 O 545.532 4.64972 -6.77611 0
M  V30 4205 C 545.372 6.06319 -7.16352 0
M  V30 4206 C 545.912 6.91731 -6.02299 0
M  V30 4207 O 544.856 6.92449 -5.17064 0
M  V30 4208 C 547.13 6.43627 -5.25174 0
M  V30 4209 O 547.868 7.43686 -4.60469 0
M  V30 4210 C 546.461 5.40275 -4.31916 0
M  V30 4211 O 547.26 5.25279 -3.14438 0
M  V30 4212 C 545.124 6.04847 -4.05327 0
M  V30 4213 H 545.156 6.62195 -3.11261 0
M  V30 4214 H 546.339 4.42556 -4.81383 0
M  V30 4215 H 547.823 5.92458 -5.93643 0
M  V30 4216 H 546.129 7.92655 -6.402 0
M  V30 4217 H 545.939 6.26671 -8.0846 0
M  V30 4218 H 544.309 6.29101 -7.32804 0
M  V30 4219 H 546.948 5.84315 -2.47318 0
M  V30 4220 P 548.806 7.39546 -4.75277 0
M  V30 4221 O 550.207 7.86988 -5.07993 0
M  V30 4222 O 548.428 5.99957 -5.13804 0
M  V30 4223 O 548.483 7.57411 -3.18621 0
M  V30 4224 C 548.323 8.97357 -2.74833 0
M  V30 4225 C 548.863 9.0745 -1.32694 0
M  V30 4226 O 547.807 8.61972 -0.606089 0
M  V30 4227 C 550.08 8.25383 -0.938334 0
M  V30 4228 O 550.819 8.74577 0.146954 0
M  V30 4229 C 549.413 6.8802 -0.712559 0
M  V30 4230 O 550.211 6.11791 0.194623 0
M  V30 4231 C 548.075 7.27966 -0.139777 0
M  V30 4232 N 547.032 6.39368 -0.623421 0
M  V30 4233 C 545.997 6.08088 0.223886 0
M  V30 4234 O 546.036 6.5102 1.39986 0
M  V30 4235 N 544.985 5.30627 -0.224051 0
M  V30 4236 C 545.033 4.82531 -1.47257 0
M  V30 4237 N 544.023 4.07328 -1.89378 0
M  V30 4238 C 546.129 5.09974 -2.34008 0
M  V30 4239 C 547.095 5.89548 -1.87678 0
M  V30 4240 H 548.107 7.25255 0.961469 0
M  V30 4241 H 549.29 6.32625 -1.65044 0
M  V30 4242 H 550.774 8.19631 -1.78299 0
M  V30 4243 H 549.08 10.1305 -1.09016 0
M  V30 4244 H 548.889 9.64276 -3.41316 0
M  V30 4245 H 547.259 9.25321 -2.76328 0
M  V30 4246 H 546.177 4.67832 -3.3413 0
M  V30 4247 H 547.941 6.14434 -2.51991 0
M  V30 4248 H 543.233 3.87329 -1.26296 0
M  V30 4249 H 544.028 3.69014 -2.84741 0
M  V30 4250 H 549.995 6.35931 1.08377 0
M  V30 4251 P 551.757 8.791 3.52383e-12 0
M  V30 4252 O 553.179 9.31096 0.027933 0
M  V30 4253 O 551.397 7.77869 -1.04071 0
M  V30 4254 O 551.434 8.09533 1.41463 0
M  V30 4255 C 551.274 9.0349 2.53943 0
M  V30 4256 C 551.814 8.35226 3.79016 0
M  V30 4257 O 550.758 7.57992 4.15078 0
M  V30 4258 C 553.032 7.45087 3.67298 0
M  V30 4259 O 553.77 7.27796 4.85194 0
M  V30 4260 C 552.363 6.17323 3.12027 0
M  V30 4261 O 553.162 5.04231 3.47188 0
M  V30 4262 C 551.026 6.19961 3.81809 0
M  V30 4263 H 551.058 5.58218 4.73051 0
M  V30 4264 H 552.241 6.21726 2.02589 0
M  V30 4265 H 553.725 7.86112 2.9231 0
M  V30 4266 H 552.031 9.11627 4.55076 0
M  V30 4267 H 551.841 9.9573 2.34194 0
M  V30 4268 H 550.211 9.2792 2.67832 0
M  V30 4269 H 552.85 4.67702 4.28772 0
M  V30 4270 P 554.707 7.39546 4.75277 0
M  V30 4271 O 556.129 7.81777 5.05738 0
M  V30 4272 O 554.347 7.1065 3.32998 0
M  V30 4273 O 554.384 6.04542 5.56673 0
M  V30 4274 C 554.224 6.22772 7.02095 0
M  V30 4275 C 554.764 4.97725 7.70406 0
M  V30 4276 O 553.708 4.13256 7.58987 0
M  V30 4277 C 555.982 4.28231 7.11815 0
M  V30 4278 O 556.72 3.49945 8.01648 0
M  V30 4279 C 555.313 3.5063 5.96244 0
M  V30 4280 O 556.112 2.36482 5.64681 0
M  V30 4281 C 553.976 3.15122 6.56374 0
M  V30 4282 H 554.008 2.13853 6.99751 0
M  V30 4283 H 555.191 4.13501 5.06559 0
M  V30 4284 H 556.675 5.03285 6.70911 0
M  V30 4285 H 554.981 5.20877 8.75697 0
M  V30 4286 H 554.791 7.11046 7.35349 0
M  V30 4287 H 553.161 6.35815 7.26986 0
M  V30 4288 H 555.8 1.61644 6.13565 0
M  V30 4289 P 557.658 3.65191 7.99657 0
M  V30 4290 O 559.08 3.8425 8.48115 0
M  V30 4291 O 557.298 4.17805 6.64342 0
M  V30 4292 O 557.335 2.07613 7.95143 0
M  V30 4293 C 557.175 1.44328 9.27336 0
M  V30 4294 C 557.715 0.0220036 9.17197 0
M  V30 4295 O 556.659 -0.626867 8.61923 0
M  V30 4296 C 558.933 -0.24586 8.30336 0
M  V30 4297 O 559.671 -1.39011 8.63583 0
M  V30 4298 C 558.264 -0.273849 6.91158 0
M  V30 4299 O 559.063 -1.06348 6.02892 0
M  V30 4300 C 556.927 -0.897649 7.22545 0
M  V30 4301 H 556.959 -1.9841 7.04286 0
M  V30 4302 H 558.142 0.739928 6.497 0
M  V30 4303 H 559.626 0.60668 8.36503 0
M  V30 4304 H 557.932 -0.352479 10.1829 0
M  V30 4305 H 557.742 2.00611 10.0304 0
M  V30 4306 H 556.112 1.41843 9.55327 0
M  V30 4307 H 558.751 -1.95734 6.03555 0
M  V30 4308 P 560.608 -1.25109 8.70152 0
M  V30 4309 O 562.03 -1.35274 9.21221 0
M  V30 4310 O 560.248 -0.0769065 7.84762 0
M  V30 4311 O 560.285 -2.55232 7.81161 0
M  V30 4312 C 560.125 -3.79939 8.58154 0
M  V30 4313 C 560.665 -4.94023 7.72785 0
M  V30 4314 O 559.609 -5.18726 6.91205 0
M  V30 4315 C 561.883 -4.69597 6.85231 0
M  V30 4316 O 562.621 -5.83832 6.51337 0
M  V30 4317 C 561.214 -3.96706 5.66633 0
M  V30 4318 O 562.013 -4.15414 4.49689 0
M  V30 4319 C 559.877 -4.66153 5.59313 0
M  V30 4320 H 559.909 -5.47679 4.85214 0
M  V30 4321 H 561.092 -2.89008 5.86566 0
M  V30 4322 H 562.576 -4.0121 7.36511 0
M  V30 4323 H 560.882 -5.80182 8.37584 0
M  V30 4324 H 560.692 -3.73517 9.52265 0
M  V30 4325 H 559.062 -3.97163 8.80359 0
M  V30 4326 H 561.701 -4.90969 4.01921 0
M  V30 4327 P 563.559 -5.75688 6.64379 0
M  V30 4328 O 564.981 -6.11849 7.01846 0
M  V30 4329 O 563.199 -4.30744 6.56026 0
M  V30 4330 O 563.236 -6.37042 5.19165 0
M  V30 4331 C 563.076 -7.83578 5.16515 0
M  V30 4332 C 563.616 -8.33398 3.83019 0
M  V30 4333 O 562.56 -8.10074 3.01034 0
M  V30 4334 C 564.834 -7.65514 3.2257 0
M  V30 4335 O 565.572 -8.4329 2.32297 0
M  V30 4336 C 564.165 -6.40075 2.62207 0
M  V30 4337 O 564.964 -5.92589 1.53712 0
M  V30 4338 C 562.828 -6.9454 2.18503 0
M  V30 4339 H 562.86 -7.23063 1.12091 0
M  V30 4340 H 564.043 -5.6025 3.37201 0
M  V30 4341 H 565.527 -7.35707 4.02681 0
M  V30 4342 H 563.833 -9.40912 3.9095 0
M  V30 4343 H 563.643 -8.29056 5.99158 0
M  V30 4344 H 562.013 -8.10073 5.25882 0
M  V30 4345 H 564.652 -6.30324 0.726794 0
M  V30 4346 P 566.509 -8.4349 2.47671 0
M  V30 4347 O 567.931 -8.94167 2.5964 0
M  V30 4348 O 566.149 -7.1704 3.19006 0
M  V30 4349 O 566.186 -8.16596 0.923387 0
M  V30 4350 C 566.026 -9.38437 0.108857 0
M  V30 4351 C 566.566 -9.08175 -1.28353 0
M  V30 4352 O 565.51 -8.44229 -1.84713 0
M  V30 4353 C 567.784 -8.18386 -1.42505 0
M  V30 4354 O 568.522 -8.3501 -2.60497 0
M  V30 4355 C 567.115 -6.80225 -1.25468 0
M  V30 4356 O 567.914 -5.81621 -1.91066 0
M  V30 4357 C 565.778 -7.02416 -1.9168 0
M  V30 4358 H 565.81 -6.6888 -2.96621 0
M  V30 4359 H 566.993 -6.53617 -0.192223 0
M  V30 4360 H 568.477 -8.36622 -0.589963 0
M  V30 4361 H 566.783 -10.0291 -1.79807 0
M  V30 4362 H 566.593 -10.2138 0.558219 0
M  V30 4363 H 564.963 -9.6579 0.0444202 0
M  V30 4364 H 567.602 -5.69556 -2.79637 0
M  V30 4365 P 569.46 -8.4349 -2.47671 0
M  V30 4366 O 570.882 -8.92593 -2.65 0
M  V30 4367 O 569.1 -7.7568 -1.19296 0
M  V30 4368 O 569.137 -7.36886 -3.63805 0
M  V30 4369 C 568.977 -7.95349 -4.982 0
M  V30 4370 C 569.517 -6.94612 -5.98974 0
M  V30 4371 O 568.461 -6.10347 -6.11815 0
M  V30 4372 C 570.735 -6.11426 -5.62335 0
M  V30 4373 O 571.473 -5.6162 -6.70584 0
M  V30 4374 C 570.066 -5.04409 -4.73308 0
M  V30 4375 O 570.865 -3.85992 -4.75183 0
M  V30 4376 C 568.729 -4.8728 -5.41006 0
M  V30 4377 H 568.761 -4.02333 -6.11157 0
M  V30 4378 H 569.944 -5.39466 -3.69543 0
M  V30 4379 H 571.428 -6.71916 -5.01943 0
M  V30 4380 H 569.734 -7.4649 -6.93477 0
M  V30 4381 H 569.544 -8.89416 -5.05237 0
M  V30 4382 H 567.914 -8.14876 -5.18409 0
M  V30 4383 H 570.553 -3.27957 -5.4317 0
M  V30 4384 P 572.411 -5.75688 -6.64379 0
M  V30 4385 O 573.832 -6.07692 -7.0558 0
M  V30 4386 O 572.051 -5.88047 -5.19722 0
M  V30 4387 O 572.088 -4.2322 -7.04443 0
M  V30 4388 C 571.927 -3.99785 -8.49201 0
M  V30 4389 C 572.468 -2.60516 -8.79425 0
M  V30 4390 O 571.413 -1.82663 -8.44573 0
M  V30 4391 C 573.686 -2.10343 -8.03628 0
M  V30 4392 O 574.424 -1.09919 -8.67766 0
M  V30 4393 C 573.018 -1.68446 -6.70876 0
M  V30 4394 O 573.816 -0.684109 -6.08265 0
M  V30 4395 C 571.68 -1.17436 -7.18567 0
M  V30 4396 N 570.637 -1.52699 -6.23988 0
M  V30 4397 C 570.806 -2.578 -5.40574 0
M  V30 4398 N 569.779 -2.78966 -4.61193 0
M  V30 4399 C 568.894 -1.78725 -4.95769 0
M  V30 4400 C 567.627 -1.45727 -4.44207 0
M  V30 4401 N 567.028 -2.13994 -3.43613 0
M  V30 4402 N 567.062 -0.374977 -5.05812 0
M  V30 4403 C 567.664 0.345585 -6.05615 0
M  V30 4404 N 568.841 0.0787651 -6.56253 0
M  V30 4405 C 569.416 -1.00499 -5.96189 0
M  V30 4406 H 571.712 -0.0804622 -7.31556 0
M  V30 4407 H 572.895 -2.53396 -6.02698 0
M  V30 4408 H 574.378 -2.93881 -7.85526 0
M  V30 4409 H 572.684 -2.52078 -9.87225 0
M  V30 4410 H 572.494 -4.75072 -9.05887 0
M  V30 4411 H 570.864 -4.05244 -8.76668 0
M  V30 4412 H 567.128 1.20098 -6.4532 0
M  V30 4413 H 571.706 -3.18977 -5.3945 0
M  V30 4414 H 566.098 -1.84983 -3.10004 0
M  V30 4415 H 567.502 -2.9465 -3.00843 0
M  V30 4416 H 573.504 0.177619 -6.34151 0
M  V30 4417 P 575.361 -1.25109 -8.70152 0
M  V30 4418 O 576.783 -1.29744 -9.22016 0
M  V30 4419 O 575.001 -2.13714 -7.55141 0
M  V30 4420 O 575.038 0.248149 -8.21425 0
M  V30 4421 C 574.878 1.22779 -9.30434 0
M  V30 4422 C 575.418 2.56293 -8.80664 0
M  V30 4423 O 574.362 3.02979 -8.09349 0
M  V30 4424 C 576.636 2.57523 -7.89775 0
M  V30 4425 O 577.374 3.7668 -7.89438 0
M  V30 4426 C 575.967 2.20997 -6.55446 0
M  V30 4427 O 576.766 2.71895 -5.48509 0
M  V30 4428 C 574.63 2.89693 -6.67988 0
M  V30 4429 H 574.662 3.88793 -6.19859 0
M  V30 4430 H 575.845 1.12046 -6.44229 0
M  V30 4431 H 577.329 1.7746 -8.19711 0
M  V30 4432 H 575.635 3.20706 -9.67112 0
M  V30 4433 H 575.445 0.901032 -10.1892 0
M  V30 4434 H 573.815 1.33049 -9.56592 0
M  V30 4435 H 576.454 3.57847 -5.23962 0
M  V30 4436 P 578.312 3.65191 -7.99657 0
M  V30 4437 O 579.734 3.89332 -8.45794 0
M  V30 4438 O 577.952 2.28472 -7.50807 0
M  V30 4439 O 577.989 4.64972 -6.77611 0
M  V30 4440 C 577.829 6.06319 -7.16352 0
M  V30 4441 C 578.369 6.91731 -6.02299 0
M  V30 4442 O 577.313 6.92449 -5.17064 0
M  V30 4443 C 579.587 6.43627 -5.25174 0
M  V30 4444 O 580.325 7.43686 -4.60469 0
M  V30 4445 C 578.918 5.40275 -4.31916 0
M  V30 4446 O 579.717 5.25279 -3.14438 0
M  V30 4447 C 577.581 6.04847 -4.05327 0
M  V30 4448 H 577.613 6.62195 -3.11261 0
M  V30 4449 H 578.796 4.42556 -4.81383 0
M  V30 4450 H 580.28 5.92458 -5.93643 0
M  V30 4451 H 578.586 7.92655 -6.402 0
M  V30 4452 H 578.396 6.26671 -8.0846 0
M  V30 4453 H 576.766 6.29101 -7.32804 0
M  V30 4454 H 579.405 5.84315 -2.47318 0
M  V30 4455 P 581.262 7.39546 -4.75277 0
M  V30 4456 O 582.684 7.84966 -5.01146 0
M  V30 4457 O 580.902 5.9812 -5.08098 0
M  V30 4458 O 580.939 7.57503 -3.1866 0
M  V30 4459 C 580.779 8.97357 -2.74833 0
M  V30 4460 C 581.319 9.0745 -1.32694 0
M  V30 4461 O 580.264 8.62072 -0.606159 0
M  V30 4462 C 582.537 8.25383 -0.938334 0
M  V30 4463 O 583.275 8.74577 0.146954 0
M  V30 4464 C 581.869 6.8802 -0.712559 0
M  V30 4465 O 582.667 6.11791 0.194623 0
M  V30 4466 C 580.531 7.27966 -0.139777 0
M  V30 4467 N 579.488 6.39368 -0.623421 0
M  V30 4468 C 579.55 5.90299 -1.85969 0
M  V30 4469 N 578.505 5.10919 -2.1133 0
M  V30 4470 C 577.771 5.14646 -1.0015 0
M  V30 4471 C 576.465 4.60057 -0.729219 0
M  V30 4472 O 575.732 3.93476 -1.47746 0
M  V30 4473 N 576.035 4.88302 0.523505 0
M  V30 4474 C 576.784 5.63646 1.46207 0
M  V30 4475 N 576.187 5.78186 2.69239 0
M  V30 4476 N 577.937 6.19285 1.21544 0
M  V30 4477 C 578.394 5.93392 -0.0308487 0
M  V30 4478 H 580.563 7.25354 0.961601 0
M  V30 4479 H 581.746 6.3246 -1.65676 0
M  V30 4480 H 583.231 8.19533 -1.78278 0
M  V30 4481 H 581.536 10.1294 -1.10029 0
M  V30 4482 H 581.346 9.64276 -3.41316 0
M  V30 4483 H 579.715 9.25417 -2.76357 0
M  V30 4484 H 575.139 4.53993 0.806451 0
M  V30 4485 H 580.346 6.11865 -2.57394 0
M  V30 4486 H 575.276 5.34046 2.87467 0
M  V30 4487 H 576.652 6.33391 3.42578 0
M  V30 4488 H 582.356 6.25169 1.0783 0
M  V30 4489 P 584.213 8.791 3.834e-12 0
M  V30 4490 O 585.634 9.31196 0.027936 0
M  V30 4491 O 583.853 7.77869 -1.04071 0
M  V30 4492 O 583.89 8.09533 1.41463 0
M  V30 4493 C 583.729 9.03587 2.5397 0
M  V30 4494 C 584.27 8.35226 3.79016 0
M  V30 4495 O 583.215 7.57904 4.1503 0
M  V30 4496 C 585.488 7.45087 3.67298 0
M  V30 4497 O 586.226 7.27796 4.85194 0
M  V30 4498 C 584.82 6.17323 3.12027 0
M  V30 4499 O 585.618 5.04496 3.46627 0
M  V30 4500 C 583.482 6.19961 3.81809 0
M  V30 4501 N 582.439 5.71575 2.93223 0
M  V30 4502 C 582.608 5.77362 1.59168 0
M  V30 4503 N 581.581 5.3123 0.911893 0
M  V30 4504 C 580.696 4.91717 1.89588 0
M  V30 4505 C 579.429 4.3114 1.8076 0
M  V30 4506 N 578.83 3.99821 0.632928 0
M  V30 4507 N 578.864 4.06823 3.02898 0
M  V30 4508 C 579.466 4.35062 4.22711 0
M  V30 4509 N 580.643 4.90805 4.35707 0
M  V30 4510 C 581.218 5.16382 3.14469 0
M  V30 4511 H 583.514 5.58142 4.72986 0
M  V30 4512 H 584.697 6.21428 2.0318 0
M  V30 4513 H 586.18 7.86112 2.9231 0
M  V30 4514 H 584.486 9.11171 4.55987 0
M  V30 4515 H 584.296 9.9573 2.34194 0
M  V30 4516 H 582.666 9.2792 2.67832 0
M  V30 4517 H 578.93 4.09052 5.13359 0
M  V30 4518 H 583.508 6.16575 1.12198 0
M  V30 4519 H 577.9 3.55423 0.632085 0
M  V30 4520 H 579.304 4.20317 -0.256712 0
M  V30 4521 H 585.306 4.67628 4.28704 0
M  V30 4522 P 587.163 7.39546 4.75277 0
M  V30 4523 O 588.564 7.89013 5.04841 0
M  V30 4524 O 586.785 7.16603 3.32298 0
M  V30 4525 O 586.84 6.04468 5.56605 0
M  V30 4526 C 586.68 6.22772 7.02095 0
M  V30 4527 C 587.22 4.97671 7.70322 0
M  V30 4528 O 586.164 4.13208 7.58899 0
M  V30 4529 C 588.437 4.28231 7.11815 0
M  V30 4530 O 589.176 3.49945 8.01648 0
M  V30 4531 C 587.77 3.5063 5.96244 0
M  V30 4532 O 588.568 2.36443 5.64589 0
M  V30 4533 C 586.432 3.15122 6.56374 0
M  V30 4534 N 585.389 3.22311 5.55692 0
M  V30 4535 C 584.354 2.32244 5.62437 0
M  V30 4536 O 584.393 1.43107 6.50341 0
M  V30 4537 N 583.342 2.40811 4.73368 0
M  V30 4538 C 583.39 3.344 3.77753 0
M  V30 4539 N 582.38 3.41475 2.91848 0
M  V30 4540 C 584.486 4.24712 3.66679 0
M  V30 4541 C 585.452 4.15625 4.58307 0
M  V30 4542 H 586.464 2.13823 6.99656 0
M  V30 4543 H 587.647 4.12931 5.06895 0
M  V30 4544 H 589.131 5.02674 6.71494 0
M  V30 4545 H 587.437 5.20001 8.76217 0
M  V30 4546 H 587.246 7.11046 7.35349 0
M  V30 4547 H 585.616 6.35749 7.26911 0
M  V30 4548 H 584.534 4.9828 2.86753 0
M  V30 4549 H 586.298 4.84464 4.54228 0
M  V30 4550 H 581.59 2.75785 2.99862 0
M  V30 4551 H 582.385 4.12304 2.17382 0
M  V30 4552 H 588.352 1.65592 6.23485 0
M  V30 4553 P 590.114 3.65191 7.99657 0
M  V30 4554 O 591.536 3.8425 8.48115 0
M  V30 4555 O 589.754 4.17805 6.64342 0
M  V30 4556 O 589.791 2.07613 7.95143 0
M  V30 4557 C 589.631 1.44328 9.27336 0
M  V30 4558 C 590.171 0.0220036 9.17197 0
M  V30 4559 O 589.115 -0.626867 8.61923 0
M  V30 4560 C 591.389 -0.24586 8.30336 0
M  V30 4561 O 592.127 -1.39011 8.63583 0
M  V30 4562 C 590.72 -0.273849 6.91158 0
M  V30 4563 O 591.519 -1.06348 6.02892 0
M  V30 4564 C 589.383 -0.897649 7.22545 0
M  V30 4565 H 589.415 -1.9841 7.04286 0
M  V30 4566 H 590.598 0.739928 6.497 0
M  V30 4567 H 592.082 0.60668 8.36503 0
M  V30 4568 H 590.388 -0.352479 10.1829 0
M  V30 4569 H 590.198 2.00611 10.0304 0
M  V30 4570 H 588.568 1.41843 9.55327 0
M  V30 4571 H 591.207 -1.95734 6.03555 0
M  V30 4572 P 593.065 -1.25109 8.70152 0
M  V30 4573 O 594.487 -1.35274 9.21221 0
M  V30 4574 O 592.705 -0.0769065 7.84762 0
M  V30 4575 O 592.742 -2.55232 7.81161 0
M  V30 4576 C 592.582 -3.79939 8.58154 0
M  V30 4577 C 593.122 -4.94023 7.72785 0
M  V30 4578 O 592.066 -5.18726 6.91205 0
M  V30 4579 C 594.34 -4.69597 6.85231 0
M  V30 4580 O 595.078 -5.83832 6.51337 0
M  V30 4581 C 593.671 -3.96706 5.66633 0
M  V30 4582 O 594.47 -4.15414 4.49689 0
M  V30 4583 C 592.334 -4.66153 5.59313 0
M  V30 4584 H 592.366 -5.47679 4.85214 0
M  V30 4585 H 593.549 -2.89008 5.86566 0
M  V30 4586 H 595.033 -4.0121 7.36511 0
M  V30 4587 H 593.339 -5.80182 8.37584 0
M  V30 4588 H 593.149 -3.73517 9.52265 0
M  V30 4589 H 591.519 -3.97163 8.80359 0
M  V30 4590 H 594.158 -4.90969 4.01921 0
M  V30 4591 P 596.015 -5.75688 6.64379 0
M  V30 4592 O 597.437 -6.11849 7.01846 0
M  V30 4593 O 595.655 -4.30744 6.56026 0
M  V30 4594 O 595.692 -6.37042 5.19165 0
M  V30 4595 C 595.532 -7.83578 5.16515 0
M  V30 4596 C 596.072 -8.33398 3.83019 0
M  V30 4597 O 595.016 -8.10074 3.01034 0
M  V30 4598 C 597.29 -7.65514 3.2257 0
M  V30 4599 O 598.028 -8.4329 2.32297 0
M  V30 4600 C 596.621 -6.40075 2.62207 0
M  V30 4601 O 597.42 -5.92589 1.53712 0
M  V30 4602 C 595.284 -6.9454 2.18503 0
M  V30 4603 H 595.316 -7.23063 1.12091 0
M  V30 4604 H 596.499 -5.6025 3.37201 0
M  V30 4605 H 597.983 -7.35707 4.02681 0
M  V30 4606 H 596.289 -9.40912 3.9095 0
M  V30 4607 H 596.099 -8.29056 5.99158 0
M  V30 4608 H 594.469 -8.10073 5.25882 0
M  V30 4609 H 597.108 -6.30324 0.726794 0
M  V30 4610 P 598.966 -8.4349 2.47671 0
M  V30 4611 O 600.387 -8.94263 2.59668 0
M  V30 4612 O 598.606 -7.1704 3.19006 0
M  V30 4613 O 598.643 -8.16596 0.923387 0
M  V30 4614 C 598.482 -9.38537 0.108869 0
M  V30 4615 C 599.023 -9.08175 -1.28353 0
M  V30 4616 O 597.968 -8.44131 -1.84692 0
M  V30 4617 C 600.241 -8.18386 -1.42505 0
M  V30 4618 O 600.979 -8.3501 -2.60497 0
M  V30 4619 C 599.573 -6.80225 -1.25468 0
M  V30 4620 O 600.371 -5.81716 -1.90454 0
M  V30 4621 C 598.235 -7.02416 -1.9168 0
M  V30 4622 N 597.192 -6.31033 -1.20314 0
M  V30 4623 C 597.361 -5.98817 0.0994088 0
M  V30 4624 N 596.334 -5.35403 0.621694 0
M  V30 4625 C 595.449 -5.25212 -0.43376 0
M  V30 4626 C 594.182 -4.64602 -0.519722 0
M  V30 4627 N 593.617 -4.7568 -1.76013 0
M  V30 4628 C 594.219 -5.3653 -2.83017 0
M  V30 4629 N 595.396 -5.93676 -2.79782 0
M  V30 4630 C 595.971 -5.84061 -1.56249 0
M  V30 4631 H 599.45 -6.53498 -0.198729 0
M  V30 4632 H 600.933 -8.36622 -0.589963 0
M  V30 4633 H 599.239 -10.0273 -1.8081 0
M  V30 4634 H 599.049 -10.2138 0.558219 0
M  V30 4635 H 597.419 -9.6579 0.0444202 0
M  V30 4636 H 598.261 -6.23209 0.660562 0
M  V30 4637 H 600.059 -5.69466 -2.79593 0
M  V30 4638 P 601.916 -8.4349 -2.47671 0
M  V30 4639 O 603.337 -8.92689 -2.65029 0
M  V30 4640 O 601.556 -7.7568 -1.19296 0
M  V30 4641 O 601.593 -7.36886 -3.63805 0
M  V30 4642 C 601.432 -7.95433 -4.98253 0
M  V30 4643 C 601.973 -6.94612 -5.98974 0
M  V30 4644 O 600.918 -6.10277 -6.11744 0
M  V30 4645 C 603.191 -6.11426 -5.62335 0
M  V30 4646 O 603.929 -5.6162 -6.70584 0
M  V30 4647 C 602.523 -5.04409 -4.73308 0
M  V30 4648 O 603.321 -3.86404 -4.74719 0
M  V30 4649 C 601.185 -4.8728 -5.41006 0
M  V30 4650 N 600.142 -4.65812 -4.42377 0
M  V30 4651 C 600.311 -5.09132 -3.15382 0
M  V30 4652 N 599.284 -4.84021 -2.3716 0
M  V30 4653 C 598.399 -4.18386 -3.20441 0
M  V30 4654 C 597.132 -3.6275 -2.94905 0
M  V30 4655 N 596.567 -3.05008 -4.05243 0
M  V30 4656 C 597.169 -2.98348 -5.28159 0
M  V30 4657 N 598.346 -3.48171 -5.56333 0
M  V30 4658 C 598.921 -4.06869 -4.47212 0
M  V30 4659 H 602.4 -5.39013 -3.70026 0
M  V30 4660 H 603.883 -6.71916 -5.01943 0
M  V30 4661 H 602.189 -7.45796 -6.94223 0
M  V30 4662 H 601.999 -8.89416 -5.05237 0
M  V30 4663 H 600.369 -8.14876 -5.18409 0
M  V30 4664 H 601.211 -5.59989 -2.81362 0
M  V30 4665 H 603.009 -3.27906 -5.43085 0
M  V30 4666 P 604.867 -5.75688 -6.64379 0
M  V30 4667 O 606.289 -6.07627 -7.05504 0
M  V30 4668 O 604.507 -5.88047 -5.19722 0
M  V30 4669 O 604.544 -4.2322 -7.04443 0
M  V30 4670 C 604.384 -3.99743 -8.4911 0
M  V30 4671 C 604.924 -2.60516 -8.79425 0
M  V30 4672 O 603.868 -1.82684 -8.4467 0
M  V30 4673 C 606.142 -2.10343 -8.03628 0
M  V30 4674 O 606.88 -1.09919 -8.67766 0
M  V30 4675 C 605.473 -1.68446 -6.70876 0
M  V30 4676 O 606.272 -0.678137 -6.08433 0
M  V30 4677 C 604.136 -1.17436 -7.18567 0
M  V30 4678 H 604.168 -0.0804732 -7.31656 0
M  V30 4679 H 605.351 -2.54037 -6.02537 0
M  V30 4680 H 606.835 -2.93881 -7.85526 0
M  V30 4681 H 605.141 -2.53065 -9.86973 0
M  V30 4682 H 604.951 -4.75072 -9.05887 0
M  V30 4683 H 603.321 -4.05244 -8.76668 0
M  V30 4684 H 605.96 0.177647 -6.34251 0
M  V30 4685 P 607.817 -1.25109 -8.70152 0
M  V30 4686 O 609.218 -1.3516 -9.26897 0
M  V30 4687 O 607.439 -2.18141 -7.59181 0
M  V30 4688 O 607.494 0.248118 -8.21325 0
M  V30 4689 C 607.334 1.22779 -9.30434 0
M  V30 4690 C 607.874 2.56265 -8.80568 0
M  V30 4691 O 606.818 3.02944 -8.09255 0
M  V30 4692 C 609.091 2.57523 -7.89775 0
M  V30 4693 O 609.83 3.7668 -7.89438 0
M  V30 4694 C 608.424 2.20997 -6.55446 0
M  V30 4695 O 609.222 2.71851 -5.48419 0
M  V30 4696 C 607.086 2.89693 -6.67988 0
M  V30 4697 N 606.043 2.08895 -6.07487 0
M  V30 4698 C 605.008 2.72974 -5.43836 0
M  V30 4699 O 605.047 3.97779 -5.34036 0
M  V30 4700 N 603.996 2.0005 -4.91983 0
M  V30 4701 C 604.044 0.66501 -5.00098 0
M  V30 4702 C 605.14 -0.0100979 -5.61099 0
M  V30 4703 C 606.106 0.74189 -6.14236 0
M  V30 4704 H 607.118 3.8874 -6.19774 0
M  V30 4705 H 608.301 1.12673 -6.44018 0
M  V30 4706 H 609.785 1.783 -8.19631 0
M  V30 4707 H 608.091 3.21673 -9.66791 0
M  V30 4708 H 607.9 0.901032 -10.1892 0
M  V30 4709 H 606.27 1.33036 -9.56493 0
M  V30 4710 H 605.188 -1.09591 -5.64358 0
M  V30 4711 H 606.952 0.260263 -6.6359 0
M  V30 4712 H 609.006 3.62759 -5.33442 0
M  V30 4713 P 610.768 3.65191 -7.99657 0
M  V30 4714 O 612.19 3.89332 -8.45794 0
M  V30 4715 O 610.408 2.28472 -7.50807 0
M  V30 4716 O 610.445 4.64972 -6.77611 0
M  V30 4717 C 610.285 6.06319 -7.16352 0
M  V30 4718 C 610.825 6.91731 -6.02299 0
M  V30 4719 O 609.769 6.92449 -5.17064 0
M  V30 4720 C 612.043 6.43627 -5.25174 0
M  V30 4721 O 612.781 7.43686 -4.60469 0
M  V30 4722 C 611.374 5.40275 -4.31916 0
M  V30 4723 O 612.173 5.25279 -3.14438 0
M  V30 4724 C 610.037 6.04847 -4.05327 0
M  V30 4725 H 610.069 6.62195 -3.11261 0
M  V30 4726 H 611.252 4.42556 -4.81383 0
M  V30 4727 H 612.736 5.92458 -5.93643 0
M  V30 4728 H 611.042 7.92655 -6.402 0
M  V30 4729 H 610.852 6.26671 -8.0846 0
M  V30 4730 H 609.222 6.29101 -7.32804 0
M  V30 4731 H 611.861 5.84315 -2.47318 0
M  V30 4732 P 613.719 7.39546 -4.75277 0
M  V30 4733 O 615.141 7.84798 -5.01039 0
M  V30 4734 O 613.359 5.9812 -5.08098 0
M  V30 4735 O 613.396 7.57503 -3.1866 0
M  V30 4736 C 613.236 8.97357 -2.74833 0
M  V30 4737 C 613.776 9.07548 -1.32709 0
M  V30 4738 O 612.72 8.62072 -0.606159 0
M  V30 4739 C 614.994 8.25383 -0.938334 0
M  V30 4740 O 615.732 8.74577 0.146954 0
M  V30 4741 C 614.325 6.8802 -0.712559 0
M  V30 4742 O 615.124 6.1189 0.194655 0
M  V30 4743 C 612.988 7.27966 -0.139777 0
M  V30 4744 H 613.02 7.25354 0.961601 0
M  V30 4745 H 614.203 6.32557 -1.65702 0
M  V30 4746 H 615.687 8.19355 -1.79097 0
M  V30 4747 H 613.993 10.1294 -1.10029 0
M  V30 4748 H 613.803 9.64276 -3.41316 0
M  V30 4749 H 612.173 9.25417 -2.76357 0
M  V30 4750 H 614.812 6.25267 1.07847 0
M  V30 4751 P 616.669 8.791 4.14417e-12 0
M  V30 4752 O 618.07 9.36698 -0.018734 0
M  V30 4753 O 616.291 7.82499 -1.07878 0
M  V30 4754 O 616.346 8.09434 1.41446 0
M  V30 4755 C 616.186 9.0349 2.53943 0
M  V30 4756 C 616.726 8.35135 3.78975 0
M  V30 4757 O 615.67 7.57904 4.1503 0
M  V30 4758 C 617.943 7.45087 3.67298 0
M  V30 4759 O 618.682 7.27796 4.85194 0
M  V30 4760 C 617.276 6.17323 3.12027 0
M  V30 4761 O 618.074 5.04149 3.47132 0
M  V30 4762 C 615.938 6.19961 3.81809 0
M  V30 4763 N 614.895 5.71575 2.93223 0
M  V30 4764 C 613.86 4.99452 3.47592 0
M  V30 4765 O 613.899 4.7199 4.69732 0
M  V30 4766 N 612.848 4.58505 2.6803 0
M  V30 4767 C 612.896 4.85544 1.36995 0
M  V30 4768 C 613.992 5.55532 0.788532 0
M  V30 4769 C 614.958 5.97426 1.60849 0
M  V30 4770 H 615.97 5.58142 4.72986 0
M  V30 4771 H 617.153 6.21428 2.0318 0
M  V30 4772 H 618.637 7.85913 2.93131 0
M  V30 4773 H 616.943 9.11171 4.55987 0
M  V30 4774 H 616.752 9.9573 2.34194 0
M  V30 4775 H 615.122 9.27824 2.67805 0
M  V30 4776 H 614.04 5.7421 -0.281588 0
M  V30 4777 H 615.804 6.53132 1.202 0
M  V30 4778 H 617.858 4.76386 4.34983 0
M  V30 4779 P 619.62 7.39546 4.75277 0
M  V30 4780 O 621.042 7.81777 5.05738 0
M  V30 4781 O 619.26 7.1065 3.32998 0
M  V30 4782 O 619.297 6.04542 5.56673 0
M  V30 4783 C 619.137 6.22772 7.02095 0
M  V30 4784 C 619.677 4.97725 7.70406 0
M  V30 4785 O 618.621 4.13256 7.58987 0
M  V30 4786 C 620.895 4.28231 7.11815 0
M  V30 4787 O 621.633 3.49945 8.01648 0
M  V30 4788 C 620.226 3.5063 5.96244 0
M  V30 4789 O 621.025 2.36482 5.64681 0
M  V30 4790 C 618.889 3.15122 6.56374 0
M  V30 4791 H 618.921 2.13853 6.99751 0
M  V30 4792 H 620.104 4.13501 5.06559 0
M  V30 4793 H 621.588 5.03285 6.70911 0
M  V30 4794 H 619.894 5.20877 8.75697 0
M  V30 4795 H 619.704 7.11046 7.35349 0
M  V30 4796 H 618.074 6.35815 7.26986 0
M  V30 4797 H 620.713 1.61644 6.13565 0
M  V30 4798 P 622.57 3.65191 7.99657 0
M  V30 4799 O 623.992 3.8425 8.48115 0
M  V30 4800 O 622.21 4.17805 6.64342 0
M  V30 4801 O 622.247 2.07613 7.95143 0
M  V30 4802 C 622.087 1.44328 9.27336 0
M  V30 4803 C 622.627 0.0220036 9.17197 0
M  V30 4804 O 621.571 -0.626867 8.61923 0
M  V30 4805 C 623.845 -0.24586 8.30336 0
M  V30 4806 O 624.583 -1.39011 8.63583 0
M  V30 4807 C 623.176 -0.273849 6.91158 0
M  V30 4808 O 623.975 -1.06348 6.02892 0
M  V30 4809 C 621.839 -0.897649 7.22545 0
M  V30 4810 H 621.871 -1.9841 7.04286 0
M  V30 4811 H 623.054 0.739928 6.497 0
M  V30 4812 H 624.538 0.60668 8.36503 0
M  V30 4813 H 622.844 -0.352479 10.1829 0
M  V30 4814 H 622.654 2.00611 10.0304 0
M  V30 4815 H 621.024 1.41843 9.55327 0
M  V30 4816 H 623.663 -1.95734 6.03555 0
M  V30 4817 P 625.521 -1.25109 8.70152 0
M  V30 4818 O 626.943 -1.35274 9.21221 0
M  V30 4819 O 625.161 -0.0769065 7.84762 0
M  V30 4820 O 625.198 -2.55232 7.81161 0
M  V30 4821 C 625.038 -3.79939 8.58154 0
M  V30 4822 C 625.578 -4.94023 7.72785 0
M  V30 4823 O 624.522 -5.18726 6.91205 0
M  V30 4824 C 626.796 -4.69597 6.85231 0
M  V30 4825 O 627.534 -5.83832 6.51337 0
M  V30 4826 C 626.127 -3.96706 5.66633 0
M  V30 4827 O 626.926 -4.15414 4.49689 0
M  V30 4828 C 624.79 -4.66153 5.59313 0
M  V30 4829 H 624.822 -5.47679 4.85214 0
M  V30 4830 H 626.005 -2.89008 5.86566 0
M  V30 4831 H 627.489 -4.0121 7.36511 0
M  V30 4832 H 625.795 -5.80182 8.37584 0
M  V30 4833 H 625.605 -3.73517 9.52265 0
M  V30 4834 H 623.975 -3.97163 8.80359 0
M  V30 4835 H 626.614 -4.90969 4.01921 0
M  V30 4836 P 628.471 -5.75688 6.64379 0
M  V30 4837 O 629.893 -6.11849 7.01846 0
M  V30 4838 O 628.111 -4.30744 6.56026 0
M  V30 4839 O 628.148 -6.37042 5.19165 0
M  V30 4840 C 627.988 -7.83578 5.16515 0
M  V30 4841 C 628.528 -8.33398 3.83019 0
M  V30 4842 O 627.472 -8.10074 3.01034 0
M  V30 4843 C 629.746 -7.65514 3.2257 0
M  V30 4844 O 630.484 -8.4329 2.32297 0
M  V30 4845 C 629.077 -6.40075 2.62207 0
M  V30 4846 O 629.876 -5.92589 1.53712 0
M  V30 4847 C 627.74 -6.9454 2.18503 0
M  V30 4848 H 627.772 -7.23063 1.12091 0
M  V30 4849 H 628.955 -5.6025 3.37201 0
M  V30 4850 H 630.439 -7.35707 4.02681 0
M  V30 4851 H 628.745 -9.40912 3.9095 0
M  V30 4852 H 628.555 -8.29056 5.99158 0
M  V30 4853 H 626.925 -8.10073 5.25882 0
M  V30 4854 H 629.564 -6.30324 0.726794 0
M  V30 4855 P 631.422 -8.4349 2.47671 0
M  V30 4856 O 632.843 -8.94263 2.59668 0
M  V30 4857 O 631.062 -7.1704 3.19006 0
M  V30 4858 O 631.099 -8.16596 0.923387 0
M  V30 4859 C 630.938 -9.38537 0.108869 0
M  V30 4860 C 631.479 -9.08175 -1.28353 0
M  V30 4861 O 630.424 -8.44131 -1.84692 0
M  V30 4862 C 632.697 -8.18386 -1.42505 0
M  V30 4863 O 633.435 -8.3501 -2.60497 0
M  V30 4864 C 632.029 -6.80225 -1.25468 0
M  V30 4865 O 632.827 -5.81716 -1.90454 0
M  V30 4866 C 630.691 -7.02416 -1.9168 0
M  V30 4867 N 629.648 -6.31033 -1.20314 0
M  V30 4868 C 629.817 -5.98817 0.0994088 0
M  V30 4869 N 628.79 -5.35403 0.621694 0
M  V30 4870 C 627.905 -5.25212 -0.43376 0
M  V30 4871 C 626.638 -4.64602 -0.519722 0
M  V30 4872 N 626.073 -4.7568 -1.76013 0
M  V30 4873 C 626.675 -5.3653 -2.83017 0
M  V30 4874 N 627.852 -5.93676 -2.79782 0
M  V30 4875 C 628.427 -5.84061 -1.56249 0
M  V30 4876 H 631.906 -6.53498 -0.198729 0
M  V30 4877 H 633.389 -8.36622 -0.589963 0
M  V30 4878 H 631.695 -10.0273 -1.8081 0
M  V30 4879 H 631.505 -10.2138 0.558219 0
M  V30 4880 H 629.875 -9.6579 0.0444202 0
M  V30 4881 H 630.717 -6.23209 0.660562 0
M  V30 4882 H 632.515 -5.69466 -2.79593 0
M  V30 4883 P 634.373 -8.4349 -2.47671 0
M  V30 4884 O 635.795 -8.92593 -2.65 0
M  V30 4885 O 634.013 -7.7568 -1.19296 0
M  V30 4886 O 634.05 -7.36886 -3.63805 0
M  V30 4887 C 633.89 -7.95349 -4.982 0
M  V30 4888 C 634.43 -6.94612 -5.98974 0
M  V30 4889 O 633.374 -6.10347 -6.11815 0
M  V30 4890 C 635.648 -6.11426 -5.62335 0
M  V30 4891 O 636.386 -5.6162 -6.70584 0
M  V30 4892 C 634.979 -5.04409 -4.73308 0
M  V30 4893 O 635.778 -3.85992 -4.75183 0
M  V30 4894 C 633.642 -4.8728 -5.41006 0
M  V30 4895 H 633.674 -4.02333 -6.11157 0
M  V30 4896 H 634.857 -5.39466 -3.69543 0
M  V30 4897 H 636.341 -6.71916 -5.01943 0
M  V30 4898 H 634.647 -7.4649 -6.93477 0
M  V30 4899 H 634.457 -8.89416 -5.05237 0
M  V30 4900 H 632.827 -8.14876 -5.18409 0
M  V30 4901 H 635.466 -3.27957 -5.4317 0
M  V30 4902 P 637.323 -5.75688 -6.64379 0
M  V30 4903 O 638.745 -6.07758 -7.05656 0
M  V30 4904 O 636.963 -5.88047 -5.19722 0
M  V30 4905 O 637 -4.2322 -7.04443 0
M  V30 4906 C 636.84 -3.99743 -8.4911 0
M  V30 4907 C 637.38 -2.60487 -8.79329 0
M  V30 4908 O 636.325 -1.82684 -8.4467 0
M  V30 4909 C 638.598 -2.10343 -8.03628 0
M  V30 4910 O 639.336 -1.09919 -8.67766 0
M  V30 4911 C 637.93 -1.68446 -6.70876 0
M  V30 4912 O 638.728 -0.678026 -6.08333 0
M  V30 4913 C 636.592 -1.17436 -7.18567 0
M  V30 4914 N 635.549 -1.52699 -6.23988 0
M  V30 4915 C 635.611 -2.68084 -5.57824 0
M  V30 4916 N 634.566 -2.8189 -4.75643 0
M  V30 4917 C 633.832 -1.72373 -4.95155 0
M  V30 4918 C 632.526 -1.37653 -4.44996 0
M  V30 4919 O 631.793 -2.02239 -3.68445 0
M  V30 4920 N 632.096 -0.17675 -4.90782 0
M  V30 4921 C 632.845 0.645036 -5.78716 0
M  V30 4922 N 632.248 1.84214 -6.10618 0
M  V30 4923 N 633.998 0.321732 -6.30279 0
M  V30 4924 C 634.455 -0.87502 -5.86913 0
M  V30 4925 H 636.624 -0.0804732 -7.31656 0
M  V30 4926 H 637.807 -2.53998 -6.02444 0
M  V30 4927 H 639.292 -2.93095 -7.8582 0
M  V30 4928 H 637.597 -2.53065 -9.86973 0
M  V30 4929 H 637.407 -4.75072 -9.05887 0
M  V30 4930 H 635.776 -4.05244 -8.76668 0
M  V30 4931 H 631.2 0.152143 -4.60849 0
M  V30 4932 H 636.407 -3.41852 -5.69006 0
M  V30 4933 H 631.337 2.08538 -5.69521 0
M  V30 4934 H 632.713 2.4895 -6.75698 0
M  V30 4935 H 638.417 0.177619 -6.34151 0
M  V30 4936 P 640.274 -1.25109 -8.70152 0
M  V30 4937 O 641.695 -1.29758 -9.22115 0
M  V30 4938 O 639.914 -2.13714 -7.55141 0
M  V30 4939 O 639.951 0.248149 -8.21425 0
M  V30 4940 C 639.79 1.22792 -9.30533 0
M  V30 4941 C 640.331 2.56293 -8.80664 0
M  V30 4942 O 639.276 3.02944 -8.09255 0
M  V30 4943 C 641.549 2.57523 -7.89775 0
M  V30 4944 O 642.287 3.7668 -7.89438 0
M  V30 4945 C 640.881 2.20997 -6.55446 0
M  V30 4946 O 641.679 2.71302 -5.48691 0
M  V30 4947 C 639.543 2.89693 -6.67988 0
M  V30 4948 N 638.5 2.08895 -6.07487 0
M  V30 4949 C 638.669 0.753809 -5.94137 0
M  V30 4950 N 637.642 0.146592 -5.38801 0
M  V30 4951 C 636.757 1.1768 -5.13693 0
M  V30 4952 C 635.49 1.17563 -4.52477 0
M  V30 4953 N 634.925 2.41918 -4.45789 0
M  V30 4954 C 635.527 3.56493 -4.90792 0
M  V30 4955 N 636.704 3.61423 -5.47817 0
M  V30 4956 C 637.279 2.37779 -5.5588 0
M  V30 4957 H 640.758 1.12673 -6.44018 0
M  V30 4958 H 642.241 1.7746 -8.19711 0
M  V30 4959 H 640.547 3.21673 -9.66791 0
M  V30 4960 H 640.357 0.901032 -10.1892 0
M  V30 4961 H 638.727 1.33049 -9.56592 0
M  V30 4962 H 639.569 0.233081 -6.26266 0
M  V30 4963 H 641.367 3.5779 -5.23879 0
M  V30 4964 P 643.224 3.65191 -7.99657 0
M  V30 4965 O 644.646 3.89332 -8.45794 0
M  V30 4966 O 642.864 2.28472 -7.50807 0
M  V30 4967 O 642.901 4.64972 -6.77611 0
M  V30 4968 C 642.741 6.06319 -7.16352 0
M  V30 4969 C 643.281 6.91731 -6.02299 0
M  V30 4970 O 642.225 6.92449 -5.17064 0
M  V30 4971 C 644.499 6.43627 -5.25174 0
M  V30 4972 O 645.237 7.43686 -4.60469 0
M  V30 4973 C 643.83 5.40275 -4.31916 0
M  V30 4974 O 644.629 5.25279 -3.14438 0
M  V30 4975 C 642.493 6.04847 -4.05327 0
M  V30 4976 H 642.525 6.62195 -3.11261 0
M  V30 4977 H 643.708 4.42556 -4.81383 0
M  V30 4978 H 645.192 5.92458 -5.93643 0
M  V30 4979 H 643.498 7.92655 -6.402 0
M  V30 4980 H 643.308 6.26671 -8.0846 0
M  V30 4981 H 641.678 6.29101 -7.32804 0
M  V30 4982 H 644.317 5.84315 -2.47318 0
M  V30 4983 P 646.175 7.39546 -4.75277 0
M  V30 4984 O 647.597 7.84798 -5.01039 0
M  V30 4985 O 645.815 5.9812 -5.08098 0
M  V30 4986 O 645.852 7.57503 -3.1866 0
M  V30 4987 C 645.692 8.97357 -2.74833 0
M  V30 4988 C 646.232 9.07548 -1.32709 0
M  V30 4989 O 645.176 8.62072 -0.606159 0
M  V30 4990 C 647.45 8.25383 -0.938334 0
M  V30 4991 O 648.188 8.74577 0.146954 0
M  V30 4992 C 646.781 6.8802 -0.712559 0
M  V30 4993 O 647.58 6.1189 0.194655 0
M  V30 4994 C 645.444 7.27966 -0.139777 0
M  V30 4995 H 645.476 7.25354 0.961601 0
M  V30 4996 H 646.659 6.32557 -1.65702 0
M  V30 4997 H 648.143 8.19355 -1.79097 0
M  V30 4998 H 646.449 10.1294 -1.10029 0
M  V30 4999 H 646.259 9.64276 -3.41316 0
M  V30 5000 H 644.629 9.25417 -2.76357 0
M  V30 5001 H 647.268 6.25267 1.07847 0
M  V30 5002 P 649.125 8.791 4.45433e-12 0
M  V30 5003 O 650.547 9.31096 0.027933 0
M  V30 5004 O 648.765 7.77869 -1.04071 0
M  V30 5005 O 648.802 8.09533 1.41463 0
M  V30 5006 C 648.642 9.0349 2.53943 0
M  V30 5007 C 649.182 8.35226 3.79016 0
M  V30 5008 O 648.126 7.57992 4.15078 0
M  V30 5009 C 650.4 7.45087 3.67298 0
M  V30 5010 O 651.138 7.27796 4.85194 0
M  V30 5011 C 649.731 6.17323 3.12027 0
M  V30 5012 O 650.53 5.04231 3.47188 0
M  V30 5013 C 648.394 6.19961 3.81809 0
M  V30 5014 H 648.426 5.58218 4.73051 0
M  V30 5015 H 649.609 6.21726 2.02589 0
M  V30 5016 H 651.093 7.86112 2.9231 0
M  V30 5017 H 649.399 9.11627 4.55076 0
M  V30 5018 H 649.209 9.9573 2.34194 0
M  V30 5019 H 647.579 9.2792 2.67832 0
M  V30 5020 H 650.218 4.67702 4.28772 0
M  V30 5021 P 652.076 7.39546 4.75277 0
M  V30 5022 O 653.498 7.81777 5.05738 0
M  V30 5023 O 651.716 7.1065 3.32998 0
M  V30 5024 O 651.753 6.04542 5.56673 0
M  V30 5025 C 651.593 6.22772 7.02095 0
M  V30 5026 C 652.133 4.97725 7.70406 0
M  V30 5027 O 651.077 4.13256 7.58987 0
M  V30 5028 C 653.351 4.28231 7.11815 0
M  V30 5029 O 654.089 3.49945 8.01648 0
M  V30 5030 C 652.682 3.5063 5.96244 0
M  V30 5031 O 653.481 2.36482 5.64681 0
M  V30 5032 C 651.345 3.15122 6.56374 0
M  V30 5033 H 651.377 2.13853 6.99751 0
M  V30 5034 H 652.56 4.13501 5.06559 0
M  V30 5035 H 654.044 5.03285 6.70911 0
M  V30 5036 H 652.35 5.20877 8.75697 0
M  V30 5037 H 652.16 7.11046 7.35349 0
M  V30 5038 H 650.53 6.35815 7.26986 0
M  V30 5039 H 653.169 1.61644 6.13565 0
M  V30 5040 P 655.027 3.65191 7.99657 0
M  V30 5041 O 656.449 3.8425 8.48115 0
M  V30 5042 O 654.667 4.17805 6.64342 0
M  V30 5043 O 654.704 2.07613 7.95143 0
M  V30 5044 C 654.544 1.44328 9.27336 0
M  V30 5045 C 655.084 0.0220036 9.17197 0
M  V30 5046 O 654.028 -0.626867 8.61923 0
M  V30 5047 C 656.302 -0.24586 8.30336 0
M  V30 5048 O 657.04 -1.39011 8.63583 0
M  V30 5049 C 655.633 -0.273849 6.91158 0
M  V30 5050 O 656.432 -1.06348 6.02892 0
M  V30 5051 C 654.296 -0.897649 7.22545 0
M  V30 5052 H 654.328 -1.9841 7.04286 0
M  V30 5053 H 655.511 0.739928 6.497 0
M  V30 5054 H 656.995 0.60668 8.36503 0
M  V30 5055 H 655.301 -0.352479 10.1829 0
M  V30 5056 H 655.111 2.00611 10.0304 0
M  V30 5057 H 653.481 1.41843 9.55327 0
M  V30 5058 H 656.12 -1.95734 6.03555 0
M  V30 5059 P 657.977 -1.25109 8.70152 0
M  V30 5060 O 659.399 -1.35274 9.21221 0
M  V30 5061 O 657.617 -0.0769065 7.84762 0
M  V30 5062 O 657.654 -2.55232 7.81161 0
M  V30 5063 C 657.494 -3.79939 8.58154 0
M  V30 5064 C 658.034 -4.94023 7.72785 0
M  V30 5065 O 656.978 -5.18726 6.91205 0
M  V30 5066 C 659.252 -4.69597 6.85231 0
M  V30 5067 O 659.99 -5.83832 6.51337 0
M  V30 5068 C 658.583 -3.96706 5.66633 0
M  V30 5069 O 659.382 -4.15414 4.49689 0
M  V30 5070 C 657.246 -4.66153 5.59313 0
M  V30 5071 H 657.278 -5.47679 4.85214 0
M  V30 5072 H 658.461 -2.89008 5.86566 0
M  V30 5073 H 659.945 -4.0121 7.36511 0
M  V30 5074 H 658.251 -5.80182 8.37584 0
M  V30 5075 H 658.061 -3.73517 9.52265 0
M  V30 5076 H 656.431 -3.97163 8.80359 0
M  V30 5077 H 659.07 -4.90969 4.01921 0
M  V30 5078 P 660.928 -5.75688 6.64379 0
M  V30 5079 O 662.35 -6.11849 7.01846 0
M  V30 5080 O 660.568 -4.30744 6.56026 0
M  V30 5081 O 660.605 -6.37042 5.19165 0
M  V30 5082 C 660.445 -7.83578 5.16515 0
M  V30 5083 C 660.985 -8.33398 3.83019 0
M  V30 5084 O 659.929 -8.10074 3.01034 0
M  V30 5085 C 662.203 -7.65514 3.2257 0
M  V30 5086 O 662.941 -8.4329 2.32297 0
M  V30 5087 C 661.534 -6.40075 2.62207 0
M  V30 5088 O 662.333 -5.92589 1.53712 0
M  V30 5089 C 660.197 -6.9454 2.18503 0
M  V30 5090 H 660.229 -7.23063 1.12091 0
M  V30 5091 H 661.412 -5.6025 3.37201 0
M  V30 5092 H 662.896 -7.35707 4.02681 0
M  V30 5093 H 661.202 -9.40912 3.9095 0
M  V30 5094 H 661.012 -8.29056 5.99158 0
M  V30 5095 H 659.382 -8.10073 5.25882 0
M  V30 5096 H 662.021 -6.30324 0.726794 0
M  V30 5097 P 663.878 -8.4349 2.47671 0
M  V30 5098 O 665.3 -8.94167 2.5964 0
M  V30 5099 O 663.518 -7.1704 3.19006 0
M  V30 5100 O 663.555 -8.16596 0.923387 0
M  V30 5101 C 663.395 -9.38437 0.108857 0
M  V30 5102 C 663.935 -9.08175 -1.28353 0
M  V30 5103 O 662.879 -8.44229 -1.84713 0
M  V30 5104 C 665.153 -8.18386 -1.42505 0
M  V30 5105 O 665.891 -8.3501 -2.60497 0
M  V30 5106 C 664.484 -6.80225 -1.25468 0
M  V30 5107 O 665.283 -5.81621 -1.91066 0
M  V30 5108 C 663.147 -7.02416 -1.9168 0
M  V30 5109 H 663.179 -6.6888 -2.96621 0
M  V30 5110 H 664.362 -6.53617 -0.192223 0
M  V30 5111 H 665.846 -8.36622 -0.589963 0
M  V30 5112 H 664.152 -10.0291 -1.79807 0
M  V30 5113 H 663.962 -10.2138 0.558219 0
M  V30 5114 H 662.332 -9.6579 0.0444202 0
M  V30 5115 H 664.971 -5.69556 -2.79637 0
M  V30 5116 P 666.829 -8.4349 -2.47671 0
M  V30 5117 O 668.25 -8.92689 -2.65029 0
M  V30 5118 O 666.469 -7.7568 -1.19296 0
M  V30 5119 O 666.506 -7.36886 -3.63805 0
M  V30 5120 C 666.345 -7.95433 -4.98253 0
M  V30 5121 C 666.886 -6.94612 -5.98974 0
M  V30 5122 O 665.831 -6.10277 -6.11744 0
M  V30 5123 C 668.104 -6.11426 -5.62335 0
M  V30 5124 O 668.842 -5.6162 -6.70584 0
M  V30 5125 C 667.436 -5.04409 -4.73308 0
M  V30 5126 O 668.234 -3.86404 -4.74719 0
M  V30 5127 C 666.098 -4.8728 -5.41006 0
M  V30 5128 N 665.055 -4.65812 -4.42377 0
M  V30 5129 C 665.224 -5.09132 -3.15382 0
M  V30 5130 N 664.197 -4.84021 -2.3716 0
M  V30 5131 C 663.312 -4.18386 -3.20441 0
M  V30 5132 C 662.045 -3.6275 -2.94905 0
M  V30 5133 N 661.48 -3.05008 -4.05243 0
M  V30 5134 C 662.082 -2.98348 -5.28159 0
M  V30 5135 N 663.259 -3.48171 -5.56333 0
M  V30 5136 C 663.834 -4.06869 -4.47212 0
M  V30 5137 H 667.313 -5.39013 -3.70026 0
M  V30 5138 H 668.796 -6.71916 -5.01943 0
M  V30 5139 H 667.102 -7.45796 -6.94223 0
M  V30 5140 H 666.912 -8.89416 -5.05237 0
M  V30 5141 H 665.282 -8.14876 -5.18409 0
M  V30 5142 H 666.124 -5.59989 -2.81362 0
M  V30 5143 H 667.922 -3.27906 -5.43085 0
M  V30 5144 P 669.779 -5.75688 -6.64379 0
M  V30 5145 O 671.18 -6.14823 -7.06682 0
M  V30 5146 O 669.401 -5.93957 -5.20728 0
M  V30 5147 O 669.456 -4.23169 -7.04357 0
M  V30 5148 C 669.296 -3.99743 -8.4911 0
M  V30 5149 C 669.836 -2.60487 -8.79329 0
M  V30 5150 O 668.78 -1.82663 -8.44573 0
M  V30 5151 C 671.053 -2.10343 -8.03628 0
M  V30 5152 O 671.792 -1.09919 -8.67766 0
M  V30 5153 C 670.386 -1.68446 -6.70876 0
M  V30 5154 O 671.184 -0.678026 -6.08333 0
M  V30 5155 C 669.048 -1.17436 -7.18567 0
M  V30 5156 N 668.005 -1.52699 -6.23988 0
M  V30 5157 C 666.97 -0.643793 -6.05085 0
M  V30 5158 O 667.009 0.459118 -6.64315 0
M  V30 5159 N 665.958 -0.976931 -5.22038 0
M  V30 5160 C 666.006 -2.14429 -4.56662 0
M  V30 5161 N 664.996 -2.4542 -3.76231 0
M  V30 5162 C 667.102 -3.04203 -4.71481 0
M  V30 5163 C 668.068 -2.69669 -5.56838 0
M  V30 5164 H 669.08 -0.0804622 -7.31556 0
M  V30 5165 H 670.263 -2.53396 -6.02698 0
M  V30 5166 H 671.747 -2.9313 -7.85914 0
M  V30 5167 H 670.053 -2.52078 -9.87225 0
M  V30 5168 H 669.862 -4.75072 -9.05887 0
M  V30 5169 H 668.232 -4.05202 -8.76577 0
M  V30 5170 H 667.15 -3.97309 -4.15519 0
M  V30 5171 H 668.914 -3.36869 -5.72318 0
M  V30 5172 H 664.206 -1.80133 -3.65413 0
M  V30 5173 H 665.001 -3.34359 -3.24736 0
M  V30 5174 H 670.968 0.167718 -6.44882 0
M  V30 5175 P 672.73 -1.25109 -8.70152 0
M  V30 5176 O 674.152 -1.29744 -9.22016 0
M  V30 5177 O 672.37 -2.13714 -7.55141 0
M  V30 5178 O 672.407 0.248149 -8.21425 0
M  V30 5179 C 672.247 1.22779 -9.30434 0
M  V30 5180 C 672.787 2.56293 -8.80664 0
M  V30 5181 O 671.731 3.02979 -8.09349 0
M  V30 5182 C 674.005 2.57523 -7.89775 0
M  V30 5183 O 674.743 3.7668 -7.89438 0
M  V30 5184 C 673.336 2.20997 -6.55446 0
M  V30 5185 O 674.135 2.71895 -5.48509 0
M  V30 5186 C 671.999 2.89693 -6.67988 0
M  V30 5187 H 672.031 3.88793 -6.19859 0
M  V30 5188 H 673.214 1.12046 -6.44229 0
M  V30 5189 H 674.698 1.7746 -8.19711 0
M  V30 5190 H 673.004 3.20706 -9.67112 0
M  V30 5191 H 672.814 0.901032 -10.1892 0
M  V30 5192 H 671.184 1.33049 -9.56592 0
M  V30 5193 H 673.823 3.57847 -5.23962 0
M  V30 5194 P 675.681 3.65191 -7.99657 0
M  V30 5195 O 677.103 3.89332 -8.45794 0
M  V30 5196 O 675.321 2.28472 -7.50807 0
M  V30 5197 O 675.358 4.64972 -6.77611 0
M  V30 5198 C 675.198 6.06319 -7.16352 0
M  V30 5199 C 675.738 6.91731 -6.02299 0
M  V30 5200 O 674.682 6.92449 -5.17064 0
M  V30 5201 C 676.956 6.43627 -5.25174 0
M  V30 5202 O 677.694 7.43686 -4.60469 0
M  V30 5203 C 676.287 5.40275 -4.31916 0
M  V30 5204 O 677.086 5.25279 -3.14438 0
M  V30 5205 C 674.95 6.04847 -4.05327 0
M  V30 5206 H 674.982 6.62195 -3.11261 0
M  V30 5207 H 676.165 4.42556 -4.81383 0
M  V30 5208 H 677.649 5.92458 -5.93643 0
M  V30 5209 H 675.955 7.92655 -6.402 0
M  V30 5210 H 675.765 6.26671 -8.0846 0
M  V30 5211 H 674.135 6.29101 -7.32804 0
M  V30 5212 H 676.774 5.84315 -2.47318 0
M  V30 5213 P 678.631 7.39546 -4.75277 0
M  V30 5214 O 680.053 7.84798 -5.01039 0
M  V30 5215 O 678.271 5.9812 -5.08098 0
M  V30 5216 O 678.308 7.57503 -3.1866 0
M  V30 5217 C 678.148 8.97357 -2.74833 0
M  V30 5218 C 678.688 9.07548 -1.32709 0
M  V30 5219 O 677.632 8.62072 -0.606159 0
M  V30 5220 C 679.906 8.25383 -0.938334 0
M  V30 5221 O 680.644 8.74577 0.146954 0
M  V30 5222 C 679.237 6.8802 -0.712559 0
M  V30 5223 O 680.036 6.1189 0.194655 0
M  V30 5224 C 677.9 7.27966 -0.139777 0
M  V30 5225 H 677.932 7.25354 0.961601 0
M  V30 5226 H 679.115 6.32557 -1.65702 0
M  V30 5227 H 680.599 8.19355 -1.79097 0
M  V30 5228 H 678.905 10.1294 -1.10029 0
M  V30 5229 H 678.715 9.64276 -3.41316 0
M  V30 5230 H 677.085 9.25417 -2.76357 0
M  V30 5231 H 679.724 6.25267 1.07847 0
M  V30 5232 P 681.582 8.791 4.7645e-12 0
M  V30 5233 O 683.004 9.31096 0.027933 0
M  V30 5234 O 681.222 7.77869 -1.04071 0
M  V30 5235 O 681.259 8.09533 1.41463 0
M  V30 5236 C 681.099 9.0349 2.53943 0
M  V30 5237 C 681.639 8.35226 3.79016 0
M  V30 5238 O 680.583 7.57992 4.15078 0
M  V30 5239 C 682.857 7.45087 3.67298 0
M  V30 5240 O 683.595 7.27796 4.85194 0
M  V30 5241 C 682.188 6.17323 3.12027 0
M  V30 5242 O 682.987 5.04231 3.47188 0
M  V30 5243 C 680.851 6.19961 3.81809 0
M  V30 5244 H 680.883 5.58218 4.73051 0
M  V30 5245 H 682.066 6.21726 2.02589 0
M  V30 5246 H 683.55 7.86112 2.9231 0
M  V30 5247 H 681.856 9.11627 4.55076 0
M  V30 5248 H 681.666 9.9573 2.34194 0
M  V30 5249 H 680.036 9.2792 2.67832 0
M  V30 5250 H 682.675 4.67702 4.28772 0
M  V30 5251 P 684.532 7.39546 4.75277 0
M  V30 5252 O 685.954 7.81777 5.05738 0
M  V30 5253 O 684.172 7.1065 3.32998 0
M  V30 5254 O 684.209 6.04542 5.56673 0
M  V30 5255 C 684.049 6.22772 7.02095 0
M  V30 5256 C 684.589 4.97725 7.70406 0
M  V30 5257 O 683.533 4.13256 7.58987 0
M  V30 5258 C 685.807 4.28231 7.11815 0
M  V30 5259 O 686.545 3.49945 8.01648 0
M  V30 5260 C 685.138 3.5063 5.96244 0
M  V30 5261 O 685.937 2.36482 5.64681 0
M  V30 5262 C 683.801 3.15122 6.56374 0
M  V30 5263 H 683.833 2.13853 6.99751 0
M  V30 5264 H 685.016 4.13501 5.06559 0
M  V30 5265 H 686.5 5.03285 6.70911 0
M  V30 5266 H 684.806 5.20877 8.75697 0
M  V30 5267 H 684.616 7.11046 7.35349 0
M  V30 5268 H 682.986 6.35815 7.26986 0
M  V30 5269 H 685.625 1.61644 6.13565 0
M  V30 5270 P 687.483 3.65191 7.99657 0
M  V30 5271 O 688.905 3.8425 8.48115 0
M  V30 5272 O 687.123 4.17805 6.64342 0
M  V30 5273 O 687.16 2.07613 7.95143 0
M  V30 5274 C 687 1.44328 9.27336 0
M  V30 5275 C 687.54 0.0220036 9.17197 0
M  V30 5276 O 686.484 -0.626867 8.61923 0
M  V30 5277 C 688.758 -0.24586 8.30336 0
M  V30 5278 O 689.496 -1.39011 8.63583 0
M  V30 5279 C 688.089 -0.273849 6.91158 0
M  V30 5280 O 688.888 -1.06348 6.02892 0
M  V30 5281 C 686.752 -0.897649 7.22545 0
M  V30 5282 H 686.784 -1.9841 7.04286 0
M  V30 5283 H 687.967 0.739928 6.497 0
M  V30 5284 H 689.451 0.60668 8.36503 0
M  V30 5285 H 687.757 -0.352479 10.1829 0
M  V30 5286 H 687.567 2.00611 10.0304 0
M  V30 5287 H 685.937 1.41843 9.55327 0
M  V30 5288 H 688.576 -1.95734 6.03555 0
M  V30 5289 H 691.129 -1.1387 8.16296 0
M  V30 END ATOM
M  V30 BEGIN BOND
M  V30 END BOND
M  V30 END CTAB
M  END
$$$$
