drugbank_target|Q13126 S-methyl-5'-thioadenosine phosphorylase (DB00173; DB02158; DB02281; DB02282; DB02933)
 OpenBabel12092119483D

  0  0  0     0  0            999 V3000
M  V30 BEGIN CTAB
M  V30 COUNTS 4392 4434 0 0 0
M  V30 BEGIN ATOM
M  V30 1 H -0.908 1.98254 -0.117106 0
M  V30 2 N 0 1.576 0 0
M  V30 3 C 0.933 2.03868 1.02534 0
M  V30 4 C 1.911 0.928543 1.3348 0
M  V30 5 O 3.095 1.19667 1.45644 0
M  V30 6 C 0.222 2.43627 2.35294 0
M  V30 7 C -0.732 3.65373 2.2001 0
M  V30 8 S 0.101 5.13292 1.52614 0
M  V30 9 C 1.257 5.56322 2.86805 0
M  V30 10 H 1.49 2.90518 0.631377 0
M  V30 11 H -0.977 1.52953 0.210867 0
M  V30 12 H 0.981 2.67203 3.11629 0
M  V30 13 H -0.358 1.57376 2.7183 0
M  V30 14 H -1.165 3.90944 3.18086 0
M  V30 15 H -1.563 3.418 1.51819 0
M  V30 16 H 0.729 5.58782 3.83104 0
M  V30 17 H 1.672 6.56266 2.65933 0
M  V30 18 H 2.08 4.83886 2.90714 0
M  V30 19 N 1.4781 -0.272755 1.55222 0
M  V30 20 C 2.4411 -1.32041 1.87344 0
M  V30 21 C 3.4411 -1.42342 0.74803 0
M  V30 22 O 4.6311 -1.41488 1.0162 0
M  V30 23 C 1.7631 -2.70173 2.07893 0
M  V30 24 H 2.9561 -1.04789 2.80997 0
M  V30 25 H 0.5091 -0.51083 1.47717 0
M  V30 26 H 1.2441 -3.02605 1.16622 0
M  V30 27 H 1.0291 -2.64082 2.89833 0
M  V30 28 H 2.5191 -3.45869 2.34017 0
M  V30 29 N 2.9562 -1.48159 -0.537278 0
M  V30 30 C 4.1812 -1.59707 -1.32319 0
M  V30 31 C 4.6062 -0.254859 -1.86365 0
M  V30 32 O 3.9642 0.772378 -1.64024 0
M  V30 33 C 4.0122 -2.6412 -2.45505 0
M  V30 34 O 3.1162 -2.20774 -3.48328 0
M  V30 35 H 2.4572 -0.535791 -0.392204 0
M  V30 36 H 4.9872 -1.94092 -0.647268 0
M  V30 37 H 4.9972 -2.85166 -2.91795 0
M  V30 38 H 3.6722 -3.61567 -2.05528 0
M  V30 39 H 2.2492 -2.09911 -3.08207 0
M  V30 40 N 4.4343 0.785586 -1.36625 0
M  V30 41 C 5.6823 1.54057 -1.30808 0
M  V30 42 C 6.0033 1.94683 0.111157 0
M  V30 43 O 5.2733 1.65241 1.05224 0
M  V30 44 H 3.8533 0.571354 -0.481211 0
M  V30 45 H 6.5153 0.935821 -1.70963 0
M  V30 46 H 5.6113 2.44637 -1.93801 0
M  V30 47 N 5.9124 1.20967 1.01018 0
M  V30 48 C 7.1404 1.04956 1.78303 0
M  V30 49 C 7.5554 -0.400915 1.84494 0
M  V30 50 O 6.9124 -1.27826 1.30257 0
M  V30 51 C 6.9634 1.63403 3.22462 0
M  V30 52 O 6.6844 3.02775 3.16637 0
M  V30 53 C 8.1854 1.52432 4.16268 0
M  V30 54 H 5.4054 0.368858 0.560522 0
M  V30 55 H 7.9494 1.60193 1.27116 0
M  V30 56 H 6.1044 1.1227 3.70775 0
M  V30 57 H 6.5184 3.30626 4.07169 0
M  V30 58 H 7.9924 1.98078 5.15237 0
M  V30 59 H 8.4694 0.477875 4.36592 0
M  V30 60 H 9.0754 2.02787 3.73841 0
M  V30 61 N 7.3905 -1.2043 1.01659 0
M  V30 62 C 8.6185 -1.93777 0.725132 0
M  V30 63 C 9.0335 -1.74772 -0.714166 0
M  V30 64 O 8.3905 -1.06169 -1.4844 0
M  V30 65 C 8.4415 -3.45876 1.05129 0
M  V30 66 O 8.1625 -3.6426 2.43406 0
M  V30 67 C 9.6635 -4.36368 0.780891 0
M  V30 68 H 6.8835 -0.615901 0.266284 0
M  V30 69 H 9.4275 -1.52922 1.35776 0
M  V30 70 H 7.5825 -3.8461 0.464065 0
M  V30 71 H 7.9965 -4.58246 2.55169 0
M  V30 72 H 9.4705 -5.41743 1.05918 0
M  V30 73 H 9.9475 -4.38275 -0.284937 0
M  V30 74 H 10.5535 -4.03296 1.35027 0
M  V30 75 N 8.8686 -0.792821 -1.36206 0
M  V30 76 C 10.0966 -0.378825 -2.03402 0
M  V30 77 C 10.5116 1.00586 -1.59774 0
M  V30 78 O 9.8686 1.64574 -0.788764 0
M  V30 79 C 9.9196 -0.43683 -3.58851 0
M  V30 80 O 9.6406 -1.76691 -4.00889 0
M  V30 81 C 11.1416 -0.0138943 -4.43298 0
M  V30 82 H 8.3616 -0.155673 -0.652692 0
M  V30 83 H 10.9056 -1.07261 -1.74113 0
M  V30 84 H 9.0606 0.208575 -3.86838 0
M  V30 85 H 9.4746 -1.72011 -4.95492 0
M  V30 86 H 10.9486 -0.105615 -5.51899 0
M  V30 87 H 11.4256 1.03915 -4.2673 0
M  V30 88 H 12.0316 -0.63192 -4.20579 0
M  V30 89 N 10.3467 1.47872 -0.545128 0
M  V30 90 C 11.5747 2.06889 -0.021084 0
M  V30 91 C 11.9897 1.39955 1.2672 0
M  V30 92 O 11.3467 0.492036 1.75742 0
M  V30 93 C 11.3977 3.60996 0.190817 0
M  V30 94 O 11.1187 4.25419 -1.04644 0
M  V30 95 C 12.6197 4.36849 0.753521 0
M  V30 96 H 9.8397 0.669785 -0.0403635 0
M  V30 97 H 12.3837 1.90049 -0.755095 0
M  V30 98 H 10.5387 3.77391 0.87492 0
M  V30 99 H 10.9527 5.17785 -0.836611 0
M  V30 100 H 12.4267 5.45399 0.851139 0
M  V30 101 H 12.9037 4.02306 1.762 0
M  V30 102 H 13.5097 4.25169 0.105503 0
M  V30 103 N 11.8248 0.280983 1.55075 0
M  V30 104 C 12.7878 -0.590896 2.21452 0
M  V30 105 C 13.7878 -1.07682 1.19421 0
M  V30 106 O 14.9778 -0.97605 1.44288 0
M  V30 107 C 12.1098 -1.81587 2.88511 0
M  V30 108 H 13.3028 -0.0112554 2.99898 0
M  V30 109 H 10.8558 0.0316438 1.56268 0
M  V30 110 H 11.5908 -2.43587 2.14093 0
M  V30 111 H 11.3758 -1.4753 3.63287 0
M  V30 112 H 12.8658 -2.43575 3.39206 0
M  V30 113 N 13.3029 -1.57598 0.00835791 0
M  V30 114 C 14.5489 -1.91211 -0.675732 0
M  V30 115 C 14.8819 -0.883139 -1.72958 0
M  V30 116 O 14.1569 0.097016 -1.94258 0
M  V30 117 C 14.4399 -3.35379 -1.31123 0
M  V30 118 C 14.2929 -4.48999 -0.268356 0
M  V30 119 C 15.6119 -3.7912 -2.23508 0
M  V30 120 H 12.7309 -0.695374 -0.244179 0
M  V30 121 H 15.3729 -1.89901 0.0613655 0
M  V30 122 H 13.5229 -3.36626 -1.93946 0
M  V30 123 H 15.1949 -4.59887 0.360844 0
M  V30 124 H 13.4379 -4.31873 0.408482 0
M  V30 125 H 14.1089 -5.46851 -0.752218 0
M  V30 126 H 16.5849 -3.79477 -1.70693 0
M  V30 127 H 15.4609 -4.80729 -2.64936 0
M  V30 128 H 15.7219 -3.13455 -3.11766 0
M  V30 129 N 14.781 0.264519 -1.55364 0
M  V30 130 C 15.728 1.32717 -1.88825 0
M  V30 131 C 16.698 1.48675 -0.740605 0
M  V30 132 O 17.883 1.62945 -0.992657 0
M  V30 133 C 15.023 2.68089 -2.17307 0
M  V30 134 C 14.136 2.60284 -3.44785 0
M  V30 135 C 13.271 3.87892 -3.62924 0
M  V30 136 C 12.31 3.74631 -4.84064 0
M  V30 137 N 11.447 4.94092 -4.98816 0
M  V30 138 H 16.287 1.03481 -2.79456 0
M  V30 139 H 13.824 0.499757 -1.3835 0
M  V30 140 H 15.782 3.46864 -2.31821 0
M  V30 141 H 14.412 2.95509 -1.299 0
M  V30 142 H 13.464 1.73173 -3.38697 0
M  V30 143 H 14.776 2.46388 -4.33698 0
M  V30 144 H 13.93 4.75109 -3.77302 0
M  V30 145 H 12.669 4.04664 -2.7221 0
M  V30 146 H 11.674 2.85797 -4.69681 0
M  V30 147 H 12.899 3.5937 -5.76221 0
M  V30 148 H 10.845 5.11259 -4.11036 0
M  V30 149 H 10.762 4.8276 -5.81789 0
M  V30 150 H 12.03 5.82857 -5.17588 0
M  V30 151 N 16.2591 1.48442 0.529413 0
M  V30 152 C 17.5081 1.55742 1.28169 0
M  V30 153 C 17.8211 0.236511 1.94165 0
M  V30 154 O 19.0271 0.187761 2.7085 0
M  V30 155 C 17.4831 2.74667 2.32564 0
M  V30 156 C 17.0911 4.13402 1.72636 0
M  V30 157 C 18.8351 2.9128 3.08798 0
M  V30 158 C 16.7421 5.23587 2.74975 0
M  V30 159 H 15.6721 0.579796 0.48203 0
M  V30 160 H 18.3231 1.74776 0.559056 0
M  V30 161 H 16.7051 2.49067 3.07866 0
M  V30 162 H 17.8791 4.49022 1.03519 0
M  V30 163 H 16.1941 4.0191 1.08892 0
M  V30 164 H 18.7911 3.70767 3.85274 0
M  V30 165 H 19.1341 2.00757 3.64695 0
M  V30 166 H 19.6671 3.16782 2.40611 0
M  V30 167 H 16.4061 6.16076 2.23897 0
M  V30 168 H 15.9261 4.92454 3.42417 0
M  V30 169 H 17.6051 5.51724 3.37949 0
M  V30 170 N 17.7372 -0.778329 1.37039 0
M  V30 171 C 18.9852 -1.53361 1.31623 0
M  V30 172 C 19.3062 -1.94739 -0.100831 0
M  V30 173 O 18.5762 -1.65797 -1.04347 0
M  V30 174 H 17.1562 -0.568794 0.484234 0
M  V30 175 H 19.8182 -0.926742 1.71457 0
M  V30 176 H 18.9142 -2.43606 1.95096 0
M  V30 177 N 19.2153 -1.21501 -1.00376 0
M  V30 178 C 20.4643 -1.02718 -1.73586 0
M  V30 179 C 20.7773 0.439589 -1.90596 0
M  V30 180 O 21.9833 0.746848 -2.61026 0
M  V30 181 C 20.4393 -1.78929 -3.1227 0
M  V30 182 C 20.0473 -3.29783 -3.03228 0
M  V30 183 C 21.7913 -1.68557 -3.89601 0
M  V30 184 C 19.6983 -3.98479 -4.36999 0
M  V30 185 H 18.6283 -0.380733 -0.650814 0
M  V30 186 H 21.2793 -1.45248 -1.1214 0
M  V30 187 H 19.6613 -1.29192 -3.74333 0
M  V30 188 H 20.8353 -3.86832 -2.50395 0
M  V30 189 H 19.1503 -3.40711 -2.39385 0
M  V30 190 H 21.7473 -2.17211 -4.88593 0
M  V30 191 H 22.0903 -0.644021 -4.11288 0
M  V30 192 H 22.6233 -2.15778 -3.34193 0
M  V30 193 H 19.3623 -5.02841 -4.20513 0
M  V30 194 H 18.8823 -3.46219 -4.89788 0
M  V30 195 H 20.5613 -4.03462 -5.05794 0
M  V30 196 N 20.6934 1.19889 -1.02296 0
M  V30 197 C 21.9424 1.88743 -0.711257 0
M  V30 198 C 22.2554 1.80112 0.762817 0
M  V30 199 O 23.4614 2.44161 1.18733 0
M  V30 200 C 21.9174 3.38525 -1.22185 0
M  V30 201 C 21.5254 3.55727 -2.72328 0
M  V30 202 C 23.2694 4.12893 -0.985864 0
M  V30 203 C 21.1764 4.99369 -3.16835 0
M  V30 204 H 20.1064 0.706885 -0.262353 0
M  V30 205 H 22.7574 1.35586 -1.23648 0
M  V30 206 H 21.1394 3.91044 -0.624571 0
M  V30 207 H 22.3134 3.13564 -3.3766 0
M  V30 208 H 20.6284 2.94739 -2.9414 0
M  V30 209 H 23.2254 5.18813 -1.29374 0
M  V30 210 H 23.5684 4.16228 0.0775055 0
M  V30 211 H 24.1014 3.66494 -1.54684 0
M  V30 212 H 20.8404 5.01193 -4.22476 0
M  V30 213 H 20.3604 5.42317 -2.56228 0
M  V30 214 H 22.0394 5.67988 -3.09837 0
M  V30 215 N 22.1715 0.800033 1.35784 0
M  V30 216 C 23.4195 0.376597 1.9856 0
M  V30 217 C 23.7405 -1.05812 1.63795 0
M  V30 218 O 23.0105 -1.73103 0.917171 0
M  V30 219 H 21.5905 0.136261 0.734467 0
M  V30 220 H 24.2525 1.02442 1.65806 0
M  V30 221 H 23.3485 0.477002 3.08433 0
M  V30 222 N 23.6496 -1.47581 0.552962 0
M  V30 223 C 24.8976 -2.02082 0.0272703 0
M  V30 224 C 25.2186 -1.4301 -1.32563 0
M  V30 225 O 24.4886 -0.603745 -1.86365 0
M  V30 226 H 23.0686 -0.746966 0.00709182 0
M  V30 227 H 25.7306 -1.81033 0.722008 0
M  V30 228 H 24.8266 -3.12034 -0.0639951 0
M  V30 229 N 25.1277 -0.289203 -1.54924 0
M  V30 230 C 26.3557 0.326463 -2.04308 0
M  V30 231 C 26.7707 1.48413 -1.16701 0
M  V30 232 O 26.1277 1.81507 -0.190087 0
M  V30 233 C 26.1787 0.794014 -3.52672 0
M  V30 234 O 25.8997 -0.317564 -4.36948 0
M  V30 235 C 27.4007 1.47605 -4.18004 0
M  V30 236 H 24.6207 0.0726272 -0.667058 0
M  V30 237 H 27.1647 -0.425401 -2.00026 0
M  V30 238 H 25.3197 1.49593 -3.57352 0
M  V30 239 H 25.7337 0.0443186 -5.24481 0
M  V30 240 H 27.2077 1.75447 -5.23376 0
M  V30 241 H 27.6847 2.41224 -3.67025 0
M  V30 242 H 28.2907 0.81762 -4.17367 0
M  V30 243 N 26.6058 1.57591 -0.0167156 0
M  V30 244 C 27.8538 1.90906 0.663285 0
M  V30 245 C 28.1748 0.892509 1.73376 0
M  V30 246 O 27.4448 -0.0677623 1.95783 0
M  V30 247 H 26.0248 0.704637 0.247983 0
M  V30 248 H 28.6868 1.94803 -0.0615909 0
M  V30 249 H 27.7828 2.9116 1.12393 0
M  V30 250 N 28.0839 -0.256276 1.55502 0
M  V30 251 C 29.0139 -1.32102 1.92539 0
M  V30 252 C 29.9949 -1.50684 0.789194 0
M  V30 253 O 31.1799 -1.63449 1.04872 0
M  V30 254 C 28.3099 -2.67752 2.21192 0
M  V30 255 C 27.2639 -2.63878 3.36975 0
M  V30 256 C 26.5899 -4.03236 3.51147 0
M  V30 257 C 27.8899 -2.21682 4.72921 0
M  V30 258 H 29.5839 -1.01351 2.81724 0
M  V30 259 H 27.1299 -0.486105 1.35547 0
M  V30 260 H 29.0829 -3.42365 2.45691 0
M  V30 261 H 27.8069 -3.0012 1.28824 0
M  V30 262 H 26.4659 -1.91722 3.12471 0
M  V30 263 H 26.1139 -4.32854 2.56216 0
M  V30 264 H 25.8139 -4.01535 4.29003 0
M  V30 265 H 27.3379 -4.79563 3.77957 0
M  V30 266 H 28.7519 -2.86023 4.96854 0
M  V30 267 H 27.1489 -2.3111 5.53812 0
M  V30 268 H 28.2189 -1.16833 4.70615 0
M  V30 269 N 29.562 -1.4872 -0.521534 0
M  V30 270 C 30.839 -1.4766 -1.2828 0
M  V30 271 C 31.219 -0.19292 -2.10217 0
M  V30 272 O 30.567 0.825193 -2.13079 0
M  V30 273 C 30.777 -2.74358 -2.15705 0
M  V30 274 C 32.125 -3.23028 -2.75569 0
M  V30 275 O 33.149 -2.75333 -2.25987 0
M  V30 276 O 32.008 -4.0604 -3.65778 0
M  V30 277 H 29.102 -0.590085 -0.579421 0
M  V30 278 H 31.648 -1.60963 -0.537492 0
M  V30 279 H 30.42 -3.59292 -1.54999 0
M  V30 280 H 30.043 -2.63816 -2.97467 0
M  V30 281 N 31.0401 0.771051 -1.3745 0
M  V30 282 C 32.3171 1.519 -1.23231 0
M  V30 283 C 32.6971 2.10383 0.173809 0
M  V30 284 O 32.0451 1.95583 1.18151 0
M  V30 285 C 32.2551 2.59933 -2.32886 0
M  V30 286 C 33.6031 3.27316 -2.70461 0
M  V30 287 O 34.6271 2.70228 -2.32068 0
M  V30 288 O 33.4861 4.30531 -3.36608 0
M  V30 289 H 30.5801 0.672803 -0.480901 0
M  V30 290 H 33.1261 0.807957 -1.49232 0
M  V30 291 H 31.8981 2.14842 -3.27045 0
M  V30 292 H 31.5211 3.38637 -2.08353 0
M  V30 293 N 32.5182 1.22032 0.997298 0
M  V30 294 C 33.9292 1.0397 1.55071 0
M  V30 295 C 34.2802 -0.398192 1.92117 0
M  V30 296 O 33.4052 -1.28254 1.74298 0
M  V30 297 C 34.0002 1.88109 2.81781 0
M  V30 298 C 32.5592 1.74357 3.33581 0
M  V30 299 C 31.7062 1.84846 2.06706 0
M  V30 300 H 34.6572 1.35941 0.818883 0
M  V30 301 H 34.6782 1.39589 3.53971 0
M  V30 302 H 34.1902 2.92754 2.54787 0
M  V30 303 H 32.2912 0.72427 3.65493 0
M  V30 304 H 32.4042 2.56772 4.04481 0
M  V30 305 H 30.7682 1.28238 2.20062 0
M  V30 306 H 31.5512 2.91014 1.82114 0
M  V30 307 N 33.9963 -1.19345 1.0293 0
M  V30 308 C 34.9063 -2.26245 0.620515 0
M  V30 309 C 35.9223 -1.70486 -0.347928 0
M  V30 310 O 37.0983 -2.00347 -0.205704 0
M  V30 311 C 34.1633 -3.46693 -0.0218957 0
M  V30 312 C 33.2243 -4.17632 0.994102 0
M  V30 313 C 32.4573 -5.32329 0.382253 0
M  V30 314 O 32.6803 -5.64552 -0.814676 0
M  V30 315 O 31.6143 -5.91664 1.10531 0
M  V30 316 H 35.4403 -2.63453 1.51083 0
M  V30 317 H 33.0253 -1.26207 0.799513 0
M  V30 318 H 34.9073 -4.19683 -0.380072 0
M  V30 319 H 33.5823 -3.11333 -0.886209 0
M  V30 320 H 32.4893 -3.4676 1.40387 0
M  V30 321 H 33.8223 -4.56964 1.8288 0
M  V30 322 N 35.4744 -0.807222 -1.35358 0
M  V30 323 C 36.7234 -0.384376 -1.98004 0
M  V30 324 C 37.0364 1.0543 -1.64754 0
M  V30 325 O 38.2424 1.58029 -2.20769 0
M  V30 326 C 36.6984 -0.636326 -3.5423 0
M  V30 327 C 36.3064 -2.08759 -3.96388 0
M  V30 328 C 38.0504 -0.278869 -4.23583 0
M  V30 329 C 35.9574 -2.28525 -5.45463 0
M  V30 330 H 34.8874 -0.139986 -0.740891 0
M  V30 331 H 37.5384 -0.991369 -1.54415 0
M  V30 332 H 35.9204 0.0406256 -3.95979 0
M  V30 333 H 37.0944 -2.8024 -3.6579 0
M  V30 334 H 35.4094 -2.40497 -3.39926 0
M  V30 335 H 38.0064 -0.404599 -5.33167 0
M  V30 336 H 38.3494 0.775012 -4.09022 0
M  V30 337 H 38.8824 -0.909764 -3.87257 0
M  V30 338 H 35.6214 -3.32361 -5.64992 0
M  V30 339 H 35.1414 -1.61569 -5.77629 0
M  V30 340 H 36.8204 -2.10109 -6.11934 0
M  V30 341 N 36.9525 1.47285 -0.560781 0
M  V30 342 C 37.8825 2.32857 0.173105 0
M  V30 343 C 38.8635 1.44009 0.905281 0
M  V30 344 O 40.0485 1.7286 0.885046 0
M  V30 345 C 37.1785 3.25861 1.20133 0
M  V30 346 C 36.1325 4.23978 0.585388 0
M  V30 347 C 35.4585 5.06332 1.7185 0
M  V30 348 C 36.7585 5.20242 -0.463178 0
M  V30 349 H 38.4525 2.94466 -0.541307 0
M  V30 350 H 35.9985 1.41601 -0.261764 0
M  V30 351 H 37.9515 3.84569 1.72293 0
M  V30 352 H 36.6755 2.62315 1.94573 0
M  V30 353 H 35.3345 3.66501 0.085054 0
M  V30 354 H 34.9825 4.39186 2.45203 0
M  V30 355 H 34.6825 5.72762 1.31213 0
M  V30 356 H 36.2065 5.67899 2.24329 0
M  V30 357 H 37.6205 5.73293 -0.027502 0
M  V30 358 H 36.0175 5.94896 -0.788627 0
M  V30 359 H 37.0875 4.65504 -1.35773 0
M  V30 360 N 38.4306 0.297415 1.54768 0
M  V30 361 C 39.3406 -0.58983 2.27064 0
M  V30 362 C 40.3566 -1.15144 1.30453 0
M  V30 363 O 41.5326 -1.17699 1.63428 0
M  V30 364 C 38.5976 -1.74714 2.9946 0
M  V30 365 C 37.6586 -1.21997 4.11601 0
M  V30 366 C 36.8916 -2.32212 4.80535 0
M  V30 367 O 37.1146 -3.52036 4.48806 0
M  V30 368 O 36.0486 -1.99106 5.68014 0
M  V30 369 H 39.8746 -0.00348199 3.037 0
M  V30 370 H 37.4596 0.0640035 1.49263 0
M  V30 371 H 39.3416 -2.42147 3.44881 0
M  V30 372 H 38.0166 -2.32016 2.25722 0
M  V30 373 H 36.9236 -0.511458 3.70587 0
M  V30 374 H 38.2566 -0.692419 4.87305 0
M  V30 375 N 39.9087 -1.5758 0.0250728 0
M  V30 376 C 41.1567 -1.91255 -0.653151 0
M  V30 377 C 41.4777 -0.901691 -1.729 0
M  V30 378 O 40.7477 0.0573785 -1.95816 0
M  V30 379 H 39.3277 -0.705942 -0.244243 0
M  V30 380 H 41.9897 -1.94767 0.0719209 0
M  V30 381 H 41.0857 -2.91752 -1.10847 0
M  V30 382 N 41.3868 0.248026 -1.55636 0
M  V30 383 C 42.8028 0.596483 -1.48035 0
M  V30 384 C 43.0028 1.88386 -0.715039 0
M  V30 385 O 42.0588 2.51319 -0.243944 0
M  V30 386 C 43.3718 0.700258 -2.92433 0
M  V30 387 C 44.9198 0.792659 -3.02797 0
M  V30 388 C 45.3948 0.928005 -4.485 0
M  V30 389 N 46.8858 0.992903 -4.52433 0
M  V30 390 C 47.6208 1.11687 -5.62418 0
M  V30 391 N 47.1168 1.20645 -6.82214 0
M  V30 392 N 48.9098 1.14994 -5.50212 0
M  V30 393 H 41.0608 -0.597109 -2.03834 0
M  V30 394 H 43.3238 -0.205925 -0.925364 0
M  V30 395 H 43.0298 -0.175658 -3.51261 0
M  V30 396 H 42.9038 1.57255 -3.42857 0
M  V30 397 H 45.2908 1.65903 -2.4405 0
M  V30 398 H 45.3718 -0.104762 -2.55585 0
M  V30 399 H 45.0158 0.0661971 -5.07857 0
M  V30 400 H 44.9458 1.84045 -4.93391 0
M  V30 401 H 47.4368 0.935064 -3.66149 0
M  V30 402 H 47.7498 1.30008 -7.61786 0
M  V30 403 H 46.0948 1.17605 -6.84977 0
M  V30 404 H 49.2858 1.07643 -4.55555 0
M  V30 405 H 49.4588 1.24311 -6.35965 0
M  V30 406 N 42.8649 1.48995 0.513639 0
M  V30 407 C 44.0929 1.61531 1.29288 0
M  V30 408 C 44.5079 0.281801 1.86685 0
M  V30 409 O 43.8649 -0.731111 1.67215 0
M  V30 410 C 43.9159 2.67449 2.43215 0
M  V30 411 O 43.6369 3.95626 1.88179 0
M  V30 412 C 45.1379 2.90575 3.34785 0
M  V30 413 H 42.3579 0.544165 0.392588 0
M  V30 414 H 44.9019 1.9494 0.617956 0
M  V30 415 H 43.0569 2.36853 3.0656 0
M  V30 416 H 43.4709 4.53868 2.62876 0
M  V30 417 H 44.9449 3.68449 4.11035 0
M  V30 418 H 45.4219 2.00011 3.91015 0
M  V30 419 H 46.0279 3.22538 2.77218 0
M  V30 420 N 44.343 -0.763751 1.37857 0
M  V30 421 C 45.253 -1.90817 1.36478 0
M  V30 422 C 46.269 -1.71997 0.263248 0
M  V30 423 O 47.445 -1.95095 0.499979 0
M  V30 424 C 44.51 -3.2605 1.17864 0
M  V30 425 C 43.571 -3.57467 2.3773 0
M  V30 426 C 42.804 -4.86249 2.19995 0
M  V30 427 O 43.027 -5.57884 1.18836 0
M  V30 428 O 41.961 -5.16911 3.08361 0
M  V30 429 H 45.787 -1.94933 2.32884 0
M  V30 430 H 43.372 -0.907619 1.1867 0
M  V30 431 H 45.254 -4.06924 1.09504 0
M  V30 432 H 43.929 -3.22769 0.245372 0
M  V30 433 H 42.836 -2.76796 2.51664 0
M  V30 434 H 44.169 -3.655 3.29652 0
M  V30 435 N 45.8211 -1.22559 -0.990812 0
M  V30 436 C 46.7681 -0.997519 -2.0813 0
M  V30 437 C 47.7381 0.0814702 -1.659 0
M  V30 438 O 48.9231 -0.0685424 -1.90677 0
M  V30 439 C 46.0631 -0.583615 -3.40129 0
M  V30 440 C 45.1761 -1.7336 -3.9569 0
M  V30 441 C 44.3111 -1.26748 -5.15857 0
M  V30 442 C 43.3501 -2.38888 -5.63559 0
M  V30 443 N 42.4871 -1.93308 -6.74964 0
M  V30 444 H 47.3271 -1.93099 -2.26973 0
M  V30 445 H 44.8641 -0.962114 -1.11273 0
M  V30 446 H 46.8221 -0.324801 -4.15934 0
M  V30 447 H 45.4521 0.312845 -3.2128 0
M  V30 448 H 44.5041 -2.10669 -3.16738 0
M  V30 449 H 45.8161 -2.57704 -4.27071 0
M  V30 450 H 44.9701 -0.966173 -5.98957 0
M  V30 451 H 43.7091 -0.394272 -4.86104 0
M  V30 452 H 42.7141 -2.69805 -4.79046 0
M  V30 453 H 43.9391 -3.26728 -5.95336 0
M  V30 454 H 41.8851 -1.08352 -6.4699 0
M  V30 455 H 41.8021 -2.71217 -7.05675 0
M  V30 456 H 43.0701 -1.66252 -7.61564 0
M  V30 457 N 47.2992 1.18797 -1.03562 0
M  V30 458 C 48.5292 1.92319 -0.754773 0
M  V30 459 C 48.9372 1.7612 0.691248 0
M  V30 460 O 48.2802 1.08491 1.48241 0
M  V30 461 C 48.3422 3.44284 -1.03484 0
M  V30 462 C 48.0062 3.84258 -2.47376 0
M  V30 463 C 49.0032 3.88459 -3.45537 0
M  V30 464 C 46.6882 4.15701 -2.81954 0
M  V30 465 C 48.6822 4.23545 -4.76328 0
M  V30 466 C 46.3692 4.50458 -4.12954 0
M  V30 467 C 47.3672 4.54356 -5.09951 0
M  V30 468 O 47.0552 4.88305 -6.38603 0
M  V30 469 H 46.7872 0.617527 -0.275021 0
M  V30 470 H 49.3412 1.51683 -1.38497 0
M  V30 471 H 47.5712 3.85135 -0.347513 0
M  V30 472 H 49.2602 3.99049 -0.7426 0
M  V30 473 H 50.0262 3.6431 -3.20162 0
M  V30 474 H 45.9052 4.11847 -2.0713 0
M  V30 475 H 49.4492 4.26502 -5.52035 0
M  V30 476 H 45.3462 4.74067 -4.38099 0
M  V30 477 H 46.1142 5.06227 -6.43177 0
M  V30 478 N 48.7773 0.814389 1.34928 0
M  V30 479 C 50.0233 0.399013 1.98836 0
M  V30 480 C 50.3563 -1.03314 1.64438 0
M  V30 481 O 49.6313 -1.71811 0.911659 0
M  V30 482 C 49.9143 0.591629 3.55207 0
M  V30 483 C 49.7673 2.06928 3.99376 0
M  V30 484 C 51.0863 0.022199 4.40094 0
M  V30 485 H 48.2053 0.146451 0.722303 0
M  V30 486 H 50.8473 1.02537 1.59957 0
M  V30 487 H 48.9973 0.0584441 3.88456 0
M  V30 488 H 50.6693 2.66544 3.76499 0
M  V30 489 H 48.9123 2.56287 3.49999 0
M  V30 490 H 49.5833 2.1549 5.08201 0
M  V30 491 H 52.0593 0.477643 4.13349 0
M  V30 492 H 50.9353 0.186832 5.48582 0
M  V30 493 H 51.1963 -1.07215 4.28902 0
M  V30 494 N 50.2554 -1.46986 0.568584 0
M  V30 495 C 51.5324 -1.95592 -0.0174074 0
M  V30 496 C 51.9124 -1.51124 -1.47393 0
M  V30 497 O 51.2604 -0.755329 -2.15655 0
M  V30 498 C 51.4704 -3.48719 0.139913 0
M  V30 499 C 52.8184 -4.246 0.000426376 0
M  V30 500 O 53.8424 -3.56135 0.0680316 0
M  V30 501 O 52.7014 -5.46302 -0.146988 0
M  V30 502 H 49.7954 -0.82498 -0.0577599 0
M  V30 503 H 52.3414 -1.57335 0.635909 0
M  V30 504 H 51.1134 -3.73927 1.15301 0
M  V30 505 H 50.7364 -3.93771 -0.550491 0
M  V30 506 N 51.7335 -0.305618 -1.54608 0
M  V30 507 C 52.9615 0.304775 -2.04643 0
M  V30 508 C 53.3765 1.47167 -1.18268 0
M  V30 509 O 52.7335 1.81296 -0.209328 0
M  V30 510 C 52.7845 0.756564 -3.53495 0
M  V30 511 O 52.5055 -0.36389 -4.36586 0
M  V30 512 C 54.0065 1.43163 -4.19546 0
M  V30 513 H 51.2265 0.0655481 -0.667791 0
M  V30 514 H 53.7705 -0.446592 -1.99564 0
M  V30 515 H 51.9255 1.45794 -3.58919 0
M  V30 516 H 52.3395 -0.0113121 -5.24499 0
M  V30 517 H 53.8135 1.69886 -5.25207 0
M  V30 518 H 54.2905 2.37318 -3.69563 0
M  V30 519 H 54.8965 0.773307 -4.18211 0
M  V30 520 N 53.2116 1.57565 -0.0334293 0
M  V30 521 C 54.6226 1.79746 0.504798 0
M  V30 522 C 54.9736 0.944091 1.71992 0
M  V30 523 O 54.0986 0.155694 2.15839 0
M  V30 524 C 54.6936 3.25997 0.922567 0
M  V30 525 C 53.2526 3.49159 1.40588 0
M  V30 526 C 52.3996 2.74785 0.372633 0
M  V30 527 H 55.3506 1.56565 -0.259436 0
M  V30 528 H 55.3716 3.35945 1.78666 0
M  V30 529 H 54.8836 3.88081 0.0379825 0
M  V30 530 H 52.9846 2.92332 2.31025 0
M  V30 531 H 53.0976 4.57873 1.41028 0
M  V30 532 H 51.4616 2.40391 0.841672 0
M  V30 533 H 52.2446 3.39587 -0.503559 0
M  V30 534 N 54.6897 -0.239769 1.55765 0
M  V30 535 C 55.9367 -0.966801 1.7793 0
M  V30 536 C 56.2647 -1.85046 0.599015 0
M  V30 537 O 55.5197 -1.91197 -0.417395 0
M  V30 538 C 55.8187 -1.852 3.05672 0
M  V30 539 C 55.4847 -1.1231 4.36689 0
M  V30 540 C 54.1467 -0.921689 4.72291 0
M  V30 541 C 56.4987 -0.607019 5.17653 0
M  V30 542 C 53.8267 -0.191996 5.86386 0
M  V30 543 C 56.1787 0.109241 6.32506 0
M  V30 544 C 54.8427 0.322073 6.66723 0
M  V30 545 H 54.1127 -0.353778 0.651093 0
M  V30 546 H 56.7597 -0.23634 1.90036 0
M  V30 547 H 55.0647 -2.64975 2.8861 0
M  V30 548 H 56.7617 -2.41635 3.20021 0
M  V30 549 H 53.3517 -1.29004 4.08725 0
M  V30 550 H 57.5357 -0.750153 4.90598 0
M  V30 551 H 52.7917 -0.0166949 6.11398 0
M  V30 552 H 56.9657 0.516737 6.9448 0
M  V30 553 H 54.5927 0.88944 7.54979 0
M  V30 554 N 56.1678 -1.49265 -0.50573 0
M  V30 555 C 57.4158 -1.582 -1.25766 0
M  V30 556 C 57.7368 -0.268482 -1.93143 0
M  V30 557 O 57.0068 0.711833 -1.8251 0
M  V30 558 H 55.5868 -0.582873 -0.467191 0
M  V30 559 H 58.2488 -1.85865 -0.586525 0
M  V30 560 H 57.3448 -2.37563 -2.02412 0
M  V30 561 N 57.6459 0.756429 -1.3826 0
M  V30 562 C 58.5929 1.87011 -1.35261 0
M  V30 563 C 59.5629 1.64695 -0.215616 0
M  V30 564 O 60.7479 1.864 -0.407399 0
M  V30 565 C 57.8879 3.24275 -1.18068 0
M  V30 566 C 57.0009 3.58442 -2.41129 0
M  V30 567 C 56.1359 4.84994 -2.16689 0
M  V30 568 C 55.1749 5.11939 -3.35537 0
M  V30 569 N 54.3119 6.29685 -3.10549 0
M  V30 570 H 59.1519 1.8891 -2.30472 0
M  V30 571 H 56.6889 0.923373 -1.14509 0
M  V30 572 H 58.6469 4.03479 -1.06116 0
M  V30 573 H 57.2769 3.21711 -0.264973 0
M  V30 574 H 56.3289 2.74103 -2.63764 0
M  V30 575 H 57.6409 3.74283 -3.29717 0
M  V30 576 H 56.7949 5.72135 -2.01857 0
M  V30 577 H 55.5339 4.71286 -1.25462 0
M  V30 578 H 54.5389 4.23268 -3.50891 0
M  V30 579 H 55.7639 5.27546 -4.27635 0
M  V30 580 H 53.7099 6.17306 -2.21967 0
M  V30 581 H 53.6269 6.46014 -3.92686 0
M  V30 582 H 54.8949 7.19722 -2.99367 0
M  V30 583 N 59.124 1.23083 0.984299 0
M  V30 584 C 60.535 1.05609 1.5396 0
M  V30 585 C 60.886 -0.377793 1.92528 0
M  V30 586 O 60.011 -1.26398 1.75649 0
M  V30 587 C 60.606 1.91087 2.7977 0
M  V30 588 C 59.165 1.77885 3.31713 0
M  V30 589 C 58.312 1.87028 2.04733 0
M  V30 590 H 61.263 1.36802 0.804419 0
M  V30 591 H 61.284 1.43336 3.5247 0
M  V30 592 H 60.796 2.9544 2.51668 0
M  V30 593 H 58.897 0.762995 3.64704 0
M  V30 594 H 59.01 2.61047 4.01735 0
M  V30 595 H 57.374 1.30565 2.18689 0
M  V30 596 H 58.157 2.92929 1.79017 0
M  V30 597 N 60.6021 -1.18246 1.0419 0
M  V30 598 C 61.8271 -1.92736 0.765996 0
M  V30 599 C 62.2521 -1.75728 -0.67091 0
M  V30 600 O 61.6101 -1.06825 -1.46486 0
M  V30 601 C 61.6581 -3.42148 1.13875 0
M  V30 602 O 60.7621 -4.11548 0.264954 0
M  V30 603 H 60.1031 -0.601238 0.281797 0
M  V30 604 H 62.6331 -1.49942 1.39207 0
M  V30 605 H 62.6431 -3.92858 1.1012 0
M  V30 606 H 61.3181 -3.53848 2.18551 0
M  V30 607 H 59.8951 -3.71137 0.362226 0
M  V30 608 N 62.0802 -0.821533 -1.34494 0
M  V30 609 C 63.3572 -0.33159 -1.92769 0
M  V30 610 C 63.7372 1.18088 -1.74981 0
M  V30 611 O 63.0852 1.98733 -1.12772 0
M  V30 612 C 63.2952 -0.759398 -3.40638 0
M  V30 613 C 64.6432 -0.757433 -4.1779 0
M  V30 614 O 65.6672 -0.70189 -3.49216 0
M  V30 615 O 64.5262 -0.829361 -5.4017 0
M  V30 616 H 61.6202 -0.0902502 -0.822061 0
M  V30 617 H 64.1662 -0.906231 -1.43477 0
M  V30 618 H 62.9382 -1.8012 -3.47379 0
M  V30 619 H 62.5612 -0.160378 -3.97276 0
M  V30 620 N 63.5583 1.46682 -0.576371 0
M  V30 621 C 64.5213 2.28707 0.150239 0
M  V30 622 C 65.5213 1.38035 0.824794 0
M  V30 623 O 66.7113 1.60476 0.677719 0
M  V30 624 C 63.8433 3.18248 1.22192 0
M  V30 625 H 65.0363 2.94423 -0.570521 0
M  V30 626 H 62.5893 1.52688 -0.334078 0
M  V30 627 H 63.3243 2.57265 1.97447 0
M  V30 628 H 63.1093 3.85 0.742812 0
M  V30 629 H 64.5993 3.80001 1.73172 0
M  V30 630 N 65.0364 0.313813 1.54444 0
M  V30 631 C 65.9664 -0.549454 2.26943 0
M  V30 632 C 66.9474 -1.12741 1.27372 0
M  V30 633 O 68.1324 -1.15436 1.56167 0
M  V30 634 C 65.2624 -1.71523 3.01989 0
M  V30 635 C 64.2164 -1.26703 4.08816 0
M  V30 636 C 63.5424 -2.51898 4.71647 0
M  V30 637 C 64.8424 -0.388962 5.2085 0
M  V30 638 H 66.5364 0.0552661 2.99349 0
M  V30 639 H 64.0824 0.0280207 1.43973 0
M  V30 640 H 66.0354 -2.32535 3.51433 0
M  V30 641 H 64.7594 -2.34639 2.27183 0
M  V30 642 H 63.4184 -0.679896 3.6024 0
M  V30 643 H 63.0664 -3.13356 3.93468 0
M  V30 644 H 62.7664 -2.22605 5.43802 0
M  V30 645 H 64.2904 -3.1369 5.23861 0
M  V30 646 H 65.7044 -0.905107 5.6611 0
M  V30 647 H 64.1014 -0.18924 5.99802 0
M  V30 648 H 65.1714 0.582699 4.81386 0
M  V30 649 N 66.5145 -1.57545 0.0417849 0
M  V30 650 C 67.7635 -1.91494 -0.633492 0
M  V30 651 C 68.0765 -0.921084 -1.72556 0
M  V30 652 O 69.2825 -1.15228 -2.45835 0
M  V30 653 C 67.7385 -3.40072 -1.17808 0
M  V30 654 C 67.3465 -4.47843 -0.118633 0
M  V30 655 C 69.0905 -3.8307 -1.82915 0
M  V30 656 C 66.9975 -5.87529 -0.675578 0
M  V30 657 H 65.9275 -0.714653 -0.24039 0
M  V30 658 H 68.5785 -1.83175 0.109148 0
M  V30 659 H 66.9605 -3.43364 -1.97274 0
M  V30 660 H 68.1345 -4.56128 0.654494 0
M  V30 661 H 66.4495 -4.14128 0.434414 0
M  V30 662 H 69.0465 -4.84794 -2.25563 0
M  V30 663 H 69.3895 -3.1881 -2.67705 0
M  V30 664 H 69.9225 -3.82255 -1.10119 0
M  V30 665 H 66.6615 -6.55362 0.134475 0
M  V30 666 H 66.1815 -5.82824 -1.4169 0
M  V30 667 H 67.8605 -6.36491 -1.1614 0
M  V30 668 N 67.9926 0.231505 -1.5589 0
M  V30 669 C 68.9226 1.29022 -1.94617 0
M  V30 670 C 69.9036 1.4941 -0.813067 0
M  V30 671 O 71.0886 1.6176 -1.07459 0
M  V30 672 C 68.2186 2.64199 -2.25424 0
M  V30 673 C 67.1726 2.58484 -3.41131 0
M  V30 674 C 66.4986 3.97599 -3.57518 0
M  V30 675 C 67.7986 2.1413 -4.76388 0
M  V30 676 H 69.4926 0.968563 -2.83301 0
M  V30 677 H 67.0386 0.464479 -1.36303 0
M  V30 678 H 68.9916 3.38413 -2.51107 0
M  V30 679 H 67.7156 2.98032 -1.33583 0
M  V30 680 H 66.3746 1.86727 -3.15481 0
M  V30 681 H 66.0226 4.28723 -2.6307 0
M  V30 682 H 65.7226 3.94659 -4.35337 0
M  V30 683 H 67.2466 4.7349 -3.85538 0
M  V30 684 H 68.6606 2.78083 -5.01341 0
M  V30 685 H 67.0576 2.2227 -5.57419 0
M  V30 686 H 68.1276 1.09331 -4.72414 0
M  V30 687 N 69.4707 1.49531 0.497807 0
M  V30 688 C 70.7187 1.58865 1.24926 0
M  V30 689 C 71.0397 0.278721 1.92998 0
M  V30 690 O 70.3097 -0.702144 1.82885 0
M  V30 691 H 68.8897 0.585343 0.464094 0
M  V30 692 H 71.5517 1.86174 0.57666 0
M  V30 693 H 70.6477 2.38633 2.01149 0
M  V30 694 N 70.9488 -0.749086 1.3866 0
M  V30 695 C 71.8958 -1.86291 1.36251 0
M  V30 696 C 72.8658 -1.64578 0.224347 0
M  V30 697 O 74.0508 -1.86181 0.417279 0
M  V30 698 C 71.1908 -3.23644 1.19786 0
M  V30 699 C 70.3038 -3.57158 2.43027 0
M  V30 700 C 69.4388 -4.83838 2.19258 0
M  V30 701 C 68.4778 -5.10152 3.38247 0
M  V30 702 N 67.6148 -6.28029 3.13884 0
M  V30 703 H 72.4548 -1.87685 2.3147 0
M  V30 704 H 69.9918 -0.917287 1.14997 0
M  V30 705 H 71.9498 -4.0291 1.08254 0
M  V30 706 H 70.5798 -3.21566 0.282031 0
M  V30 707 H 69.6318 -2.72701 2.65214 0
M  V30 708 H 70.9438 -3.7253 3.31697 0
M  V30 709 H 70.0978 -5.71057 2.04888 0
M  V30 710 H 68.8368 -4.70614 1.2796 0
M  V30 711 H 67.8418 -4.21401 3.53131 0
M  V30 712 H 69.0668 -5.25271 4.30427 0
M  V30 713 H 67.0128 -6.1612 2.25238 0
M  V30 714 H 66.9298 -6.43922 3.96106 0
M  V30 715 H 68.1978 -7.18124 3.03179 0
M  V30 716 N 72.4269 -1.23603 -0.977757 0
M  V30 717 C 73.6759 -1.06377 -1.71368 0
M  V30 718 C 73.9889 0.399062 -1.91486 0
M  V30 719 O 75.1949 0.691312 -2.62551 0
M  V30 720 C 73.6509 -1.85512 -3.08404 0
M  V30 721 C 73.2589 -3.36141 -2.96164 0
M  V30 722 C 75.0029 -1.76783 -3.85938 0
M  V30 723 C 72.9099 -4.07659 -4.28449 0
M  V30 724 H 71.8399 -0.394452 -0.642591 0
M  V30 725 H 74.4909 -1.47594 -1.09034 0
M  V30 726 H 72.8729 -1.37103 -3.71509 0
M  V30 727 H 74.0469 -3.92056 -2.42133 0
M  V30 728 H 72.3619 -3.45712 -2.32104 0
M  V30 729 H 74.9589 -2.27526 -4.83876 0
M  V30 730 H 75.3019 -0.731116 -4.0983 0
M  V30 731 H 75.8349 -2.22818 -3.2954 0
M  V30 732 H 72.5739 -5.11648 -4.09752 0
M  V30 733 H 72.0939 -3.5653 -4.82334 0
M  V30 734 H 73.7729 -4.141 -4.97122 0
M  V30 735 N 73.905 1.17692 -1.04816 0
M  V30 736 C 74.852 2.21581 -0.645797 0
M  V30 737 C 75.822 1.62367 0.350159 0
M  V30 738 O 77.007 1.89254 0.242433 0
M  V30 739 C 74.147 3.45092 -0.0227568 0
M  V30 740 C 73.26 4.18613 -1.06709 0
M  V30 741 C 72.395 5.29602 -0.411767 0
M  V30 742 C 71.434 5.94904 -1.44067 0
M  V30 743 N 70.571 6.97414 -0.809781 0
M  V30 744 H 75.411 2.55353 -1.5362 0
M  V30 745 H 72.948 1.25438 -0.768364 0
M  V30 746 H 74.906 4.15679 0.35588 0
M  V30 747 H 73.536 3.11917 0.831122 0
M  V30 748 H 72.588 3.46779 -1.5636 0
M  V30 749 H 73.9 4.63293 -1.84827 0
M  V30 750 H 73.054 6.06696 0.0206623 0
M  V30 751 H 71.793 4.86045 0.401438 0
M  V30 752 H 70.798 5.16544 -1.88316 0
M  V30 753 H 72.023 6.40542 -2.25571 0
M  V30 754 H 69.969 6.55998 -0.0170186 0
M  V30 755 H 69.886 7.40386 -1.52856 0
M  V30 756 H 71.154 7.78463 -0.401999 0
M  V30 757 N 75.3831 0.828654 1.34056 0
M  V30 758 C 76.3311 0.242973 2.31327 0
M  V30 759 C 77.3251 -0.61944 1.57668 0
M  V30 760 O 78.5311 -0.51014 1.7262 0
M  V30 761 H 74.9061 0.059834 0.749616 0
M  V30 762 H 76.8771 1.07809 2.78244 0
M  V30 763 C 75.6261 -0.575733 3.429 0
M  V30 764 H 74.9491 0.0785582 3.99723 0
M  V30 765 H 76.3891 -0.951547 4.13185 0
M  V30 766 C 74.8481 -1.75044 2.87856 0
M  V30 767 O 75.3781 -2.84882 2.83205 0
M  V30 768 N 73.5841 -1.56903 2.44602 0
M  V30 769 H 73.1311 -0.675547 2.48584 0
M  V30 770 H 73.0891 -2.35652 2.08124 0
M  V30 771 N 76.8612 -1.46375 0.584142 0
M  V30 772 C 78.1072 -2.02678 0.0703716 0
M  V30 773 C 78.4402 -1.4545 -1.28678 0
M  V30 774 O 77.7152 -0.62014 -1.84349 0
M  V30 775 C 77.9982 -3.60099 0.00614674 0
M  V30 776 C 77.8512 -4.27709 1.3923 0
M  V30 777 C 79.1702 -4.34598 -0.693742 0
M  V30 778 H 76.2892 -0.736504 0.027047 0
M  V30 779 H 78.9312 -1.74501 0.751615 0
M  V30 780 H 77.0812 -3.84236 -0.574009 0
M  V30 781 H 78.7532 -4.14832 2.01773 0
M  V30 782 H 76.9962 -3.87016 1.95962 0
M  V30 783 H 77.6672 -5.36478 1.29982 0
M  V30 784 H 80.1432 -4.15615 -0.200869 0
M  V30 785 H 79.0192 -5.44318 -0.707714 0
M  V30 786 H 79.2802 -4.05759 -1.75533 0
M  V30 787 N 78.3393 -0.321999 -1.54275 0
M  V30 788 C 79.6163 0.335232 -1.92706 0
M  V30 789 C 79.9963 1.70006 -1.25145 0
M  V30 790 O 79.3443 2.25067 -0.394596 0
M  V30 791 C 79.5543 0.429008 -3.46353 0
M  V30 792 C 80.9023 0.690029 -4.18956 0
M  V30 793 O 81.9263 0.511992 -3.52501 0
M  V30 794 O 80.7853 1.03338 -5.36641 0
M  V30 795 H 77.8793 0.191143 -0.804608 0
M  V30 796 H 80.4253 -0.3716 -1.65581 0
M  V30 797 H 79.1973 -0.529611 -3.87699 0
M  V30 798 H 78.8203 1.18348 -3.79578 0
M  V30 799 N 79.8174 1.5752 -0.0501392 0
M  V30 800 C 81.0574 1.94521 0.627783 0
M  V30 801 C 81.4214 0.928265 1.68069 0
M  V30 802 O 82.6224 1.18517 2.41261 0
M  V30 803 C 80.8934 3.36319 1.20932 0
M  V30 804 S 82.4524 3.95272 1.90539 0
M  V30 805 H 79.2704 0.680456 0.206158 0
M  V30 806 H 81.8724 1.95139 -0.118829 0
M  V30 807 H 80.5764 4.08132 0.430865 0
M  V30 808 H 80.1074 3.39193 1.99277 0
M  V30 809 H 82.1224 3.80415 3.18589 0
M  V30 810 N 81.2955 -0.223234 1.56011 0
M  V30 811 C 82.5415 -0.949279 1.79211 0
M  V30 812 C 82.8745 -1.84054 0.619494 0
M  V30 813 O 82.1495 -1.90726 -0.381317 0
M  V30 814 C 82.4325 -1.78965 3.12479 0
M  V30 815 C 82.2855 -0.924997 4.40186 0
M  V30 816 C 83.6045 -2.76774 3.42175 0
M  V30 817 H 80.7235 -0.343676 0.651963 0
M  V30 818 H 83.3655 -0.218253 1.88742 0
M  V30 819 H 81.5155 -2.41291 3.04485 0
M  V30 820 H 83.1875 -0.318615 4.60198 0
M  V30 821 H 81.4305 -0.230344 4.33188 0
M  V30 822 H 82.1015 -1.54735 5.29869 0
M  V30 823 H 84.5775 -2.24584 3.50287 0
M  V30 824 H 83.4535 -3.32678 4.36597 0
M  V30 825 H 83.7145 -3.54429 2.64258 0
M  V30 826 N 82.7736 -1.49793 -0.48987 0
M  V30 827 C 83.7036 -1.70201 -1.59856 0
M  V30 828 C 84.6846 -0.55076 -1.60937 0
M  V30 829 O 85.8696 -0.787841 -1.77501 0
M  V30 830 C 82.9996 -1.77882 -2.98287 0
M  V30 831 C 81.9536 -2.92907 -3.12073 0
M  V30 832 C 81.2796 -2.85712 -4.51965 0
M  V30 833 C 82.5796 -4.3369 -2.91051 0
M  V30 834 H 84.2736 -2.63025 -1.43032 0
M  V30 835 H 81.8196 -1.26574 -0.686664 0
M  V30 836 H 83.7726 -1.90744 -3.75759 0
M  V30 837 H 82.4966 -0.816653 -3.16225 0
M  V30 838 H 81.1556 -2.79665 -2.37029 0
M  V30 839 H 80.8036 -1.8738 -4.66795 0
M  V30 840 H 80.5036 -3.62921 -4.62128 0
M  V30 841 H 82.0276 -3.00598 -5.31482 0
M  V30 842 H 83.4416 -4.47555 -3.58284 0
M  V30 843 H 81.8386 -5.12205 -3.12675 0
M  V30 844 H 82.9086 -4.47362 -1.87071 0
M  V30 845 N 84.2517 0.741722 -1.39055 0
M  V30 846 C 85.1817 1.869 -1.39966 0
M  V30 847 C 86.1627 1.6804 -0.26392 0
M  V30 848 O 87.3477 1.88458 -0.468755 0
M  V30 849 C 84.4777 3.24572 -1.23574 0
M  V30 850 C 83.4317 3.58056 -2.34477 0
M  V30 851 C 82.7577 4.94593 -2.0318 0
M  V30 852 C 84.0577 3.61716 -3.76774 0
M  V30 853 H 85.7517 1.86395 -2.34302 0
M  V30 854 H 83.2977 0.895361 -1.1278 0
M  V30 855 H 85.2507 4.031 -1.22834 0
M  V30 856 H 83.9747 3.25587 -0.257045 0
M  V30 857 H 82.6337 2.81854 -2.34423 0
M  V30 858 H 82.2817 4.92181 -1.03765 0
M  V30 859 H 81.9817 5.17964 -2.77465 0
M  V30 860 H 83.5057 5.75486 -2.04079 0
M  V30 861 H 84.9197 4.30335 -3.78794 0
M  V30 862 H 83.3167 3.96603 -4.50362 0
M  V30 863 H 84.3867 2.61672 -4.08235 0
M  V30 864 N 85.7298 1.2412 0.971189 0
M  V30 865 C 86.6928 1.03156 2.04674 0
M  V30 866 C 87.6928 -0.00990322 1.60797 0
M  V30 867 O 88.8828 0.230729 1.72665 0
M  V30 868 C 86.0148 0.562765 3.36223 0
M  V30 869 H 87.2078 1.98614 2.24705 0
M  V30 870 H 84.7608 1.06293 1.14593 0
M  V30 871 H 85.4958 -0.395176 3.21883 0
M  V30 872 H 85.2808 1.31441 3.69413 0
M  V30 873 H 86.7708 0.437015 4.15307 0
M  V30 874 N 87.2079 -1.17134 1.05439 0
M  V30 875 C 88.6239 -1.39454 0.776201 0
M  V30 876 C 88.8239 -1.91454 -0.628307 0
M  V30 877 O 87.8799 -2.10777 -1.39031 0
M  V30 878 C 89.1929 -2.38305 1.83388 0
M  V30 879 C 90.7409 -2.52006 1.85639 0
M  V30 880 C 91.2159 -3.54133 2.90437 0
M  V30 881 N 92.7069 -3.61653 2.89415 0
M  V30 882 C 93.4419 -4.4044 3.67152 0
M  V30 883 N 92.9379 -5.22721 4.54681 0
M  V30 884 N 94.7309 -4.35337 3.55581 0
M  V30 885 H 86.8819 -0.817134 1.96053 0
M  V30 886 H 89.1449 -0.421626 0.849079 0
M  V30 887 H 88.8509 -2.07173 2.84204 0
M  V30 888 H 88.7249 -3.37841 1.67761 0
M  V30 889 H 91.1119 -2.82447 0.85486 0
M  V30 890 H 91.1929 -1.52537 2.05344 0
M  V30 891 H 90.8369 -3.24431 3.90777 0
M  V30 892 H 90.7669 -4.53313 2.67983 0
M  V30 893 H 93.2579 -3.02909 2.25952 0
M  V30 894 H 93.5709 -5.80027 5.10674 0
M  V30 895 H 91.9159 -5.22093 4.58741 0
M  V30 896 H 95.1069 -3.70112 2.86592 0
M  V30 897 H 95.2799 -4.96494 4.1641 0
M  V30 898 N 88.686 -0.835752 -1.33615 0
M  V30 899 C 89.636 -0.238856 -2.26745 0
M  V30 900 C 90.62 0.604343 -1.49119 0
M  V30 901 O 91.812 0.456822 -1.71003 0
M  V30 902 C 88.941 0.587725 -3.38232 0
M  V30 903 C 88.027 -0.266811 -4.2326 0
M  V30 904 N 88.418 -1.34403 -4.87616 0
M  V30 905 C 86.716 -0.0533131 -4.45968 0
M  V30 906 C 87.417 -1.86819 -5.50884 0
M  V30 907 N 86.393 -1.17013 -5.30857 0
M  V30 908 H 90.195 -1.06266 -2.74016 0
M  V30 909 H 87.709 -0.679881 -1.47483 0
M  V30 910 H 89.706 1.03161 -4.03935 0
M  V30 911 H 88.366 1.40954 -2.9251 0
M  V30 912 H 89.377 -1.7269 -4.88261 0
M  V30 913 H 86.054 0.735312 -4.10974 0
M  V30 914 H 87.444 -2.7701 -6.1214 0
M  V30 915 N 90.1641 1.46063 -0.591896 0
M  V30 916 C 91.4121 2.01938 -0.0808391 0
M  V30 917 C 91.7331 1.46475 1.28725 0
M  V30 918 O 91.0031 0.652944 1.84698 0
M  V30 919 H 89.5831 0.746516 -0.0268938 0
M  V30 920 H 92.2451 1.79055 -0.769752 0
M  V30 921 H 91.3411 3.12094 -0.0187578 0
M  V30 922 N 91.6422 0.330177 1.54103 0
M  V30 923 C 93.0582 -0.0222371 1.59585 0
M  V30 924 C 93.2582 -1.49902 1.34654 0
M  V30 925 O 92.3142 -2.25592 1.13421 0
M  V30 926 C 93.6272 0.401932 2.98002 0
M  V30 927 C 95.1752 0.353145 3.11001 0
M  V30 928 C 95.6502 0.752576 4.51775 0
M  V30 929 N 97.1412 0.706239 4.57784 0
M  V30 930 C 97.8762 0.987417 5.64834 0
M  V30 931 N 97.3722 1.33607 6.79795 0
M  V30 932 N 99.1652 0.91254 5.54643 0
M  V30 933 H 91.3162 1.29228 1.68564 0
M  V30 934 H 93.5792 0.525906 0.78875 0
M  V30 935 H 93.2852 1.4311 3.21267 0
M  V30 936 H 93.1592 -0.229699 3.765 0
M  V30 937 H 95.5462 -0.666822 2.87467 0
M  V30 938 H 95.6272 1.0198 2.34593 0
M  V30 939 H 95.2712 1.77049 4.76042 0
M  V30 940 H 95.2012 0.0635409 5.26562 0
M  V30 941 H 97.6922 0.44889 3.75224 0
M  V30 942 H 98.0052 1.53582 7.57385 0
M  V30 943 H 96.3502 1.37439 6.81275 0
M  V30 944 H 99.5412 0.639601 4.6371 0
M  V30 945 H 99.7142 1.13503 6.37982 0
M  V30 946 N 93.1203 -1.57491 0.0584922 0
M  V30 947 C 94.0523 -2.08916 -0.942694 0
M  V30 948 C 95.0653 -1.0185 -1.27006 0
M  V30 949 O 96.2543 -1.29398 -1.22957 0
M  V30 950 C 93.3543 -2.52341 -2.26224 0
M  V30 951 C 92.5273 -3.82827 -2.1157 0
M  V30 952 C 91.5863 -4.12487 -3.26712 0
M  V30 953 O 90.6123 -4.82295 -3.02292 0
M  V30 954 N 91.8143 -3.64978 -4.5141 0
M  V30 955 H 94.5793 -2.95437 -0.503722 0
M  V30 956 H 92.1403 -1.61397 -0.12757 0
M  V30 957 H 94.1323 -2.69254 -3.02133 0
M  V30 958 H 92.7023 -1.7103 -2.61663 0
M  V30 959 H 91.9223 -3.75425 -1.20208 0
M  V30 960 H 93.2103 -4.68263 -1.99015 0
M  V30 961 H 92.6083 -3.08558 -4.7414 0
M  V30 962 H 91.1653 -3.87115 -5.2439 0
M  V30 963 N 94.5984 0.214957 -1.56127 0
M  V30 964 C 95.5484 1.27006 -1.8935 0
M  V30 965 C 96.5324 1.41969 -0.757202 0
M  V30 966 O 97.7244 1.44673 -1.01973 0
M  V30 967 C 94.8534 2.61911 -2.2194 0
M  V30 968 C 93.9394 2.50822 -3.41978 0
M  V30 969 N 94.3304 2.09391 -4.60423 0
M  V30 970 C 92.6284 2.81765 -3.45723 0
M  V30 971 C 93.3294 2.09712 -5.42582 0
M  V30 972 N 92.3054 2.50454 -4.82466 0
M  V30 973 H 96.1074 0.940734 -2.78437 0
M  V30 974 H 93.6214 0.423492 -1.56781 0
M  V30 975 H 95.6184 3.38096 -2.43919 0
M  V30 976 H 94.2784 2.95684 -1.34169 0
M  V30 977 H 95.2894 1.80416 -4.85459 0
M  V30 978 H 91.9664 3.19865 -2.68314 0
M  V30 979 H 93.3564 1.79748 -6.4741 0
M  V30 980 N 96.0765 1.50051 0.48192 0
M  V30 981 C 97.3045 1.64237 1.25832 0
M  V30 982 C 97.7195 0.321336 1.86045 0
M  V30 983 O 97.0765 -0.695478 1.68729 0
M  V30 984 C 97.1275 2.72548 2.37487 0
M  V30 985 O 96.8485 3.99529 1.79745 0
M  V30 986 C 98.3495 2.9761 3.28547 0
M  V30 987 H 95.5695 0.55237 0.380957 0
M  V30 988 H 98.1135 1.96207 0.576467 0
M  V30 989 H 96.2685 2.43303 3.01467 0
M  V30 990 H 96.6825 4.59342 2.5319 0
M  V30 991 H 98.1565 3.77084 4.03127 0
M  V30 992 H 98.6335 2.0826 3.86684 0
M  V30 993 H 99.2395 3.28345 2.70314 0
M  V30 994 N 97.5546 -0.734337 1.39446 0
M  V30 995 C 98.8036 -1.48937 1.36017 0
M  V30 996 C 99.1166 -1.95557 -0.0409005 0
M  V30 997 O 100.323 -2.70779 -0.19778 0
M  V30 998 C 98.7786 -2.69125 2.38955 0
M  V30 999 C 98.3866 -2.29452 3.8478 0
M  V30 1000 C 100.131 -3.46944 2.44603 0
M  V30 1001 C 98.0376 -3.46366 4.79358 0
M  V30 1002 H 96.9676 -0.559296 0.505672 0
M  V30 1003 H 99.6186 -0.800983 1.65095 0
M  V30 1004 H 98.0006 -3.40041 2.02948 0
M  V30 1005 H 99.1746 -1.66077 4.29831 0
M  V30 1006 H 97.4896 -1.64723 3.82433 0
M  V30 1007 H 100.087 -4.33907 3.12456 0
M  V30 1008 H 100.43 -3.89454 1.47076 0
M  V30 1009 H 100.963 -2.83056 2.79507 0
M  V30 1010 H 97.7016 -3.08905 5.78151 0
M  V30 1011 H 97.2216 -4.08719 4.38986 0
M  V30 1012 H 98.9006 -4.12691 4.98292 0
M  V30 1013 N 99.0327 -1.24633 -0.964593 0
M  V30 1014 C 99.9657 -0.984662 -2.05863 0
M  V30 1015 C 100.944 0.0826554 -1.6239 0
M  V30 1016 O 102.128 -0.0549296 -1.8842 0
M  V30 1017 C 99.2547 -0.486529 -3.35187 0
M  V30 1018 C 98.3007 -1.54286 -3.97615 0
M  V30 1019 S 99.1337 -3.12513 -4.34851 0
M  V30 1020 C 100.29 -2.6441 -5.67308 0
M  V30 1021 H 100.523 -1.91104 -2.27743 0
M  V30 1022 H 98.0557 -1.08052 -1.10291 0
M  V30 1023 H 100.014 -0.205757 -4.09984 0
M  V30 1024 H 98.6747 0.419186 -3.1129 0
M  V30 1025 H 97.8677 -1.14481 -4.90826 0
M  V30 1026 H 97.4697 -1.7738 -3.2926 0
M  V30 1027 H 99.7617 -2.07416 -6.44969 0
M  V30 1028 H 100.705 -3.56222 -6.11973 0
M  V30 1029 H 101.113 -2.04734 -5.26065 0
M  V30 1030 N 100.511 1.16574 -1.06058 0
M  V30 1031 C 101.922 1.68662 -0.800632 0
M  V30 1032 C 102.273 1.84184 0.67608 0
M  V30 1033 O 101.398 1.53568 1.52466 0
M  V30 1034 C 101.993 3.06356 -1.44676 0
M  V30 1035 C 100.552 3.55575 -1.23465 0
M  V30 1036 C 99.6988 2.31616 -1.52477 0
M  V30 1037 H 102.65 1.00969 -1.22438 0
M  V30 1038 H 102.671 3.70636 -0.860788 0
M  V30 1039 H 102.183 2.95027 -2.52152 0
M  V30 1040 H 100.284 3.72167 -0.179527 0
M  V30 1041 H 100.397 4.37812 -1.94571 0
M  V30 1042 H 98.7608 2.36512 -0.945209 0
M  V30 1043 H 99.5438 2.22887 -2.61106 0
M  V30 1044 N 101.989 0.842826 1.3317 0
M  V30 1045 C 103.214 0.453129 2.02389 0
M  V30 1046 C 103.639 -0.939105 1.6298 0
M  V30 1047 O 102.997 -1.61472 0.8244 0
M  V30 1048 C 103.045 0.586094 3.55805 0
M  V30 1049 O 102.149 -0.386029 4.10589 0
M  V30 1050 H 101.49 0.183664 0.638094 0
M  V30 1051 H 104.02 1.13875 1.69981 0
M  V30 1052 H 104.03 0.469209 4.05293 0
M  V30 1053 H 102.705 1.6014 3.83833 0
M  V30 1054 H 101.282 -0.226371 3.72212 0
M  V30 1055 N 103.467 -1.45747 0.599634 0
M  V30 1056 C 104.414 -2.30467 -0.123849 0
M  V30 1057 C 105.384 -1.41632 -0.86774 0
M  V30 1058 O 106.569 -1.70568 -0.855056 0
M  V30 1059 C 103.709 -3.26402 -1.12051 0
M  V30 1060 C 102.822 -4.3034 -0.37832 0
M  V30 1061 C 101.957 -5.13389 -1.364 0
M  V30 1062 C 100.996 -6.09061 -0.609171 0
M  V30 1063 N 100.133 -6.84918 -1.54374 0
M  V30 1064 H 104.973 -2.91802 0.604627 0
M  V30 1065 H 102.51 -1.43797 0.309972 0
M  V30 1066 H 104.468 -3.80482 -1.7114 0
M  V30 1067 H 103.098 -2.66839 -1.8165 0
M  V30 1068 H 102.15 -3.78984 0.327929 0
M  V30 1069 H 103.462 -4.98354 0.210997 0
M  V30 1070 H 102.616 -5.7183 -2.02719 0
M  V30 1071 H 101.355 -4.45376 -1.98725 0
M  V30 1072 H 100.36 -5.49758 0.0676979 0
M  V30 1073 H 101.585 -6.79099 0.00891991 0
M  V30 1074 H 99.531 -6.19601 -2.15478 0
M  V30 1075 H 99.448 -7.49254 -1.00766 0
M  V30 1076 H 100.716 -7.47906 -2.19676 0
M  V30 1077 N 104.945 -0.338344 -1.53925 0
M  V30 1078 C 106.191 0.260143 -2.01125 0
M  V30 1079 C 106.524 1.50617 -1.22589 0
M  V30 1080 O 105.799 1.91979 -0.312113 0
M  V30 1081 C 106.082 0.579499 -3.55407 0
M  V30 1082 C 105.935 -0.678264 -4.44657 0
M  V30 1083 C 107.254 1.39122 -4.17532 0
M  V30 1084 H 104.373 0.0930772 -0.731099 0
M  V30 1085 H 107.015 -0.457852 -1.84401 0
M  V30 1086 H 105.165 1.19118 -3.69788 0
M  V30 1087 H 106.837 -1.31631 -4.42121 0
M  V30 1088 H 105.08 -1.3042 -4.13731 0
M  V30 1089 H 105.751 -0.410143 -5.50474 0
M  V30 1090 H 108.227 0.874035 -4.06817 0
M  V30 1091 H 107.103 1.58342 -5.25565 0
M  V30 1092 H 107.364 2.39178 -3.71815 0
M  V30 1093 N 106.423 1.57458 -0.0668435 0
M  V30 1094 C 107.371 2.13639 0.919851 0
M  V30 1095 C 108.365 1.07204 1.31163 0
M  V30 1096 O 109.571 1.25591 1.28945 0
M  V30 1097 H 105.946 0.683048 0.314562 0
M  V30 1098 H 107.917 2.95415 0.421047 0
M  V30 1099 C 106.666 2.70892 2.17975 0
M  V30 1100 H 105.989 3.5246 1.88711 0
M  V30 1101 H 107.429 3.13803 2.85138 0
M  V30 1102 C 105.888 1.65414 2.93496 0
M  V30 1103 O 106.418 1.07619 3.87015 0
M  V30 1104 N 104.624 1.36564 2.56512 0
M  V30 1105 H 104.171 1.83751 1.80536 0
M  V30 1106 H 104.129 0.66223 3.07347 0
M  V30 1107 N 107.901 -0.206675 1.56239 0
M  V30 1108 C 109.131 -0.943975 1.83773 0
M  V30 1109 C 109.539 -1.77841 0.645703 0
M  V30 1110 O 108.882 -1.79403 -0.395008 0
M  V30 1111 C 108.944 -1.899 3.05251 0
M  V30 1112 C 108.608 -1.24764 4.39639 0
M  V30 1113 C 109.605 -0.630216 5.16066 0
M  V30 1114 C 107.29 -1.25496 4.8637 0
M  V30 1115 C 109.284 -0.0287946 6.37393 0
M  V30 1116 C 106.971 -0.649698 6.07637 0
M  V30 1117 C 107.969 -0.0376845 6.8299 0
M  V30 1118 O 107.657 0.55812 8.0196 0
M  V30 1119 H 107.389 -0.281508 0.614597 0
M  V30 1120 H 109.943 -0.222458 2.04192 0
M  V30 1121 H 108.173 -2.6599 2.80689 0
M  V30 1122 H 109.862 -2.5031 3.1953 0
M  V30 1123 H 110.628 -0.616785 4.81062 0
M  V30 1124 H 106.507 -1.72072 4.27683 0
M  V30 1125 H 110.051 0.449518 6.9615 0
M  V30 1126 H 105.948 -0.660592 6.42111 0
M  V30 1127 H 106.716 0.453891 8.17241 0
M  V30 1128 N 109.379 -1.50304 -0.473955 0
M  V30 1129 C 110.311 -1.65109 -1.58971 0
M  V30 1130 C 111.324 -0.532676 -1.53839 0
M  V30 1131 O 112.513 -0.805751 -1.59279 0
M  V30 1132 C 109.613 -1.61684 -2.97845 0
M  V30 1133 C 108.786 -2.8951 -3.27876 0
M  V30 1134 C 107.845 -2.78768 -4.4629 0
M  V30 1135 O 106.871 -3.52722 -4.46739 0
M  V30 1136 N 108.073 -1.9213 -5.47783 0
M  V30 1137 H 110.838 -2.61347 -1.46689 0
M  V30 1138 H 108.399 -1.47732 -0.662324 0
M  V30 1139 H 110.391 -1.52114 -3.75024 0
M  V30 1140 H 108.961 -0.731925 -3.03911 0
M  V30 1141 H 108.181 -3.13228 -2.39336 0
M  V30 1142 H 109.469 -3.74199 -3.4475 0
M  V30 1143 H 108.867 -1.31353 -5.50239 0
M  V30 1144 H 107.424 -1.88466 -6.23958 0
M  V30 1145 N 110.857 0.726932 -1.39834 0
M  V30 1146 C 111.82 1.82269 -1.38962 0
M  V30 1147 C 112.82 1.58248 -0.285334 0
M  V30 1148 O 114.01 1.65499 -0.54366 0
M  V30 1149 C 111.142 3.20186 -1.17019 0
M  V30 1150 H 112.335 1.84443 -2.36476 0
M  V30 1151 H 109.888 0.931416 -1.25516 0
M  V30 1152 H 110.623 3.23669 -0.202204 0
M  V30 1153 H 110.408 3.3902 -1.96998 0
M  V30 1154 H 111.898 4.00235 -1.1917 0
M  V30 1155 N 112.336 1.25143 0.95797 0
M  V30 1156 C 113.284 1.05019 2.07542 0
M  V30 1157 C 114.278 -0.0178751 1.69391 0
M  V30 1158 O 115.484 0.137472 1.79474 0
M  V30 1159 H 111.859 0.32265 0.679265 0
M  V30 1160 H 113.83 1.99759 2.21673 0
M  V30 1161 C 112.579 0.682074 3.40944 0
M  V30 1162 H 111.902 1.49573 3.70767 0
M  V30 1163 H 113.342 0.580945 4.20001 0
M  V30 1164 C 111.801 -0.611608 3.31302 0
M  V30 1165 O 112.331 -1.65465 3.66038 0
M  V30 1166 N 110.537 -0.595982 2.84423 0
M  V30 1167 H 110.084 0.253192 2.56353 0
M  V30 1168 H 110.042 -1.46173 2.78354 0
M  V30 1169 N 113.814 -1.1601 1.06675 0
M  V30 1170 C 115.063 -1.85973 0.780818 0
M  V30 1171 C 115.376 -1.82819 -0.695444 0
M  V30 1172 O 116.582 -2.484 -1.09589 0
M  V30 1173 C 115.038 -3.33757 1.34665 0
M  V30 1174 C 114.646 -3.45374 2.85343 0
M  V30 1175 C 116.39 -4.0895 1.13843 0
M  V30 1176 C 114.297 -4.87266 3.35151 0
M  V30 1177 H 113.227 -0.696661 0.288407 0
M  V30 1178 H 115.878 -1.30903 1.28595 0
M  V30 1179 H 114.26 -3.88456 0.769274 0
M  V30 1180 H 115.434 -3.00816 3.49065 0
M  V30 1181 H 113.749 -2.83619 3.04876 0
M  V30 1182 H 116.346 -5.13654 1.4854 0
M  V30 1183 H 116.689 -4.16229 0.0770282 0
M  V30 1184 H 117.222 -3.605 1.68179 0
M  V30 1185 H 113.961 -4.85168 4.40786 0
M  V30 1186 H 113.481 -5.32433 2.76179 0
M  V30 1187 H 115.16 -5.56097 3.30704 0
M  V30 1188 N 115.292 -0.849877 -1.32721 0
M  V30 1189 C 116.538 -0.460855 -1.9811 0
M  V30 1190 C 116.893 0.971716 -1.66059 0
M  V30 1191 O 116.186 1.67184 -0.935944 0
M  V30 1192 C 116.38 -0.631272 -3.51781 0
M  V30 1193 C 116.209 -2.07886 -3.98765 0
M  V30 1194 C 114.979 -2.71637 -4.26077 0
M  V30 1195 C 117.177 -3.04889 -4.14182 0
M  V30 1196 N 115.159 -4.07356 -4.59276 0
M  V30 1197 C 116.53 -4.25583 -4.50865 0
M  V30 1198 C 118.585 -3.01148 -3.96503 0
M  V30 1199 C 117.288 -5.43027 -4.71714 0
M  V30 1200 C 119.314 -4.17832 -4.18533 0
M  V30 1201 C 118.676 -5.37284 -4.55528 0
M  V30 1202 H 114.775 -0.217283 -0.751207 0
M  V30 1203 H 117.359 -1.10026 -1.60631 0
M  V30 1204 H 115.53 -0.0215966 -3.88394 0
M  V30 1205 H 117.262 -0.212614 -4.04141 0
M  V30 1206 H 114.017 -2.22705 -4.17971 0
M  V30 1207 H 114.441 -4.77351 -4.80068 0
M  V30 1208 H 119.083 -2.0992 -3.67006 0
M  V30 1209 H 116.801 -6.34791 -5.00066 0
M  V30 1210 H 120.387 -4.16368 -4.06361 0
M  V30 1211 H 119.267 -6.26071 -4.72234 0
M  V30 1212 N 116.77 1.45427 -0.607355 0
M  V30 1213 C 117.733 2.28974 0.101693 0
M  V30 1214 C 118.733 1.39754 0.795329 0
M  V30 1215 O 119.923 1.61878 0.643527 0
M  V30 1216 C 117.055 3.20768 1.15414 0
M  V30 1217 H 118.248 2.93147 -0.632844 0
M  V30 1218 H 115.801 1.51945 -0.366391 0
M  V30 1219 H 116.536 2.61395 1.91945 0
M  V30 1220 H 116.321 3.86489 0.66098 0
M  V30 1221 H 117.811 3.83589 1.65073 0
M  V30 1222 N 118.248 0.346503 1.53744 0
M  V30 1223 C 119.178 -0.501193 2.28058 0
M  V30 1224 C 120.159 -1.10014 1.29734 0
M  V30 1225 O 121.344 -1.12097 1.58581 0
M  V30 1226 C 118.474 -1.65078 3.05559 0
M  V30 1227 C 117.428 -1.18003 4.11411 0
M  V30 1228 C 116.754 -2.41837 4.76884 0
M  V30 1229 C 118.054 -0.278394 5.21558 0
M  V30 1230 H 119.748 0.11875 2.99164 0
M  V30 1231 H 117.294 0.0585531 1.43881 0
M  V30 1232 H 119.247 -2.25028 3.56287 0
M  V30 1233 H 117.971 -2.29767 2.32109 0
M  V30 1234 H 116.63 -0.603331 3.61601 0
M  V30 1235 H 116.278 -3.0494 4.00026 0
M  V30 1236 H 115.978 -2.1102 5.48402 0
M  V30 1237 H 117.502 -3.02508 5.30397 0
M  V30 1238 H 118.916 -0.784823 5.67903 0
M  V30 1239 H 117.313 -0.0619707 6.00068 0
M  V30 1240 H 118.383 0.684677 4.80042 0
M  V30 1241 N 119.726 -1.57421 0.075193 0
M  V30 1242 C 120.673 -2.12915 -0.890843 0
M  V30 1243 C 121.643 -1.04252 -1.29309 0
M  V30 1244 O 122.828 -1.31933 -1.37834 0
M  V30 1245 C 119.968 -2.69795 -2.15186 0
M  V30 1246 C 119.081 -3.92624 -1.80194 0
M  V30 1247 C 118.216 -4.37736 -3.00933 0
M  V30 1248 C 117.255 -5.53205 -2.61974 0
M  V30 1249 N 116.392 -5.9326 -3.75483 0
M  V30 1250 H 121.232 -2.95156 -0.410735 0
M  V30 1251 H 118.769 -1.45854 -0.191086 0
M  V30 1252 H 120.727 -3.00883 -2.89008 0
M  V30 1253 H 119.357 -1.90313 -2.60731 0
M  V30 1254 H 118.409 -3.67977 -0.964218 0
M  V30 1255 H 119.721 -4.76482 -1.47534 0
M  V30 1256 H 118.875 -4.70503 -3.8303 0
M  V30 1257 H 117.614 -3.52739 -3.36789 0
M  V30 1258 H 116.619 -5.20086 -1.783 0
M  V30 1259 H 117.844 -6.39936 -2.27284 0
M  V30 1260 H 115.79 -5.11212 -4.11094 0
M  V30 1261 H 115.707 -6.71865 -3.46602 0
M  V30 1262 H 116.975 -6.30651 -4.58148 0
M  V30 1263 N 121.204 0.198386 -1.56346 0
M  V30 1264 C 122.114 1.2664 -1.97483 0
M  V30 1265 C 123.13 1.49989 -0.882002 0
M  V30 1266 O 124.306 1.62668 -1.18748 0
M  V30 1267 C 121.371 2.59141 -2.30319 0
M  V30 1268 C 120.432 2.43892 -3.53292 0
M  V30 1269 C 119.665 3.70074 -3.84553 0
M  V30 1270 O 119.888 4.74101 -3.1715 0
M  V30 1271 O 118.822 3.658 -4.7799 0
M  V30 1272 H 122.648 0.947304 -2.88548 0
M  V30 1273 H 120.233 0.403123 -1.43859 0
M  V30 1274 H 122.115 3.37352 -2.5253 0
M  V30 1275 H 120.79 2.90684 -1.42423 0
M  V30 1276 H 119.697 1.63803 -3.36332 0
M  V30 1277 H 121.03 2.17282 -4.41644 0
M  V30 1278 N 122.682 1.50554 0.465978 0
M  V30 1279 C 123.592 1.72585 1.58907 0
M  V30 1280 C 124.608 0.60911 1.6299 0
M  V30 1281 O 125.784 0.88804 1.80765 0
M  V30 1282 C 122.849 1.81995 2.95091 0
M  V30 1283 C 121.91 3.05751 3.01355 0
M  V30 1284 C 121.143 3.14702 4.31043 0
M  V30 1285 O 121.366 2.30313 5.21835 0
M  V30 1286 O 120.3 4.07468 4.43005 0
M  V30 1287 H 124.126 2.67799 1.43239 0
M  V30 1288 H 121.711 1.34711 0.646013 0
M  V30 1289 H 123.593 1.90335 3.75966 0
M  V30 1290 H 122.268 0.899659 3.10947 0
M  V30 1291 H 121.175 3.02908 2.19539 0
M  V30 1292 H 122.508 3.97375 2.90437 0
M  V30 1293 N 124.16 -0.719506 1.40217 0
M  V30 1294 C 125.408 -1.47641 1.3801 0
M  V30 1295 C 125.729 -1.94992 -0.018145 0
M  V30 1296 O 124.999 -1.70073 -0.972207 0
M  V30 1297 H 123.579 -0.547744 0.507923 0
M  V30 1298 H 126.241 -0.853187 1.75233 0
M  V30 1299 H 125.337 -2.35112 2.05253 0
M  V30 1300 N 125.638 -1.25649 -0.95132 0
M  V30 1301 C 126.878 -1.11802 -1.71113 0
M  V30 1302 C 127.242 0.334758 -1.89059 0
M  V30 1303 O 128.443 0.595121 -2.62129 0
M  V30 1304 C 126.714 -1.85512 -3.05483 0
M  V30 1305 S 128.273 -1.87597 -3.96677 0
M  V30 1306 H 125.091 -0.399552 -0.588115 0
M  V30 1307 H 127.693 -1.59222 -1.1344 0
M  V30 1308 H 126.397 -2.90299 -2.90094 0
M  V30 1309 H 125.928 -1.38493 -3.68216 0
M  V30 1310 H 127.943 -0.955389 -4.86916 0
M  V30 1311 N 127.117 1.15442 -1.07289 0
M  V30 1312 C 128.345 1.90096 -0.81676 0
M  V30 1313 C 128.76 1.7798 0.629966 0
M  V30 1314 O 128.117 1.1313 1.43206 0
M  V30 1315 C 128.168 3.40466 -1.21512 0
M  V30 1316 O 127.889 3.52232 -2.60508 0
M  V30 1317 C 129.39 4.32145 -0.988198 0
M  V30 1318 H 126.61 0.602495 -0.295366 0
M  V30 1319 H 129.154 1.4627 -1.42918 0
M  V30 1320 H 127.309 3.81958 -0.647039 0
M  V30 1321 H 127.723 4.45549 -2.76742 0
M  V30 1322 H 129.197 5.36072 -1.31645 0
M  V30 1323 H 129.674 4.39135 0.0755063 0
M  V30 1324 H 130.28 3.96395 -1.54115 0
M  V30 1325 N 128.595 0.856903 1.32268 0
M  V30 1326 C 129.545 0.274899 2.26337 0
M  V30 1327 C 130.529 -0.580543 1.50062 0
M  V30 1328 O 131.721 -0.429559 1.71708 0
M  V30 1329 C 128.85 -0.533841 3.39124 0
M  V30 1330 C 127.936 0.334114 4.22782 0
M  V30 1331 N 128.327 1.42143 4.85416 0
M  V30 1332 C 126.625 0.124256 4.45827 0
M  V30 1333 C 127.326 1.95559 5.47843 0
M  V30 1334 N 126.302 1.25444 5.28928 0
M  V30 1335 H 130.104 1.10612 2.72291 0
M  V30 1336 H 127.618 0.703258 1.46383 0
M  V30 1337 H 129.615 -0.96722 4.05525 0
M  V30 1338 H 128.275 -1.36283 2.94715 0
M  V30 1339 H 129.286 1.80436 4.85451 0
M  V30 1340 H 125.963 -0.669837 4.12092 0
M  V30 1341 H 127.353 2.86714 6.07655 0
M  V30 1342 N 130.073 -1.45103 0.615059 0
M  V30 1343 C 131.319 -2.02483 0.113347 0
M  V30 1344 C 131.652 -1.48146 -1.25564 0
M  V30 1345 O 130.927 -0.659104 -1.82992 0
M  V30 1346 C 131.21 -3.60005 0.0825278 0
M  V30 1347 C 131.063 -4.2466 1.48271 0
M  V30 1348 C 132.382 -4.35972 -0.601401 0
M  V30 1349 H 129.501 -0.735764 0.0426632 0
M  V30 1350 H 132.143 -1.72868 0.788461 0
M  V30 1351 H 130.293 -3.85367 -0.492378 0
M  V30 1352 H 131.965 -4.10458 2.10527 0
M  V30 1353 H 130.208 -3.82772 2.04127 0
M  V30 1354 H 130.879 -5.336 1.41332 0
M  V30 1355 H 133.355 -4.15947 -0.112666 0
M  V30 1356 H 132.231 -5.45697 -0.592097 0
M  V30 1357 H 132.492 -4.09391 -1.66887 0
M  V30 1358 N 131.551 -0.354651 -1.53558 0
M  V30 1359 C 132.8 0.239504 -2.00273 0
M  V30 1360 C 133.113 1.50759 -1.24623 0
M  V30 1361 O 134.319 2.17968 -1.61871 0
M  V30 1362 C 132.775 0.477341 -3.5672 0
M  V30 1363 C 132.383 -0.775488 -4.41237 0
M  V30 1364 C 134.127 1.02975 -4.11821 0
M  V30 1365 C 132.034 -0.507838 -5.89216 0
M  V30 1366 H 130.964 0.0932743 -0.748208 0
M  V30 1367 H 133.615 -0.471701 -1.77334 0
M  V30 1368 H 131.997 1.24953 -3.7577 0
M  V30 1369 H 133.171 -1.54963 -4.33962 0
M  V30 1370 H 131.486 -1.25033 -3.97185 0
M  V30 1371 H 134.083 1.24513 -5.2 0
M  V30 1372 H 134.426 1.98862 -3.65731 0
M  V30 1373 H 134.959 0.317994 -3.96527 0
M  V30 1374 H 131.698 -1.43674 -6.39561 0
M  V30 1375 H 131.218 0.228011 -5.99366 0
M  V30 1376 H 132.897 -0.129238 -6.46871 0
M  V30 1377 N 133.029 1.57378 -0.0835403 0
M  V30 1378 C 134.275 1.94217 0.583733 0
M  V30 1379 C 134.608 0.964653 1.68547 0
M  V30 1380 O 133.883 -0.00422258 1.945 0
M  V30 1381 C 134.166 3.41253 1.14972 0
M  V30 1382 C 134.019 4.49768 0.0538277 0
M  V30 1383 C 135.338 3.89352 2.05166 0
M  V30 1384 H 132.457 0.706233 0.210724 0
M  V30 1385 H 135.099 1.89392 -0.1519 0
M  V30 1386 H 133.249 3.45496 1.77665 0
M  V30 1387 H 134.921 4.57641 -0.579851 0
M  V30 1388 H 133.164 4.29432 -0.614068 0
M  V30 1389 H 133.835 5.49817 0.490452 0
M  V30 1390 H 136.311 3.87189 1.52393 0
M  V30 1391 H 135.187 4.92822 2.41698 0
M  V30 1392 H 135.448 3.27973 2.96456 0
M  V30 1393 N 134.507 -0.190092 1.56449 0
M  V30 1394 C 135.735 -0.925772 1.85033 0
M  V30 1395 C 136.15 -1.76638 0.666658 0
M  V30 1396 O 135.507 -1.78822 -0.364565 0
M  V30 1397 C 135.558 -1.81786 3.12468 0
M  V30 1398 O 135.279 -1.01118 4.26271 0
M  V30 1399 C 136.78 -2.6648 3.54265 0
M  V30 1400 H 134 -0.269872 0.614337 0
M  V30 1401 H 136.544 -0.195837 2.0356 0
M  V30 1402 H 134.699 -2.50136 2.95822 0
M  V30 1403 H 135.113 -1.61956 4.98869 0
M  V30 1404 H 136.587 -3.24722 4.46385 0
M  V30 1405 H 137.064 -3.40434 2.77491 0
M  V30 1406 H 137.67 -2.03493 3.73458 0
M  V30 1407 N 135.985 -1.50799 -0.457987 0
M  V30 1408 C 137.213 -1.66218 -1.23203 0
M  V30 1409 C 137.628 -0.350894 -1.85511 0
M  V30 1410 O 136.985 0.668546 -1.69814 0
M  V30 1411 C 137.036 -2.76291 -2.33121 0
M  V30 1412 O 136.757 -4.02338 -1.73366 0
M  V30 1413 C 138.258 -3.028 -3.2377 0
M  V30 1414 H 135.478 -0.558361 -0.372121 0
M  V30 1415 H 138.022 -1.97099 -0.545179 0
M  V30 1416 H 136.177 -2.48068 -2.97558 0
M  V30 1417 H 136.591 -4.63312 -2.4585 0
M  V30 1418 H 138.065 -3.8345 -3.97077 0
M  V30 1419 H 138.542 -2.14385 -3.83322 0
M  V30 1420 H 139.148 -3.32604 -2.65056 0
M  V30 1421 N 137.463 0.71206 -1.40597 0
M  V30 1422 C 138.426 1.80785 -1.40888 0
M  V30 1423 C 139.426 1.57937 -0.302103 0
M  V30 1424 O 140.616 1.64913 -0.561182 0
M  V30 1425 C 137.748 3.18927 -1.20409 0
M  V30 1426 H 138.941 1.81924 -2.38419 0
M  V30 1427 H 136.494 0.91805 -1.26497 0
M  V30 1428 H 137.229 3.23436 -0.236522 0
M  V30 1429 H 137.014 3.36911 -2.00582 0
M  V30 1430 H 138.504 3.98949 -1.23408 0
M  V30 1431 N 138.941 1.26152 0.944643 0
M  V30 1432 C 140.181 1.12708 1.70517 0
M  V30 1433 C 140.545 -0.324727 1.89234 0
M  V30 1434 O 141.746 -0.581211 2.62441 0
M  V30 1435 C 140.017 1.8713 3.04495 0
M  V30 1436 S 141.576 1.89698 3.95677 0
M  V30 1437 H 138.394 0.402665 0.585988 0
M  V30 1438 H 140.996 1.59821 1.12594 0
M  V30 1439 H 139.7 2.91833 2.88551 0
M  V30 1440 H 139.231 1.40444 3.67477 0
M  V30 1441 H 141.246 0.981198 4.86402 0
M  V30 1442 N 140.419 -1.14872 1.07899 0
M  V30 1443 C 141.667 -1.85422 0.803941 0
M  V30 1444 C 141.988 -1.83051 -0.67211 0
M  V30 1445 O 141.258 -1.27532 -1.48703 0
M  V30 1446 H 139.838 -0.686537 0.294408 0
M  V30 1447 H 142.5 -1.39226 1.3639 0
M  V30 1448 H 141.596 -2.90399 1.14346 0
M  V30 1449 N 141.898 -0.863906 -1.31812 0
M  V30 1450 C 143.123 -0.48527 -2.01643 0
M  V30 1451 C 143.548 0.913058 -1.64453 0
M  V30 1452 O 142.906 1.6014 -0.849985 0
M  V30 1453 C 142.954 -0.642625 -3.54828 0
M  V30 1454 O 142.058 0.320659 -4.11151 0
M  V30 1455 H 141.399 -0.193793 -0.635091 0
M  V30 1456 H 143.929 -1.16565 -1.68148 0
M  V30 1457 H 143.939 -0.533628 -4.04495 0
M  V30 1458 H 142.614 -1.66227 -3.81237 0
M  V30 1459 H 141.191 0.167126 -3.72525 0
M  V30 1460 N 143.376 1.44774 -0.622745 0
M  V30 1461 C 144.306 2.33382 0.0741861 0
M  V30 1462 C 145.287 1.47719 0.843387 0
M  V30 1463 O 146.472 1.76458 0.810934 0
M  V30 1464 C 143.602 3.30663 1.06204 0
M  V30 1465 C 142.556 4.26079 0.405037 0
M  V30 1466 C 141.882 5.13165 1.5022 0
M  V30 1467 C 143.182 5.1781 -0.683414 0
M  V30 1468 H 144.876 2.91905 -0.665713 0
M  V30 1469 H 142.422 1.40363 -0.321587 0
M  V30 1470 H 144.375 3.9153 1.55827 0
M  V30 1471 H 143.099 2.70331 1.83272 0
M  V30 1472 H 141.758 3.66532 -0.0704683 0
M  V30 1473 H 141.406 4.49191 2.26355 0
M  V30 1474 H 141.106 5.77812 1.06803 0
M  V30 1475 H 142.63 5.76902 2.00041 0
M  V30 1476 H 144.044 5.72661 -0.270631 0
M  V30 1477 H 142.441 5.91015 -1.04023 0
M  V30 1478 H 143.511 4.59326 -1.55395 0
M  V30 1479 N 144.854 0.36279 1.53368 0
M  V30 1480 C 146.27 0.0116182 1.59596 0
M  V30 1481 C 146.47 -1.47012 1.37803 0
M  V30 1482 O 145.526 -2.23136 1.18181 0
M  V30 1483 C 146.839 0.465052 2.97082 0
M  V30 1484 C 148.387 0.419033 3.10182 0
M  V30 1485 C 148.862 0.848235 4.50077 0
M  V30 1486 N 150.353 0.803183 4.56183 0
M  V30 1487 C 151.088 1.107 5.62613 0
M  V30 1488 N 150.584 1.47996 6.76808 0
M  V30 1489 N 152.377 1.02998 5.52583 0
M  V30 1490 H 144.528 1.32775 1.65785 0
M  V30 1491 H 146.791 0.542518 0.777417 0
M  V30 1492 H 146.497 1.49892 3.18159 0
M  V30 1493 H 146.371 -0.149786 3.76902 0
M  V30 1494 H 148.758 -0.605696 2.88817 0
M  V30 1495 H 148.839 1.06933 2.32377 0
M  V30 1496 H 148.483 1.87107 4.7218 0
M  V30 1497 H 148.413 0.175218 5.26308 0
M  V30 1498 H 150.904 0.52838 3.74188 0
M  V30 1499 H 151.217 1.69613 7.53957 0
M  V30 1500 H 149.562 1.51859 6.78206 0
M  V30 1501 H 152.753 0.737817 4.62249 0
M  V30 1502 H 152.926 1.2701 6.35431 0
M  V30 1503 N 146.332 -1.57332 0.0918853 0
M  V30 1504 C 147.242 -2.17368 -0.882505 0
M  V30 1505 C 148.258 -1.14226 -1.31257 0
M  V30 1506 O 149.434 -1.46582 -1.38115 0
M  V30 1507 C 146.499 -2.73962 -2.12476 0
M  V30 1508 C 145.56 -3.92048 -1.7492 0
M  V30 1509 C 144.793 -4.45933 -2.93223 0
M  V30 1510 O 145.016 -3.98764 -4.07852 0
M  V30 1511 O 143.95 -5.36999 -2.71875 0
M  V30 1512 H 147.776 -3.01031 -0.40172 0
M  V30 1513 H 145.361 -1.48813 -0.132291 0
M  V30 1514 H 147.243 -3.10147 -2.85283 0
M  V30 1515 H 145.918 -1.93347 -2.59613 0
M  V30 1516 H 144.825 -3.6068 -0.993025 0
M  V30 1517 H 146.158 -4.74017 -1.32548 0
M  V30 1518 N 147.81 0.181792 -1.56548 0
M  V30 1519 C 148.72 1.24538 -1.98815 0
M  V30 1520 C 149.736 1.49045 -0.897861 0
M  V30 1521 O 150.912 1.61399 -1.20467 0
M  V30 1522 C 147.977 2.56683 -2.33055 0
M  V30 1523 C 147.038 2.40131 -3.55859 0
M  V30 1524 C 146.271 3.65975 -3.88456 0
M  V30 1525 O 146.494 4.70711 -3.22161 0
M  V30 1526 O 145.428 3.6071 -4.81842 0
M  V30 1527 H 149.254 0.916647 -2.89536 0
M  V30 1528 H 146.839 0.387842 -1.44278 0
M  V30 1529 H 148.721 3.34655 -2.56094 0
M  V30 1530 H 147.396 2.89157 -1.45498 0
M  V30 1531 H 146.303 1.60226 -3.38051 0
M  V30 1532 H 147.636 2.12585 -4.43924 0
M  V30 1533 N 149.288 1.51039 0.449983 0
M  V30 1534 C 150.537 1.62317 1.19733 0
M  V30 1535 C 150.85 0.339101 1.92638 0
M  V30 1536 O 152.056 0.331069 2.69474 0
M  V30 1537 C 150.512 2.86608 2.17678 0
M  V30 1538 C 150.12 4.21972 1.50479 0
M  V30 1539 C 151.864 3.07239 2.92924 0
M  V30 1540 C 149.771 5.37426 2.46834 0
M  V30 1541 H 148.701 0.604532 0.450619 0
M  V30 1542 H 151.352 1.77494 0.465625 0
M  V30 1543 H 149.734 2.65037 2.94231 0
M  V30 1544 H 150.908 4.53878 0.795716 0
M  V30 1545 H 149.223 4.07117 0.874344 0
M  V30 1546 H 151.82 3.90668 3.65079 0
M  V30 1547 H 152.163 2.19807 3.5354 0
M  V30 1548 H 152.696 3.29091 2.23481 0
M  V30 1549 H 149.435 6.27079 1.90926 0
M  V30 1550 H 148.955 5.09912 3.15832 0
M  V30 1551 H 150.634 5.68862 3.08228 0
M  V30 1552 N 150.766 -0.704594 1.40972 0
M  V30 1553 C 151.698 -1.82974 1.38033 0
M  V30 1554 C 152.711 -1.60305 0.283931 0
M  V30 1555 O 153.9 -1.69975 0.545042 0
M  V30 1556 C 151 -3.19578 1.12795 0
M  V30 1557 C 150.173 -3.69352 2.34302 0
M  V30 1558 C 149.232 -4.84601 2.05058 0
M  V30 1559 O 148.258 -4.96682 2.7802 0
M  V30 1560 N 149.46 -5.71194 1.03528 0
M  V30 1561 H 152.225 -1.85991 2.35005 0
M  V30 1562 H 149.786 -0.886567 1.35468 0
M  V30 1563 H 151.778 -3.9429 0.911987 0
M  V30 1564 H 150.348 -3.11642 0.24452 0
M  V30 1565 H 149.568 -2.85649 2.71659 0
M  V30 1566 H 150.856 -3.99345 3.1528 0
M  V30 1567 H 150.254 -5.64054 0.431217 0
M  V30 1568 H 148.811 -6.45843 0.879205 0
M  V30 1569 N 152.244 -1.26651 -0.937939 0
M  V30 1570 C 153.655 -1.1125 -1.49934 0
M  V30 1571 C 154.006 0.306077 -1.93798 0
M  V30 1572 O 153.131 1.19792 -1.80219 0
M  V30 1573 C 153.726 -2.01339 -2.72485 0
M  V30 1574 C 152.285 -1.90074 -3.24883 0
M  V30 1575 C 151.432 -1.94498 -1.97651 0
M  V30 1576 H 154.383 -1.39693 -0.753091 0
M  V30 1577 H 154.404 -1.56319 -3.46907 0
M  V30 1578 H 153.916 -3.04577 -2.40529 0
M  V30 1579 H 152.017 -0.897827 -3.61621 0
M  V30 1580 H 152.13 -2.75778 -3.9177 0
M  V30 1581 H 150.494 -1.38591 -2.13693 0
M  V30 1582 H 151.277 -2.99372 -1.68022 0
M  V30 1583 N 153.722 1.14298 -1.08507 0
M  V30 1584 C 154.97 1.84993 -0.813763 0
M  V30 1585 C 155.291 1.83405 0.662393 0
M  V30 1586 O 154.561 1.28319 1.48024 0
M  V30 1587 H 153.141 0.684966 -0.298045 0
M  V30 1588 H 155.803 1.385 -1.37126 0
M  V30 1589 H 154.899 2.89788 -1.15884 0
M  V30 1590 N 155.201 0.870884 1.31352 0
M  V30 1591 C 156.478 0.402907 1.91405 0
M  V30 1592 C 156.858 -1.11512 1.79244 0
M  V30 1593 O 156.206 -1.94411 1.2007 0
M  V30 1594 C 156.416 0.885301 3.37585 0
M  V30 1595 C 157.764 0.911971 4.14691 0
M  V30 1596 O 158.788 0.831016 3.46371 0
M  V30 1597 O 157.647 1.02927 5.3672 0
M  V30 1598 H 154.741 0.120698 0.818145 0
M  V30 1599 H 157.287 0.958857 1.40014 0
M  V30 1600 H 156.059 1.92889 3.40455 0
M  V30 1601 H 155.682 0.307714 3.96407 0
M  V30 1602 N 156.679 -1.44442 0.630414 0
M  V30 1603 C 157.928 -2.01267 0.132073 0
M  V30 1604 C 158.241 -1.50172 -1.25331 0
M  V30 1605 O 159.447 -1.9912 -1.84562 0
M  V30 1606 C 157.903 -3.59422 0.185362 0
M  V30 1607 C 157.511 -4.19514 1.57201 0
M  V30 1608 C 159.255 -4.23724 -0.256553 0
M  V30 1609 C 157.162 -5.69891 1.58045 0
M  V30 1610 H 156.092 -0.752619 0.0456092 0
M  V30 1611 H 158.743 -1.65666 0.789106 0
M  V30 1612 H 157.125 -3.92318 -0.538759 0
M  V30 1613 H 158.299 -3.98156 2.31966 0
M  V30 1614 H 156.614 -3.67496 1.95795 0
M  V30 1615 H 159.211 -5.34019 -0.269767 0
M  V30 1616 H 159.554 -3.96013 -1.28372 0
M  V30 1617 H 160.087 -3.95629 0.41505 0
M  V30 1618 H 156.826 -6.02336 2.58597 0
M  V30 1619 H 156.346 -5.93373 0.875725 0
M  V30 1620 H 158.025 -6.33515 1.31408 0
M  V30 1621 N 158.157 -0.370918 -1.53173 0
M  V30 1622 C 159.403 0.217423 -2.01631 0
M  V30 1623 C 159.736 1.47983 -1.25756 0
M  V30 1624 O 159.011 1.91274 -0.352764 0
M  V30 1625 C 159.294 0.503982 -3.56556 0
M  V30 1626 C 159.147 -0.77243 -4.43118 0
M  V30 1627 C 160.466 1.30234 -4.20389 0
M  V30 1628 H 157.585 0.0775486 -0.732909 0
M  V30 1629 H 160.227 -0.496863 -1.83388 0
M  V30 1630 H 158.377 1.11248 -3.72231 0
M  V30 1631 H 160.049 -1.4098 -4.39229 0
M  V30 1632 H 158.292 -1.39167 -4.10871 0
M  V30 1633 H 158.963 -0.526815 -5.4948 0
M  V30 1634 H 161.439 0.787546 -4.08579 0
M  V30 1635 H 160.315 1.47158 -5.28806 0
M  V30 1636 H 160.576 2.31237 -3.76805 0
M  V30 1637 N 159.635 1.57281 -0.100228 0
M  V30 1638 C 160.884 1.93713 0.561984 0
M  V30 1639 C 161.197 0.984492 1.69018 0
M  V30 1640 O 162.403 1.24273 2.41389 0
M  V30 1641 C 160.859 3.4421 1.05106 0
M  V30 1642 C 160.467 4.47975 -0.0476628 0
M  V30 1643 C 162.211 3.89595 1.68571 0
M  V30 1644 C 160.118 5.89631 0.457055 0
M  V30 1645 H 159.048 0.723082 0.2137 0
M  V30 1646 H 161.699 1.82644 -0.177057 0
M  V30 1647 H 160.081 3.50449 1.84395 0
M  V30 1648 H 161.255 4.53385 -0.823333 0
M  V30 1649 H 159.57 4.1223 -0.587816 0
M  V30 1650 H 162.167 4.92832 2.07414 0
M  V30 1651 H 162.51 3.28526 2.55688 0
M  V30 1652 H 163.043 3.86078 0.958562 0
M  V30 1653 H 159.782 6.54411 -0.377616 0
M  V30 1654 H 159.302 5.87681 1.19962 0
M  V30 1655 H 160.981 6.40363 0.92437 0
M  V30 1656 N 161.113 -0.173488 1.56642 0
M  V30 1657 C 162.362 -0.888758 1.81063 0
M  V30 1658 C 162.675 -1.83506 0.67712 0
M  V30 1659 O 163.881 -2.59254 0.806206 0
M  V30 1660 C 162.337 -1.63091 3.20826 0
M  V30 1661 C 161.945 -0.728357 4.4204 0
M  V30 1662 C 163.689 -2.33454 3.54541 0
M  V30 1663 C 161.596 -1.47062 5.72823 0
M  V30 1664 H 160.526 -0.335618 0.675186 0
M  V30 1665 H 163.177 -0.141712 1.82952 0
M  V30 1666 H 161.559 -2.42263 3.13248 0
M  V30 1667 H 162.733 0.0262449 4.60793 0
M  V30 1668 H 161.048 -0.134492 4.16183 0
M  V30 1669 H 163.645 -2.89578 4.49498 0
M  V30 1670 H 163.988 -3.08687 2.79317 0
M  V30 1671 H 164.521 -1.61227 3.63663 0
M  V30 1672 H 161.26 -0.760658 6.51072 0
M  V30 1673 H 160.78 -2.1986 5.58052 0
M  V30 1674 H 162.459 -2.01868 6.14702 0
M  V30 1675 N 162.591 -1.51276 -0.441967 0
M  V30 1676 C 163.868 -1.54252 -1.20273 0
M  V30 1677 C 164.248 -0.30408 -2.08898 0
M  V30 1678 O 163.596 0.711084 -2.17154 0
M  V30 1679 C 163.806 -2.85406 -2.00859 0
M  V30 1680 C 165.154 -3.37181 -2.58059 0
M  V30 1681 O 166.178 -2.86925 -2.11074 0
M  V30 1682 O 165.037 -4.24858 -3.43741 0
M  V30 1683 H 162.131 -0.619969 -0.547328 0
M  V30 1684 H 164.677 -1.63586 -0.451413 0
M  V30 1685 H 163.449 -3.67003 -1.35736 0
M  V30 1686 H 163.072 -2.79213 -2.83065 0
M  V30 1687 N 164.069 0.697108 -1.41344 0
M  V30 1688 C 165.001 1.8224 -1.39001 0
M  V30 1689 C 166.014 1.60152 -0.292428 0
M  V30 1690 O 167.203 1.69684 -0.554048 0
M  V30 1691 C 164.303 3.18976 -1.14489 0
M  V30 1692 C 163.476 3.68105 -2.36258 0
M  V30 1693 C 162.535 4.83506 -2.07625 0
M  V30 1694 O 161.561 4.95201 -2.8065 0
M  V30 1695 N 162.763 5.70637 -1.06555 0
M  V30 1696 H 165.528 1.84742 -2.35988 0
M  V30 1697 H 163.089 0.87937 -1.35936 0
M  V30 1698 H 165.081 3.93801 -0.932885 0
M  V30 1699 H 163.651 3.11508 -0.261043 0
M  V30 1700 H 162.871 2.84204 -2.7317 0
M  V30 1701 H 164.159 3.97667 -3.17393 0
M  V30 1702 H 163.557 5.63817 -0.461125 0
M  V30 1703 H 162.114 6.45368 -0.913444 0
M  V30 1704 N 165.547 1.27147 0.931209 0
M  V30 1705 C 166.794 1.13278 1.67852 0
M  V30 1706 C 167.122 -0.32204 1.91815 0
M  V30 1707 O 166.377 -1.25224 1.50391 0
M  V30 1708 C 166.676 1.8579 3.05314 0
M  V30 1709 C 166.342 3.35657 3.01073 0
M  V30 1710 C 165.004 3.76536 2.99623 0
M  V30 1711 C 167.356 4.31299 2.92627 0
M  V30 1712 C 164.684 5.11426 2.87506 0
M  V30 1713 C 167.036 5.66242 2.82051 0
M  V30 1714 C 165.7 6.06418 2.7895 0
M  V30 1715 H 164.97 0.414515 0.614214 0
M  V30 1716 H 167.617 1.57712 1.08624 0
M  V30 1717 H 165.922 1.33854 3.68226 0
M  V30 1718 H 167.619 1.72491 3.62005 0
M  V30 1719 H 164.209 3.03146 3.02986 0
M  V30 1720 H 168.393 4.00692 2.92848 0
M  V30 1721 H 163.649 5.41705 2.83489 0
M  V30 1722 H 167.823 6.40026 2.74481 0
M  V30 1723 H 165.45 7.10895 2.69318 0
M  V30 1724 N 167.025 -1.13721 1.09112 0
M  V30 1725 C 168.274 -1.84275 0.82009 0
M  V30 1726 C 168.587 -1.84253 -0.656509 0
M  V30 1727 O 169.793 -2.50668 -1.04296 0
M  V30 1728 C 168.249 -3.30825 1.41714 0
M  V30 1729 C 167.857 -3.39244 2.92605 0
M  V30 1730 C 169.601 -4.06443 1.22492 0
M  V30 1731 C 167.508 -4.80047 3.45411 0
M  V30 1732 H 166.438 -0.690387 0.30312 0
M  V30 1733 H 169.089 -1.28146 1.31343 0
M  V30 1734 H 167.471 -3.86737 0.851498 0
M  V30 1735 H 168.645 -2.93344 3.55367 0
M  V30 1736 H 166.96 -2.77088 3.10823 0
M  V30 1737 H 169.557 -5.10387 1.59402 0
M  V30 1738 H 169.9 -4.15972 0.165299 0
M  V30 1739 H 170.433 -3.56852 1.75788 0
M  V30 1740 H 167.172 -4.75709 4.50978 0
M  V30 1741 H 166.692 -5.26455 2.87411 0
M  V30 1742 H 168.371 -5.48957 3.42425 0
M  V30 1743 N 168.503 -0.877838 -1.30888 0
M  V30 1744 C 169.78 -0.413052 -1.91189 0
M  V30 1745 C 170.16 1.1056 -1.79832 0
M  V30 1746 O 169.508 1.93771 -1.21099 0
M  V30 1747 C 169.718 -0.903191 -3.3711 0
M  V30 1748 C 171.066 -0.93395 -4.14201 0
M  V30 1749 O 172.09 -0.849373 -3.45925 0
M  V30 1750 O 170.949 -1.05772 -5.36167 0
M  V30 1751 H 168.043 -0.125035 -0.817493 0
M  V30 1752 H 170.589 -0.966269 -1.39504 0
M  V30 1753 H 169.361 -1.94692 -3.39427 0
M  V30 1754 H 168.984 -0.328732 -3.96239 0
M  V30 1755 N 169.982 1.44106 -0.638065 0
M  V30 1756 C 171.398 1.56672 -0.304286 0
M  V30 1757 C 171.598 1.6244 1.19228 0
M  V30 1758 O 170.654 1.57121 1.9766 0
M  V30 1759 C 171.967 2.83503 -1.00231 0
M  V30 1760 C 173.515 2.97226 -0.981116 0
M  V30 1761 C 173.99 4.26868 -1.65974 0
M  V30 1762 N 175.481 4.33698 -1.62666 0
M  V30 1763 C 176.216 5.32745 -2.12063 0
M  V30 1764 N 175.712 6.38157 -2.6968 0
M  V30 1765 N 177.505 5.24299 -2.02651 0
M  V30 1766 H 169.656 1.38605 -1.60942 0
M  V30 1767 H 171.919 0.664661 -0.675965 0
M  V30 1768 H 171.625 2.85251 -2.0573 0
M  V30 1769 H 171.499 3.73251 -0.54439 0
M  V30 1770 H 173.886 2.95027 0.0654188 0
M  V30 1771 H 173.967 2.08808 -1.47759 0
M  V30 1772 H 173.611 4.29826 -2.70576 0
M  V30 1773 H 173.541 5.14156 -1.13804 0
M  V30 1774 H 176.032 3.58138 -1.20606 0
M  V30 1775 H 176.345 7.10029 -3.05087 0
M  V30 1776 H 174.69 6.38823 -2.73734 0
M  V30 1777 H 177.881 4.4086 -1.57353 0
M  V30 1778 H 178.054 6.01334 -2.41457 0
M  V30 1779 N 171.46 0.379036 1.52974 0
M  V30 1780 C 172.688 -0.20679 2.05864 0
M  V30 1781 C 173.103 -1.41356 1.25155 0
M  V30 1782 O 172.46 -1.8009 0.295588 0
M  V30 1783 C 172.511 -0.587045 3.56702 0
M  V30 1784 O 172.232 0.571776 4.34353 0
M  V30 1785 C 173.733 -1.22983 4.25899 0
M  V30 1786 H 170.953 -0.0336123 0.670158 0
M  V30 1787 H 173.497 0.541298 1.97206 0
M  V30 1788 H 171.652 -1.28504 3.65466 0
M  V30 1789 H 172.066 0.261544 5.23847 0
M  V30 1790 H 173.54 -1.44635 5.32715 0
M  V30 1791 H 174.017 -2.19416 3.80465 0
M  V30 1792 H 174.623 -0.572892 4.21424 0
M  V30 1793 N 172.938 -1.57226 0.108567 0
M  V30 1794 C 174.166 -1.99179 -0.559954 0
M  V30 1795 C 174.581 -0.988022 -1.60884 0
M  V30 1796 O 173.938 0.0205512 -1.82488 0
M  V30 1797 C 173.989 -3.41159 -1.19552 0
M  V30 1798 O 173.71 -4.37694 -0.188577 0
M  V30 1799 C 175.211 -3.98188 -1.94837 0
M  V30 1800 H 172.431 -0.654228 -0.149088 0
M  V30 1801 H 174.975 -2.03598 0.19183 0
M  V30 1802 H 173.13 -3.37711 -1.89815 0
M  V30 1803 H 173.544 -5.20469 -0.649014 0
M  V30 1804 H 175.018 -4.99644 -2.34648 0
M  V30 1805 H 175.495 -3.3675 -2.81951 0
M  V30 1806 H 176.101 -4.0515 -1.2936 0
M  V30 1807 N 174.416 0.165178 -1.56732 0
M  V30 1808 C 175.349 1.23336 -1.91998 0
M  V30 1809 C 176.327 1.42476 -0.783531 0
M  V30 1810 O 177.511 1.57384 -1.03743 0
M  V30 1811 C 174.638 2.59533 -2.17625 0
M  V30 1812 C 173.684 2.57093 -3.40302 0
M  V30 1813 S 174.517 2.05571 -4.9447 0
M  V30 1814 C 175.673 3.43532 -5.23198 0
M  V30 1815 H 175.906 0.932387 -2.82301 0
M  V30 1816 H 173.439 0.370013 -1.49901 0
M  V30 1817 H 175.397 3.37918 -2.3307 0
M  V30 1818 H 174.058 2.86827 -1.28019 0
M  V30 1819 H 173.251 3.57308 -3.55453 0
M  V30 1820 H 172.853 1.86806 -3.24005 0
M  V30 1821 H 175.145 4.39559 -5.15552 0
M  V30 1822 H 176.088 3.33251 -6.2478 0
M  V30 1823 H 176.496 3.39828 -4.50752 0
M  V30 1824 N 175.894 1.51508 0.433938 0
M  V30 1825 C 177.31 1.39759 0.770682 0
M  V30 1826 C 177.51 0.482594 1.95636 0
M  V30 1827 O 176.566 -0.0609691 2.52426 0
M  V30 1828 C 177.879 2.81851 1.04787 0
M  V30 1829 C 179.427 2.91025 1.1521 0
M  V30 1830 C 179.902 4.34032 1.46219 0
M  V30 1831 N 181.393 4.37154 1.53136 0
M  V30 1832 C 182.128 5.4484 1.78709 0
M  V30 1833 N 181.624 6.62682 2.02051 0
M  V30 1834 N 183.417 5.32324 1.80519 0
M  V30 1835 H 175.568 2.09548 -0.346892 0
M  V30 1836 H 177.831 0.943446 -0.0928074 0
M  V30 1837 H 177.537 3.50815 0.249304 0
M  V30 1838 H 177.411 3.21386 1.97461 0
M  V30 1839 H 179.798 2.22257 1.94128 0
M  V30 1840 H 179.879 2.54983 0.204281 0
M  V30 1841 H 179.523 5.03351 0.678274 0
M  V30 1842 H 179.453 4.6759 2.42212 0
M  V30 1843 H 181.944 3.52197 1.36987 0
M  V30 1844 H 182.257 7.40543 2.20943 0
M  V30 1845 H 180.602 6.65791 1.99366 0
M  V30 1846 H 183.793 4.39246 1.61805 0
M  V30 1847 H 183.966 6.16328 2.00111 0
M  V30 1848 N 177.372 -0.689602 1.41712 0
M  V30 1849 C 178.783 -1.26973 1.36875 0
M  V30 1850 C 179.134 -1.96124 0.054748 0
M  V30 1851 O 178.259 -1.99141 -0.84687 0
M  V30 1852 C 178.854 -2.30912 2.47922 0
M  V30 1853 C 177.413 -2.84486 2.46464 0
M  V30 1854 C 176.56 -1.58603 2.27465 0
M  V30 1855 H 179.511 -0.48396 1.51141 0
M  V30 1856 H 179.532 -3.12331 2.17323 0
M  V30 1857 H 179.044 -1.80554 3.43543 0
M  V30 1858 H 177.145 -3.39005 1.54617 0
M  V30 1859 H 177.258 -3.34511 3.42986 0
M  V30 1860 H 175.622 -1.84632 1.75451 0
M  V30 1861 H 176.405 -1.10233 3.25121 0
M  V30 1862 N 178.85 -1.27639 -0.924453 0
M  V30 1863 C 179.782 -1.06442 -2.02985 0
M  V30 1864 C 180.795 -0.0194771 -1.62788 0
M  V30 1865 O 181.984 -0.261388 -1.76576 0
M  V30 1866 C 179.084 -0.59327 -3.33667 0
M  V30 1867 C 178.257 -1.71123 -4.02537 0
M  V30 1868 C 177.316 -1.23527 -5.11495 0
M  V30 1869 O 176.342 -1.93553 -5.35281 0
M  V30 1870 N 177.544 -0.0926678 -5.80426 0
M  V30 1871 H 180.309 -2.01633 -2.2173 0
M  V30 1872 H 177.87 -1.19248 -1.09505 0
M  V30 1873 H 179.862 -0.258686 -4.03872 0
M  V30 1874 H 178.432 0.265502 -3.1147 0
M  V30 1875 H 177.652 -2.21593 -3.26022 0
M  V30 1876 H 178.94 -2.46145 -4.45298 0
M  V30 1877 H 178.338 0.491741 -5.63559 0
M  V30 1878 H 176.895 0.182714 -6.51544 0
M  V30 1879 N 180.328 1.1314 -1.09713 0
M  V30 1880 C 181.553 1.88862 -0.857081 0
M  V30 1881 C 181.978 1.78729 0.586304 0
M  V30 1882 O 181.336 1.13692 1.41222 0
M  V30 1883 C 181.384 3.36325 -1.30069 0
M  V30 1884 O 180.488 4.09815 -0.461007 0
M  V30 1885 H 179.829 0.587108 -0.310162 0
M  V30 1886 H 182.359 1.43129 -1.46203 0
M  V30 1887 H 182.369 3.87157 -1.28738 0
M  V30 1888 H 181.044 3.43017 -2.35185 0
M  V30 1889 H 179.621 3.68986 -0.538888 0
M  V30 1890 N 181.806 0.884767 1.30421 0
M  V30 1891 C 183.053 0.503105 1.96151 0
M  V30 1892 C 183.381 -0.947676 1.69851 0
M  V30 1893 O 182.636 -1.68467 0.995861 0
M  V30 1894 C 182.935 0.724318 3.49983 0
M  V30 1895 C 182.601 2.15015 3.96332 0
M  V30 1896 C 181.263 2.54005 4.08699 0
M  V30 1897 C 183.615 3.07936 4.20505 0
M  V30 1898 C 180.943 3.85128 4.42599 0
M  V30 1899 C 183.295 4.3859 4.55874 0
M  V30 1900 C 181.959 4.77474 4.66449 0
M  V30 1901 H 181.229 0.184099 0.717766 0
M  V30 1902 H 183.876 1.12058 1.55291 0
M  V30 1903 H 182.181 0.0238086 3.91793 0
M  V30 1904 H 183.878 0.408617 3.98913 0
M  V30 1905 H 180.468 1.8375 3.87213 0
M  V30 1906 H 184.652 2.79033 4.10431 0
M  V30 1907 H 179.908 4.14996 4.48986 0
M  V30 1908 H 184.082 5.10629 4.7353 0
M  V30 1909 H 181.709 5.79115 4.92473 0
M  V30 1910 N 183.284 -1.43765 0.645699 0
M  V30 1911 C 184.514 -2.05953 0.163318 0
M  V30 1912 C 184.922 -1.48432 -1.17322 0
M  V30 1913 O 184.265 -0.607295 -1.73371 0
M  V30 1914 C 184.327 -3.59499 -0.0103065 0
M  V30 1915 C 183.991 -4.39563 1.25035 0
M  V30 1916 C 184.988 -4.72108 2.17739 0
M  V30 1917 C 182.673 -4.79697 1.48983 0
M  V30 1918 C 184.667 -5.43688 3.3269 0
M  V30 1919 C 182.354 -5.51023 2.64229 0
M  V30 1920 C 183.352 -5.8294 3.55908 0
M  V30 1921 O 183.04 -6.5281 4.69142 0
M  V30 1922 H 182.772 -0.670798 0.0836986 0
M  V30 1923 H 185.326 -1.85384 0.884407 0
M  V30 1924 H 183.556 -3.78613 -0.78669 0
M  V30 1925 H 185.245 -4.03408 -0.449087 0
M  V30 1926 H 186.011 -4.41627 2.00476 0
M  V30 1927 H 181.89 -4.54266 0.785078 0
M  V30 1928 H 185.434 -5.68517 4.04269 0
M  V30 1929 H 181.331 -5.8092 2.81429 0
M  V30 1930 H 182.099 -6.71288 4.6831 0
M  V30 1931 N 184.763 -0.387143 -1.52771 0
M  V30 1932 C 186.04 0.253197 -1.93954 0
M  V30 1933 C 186.42 1.64545 -1.32243 0
M  V30 1934 O 185.768 2.23191 -0.489699 0
M  V30 1935 C 185.978 0.281722 -3.47861 0
M  V30 1936 C 187.326 0.511715 -4.21505 0
M  V30 1937 O 188.35 0.362023 -3.54356 0
M  V30 1938 O 187.209 0.804847 -5.40541 0
M  V30 1939 H 184.303 0.156845 -0.811991 0
M  V30 1940 H 186.849 -0.441494 -1.63856 0
M  V30 1941 H 185.621 -0.693571 -3.85104 0
M  V30 1942 H 185.244 1.02142 -3.84256 0
M  V30 1943 N 186.241 1.57166 -0.116904 0
M  V30 1944 C 187.489 1.94737 0.540533 0
M  V30 1945 C 187.81 1.00096 1.67349 0
M  V30 1946 O 187.08 0.0568854 1.95817 0
M  V30 1947 H 185.66 0.718981 0.202669 0
M  V30 1948 H 188.322 1.94017 -0.185353 0
M  V30 1949 H 187.418 2.97719 0.936483 0
M  V30 1950 N 187.719 -0.156864 1.56817 0
M  V30 1951 C 188.944 -0.890331 1.87318 0
M  V30 1952 C 189.369 -1.74394 0.704855 0
M  V30 1953 O 188.727 -1.77972 -0.345786 0
M  V30 1954 C 188.775 -1.73102 3.16336 0
M  V30 1955 O 187.879 -2.83422 2.99576 0
M  V30 1956 H 187.22 -0.24857 0.615718 0
M  V30 1957 H 189.75 -0.150649 2.04045 0
M  V30 1958 H 189.76 -2.12803 3.48107 0
M  V30 1959 H 188.435 -1.10412 4.00976 0
M  V30 1960 H 187.012 -2.47199 2.7919 0
M  V30 1961 N 189.197 -1.51736 -0.425897 0
M  V30 1962 C 190.147 -1.70258 -1.51645 0
M  V30 1963 C 191.131 -0.556488 -1.5097 0
M  V30 1964 O 192.323 -0.812879 -1.5723 0
M  V30 1965 C 189.452 -1.84143 -2.89735 0
M  V30 1966 C 188.538 -3.04572 -2.95122 0
M  V30 1967 N 188.929 -4.2756 -2.70233 0
M  V30 1968 C 187.227 -3.04061 -3.26286 0
M  V30 1969 C 187.928 -5.08908 -2.81757 0
M  V30 1970 N 186.904 -4.43797 -3.13919 0
M  V30 1971 H 190.706 -2.63004 -1.31172 0
M  V30 1972 H 188.22 -1.4954 -0.633375 0
M  V30 1973 H 190.217 -1.95525 -3.68206 0
M  V30 1974 H 188.877 -0.925857 -3.1122 0
M  V30 1975 H 189.888 -4.56315 -2.44943 0
M  V30 1976 H 186.565 -2.22179 -3.53473 0
M  V30 1977 H 187.955 -6.16843 -2.66372 0
M  V30 1978 N 190.675 0.682077 -1.42076 0
M  V30 1979 C 191.9 1.47558 -1.45744 0
M  V30 1980 C 192.325 1.87977 -0.0680981 0
M  V30 1981 O 191.683 1.55522 0.9318 0
M  V30 1982 C 191.731 2.70575 -2.38373 0
M  V30 1983 O 190.835 3.68573 -1.85007 0
M  V30 1984 H 190.176 0.443585 -0.494093 0
M  V30 1985 H 192.706 0.837238 -1.86686 0
M  V30 1986 H 192.716 3.18729 -2.54707 0
M  V30 1987 H 191.391 2.40495 -3.39315 0
M  V30 1988 H 189.968 3.2757 -1.78192 0
M  V30 1989 N 192.153 1.28127 0.917671 0
M  V30 1990 C 193.393 1.163 1.68088 0
M  V30 1991 C 193.757 -0.284515 1.8988 0
M  V30 1992 O 194.958 -0.525413 2.63615 0
M  V30 1993 C 193.229 1.93546 3.00457 0
M  V30 1994 S 194.788 1.98048 3.91564 0
M  V30 1995 H 191.606 0.415005 0.577315 0
M  V30 1996 H 194.208 1.62173 1.09179 0
M  V30 1997 H 192.912 2.97888 2.82295 0
M  V30 1998 H 192.443 1.48207 3.64415 0
M  V30 1999 H 194.458 1.08415 4.84211 0
M  V30 2000 N 193.631 -1.12557 1.10312 0
M  V30 2001 C 194.594 -2.16434 0.75424 0
M  V30 2002 C 195.594 -1.59278 -0.220685 0
M  V30 2003 O 196.784 -1.742 0.00230591 0
M  V30 2004 C 193.916 -3.40699 0.116987 0
M  V30 2005 H 195.109 -2.48811 1.67431 0
M  V30 2006 H 192.662 -1.27542 0.903475 0
M  V30 2007 H 193.397 -3.13921 -0.813877 0
M  V30 2008 H 193.182 -3.83459 0.818613 0
M  V30 2009 H 194.672 -4.17451 -0.111387 0
M  V30 2010 N 195.109 -0.891671 -1.2995 0
M  V30 2011 C 196.525 -0.58662 -1.48428 0
M  V30 2012 C 196.725 0.873951 -1.81561 0
M  V30 2013 O 195.781 1.65471 -1.90724 0
M  V30 2014 C 197.094 -1.50553 -2.60296 0
M  V30 2015 C 198.642 -1.50988 -2.74175 0
M  V30 2016 C 199.117 -2.41488 -3.89163 0
M  V30 2017 N 200.608 -2.39489 -3.96483 0
M  V30 2018 C 201.343 -3.06223 -4.84784 0
M  V30 2019 N 200.839 -3.82206 -5.77833 0
M  V30 2020 N 202.632 -2.95421 -4.78208 0
M  V30 2021 H 194.783 -1.83644 -1.06718 0
M  V30 2022 H 197.046 -0.786455 -0.529332 0
M  V30 2023 H 196.752 -2.54581 -2.42654 0
M  V30 2024 H 196.626 -1.22008 -3.56923 0
M  V30 2025 H 199.013 -0.47708 -2.91218 0
M  V30 2026 H 199.094 -1.83567 -1.78148 0
M  V30 2027 H 198.738 -3.44857 -3.72876 0
M  V30 2028 H 198.668 -2.06222 -4.84541 0
M  V30 2029 H 201.159 -1.84278 -3.29924 0
M  V30 2030 H 201.472 -4.302 -6.41988 0
M  V30 2031 H 199.817 -3.86313 -5.77743 0
M  V30 2032 H 203.008 -2.35581 -4.04499 0
M  V30 2033 H 203.181 -3.47704 -5.46814 0
M  V30 2034 N 196.587 1.43421 -0.653314 0
M  V30 2035 C 197.835 2.01414 -0.166415 0
M  V30 2036 C 198.156 1.51803 1.22397 0
M  V30 2037 O 197.426 0.730693 1.81763 0
M  V30 2038 H 196.006 0.744703 -0.0585319 0
M  V30 2039 H 198.668 1.75629 -0.845003 0
M  V30 2040 H 197.764 3.11734 -0.151111 0
M  V30 2041 N 198.065 0.39524 1.52563 0
M  V30 2042 C 199.311 -0.185318 2.01952 0
M  V30 2043 C 199.644 -1.45964 1.28095 0
M  V30 2044 O 198.919 -1.90689 0.38315 0
M  V30 2045 C 199.202 -0.447193 3.57312 0
M  V30 2046 C 199.055 0.842828 4.41833 0
M  V30 2047 C 200.374 -1.23529 4.22408 0
M  V30 2048 H 197.493 -0.0658788 0.73405 0
M  V30 2049 H 200.135 0.525975 1.82575 0
M  V30 2050 H 198.285 -1.05312 3.73954 0
M  V30 2051 H 199.957 1.4795 4.36931 0
M  V30 2052 H 198.2 1.45686 4.08605 0
M  V30 2053 H 198.871 0.614165 5.48573 0
M  V30 2054 H 201.347 -0.722445 4.0978 0
M  V30 2055 H 200.223 -1.38727 5.3108 0
M  V30 2056 H 200.484 -2.25213 3.80436 0
M  V30 2057 N 199.544 -1.57102 0.125237 0
M  V30 2058 C 200.784 -1.97294 -0.534259 0
M  V30 2059 C 201.148 -1.0074 -1.63449 0
M  V30 2060 O 202.349 -1.29893 -2.35332 0
M  V30 2061 C 200.62 -3.41705 -1.04748 0
M  V30 2062 S 202.179 -4.03913 -1.71463 0
M  V30 2063 H 198.997 -0.689517 -0.173458 0
M  V30 2064 H 201.599 -1.94349 0.211797 0
M  V30 2065 H 200.303 -4.09723 -0.235649 0
M  V30 2066 H 199.834 -3.48315 -1.82867 0
M  V30 2067 H 201.849 -3.95182 -3.00077 0
M  V30 2068 N 201.022 0.148545 -1.56898 0
M  V30 2069 C 201.972 1.1886 -1.94567 0
M  V30 2070 C 202.956 1.3863 -0.816735 0
M  V30 2071 O 204.148 1.40218 -1.08018 0
M  V30 2072 C 201.277 2.52262 -2.32849 0
M  V30 2073 C 200.363 2.36092 -3.52309 0
M  V30 2074 N 200.754 1.89674 -4.6889 0
M  V30 2075 C 199.052 2.66848 -3.57363 0
M  V30 2076 C 199.753 1.86511 -5.50989 0
M  V30 2077 N 198.729 2.29766 -4.92655 0
M  V30 2078 H 202.531 0.821793 -2.82177 0
M  V30 2079 H 200.045 0.356615 -1.58436 0
M  V30 2080 H 202.042 3.27447 -2.58039 0
M  V30 2081 H 200.702 2.89727 -1.46589 0
M  V30 2082 H 201.713 1.59663 -4.92674 0
M  V30 2083 H 198.39 3.08198 -2.81639 0
M  V30 2084 H 199.78 1.52128 -6.54452 0
M  V30 2085 N 202.5 1.5196 0.417844 0
M  V30 2086 C 203.749 1.6482 1.16264 0
M  V30 2087 C 204.062 0.379886 1.91876 0
M  V30 2088 O 205.268 0.388154 2.68711 0
M  V30 2089 C 203.724 2.91161 2.1155 0
M  V30 2090 C 203.332 4.25068 1.41495 0
M  V30 2091 C 205.076 3.13383 2.86341 0
M  V30 2092 C 202.983 5.42541 2.35379 0
M  V30 2093 H 201.913 0.613954 0.437694 0
M  V30 2094 H 204.564 1.78442 0.427871 0
M  V30 2095 H 202.946 2.71218 2.88543 0
M  V30 2096 H 204.12 4.55463 0.699263 0
M  V30 2097 H 202.435 4.0888 0.787792 0
M  V30 2098 H 205.032 3.98324 3.5671 0
M  V30 2099 H 205.375 2.27256 3.48798 0
M  V30 2100 H 205.908 3.33757 2.1645 0
M  V30 2101 H 202.647 6.30987 1.77582 0
M  V30 2102 H 202.167 5.16497 3.04945 0
M  V30 2103 H 203.846 5.75272 2.96093 0
M  V30 2104 N 203.978 -0.674533 1.42435 0
M  V30 2105 C 205.389 -1.25514 1.38214 0
M  V30 2106 C 205.74 -1.96055 0.0755464 0
M  V30 2107 O 204.865 -2.00028 -0.8257 0
M  V30 2108 C 205.46 -2.28269 2.50357 0
M  V30 2109 C 204.019 -2.81856 2.49467 0
M  V30 2110 C 203.166 -1.56182 2.29134 0
M  V30 2111 H 206.117 -0.467902 1.51646 0
M  V30 2112 H 206.138 -3.10009 2.20624 0
M  V30 2113 H 205.65 -1.769 3.45439 0
M  V30 2114 H 203.751 -3.37346 1.58204 0
M  V30 2115 H 203.864 -3.30854 3.46515 0
M  V30 2116 H 202.228 -1.82761 1.774 0
M  V30 2117 H 203.011 -1.06778 3.26272 0
M  V30 2118 N 205.456 -1.28612 -0.910864 0
M  V30 2119 C 206.389 -1.07109 -2.01502 0
M  V30 2120 C 207.367 0.013706 -1.62594 0
M  V30 2121 O 208.551 -0.134796 -1.88017 0
M  V30 2122 C 205.678 -0.628255 -3.32822 0
M  V30 2123 C 204.724 -1.71012 -3.90714 0
M  V30 2124 S 205.557 -3.30676 -4.21205 0
M  V30 2125 C 206.713 -2.88234 -5.55583 0
M  V30 2126 H 206.946 -2.00591 -2.19432 0
M  V30 2127 H 204.479 -1.12633 -1.05609 0
M  V30 2128 H 206.437 -0.37946 -4.08742 0
M  V30 2129 H 205.098 0.28678 -3.12788 0
M  V30 2130 H 204.291 -1.35195 -4.85529 0
M  V30 2131 H 203.893 -1.91186 -3.21441 0
M  V30 2132 H 206.185 -2.34584 -6.35591 0
M  V30 2133 H 207.128 -3.81857 -5.96314 0
M  V30 2134 H 207.536 -2.26862 -5.16908 0
M  V30 2135 N 206.934 1.1197 -1.10907 0
M  V30 2136 C 207.897 2.16031 -0.765707 0
M  V30 2137 C 208.897 1.59393 0.212235 0
M  V30 2138 O 210.087 1.74196 -0.0115441 0
M  V30 2139 C 207.219 3.40632 -0.135053 0
M  V30 2140 H 208.412 2.47919 -1.68748 0
M  V30 2141 H 205.965 1.27061 -0.910226 0
M  V30 2142 H 206.7 3.14348 0.797218 0
M  V30 2143 H 206.485 3.8302 -0.838937 0
M  V30 2144 H 207.975 4.17505 0.0892469 0
M  V30 2145 N 208.412 0.89855 1.29475 0
M  V30 2146 C 209.322 0.379974 2.31502 0
M  V30 2147 C 210.338 -0.524695 1.659 0
M  V30 2148 O 211.514 -0.414551 1.97087 0
M  V30 2149 C 208.579 -0.385138 3.44554 0
M  V30 2150 C 207.64 0.550914 4.2575 0
M  V30 2151 C 206.873 -0.177778 5.33404 0
M  V30 2152 O 207.096 -1.40189 5.52904 0
M  V30 2153 O 206.03 0.479106 5.9999 0
M  V30 2154 H 209.856 1.22639 2.77837 0
M  V30 2155 H 207.441 0.662834 1.33891 0
M  V30 2156 H 209.323 -0.817841 4.13388 0
M  V30 2157 H 207.998 -1.20763 3.0033 0
M  V30 2158 H 206.905 1.03271 3.59564 0
M  V30 2159 H 208.238 1.33979 4.73614 0
M  V30 2160 N 209.89 -1.43072 0.660911 0
M  V30 2161 C 211.301 -1.84932 0.256348 0
M  V30 2162 C 211.652 -1.55325 -1.19868 0
M  V30 2163 O 210.777 -1.00607 -1.91591 0
M  V30 2164 C 211.372 -3.35684 0.458475 0
M  V30 2165 C 209.931 -3.76245 0.108161 0
M  V30 2166 C 209.078 -2.66749 0.757641 0
M  V30 2167 H 212.029 -1.33116 0.864051 0
M  V30 2168 H 212.05 -3.79365 -0.293683 0
M  V30 2169 H 211.562 -3.572 1.51755 0
M  V30 2170 H 209.663 -3.60338 -0.948014 0
M  V30 2171 H 209.776 -4.76058 0.538992 0
M  V30 2172 H 208.14 -2.53989 0.190185 0
M  V30 2173 H 208.923 -2.91092 1.81989 0
M  V30 2174 N 211.368 -0.403325 -1.52352 0
M  V30 2175 C 212.615 0.174347 -2.01748 0
M  V30 2176 C 212.943 1.45636 -1.2892 0
M  V30 2177 O 212.198 1.9193 -0.382258 0
M  V30 2178 C 212.497 0.474665 -3.54234 0
M  V30 2179 C 212.163 -0.717458 -4.45155 0
M  V30 2180 C 210.825 -1.04447 -4.69728 0
M  V30 2181 C 213.177 -1.51432 -4.98716 0
M  V30 2182 C 210.505 -2.16963 -5.45109 0
M  V30 2183 C 212.857 -2.6302 -5.75329 0
M  V30 2184 C 211.521 -2.96213 -5.98175 0
M  V30 2185 H 210.791 0.0637981 -0.738248 0
M  V30 2186 H 213.438 -0.543553 -1.83624 0
M  V30 2187 H 211.743 1.27406 -3.70506 0
M  V30 2188 H 213.44 0.934496 -3.89959 0
M  V30 2189 H 210.03 -0.452596 -4.26204 0
M  V30 2190 H 214.214 -1.27491 -4.79645 0
M  V30 2191 H 209.47 -2.43034 -5.61021 0
M  V30 2192 H 213.644 -3.25158 -6.15829 0
M  V30 2193 H 211.271 -3.83516 -6.56368 0
M  V30 2194 N 212.846 1.57033 -0.133567 0
M  V30 2195 C 214.086 1.97575 0.523789 0
M  V30 2196 C 214.45 1.01605 1.62912 0
M  V30 2197 O 215.651 1.3114 2.3464 0
M  V30 2198 C 213.922 3.42256 1.02935 0
M  V30 2199 S 215.481 4.04817 1.69319 0
M  V30 2200 H 212.299 0.690427 0.169799 0
M  V30 2201 H 214.901 1.94234 -0.222101 0
M  V30 2202 H 213.605 4.09842 0.213917 0
M  V30 2203 H 213.136 3.4928 1.81017 0
M  V30 2204 H 215.151 3.96767 2.97977 0
M  V30 2205 N 214.325 -0.140222 1.56975 0
M  V30 2206 C 215.736 -0.699596 1.73097 0
M  V30 2207 C 216.087 -1.8134 0.749022 0
M  V30 2208 O 215.212 -2.16241 -0.0828503 0
M  V30 2209 C 215.807 -1.27582 3.1386 0
M  V30 2210 C 214.366 -1.78169 3.31561 0
M  V30 2211 C 213.513 -0.672855 2.69013 0
M  V30 2212 H 216.464 0.0855115 1.58469 0
M  V30 2213 H 216.485 -2.14561 3.14235 0
M  V30 2214 H 215.997 -0.464955 3.85305 0
M  V30 2215 H 214.098 -2.61801 2.65124 0
M  V30 2216 H 214.211 -1.90574 4.39566 0
M  V30 2217 H 212.575 -1.10118 2.29665 0
M  V30 2218 H 213.358 0.126679 3.43066 0
M  V30 2219 N 215.803 -1.52179 -0.40978 0
M  V30 2220 C 216.75 -1.75475 -1.49924 0
M  V30 2221 C 217.72 -0.597175 -1.54994 0
M  V30 2222 O 218.905 -0.834655 -1.71575 0
M  V30 2223 C 216.045 -1.9107 -2.87378 0
M  V30 2224 C 215.158 -3.18717 -2.91622 0
M  V30 2225 C 214.293 -3.24747 -4.20372 0
M  V30 2226 C 213.332 -4.46598 -4.18588 0
M  V30 2227 N 212.469 -4.50025 -5.38908 0
M  V30 2228 H 217.309 -2.68458 -1.29361 0
M  V30 2229 H 214.846 -1.33024 -0.627934 0
M  V30 2230 H 216.804 -1.98096 -3.6717 0
M  V30 2231 H 215.434 -1.01469 -3.06437 0
M  V30 2232 H 214.486 -3.20866 -2.04326 0
M  V30 2233 H 215.798 -4.08544 -2.86169 0
M  V30 2234 H 214.952 -3.30841 -5.08556 0
M  V30 2235 H 213.691 -2.32857 -4.28519 0
M  V30 2236 H 212.696 -4.40652 -3.28794 0
M  V30 2237 H 213.921 -5.39783 -4.12081 0
M  V30 2238 H 211.867 -3.61017 -5.47725 0
M  V30 2239 H 211.784 -5.33697 -5.35447 0
M  V30 2240 H 213.052 -4.60347 -6.29048 0
M  V30 2241 N 217.281 0.66697 -1.42791 0
M  V30 2242 C 218.509 1.45505 -1.47091 0
M  V30 2243 C 218.924 1.8861 -0.0845873 0
M  V30 2244 O 218.281 1.58632 0.90234 0
M  V30 2245 C 218.332 2.69906 -2.40485 0
M  V30 2246 O 218.053 2.28608 -3.73725 0
M  V30 2247 C 219.554 3.63396 -2.53886 0
M  V30 2248 H 216.774 0.447459 -0.500022 0
M  V30 2249 H 219.318 0.818866 -1.8739 0
M  V30 2250 H 217.473 3.29696 -2.03419 0
M  V30 2251 H 217.887 3.08997 -4.23817 0
M  V30 2252 H 219.361 4.47387 -3.2334 0
M  V30 2253 H 219.838 4.09824 -1.57927 0
M  V30 2254 H 220.444 3.09495 -2.91706 0
M  V30 2255 N 218.759 1.29093 0.90403 0
M  V30 2256 C 220.175 1.07011 1.1841 0
M  V30 2257 C 220.375 -0.181358 2.00682 0
M  V30 2258 O 219.431 -0.880331 2.36657 0
M  V30 2259 C 220.744 2.32311 1.90924 0
M  V30 2260 C 222.292 2.37587 2.03768 0
M  V30 2261 C 222.767 3.62679 2.79693 0
M  V30 2262 N 224.258 3.63376 2.87249 0
M  V30 2263 C 224.993 4.56848 3.46522 0
M  V30 2264 N 224.489 5.60648 4.06996 0
M  V30 2265 N 226.282 4.44426 3.44154 0
M  V30 2266 H 218.433 2.09412 0.354993 0
M  V30 2267 H 220.696 0.922181 0.219742 0
M  V30 2268 H 220.402 3.23536 1.37905 0
M  V30 2269 H 220.276 2.39483 2.91424 0
M  V30 2270 H 222.663 1.46853 2.55965 0
M  V30 2271 H 222.744 2.34403 1.02415 0
M  V30 2272 H 222.388 4.53762 2.28173 0
M  V30 2273 H 222.318 3.63119 3.81381 0
M  V30 2274 H 224.809 2.88321 2.44293 0
M  V30 2275 H 225.122 6.28101 4.50232 0
M  V30 2276 H 223.467 5.64463 4.05471 0
M  V30 2277 H 226.658 3.62529 2.96126 0
M  V30 2278 H 226.831 5.17457 3.90054 0
M  V30 2279 N 220.237 -1.11381 1.11499 0
M  V30 2280 C 221.147 -2.21019 0.786628 0
M  V30 2281 C 222.163 -1.72597 -0.220507 0
M  V30 2282 O 223.339 -2.01321 -0.0565251 0
M  V30 2283 C 220.404 -3.459 0.235333 0
M  V30 2284 C 219.465 -4.09107 1.30115 0
M  V30 2285 C 218.698 -5.28027 0.776068 0
M  V30 2286 O 218.921 -5.6904 -0.393661 0
M  V30 2287 O 217.855 -5.81835 1.54114 0
M  V30 2288 H 221.681 -2.51521 1.70209 0
M  V30 2289 H 219.266 -1.19928 0.890928 0
M  V30 2290 H 221.148 -4.21346 -0.067715 0
M  V30 2291 H 219.823 -3.17049 -0.652828 0
M  V30 2292 H 218.73 -3.35391 1.65722 0
M  V30 2293 H 220.063 -4.42139 2.16273 0
M  V30 2294 N 221.715 -0.905404 -1.28997 0
M  V30 2295 C 222.961 -0.535039 -1.95615 0
M  V30 2296 C 223.294 0.917404 -1.71165 0
M  V30 2297 O 222.569 1.65123 -1.02785 0
M  V30 2298 C 222.852 -0.834918 -3.50287 0
M  V30 2299 C 222.705 -2.33948 -3.84172 0
M  V30 2300 C 224.024 -0.325318 -4.38896 0
M  V30 2301 H 221.143 -0.195861 -0.710498 0
M  V30 2302 H 223.785 -1.13313 -1.52513 0
M  V30 2303 H 221.935 -0.325904 -3.87131 0
M  V30 2304 H 223.607 -2.91847 -3.57243 0
M  V30 2305 H 221.85 -2.79789 -3.31513 0
M  V30 2306 H 222.521 -2.49987 -4.92149 0
M  V30 2307 H 224.997 -0.761256 -4.09077 0
M  V30 2308 H 223.873 -0.564295 -5.45992 0
M  V30 2309 H 224.134 0.774144 -4.35269 0
M  V30 2310 N 223.193 1.4272 -0.668489 0
M  V30 2311 C 224.123 2.335 -0.000100175 0
M  V30 2312 C 225.104 1.50328 0.795964 0
M  V30 2313 O 226.289 1.78949 0.754385 0
M  V30 2314 C 223.419 3.33874 0.956302 0
M  V30 2315 C 222.373 4.27152 0.269278 0
M  V30 2316 C 221.699 5.17684 1.33818 0
M  V30 2317 C 222.999 5.15373 -0.847805 0
M  V30 2318 H 224.693 2.89639 -0.758244 0
M  V30 2319 H 222.239 1.39269 -0.366079 0
M  V30 2320 H 224.192 3.9629 1.43292 0
M  V30 2321 H 222.916 2.76025 1.74579 0
M  V30 2322 H 221.575 3.66123 -0.187042 0
M  V30 2323 H 221.223 4.56165 2.1195 0
M  V30 2324 H 220.923 5.80918 0.883659 0
M  V30 2325 H 222.447 5.82974 1.81586 0
M  V30 2326 H 223.861 5.7151 -0.452681 0
M  V30 2327 H 222.258 5.87407 -1.22773 0
M  V30 2328 H 223.328 4.5415 -1.69929 0
M  V30 2329 N 224.671 0.411399 1.52136 0
M  V30 2330 C 225.92 -0.165009 2.01024 0
M  V30 2331 C 226.233 -1.4603 1.30133 0
M  V30 2332 O 227.439 -2.1181 1.69849 0
M  V30 2333 C 225.895 -0.344618 3.58246 0
M  V30 2334 C 225.503 0.938716 4.38055 0
M  V30 2335 C 227.247 -0.876195 4.15359 0
M  V30 2336 C 225.154 0.726172 5.86925 0
M  V30 2337 H 224.084 -0.0654407 0.751155 0
M  V30 2338 H 226.735 0.537192 1.75461 0
M  V30 2339 H 225.117 -1.10921 3.80148 0
M  V30 2340 H 226.291 1.70963 4.27912 0
M  V30 2341 H 224.606 1.39688 3.92271 0
M  V30 2342 H 227.203 -1.05128 5.24263 0
M  V30 2343 H 227.546 -1.85152 3.7286 0
M  V30 2344 H 228.079 -0.170607 3.97434 0
M  V30 2345 H 224.818 1.67312 6.33788 0
M  V30 2346 H 224.338 -0.00540283 5.998 0
M  V30 2347 H 226.017 0.369231 6.45946 0
M  V30 2348 N 226.149 -1.5696 0.141893 0
M  V30 2349 C 227.059 -2.20066 -0.812905 0
M  V30 2350 C 228.075 -1.18344 -1.27557 0
M  V30 2351 O 229.251 -1.50902 -1.33381 0
M  V30 2352 C 226.316 -2.80583 -2.03652 0
M  V30 2353 C 225.377 -3.97414 -1.62359 0
M  V30 2354 C 224.61 -4.55036 -2.78887 0
M  V30 2355 O 224.833 -4.11538 -3.94959 0
M  V30 2356 O 223.767 -5.45376 -2.54653 0
M  V30 2357 H 227.593 -3.02157 -0.305746 0
M  V30 2358 H 225.178 -1.49159 -0.0848799 0
M  V30 2359 H 227.06 -3.19067 -2.75272 0
M  V30 2360 H 225.735 -2.01508 -2.5333 0
M  V30 2361 H 224.642 -3.63656 -0.877775 0
M  V30 2362 H 225.975 -4.77994 -1.17401 0
M  V30 2363 N 227.627 0.131896 -1.57047 0
M  V30 2364 C 228.855 0.856461 -1.88341 0
M  V30 2365 C 229.27 1.74042 -0.731757 0
M  V30 2366 O 228.627 1.80051 0.297945 0
M  V30 2367 C 228.678 1.70064 -3.18999 0
M  V30 2368 O 228.399 0.852278 -4.2973 0
M  V30 2369 C 229.9 2.53148 -3.63911 0
M  V30 2370 H 227.12 0.246885 -0.62393 0
M  V30 2371 H 229.664 0.120152 -2.04147 0
M  V30 2372 H 227.819 2.38984 -3.04902 0
M  V30 2373 H 228.233 1.43329 -5.04537 0
M  V30 2374 H 229.707 3.07931 -4.58129 0
M  V30 2375 H 230.184 3.29901 -2.89935 0
M  V30 2376 H 230.79 1.89492 -3.80753 0
M  V30 2377 N 229.106 1.52395 0.401703 0
M  V30 2378 C 230.069 1.75636 1.47257 0
M  V30 2379 C 231.069 0.62628 1.48103 0
M  V30 2380 O 232.259 0.894227 1.49497 0
M  V30 2381 C 229.391 1.84553 2.86624 0
M  V30 2382 H 230.584 2.71241 1.27938 0
M  V30 2383 H 228.137 1.42923 0.632662 0
M  V30 2384 H 228.872 0.908882 3.11303 0
M  V30 2385 H 228.657 2.66715 2.87412 0
M  V30 2386 H 230.147 2.04251 3.64241 0
M  V30 2387 N 230.584 -0.659388 1.43143 0
M  V30 2388 C 231.531 -1.77249 1.47822 0
M  V30 2389 C 232.501 -1.62818 0.328558 0
M  V30 2390 O 233.686 -1.83151 0.534838 0
M  V30 2391 C 230.826 -3.15371 1.40126 0
M  V30 2392 C 229.939 -3.4098 2.65249 0
M  V30 2393 C 229.074 -4.68915 2.49584 0
M  V30 2394 C 228.113 -4.87608 3.70006 0
M  V30 2395 N 227.25 -6.06796 3.53189 0
M  V30 2396 H 232.09 -1.72584 2.42938 0
M  V30 2397 H 229.627 -0.842297 1.20598 0
M  V30 2398 H 231.585 -3.9521 1.33659 0
M  V30 2399 H 230.215 -3.19121 0.485964 0
M  V30 2400 H 229.267 -2.55282 2.8202 0
M  V30 2401 H 230.579 -3.50681 3.54717 0
M  V30 2402 H 229.733 -5.56871 2.4079 0
M  V30 2403 H 228.472 -4.61524 1.5763 0
M  V30 2404 H 227.477 -3.9809 3.79215 0
M  V30 2405 H 228.702 -4.96834 4.62961 0
M  V30 2406 H 226.648 -6.00549 2.63965 0
M  V30 2407 H 226.565 -6.17428 4.36255 0
M  V30 2408 H 227.833 -6.9739 3.48236 0
M  V30 2409 N 232.062 -1.29571 -0.897171 0
M  V30 2410 C 233.009 -1.14916 -2.00158 0
M  V30 2411 C 233.979 -0.0418149 -1.66047 0
M  V30 2412 O 235.164 -0.209793 -1.89643 0
M  V30 2413 C 232.304 -0.834307 -3.34863 0
M  V30 2414 C 231.417 -2.02234 -3.8174 0
M  V30 2415 C 230.552 -1.64664 -5.05034 0
M  V30 2416 C 229.591 -2.80033 -5.44286 0
M  V30 2417 N 228.728 -2.42843 -6.58765 0
M  V30 2418 H 233.568 -2.09403 -2.12025 0
M  V30 2419 H 231.105 -1.042 -1.0383 0
M  V30 2420 H 233.063 -0.632436 -4.12379 0
M  V30 2421 H 231.693 0.0736656 -3.22716 0
M  V30 2422 H 230.745 -2.33583 -3.00238 0
M  V30 2423 H 232.057 -2.88673 -4.06779 0
M  V30 2424 H 231.211 -1.4078 -5.9014 0
M  V30 2425 H 229.95 -0.753766 -4.8184 0
M  V30 2426 H 228.955 -3.04596 -4.57713 0
M  V30 2427 H 230.18 -3.69989 -5.6946 0
M  V30 2428 H 228.126 -1.56046 -6.3717 0
M  V30 2429 H 228.043 -3.22815 -6.83613 0
M  V30 2430 H 229.311 -2.22285 -7.47134 0
M  V30 2431 N 233.54 1.10788 -1.12088 0
M  V30 2432 C 234.47 2.19083 -0.807755 0
M  V30 2433 C 235.451 1.6858 0.226859 0
M  V30 2434 O 236.636 1.93997 0.0888475 0
M  V30 2435 C 233.766 3.46344 -0.257576 0
M  V30 2436 C 232.72 4.101 -1.22483 0
M  V30 2437 C 232.046 5.32016 -0.535052 0
M  V30 2438 C 233.346 4.54236 -2.57811 0
M  V30 2439 H 235.04 2.45534 -1.71328 0
M  V30 2440 H 232.586 1.1801 -0.825205 0
M  V30 2441 H 234.539 4.21392 -0.0262679 0
M  V30 2442 H 233.263 3.19373 0.683278 0
M  V30 2443 H 231.922 3.37054 -1.44189 0
M  V30 2444 H 231.57 5.01319 0.410827 0
M  V30 2445 H 231.27 5.75625 -1.18024 0
M  V30 2446 H 232.794 6.09799 -0.312695 0
M  V30 2447 H 234.208 5.20575 -2.40155 0
M  V30 2448 H 232.605 5.08682 -3.18375 0
M  V30 2449 H 233.675 3.6734 -3.16528 0
M  V30 2450 N 235.018 0.912232 1.28515 0
M  V30 2451 C 236.266 0.543523 1.94654 0
M  V30 2452 C 236.587 -0.9155 1.72173 0
M  V30 2453 O 235.857 -1.64708 1.06058 0
M  V30 2454 H 234.437 0.198017 0.720277 0
M  V30 2455 H 237.099 1.16126 1.56527 0
M  V30 2456 H 236.195 0.736684 3.03281 0
M  V30 2457 N 236.496 -1.42363 0.676048 0
M  V30 2458 C 237.426 -2.33497 0.0124832 0
M  V30 2459 C 238.407 -1.50748 -0.787981 0
M  V30 2460 O 239.592 -1.79346 -0.744884 0
M  V30 2461 C 236.722 -3.34377 -0.938582 0
M  V30 2462 C 235.676 -4.27289 -0.246622 0
M  V30 2463 C 235.002 -5.18386 -1.31071 0
M  V30 2464 C 236.302 -5.14916 0.875125 0
M  V30 2465 H 237.996 -2.89233 0.773593 0
M  V30 2466 H 235.542 -1.39073 0.37346 0
M  V30 2467 H 237.495 -3.97044 -1.41188 0
M  V30 2468 H 236.219 -2.76947 -1.73113 0
M  V30 2469 H 234.878 -3.66018 0.206456 0
M  V30 2470 H 234.526 -4.57282 -2.09528 0
M  V30 2471 H 234.226 -5.81378 -0.852839 0
M  V30 2472 H 235.75 -5.83929 -1.78492 0
M  V30 2473 H 237.164 -5.71262 0.482983 0
M  V30 2474 H 235.561 -5.86747 1.25887 0
M  V30 2475 H 236.631 -4.53242 1.72335 0
M  V30 2476 N 237.974 -0.419461 -1.51915 0
M  V30 2477 C 239.39 -0.0708431 -1.59443 0
M  V30 2478 C 239.59 1.41796 -1.43164 0
M  V30 2479 O 238.646 2.18596 -1.26381 0
M  V30 2480 C 239.959 -0.574991 -2.95151 0
M  V30 2481 C 241.507 -0.533867 -3.08413 0
M  V30 2482 C 241.982 -1.01469 -4.46618 0
M  V30 2483 N 243.473 -0.971939 -4.52888 0
M  V30 2484 C 244.208 -1.31505 -5.58116 0
M  V30 2485 N 243.704 -1.73014 -6.70849 0
M  V30 2486 N 245.497 -1.23436 -5.48379 0
M  V30 2487 H 237.648 -1.38836 -1.60743 0
M  V30 2488 H 239.911 -0.570998 -0.756747 0
M  V30 2489 H 239.617 -1.61597 -3.12377 0
M  V30 2490 H 239.491 0.00979777 -3.77199 0
M  V30 2491 H 241.878 0.498086 -2.90866 0
M  V30 2492 H 241.959 -1.15484 -2.28248 0
M  V30 2493 H 241.603 -2.04502 -4.6491 0
M  V30 2494 H 241.533 -0.370433 -5.25295 0
M  V30 2495 H 244.024 -0.666893 -3.71969 0
M  V30 2496 H 244.337 -1.97479 -7.47143 0
M  V30 2497 H 242.682 -1.76926 -6.72103 0
M  V30 2498 H 245.873 -0.908869 -4.59192 0
M  V30 2499 H 246.046 -1.50506 -6.30279 0
M  V30 2500 N 239.452 1.56882 -0.150215 0
M  V30 2501 C 240.692 1.98119 0.502804 0
M  V30 2502 C 241.056 1.03327 1.61826 0
M  V30 2503 O 242.257 1.33621 2.33236 0
M  V30 2504 C 240.528 3.43329 0.992988 0
M  V30 2505 S 242.087 4.0659 1.65015 0
M  V30 2506 H 238.905 0.692189 0.162467 0
M  V30 2507 H 241.507 1.93988 -0.242689 0
M  V30 2508 H 240.211 4.10046 0.170436 0
M  V30 2509 H 239.742 3.5118 1.77303 0
M  V30 2510 H 241.757 3.99906 2.93752 0
M  V30 2511 N 240.93 -0.123565 1.57115 0
M  V30 2512 C 241.88 -1.1575 1.96433 0
M  V30 2513 C 242.864 -1.37313 0.838686 0
M  V30 2514 O 244.056 -1.38482 1.10235 0
M  V30 2515 C 241.185 -2.48526 2.36833 0
M  V30 2516 C 240.271 -2.30457 3.5602 0
M  V30 2517 N 240.662 -1.8219 4.71848 0
M  V30 2518 C 238.96 -2.61129 3.61563 0
M  V30 2519 C 239.661 -1.77721 5.53886 0
M  V30 2520 N 238.637 -2.21899 4.96248 0
M  V30 2521 H 242.439 -0.776797 2.83449 0
M  V30 2522 H 239.953 -0.331364 1.58983 0
M  V30 2523 H 241.95 -3.233 2.63216 0
M  V30 2524 H 240.61 -2.87358 1.5118 0
M  V30 2525 H 241.621 -1.51805 4.95152 0
M  V30 2526 H 238.298 -3.03678 2.86507 0
M  V30 2527 H 239.688 -1.41697 6.56789 0
M  V30 2528 N 242.408 -1.52605 -0.393616 0
M  V30 2529 C 243.633 -1.71592 -1.16495 0
M  V30 2530 C 244.058 -0.43133 -1.83088 0
M  V30 2531 O 243.416 0.612523 -1.7064 0
M  V30 2532 C 243.464 -2.86318 -2.19213 0
M  V30 2533 O 242.568 -2.52969 -3.257 0
M  V30 2534 H 241.909 -0.570734 -0.33935 0
M  V30 2535 H 244.439 -1.99377 -0.459324 0
M  V30 2536 H 244.449 -3.1168 -2.63286 0
M  V30 2537 H 243.124 -3.79511 -1.7013 0
M  V30 2538 H 241.701 -2.38332 -2.86797 0
M  V30 2539 N 243.887 0.651787 -1.4349 0
M  V30 2540 C 244.834 1.76462 -1.4876 0
M  V30 2541 C 245.804 1.62641 -0.337189 0
M  V30 2542 O 246.989 1.82864 -0.544544 0
M  V30 2543 C 244.129 3.14623 -1.41796 0
M  V30 2544 C 243.242 3.39568 -2.67053 0
M  V30 2545 C 242.377 4.67585 -2.52068 0
M  V30 2546 C 241.416 4.85639 -3.72587 0
M  V30 2547 N 240.553 6.04915 -3.56402 0
M  V30 2548 H 245.393 1.71293 -2.43849 0
M  V30 2549 H 242.93 0.835889 -1.21043 0
M  V30 2550 H 244.888 3.94496 -1.35753 0
M  V30 2551 H 243.518 3.18859 -0.50288 0
M  V30 2552 H 242.57 2.53783 -2.8337 0
M  V30 2553 H 243.882 3.48795 -3.56572 0
M  V30 2554 H 243.036 5.55586 -2.4374 0
M  V30 2555 H 241.775 4.60681 -1.60075 0
M  V30 2556 H 240.78 3.96073 -3.81321 0
M  V30 2557 H 242.005 4.94372 -4.65589 0
M  V30 2558 H 239.951 5.9914 -2.67146 0
M  V30 2559 H 239.868 6.15106 -4.39524 0
M  V30 2560 H 241.136 6.95533 -3.51929 0
M  V30 2561 N 245.365 1.30045 0.890287 0
M  V30 2562 C 246.613 1.18327 1.63839 0
M  V30 2563 C 246.934 -0.263455 1.93212 0
M  V30 2564 O 246.204 -1.17856 1.56482 0
M  V30 2565 H 244.784 0.434933 0.607324 0
M  V30 2566 H 247.446 1.631 1.06698 0
M  V30 2567 H 246.542 1.74024 2.59079 0
M  V30 2568 N 246.843 -1.10192 1.12674 0
M  V30 2569 C 248.071 -1.85983 0.906527 0
M  V30 2570 C 248.486 -1.80783 -0.544333 0
M  V30 2571 O 247.843 -1.19834 -1.37645 0
M  V30 2572 C 247.894 -3.34281 1.37618 0
M  V30 2573 O 247.615 -3.39401 2.77017 0
M  V30 2574 C 249.116 -4.26938 1.19325 0
M  V30 2575 H 246.336 -0.587716 0.323775 0
M  V30 2576 H 248.88 -1.39284 1.49734 0
M  V30 2577 H 247.035 -3.78436 0.828539 0
M  V30 2578 H 247.449 -4.31838 2.97684 0
M  V30 2579 H 248.923 -5.29181 1.57071 0
M  V30 2580 H 249.4 -4.38995 0.134097 0
M  V30 2581 H 250.006 -3.8859 1.72852 0
M  V30 2582 N 248.321 -0.919034 -1.28029 0
M  V30 2583 C 249.254 -0.355887 -2.25408 0
M  V30 2584 C 250.232 0.542874 -1.5327 0
M  V30 2585 O 251.416 0.485338 -1.82145 0
M  V30 2586 C 248.543 0.490759 -3.35126 0
M  V30 2587 C 247.589 -0.343358 -4.25116 0
M  V30 2588 S 248.422 -1.75344 -5.05979 0
M  V30 2589 C 249.578 -0.914244 -6.19187 0
M  V30 2590 H 249.811 -1.18123 -2.72826 0
M  V30 2591 H 247.344 -0.720636 -1.36551 0
M  V30 2592 H 249.302 0.973404 -3.98792 0
M  V30 2593 H 247.963 1.29054 -2.86363 0
M  V30 2594 H 247.156 0.304266 -5.03081 0
M  V30 2595 H 246.758 -0.759851 -3.662 0
M  V30 2596 H 249.05 -0.146282 -6.77342 0
M  V30 2597 H 249.993 -1.66661 -6.88208 0
M  V30 2598 H 250.401 -0.460082 -5.62622 0
M  V30 2599 N 249.799 1.42003 -0.683588 0
M  V30 2600 C 251.045 2.01712 -0.209825 0
M  V30 2601 C 251.378 1.53968 1.18353 0
M  V30 2602 O 250.653 0.745661 1.79639 0
M  V30 2603 C 250.936 3.59202 -0.254197 0
M  V30 2604 C 250.789 4.17102 -1.68363 0
M  V30 2605 C 252.108 4.38344 0.392709 0
M  V30 2606 H 249.227 0.732891 -0.0777189 0
M  V30 2607 H 251.869 1.68909 -0.87004 0
M  V30 2608 H 250.019 3.87278 0.307954 0
M  V30 2609 H 251.691 3.99946 -2.29871 0
M  V30 2610 H 249.934 3.72597 -2.22157 0
M  V30 2611 H 250.605 5.26249 -1.6663 0
M  V30 2612 H 253.081 4.16011 -0.0859162 0
M  V30 2613 H 251.957 5.47901 0.331063 0
M  V30 2614 H 252.218 4.16887 1.47164 0
M  V30 2615 N 251.277 0.427512 1.51691 0
M  V30 2616 C 252.505 -0.141191 2.06418 0
M  V30 2617 C 252.92 -1.37303 1.29589 0
M  V30 2618 O 252.277 -1.79059 0.352732 0
M  V30 2619 C 252.328 -0.473266 3.58389 0
M  V30 2620 O 252.049 0.709673 4.32314 0
M  V30 2621 C 253.55 -1.09371 4.29596 0
M  V30 2622 H 250.77 -0.0122747 0.670888 0
M  V30 2623 H 253.314 0.603764 1.95384 0
M  V30 2624 H 251.469 -1.16812 3.69369 0
M  V30 2625 H 251.883 0.42807 5.2275 0
M  V30 2626 H 253.357 -1.27613 5.37046 0
M  V30 2627 H 253.834 -2.072 3.87253 0
M  V30 2628 H 254.44 -0.43853 4.23033 0
M  V30 2629 N 252.755 -1.56801 0.158532 0
M  V30 2630 C 254.004 -1.95665 -0.489702 0
M  V30 2631 C 254.317 -1.04654 -1.65248 0
M  V30 2632 O 255.523 -1.33146 -2.3661 0
M  V30 2633 C 253.979 -3.47874 -0.922582 0
M  V30 2634 C 253.587 -4.47489 0.213893 0
M  V30 2635 C 255.331 -3.95583 -1.53996 0
M  V30 2636 C 253.238 -5.90921 -0.237903 0
M  V30 2637 H 252.168 -0.730516 -0.186716 0
M  V30 2638 H 254.819 -1.81861 0.244722 0
M  V30 2639 H 253.201 -3.57051 -1.71261 0
M  V30 2640 H 254.375 -4.50017 0.991036 0
M  V30 2641 H 252.69 -4.09764 0.740407 0
M  V30 2642 H 255.287 -5.0019 -1.8898 0
M  V30 2643 H 255.63 -3.37789 -2.43319 0
M  V30 2644 H 256.163 -3.8937 -0.814611 0
M  V30 2645 H 252.902 -6.52559 0.620236 0
M  V30 2646 H 252.422 -5.91729 -0.980676 0
M  V30 2647 H 254.101 -6.43352 -0.686067 0
M  V30 2648 N 254.233 0.115231 -1.57178 0
M  V30 2649 C 255.143 1.15994 -2.03918 0
M  V30 2650 C 256.159 1.45103 -0.960268 0
M  V30 2651 O 257.335 1.56144 -1.27204 0
M  V30 2652 C 254.4 2.46568 -2.43732 0
M  V30 2653 C 253.461 2.24822 -3.65723 0
M  V30 2654 C 252.694 3.4917 -4.03629 0
M  V30 2655 O 252.917 4.56623 -3.41835 0
M  V30 2656 O 251.851 3.39949 -4.96708 0
M  V30 2657 H 255.677 0.793019 -2.93164 0
M  V30 2658 H 253.262 0.3263 -1.45793 0
M  V30 2659 H 255.144 3.23492 -2.70057 0
M  V30 2660 H 253.819 2.82726 -1.57631 0
M  V30 2661 H 252.726 1.45744 -3.44542 0
M  V30 2662 H 254.059 1.93566 -4.52541 0
M  V30 2663 N 255.711 1.52812 0.385517 0
M  V30 2664 C 256.959 1.67694 1.12797 0
M  V30 2665 C 257.28 0.421115 1.90399 0
M  V30 2666 O 256.55 -0.564551 1.87589 0
M  V30 2667 H 255.13 0.618155 0.419396 0
M  V30 2668 H 257.792 1.89938 0.436972 0
M  V30 2669 H 256.888 2.52896 1.82894 0
M  V30 2670 N 257.189 -0.644168 1.43834 0
M  V30 2671 C 258.6 -1.22554 1.40845 0
M  V30 2672 C 258.951 -1.9585 0.117115 0
M  V30 2673 O 258.076 -2.01734 -0.783086 0
M  V30 2674 C 258.671 -2.22907 2.55143 0
M  V30 2675 C 257.23 -2.76501 2.5539 0
M  V30 2676 C 256.377 -1.51287 2.32396 0
M  V30 2677 H 259.328 -0.43563 1.52604 0
M  V30 2678 H 259.349 -3.05259 2.2715 0
M  V30 2679 H 258.861 -1.69533 3.49114 0
M  V30 2680 H 256.962 -3.33914 1.65324 0
M  V30 2681 H 257.075 -3.23429 3.53455 0
M  V30 2682 H 255.439 -1.78957 1.81236 0
M  V30 2683 H 256.222 -0.998336 3.28463 0
M  V30 2684 N 258.668 -1.30515 -0.883378 0
M  V30 2685 C 260.084 -1.08881 -1.16692 0
M  V30 2686 C 260.284 0.149409 -2.00945 0
M  V30 2687 O 259.34 0.84257 -2.38027 0
M  V30 2688 C 260.653 -2.35319 -1.87204 0
M  V30 2689 C 262.201 -2.40799 -1.99962 0
M  V30 2690 C 262.676 -3.67083 -2.73887 0
M  V30 2691 N 264.167 -3.679 -2.81432 0
M  V30 2692 C 264.902 -4.62303 -3.3921 0
M  V30 2693 N 264.398 -5.67052 -3.98025 0
M  V30 2694 N 266.191 -4.49845 -3.3704 0
M  V30 2695 H 258.342 -2.09951 -0.321633 0
M  V30 2696 H 260.605 -0.92556 -0.205043 0
M  V30 2697 H 260.311 -3.25689 -1.3274 0
M  V30 2698 H 260.185 -2.44089 -2.87577 0
M  V30 2699 H 262.572 -1.50907 -2.53597 0
M  V30 2700 H 262.653 -2.36003 -0.98673 0
M  V30 2701 H 262.297 -4.57334 -2.20925 0
M  V30 2702 H 262.227 -3.69141 -3.75556 0
M  V30 2703 H 264.718 -2.92171 -2.39676 0
M  V30 2704 H 265.031 -6.35184 -4.40183 0
M  V30 2705 H 263.376 -5.70842 -3.96439 0
M  V30 2706 H 266.567 -3.67194 -2.90321 0
M  V30 2707 H 266.74 -5.23597 -3.81772 0
M  V30 2708 N 260.146 1.09593 -1.13257 0
M  V30 2709 C 261.393 1.81734 -0.893257 0
M  V30 2710 C 261.721 1.8563 0.580656 0
M  V30 2711 O 260.976 1.31906 1.44566 0
M  V30 2712 C 261.275 3.27802 -1.42411 0
M  V30 2713 C 260.941 3.44041 -2.91456 0
M  V30 2714 C 259.603 3.48181 -3.3215 0
M  V30 2715 C 261.955 3.48719 -3.87356 0
M  V30 2716 C 259.283 3.54575 -4.67433 0
M  V30 2717 C 261.635 3.56648 -5.2248 0
M  V30 2718 C 260.299 3.59055 -5.62704 0
M  V30 2719 H 259.569 0.665011 -0.326866 0
M  V30 2720 H 262.216 1.2912 -1.41422 0
M  V30 2721 H 260.521 3.83042 -0.823795 0
M  V30 2722 H 262.218 3.82149 -1.21503 0
M  V30 2723 H 258.808 3.41502 -2.58987 0
M  V30 2724 H 262.992 3.44763 -3.57004 0
M  V30 2725 H 258.248 3.54725 -4.97976 0
M  V30 2726 H 262.422 3.59212 -5.96607 0
M  V30 2727 H 260.049 3.63763 -6.67518 0
M  V30 2728 N 261.624 0.925811 1.2754 0
M  V30 2729 C 262.849 0.580924 1.99098 0
M  V30 2730 C 263.274 -0.833555 1.68622 0
M  V30 2731 O 262.632 -1.55903 0.925422 0
M  V30 2732 C 262.68 0.811186 3.51358 0
M  V30 2733 O 261.784 -0.124129 4.12213 0
M  V30 2734 H 261.125 0.223873 0.625122 0
M  V30 2735 H 263.655 1.24455 1.62395 0
M  V30 2736 H 263.665 0.72601 4.01489 0
M  V30 2737 H 262.34 1.84227 3.72872 0
M  V30 2738 H 260.917 0.0108006 3.72898 0
M  V30 2739 N 263.102 -1.41638 0.69111 0
M  V30 2740 C 264.327 -2.06148 0.227583 0
M  V30 2741 C 264.752 -1.51652 -1.11281 0
M  V30 2742 O 264.11 -0.64164 -1.69566 0
M  V30 2743 C 264.158 -3.60095 0.190858 0
M  V30 2744 O 263.262 -4.03845 -0.835664 0
M  V30 2745 H 262.603 -0.654434 0.112306 0
M  V30 2746 H 265.133 -1.81484 0.944714 0
M  V30 2747 H 265.143 -4.07995 0.020207 0
M  V30 2748 H 263.818 -3.99129 1.16915 0
M  V30 2749 H 262.395 -3.67458 -0.63473 0
M  V30 2750 N 264.58 -0.43555 -1.51462 0
M  V30 2751 C 265.996 -0.0877501 -1.59359 0
M  V30 2752 C 266.196 1.4027 -1.4466 0
M  V30 2753 O 265.252 2.17243 -1.28693 0
M  V30 2754 C 266.565 -0.606264 -2.94525 0
M  V30 2755 C 268.113 -0.566548 -3.0783 0
M  V30 2756 C 268.588 -1.06201 -4.45517 0
M  V30 2757 N 270.079 -1.01992 -4.51832 0
M  V30 2758 C 270.814 -1.37417 -5.5669 0
M  V30 2759 N 270.31 -1.80119 -6.68976 0
M  V30 2760 N 272.103 -1.29245 -5.47039 0
M  V30 2761 H 264.254 -1.40533 -1.59261 0
M  V30 2762 H 266.517 -0.578992 -0.750648 0
M  V30 2763 H 266.223 -1.64901 -3.10645 0
M  V30 2764 H 266.097 -0.0302097 -3.77188 0
M  V30 2765 H 268.484 0.467208 -2.91378 0
M  V30 2766 H 268.565 -1.17898 -2.2701 0
M  V30 2767 H 268.209 -2.09422 -4.62715 0
M  V30 2768 H 268.139 -0.426127 -5.24873 0
M  V30 2769 H 270.63 -0.706308 -3.71241 0
M  V30 2770 H 270.943 -2.05392 -7.45006 0
M  V30 2771 H 269.288 -1.84044 -6.70189 0
M  V30 2772 H 272.479 -0.957522 -4.58202 0
M  V30 2773 H 272.652 -1.57182 -6.28648 0
M  V30 2774 N 266.058 1.56714 -0.166846 0
M  V30 2775 C 267.021 2.16539 0.751232 0
M  V30 2776 C 268.021 1.11228 1.16125 0
M  V30 2777 O 269.211 1.36765 1.07894 0
M  V30 2778 C 266.343 2.74462 2.02196 0
M  V30 2779 H 267.536 2.99013 0.230499 0
M  V30 2780 H 265.089 1.56081 0.0826982 0
M  V30 2781 H 265.824 1.95709 2.58589 0
M  V30 2782 H 265.609 3.51527 1.73698 0
M  V30 2783 H 267.099 3.20489 2.67725 0
M  V30 2784 N 267.536 -0.106894 1.57237 0
M  V30 2785 C 268.446 -1.14911 2.0453 0
M  V30 2786 C 269.462 -1.44592 0.96795 0
M  V30 2787 O 270.638 -1.55468 1.2803 0
M  V30 2788 C 267.703 -2.45272 2.45036 0
M  V30 2789 C 266.764 -2.22879 3.66911 0
M  V30 2790 C 265.997 -3.47024 4.05475 0
M  V30 2791 O 266.22 -4.54804 3.44252 0
M  V30 2792 O 265.154 -3.3731 4.98504 0
M  V30 2793 H 268.98 -0.777461 2.9358 0
M  V30 2794 H 266.565 -0.318563 1.45964 0
M  V30 2795 H 268.447 -3.22055 2.71769 0
M  V30 2796 H 267.122 -2.81886 1.59129 0
M  V30 2797 H 266.029 -1.43915 3.45311 0
M  V30 2798 H 267.362 -1.91163 4.53561 0
M  V30 2799 N 269.014 -1.53014 -0.377408 0
M  V30 2800 C 270.239 -1.72818 -1.14668 0
M  V30 2801 C 270.664 -0.450725 -1.8262 0
M  V30 2802 O 270.022 0.59439 -1.7128 0
M  V30 2803 C 270.07 -2.88627 -2.16164 0
M  V30 2804 O 269.174 -2.56409 -3.22998 0
M  V30 2805 H 268.515 -0.574301 -0.333278 0
M  V30 2806 H 271.045 -1.99853 -0.438152 0
M  V30 2807 H 271.055 -3.14455 -2.59966 0
M  V30 2808 H 269.73 -3.81294 -1.66095 0
M  V30 2809 H 268.307 -2.4136 -2.84253 0
M  V30 2810 N 270.492 0.636531 -1.44174 0
M  V30 2811 C 271.739 1.39619 -1.46672 0
M  V30 2812 C 272.067 1.94257 -0.0972691 0
M  V30 2813 O 271.322 1.73768 0.900175 0
M  V30 2814 C 271.621 2.58309 -2.47005 0
M  V30 2815 C 271.287 2.21992 -3.92467 0
M  V30 2816 C 269.949 2.118 -4.32081 0
M  V30 2817 C 272.301 1.9321 -4.84065 0
M  V30 2818 C 269.629 1.71007 -5.61225 0
M  V30 2819 C 271.981 1.53911 -6.13591 0
M  V30 2820 C 270.645 1.42257 -6.52165 0
M  V30 2821 H 269.915 0.510902 -0.536712 0
M  V30 2822 H 272.562 0.722328 -1.77355 0
M  V30 2823 H 270.867 3.30903 -2.09786 0
M  V30 2824 H 272.564 3.16533 -2.46186 0
M  V30 2825 H 269.154 2.30841 -3.61124 0
M  V30 2826 H 273.338 1.99997 -4.54219 0
M  V30 2827 H 268.594 1.60583 -5.89935 0
M  V30 2828 H 272.768 1.30677 -6.8403 0
M  V30 2829 H 270.395 1.10419 -7.52138 0
M  V30 2830 N 271.97 1.30982 0.876444 0
M  V30 2831 C 272.903 1.12414 1.98591 0
M  V30 2832 C 273.881 0.0294078 1.62573 0
M  V30 2833 O 275.065 0.184598 1.87594 0
M  V30 2834 C 272.192 0.716276 3.3104 0
M  V30 2835 C 271.238 1.81311 3.86042 0
M  V30 2836 S 272.071 3.41727 4.1229 0
M  V30 2837 C 273.227 3.02863 5.47745 0
M  V30 2838 H 273.46 2.06338 2.14037 0
M  V30 2839 H 270.993 1.15393 1.02586 0
M  V30 2840 H 272.951 0.487697 4.07593 0
M  V30 2841 H 271.612 -0.203749 3.13438 0
M  V30 2842 H 270.805 1.48021 4.81774 0
M  V30 2843 H 270.407 1.99641 3.16259 0
M  V30 2844 H 272.699 2.51353 6.29148 0
M  V30 2845 H 273.642 3.97533 5.8598 0
M  V30 2846 H 274.05 2.40487 5.10711 0
M  V30 2847 N 273.449 -1.08991 1.13837 0
M  V30 2848 C 274.696 -1.81258 0.902882 0
M  V30 2849 C 275.024 -1.85936 -0.570803 0
M  V30 2850 O 274.279 -1.3267 -1.43865 0
M  V30 2851 C 274.578 -3.27042 1.44147 0
M  V30 2852 C 274.244 -3.4249 2.93276 0
M  V30 2853 C 272.906 -3.46414 3.33992 0
M  V30 2854 C 275.258 -3.4666 3.892 0
M  V30 2855 C 272.586 -3.52091 4.69307 0
M  V30 2856 C 274.938 -3.53872 5.24364 0
M  V30 2857 C 273.602 -3.56066 5.646 0
M  V30 2858 H 272.872 -0.663268 0.330388 0
M  V30 2859 H 275.519 -1.28368 1.42105 0
M  V30 2860 H 273.824 -3.82599 0.844097 0
M  V30 2861 H 275.521 -3.81499 1.23528 0
M  V30 2862 H 272.111 -3.40124 2.60794 0
M  V30 2863 H 276.295 -3.42865 3.58828 0
M  V30 2864 H 271.551 -3.52079 4.9985 0
M  V30 2865 H 275.725 -3.56043 5.98503 0
M  V30 2866 H 273.352 -3.60218 6.69438 0
M  V30 2867 N 274.927 -0.932562 -1.27047 0
M  V30 2868 C 276.343 -0.633544 -1.46487 0
M  V30 2869 C 276.543 0.815746 -1.84249 0
M  V30 2870 O 275.599 1.59319 -1.95892 0
M  V30 2871 C 276.912 -1.58758 -2.55375 0
M  V30 2872 C 278.46 -1.59634 -2.69232 0
M  V30 2873 C 278.935 -2.53747 -3.81283 0
M  V30 2874 N 280.426 -2.51982 -3.88664 0
M  V30 2875 C 281.161 -3.21491 -4.74796 0
M  V30 2876 N 280.657 -4.00395 -5.65381 0
M  V30 2877 N 282.45 -3.10485 -4.68568 0
M  V30 2878 H 274.601 -1.86946 -1.00821 0
M  V30 2879 H 276.864 -0.802897 -0.504044 0
M  V30 2880 H 276.57 -2.62172 -2.34432 0
M  V30 2881 H 276.444 -1.33301 -3.52861 0
M  V30 2882 H 278.831 -0.569488 -2.89553 0
M  V30 2883 H 278.912 -1.89142 -1.72218 0
M  V30 2884 H 278.556 -3.56545 -3.61715 0
M  V30 2885 H 278.486 -2.21532 -4.77735 0
M  V30 2886 H 280.977 -1.94681 -3.23895 0
M  V30 2887 H 281.29 -4.50406 -6.27976 0
M  V30 2888 H 279.635 -4.04498 -5.65161 0
M  V30 2889 H 282.826 -2.48331 -3.96799 0
M  V30 2890 H 282.999 -3.64925 -5.35475 0
M  V30 2891 N 276.405 1.4127 -0.698611 0
M  V30 2892 C 277.633 2.05503 -0.239992 0
M  V30 2893 C 278.048 1.52584 1.11191 0
M  V30 2894 O 277.405 0.675323 1.69545 0
M  V30 2895 C 277.456 3.60987 -0.192429 0
M  V30 2896 O 277.177 4.1195 -1.49094 0
M  V30 2897 C 278.678 4.42371 0.28681 0
M  V30 2898 H 275.898 0.661748 -0.111045 0
M  V30 2899 H 278.442 1.80987 -0.95205 0
M  V30 2900 H 276.597 3.84533 0.470472 0
M  V30 2901 H 277.011 5.06018 -1.38007 0
M  V30 2902 H 278.485 5.51344 0.26896 0
M  V30 2903 H 278.962 4.18699 1.32619 0
M  V30 2904 H 279.568 4.23897 -0.345201 0
M  V30 2905 N 277.883 0.443576 1.51229 0
M  V30 2906 C 279.129 -0.11321 2.03085 0
M  V30 2907 C 279.484 -1.39841 1.32145 0
M  V30 2908 O 278.777 -1.86723 0.429542 0
M  V30 2909 C 278.971 -0.380579 3.55368 0
M  V30 2910 C 278.8 0.877157 4.41062 0
M  V30 2911 C 277.57 1.4125 4.85156 0
M  V30 2912 C 279.768 1.76503 4.83064 0
M  V30 2913 N 277.75 2.62213 5.55083 0
M  V30 2914 C 279.121 2.82067 5.52122 0
M  V30 2915 C 281.176 1.7787 4.65045 0
M  V30 2916 C 279.879 3.88952 6.05069 0
M  V30 2917 C 281.905 2.83694 5.18914 0
M  V30 2918 C 281.267 3.87978 5.87922 0
M  V30 2919 H 277.366 -0.00210178 0.781997 0
M  V30 2920 H 279.95 0.605641 1.85041 0
M  V30 2921 H 278.121 -1.06847 3.73414 0
M  V30 2922 H 279.853 -0.929274 3.93887 0
M  V30 2923 H 276.608 0.965542 4.63653 0
M  V30 2924 H 277.032 3.23568 5.9467 0
M  V30 2925 H 281.674 0.985744 4.11148 0
M  V30 2926 H 279.392 4.69082 6.58018 0
M  V30 2927 H 282.978 2.85702 5.06819 0
M  V30 2928 H 281.858 4.68517 6.28857 0
M  V30 2929 N 279.361 -1.56624 0.175154 0
M  V30 2930 C 280.609 -1.96609 -0.467885 0
M  V30 2931 C 280.93 -1.06238 -1.63519 0
M  V30 2932 O 280.2 -0.129523 -1.95471 0
M  V30 2933 H 278.78 -0.726008 -0.175845 0
M  V30 2934 H 281.442 -1.93195 0.257234 0
M  V30 2935 H 280.538 -3.00989 -0.825342 0
M  V30 2936 N 280.839 0.0985539 -1.57292 0
M  V30 2937 C 281.802 1.10402 -2.00858 0
M  V30 2938 C 282.802 1.33146 -0.901593 0
M  V30 2939 O 283.992 1.29318 -1.16716 0
M  V30 2940 C 281.124 2.45394 -2.36632 0
M  V30 2941 H 282.317 0.729099 -2.90902 0
M  V30 2942 H 279.87 0.343495 -1.52479 0
M  V30 2943 H 280.605 2.87769 -1.49531 0
M  V30 2944 H 280.39 2.30235 -3.17387 0
M  V30 2945 H 281.88 3.17718 -2.71007 0
M  V30 2946 N 282.317 1.53212 0.369288 0
M  V30 2947 C 283.594 1.59815 1.12776 0
M  V30 2948 C 283.974 0.403402 2.0721 0
M  V30 2949 O 283.322 -0.606667 2.20299 0
M  V30 2950 C 283.532 2.94664 1.87013 0
M  V30 2951 C 284.88 3.49109 2.41677 0
M  V30 2952 O 285.904 2.96669 1.97144 0
M  V30 2953 O 284.763 4.40775 3.23079 0
M  V30 2954 H 281.857 0.645376 0.517125 0
M  V30 2955 H 284.403 1.65553 0.37285 0
M  V30 2956 H 283.175 3.73061 1.18071 0
M  V30 2957 H 282.798 2.92401 2.69421 0
M  V30 2958 N 283.795 -0.628877 1.44509 0
M  V30 2959 C 285.041 -1.39045 1.47629 0
M  V30 2960 C 285.374 -1.93892 0.109343 0
M  V30 2961 O 284.649 -1.7379 -0.87334 0
M  V30 2962 C 284.932 -2.55408 2.53848 0
M  V30 2963 C 284.785 -2.05896 3.99909 0
M  V30 2964 C 286.104 -3.5759 2.56549 0
M  V30 2965 H 283.223 -0.504232 0.537512 0
M  V30 2966 H 285.865 -0.710854 1.76201 0
M  V30 2967 H 284.015 -3.13384 2.29615 0
M  V30 2968 H 285.687 -1.52734 4.35282 0
M  V30 2969 H 283.93 -1.37061 4.11578 0
M  V30 2970 H 284.601 -2.89681 4.69882 0
M  V30 2971 H 287.077 -3.09419 2.78207 0
M  V30 2972 H 285.953 -4.36527 3.32769 0
M  V30 2973 H 286.214 -4.11808 1.60832 0
M  V30 2974 N 285.273 -1.31445 -0.869486 0
M  V30 2975 C 286.522 -1.20517 -1.61736 0
M  V30 2976 C 286.835 0.235341 -1.94179 0
M  V30 2977 O 288.041 0.466312 -2.67465 0
M  V30 2978 C 286.497 -2.10982 -2.91573 0
M  V30 2979 C 286.105 -3.60032 -2.66611 0
M  V30 2980 C 287.849 -2.08856 -3.69567 0
M  V30 2981 C 285.756 -4.42503 -3.92358 0
M  V30 2982 H 284.686 -0.447493 -0.606849 0
M  V30 2983 H 287.337 -1.56303 -0.96133 0
M  V30 2984 H 285.719 -1.68095 -3.58553 0
M  V30 2985 H 286.893 -4.11167 -2.08035 0
M  V30 2986 H 285.208 -3.64139 -2.0197 0
M  V30 2987 H 287.805 -2.67716 -4.62852 0
M  V30 2988 H 288.148 -1.07582 -4.02159 0
M  V30 2989 H 288.681 -2.49945 -3.09471 0
M  V30 2990 H 285.42 -5.44533 -3.64916 0
M  V30 2991 H 284.94 -3.96125 -4.50383 0
M  V30 2992 H 286.619 -4.54741 -4.60238 0
M  V30 2993 N 286.751 1.08385 -1.14413 0
M  V30 2994 C 287.699 2.17406 -0.826888 0
M  V30 2995 C 288.693 1.6827 0.195312 0
M  V30 2996 O 289.899 1.79927 0.0513892 0
M  V30 2997 H 286.274 0.70934 -0.249681 0
M  V30 2998 H 288.245 2.41388 -1.75426 0
M  V30 2999 C 286.994 3.46215 -0.320979 0
M  V30 3000 H 286.317 3.84401 -1.0989 0
M  V30 3001 H 287.757 4.23777 -0.137549 0
M  V30 3002 C 286.216 3.23067 0.955472 0
M  V30 3003 O 286.746 3.4668 2.02918 0
M  V30 3004 N 284.952 2.7661 0.890798 0
M  V30 3005 H 284.499 2.57594 0.0168815 0
M  V30 3006 H 284.457 2.61501 1.74542 0
M  V30 3007 N 288.23 0.939286 1.26551 0
M  V30 3008 C 289.163 0.391702 2.24813 0
M  V30 3009 C 290.141 -0.518421 1.54114 0
M  V30 3010 O 291.325 -0.456299 1.82894 0
M  V30 3011 C 288.452 -0.437382 3.35864 0
M  V30 3012 C 287.498 0.410946 4.24516 0
M  V30 3013 S 288.331 1.83372 5.03125 0
M  V30 3014 C 289.487 1.01264 6.17654 0
M  V30 3015 H 289.72 1.22448 2.70913 0
M  V30 3016 H 287.253 0.742269 1.35387 0
M  V30 3017 H 289.211 -0.909837 4.0029 0
M  V30 3018 H 287.872 -1.24482 2.8838 0
M  V30 3019 H 287.065 -0.224191 5.03501 0
M  V30 3020 H 286.667 0.818014 3.64945 0
M  V30 3021 H 288.959 0.254023 6.77024 0
M  V30 3022 H 289.902 1.77589 6.85469 0
M  V30 3023 H 290.31 0.549532 5.61819 0
M  V30 3024 N 289.708 -1.40897 0.706093 0
M  V30 3025 C 290.936 -2.05373 0.250887 0
M  V30 3026 C 291.351 -1.53172 -1.10381 0
M  V30 3027 O 290.708 -0.684305 -1.69185 0
M  V30 3028 C 290.759 -3.6088 0.211571 0
M  V30 3029 O 290.48 -4.11153 1.51276 0
M  V30 3030 C 291.981 -4.42517 -0.263346 0
M  V30 3031 H 289.201 -0.66115 0.114552 0
M  V30 3032 H 291.745 -1.80479 0.961635 0
M  V30 3033 H 289.9 -3.84777 -0.450073 0
M  V30 3034 H 290.314 -5.05279 1.40689 0
M  V30 3035 H 291.788 -5.51479 -0.239718 0
M  V30 3036 H 292.265 -4.19396 -1.30397 0
M  V30 3037 H 292.871 -4.23708 0.367677 0
M  V30 3038 N 291.186 -0.45159 -1.50991 0
M  V30 3039 C 292.414 0.108334 -2.06616 0
M  V30 3040 C 292.829 1.35224 -1.31757 0
M  V30 3041 O 292.186 1.78475 -0.381174 0
M  V30 3042 C 292.237 0.41619 -3.59096 0
M  V30 3043 O 291.958 -0.778361 -4.3113 0
M  V30 3044 C 293.459 1.02523 -4.31282 0
M  V30 3045 H 290.679 0.00159995 -0.670998 0
M  V30 3046 H 293.223 -0.634771 -1.94399 0
M  V30 3047 H 291.378 1.10921 -3.71181 0
M  V30 3048 H 291.792 -0.511181 -5.22003 0
M  V30 3049 H 293.266 1.19053 -5.39009 0
M  V30 3050 H 293.743 2.01013 -3.905 0
M  V30 3051 H 294.349 0.371173 -4.23677 0
M  V30 3052 N 292.664 1.56529 -0.183458 0
M  V30 3053 C 293.91 1.97537 0.459036 0
M  V30 3054 C 294.243 1.06989 1.62071 0
M  V30 3055 O 293.518 0.11948 1.94133 0
M  V30 3056 C 293.801 3.47874 0.930368 0
M  V30 3057 C 293.654 4.492 -0.232317 0
M  V30 3058 C 294.973 4.01612 1.79989 0
M  V30 3059 H 292.092 0.718204 0.165383 0
M  V30 3060 H 294.734 1.88042 -0.272038 0
M  V30 3061 H 292.884 3.56095 1.55333 0
M  V30 3062 H 294.556 4.53027 -0.86972 0
M  V30 3063 H 292.799 4.24657 -0.885928 0
M  V30 3064 H 293.47 5.51823 0.139796 0
M  V30 3065 H 295.946 3.96097 1.27461 0
M  V30 3066 H 294.822 5.07195 2.09867 0
M  V30 3067 H 295.083 3.46163 2.74998 0
M  V30 3068 N 294.142 -0.090211 1.57342 0
M  V30 3069 C 295.553 -0.644173 1.75235 0
M  V30 3070 C 295.904 -1.78865 0.806335 0
M  V30 3071 O 295.029 -2.16395 -0.0140128 0
M  V30 3072 C 295.624 -1.17532 3.1776 0
M  V30 3073 C 294.183 -1.67531 3.37061 0
M  V30 3074 C 293.33 -0.58693 2.71017 0
M  V30 3075 H 296.281 0.135884 1.58117 0
M  V30 3076 H 296.302 -2.04455 3.20902 0
M  V30 3077 H 295.814 -0.342138 3.86589 0
M  V30 3078 H 293.915 -2.53234 2.73319 0
M  V30 3079 H 294.028 -1.76493 4.45406 0
M  V30 3080 H 292.392 -1.02756 2.33052 0
M  V30 3081 H 293.175 0.235758 3.4249 0
M  V30 3082 N 295.62 -1.53406 -0.361157 0
M  V30 3083 C 296.53 -1.83122 -1.4664 0
M  V30 3084 C 297.546 -0.719943 -1.58407 0
M  V30 3085 O 298.722 -1.01046 -1.74218 0
M  V30 3086 C 295.787 -2.01891 -2.81853 0
M  V30 3087 C 294.848 -3.25784 -2.79577 0
M  V30 3088 C 294.081 -3.43648 -4.0834 0
M  V30 3089 O 294.304 -2.65714 -5.0473 0
M  V30 3090 O 293.238 -4.37018 -4.13883 0
M  V30 3091 H 297.064 -2.7703 -1.24451 0
M  V30 3092 H 294.649 -1.38841 -0.551678 0
M  V30 3093 H 296.531 -2.15782 -3.61962 0
M  V30 3094 H 295.206 -1.11173 -3.0401 0
M  V30 3095 H 294.113 -3.17312 -1.98151 0
M  V30 3096 H 295.446 -4.16439 -2.62373 0
M  V30 3097 N 297.098 0.621204 -1.44841 0
M  V30 3098 C 298.344 1.3826 -1.48365 0
M  V30 3099 C 298.677 1.93831 -0.119624 0
M  V30 3100 O 297.952 1.74251 0.864111 0
M  V30 3101 C 298.235 2.54058 -2.55199 0
M  V30 3102 C 298.088 2.03772 -4.00995 0
M  V30 3103 C 299.407 3.56225 -2.58442 0
M  V30 3104 H 296.526 0.501374 -0.540179 0
M  V30 3105 H 299.168 0.7015 -1.76576 0
M  V30 3106 H 297.318 3.12162 -2.31274 0
M  V30 3107 H 298.99 1.50423 -4.36086 0
M  V30 3108 H 297.233 1.34876 -4.12299 0
M  V30 3109 H 297.904 2.87185 -4.71411 0
M  V30 3110 H 300.38 3.07939 -2.79844 0
M  V30 3111 H 299.256 4.34756 -3.3508 0
M  V30 3112 H 299.517 4.10949 -1.63013 0
M  V30 3113 N 298.576 1.31904 0.862503 0
M  V30 3114 C 299.822 1.22197 1.61851 0
M  V30 3115 C 300.155 -0.217641 1.92977 0
M  V30 3116 O 299.43 -1.15264 1.56666 0
M  V30 3117 C 299.713 2.07378 2.94391 0
M  V30 3118 C 299.566 3.59678 2.70096 0
M  V30 3119 C 300.885 1.92891 3.95577 0
M  V30 3120 H 298.004 0.445255 0.587296 0
M  V30 3121 H 300.646 1.6177 0.99651 0
M  V30 3122 H 298.796 1.73758 3.47477 0
M  V30 3123 H 300.468 4.03472 2.23625 0
M  V30 3124 H 298.711 3.82735 2.04197 0
M  V30 3125 H 299.382 4.14595 3.64438 0
M  V30 3126 H 301.858 2.22327 3.51724 0
M  V30 3127 H 300.734 2.54781 4.86187 0
M  V30 3128 H 300.995 0.894315 4.3296 0
M  V30 3129 N 300.054 -1.07777 1.14986 0
M  V30 3130 C 300.984 -2.16865 0.865557 0
M  V30 3131 C 301.965 -1.69123 -0.182083 0
M  V30 3132 O 303.15 -1.94164 -0.0373815 0
M  V30 3133 C 300.28 -3.45539 0.349313 0
M  V30 3134 C 299.234 -4.06708 1.33313 0
M  V30 3135 C 298.56 -5.30411 0.675918 0
M  V30 3136 C 299.86 -4.47241 2.69764 0
M  V30 3137 H 301.554 -2.40905 1.77778 0
M  V30 3138 H 299.1 -1.15781 0.856203 0
M  V30 3139 H 301.053 -4.21174 0.137983 0
M  V30 3140 H 299.777 -3.21072 -0.598362 0
M  V30 3141 H 298.436 -3.33112 1.53075 0
M  V30 3142 H 298.084 -5.02232 -0.277767 0
M  V30 3143 H 297.784 -5.72293 1.33244 0
M  V30 3144 H 299.308 -6.08755 0.474262 0
M  V30 3145 H 300.722 -5.14025 2.53873 0
M  V30 3146 H 299.119 -5.00062 3.3175 0
M  V30 3147 H 300.189 -3.58818 3.26156 0
M  V30 3148 N 301.532 -0.945985 -1.26051 0
M  V30 3149 C 302.495 -0.463897 -2.24456 0
M  V30 3150 C 303.495 0.427655 -1.55009 0
M  V30 3151 O 304.685 0.226157 -1.72726 0
M  V30 3152 C 301.817 0.330812 -3.39291 0
M  V30 3153 H 303.01 -1.33357 -2.68619 0
M  V30 3154 H 300.563 -0.728416 -1.38289 0
M  V30 3155 H 301.298 1.21852 -3.00537 0
M  V30 3156 H 301.083 -0.308679 -3.90883 0
M  V30 3157 H 302.573 0.657865 -4.12386 0
M  V30 3158 N 303.011 1.40521 -0.713556 0
M  V30 3159 C 303.958 2.30723 -0.059684 0
M  V30 3160 C 304.928 1.48079 0.752448 0
M  V30 3161 O 306.113 1.76823 0.71681 0
M  V30 3162 C 303.253 3.34274 0.857594 0
M  V30 3163 C 302.366 4.31986 0.0351536 0
M  V30 3164 C 301.501 5.22605 0.951724 0
M  V30 3165 C 300.54 6.11976 0.123253 0
M  V30 3166 N 299.677 6.9502 0.99459 0
M  V30 3167 H 304.517 2.86074 -0.834596 0
M  V30 3168 H 302.054 1.40879 -0.42326 0
M  V30 3169 H 304.012 3.92879 1.40364 0
M  V30 3170 H 302.642 2.8043 1.59871 0
M  V30 3171 H 301.694 3.7518 -0.628052 0
M  V30 3172 H 303.006 4.95101 -0.606347 0
M  V30 3173 H 302.16 5.86131 1.56638 0
M  V30 3174 H 300.899 4.59759 1.62705 0
M  V30 3175 H 299.904 5.47482 -0.50435 0
M  V30 3176 H 301.129 6.76881 -0.548539 0
M  V30 3177 H 299.075 6.34764 1.6556 0
M  V30 3178 H 298.992 7.54892 0.40908 0
M  V30 3179 H 300.26 7.62997 1.59549 0
M  V30 3180 N 304.489 0.459591 1.5075 0
M  V30 3181 C 305.399 -0.34613 2.32033 0
M  V30 3182 C 306.415 -1.00686 1.41909 0
M  V30 3183 O 307.591 -0.997361 1.7497 0
M  V30 3184 C 304.656 -1.42029 3.16273 0
M  V30 3185 C 303.717 -0.777362 4.22203 0
M  V30 3186 C 302.95 -1.80034 5.02418 0
M  V30 3187 O 303.173 -3.02544 4.83553 0
M  V30 3188 O 302.107 -1.37853 5.85901 0
M  V30 3189 H 305.933 0.318054 3.0203 0
M  V30 3190 H 303.518 0.221663 1.47746 0
M  V30 3191 H 305.4 -2.04275 3.68578 0
M  V30 3192 H 304.075 -2.06815 2.49016 0
M  V30 3193 H 302.982 -0.116256 3.73919 0
M  V30 3194 H 304.315 -0.172634 4.91897 0
M  V30 3195 N 305.967 -1.56429 0.191757 0
M  V30 3196 C 306.93 -2.17707 -0.716688 0
M  V30 3197 C 307.93 -1.13061 -1.14341 0
M  V30 3198 O 309.12 -1.38464 -1.05704 0
M  V30 3199 C 306.252 -2.77644 -1.97804 0
M  V30 3200 H 307.445 -2.99342 -0.1829 0
M  V30 3201 H 304.998 -1.56193 -0.0578566 0
M  V30 3202 H 305.733 -1.99799 -2.55443 0
M  V30 3203 H 305.518 -3.54246 -1.68083 0
M  V30 3204 H 307.008 -3.24708 -2.62592 0
M  V30 3205 N 307.445 0.0818655 -1.57387 0
M  V30 3206 C 308.693 0.781368 -1.86384 0
M  V30 3207 C 309.014 1.78618 -0.782342 0
M  V30 3208 O 308.284 1.94976 0.190061 0
M  V30 3209 H 306.864 0.291562 -0.687751 0
M  V30 3210 H 309.526 0.060348 -1.94807 0
M  V30 3211 H 308.622 1.3038 -2.83562 0
M  V30 3212 N 308.923 1.53595 0.353017 0
M  V30 3213 C 310.172 1.69603 1.09168 0
M  V30 3214 C 310.485 0.460925 1.90092 0
M  V30 3215 O 311.691 0.501774 2.66823 0
M  V30 3216 C 310.147 2.99872 1.9901 0
M  V30 3217 C 309.755 4.30687 1.23339 0
M  V30 3218 C 311.499 3.25246 2.72792 0
M  V30 3219 C 309.406 5.52036 2.12156 0
M  V30 3220 H 308.336 0.631966 0.411261 0
M  V30 3221 H 310.987 1.80096 0.351802 0
M  V30 3222 H 309.369 2.83212 2.7678 0
M  V30 3223 H 310.543 4.58019 0.505456 0
M  V30 3224 H 308.858 4.11853 0.613663 0
M  V30 3225 H 311.455 4.13095 3.39495 0
M  V30 3226 H 311.798 2.41846 3.38846 0
M  V30 3227 H 312.331 3.42638 2.021 0
M  V30 3228 H 309.07 6.37951 1.50659 0
M  V30 3229 H 308.59 5.28966 2.82764 0
M  V30 3230 H 310.269 5.87313 2.71427 0
M  V30 3231 N 310.401 -0.613514 1.45168 0
M  V30 3232 C 311.641 -1.38405 1.5041 0
M  V30 3233 C 312.005 -1.91489 0.139922 0
M  V30 3234 O 313.206 -2.68716 0.067033 0
M  V30 3235 C 311.477 -2.50552 2.5487 0
M  V30 3236 S 313.036 -3.38439 2.79292 0
M  V30 3237 H 309.854 -0.471945 0.531779 0
M  V30 3238 H 312.456 -0.708518 1.82209 0
M  V30 3239 H 311.16 -2.09894 3.52665 0
M  V30 3240 H 310.691 -3.22913 2.24701 0
M  V30 3241 H 312.706 -4.48527 2.12222 0
M  V30 3242 N 311.879 -1.3236 -0.855495 0
M  V30 3243 C 313.109 -1.25688 -1.6397 0
M  V30 3244 C 313.517 0.177592 -1.88365 0
M  V30 3245 O 312.86 1.12485 -1.45234 0
M  V30 3246 C 312.922 -1.94602 -3.02275 0
M  V30 3247 C 312.586 -3.43937 -3.00926 0
M  V30 3248 C 313.583 -4.39435 -2.77835 0
M  V30 3249 C 311.268 -3.85858 -3.21588 0
M  V30 3250 C 313.262 -5.74829 -2.75409 0
M  V30 3251 C 310.949 -5.21361 -3.18789 0
M  V30 3252 C 311.947 -6.15658 -2.95727 0
M  V30 3253 O 311.635 -7.48681 -2.928 0
M  V30 3254 H 311.367 -0.434972 -0.51747 0
M  V30 3255 H 313.921 -1.75023 -1.075 0
M  V30 3256 H 312.151 -1.39836 -3.60531 0
M  V30 3257 H 313.84 -1.81651 -3.62985 0
M  V30 3258 H 314.606 -4.08374 -2.6164 0
M  V30 3259 H 310.485 -3.12883 -3.38564 0
M  V30 3260 H 314.029 -6.48404 -2.57328 0
M  V30 3261 H 309.926 -5.52052 -3.34528 0
M  V30 3262 H 310.694 -7.5803 -3.0876 0
M  V30 3263 N 313.357 1.07166 -1.15556 0
M  V30 3264 C 314.32 2.12589 -0.856644 0
M  V30 3265 C 315.32 1.6015 0.14444 0
M  V30 3266 O 316.51 1.7399 -0.0854163 0
M  V30 3267 C 313.642 3.39753 -0.279405 0
M  V30 3268 H 314.835 2.40539 -1.79112 0
M  V30 3269 H 312.388 1.23086 -0.963298 0
M  V30 3270 H 313.123 3.17447 0.663174 0
M  V30 3271 H 312.908 3.79117 -1.00063 0
M  V30 3272 H 314.398 4.17507 -0.0879113 0
M  V30 3273 N 314.835 0.952656 1.25548 0
M  V30 3274 C 316.06 0.623025 1.97821 0
M  V30 3275 C 316.485 -0.7976 1.70352 0
M  V30 3276 O 315.843 -1.53905 0.958283 0
M  V30 3277 C 315.891 0.885532 3.49558 0
M  V30 3278 O 314.995 -0.0366641 4.12384 0
M  V30 3279 H 314.336 0.237082 0.620232 0
M  V30 3280 H 316.866 1.27871 1.59719 0
M  V30 3281 H 316.876 0.811009 3.99858 0
M  V30 3282 H 315.551 1.92094 3.6888 0
M  V30 3283 H 314.128 0.0898954 3.72792 0
M  V30 3284 N 316.313 -1.40141 0.720998 0
M  V30 3285 C 317.562 -2.0002 0.259804 0
M  V30 3286 C 317.875 -1.57839 -1.15526 0
M  V30 3287 O 319.081 -2.10455 -1.71525 0
M  V30 3288 C 317.537 -3.57516 0.413566 0
M  V30 3289 C 317.145 -4.08667 1.83562 0
M  V30 3290 C 318.889 -4.24498 0.0134387 0
M  V30 3291 C 316.796 -5.58686 1.93968 0
M  V30 3292 H 315.726 -0.748195 0.0933806 0
M  V30 3293 H 318.377 -1.60313 0.892866 0
M  V30 3294 H 316.759 -3.9495 -0.288169 0
M  V30 3295 H 317.933 -3.82598 2.56817 0
M  V30 3296 H 316.248 -3.543 2.1877 0
M  V30 3297 H 318.845 -5.34654 0.0703954 0
M  V30 3298 H 319.188 -4.03375 -1.02927 0
M  V30 3299 H 319.721 -3.92188 0.665815 0
M  V30 3300 H 316.46 -5.8467 2.96379 0
M  V30 3301 H 315.98 -5.86602 1.25131 0
M  V30 3302 H 317.659 -6.23875 1.71431 0
M  V30 3303 N 317.792 -0.46758 -1.50504 0
M  V30 3304 C 318.755 0.317059 -2.26996 0
M  V30 3305 C 319.755 0.923513 -1.31635 0
M  V30 3306 O 320.945 0.793239 -1.55091 0
M  V30 3307 C 318.077 1.45134 -3.08462 0
M  V30 3308 H 319.27 -0.353723 -2.97807 0
M  V30 3309 H 316.823 -0.221545 -1.54722 0
M  V30 3310 H 317.558 2.15728 -2.4214 0
M  V30 3311 H 317.343 1.02232 -3.78538 0
M  V30 3312 H 318.833 2.00493 -3.66323 0
M  V30 3313 N 319.27 1.56325 -0.20005 0
M  V30 3314 C 320.203 2.15234 0.758267 0
M  V30 3315 C 321.181 1.09046 1.20614 0
M  V30 3316 O 322.365 1.37186 1.29276 0
M  V30 3317 C 319.492 2.71524 2.02466 0
M  V30 3318 C 318.538 3.90345 1.71852 0
M  V30 3319 S 319.371 5.28513 0.862249 0
M  V30 3320 C 320.527 5.88227 2.13868 0
M  V30 3321 H 320.76 2.96183 0.2575 0
M  V30 3322 H 318.293 1.54393 0.0150099 0
M  V30 3323 H 320.251 3.04598 2.75191 0
M  V30 3324 H 318.912 1.90607 2.49655 0
M  V30 3325 H 318.105 4.28158 2.65888 0
M  V30 3326 H 317.707 3.58306 1.07205 0
M  V30 3327 H 319.999 6.02891 3.09076 0
M  V30 3328 H 320.942 6.84714 1.80479 0
M  V30 3329 H 321.35 5.16874 2.2694 0
M  V30 3330 N 320.748 -0.0735177 1.57428 0
M  V30 3331 C 321.711 -1.07192 2.02589 0
M  V30 3332 C 322.711 -1.31695 0.922661 0
M  V30 3333 O 323.901 -1.27445 1.18758 0
M  V30 3334 C 321.033 -2.41599 2.40506 0
M  V30 3335 H 322.226 -0.682727 2.92025 0
M  V30 3336 H 319.779 -0.319193 1.53006 0
M  V30 3337 H 320.514 -2.85354 1.5409 0
M  V30 3338 H 320.299 -2.25156 3.21009 0
M  V30 3339 H 321.789 -3.13367 2.76027 0
M  V30 3340 N 322.226 -1.5378 -0.344866 0
M  V30 3341 C 323.454 -1.74899 -1.10534 0
M  V30 3342 C 323.869 -0.487534 -1.82397 0
M  V30 3343 O 323.226 0.540741 -1.74305 0
M  V30 3344 C 323.277 -2.92822 -2.11984 0
M  V30 3345 O 322.998 -4.14089 -1.43044 0
M  V30 3346 C 324.499 -3.25982 -3.00417 0
M  V30 3347 H 321.719 -0.584426 -0.329678 0
M  V30 3348 H 324.263 -2.006 -0.397474 0
M  V30 3349 H 322.418 -2.69457 -2.78338 0
M  V30 3350 H 322.832 -4.80272 -2.10805 0
M  V30 3351 H 324.306 -4.11848 -3.67539 0
M  V30 3352 H 324.783 -2.42228 -3.66363 0
M  V30 3353 H 325.389 -3.51349 -2.39654 0
M  V30 3354 N 323.704 0.605807 -1.45491 0
M  V30 3355 C 324.981 1.36522 -1.40075 0
M  V30 3356 C 325.361 2.10976 -0.0722744 0
M  V30 3357 O 324.709 2.08007 0.945808 0
M  V30 3358 C 324.919 2.31056 -2.61561 0
M  V30 3359 C 326.267 2.93608 -3.06724 0
M  V30 3360 O 327.291 2.41376 -2.61946 0
M  V30 3361 O 326.15 3.88421 -3.84437 0
M  V30 3362 H 323.244 0.612248 -0.555951 0
M  V30 3363 H 325.79 0.628747 -1.57623 0
M  V30 3364 H 324.562 1.75311 -3.49831 0
M  V30 3365 H 324.185 3.12081 -2.46356 0
M  V30 3366 N 325.182 1.32811 0.848464 0
M  V30 3367 C 326.412 1.26556 1.63301 0
M  V30 3368 C 326.82 -0.1676 1.88456 0
M  V30 3369 O 326.163 -1.11713 1.45828 0
M  V30 3370 C 326.225 1.96202 3.01239 0
M  V30 3371 C 325.889 3.45528 2.99098 0
M  V30 3372 C 326.886 4.40903 2.75501 0
M  V30 3373 C 324.571 3.87558 3.19537 0
M  V30 3374 C 326.565 5.76282 2.72356 0
M  V30 3375 C 324.252 5.23044 3.16019 0
M  V30 3376 C 325.25 6.17217 2.92458 0
M  V30 3377 O 324.938 7.50223 2.88825 0
M  V30 3378 H 324.67 0.43771 0.515156 0
M  V30 3379 H 327.224 1.7559 1.0657 0
M  V30 3380 H 325.454 1.41746 3.59785 0
M  V30 3381 H 327.143 1.83573 3.62016 0
M  V30 3382 H 327.909 4.09756 2.5947 0
M  V30 3383 H 323.788 3.14674 3.369 0
M  V30 3384 H 327.332 6.4976 2.53886 0
M  V30 3385 H 323.229 5.53818 3.31596 0
M  V30 3386 H 323.997 7.59657 3.04735 0
M  V30 3387 N 326.66 -1.06551 1.16123 0
M  V30 3388 C 327.937 -1.76097 0.85142 0
M  V30 3389 C 328.317 -2.00802 -0.6513 0
M  V30 3390 O 327.665 -1.63302 -1.59827 0
M  V30 3391 C 327.875 -3.06384 1.67122 0
M  V30 3392 C 329.223 -3.80585 1.88255 0
M  V30 3393 O 330.247 -3.16218 1.63966 0
M  V30 3394 O 329.106 -4.96212 2.2899 0
M  V30 3395 H 326.2 -0.765102 0.313923 0
M  V30 3396 H 328.746 -1.12844 1.26745 0
M  V30 3397 H 327.518 -2.84071 2.69108 0
M  V30 3398 H 327.141 -3.77371 1.25206 0
M  V30 3399 N 328.138 -0.959301 -1.25041 0
M  V30 3400 C 329.378 -0.624343 -1.94631 0
M  V30 3401 C 329.742 0.82403 -1.73418 0
M  V30 3402 O 330.943 1.26881 -2.3697 0
M  V30 3403 C 329.214 -0.978805 -3.43736 0
M  V30 3404 S 330.773 -0.757127 -4.32219 0
M  V30 3405 H 327.591 -0.229327 -0.673001 0
M  V30 3406 H 330.193 -1.23447 -1.51595 0
M  V30 3407 H 328.897 -2.02997 -3.56679 0
M  V30 3408 H 328.428 -0.359117 -3.91757 0
M  V30 3409 H 330.443 0.369759 -4.9482 0
M  V30 3410 N 329.616 1.39756 -0.72842 0
M  V30 3411 C 330.862 2.01425 -0.282761 0
M  V30 3412 C 331.217 1.56754 1.11561 0
M  V30 3413 O 330.51 0.783482 1.74849 0
M  V30 3414 C 330.704 3.56002 -0.315776 0
M  V30 3415 C 330.533 4.1568 -1.71582 0
M  V30 3416 C 329.303 4.48555 -2.32651 0
M  V30 3417 C 331.501 4.39667 -2.66829 0
M  V30 3418 N 329.483 4.93698 -3.64877 0
M  V30 3419 C 330.854 4.86942 -3.8378 0
M  V30 3420 C 332.909 4.21724 -2.64675 0
M  V30 3421 C 331.612 5.18158 -4.98904 0
M  V30 3422 C 333.638 4.54049 -3.78937 0
M  V30 3423 C 333 5.01525 -4.94623 0
M  V30 3424 H 329.099 0.76756 -0.149583 0
M  V30 3425 H 331.683 1.69784 -0.952976 0
M  V30 3426 H 329.854 3.87046 0.324057 0
M  V30 3427 H 331.586 4.0443 0.147808 0
M  V30 3428 H 328.341 4.36128 -1.84633 0
M  V30 3429 H 328.765 5.20635 -4.32744 0
M  V30 3430 H 333.407 3.84228 -1.76433 0
M  V30 3431 H 331.125 5.54562 -5.87781 0
M  V30 3432 H 334.711 4.41795 -3.78561 0
M  V30 3433 H 333.591 5.26065 -5.81572 0
M  V30 3434 N 331.094 0.475555 1.50254 0
M  V30 3435 C 332.041 -0.316293 2.28622 0
M  V30 3436 C 333.011 -0.983227 1.33873 0
M  V30 3437 O 334.196 -0.994805 1.62814 0
M  V30 3438 C 331.336 -1.38975 3.1588 0
M  V30 3439 C 330.449 -0.737146 4.25664 0
M  V30 3440 C 329.584 -1.78887 5.00173 0
M  V30 3441 C 328.623 -1.11676 6.01826 0
M  V30 3442 N 327.76 -2.11154 6.69596 0
M  V30 3443 H 332.6 0.358297 2.95838 0
M  V30 3444 H 330.137 0.188541 1.45887 0
M  V30 3445 H 332.095 -2.02383 3.64825 0
M  V30 3446 H 330.725 -2.03344 2.50701 0
M  V30 3447 H 329.777 0.0096065 3.80399 0
M  V30 3448 H 331.089 -0.206816 4.98371 0
M  V30 3449 H 330.243 -2.49865 5.52859 0
M  V30 3450 H 328.982 -2.35302 4.27182 0
M  V30 3451 H 327.987 -0.392633 5.48396 0
M  V30 3452 H 329.212 -0.55945 6.76792 0
M  V30 3453 H 327.158 -2.66577 5.99394 0
M  V30 3454 H 327.075 -1.63118 7.38193 0
M  V30 3455 H 328.343 -2.81497 7.26897 0
M  V30 3456 N 332.573 -1.56217 0.208337 0
M  V30 3457 C 333.483 -2.23316 -0.718836 0
M  V30 3458 C 334.499 -1.23648 -1.22422 0
M  V30 3459 O 335.675 -1.56423 -1.26861 0
M  V30 3460 C 332.74 -2.88968 -1.91568 0
M  V30 3461 C 331.801 -4.03943 -1.45357 0
M  V30 3462 C 331.034 -4.66455 -2.59337 0
M  V30 3463 O 331.257 -4.27919 -3.77149 0
M  V30 3464 O 330.191 -5.55686 -2.31293 0
M  V30 3465 H 334.017 -3.03182 -0.177315 0
M  V30 3466 H 331.602 -1.49384 -0.0215402 0
M  V30 3467 H 333.484 -3.30455 -2.61491 0
M  V30 3468 H 332.159 -2.12071 -2.44556 0
M  V30 3469 H 331.066 -3.67052 -0.722746 0
M  V30 3470 H 332.399 -4.82543 -0.970219 0
M  V30 3471 N 334.051 0.0651679 -1.57465 0
M  V30 3472 C 335.001 1.0838 -2.00594 0
M  V30 3473 C 335.985 1.34106 -0.889071 0
M  V30 3474 O 337.177 1.34295 -1.15299 0
M  V30 3475 C 334.306 2.39565 -2.45894 0
M  V30 3476 C 333.392 2.17085 -3.64328 0
M  V30 3477 N 333.783 1.64553 -4.78285 0
M  V30 3478 C 332.081 2.4753 -3.71006 0
M  V30 3479 C 332.782 1.57042 -5.60101 0
M  V30 3480 N 331.758 2.03328 -5.04141 0
M  V30 3481 H 335.56 0.671062 -2.86136 0
M  V30 3482 H 333.074 0.27213 -1.60104 0
M  V30 3483 H 335.071 3.13308 -2.75034 0
M  V30 3484 H 333.731 2.81549 -1.61741 0
M  V30 3485 H 334.742 1.33323 -5.00445 0
M  V30 3486 H 331.419 2.92835 -2.9758 0
M  V30 3487 H 332.809 1.17223 -6.61595 0
M  V30 3488 N 335.529 1.53961 0.336706 0
M  V30 3489 C 336.439 1.85432 1.43708 0
M  V30 3490 C 337.455 0.745053 1.57242 0
M  V30 3491 O 338.631 1.03804 1.72588 0
M  V30 3492 C 335.696 2.06349 2.78605 0
M  V30 3493 C 334.757 3.30191 2.74358 0
M  V30 3494 C 333.99 3.50101 4.02822 0
M  V30 3495 O 334.213 2.7371 5.00439 0
M  V30 3496 O 333.147 4.43547 4.06878 0
M  V30 3497 H 336.973 2.78975 1.20028 0
M  V30 3498 H 334.558 1.39701 0.52952 0
M  V30 3499 H 336.44 2.21513 3.58483 0
M  V30 3500 H 335.115 1.15995 3.02203 0
M  V30 3501 H 334.022 3.20425 1.93078 0
M  V30 3502 H 335.355 4.2056 2.55715 0
M  V30 3503 N 337.007 -0.598083 1.45811 0
M  V30 3504 C 337.917 -1.73632 1.57763 0
M  V30 3505 C 338.933 -1.67763 0.461676 0
M  V30 3506 O 340.109 -1.87949 0.723685 0
M  V30 3507 C 337.174 -3.10114 1.55018 0
M  V30 3508 C 336.235 -3.27364 2.77726 0
M  V30 3509 C 335.468 -4.57334 2.75102 0
M  V30 3510 O 335.691 -5.40258 1.8297 0
M  V30 3511 O 334.625 -4.77502 3.66437 0
M  V30 3512 H 338.451 -1.66498 2.53992 0
M  V30 3513 H 336.036 -0.763308 1.28429 0
M  V30 3514 H 337.918 -3.9141 1.56129 0
M  V30 3515 H 336.593 -3.17718 0.619431 0
M  V30 3516 H 335.5 -2.45619 2.82174 0
M  V30 3517 H 336.833 -3.24641 3.69958 0
M  V30 3518 N 338.485 -1.33259 -0.841409 0
M  V30 3519 C 339.448 -1.23221 -1.9326 0
M  V30 3520 C 340.448 -0.151895 -1.60081 0
M  V30 3521 O 341.638 -0.403246 -1.69468 0
M  V30 3522 C 338.77 -0.898123 -3.28856 0
M  V30 3523 H 339.963 -2.2021 -2.03587 0
M  V30 3524 H 337.516 -1.17281 -1.03319 0
M  V30 3525 H 338.251 0.0693841 -3.24226 0
M  V30 3526 H 338.036 -1.67934 -3.54317 0
M  V30 3527 H 339.526 -0.852563 -4.08805 0
M  V30 3528 N 339.963 1.05934 -1.16686 0
M  V30 3529 C 341.209 1.79065 -0.95203 0
M  V30 3530 C 341.542 1.87147 0.518629 0
M  V30 3531 O 340.817 1.36574 1.38484 0
M  V30 3532 C 341.1 3.23359 -1.58464 0
M  V30 3533 C 340.953 3.23336 -3.12689 0
M  V30 3534 C 342.272 4.21004 -1.28232 0
M  V30 3535 H 339.391 0.65005 -0.34728 0
M  V30 3536 H 342.033 1.23868 -1.44072 0
M  V30 3537 H 340.183 3.70493 -1.16908 0
M  V30 3538 H 341.855 2.84336 -3.6325 0
M  V30 3539 H 340.098 2.61886 -3.4583 0
M  V30 3540 H 340.769 4.25144 -3.52075 0
M  V30 3541 H 343.245 3.8233 -1.64203 0
M  V30 3542 H 342.121 5.20225 -1.75092 0
M  V30 3543 H 342.382 4.41639 -0.201791 0
M  V30 3544 N 341.441 0.965919 1.2453 0
M  V30 3545 C 342.666 0.643971 1.97149 0
M  V30 3546 C 343.091 -0.779487 1.71189 0
M  V30 3547 O 342.449 -1.5288 0.974553 0
M  V30 3548 C 342.497 0.922557 3.48599 0
M  V30 3549 O 341.601 0.00707672 4.12399 0
M  V30 3550 H 340.942 0.243647 0.617683 0
M  V30 3551 H 343.472 1.29558 1.58353 0
M  V30 3552 H 343.482 0.853373 3.98976 0
M  V30 3553 H 342.157 1.95996 3.66822 0
M  V30 3554 H 340.734 0.12943 3.72675 0
M  V30 3555 N 342.919 -1.39368 0.735821 0
M  V30 3556 C 344.165 -2.00794 0.284544 0
M  V30 3557 C 344.498 -1.58255 -1.12557 0
M  V30 3558 O 343.773 -0.811819 -1.76748 0
M  V30 3559 C 344.056 -3.58011 0.387337 0
M  V30 3560 C 343.909 -4.10566 1.83728 0
M  V30 3561 C 345.228 -4.395 -0.22975 0
M  V30 3562 H 342.347 -0.729501 0.104866 0
M  V30 3563 H 344.989 -1.65564 0.93213 0
M  V30 3564 H 343.139 -3.88154 -0.164006 0
M  V30 3565 H 344.811 -3.91139 2.44556 0
M  V30 3566 H 343.054 -3.64095 2.35833 0
M  V30 3567 H 343.725 -5.19702 1.86047 0
M  V30 3568 H 346.201 -4.15406 0.240257 0
M  V30 3569 H 345.077 -5.48752 -0.127485 0
M  V30 3570 H 345.338 -4.22062 -1.3159 0
M  V30 3571 N 344.397 -0.483516 -1.5 0
M  V30 3572 C 345.674 0.129337 -1.95172 0
M  V30 3573 C 346.054 1.55802 -1.4244 0
M  V30 3574 O 345.402 2.19625 -0.630649 0
M  V30 3575 C 345.612 0.0599251 -3.48949 0
M  V30 3576 C 346.96 0.242617 -4.23906 0
M  V30 3577 O 347.984 0.135933 -3.55941 0
M  V30 3578 O 346.843 0.459454 -5.44565 0
M  V30 3579 H 343.937 0.104887 -0.820322 0
M  V30 3580 H 346.483 -0.544807 -1.60717 0
M  V30 3581 H 345.255 -0.937079 -3.79914 0
M  V30 3582 H 344.878 0.774984 -3.89974 0
M  V30 3583 N 345.875 1.56104 -0.216619 0
M  V30 3584 C 347.291 1.58995 0.13886 0
M  V30 3585 C 347.491 1.23333 1.59346 0
M  V30 3586 O 346.547 0.966234 2.33281 0
M  V30 3587 C 347.86 3.00143 -0.182968 0
M  V30 3588 C 349.408 3.12751 -0.124807 0
M  V30 3589 C 349.883 4.56068 -0.420241 0
M  V30 3590 N 351.374 4.61723 -0.369634 0
M  V30 3591 C 352.109 5.70542 -0.571789 0
M  V30 3592 N 351.605 6.87744 -0.835453 0
M  V30 3593 N 353.398 5.59831 -0.504563 0
M  V30 3594 H 345.549 1.77562 -1.16557 0
M  V30 3595 H 347.812 0.825091 -0.466828 0
M  V30 3596 H 347.518 3.30871 -1.19237 0
M  V30 3597 H 347.392 3.73813 0.504367 0
M  V30 3598 H 349.779 2.81822 0.875223 0
M  V30 3599 H 349.86 2.41421 -0.845544 0
M  V30 3600 H 349.504 4.87713 -1.41769 0
M  V30 3601 H 349.434 5.25617 0.321631 0
M  V30 3602 H 351.925 3.77502 -0.173338 0
M  V30 3603 H 352.238 7.66587 -0.977938 0
M  V30 3604 H 350.583 6.895 -0.872592 0
M  V30 3605 H 353.774 4.67145 -0.298842 0
M  V30 3606 H 353.947 6.44573 -0.665519 0
M  V30 3607 N 347.353 -0.0568162 1.57498 0
M  V30 3608 C 348.599 -0.75422 1.88253 0
M  V30 3609 C 348.932 -1.76461 0.810865 0
M  V30 3610 O 348.207 -1.93691 -0.177259 0
M  V30 3611 C 348.49 -1.44878 3.2967 0
M  V30 3612 C 348.343 -0.453789 4.47505 0
M  V30 3613 C 349.662 -2.38994 3.69554 0
M  V30 3614 H 346.781 -0.272724 0.684683 0
M  V30 3615 H 349.423 -0.0172113 1.89992 0
M  V30 3616 H 347.573 -2.077 3.28318 0
M  V30 3617 H 349.245 0.170371 4.60985 0
M  V30 3618 H 347.488 0.229552 4.33192 0
M  V30 3619 H 348.159 -0.977699 5.43273 0
M  V30 3620 H 350.635 -1.86239 3.72095 0
M  V30 3621 H 349.511 -2.84587 4.69363 0
M  V30 3622 H 349.772 -3.24461 3.00296 0
M  V30 3623 N 348.832 -1.54138 -0.328536 0
M  V30 3624 C 349.762 -1.86167 -1.40939 0
M  V30 3625 C 350.743 -0.718044 -1.54202 0
M  V30 3626 O 351.928 -0.971328 -1.68163 0
M  V30 3627 C 349.058 -2.08461 -2.77779 0
M  V30 3628 C 348.012 -3.24299 -2.7931 0
M  V30 3629 C 347.338 -3.31955 -4.19178 0
M  V30 3630 C 348.638 -4.62065 -2.43502 0
M  V30 3631 H 350.332 -2.76689 -1.14383 0
M  V30 3632 H 347.878 -1.33132 -0.548806 0
M  V30 3633 H 349.831 -2.29453 -3.53454 0
M  V30 3634 H 348.555 -1.14684 -3.05802 0
M  V30 3635 H 347.214 -3.03187 -2.0609 0
M  V30 3636 H 346.862 -2.35745 -4.44335 0
M  V30 3637 H 346.562 -4.09805 -4.2111 0
M  V30 3638 H 348.086 -3.55175 -4.96672 0
M  V30 3639 H 349.5 -4.8297 -3.08889 0
M  V30 3640 H 347.897 -5.42429 -2.56693 0
M  V30 3641 H 348.967 -4.64652 -1.38659 0
M  V30 3642 N 350.31 0.590341 -1.46126 0
M  V30 3643 C 351.257 1.69994 -1.56111 0
M  V30 3644 C 352.227 1.61065 -0.405867 0
M  V30 3645 O 353.412 1.8039 -0.621613 0
M  V30 3646 C 350.552 3.08326 -1.55013 0
M  V30 3647 C 349.665 3.27936 -2.81215 0
M  V30 3648 C 348.8 4.56473 -2.71673 0
M  V30 3649 C 347.839 4.694 -3.92849 0
M  V30 3650 N 346.976 5.89254 -3.81738 0
M  V30 3651 H 351.816 1.60797 -2.50895 0
M  V30 3652 H 349.353 0.783799 -1.24479 0
M  V30 3653 H 351.311 3.88383 -1.52362 0
M  V30 3654 H 349.941 3.16439 -0.637667 0
M  V30 3655 H 348.993 2.41536 -2.93879 0
M  V30 3656 H 350.305 3.33357 -3.71045 0
M  V30 3657 H 349.459 5.44748 -2.67085 0
M  V30 3658 H 348.198 4.53477 -1.7947 0
M  V30 3659 H 347.203 3.79544 -3.97777 0
M  V30 3660 H 348.428 4.7418 -4.86138 0
M  V30 3661 H 346.374 5.87271 -2.92317 0
M  V30 3662 H 346.291 5.95911 -4.65217 0
M  V30 3663 H 347.559 6.79981 -3.81112 0
M  V30 3664 N 351.788 1.33704 0.83433 0
M  V30 3665 C 353.016 1.28467 1.62185 0
M  V30 3666 C 353.431 -0.143526 1.88254 0
M  V30 3667 O 352.788 -1.08709 1.4659 0
M  V30 3668 C 352.839 2.06174 2.96942 0
M  V30 3669 O 352.56 3.43422 2.72016 0
M  V30 3670 C 354.061 2.08201 3.91366 0
M  V30 3671 H 351.281 0.4424 0.504503 0
M  V30 3672 H 353.825 1.76145 1.03891 0
M  V30 3673 H 351.98 1.62167 3.51825 0
M  V30 3674 H 352.394 3.83453 3.57861 0
M  V30 3675 H 353.868 2.67017 4.83121 0
M  V30 3676 H 354.345 1.07343 4.2588 0
M  V30 3677 H 354.951 2.52246 3.42421 0
M  V30 3678 N 353.266 -1.05314 1.17247 0
M  V30 3679 C 354.196 -2.1498 0.911362 0
M  V30 3680 C 355.177 -1.69471 -0.146169 0
M  V30 3681 O 356.362 -1.942 0.003812 0
M  V30 3682 C 353.492 -3.4472 0.422528 0
M  V30 3683 C 352.446 -4.03789 1.4191 0
M  V30 3684 C 351.772 -5.28858 0.788274 0
M  V30 3685 C 353.072 -4.41418 2.7919 0
M  V30 3686 H 354.766 -2.3708 1.82848 0
M  V30 3687 H 352.312 -1.13938 0.880569 0
M  V30 3688 H 354.265 -4.20787 0.227289 0
M  V30 3689 H 352.989 -3.22269 -0.530123 0
M  V30 3690 H 351.648 -3.2979 1.60106 0
M  V30 3691 H 351.296 -5.02709 -0.171173 0
M  V30 3692 H 350.996 -5.69338 1.45353 0
M  V30 3693 H 352.52 -6.07612 0.603282 0
M  V30 3694 H 353.934 -5.08524 2.64719 0
M  V30 3695 H 352.331 -4.92913 3.42282 0
M  V30 3696 H 353.401 -3.51819 3.33693 0
M  V30 3697 N 354.744 -0.972509 -1.24016 0
M  V30 3698 C 355.691 -0.505969 -2.25186 0
M  V30 3699 C 356.661 0.451009 -1.5986 0
M  V30 3700 O 357.846 0.360307 -1.87367 0
M  V30 3701 C 354.986 0.193089 -3.44559 0
M  V30 3702 C 354.099 -0.803222 -4.24467 0
M  V30 3703 C 353.234 -0.0797793 -5.3114 0
M  V30 3704 C 352.273 -1.06583 -6.02749 0
M  V30 3705 N 351.41 -0.372074 -7.01113 0
M  V30 3706 H 356.25 -1.37351 -2.64459 0
M  V30 3707 H 353.787 -0.688419 -1.29997 0
M  V30 3708 H 355.745 0.615125 -4.1264 0
M  V30 3709 H 354.375 1.02455 -3.06109 0
M  V30 3710 H 353.427 -1.34368 -3.55878 0
M  V30 3711 H 354.739 -1.55494 -4.73944 0
M  V30 3712 H 353.893 0.400015 -6.0538 0
M  V30 3713 H 352.632 0.704597 -4.82583 0
M  V30 3714 H 351.637 -1.55645 -5.27309 0
M  V30 3715 H 352.862 -1.85074 -6.53395 0
M  V30 3716 H 350.808 0.393238 -6.5482 0
M  V30 3717 H 350.725 -1.06258 -7.48495 0
M  V30 3718 H 351.993 0.0855932 -7.79453 0
M  V30 3719 N 356.222 1.38976 -0.743202 0
M  V30 3720 C 357.132 2.3434 -0.110399 0
M  V30 3721 C 358.148 1.58741 0.712559 0
M  V30 3722 O 359.324 1.9099 0.639125 0
M  V30 3723 C 356.389 3.37812 0.780012 0
M  V30 3724 C 355.45 4.29263 -0.0561319 0
M  V30 3725 C 354.683 5.27793 0.791875 0
M  V30 3726 O 354.906 5.33043 2.03031 0
M  V30 3727 O 353.84 6.01512 0.216183 0
M  V30 3728 H 357.666 2.90129 -0.897714 0
M  V30 3729 H 355.251 1.40643 -0.503966 0
M  V30 3730 H 357.133 4.01194 1.28923 0
M  V30 3731 H 355.808 2.84395 1.546 0
M  V30 3732 H 354.715 3.69076 -0.611056 0
M  V30 3733 H 356.048 4.85907 -0.784531 0
M  V30 3734 N 357.7 0.491464 1.49741 0
M  V30 3735 C 358.648 -0.305837 2.30581 0
M  V30 3736 C 359.642 -0.971642 1.38764 0
M  V30 3737 O 360.848 -0.90042 1.5586 0
M  V30 3738 H 357.223 -0.117482 0.742767 0
M  V30 3739 H 359.194 0.396093 2.95759 0
M  V30 3740 C 357.943 -1.36319 3.19863 0
M  V30 3741 H 357.266 -0.860258 3.90435 0
M  V30 3742 H 358.706 -1.89323 3.79385 0
M  V30 3743 C 357.165 -2.37621 2.38826 0
M  V30 3744 O 357.695 -3.43311 2.08567 0
M  V30 3745 N 355.901 -2.09849 2.01026 0
M  V30 3746 H 355.448 -1.23922 2.25834 0
M  V30 3747 H 355.406 -2.77859 1.47112 0
M  V30 3748 N 359.178 -1.55987 0.224894 0
M  V30 3749 C 360.141 -2.19178 -0.670348 0
M  V30 3750 C 361.141 -1.15461 -1.11917 0
M  V30 3751 O 362.331 -1.40675 -1.02743 0
M  V30 3752 C 359.463 -2.81777 -1.9187 0
M  V30 3753 H 360.656 -2.99662 -0.119364 0
M  V30 3754 H 358.209 -1.5628 -0.0247128 0
M  V30 3755 H 358.944 -2.05172 -2.51147 0
M  V30 3756 H 358.729 -3.57732 -1.60531 0
M  V30 3757 H 360.219 -3.30205 -2.55645 0
M  V30 3758 N 360.656 0.0484629 -1.57525 0
M  V30 3759 C 361.604 1.07359 -2.06341 0
M  V30 3760 C 362.598 1.3865 -0.973269 0
M  V30 3761 O 363.804 1.37783 -1.15827 0
M  V30 3762 H 360.179 0.363662 -0.65822 0
M  V30 3763 H 362.15 0.635916 -2.91545 0
M  V30 3764 C 360.899 2.37198 -2.54229 0
M  V30 3765 H 360.222 2.13977 -3.37719 0
M  V30 3766 H 361.662 3.07319 -2.92115 0
M  V30 3767 C 360.121 3.04805 -1.43511 0
M  V30 3768 O 360.651 3.93848 -0.79034 0
M  V30 3769 N 358.857 2.65811 -1.17444 0
M  V30 3770 H 358.404 1.93488 -1.70059 0
M  V30 3771 H 358.362 3.11366 -0.435737 0
M  V30 3772 N 362.134 1.5431 0.320358 0
M  V30 3773 C 363.081 1.83918 1.39438 0
M  V30 3774 C 364.051 0.686525 1.51248 0
M  V30 3775 O 365.236 0.933269 1.66417 0
M  V30 3776 C 362.376 2.075 2.75749 0
M  V30 3777 C 361.489 3.35177 2.72544 0
M  V30 3778 C 360.624 3.48704 4.00723 0
M  V30 3779 C 359.663 4.70244 3.91838 0
M  V30 3780 N 358.8 4.80679 5.11754 0
M  V30 3781 H 363.64 2.75544 1.13489 0
M  V30 3782 H 361.177 1.36459 0.549309 0
M  V30 3783 H 363.135 2.19166 3.54996 0
M  V30 3784 H 361.765 1.19163 3 0
M  V30 3785 H 360.817 3.32233 1.85271 0
M  V30 3786 H 362.129 4.24534 2.61863 0
M  V30 3787 H 361.283 3.59928 4.88402 0
M  V30 3788 H 360.022 2.57445 4.14214 0
M  V30 3789 H 359.027 4.59072 3.02544 0
M  V30 3790 H 360.252 5.6289 3.7991 0
M  V30 3791 H 358.198 3.92337 5.25745 0
M  V30 3792 H 358.115 5.64007 5.0342 0
M  V30 3793 H 359.383 4.96239 6.01138 0
M  V30 3794 N 363.613 -0.582584 1.46437 0
M  V30 3795 C 364.576 -1.67366 1.56592 0
M  V30 3796 C 365.576 -1.54575 0.443072 0
M  V30 3797 O 366.766 -1.59191 0.707381 0
M  V30 3798 C 363.898 -3.06791 1.48634 0
M  V30 3799 H 365.091 -1.5972 2.5383 0
M  V30 3800 H 362.644 -0.800432 1.34249 0
M  V30 3801 H 363.379 -3.19993 0.526763 0
M  V30 3802 H 363.164 -3.17484 2.30101 0
M  V30 3803 H 364.654 -3.86218 1.58826 0
M  V30 3804 N 365.091 -1.34144 -0.827227 0
M  V30 3805 C 366.038 -1.25364 -1.93785 0
M  V30 3806 C 367.008 -0.129774 -1.65592 0
M  V30 3807 O 368.193 -0.310024 -1.88264 0
M  V30 3808 C 365.333 -1.01064 -3.2997 0
M  V30 3809 C 364.446 -2.22185 -3.70484 0
M  V30 3810 C 363.581 -1.91203 -4.95595 0
M  V30 3811 C 362.62 -3.08491 -5.28677 0
M  V30 3812 N 361.757 -2.77421 -6.44967 0
M  V30 3813 H 366.597 -2.20347 -2.00627 0
M  V30 3814 H 364.134 -1.09558 -0.981608 0
M  V30 3815 H 366.092 -0.850139 -4.08446 0
M  V30 3816 H 364.722 -0.0975026 -3.22653 0
M  V30 3817 H 363.774 -2.4917 -2.87434 0
M  V30 3818 H 365.086 -3.0983 -3.90905 0
M  V30 3819 H 364.24 -1.71864 -5.81848 0
M  V30 3820 H 362.979 -1.00812 -4.77167 0
M  V30 3821 H 361.984 -3.28431 -4.40923 0
M  V30 3822 H 363.209 -3.99655 -5.49047 0
M  V30 3823 H 361.155 -1.89601 -6.28003 0
M  V30 3824 H 361.072 -3.58598 -6.6554 0
M  V30 3825 H 362.34 -2.61577 -7.34301 0
M  V30 3826 N 366.569 1.04691 -1.17803 0
M  V30 3827 C 367.794 1.81984 -0.994813 0
M  V30 3828 C 368.219 1.82586 0.452112 0
M  V30 3829 O 367.577 1.23854 1.324 0
M  V30 3830 C 367.625 3.2575 -1.54659 0
M  V30 3831 O 366.729 4.05267 -0.763728 0
M  V30 3832 H 366.07 0.562483 -0.352857 0
M  V30 3833 H 368.6 1.3189 -1.56417 0
M  V30 3834 H 368.61 3.76541 -1.57102 0
M  V30 3835 H 367.285 3.24627 -2.59981 0
M  V30 3836 H 365.862 3.63972 -0.811108 0
M  V30 3837 N 368.047 0.979072 1.23499 0
M  V30 3838 C 368.977 0.537606 2.27227 0
M  V30 3839 C 369.958 -0.428539 1.64613 0
M  V30 3840 O 371.143 -0.322191 1.91509 0
M  V30 3841 C 368.273 -0.162052 3.46922 0
M  V30 3842 C 367.227 0.721242 4.21879 0
M  V30 3843 C 366.553 -0.110555 5.34586 0
M  V30 3844 C 367.853 2.01141 4.82016 0
M  V30 3845 H 369.547 1.40462 2.64406 0
M  V30 3846 H 367.093 0.67684 1.27102 0
M  V30 3847 H 369.046 -0.482192 4.18632 0
M  V30 3848 H 367.77 -1.06351 3.08799 0
M  V30 3849 H 366.429 1.02482 3.51984 0
M  V30 3850 H 366.077 -1.0125 4.92704 0
M  V30 3851 H 365.777 0.477325 5.85658 0
M  V30 3852 H 367.301 -0.425107 6.09118 0
M  V30 3853 H 368.715 1.75612 5.45741 0
M  V30 3854 H 367.112 2.54695 5.43369 0
M  V30 3855 H 368.182 2.69909 4.02836 0
M  V30 3856 N 369.525 -1.3858 0.750561 0
M  V30 3857 C 370.455 -2.33102 0.136237 0
M  V30 3858 C 371.436 -1.54713 -0.706965 0
M  V30 3859 O 372.621 -1.83043 -0.648769 0
M  V30 3860 C 369.751 -3.38882 -0.760017 0
M  V30 3861 C 368.705 -4.27995 -0.0197785 0
M  V30 3862 C 368.031 -5.24605 -1.03408 0
M  V30 3863 C 369.331 -5.09554 1.14684 0
M  V30 3864 H 371.025 -2.84726 0.925822 0
M  V30 3865 H 368.571 -1.36898 0.446654 0
M  V30 3866 H 370.524 -4.0397 -1.19943 0
M  V30 3867 H 369.248 -2.85734 -1.58189 0
M  V30 3868 H 367.907 -3.64409 0.400184 0
M  V30 3869 H 367.555 -4.67746 -1.84994 0
M  V30 3870 H 367.255 -5.85081 -0.543464 0
M  V30 3871 H 368.779 -5.9257 -1.47288 0
M  V30 3872 H 370.193 -5.67899 0.785118 0
M  V30 3873 H 368.59 -5.7925 1.56812 0
M  V30 3874 H 369.66 -4.4347 1.96118 0
M  V30 3875 N 371.003 -0.499398 -1.49478 0
M  V30 3876 C 371.933 0.269244 -2.31943 0
M  V30 3877 C 372.914 0.964054 -1.40143 0
M  V30 3878 O 374.099 0.955767 -1.69052 0
M  V30 3879 C 371.229 1.33504 -3.20615 0
M  V30 3880 C 370.183 0.760202 -4.21195 0
M  V30 3881 C 369.509 1.9264 -4.98792 0
M  V30 3882 C 370.809 -0.247661 -5.21712 0
M  V30 3883 H 372.503 -0.419082 -2.96452 0
M  V30 3884 H 370.049 -0.202988 -1.42562 0
M  V30 3885 H 372.002 1.88048 -3.77115 0
M  V30 3886 H 370.726 2.05253 -2.54045 0
M  V30 3887 H 369.385 0.23653 -3.65836 0
M  V30 3888 H 369.033 2.63154 -4.28671 0
M  V30 3889 H 368.733 1.54785 -5.66847 0
M  V30 3890 H 370.257 2.4762 -5.58137 0
M  V30 3891 H 371.671 0.209579 -5.72917 0
M  V30 3892 H 370.068 -0.541962 -5.97648 0
M  V30 3893 H 371.138 -1.16409 -4.7072 0
M  V30 3894 N 372.481 1.55866 -0.233164 0
M  V30 3895 C 373.709 2.02998 0.399905 0
M  V30 3896 C 374.124 1.11274 1.52524 0
M  V30 3897 O 373.481 0.124528 1.82075 0
M  V30 3898 C 373.532 3.4958 0.920639 0
M  V30 3899 O 373.253 4.37808 -0.159834 0
M  V30 3900 C 374.754 4.12411 1.62578 0
M  V30 3901 H 371.974 0.664006 0.0966281 0
M  V30 3902 H 374.518 2.0143 -0.353013 0
M  V30 3903 H 372.673 3.51727 1.62379 0
M  V30 3904 H 373.087 5.23981 0.23337 0
M  V30 3905 H 374.561 5.16711 1.94201 0
M  V30 3906 H 375.038 3.5809 2.54299 0
M  V30 3907 H 375.644 4.14148 0.967553 0
M  V30 3908 N 373.959 -0.0401083 1.57549 0
M  V30 3909 C 375.187 -0.745196 1.93014 0
M  V30 3910 C 375.602 -1.6948 0.831984 0
M  V30 3911 O 374.959 -1.81482 -0.192463 0
M  V30 3912 C 375.01 -1.51176 3.28372 0
M  V30 3913 O 374.731 -0.600284 4.33968 0
M  V30 3914 C 376.232 -2.315 3.78051 0
M  V30 3915 H 373.452 -0.210088 0.637263 0
M  V30 3916 H 375.996 -0.000924689 2.045 0
M  V30 3917 H 374.151 -2.20801 3.18317 0
M  V30 3918 H 374.565 -1.13669 5.12035 0
M  V30 3919 H 376.039 -2.80697 4.75303 0
M  V30 3920 H 376.516 -3.12436 3.08675 0
M  V30 3921 H 377.122 -1.66971 3.91153 0
M  V30 3922 N 375.437 -1.54477 -0.31217 0
M  V30 3923 C 376.686 -1.72438 -1.04633 0
M  V30 3924 C 376.999 -0.511163 -1.88803 0
M  V30 3925 O 378.205 -0.572341 -2.65399 0
M  V30 3926 C 376.661 -3.05043 -1.9099 0
M  V30 3927 C 376.269 -4.33806 -1.11877 0
M  V30 3928 C 378.013 -3.32364 -2.64073 0
M  V30 3929 C 375.92 -5.57467 -1.97445 0
M  V30 3930 H 374.85 -0.642647 -0.394361 0
M  V30 3931 H 377.501 -1.80966 -0.303929 0
M  V30 3932 H 375.883 -2.90451 -2.69173 0
M  V30 3933 H 377.057 -4.59199 -0.383843 0
M  V30 3934 H 375.372 -4.13336 -0.504252 0
M  V30 3935 H 377.969 -4.21951 -3.28423 0
M  V30 3936 H 378.312 -2.50745 -3.32314 0
M  V30 3937 H 378.845 -3.47875 -1.92944 0
M  V30 3938 H 375.584 -6.41722 -1.33692 0
M  V30 3939 H 375.104 -5.36277 -2.6864 0
M  V30 3940 H 376.783 -5.94303 -2.5576 0
M  V30 3941 N 376.915 0.57481 -1.46744 0
M  V30 3942 C 378.326 1.15695 -1.46532 0
M  V30 3943 C 378.677 1.95068 -0.210425 0
M  V30 3944 O 377.802 2.05241 0.685944 0
M  V30 3945 C 378.397 2.1048 -2.65487 0
M  V30 3946 C 376.956 2.64002 -2.68291 0
M  V30 3947 C 376.103 1.40026 -2.39349 0
M  V30 3948 H 379.054 0.362325 -1.54509 0
M  V30 3949 H 379.075 2.94074 -2.41455 0
M  V30 3950 H 378.587 1.52683 -3.56805 0
M  V30 3951 H 376.688 3.25646 -1.81067 0
M  V30 3952 H 376.801 3.06197 -3.68483 0
M  V30 3953 H 375.165 1.70106 -1.89568 0
M  V30 3954 H 375.948 0.840485 -3.32852 0
M  V30 3955 N 378.394 1.34581 0.820102 0
M  V30 3956 C 379.326 1.22236 1.93884 0
M  V30 3957 C 380.339 0.148776 1.62119 0
M  V30 3958 O 381.528 0.400877 1.7394 0
M  V30 3959 C 378.628 0.856542 3.27897 0
M  V30 3960 C 377.801 2.02569 3.87666 0
M  V30 3961 C 376.86 1.63782 5.00062 0
M  V30 3962 O 375.886 2.35477 5.18208 0
M  V30 3963 N 377.088 0.553611 5.77854 0
M  V30 3964 H 379.853 2.18615 2.05006 0
M  V30 3965 H 377.414 1.27573 0.99683 0
M  V30 3966 H 379.406 0.578806 4.0054 0
M  V30 3967 H 377.976 -0.0171518 3.12595 0
M  V30 3968 H 377.196 2.468 3.07382 0
M  V30 3969 H 378.484 2.80752 4.24329 0
M  V30 3970 H 377.882 -0.0423528 5.65684 0
M  V30 3971 H 376.439 0.335614 6.50935 0
M  V30 3972 N 379.872 -1.04064 1.18357 0
M  V30 3973 C 381.121 -1.76662 0.973313 0
M  V30 3974 C 381.434 -1.89154 -0.497991 0
M  V30 3975 O 382.64 -2.58606 -0.826762 0
M  V30 3976 C 381.096 -3.17624 1.69242 0
M  V30 3977 C 380.704 -3.13225 3.20303 0
M  V30 3978 C 382.448 -3.946 1.56497 0
M  V30 3979 C 380.355 -4.49046 3.84853 0
M  V30 3980 H 379.285 -0.662214 0.36054 0
M  V30 3981 H 381.936 -1.16553 1.41731 0
M  V30 3982 H 380.318 -3.78129 1.1762 0
M  V30 3983 H 381.492 -2.62172 3.78949 0
M  V30 3984 H 379.807 -2.49749 3.33189 0
M  V30 3985 H 382.404 -4.95042 2.02084 0
M  V30 3986 H 382.747 -4.13074 0.517243 0
M  V30 3987 H 383.28 -3.4067 2.05399 0
M  V30 3988 H 380.019 -4.35777 4.89672 0
M  V30 3989 H 379.539 -5.00203 3.30994 0
M  V30 3990 H 381.218 -5.17961 3.87718 0
M  V30 3991 N 381.35 -0.985608 -1.22978 0
M  V30 3992 C 382.598 -0.656087 -1.91154 0
M  V30 3993 C 382.919 0.813561 -1.77218 0
M  V30 3994 O 382.189 1.58244 -1.1548 0
M  V30 3995 H 380.769 -0.239674 -0.707506 0
M  V30 3996 H 383.431 -1.25054 -1.49491 0
M  V30 3997 H 382.527 -0.912253 -2.9847 0
M  V30 3998 N 382.828 1.3818 -0.7579 0
M  V30 3999 C 384.053 2.04827 -0.325679 0
M  V30 4000 C 384.478 1.56788 1.03919 0
M  V30 4001 O 383.836 0.721811 1.66312 0
M  V30 4002 C 383.884 3.58774 -0.362447 0
M  V30 4003 O 382.988 4.07372 0.642033 0
M  V30 4004 H 382.329 0.64833 -0.143402 0
M  V30 4005 H 384.859 1.7677 -1.03023 0
M  V30 4006 H 384.869 4.07434 -0.214844 0
M  V30 4007 H 383.544 3.93096 -1.35824 0
M  V30 4008 H 382.121 3.70068 0.458688 0
M  V30 4009 N 384.306 0.507319 1.49211 0
M  V30 4010 C 385.534 -0.0315749 2.06876 0
M  V30 4011 C 385.949 -1.30241 1.36685 0
M  V30 4012 O 385.306 -1.76937 0.447152 0
M  V30 4013 C 385.357 -0.282627 3.60393 0
M  V30 4014 O 385.078 0.937835 4.27944 0
M  V30 4015 C 386.579 -0.864453 4.3479 0
M  V30 4016 H 383.799 0.0233048 0.670595 0
M  V30 4017 H 386.343 0.706484 1.91909 0
M  V30 4018 H 384.498 -0.97068 3.75042 0
M  V30 4019 H 384.912 0.704567 5.19746 0
M  V30 4020 H 386.386 -0.989664 5.43056 0
M  V30 4021 H 386.863 -1.86382 3.97692 0
M  V30 4022 H 387.469 -0.213672 4.24763 0
M  V30 4023 N 385.784 -1.5574 0.241426 0
M  V30 4024 C 386.694 -2.2479 -0.671305 0
M  V30 4025 C 387.71 -1.26217 -1.19772 0
M  V30 4026 O 388.886 -1.59079 -1.23514 0
M  V30 4027 C 385.951 -2.92966 -1.85396 0
M  V30 4028 C 385.012 -4.06935 -1.36756 0
M  V30 4029 C 384.245 -4.71851 -2.49384 0
M  V30 4030 O 384.468 -4.35823 -3.67987 0
M  V30 4031 O 383.402 -5.60467 -2.19454 0
M  V30 4032 H 387.228 -3.0349 -0.112966 0
M  V30 4033 H 384.813 -1.49397 0.0101513 0
M  V30 4034 H 386.695 -3.35927 -2.54423 0
M  V30 4035 H 385.37 -2.17211 -2.40002 0
M  V30 4036 H 384.277 -3.68503 -0.644726 0
M  V30 4037 H 385.61 -4.84492 -0.867647 0
M  V30 4038 N 387.262 0.0317525 -1.57568 0
M  V30 4039 C 388.508 0.718712 -1.90279 0
M  V30 4040 C 388.863 1.73108 -0.839727 0
M  V30 4041 O 388.156 1.90997 0.15188 0
M  V30 4042 C 388.35 1.43167 -3.27472 0
M  V30 4043 C 388.179 0.489869 -4.47024 0
M  V30 4044 C 386.949 0.111909 -5.05176 0
M  V30 4045 C 389.147 -0.230592 -5.13783 0
M  V30 4046 N 387.129 -0.831427 -6.08244 0
M  V30 4047 C 388.5 -1.02968 -6.1139 0
M  V30 4048 C 390.555 -0.297821 -4.97008 0
M  V30 4049 C 389.258 -1.88982 -6.9403 0
M  V30 4050 C 391.284 -1.14507 -5.80209 0
M  V30 4051 C 390.646 -1.9321 -6.77384 0
M  V30 4052 H 386.745 0.237177 -0.745165 0
M  V30 4053 H 389.329 -0.0211267 -1.94689 0
M  V30 4054 H 387.5 2.14199 -3.23996 0
M  V30 4055 H 389.232 2.0708 -3.47707 0
M  V30 4056 H 385.987 0.473513 -4.71227 0
M  V30 4057 H 386.411 -1.29752 -6.6445 0
M  V30 4058 H 391.053 0.296346 -4.2176 0
M  V30 4059 H 388.771 -2.4948 -7.68626 0
M  V30 4060 H 392.357 -1.20059 -5.69278 0
M  V30 4061 H 391.237 -2.57711 -7.40645 0
M  V30 4062 N 388.74 1.54641 0.303973 0
M  V30 4063 C 389.965 1.78092 1.06292 0
M  V30 4064 C 390.39 0.537342 1.80262 0
M  V30 4065 O 389.748 -0.511993 1.7392 0
M  V30 4066 C 389.796 2.98612 2.02147 0
M  V30 4067 O 388.9 2.71528 3.10397 0
M  V30 4068 H 388.241 0.589548 0.305497 0
M  V30 4069 H 390.771 2.01716 0.3423 0
M  V30 4070 H 390.781 3.265 2.44667 0
M  V30 4071 H 389.456 3.88785 1.47714 0
M  V30 4072 H 388.033 2.54648 2.72413 0
M  V30 4073 N 390.218 -0.567019 1.47046 0
M  V30 4074 C 391.128 -1.70247 1.6141 0
M  V30 4075 C 392.144 -1.66746 0.497157 0
M  V30 4076 O 393.32 -1.86371 0.763389 0
M  V30 4077 C 390.385 -3.06756 1.61561 0
M  V30 4078 C 389.446 -3.21399 2.84607 0
M  V30 4079 C 388.679 -4.51396 2.84741 0
M  V30 4080 O 388.902 -5.36255 1.94388 0
M  V30 4081 O 387.836 -4.69621 3.76483 0
M  V30 4082 H 391.662 -1.61073 2.57467 0
M  V30 4083 H 389.247 -0.735894 1.30019 0
M  V30 4084 H 391.129 -3.8801 1.64396 0
M  V30 4085 H 389.804 -3.16333 0.686684 0
M  V30 4086 H 388.711 -2.39579 2.8732 0
M  V30 4087 H 390.044 -3.16721 3.76761 0
M  V30 4088 N 391.696 -1.35014 -0.812953 0
M  V30 4089 C 392.924 -1.31031 -1.6012 0
M  V30 4090 C 393.339 0.113558 -1.88458 0
M  V30 4091 O 392.696 1.06363 -1.48301 0
M  V30 4092 C 392.747 -2.10872 -2.93624 0
M  V30 4093 O 392.468 -3.47706 -2.66518 0
M  V30 4094 C 393.969 -2.14401 -3.88004 0
M  V30 4095 H 391.189 -0.45037 -0.497401 0
M  V30 4096 H 393.733 -1.77775 -1.01076 0
M  V30 4097 H 391.888 -1.67744 -3.492 0
M  V30 4098 H 392.302 -3.89097 -3.51715 0
M  V30 4099 H 393.776 -2.74669 -4.78812 0
M  V30 4100 H 394.253 -1.14105 -4.24119 0
M  V30 4101 H 394.859 -2.57662 -3.38364 0
M  V30 4102 N 393.175 1.03435 -1.18907 0
M  V30 4103 C 394.105 2.13503 -0.945448 0
M  V30 4104 C 395.086 1.69682 0.119189 0
M  V30 4105 O 396.271 1.94169 -0.034707 0
M  V30 4106 C 393.401 3.44004 -0.477316 0
M  V30 4107 C 392.355 4.0148 -1.48316 0
M  V30 4108 C 391.681 5.27537 -0.872311 0
M  V30 4109 C 392.981 4.36921 -2.86177 0
M  V30 4110 H 394.675 2.34141 -1.86597 0
M  V30 4111 H 392.221 1.12523 -0.898584 0
M  V30 4112 H 394.174 4.20372 -0.294204 0
M  V30 4113 H 392.898 3.23072 0.478786 0
M  V30 4114 H 391.557 3.27201 -1.65332 0
M  V30 4115 H 391.205 5.02917 0.0911752 0
M  V30 4116 H 390.905 5.66954 -1.54393 0
M  V30 4117 H 392.429 6.06576 -0.699871 0
M  V30 4118 H 393.843 5.04248 -2.72776 0
M  V30 4119 H 392.24 4.87405 -3.50081 0
M  V30 4120 H 393.31 3.46466 -3.39248 0
M  V30 4121 N 394.653 0.992116 1.22453 0
M  V30 4122 C 395.603 0.512969 2.22155 0
M  V30 4123 C 396.587 -0.418416 1.55364 0
M  V30 4124 O 397.779 -0.245363 1.75291 0
M  V30 4125 C 394.908 -0.171822 3.4287 0
M  V30 4126 C 393.994 0.779822 4.16869 0
M  V30 4127 N 394.385 1.92734 4.6764 0
M  V30 4128 C 392.683 0.59554 4.42006 0
M  V30 4129 C 393.384 2.52458 5.24061 0
M  V30 4130 N 392.36 1.80735 5.12675 0
M  V30 4131 H 396.162 1.38817 2.5905 0
M  V30 4132 H 393.676 0.854277 1.38115 0
M  V30 4133 H 395.673 -0.532469 4.13486 0
M  V30 4134 H 394.333 -1.04317 3.07487 0
M  V30 4135 H 395.344 2.30816 4.63621 0
M  V30 4136 H 392.021 -0.229805 4.16867 0
M  V30 4137 H 393.411 3.49433 5.73887 0
M  V30 4138 N 396.131 -1.37776 0.765217 0
M  V30 4139 C 397.079 -2.32209 0.134798 0
M  V30 4140 C 398.073 -1.54607 -0.692315 0
M  V30 4141 O 399.279 -1.70052 -0.590109 0
M  V30 4142 H 395.654 -0.751591 0.0248005 0
M  V30 4143 H 397.625 -2.8297 0.947119 0
M  V30 4144 C 396.374 -3.39841 -0.735063 0
M  V30 4145 H 395.697 -3.99654 -0.107991 0
M  V30 4146 H 397.137 -4.08296 -1.14326 0
M  V30 4147 C 395.596 -2.79378 -1.88281 0
M  V30 4148 O 396.126 -2.69608 -2.97783 0
M  V30 4149 N 394.332 -2.37016 -1.68142 0
M  V30 4150 H 393.879 -2.45162 -0.790772 0
M  V30 4151 H 393.837 -1.96905 -2.45104 0
M  V30 4152 N 397.609 -0.515225 -1.4894 0
M  V30 4153 C 398.539 0.244628 -2.32215 0
M  V30 4154 C 399.52 0.949136 -1.41157 0
M  V30 4155 O 400.705 0.937783 -1.70057 0
M  V30 4156 C 397.835 1.30096 -3.22013 0
M  V30 4157 C 396.789 0.715486 -4.21977 0
M  V30 4158 C 396.115 1.87339 -5.00808 0
M  V30 4159 C 397.415 -0.302982 -5.2142 0
M  V30 4160 H 399.109 -0.450501 -2.95991 0
M  V30 4161 H 396.655 -0.218098 -1.42339 0
M  V30 4162 H 398.608 1.84037 -3.79089 0
M  V30 4163 H 397.332 2.02547 -2.56207 0
M  V30 4164 H 395.991 0.197715 -3.66066 0
M  V30 4165 H 395.639 2.58592 -4.31438 0
M  V30 4166 H 395.339 1.48764 -5.68457 0
M  V30 4167 H 396.863 2.41686 -5.60732 0
M  V30 4168 H 398.277 0.148802 -5.73107 0
M  V30 4169 H 396.674 -0.60532 -5.97039 0
M  V30 4170 H 397.744 -1.21395 -4.69459 0
M  V30 4171 N 399.087 1.5561 -0.249682 0
M  V30 4172 C 400.034 2.21496 0.648694 0
M  V30 4173 C 401.004 1.17977 1.16921 0
M  V30 4174 O 402.189 1.46434 1.22318 0
M  V30 4175 C 399.329 2.92039 1.83868 0
M  V30 4176 C 398.442 4.10219 1.35442 0
M  V30 4177 C 397.577 4.6847 2.50419 0
M  V30 4178 C 396.616 5.78893 1.98869 0
M  V30 4179 N 395.753 6.31315 3.07223 0
M  V30 4180 H 400.593 2.97892 0.0801582 0
M  V30 4181 H 398.13 1.47074 0.0278031 0
M  V30 4182 H 400.088 3.31138 2.53778 0
M  V30 4183 H 398.718 2.18111 2.37965 0
M  V30 4184 H 397.77 3.76413 0.54928 0
M  V30 4185 H 399.082 4.89927 0.936649 0
M  V30 4186 H 398.236 5.10158 3.28366 0
M  V30 4187 H 396.975 3.87984 2.95499 0
M  V30 4188 H 395.98 5.3668 1.19393 0
M  V30 4189 H 397.205 6.61232 1.54755 0
M  V30 4190 H 395.151 5.53733 3.51732 0
M  V30 4191 H 395.068 7.06224 2.69784 0
M  V30 4192 H 396.336 6.77662 3.8522 0
M  V30 4193 N 400.565 -0.0233959 1.57583 0
M  V30 4194 C 401.513 -1.04063 2.08023 0
M  V30 4195 C 402.507 -1.37084 0.995204 0
M  V30 4196 O 403.713 -1.35923 1.18004 0
M  V30 4197 H 400.088 -0.353144 0.663922 0
M  V30 4198 H 402.059 -0.589453 2.9252 0
M  V30 4199 C 400.808 -2.33123 2.57971 0
M  V30 4200 H 400.131 -2.08577 3.4108 0
M  V30 4201 H 401.571 -3.02632 2.96967 0
M  V30 4202 C 400.03 -3.02483 1.48342 0
M  V30 4203 O 400.56 -3.92541 0.852898 0
M  V30 4204 N 398.766 -2.63909 1.21658 0
M  V30 4205 H 398.313 -1.90758 1.73116 0
M  V30 4206 H 398.271 -3.10633 0.485218 0
M  V30 4207 N 402.043 -1.548 -0.295768 0
M  V30 4208 C 402.976 -1.81003 -1.38972 0
M  V30 4209 C 403.954 -0.661544 -1.48534 0
M  V30 4210 O 405.138 -0.902074 -1.65514 0
M  V30 4211 C 402.265 -1.95141 -2.76835 0
M  V30 4212 C 401.311 -3.17592 -2.84671 0
M  V30 4213 S 402.144 -4.75531 -2.46232 0
M  V30 4214 C 403.3 -4.92613 -3.86114 0
M  V30 4215 H 403.533 -2.73507 -1.16537 0
M  V30 4216 H 401.066 -1.46278 -0.494168 0
M  V30 4217 H 403.024 -2.03972 -3.56238 0
M  V30 4218 H 401.685 -1.03565 -2.96535 0
M  V30 4219 H 400.878 -3.24303 -3.85803 0
M  V30 4220 H 400.48 -3.07235 -2.13267 0
M  V30 4221 H 402.772 -4.76957 -4.81164 0
M  V30 4222 H 403.715 -5.94698 -3.8437 0
M  V30 4223 H 404.123 -4.2073 -3.76359 0
M  V30 4224 N 403.521 0.559213 -1.47345 0
M  V30 4225 C 404.484 1.64854 -1.59235 0
M  V30 4226 C 405.484 1.53851 -0.467607 0
M  V30 4227 O 406.674 1.58045 -0.732617 0
M  V30 4228 C 403.806 3.04388 -1.53496 0
M  V30 4229 H 404.999 1.55662 -2.56339 0
M  V30 4230 H 402.552 0.778973 -1.35505 0
M  V30 4231 H 403.287 3.19115 -0.577604 0
M  V30 4232 H 403.072 3.13783 -2.35123 0
M  V30 4233 H 404.562 3.83642 -1.6495 0
M  V30 4234 N 404.999 1.35443 0.805782 0
M  V30 4235 C 405.931 1.24285 1.92577 0
M  V30 4236 C 406.944 0.165962 1.61952 0
M  V30 4237 O 408.133 0.419303 1.73505 0
M  V30 4238 C 405.233 0.891272 3.2697 0
M  V30 4239 C 404.406 2.06669 3.85495 0
M  V30 4240 C 403.465 1.69077 4.98297 0
M  V30 4241 O 402.491 2.4096 5.15681 0
M  V30 4242 N 403.693 0.614869 5.77234 0
M  V30 4243 H 406.458 2.20777 2.02676 0
M  V30 4244 H 404.019 1.28623 0.983243 0
M  V30 4245 H 406.011 0.621256 3.99903 0
M  V30 4246 H 404.581 0.016004 3.12596 0
M  V30 4247 H 403.801 2.50046 3.04747 0
M  V30 4248 H 405.089 2.85237 4.21328 0
M  V30 4249 H 404.487 0.017648 5.65697 0
M  V30 4250 H 403.044 0.404636 6.50543 0
M  V30 4251 N 406.477 -1.02803 1.19454 0
M  V30 4252 C 407.724 -1.76217 0.997693 0
M  V30 4253 C 408.052 -1.887 -0.47144 0
M  V30 4254 O 407.307 -1.4011 -1.3663 0
M  V30 4255 C 407.606 -3.18941 1.6128 0
M  V30 4256 C 407.272 -3.26463 3.11019 0
M  V30 4257 C 405.934 -3.28223 3.51885 0
M  V30 4258 C 408.286 -3.25542 4.07028 0
M  V30 4259 C 405.614 -3.26719 4.8731 0
M  V30 4260 C 407.966 -3.25579 5.42385 0
M  V30 4261 C 406.63 -3.25637 5.82681 0
M  V30 4262 H 405.9 -0.644823 0.365082 0
M  V30 4263 H 408.547 -1.20655 1.4871 0
M  V30 4264 H 406.852 -3.77587 1.04572 0
M  V30 4265 H 408.549 -3.74415 1.43577 0
M  V30 4266 H 405.139 -3.25822 2.78457 0
M  V30 4267 H 409.323 -3.23362 3.76498 0
M  V30 4268 H 404.579 -3.25089 5.1781 0
M  V30 4269 H 408.753 -3.23817 6.16535 0
M  V30 4270 H 406.38 -3.24226 6.87591 0
M  V30 4271 N 407.956 -0.998596 -1.21925 0
M  V30 4272 C 409.181 -0.696015 -1.95372 0
M  V30 4273 C 409.606 0.733826 -1.73195 0
M  V30 4274 O 408.964 1.50242 -1.01474 0
M  V30 4275 C 409.012 -1.01466 -3.4603 0
M  V30 4276 O 408.116 -0.116415 -4.12236 0
M  V30 4277 H 407.457 -0.259938 -0.611006 0
M  V30 4278 H 409.987 -1.33711 -1.54863 0
M  V30 4279 H 409.997 -0.958855 -3.96573 0
M  V30 4280 H 408.672 -2.05653 -3.61497 0
M  V30 4281 H 407.249 -0.228193 -3.72201 0
M  V30 4282 N 409.434 1.37368 -0.772513 0
M  V30 4283 C 410.68 1.99969 -0.337681 0
M  V30 4284 C 411.013 1.61184 1.08321 0
M  V30 4285 O 410.288 0.858395 1.74533 0
M  V30 4286 C 410.571 3.56858 -0.482121 0
M  V30 4287 C 410.424 4.0555 -1.94549 0
M  V30 4288 C 411.743 4.39955 0.113143 0
M  V30 4289 H 408.862 0.726464 -0.124171 0
M  V30 4290 H 411.504 1.63034 -0.975699 0
M  V30 4291 H 409.654 3.88452 0.0610361 0
M  V30 4292 H 411.326 3.84518 -2.54841 0
M  V30 4293 H 409.569 3.57715 -2.45403 0
M  V30 4294 H 410.24 5.14587 -1.9976 0
M  V30 4295 H 412.716 4.14623 -0.35031 0
M  V30 4296 H 411.592 5.48897 -0.0180514 0
M  V30 4297 H 411.853 4.25403 1.20354 0
M  V30 4298 N 410.912 0.523116 1.48665 0
M  V30 4299 C 411.842 -0.23231 2.32342 0
M  V30 4300 C 412.823 -0.941637 1.41659 0
M  V30 4301 O 414.008 -0.928751 1.70552 0
M  V30 4302 C 411.138 -1.28387 3.22698 0
M  V30 4303 C 410.092 -0.693098 4.22351 0
M  V30 4304 C 409.418 -1.8468 5.01794 0
M  V30 4305 C 410.718 0.33063 5.21252 0
M  V30 4306 H 412.412 0.466192 2.95748 0
M  V30 4307 H 409.958 0.225643 1.42221 0
M  V30 4308 H 411.911 -1.82024 3.80059 0
M  V30 4309 H 410.635 -2.01186 2.57278 0
M  V30 4310 H 409.294 -0.178299 3.66166 0
M  V30 4311 H 408.942 -2.56301 4.32804 0
M  V30 4312 H 408.642 -1.45747 5.69238 0
M  V30 4313 H 410.166 -2.38709 5.62006 0
M  V30 4314 H 411.58 -0.118407 5.73178 0
M  V30 4315 H 409.977 0.636974 5.9671 0
M  V30 4316 H 411.047 1.23883 4.68808 0
M  V30 4317 N 412.39 -1.55475 0.257931 0
M  V30 4318 C 413.32 -2.24815 -0.630912 0
M  V30 4319 C 414.301 -1.23224 -1.17259 0
M  V30 4320 O 415.486 -1.51904 -1.20991 0
M  V30 4321 C 412.616 -2.95609 -1.82298 0
M  V30 4322 C 411.57 -4.03982 -1.41359 0
M  V30 4323 C 410.896 -4.6226 -2.68738 0
M  V30 4324 C 412.196 -5.19109 -0.57648 0
M  V30 4325 H 413.89 -2.99354 -0.0526878 0
M  V30 4326 H 411.436 -1.4398 -0.023901 0
M  V30 4327 H 413.389 -3.42822 -2.45054 0
M  V30 4328 H 412.113 -2.18577 -2.42676 0
M  V30 4329 H 410.772 -3.57555 -0.809324 0
M  V30 4330 H 410.42 -3.81915 -3.27338 0
M  V30 4331 H 410.12 -5.35424 -2.42065 0
M  V30 4332 H 411.644 -5.12212 -3.32372 0
M  V30 4333 H 413.058 -5.62479 -1.10861 0
M  V30 4334 H 411.455 -5.98729 -0.405351 0
M  V30 4335 H 412.525 -4.83174 0.408776 0
M  V30 4336 N 413.868 0.0150385 -1.57593 0
M  V30 4337 C 415.279 0.559832 -1.78109 0
M  V30 4338 C 415.63 1.74814 -0.890756 0
M  V30 4339 O 414.755 2.16216 -0.0892482 0
M  V30 4340 C 415.35 1.02238 -3.23006 0
M  V30 4341 C 413.909 1.51258 -3.44671 0
M  V30 4342 C 413.056 0.456955 -2.73509 0
M  V30 4343 H 416.007 -0.211169 -1.57289 0
M  V30 4344 H 416.028 1.88912 -3.30292 0
M  V30 4345 H 415.54 0.157302 -3.87781 0
M  V30 4346 H 413.641 2.39905 -2.8509 0
M  V30 4347 H 413.754 1.55042 -4.5332 0
M  V30 4348 H 412.118 0.915196 -2.37689 0
M  V30 4349 H 412.901 -0.398896 -3.40975 0
M  V30 4350 N 415.346 1.54954 0.287554 0
M  V30 4351 C 416.762 1.46469 0.633964 0
M  V30 4352 C 416.962 0.666865 1.90145 0
M  V30 4353 O 416.018 0.179906 2.51858 0
M  V30 4354 C 417.331 2.90556 0.774454 0
M  V30 4355 C 418.879 3.00681 0.869462 0
M  V30 4356 C 419.354 4.45993 1.04184 0
M  V30 4357 N 420.845 4.4976 1.10772 0
M  V30 4358 C 421.58 5.59393 1.25964 0
M  V30 4359 N 421.076 6.78923 1.37968 0
M  V30 4360 N 422.869 5.47107 1.28959 0
M  V30 4361 H 415.02 2.05288 -0.545041 0
M  V30 4362 H 417.283 0.930305 -0.182308 0
M  V30 4363 H 416.989 3.51594 -0.086207 0
M  V30 4364 H 416.863 3.38743 1.6593 0
M  V30 4365 H 419.25 2.39749 1.7206 0
M  V30 4366 H 419.331 2.55769 -0.0396831 0
M  V30 4367 H 418.975 5.07524 0.195422 0
M  V30 4368 H 418.905 4.88548 1.96542 0
M  V30 4369 H 421.396 3.63651 1.02794 0
M  V30 4370 H 421.709 7.58231 1.49353 0
M  V30 4371 H 420.054 6.81763 1.34999 0
M  V30 4372 H 423.245 4.52668 1.19202 0
M  V30 4373 H 423.418 6.32595 1.40455 0
M  V30 4374 N 416.824 -0.551391 1.4764 0
M  V30 4375 C 417.774 -1.65362 1.56969 0
M  V30 4376 C 418.758 -1.55098 0.428189 0
M  V30 4377 O 419.95 -1.63481 0.678441 0
M  V30 4378 C 417.079 -3.04129 1.59249 0
M  V30 4379 C 416.165 -3.19576 2.78804 0
M  V30 4380 N 416.556 -3.05067 4.03445 0
M  V30 4381 C 414.854 -3.50588 2.75688 0
M  V30 4382 C 415.555 -3.2336 4.83543 0
M  V30 4383 N 414.531 -3.4996 4.15968 0
M  V30 4384 H 418.333 -1.52722 2.51104 0
M  V30 4385 H 415.847 -0.756303 1.43714 0
M  V30 4386 H 417.844 -3.83278 1.64024 0
M  V30 4387 H 416.504 -3.17877 0.662148 0
M  V30 4388 H 417.515 -2.82273 4.34215 0
M  V30 4389 H 414.192 -3.70827 1.91817 0
M  V30 4390 H 415.582 -3.17061 5.92387 0
M  V30 4391 O 418.341 -1.45728 -0.696113 0
M  V30 4392 H 419.032 -1.39109 -1.3479 0
M  V30 END ATOM
M  V30 BEGIN BOND
M  V30 END BOND
M  V30 END CTAB
M  END
$$$$
