drugbank_target|Q8I5H4 Polyadenylate-binding protein (DB11638)
 OpenBabel12092121113D

  0  0  0     0  0            999 V3000
M  V30 BEGIN CTAB
M  V30 COUNTS 13413 13517 0 0 0
M  V30 BEGIN ATOM
M  V30 1 H -0.908 1.98254 -0.117106 0
M  V30 2 N 0 1.576 0 0
M  V30 3 C 0.933 2.03868 1.02534 0
M  V30 4 C 1.911 0.928543 1.3348 0
M  V30 5 O 3.095 1.19667 1.45644 0
M  V30 6 C 0.222 2.43627 2.35294 0
M  V30 7 C -0.732 3.65373 2.2001 0
M  V30 8 S 0.101 5.13292 1.52614 0
M  V30 9 C 1.257 5.56322 2.86805 0
M  V30 10 H 1.49 2.90518 0.631377 0
M  V30 11 H -0.977 1.52953 0.210867 0
M  V30 12 H 0.981 2.67203 3.11629 0
M  V30 13 H -0.358 1.57376 2.7183 0
M  V30 14 H -1.165 3.90944 3.18086 0
M  V30 15 H -1.563 3.418 1.51819 0
M  V30 16 H 0.729 5.58782 3.83104 0
M  V30 17 H 1.672 6.56266 2.65933 0
M  V30 18 H 2.08 4.83886 2.90714 0
M  V30 19 N 1.4781 -0.272755 1.55222 0
M  V30 20 C 2.7271 -1.00211 1.75045 0
M  V30 21 C 3.0401 -1.87441 0.559046 0
M  V30 22 O 4.2461 -2.63856 0.639698 0
M  V30 23 C 2.7021 -1.83165 3.09804 0
M  V30 24 C 2.3101 -1.008 4.36513 0
M  V30 25 C 4.0541 -2.55529 3.38977 0
M  V30 26 C 1.9611 -1.83194 5.62311 0
M  V30 27 H 0.8911 -0.377878 0.652476 0
M  V30 28 H 3.5421 -0.257776 1.8168 0
M  V30 29 H 1.9241 -2.61694 2.97207 0
M  V30 30 H 3.0981 -0.266855 4.60027 0
M  V30 31 H 1.4131 -0.398897 4.14485 0
M  V30 32 H 4.0101 -3.17578 4.30172 0
M  V30 33 H 4.3531 -3.25825 2.59121 0
M  V30 34 H 4.8861 -1.84029 3.52673 0
M  V30 35 H 1.6251 -1.17318 6.44916 0
M  V30 36 H 1.1451 -2.54905 5.4294 0
M  V30 37 H 2.8241 -2.40552 6.00619 0
M  V30 38 N 2.9562 -1.48159 -0.537278 0
M  V30 39 C 3.9192 -1.61665 -1.62472 0
M  V30 40 C 4.9192 -0.490395 -1.5314 0
M  V30 41 O 6.1092 -0.755998 -1.5694 0
M  V30 42 C 3.2412 -1.57997 -3.02076 0
M  V30 43 H 4.4342 -2.58621 -1.51839 0
M  V30 44 H 1.9872 -1.36647 -0.758771 0
M  V30 45 H 2.7222 -0.624913 -3.18222 0
M  V30 46 H 2.5072 -2.39755 -3.10258 0
M  V30 47 H 3.9972 -1.70627 -3.81151 0
M  V30 48 N 4.4343 0.785586 -1.36625 0
M  V30 49 C 5.6623 1.57448 -1.3423 0
M  V30 50 C 6.0773 1.88649 0.0755653 0
M  V30 51 O 5.4343 1.50414 1.03354 0
M  V30 52 C 5.4853 2.89316 -2.16745 0
M  V30 53 O 5.2063 2.59459 -3.53005 0
M  V30 54 C 6.7073 3.83606 -2.22174 0
M  V30 55 H 3.9273 0.488226 -0.4603 0
M  V30 56 H 6.4713 0.974733 -1.79775 0
M  V30 57 H 4.6263 3.4575 -1.74745 0
M  V30 58 H 5.0403 3.43804 -3.96105 0
M  V30 59 H 6.5143 4.73181 -2.8426 0
M  V30 60 H 6.9913 4.21734 -1.22627 0
M  V30 61 H 7.5973 3.33104 -2.64427 0
M  V30 62 N 5.9124 1.20967 1.01018 0
M  V30 63 C 7.1604 1.02172 1.74371 0
M  V30 64 C 7.4814 -0.446414 1.89821 0
M  V30 65 O 6.7514 -1.32234 1.44537 0
M  V30 66 H 5.3314 0.375066 0.646014 0
M  V30 67 H 7.9934 1.52187 1.21758 0
M  V30 68 H 7.0894 1.48538 2.74487 0
M  V30 69 N 7.3905 -1.2043 1.01659 0
M  V30 70 C 8.6185 -1.93777 0.725132 0
M  V30 71 C 9.0335 -1.74772 -0.714166 0
M  V30 72 O 8.3905 -1.06169 -1.4844 0
M  V30 73 C 8.4415 -3.45876 1.05129 0
M  V30 74 O 8.1625 -3.6426 2.43406 0
M  V30 75 C 9.6635 -4.36368 0.780891 0
M  V30 76 H 6.8835 -0.615901 0.266284 0
M  V30 77 H 9.4275 -1.52922 1.35776 0
M  V30 78 H 7.5825 -3.8461 0.464065 0
M  V30 79 H 7.9965 -4.58246 2.55169 0
M  V30 80 H 9.4705 -5.41743 1.05918 0
M  V30 81 H 9.9475 -4.38275 -0.284937 0
M  V30 82 H 10.5535 -4.03296 1.35027 0
M  V30 83 N 8.8686 -0.792821 -1.36206 0
M  V30 84 C 9.8166 -0.181555 -2.3189 0
M  V30 85 C 10.8106 0.661025 -1.55971 0
M  V30 86 O 12.0166 0.555728 -1.71206 0
M  V30 87 H 8.3916 -0.0399382 -0.750939 0
M  V30 88 H 10.3626 -1.00394 -2.81005 0
M  V30 89 C 9.1116 0.666444 -3.41253 0
M  V30 90 H 8.4346 0.0274489 -3.99791 0
M  V30 91 H 9.8746 1.06076 -4.10517 0
M  V30 92 C 8.3336 1.82614 -2.83114 0
M  V30 93 O 8.8636 2.9229 -2.75553 0
M  V30 94 N 7.0696 1.63333 -2.40356 0
M  V30 95 H 6.6166 0.741217 -2.46706 0
M  V30 96 H 6.5746 2.41087 -2.01803 0
M  V30 97 N 10.3467 1.47872 -0.545128 0
M  V30 98 C 11.2797 2.2675 0.256885 0
M  V30 99 C 12.2577 1.33293 0.931228 0
M  V30 100 O 13.4417 1.62657 0.95262 0
M  V30 101 C 10.5687 3.09976 1.36501 0
M  V30 102 C 9.6147 4.1892 0.800496 0
M  V30 103 S 10.4477 5.34397 -0.343505 0
M  V30 104 C 11.6037 6.21186 0.766733 0
M  V30 105 H 11.8367 2.94425 -0.412479 0
M  V30 106 H 9.3697 1.50806 -0.331204 0
M  V30 107 H 11.3277 3.585 1.9997 0
M  V30 108 H 9.9887 2.41686 2.00616 0
M  V30 109 H 9.1817 4.76836 1.63227 0
M  V30 110 H 8.7837 3.73215 0.242217 0
M  V30 111 H 11.0757 6.56804 1.66178 0
M  V30 112 H 12.0187 7.07742 0.225204 0
M  V30 113 H 12.4267 5.54574 1.05396 0
M  V30 114 N 11.8248 0.280983 1.55075 0
M  V30 115 C 12.7578 -0.645439 2.18882 0
M  V30 116 C 13.7358 -1.14786 1.15165 0
M  V30 117 O 14.9198 -1.21975 1.43716 0
M  V30 118 C 12.0468 -1.88088 2.81674 0
M  V30 119 C 11.0928 -1.51343 3.98745 0
M  V30 120 S 11.9258 -0.586548 5.32278 0
M  V30 121 C 13.0818 -1.83024 5.98543 0
M  V30 122 H 13.3148 -0.1033 2.9712 0
M  V30 123 H 10.8478 0.0652099 1.54262 0
M  V30 124 H 12.8058 -2.58997 3.18482 0
M  V30 125 H 11.4668 -2.39417 2.03318 0
M  V30 126 H 10.6598 -2.43289 4.41392 0
M  V30 127 H 10.2618 -0.884477 3.63391 0
M  V30 128 H 12.5538 -2.77342 6.18133 0
M  V30 129 H 13.4968 -1.44668 6.93164 0
M  V30 130 H 13.9048 -1.99785 5.27964 0
M  V30 131 N 13.3029 -1.57598 0.00835791 0
M  V30 132 C 14.2529 -2.05431 -0.989045 0
M  V30 133 C 15.2369 -0.950662 -1.29812 0
M  V30 134 O 16.4289 -1.21438 -1.28771 0
M  V30 135 C 13.5579 -2.56801 -2.27833 0
M  V30 136 C 12.6439 -3.74058 -1.99853 0
M  V30 137 N 13.0349 -4.8544 -1.42062 0
M  V30 138 C 11.3329 -3.82148 -2.29953 0
M  V30 139 C 12.0339 -5.66817 -1.30743 0
M  V30 140 N 11.0099 -5.13077 -1.7959 0
M  V30 141 H 14.8119 -2.88955 -0.536853 0
M  V30 142 H 12.3259 -1.61199 -0.197148 0
M  V30 143 H 14.3229 -2.89349 -3.00137 0
M  V30 144 H 12.9829 -1.74699 -2.73698 0
M  V30 145 H 13.9939 -5.0612 -1.09833 0
M  V30 146 H 10.6709 -3.10916 -2.78635 0
M  V30 147 H 12.0609 -6.66343 -0.862328 0
M  V30 148 N 14.781 0.264519 -1.55364 0
M  V30 149 C 16.192 0.834936 -1.6699 0
M  V30 150 C 16.543 1.86718 -0.602552 0
M  V30 151 O 15.668 2.14899 0.254425 0
M  V30 152 C 16.263 1.5212 -3.02729 0
M  V30 153 C 14.822 2.03954 -3.16354 0
M  V30 154 C 13.969 0.884498 -2.62815 0
M  V30 155 H 16.92 0.0406869 -1.58648 0
M  V30 156 H 16.941 2.38853 -2.96191 0
M  V30 157 H 16.453 0.769668 -3.80392 0
M  V30 158 H 14.554 2.82041 -2.43482 0
M  V30 159 H 14.667 2.24902 -4.23032 0
M  V30 160 H 13.031 1.2802 -2.20188 0
M  V30 161 H 13.814 0.14634 -3.42988 0
M  V30 162 N 16.2591 1.48442 0.529413 0
M  V30 163 C 17.4841 1.60406 1.31471 0
M  V30 164 C 17.9091 0.264738 1.86228 0
M  V30 165 O 17.2671 -0.763668 1.64432 0
M  V30 166 C 17.3151 2.65419 2.44101 0
M  V30 167 O 16.4191 2.22618 3.47153 0
M  V30 168 H 15.7601 0.537863 0.389357 0
M  V30 169 H 18.2901 1.94432 0.636965 0
M  V30 170 H 18.3001 2.86709 2.90279 0
M  V30 171 H 16.9751 3.62652 2.03608 0
M  V30 172 H 15.5521 2.11543 3.0709 0
M  V30 173 N 17.7372 -0.778329 1.37039 0
M  V30 174 C 18.9842 -1.53665 1.31884 0
M  V30 175 C 19.3122 -1.9425 -0.0986303 0
M  V30 176 O 18.5672 -1.63832 -1.07041 0
M  V30 177 C 18.8662 -2.81845 2.19768 0
M  V30 178 C 18.5322 -2.60345 3.68146 0
M  V30 179 C 17.1942 -2.5419 4.08584 0
M  V30 180 C 19.5462 -2.40923 4.62175 0
M  V30 181 C 16.8742 -2.26594 5.41177 0
M  V30 182 C 19.2262 -2.14852 5.94997 0
M  V30 183 C 17.8902 -2.07137 6.34547 0
M  V30 184 H 17.1602 -0.562299 0.482598 0
M  V30 185 H 19.8072 -0.897069 1.69189 0
M  V30 186 H 18.1122 -3.50328 1.75436 0
M  V30 187 H 19.8092 -3.39692 2.13097 0
M  V30 188 H 16.3992 -2.65996 3.36072 0
M  V30 189 H 20.5832 -2.44673 4.31797 0
M  V30 190 H 15.8392 -2.19111 5.70789 0
M  V30 191 H 20.0132 -1.98822 6.67415 0
M  V30 192 H 17.6402 -1.85518 7.37216 0
M  V30 193 N 19.2153 -1.21501 -1.00376 0
M  V30 194 C 20.4403 -1.05977 -1.78279 0
M  V30 195 C 20.8653 0.385994 -1.84097 0
M  V30 196 O 20.2233 1.27849 -1.28547 0
M  V30 197 C 20.2713 -1.66302 -3.19963 0
M  V30 198 O 19.3753 -0.909333 -4.0225 0
M  V30 199 H 18.7163 -0.372906 -0.549397 0
M  V30 200 H 21.2463 -1.6107 -1.26165 0
M  V30 201 H 21.2563 -1.70574 -3.70632 0
M  V30 202 H 19.9313 -2.71515 -3.15043 0
M  V30 203 H 18.5083 -0.941795 -3.60811 0
M  V30 204 N 20.6934 1.19889 -1.02296 0
M  V30 205 C 21.9214 1.9339 -0.735399 0
M  V30 206 C 22.3364 1.75148 0.704887 0
M  V30 207 O 21.6934 1.06954 1.47875 0
M  V30 208 C 21.7444 3.45313 -1.06962 0
M  V30 209 O 21.4654 3.62964 -2.45334 0
M  V30 210 C 22.9664 4.35948 -0.804021 0
M  V30 211 H 20.1864 0.61448 -0.269546 0
M  V30 212 H 22.7304 1.522 -1.36585 0
M  V30 213 H 20.8854 3.84359 -0.484455 0
M  V30 214 H 21.2994 4.56886 -2.57595 0
M  V30 215 H 22.7734 5.41174 -1.0879 0
M  V30 216 H 23.2504 4.3842 0.261691 0
M  V30 217 H 23.8564 4.02574 -1.37164 0
M  V30 218 N 22.1715 0.800033 1.35784 0
M  V30 219 C 23.1345 0.211565 2.28221 0
M  V30 220 C 24.1345 -0.59728 1.49296 0
M  V30 221 O 25.3245 -0.416721 1.69142 0
M  V30 222 C 22.4565 -0.705846 3.33513 0
M  V30 223 H 23.6495 1.02677 2.81776 0
M  V30 224 H 21.2025 0.570211 1.45528 0
M  V30 225 H 21.9375 -1.54498 2.85133 0
M  V30 226 H 21.7225 -0.127655 3.91892 0
M  V30 227 H 23.2125 -1.11211 4.02519 0
M  V30 228 N 23.6496 -1.47581 0.552962 0
M  V30 229 C 24.8746 -2.07378 0.0300593 0
M  V30 230 C 25.2996 -1.40355 -1.25229 0
M  V30 231 O 24.6576 -0.477099 -1.7491 0
M  V30 232 C 24.7056 -3.60274 -0.153231 0
M  V30 233 O 23.8096 -3.94041 -1.21678 0
M  V30 234 H 23.1506 -0.662158 0.0494182 0
M  V30 235 H 25.6806 -1.89662 0.767434 0
M  V30 236 H 25.6906 -4.0633 -0.368761 0
M  V30 237 H 24.3656 -4.08455 0.783397 0
M  V30 238 H 22.9426 -3.59735 -0.982079 0
M  V30 239 N 25.1277 -0.289203 -1.54924 0
M  V30 240 C 26.0577 0.58549 -2.2604 0
M  V30 241 C 27.0387 1.14753 -1.25562 0
M  V30 242 O 28.2237 1.17906 -1.54311 0
M  V30 243 C 25.3537 1.76305 -2.99222 0
M  V30 244 C 24.3077 1.33191 -4.06748 0
M  V30 245 C 23.6337 2.5937 -4.6758 0
M  V30 246 C 24.9337 0.471775 -5.20165 0
M  V30 247 H 26.6277 -0.00763532 -2.99399 0
M  V30 248 H 24.1737 -0.00511229 -1.43999 0
M  V30 249 H 26.1267 2.38097 -3.47689 0
M  V30 250 H 24.8507 2.38223 -2.23422 0
M  V30 251 H 23.5097 0.737121 -3.59113 0
M  V30 252 H 23.1577 3.19576 -3.88433 0
M  V30 253 H 22.8577 2.31228 -5.40192 0
M  V30 254 H 24.3817 3.21985 -5.18804 0
M  V30 255 H 25.7957 0.995056 -5.64599 0
M  V30 256 H 24.1927 0.284639 -5.99425 0
M  V30 257 H 25.2627 -0.506041 -4.82252 0
M  V30 258 N 26.6058 1.57591 -0.0167156 0
M  V30 259 C 27.8358 1.95292 0.674149 0
M  V30 260 C 28.2438 0.891097 1.66901 0
M  V30 261 O 27.5868 -0.136908 1.83189 0
M  V30 262 C 27.6488 3.29072 1.44747 0
M  V30 263 C 27.3128 4.52879 0.612331 0
M  V30 264 C 28.3098 5.1979 -0.107126 0
M  V30 265 C 25.9948 4.99242 0.553381 0
M  V30 266 C 27.9888 6.31375 -0.874339 0
M  V30 267 C 25.6758 6.10713 -0.217546 0
M  V30 268 C 26.6738 6.76637 -0.930123 0
M  V30 269 O 26.3618 7.85969 -1.68844 0
M  V30 270 H 26.0938 0.648275 0.191615 0
M  V30 271 H 28.6478 2.05284 -0.0690148 0
M  V30 272 H 26.8778 3.15535 2.2355 0
M  V30 273 H 28.5668 3.51764 2.02526 0
M  V30 274 H 29.3328 4.84948 -0.0708392 0
M  V30 275 H 25.2118 4.47744 1.09757 0
M  V30 276 H 28.7558 6.82764 -1.43106 0
M  V30 277 H 24.6528 6.44994 -0.255593 0
M  V30 278 H 25.4208 8.02571 -1.6069 0
M  V30 279 N 28.0839 -0.256276 1.55502 0
M  V30 280 C 29.3299 -0.987079 1.77157 0
M  V30 281 C 29.6629 -1.85327 0.580315 0
M  V30 282 O 28.9379 -1.89874 -0.421686 0
M  V30 283 C 29.2209 -1.85553 3.08613 0
M  V30 284 C 29.0739 -1.01816 4.38125 0
M  V30 285 C 30.3929 -2.8397 3.36228 0
M  V30 286 H 27.5119 -0.357428 0.644526 0
M  V30 287 H 30.1539 -0.258239 1.88237 0
M  V30 288 H 28.3039 -2.47695 2.99298 0
M  V30 289 H 29.9759 -0.416159 4.59419 0
M  V30 290 H 28.2189 -0.322178 4.32602 0
M  V30 291 H 28.8899 -1.65939 5.26468 0
M  V30 292 H 31.3659 -2.31964 3.45445 0
M  V30 293 H 30.2419 -3.41864 4.29442 0
M  V30 294 H 30.5029 -3.59955 2.56681 0
M  V30 295 N 29.562 -1.4872 -0.521534 0
M  V30 296 C 30.81 -1.56857 -1.27437 0
M  V30 297 C 31.131 -0.247982 -1.93417 0
M  V30 298 O 30.401 0.731151 -1.81744 0
M  V30 299 H 28.981 -0.577885 -0.473347 0
M  V30 300 H 31.643 -1.85233 -0.606205 0
M  V30 301 H 30.739 -2.35402 -2.0492 0
M  V30 302 N 31.0401 0.771051 -1.3745 0
M  V30 303 C 32.3171 1.519 -1.23231 0
M  V30 304 C 32.6971 2.10383 0.173809 0
M  V30 305 O 32.0451 1.95583 1.18151 0
M  V30 306 C 32.2551 2.59933 -2.32886 0
M  V30 307 C 33.6031 3.27316 -2.70461 0
M  V30 308 O 34.6271 2.70228 -2.32068 0
M  V30 309 O 33.4861 4.30531 -3.36608 0
M  V30 310 H 30.5801 0.672803 -0.480901 0
M  V30 311 H 33.1261 0.807957 -1.49232 0
M  V30 312 H 31.8981 2.14842 -3.27045 0
M  V30 313 H 31.5211 3.38637 -2.08353 0
M  V30 314 N 32.5182 1.22032 0.997298 0
M  V30 315 C 33.4482 1.01065 2.10495 0
M  V30 316 C 34.4292 -0.0669542 1.69968 0
M  V30 317 O 35.6142 0.0943987 1.9397 0
M  V30 318 C 32.7442 0.582874 3.42374 0
M  V30 319 C 31.6982 1.60592 3.96729 0
M  V30 320 C 31.0242 1.03412 5.24605 0
M  V30 321 C 32.3242 2.99478 4.27914 0
M  V30 322 H 34.0182 1.93708 2.28292 0
M  V30 323 H 31.5642 0.932761 1.09707 0
M  V30 324 H 33.5172 0.423332 4.19268 0
M  V30 325 H 32.2412 -0.379213 3.24391 0
M  V30 326 H 30.9002 1.75316 3.21963 0
M  V30 327 H 30.5482 0.063518 5.0296 0
M  V30 328 H 30.2482 1.71754 5.61938 0
M  V30 329 H 31.7722 0.886066 6.04137 0
M  V30 330 H 33.1862 2.88153 4.95622 0
M  V30 331 H 31.5832 3.64903 4.76409 0
M  V30 332 H 32.6532 3.49742 3.3587 0
M  V30 333 N 33.9963 -1.19345 1.0293 0
M  V30 334 C 34.9443 -2.24621 0.604001 0
M  V30 335 C 35.9383 -1.65452 -0.363587 0
M  V30 336 O 37.1443 -1.78497 -0.23212 0
M  V30 337 H 33.5193 -0.730858 0.177061 0
M  V30 338 H 35.4903 -2.5781 1.50255 0
M  V30 339 C 34.2393 -3.47688 -0.0289127 0
M  V30 340 H 33.5623 -3.93505 0.706651 0
M  V30 341 H 35.0023 -4.23011 -0.289432 0
M  V30 342 C 33.4613 -3.11817 -1.2756 0
M  V30 343 O 33.9913 -3.2451 -2.36762 0
M  V30 344 N 32.1973 -2.66246 -1.16453 0
M  V30 345 H 31.7443 -2.56118 -0.275914 0
M  V30 346 H 31.7023 -2.42617 -1.99961 0
M  V30 347 N 35.4744 -0.807222 -1.35358 0
M  V30 348 C 36.3844 -0.219594 -2.3357 0
M  V30 349 C 37.4004 0.637734 -1.61892 0
M  V30 350 O 38.5764 0.549336 -1.93763 0
M  V30 351 C 35.6414 0.62158 -3.41083 0
M  V30 352 C 34.7024 -0.256315 -4.28534 0
M  V30 353 C 33.9354 0.544807 -5.30912 0
M  V30 354 O 34.1584 1.77944 -5.41934 0
M  V30 355 O 33.0924 -0.0646478 -6.01865 0
M  V30 356 H 36.9184 -1.03208 -2.85625 0
M  V30 357 H 34.5034 -0.569025 -1.38139 0
M  V30 358 H 36.3854 1.10067 -4.06772 0
M  V30 359 H 35.0604 1.41165 -2.91297 0
M  V30 360 H 33.9674 -0.782559 -3.65823 0
M  V30 361 H 35.3004 -1.01034 -4.81719 0
M  V30 362 N 36.9525 1.47285 -0.560781 0
M  V30 363 C 38.2295 1.9558 0.0277798 0
M  V30 364 C 38.6095 1.5034 1.48192 0
M  V30 365 O 37.9575 0.743882 2.16052 0
M  V30 366 C 38.1675 3.48789 -0.121418 0
M  V30 367 C 39.5155 4.24594 0.0220912 0
M  V30 368 O 40.5395 3.56166 -0.0491439 0
M  V30 369 O 39.3985 5.46217 0.175958 0
M  V30 370 H 36.4925 0.824663 0.0621342 0
M  V30 371 H 39.0385 1.5767 -0.627556 0
M  V30 372 H 37.8105 3.74533 -1.13316 0
M  V30 373 H 37.4335 3.93473 0.571366 0
M  V30 374 N 38.4306 0.297415 1.54768 0
M  V30 375 C 39.6766 -0.313376 2.00364 0
M  V30 376 C 40.0096 -1.53815 1.18553 0
M  V30 377 O 39.2846 -1.92739 0.261103 0
M  V30 378 C 39.5676 -0.673525 3.53745 0
M  V30 379 C 39.4206 0.560133 4.46299 0
M  V30 380 C 40.7396 -1.50143 4.13697 0
M  V30 381 H 37.8586 -0.112428 0.728374 0
M  V30 382 H 40.5006 0.4088 1.8555 0
M  V30 383 H 38.6506 -1.28881 3.665 0
M  V30 384 H 40.3226 1.19863 4.45455 0
M  V30 385 H 38.5656 1.19405 4.17043 0
M  V30 386 H 39.2366 0.26405 5.51368 0
M  V30 387 H 41.7126 -0.981588 4.04356 0
M  V30 388 H 40.5886 -1.72221 5.21182 0
M  V30 389 H 40.8496 -2.48952 3.65343 0
M  V30 390 N 39.9087 -1.5758 0.0250728 0
M  V30 391 C 41.1367 -1.9593 -0.664747 0
M  V30 392 C 41.5517 -0.901352 -1.65895 0
M  V30 393 O 40.9087 0.117255 -1.82123 0
M  V30 394 C 40.9597 -3.34342 -1.37468 0
M  V30 395 O 40.6807 -4.36079 -0.420324 0
M  V30 396 C 42.1817 -3.873 -2.1567 0
M  V30 397 H 39.4017 -0.645405 -0.183557 0
M  V30 398 H 41.9457 -2.04329 0.0836372 0
M  V30 399 H 40.1007 -3.27175 -2.0745 0
M  V30 400 H 40.5147 -5.16297 -0.923991 0
M  V30 401 H 41.9887 -4.86504 -2.60803 0
M  V30 402 H 42.4657 -3.21331 -2.99405 0
M  V30 403 H 43.0717 -3.97723 -1.50654 0
M  V30 404 N 41.3868 0.248026 -1.55636 0
M  V30 405 C 42.2968 1.32859 -1.93354 0
M  V30 406 C 43.3128 1.52719 -0.833838 0
M  V30 407 O 44.4888 1.66363 -1.13513 0
M  V30 408 C 41.5538 2.66337 -2.21958 0
M  V30 409 C 40.6148 2.55008 -3.45354 0
M  V30 410 C 39.8478 3.82121 -3.72584 0
M  V30 411 O 40.0708 4.83951 -3.01907 0
M  V30 412 O 39.0048 3.80822 -4.6611 0
M  V30 413 H 42.8308 1.03862 -2.85388 0
M  V30 414 H 40.4158 0.448686 -1.42503 0
M  V30 415 H 42.2978 3.45216 -2.4167 0
M  V30 416 H 40.9728 2.95068 -1.33103 0
M  V30 417 H 39.8798 1.7442 -3.30951 0
M  V30 418 H 41.2128 2.31222 -4.34508 0
M  V30 419 N 42.8649 1.48995 0.513639 0
M  V30 420 C 43.8279 1.64229 1.59879 0
M  V30 421 C 44.8279 0.514696 1.5234 0
M  V30 422 O 46.0179 0.78087 1.55718 0
M  V30 423 C 43.1499 1.62783 2.99524 0
M  V30 424 H 44.3429 2.61004 1.47705 0
M  V30 425 H 41.8959 1.37837 0.736936 0
M  V30 426 H 42.6309 0.675461 3.17188 0
M  V30 427 H 42.4159 2.4466 3.06404 0
M  V30 428 H 43.9059 1.76669 3.78388 0
M  V30 429 N 44.343 -0.763751 1.37857 0
M  V30 430 C 45.589 -1.52483 1.33704 0
M  V30 431 C 45.922 -1.94051 -0.0759612 0
M  V30 432 O 45.197 -1.64675 -1.03501 0
M  V30 433 C 45.48 -2.78441 2.28348 0
M  V30 434 C 45.333 -2.43075 3.78463 0
M  V30 435 C 46.652 -3.80415 2.21298 0
M  V30 436 H 43.771 -0.553169 0.487005 0
M  V30 437 H 46.413 -0.875562 1.68624 0
M  V30 438 H 44.563 -3.33842 1.987 0
M  V30 439 H 46.235 -1.93527 4.18742 0
M  V30 440 H 44.478 -1.75666 3.96641 0
M  V30 441 H 45.149 -3.33149 4.40132 0
M  V30 442 H 47.625 -3.34527 2.47449 0
M  V30 443 H 46.501 -4.66257 2.89647 0
M  V30 444 H 46.762 -4.25262 1.20849 0
M  V30 445 N 45.8211 -1.22559 -0.990812 0
M  V30 446 C 46.7511 -1.0218 -2.09956 0
M  V30 447 C 47.7321 0.0579394 -1.70001 0
M  V30 448 O 48.9171 -0.104684 -1.93918 0
M  V30 449 C 46.0471 -0.601023 -3.4206 0
M  V30 450 C 45.0011 -1.62694 -3.95872 0
M  V30 451 C 44.3271 -1.06193 -5.24049 0
M  V30 452 C 45.6271 -3.01743 -4.2632 0
M  V30 453 H 47.3211 -1.94916 -2.27262 0
M  V30 454 H 44.8671 -0.938566 -1.09211 0
M  V30 455 H 46.8201 -0.445561 -4.19038 0
M  V30 456 H 45.5441 0.362005 -3.24588 0
M  V30 457 H 44.2031 -1.77021 -3.21028 0
M  V30 458 H 43.8511 -0.0901903 -5.02919 0
M  V30 459 H 43.5511 -1.74732 -5.61019 0
M  V30 460 H 45.0751 -0.918092 -6.03658 0
M  V30 461 H 46.4891 -2.90777 -4.94087 0
M  V30 462 H 44.8861 -3.67425 -4.74467 0
M  V30 463 H 45.9561 -3.51518 -3.34011 0
M  V30 464 N 47.2992 1.18797 -1.03562 0
M  V30 465 C 48.5292 1.92319 -0.754773 0
M  V30 466 C 48.9372 1.7612 0.691248 0
M  V30 467 O 48.2802 1.08491 1.48241 0
M  V30 468 C 48.3422 3.44284 -1.03484 0
M  V30 469 C 48.0062 3.84258 -2.47376 0
M  V30 470 C 49.0032 3.88459 -3.45537 0
M  V30 471 C 46.6882 4.15701 -2.81954 0
M  V30 472 C 48.6822 4.23545 -4.76328 0
M  V30 473 C 46.3692 4.50458 -4.12954 0
M  V30 474 C 47.3672 4.54356 -5.09951 0
M  V30 475 O 47.0552 4.88305 -6.38603 0
M  V30 476 H 46.7872 0.617527 -0.275021 0
M  V30 477 H 49.3412 1.51683 -1.38497 0
M  V30 478 H 47.5712 3.85135 -0.347513 0
M  V30 479 H 49.2602 3.99049 -0.7426 0
M  V30 480 H 50.0262 3.6431 -3.20162 0
M  V30 481 H 45.9052 4.11847 -2.0713 0
M  V30 482 H 49.4492 4.26502 -5.52035 0
M  V30 483 H 45.3462 4.74067 -4.38099 0
M  V30 484 H 46.1142 5.06227 -6.43177 0
M  V30 485 N 48.7773 0.814389 1.34928 0
M  V30 486 C 49.6873 0.231978 2.3345 0
M  V30 487 C 50.7033 -0.629139 1.62228 0
M  V30 488 O 51.8793 -0.539052 1.94052 0
M  V30 489 C 48.9443 -0.603482 3.41407 0
M  V30 490 C 48.0053 0.279037 4.28392 0
M  V30 491 C 47.2383 -0.516643 5.31193 0
M  V30 492 O 47.4613 -1.75068 5.4287 0
M  V30 493 O 46.3953 0.0965652 6.01823 0
M  V30 494 H 50.2213 1.04721 2.85074 0
M  V30 495 H 47.8063 0.576343 1.37836 0
M  V30 496 H 49.6883 -1.07908 4.0735 0
M  V30 497 H 48.3633 -1.39618 2.92042 0
M  V30 498 H 47.2703 0.801948 3.65403 0
M  V30 499 H 48.6033 1.03588 4.81176 0
M  V30 500 N 50.2554 -1.46986 0.568584 0
M  V30 501 C 51.5044 -2.01646 0.0465894 0
M  V30 502 C 51.8174 -1.44721 -1.31587 0
M  V30 503 O 53.0234 -1.91113 -1.92842 0
M  V30 504 C 51.4794 -3.59885 0.032752 0
M  V30 505 C 51.0874 -4.25804 1.39266 0
M  V30 506 C 52.8314 -4.22255 -0.436038 0
M  V30 507 C 50.7384 -5.76081 1.33732 0
M  V30 508 H 49.6684 -0.753876 0.013647 0
M  V30 509 H 52.3194 -1.68864 0.718131 0
M  V30 510 H 50.7014 -3.8968 -0.704669 0
M  V30 511 H 51.8754 -4.07637 2.1487 0
M  V30 512 H 50.1904 -3.7547 1.80032 0
M  V30 513 H 52.7874 -5.32394 -0.49602 0
M  V30 514 H 53.1304 -3.90212 -1.45053 0
M  V30 515 H 53.6634 -3.97033 0.246877 0
M  V30 516 H 50.4024 -6.12761 2.32817 0
M  V30 517 H 49.9224 -5.96553 0.623267 0
M  V30 518 H 51.6014 -6.38518 1.0442 0
M  V30 519 N 51.7335 -0.305618 -1.54608 0
M  V30 520 C 52.9805 0.302298 -2.00231 0
M  V30 521 C 53.3085 1.5354 -1.19398 0
M  V30 522 O 52.5635 1.93973 -0.259423 0
M  V30 523 C 52.8625 0.698983 -3.50498 0
M  V30 524 C 52.5285 -0.432903 -4.48817 0
M  V30 525 C 51.1905 -0.743622 -4.75419 0
M  V30 526 C 53.5425 -1.19409 -5.07337 0
M  V30 527 C 50.8705 -1.81857 -5.57804 0
M  V30 528 C 53.2225 -2.25899 -5.90891 0
M  V30 529 C 51.8865 -2.57572 -6.15803 0
M  V30 530 H 51.1565 0.110619 -0.732697 0
M  V30 531 H 53.8035 -0.425674 -1.86709 0
M  V30 532 H 52.1085 1.50711 -3.61654 0
M  V30 533 H 53.8055 1.1806 -3.83227 0
M  V30 534 H 50.3955 -0.18063 -4.28219 0
M  V30 535 H 54.5795 -0.967295 -4.86782 0
M  V30 536 H 49.8355 -2.06864 -5.75341 0
M  V30 537 H 54.0095 -2.85335 -6.35261 0
M  V30 538 H 51.6365 -3.40998 -6.7943 0
M  V30 539 N 53.2116 1.57565 -0.0334293 0
M  V30 540 C 54.1596 2.1164 0.96496 0
M  V30 541 C 55.1536 1.04398 1.33407 0
M  V30 542 O 56.3596 1.22828 1.3158 0
M  V30 543 H 52.7346 0.676222 0.32898 0
M  V30 544 H 54.7056 2.94455 0.483614 0
M  V30 545 C 53.4546 2.66207 2.23672 0
M  V30 546 H 52.7776 3.48378 1.96145 0
M  V30 547 H 54.2176 3.07685 2.9173 0
M  V30 548 C 52.6766 1.59151 2.96939 0
M  V30 549 O 53.2066 0.993858 3.89211 0
M  V30 550 N 51.4126 1.31093 2.59351 0
M  V30 551 H 50.9596 1.7988 1.84393 0
M  V30 552 H 50.9176 0.596889 3.08682 0
M  V30 553 N 54.6897 -0.239769 1.55765 0
M  V30 554 C 55.9177 -0.98417 1.81994 0
M  V30 555 C 56.3327 -1.7867 0.610124 0
M  V30 556 O 55.6897 -1.77571 -0.421271 0
M  V30 557 C 55.7407 -1.91635 3.06526 0
M  V30 558 O 55.4617 -1.14629 4.22838 0
M  V30 559 C 56.9627 -2.77616 3.45607 0
M  V30 560 H 54.1827 -0.28928 0.605441 0
M  V30 561 H 56.7267 -0.260499 2.02834 0
M  V30 562 H 54.8817 -2.5942 2.87715 0
M  V30 563 H 55.2957 -1.77745 4.93464 0
M  V30 564 H 56.7697 -3.38759 4.35828 0
M  V30 565 H 57.2467 -3.4909 2.6652 0
M  V30 566 H 57.8527 -2.15271 3.66795 0
M  V30 567 N 56.1678 -1.49265 -0.50573 0
M  V30 568 C 57.4138 -1.58748 -1.26202 0
M  V30 569 C 57.7468 -0.271227 -1.92297 0
M  V30 570 O 57.0218 0.724831 -1.80489 0
M  V30 571 C 57.3048 -2.74332 -2.33268 0
M  V30 572 C 57.1578 -4.15737 -1.71705 0
M  V30 573 C 58.4768 -2.85576 -3.34865 0
M  V30 574 H 55.5958 -0.577826 -0.457478 0
M  V30 575 H 58.2378 -1.81532 -0.560897 0
M  V30 576 H 56.3878 -2.55036 -2.93068 0
M  V30 577 H 58.0598 -4.46537 -1.15769 0
M  V30 578 H 56.3028 -4.21605 -1.02135 0
M  V30 579 H 56.9738 -4.92477 -2.49341 0
M  V30 580 H 59.4498 -3.03127 -2.8505 0
M  V30 581 H 58.3258 -3.68135 -4.07146 0
M  V30 582 H 58.5868 -1.94732 -3.96903 0
M  V30 583 N 57.6459 0.756429 -1.3826 0
M  V30 584 C 58.8939 1.51248 -1.34047 0
M  V30 585 C 59.2149 1.94875 0.0698372 0
M  V30 586 O 58.4849 1.67436 1.01696 0
M  V30 587 H 57.0649 0.561018 -0.493222 0
M  V30 588 H 59.7269 0.899347 -1.7291 0
M  V30 589 H 58.8229 2.40472 -1.98947 0
M  V30 590 N 59.124 1.23083 0.984299 0
M  V30 591 C 60.074 0.975749 2.06066 0
M  V30 592 C 61.058 -0.0768251 1.60716 0
M  V30 593 O 62.25 0.134805 1.76486 0
M  V30 594 C 59.379 0.564673 3.38624 0
M  V30 595 C 58.465 1.65244 3.90583 0
M  V30 596 N 58.856 2.88193 4.15666 0
M  V30 597 C 57.154 1.52612 4.19077 0
M  V30 598 C 57.855 3.58593 4.58024 0
M  V30 599 N 56.831 2.86093 4.62225 0
M  V30 600 H 60.633 1.90957 2.23411 0
M  V30 601 H 58.147 1.12963 1.16675 0
M  V30 602 H 60.144 0.36322 4.15315 0
M  V30 603 H 58.804 -0.362147 3.22674 0
M  V30 604 H 59.815 3.24537 4.03604 0
M  V30 605 H 56.492 0.666121 4.12152 0
M  V30 606 H 57.882 4.63974 4.85982 0
M  V30 607 N 60.6021 -1.18246 1.0419 0
M  V30 608 C 61.8481 -1.88536 0.747122 0
M  V30 609 C 62.1811 -1.80223 -0.723409 0
M  V30 610 O 61.4561 -1.20337 -1.52804 0
M  V30 611 C 61.7391 -3.38968 1.21544 0
M  V30 612 C 61.5921 -3.56084 2.74816 0
M  V30 613 C 62.9111 -4.32648 0.806482 0
M  V30 614 H 60.0301 -0.684619 0.272883 0
M  V30 615 H 62.6721 -1.39113 1.29413 0
M  V30 616 H 60.8221 -3.8119 0.750081 0
M  V30 617 H 62.4941 -3.22946 3.29399 0
M  V30 618 H 60.7371 -2.98699 3.14582 0
M  V30 619 H 61.4081 -4.61639 3.02644 0
M  V30 620 H 63.8841 -3.98211 1.20695 0
M  V30 621 H 62.7601 -5.36462 1.1619 0
M  V30 622 H 63.0211 -4.41146 -0.29029 0
M  V30 623 N 62.0802 -0.821533 -1.34494 0
M  V30 624 C 63.3052 -0.420873 -2.03085 0
M  V30 625 C 63.7302 0.964915 -1.61465 0
M  V30 626 O 63.0882 1.62763 -0.798607 0
M  V30 627 C 63.1362 -0.529414 -3.56693 0
M  V30 628 O 62.2402 0.451302 -4.09923 0
M  V30 629 H 61.5812 -0.173489 -0.640935 0
M  V30 630 H 64.1112 -1.11157 -1.71771 0
M  V30 631 H 64.1212 -0.404671 -4.05988 0
M  V30 632 H 62.7962 -1.54014 -3.86332 0
M  V30 633 H 61.3732 0.285558 -3.71805 0
M  V30 634 N 63.5583 1.46682 -0.576371 0
M  V30 635 C 64.7833 2.07304 -0.0630475 0
M  V30 636 C 65.2083 1.42329 1.2298 0
M  V30 637 O 64.5663 0.504865 1.74129 0
M  V30 638 C 64.6143 3.60472 0.095895 0
M  V30 639 O 63.7183 3.95927 1.15394 0
M  V30 640 H 63.0593 0.661288 -0.0599463 0
M  V30 641 H 65.5893 1.88417 -0.797511 0
M  V30 642 H 65.5993 4.06865 0.304071 0
M  V30 643 H 64.2743 4.07157 -0.84828 0
M  V30 644 H 62.8513 3.61252 0.924724 0
M  V30 645 N 65.0364 0.313813 1.54444 0
M  V30 646 C 66.2854 -0.292519 1.99568 0
M  V30 647 C 66.5984 -1.54011 1.20582 0
M  V30 648 O 67.8044 -2.22183 1.56035 0
M  V30 649 C 66.2604 -0.571752 3.55329 0
M  V30 650 C 65.8684 0.658229 4.43138 0
M  V30 651 C 67.6124 -1.13857 4.08946 0
M  V30 652 C 65.5194 0.351439 5.90355 0
M  V30 653 H 64.4494 -0.113079 0.745472 0
M  V30 654 H 67.1004 0.424518 1.78522 0
M  V30 655 H 65.4824 -1.34872 3.72325 0
M  V30 656 H 66.6564 1.43403 4.37918 0
M  V30 657 H 64.9714 1.14458 4.0036 0
M  V30 658 H 67.5684 -1.38257 5.16516 0
M  V30 659 H 67.9114 -2.08489 3.6033 0
M  V30 660 H 68.4444 -0.423015 3.95544 0
M  V30 661 H 65.1834 1.26667 6.43145 0
M  V30 662 H 64.7034 -0.386842 5.98551 0
M  V30 663 H 66.3824 -0.0423134 6.46986 0
M  V30 664 N 66.5145 -1.57545 0.0417849 0
M  V30 665 C 67.9305 -1.56467 -0.314704 0
M  V30 666 C 68.1305 -1.04859 -1.72066 0
M  V30 667 O 67.1865 -0.700983 -2.42575 0
M  V30 668 C 68.4995 -3.00317 -0.15174 0
M  V30 669 C 70.0475 -3.12201 -0.223553 0
M  V30 670 C 70.5225 -4.57913 -0.0892295 0
M  V30 671 N 72.0135 -4.6297 -0.145808 0
M  V30 672 C 72.7485 -5.73362 -0.0658459 0
M  V30 673 N 72.2445 -6.92769 0.0659282 0
M  V30 674 N 74.0375 -5.6197 -0.12075 0
M  V30 675 H 66.1885 -1.89416 0.961014 0
M  V30 676 H 68.4515 -0.871862 0.372237 0
M  V30 677 H 68.1575 -3.42073 0.817254 0
M  V30 678 H 68.0315 -3.65892 -0.916692 0
M  V30 679 H 70.4185 -2.70349 -1.18301 0
M  V30 680 H 70.4995 -2.49323 0.571994 0
M  V30 681 H 70.1435 -5.00448 0.866867 0
M  V30 682 H 70.0735 -5.18786 -0.903802 0
M  V30 683 H 72.5645 -3.7709 -0.247286 0
M  V30 684 H 72.8775 -7.72707 0.119905 0
M  V30 685 H 71.2225 -6.94927 0.100885 0
M  V30 686 H 74.4135 -4.67572 -0.222187 0
M  V30 687 H 74.5865 -6.47977 -0.0549735 0
M  V30 688 N 67.9926 0.231505 -1.5589 0
M  V30 689 C 69.2386 0.95877 -1.78705 0
M  V30 690 C 69.5716 1.8438 -0.609725 0
M  V30 691 O 68.8466 1.90521 0.391426 0
M  V30 692 C 69.1296 1.8062 -3.11526 0
M  V30 693 C 68.9826 0.948328 -4.39689 0
M  V30 694 C 70.3016 2.78585 -3.40703 0
M  V30 695 H 67.4206 0.347129 -0.650131 0
M  V30 696 H 70.0626 0.228259 -1.88624 0
M  V30 697 H 68.2126 2.42902 -3.03201 0
M  V30 698 H 69.8846 0.343016 -4.60023 0
M  V30 699 H 68.1276 0.253314 -4.3306 0
M  V30 700 H 68.7986 1.57543 -5.29041 0
M  V30 701 H 71.2746 2.26439 -3.49091 0
M  V30 702 H 70.1506 3.34988 -4.34826 0
M  V30 703 H 70.4116 3.55825 -2.62375 0
M  V30 704 N 69.4707 1.49531 0.497807 0
M  V30 705 C 70.7107 1.60799 1.26187 0
M  V30 706 C 71.0747 0.289627 1.89803 0
M  V30 707 O 72.2757 0.277512 2.67364 0
M  V30 708 C 70.5467 2.73729 2.29798 0
M  V30 709 S 72.1057 3.04968 3.155 0
M  V30 710 H 68.9237 0.567145 0.428798 0
M  V30 711 H 71.5257 1.87204 0.563477 0
M  V30 712 H 70.2297 3.68036 1.81597 0
M  V30 713 H 69.7607 2.49328 3.04301 0
M  V30 714 H 71.7757 2.46735 4.30507 0
M  V30 715 N 70.9488 -0.749086 1.3866 0
M  V30 716 C 72.3648 -1.05276 1.19955 0
M  V30 717 C 72.5648 -2.01435 0.05134 0
M  V30 718 O 71.6208 -2.45232 -0.60147 0
M  V30 719 C 72.9338 -1.62853 2.52783 0
M  V30 720 C 74.4818 -1.75002 2.59506 0
M  V30 721 C 74.9568 -2.35991 3.92521 0
M  V30 722 N 76.4478 -2.43416 3.94085 0
M  V30 723 C 77.1828 -2.91511 4.9377 0
M  V30 724 N 76.6788 -3.39608 6.03853 0
M  V30 725 N 78.4718 -2.90592 4.81157 0
M  V30 726 H 70.6228 -0.111066 2.12109 0
M  V30 727 H 72.8858 -0.111901 0.941373 0
M  V30 728 H 72.5918 -0.99664 3.37283 0
M  V30 729 H 72.4658 -2.61854 2.715 0
M  V30 730 H 74.8528 -2.37317 1.75398 0
M  V30 731 H 74.9338 -0.74693 2.44652 0
M  V30 732 H 74.5778 -1.74308 4.77053 0
M  V30 733 H 74.5078 -3.3695 4.04688 0
M  V30 734 H 76.9988 -2.09405 3.14576 0
M  V30 735 H 77.3118 -3.74775 6.75843 0
M  V30 736 H 75.6568 -3.37653 6.07466 0
M  V30 737 H 78.8478 -2.52332 3.94267 0
M  V30 738 H 79.0208 -3.27762 5.58996 0
M  V30 739 N 72.4269 -1.23603 -0.977757 0
M  V30 740 C 73.7039 -0.977897 -1.69401 0
M  V30 741 C 74.0839 0.502738 -2.05026 0
M  V30 742 O 73.4319 1.47459 -1.74551 0
M  V30 743 C 73.6419 -1.89077 -2.93345 0
M  V30 744 C 74.9899 -2.15579 -3.65802 0
M  V30 745 O 76.0139 -1.86648 -3.03383 0
M  V30 746 O 74.8729 -2.64658 -4.78141 0
M  V30 747 H 71.9669 -0.369025 -0.740101 0
M  V30 748 H 74.5129 -1.34657 -1.03274 0
M  V30 749 H 73.2849 -2.89158 -2.63634 0
M  V30 750 H 72.9079 -1.52463 -3.67207 0
M  V30 751 N 73.905 1.17692 -1.04816 0
M  V30 752 C 75.13 1.92327 -0.776207 0
M  V30 753 C 75.555 1.76082 0.661581 0
M  V30 754 O 74.913 1.076 1.45917 0
M  V30 755 C 74.961 3.41539 -1.15687 0
M  V30 756 O 74.065 4.11402 -0.286775 0
M  V30 757 H 73.406 0.599735 -0.284981 0
M  V30 758 H 75.936 1.49201 -1.4 0
M  V30 759 H 75.946 3.92269 -1.12202 0
M  V30 760 H 74.621 3.52684 -2.20425 0
M  V30 761 H 73.198 3.70939 -0.381903 0
M  V30 762 N 75.3831 0.828654 1.34056 0
M  V30 763 C 76.6291 0.42008 1.98402 0
M  V30 764 C 76.9621 -1.01564 1.65525 0
M  V30 765 O 76.2371 -1.70834 0.929831 0
M  V30 766 C 76.5201 0.62927 3.54559 0
M  V30 767 C 76.3731 2.11152 3.97159 0
M  V30 768 C 77.6921 0.0688756 4.40046 0
M  V30 769 H 74.8111 0.154104 0.720709 0
M  V30 770 H 77.4531 1.04228 1.5886 0
M  V30 771 H 75.6031 0.0996418 3.88372 0
M  V30 772 H 77.2751 2.70522 3.73651 0
M  V30 773 H 75.5181 2.59985 3.47261 0
M  V30 774 H 76.1891 2.20868 5.05887 0
M  V30 775 H 78.6651 0.521458 4.1282 0
M  V30 776 H 77.5411 0.245006 5.48353 0
M  V30 777 H 77.8021 -1.0266 4.30015 0
M  V30 778 N 76.8612 -1.46375 0.584142 0
M  V30 779 C 78.0892 -2.06761 0.0759296 0
M  V30 780 C 78.5042 -1.43266 -1.22965 0
M  V30 781 O 77.8612 -0.538458 -1.74376 0
M  V30 782 C 77.9122 -3.61375 -0.0950384 0
M  V30 783 O 77.6332 -4.22495 1.15887 0
M  V30 784 C 79.1342 -4.38693 -0.637434 0
M  V30 785 H 76.3542 -0.668479 0.0581075 0
M  V30 786 H 78.8982 -1.8798 0.805218 0
M  V30 787 H 77.0532 -3.79578 -0.774554 0
M  V30 788 H 77.4672 -5.15385 0.973598 0
M  V30 789 H 78.9412 -5.47464 -0.706237 0
M  V30 790 H 79.4182 -4.06836 -1.65472 0
M  V30 791 H 80.0242 -4.25299 0.00725967 0
M  V30 792 N 78.3393 -0.321999 -1.54275 0
M  V30 793 C 79.7553 0.0306999 -1.5957 0
M  V30 794 C 79.9553 1.50614 -1.33857 0
M  V30 795 O 79.0113 2.2619 -1.12223 0
M  V30 796 C 80.3243 -0.386122 -2.98211 0
M  V30 797 C 81.8723 -0.336647 -3.11184 0
M  V30 798 C 82.3473 -0.728607 -4.52167 0
M  V30 799 N 83.8383 -0.681952 -4.58152 0
M  V30 800 C 84.5733 -0.957449 -5.6535 0
M  V30 801 N 84.0693 -1.3 -6.80494 0
M  V30 802 N 85.8623 -0.883113 -5.55119 0
M  V30 803 H 78.0133 -1.28332 -1.69247 0
M  V30 804 H 80.2763 -0.521716 -0.791528 0
M  V30 805 H 79.9823 -1.41404 -3.22022 0
M  V30 806 H 79.8563 0.249662 -3.76373 0
M  V30 807 H 82.2433 0.682058 -2.8711 0
M  V30 808 H 82.3243 -1.00734 -2.3513 0
M  V30 809 H 81.9683 -1.74522 -4.76974 0
M  V30 810 H 81.8983 -0.0356152 -5.26588 0
M  V30 811 H 84.3893 -0.428985 -3.75457 0
M  V30 812 H 84.7023 -1.49563 -7.58189 0
M  V30 813 H 83.0473 -1.33824 -6.81994 0
M  V30 814 H 86.2383 -0.615001 -4.64042 0
M  V30 815 H 86.4113 -1.10118 -6.38575 0
M  V30 816 N 79.8174 1.5752 -0.0501392 0
M  V30 817 C 80.7644 2.1147 0.924603 0
M  V30 818 C 81.7344 1.02182 1.30951 0
M  V30 819 O 82.9194 1.29723 1.39916 0
M  V30 820 C 80.0594 2.66337 2.19451 0
M  V30 821 C 79.1724 3.89708 1.86418 0
M  V30 822 C 78.3074 4.32893 3.07859 0
M  V30 823 C 77.3464 5.48967 2.70742 0
M  V30 824 N 76.4834 5.87211 3.84874 0
M  V30 825 H 81.3234 2.94465 0.457639 0
M  V30 826 H 78.8604 1.45531 0.214266 0
M  V30 827 H 80.8184 2.96247 2.93758 0
M  V30 828 H 79.4484 1.86141 2.63726 0
M  V30 829 H 78.5004 3.66396 1.02264 0
M  V30 830 H 79.8124 4.74074 1.55096 0
M  V30 831 H 78.9664 4.6435 3.90466 0
M  V30 832 H 77.7054 3.47336 3.42358 0
M  V30 833 H 76.7104 5.17183 1.86551 0
M  V30 834 H 77.9354 6.3624 2.37436 0
M  V30 835 H 75.8814 5.04607 4.19175 0
M  V30 836 H 75.7984 6.66266 3.57247 0
M  V30 837 H 77.0664 6.23282 4.68123 0
M  V30 838 N 81.2955 -0.223234 1.56011 0
M  V30 839 C 82.5205 -0.968978 1.83373 0
M  V30 840 C 82.9455 -1.77227 0.630254 0
M  V30 841 O 82.3035 -1.76345 -0.420959 0
M  V30 842 C 82.3515 -1.86363 3.08709 0
M  V30 843 O 81.4555 -2.95873 2.87285 0
M  V30 844 H 80.7965 -0.274461 0.604622 0
M  V30 845 H 83.3265 -0.237056 2.03222 0
M  V30 846 H 83.3365 -2.27376 3.38768 0
M  V30 847 H 82.0115 -1.27319 3.95933 0
M  V30 848 H 80.5885 -2.58818 2.68454 0
M  V30 849 N 82.7736 -1.49793 -0.48987 0
M  V30 850 C 83.7036 -1.70201 -1.59856 0
M  V30 851 C 84.6846 -0.55076 -1.60937 0
M  V30 852 O 85.8696 -0.787841 -1.77501 0
M  V30 853 C 82.9996 -1.77882 -2.98287 0
M  V30 854 C 81.9536 -2.92907 -3.12073 0
M  V30 855 C 81.2796 -2.85712 -4.51965 0
M  V30 856 C 82.5796 -4.3369 -2.91051 0
M  V30 857 H 84.2736 -2.63025 -1.43032 0
M  V30 858 H 81.8196 -1.26574 -0.686664 0
M  V30 859 H 83.7726 -1.90744 -3.75759 0
M  V30 860 H 82.4966 -0.816653 -3.16225 0
M  V30 861 H 81.1556 -2.79665 -2.37029 0
M  V30 862 H 80.8036 -1.8738 -4.66795 0
M  V30 863 H 80.5036 -3.62921 -4.62128 0
M  V30 864 H 82.0276 -3.00598 -5.31482 0
M  V30 865 H 83.4416 -4.47555 -3.58284 0
M  V30 866 H 81.8386 -5.12205 -3.12675 0
M  V30 867 H 82.9086 -4.47362 -1.87071 0
M  V30 868 N 84.2517 0.741722 -1.39055 0
M  V30 869 C 85.4997 1.49818 -1.35643 0
M  V30 870 C 85.8207 1.94938 0.0491642 0
M  V30 871 O 85.0907 1.68505 0.999141 0
M  V30 872 H 83.6707 0.555755 -0.499144 0
M  V30 873 H 86.3327 0.880957 -1.73854 0
M  V30 874 H 85.4287 2.38348 -2.01486 0
M  V30 875 N 85.7298 1.2412 0.971189 0
M  V30 876 C 86.9598 1.10415 1.7462 0
M  V30 877 C 87.3678 -0.346462 1.86001 0
M  V30 878 O 86.7108 -1.25104 1.34517 0
M  V30 879 C 86.7728 1.66596 3.18568 0
M  V30 880 C 86.4368 3.15446 3.3067 0
M  V30 881 C 87.4338 4.12636 3.16271 0
M  V30 882 C 85.1188 3.55337 3.55022 0
M  V30 883 C 87.1128 5.47699 3.26044 0
M  V30 884 C 84.7998 4.90542 3.64434 0
M  V30 885 C 85.7978 5.86532 3.49956 0
M  V30 886 O 85.4858 7.19279 3.59017 0
M  V30 887 H 85.2178 0.386616 0.55453 0
M  V30 888 H 87.7718 1.64633 1.22821 0
M  V30 889 H 86.0018 1.06808 3.71657 0
M  V30 890 H 87.6908 1.48232 3.77865 0
M  V30 891 H 88.4568 3.8316 2.97344 0
M  V30 892 H 84.3358 2.8113 3.65359 0
M  V30 893 H 87.8798 6.22603 3.14661 0
M  V30 894 H 83.7768 5.19691 3.82873 0
M  V30 895 H 84.5448 7.27153 3.75754 0
M  V30 896 N 87.2079 -1.17134 1.05439 0
M  V30 897 C 88.1709 -2.19439 0.661764 0
M  V30 898 C 89.1709 -1.58199 -0.288042 0
M  V30 899 O 90.3609 -1.74053 -0.0715803 0
M  V30 900 C 87.4929 -3.40889 -0.0276209 0
M  V30 901 H 88.6859 -2.55688 1.56728 0
M  V30 902 H 86.2389 -1.31259 0.848567 0
M  V30 903 H 86.9739 -3.10187 -0.94629 0
M  V30 904 H 86.7589 -3.86586 0.655238 0
M  V30 905 H 88.2489 -4.16603 -0.288342 0
M  V30 906 N 88.686 -0.835752 -1.33615 0
M  V30 907 C 89.916 -0.442701 -2.01801 0
M  V30 908 C 90.324 0.959807 -1.63047 0
M  V30 909 O 89.667 1.63468 -0.838088 0
M  V30 910 C 89.729 -0.480125 -3.56279 0
M  V30 911 C 89.393 -1.8382 -4.18401 0
M  V30 912 C 90.39 -2.80097 -4.37998 0
M  V30 913 C 88.075 -2.13019 -4.54894 0
M  V30 914 C 90.069 -4.03736 -4.9323 0
M  V30 915 C 87.756 -3.36916 -5.09834 0
M  V30 916 C 88.754 -4.32091 -5.28948 0
M  V30 917 O 88.442 -5.53797 -5.82721 0
M  V30 918 H 88.174 -0.17441 -0.653114 0
M  V30 919 H 90.728 -1.129 -1.71589 0
M  V30 920 H 88.958 0.262931 -3.85805 0
M  V30 921 H 90.647 -0.105335 -4.05763 0
M  V30 922 H 91.413 -2.58838 -4.10156 0
M  V30 923 H 87.292 -1.39733 -4.39313 0
M  V30 924 H 90.836 -4.78034 -5.08064 0
M  V30 925 H 86.733 -3.58033 -5.37106 0
M  V30 926 H 87.501 -5.55494 -6.0114 0
M  V30 927 N 90.1641 1.46063 -0.591896 0
M  V30 928 C 91.4101 2.02638 -0.0811191 0
M  V30 929 C 91.7431 1.4613 1.27905 0
M  V30 930 O 91.0181 0.629908 1.84017 0
M  V30 931 C 91.3011 3.60091 -0.0252436 0
M  V30 932 C 91.1541 4.26965 -1.41496 0
M  V30 933 C 92.4731 4.3496 0.670685 0
M  V30 934 H 89.5921 0.73635 -0.0309524 0
M  V30 935 H 92.2341 1.741 -0.760859 0
M  V30 936 H 90.3841 3.84535 0.553624 0
M  V30 937 H 92.0561 4.13756 -2.0397 0
M  V30 938 H 90.2991 3.85971 -1.98011 0
M  V30 939 H 90.9701 5.35781 -1.32825 0
M  V30 940 H 93.4461 4.15716 0.178825 0
M  V30 941 H 92.3221 5.44686 0.678837 0
M  V30 942 H 92.5831 4.06685 1.73379 0
M  V30 943 N 91.6422 0.330177 1.54103 0
M  V30 944 C 92.5902 -0.548226 2.26047 0
M  V30 945 C 93.5842 -1.11309 1.27698 0
M  V30 946 O 94.7902 -1.06036 1.45452 0
M  V30 947 H 91.1652 -0.195456 0.726155 0
M  V30 948 H 93.1362 0.0807567 2.98291 0
M  V30 949 C 91.8852 -1.69415 3.03634 0
M  V30 950 H 91.2082 -1.26876 3.79134 0
M  V30 951 H 92.6482 -2.28423 3.5721 0
M  V30 952 C 91.1072 -2.61569 2.12328 0
M  V30 953 O 91.6372 -3.63462 1.7105 0
M  V30 954 N 89.8432 -2.29952 1.77681 0
M  V30 955 H 89.3902 -1.47134 2.11446 0
M  V30 956 H 89.3482 -2.91871 1.16869 0
M  V30 957 N 93.1203 -1.57491 0.0584922 0
M  V30 958 C 94.3503 -1.9701 -0.622134 0
M  V30 959 C 94.7583 -0.935034 -1.6448 0
M  V30 960 O 94.1013 0.0882904 -1.83488 0
M  V30 961 C 94.1633 -3.32794 -1.35972 0
M  V30 962 C 93.8273 -4.54343 -0.492043 0
M  V30 963 C 94.8243 -5.19323 0.244901 0
M  V30 964 C 92.5093 -5.00534 -0.420821 0
M  V30 965 C 94.5033 -6.28835 1.04143 0
M  V30 966 C 92.1903 -6.09921 0.379389 0
M  V30 967 C 93.1883 -6.73933 1.10919 0
M  V30 968 O 92.8763 -7.81216 1.89623 0
M  V30 969 H 92.6083 -0.653127 -0.174359 0
M  V30 970 H 95.1623 -2.05029 0.123418 0
M  V30 971 H 93.3923 -3.21351 -2.15105 0
M  V30 972 H 95.0813 -3.5701 -1.93129 0
M  V30 973 H 95.8473 -4.8459 0.19939 0
M  V30 974 H 91.7263 -4.50496 -0.978474 0
M  V30 975 H 95.2703 -6.7873 1.61157 0
M  V30 976 H 91.1673 -6.44089 0.426512 0
M  V30 977 H 91.9353 -7.98029 1.81913 0
M  V30 978 N 94.5984 0.214957 -1.56127 0
M  V30 979 C 95.5484 1.27006 -1.8935 0
M  V30 980 C 96.5324 1.41969 -0.757202 0
M  V30 981 O 97.7244 1.44673 -1.01973 0
M  V30 982 C 94.8534 2.61911 -2.2194 0
M  V30 983 C 93.9394 2.50822 -3.41978 0
M  V30 984 N 94.3304 2.09391 -4.60423 0
M  V30 985 C 92.6284 2.81765 -3.45723 0
M  V30 986 C 93.3294 2.09712 -5.42582 0
M  V30 987 N 92.3054 2.50454 -4.82466 0
M  V30 988 H 96.1074 0.940734 -2.78437 0
M  V30 989 H 93.6214 0.423492 -1.56781 0
M  V30 990 H 95.6184 3.38096 -2.43919 0
M  V30 991 H 94.2784 2.95684 -1.34169 0
M  V30 992 H 95.2894 1.80416 -4.85459 0
M  V30 993 H 91.9664 3.19865 -2.68314 0
M  V30 994 H 93.3564 1.79748 -6.4741 0
M  V30 995 N 96.0765 1.50051 0.48192 0
M  V30 996 C 97.0245 1.68635 1.60203 0
M  V30 997 C 98.0185 0.552184 1.60148 0
M  V30 998 O 99.2245 0.732377 1.64427 0
M  V30 999 H 95.5995 0.532081 0.531407 0
M  V30 1000 H 97.5705 2.62616 1.41688 0
M  V30 1001 C 96.3195 1.78775 2.9822 0
M  V30 1002 H 95.6425 2.6543 2.98976 0
M  V30 1003 H 97.0825 1.95806 3.7608 0
M  V30 1004 C 95.5415 0.536849 3.32595 0
M  V30 1005 O 96.0715 -0.328897 4.00351 0
M  V30 1006 N 94.2775 0.394091 2.87915 0
M  V30 1007 H 93.8245 1.09962 2.32951 0
M  V30 1008 H 93.7825 -0.441737 3.11281 0
M  V30 1009 N 97.5546 -0.734337 1.39446 0
M  V30 1010 C 98.4846 -1.86155 1.40955 0
M  V30 1011 C 99.4656 -1.67898 0.272827 0
M  V30 1012 O 100.651 -1.88207 0.478743 0
M  V30 1013 C 97.7806 -3.23912 1.25294 0
M  V30 1014 C 96.7346 -3.56808 2.36373 0
M  V30 1015 C 96.0606 -4.93508 2.058 0
M  V30 1016 C 97.3606 -3.59713 3.78687 0
M  V30 1017 H 99.0546 -1.8515 2.35287 0
M  V30 1018 H 96.6006 -0.889367 1.13253 0
M  V30 1019 H 98.5536 -4.02443 1.2497 0
M  V30 1020 H 97.2776 -3.25446 0.274308 0
M  V30 1021 H 95.9366 -2.80606 2.35914 0
M  V30 1022 H 95.5846 -4.91623 1.06374 0
M  V30 1023 H 95.2846 -5.16486 2.80208 0
M  V30 1024 H 96.8086 -5.74396 2.07128 0
M  V30 1025 H 98.2226 -4.2832 3.81071 0
M  V30 1026 H 96.6196 -3.94209 4.52459 0
M  V30 1027 H 97.6896 -2.59504 4.09617 0
M  V30 1028 N 99.0327 -1.24633 -0.964593 0
M  V30 1029 C 99.9957 -1.0424 -2.04124 0
M  V30 1030 C 100.996 0.00137563 -1.608 0
M  V30 1031 O 102.186 -0.239883 -1.7254 0
M  V30 1032 C 99.3177 -0.580588 -3.3592 0
M  V30 1033 H 100.511 -1.99803 -2.23649 0
M  V30 1034 H 98.0637 -1.06899 -1.14027 0
M  V30 1035 H 98.7987 0.3781 -3.22088 0
M  V30 1036 H 98.5837 -1.33398 -3.6871 0
M  V30 1037 H 100.074 -0.459034 -4.15069 0
M  V30 1038 N 100.511 1.16574 -1.06058 0
M  V30 1039 C 101.788 1.83048 -0.689416 0
M  V30 1040 C 102.168 1.94122 0.829443 0
M  V30 1041 O 101.516 1.48249 1.7388 0
M  V30 1042 C 101.726 3.20186 -1.38859 0
M  V30 1043 C 103.074 3.95989 -1.53226 0
M  V30 1044 O 104.098 3.29696 -1.3483 0
M  V30 1045 O 102.957 5.14813 -1.83384 0
M  V30 1046 H 100.051 0.790258 -0.243764 0
M  V30 1047 H 102.597 1.23797 -1.16071 0
M  V30 1048 H 101.369 3.07146 -2.4244 0
M  V30 1049 H 100.992 3.87112 -0.907216 0
M  V30 1050 N 101.989 0.842826 1.3317 0
M  V30 1051 C 102.952 0.284065 2.27433 0
M  V30 1052 C 103.952 -0.54948 1.5112 0
M  V30 1053 O 105.142 -0.362699 1.70382 0
M  V30 1054 C 102.274 -0.599384 3.35589 0
M  V30 1055 H 103.467 1.11589 2.78366 0
M  V30 1056 H 101.02 0.616221 1.4364 0
M  V30 1057 H 101.755 -1.45349 2.89904 0
M  V30 1058 H 101.54 -0.00291266 3.921 0
M  V30 1059 H 103.03 -0.983488 4.05854 0
M  V30 1060 N 103.467 -1.45747 0.599634 0
M  V30 1061 C 104.377 -2.34262 -0.125888 0
M  V30 1062 C 105.393 -1.50768 -0.868625 0
M  V30 1063 O 106.569 -1.83592 -0.828003 0
M  V30 1064 C 103.634 -3.28252 -1.11587 0
M  V30 1065 C 102.695 -4.27651 -0.375956 0
M  V30 1066 C 101.928 -5.1715 -1.31877 0
M  V30 1067 O 102.151 -5.09916 -2.55621 0
M  V30 1068 O 101.085 -5.96286 -0.820157 0
M  V30 1069 H 104.911 -2.97688 0.601315 0
M  V30 1070 H 102.496 -1.44999 0.359934 0
M  V30 1071 H 104.378 -3.86191 -1.68626 0
M  V30 1072 H 103.053 -2.67401 -1.82424 0
M  V30 1073 H 101.96 -3.7335 0.236698 0
M  V30 1074 H 103.293 -4.91334 0.29177 0
M  V30 1075 N 104.945 -0.338344 -1.53925 0
M  V30 1076 C 106.361 0.0137736 -1.59594 0
M  V30 1077 C 106.561 1.49186 -1.35447 0
M  V30 1078 O 105.617 2.24987 -1.14616 0
M  V30 1079 C 106.93 -0.41773 -2.97784 0
M  V30 1080 C 108.478 -0.369633 -3.1081 0
M  V30 1081 C 108.953 -0.776524 -4.51369 0
M  V30 1082 N 110.444 -0.730506 -4.57403 0
M  V30 1083 C 111.179 -1.01736 -5.64303 0
M  V30 1084 N 110.675 -1.3721 -6.79077 0
M  V30 1085 N 112.468 -0.941942 -5.54151 0
M  V30 1086 H 104.619 -1.3012 -1.67876 0
M  V30 1087 H 106.882 -0.530082 -0.78595 0
M  V30 1088 H 106.588 -1.44811 -3.20504 0
M  V30 1089 H 106.462 0.209729 -3.76616 0
M  V30 1090 H 108.849 0.651568 -2.87817 0
M  V30 1091 H 108.93 -1.03223 -2.34049 0
M  V30 1092 H 108.574 -1.79571 -4.75096 0
M  V30 1093 H 108.504 -0.0914649 -5.26521 0
M  V30 1094 H 110.995 -0.468783 -3.74981 0
M  V30 1095 H 111.308 -1.57597 -7.5656 0
M  V30 1096 H 109.653 -1.4105 -6.80536 0
M  V30 1097 H 112.844 -0.664184 -4.63364 0
M  V30 1098 H 113.017 -1.16884 -6.37371 0
M  V30 1099 N 106.423 1.57458 -0.0668435 0
M  V30 1100 C 107.386 2.11323 0.887422 0
M  V30 1101 C 108.386 1.03618 1.22964 0
M  V30 1102 O 109.576 1.29626 1.16373 0
M  V30 1103 C 106.708 2.61048 2.19242 0
M  V30 1104 H 107.901 2.96942 0.420194 0
M  V30 1105 H 105.454 1.55239 0.181793 0
M  V30 1106 H 106.189 1.78868 2.70512 0
M  V30 1107 H 105.974 3.39769 1.95702 0
M  V30 1108 H 107.464 3.02814 2.87565 0
M  V30 1109 N 107.901 -0.206675 1.56239 0
M  V30 1110 C 108.831 -1.25909 1.96645 0
M  V30 1111 C 109.812 -1.48097 0.836734 0
M  V30 1112 O 110.997 -1.6003 1.10019 0
M  V30 1113 C 108.127 -2.6058 2.29599 0
M  V30 1114 C 107.081 -2.53024 3.452 0
M  V30 1115 C 106.407 -3.91861 3.63798 0
M  V30 1116 C 107.707 -2.06524 4.79734 0
M  V30 1117 H 109.401 -0.923369 2.84806 0
M  V30 1118 H 106.947 -0.442735 1.37025 0
M  V30 1119 H 108.9 -3.34375 2.56459 0
M  V30 1120 H 107.624 -2.95869 1.38307 0
M  V30 1121 H 106.283 -1.81684 3.18412 0
M  V30 1122 H 105.931 -4.24483 2.69857 0
M  V30 1123 H 105.631 -3.87683 4.4156 0
M  V30 1124 H 107.155 -4.67296 3.93022 0
M  V30 1125 H 108.569 -2.70072 5.05702 0
M  V30 1126 H 106.966 -2.13374 5.60885 0
M  V30 1127 H 108.036 -1.01802 4.74093 0
M  V30 1128 N 109.379 -1.50304 -0.473955 0
M  V30 1129 C 110.656 -1.51667 -1.23518 0
M  V30 1130 C 111.036 -0.259701 -2.09496 0
M  V30 1131 O 110.384 0.756986 -2.15597 0
M  V30 1132 C 110.594 -2.81082 -2.06868 0
M  V30 1133 C 111.942 -3.31631 -2.65153 0
M  V30 1134 O 112.966 -2.82384 -2.17113 0
M  V30 1135 O 111.825 -4.17471 -3.52675 0
M  V30 1136 H 108.919 -0.60822 -0.560355 0
M  V30 1137 H 111.465 -1.62592 -0.486011 0
M  V30 1138 H 110.237 -3.64041 -1.4349 0
M  V30 1139 H 109.86 -2.73146 -2.88924 0
M  V30 1140 N 110.857 0.726932 -1.39834 0
M  V30 1141 C 112.085 1.51613 -1.40787 0
M  V30 1142 C 112.5 1.88799 -0.00451505 0
M  V30 1143 O 111.857 1.54662 0.968809 0
M  V30 1144 C 111.908 2.79863 -2.28821 0
M  V30 1145 O 111.629 2.44253 -3.63692 0
M  V30 1146 C 113.13 3.73837 -2.38245 0
M  V30 1147 H 110.35 0.468264 -0.480593 0
M  V30 1148 H 112.894 0.897607 -1.83748 0
M  V30 1149 H 111.049 3.38027 -1.89252 0
M  V30 1150 H 111.463 3.26695 -4.1033 0
M  V30 1151 H 112.937 4.60699 -3.04073 0
M  V30 1152 H 113.414 4.16153 -1.40403 0
M  V30 1153 H 114.02 3.21589 -2.78317 0
M  V30 1154 N 112.336 1.25143 0.95797 0
M  V30 1155 C 113.266 1.07711 2.07173 0
M  V30 1156 C 114.247 -0.0128462 1.70095 0
M  V30 1157 O 115.432 0.156061 1.93572 0
M  V30 1158 C 112.562 0.691503 3.40346 0
M  V30 1159 C 111.516 1.73132 3.9142 0
M  V30 1160 C 110.842 1.20049 5.21049 0
M  V30 1161 C 112.142 3.1294 4.1817 0
M  V30 1162 H 113.836 2.00873 2.22014 0
M  V30 1163 H 111.382 0.967191 1.06684 0
M  V30 1164 H 113.335 0.556505 4.17709 0
M  V30 1165 H 112.059 -0.275819 3.25433 0
M  V30 1166 H 110.718 1.8547 3.16222 0
M  V30 1167 H 110.366 0.223499 5.02503 0
M  V30 1168 H 110.066 1.89545 5.56189 0
M  V30 1169 H 111.59 1.07782 6.01012 0
M  V30 1170 H 113.004 3.03775 4.86203 0
M  V30 1171 H 111.401 3.79875 4.64559 0
M  V30 1172 H 112.471 3.6025 3.24573 0
M  V30 1173 N 113.814 -1.1601 1.06675 0
M  V30 1174 C 114.762 -2.22586 0.675157 0
M  V30 1175 C 115.756 -1.66525 -0.310766 0
M  V30 1176 O 116.962 -1.79145 -0.175215 0
M  V30 1177 H 113.337 -0.724855 0.200223 0
M  V30 1178 H 115.308 -2.52899 1.58381 0
M  V30 1179 C 114.057 -3.47604 0.0817162 0
M  V30 1180 H 113.38 -3.91058 0.831484 0
M  V30 1181 H 114.82 -4.23718 -0.154708 0
M  V30 1182 C 113.279 -3.15718 -1.17576 0
M  V30 1183 O 113.809 -3.31878 -2.26318 0
M  V30 1184 N 112.015 -2.69816 -1.07923 0
M  V30 1185 H 111.562 -2.56866 -0.194293 0
M  V30 1186 H 111.52 -2.48855 -1.92141 0
M  V30 1187 N 115.292 -0.849877 -1.32721 0
M  V30 1188 C 116.522 -0.46408 -2.0132 0
M  V30 1189 C 116.93 0.94246 -1.64056 0
M  V30 1190 O 116.273 1.6257 -0.855379 0
M  V30 1191 C 116.335 -0.517887 -3.5575 0
M  V30 1192 C 115.999 -1.88248 -4.16427 0
M  V30 1193 C 116.996 -2.84726 -4.35002 0
M  V30 1194 C 114.681 -2.17832 -4.52609 0
M  V30 1195 C 116.675 -4.08945 -4.8892 0
M  V30 1196 C 114.362 -3.42304 -5.06232 0
M  V30 1197 C 115.36 -4.37677 -5.24335 0
M  V30 1198 O 115.048 -5.59946 -5.76815 0
M  V30 1199 H 114.78 -0.181327 -0.651227 0
M  V30 1200 H 117.334 -1.14713 -1.70382 0
M  V30 1201 H 115.564 0.221997 -3.86062 0
M  V30 1202 H 117.253 -0.148366 -4.05629 0
M  V30 1203 H 118.019 -2.63174 -4.07388 0
M  V30 1204 H 113.898 -1.44385 -4.37806 0
M  V30 1205 H 117.442 -4.83396 -5.02966 0
M  V30 1206 H 113.339 -3.63709 -5.33278 0
M  V30 1207 H 114.107 -5.61838 -5.95214 0
M  V30 1208 N 116.77 1.45427 -0.607355 0
M  V30 1209 C 117.998 2.06614 -0.108814 0
M  V30 1210 C 118.413 1.45204 1.2067 0
M  V30 1211 O 117.77 0.566132 1.73497 0
M  V30 1212 C 117.821 3.61481 0.0375347 0
M  V30 1213 O 117.542 4.20598 -1.22593 0
M  V30 1214 C 119.043 4.39652 0.567561 0
M  V30 1215 H 116.263 0.66747 -0.0687351 0
M  V30 1216 H 118.807 1.86675 -0.835022 0
M  V30 1217 H 116.962 3.80762 0.714068 0
M  V30 1218 H 117.376 5.1377 -1.05547 0
M  V30 1219 H 118.85 5.48518 0.61905 0
M  V30 1220 H 119.327 4.09417 1.58978 0
M  V30 1221 H 119.933 4.25234 -0.0749202 0
M  V30 1222 N 118.248 0.346503 1.53744 0
M  V30 1223 C 119.196 -0.52422 2.26616 0
M  V30 1224 C 120.19 -1.09948 1.28871 0
M  V30 1225 O 121.396 -1.04488 1.46568 0
M  V30 1226 H 117.771 -0.187743 0.728187 0
M  V30 1227 H 119.742 0.11239 2.98188 0
M  V30 1228 C 118.491 -1.66186 3.05414 0
M  V30 1229 H 117.814 -1.22848 3.80458 0
M  V30 1230 H 119.254 -2.24622 3.59612 0
M  V30 1231 C 117.713 -2.59302 2.1509 0
M  V30 1232 O 118.243 -3.61628 1.74895 0
M  V30 1233 N 116.449 -2.28055 1.8011 0
M  V30 1234 H 115.996 -1.44883 2.12994 0
M  V30 1235 H 115.954 -2.90615 1.19958 0
M  V30 1236 N 119.726 -1.57421 0.075193 0
M  V30 1237 C 120.975 -1.92794 -0.592731 0
M  V30 1238 C 121.288 -0.957478 -1.70563 0
M  V30 1239 O 122.494 -1.20417 -2.43335 0
M  V30 1240 C 120.95 -3.42495 -1.10569 0
M  V30 1241 C 120.558 -4.47994 -0.0236121 0
M  V30 1242 C 122.302 -3.86864 -1.74748 0
M  V30 1243 C 120.209 -5.88829 -0.550803 0
M  V30 1244 H 119.139 -0.719591 -0.225177 0
M  V30 1245 H 121.79 -1.82902 0.147978 0
M  V30 1246 H 120.172 -3.47471 -1.89947 0
M  V30 1247 H 121.346 -4.54637 0.751099 0
M  V30 1248 H 119.661 -4.13113 0.522159 0
M  V30 1249 H 122.258 -4.8947 -2.15229 0
M  V30 1250 H 122.601 -3.24417 -2.60882 0
M  V30 1251 H 123.134 -3.84504 -1.01986 0
M  V30 1252 H 119.873 -6.54929 0.273457 0
M  V30 1253 H 119.393 -5.85698 -1.29296 0
M  V30 1254 H 121.072 -6.38811 -1.02613 0
M  V30 1255 N 121.204 0.198386 -1.56346 0
M  V30 1256 C 122.151 1.24589 -1.94284 0
M  V30 1257 C 123.121 1.454 -0.802997 0
M  V30 1258 O 124.306 1.58588 -1.06087 0
M  V30 1259 C 121.446 2.58631 -2.28482 0
M  V30 1260 C 120.559 2.45426 -3.55514 0
M  V30 1261 C 119.694 3.7215 -3.79049 0
M  V30 1262 C 118.733 3.53763 -4.99518 0
M  V30 1263 N 117.87 4.72491 -5.19323 0
M  V30 1264 H 122.71 0.915356 -2.83593 0
M  V30 1265 H 120.247 0.440629 -1.40346 0
M  V30 1266 H 122.205 3.3672 -2.46324 0
M  V30 1267 H 120.835 2.89734 -1.42317 0
M  V30 1268 H 119.887 1.58652 -3.45737 0
M  V30 1269 H 121.199 2.27772 -4.43758 0
M  V30 1270 H 120.353 4.58679 -3.97113 0
M  V30 1271 H 119.092 3.92754 -2.89129 0
M  V30 1272 H 118.097 2.65619 -4.8138 0
M  V30 1273 H 119.322 3.34607 -5.90944 0
M  V30 1274 H 117.268 4.93365 -4.3235 0
M  V30 1275 H 117.185 4.5765 -6.01741 0
M  V30 1276 H 118.453 5.6038 -5.41843 0
M  V30 1277 N 122.682 1.50554 0.465978 0
M  V30 1278 C 123.93 1.61479 1.21528 0
M  V30 1279 C 124.251 0.319596 1.92363 0
M  V30 1280 O 123.521 -0.663194 1.84333 0
M  V30 1281 H 122.101 0.595055 0.451573 0
M  V30 1282 H 124.763 1.87355 0.53704 0
M  V30 1283 H 123.859 2.42846 1.96042 0
M  V30 1284 N 124.16 -0.719506 1.40217 0
M  V30 1285 C 125.092 -1.84428 1.36084 0
M  V30 1286 C 126.105 -1.60597 0.266913 0
M  V30 1287 O 127.294 -1.70544 0.526983 0
M  V30 1288 C 124.394 -3.20757 1.094 0
M  V30 1289 C 123.567 -3.71817 2.30372 0
M  V30 1290 C 122.626 -4.86748 1.99907 0
M  V30 1291 O 121.652 -4.99603 2.72737 0
M  V30 1292 N 122.854 -5.7226 0.974635 0
M  V30 1293 H 125.619 -1.88473 2.33019 0
M  V30 1294 H 123.18 -0.900885 1.3452 0
M  V30 1295 H 125.172 -3.95235 0.870116 0
M  V30 1296 H 123.742 -3.11884 0.211452 0
M  V30 1297 H 122.962 -2.88514 2.68614 0
M  V30 1298 H 124.25 -4.02666 3.11026 0
M  V30 1299 H 123.648 -5.6448 0.371368 0
M  V30 1300 H 122.205 -6.46739 0.810656 0
M  V30 1301 N 125.638 -1.25649 -0.95132 0
M  V30 1302 C 127.049 -1.09654 -1.51106 0
M  V30 1303 C 127.4 0.326615 -1.93462 0
M  V30 1304 O 126.525 1.21697 -1.78938 0
M  V30 1305 C 127.12 -1.98437 -2.74605 0
M  V30 1306 C 125.679 -1.86618 -3.2688 0
M  V30 1307 C 124.826 -1.9239 -1.99703 0
M  V30 1308 H 127.777 -1.38887 -0.767865 0
M  V30 1309 H 127.798 -1.5263 -3.48546 0
M  V30 1310 H 127.31 -3.02009 -2.43746 0
M  V30 1311 H 125.411 -0.859421 -3.62553 0
M  V30 1312 H 125.524 -2.71607 -3.94673 0
M  V30 1313 H 123.888 -1.36317 -2.15151 0
M  V30 1314 H 124.671 -2.97573 -1.71188 0
M  V30 1315 N 127.117 1.15442 -1.07289 0
M  V30 1316 C 128.08 2.18358 -0.696591 0
M  V30 1317 C 129.08 1.58637 0.262837 0
M  V30 1318 O 130.27 1.74145 0.0438809 0
M  V30 1319 C 127.402 3.4089 -0.0266151 0
M  V30 1320 H 128.595 2.53162 -1.60776 0
M  V30 1321 H 126.148 1.29893 -0.869342 0
M  V30 1322 H 126.883 3.11653 0.896822 0
M  V30 1323 H 126.668 3.85495 -0.716657 0
M  V30 1324 H 128.158 4.17009 0.222028 0
M  V30 1325 N 128.595 0.856903 1.32268 0
M  V30 1326 C 130.011 0.547061 1.49931 0
M  V30 1327 C 130.211 -0.921781 1.7918 0
M  V30 1328 O 129.267 -1.70469 1.8627 0
M  V30 1329 C 130.58 1.43599 2.64196 0
M  V30 1330 C 132.128 1.43665 2.78081 0
M  V30 1331 C 132.603 2.31085 3.95428 0
M  V30 1332 N 134.094 2.28893 4.02694 0
M  V30 1333 C 134.829 2.93262 4.92732 0
M  V30 1334 N 134.325 3.66751 5.87763 0
M  V30 1335 N 136.118 2.82638 4.85873 0
M  V30 1336 H 128.269 1.8075 1.11549 0
M  V30 1337 H 130.532 0.772144 0.549997 0
M  V30 1338 H 130.238 2.48058 2.49319 0
M  V30 1339 H 130.112 1.12502 3.60032 0
M  V30 1340 H 132.499 0.399701 2.92381 0
M  V30 1341 H 132.58 1.7878 1.82952 0
M  V30 1342 H 132.224 3.34849 3.81888 0
M  V30 1343 H 132.154 1.93302 4.89839 0
M  V30 1344 H 134.645 1.75466 3.34694 0
M  V30 1345 H 134.958 4.13027 6.53168 0
M  V30 1346 H 133.303 3.70859 5.87783 0
M  V30 1347 H 136.494 2.24774 4.10602 0
M  V30 1348 H 136.667 3.33084 5.55841 0
M  V30 1349 N 130.073 -1.45103 0.615059 0
M  V30 1350 C 131.003 -2.33339 -0.0865619 0
M  V30 1351 C 131.984 -1.4727 -0.851209 0
M  V30 1352 O 133.169 -1.76026 -0.820281 0
M  V30 1353 C 130.299 -3.30095 -1.07956 0
M  V30 1354 C 129.253 -4.25858 -0.427628 0
M  V30 1355 C 128.579 -5.12361 -1.5294 0
M  V30 1356 C 129.879 -5.18165 0.655944 0
M  V30 1357 H 131.573 -2.92254 0.650224 0
M  V30 1358 H 129.119 -1.40532 0.314138 0
M  V30 1359 H 131.072 -3.90698 -1.57901 0
M  V30 1360 H 129.796 -2.69355 -1.84703 0
M  V30 1361 H 128.455 -3.66564 0.0510292 0
M  V30 1362 H 128.103 -4.47984 -2.28734 0
M  V30 1363 H 127.803 -5.77238 -1.09865 0
M  V30 1364 H 129.327 -5.75833 -2.03098 0
M  V30 1365 H 130.741 -5.72796 0.240257 0
M  V30 1366 H 129.138 -5.91559 1.00888 0
M  V30 1367 H 130.208 -4.60144 1.52957 0
M  V30 1368 N 131.551 -0.354651 -1.53558 0
M  V30 1369 C 132.484 0.540273 -2.21712 0
M  V30 1370 C 133.462 1.09161 -1.2051 0
M  V30 1371 O 134.646 1.14979 -1.49372 0
M  V30 1372 C 131.773 1.74435 -2.90328 0
M  V30 1373 C 130.819 1.32146 -4.05512 0
M  V30 1374 S 131.652 0.331924 -5.3447 0
M  V30 1375 C 132.808 1.54258 -6.06593 0
M  V30 1376 H 133.041 -0.0385776 -2.97275 0
M  V30 1377 H 130.574 -0.138736 -1.53775 0
M  V30 1378 H 132.532 2.43507 -3.30476 0
M  V30 1379 H 131.193 2.29444 -2.1451 0
M  V30 1380 H 130.386 2.21952 -4.52497 0
M  V30 1381 H 129.988 0.710091 -3.67197 0
M  V30 1382 H 132.28 2.47534 -6.30661 0
M  V30 1383 H 133.223 1.11431 -6.99277 0
M  V30 1384 H 133.631 1.74367 -5.36895 0
M  V30 1385 N 133.029 1.57378 -0.0835403 0
M  V30 1386 C 134.275 1.95025 0.577664 0
M  V30 1387 C 134.63 0.964049 1.66505 0
M  V30 1388 O 133.923 -0.0118235 1.91596 0
M  V30 1389 C 134.117 3.37063 1.1884 0
M  V30 1390 C 133.946 4.49409 0.16171 0
M  V30 1391 C 132.716 5.04642 -0.257756 0
M  V30 1392 C 134.914 5.10722 -0.605634 0
M  V30 1393 N 132.896 6.00537 -1.27393 0
M  V30 1394 C 134.267 6.02225 -1.47395 0
M  V30 1395 C 136.322 4.93501 -0.660418 0
M  V30 1396 C 135.025 6.78355 -2.39221 0
M  V30 1397 C 137.051 5.70283 -1.56623 0
M  V30 1398 C 136.413 6.61444 -2.4222 0
M  V30 1399 H 132.512 0.760512 0.182058 0
M  V30 1400 H 135.096 1.94013 -0.163419 0
M  V30 1401 H 133.267 3.3879 1.89936 0
M  V30 1402 H 134.999 3.61917 1.81103 0
M  V30 1403 H 131.754 4.73428 0.127702 0
M  V30 1404 H 132.178 6.53184 -1.77987 0
M  V30 1405 H 136.82 4.22798 -0.0128221 0
M  V30 1406 H 134.538 7.48327 -3.05011 0
M  V30 1407 H 138.124 5.58976 -1.61361 0
M  V30 1408 H 137.004 7.1982 -3.11174 0
M  V30 1409 N 134.507 -0.190092 1.56449 0
M  V30 1410 C 135.732 -0.929864 1.85387 0
M  V30 1411 C 136.157 -1.7585 0.667704 0
M  V30 1412 O 135.515 -1.77198 -0.383459 0
M  V30 1413 C 135.563 -1.79773 3.12593 0
M  V30 1414 O 134.667 -2.89713 2.93496 0
M  V30 1415 H 134.008 -0.261574 0.610307 0
M  V30 1416 H 136.538 -0.193896 2.03679 0
M  V30 1417 H 136.548 -2.20139 3.43515 0
M  V30 1418 H 135.223 -1.18892 3.98544 0
M  V30 1419 H 133.8 -2.53065 2.73884 0
M  V30 1420 N 135.985 -1.50799 -0.457987 0
M  V30 1421 C 136.935 -1.67003 -1.55222 0
M  V30 1422 C 137.919 -0.52434 -1.52117 0
M  V30 1423 O 139.111 -0.779345 -1.58919 0
M  V30 1424 C 136.24 -1.77956 -2.93576 0
M  V30 1425 C 135.326 -2.98243 -3.01516 0
M  V30 1426 N 135.717 -4.21732 -2.79241 0
M  V30 1427 C 134.015 -2.97072 -3.32662 0
M  V30 1428 C 134.716 -5.02817 -2.92489 0
M  V30 1429 N 133.692 -4.37038 -3.23262 0
M  V30 1430 H 137.494 -2.60163 -1.36721 0
M  V30 1431 H 135.008 -1.48163 -0.664952 0
M  V30 1432 H 137.005 -1.87671 -3.72271 0
M  V30 1433 H 135.665 -0.859634 -3.13114 0
M  V30 1434 H 136.676 -4.51016 -2.54567 0
M  V30 1435 H 133.353 -2.14631 -3.58106 0
M  V30 1436 H 134.743 -6.11054 -2.79396 0
M  V30 1437 N 137.463 0.71206 -1.40597 0
M  V30 1438 C 138.879 1.02058 -1.22704 0
M  V30 1439 C 139.079 2.01228 -0.104729 0
M  V30 1440 O 138.135 2.4674 0.53624 0
M  V30 1441 C 139.448 1.56094 -2.57012 0
M  V30 1442 C 140.996 1.6806 -2.64054 0
M  V30 1443 C 141.471 2.25501 -3.9864 0
M  V30 1444 N 142.962 2.32882 -4.004 0
M  V30 1445 C 143.697 2.78317 -5.01325 0
M  V30 1446 N 143.193 3.23478 -6.12645 0
M  V30 1447 N 144.986 2.77733 -4.88693 0
M  V30 1448 H 137.137 0.0547896 -2.12329 0
M  V30 1449 H 139.4 0.0869027 -0.944008 0
M  V30 1450 H 139.106 0.906865 -3.39807 0
M  V30 1451 H 138.98 2.54564 -2.78347 0
M  V30 1452 H 141.367 2.32583 -1.81629 0
M  V30 1453 H 141.448 0.681802 -2.46546 0
M  V30 1454 H 141.092 1.61598 -4.81506 0
M  V30 1455 H 141.022 3.26102 -4.13479 0
M  V30 1456 H 143.513 2.00991 -3.20017 0
M  V30 1457 H 143.826 3.56725 -6.85542 0
M  V30 1458 H 142.171 3.21429 -6.16205 0
M  V30 1459 H 145.362 2.4179 -4.00818 0
M  V30 1460 H 145.535 3.12826 -5.67489 0
M  V30 1461 N 138.941 1.26152 0.944643 0
M  V30 1462 C 140.218 1.02247 1.66748 0
M  V30 1463 C 140.598 -0.448202 2.06287 0
M  V30 1464 O 139.946 -1.42779 1.78399 0
M  V30 1465 C 140.156 1.96788 2.88228 0
M  V30 1466 C 141.504 2.25201 3.59958 0
M  V30 1467 O 142.528 1.94626 2.98327 0
M  V30 1468 O 141.387 2.77242 4.70956 0
M  V30 1469 H 138.481 0.388517 0.730057 0
M  V30 1470 H 141.027 1.37348 0.99668 0
M  V30 1471 H 139.799 2.96047 2.55875 0
M  V30 1472 H 139.422 1.62145 3.63035 0
M  V30 1473 N 140.419 -1.14872 1.07899 0
M  V30 1474 C 141.83 -1.67367 0.827363 0
M  V30 1475 C 142.181 -1.85236 -0.646693 0
M  V30 1476 O 141.306 -1.55974 -1.50004 0
M  V30 1477 C 141.901 -3.04016 1.49532 0
M  V30 1478 C 140.46 -3.53566 1.29106 0
M  V30 1479 C 139.607 -2.29161 1.56143 0
M  V30 1480 H 142.558 -0.990083 1.24028 0
M  V30 1481 H 142.579 -3.69219 0.919643 0
M  V30 1482 H 142.091 -2.90978 2.56814 0
M  V30 1483 H 140.192 -3.71835 0.238713 0
M  V30 1484 H 140.305 -4.34661 2.01511 0
M  V30 1485 H 138.669 -2.34978 0.982717 0
M  V30 1486 H 139.452 -2.18705 2.64619 0
M  V30 1487 N 141.898 -0.863906 -1.31812 0
M  V30 1488 C 143.123 -0.48527 -2.01643 0
M  V30 1489 C 143.548 0.913058 -1.64453 0
M  V30 1490 O 142.906 1.6014 -0.849985 0
M  V30 1491 C 142.954 -0.642625 -3.54828 0
M  V30 1492 O 142.058 0.320659 -4.11151 0
M  V30 1493 H 141.399 -0.193793 -0.635091 0
M  V30 1494 H 143.929 -1.16565 -1.68148 0
M  V30 1495 H 143.939 -0.533628 -4.04495 0
M  V30 1496 H 142.614 -1.66227 -3.81237 0
M  V30 1497 H 141.191 0.167126 -3.72525 0
M  V30 1498 N 143.376 1.44774 -0.622745 0
M  V30 1499 C 144.306 2.33382 0.0741861 0
M  V30 1500 C 145.287 1.47719 0.843387 0
M  V30 1501 O 146.472 1.76458 0.810934 0
M  V30 1502 C 143.602 3.30663 1.06204 0
M  V30 1503 C 142.556 4.26079 0.405037 0
M  V30 1504 C 141.882 5.13165 1.5022 0
M  V30 1505 C 143.182 5.1781 -0.683414 0
M  V30 1506 H 144.876 2.91905 -0.665713 0
M  V30 1507 H 142.422 1.40363 -0.321587 0
M  V30 1508 H 144.375 3.9153 1.55827 0
M  V30 1509 H 143.099 2.70331 1.83272 0
M  V30 1510 H 141.758 3.66532 -0.0704683 0
M  V30 1511 H 141.406 4.49191 2.26355 0
M  V30 1512 H 141.106 5.77812 1.06803 0
M  V30 1513 H 142.63 5.76902 2.00041 0
M  V30 1514 H 144.044 5.72661 -0.270631 0
M  V30 1515 H 142.441 5.91015 -1.04023 0
M  V30 1516 H 143.511 4.59326 -1.55395 0
M  V30 1517 N 144.854 0.36279 1.53368 0
M  V30 1518 C 146.27 0.0116182 1.59596 0
M  V30 1519 C 146.47 -1.47012 1.37803 0
M  V30 1520 O 145.526 -2.23136 1.18181 0
M  V30 1521 C 146.839 0.465052 2.97082 0
M  V30 1522 C 148.387 0.419033 3.10182 0
M  V30 1523 C 148.862 0.848235 4.50077 0
M  V30 1524 N 150.353 0.803183 4.56183 0
M  V30 1525 C 151.088 1.107 5.62613 0
M  V30 1526 N 150.584 1.47996 6.76808 0
M  V30 1527 N 152.377 1.02998 5.52583 0
M  V30 1528 H 144.528 1.32775 1.65785 0
M  V30 1529 H 146.791 0.542518 0.777417 0
M  V30 1530 H 146.497 1.49892 3.18159 0
M  V30 1531 H 146.371 -0.149786 3.76902 0
M  V30 1532 H 148.758 -0.605696 2.88817 0
M  V30 1533 H 148.839 1.06933 2.32377 0
M  V30 1534 H 148.483 1.87107 4.7218 0
M  V30 1535 H 148.413 0.175218 5.26308 0
M  V30 1536 H 150.904 0.52838 3.74188 0
M  V30 1537 H 151.217 1.69613 7.53957 0
M  V30 1538 H 149.562 1.51859 6.78206 0
M  V30 1539 H 152.753 0.737817 4.62249 0
M  V30 1540 H 152.926 1.2701 6.35431 0
M  V30 1541 N 146.332 -1.57332 0.0918853 0
M  V30 1542 C 147.279 -2.13847 -0.868211 0
M  V30 1543 C 148.249 -1.05618 -1.28196 0
M  V30 1544 O 149.434 -1.33387 -1.36427 0
M  V30 1545 C 146.574 -2.72062 -2.12312 0
M  V30 1546 C 145.687 -3.94514 -1.7602 0
M  V30 1547 C 144.822 -4.40903 -2.96273 0
M  V30 1548 C 143.861 -5.55953 -2.56092 0
M  V30 1549 N 142.998 -5.97209 -3.69169 0
M  V30 1550 H 147.838 -2.95575 -0.379406 0
M  V30 1551 H 145.375 -1.46048 -0.175606 0
M  V30 1552 H 147.333 -3.03931 -2.858 0
M  V30 1553 H 145.963 -1.93068 -2.58698 0
M  V30 1554 H 145.015 -3.68979 -0.925135 0
M  V30 1555 H 146.327 -4.7802 -1.42472 0
M  V30 1556 H 145.481 -4.74539 -3.78018 0
M  V30 1557 H 144.22 -3.56291 -3.33029 0
M  V30 1558 H 143.225 -5.21948 -1.72773 0
M  V30 1559 H 144.45 -6.42311 -2.20484 0
M  V30 1560 H 142.396 -5.15543 -4.05649 0
M  V30 1561 H 142.313 -6.75504 -3.39456 0
M  V30 1562 H 143.581 -6.35475 -4.51434 0
M  V30 1563 N 147.81 0.181792 -1.56548 0
M  V30 1564 C 149.035 0.920019 -1.85877 0
M  V30 1565 C 149.46 1.75494 -0.677021 0
M  V30 1566 O 148.818 1.77399 0.374056 0
M  V30 1567 C 148.866 1.78112 -3.13542 0
M  V30 1568 O 147.97 2.88152 -2.95029 0
M  V30 1569 H 147.311 0.258334 -0.611686 0
M  V30 1570 H 149.841 0.183092 -2.03779 0
M  V30 1571 H 149.851 2.18314 -3.44678 0
M  V30 1572 H 148.526 1.16777 -3.99169 0
M  V30 1573 H 147.103 2.51609 -2.75222 0
M  V30 1574 N 149.288 1.51039 0.449983 0
M  V30 1575 C 150.536 1.62759 1.19808 0
M  V30 1576 C 150.857 0.339981 1.92013 0
M  V30 1577 O 150.127 -0.643606 1.85026 0
M  V30 1578 H 148.707 0.599811 0.445237 0
M  V30 1579 H 151.369 1.87914 0.517138 0
M  V30 1580 H 150.465 2.44911 1.93455 0
M  V30 1581 N 150.766 -0.704594 1.40972 0
M  V30 1582 C 151.994 -1.49354 1.43182 0
M  V30 1583 C 152.409 -1.88768 0.0345508 0
M  V30 1584 O 151.766 -1.56184 -0.944081 0
M  V30 1585 C 151.817 -2.76187 2.33244 0
M  V30 1586 O 151.538 -2.38436 3.67532 0
M  V30 1587 C 153.039 -3.7 2.44162 0
M  V30 1588 H 150.259 -0.460559 0.487982 0
M  V30 1589 H 152.803 -0.868261 1.85153 0
M  V30 1590 H 150.958 -3.34974 1.94606 0
M  V30 1591 H 151.372 -3.20126 4.15475 0
M  V30 1592 H 152.846 -4.55803 3.11364 0
M  V30 1593 H 153.323 -4.13867 1.47006 0
M  V30 1594 H 153.929 -3.17121 2.83398 0
M  V30 1595 N 152.244 -1.26651 -0.937939 0
M  V30 1596 C 153.492 -1.12165 -1.68118 0
M  V30 1597 C 153.813 0.334983 -1.92101 0
M  V30 1598 O 153.083 1.23583 -1.52 0
M  V30 1599 H 151.663 -0.412093 -0.623048 0
M  V30 1600 H 154.325 -1.59027 -1.12678 0
M  V30 1601 H 153.421 -1.64289 -2.6536 0
M  V30 1602 N 153.722 1.14298 -1.08507 0
M  V30 1603 C 154.67 2.21483 -0.710483 0
M  V30 1604 C 155.664 1.66998 0.284234 0
M  V30 1605 O 156.87 1.79401 0.146692 0
M  V30 1606 H 153.245 0.721578 -0.211729 0
M  V30 1607 H 155.216 2.50348 -1.62384 0
M  V30 1608 C 153.965 3.4743 -0.137007 0
M  V30 1609 H 153.288 3.89686 -0.893592 0
M  V30 1610 H 154.728 4.2391 0.0872789 0
M  V30 1611 C 153.187 3.17548 1.12538 0
M  V30 1612 O 153.717 3.35437 2.21009 0
M  V30 1613 N 151.923 2.71499 1.03617 0
M  V30 1614 H 151.47 2.57143 0.153403 0
M  V30 1615 H 151.428 2.51881 1.88158 0
M  V30 1616 N 155.201 0.870884 1.31352 0
M  V30 1617 C 156.45 0.478408 1.95944 0
M  V30 1618 C 156.763 -0.974493 1.69597 0
M  V30 1619 O 157.969 -1.47316 2.28058 0
M  V30 1620 C 156.425 0.804609 3.50791 0
M  V30 1621 C 156.033 2.27433 3.85977 0
M  V30 1622 C 157.777 0.480648 4.2177 0
M  V30 1623 C 155.684 2.5429 5.33939 0
M  V30 1624 H 154.614 0.175175 0.733369 0
M  V30 1625 H 157.265 1.06391 1.4951 0
M  V30 1626 H 155.647 0.148347 3.95722 0
M  V30 1627 H 156.821 2.97373 3.52002 0
M  V30 1628 H 155.136 2.56442 3.28065 0
M  V30 1629 H 157.733 0.658519 5.30629 0
M  V30 1630 H 158.076 -0.578979 4.12254 0
M  V30 1631 H 158.609 1.09349 3.82476 0
M  V30 1632 H 155.348 3.58939 5.48491 0
M  V30 1633 H 154.868 1.88945 5.69263 0
M  V30 1634 H 156.547 2.39066 6.01212 0
M  V30 1635 N 156.679 -1.44442 0.630414 0
M  V30 1636 C 157.926 -2.02052 0.134617 0
M  V30 1637 C 158.254 -1.49576 -1.24327 0
M  V30 1638 O 157.509 -0.669806 -1.83881 0
M  V30 1639 C 157.808 -3.57332 0.0697835 0
M  V30 1640 C 157.474 -4.29058 1.38635 0
M  V30 1641 C 156.136 -4.4837 1.74694 0
M  V30 1642 C 158.488 -4.69872 2.25543 0
M  V30 1643 C 155.816 -5.05756 2.97369 0
M  V30 1644 C 158.168 -5.28616 3.47487 0
M  V30 1645 C 156.832 -5.46147 3.8377 0
M  V30 1646 H 156.102 -0.739361 0.0492598 0
M  V30 1647 H 158.749 -1.73217 0.816586 0
M  V30 1648 H 157.054 -3.85577 -0.695553 0
M  V30 1649 H 158.751 -3.99637 -0.330344 0
M  V30 1650 H 155.341 -4.14357 1.09574 0
M  V30 1651 H 159.525 -4.54666 1.98979 0
M  V30 1652 H 154.781 -5.17515 3.25558 0
M  V30 1653 H 158.955 -5.59192 4.15063 0
M  V30 1654 H 156.582 -5.9038 4.7891 0
M  V30 1655 N 158.157 -0.370918 -1.53173 0
M  V30 1656 C 159.403 0.217423 -2.01631 0
M  V30 1657 C 159.736 1.47983 -1.25756 0
M  V30 1658 O 159.011 1.91274 -0.352764 0
M  V30 1659 C 159.294 0.503982 -3.56556 0
M  V30 1660 C 159.147 -0.77243 -4.43118 0
M  V30 1661 C 160.466 1.30234 -4.20389 0
M  V30 1662 H 157.585 0.0775486 -0.732909 0
M  V30 1663 H 160.227 -0.496863 -1.83388 0
M  V30 1664 H 158.377 1.11248 -3.72231 0
M  V30 1665 H 160.049 -1.4098 -4.39229 0
M  V30 1666 H 158.292 -1.39167 -4.10871 0
M  V30 1667 H 158.963 -0.526815 -5.4948 0
M  V30 1668 H 161.439 0.787546 -4.08579 0
M  V30 1669 H 160.315 1.47158 -5.28806 0
M  V30 1670 H 160.576 2.31237 -3.76805 0
M  V30 1671 N 159.635 1.57281 -0.100228 0
M  V30 1672 C 160.582 2.14305 0.856858 0
M  V30 1673 C 161.552 1.06296 1.27634 0
M  V30 1674 O 162.737 1.34109 1.35718 0
M  V30 1675 C 159.877 2.73184 2.10866 0
M  V30 1676 C 158.99 3.95442 1.73925 0
M  V30 1677 C 158.125 4.42468 2.93931 0
M  V30 1678 C 157.164 5.57303 2.5314 0
M  V30 1679 N 156.301 5.99158 3.65997 0
M  V30 1680 H 161.141 2.95772 0.363726 0
M  V30 1681 H 158.678 1.46139 0.167858 0
M  V30 1682 H 160.636 3.05442 2.84185 0
M  V30 1683 H 159.266 1.94437 2.57671 0
M  V30 1684 H 158.318 3.69464 0.905554 0
M  V30 1685 H 159.63 4.78769 1.39935 0
M  V30 1686 H 158.784 4.76537 3.75496 0
M  V30 1687 H 157.523 3.58052 3.31134 0
M  V30 1688 H 156.528 5.22857 1.70003 0
M  V30 1689 H 157.753 6.43471 2.17075 0
M  V30 1690 H 155.699 5.17687 4.02909 0
M  V30 1691 H 155.616 6.77295 3.35869 0
M  V30 1692 H 156.884 6.3786 4.48057 0
M  V30 1693 N 161.113 -0.173488 1.56642 0
M  V30 1694 C 162.061 -1.23417 1.97157 0
M  V30 1695 C 163.055 -1.45946 0.860013 0
M  V30 1696 O 164.261 -1.46551 1.04512 0
M  V30 1697 H 160.636 -0.414818 0.62724 0
M  V30 1698 H 162.607 -0.865582 2.8557 0
M  V30 1699 C 161.356 -2.5665 2.34576 0
M  V30 1700 H 160.679 -2.40137 3.19647 0
M  V30 1701 H 162.119 -3.2956 2.6677 0
M  V30 1702 C 160.578 -3.15245 1.18836 0
M  V30 1703 O 161.108 -3.98883 0.474869 0
M  V30 1704 N 159.314 -2.74303 0.959497 0
M  V30 1705 H 158.861 -2.0639 1.54146 0
M  V30 1706 H 158.819 -3.13844 0.186932 0
M  V30 1707 N 162.591 -1.51276 -0.441967 0
M  V30 1708 C 163.521 -1.752 -1.54361 0
M  V30 1709 C 164.502 -0.601682 -1.59103 0
M  V30 1710 O 165.687 -0.843913 -1.74905 0
M  V30 1711 C 162.817 -1.87282 -2.92477 0
M  V30 1712 C 161.771 -3.02687 -3.02596 0
M  V30 1713 C 161.097 -2.99947 -4.42647 0
M  V30 1714 C 162.397 -4.4273 -2.77106 0
M  V30 1715 H 164.091 -2.67442 -1.34592 0
M  V30 1716 H 161.637 -1.28694 -0.646048 0
M  V30 1717 H 163.59 -2.02602 -3.695 0
M  V30 1718 H 162.314 -0.916844 -3.13467 0
M  V30 1719 H 160.973 -2.87065 -2.28012 0
M  V30 1720 H 160.621 -2.02136 -4.60597 0
M  V30 1721 H 160.321 -3.77439 -4.50348 0
M  V30 1722 H 161.845 -3.17354 -5.2165 0
M  V30 1723 H 163.259 -4.58727 -3.43864 0
M  V30 1724 H 161.656 -5.21893 -2.96222 0
M  V30 1725 H 162.726 -4.53087 -1.72744 0
M  V30 1726 N 164.069 0.697108 -1.41344 0
M  V30 1727 C 165.346 1.45154 -1.31109 0
M  V30 1728 C 165.726 2.11009 0.0620449 0
M  V30 1729 O 165.074 2.01571 1.07618 0
M  V30 1730 C 165.284 2.47223 -2.46337 0
M  V30 1731 C 166.632 3.1252 -2.87431 0
M  V30 1732 O 167.656 2.57547 -2.46065 0
M  V30 1733 O 166.515 4.12083 -3.58957 0
M  V30 1734 H 163.609 0.646365 -0.515889 0
M  V30 1735 H 166.155 0.727716 -1.53305 0
M  V30 1736 H 164.927 1.97204 -3.37974 0
M  V30 1737 H 164.55 3.27116 -2.2601 0
M  V30 1738 N 165.547 1.27147 0.931209 0
M  V30 1739 C 166.494 1.09568 2.03134 0
M  V30 1740 C 167.464 -0.00222433 1.661 0
M  V30 1741 O 168.649 0.159439 1.90133 0
M  V30 1742 C 165.789 0.745231 3.36957 0
M  V30 1743 C 164.902 1.92041 3.86968 0
M  V30 1744 C 164.037 1.51216 5.09222 0
M  V30 1745 C 163.076 2.65504 5.5152 0
M  V30 1746 N 162.213 2.25291 6.64972 0
M  V30 1747 H 167.053 2.03708 2.17502 0
M  V30 1748 H 164.59 1.01411 1.06556 0
M  V30 1749 H 166.548 0.522878 4.1391 0
M  V30 1750 H 165.178 -0.159202 3.22407 0
M  V30 1751 H 164.23 2.25541 3.06326 0
M  V30 1752 H 165.542 2.77787 4.1429 0
M  V30 1753 H 164.696 1.25084 5.93666 0
M  V30 1754 H 163.435 0.625749 4.83669 0
M  V30 1755 H 162.44 2.92354 4.65628 0
M  V30 1756 H 163.665 3.54761 5.7907 0
M  V30 1757 H 161.611 1.39098 6.41083 0
M  V30 1758 H 161.528 3.04577 6.91931 0
M  V30 1759 H 162.796 2.02398 7.52765 0
M  V30 1760 N 167.025 -1.13721 1.09112 0
M  V30 1761 C 168.25 -1.89314 0.847053 0
M  V30 1762 C 168.675 -1.78416 -0.595774 0
M  V30 1763 O 168.033 -1.12942 -1.41823 0
M  V30 1764 C 168.081 -3.3701 1.28284 0
M  V30 1765 O 167.185 -4.10054 0.439267 0
M  V30 1766 H 166.526 -0.588745 0.307044 0
M  V30 1767 H 169.056 -1.43902 1.45442 0
M  V30 1768 H 169.066 -3.87834 1.26683 0
M  V30 1769 H 167.741 -3.4426 2.33363 0
M  V30 1770 H 166.318 -3.69266 0.519312 0
M  V30 1771 N 168.503 -0.877838 -1.30888 0
M  V30 1772 C 169.752 -0.488793 -1.95688 0
M  V30 1773 C 170.065 0.965485 -1.70111 0
M  V30 1774 O 171.271 1.46104 -2.28836 0
M  V30 1775 C 169.727 -0.823201 -3.50359 0
M  V30 1776 C 169.335 -2.29477 -3.84765 0
M  V30 1777 C 171.079 -0.503009 -4.21509 0
M  V30 1778 C 168.986 -2.57118 -5.32583 0
M  V30 1779 H 167.916 -0.179062 -0.732429 0
M  V30 1780 H 170.567 -1.07183 -1.48943 0
M  V30 1781 H 168.949 -0.169331 -3.95638 0
M  V30 1782 H 170.123 -2.99236 -3.5042 0
M  V30 1783 H 168.438 -2.58178 -3.267 0
M  V30 1784 H 171.035 -0.68665 -5.30273 0
M  V30 1785 H 171.378 0.557109 -4.12555 0
M  V30 1786 H 171.911 -1.11376 -3.8189 0
M  V30 1787 H 168.65 -3.61843 -5.4658 0
M  V30 1788 H 168.17 -1.91961 -5.68253 0
M  V30 1789 H 169.849 -2.42251 -5.99936 0
M  V30 1790 N 169.982 1.44106 -0.638065 0
M  V30 1791 C 171.259 1.95453 -0.0759321 0
M  V30 1792 C 171.639 1.57984 1.40015 0
M  V30 1793 O 170.987 0.857361 2.11806 0
M  V30 1794 C 171.197 3.47655 -0.306132 0
M  V30 1795 C 172.545 4.24114 -0.203008 0
M  V30 1796 O 173.569 3.55405 -0.237871 0
M  V30 1797 O 172.428 5.46381 -0.113827 0
M  V30 1798 H 169.522 0.826797 0.0183332 0
M  V30 1799 H 172.068 1.54122 -0.710251 0
M  V30 1800 H 170.84 3.68 -1.3301 0
M  V30 1801 H 170.463 3.95949 0.361991 0
M  V30 1802 N 171.46 0.379036 1.52974 0
M  V30 1803 C 172.408 -0.476033 2.27677 0
M  V30 1804 C 173.402 -1.0719 1.31174 0
M  V30 1805 O 174.608 -1.01355 1.48752 0
M  V30 1806 H 170.983 -0.172255 0.732006 0
M  V30 1807 H 172.954 0.175615 2.97883 0
M  V30 1808 C 171.703 -1.5967 3.0887 0
M  V30 1809 H 171.026 -1.1475 3.82978 0
M  V30 1810 H 172.466 -2.16943 3.64296 0
M  V30 1811 C 170.925 -2.54682 2.20542 0
M  V30 1812 O 171.455 -3.57836 1.82527 0
M  V30 1813 N 169.661 -2.24183 1.84907 0
M  V30 1814 H 169.208 -1.40333 2.1602 0
M  V30 1815 H 169.166 -2.88006 1.26096 0
M  V30 1816 N 172.938 -1.57226 0.108567 0
M  V30 1817 C 173.885 -2.14756 -0.845481 0
M  V30 1818 C 174.855 -1.06971 -1.27068 0
M  V30 1819 O 176.04 -1.34827 -1.35005 0
M  V30 1820 C 173.18 -2.74298 -2.09415 0
M  V30 1821 C 172.293 -3.96358 -1.71826 0
M  V30 1822 C 171.428 -4.44021 -2.9158 0
M  V30 1823 C 170.467 -5.58637 -2.50181 0
M  V30 1824 N 169.604 -6.01091 -3.62814 0
M  V30 1825 H 174.444 -2.95961 -0.348035 0
M  V30 1826 H 171.981 -1.46226 -0.160106 0
M  V30 1827 H 173.939 -3.06945 -2.82561 0
M  V30 1828 H 172.569 -1.95801 -2.56636 0
M  V30 1829 H 171.621 -3.69939 -0.885947 0
M  V30 1830 H 172.933 -4.79504 -1.37394 0
M  V30 1831 H 172.087 -4.78522 -3.72963 0
M  V30 1832 H 170.826 -3.59803 -3.29231 0
M  V30 1833 H 169.831 -5.23751 -1.67228 0
M  V30 1834 H 171.056 -6.44613 -2.13659 0
M  V30 1835 H 169.002 -5.19817 -4.00158 0
M  V30 1836 H 168.919 -6.79066 -3.32273 0
M  V30 1837 H 170.187 -6.40227 -4.44668 0
M  V30 1838 N 174.416 0.165178 -1.56732 0
M  V30 1839 C 175.379 1.18822 -1.95995 0
M  V30 1840 C 176.379 1.3685 -0.84431 0
M  V30 1841 O 177.569 1.34152 -1.11126 0
M  V30 1842 C 174.701 2.5521 -2.26011 0
M  V30 1843 H 175.894 0.851825 -2.87548 0
M  V30 1844 H 173.447 0.407857 -1.50885 0
M  V30 1845 H 174.182 2.93852 -1.37191 0
M  V30 1846 H 173.967 2.43489 -3.07336 0
M  V30 1847 H 175.457 3.28927 -2.57288 0
M  V30 1848 N 175.894 1.51508 0.433938 0
M  V30 1849 C 176.824 1.76016 1.53429 0
M  V30 1850 C 177.805 0.610112 1.58782 0
M  V30 1851 O 178.99 0.853177 1.74455 0
M  V30 1852 C 176.12 1.88831 2.9148 0
M  V30 1853 C 175.074 3.04288 3.00987 0
M  V30 1854 C 174.4 3.0229 4.4105 0
M  V30 1855 C 175.7 4.44193 2.74754 0
M  V30 1856 H 177.394 2.68152 1.33171 0
M  V30 1857 H 174.94 1.29035 0.639214 0
M  V30 1858 H 176.893 2.04559 3.6842 0
M  V30 1859 H 175.617 0.933455 3.12976 0
M  V30 1860 H 174.276 2.8827 2.26486 0
M  V30 1861 H 173.924 2.04576 4.59519 0
M  V30 1862 H 173.624 3.79822 4.4834 0
M  V30 1863 H 175.148 3.20116 5.1996 0
M  V30 1864 H 176.562 4.60544 3.41426 0
M  V30 1865 H 174.959 5.23457 2.9345 0
M  V30 1866 H 176.029 4.53996 1.70339 0
M  V30 1867 N 177.372 -0.689602 1.41712 0
M  V30 1868 C 178.619 -1.44966 1.4139 0
M  V30 1869 C 178.947 -1.94484 0.025105 0
M  V30 1870 O 178.202 -1.70307 -0.964048 0
M  V30 1871 C 178.501 -2.67298 2.37247 0
M  V30 1872 C 178.167 -2.36405 3.83958 0
M  V30 1873 C 176.829 -2.27691 4.23923 0
M  V30 1874 C 179.181 -2.11043 4.76561 0
M  V30 1875 C 176.509 -1.91719 5.54492 0
M  V30 1876 C 178.861 -1.76578 6.07456 0
M  V30 1877 C 177.525 -1.66363 6.46436 0
M  V30 1878 H 176.795 -0.53047 0.517381 0
M  V30 1879 H 179.442 -0.787655 1.74552 0
M  V30 1880 H 177.747 -3.38461 1.9736 0
M  V30 1881 H 179.444 -3.25452 2.34269 0
M  V30 1882 H 176.034 -2.44085 3.52308 0
M  V30 1883 H 180.218 -2.16717 4.46483 0
M  V30 1884 H 175.474 -1.82367 5.83568 0
M  V30 1885 H 179.648 -1.55974 6.78708 0
M  V30 1886 H 177.275 -1.38258 7.47522 0
M  V30 1887 N 178.85 -1.27639 -0.924453 0
M  V30 1888 C 180.127 -1.04887 -1.651 0
M  V30 1889 C 180.507 0.415327 -2.06974 0
M  V30 1890 O 179.855 1.39923 -1.80648 0
M  V30 1891 C 180.065 -2.01348 -2.85061 0
M  V30 1892 C 181.413 -2.30899 -3.56329 0
M  V30 1893 O 182.437 -1.99348 -2.95193 0
M  V30 1894 O 181.296 -2.84699 -4.66485 0
M  V30 1895 H 178.39 -0.400083 -0.723784 0
M  V30 1896 H 180.936 -1.38916 -0.974703 0
M  V30 1897 H 179.708 -3.0008 -2.51133 0
M  V30 1898 H 179.331 -1.679 -3.6041 0
M  V30 1899 N 180.328 1.1314 -1.09713 0
M  V30 1900 C 181.556 1.88321 -0.856898 0
M  V30 1901 C 181.971 1.79276 0.592073 0
M  V30 1902 O 181.328 1.16142 1.40774 0
M  V30 1903 C 181.379 3.37812 -1.28706 0
M  V30 1904 O 181.1 3.46627 -2.67921 0
M  V30 1905 C 182.601 4.29952 -1.07964 0
M  V30 1906 H 179.821 0.596094 -0.308079 0
M  V30 1907 H 182.365 1.43205 -1.45988 0
M  V30 1908 H 180.52 3.805 -0.727912 0
M  V30 1909 H 180.934 4.39579 -2.8613 0
M  V30 1910 H 182.408 5.33159 -1.42986 0
M  V30 1911 H 182.885 4.39196 -0.0176577 0
M  V30 1912 H 183.491 3.93036 -1.62489 0
M  V30 1913 N 181.806 0.884767 1.30421 0
M  V30 1914 C 183.053 0.503105 1.96151 0
M  V30 1915 C 183.381 -0.947676 1.69851 0
M  V30 1916 O 182.636 -1.68467 0.995861 0
M  V30 1917 C 182.935 0.724318 3.49983 0
M  V30 1918 C 182.601 2.15015 3.96332 0
M  V30 1919 C 181.263 2.54005 4.08699 0
M  V30 1920 C 183.615 3.07936 4.20505 0
M  V30 1921 C 180.943 3.85128 4.42599 0
M  V30 1922 C 183.295 4.3859 4.55874 0
M  V30 1923 C 181.959 4.77474 4.66449 0
M  V30 1924 H 181.229 0.184099 0.717766 0
M  V30 1925 H 183.876 1.12058 1.55291 0
M  V30 1926 H 182.181 0.0238086 3.91793 0
M  V30 1927 H 183.878 0.408617 3.98913 0
M  V30 1928 H 180.468 1.8375 3.87213 0
M  V30 1929 H 184.652 2.79033 4.10431 0
M  V30 1930 H 179.908 4.14996 4.48986 0
M  V30 1931 H 184.082 5.10629 4.7353 0
M  V30 1932 H 181.709 5.79115 4.92473 0
M  V30 1933 N 183.284 -1.43765 0.645699 0
M  V30 1934 C 184.509 -2.06767 0.161883 0
M  V30 1935 C 184.934 -1.48034 -1.16049 0
M  V30 1936 O 184.292 -0.587369 -1.71522 0
M  V30 1937 C 184.34 -3.60519 0.0762003 0
M  V30 1938 O 183.444 -4.00982 -0.963721 0
M  V30 1939 H 182.785 -0.657675 0.091429 0
M  V30 1940 H 185.315 -1.84397 0.886499 0
M  V30 1941 H 185.325 -4.07853 -0.109604 0
M  V30 1942 H 184 -4.02646 1.04157 0
M  V30 1943 H 182.577 -3.65253 -0.751312 0
M  V30 1944 N 184.763 -0.387143 -1.52771 0
M  V30 1945 C 185.696 0.493123 -2.22808 0
M  V30 1946 C 186.674 1.0658 -1.22798 0
M  V30 1947 O 187.858 1.11785 -1.51777 0
M  V30 1948 C 184.985 1.68238 -2.93962 0
M  V30 1949 C 184.031 1.23515 -4.08223 0
M  V30 1950 S 184.864 0.21848 -5.35054 0
M  V30 1951 C 186.02 1.41357 -6.09729 0
M  V30 1952 H 186.253 -0.101625 -2.97126 0
M  V30 1953 H 183.786 -0.171323 -1.53447 0
M  V30 1954 H 185.744 2.36443 -3.35567 0
M  V30 1955 H 184.405 2.24842 -2.19328 0
M  V30 1956 H 183.598 2.12304 -4.57103 0
M  V30 1957 H 183.2 0.632044 -3.68621 0
M  V30 1958 H 185.492 2.34101 -6.3577 0
M  V30 1959 H 186.435 0.965736 -7.01484 0
M  V30 1960 H 186.843 1.6294 -5.40473 0
M  V30 1961 N 186.241 1.57166 -0.116904 0
M  V30 1962 C 187.488 1.95123 0.541603 0
M  V30 1963 C 187.816 1.00006 1.6682 0
M  V30 1964 O 187.071 0.0235658 1.95686 0
M  V30 1965 C 187.37 3.39508 1.11664 0
M  V30 1966 C 187.036 4.50762 0.111606 0
M  V30 1967 C 185.698 4.80918 -0.164758 0
M  V30 1968 C 188.05 5.18036 -0.573438 0
M  V30 1969 C 185.378 5.75666 -1.13249 0
M  V30 1970 C 187.73 6.13824 -1.52978 0
M  V30 1971 C 186.394 6.42374 -1.81415 0
M  V30 1972 H 185.664 0.714005 0.198187 0
M  V30 1973 H 188.311 1.9048 -0.197365 0
M  V30 1974 H 186.616 3.40835 1.93232 0
M  V30 1975 H 188.313 3.66189 1.63422 0
M  V30 1976 H 184.903 4.27272 0.337192 0
M  V30 1977 H 189.087 4.94896 -0.373092 0
M  V30 1978 H 184.343 5.96092 -1.35958 0
M  V30 1979 H 188.517 6.65039 -2.06629 0
M  V30 1980 H 186.144 7.15599 -2.56557 0
M  V30 1981 N 187.719 -0.156864 1.56817 0
M  V30 1982 C 188.967 -0.869404 1.82444 0
M  V30 1983 C 189.288 -1.82147 0.69623 0
M  V30 1984 O 188.558 -1.93847 -0.28287 0
M  V30 1985 H 187.138 -0.324043 0.673056 0
M  V30 1986 H 189.8 -0.153224 1.94297 0
M  V30 1987 H 188.896 -1.43761 2.77019 0
M  V30 1988 N 189.197 -1.51736 -0.425897 0
M  V30 1989 C 190.145 -1.74464 -1.53834 0
M  V30 1990 C 191.139 -0.611241 -1.57988 0
M  V30 1991 O 192.345 -0.792899 -1.61596 0
M  V30 1992 H 188.72 -0.551437 -0.511293 0
M  V30 1993 H 190.691 -2.67694 -1.31843 0
M  V30 1994 C 189.44 -1.8972 -2.91379 0
M  V30 1995 H 188.763 -2.76344 -2.88919 0
M  V30 1996 H 190.203 -2.09629 -3.68553 0
M  V30 1997 C 188.662 -0.65992 -3.30374 0
M  V30 1998 O 189.192 0.180083 -4.01296 0
M  V30 1999 N 187.398 -0.500677 -2.86254 0
M  V30 2000 H 186.945 -1.18532 -2.28709 0
M  V30 2001 H 186.903 0.325903 -3.12706 0
M  V30 2002 N 190.675 0.682077 -1.42076 0
M  V30 2003 C 191.924 1.43786 -1.41451 0
M  V30 2004 C 192.237 1.95574 -0.0317074 0
M  V30 2005 O 193.443 2.71326 0.0971462 0
M  V30 2006 C 191.899 2.60071 -2.48779 0
M  V30 2007 C 191.507 2.15013 -3.93031 0
M  V30 2008 C 193.251 3.37626 -2.57311 0
M  V30 2009 C 191.158 3.28336 -4.91883 0
M  V30 2010 H 190.088 0.540143 -0.526082 0
M  V30 2011 H 192.739 0.739157 -1.67955 0
M  V30 2012 H 191.121 3.32275 -2.15429 0
M  V30 2013 H 192.295 1.5001 -4.35699 0
M  V30 2014 H 190.61 1.50416 -3.88284 0
M  V30 2015 H 193.207 4.22012 -3.28345 0
M  V30 2016 H 193.55 3.83727 -1.61429 0
M  V30 2017 H 194.083 2.72488 -2.89819 0
M  V30 2018 H 190.822 2.87234 -5.89217 0
M  V30 2019 H 190.342 3.92145 -4.53853 0
M  V30 2020 H 192.021 3.93913 -5.13265 0
M  V30 2021 N 192.153 1.28127 0.917671 0
M  V30 2022 C 193.083 1.14248 2.03641 0
M  V30 2023 C 194.064 0.0412748 1.7005 0
M  V30 2024 O 195.249 0.217566 1.92977 0
M  V30 2025 C 192.379 0.799431 3.37974 0
M  V30 2026 C 191.333 1.85497 3.85713 0
M  V30 2027 C 190.659 1.36565 5.16966 0
M  V30 2028 C 191.959 3.26085 4.08002 0
M  V30 2029 H 193.653 2.07835 2.15511 0
M  V30 2030 H 191.199 1.00064 1.03553 0
M  V30 2031 H 193.152 0.689114 4.15727 0
M  V30 2032 H 191.876 -0.172145 3.26146 0
M  V30 2033 H 190.535 1.95437 3.10161 0
M  V30 2034 H 190.183 0.383253 5.01538 0
M  V30 2035 H 189.883 2.07143 5.49878 0
M  V30 2036 H 191.407 1.26848 5.97279 0
M  V30 2037 H 192.821 3.19089 4.76293 0
M  V30 2038 H 191.218 3.94462 4.52238 0
M  V30 2039 H 192.288 3.70394 3.12948 0
M  V30 2040 N 193.631 -1.12557 1.10312 0
M  V30 2041 C 194.856 -1.88405 0.867085 0
M  V30 2042 C 195.281 -1.79038 -0.576817 0
M  V30 2043 O 194.639 -1.14439 -1.40618 0
M  V30 2044 C 194.687 -3.3563 1.31851 0
M  V30 2045 O 193.791 -4.09565 0.482734 0
M  V30 2046 H 193.132 -0.585455 0.313271 0
M  V30 2047 H 195.662 -1.42352 1.4696 0
M  V30 2048 H 195.672 -3.86469 1.3079 0
M  V30 2049 H 194.347 -3.41765 2.37001 0
M  V30 2050 H 192.924 -3.68695 0.558448 0
M  V30 2051 N 195.109 -0.891671 -1.2995 0
M  V30 2052 C 196.349 -0.520296 -1.97667 0
M  V30 2053 C 196.713 0.914797 -1.68806 0
M  V30 2054 O 197.914 1.39263 -2.29911 0
M  V30 2055 C 196.185 -0.795222 -3.48441 0
M  V30 2056 S 197.744 -0.526953 -4.35624 0
M  V30 2057 H 194.562 -0.19333 -0.684211 0
M  V30 2058 H 197.164 -1.15238 -1.57926 0
M  V30 2059 H 195.868 -1.83805 -3.66938 0
M  V30 2060 H 195.399 -0.15095 -3.9311 0
M  V30 2061 H 197.414 0.631533 -4.92165 0
M  V30 2062 N 196.587 1.43421 -0.653314 0
M  V30 2063 C 197.534 2.30768 0.0382271 0
M  V30 2064 C 198.504 1.44755 0.814576 0
M  V30 2065 O 199.689 1.73624 0.791162 0
M  V30 2066 C 196.829 3.30336 0.998599 0
M  V30 2067 C 195.942 4.31448 0.218342 0
M  V30 2068 C 195.077 5.18098 1.17252 0
M  V30 2069 C 194.116 6.10902 0.382702 0
M  V30 2070 N 193.253 6.90176 1.28848 0
M  V30 2071 H 198.093 2.89357 -0.712511 0
M  V30 2072 H 195.63 1.42548 -0.363128 0
M  V30 2073 H 197.588 3.86572 1.56901 0
M  V30 2074 H 196.218 2.73397 1.71621 0
M  V30 2075 H 195.27 3.77506 -0.46836 0
M  V30 2076 H 196.582 4.97227 -0.395812 0
M  V30 2077 H 195.736 5.7896 1.81356 0
M  V30 2078 H 194.475 4.52444 1.82058 0
M  V30 2079 H 193.48 5.49128 -0.27169 0
M  V30 2080 H 194.705 6.78598 -0.260957 0
M  V30 2081 H 192.651 6.27171 1.92334 0
M  V30 2082 H 192.568 7.52478 0.728887 0
M  V30 2083 H 193.836 7.55543 1.91766 0
M  V30 2084 N 198.065 0.39524 1.52563 0
M  V30 2085 C 199.311 -0.185318 2.01952 0
M  V30 2086 C 199.644 -1.45964 1.28095 0
M  V30 2087 O 198.919 -1.90689 0.38315 0
M  V30 2088 C 199.202 -0.447193 3.57312 0
M  V30 2089 C 199.055 0.842828 4.41833 0
M  V30 2090 C 200.374 -1.23529 4.22408 0
M  V30 2091 H 197.493 -0.0658788 0.73405 0
M  V30 2092 H 200.135 0.525975 1.82575 0
M  V30 2093 H 198.285 -1.05312 3.73954 0
M  V30 2094 H 199.957 1.4795 4.36931 0
M  V30 2095 H 198.2 1.45686 4.08605 0
M  V30 2096 H 198.871 0.614165 5.48573 0
M  V30 2097 H 201.347 -0.722445 4.0978 0
M  V30 2098 H 200.223 -1.38727 5.3108 0
M  V30 2099 H 200.484 -2.25213 3.80436 0
M  V30 2100 N 199.544 -1.57102 0.125237 0
M  V30 2101 C 200.507 -2.14471 -0.80838 0
M  V30 2102 C 201.507 -1.0811 -1.19033 0
M  V30 2103 O 202.697 -1.33856 -1.11482 0
M  V30 2104 C 199.829 -2.69005 -2.09402 0
M  V30 2105 H 201.022 -2.98297 -0.309696 0
M  V30 2106 H 198.575 -1.55807 -0.124051 0
M  V30 2107 H 199.31 -1.88785 -2.63687 0
M  V30 2108 H 199.095 -3.46799 -1.82957 0
M  V30 2109 H 200.585 -3.13278 -2.76128 0
M  V30 2110 N 201.022 0.148545 -1.56898 0
M  V30 2111 C 202.25 0.876389 -1.87422 0
M  V30 2112 C 202.665 1.74809 -0.713256 0
M  V30 2113 O 202.022 1.79725 0.317025 0
M  V30 2114 C 202.073 1.73438 -3.17178 0
M  V30 2115 O 201.794 0.897809 -4.28802 0
M  V30 2116 C 203.295 2.56993 -3.61205 0
M  V30 2117 H 200.515 0.253489 -0.621277 0
M  V30 2118 H 203.059 0.141798 -2.04008 0
M  V30 2119 H 201.214 2.42205 -3.0235 0
M  V30 2120 H 201.628 1.48672 -5.02988 0
M  V30 2121 H 203.102 3.12773 -4.54838 0
M  V30 2122 H 203.579 3.32958 -2.86419 0
M  V30 2123 H 204.185 1.9352 -3.78722 0
M  V30 2124 N 202.5 1.5196 0.417844 0
M  V30 2125 C 203.777 1.56146 1.17803 0
M  V30 2126 C 204.157 0.337275 2.08388 0
M  V30 2127 O 203.505 -0.676447 2.18258 0
M  V30 2128 C 203.715 2.88566 1.96293 0
M  V30 2129 C 205.063 3.41244 2.52662 0
M  V30 2130 O 206.087 2.90247 2.06483 0
M  V30 2131 O 204.946 4.30273 3.36938 0
M  V30 2132 H 202.04 0.628598 0.537395 0
M  V30 2133 H 204.586 1.64283 0.425331 0
M  V30 2134 H 203.358 3.69116 1.2988 0
M  V30 2135 H 202.981 2.83681 2.78587 0
M  V30 2136 N 203.978 -0.674533 1.42435 0
M  V30 2137 C 204.888 -1.81751 1.48337 0
M  V30 2138 C 205.904 -1.69975 0.372099 0
M  V30 2139 O 207.08 -1.91521 0.62304 0
M  V30 2140 C 204.145 -3.17895 1.38361 0
M  V30 2141 C 203.206 -3.41625 2.59982 0
M  V30 2142 C 202.439 -4.71274 2.50473 0
M  V30 2143 O 202.662 -5.49197 1.54075 0
M  V30 2144 O 201.596 -4.96254 3.4061 0
M  V30 2145 H 205.422 -1.79728 2.44809 0
M  V30 2146 H 203.007 -0.830312 1.24202 0
M  V30 2147 H 204.889 -3.99136 1.35161 0
M  V30 2148 H 203.564 -3.20555 0.450144 0
M  V30 2149 H 202.471 -2.60231 2.68757 0
M  V30 2150 H 203.804 -3.43796 3.52229 0
M  V30 2151 N 205.456 -1.28612 -0.910864 0
M  V30 2152 C 206.703 -1.15934 -1.66029 0
M  V30 2153 C 207.031 0.291483 -1.92303 0
M  V30 2154 O 206.286 1.22816 -1.52364 0
M  V30 2155 C 206.585 -1.90624 -3.0232 0
M  V30 2156 C 206.251 -3.40405 -2.95695 0
M  V30 2157 C 204.913 -3.81255 -2.93595 0
M  V30 2158 C 207.265 -4.359 -2.85728 0
M  V30 2159 C 204.593 -5.15936 -2.79334 0
M  V30 2160 C 206.945 -5.70657 -2.73007 0
M  V30 2161 C 205.609 -6.10779 -2.69267 0
M  V30 2162 H 204.879 -0.424234 -0.607541 0
M  V30 2163 H 207.526 -1.5942 -1.06101 0
M  V30 2164 H 205.831 -1.39696 -3.6605 0
M  V30 2165 H 207.528 -1.78228 -3.59215 0
M  V30 2166 H 204.118 -3.07927 -2.98125 0
M  V30 2167 H 208.302 -4.053 -2.86436 0
M  V30 2168 H 203.558 -5.46146 -2.74835 0
M  V30 2169 H 207.732 -6.44311 -2.64264 0
M  V30 2170 H 205.359 -7.1509 -2.57974 0
M  V30 2171 N 206.934 1.1197 -1.10907 0
M  V30 2172 C 208.182 1.83225 -0.852819 0
M  V30 2173 C 208.503 1.84769 0.623341 0
M  V30 2174 O 207.773 1.3143 1.45269 0
M  V30 2175 H 206.353 0.67849 -0.312507 0
M  V30 2176 H 209.015 1.3556 -1.40033 0
M  V30 2177 H 208.111 2.87265 -1.22005 0
M  V30 2178 N 208.412 0.89855 1.29475 0
M  V30 2179 C 209.359 0.373819 2.27753 0
M  V30 2180 C 210.329 -0.543444 1.56958 0
M  V30 2181 O 211.514 -0.468934 1.84948 0
M  V30 2182 C 208.654 -0.393648 3.42848 0
M  V30 2183 C 207.767 0.554379 4.28428 0
M  V30 2184 C 206.902 -0.230026 5.30702 0
M  V30 2185 C 205.941 0.712599 6.07938 0
M  V30 2186 N 205.078 -0.0373283 7.0209 0
M  V30 2187 H 209.918 1.21699 2.72017 0
M  V30 2188 H 207.455 0.611456 1.33789 0
M  V30 2189 H 209.413 -0.85466 4.08352 0
M  V30 2190 H 208.043 -1.20128 2.99615 0
M  V30 2191 H 207.095 1.13391 3.63107 0
M  V30 2192 H 208.407 1.27597 4.82204 0
M  V30 2193 H 207.561 -0.752288 6.02018 0
M  V30 2194 H 206.3 -0.984758 4.77654 0
M  V30 2195 H 205.305 1.24637 5.35486 0
M  V30 2196 H 206.53 1.46664 6.63074 0
M  V30 2197 H 204.476 -0.774348 6.51414 0
M  V30 2198 H 204.393 0.624374 7.53417 0
M  V30 2199 H 205.661 -0.539891 7.77628 0
M  V30 2200 N 209.89 -1.43072 0.660911 0
M  V30 2201 C 211.115 -2.06584 0.183805 0
M  V30 2202 C 211.54 -1.49257 -1.14472 0
M  V30 2203 O 210.898 -0.605528 -1.70889 0
M  V30 2204 C 210.946 -3.60418 0.114434 0
M  V30 2205 O 210.05 -4.01981 -0.921137 0
M  V30 2206 H 209.391 -0.656669 0.0983994 0
M  V30 2207 H 211.921 -1.83447 0.906006 0
M  V30 2208 H 211.931 -4.07946 -0.0663394 0
M  V30 2209 H 210.606 -4.01519 1.08422 0
M  V30 2210 H 209.183 -3.66029 -0.71253 0
M  V30 2211 N 211.368 -0.403325 -1.52352 0
M  V30 2212 C 212.315 0.425011 -2.26853 0
M  V30 2213 C 213.285 1.04598 -1.29029 0
M  V30 2214 O 214.47 1.07135 -1.57882 0
M  V30 2215 C 211.61 1.53888 -3.08889 0
M  V30 2216 C 210.723 0.939396 -4.21663 0
M  V30 2217 C 209.858 2.02547 -4.91068 0
M  V30 2218 C 208.897 1.40263 -5.95813 0
M  V30 2219 N 208.034 2.4286 -6.58759 0
M  V30 2220 H 212.874 -0.21674 -2.97211 0
M  V30 2221 H 210.411 -0.118722 -1.4662 0
M  V30 2222 H 212.369 2.19558 -3.54753 0
M  V30 2223 H 210.999 2.15074 -2.40714 0
M  V30 2224 H 210.051 0.171898 -3.80011 0
M  V30 2225 H 211.363 0.44436 -4.96817 0
M  V30 2226 H 210.517 2.75958 -5.40308 0
M  V30 2227 H 209.256 2.55415 -4.15469 0
M  V30 2228 H 208.261 0.653833 -5.45898 0
M  V30 2229 H 209.486 0.881719 -6.73352 0
M  V30 2230 H 207.432 2.94871 -5.85992 0
M  V30 2231 H 207.349 1.98152 -7.2957 0
M  V30 2232 H 208.617 3.15858 -7.12639 0
M  V30 2233 N 212.846 1.57033 -0.133567 0
M  V30 2234 C 214.071 2.00475 0.531477 0
M  V30 2235 C 214.496 1.01291 1.58499 0
M  V30 2236 O 213.854 -0.0133279 1.81295 0
M  V30 2237 C 213.902 3.42729 1.12113 0
M  V30 2238 O 213.006 3.46498 2.23636 0
M  V30 2239 H 212.347 0.650876 0.131362 0
M  V30 2240 H 214.877 2.03344 -0.22634 0
M  V30 2241 H 214.887 3.81246 1.4531 0
M  V30 2242 H 213.562 4.14428 0.349557 0
M  V30 2243 H 212.139 3.19811 1.91769 0
M  V30 2244 N 214.325 -0.140222 1.56975 0
M  V30 2245 C 215.555 -0.865181 1.87612 0
M  V30 2246 C 215.963 -1.74942 0.72055 0
M  V30 2247 O 215.306 -1.80917 -0.318561 0
M  V30 2248 C 215.368 -1.76782 3.13031 0
M  V30 2249 C 215.032 -1.06005 4.44536 0
M  V30 2250 C 216.029 -0.410768 5.18275 0
M  V30 2251 C 213.714 -1.04754 4.91255 0
M  V30 2252 C 215.708 0.241572 6.36942 0
M  V30 2253 C 213.395 -0.391394 6.09845 0
M  V30 2254 C 214.393 0.252029 6.82535 0
M  V30 2255 O 214.081 0.897757 7.98871 0
M  V30 2256 H 213.813 -0.255188 0.625983 0
M  V30 2257 H 216.367 -0.135653 2.04952 0
M  V30 2258 H 214.597 -2.53846 2.91718 0
M  V30 2259 H 216.286 -2.36533 3.29859 0
M  V30 2260 H 217.052 -0.412195 4.83245 0
M  V30 2261 H 212.931 -1.53777 4.34596 0
M  V30 2262 H 216.475 0.744375 6.93617 0
M  V30 2263 H 212.372 -0.387656 6.44335 0
M  V30 2264 H 213.14 0.800102 8.1458 0
M  V30 2265 N 215.803 -1.52179 -0.40978 0
M  V30 2266 C 217.051 -1.65878 -1.15451 0
M  V30 2267 C 217.372 -0.390771 -1.91044 0
M  V30 2268 O 216.642 0.594323 -1.86667 0
M  V30 2269 H 215.222 -0.611405 -0.429177 0
M  V30 2270 H 217.884 -1.89219 -0.467134 0
M  V30 2271 H 216.98 -2.49954 -1.86894 0
M  V30 2272 N 217.281 0.66697 -1.42791 0
M  V30 2273 C 218.528 1.42699 -1.43678 0
M  V30 2274 C 218.856 1.94419 -0.0560425 0
M  V30 2275 O 218.111 1.7182 0.936831 0
M  V30 2276 C 218.41 2.6349 -2.4147 0
M  V30 2277 C 218.076 2.30267 -3.8767 0
M  V30 2278 C 216.738 2.20918 -4.27491 0
M  V30 2279 C 219.09 2.03435 -4.79858 0
M  V30 2280 C 216.418 1.82873 -5.57471 0
M  V30 2281 C 218.77 1.66892 -6.10188 0
M  V30 2282 C 217.434 1.56058 -6.49001 0
M  V30 2283 H 216.704 0.522171 -0.525755 0
M  V30 2284 H 219.351 0.759785 -1.75783 0
M  V30 2285 H 217.656 3.35279 -2.0272 0
M  V30 2286 H 219.353 3.21684 -2.39417 0
M  V30 2287 H 215.943 2.38449 -3.56146 0
M  V30 2288 H 220.127 2.09586 -4.49875 0
M  V30 2289 H 215.383 1.7306 -5.86396 0
M  V30 2290 H 219.557 1.45157 -6.81104 0
M  V30 2291 H 217.184 1.26348 -7.49627 0
M  V30 2292 N 218.759 1.29093 0.90403 0
M  V30 2293 C 220.005 1.16986 1.65656 0
M  V30 2294 C 220.338 -0.278925 1.92186 0
M  V30 2295 O 219.613 -1.2019 1.5292 0
M  V30 2296 C 219.896 1.97908 3.0084 0
M  V30 2297 C 219.749 3.50903 2.81403 0
M  V30 2298 C 221.068 1.80208 4.01513 0
M  V30 2299 H 218.187 0.426346 0.601164 0
M  V30 2300 H 220.829 1.58518 1.04747 0
M  V30 2301 H 218.979 1.62616 3.52829 0
M  V30 2302 H 220.651 3.96153 2.36348 0
M  V30 2303 H 218.894 3.76045 2.1627 0
M  V30 2304 H 219.565 4.02791 3.77443 0
M  V30 2305 H 222.041 2.11025 3.58619 0
M  V30 2306 H 220.917 2.39184 4.94047 0
M  V30 2307 H 221.178 0.756119 4.35586 0
M  V30 2308 N 220.237 -1.11381 1.11499 0
M  V30 2309 C 221.187 -2.15555 0.74298 0
M  V30 2310 C 222.171 -1.58894 -0.253276 0
M  V30 2311 O 223.363 -1.76897 -0.0602918 0
M  V30 2312 C 220.492 -3.42782 0.188481 0
M  V30 2313 C 219.578 -4.064 1.21244 0
M  V30 2314 N 219.969 -4.44864 2.40685 0
M  V30 2315 C 218.267 -4.3333 1.05552 0
M  V30 2316 C 218.968 -4.94715 3.05994 0
M  V30 2317 N 217.944 -4.90909 2.33472 0
M  V30 2318 H 221.746 -2.43074 1.65203 0
M  V30 2319 H 219.26 -1.28401 0.994329 0
M  V30 2320 H 221.257 -4.16789 -0.0961693 0
M  V30 2321 H 219.917 -3.16727 -0.715149 0
M  V30 2322 H 220.928 -4.36876 2.78136 0
M  V30 2323 H 217.605 -4.1698 0.208372 0
M  V30 2324 H 218.995 -5.34103 4.07656 0
M  V30 2325 N 221.715 -0.905404 -1.28997 0
M  V30 2326 C 222.945 -0.549049 -1.99171 0
M  V30 2327 C 223.353 0.87203 -1.67906 0
M  V30 2328 O 222.696 1.58796 -0.923561 0
M  V30 2329 C 222.758 -0.668306 -3.53234 0
M  V30 2330 C 222.422 -2.0574 -4.08069 0
M  V30 2331 C 223.419 -3.0292 -4.22534 0
M  V30 2332 C 221.104 -2.36833 -4.42962 0
M  V30 2333 C 223.098 -4.29314 -4.71135 0
M  V30 2334 C 220.785 -3.63467 -4.91258 0
M  V30 2335 C 221.783 -4.59522 -5.053 0
M  V30 2336 O 221.471 -5.83907 -5.52546 0
M  V30 2337 H 221.203 -0.208784 -0.64295 0
M  V30 2338 H 223.757 -1.21836 -1.65363 0
M  V30 2339 H 221.987 0.0580547 -3.86656 0
M  V30 2340 H 223.676 -0.320273 -4.04634 0
M  V30 2341 H 224.442 -2.80216 -3.95859 0
M  V30 2342 H 220.321 -1.62824 -4.31288 0
M  V30 2343 H 223.865 -5.04293 -4.8201 0
M  V30 2344 H 219.762 -3.86 -5.17372 0
M  V30 2345 H 220.53 -5.86578 -5.70849 0
M  V30 2346 N 223.193 1.4272 -0.668489 0
M  V30 2347 C 224.103 2.34596 0.0139753 0
M  V30 2348 C 225.119 1.5474 0.795703 0
M  V30 2349 O 226.295 1.87334 0.739466 0
M  V30 2350 C 223.36 3.33202 0.957982 0
M  V30 2351 C 222.421 4.28957 0.17149 0
M  V30 2352 C 221.654 5.22853 1.07053 0
M  V30 2353 O 221.877 5.21531 2.31001 0
M  V30 2354 O 220.811 5.9952 0.534727 0
M  V30 2355 H 224.637 2.9448 -0.742661 0
M  V30 2356 H 222.222 1.43117 -0.428705 0
M  V30 2357 H 224.104 3.93796 1.50008 0
M  V30 2358 H 222.779 2.758 1.69458 0
M  V30 2359 H 221.686 3.71796 -0.414558 0
M  V30 2360 H 223.019 4.89383 -0.52586 0
M  V30 2361 N 224.671 0.411399 1.52136 0
M  V30 2362 C 225.948 -0.222308 1.94333 0
M  V30 2363 C 226.328 -1.6242 1.34844 0
M  V30 2364 O 225.676 -2.22384 0.525145 0
M  V30 2365 C 225.886 -0.226345 3.48265 0
M  V30 2366 C 227.234 -0.444592 4.22266 0
M  V30 2367 O 228.258 -0.305602 3.54887 0
M  V30 2368 O 227.117 -0.718749 5.41753 0
M  V30 2369 H 224.211 -0.143907 0.814383 0
M  V30 2370 H 226.757 0.467506 1.63133 0
M  V30 2371 H 225.529 0.75475 3.83952 0
M  V30 2372 H 225.152 -0.960163 3.85832 0
M  V30 2373 N 226.149 -1.5696 0.141893 0
M  V30 2374 C 227.059 -2.20066 -0.812905 0
M  V30 2375 C 228.075 -1.18344 -1.27557 0
M  V30 2376 O 229.251 -1.50902 -1.33381 0
M  V30 2377 C 226.316 -2.80583 -2.03652 0
M  V30 2378 C 225.377 -3.97414 -1.62359 0
M  V30 2379 C 224.61 -4.55036 -2.78887 0
M  V30 2380 O 224.833 -4.11538 -3.94959 0
M  V30 2381 O 223.767 -5.45376 -2.54653 0
M  V30 2382 H 227.593 -3.02157 -0.305746 0
M  V30 2383 H 225.178 -1.49159 -0.0848799 0
M  V30 2384 H 227.06 -3.19067 -2.75272 0
M  V30 2385 H 225.735 -2.01508 -2.5333 0
M  V30 2386 H 224.642 -3.63656 -0.877775 0
M  V30 2387 H 225.975 -4.77994 -1.17401 0
M  V30 2388 N 227.627 0.131896 -1.57047 0
M  V30 2389 C 228.537 1.1815 -2.02676 0
M  V30 2390 C 229.553 1.46113 -0.944824 0
M  V30 2391 O 230.729 1.57485 -1.25541 0
M  V30 2392 C 227.794 2.49139 -2.41103 0
M  V30 2393 C 226.855 2.28688 -3.63318 0
M  V30 2394 C 226.088 3.53431 -3.99903 0
M  V30 2395 O 226.311 4.60223 -3.36973 0
M  V30 2396 O 225.245 3.45198 -4.93074 0
M  V30 2397 H 229.071 0.824069 -2.92306 0
M  V30 2398 H 226.656 0.341745 -1.45439 0
M  V30 2399 H 228.538 3.26338 -2.66611 0
M  V30 2400 H 227.213 2.84382 -1.54624 0
M  V30 2401 H 226.12 1.4939 -3.42977 0
M  V30 2402 H 227.453 1.98355 -4.50462 0
M  V30 2403 N 229.106 1.52395 0.401703 0
M  V30 2404 C 230.331 1.70972 1.17403 0
M  V30 2405 C 230.756 0.421615 1.83314 0
M  V30 2406 O 230.114 -0.621564 1.70312 0
M  V30 2407 C 230.162 2.85151 2.20728 0
M  V30 2408 O 229.266 2.51238 3.27037 0
M  V30 2409 H 228.607 0.568927 0.342372 0
M  V30 2410 H 231.137 1.99131 0.469891 0
M  V30 2411 H 231.147 3.10279 2.64936 0
M  V30 2412 H 229.822 3.78603 1.7214 0
M  V30 2413 H 228.399 2.36808 2.88057 0
M  V30 2414 N 230.584 -0.659388 1.43143 0
M  V30 2415 C 231.547 -1.75432 1.47501 0
M  V30 2416 C 232.547 -1.56707 0.360512 0
M  V30 2417 O 233.737 -1.62717 0.622002 0
M  V30 2418 C 230.869 -3.14239 1.32162 0
M  V30 2419 H 232.062 -1.7295 2.45006 0
M  V30 2420 H 229.615 -0.870469 1.29817 0
M  V30 2421 H 230.35 -3.22336 0.356401 0
M  V30 2422 H 230.135 -3.29235 2.12948 0
M  V30 2423 H 231.625 -3.94094 1.3813 0
M  V30 2424 N 232.062 -1.29571 -0.897171 0
M  V30 2425 C 233.009 -1.14916 -2.00158 0
M  V30 2426 C 233.979 -0.0418149 -1.66047 0
M  V30 2427 O 235.164 -0.209793 -1.89643 0
M  V30 2428 C 232.304 -0.834307 -3.34863 0
M  V30 2429 C 231.417 -2.02234 -3.8174 0
M  V30 2430 C 230.552 -1.64664 -5.05034 0
M  V30 2431 C 229.591 -2.80033 -5.44286 0
M  V30 2432 N 228.728 -2.42843 -6.58765 0
M  V30 2433 H 233.568 -2.09403 -2.12025 0
M  V30 2434 H 231.105 -1.042 -1.0383 0
M  V30 2435 H 233.063 -0.632436 -4.12379 0
M  V30 2436 H 231.693 0.0736656 -3.22716 0
M  V30 2437 H 230.745 -2.33583 -3.00238 0
M  V30 2438 H 232.057 -2.88673 -4.06779 0
M  V30 2439 H 231.211 -1.4078 -5.9014 0
M  V30 2440 H 229.95 -0.753766 -4.8184 0
M  V30 2441 H 228.955 -3.04596 -4.57713 0
M  V30 2442 H 230.18 -3.69989 -5.6946 0
M  V30 2443 H 228.126 -1.56046 -6.3717 0
M  V30 2444 H 228.043 -3.22815 -6.83613 0
M  V30 2445 H 229.311 -2.22285 -7.47134 0
M  V30 2446 N 233.54 1.10788 -1.12088 0
M  V30 2447 C 234.45 2.20599 -0.798338 0
M  V30 2448 C 235.466 1.72712 0.21135 0
M  V30 2449 O 236.642 2.01348 0.0458477 0
M  V30 2450 C 233.707 3.45771 -0.253674 0
M  V30 2451 C 232.768 4.08411 -1.32283 0
M  V30 2452 C 232.001 5.27608 -0.80406 0
M  V30 2453 O 232.224 5.69241 0.363478 0
M  V30 2454 O 231.158 5.8101 -1.57198 0
M  V30 2455 H 234.984 2.50614 -1.7154 0
M  V30 2456 H 232.569 1.19454 -0.897275 0
M  V30 2457 H 234.451 4.21376 0.0453691 0
M  V30 2458 H 233.126 3.1739 0.636005 0
M  V30 2459 H 232.033 3.34507 -1.67499 0
M  V30 2460 H 233.366 4.40986 -2.18614 0
M  V30 2461 N 235.018 0.912232 1.28515 0
M  V30 2462 C 235.981 0.404223 2.25607 0
M  V30 2463 C 236.981 -0.468602 1.53821 0
M  V30 2464 O 238.171 -0.271873 1.72065 0
M  V30 2465 C 235.303 -0.420653 3.38295 0
M  V30 2466 H 236.496 1.26188 2.7206 0
M  V30 2467 H 234.049 0.691495 1.40171 0
M  V30 2468 H 234.784 -1.29777 2.97201 0
M  V30 2469 H 234.569 0.204935 3.91564 0
M  V30 2470 H 236.059 -0.766971 4.10496 0
M  V30 2471 N 236.496 -1.42363 0.676048 0
M  V30 2472 C 237.745 -2.00745 0.196037 0
M  V30 2473 C 238.058 -1.54083 -1.20489 0
M  V30 2474 O 239.264 -2.04891 -1.78134 0
M  V30 2475 C 237.72 -3.58651 0.299616 0
M  V30 2476 C 237.328 -4.143 1.70468 0
M  V30 2477 C 239.072 -4.24326 -0.121619 0
M  V30 2478 C 236.979 -5.64574 1.76096 0
M  V30 2479 H 235.909 -0.750787 0.0695301 0
M  V30 2480 H 238.56 -1.63072 0.841412 0
M  V30 2481 H 236.942 -3.93833 -0.413673 0
M  V30 2482 H 238.116 -3.90575 2.44515 0
M  V30 2483 H 236.431 -3.61081 2.07387 0
M  V30 2484 H 239.028 -5.34607 -0.0997362 0
M  V30 2485 H 239.371 -3.99897 -1.15708 0
M  V30 2486 H 239.904 -3.94108 0.540706 0
M  V30 2487 H 236.643 -5.93804 2.77628 0
M  V30 2488 H 236.163 -5.90286 1.06406 0
M  V30 2489 H 237.842 -6.29013 1.51496 0
M  V30 2490 N 237.974 -0.419461 -1.51915 0
M  V30 2491 C 238.884 0.407528 -2.31033 0
M  V30 2492 C 239.9 1.04413 -1.3919 0
M  V30 2493 O 241.076 1.0434 -1.72265 0
M  V30 2494 C 238.141 1.50365 -3.12396 0
M  V30 2495 C 237.202 0.889029 -4.19994 0
M  V30 2496 C 236.435 1.93291 -4.97468 0
M  V30 2497 O 236.658 3.15259 -4.75361 0
M  V30 2498 O 235.592 1.53339 -5.8204 0
M  V30 2499 H 239.418 -0.237865 -3.02767 0
M  V30 2500 H 237.003 -0.182413 -1.48282 0
M  V30 2501 H 238.885 2.13975 -3.63032 0
M  V30 2502 H 237.56 2.13345 -2.43445 0
M  V30 2503 H 236.467 0.215353 -3.7348 0
M  V30 2504 H 237.8 0.302991 -4.91267 0
M  V30 2505 N 239.452 1.56882 -0.150215 0
M  V30 2506 C 240.399 2.16922 0.788244 0
M  V30 2507 C 241.369 1.10303 1.24187 0
M  V30 2508 O 242.554 1.38359 1.31383 0
M  V30 2509 C 239.694 2.79754 2.02068 0
M  V30 2510 C 238.807 4.00775 1.61257 0
M  V30 2511 C 237.942 4.51595 2.79705 0
M  V30 2512 C 236.981 5.65074 2.35282 0
M  V30 2513 N 236.118 6.10499 3.4675 0
M  V30 2514 H 240.958 2.96779 0.269444 0
M  V30 2515 H 238.495 1.46599 0.12128 0
M  V30 2516 H 240.453 3.14329 2.74323 0
M  V30 2517 H 239.083 2.02536 2.51354 0
M  V30 2518 H 238.135 3.72158 0.787553 0
M  V30 2519 H 239.447 4.82978 1.24633 0
M  V30 2520 H 238.601 4.88242 3.60145 0
M  V30 2521 H 237.34 3.68406 3.19576 0
M  V30 2522 H 236.345 5.28 1.53283 0
M  V30 2523 H 237.57 6.50052 1.96493 0
M  V30 2524 H 235.516 5.30243 3.86236 0
M  V30 2525 H 235.433 6.87637 3.14152 0
M  V30 2526 H 236.701 6.51791 4.27537 0
M  V30 2527 N 240.93 -0.123565 1.57115 0
M  V30 2528 C 242.176 -0.833386 1.84885 0
M  V30 2529 C 242.509 -1.79742 0.735292 0
M  V30 2530 O 241.784 -1.92764 -0.25925 0
M  V30 2531 C 242.067 -1.5873 3.23228 0
M  V30 2532 C 241.92 -0.643183 4.45178 0
M  V30 2533 C 243.239 -2.54453 3.59085 0
M  V30 2534 H 240.358 -0.301518 0.6725 0
M  V30 2535 H 243 -0.097778 1.89748 0
M  V30 2536 H 241.15 -2.21438 3.19214 0
M  V30 2537 H 242.822 -0.0253015 4.61293 0
M  V30 2538 H 241.065 0.0456139 4.33776 0
M  V30 2539 H 241.736 -1.20724 5.38637 0
M  V30 2540 H 244.212 -2.01853 3.63861 0
M  V30 2541 H 243.088 -3.04238 4.5687 0
M  V30 2542 H 243.349 -3.36906 2.86264 0
M  V30 2543 N 242.408 -1.52605 -0.393616 0
M  V30 2544 C 243.356 -1.77688 -1.50099 0
M  V30 2545 C 244.35 -0.644615 -1.56656 0
M  V30 2546 O 245.556 -0.826997 -1.59877 0
M  V30 2547 H 241.931 -0.562159 -0.499481 0
M  V30 2548 H 243.902 -2.7043 -1.26135 0
M  V30 2549 C 242.651 -1.95858 -2.87289 0
M  V30 2550 H 241.974 -2.8241 -2.82992 0
M  V30 2551 H 243.414 -2.174 -3.64024 0
M  V30 2552 C 241.873 -0.729848 -3.28899 0
M  V30 2553 O 242.403 0.0949217 -4.01588 0
M  V30 2554 N 240.609 -0.561283 -2.85128 0
M  V30 2555 H 240.156 -1.23357 -2.26143 0
M  V30 2556 H 240.114 0.2595 -3.13327 0
M  V30 2557 N 243.887 0.651787 -1.4349 0
M  V30 2558 C 245.135 1.40888 -1.44897 0
M  V30 2559 C 245.456 1.94856 -0.0749086 0
M  V30 2560 O 244.726 1.74518 0.889956 0
M  V30 2561 H 243.306 0.522887 -0.533478 0
M  V30 2562 H 245.968 0.768609 -1.79104 0
M  V30 2563 H 245.064 2.25052 -2.16236 0
M  V30 2564 N 245.365 1.30045 0.890287 0
M  V30 2565 C 246.611 1.18737 1.64406 0
M  V30 2566 C 246.944 -0.258525 1.92472 0
M  V30 2567 O 246.219 -1.18562 1.54186 0
M  V30 2568 C 246.502 2.01087 2.98724 0
M  V30 2569 C 246.355 3.53867 2.77665 0
M  V30 2570 C 247.674 1.84457 3.9958 0
M  V30 2571 H 244.793 0.432698 0.596608 0
M  V30 2572 H 247.435 1.5962 1.0306 0
M  V30 2573 H 245.585 1.66349 3.51084 0
M  V30 2574 H 247.257 3.98637 2.32133 0
M  V30 2575 H 245.5 3.78318 2.12269 0
M  V30 2576 H 246.171 4.06772 3.7315 0
M  V30 2577 H 248.647 2.14817 3.56361 0
M  V30 2578 H 247.523 2.44411 4.91482 0
M  V30 2579 H 247.784 0.802276 4.3476 0
M  V30 2580 N 246.843 -1.10192 1.12674 0
M  V30 2581 C 247.775 -2.16418 0.754701 0
M  V30 2582 C 248.788 -1.61309 -0.21986 0
M  V30 2583 O 249.977 -1.785 -0.000826841 0
M  V30 2584 C 247.077 -3.38762 0.096698 0
M  V30 2585 C 246.25 -4.23307 1.10136 0
M  V30 2586 C 245.309 -5.24092 0.470513 0
M  V30 2587 O 244.335 -5.57906 1.12824 0
M  V30 2588 N 245.537 -5.75491 -0.760948 0
M  V30 2589 H 248.302 -2.48943 1.66875 0
M  V30 2590 H 245.863 -1.25834 1.01869 0
M  V30 2591 H 247.855 -4.03291 -0.337384 0
M  V30 2592 H 246.425 -3.04192 -0.720153 0
M  V30 2593 H 245.645 -3.55036 1.71299 0
M  V30 2594 H 246.933 -4.76624 1.78064 0
M  V30 2595 H 246.331 -5.50222 -1.31424 0
M  V30 2596 H 244.888 -6.41792 -1.13781 0
M  V30 2597 N 248.321 -0.919034 -1.28029 0
M  V30 2598 C 249.251 -0.428581 -2.29533 0
M  V30 2599 C 250.232 0.50659 -1.62381 0
M  V30 2600 O 251.417 0.413195 -1.89753 0
M  V30 2601 C 248.547 0.327388 -3.45753 0
M  V30 2602 C 247.501 -0.519137 -4.2484 0
M  V30 2603 C 246.827 0.365486 -5.33449 0
M  V30 2604 C 248.127 -1.77914 -4.91064 0
M  V30 2605 H 249.821 -1.27687 -2.70807 0
M  V30 2606 H 247.367 -0.615428 -1.30186 0
M  V30 2607 H 249.32 0.681378 -4.15855 0
M  V30 2608 H 248.044 1.20963 -3.03374 0
M  V30 2609 H 246.703 -0.855717 -3.56473 0
M  V30 2610 H 246.351 1.24642 -4.87312 0
M  V30 2611 H 246.051 -0.197356 -5.87268 0
M  V30 2612 H 247.575 0.715241 -6.06396 0
M  V30 2613 H 248.989 -1.49374 -5.53498 0
M  V30 2614 H 247.386 -2.2848 -5.54903 0
M  V30 2615 H 248.456 -2.50382 -4.15255 0
M  V30 2616 N 249.799 1.42003 -0.683588 0
M  V30 2617 C 251.047 2.01015 -0.209101 0
M  V30 2618 C 251.368 1.54365 1.19149 0
M  V30 2619 O 250.638 0.769083 1.80172 0
M  V30 2620 H 249.218 0.743294 -0.074315 0
M  V30 2621 H 251.88 1.73798 -0.882066 0
M  V30 2622 H 250.976 3.11343 -0.2172 0
M  V30 2623 N 251.277 0.427512 1.51691 0
M  V30 2624 C 252.502 -0.143601 2.06902 0
M  V30 2625 C 252.927 -1.36536 1.29382 0
M  V30 2626 O 252.285 -1.78289 0.329043 0
M  V30 2627 C 252.333 -0.454207 3.57728 0
M  V30 2628 O 251.437 -1.54228 3.82475 0
M  V30 2629 H 250.778 -0.00617128 0.663971 0
M  V30 2630 H 253.308 0.606014 1.95419 0
M  V30 2631 H 253.318 -0.707525 4.01818 0
M  V30 2632 H 251.993 0.438812 4.13579 0
M  V30 2633 H 250.57 -1.2797 3.50254 0
M  V30 2634 N 252.755 -1.56801 0.158532 0
M  V30 2635 C 253.702 -2.17337 -0.776729 0
M  V30 2636 C 254.672 -1.1096 -1.23601 0
M  V30 2637 O 255.857 -1.39054 -1.30647 0
M  V30 2638 C 252.997 -2.80822 -2.00582 0
M  V30 2639 C 252.11 -4.01624 -1.59129 0
M  V30 2640 C 251.245 -4.53072 -2.77306 0
M  V30 2641 C 250.284 -5.66314 -2.32282 0
M  V30 2642 N 249.421 -6.12329 -3.43508 0
M  V30 2643 H 254.261 -2.96918 -0.253701 0
M  V30 2644 H 251.798 -1.46661 -0.113504 0
M  V30 2645 H 253.756 -3.15779 -2.72652 0
M  V30 2646 H 252.386 -2.03866 -2.50277 0
M  V30 2647 H 251.438 -3.72571 -0.767806 0
M  V30 2648 H 252.75 -4.83633 -1.2207 0
M  V30 2649 H 251.904 -4.90145 -3.57551 0
M  V30 2650 H 250.643 -3.70095 -3.17617 0
M  V30 2651 H 249.648 -5.28806 -1.5048 0
M  V30 2652 H 250.873 -6.51085 -1.93043 0
M  V30 2653 H 248.819 -5.32284 -3.83418 0
M  V30 2654 H 248.736 -6.89293 -3.105 0
M  V30 2655 H 250.004 -6.5405 -4.24075 0
M  V30 2656 N 254.233 0.115231 -1.57178 0
M  V30 2657 C 255.181 1.16014 -2.01602 0
M  V30 2658 C 256.175 1.42653 -0.913587 0
M  V30 2659 O 257.381 1.42571 -1.09879 0
M  V30 2660 H 253.756 0.391252 -0.642204 0
M  V30 2661 H 255.727 0.758998 -2.88586 0
M  V30 2662 C 254.476 2.47767 -2.4394 0
M  V30 2663 H 253.799 2.28108 -3.28339 0
M  V30 2664 H 255.239 3.19432 -2.78818 0
M  V30 2665 C 253.698 3.10617 -1.30455 0
M  V30 2666 O 254.228 3.96846 -0.622585 0
M  V30 2667 N 252.434 2.70553 -1.06064 0
M  V30 2668 H 251.981 2.00527 -1.61699 0
M  V30 2669 H 251.939 3.12934 -0.303284 0
M  V30 2670 N 255.711 1.52812 0.385517 0
M  V30 2671 C 256.957 1.68275 1.13188 0
M  V30 2672 C 257.29 0.423179 1.89533 0
M  V30 2673 O 256.565 -0.579113 1.85679 0
M  V30 2674 C 256.848 2.92001 2.1073 0
M  V30 2675 C 256.701 4.28067 1.38125 0
M  V30 2676 C 258.02 3.11283 3.11113 0
M  V30 2677 H 255.139 0.612352 0.410115 0
M  V30 2678 H 257.781 1.85415 0.414869 0
M  V30 2679 H 255.931 2.77519 2.71874 0
M  V30 2680 H 257.603 4.54324 0.799187 0
M  V30 2681 H 255.846 4.28388 0.683092 0
M  V30 2682 H 256.517 5.10733 2.09417 0
M  V30 2683 H 258.993 3.2482 2.6006 0
M  V30 2684 H 257.869 3.99325 3.76605 0
M  V30 2685 H 258.13 2.25656 3.80173 0
M  V30 2686 N 257.189 -0.644168 1.43834 0
M  V30 2687 C 258.419 -1.42939 1.49171 0
M  V30 2688 C 258.827 -1.88874 0.111048 0
M  V30 2689 O 258.17 -1.60656 -0.8908 0
M  V30 2690 C 258.232 -2.69151 2.38324 0
M  V30 2691 C 257.896 -2.45097 3.85715 0
M  V30 2692 C 258.893 -2.07747 4.76589 0
M  V30 2693 C 256.578 -2.59141 4.30292 0
M  V30 2694 C 258.572 -1.8475 6.10038 0
M  V30 2695 C 256.259 -2.35759 5.63792 0
M  V30 2696 C 257.257 -1.9862 6.53482 0
M  V30 2697 O 256.945 -1.75489 7.84512 0
M  V30 2698 H 256.677 -0.445271 0.508635 0
M  V30 2699 H 259.231 -0.79621 1.8934 0
M  V30 2700 H 257.461 -3.3506 1.93058 0
M  V30 2701 H 259.15 -3.31123 2.3476 0
M  V30 2702 H 259.916 -1.96465 4.43426 0
M  V30 2703 H 255.795 -2.87022 3.60749 0
M  V30 2704 H 259.339 -1.55686 6.80006 0
M  V30 2705 H 255.236 -2.46646 5.9652 0
M  V30 2706 H 256.004 -1.89841 7.9618 0
M  V30 2707 N 258.668 -1.30515 -0.883378 0
M  V30 2708 C 259.914 -1.19607 -1.63774 0
M  V30 2709 C 260.247 0.248314 -1.92606 0
M  V30 2710 O 259.522 1.17742 -1.54813 0
M  V30 2711 C 259.805 -2.02669 -2.97653 0
M  V30 2712 C 259.658 -3.55335 -2.75784 0
M  V30 2713 C 260.977 -1.86573 -3.98596 0
M  V30 2714 H 258.096 -0.435856 -0.594305 0
M  V30 2715 H 260.738 -1.60165 -1.02212 0
M  V30 2716 H 258.888 -1.68208 -3.50197 0
M  V30 2717 H 260.56 -3.99863 -2.30016 0
M  V30 2718 H 258.803 -3.79438 -2.1026 0
M  V30 2719 H 259.474 -4.08745 -3.70988 0
M  V30 2720 H 261.95 -2.16703 -3.55217 0
M  V30 2721 H 260.826 -2.47014 -4.90179 0
M  V30 2722 H 261.087 -0.825321 -4.34328 0
M  V30 2723 N 260.146 1.09593 -1.13257 0
M  V30 2724 C 261.394 1.81375 -0.891492 0
M  V30 2725 C 261.715 1.86049 0.584009 0
M  V30 2726 O 260.985 1.34481 1.42449 0
M  V30 2727 H 259.565 0.671708 -0.326828 0
M  V30 2728 H 262.227 1.3256 -1.42877 0
M  V30 2729 H 261.323 2.84612 -1.28071 0
M  V30 2730 N 261.624 0.925811 1.2754 0
M  V30 2731 C 263.035 0.610102 1.7645 0
M  V30 2732 C 263.386 -0.874723 1.75622 0
M  V30 2733 O 262.511 -1.68444 1.35851 0
M  V30 2734 C 263.106 1.10073 3.20421 0
M  V30 2735 C 261.665 0.835723 3.67005 0
M  V30 2736 C 260.812 1.26054 2.46993 0
M  V30 2737 H 263.763 1.10579 1.13833 0
M  V30 2738 H 263.784 0.447557 3.77859 0
M  V30 2739 H 263.296 2.18143 3.20991 0
M  V30 2740 H 261.397 -0.231249 3.71882 0
M  V30 2741 H 261.51 1.45193 4.56569 0
M  V30 2742 H 259.874 0.679111 2.45479 0
M  V30 2743 H 260.657 2.34984 2.50275 0
M  V30 2744 N 263.102 -1.41638 0.69111 0
M  V30 2745 C 264.349 -2.01299 0.220193 0
M  V30 2746 C 264.677 -1.54715 -1.17871 0
M  V30 2747 O 263.932 -0.747193 -1.80874 0
M  V30 2748 C 264.231 -3.56714 0.221277 0
M  V30 2749 C 263.897 -4.22792 1.56709 0
M  V30 2750 C 262.559 -4.40557 1.93554 0
M  V30 2751 C 264.911 -4.59883 2.45268 0
M  V30 2752 C 262.239 -4.92688 3.18552 0
M  V30 2753 C 264.591 -5.13403 3.69595 0
M  V30 2754 C 263.255 -5.29379 4.06589 0
M  V30 2755 H 262.525 -0.736606 0.0805743 0
M  V30 2756 H 265.172 -1.69598 0.889319 0
M  V30 2757 H 263.477 -3.8818 -0.531391 0
M  V30 2758 H 265.174 -4.00678 -0.160547 0
M  V30 2759 H 261.764 -4.09336 1.2705 0
M  V30 2760 H 265.948 -4.45817 2.18084 0
M  V30 2761 H 261.204 -5.03242 3.47214 0
M  V30 2762 H 265.378 -5.41084 4.38407 0
M  V30 2763 H 263.005 -5.69537 5.03519 0
M  V30 2764 N 264.58 -0.43555 -1.51462 0
M  V30 2765 C 265.829 0.133007 -2.01261 0
M  V30 2766 C 266.142 1.43942 -1.32439 0
M  V30 2767 O 267.348 2.09081 -1.73198 0
M  V30 2768 C 265.804 0.287581 -3.58749 0
M  V30 2769 C 265.412 -1.00829 -4.36506 0
M  V30 2770 C 267.156 0.810004 -4.167 0
M  V30 2771 C 265.063 -0.819454 -5.85695 0
M  V30 2772 H 263.993 0.0534822 -0.752101 0
M  V30 2773 H 266.644 -0.565038 -1.74584 0
M  V30 2774 H 265.026 1.04859 -3.81865 0
M  V30 2775 H 266.2 -1.77749 -4.25138 0
M  V30 2776 H 264.515 -1.45911 -3.89999 0
M  V30 2777 H 267.112 0.967743 -5.2587 0
M  V30 2778 H 267.455 1.79196 -3.75758 0
M  V30 2779 H 267.988 0.107357 -3.97655 0
M  V30 2780 H 264.727 -1.77374 -6.31046 0
M  V30 2781 H 264.247 -0.0900208 -5.99732 0
M  V30 2782 H 265.926 -0.471949 -6.45276 0
M  V30 2783 N 266.058 1.56714 -0.166846 0
M  V30 2784 C 267.005 2.17746 0.765193 0
M  V30 2785 C 267.975 1.11614 1.23011 0
M  V30 2786 O 269.16 1.39745 1.29908 0
M  V30 2787 C 266.3 2.81882 1.9909 0
M  V30 2788 C 265.413 4.02462 1.56997 0
M  V30 2789 C 264.548 4.54537 2.749 0
M  V30 2790 C 263.587 5.67538 2.29275 0
M  V30 2791 N 262.724 6.14142 3.40255 0
M  V30 2792 H 267.564 2.97048 0.237952 0
M  V30 2793 H 265.101 1.4672 0.105725 0
M  V30 2794 H 267.059 3.17221 2.70974 0
M  V30 2795 H 265.689 2.05191 2.49192 0
M  V30 2796 H 264.741 3.72973 0.748037 0
M  V30 2797 H 266.053 4.84273 1.19503 0
M  V30 2798 H 265.207 4.92035 3.54946 0
M  V30 2799 H 263.946 3.71774 3.1565 0
M  V30 2800 H 262.951 5.29597 1.47674 0
M  V30 2801 H 264.176 6.52099 1.89588 0
M  V30 2802 H 262.122 5.3431 3.8059 0
M  V30 2803 H 262.039 6.9093 3.06841 0
M  V30 2804 H 263.307 6.56289 4.206 0
M  V30 2805 N 267.536 -0.106894 1.57237 0
M  V30 2806 C 268.483 -1.13049 2.01217 0
M  V30 2807 C 269.453 -1.40471 0.886403 0
M  V30 2808 O 270.638 -1.52133 1.15153 0
M  V30 2809 C 267.778 -2.4487 2.43172 0
M  V30 2810 C 266.891 -2.24281 3.69218 0
M  V30 2811 C 266.026 -3.49417 4.00101 0
M  V30 2812 C 265.065 -3.24038 5.19294 0
M  V30 2813 N 264.202 -4.41409 5.45988 0
M  V30 2814 H 269.042 -0.748456 2.88448 0
M  V30 2815 H 266.579 -0.358054 1.42676 0
M  V30 2816 H 268.537 -3.21786 2.65537 0
M  V30 2817 H 267.167 -2.80944 1.58967 0
M  V30 2818 H 266.219 -1.38224 3.54398 0
M  V30 2819 H 267.531 -2.01512 4.56283 0
M  V30 2820 H 266.685 -4.34746 4.2318 0
M  V30 2821 H 265.424 -3.75229 3.11535 0
M  V30 2822 H 264.429 -2.37102 4.96047 0
M  V30 2823 H 265.654 -2.99584 6.09447 0
M  V30 2824 H 263.6 -4.67319 4.60379 0
M  V30 2825 H 263.517 -4.21788 6.274 0
M  V30 2826 H 264.785 -5.27836 5.73593 0
M  V30 2827 N 269.014 -1.53014 -0.377408 0
M  V30 2828 C 270.239 -1.72818 -1.14668 0
M  V30 2829 C 270.664 -0.450725 -1.8262 0
M  V30 2830 O 270.022 0.59439 -1.7128 0
M  V30 2831 C 270.07 -2.88627 -2.16164 0
M  V30 2832 O 269.174 -2.56409 -3.22998 0
M  V30 2833 H 268.515 -0.574301 -0.333278 0
M  V30 2834 H 271.045 -1.99853 -0.438152 0
M  V30 2835 H 271.055 -3.14455 -2.59966 0
M  V30 2836 H 269.73 -3.81294 -1.66095 0
M  V30 2837 H 268.307 -2.4136 -2.84253 0
M  V30 2838 N 270.492 0.636531 -1.44174 0
M  V30 2839 C 271.402 1.77754 -1.53103 0
M  V30 2840 C 272.418 1.68928 -0.417034 0
M  V30 2841 O 273.594 1.89801 -0.6736 0
M  V30 2842 C 270.659 3.14115 -1.46741 0
M  V30 2843 C 269.72 3.34612 -2.68948 0
M  V30 2844 C 268.953 4.64467 -2.6288 0
M  V30 2845 O 269.176 5.44919 -1.68581 0
M  V30 2846 O 268.11 4.87049 -3.53648 0
M  V30 2847 H 271.936 1.73174 -2.49489 0
M  V30 2848 H 269.521 0.79709 -1.2636 0
M  V30 2849 H 271.403 3.95412 -1.45696 0
M  V30 2850 H 270.078 3.19249 -0.534975 0
M  V30 2851 H 268.985 2.53014 -2.75562 0
M  V30 2852 H 270.318 3.34336 -3.61221 0
M  V30 2853 N 271.97 1.30982 0.876444 0
M  V30 2854 C 273.386 1.09498 1.16113 0
M  V30 2855 C 273.586 -0.13875 2.01022 0
M  V30 2856 O 272.642 -0.829935 2.38471 0
M  V30 2857 C 273.955 2.36308 1.85954 0
M  V30 2858 C 275.503 2.41856 1.98683 0
M  V30 2859 C 275.978 3.6853 2.71937 0
M  V30 2860 N 277.469 3.69387 2.79477 0
M  V30 2861 C 278.204 4.64096 3.36753 0
M  V30 2862 N 277.7 5.69155 3.95012 0
M  V30 2863 N 279.493 4.51626 3.3465 0
M  V30 2864 H 271.644 2.10118 0.310494 0
M  V30 2865 H 273.907 0.926634 0.200131 0
M  V30 2866 H 273.613 3.26388 1.31011 0
M  V30 2867 H 273.487 2.4561 2.86278 0
M  V30 2868 H 275.874 1.52249 2.52793 0
M  V30 2869 H 275.955 2.36523 0.9742 0
M  V30 2870 H 275.599 4.58499 2.18496 0
M  V30 2871 H 275.529 3.71127 3.73593 0
M  V30 2872 H 278.02 2.93438 2.38123 0
M  V30 2873 H 278.333 6.3751 4.36808 0
M  V30 2874 H 276.678 5.72937 3.93406 0
M  V30 2875 H 279.869 3.68728 2.8837 0
M  V30 2876 H 280.042 5.25614 3.7899 0
M  V30 2877 N 273.449 -1.08991 1.13837 0
M  V30 2878 C 274.412 -2.13925 0.822715 0
M  V30 2879 C 275.412 -1.599 -0.1699 0
M  V30 2880 O 276.602 -1.74104 0.0577251 0
M  V30 2881 C 273.734 -3.40155 0.225318 0
M  V30 2882 H 274.927 -2.43358 1.75262 0
M  V30 2883 H 272.48 -1.24603 0.943594 0
M  V30 2884 H 273.215 -3.16352 -0.713594 0
M  V30 2885 H 273 -3.80661 0.940193 0
M  V30 2886 H 274.49 -4.17594 0.0214784 0
M  V30 2887 N 274.927 -0.932562 -1.27047 0
M  V30 2888 C 276.155 -0.592031 -1.98249 0
M  V30 2889 C 276.57 0.831062 -1.69525 0
M  V30 2890 O 275.927 1.55299 -0.958561 0
M  V30 2891 C 275.978 -0.814279 -3.5221 0
M  V30 2892 O 275.699 -2.18139 -3.7993 0
M  V30 2893 C 277.2 -0.483121 -4.4066 0
M  V30 2894 H 274.42 -0.223896 -0.632544 0
M  V30 2895 H 276.964 -1.25091 -1.61779 0
M  V30 2896 H 275.119 -0.20213 -3.86872 0
M  V30 2897 H 275.533 -2.235 -4.74498 0
M  V30 2898 H 277.007 -0.689298 -5.47679 0
M  V30 2899 H 277.484 0.581546 -4.35333 0
M  V30 2900 H 278.09 -1.07362 -4.11526 0
M  V30 2901 N 276.405 1.4127 -0.698611 0
M  V30 2902 C 277.353 2.32588 -0.023855 0
M  V30 2903 C 278.347 1.51128 0.765292 0
M  V30 2904 O 279.553 1.67043 0.670571 0
M  V30 2905 H 275.928 0.751918 0.0110871 0
M  V30 2906 H 277.899 2.87167 -0.811031 0
M  V30 2907 C 276.648 3.35947 0.896369 0
M  V30 2908 H 275.971 3.98684 0.298548 0
M  V30 2909 H 277.411 4.02376 1.33676 0
M  V30 2910 C 275.87 2.70076 2.01396 0
M  V30 2911 O 276.4 2.55093 3.10307 0
M  V30 2912 N 274.606 2.28724 1.79259 0
M  V30 2913 H 274.153 2.4111 0.906841 0
M  V30 2914 H 274.111 1.84986 2.54219 0
M  V30 2915 N 277.883 0.443576 1.51229 0
M  V30 2916 C 279.16 -0.181038 1.9476 0
M  V30 2917 C 279.54 -1.59523 1.38259 0
M  V30 2918 O 278.888 -2.2122 0.572198 0
M  V30 2919 C 279.098 -0.152422 3.48667 0
M  V30 2920 C 280.446 -0.354923 4.23114 0
M  V30 2921 O 281.47 -0.230257 3.55455 0
M  V30 2922 O 280.329 -0.603674 5.43156 0
M  V30 2923 H 277.423 -0.1266 0.817252 0
M  V30 2924 H 279.969 0.502004 1.62105 0
M  V30 2925 H 278.741 0.836022 3.82265 0
M  V30 2926 H 278.364 -0.878107 3.87782 0
M  V30 2927 N 279.361 -1.56624 0.175154 0
M  V30 2928 C 280.589 -2.01374 -0.474971 0
M  V30 2929 C 281.004 -1.05537 -1.56548 0
M  V30 2930 O 280.361 -0.0568668 -1.82411 0
M  V30 2931 C 280.412 -3.45923 -1.04975 0
M  V30 2932 O 280.133 -4.381 -0.00276605 0
M  V30 2933 C 281.634 -4.06093 -1.77773 0
M  V30 2934 H 278.854 -0.659962 -0.121206 0
M  V30 2935 H 281.398 -2.02601 0.27801 0
M  V30 2936 H 279.553 -3.45458 -1.75321 0
M  V30 2937 H 279.967 -5.22753 -0.427681 0
M  V30 2938 H 281.441 -5.09147 -2.13245 0
M  V30 2939 H 281.918 -3.48405 -2.67414 0
M  V30 2940 H 282.524 -4.10272 -1.12059 0
M  V30 2941 N 280.839 0.0985539 -1.57292 0
M  V30 2942 C 281.786 1.11981 -2.01814 0
M  V30 2943 C 282.756 1.39999 -0.89384 0
M  V30 2944 O 283.941 1.5152 -1.15958 0
M  V30 2945 C 281.081 2.43577 -2.44467 0
M  V30 2946 C 280.194 2.2232 -3.70402 0
M  V30 2947 C 279.329 3.4729 -4.01949 0
M  V30 2948 C 278.368 3.2128 -5.21005 0
M  V30 2949 N 277.505 4.38507 -5.48321 0
M  V30 2950 H 282.345 0.733149 -2.88841 0
M  V30 2951 H 279.882 0.350482 -1.42864 0
M  V30 2952 H 281.84 3.20373 -2.6724 0
M  V30 2953 H 280.47 2.80097 -1.60455 0
M  V30 2954 H 279.522 1.36343 -3.55126 0
M  V30 2955 H 280.834 1.99089 -4.57345 0
M  V30 2956 H 279.988 4.32495 -4.25479 0
M  V30 2957 H 278.727 3.73572 -3.13521 0
M  V30 2958 H 277.732 2.34468 -4.97298 0
M  V30 2959 H 278.957 2.96348 -6.11028 0
M  V30 2960 H 276.903 4.64871 -4.62851 0
M  V30 2961 H 276.82 4.18455 -6.29628 0
M  V30 2962 H 278.088 5.24787 -5.76385 0
M  V30 2963 N 282.317 1.53212 0.369288 0
M  V30 2964 C 283.564 1.69215 1.11232 0
M  V30 2965 C 283.892 0.442048 1.8941 0
M  V30 2966 O 283.147 -0.575944 1.87033 0
M  V30 2967 C 283.446 2.89101 2.10132 0
M  V30 2968 C 283.112 4.25758 1.48463 0
M  V30 2969 C 281.774 4.6292 1.31372 0
M  V30 2970 C 284.126 5.10757 1.03811 0
M  V30 2971 C 281.454 5.82722 0.68207 0
M  V30 2972 C 283.806 6.31201 0.420487 0
M  V30 2973 C 282.47 6.67079 0.237038 0
M  V30 2974 H 281.74 0.619201 0.407027 0
M  V30 2975 H 284.387 1.87391 0.394552 0
M  V30 2976 H 282.692 2.65421 2.88199 0
M  V30 2977 H 284.389 2.98676 2.6757 0
M  V30 2978 H 280.979 3.96494 1.62758 0
M  V30 2979 H 285.163 4.82599 1.1581 0
M  V30 2980 H 280.419 6.09113 0.528316 0
M  V30 2981 H 284.593 6.96368 0.0662874 0
M  V30 2982 H 282.22 7.59774 -0.254477 0
M  V30 2983 N 283.795 -0.628877 1.44509 0
M  V30 2984 C 285.023 -1.41554 1.50897 0
M  V30 2985 C 285.438 -1.8832 0.134564 0
M  V30 2986 O 284.795 -1.60969 -0.859965 0
M  V30 2987 C 284.846 -2.63435 2.47556 0
M  V30 2988 O 284.567 -2.18619 3.79654 0
M  V30 2989 C 286.068 -3.56537 2.63431 0
M  V30 2990 H 283.288 -0.434044 0.511709 0
M  V30 2991 H 285.832 -0.768895 1.89495 0
M  V30 2992 H 283.987 -3.24187 2.12089 0
M  V30 2993 H 284.401 -2.97652 4.31861 0
M  V30 2994 H 285.875 -4.38657 3.35088 0
M  V30 2995 H 286.352 -4.05493 1.68738 0
M  V30 2996 H 286.958 -3.01653 2.9981 0
M  V30 2997 N 285.273 -1.31445 -0.869486 0
M  V30 2998 C 286.221 -1.19067 -1.99814 0
M  V30 2999 C 287.215 -0.0988569 -1.69111 0
M  V30 3000 O 288.421 -0.260781 -1.78101 0
M  V30 3001 H 284.796 -0.368677 -0.655425 0
M  V30 3002 H 286.767 -2.14555 -2.07385 0
M  V30 3003 C 285.516 -0.915323 -3.35436 0
M  V30 3004 H 284.839 -1.74759 -3.59582 0
M  V30 3005 H 286.279 -0.868895 -4.15001 0
M  V30 3006 C 284.738 0.381928 -3.34728 0
M  V30 3007 O 285.268 1.39857 -3.76567 0
M  V30 3008 N 283.474 0.398633 -2.87853 0
M  V30 3009 H 283.021 -0.429186 -2.54 0
M  V30 3010 H 282.979 1.26651 -2.87762 0
M  V30 3011 N 286.751 1.08385 -1.14413 0
M  V30 3012 C 287.681 2.17321 -0.854044 0
M  V30 3013 C 288.662 1.69024 0.191049 0
M  V30 3014 O 289.847 1.94141 0.0476779 0
M  V30 3015 C 286.977 3.45719 -0.330983 0
M  V30 3016 C 285.931 4.07409 -1.31155 0
M  V30 3017 C 285.257 5.30762 -0.64778 0
M  V30 3018 C 286.557 4.48665 -2.67388 0
M  V30 3019 H 288.251 2.41845 -1.76498 0
M  V30 3020 H 285.797 1.16233 -0.850051 0
M  V30 3021 H 287.75 4.21241 -0.115645 0
M  V30 3022 H 286.474 3.2075 0.615381 0
M  V30 3023 H 285.133 3.33919 -1.51306 0
M  V30 3024 H 284.781 5.02078 0.304398 0
M  V30 3025 H 284.481 5.72992 -1.30207 0
M  V30 3026 H 286.005 6.08998 -0.441972 0
M  V30 3027 H 287.419 5.15364 -2.51143 0
M  V30 3028 H 285.816 5.01814 -3.29093 0
M  V30 3029 H 286.886 3.60543 -3.24248 0
M  V30 3030 N 288.23 0.939286 1.26551 0
M  V30 3031 C 289.46 0.601663 1.97645 0
M  V30 3032 C 289.868 -0.827206 1.70159 0
M  V30 3033 O 289.211 -1.56291 0.965338 0
M  V30 3034 C 289.273 0.761725 3.51337 0
M  V30 3035 C 288.937 2.16487 4.0247 0
M  V30 3036 C 289.934 3.14016 4.14355 0
M  V30 3037 C 287.619 2.48494 4.36527 0
M  V30 3038 C 289.613 4.41654 4.59587 0
M  V30 3039 C 287.3 3.76364 4.81449 0
M  V30 3040 C 288.298 4.72758 4.92939 0
M  V30 3041 O 287.986 5.98352 5.36871 0
M  V30 3042 H 287.718 0.225758 0.637189 0
M  V30 3043 H 290.272 1.26178 1.62075 0
M  V30 3044 H 288.502 0.0444808 3.86674 0
M  V30 3045 H 290.191 0.427442 4.03643 0
M  V30 3046 H 290.957 2.90613 3.8829 0
M  V30 3047 H 286.836 1.74202 4.26819 0
M  V30 3048 H 290.38 5.16896 4.68471 0
M  V30 3049 H 286.277 3.99582 5.06956 0
M  V30 3050 H 287.045 6.01507 5.55096 0
M  V30 3051 N 289.708 -1.40897 0.706093 0
M  V30 3052 C 290.954 -2.01352 0.241889 0
M  V30 3053 C 291.287 -1.55832 -1.15888 0
M  V30 3054 O 290.562 -0.774145 -1.7843 0
M  V30 3055 C 290.845 -3.58752 0.311311 0
M  V30 3056 C 290.698 -4.1437 1.74978 0
M  V30 3057 C 292.017 -4.38914 -0.322922 0
M  V30 3058 H 289.136 -0.731562 0.0893687 0
M  V30 3059 H 291.778 -1.67504 0.896802 0
M  V30 3060 H 289.928 -3.87718 -0.246302 0
M  V30 3061 H 291.6 -3.96239 2.36205 0
M  V30 3062 H 289.843 -3.69016 2.28057 0
M  V30 3063 H 290.514 -5.23532 1.74981 0
M  V30 3064 H 292.99 -4.15822 0.152089 0
M  V30 3065 H 291.866 -5.48358 -0.243855 0
M  V30 3066 H 292.127 -4.19176 -1.40513 0
M  V30 3067 N 291.186 -0.45159 -1.50991 0
M  V30 3068 C 292.133 0.352625 -2.2809 0
M  V30 3069 C 293.103 1.0044 -1.32291 0
M  V30 3070 O 294.288 1.02058 -1.6121 0
M  V30 3071 C 291.428 1.43983 -3.13629 0
M  V30 3072 C 290.541 0.804772 -4.24438 0
M  V30 3073 C 289.676 1.86822 -4.97263 0
M  V30 3074 C 288.715 1.21236 -5.99973 0
M  V30 3075 N 287.852 2.2178 -6.66152 0
M  V30 3076 H 292.692 -0.311186 -2.96371 0
M  V30 3077 H 290.229 -0.165308 -1.46168 0
M  V30 3078 H 292.187 2.08161 -3.61559 0
M  V30 3079 H 290.817 2.07307 -2.47434 0
M  V30 3080 H 289.869 0.0509129 -3.80366 0
M  V30 3081 H 291.181 0.286076 -4.97979 0
M  V30 3082 H 290.335 2.58628 -5.48813 0
M  V30 3083 H 289.074 2.42068 -4.23385 0
M  V30 3084 H 288.079 0.479828 -5.47702 0
M  V30 3085 H 289.304 0.667051 -6.75816 0
M  V30 3086 H 287.25 2.76079 -5.95077 0
M  V30 3087 H 287.167 1.74841 -7.35504 0
M  V30 3088 H 288.435 2.93026 -7.22327 0
M  V30 3089 N 292.664 1.56529 -0.183458 0
M  V30 3090 C 293.612 2.19873 0.758845 0
M  V30 3091 C 294.606 1.16638 1.22849 0
M  V30 3092 O 295.812 1.3481 1.19274 0
M  V30 3093 H 292.187 0.7045 0.263029 0
M  V30 3094 H 294.158 2.97724 0.200755 0
M  V30 3095 C 292.907 2.86314 1.9728 0
M  V30 3096 H 292.23 3.65487 1.62047 0
M  V30 3097 H 293.67 3.3409 2.61075 0
M  V30 3098 C 292.129 1.86729 2.80418 0
M  V30 3099 O 292.659 1.36031 3.77966 0
M  V30 3100 N 290.865 1.55216 2.45675 0
M  V30 3101 H 290.412 1.96636 1.66409 0
M  V30 3102 H 290.37 0.888388 3.01588 0
M  V30 3103 N 294.142 -0.090211 1.57342 0
M  V30 3104 C 295.389 -0.792807 1.86335 0
M  V30 3105 C 295.717 -1.78494 0.772662 0
M  V30 3106 O 294.972 -1.94305 -0.233258 0
M  V30 3107 C 295.271 -1.55222 3.21933 0
M  V30 3108 C 294.937 -0.701765 4.45406 0
M  V30 3109 C 293.599 -0.467334 4.78925 0
M  V30 3110 C 295.951 -0.11086 5.21082 0
M  V30 3111 C 293.279 0.367785 5.85546 0
M  V30 3112 C 295.631 0.711609 6.28585 0
M  V30 3113 C 294.295 0.956086 6.60617 0
M  V30 3114 H 293.565 -0.290109 0.681849 0
M  V30 3115 H 296.212 -0.0541332 1.91423 0
M  V30 3116 H 294.517 -2.3626 3.12551 0
M  V30 3117 H 296.214 -2.10032 3.41595 0
M  V30 3118 H 292.804 -0.894598 4.1916 0
M  V30 3119 H 296.988 -0.279129 4.95514 0
M  V30 3120 H 292.244 0.566128 6.08773 0
M  V30 3121 H 296.418 1.17632 6.86393 0
M  V30 3122 H 294.045 1.60499 7.43064 0
M  V30 3123 N 295.62 -1.53406 -0.361157 0
M  V30 3124 C 297.031 -1.61442 -0.937728 0
M  V30 3125 C 297.382 -0.48461 -1.90121 0
M  V30 3126 O 296.507 0.388312 -2.12888 0
M  V30 3127 C 297.102 -2.92624 -1.70753 0
M  V30 3128 C 295.661 -3.02981 -2.23337 0
M  V30 3129 C 294.808 -2.5677 -1.04712 0
M  V30 3130 H 297.759 -1.58083 -0.139816 0
M  V30 3131 H 297.78 -2.80675 -2.56908 0
M  V30 3132 H 297.292 -3.74834 -1.00604 0
M  V30 3133 H 295.393 -2.25368 -2.96715 0
M  V30 3134 H 295.506 -4.0814 -2.50916 0
M  V30 3135 H 293.87 -2.11752 -1.41539 0
M  V30 3136 H 294.653 -3.41402 -0.360539 0
M  V30 3137 N 297.098 0.621204 -1.44841 0
M  V30 3138 C 298.375 1.38 -1.38619 0
M  V30 3139 C 298.755 2.11041 -0.0498935 0
M  V30 3140 O 298.103 2.06992 0.967816 0
M  V30 3141 C 298.313 2.33817 -2.59096 0
M  V30 3142 C 299.661 2.96844 -3.03593 0
M  V30 3143 O 300.685 2.44141 -2.59371 0
M  V30 3144 O 299.544 3.92476 -3.80296 0
M  V30 3145 H 296.638 0.61811 -0.549426 0
M  V30 3146 H 299.184 0.645429 -1.56947 0
M  V30 3147 H 297.956 1.79012 -3.47952 0
M  V30 3148 H 297.579 3.14676 -2.43032 0
M  V30 3149 N 298.576 1.31904 0.862503 0
M  V30 3150 C 299.801 1.25135 1.65397 0
M  V30 3151 C 300.226 -0.179 1.87246 0
M  V30 3152 O 299.584 -1.1277 1.4196 0
M  V30 3153 C 299.632 2.00832 2.99498 0
M  V30 3154 O 298.736 1.35075 3.89652 0
M  V30 3155 H 298.077 0.431655 0.504549 0
M  V30 3156 H 300.607 1.74094 1.07483 0
M  V30 3157 H 300.617 2.10709 3.49379 0
M  V30 3158 H 299.292 3.04847 2.82916 0
M  V30 3159 H 297.869 1.33696 3.48109 0
M  V30 3160 N 300.054 -1.07777 1.14986 0
M  V30 3161 C 301.3 -1.80557 0.923422 0
M  V30 3162 C 301.633 -1.86298 -0.548337 0
M  V30 3163 O 300.908 -1.34354 -1.40639 0
M  V30 3164 C 301.191 -3.25839 1.53299 0
M  V30 3165 C 301.044 -3.28269 3.07505 0
M  V30 3166 C 302.363 -4.22991 1.21518 0
M  V30 3167 H 299.482 -0.655493 0.336894 0
M  V30 3168 H 302.124 -1.26144 1.42083 0
M  V30 3169 H 300.274 -3.72306 1.10999 0
M  V30 3170 H 301.946 -2.90079 3.58681 0
M  V30 3171 H 300.189 -2.67355 3.4162 0
M  V30 3172 H 300.86 -4.30691 3.45266 0
M  V30 3173 H 303.336 -3.84894 1.581 0
M  V30 3174 H 302.212 -5.22945 1.66793 0
M  V30 3175 H 302.473 -4.41904 0.131505 0
M  V30 3176 N 301.532 -0.945985 -1.26051 0
M  V30 3177 C 302.76 -0.613025 -1.9761 0
M  V30 3178 C 303.175 0.813035 -1.70397 0
M  V30 3179 O 302.532 1.54274 -0.974979 0
M  V30 3180 C 302.583 -0.85159 -3.51326 0
M  V30 3181 O 302.304 -2.22157 -3.77595 0
M  V30 3182 C 303.805 -0.529831 -4.40122 0
M  V30 3183 H 301.025 -0.230593 -0.630133 0
M  V30 3184 H 303.569 -1.268 -1.60443 0
M  V30 3185 H 301.724 -0.243151 -3.86636 0
M  V30 3186 H 302.138 -2.2852 -4.721 0
M  V30 3187 H 303.612 -0.747348 -5.46917 0
M  V30 3188 H 304.089 0.535341 -4.35925 0
M  V30 3189 H 304.695 -1.11721 -4.10364 0
M  V30 3190 N 303.011 1.40521 -0.713556 0
M  V30 3191 C 303.921 2.34522 -0.0606667 0
M  V30 3192 C 304.937 1.57193 0.74607 0
M  V30 3193 O 306.113 1.89591 0.679493 0
M  V30 3194 C 303.178 3.36081 0.851491 0
M  V30 3195 C 302.239 4.29286 0.0349339 0
M  V30 3196 C 301.472 5.25994 0.903649 0
M  V30 3197 O 301.695 5.28616 2.14292 0
M  V30 3198 O 300.629 6.00918 0.343723 0
M  V30 3199 H 304.455 2.91968 -0.835972 0
M  V30 3200 H 302.04 1.41681 -0.47402 0
M  V30 3201 H 303.922 3.98369 1.37404 0
M  V30 3202 H 302.597 2.81052 1.60598 0
M  V30 3203 H 301.504 3.70289 -0.532633 0
M  V30 3204 H 302.837 4.87462 -0.681287 0
M  V30 3205 N 304.489 0.459591 1.5075 0
M  V30 3206 C 305.717 -0.0973749 2.06671 0
M  V30 3207 C 306.132 -1.34524 1.32472 0
M  V30 3208 O 305.489 -1.7827 0.390634 0
M  V30 3209 C 305.54 -0.39714 3.59312 0
M  V30 3210 O 305.261 0.801214 4.30711 0
M  V30 3211 C 306.762 -1.00234 4.31819 0
M  V30 3212 H 303.982 0.00195854 0.670997 0
M  V30 3213 H 306.526 0.645072 1.94059 0
M  V30 3214 H 304.681 -1.08951 3.71764 0
M  V30 3215 H 305.095 0.538857 5.21725 0
M  V30 3216 H 306.569 -1.16193 5.39632 0
M  V30 3217 H 307.046 -1.98939 3.91561 0
M  V30 3218 H 307.652 -0.348699 4.23868 0
M  V30 3219 N 305.967 -1.56429 0.191757 0
M  V30 3220 C 306.917 -2.15548 -0.743184 0
M  V30 3221 C 307.901 -1.09531 -1.17863 0
M  V30 3222 O 309.093 -1.35602 -1.13759 0
M  V30 3223 C 306.222 -2.81577 -1.96391 0
M  V30 3224 C 305.308 -3.9478 -1.54951 0
M  V30 3225 N 305.699 -4.98677 -0.845876 0
M  V30 3226 C 303.997 -4.06319 -1.83905 0
M  V30 3227 C 304.698 -5.78183 -0.638724 0
M  V30 3228 N 303.674 -5.30495 -1.18643 0
M  V30 3229 H 307.476 -2.9324 -0.196839 0
M  V30 3230 H 304.99 -1.62398 -0.0081603 0
M  V30 3231 H 306.987 -3.22321 -2.64415 0
M  V30 3232 H 305.647 -2.05371 -2.51501 0
M  V30 3233 H 306.658 -5.15464 -0.501704 0
M  V30 3234 H 303.335 -3.41238 -2.40548 0
M  V30 3235 H 304.725 -6.71851 -0.0807929 0
M  V30 3236 N 307.445 0.0818655 -1.57387 0
M  V30 3237 C 308.375 1.09885 -2.06028 0
M  V30 3238 C 309.356 1.4098 -0.951774 0
M  V30 3239 O 310.541 1.50781 -1.22387 0
M  V30 3240 C 307.671 2.4151 -2.4958 0
M  V30 3241 C 306.625 2.24792 -3.64215 0
M  V30 3242 C 305.951 3.61712 -3.93787 0
M  V30 3243 C 307.251 1.67749 -4.94629 0
M  V30 3244 H 308.945 0.694128 -2.91243 0
M  V30 3245 H 306.491 0.332448 -1.4011 0
M  V30 3246 H 308.444 3.12939 -2.82219 0
M  V30 3247 H 307.168 2.83943 -1.61381 0
M  V30 3248 H 305.827 1.55807 -3.31843 0
M  V30 3249 H 305.475 4.01697 -3.02735 0
M  V30 3250 H 305.175 3.51368 -4.70971 0
M  V30 3251 H 306.699 4.34587 -4.28913 0
M  V30 3252 H 308.113 2.29032 -5.25564 0
M  V30 3253 H 306.51 1.68128 -5.76067 0
M  V30 3254 H 307.58 0.638059 -4.80684 0
M  V30 3255 N 308.923 1.53595 0.353017 0
M  V30 3256 C 310.339 1.43648 0.695516 0
M  V30 3257 C 310.539 0.585617 1.92802 0
M  V30 3258 O 309.595 0.0729223 2.52395 0
M  V30 3259 C 310.908 2.8701 0.896991 0
M  V30 3260 C 312.456 2.96723 0.996209 0
M  V30 3261 C 312.931 4.41173 1.23007 0
M  V30 3262 N 314.422 4.44657 1.29749 0
M  V30 3263 C 315.157 5.53547 1.49577 0
M  V30 3264 N 314.653 6.72461 1.66639 0
M  V30 3265 N 316.446 5.41145 1.52048 0
M  V30 3266 H 308.597 2.07415 -0.457481 0
M  V30 3267 H 310.86 0.9372 -0.142687 0
M  V30 3268 H 310.566 3.51644 0.0629938 0
M  V30 3269 H 310.44 3.31401 1.80148 0
M  V30 3270 H 312.827 2.32235 1.82074 0
M  V30 3271 H 312.908 2.55707 0.0688331 0
M  V30 3272 H 312.552 5.06238 0.410505 0
M  V30 3273 H 312.482 4.79772 2.17086 0
M  V30 3274 H 314.973 3.58963 1.18126 0
M  V30 3275 H 315.286 7.51214 1.81378 0
M  V30 3276 H 313.631 6.75423 1.63794 0
M  V30 3277 H 316.822 4.47205 1.38294 0
M  V30 3278 H 316.995 6.26068 1.67159 0
M  V30 3279 N 310.401 -0.613514 1.45168 0
M  V30 3280 C 311.333 -1.73825 1.4939 0
M  V30 3281 C 312.346 -1.58175 0.385304 0
M  V30 3282 O 313.535 -1.66165 0.652036 0
M  V30 3283 C 310.635 -3.11758 1.32891 0
M  V30 3284 C 309.808 -3.53704 2.57317 0
M  V30 3285 C 308.867 -4.70579 2.35462 0
M  V30 3286 O 307.893 -4.77996 3.09044 0
M  V30 3287 N 309.095 -5.63454 1.39644 0
M  V30 3288 H 311.86 -1.70669 2.46358 0
M  V30 3289 H 309.421 -0.79862 1.40832 0
M  V30 3290 H 311.413 -3.87692 1.1609 0
M  V30 3291 H 309.983 -3.09456 0.442218 0
M  V30 3292 H 309.203 -2.67794 2.89275 0
M  V30 3293 H 310.491 -3.78486 3.40038 0
M  V30 3294 H 309.889 -5.6017 0.789062 0
M  V30 3295 H 308.446 -6.38944 1.28816 0
M  V30 3296 N 311.879 -1.3236 -0.855495 0
M  V30 3297 C 312.809 -1.23833 -1.97958 0
M  V30 3298 C 313.79 -0.122361 -1.69659 0
M  V30 3299 O 314.975 -0.30939 -1.9172 0
M  V30 3300 C 312.105 -0.959772 -3.33775 0
M  V30 3301 C 311.059 -2.03689 -3.76424 0
M  V30 3302 C 310.385 -1.61075 -5.09862 0
M  V30 3303 C 311.685 -3.4518 -3.9198 0
M  V30 3304 H 313.379 -2.1788 -2.0535 0
M  V30 3305 H 310.925 -1.04891 -0.986605 0
M  V30 3306 H 312.878 -0.886678 -4.11966 0
M  V30 3307 H 311.602 0.0163404 -3.26596 0
M  V30 3308 H 310.261 -2.10012 -3.00484 0
M  V30 3309 H 309.909 -0.622107 -4.99138 0
M  V30 3310 H 309.609 -2.33143 -5.39368 0
M  V30 3311 H 311.133 -1.55201 -5.90546 0
M  V30 3312 H 312.547 -3.4145 -4.60526 0
M  V30 3313 H 310.944 -4.1559 -4.32903 0
M  V30 3314 H 312.014 -3.84903 -2.94919 0
M  V30 3315 N 313.357 1.07166 -1.15556 0
M  V30 3316 C 314.604 1.79798 -0.931604 0
M  V30 3317 C 314.932 1.8682 0.54115 0
M  V30 3318 O 314.187 1.34942 1.41736 0
M  V30 3319 C 314.486 3.24707 -1.49332 0
M  V30 3320 C 314.152 3.37781 -2.98688 0
M  V30 3321 C 312.814 3.41057 -3.39461 0
M  V30 3322 C 315.166 3.40424 -3.94665 0
M  V30 3323 C 312.494 3.4458 -4.74849 0
M  V30 3324 C 314.846 3.45485 -5.29927 0
M  V30 3325 C 313.51 3.47039 -5.70193 0
M  V30 3326 H 312.78 0.657928 -0.340898 0
M  V30 3327 H 315.427 1.26091 -1.44129 0
M  V30 3328 H 313.732 3.81208 -0.904859 0
M  V30 3329 H 315.429 3.79486 -1.29582 0
M  V30 3330 H 312.019 3.35932 -2.66172 0
M  V30 3331 H 316.203 3.37113 -3.64237 0
M  V30 3332 H 311.459 3.44083 -5.05388 0
M  V30 3333 H 315.633 3.46476 -6.04092 0
M  V30 3334 H 313.26 3.49522 -6.75084 0
M  V30 3335 N 314.835 0.952656 1.25548 0
M  V30 3336 C 315.783 0.462354 2.27958 0
M  V30 3337 C 316.777 -0.46634 1.62855 0
M  V30 3338 O 317.983 -0.343287 1.76696 0
M  V30 3339 H 314.358 0.13101 0.7405 0
M  V30 3340 H 316.329 1.33839 2.66702 0
M  V30 3341 C 315.078 -0.24628 3.46827 0
M  V30 3342 H 314.401 0.459192 3.97154 0
M  V30 3343 H 315.841 -0.553393 4.20373 0
M  V30 3344 C 314.3 -1.4681 3.0323 0
M  V30 3345 O 314.83 -2.56591 3.09069 0
M  V30 3346 N 313.036 -1.32874 2.58443 0
M  V30 3347 H 312.583 -0.435536 2.53891 0
M  V30 3348 H 312.541 -2.14742 2.29637 0
M  V30 3349 N 316.313 -1.40141 0.720998 0
M  V30 3350 C 317.724 -1.83678 0.334553 0
M  V30 3351 C 318.075 -1.6027 -1.13173 0
M  V30 3352 O 317.2 -1.08643 -1.87152 0
M  V30 3353 C 317.795 -3.33437 0.600437 0
M  V30 3354 C 316.354 -3.75447 0.267642 0
M  V30 3355 C 315.501 -2.63296 0.870097 0
M  V30 3356 H 318.452 -1.29331 0.919732 0
M  V30 3357 H 318.473 -3.80269 -0.132517 0
M  V30 3358 H 317.985 -3.50442 1.66768 0
M  V30 3359 H 316.086 -3.64035 -0.794329 0
M  V30 3360 H 316.199 -4.73344 0.74042 0
M  V30 3361 H 314.563 -2.52954 0.297739 0
M  V30 3362 H 315.346 -2.83112 1.94172 0
M  V30 3363 N 317.792 -0.46758 -1.50504 0
M  V30 3364 C 319.022 0.086288 -2.0642 0
M  V30 3365 C 319.43 1.34369 -1.33197 0
M  V30 3366 O 318.773 1.79431 -0.393747 0
M  V30 3367 C 318.835 0.443846 -3.5675 0
M  V30 3368 C 318.499 -0.711035 -4.51435 0
M  V30 3369 C 319.496 -1.59205 -4.94924 0
M  V30 3370 C 317.181 -0.900363 -4.94165 0
M  V30 3371 C 319.175 -2.64683 -5.79846 0
M  V30 3372 C 316.862 -1.95837 -5.7887 0
M  V30 3373 C 317.86 -2.82997 -6.21612 0
M  V30 3374 O 317.548 -3.86977 -7.0463 0
M  V30 3375 H 317.28 -0.00217814 -0.675996 0
M  V30 3376 H 319.834 -0.654346 -1.94698 0
M  V30 3377 H 318.064 1.23762 -3.6636 0
M  V30 3378 H 319.753 0.932386 -3.95046 0
M  V30 3379 H 320.519 -1.45745 -4.62583 0
M  V30 3380 H 316.398 -0.231427 -4.60419 0
M  V30 3381 H 319.942 -3.32745 -6.13128 0
M  V30 3382 H 315.839 -2.09305 -6.10624 0
M  V30 3383 H 316.607 -3.83923 -7.22873 0
M  V30 3384 N 319.27 1.56325 -0.20005 0
M  V30 3385 C 320.518 1.97329 0.436547 0
M  V30 3386 C 320.839 1.08826 1.61808 0
M  V30 3387 O 320.109 0.160604 1.95241 0
M  V30 3388 H 318.689 0.728714 0.164272 0
M  V30 3389 H 321.351 1.92761 -0.287937 0
M  V30 3390 H 320.447 3.02264 0.777353 0
M  V30 3391 N 320.748 -0.0735177 1.57428 0
M  V30 3392 C 321.658 -1.10547 2.06922 0
M  V30 3393 C 322.674 -1.42506 0.998402 0
M  V30 3394 O 323.85 -1.52717 1.31299 0
M  V30 3395 C 320.915 -2.40019 2.50184 0
M  V30 3396 C 319.976 -2.15046 3.71556 0
M  V30 3397 C 319.209 -3.38345 4.12745 0
M  V30 3398 O 319.432 -4.47399 3.53822 0
M  V30 3399 O 318.366 -3.2666 5.05546 0
M  V30 3400 H 322.192 -0.715013 2.95163 0
M  V30 3401 H 319.777 -0.287531 1.46607 0
M  V30 3402 H 321.659 -3.16218 2.78539 0
M  V30 3403 H 320.334 -2.78447 1.65072 0
M  V30 3404 H 319.241 -1.36558 3.48285 0
M  V30 3405 H 320.574 -1.81499 4.57514 0
M  V30 3406 N 322.226 -1.5378 -0.344866 0
M  V30 3407 C 323.475 -1.7018 -1.08267 0
M  V30 3408 C 323.788 -0.471 -1.89845 0
M  V30 3409 O 324.994 -0.515917 -2.66553 0
M  V30 3410 C 323.45 -3.00923 -1.97417 0
M  V30 3411 C 323.058 -4.31335 -1.21053 0
M  V30 3412 C 324.802 -3.26688 -2.71063 0
M  V30 3413 C 322.709 -5.53153 -2.09225 0
M  V30 3414 H 321.639 -0.634138 -0.407903 0
M  V30 3415 H 324.29 -1.8028 -0.342246 0
M  V30 3416 H 322.672 -2.84676 -2.75274 0
M  V30 3417 H 323.846 -4.58281 -0.481159 0
M  V30 3418 H 322.161 -4.12173 -0.591813 0
M  V30 3419 H 324.758 -4.1489 -3.37299 0
M  V30 3420 H 325.101 -2.43639 -3.37558 0
M  V30 3421 H 325.634 -3.43705 -2.0028 0
M  V30 3422 H 322.373 -6.38741 -1.47274 0
M  V30 3423 H 321.893 -5.30458 -2.79955 0
M  V30 3424 H 323.572 -5.88744 -2.68308 0
M  V30 3425 N 323.704 0.605807 -1.45491 0
M  V30 3426 C 324.932 1.39136 -1.5313 0
M  V30 3427 C 325.347 1.88082 -0.164507 0
M  V30 3428 O 324.704 1.62316 0.834247 0
M  V30 3429 C 324.755 2.59463 -2.51716 0
M  V30 3430 O 324.476 2.12551 -3.83084 0
M  V30 3431 C 325.977 3.52301 -2.6907 0
M  V30 3432 H 323.197 0.425849 -0.51855 0
M  V30 3433 H 325.741 0.73865 -1.90694 0
M  V30 3434 H 323.896 3.20772 -2.17219 0
M  V30 3435 H 324.31 2.90744 -4.36541 0
M  V30 3436 H 325.784 4.33271 -3.42024 0
M  V30 3437 H 326.261 4.02757 -1.75167 0
M  V30 3438 H 326.867 2.96845 -3.04571 0
M  V30 3439 N 325.182 1.32811 0.848464 0
M  V30 3440 C 326.407 1.26882 1.6406 0
M  V30 3441 C 326.832 -0.15913 1.87426 0
M  V30 3442 O 326.19 -1.11258 1.43148 0
M  V30 3443 C 326.238 2.03997 2.97351 0
M  V30 3444 O 325.342 1.39201 3.88197 0
M  V30 3445 H 324.683 0.436982 0.499943 0
M  V30 3446 H 327.213 1.75224 1.0563 0
M  V30 3447 H 327.223 2.14403 3.47124 0
M  V30 3448 H 325.898 3.0783 2.79666 0
M  V30 3449 H 324.475 1.37381 3.46671 0
M  V30 3450 N 326.66 -1.06551 1.16123 0
M  V30 3451 C 327.593 -2.13382 0.80892 0
M  V30 3452 C 328.571 -1.61128 -0.21827 0
M  V30 3453 O 329.755 -1.88219 -0.102952 0
M  V30 3454 C 326.882 -3.38083 0.204303 0
M  V30 3455 C 325.928 -4.09133 1.20469 0
M  V30 3456 S 326.761 -4.5948 2.75024 0
M  V30 3457 C 327.917 -5.87446 2.16005 0
M  V30 3458 H 328.15 -2.42937 1.71373 0
M  V30 3459 H 325.683 -1.18947 0.984428 0
M  V30 3460 H 327.641 -4.10268 -0.138081 0
M  V30 3461 H 326.302 -3.0669 -0.678234 0
M  V30 3462 H 325.495 -4.98685 0.730019 0
M  V30 3463 H 325.097 -3.4295 1.49202 0
M  V30 3464 H 327.389 -6.60065 1.5271 0
M  V30 3465 H 328.332 -6.39639 3.03756 0
M  V30 3466 H 328.74 -5.41354 1.59989 0
M  V30 3467 N 328.138 -0.959301 -1.25041 0
M  V30 3468 C 329.387 -0.612254 -1.92183 0
M  V30 3469 C 329.7 0.855347 -1.75907 0
M  V30 3470 O 330.906 1.31256 -2.37664 0
M  V30 3471 C 329.362 -1.04435 -3.44414 0
M  V30 3472 C 328.97 -2.53482 -3.69393 0
M  V30 3473 C 330.714 -0.770055 -4.17457 0
M  V30 3474 C 328.621 -2.90468 -5.15153 0
M  V30 3475 H 327.551 -0.225279 -0.719559 0
M  V30 3476 H 330.202 -1.16438 -1.41825 0
M  V30 3477 H 328.584 -0.4206 -3.9376 0
M  V30 3478 H 329.758 -3.20916 -3.30681 0
M  V30 3479 H 328.073 -2.78432 -3.0962 0
M  V30 3480 H 330.67 -1.02249 -5.24832 0
M  V30 3481 H 331.013 0.293611 -4.15263 0
M  V30 3482 H 331.546 -1.35437 -3.74034 0
M  V30 3483 H 328.285 -3.95871 -5.22462 0
M  V30 3484 H 327.805 -2.27711 -5.54894 0
M  V30 3485 H 329.484 -2.79914 -5.83315 0
M  V30 3486 N 329.616 1.39756 -0.72842 0
M  V30 3487 C 330.862 2.00942 -0.273892 0
M  V30 3488 C 331.195 1.57656 1.13394 0
M  V30 3489 O 330.47 0.802434 1.77176 0
M  V30 3490 C 330.753 3.58211 -0.368346 0
M  V30 3491 C 330.606 4.11534 -1.81548 0
M  V30 3492 C 331.925 4.39372 0.253054 0
M  V30 3493 H 329.044 0.730047 -0.100996 0
M  V30 3494 H 331.686 1.66056 -0.923337 0
M  V30 3495 H 329.836 3.88061 0.184588 0
M  V30 3496 H 331.508 3.92431 -2.42478 0
M  V30 3497 H 329.751 3.65341 -2.33898 0
M  V30 3498 H 330.422 5.20682 -1.83288 0
M  V30 3499 H 332.898 4.15527 -0.218224 0
M  V30 3500 H 331.774 5.48677 0.156585 0
M  V30 3501 H 332.035 4.21358 1.33826 0
M  V30 3502 N 331.094 0.475555 1.50254 0
M  V30 3503 C 332.041 -0.316293 2.28622 0
M  V30 3504 C 333.011 -0.983227 1.33873 0
M  V30 3505 O 334.196 -0.994805 1.62814 0
M  V30 3506 C 331.336 -1.38975 3.1588 0
M  V30 3507 C 330.449 -0.737146 4.25664 0
M  V30 3508 C 329.584 -1.78887 5.00173 0
M  V30 3509 C 328.623 -1.11676 6.01826 0
M  V30 3510 N 327.76 -2.11154 6.69596 0
M  V30 3511 H 332.6 0.358297 2.95838 0
M  V30 3512 H 330.137 0.188541 1.45887 0
M  V30 3513 H 332.095 -2.02383 3.64825 0
M  V30 3514 H 330.725 -2.03344 2.50701 0
M  V30 3515 H 329.777 0.0096065 3.80399 0
M  V30 3516 H 331.089 -0.206816 4.98371 0
M  V30 3517 H 330.243 -2.49865 5.52859 0
M  V30 3518 H 328.982 -2.35302 4.27182 0
M  V30 3519 H 327.987 -0.392633 5.48396 0
M  V30 3520 H 329.212 -0.55945 6.76792 0
M  V30 3521 H 327.158 -2.66577 5.99394 0
M  V30 3522 H 327.075 -1.63118 7.38193 0
M  V30 3523 H 328.343 -2.81497 7.26897 0
M  V30 3524 N 332.573 -1.56217 0.208337 0
M  V30 3525 C 333.506 -2.15633 -0.746842 0
M  V30 3526 C 334.484 -1.09685 -1.20034 0
M  V30 3527 O 335.668 -1.3787 -1.28547 0
M  V30 3528 C 332.795 -2.72594 -2.01023 0
M  V30 3529 C 331.841 -3.91251 -1.69779 0
M  V30 3530 S 332.674 -5.28962 -0.834209 0
M  V30 3531 C 333.83 -5.89353 -2.10745 0
M  V30 3532 H 334.063 -2.96315 -0.241789 0
M  V30 3533 H 331.596 -1.54398 -0.00682183 0
M  V30 3534 H 333.554 -3.06053 -2.73572 0
M  V30 3535 H 332.215 -1.91929 -2.48641 0
M  V30 3536 H 331.408 -4.29562 -2.63614 0
M  V30 3537 H 331.01 -3.58869 -1.05303 0
M  V30 3538 H 333.302 -6.04522 -3.05875 0
M  V30 3539 H 334.245 -6.85661 -1.76845 0
M  V30 3540 H 334.653 -5.1807 -2.24196 0
M  V30 3541 N 334.051 0.0651679 -1.57465 0
M  V30 3542 C 335.328 0.79644 -1.78651 0
M  V30 3543 C 335.708 1.95454 -0.797566 0
M  V30 3544 O 335.056 2.27882 0.167946 0
M  V30 3545 C 335.266 1.26322 -3.25337 0
M  V30 3546 C 336.614 1.6939 -3.89348 0
M  V30 3547 O 337.638 1.35872 -3.29268 0
M  V30 3548 O 336.497 2.31471 -4.95059 0
M  V30 3549 H 333.591 0.382157 -0.733407 0
M  V30 3550 H 336.137 0.0447311 -1.69641 0
M  V30 3551 H 334.909 0.434859 -3.88876 0
M  V30 3552 H 334.532 2.07604 -3.39096 0
M  V30 3553 N 335.529 1.53961 0.336706 0
M  V30 3554 C 336.477 1.83136 1.43401 0
M  V30 3555 C 337.471 0.702313 1.54156 0
M  V30 3556 O 338.677 0.885765 1.56698 0
M  V30 3557 H 335.052 0.580309 0.478273 0
M  V30 3558 H 337.023 2.74925 1.16012 0
M  V30 3559 C 335.772 2.06385 2.79822 0
M  V30 3560 H 335.095 2.92718 2.72316 0
M  V30 3561 H 336.535 2.30761 3.55704 0
M  V30 3562 C 334.994 0.851414 3.25964 0
M  V30 3563 O 335.524 0.0541904 4.01663 0
M  V30 3564 N 333.73 0.66672 2.82848 0
M  V30 3565 H 333.277 1.31665 2.21409 0
M  V30 3566 H 333.235 -0.143032 3.14074 0
M  V30 3567 N 337.007 -0.598083 1.45811 0
M  V30 3568 C 337.954 -1.7082 1.55207 0
M  V30 3569 C 338.924 -1.61278 0.39732 0
M  V30 3570 O 340.109 -1.80717 0.612038 0
M  V30 3571 C 337.249 -3.09144 1.53376 0
M  V30 3572 C 336.362 -3.29423 2.79472 0
M  V30 3573 C 335.497 -4.57907 2.69248 0
M  V30 3574 C 334.536 -4.71476 3.90354 0
M  V30 3575 N 333.673 -5.9127 3.78608 0
M  V30 3576 H 338.513 -1.62125 2.50039 0
M  V30 3577 H 336.05 -0.790389 1.24062 0
M  V30 3578 H 338.008 -3.89186 1.50301 0
M  V30 3579 H 336.638 -3.16773 0.620876 0
M  V30 3580 H 335.69 -2.43091 2.92594 0
M  V30 3581 H 337.002 -3.3532 3.69272 0
M  V30 3582 H 336.156 -5.46157 2.64192 0
M  V30 3583 H 334.895 -4.54423 1.77063 0
M  V30 3584 H 333.9 -3.81648 3.95759 0
M  V30 3585 H 335.125 -4.76751 4.83617 0
M  V30 3586 H 333.071 -5.88813 2.89199 0
M  V30 3587 H 332.988 -5.98369 4.6205 0
M  V30 3588 H 334.256 -6.81992 3.77501 0
M  V30 3589 N 338.485 -1.33259 -0.841409 0
M  V30 3590 C 339.433 -1.23279 -1.97244 0
M  V30 3591 C 340.427 -0.134706 -1.68864 0
M  V30 3592 O 341.633 -0.298501 -1.77508 0
M  V30 3593 H 338.008 -0.382497 -0.647457 0
M  V30 3594 H 339.979 -2.18906 -2.02787 0
M  V30 3595 C 338.728 -0.986268 -3.33419 0
M  V30 3596 H 338.051 -1.82347 -3.55794 0
M  V30 3597 H 339.491 -0.956728 -4.13065 0
M  V30 3598 C 337.95 0.310842 -3.35463 0
M  V30 3599 O 338.48 1.31838 -3.79449 0
M  V30 3600 N 336.686 0.337485 -2.88634 0
M  V30 3601 H 336.233 -0.482967 -2.53032 0
M  V30 3602 H 336.191 1.20518 -2.90384 0
M  V30 3603 N 339.963 1.05934 -1.16686 0
M  V30 3604 C 341.379 1.30938 -0.912542 0
M  V30 3605 C 341.579 1.96803 0.432533 0
M  V30 3606 O 340.635 2.23693 1.17123 0
M  V30 3607 C 341.948 2.18649 -2.06429 0
M  V30 3608 C 343.496 2.32055 -2.10047 0
M  V30 3609 C 343.971 3.23122 -3.24586 0
M  V30 3610 N 345.462 3.30706 -3.24327 0
M  V30 3611 C 346.197 4.01273 -4.09594 0
M  V30 3612 N 345.693 4.74332 -5.04956 0
M  V30 3613 N 347.486 3.97361 -3.97569 0
M  V30 3614 H 339.637 0.615777 -2.03278 0
M  V30 3615 H 341.9 0.334077 -0.887185 0
M  V30 3616 H 341.606 1.77534 -3.03603 0
M  V30 3617 H 341.48 3.19252 -2.00894 0
M  V30 3618 H 343.867 2.72415 -1.13464 0
M  V30 3619 H 343.948 1.31107 -2.19647 0
M  V30 3620 H 343.592 2.83477 -4.2143 0
M  V30 3621 H 343.522 4.24057 -3.12223 0
M  V30 3622 H 346.013 2.78644 -2.55276 0
M  V30 3623 H 346.326 5.25716 -5.6643 0
M  V30 3624 H 344.671 4.733 -5.08933 0
M  V30 3625 H 347.862 3.39405 -3.22369 0
M  V30 3626 H 348.035 4.52089 -4.64241 0
M  V30 3627 N 341.441 0.965919 1.2453 0
M  V30 3628 C 342.388 0.49402 2.25451 0
M  V30 3629 C 343.358 -0.45948 1.59618 0
M  V30 3630 O 344.543 -0.370238 1.87173 0
M  V30 3631 C 341.683 -0.211359 3.44452 0
M  V30 3632 C 340.796 0.7807 4.24887 0
M  V30 3633 C 339.931 0.0516105 5.31175 0
M  V30 3634 C 338.97 1.03385 6.03306 0
M  V30 3635 N 338.107 0.334887 7.01301 0
M  V30 3636 H 342.947 1.35946 2.65184 0
M  V30 3637 H 340.484 0.681515 1.3036 0
M  V30 3638 H 342.442 -0.637 4.12308 0
M  V30 3639 H 341.072 -1.04077 3.05562 0
M  V30 3640 H 340.124 1.32479 3.56586 0
M  V30 3641 H 341.436 1.52978 4.74762 0
M  V30 3642 H 340.59 -0.432114 6.05159 0
M  V30 3643 H 339.329 -0.730179 4.82203 0
M  V30 3644 H 338.334 1.52847 5.28127 0
M  V30 3645 H 339.559 1.81606 6.54367 0
M  V30 3646 H 337.505 -0.427959 6.54603 0
M  V30 3647 H 337.422 1.02287 7.49048 0
M  V30 3648 H 338.69 -0.126928 7.79397 0
M  V30 3649 N 342.919 -1.39368 0.735821 0
M  V30 3650 C 344.166 -2.00497 0.284123 0
M  V30 3651 C 344.494 -1.58387 -1.12889 0
M  V30 3652 O 343.749 -0.804359 -1.78406 0
M  V30 3653 C 344.048 -3.5583 0.334651 0
M  V30 3654 C 343.714 -4.17593 1.7008 0
M  V30 3655 C 342.376 -4.34176 2.07472 0
M  V30 3656 C 344.728 -4.51848 2.59775 0
M  V30 3657 C 342.056 -4.82304 3.34065 0
M  V30 3658 C 344.408 -5.01384 3.85741 0
M  V30 3659 C 343.072 -5.16175 4.23225 0
M  V30 3660 H 342.342 -0.73367 0.103968 0
M  V30 3661 H 344.989 -1.66683 0.942825 0
M  V30 3662 H 343.294 -3.89674 -0.407625 0
M  V30 3663 H 344.991 -4.00986 -0.0329927 0
M  V30 3664 H 341.581 -4.05087 1.40008 0
M  V30 3665 H 345.765 -4.38653 2.32157 0
M  V30 3666 H 341.021 -4.91941 3.63049 0
M  V30 3667 H 345.195 -5.26863 4.55399 0
M  V30 3668 H 342.822 -5.5323 5.21384 0
M  V30 3669 N 344.397 -0.483516 -1.5 0
M  V30 3670 C 345.637 0.0657469 -2.04294 0
M  V30 3671 C 346.001 1.35869 -1.35659 0
M  V30 3672 O 347.202 1.99111 -1.80578 0
M  V30 3673 C 345.473 0.232758 -3.56641 0
M  V30 3674 S 347.032 0.738788 -4.32536 0
M  V30 3675 H 343.85 0.0100755 -0.710929 0
M  V30 3676 H 346.452 -0.653494 -1.84254 0
M  V30 3677 H 345.156 -0.713847 -4.04144 0
M  V30 3678 H 344.687 0.977751 -3.81056 0
M  V30 3679 H 346.702 2.01048 -4.53645 0
M  V30 3680 N 345.875 1.56104 -0.216619 0
M  V30 3681 C 347.122 1.98172 0.416416 0
M  V30 3682 C 347.45 1.10413 1.60122 0
M  V30 3683 O 346.705 0.147967 1.9514 0
M  V30 3684 C 347.004 3.45923 0.898464 0
M  V30 3685 C 346.67 4.50559 -0.175288 0
M  V30 3686 C 345.332 4.78897 -0.470271 0
M  V30 3687 C 347.684 5.1334 -0.901728 0
M  V30 3688 C 345.012 5.67299 -1.4963 0
M  V30 3689 C 347.364 6.02853 -1.91705 0
M  V30 3690 C 346.028 6.29537 -2.21901 0
M  V30 3691 H 345.298 0.725164 0.152377 0
M  V30 3692 H 347.945 1.88839 -0.318103 0
M  V30 3693 H 346.25 3.52434 1.71165 0
M  V30 3694 H 347.947 3.75841 1.39803 0
M  V30 3695 H 344.537 4.28551 0.0647806 0
M  V30 3696 H 348.721 4.91521 -0.687072 0
M  V30 3697 H 343.977 5.86239 -1.73592 0
M  V30 3698 H 348.151 6.50552 -2.48505 0
M  V30 3699 H 345.778 6.97835 -3.01548 0
M  V30 3700 N 347.353 -0.0568162 1.57498 0
M  V30 3701 C 348.602 -0.752001 1.87157 0
M  V30 3702 C 348.915 -1.77978 0.811375 0
M  V30 3703 O 350.121 -2.52559 0.996293 0
M  V30 3704 C 348.577 -1.38844 3.3204 0
M  V30 3705 C 348.185 -0.398456 4.46225 0
M  V30 3706 C 349.929 -2.06512 3.70882 0
M  V30 3707 C 347.836 -1.04166 5.82154 0
M  V30 3708 H 346.766 -0.28461 0.698222 0
M  V30 3709 H 349.417 -0.00561272 1.83499 0
M  V30 3710 H 347.799 -2.1836 3.30356 0
M  V30 3711 H 348.973 0.367977 4.59328 0
M  V30 3712 H 347.288 0.174592 4.16034 0
M  V30 3713 H 349.885 -2.55437 4.6974 0
M  V30 3714 H 350.228 -2.87117 3.01445 0
M  V30 3715 H 350.761 -1.33808 3.7462 0
M  V30 3716 H 347.5 -0.275614 6.5492 0
M  V30 3717 H 347.02 -1.7786 5.72823 0
M  V30 3718 H 348.699 -1.55715 6.27982 0
M  V30 3719 N 348.832 -1.54138 -0.328536 0
M  V30 3720 C 349.78 -1.83894 -1.42428 0
M  V30 3721 C 350.774 -0.710478 -1.53781 0
M  V30 3722 O 351.98 -0.894062 -1.56226 0
M  V30 3723 H 348.355 -0.582837 -0.475189 0
M  V30 3724 H 350.326 -2.75537 -1.14552 0
M  V30 3725 C 349.075 -2.07866 -2.78724 0
M  V30 3726 H 348.398 -2.94158 -2.7076 0
M  V30 3727 H 349.838 -2.32644 -3.54476 0
M  V30 3728 C 348.297 -0.868689 -3.25508 0
M  V30 3729 O 348.827 -0.0754908 -4.01629 0
M  V30 3730 N 347.033 -0.681711 -2.82491 0
M  V30 3731 H 346.58 -1.32838 -2.20708 0
M  V30 3732 H 346.538 0.126374 -3.14146 0
M  V30 3733 N 350.31 0.590341 -1.46126 0
M  V30 3734 C 351.54 1.37304 -1.54373 0
M  V30 3735 C 351.948 1.88332 -0.181071 0
M  V30 3736 O 351.291 1.63852 0.830559 0
M  V30 3737 C 351.353 2.6012 -2.48149 0
M  V30 3738 C 351.017 2.30613 -3.94546 0
M  V30 3739 C 352.014 1.89915 -4.83971 0
M  V30 3740 C 349.699 2.42993 -4.39613 0
M  V30 3741 C 351.693 1.61981 -6.16475 0
M  V30 3742 C 349.38 2.14672 -5.72153 0
M  V30 3743 C 350.378 1.7423 -6.60404 0
M  V30 3744 O 350.066 1.46251 -7.90485 0
M  V30 3745 H 349.798 0.426086 -0.524811 0
M  V30 3746 H 352.352 0.72539 -1.92165 0
M  V30 3747 H 350.582 3.27664 -2.05361 0
M  V30 3748 H 352.271 3.22182 -2.46887 0
M  V30 3749 H 353.037 1.79872 -4.50412 0
M  V30 3750 H 348.916 2.73435 -3.71153 0
M  V30 3751 H 352.46 1.30341 -6.85315 0
M  V30 3752 H 348.357 2.24337 -6.05263 0
M  V30 3753 H 349.125 1.6016 -8.02677 0
M  V30 3754 N 351.788 1.33704 0.83433 0
M  V30 3755 C 352.751 1.24244 1.92603 0
M  V30 3756 C 353.751 0.160383 1.59998 0
M  V30 3757 O 354.941 0.412228 1.69252 0
M  V30 3758 C 352.073 0.91555 3.28376 0
M  V30 3759 H 353.266 2.21287 2.02416 0
M  V30 3760 H 350.819 1.17827 1.02696 0
M  V30 3761 H 351.554 -0.0521886 3.24258 0
M  V30 3762 H 351.339 1.69811 3.53422 0
M  V30 3763 H 352.829 0.874231 4.08347 0
M  V30 3764 N 353.266 -1.05314 1.17247 0
M  V30 3765 C 354.543 -1.75184 0.87005 0
M  V30 3766 C 354.923 -2.01481 -0.629965 0
M  V30 3767 O 354.271 -1.64988 -1.58086 0
M  V30 3768 C 354.481 -3.04594 1.70363 0
M  V30 3769 C 355.829 -3.78567 1.92281 0
M  V30 3770 O 356.853 -3.14461 1.67311 0
M  V30 3771 O 355.712 -4.93755 2.3424 0
M  V30 3772 H 352.806 -0.761729 0.322021 0
M  V30 3773 H 355.352 -1.11493 1.27935 0
M  V30 3774 H 354.124 -2.81201 2.72106 0
M  V30 3775 H 353.747 -3.76022 1.29202 0
M  V30 3776 N 354.744 -0.972509 -1.24016 0
M  V30 3777 C 355.707 -0.511403 -2.23422 0
M  V30 3778 C 356.707 0.394679 -1.55881 0
M  V30 3779 O 357.897 0.189469 -1.73167 0
M  V30 3780 C 355.029 0.258769 -3.39916 0
M  V30 3781 H 356.222 -1.39024 -2.6573 0
M  V30 3782 H 353.775 -0.757585 -1.36713 0
M  V30 3783 H 354.51 1.1545 -3.03054 0
M  V30 3784 H 354.295 -0.391522 -3.9014 0
M  V30 3785 H 355.785 0.570244 -4.13688 0
M  V30 3786 N 356.222 1.38976 -0.743202 0
M  V30 3787 C 357.132 2.3434 -0.110399 0
M  V30 3788 C 358.148 1.58741 0.712559 0
M  V30 3789 O 359.324 1.9099 0.639125 0
M  V30 3790 C 356.389 3.37812 0.780012 0
M  V30 3791 C 355.45 4.29263 -0.0561319 0
M  V30 3792 C 354.683 5.27793 0.791875 0
M  V30 3793 O 354.906 5.33043 2.03031 0
M  V30 3794 O 353.84 6.01512 0.216183 0
M  V30 3795 H 357.666 2.90129 -0.897714 0
M  V30 3796 H 355.251 1.40643 -0.503966 0
M  V30 3797 H 357.133 4.01194 1.28923 0
M  V30 3798 H 355.808 2.84395 1.546 0
M  V30 3799 H 354.715 3.69076 -0.611056 0
M  V30 3800 H 356.048 4.85907 -0.784531 0
M  V30 3801 N 357.7 0.491464 1.49741 0
M  V30 3802 C 358.925 -0.0557177 2.07325 0
M  V30 3803 C 359.35 -1.30925 1.35056 0
M  V30 3804 O 358.708 -1.76733 0.404365 0
M  V30 3805 C 358.756 -0.302074 3.59333 0
M  V30 3806 O 357.86 -1.37868 3.88672 0
M  V30 3807 H 357.201 0.0219956 0.663636 0
M  V30 3808 H 359.731 0.688352 1.92673 0
M  V30 3809 H 359.741 -0.536464 4.04458 0
M  V30 3810 H 358.416 0.61383 4.11345 0
M  V30 3811 H 356.993 -1.12999 3.55367 0
M  V30 3812 N 359.178 -1.55987 0.224894 0
M  V30 3813 C 360.141 -2.19178 -0.670348 0
M  V30 3814 C 361.141 -1.15461 -1.11917 0
M  V30 3815 O 362.331 -1.40675 -1.02743 0
M  V30 3816 C 359.463 -2.81777 -1.9187 0
M  V30 3817 H 360.656 -2.99662 -0.119364 0
M  V30 3818 H 358.209 -1.5628 -0.0247128 0
M  V30 3819 H 358.944 -2.05172 -2.51147 0
M  V30 3820 H 358.729 -3.57732 -1.60531 0
M  V30 3821 H 360.219 -3.30205 -2.55645 0
M  V30 3822 N 360.656 0.0484629 -1.57525 0
M  V30 3823 C 361.603 1.05504 -2.05275 0
M  V30 3824 C 362.573 1.37084 -0.937927 0
M  V30 3825 O 363.758 1.47754 -1.2072 0
M  V30 3826 C 360.898 2.35676 -2.52093 0
M  V30 3827 C 360.011 2.10423 -3.77288 0
M  V30 3828 C 359.146 3.34327 -4.12794 0
M  V30 3829 C 358.185 3.04542 -5.30962 0
M  V30 3830 N 357.322 4.20841 -5.61994 0
M  V30 3831 H 362.162 0.640885 -2.91027 0
M  V30 3832 H 359.699 0.304854 -1.43906 0
M  V30 3833 H 361.657 3.11709 -2.77297 0
M  V30 3834 H 360.287 2.7485 -1.69285 0
M  V30 3835 H 359.339 1.24976 -3.59284 0
M  V30 3836 H 360.651 1.84438 -4.63448 0
M  V30 3837 H 359.805 4.1874 -4.39024 0
M  V30 3838 H 358.544 3.63408 -3.25247 0
M  V30 3839 H 357.549 2.18528 -5.04505 0
M  V30 3840 H 358.774 2.76758 -6.20146 0
M  V30 3841 H 356.72 4.4991 -4.77406 0
M  V30 3842 H 356.637 3.98212 -6.42622 0
M  V30 3843 H 357.905 5.06184 -5.92789 0
M  V30 3844 N 362.134 1.5431 0.320358 0
M  V30 3845 C 363.082 1.84647 1.4145 0
M  V30 3846 C 364.076 0.718624 1.53402 0
M  V30 3847 O 365.282 0.902335 1.5575 0
M  V30 3848 H 361.657 0.585349 0.472091 0
M  V30 3849 H 363.628 2.7614 1.13089 0
M  V30 3850 C 362.377 2.09341 2.77617 0
M  V30 3851 H 361.7 2.9559 2.69196 0
M  V30 3852 H 363.14 2.3452 3.53237 0
M  V30 3853 C 361.599 0.885939 3.25043 0
M  V30 3854 O 362.129 0.0967891 4.01583 0
M  V30 3855 N 360.335 0.696682 2.82125 0
M  V30 3856 H 359.882 1.34006 2.2 0
M  V30 3857 H 359.84 -0.109712 3.14209 0
M  V30 3858 N 363.613 -0.582584 1.46437 0
M  V30 3859 C 364.576 -1.67366 1.56592 0
M  V30 3860 C 365.576 -1.54575 0.443072 0
M  V30 3861 O 366.766 -1.59191 0.707381 0
M  V30 3862 C 363.898 -3.06791 1.48634 0
M  V30 3863 H 365.091 -1.5972 2.5383 0
M  V30 3864 H 362.644 -0.800432 1.34249 0
M  V30 3865 H 363.379 -3.19993 0.526763 0
M  V30 3866 H 363.164 -3.17484 2.30101 0
M  V30 3867 H 364.654 -3.86218 1.58826 0
M  V30 3868 N 365.091 -1.34144 -0.827227 0
M  V30 3869 C 366.024 -1.19707 -1.94282 0
M  V30 3870 C 367.002 -0.0897256 -1.62352 0
M  V30 3871 O 368.186 -0.254095 -1.8678 0
M  V30 3872 C 365.313 -0.838646 -3.28153 0
M  V30 3873 C 364.359 -1.95514 -3.79047 0
M  V30 3874 S 365.192 -3.56793 -3.99323 0
M  V30 3875 C 366.348 -3.22983 -5.36127 0
M  V30 3876 H 366.581 -2.1414 -2.06231 0
M  V30 3877 H 364.114 -1.19121 -0.982321 0
M  V30 3878 H 366.072 -0.638637 -4.05502 0
M  V30 3879 H 364.733 0.0872776 -3.13979 0
M  V30 3880 H 363.926 -1.658 -4.75948 0
M  V30 3881 H 363.528 -2.11241 -3.08631 0
M  V30 3882 H 365.82 -2.74531 -6.19386 0
M  V30 3883 H 366.763 -4.19008 -5.70822 0
M  V30 3884 H 367.171 -2.59276 -5.01434 0
M  V30 3885 N 366.569 1.04691 -1.17803 0
M  V30 3886 C 367.846 1.7472 -0.879328 0
M  V30 3887 C 368.226 2.01812 0.619271 0
M  V30 3888 O 367.574 1.65824 1.57209 0
M  V30 3889 C 367.784 3.03686 -1.71976 0
M  V30 3890 C 369.132 3.77542 -1.94286 0
M  V30 3891 O 370.156 3.13569 -1.68976 0
M  V30 3892 O 369.015 4.92506 -2.36855 0
M  V30 3893 H 366.109 0.760011 -0.326056 0
M  V30 3894 H 368.655 1.10813 -1.28525 0
M  V30 3895 H 367.427 2.79754 -2.73594 0
M  V30 3896 H 367.05 3.75332 -1.31194 0
M  V30 3897 N 368.047 0.979072 1.23499 0
M  V30 3898 C 368.995 0.510604 2.26926 0
M  V30 3899 C 369.989 -0.431691 1.63807 0
M  V30 3900 O 371.195 -0.30573 1.77385 0
M  V30 3901 H 367.57 0.146688 0.737554 0
M  V30 3902 H 369.541 1.39466 2.63803 0
M  V30 3903 C 368.29 -0.172658 3.47271 0
M  V30 3904 H 367.613 0.543331 3.96091 0
M  V30 3905 H 369.053 -0.464101 4.21452 0
M  V30 3906 C 367.512 -1.40345 3.06276 0
M  V30 3907 O 368.042 -2.49978 3.14442 0
M  V30 3908 N 366.248 -1.27362 2.61203 0
M  V30 3909 H 365.795 -0.381584 2.54758 0
M  V30 3910 H 365.753 -2.09822 2.34141 0
M  V30 3911 N 369.525 -1.3858 0.750561 0
M  V30 3912 C 370.455 -2.33102 0.136237 0
M  V30 3913 C 371.436 -1.54713 -0.706965 0
M  V30 3914 O 372.621 -1.83043 -0.648769 0
M  V30 3915 C 369.751 -3.38882 -0.760017 0
M  V30 3916 C 368.705 -4.27995 -0.0197785 0
M  V30 3917 C 368.031 -5.24605 -1.03408 0
M  V30 3918 C 369.331 -5.09554 1.14684 0
M  V30 3919 H 371.025 -2.84726 0.925822 0
M  V30 3920 H 368.571 -1.36898 0.446654 0
M  V30 3921 H 370.524 -4.0397 -1.19943 0
M  V30 3922 H 369.248 -2.85734 -1.58189 0
M  V30 3923 H 367.907 -3.64409 0.400184 0
M  V30 3924 H 367.555 -4.67746 -1.84994 0
M  V30 3925 H 367.255 -5.85081 -0.543464 0
M  V30 3926 H 368.779 -5.9257 -1.47288 0
M  V30 3927 H 370.193 -5.67899 0.785118 0
M  V30 3928 H 368.59 -5.7925 1.56812 0
M  V30 3929 H 369.66 -4.4347 1.96118 0
M  V30 3930 N 371.003 -0.499398 -1.49478 0
M  V30 3931 C 371.951 0.293604 -2.3074 0
M  V30 3932 C 372.945 0.96427 -1.39277 0
M  V30 3933 O 374.151 0.892141 -1.56336 0
M  V30 3934 H 370.526 0.113541 -0.743379 0
M  V30 3935 H 372.497 -0.411772 -2.95545 0
M  V30 3936 C 371.246 1.3462 -3.20582 0
M  V30 3937 H 370.569 0.83954 -3.90886 0
M  V30 3938 H 372.009 1.87308 -3.80384 0
M  V30 3939 C 370.468 2.36351 -2.40083 0
M  V30 3940 O 370.998 3.422 -2.10385 0
M  V30 3941 N 369.204 2.0878 -2.02137 0
M  V30 3942 H 368.751 1.22723 -2.26488 0
M  V30 3943 H 368.709 2.77075 -1.48583 0
M  V30 3944 N 372.481 1.55866 -0.233164 0
M  V30 3945 C 373.729 1.9821 0.394593 0
M  V30 3946 C 374.05 1.12234 1.59463 0
M  V30 3947 O 373.32 0.201981 1.94856 0
M  V30 3948 H 371.9 0.732034 0.148778 0
M  V30 3949 H 374.562 1.92107 -0.32876 0
M  V30 3950 H 373.658 3.03845 0.713063 0
M  V30 3951 N 373.959 -0.0401083 1.57549 0
M  V30 3952 C 374.906 -1.04413 2.05831 0
M  V30 3953 C 375.876 -1.36585 0.945184 0
M  V30 3954 O 377.061 -1.47112 1.21502 0
M  V30 3955 C 374.201 -2.34336 2.53339 0
M  V30 3956 C 373.314 -2.08419 3.78398 0
M  V30 3957 C 372.449 -3.32133 4.14561 0
M  V30 3958 C 371.488 -3.01721 5.3257 0
M  V30 3959 N 370.625 -4.17855 5.64218 0
M  V30 3960 H 375.465 -0.625442 2.91363 0
M  V30 3961 H 373.002 -0.297218 1.44066 0
M  V30 3962 H 374.96 -3.10234 2.78946 0
M  V30 3963 H 373.59 -2.73948 1.7074 0
M  V30 3964 H 372.642 -1.23069 3.59942 0
M  V30 3965 H 373.954 -1.81978 4.64419 0
M  V30 3966 H 373.108 -4.16406 4.41238 0
M  V30 3967 H 371.847 -3.61678 3.2717 0
M  V30 3968 H 370.852 -2.15849 5.05657 0
M  V30 3969 H 372.077 -2.73466 6.21605 0
M  V30 3970 H 370.023 -4.47372 4.79786 0
M  V30 3971 H 369.94 -3.94798 6.44725 0
M  V30 3972 H 371.208 -5.03033 5.95465 0
M  V30 3973 N 375.437 -1.54477 -0.31217 0
M  V30 3974 C 376.384 -1.84655 -1.38461 0
M  V30 3975 C 377.354 -0.694536 -1.50882 0
M  V30 3976 O 378.539 -0.942081 -1.6592 0
M  V30 3977 C 375.679 -2.0896 -2.74645 0
M  V30 3978 C 374.792 -3.36618 -2.70763 0
M  V30 3979 C 373.927 -3.50824 -3.98868 0
M  V30 3980 C 372.966 -4.72315 -3.89339 0
M  V30 3981 N 372.103 -4.83387 -5.09197 0
M  V30 3982 H 376.943 -2.76142 -1.12026 0
M  V30 3983 H 374.48 -1.36748 -0.542065 0
M  V30 3984 H 376.438 -2.21045 -3.53829 0
M  V30 3985 H 375.068 -1.20752 -2.99364 0
M  V30 3986 H 374.12 -3.33211 -1.83506 0
M  V30 3987 H 375.432 -4.25917 -2.59608 0
M  V30 3988 H 374.586 -3.62513 -4.86486 0
M  V30 3989 H 373.325 -2.59638 -4.12843 0
M  V30 3990 H 372.33 -4.6067 -3.00105 0
M  V30 3991 H 373.555 -5.64897 -3.76919 0
M  V30 3992 H 371.501 -3.9512 -5.23657 0
M  V30 3993 H 371.418 -5.66669 -5.00422 0
M  V30 3994 H 372.686 -4.9942 -5.98498 0
M  V30 3995 N 376.915 0.57481 -1.46744 0
M  V30 3996 C 378.164 1.32898 -1.51727 0
M  V30 3997 C 378.477 1.948 -0.176692 0
M  V30 3998 O 379.683 2.71299 -0.104385 0
M  V30 3999 C 378.139 2.40901 -2.67385 0
M  V30 4000 C 377.747 1.85266 -4.07898 0
M  V30 4001 C 379.491 3.17609 -2.81646 0
M  V30 4002 C 377.398 2.90945 -5.14883 0
M  V30 4003 H 376.328 0.499631 -0.564699 0
M  V30 4004 H 378.979 0.612536 -1.72975 0
M  V30 4005 H 377.361 3.15379 -2.39483 0
M  V30 4006 H 378.535 1.17278 -4.45626 0
M  V30 4007 H 376.85 1.21199 -3.98371 0
M  V30 4008 H 379.447 3.96493 -3.58744 0
M  V30 4009 H 379.79 3.70696 -1.89448 0
M  V30 4010 H 380.323 2.50239 -3.09233 0
M  V30 4011 H 377.062 2.42736 -6.089 0
M  V30 4012 H 376.582 3.57398 -4.81691 0
M  V30 4013 H 378.261 3.54755 -5.41071 0
M  V30 4014 N 378.394 1.34581 0.820102 0
M  V30 4015 C 379.622 1.3018 1.60813 0
M  V30 4016 C 380.037 -0.123551 1.88395 0
M  V30 4017 O 379.394 -1.07148 1.47735 0
M  V30 4018 C 379.445 2.09312 2.94739 0
M  V30 4019 O 379.166 3.46288 2.68358 0
M  V30 4020 C 380.667 2.1234 3.89136 0
M  V30 4021 H 377.887 0.447726 0.499782 0
M  V30 4022 H 380.431 1.77237 1.02017 0
M  V30 4023 H 378.586 1.65889 3.50085 0
M  V30 4024 H 379 3.87227 3.53774 0
M  V30 4025 H 380.474 2.72126 4.80262 0
M  V30 4026 H 380.951 1.11854 4.24718 0
M  V30 4027 H 381.557 2.55864 3.39726 0
M  V30 4028 N 379.872 -1.04064 1.18357 0
M  V30 4029 C 381.149 -1.74252 0.888581 0
M  V30 4030 C 381.529 -2.02138 -0.60856 0
M  V30 4031 O 380.877 -1.66656 -1.56327 0
M  V30 4032 C 381.087 -3.0277 1.73584 0
M  V30 4033 C 382.435 -3.76506 1.96286 0
M  V30 4034 O 383.459 -3.12668 1.70637 0
M  V30 4035 O 382.318 -4.91243 2.39464 0
M  V30 4036 H 379.412 -0.758271 0.330082 0
M  V30 4037 H 381.958 -1.1013 1.2911 0
M  V30 4038 H 380.73 -2.78299 2.75073 0
M  V30 4039 H 380.353 -3.74631 1.33183 0
M  V30 4040 N 381.35 -0.985608 -1.22978 0
M  V30 4041 C 382.627 -0.573599 -1.87001 0
M  V30 4042 C 383.007 0.949213 -1.88555 0
M  V30 4043 O 382.355 1.82811 -1.37086 0
M  V30 4044 C 382.565 -1.18564 -3.28243 0
M  V30 4045 C 383.913 -1.28163 -4.04796 0
M  V30 4046 O 384.937 -1.13949 -3.37482 0
M  V30 4047 O 383.796 -1.50832 -5.25273 0
M  V30 4048 H 380.89 -0.193868 -0.803955 0
M  V30 4049 H 383.436 -1.08102 -1.30813 0
M  V30 4050 H 382.208 -2.22758 -3.21706 0
M  V30 4051 H 381.831 -0.663363 -3.92027 0
M  V30 4052 N 382.828 1.3818 -0.7579 0
M  V30 4053 C 384.076 1.99624 -0.315361 0
M  V30 4054 C 384.397 1.60464 1.10799 0
M  V30 4055 O 383.667 0.863507 1.75842 0
M  V30 4056 H 382.247 0.73831 -0.113611 0
M  V30 4057 H 384.909 1.68878 -0.972952 0
M  V30 4058 H 384.005 3.09754 -0.381931 0
M  V30 4059 N 384.306 0.507319 1.49211 0
M  V30 4060 C 385.238 -0.304532 2.27168 0
M  V30 4061 C 386.251 -0.924956 1.33972 0
M  V30 4062 O 387.44 -0.807227 1.59205 0
M  V30 4063 C 384.54 -1.44431 3.06583 0
M  V30 4064 C 383.713 -0.930026 4.27398 0
M  V30 4065 C 382.772 -1.94817 4.88807 0
M  V30 4066 O 381.798 -1.51418 5.4869 0
M  V30 4067 N 383 -3.279 4.79022 0
M  V30 4068 H 385.765 0.36395 2.97482 0
M  V30 4069 H 383.326 0.340249 1.58284 0
M  V30 4070 H 385.318 -2.12311 3.44537 0
M  V30 4071 H 383.888 -2.01684 2.38835 0
M  V30 4072 H 383.108 -0.0759244 3.94127 0
M  V30 4073 H 384.396 -0.564932 5.05654 0
M  V30 4074 H 383.794 -3.65843 4.3148 0
M  V30 4075 H 382.351 -3.91476 5.21142 0
M  V30 4076 N 385.784 -1.5574 0.241426 0
M  V30 4077 C 387.033 -1.97986 -0.385295 0
M  V30 4078 C 387.346 -1.13267 -1.59468 0
M  V30 4079 O 388.552 -1.45501 -2.2922 0
M  V30 4080 C 387.008 -3.52275 -0.736884 0
M  V30 4081 C 386.616 -4.45726 0.450796 0
M  V30 4082 C 388.36 -4.03189 -1.3281 0
M  V30 4083 C 386.267 -5.91352 0.0756662 0
M  V30 4084 H 385.197 -0.739386 -0.147731 0
M  V30 4085 H 387.848 -1.80308 0.340779 0
M  V30 4086 H 386.23 -3.65628 -1.52094 0
M  V30 4087 H 387.404 -4.44131 1.22819 0
M  V30 4088 H 385.719 -4.05264 0.956573 0
M  V30 4089 H 388.316 -5.09505 -1.62201 0
M  V30 4090 H 388.659 -3.50212 -2.25071 0
M  V30 4091 H 389.192 -3.93141 -0.607069 0
M  V30 4092 H 385.931 -6.48354 0.965272 0
M  V30 4093 H 385.451 -5.96095 -0.665635 0
M  V30 4094 H 387.13 -6.46084 -0.344075 0
M  V30 4095 N 387.262 0.0317525 -1.57568 0
M  V30 4096 C 388.539 0.758366 -1.803 0
M  V30 4097 C 388.919 1.93718 -0.838845 0
M  V30 4098 O 388.267 2.28187 0.119571 0
M  V30 4099 C 388.477 1.19392 -3.27943 0
M  V30 4100 C 389.825 1.61094 -3.92854 0
M  V30 4101 O 390.849 1.28857 -3.32076 0
M  V30 4102 O 389.708 2.20918 -4.99858 0
M  V30 4103 H 386.802 0.366514 -0.741348 0
M  V30 4104 H 389.348 0.00873765 -1.69698 0
M  V30 4105 H 388.12 0.352275 -3.89711 0
M  V30 4106 H 387.743 2.00365 -3.43424 0
M  V30 4107 N 388.74 1.54641 0.303973 0
M  V30 4108 C 389.65 1.88439 1.39743 0
M  V30 4109 C 390.666 0.778239 1.55626 0
M  V30 4110 O 391.842 1.07442 1.70347 0
M  V30 4111 C 388.907 2.12212 2.74166 0
M  V30 4112 C 387.968 3.35936 2.67293 0
M  V30 4113 C 387.201 3.58566 3.95305 0
M  V30 4114 O 387.424 2.84263 4.9452 0
M  V30 4115 O 386.358 4.52078 3.97378 0
M  V30 4116 H 390.184 2.81458 1.14083 0
M  V30 4117 H 387.769 1.40793 0.499768 0
M  V30 4118 H 389.651 2.29067 3.53704 0
M  V30 4119 H 388.326 1.22379 2.99675 0
M  V30 4120 H 387.233 3.24448 1.86237 0
M  V30 4121 H 388.566 4.2589 2.46736 0
M  V30 4122 N 390.218 -0.567019 1.47046 0
M  V30 4123 C 391.446 -1.35027 1.56765 0
M  V30 4124 C 391.861 -1.8758 0.214316 0
M  V30 4125 O 391.218 -1.64471 -0.790919 0
M  V30 4126 C 391.269 -2.52698 2.58507 0
M  V30 4127 O 390.99 -2.0232 3.88585 0
M  V30 4128 C 392.491 -3.45043 2.78316 0
M  V30 4129 H 389.711 -0.41195 0.529658 0
M  V30 4130 H 392.255 -0.687832 1.92585 0
M  V30 4131 H 390.41 -3.149 2.25648 0
M  V30 4132 H 390.824 -2.79068 4.44096 0
M  V30 4133 H 392.298 -4.2405 3.53391 0
M  V30 4134 H 392.775 -3.97971 1.85784 0
M  V30 4135 H 393.381 -2.88665 3.12334 0
M  V30 4136 N 391.696 -1.35014 -0.812953 0
M  V30 4137 C 392.926 -1.30841 -1.59888 0
M  V30 4138 C 393.334 0.117576 -1.88834 0
M  V30 4139 O 392.677 1.07807 -1.48739 0
M  V30 4140 C 392.739 -2.0412 -2.95931 0
M  V30 4141 C 392.403 -3.53336 -2.89832 0
M  V30 4142 C 393.4 -4.48052 -2.63714 0
M  V30 4143 C 391.085 -3.95894 -3.0915 0
M  V30 4144 C 393.079 -5.833 -2.56982 0
M  V30 4145 C 390.766 -5.31239 -3.0204 0
M  V30 4146 C 391.764 -6.24754 -2.75991 0
M  V30 4147 O 391.452 -7.57617 -2.68833 0
M  V30 4148 H 391.184 -0.451215 -0.50337 0
M  V30 4149 H 393.738 -1.78354 -1.01877 0
M  V30 4150 H 391.968 -1.51235 -3.559 0
M  V30 4151 H 393.657 -1.93107 -3.57022 0
M  V30 4152 H 394.423 -4.16492 -2.48515 0
M  V30 4153 H 390.302 -3.23495 -3.28438 0
M  V30 4154 H 393.846 -6.56263 -2.36569 0
M  V30 4155 H 389.743 -5.62415 -3.16796 0
M  V30 4156 H 390.511 -7.67469 -2.84487 0
M  V30 4157 N 393.175 1.03435 -1.18907 0
M  V30 4158 C 394.452 1.73778 -0.89781 0
M  V30 4159 C 394.832 2.02458 0.597832 0
M  V30 4160 O 394.18 1.67482 1.55441 0
M  V30 4161 C 394.39 3.01845 -1.75187 0
M  V30 4162 C 395.738 3.7546 -1.9828 0
M  V30 4163 O 396.762 3.11759 -1.72293 0
M  V30 4164 O 395.621 4.89966 -2.42065 0
M  V30 4165 H 392.715 0.75651 -0.334098 0
M  V30 4166 H 395.261 1.09444 -1.29693 0
M  V30 4167 H 394.033 2.76836 -2.76545 0
M  V30 4168 H 393.656 3.73919 -1.35167 0
M  V30 4169 N 394.653 0.992116 1.22453 0
M  V30 4170 C 396.064 0.702776 1.72968 0
M  V30 4171 C 396.415 -0.780399 1.80012 0
M  V30 4172 O 395.54 -1.61007 1.44589 0
M  V30 4173 C 396.135 1.26903 3.14135 0
M  V30 4174 C 394.694 1.02909 3.62059 0
M  V30 4175 C 393.841 1.38969 2.39964 0
M  V30 4176 H 396.792 1.16457 1.07812 0
M  V30 4177 H 396.813 0.647223 3.74955 0
M  V30 4178 H 396.325 2.34851 3.08977 0
M  V30 4179 H 394.426 -0.0337979 3.72585 0
M  V30 4180 H 394.539 1.69191 4.48231 0
M  V30 4181 H 392.903 0.808279 2.41535 0
M  V30 4182 H 393.686 2.4792 2.37467 0
M  V30 4183 N 396.131 -1.37776 0.765217 0
M  V30 4184 C 397.078 -2.30342 0.145274 0
M  V30 4185 C 398.048 -1.5077 -0.696971 0
M  V30 4186 O 399.233 -1.79362 -0.650689 0
M  V30 4187 C 396.373 -3.37227 -0.732939 0
M  V30 4188 C 395.486 -4.31819 0.125199 0
M  V30 4189 C 394.621 -5.25777 -0.757107 0
M  V30 4190 C 393.66 -6.12012 0.103963 0
M  V30 4191 N 392.797 -6.98232 -0.735953 0
M  V30 4192 H 397.637 -2.8278 0.940195 0
M  V30 4193 H 395.174 -1.39211 0.475255 0
M  V30 4194 H 397.132 -3.97818 -1.25686 0
M  V30 4195 H 395.762 -2.86171 -1.49353 0
M  V30 4196 H 394.814 -3.7259 0.766865 0
M  V30 4197 H 396.126 -4.92509 0.789683 0
M  V30 4198 H 395.28 -5.91541 -1.34776 0
M  V30 4199 H 394.019 -4.65481 -1.45529 0
M  V30 4200 H 393.024 -5.45233 0.707197 0
M  V30 4201 H 394.249 -6.74379 0.799381 0
M  V30 4202 H 392.195 -6.40472 -1.41887 0
M  V30 4203 H 392.112 -7.55891 -0.128624 0
M  V30 4204 H 393.38 -7.68393 -1.31121 0
M  V30 4205 N 397.609 -0.515225 -1.4894 0
M  V30 4206 C 398.556 0.255567 -2.29381 0
M  V30 4207 C 399.526 0.947387 -1.36432 0
M  V30 4208 O 400.711 0.951288 -1.65394 0
M  V30 4209 C 397.851 1.30551 -3.19453 0
M  V30 4210 C 396.964 0.624029 -4.27469 0
M  V30 4211 C 396.099 1.65563 -5.0474 0
M  V30 4212 C 395.138 0.956802 -6.04576 0
M  V30 4213 N 394.275 1.93326 -6.74959 0
M  V30 4214 H 399.115 -0.436607 -2.94784 0
M  V30 4215 H 396.652 -0.227154 -1.45336 0
M  V30 4216 H 398.61 1.92639 -3.70062 0
M  V30 4217 H 397.24 1.96626 -2.56004 0
M  V30 4218 H 396.292 -0.110459 -3.8024 0
M  V30 4219 H 397.604 0.0746092 -4.98744 0
M  V30 4220 H 396.758 2.35119 -5.59289 0
M  V30 4221 H 395.497 2.23893 -4.3327 0
M  V30 4222 H 394.502 0.247097 -5.49244 0
M  V30 4223 H 395.727 0.379814 -6.78037 0
M  V30 4224 H 393.673 2.50591 -6.06251 0
M  V30 4225 H 393.59 1.43489 -7.42258 0
M  V30 4226 H 394.858 2.62126 -7.34105 0
M  V30 4227 N 399.087 1.5561 -0.249682 0
M  V30 4228 C 399.997 2.25143 0.659375 0
M  V30 4229 C 401.013 1.2685 1.19101 0
M  V30 4230 O 402.189 1.59732 1.22669 0
M  V30 4231 C 399.254 2.93945 1.8384 0
M  V30 4232 C 398.315 4.07655 1.34596 0
M  V30 4233 C 397.548 4.73167 2.46878 0
M  V30 4234 O 397.771 4.37768 3.65671 0
M  V30 4235 O 396.705 5.61623 2.16478 0
M  V30 4236 H 400.531 3.03545 0.0968698 0
M  V30 4237 H 398.116 1.49389 -0.018074 0
M  V30 4238 H 399.998 3.37271 2.52638 0
M  V30 4239 H 398.673 2.18481 2.38847 0
M  V30 4240 H 397.58 3.68839 0.625174 0
M  V30 4241 H 398.913 4.84946 0.841941 0
M  V30 4242 N 400.565 -0.0233959 1.57583 0
M  V30 4243 C 401.475 -1.03907 2.10334 0
M  V30 4244 C 402.491 -1.39257 1.04323 0
M  V30 4245 O 403.667 -1.48462 1.36091 0
M  V30 4246 C 400.732 -2.31938 2.57693 0
M  V30 4247 C 399.793 -2.03117 3.78209 0
M  V30 4248 C 399.026 -3.25043 4.233 0
M  V30 4249 O 399.249 -4.35916 3.67876 0
M  V30 4250 O 398.183 -3.10411 5.15683 0
M  V30 4251 H 402.009 -0.620748 2.97288 0
M  V30 4252 H 399.594 -0.240743 1.47448 0
M  V30 4253 H 401.476 -3.07196 2.88458 0
M  V30 4254 H 400.151 -2.73055 1.73847 0
M  V30 4255 H 399.058 -1.25408 3.52454 0
M  V30 4256 H 400.391 -1.66852 4.63056 0
M  V30 4257 N 402.043 -1.548 -0.295768 0
M  V30 4258 C 403.006 -1.85363 -1.34808 0
M  V30 4259 C 404.006 -0.726817 -1.43436 0
M  V30 4260 O 405.196 -0.995088 -1.42981 0
M  V30 4261 C 402.328 -2.03859 -2.73229 0
M  V30 4262 H 403.521 -2.7941 -1.08949 0
M  V30 4263 H 401.074 -1.46942 -0.532702 0
M  V30 4264 H 401.809 -1.12117 -3.04303 0
M  V30 4265 H 401.594 -2.8588 -2.68356 0
M  V30 4266 H 403.084 -2.28857 -3.49305 0
M  V30 4267 N 403.521 0.559213 -1.47345 0
M  V30 4268 C 404.749 1.34194 -1.57479 0
M  V30 4269 C 405.164 1.87463 -0.224261 0
M  V30 4270 O 404.521 1.64888 0.782185 0
M  V30 4271 C 404.572 2.51324 -2.59843 0
M  V30 4272 O 404.293 2.00256 -3.89653 0
M  V30 4273 C 405.794 3.43563 -2.80142 0
M  V30 4274 H 403.014 0.409136 -0.531835 0
M  V30 4275 H 405.558 0.677609 -1.92947 0
M  V30 4276 H 403.713 3.13699 -2.27314 0
M  V30 4277 H 404.127 2.76708 -4.4557 0
M  V30 4278 H 405.601 4.2217 -3.55635 0
M  V30 4279 H 406.078 3.9698 -1.87892 0
M  V30 4280 H 406.684 2.87005 -3.1386 0
M  V30 4281 N 404.999 1.35443 0.805782 0
M  V30 4282 C 405.962 1.28301 1.89925 0
M  V30 4283 C 406.962 0.194285 1.59622 0
M  V30 4284 O 408.152 0.448036 1.6834 0
M  V30 4285 C 405.284 0.984997 3.2636 0
M  V30 4286 H 406.477 2.2553 1.97677 0
M  V30 4287 H 404.03 1.19979 1.00173 0
M  V30 4288 H 404.765 0.016603 3.24296 0
M  V30 4289 H 404.55 1.77269 3.4974 0
M  V30 4290 H 406.04 0.960651 4.064 0
M  V30 4291 N 406.477 -1.02803 1.19454 0
M  V30 4292 C 407.702 -1.80378 1.02364 0
M  V30 4293 C 408.127 -1.83282 -0.423007 0
M  V30 4294 O 407.485 -1.25945 -1.30413 0
M  V30 4295 C 407.533 -3.23248 1.59821 0
M  V30 4296 O 406.637 -4.04 0.828105 0
M  V30 4297 H 405.978 -0.556799 0.361761 0
M  V30 4298 H 408.508 -1.29385 1.58495 0
M  V30 4299 H 408.518 -3.73994 1.63073 0
M  V30 4300 H 407.193 -3.2045 2.65113 0
M  V30 4301 H 405.77 -3.62635 0.86891 0
M  V30 4302 N 407.956 -0.998596 -1.21925 0
M  V30 4303 C 409.184 -0.696286 -1.94832 0
M  V30 4304 C 409.599 0.740032 -1.73692 0
M  V30 4305 O 408.956 1.5 -1.03953 0
M  V30 4306 C 409.007 -0.999833 -3.47398 0
M  V30 4307 O 408.728 -2.37972 -3.67833 0
M  V30 4308 C 410.229 -0.716025 -4.37479 0
M  V30 4309 H 407.449 -0.257111 -0.619786 0
M  V30 4310 H 409.993 -1.33491 -1.54921 0
M  V30 4311 H 408.148 -0.406918 -3.85257 0
M  V30 4312 H 408.562 -2.48338 -4.61983 0
M  V30 4313 H 410.036 -0.978642 -5.43256 0
M  V30 4314 H 410.513 0.349968 -4.37803 0
M  V30 4315 H 411.119 -1.29025 -4.05256 0
M  V30 4316 N 409.434 1.37368 -0.772513 0
M  V30 4317 C 410.659 2.0447 -0.347386 0
M  V30 4318 C 411.084 1.57882 1.0225 0
M  V30 4319 O 410.442 0.73941 1.65537 0
M  V30 4320 C 410.49 3.58369 -0.400479 0
M  V30 4321 O 409.594 4.0803 0.598789 0
M  V30 4322 H 408.935 0.646773 -0.15027 0
M  V30 4323 H 411.465 1.75667 -1.04892 0
M  V30 4324 H 411.475 4.07183 -0.258045 0
M  V30 4325 H 410.15 3.91633 -1.39986 0
M  V30 4326 H 408.727 3.70534 0.419411 0
M  V30 4327 N 410.912 0.523116 1.48665 0
M  V30 4328 C 412.16 -0.0134497 2.02096 0
M  V30 4329 C 412.481 -1.35418 1.40311 0
M  V30 4330 O 411.751 -1.87543 0.566074 0
M  V30 4331 H 410.331 -0.00795915 0.746958 0
M  V30 4332 H 412.993 0.685388 1.82451 0
M  V30 4333 H 412.089 -0.126849 3.11842 0
M  V30 4334 N 412.39 -1.55475 0.257931 0
M  V30 4335 C 413.353 -2.20551 -0.623706 0
M  V30 4336 C 414.353 -1.17809 -1.09443 0
M  V30 4337 O 415.543 -1.42823 -0.997362 0
M  V30 4338 C 412.675 -2.85784 -1.8585 0
M  V30 4339 H 413.868 -2.99848 -0.0557743 0
M  V30 4340 H 411.421 -1.56298 0.0084422 0
M  V30 4341 H 412.156 -2.10453 -2.46739 0
M  V30 4342 H 411.941 -3.61057 -1.52907 0
M  V30 4343 H 413.431 -3.35553 -2.48584 0
M  V30 4344 N 413.868 0.0150385 -1.57593 0
M  V30 4345 C 414.831 0.995996 -2.06428 0
M  V30 4346 C 415.831 1.2818 -0.970903 0
M  V30 4347 O 417.021 1.22949 -1.23406 0
M  V30 4348 C 414.153 2.32506 -2.49307 0
M  V30 4349 H 415.346 0.573873 -2.94358 0
M  V30 4350 H 412.899 0.262186 -1.54085 0
M  V30 4351 H 413.634 2.79438 -1.64575 0
M  V30 4352 H 413.419 2.13087 -3.29145 0
M  V30 4353 H 414.909 3.02906 -2.87468 0
M  V30 4354 N 415.346 1.54954 0.287554 0
M  V30 4355 C 416.294 1.87606 1.37502 0
M  V30 4356 C 417.288 0.751001 1.51843 0
M  V30 4357 O 418.494 0.935169 1.53801 0
M  V30 4358 H 414.869 0.595231 0.459569 0
M  V30 4359 H 416.84 2.78477 1.07206 0
M  V30 4360 C 415.589 2.15183 2.73115 0
M  V30 4361 H 414.912 3.01234 2.62866 0
M  V30 4362 H 416.352 2.4196 3.48183 0
M  V30 4363 C 414.811 0.954686 3.2309 0
M  V30 4364 O 415.341 0.181949 4.01288 0
M  V30 4365 N 413.547 0.756368 2.80584 0
M  V30 4366 H 413.094 1.38643 2.17108 0
M  V30 4367 H 413.052 -0.0430391 3.14371 0
M  V30 4368 N 416.824 -0.551391 1.4764 0
M  V30 4369 C 417.756 -1.67333 1.56628 0
M  V30 4370 C 418.769 -1.56398 0.452045 0
M  V30 4371 O 419.958 -1.6325 0.721926 0
M  V30 4372 C 417.058 -3.05841 1.45994 0
M  V30 4373 C 416.231 -3.42472 2.72088 0
M  V30 4374 C 415.29 -4.60168 2.55209 0
M  V30 4375 O 414.316 -4.64458 3.2904 0
M  V30 4376 N 415.518 -5.57024 1.63416 0
M  V30 4377 H 418.283 -1.60066 2.53375 0
M  V30 4378 H 415.844 -0.738169 1.44093 0
M  V30 4379 H 417.836 -3.8242 1.32428 0
M  V30 4380 H 416.406 -3.07302 0.573071 0
M  V30 4381 H 415.626 -2.55284 3.00373 0
M  V30 4382 H 416.914 -3.63723 3.55785 0
M  V30 4383 H 416.312 -5.56319 1.02594 0
M  V30 4384 H 414.869 -6.32906 1.558 0
M  V30 4385 N 418.302 -1.35869 -0.798587 0
M  V30 4386 C 419.53 -1.32722 -1.58722 0
M  V30 4387 C 419.945 0.0935631 -1.88568 0
M  V30 4388 O 419.302 1.04784 -1.49421 0
M  V30 4389 C 419.353 -2.13974 -2.91371 0
M  V30 4390 O 419.074 -3.50514 -2.62815 0
M  V30 4391 C 420.575 -2.18504 -3.85708 0
M  V30 4392 H 417.795 -0.45562 -0.492596 0
M  V30 4393 H 420.339 -1.78837 -0.991843 0
M  V30 4394 H 418.494 -1.71438 -3.47402 0
M  V30 4395 H 418.908 -3.92806 -3.47568 0
M  V30 4396 H 420.382 -2.79732 -4.75872 0
M  V30 4397 H 420.859 -1.18597 -4.22885 0
M  V30 4398 H 421.465 -2.61236 -3.35612 0
M  V30 4399 N 419.78 1.02168 -1.19998 0
M  V30 4400 C 421.008 1.79296 -1.03249 0
M  V30 4401 C 421.423 1.84103 0.418502 0
M  V30 4402 O 420.78 1.29031 1.29063 0
M  V30 4403 C 420.831 3.24007 -1.60319 0
M  V30 4404 O 420.552 3.19512 -2.99739 0
M  V30 4405 C 422.053 4.17704 -1.48453 0
M  V30 4406 H 419.273 0.564016 -0.363493 0
M  V30 4407 H 421.817 1.28639 -1.58973 0
M  V30 4408 H 419.972 3.7183 -1.08727 0
M  V30 4409 H 420.386 4.10306 -3.26725 0
M  V30 4410 H 421.86 5.17104 -1.93153 0
M  V30 4411 H 422.337 4.37029 -0.436193 0
M  V30 4412 H 422.943 3.7576 -1.99211 0
M  V30 4413 N 421.258 1.00505 1.21394 0
M  V30 4414 C 422.506 0.686415 1.90086 0
M  V30 4415 C 422.827 -0.785264 1.7849 0
M  V30 4416 O 422.097 -1.56387 1.17983 0
M  V30 4417 H 420.677 0.2509 0.703604 0
M  V30 4418 H 423.339 1.27417 1.47482 0
M  V30 4419 H 422.435 0.959621 2.96981 0
M  V30 4420 N 422.737 -1.36956 0.779787 0
M  V30 4421 C 423.965 -2.03755 0.359398 0
M  V30 4422 C 424.38 -1.58807 -1.02106 0
M  V30 4423 O 423.737 -0.773024 -1.6532 0
M  V30 4424 C 423.788 -3.59251 0.402568 0
M  V30 4425 O 423.509 -4.02557 1.72858 0
M  V30 4426 C 425.01 -4.43291 -0.0284068 0
M  V30 4427 H 422.23 -0.654148 0.149437 0
M  V30 4428 H 424.774 -1.75128 1.05595 0
M  V30 4429 H 422.929 -3.86621 -0.245478 0
M  V30 4430 H 423.343 -4.97111 1.67275 0
M  V30 4431 H 424.817 -5.51975 0.0529466 0
M  V30 4432 H 425.294 -4.25719 -1.07982 0
M  V30 4433 H 425.9 -4.21163 0.591758 0
M  V30 4434 N 424.215 -0.530993 -1.48385 0
M  V30 4435 C 425.492 0.0671788 -1.95485 0
M  V30 4436 C 425.872 1.51191 -1.47324 0
M  V30 4437 O 425.22 2.17507 -0.700202 0
M  V30 4438 C 425.43 -0.0511206 -3.48963 0
M  V30 4439 C 426.778 0.107632 -4.24464 0
M  V30 4440 O 427.802 0.0226248 -3.56193 0
M  V30 4441 O 426.661 0.285972 -5.45751 0
M  V30 4442 H 423.755 0.0787365 -0.823243 0
M  V30 4443 H 426.301 -0.595662 -1.58902 0
M  V30 4444 H 425.073 -1.05747 -3.7674 0
M  V30 4445 H 424.696 0.650525 -3.92242 0
M  V30 4446 N 425.693 1.55336 -0.266172 0
M  V30 4447 C 426.656 2.20878 0.612001 0
M  V30 4448 C 427.656 1.18388 1.08816 0
M  V30 4449 O 428.846 1.4335 0.989774 0
M  V30 4450 C 425.978 2.86765 1.84332 0
M  V30 4451 H 427.171 2.99873 0.0398718 0
M  V30 4452 H 424.724 1.56291 -0.0167309 0
M  V30 4453 H 425.459 2.11759 2.45619 0
M  V30 4454 H 425.244 3.61862 1.5099 0
M  V30 4455 H 426.734 3.36867 2.46801 0
M  V30 4456 N 427.171 -0.0066808 1.57599 0
M  V30 4457 C 428.448 -0.729586 1.81484 0
M  V30 4458 C 428.828 -1.92359 0.869558 0
M  V30 4459 O 428.176 -2.28348 -0.0832533 0
M  V30 4460 C 428.386 -1.1416 3.29801 0
M  V30 4461 C 429.734 -1.54823 3.95367 0
M  V30 4462 O 430.758 -1.23558 3.34084 0
M  V30 4463 O 429.617 -2.12937 5.03309 0
M  V30 4464 H 426.711 -0.354674 0.747085 0
M  V30 4465 H 429.257 0.0182609 1.6969 0
M  V30 4466 H 428.029 -0.290231 3.90222 0
M  V30 4467 H 427.652 -1.94876 3.46568 0
M  V30 4468 N 428.649 -1.55105 -0.279332 0
M  V30 4469 C 429.596 -1.8755 -1.34513 0
M  V30 4470 C 430.566 -0.726384 -1.49375 0
M  V30 4471 O 431.751 -0.977063 -1.63884 0
M  V30 4472 C 428.891 -2.14738 -2.70151 0
M  V30 4473 C 428.004 -3.42285 -2.63562 0
M  V30 4474 C 427.139 -3.59206 -3.91337 0
M  V30 4475 C 426.178 -4.80467 -3.79233 0
M  V30 4476 N 425.315 -4.94079 -4.98829 0
M  V30 4477 H 430.155 -2.78456 -1.06143 0
M  V30 4478 H 427.692 -1.37867 -0.512936 0
M  V30 4479 H 429.65 -2.28501 -3.49061 0
M  V30 4480 H 428.28 -1.27075 -2.96735 0
M  V30 4481 H 427.332 -3.37029 -1.76397 0
M  V30 4482 H 428.644 -4.31328 -2.50515 0
M  V30 4483 H 427.798 -3.72751 -4.78687 0
M  V30 4484 H 426.537 -2.68337 -4.07243 0
M  V30 4485 H 425.542 -4.66932 -2.90266 0
M  V30 4486 H 426.767 -5.72765 -3.64852 0
M  V30 4487 H 424.713 -4.06139 -5.15158 0
M  V30 4488 H 424.63 -5.77156 -4.8829 0
M  V30 4489 H 425.898 -5.12003 -5.8777 0
M  V30 4490 N 430.127 0.543554 -1.4793 0
M  V30 4491 C 431.355 1.32516 -1.58894 0
M  V30 4492 C 431.77 1.87215 -0.244131 0
M  V30 4493 O 431.127 1.65709 0.764652 0
M  V30 4494 C 431.178 2.48554 -2.62494 0
M  V30 4495 O 430.899 1.96112 -3.91755 0
M  V30 4496 C 432.4 3.40572 -2.8377 0
M  V30 4497 H 429.62 0.403472 -0.536145 0
M  V30 4498 H 432.164 0.657106 -1.93655 0
M  V30 4499 H 430.319 3.1127 -2.30629 0
M  V30 4500 H 430.733 2.71967 -4.4848 0
M  V30 4501 H 432.207 4.18375 -3.60093 0
M  V30 4502 H 432.684 3.94965 -1.92092 0
M  V30 4503 H 433.29 2.8366 -3.16887 0
M  V30 4504 N 431.605 1.3629 0.791371 0
M  V30 4505 C 432.882 1.20962 1.53712 0
M  V30 4506 C 433.262 -0.205021 2.10102 0
M  V30 4507 O 432.61 -1.21042 1.93807 0
M  V30 4508 C 432.82 2.29002 2.63361 0
M  V30 4509 C 434.168 2.65572 3.31295 0
M  V30 4510 O 435.192 2.2803 2.73643 0
M  V30 4511 O 434.051 3.3018 4.35481 0
M  V30 4512 H 431.145 0.47086 0.679867 0
M  V30 4513 H 433.691 1.48016 0.830021 0
M  V30 4514 H 432.463 3.2382 2.19674 0
M  V30 4515 H 432.086 2.03303 3.41692 0
M  V30 4516 N 433.083 -1.0153 1.20538 0
M  V30 4517 C 434.03 -2.10098 0.955383 0
M  V30 4518 C 435 -1.65702 -0.114878 0
M  V30 4519 O 436.185 -1.90776 0.0301118 0
M  V30 4520 C 433.325 -3.41236 0.514969 0
M  V30 4521 C 432.438 -3.99102 1.65353 0
M  V30 4522 C 431.573 -5.18306 1.16329 0
M  V30 4523 C 430.612 -5.68258 2.27485 0
M  V30 4524 N 429.749 -6.78722 1.7967 0
M  V30 4525 H 434.589 -2.30818 1.88486 0
M  V30 4526 H 432.126 -1.13189 0.939499 0
M  V30 4527 H 434.084 -4.16504 0.240935 0
M  V30 4528 H 432.714 -3.20585 -0.377512 0
M  V30 4529 H 431.766 -3.20918 2.04245 0
M  V30 4530 H 433.078 -4.32177 2.49047 0
M  V30 4531 H 432.232 -6.00782 0.845302 0
M  V30 4532 H 430.971 -4.86799 0.296254 0
M  V30 4533 H 429.976 -4.84385 2.60099 0
M  V30 4534 H 431.201 -6.01798 3.14667 0
M  V30 4535 H 429.147 -6.49042 0.95295 0
M  V30 4536 H 429.064 -7.10996 2.56944 0
M  V30 4537 H 430.332 -7.64759 1.50875 0
M  V30 4538 N 434.561 -1.01147 -1.20859 0
M  V30 4539 C 435.509 -0.57059 -2.25493 0
M  V30 4540 C 436.503 0.388109 -1.64894 0
M  V30 4541 O 437.709 0.258592 -1.78133 0
M  V30 4542 H 434.084 -0.166191 -0.733406 0
M  V30 4543 H 436.055 -1.46411 -2.60012 0
M  V30 4544 C 434.804 0.0805241 -3.47607 0
M  V30 4545 H 434.127 -0.648156 -3.94511 0
M  V30 4546 H 435.567 0.352197 -4.22535 0
M  V30 4547 C 434.026 1.32175 -3.09889 0
M  V30 4548 O 434.556 2.41553 -3.20959 0
M  V30 4549 N 432.762 1.20392 -2.64488 0
M  V30 4550 H 432.309 0.313905 -2.5568 0
M  V30 4551 H 432.267 2.03541 -2.39621 0
M  V30 4552 N 436.039 1.36541 -0.78704 0
M  V30 4553 C 437.316 1.9355 -0.282424 0
M  V30 4554 C 437.696 1.71919 1.22503 0
M  V30 4555 O 437.044 1.07677 2.01539 0
M  V30 4556 C 437.254 3.4246 -0.672462 0
M  V30 4557 C 438.602 4.19582 -0.650863 0
M  V30 4558 O 439.626 3.50889 -0.612789 0
M  V30 4559 O 438.485 5.42106 -0.691623 0
M  V30 4560 H 435.579 0.824091 -0.0693 0
M  V30 4561 H 438.125 1.45736 -0.869423 0
M  V30 4562 H 436.897 3.51851 -1.71221 0
M  V30 4563 H 436.52 3.97556 -0.0592211 0
M  V30 4564 N 437.518 0.538854 1.48102 0
M  V30 4565 C 438.465 -0.219042 2.29758 0
M  V30 4566 C 439.435 -0.925562 1.37922 0
M  V30 4567 O 440.62 -0.924855 1.66886 0
M  V30 4568 C 437.76 -1.25452 3.2149 0
M  V30 4569 C 436.873 -0.555943 4.28408 0
M  V30 4570 C 436.008 -1.57512 5.0731 0
M  V30 4571 C 435.047 -0.860498 6.06021 0
M  V30 4572 N 434.184 -1.82564 6.77949 0
M  V30 4573 H 439.024 0.483449 2.94052 0
M  V30 4574 H 436.561 0.250247 1.44956 0
M  V30 4575 H 438.519 -1.86727 3.7308 0
M  V30 4576 H 437.149 -1.92528 2.591 0
M  V30 4577 H 436.201 0.170938 3.80016 0
M  V30 4578 H 437.513 0.00474616 4.988 0
M  V30 4579 H 436.667 -2.26191 5.62959 0
M  V30 4580 H 435.406 -2.16972 4.36778 0
M  V30 4581 H 434.411 -0.159686 5.49568 0
M  V30 4582 H 435.636 -0.271897 6.78555 0
M  V30 4583 H 433.582 -2.40915 6.10161 0
M  V30 4584 H 433.499 -1.31662 7.44447 0
M  V30 4585 H 434.767 -2.50414 7.38182 0
M  V30 4586 N 438.996 -1.55193 0.274407 0
M  V30 4587 C 439.944 -2.23924 -0.629362 0
M  V30 4588 C 440.938 -1.23602 -1.1584 0
M  V30 4589 O 442.144 -1.41535 -1.11211 0
M  V30 4590 H 438.519 -0.718637 -0.221507 0
M  V30 4591 H 440.49 -2.98388 -0.0268322 0
M  V30 4592 C 439.239 -2.97329 -1.80252 0
M  V30 4593 H 438.562 -3.74313 -1.40462 0
M  V30 4594 H 440.002 -3.48743 -2.41152 0
M  V30 4595 C 438.461 -2.0276 -2.69054 0
M  V30 4596 O 438.991 -1.57836 -3.69392 0
M  V30 4597 N 437.197 -1.69275 -2.36208 0
M  V30 4598 H 436.744 -2.06004 -1.54661 0
M  V30 4599 H 436.702 -1.06271 -2.95895 0
M  V30 4600 N 440.474 -0.00167713 -1.576 0
M  V30 4601 C 441.422 1.0074 -2.09652 0
M  V30 4602 C 442.416 1.35483 -1.01689 0
M  V30 4603 O 443.622 1.34028 -1.20152 0
M  V30 4604 H 439.997 0.342537 -0.669457 0
M  V30 4605 H 441.968 0.542841 -2.93421 0
M  V30 4606 C 440.717 2.2899 -2.61647 0
M  V30 4607 H 440.04 2.03124 -3.44355 0
M  V30 4608 H 441.48 2.9787 -3.01744 0
M  V30 4609 C 439.939 3.00085 -1.53136 0
M  V30 4610 O 440.469 3.91135 -0.91524 0
M  V30 4611 N 438.675 2.6194 -1.25841 0
M  V30 4612 H 438.222 1.8798 -1.76129 0
M  V30 4613 H 438.18 3.09822 -0.534576 0
M  V30 4614 N 441.952 1.55251 0.271103 0
M  V30 4615 C 442.899 1.88261 1.33516 0
M  V30 4616 C 443.869 0.734296 1.48988 0
M  V30 4617 O 445.054 0.985741 1.63364 0
M  V30 4618 C 442.194 2.16168 2.69008 0
M  V30 4619 C 441.307 3.43678 2.61743 0
M  V30 4620 C 440.442 3.61276 3.89427 0
M  V30 4621 C 439.481 4.82472 3.7668 0
M  V30 4622 N 438.618 4.96717 4.96202 0
M  V30 4623 H 443.458 2.79015 1.04665 0
M  V30 4624 H 440.995 1.38137 0.505618 0
M  V30 4625 H 442.953 2.30349 3.47844 0
M  V30 4626 H 441.583 1.28646 2.96057 0
M  V30 4627 H 440.635 3.37959 1.74607 0
M  V30 4628 H 441.947 4.3265 2.48224 0
M  V30 4629 H 441.101 3.75284 4.76704 0
M  V30 4630 H 439.84 2.70492 4.05814 0
M  V30 4631 H 438.845 4.68465 2.87786 0
M  V30 4632 H 440.07 5.74692 3.61809 0
M  V30 4633 H 438.016 4.08865 5.12997 0
M  V30 4634 H 437.933 5.79738 4.85222 0
M  V30 4635 H 439.201 5.15113 5.85046 0
M  V30 4636 N 443.43 -0.535701 1.48216 0
M  V30 4637 C 444.393 -1.623 1.61838 0
M  V30 4638 C 445.393 -1.53087 0.492024 0
M  V30 4639 O 446.583 -1.5686 0.757668 0
M  V30 4640 C 443.715 -3.01907 1.58319 0
M  V30 4641 H 444.908 -1.51564 2.58783 0
M  V30 4642 H 442.461 -0.757317 1.36727 0
M  V30 4643 H 443.196 -3.18155 0.628299 0
M  V30 4644 H 442.981 -3.10003 2.40085 0
M  V30 4645 H 444.471 -3.80969 1.71033 0
M  V30 4646 N 444.908 -1.36708 -0.784132 0
M  V30 4647 C 446.185 -1.21776 -1.53069 0
M  V30 4648 C 446.565 0.193876 -2.10208 0
M  V30 4649 O 445.913 1.20012 -1.94446 0
M  V30 4650 C 446.123 -2.30395 -2.62143 0
M  V30 4651 C 447.471 -2.67325 -3.29882 0
M  V30 4652 O 448.495 -2.29478 -2.7243 0
M  V30 4653 O 447.354 -3.32485 -4.33724 0
M  V30 4654 H 444.448 -0.474459 -0.677361 0
M  V30 4655 H 446.994 -1.48454 -0.82216 0
M  V30 4656 H 445.766 -3.2498 -2.17953 0
M  V30 4657 H 445.389 -2.05112 -3.40609 0
M  V30 4658 N 446.386 1.0089 -1.21074 0
M  V30 4659 C 447.333 2.09588 -0.966512 0
M  V30 4660 C 448.303 1.65761 0.106089 0
M  V30 4661 O 449.488 1.90758 -0.0402287 0
M  V30 4662 C 446.628 3.40958 -0.533058 0
M  V30 4663 C 445.741 3.9822 -1.67467 0
M  V30 4664 C 444.876 5.17682 -1.19076 0
M  V30 4665 C 443.915 5.67043 -2.30496 0
M  V30 4666 N 443.052 6.77759 -1.83267 0
M  V30 4667 H 447.892 2.29815 -1.89708 0
M  V30 4668 H 445.429 1.12689 -0.945489 0
M  V30 4669 H 447.387 4.1637 -0.263019 0
M  V30 4670 H 446.017 3.20781 0.360505 0
M  V30 4671 H 445.069 3.1983 -2.05944 0
M  V30 4672 H 446.381 4.3085 -2.51336 0
M  V30 4673 H 445.535 6.00326 -0.877151 0
M  V30 4674 H 444.274 4.86635 -0.322066 0
M  V30 4675 H 443.279 4.82999 -2.62664 0
M  V30 4676 H 444.504 6.00121 -3.17855 0
M  V30 4677 H 442.45 6.48527 -0.987356 0
M  V30 4678 H 442.367 7.09624 -2.60711 0
M  V30 4679 H 443.635 7.63949 -1.54928 0
M  V30 4680 N 447.864 1.01787 1.20321 0
M  V30 4681 C 448.812 0.58254 2.25187 0
M  V30 4682 C 449.806 -0.379359 1.65098 0
M  V30 4683 O 451.012 -0.249142 1.78267 0
M  V30 4684 H 447.387 0.170078 0.732514 0
M  V30 4685 H 449.358 1.47788 2.59232 0
M  V30 4686 C 448.107 -0.0620885 3.47645 0
M  V30 4687 H 447.43 0.669069 3.94162 0
M  V30 4688 H 448.87 -0.329784 4.22716 0
M  V30 4689 C 447.329 -1.3053 3.10586 0
M  V30 4690 O 447.859 -2.39848 3.22236 0
M  V30 4691 N 446.065 -1.18988 2.65123 0
M  V30 4692 H 445.612 -0.300341 2.55843 0
M  V30 4693 H 445.57 -2.02267 2.40698 0
M  V30 4694 N 449.342 -1.36122 0.79427 0
M  V30 4695 C 450.252 -2.33769 0.197296 0
M  V30 4696 C 451.268 -1.61276 -0.653153 0
M  V30 4697 O 452.444 -1.9323 -0.5678 0
M  V30 4698 C 449.509 -3.40474 -0.654098 0
M  V30 4699 C 448.57 -4.28759 0.215411 0
M  V30 4700 C 447.803 -5.30368 -0.595443 0
M  V30 4701 O 448.026 -5.40211 -1.83107 0
M  V30 4702 O 446.96 -6.019 0.00721351 0
M  V30 4703 H 450.786 -2.86597 1.00478 0
M  V30 4704 H 448.371 -1.38676 0.555818 0
M  V30 4705 H 450.253 -4.05703 -1.13944 0
M  V30 4706 H 448.928 -2.89937 -1.43938 0
M  V30 4707 H 447.835 -3.66554 0.747615 0
M  V30 4708 H 449.168 -4.82661 0.964332 0
M  V30 4709 N 450.82 -0.546701 -1.47814 0
M  V30 4710 C 451.767 0.206854 -2.29871 0
M  V30 4711 C 452.737 0.918235 -1.38411 0
M  V30 4712 O 453.922 0.915991 -1.67375 0
M  V30 4713 C 451.062 1.23746 -3.22151 0
M  V30 4714 C 450.175 0.533216 -4.28697 0
M  V30 4715 C 449.31 1.5482 -5.08138 0
M  V30 4716 C 448.349 0.828347 -6.06469 0
M  V30 4717 N 447.486 1.78966 -6.78908 0
M  V30 4718 H 452.326 -0.499037 -2.93792 0
M  V30 4719 H 449.863 -0.25793 -1.44821 0
M  V30 4720 H 451.821 1.84746 -3.74065 0
M  V30 4721 H 450.451 1.91151 -2.60117 0
M  V30 4722 H 449.503 -0.191089 -3.7992 0
M  V30 4723 H 450.815 -0.0311987 -4.9879 0
M  V30 4724 H 449.969 2.23202 -5.6415 0
M  V30 4725 H 448.708 2.14652 -4.37922 0
M  V30 4726 H 447.713 0.130539 -5.49645 0
M  V30 4727 H 448.938 0.235907 -6.7869 0
M  V30 4728 H 446.884 2.37675 -6.1143 0
M  V30 4729 H 446.801 1.27712 -7.45135 0
M  V30 4730 H 448.069 2.46496 -7.395 0
M  V30 4731 N 452.299 1.55045 -0.282633 0
M  V30 4732 C 453.547 1.99365 0.331334 0
M  V30 4733 C 453.868 1.1725 1.55812 0
M  V30 4734 O 453.138 0.263871 1.94115 0
M  V30 4735 H 451.718 0.736397 0.125414 0
M  V30 4736 H 454.38 1.90964 -0.389711 0
M  V30 4737 H 453.476 3.0596 0.616036 0
M  V30 4738 N 453.777 0.010035 1.57597 0
M  V30 4739 C 455.054 -0.710296 1.82248 0
M  V30 4740 C 455.434 -1.91426 0.889911 0
M  V30 4741 O 454.782 -2.28424 -0.0590292 0
M  V30 4742 C 454.992 -1.10655 3.30993 0
M  V30 4743 C 456.34 -1.50621 3.96987 0
M  V30 4744 O 457.364 -1.20007 3.35375 0
M  V30 4745 O 456.223 -2.07587 5.05539 0
M  V30 4746 H 453.317 -0.34673 0.750804 0
M  V30 4747 H 455.863 0.0362578 1.69661 0
M  V30 4748 H 454.635 -0.248826 3.90508 0
M  V30 4749 H 454.258 -1.91189 3.48615 0
M  V30 4750 N 455.255 -1.55392 -0.262866 0
M  V30 4751 C 456.48 -1.80847 -1.01533 0
M  V30 4752 C 456.905 -0.584946 -1.78774 0
M  V30 4753 O 456.263 0.465701 -1.75217 0
M  V30 4754 C 456.311 -3.03866 -1.94159 0
M  V30 4755 O 455.415 -2.79662 -3.03089 0
M  V30 4756 H 454.756 -0.597441 -0.289759 0
M  V30 4757 H 457.286 -2.02553 -0.288698 0
M  V30 4758 H 457.296 -3.32872 -2.35924 0
M  V30 4759 H 455.971 -3.92564 -1.37354 0
M  V30 4760 H 454.548 -2.61781 -2.65566 0
M  V30 4761 N 456.733 0.527833 -1.48498 0
M  V30 4762 C 457.958 1.313 -1.60546 0
M  V30 4763 C 458.383 1.86199 -0.26672 0
M  V30 4764 O 457.741 1.64513 0.761918 0
M  V30 4765 C 457.789 2.43818 -2.65678 0
M  V30 4766 O 456.893 3.46916 -2.22987 0
M  V30 4767 H 456.234 0.388784 -0.538277 0
M  V30 4768 H 458.764 0.634896 -1.945 0
M  V30 4769 H 458.774 2.89973 -2.87018 0
M  V30 4770 H 457.449 2.03222 -3.62869 0
M  V30 4771 H 456.026 3.06864 -2.11869 0
M  V30 4772 N 458.211 1.37122 0.776871 0
M  V30 4773 C 459.159 1.32549 1.91138 0
M  V30 4774 C 460.153 0.215119 1.68029 0
M  V30 4775 O 461.359 0.382852 1.75881 0
M  V30 4776 H 457.734 0.412952 0.62847 0
M  V30 4777 H 459.705 2.28332 1.92112 0
M  V30 4778 C 458.454 1.14422 3.28333 0
M  V30 4779 H 457.777 1.99115 3.46689 0
M  V30 4780 H 459.217 1.15272 4.0803 0
M  V30 4781 C 457.676 -0.150434 3.36564 0
M  V30 4782 O 458.206 -1.13584 3.85307 0
M  V30 4783 N 456.412 -0.19939 2.89915 0
M  V30 4784 H 455.959 0.603142 2.5044 0
M  V30 4785 H 455.917 -1.06526 2.95803 0
M  V30 4786 N 459.689 -1.00246 1.21608 0
M  V30 4787 C 460.652 -2.07233 0.979133 0
M  V30 4788 C 461.652 -1.6072 -0.0508219 0
M  V30 4789 O 462.842 -1.73196 0.186712 0
M  V30 4790 C 459.974 -3.37546 0.477016 0
M  V30 4791 H 461.167 -2.29687 1.92831 0
M  V30 4792 H 458.72 -1.17261 1.03342 0
M  V30 4793 H 459.455 -3.20773 -0.476966 0
M  V30 4794 H 459.24 -3.72638 1.21997 0
M  V30 4795 H 460.73 -4.16285 0.331181 0
M  V30 4796 N 461.167 -1.02423 -1.1978 0
M  V30 4797 C 462.115 -0.594474 -2.24875 0
M  V30 4798 C 463.109 0.370598 -1.65296 0
M  V30 4799 O 464.315 0.239684 -1.78397 0
M  V30 4800 H 460.69 -0.173961 -0.731602 0
M  V30 4801 H 462.661 -1.4916 -2.58445 0
M  V30 4802 C 461.41 0.0436512 -3.47673 0
M  V30 4803 H 460.733 -0.689963 -3.93801 0
M  V30 4804 H 462.173 0.307362 -4.22884 0
M  V30 4805 C 460.632 1.28881 -3.11274 0
M  V30 4806 O 461.162 2.38135 -3.23503 0
M  V30 4807 N 459.368 1.1758 -2.6575 0
M  V30 4808 H 458.915 0.286769 -2.55999 0
M  V30 4809 H 458.873 2.00988 -2.41767 0
M  V30 4810 N 462.645 1.35699 -0.801477 0
M  V30 4811 C 463.593 2.3177 -0.196317 0
M  V30 4812 C 464.587 1.56388 0.651081 0
M  V30 4813 O 465.793 1.71557 0.544815 0
M  V30 4814 H 462.168 0.750669 -0.0447189 0
M  V30 4815 H 464.139 2.8036 -1.02181 0
M  V30 4816 C 462.888 3.41671 0.644702 0
M  V30 4817 H 462.211 3.998 0.0019921 0
M  V30 4818 H 463.651 4.11184 1.0346 0
M  V30 4819 C 462.11 2.84271 1.80808 0
M  V30 4820 O 462.64 2.77408 2.9053 0
M  V30 4821 N 460.846 2.41391 1.61799 0
M  V30 4822 H 460.393 2.47173 0.725493 0
M  V30 4823 H 460.351 2.03334 2.39797 0
M  V30 4824 N 464.123 0.554532 1.47522 0
M  V30 4825 C 465.071 -0.207765 2.3167 0
M  V30 4826 C 466.065 -0.911914 1.4276 0
M  V30 4827 O 467.271 -0.833504 1.59539 0
M  V30 4828 H 463.646 -0.0858726 0.747081 0
M  V30 4829 H 465.617 0.521178 2.93813 0
M  V30 4830 C 464.366 -1.2263 3.25357 0
M  V30 4831 H 463.689 -0.693887 3.93732 0
M  V30 4832 H 465.129 -1.73062 3.87073 0
M  V30 4833 C 463.588 -2.27278 2.4869 0
M  V30 4834 O 464.118 -3.34156 2.22941 0
M  V30 4835 N 462.324 -2.01134 2.09746 0
M  V30 4836 H 461.871 -1.14232 2.30887 0
M  V30 4837 H 461.829 -2.71369 1.58765 0
M  V30 4838 N 465.601 -1.54893 0.290851 0
M  V30 4839 C 466.564 -2.21824 -0.576784 0
M  V30 4840 C 467.564 -1.20104 -1.06919 0
M  V30 4841 O 468.754 -1.44906 -0.966843 0
M  V30 4842 C 465.886 -2.89662 -1.79747 0
M  V30 4843 H 467.079 -2.99899 0.00784051 0
M  V30 4844 H 464.632 -1.56245 0.0415934 0
M  V30 4845 H 465.367 -2.15639 -2.42219 0
M  V30 4846 H 465.152 -3.64219 -1.45214 0
M  V30 4847 H 466.642 -3.4075 -2.4141 0
M  V30 4848 N 467.08 -0.0183926 -1.57589 0
M  V30 4849 C 468.308 0.673046 -1.95647 0
M  V30 4850 C 468.723 1.66275 -0.894312 0
M  V30 4851 O 468.08 1.82072 0.124975 0
M  V30 4852 C 468.131 1.38884 -3.33756 0
M  V30 4853 O 467.852 0.438806 -4.35897 0
M  V30 4854 C 469.353 2.1731 -3.86383 0
M  V30 4855 H 466.573 0.186292 -0.644621 0
M  V30 4856 H 469.117 -0.0749748 -2.04363 0
M  V30 4857 H 467.272 2.08835 -3.26293 0
M  V30 4858 H 467.686 0.945869 -5.15901 0
M  V30 4859 H 469.16 2.62863 -4.85394 0
M  V30 4860 H 469.637 3.00764 -3.20059 0
M  V30 4861 H 470.243 1.52339 -3.97081 0
M  V30 4862 N 468.558 1.5553 0.254621 0
M  V30 4863 C 469.521 1.88872 1.29846 0
M  V30 4864 C 470.521 0.764591 1.41459 0
M  V30 4865 O 471.711 1.03265 1.40293 0
M  V30 4866 C 468.843 2.11032 2.67728 0
M  V30 4867 H 470.036 2.82201 1.01502 0
M  V30 4868 H 467.589 1.48303 0.493556 0
M  V30 4869 H 468.324 1.20146 3.01223 0
M  V30 4870 H 468.109 2.92895 2.60682 0
M  V30 4871 H 469.599 2.38038 3.43115 0
M  V30 4872 N 470.036 -0.519951 1.48776 0
M  V30 4873 C 471.264 -1.29971 1.60982 0
M  V30 4874 C 471.679 -1.86803 0.273885 0
M  V30 4875 O 471.036 -1.66904 -0.738193 0
M  V30 4876 C 471.087 -2.44346 2.66415 0
M  V30 4877 O 470.808 -1.89855 3.94825 0
M  V30 4878 C 472.309 -3.36014 2.89153 0
M  V30 4879 H 469.529 -0.394891 0.542496 0
M  V30 4880 H 472.073 -0.626214 1.94676 0
M  V30 4881 H 470.228 -3.07562 2.35552 0
M  V30 4882 H 470.642 -2.64798 4.5275 0
M  V30 4883 H 472.116 -4.12593 3.66703 0
M  V30 4884 H 472.593 -3.91859 1.98351 0
M  V30 4885 H 473.199 -2.78582 3.21359 0
M  V30 4886 N 471.514 -1.37532 -0.769588 0
M  V30 4887 C 472.762 -1.32597 -1.5252 0
M  V30 4888 C 473.083 0.0884294 -1.94799 0
M  V30 4889 O 472.353 1.03289 -1.66458 0
M  V30 4890 H 470.933 -0.487846 -0.565699 0
M  V30 4891 H 473.595 -1.72044 -0.915806 0
M  V30 4892 H 472.691 -1.96643 -2.42359 0
M  V30 4893 N 472.992 0.995999 -1.22138 0
M  V30 4894 C 473.955 2.06711 -0.990109 0
M  V30 4895 C 474.955 1.60744 0.0422978 0
M  V30 4896 O 476.145 1.73095 -0.195895 0
M  V30 4897 C 473.277 3.37288 -0.49491 0
M  V30 4898 H 474.47 2.28661 -1.94047 0
M  V30 4899 H 472.023 1.16711 -1.03963 0
M  V30 4900 H 472.758 3.21022 0.459948 0
M  V30 4901 H 472.543 3.71986 -1.23971 0
M  V30 4902 H 474.033 4.16103 -0.353253 0
M  V30 4903 N 474.47 1.03057 1.19235 0
M  V30 4904 C 475.698 0.747697 1.92917 0
M  V30 4905 C 476.113 -0.69372 1.75593 0
M  V30 4906 O 475.47 -1.47191 1.07894 0
M  V30 4907 C 475.521 1.09159 3.44625 0
M  V30 4908 O 475.242 2.47641 3.61394 0
M  V30 4909 C 476.743 0.831763 4.35427 0
M  V30 4910 H 473.963 0.273453 0.612751 0
M  V30 4911 H 476.507 1.37552 1.51327 0
M  V30 4912 H 474.662 0.508919 3.84043 0
M  V30 4913 H 475.076 2.60499 4.55237 0
M  V30 4914 H 476.55 1.12233 5.4047 0
M  V30 4915 H 477.027 -0.233769 4.38577 0
M  V30 4916 H 477.633 1.39725 4.01693 0
M  V30 4917 N 475.948 -1.35272 0.808662 0
M  V30 4918 C 477.176 -2.02946 0.402537 0
M  V30 4919 C 477.591 -1.60937 -0.987147 0
M  V30 4920 O 476.948 -0.807917 -1.63643 0
M  V30 4921 C 476.999 -3.58317 0.47868 0
M  V30 4922 O 476.72 -3.98799 1.81358 0
M  V30 4923 C 478.221 -4.43251 0.0656281 0
M  V30 4924 H 475.441 -0.650831 0.163279 0
M  V30 4925 H 477.985 -1.72849 1.09286 0
M  V30 4926 H 476.14 -3.87055 -0.163415 0
M  V30 4927 H 476.554 -4.93451 1.77781 0
M  V30 4928 H 478.028 -5.51738 0.170017 0
M  V30 4929 H 478.505 -4.27913 -0.989278 0
M  V30 4930 H 479.111 -4.19813 0.68096 0
M  V30 4931 N 477.426 -0.562348 -1.47226 0
M  V30 4932 C 478.654 -0.0452275 -2.06851 0
M  V30 4933 C 479.069 1.25078 -1.41424 0
M  V30 4934 O 478.426 1.75156 -0.512513 0
M  V30 4935 C 478.477 0.148674 -3.61194 0
M  V30 4936 O 478.198 -1.09602 -4.24169 0
M  V30 4937 C 479.699 0.702488 -4.37699 0
M  V30 4938 H 476.919 -0.0481775 -0.669268 0
M  V30 4939 H 479.463 -0.777223 -1.89155 0
M  V30 4940 H 477.618 0.830817 -3.78386 0
M  V30 4941 H 478.032 -0.896982 -5.16773 0
M  V30 4942 H 479.506 0.78743 -5.46355 0
M  V30 4943 H 479.983 1.71493 -4.04335 0
M  V30 4944 H 480.589 0.0558772 -4.25263 0
M  V30 4945 N 478.904 1.54736 -0.299062 0
M  V30 4946 C 480.181 1.92187 0.363802 0
M  V30 4947 C 480.561 1.22607 1.71845 0
M  V30 4948 O 479.909 0.361141 2.25628 0
M  V30 4949 C 480.119 3.45678 0.480377 0
M  V30 4950 C 481.467 4.17885 0.752147 0
M  V30 4951 O 482.491 3.51702 0.564264 0
M  V30 4952 O 481.35 5.35048 1.11294 0
M  V30 4953 H 478.444 0.801681 0.203066 0
M  V30 4954 H 480.99 1.66115 -0.346978 0
M  V30 4955 H 479.762 3.88443 -0.471999 0
M  V30 4956 H 479.385 3.77779 1.2397 0
M  V30 4957 N 480.382 0.0267497 1.57577 0
M  V30 4958 C 481.61 -0.662661 1.96001 0
M  V30 4959 C 482.025 -1.65799 0.903117 0
M  V30 4960 O 481.382 -1.82135 -0.115317 0
M  V30 4961 C 481.433 -1.37112 3.34488 0
M  V30 4962 O 481.154 -0.415683 4.36123 0
M  V30 4963 C 482.655 -2.15257 3.8753 0
M  V30 4964 H 479.875 -0.18287 0.6456 0
M  V30 4965 H 482.419 0.0858116 2.0432 0
M  V30 4966 H 480.574 -2.07101 3.27395 0
M  V30 4967 H 480.988 -0.918496 5.16395 0
M  V30 4968 H 482.462 -2.60285 4.86781 0
M  V30 4969 H 482.939 -2.99063 3.21649 0
M  V30 4970 H 483.545 -1.50231 3.97883 0
M  V30 4971 N 481.861 -1.55662 -0.24637 0
M  V30 4972 C 483.089 -1.81575 -0.991876 0
M  V30 4973 C 483.504 -0.602545 -1.78927 0
M  V30 4974 O 482.861 0.428795 -1.77391 0
M  V30 4975 C 482.912 -3.05711 -1.92933 0
M  V30 4976 O 482.633 -4.22348 -1.1642 0
M  V30 4977 C 484.134 -3.44428 -2.79078 0
M  V30 4978 H 481.354 -0.604209 -0.291844 0
M  V30 4979 H 483.898 -2.02722 -0.269095 0
M  V30 4980 H 482.053 -2.86612 -2.60638 0
M  V30 4981 H 482.467 -4.92706 -1.79835 0
M  V30 4982 H 483.941 -4.34388 -3.40603 0
M  V30 4983 H 484.418 -2.65037 -3.50217 0
M  V30 4984 H 485.024 -3.65879 -2.16824 0
M  V30 4985 N 483.339 0.512053 -1.4905 0
M  V30 4986 C 484.567 1.29116 -1.61669 0
M  V30 4987 C 484.982 1.86655 -0.283787 0
M  V30 4988 O 484.339 1.67293 0.729331 0
M  V30 4989 C 484.39 2.4293 -2.67707 0
M  V30 4990 O 484.111 1.87758 -3.95826 0
M  V30 4991 C 485.612 3.34476 -2.90931 0
M  V30 4992 H 482.832 0.392009 -0.544583 0
M  V30 4993 H 485.376 0.615881 -1.95006 0
M  V30 4994 H 483.531 3.06308 -2.37179 0
M  V30 4995 H 483.945 2.62393 -4.54148 0
M  V30 4996 H 485.419 4.10642 -3.68886 0
M  V30 4997 H 485.896 3.90801 -2.00427 0
M  V30 4998 H 486.502 2.76874 -3.22832 0
M  V30 4999 N 484.817 1.37938 0.762283 0
M  V30 5000 C 486.045 1.36883 1.55147 0
M  V30 5001 C 486.46 -0.0435348 1.8875 0
M  V30 5002 O 485.817 -1.00786 1.52146 0
M  V30 5003 C 485.868 2.21624 2.85596 0
M  V30 5004 O 485.589 3.57358 2.5343 0
M  V30 5005 C 487.09 2.28653 3.7978 0
M  V30 5006 H 484.31 0.468521 0.480343 0
M  V30 5007 H 486.854 1.81404 0.944079 0
M  V30 5008 H 485.009 1.80588 3.42734 0
M  V30 5009 H 485.423 4.01883 3.37032 0
M  V30 5010 H 486.897 2.9225 4.68288 0
M  V30 5011 H 487.374 1.29767 4.19592 0
M  V30 5012 H 487.98 2.70043 3.28568 0
M  V30 5013 N 486.295 -0.989507 1.22664 0
M  V30 5014 C 487.706 -1.54406 1.04955 0
M  V30 5015 C 488.057 -1.92366 -0.385951 0
M  V30 5016 O 487.182 -1.75111 -1.27142 0
M  V30 5017 C 487.777 -2.80578 1.89899 0
M  V30 5018 C 486.336 -3.32464 1.76478 0
M  V30 5019 C 485.483 -2.05524 1.86159 0
M  V30 5020 H 488.434 -0.810211 1.3646 0
M  V30 5021 H 488.455 -3.53075 1.4184 0
M  V30 5022 H 487.967 -2.52918 2.94371 0
M  V30 5023 H 486.068 -3.65024 0.747528 0
M  V30 5024 H 486.181 -4.02838 2.59342 0
M  V30 5025 H 484.545 -2.19241 1.29636 0
M  V30 5026 H 485.328 -1.80258 2.92168 0
M  V30 5027 N 487.773 -1.03688 -1.18687 0
M  V30 5028 C 489.021 -0.736572 -1.88199 0
M  V30 5029 C 489.342 0.737665 -1.80509 0
M  V30 5030 O 488.612 1.53204 -1.22088 0
M  V30 5031 H 487.192 -0.269466 -0.696704 0
M  V30 5032 H 489.854 -1.31282 -1.44052 0
M  V30 5033 H 488.95 -1.03802 -2.94332 0
M  V30 5034 N 489.251 1.34841 -0.815825 0
M  V30 5035 C 490.161 2.33425 -0.234462 0
M  V30 5036 C 491.177 1.62295 0.627413 0
M  V30 5037 O 492.353 1.94109 0.536987 0
M  V30 5038 C 489.418 3.41471 0.599849 0
M  V30 5039 C 488.479 4.28362 -0.283596 0
M  V30 5040 C 487.712 5.31248 0.51099 0
M  V30 5041 O 487.935 5.43056 1.7449 0
M  V30 5042 O 486.869 6.01812 -0.10297 0
M  V30 5043 H 490.695 2.84962 -1.05024 0
M  V30 5044 H 488.28 1.37774 -0.577809 0
M  V30 5045 H 490.162 4.07464 1.07475 0
M  V30 5046 H 488.837 2.9219 1.39308 0
M  V30 5047 H 487.744 3.65318 -0.805836 0
M  V30 5048 H 489.077 4.81066 -1.041 0
M  V30 5049 N 490.729 0.570148 1.46925 0
M  V30 5050 C 491.957 0.0561966 2.06824 0
M  V30 5051 C 492.372 -1.24326 1.42086 0
M  V30 5052 O 491.729 -1.74882 0.521794 0
M  V30 5053 C 491.78 -0.129517 3.61268 0
M  V30 5054 O 491.501 1.1185 4.23581 0
M  V30 5055 C 493.002 -0.679266 4.38065 0
M  V30 5056 H 490.222 0.0517261 0.669003 0
M  V30 5057 H 492.766 0.787243 1.8874 0
M  V30 5058 H 490.921 -0.810739 3.78822 0
M  V30 5059 H 491.335 0.924375 5.1629 0
M  V30 5060 H 492.809 -0.758445 5.46765 0
M  V30 5061 H 493.286 -1.69346 4.05239 0
M  V30 5062 H 493.892 -0.0333237 4.25287 0
M  V30 5063 N 492.207 -1.54576 0.307264 0
M  V30 5064 C 493.435 -2.04675 -0.302597 0
M  V30 5065 C 493.85 -1.18425 -1.47041 0
M  V30 5066 O 493.207 -0.211257 -1.81273 0
M  V30 5067 C 493.258 -3.53575 -0.752801 0
M  V30 5068 O 492.979 -4.36547 0.368536 0
M  V30 5069 C 494.48 -4.19699 -1.42717 0
M  V30 5070 H 491.7 -0.66786 -0.0648374 0
M  V30 5071 H 494.244 -1.99516 0.448716 0
M  V30 5072 H 492.399 -3.59074 -1.45412 0
M  V30 5073 H 492.813 -5.24497 0.0168937 0
M  V30 5074 H 494.287 -5.25388 -1.69327 0
M  V30 5075 H 494.764 -3.69815 -2.36925 0
M  V30 5076 H 495.37 -4.18293 -0.768856 0
M  V30 5077 N 493.685 -0.035106 -1.57561 0
M  V30 5078 C 494.913 0.652258 -1.9635 0
M  V30 5079 C 495.328 1.65317 -0.911897 0
M  V30 5080 O 494.685 1.82194 0.105657 0
M  V30 5081 C 494.736 1.35337 -3.35211 0
M  V30 5082 O 494.457 0.392548 -4.36338 0
M  V30 5083 C 495.958 2.13199 -3.88666 0
M  V30 5084 H 493.178 0.179444 -0.646561 0
M  V30 5085 H 495.722 -0.0966459 -2.04271 0
M  V30 5086 H 493.877 2.05362 -3.28489 0
M  V30 5087 H 494.291 0.891097 -5.16875 0
M  V30 5088 H 495.765 2.577 -4.88154 0
M  V30 5089 H 496.242 2.97353 -3.23231 0
M  V30 5090 H 496.848 1.48118 -3.98674 0
M  V30 5091 N 495.163 1.55791 0.238111 0
M  V30 5092 C 496.391 1.82098 0.982233 0
M  V30 5093 C 496.806 0.612025 1.78605 0
M  V30 5094 O 496.163 -0.419381 1.77616 0
M  V30 5095 C 496.214 3.0673 1.91309 0
M  V30 5096 O 495.935 4.2296 1.14179 0
M  V30 5097 C 497.436 3.45903 2.77248 0
M  V30 5098 H 494.656 0.605748 0.288635 0
M  V30 5099 H 497.2 2.02862 0.258341 0
M  V30 5100 H 495.355 2.87991 2.59114 0
M  V30 5101 H 495.769 4.93653 1.7722 0
M  V30 5102 H 497.243 4.36189 3.38295 0
M  V30 5103 H 497.72 2.66891 3.48806 0
M  V30 5104 H 498.326 3.67024 2.14881 0
M  V30 5105 N 496.642 -0.504142 1.49319 0
M  V30 5106 C 497.87 -1.28256 1.62351 0
M  V30 5107 C 498.285 -1.86502 0.293682 0
M  V30 5108 O 497.642 -1.67678 -0.720449 0
M  V30 5109 C 497.693 -2.41507 2.68992 0
M  V30 5110 O 497.414 -1.85656 3.96817 0
M  V30 5111 C 498.915 -3.32929 2.927 0
M  V30 5112 H 496.135 -0.389115 0.546654 0
M  V30 5113 H 498.679 -0.605531 1.95329 0
M  V30 5114 H 496.834 -3.05046 2.38801 0
M  V30 5115 H 497.248 -2.59981 4.55533 0
M  V30 5116 H 498.722 -4.0868 3.71058 0
M  V30 5117 H 499.199 -3.89733 2.02496 0
M  V30 5118 H 499.805 -2.75158 3.24296 0
M  V30 5119 N 498.12 -1.38341 -0.754957 0
M  V30 5120 C 499.083 -1.35262 -1.85032 0
M  V30 5121 C 500.083 -0.253393 -1.58791 0
M  V30 5122 O 501.273 -0.510205 -1.66561 0
M  V30 5123 C 498.405 -1.10544 -3.22479 0
M  V30 5124 H 499.598 -2.32712 -1.8917 0
M  V30 5125 H 497.151 -1.23614 -0.956515 0
M  V30 5126 H 497.886 -0.136952 -3.24011 0
M  V30 5127 H 497.671 -1.90127 -3.4292 0
M  V30 5128 H 499.161 -1.11082 -4.02555 0
M  V30 5129 N 499.598 0.982988 -1.23187 0
M  V30 5130 C 500.546 2.09616 -1.00817 0
M  V30 5131 C 501.54 1.6932 0.0519995 0
M  V30 5132 O 502.746 1.79715 -0.101284 0
M  V30 5133 H 499.121 0.685628 -0.308899 0
M  V30 5134 H 501.092 2.25652 -1.95253 0
M  V30 5135 C 499.841 3.42249 -0.613243 0
M  V30 5136 H 499.164 3.73705 -1.42073 0
M  V30 5137 H 500.604 4.21086 -0.496208 0
M  V30 5138 C 499.063 3.30002 0.678233 0
M  V30 5139 O 499.593 3.6263 1.72807 0
M  V30 5140 N 497.799 2.83164 0.653165 0
M  V30 5141 H 497.346 2.56811 -0.201492 0
M  V30 5142 H 497.304 2.75352 1.51752 0
M  V30 5143 N 501.076 1.04316 1.18135 0
M  V30 5144 C 502.039 0.640794 2.2006 0
M  V30 5145 C 503.039 -0.303124 1.57917 0
M  V30 5146 O 504.229 -0.0881855 1.73977 0
M  V30 5147 C 501.361 -0.060148 3.40847 0
M  V30 5148 H 502.554 1.54281 2.57172 0
M  V30 5149 H 500.107 0.836004 1.32063 0
M  V30 5150 H 500.842 -0.975845 3.0927 0
M  V30 5151 H 500.627 0.618319 3.87194 0
M  V30 5152 H 502.117 -0.328082 4.16309 0
M  V30 5153 N 502.554 -1.34406 0.822964 0
M  V30 5154 C 503.831 -1.92733 0.333641 0
M  V30 5155 C 504.211 -1.75107 -1.17901 0
M  V30 5156 O 503.559 -1.12983 -1.98613 0
M  V30 5157 C 503.769 -3.40557 0.763023 0
M  V30 5158 C 505.117 -4.17709 0.761879 0
M  V30 5159 O 506.141 -3.49141 0.705606 0
M  V30 5160 O 505 -5.40082 0.835109 0
M  V30 5161 H 502.094 -0.821964 0.0911249 0
M  V30 5162 H 504.64 -1.4338 0.907757 0
M  V30 5163 H 503.412 -3.47187 1.8049 0
M  V30 5164 H 503.035 -3.97259 0.164605 0
M  V30 5165 N 504.032 -0.577932 -1.46621 0
M  V30 5166 C 505.257 -0.0652536 -2.07297 0
M  V30 5167 C 505.682 1.22828 -1.4246 0
M  V30 5168 O 505.04 1.74075 -0.506718 0
M  V30 5169 C 505.088 0.0920589 -3.60482 0
M  V30 5170 O 504.192 1.14972 -3.96049 0
M  V30 5171 H 503.533 -0.06065 -0.661224 0
M  V30 5172 H 506.063 -0.799515 -1.88332 0
M  V30 5173 H 506.073 0.299741 -4.06897 0
M  V30 5174 H 504.748 -0.852612 -4.07067 0
M  V30 5175 H 503.325 0.920879 -3.61351 0
M  V30 5176 N 505.51 1.54411 -0.315457 0
M  V30 5177 C 506.738 2.04833 0.291738 0
M  V30 5178 C 507.153 1.19203 1.46411 0
M  V30 5179 O 506.51 0.220867 1.81159 0
M  V30 5180 C 506.561 3.53969 0.73404 0
M  V30 5181 O 506.282 4.36346 -0.391682 0
M  V30 5182 C 507.783 4.2045 1.40489 0
M  V30 5183 H 505.003 0.668195 0.0612947 0
M  V30 5184 H 507.547 1.99276 -0.45929 0
M  V30 5185 H 505.702 3.5984 1.43506 0
M  V30 5186 H 506.116 5.24481 -0.0447088 0
M  V30 5187 H 507.59 5.26278 1.66539 0
M  V30 5188 H 508.067 3.71067 2.3496 0
M  V30 5189 H 508.673 4.18694 0.746662 0
M  V30 5190 N 506.988 0.0434614 1.5754 0
M  V30 5191 C 508.236 -0.630786 1.92004 0
M  V30 5192 C 508.557 -1.71836 0.921807 0
M  V30 5193 O 507.827 -1.9587 -0.034522 0
M  V30 5194 H 506.407 -0.235988 0.708745 0
M  V30 5195 H 509.069 0.0946462 1.9467 0
M  V30 5196 H 508.165 -1.07434 2.93026 0
M  V30 5197 N 508.466 -1.55915 -0.229846 0
M  V30 5198 C 509.429 -1.90914 -1.26824 0
M  V30 5199 C 510.429 -0.786999 -1.40225 0
M  V30 5200 O 511.619 -1.05484 -1.38632 0
M  V30 5201 C 508.751 -2.15264 -2.64337 0
M  V30 5202 H 509.944 -2.8378 -0.969998 0
M  V30 5203 H 507.497 -1.49069 -0.4699 0
M  V30 5204 H 508.232 -1.24923 -2.99274 0
M  V30 5205 H 508.017 -2.97005 -2.55989 0
M  V30 5206 H 509.507 -2.43467 -3.39284 0
M  V30 5207 N 509.944 0.496216 -1.49584 0
M  V30 5208 C 510.892 1.61805 -1.67098 0
M  V30 5209 C 511.886 1.60667 -0.536877 0
M  V30 5210 O 513.092 1.65118 -0.716654 0
M  V30 5211 H 509.467 0.53646 -0.526986 0
M  V30 5212 H 511.438 1.44187 -2.61252 0
M  V30 5213 C 510.187 2.99912 -1.75921 0
M  V30 5214 H 509.51 3.01496 -2.62565 0
M  V30 5215 H 510.95 3.77931 -1.92209 0
M  V30 5216 C 509.409 3.33092 -0.505088 0
M  V30 5217 O 509.939 4.00019 0.367085 0
M  V30 5218 N 508.145 2.88278 -0.366599 0
M  V30 5219 H 507.692 2.33989 -1.07735 0
M  V30 5220 H 507.65 3.10846 0.47142 0
M  V30 5221 N 511.423 1.38739 0.74761 0
M  V30 5222 C 512.371 1.36573 1.88283 0
M  V30 5223 C 513.365 0.250712 1.67534 0
M  V30 5224 O 514.571 0.420073 1.7503 0
M  V30 5225 H 510.946 0.42619 0.619569 0
M  V30 5226 H 512.917 2.32356 1.87226 0
M  V30 5227 C 511.666 1.21361 3.25832 0
M  V30 5228 H 510.989 2.06424 3.42388 0
M  V30 5229 H 512.429 1.23901 4.05493 0
M  V30 5230 C 510.888 -0.0790099 3.36807 0
M  V30 5231 O 511.418 -1.05385 3.8763 0
M  V30 5232 N 509.624 -0.13785 2.90273 0
M  V30 5233 H 509.171 0.656128 2.49104 0
M  V30 5234 H 509.129 -1.00228 2.97996 0
M  V30 5235 N 512.901 -0.976442 1.23707 0
M  V30 5236 C 513.849 -2.09078 1.01927 0
M  V30 5237 C 514.843 -1.69345 -0.0430193 0
M  V30 5238 O 516.049 -1.79659 0.110814 0
M  V30 5239 H 512.424 -0.68398 0.312531 0
M  V30 5240 H 514.395 -2.24614 1.96447 0
M  V30 5241 C 513.144 -3.41919 0.631385 0
M  V30 5242 H 512.467 -3.72946 1.44053 0
M  V30 5243 H 513.907 -4.20817 0.518532 0
M  V30 5244 C 512.366 -3.30357 -0.660723 0
M  V30 5245 O 512.896 -3.63542 -1.70881 0
M  V30 5246 N 511.102 -2.83507 -0.638139 0
M  V30 5247 H 510.649 -2.567 0.215108 0
M  V30 5248 H 510.607 -2.76153 -1.50289 0
M  V30 5249 N 514.379 -1.04941 -1.1758 0
M  V30 5250 C 515.327 -0.64204 -2.23563 0
M  V30 5251 C 516.321 0.335453 -1.66045 0
M  V30 5252 O 517.527 0.20179 -1.78865 0
M  V30 5253 H 513.902 -0.18944 -0.727748 0
M  V30 5254 H 515.873 -1.54609 -2.55223 0
M  V30 5255 C 514.622 -0.0301051 -3.47687 0
M  V30 5256 H 513.945 -0.773339 -3.92249 0
M  V30 5257 H 515.385 0.217592 -4.23441 0
M  V30 5258 C 513.844 1.2225 -3.13937 0
M  V30 5259 O 514.374 2.3122 -3.28482 0
M  V30 5260 N 512.58 1.11917 -2.68185 0
M  V30 5261 H 512.127 0.232403 -2.5655 0
M  V30 5262 H 512.085 1.95814 -2.45976 0
M  V30 5263 N 515.857 1.33968 -0.830081 0
M  V30 5264 C 517.105 1.97672 -0.420734 0
M  V30 5265 C 517.426 1.66111 1.02138 0
M  V30 5266 O 516.696 0.955503 1.71017 0
M  V30 5267 H 515.276 0.73125 -0.152587 0
M  V30 5268 H 517.938 1.63483 -1.0611 0
M  V30 5269 H 517.034 3.07294 -0.545588 0
M  V30 5270 N 517.335 0.585699 1.46312 0
M  V30 5271 C 518.265 -0.133556 2.33118 0
M  V30 5272 C 519.246 -0.880707 1.45525 0
M  V30 5273 O 520.431 -0.855579 1.74337 0
M  V30 5274 C 517.561 -1.14585 3.27853 0
M  V30 5275 C 516.515 -0.513341 4.2491 0
M  V30 5276 C 515.841 -1.63231 5.09175 0
M  V30 5277 C 517.141 0.551413 5.19381 0
M  V30 5278 H 518.835 0.59121 2.93505 0
M  V30 5279 H 516.381 0.285761 1.41136 0
M  V30 5280 H 518.334 -1.65741 3.87438 0
M  V30 5281 H 517.058 -1.90093 2.65579 0
M  V30 5282 H 515.717 -0.0228349 3.66593 0
M  V30 5283 H 515.365 -2.37713 4.43285 0
M  V30 5284 H 515.065 -1.21473 5.74907 0
M  V30 5285 H 516.589 -2.14658 5.71624 0
M  V30 5286 H 518.003 0.124804 5.73164 0
M  V30 5287 H 516.4 0.889486 5.93471 0
M  V30 5288 H 517.47 1.43655 4.63132 0
M  V30 5289 N 518.813 -1.54241 0.323641 0
M  V30 5290 C 520.038 -2.05452 -0.283605 0
M  V30 5291 C 520.463 -1.19823 -1.44997 0
M  V30 5292 O 519.821 -0.207358 -1.8011 0
M  V30 5293 C 519.869 -3.53823 -0.695795 0
M  V30 5294 O 518.973 -3.71134 -1.79815 0
M  V30 5295 H 518.314 -0.662024 -0.0511917 0
M  V30 5296 H 520.844 -1.99079 0.472073 0
M  V30 5297 H 520.854 -3.96094 -0.978434 0
M  V30 5298 H 519.529 -4.15602 0.157287 0
M  V30 5299 H 518.106 -3.40768 -1.51431 0
M  V30 5300 N 520.291 -0.0518155 -1.57515 0
M  V30 5301 C 521.702 0.483787 -1.80323 0
M  V30 5302 C 522.053 1.70879 -0.964099 0
M  V30 5303 O 521.178 2.15643 -0.180872 0
M  V30 5304 C 521.773 0.884459 -3.27052 0
M  V30 5305 C 520.332 1.36504 -3.50776 0
M  V30 5306 C 519.479 0.340539 -2.75201 0
M  V30 5307 H 522.43 -0.277691 -1.56252 0
M  V30 5308 H 522.451 1.74733 -3.38007 0
M  V30 5309 H 521.963 -0.00731093 -3.88099 0
M  V30 5310 H 520.064 2.27598 -2.95009 0
M  V30 5311 H 520.177 1.35675 -4.59488 0
M  V30 5312 H 518.541 0.81356 -2.41357 0
M  V30 5313 H 519.324 -0.543156 -3.38976 0
M  V30 5314 N 521.769 1.56035 0.221574 0
M  V30 5315 C 522.717 1.93269 1.29421 0
M  V30 5316 C 523.711 0.814727 1.48521 0
M  V30 5317 O 524.917 0.999559 1.49696 0
M  V30 5318 H 521.292 0.614188 0.43391 0
M  V30 5319 H 523.263 2.82773 0.952987 0
M  V30 5320 C 522.012 2.26573 2.63742 0
M  V30 5321 H 521.335 3.12112 2.49853 0
M  V30 5322 H 522.775 2.5651 3.37607 0
M  V30 5323 C 521.234 1.09086 3.1875 0
M  V30 5324 O 521.764 0.351985 4.00155 0
M  V30 5325 N 519.97 0.874693 2.77124 0
M  V30 5326 H 519.517 1.47726 2.11033 0
M  V30 5327 H 519.475 0.0903349 3.1427 0
M  V30 5328 N 523.247 -0.488276 1.49845 0
M  V30 5329 C 524.475 -1.26527 1.63702 0
M  V30 5330 C 524.89 -1.8618 0.313447 0
M  V30 5331 O 524.247 -1.68432 -0.702624 0
M  V30 5332 C 524.298 -2.3864 2.71538 0
M  V30 5333 O 524.019 -1.81437 3.98763 0
M  V30 5334 C 525.52 -3.29805 2.96215 0
M  V30 5335 H 522.74 -0.383295 0.55075 0
M  V30 5336 H 525.284 -0.584779 1.95961 0
M  V30 5337 H 523.439 -3.02496 2.42023 0
M  V30 5338 H 523.853 -2.55135 4.58265 0
M  V30 5339 H 525.327 -4.04722 3.75372 0
M  V30 5340 H 525.804 -3.87563 2.06619 0
M  V30 5341 H 526.41 -2.71703 3.27196 0
M  V30 5342 N 524.725 -1.39134 -0.740242 0
M  V30 5343 C 525.673 -1.3757 -1.87556 0
M  V30 5344 C 526.667 -0.259593 -1.67399 0
M  V30 5345 O 527.873 -0.429349 -1.74804 0
M  V30 5346 H 524.248 -0.42947 -0.6173 0
M  V30 5347 H 526.219 -2.33345 -1.85991 0
M  V30 5348 C 524.968 -1.23087 -3.25184 0
M  V30 5349 H 524.291 -2.08237 -3.41288 0
M  V30 5350 H 525.731 -1.26049 -4.0483 0
M  V30 5351 C 524.19 0.0611471 -3.36845 0
M  V30 5352 O 524.72 1.03328 -3.88183 0
M  V30 5353 N 522.926 0.122454 -2.90342 0
M  V30 5354 H 522.473 -0.669329 -2.48752 0
M  V30 5355 H 522.431 0.986463 -2.98523 0
M  V30 5356 N 526.204 0.969867 -1.24223 0
M  V30 5357 C 527.432 1.74756 -1.10761 0
M  V30 5358 C 527.847 1.85713 0.340041 0
M  V30 5359 O 527.204 1.34389 1.23474 0
M  V30 5360 C 527.255 3.16915 -1.73917 0
M  V30 5361 O 526.976 3.06511 -3.13021 0
M  V30 5362 C 528.477 4.11032 -1.66036 0
M  V30 5363 H 525.697 0.548092 -0.387087 0
M  V30 5364 H 528.241 1.2178 -1.64286 0
M  V30 5365 H 526.396 3.66884 -1.244 0
M  V30 5366 H 526.81 3.96079 -3.43834 0
M  V30 5367 H 528.284 5.08446 -2.14911 0
M  V30 5368 H 528.761 4.34785 -0.621159 0
M  V30 5369 H 529.367 3.66972 -2.14969 0
M  V30 5370 N 527.682 1.05563 1.17022 0
M  V30 5371 C 528.907 0.788437 1.91829 0
M  V30 5372 C 529.332 -0.650356 1.76499 0
M  V30 5373 O 528.69 -1.45229 1.08527 0
M  V30 5374 C 528.738 1.1786 3.40795 0
M  V30 5375 O 527.842 0.312965 4.11211 0
M  V30 5376 H 527.183 0.288794 0.597908 0
M  V30 5377 H 529.713 1.40948 1.48307 0
M  V30 5378 H 529.723 1.14697 3.91546 0
M  V30 5379 H 528.398 2.22666 3.51273 0
M  V30 5380 H 526.975 0.405515 3.70689 0
M  V30 5381 N 529.16 -1.33526 0.837174 0
M  V30 5382 C 530.108 -2.31168 0.257698 0
M  V30 5383 C 531.102 -1.5806 -0.609388 0
M  V30 5384 O 532.308 -1.72941 -0.499139 0
M  V30 5385 H 528.683 -0.74922 0.0646058 0
M  V30 5386 H 530.654 -2.77552 1.09578 0
M  V30 5387 C 529.403 -3.4326 -0.553887 0
M  V30 5388 H 528.726 -3.99665 0.104008 0
M  V30 5389 H 530.166 -4.13782 -0.925219 0
M  V30 5390 C 528.625 -2.88965 -1.73207 0
M  V30 5391 O 529.155 -2.85013 -2.83073 0
M  V30 5392 N 527.361 -2.45596 -1.55342 0
M  V30 5393 H 526.908 -2.49009 -0.659705 0
M  V30 5394 H 526.866 -2.0962 -2.34322 0
M  V30 5395 N 530.638 -0.59345 -1.46 0
M  V30 5396 C 531.866 -0.0890934 -2.06708 0
M  V30 5397 C 532.281 1.2205 -1.44046 0
M  V30 5398 O 531.638 1.74029 -0.549551 0
M  V30 5399 C 531.689 0.0720263 -3.61428 0
M  V30 5400 O 531.41 -1.18574 -4.21748 0
M  V30 5401 C 532.911 0.609487 -4.3909 0
M  V30 5402 H 530.131 -0.0623628 -0.668096 0
M  V30 5403 H 532.675 -0.817171 -1.87464 0
M  V30 5404 H 530.83 0.750369 -3.80063 0
M  V30 5405 H 531.244 -1.0064 -5.14754 0
M  V30 5406 H 532.718 0.671363 -5.47902 0
M  V30 5407 H 533.195 1.62878 -4.07882 0
M  V30 5408 H 533.801 -0.03434 -4.25286 0
M  V30 5409 N 532.116 1.54067 -0.331816 0
M  V30 5410 C 533.344 2.05131 0.269996 0
M  V30 5411 C 533.759 1.20749 1.45138 0
M  V30 5412 O 533.116 0.240069 1.80914 0
M  V30 5413 C 533.167 3.54728 0.696456 0
M  V30 5414 O 532.888 4.35906 -0.43794 0
M  V30 5415 C 534.389 4.21916 1.36021 0
M  V30 5416 H 531.609 0.668807 0.0542042 0
M  V30 5417 H 534.153 1.98777 -0.4804 0
M  V30 5418 H 532.308 3.61342 1.39681 0
M  V30 5419 H 532.722 5.24404 -0.100334 0
M  V30 5420 H 534.196 5.28015 1.60947 0
M  V30 5421 H 534.673 3.73538 2.31011 0
M  V30 5422 H 535.279 4.19463 0.702212 0
M  V30 5423 N 533.594 0.0601682 1.57485 0
M  V30 5424 C 534.822 -0.620937 1.97363 0
M  V30 5425 C 535.237 -1.63846 0.938082 0
M  V30 5426 O 534.594 -1.82339 -0.0766578 0
M  V30 5427 C 534.645 -1.29987 3.37321 0
M  V30 5428 O 534.366 -0.323081 4.36907 0
M  V30 5429 C 535.867 -2.06989 3.92008 0
M  V30 5430 H 533.087 -0.169135 0.649334 0
M  V30 5431 H 535.631 0.129132 2.04092 0
M  V30 5432 H 533.786 -2.0011 3.31715 0
M  V30 5433 H 534.2 -0.808754 5.18227 0
M  V30 5434 H 535.674 -2.49901 4.92192 0
M  V30 5435 H 536.151 -2.92173 3.2792 0
M  V30 5436 H 536.757 -1.41757 4.0098 0
M  V30 5437 N 535.072 -1.5615 -0.213296 0
M  V30 5438 C 536.32 -1.79191 -0.934612 0
M  V30 5439 C 536.641 -0.630112 -1.84539 0
M  V30 5440 O 535.911 0.35257 -1.92701 0
M  V30 5441 H 534.491 -0.660937 -0.348097 0
M  V30 5442 H 537.153 -1.93618 -0.22317 0
M  V30 5443 H 536.249 -2.71656 -1.53654 0
M  V30 5444 N 536.55 0.480323 -1.50102 0
M  V30 5445 C 537.775 1.26126 -1.64642 0
M  V30 5446 C 538.2 1.85257 -0.325823 0
M  V30 5447 O 537.558 1.66854 0.709194 0
M  V30 5448 C 537.606 2.35243 -2.73301 0
M  V30 5449 O 536.71 3.39646 -2.33911 0
M  V30 5450 H 536.051 0.371463 -0.550374 0
M  V30 5451 H 538.581 0.572696 -1.96421 0
M  V30 5452 H 538.591 2.80695 -2.96098 0
M  V30 5453 H 537.266 1.91574 -3.6915 0
M  V30 5454 H 535.843 2.99969 -2.21525 0
M  V30 5455 N 538.028 1.39524 0.732853 0
M  V30 5456 C 539.253 1.40329 1.52717 0
M  V30 5457 C 539.678 0.000286574 1.881 0
M  V30 5458 O 539.036 -0.987262 1.52062 0
M  V30 5459 C 539.084 2.28464 2.78992 0
M  V30 5460 O 538.188 1.716 3.75003 0
M  V30 5461 H 537.529 0.47778 0.461109 0
M  V30 5462 H 540.059 1.83546 0.903996 0
M  V30 5463 H 540.069 2.43051 3.27705 0
M  V30 5464 H 538.744 3.30425 2.52572 0
M  V30 5465 H 537.321 1.66267 3.33781 0
M  V30 5466 N 539.506 -0.963266 1.24736 0
M  V30 5467 C 540.454 -2.07985 1.04139 0
M  V30 5468 C 541.448 -1.69381 -0.0250556 0
M  V30 5469 O 542.654 -1.79531 0.129863 0
M  V30 5470 H 539.029 -0.680627 0.319768 0
M  V30 5471 H 541 -2.22517 1.98818 0
M  V30 5472 C 539.749 -3.4123 0.667615 0
M  V30 5473 H 539.072 -3.71397 1.48 0
M  V30 5474 H 540.512 -4.20244 0.563136 0
M  V30 5475 C 538.971 -3.3104 -0.625647 0
M  V30 5476 O 539.501 -3.65334 -1.67016 0
M  V30 5477 N 537.707 -2.84168 -0.608033 0
M  V30 5478 H 537.254 -2.56458 0.242323 0
M  V30 5479 H 537.212 -2.77732 -1.47352 0
M  V30 5480 N 540.985 -1.06182 -1.16461 0
M  V30 5481 C 541.933 -0.665716 -2.2287 0
M  V30 5482 C 542.927 0.317822 -1.66392 0
M  V30 5483 O 544.133 0.182807 -1.79069 0
M  V30 5484 H 540.508 -0.197148 -0.725697 0
M  V30 5485 H 542.479 -1.57307 -2.53569 0
M  V30 5486 C 541.228 -0.0669803 -3.47635 0
M  V30 5487 H 540.551 -0.814899 -3.91407 0
M  V30 5488 H 541.991 0.172669 -4.23648 0
M  V30 5489 C 540.45 1.18913 -3.15216 0
M  V30 5490 O 540.98 2.27723 -3.30916 0
M  V30 5491 N 539.186 1.09066 -2.69357 0
M  V30 5492 H 538.733 0.20518 -2.56782 0
M  V30 5493 H 538.691 1.93195 -2.48039 0
M  V30 5494 N 542.463 1.3308 -0.844243 0
M  V30 5495 C 543.688 2.02341 -0.455282 0
M  V30 5496 C 544.113 1.6308 0.93737 0
M  V30 5497 O 543.471 0.826118 1.61385 0
M  V30 5498 C 543.519 3.55743 -0.58988 0
M  V30 5499 O 542.623 4.1063 0.38166 0
M  V30 5500 H 541.964 0.637898 -0.184343 0
M  V30 5501 H 544.494 1.6986 -1.14056 0
M  V30 5502 H 544.504 4.05243 -0.473522 0
M  V30 5503 H 543.179 3.83662 -1.60549 0
M  V30 5504 H 541.756 3.72236 0.22241 0
M  V30 5505 N 543.941 0.601185 1.45683 0
M  V30 5506 C 545.19 0.0914953 2.01492 0
M  V30 5507 C 545.503 -1.28331 1.47616 0
M  V30 5508 O 546.709 -1.88537 1.95362 0
M  V30 5509 C 545.165 0.11291 3.59723 0
M  V30 5510 C 544.773 1.48717 4.22596 0
M  V30 5511 C 546.517 -0.341871 4.23121 0
M  V30 5512 C 544.424 1.46531 5.7296 0
M  V30 5513 H 543.354 0.0304365 0.753385 0
M  V30 5514 H 546.005 0.755568 1.67223 0
M  V30 5515 H 544.387 -0.617692 3.91153 0
M  V30 5516 H 545.561 2.23897 4.02749 0
M  V30 5517 H 543.876 1.88351 3.71366 0
M  V30 5518 H 546.473 -0.377304 5.33367 0
M  V30 5519 H 546.816 -1.36325 3.93346 0
M  V30 5520 H 547.349 0.335256 3.96385 0
M  V30 5521 H 544.088 2.46408 6.07423 0
M  V30 5522 H 543.608 0.755997 5.95017 0
M  V30 5523 H 545.287 1.18618 6.36034 0
M  V30 5524 N 545.419 -1.53889 0.339982 0
M  V30 5525 C 546.367 -2.26391 -0.533822 0
M  V30 5526 C 547.361 -1.28404 -1.10493 0
M  V30 5527 O 548.567 -1.46124 -1.05108 0
M  V30 5528 H 544.942 -0.727385 -0.190828 0
M  V30 5529 H 546.913 -2.98233 0.0997484 0
M  V30 5530 C 545.662 -3.04707 -1.67479 0
M  V30 5531 H 544.985 -3.79934 -1.2446 0
M  V30 5532 H 546.425 -3.58657 -2.26144 0
M  V30 5533 C 544.884 -2.13989 -2.60212 0
M  V30 5534 O 545.414 -1.73361 -3.62366 0
M  V30 5535 N 543.62 -1.79141 -2.28816 0
M  V30 5536 H 543.167 -2.12378 -1.45785 0
M  V30 5537 H 543.125 -1.18725 -2.91121 0
M  V30 5538 N 546.897 -0.0685191 -1.57451 0
M  V30 5539 C 547.827 0.89747 -2.15564 0
M  V30 5540 C 548.808 1.31266 -1.08181 0
M  V30 5541 O 549.993 1.38429 -1.36202 0
M  V30 5542 C 547.123 2.16623 -2.71463 0
M  V30 5543 C 546.077 1.89054 -3.83982 0
M  V30 5544 C 545.403 3.22532 -4.26471 0
M  V30 5545 C 546.703 1.1984 -5.08366 0
M  V30 5546 H 548.397 0.413373 -2.96533 0
M  V30 5547 H 545.943 0.197391 -1.42641 0
M  V30 5548 H 547.896 2.84614 -3.10761 0
M  V30 5549 H 546.62 2.67269 -1.8771 0
M  V30 5550 H 545.279 1.23469 -3.45183 0
M  V30 5551 H 544.927 3.71013 -3.39644 0
M  V30 5552 H 544.627 3.04879 -5.02317 0
M  V30 5553 H 546.151 3.91727 -4.68383 0
M  V30 5554 H 547.565 1.77896 -5.45001 0
M  V30 5555 H 545.962 1.12456 -5.89469 0
M  V30 5556 H 547.032 0.176996 -4.84577 0
M  V30 5557 N 548.375 1.56261 0.205012 0
M  V30 5558 C 549.323 1.94631 1.27364 0
M  V30 5559 C 550.317 0.830434 1.47649 0
M  V30 5560 O 551.523 1.01538 1.48627 0
M  V30 5561 H 547.898 0.618755 0.427371 0
M  V30 5562 H 549.869 2.83768 0.922941 0
M  V30 5563 C 548.618 2.29358 2.61324 0
M  V30 5564 H 547.941 3.14744 2.46528 0
M  V30 5565 H 549.381 2.60076 3.34868 0
M  V30 5566 C 547.84 1.12461 3.17575 0
M  V30 5567 O 548.37 0.394407 3.99759 0
M  V30 5568 N 546.576 0.904036 2.7618 0
M  V30 5569 H 546.123 1.49956 2.09454 0
M  V30 5570 H 546.081 0.123662 3.14157 0
M  V30 5571 N 549.853 -0.472356 1.50355 0
M  V30 5572 C 550.763 -1.59637 1.7191 0
M  V30 5573 C 551.779 -1.63247 0.602195 0
M  V30 5574 O 552.955 -1.81139 0.880369 0
M  V30 5575 C 550.02 -2.9586 1.80742 0
M  V30 5576 C 549.081 -3.02649 3.04471 0
M  V30 5577 C 548.314 -4.32374 3.12872 0
M  V30 5578 O 548.537 -5.22807 2.28099 0
M  V30 5579 O 547.471 -4.44728 4.05587 0
M  V30 5580 H 551.297 -1.44373 2.67189 0
M  V30 5581 H 548.882 -0.651717 1.34436 0
M  V30 5582 H 550.764 -3.7677 1.88739 0
M  V30 5583 H 549.439 -3.11325 0.88647 0
M  V30 5584 H 548.346 -2.20821 3.01975 0
M  V30 5585 H 549.679 -2.92119 3.9614 0
M  V30 5586 N 551.331 -1.39911 -0.725443 0
M  V30 5587 C 552.279 -1.39552 -1.86086 0
M  V30 5588 C 553.273 -0.277334 -1.67114 0
M  V30 5589 O 554.479 -0.447865 -1.74339 0
M  V30 5590 H 550.854 -0.435993 -0.612711 0
M  V30 5591 H 552.825 -2.35305 -1.83505 0
M  V30 5592 C 551.574 -1.26529 -3.2386 0
M  V30 5593 H 550.897 -2.11845 -3.3906 0
M  V30 5594 H 552.337 -1.30336 -4.03471 0
M  V30 5595 C 550.796 0.0254168 -3.3689 0
M  V30 5596 O 551.326 0.992048 -3.89257 0
M  V30 5597 N 549.532 0.0916528 -2.90455 0
M  V30 5598 H 549.079 -0.695675 -2.48028 0
M  V30 5599 H 549.037 0.954745 -2.99553 0
M  V30 5600 N 552.809 0.956637 -1.25245 0
M  V30 5601 C 553.757 2.0743 -1.0524 0
M  V30 5602 C 554.751 1.69392 0.0160725 0
M  V30 5603 O 555.957 1.7946 -0.139382 0
M  V30 5604 H 552.332 0.678921 -0.323373 0
M  V30 5605 H 554.303 2.2146 -1.99995 0
M  V30 5606 C 553.052 3.40872 -0.685702 0
M  V30 5607 H 552.375 3.70607 -1.49968 0
M  V30 5608 H 553.815 4.19939 -0.585415 0
M  V30 5609 C 552.274 3.31367 0.608082 0
M  V30 5610 O 552.804 3.66214 1.65076 0
M  V30 5611 N 551.01 2.84486 0.592955 0
M  V30 5612 H 550.557 2.56326 -0.25592 0
M  V30 5613 H 550.515 2.78509 1.45877 0
M  V30 5614 N 554.287 1.06798 1.15896 0
M  V30 5615 C 555.235 0.677525 2.22514 0
M  V30 5616 C 556.229 -0.308994 1.66558 0
M  V30 5617 O 557.435 -0.173308 1.79164 0
M  V30 5618 H 553.81 0.200994 0.724642 0
M  V30 5619 H 555.781 1.5865 2.52731 0
M  V30 5620 C 554.53 0.0854153 3.47595 0
M  V30 5621 H 553.853 0.835645 3.90969 0
M  V30 5622 H 555.293 -0.150199 4.23734 0
M  V30 5623 C 553.752 -1.1724 3.15843 0
M  V30 5624 O 554.282 -2.25965 3.32119 0
M  V30 5625 N 552.488 -1.07636 2.69931 0
M  V30 5626 H 552.035 -0.191559 2.56887 0
M  V30 5627 H 551.993 -1.91876 2.4906 0
M  V30 5628 N 555.766 -1.3263 0.851289 0
M  V30 5629 C 556.994 -2.01563 0.466899 0
M  V30 5630 C 557.409 -1.63996 -0.935447 0
M  V30 5631 O 556.766 -0.85957 -1.6099 0
M  V30 5632 C 556.817 -3.56613 0.592433 0
M  V30 5633 O 556.538 -3.92828 1.93954 0
M  V30 5634 C 558.039 -4.42818 0.206612 0
M  V30 5635 H 555.259 -0.645307 0.183902 0
M  V30 5636 H 557.803 -1.69285 1.1473 0
M  V30 5637 H 555.958 -3.87379 -0.0401936 0
M  V30 5638 H 556.372 -4.87545 1.9339 0
M  V30 5639 H 557.846 -5.50918 0.345462 0
M  V30 5640 H 558.323 -4.30844 -0.85264 0
M  V30 5641 H 558.929 -4.17434 0.814176 0
M  V30 5642 N 557.244 -0.608902 -1.45362 0
M  V30 5643 C 558.207 0.0992563 -2.28985 0
M  V30 5644 C 559.207 0.793841 -1.39838 0
M  V30 5645 O 560.397 0.641804 -1.61946 0
M  V30 5646 C 557.529 1.15073 -3.20891 0
M  V30 5647 H 558.722 -0.635964 -2.93079 0
M  V30 5648 H 556.275 -0.368007 -1.51906 0
M  V30 5649 H 557.01 1.91667 -2.616 0
M  V30 5650 H 556.795 0.656867 -3.86559 0
M  V30 5651 H 558.285 1.64665 -3.83765 0
M  V30 5652 N 558.722 1.53707 -0.348139 0
M  V30 5653 C 559.97 2.00591 0.246478 0
M  V30 5654 C 560.291 1.23753 1.50699 0
M  V30 5655 O 559.561 0.345964 1.92821 0
M  V30 5656 H 558.141 0.741053 0.0940679 0
M  V30 5657 H 560.803 1.89139 -0.470354 0
M  V30 5658 H 559.899 3.08297 0.485714 0
M  V30 5659 N 560.2 0.0768682 1.57412 0
M  V30 5660 C 561.148 -0.906229 2.1422 0
M  V30 5661 C 562.142 -1.30477 1.08037 0
M  V30 5662 O 563.348 -1.28143 1.2641 0
M  V30 5663 H 559.723 -0.310207 0.685037 0
M  V30 5664 H 561.694 -0.402228 2.95677 0
M  V30 5665 C 560.443 -2.16245 2.72274 0
M  V30 5666 H 559.766 -1.86463 3.53655 0
M  V30 5667 H 561.206 -2.83134 3.15613 0
M  V30 5668 C 559.665 -2.92437 1.67279 0
M  V30 5669 O 560.195 -3.86322 1.10081 0
M  V30 5670 N 558.401 -2.55637 1.38195 0
M  V30 5671 H 557.948 -1.79363 1.84897 0
M  V30 5672 H 557.906 -3.06919 0.681787 0
M  V30 5673 N 561.678 -1.56367 -0.196722 0
M  V30 5674 C 562.626 -1.95304 -1.2633 0
M  V30 5675 C 563.62 -0.838252 -1.47206 0
M  V30 5676 O 564.826 -1.02325 -1.48087 0
M  V30 5677 H 561.201 -0.621013 -0.424083 0
M  V30 5678 H 563.172 -2.84254 -0.907879 0
M  V30 5679 C 561.921 -2.3074 -2.60104 0
M  V30 5680 H 561.244 -3.16047 -2.44856 0
M  V30 5681 H 562.684 -2.61849 -3.33484 0
M  V30 5682 C 561.143 -1.14143 -3.16975 0
M  V30 5683 O 561.673 -0.415602 -3.99544 0
M  V30 5684 N 559.879 -0.91867 -2.75697 0
M  V30 5685 H 559.426 -1.51065 -2.08656 0
M  V30 5686 H 559.384 -0.140321 -3.14087 0
M  V30 5687 N 563.156 0.464375 -1.50603 0
M  V30 5688 C 564.104 1.58224 -1.70493 0
M  V30 5689 C 565.098 1.59492 -0.570836 0
M  V30 5690 O 566.304 1.63561 -0.751517 0
M  V30 5691 H 562.679 0.525161 -0.538247 0
M  V30 5692 H 564.65 1.38613 -2.64252 0
M  V30 5693 C 563.399 2.96113 -1.82243 0
M  V30 5694 H 562.722 2.95858 -2.68901 0
M  V30 5695 H 564.162 3.73769 -2.00182 0
M  V30 5696 C 562.621 3.31946 -0.575628 0
M  V30 5697 O 563.151 4.00708 0.282152 0
M  V30 5698 N 561.357 2.87436 -0.427665 0
M  V30 5699 H 560.904 2.31652 -1.12674 0
M  V30 5700 H 560.862 3.11776 0.405379 0
M  V30 5701 N 564.634 1.40294 0.718013 0
M  V30 5702 C 565.859 1.41941 1.5122 0
M  V30 5703 C 566.284 0.0202371 1.88089 0
M  V30 5704 O 565.642 -0.971078 1.53101 0
M  V30 5705 C 565.69 2.3141 2.76554 0
M  V30 5706 O 564.794 1.75567 3.73162 0
M  V30 5707 H 564.135 0.482644 0.456016 0
M  V30 5708 H 566.665 1.84494 0.884478 0
M  V30 5709 H 566.675 2.46513 3.25108 0
M  V30 5710 H 565.35 3.33085 2.49053 0
M  V30 5711 H 563.927 1.69798 3.31999 0
M  V30 5712 N 566.112 -0.949982 1.2575 0
M  V30 5713 C 567.34 -1.72972 1.13527 0
M  V30 5714 C 567.755 -1.8623 -0.310453 0
M  V30 5715 O 567.112 -1.36336 -1.2132 0
M  V30 5716 C 567.163 -3.14108 1.78936 0
M  V30 5717 O 566.884 -3.01493 3.17858 0
M  V30 5718 C 568.385 -4.08338 1.72554 0
M  V30 5719 H 565.605 -0.541864 0.395758 0
M  V30 5720 H 568.149 -1.19151 1.66202 0
M  V30 5721 H 566.304 -3.64858 1.30221 0
M  V30 5722 H 566.718 -3.90559 3.50092 0
M  V30 5723 H 568.192 -5.04963 2.22973 0
M  V30 5724 H 568.669 -4.33742 0.690251 0
M  V30 5725 H 569.275 -3.63506 2.2078 0
M  V30 5726 N 567.59 -1.07411 -1.15328 0
M  V30 5727 C 568.538 -0.689316 -2.22151 0
M  V30 5728 C 569.532 0.300156 -1.6672 0
M  V30 5729 O 570.738 0.163804 -1.79253 0
M  V30 5730 H 567.113 -0.204834 -0.723566 0
M  V30 5731 H 569.084 -1.59988 -2.51886 0
M  V30 5732 C 567.833 -0.103848 -3.47545 0
M  V30 5733 H 567.156 -0.856367 -3.90521 0
M  V30 5734 H 568.596 0.127725 -4.23808 0
M  V30 5735 C 567.055 1.15563 -3.1646 0
M  V30 5736 O 567.585 2.242 -3.33312 0
M  V30 5737 N 565.791 1.06203 -2.70498 0
M  V30 5738 H 565.338 0.177933 -2.56985 0
M  V30 5739 H 565.296 1.90553 -2.50074 0
M  V30 5740 N 569.068 1.32177 -0.85831 0
M  V30 5741 C 570.016 2.30729 -0.294442 0
M  V30 5742 C 571.01 1.59009 0.584165 0
M  V30 5743 O 572.216 1.73713 0.471562 0
M  V30 5744 H 568.591 0.748097 -0.0765171 0
M  V30 5745 H 570.562 2.75774 -1.1398 0
M  V30 5746 C 569.311 3.44098 0.499208 0
M  V30 5747 H 568.634 3.99449 -0.167579 0
M  V30 5748 H 570.074 4.15202 0.859273 0
M  V30 5749 C 568.533 2.91684 1.68588 0
M  V30 5750 O 569.063 2.89481 2.78503 0
M  V30 5751 N 567.269 2.48036 1.51415 0
M  V30 5752 H 566.816 2.50027 0.620006 0
M  V30 5753 H 566.774 2.13322 2.30957 0
M  V30 5754 N 570.547 0.616602 1.45037 0
M  V30 5755 C 571.495 -0.109318 2.32343 0
M  V30 5756 C 572.489 -0.850543 1.465 0
M  V30 5757 O 573.695 -0.765088 1.62931 0
M  V30 5758 H 570.07 -0.0541091 0.750051 0
M  V30 5759 H 572.041 0.645326 2.91338 0
M  V30 5760 C 570.79 -1.0872 3.30266 0
M  V30 5761 H 570.113 -0.526267 3.96321 0
M  V30 5762 H 571.553 -1.56489 3.94065 0
M  V30 5763 C 570.012 -2.16525 2.58105 0
M  V30 5764 O 570.542 -3.244 2.36913 0
M  V30 5765 N 568.748 -1.92057 2.18088 0
M  V30 5766 H 568.295 -1.04337 2.35524 0
M  V30 5767 H 568.253 -2.64391 1.70131 0
M  V30 5768 N 572.025 -1.5352 0.356285 0
M  V30 5769 C 572.973 -2.26945 -0.50978 0
M  V30 5770 C 573.967 -1.29569 -1.09125 0
M  V30 5771 O 575.173 -1.47231 -1.03552 0
M  V30 5772 H 571.548 -0.729368 -0.183102 0
M  V30 5773 H 573.519 -2.98111 0.131374 0
M  V30 5774 C 572.268 -3.06466 -1.64237 0
M  V30 5775 H 571.591 -3.81233 -1.20423 0
M  V30 5776 H 573.031 -3.61035 -2.22327 0
M  V30 5777 C 571.49 -2.16737 -2.57928 0
M  V30 5778 O 572.02 -1.77195 -3.60507 0
M  V30 5779 N 570.226 -1.81558 -2.26903 0
M  V30 5780 H 569.773 -2.13913 -1.43524 0
M  V30 5781 H 569.731 -1.21806 -2.89846 0
M  V30 5782 N 573.503 -0.0852151 -1.57369 0
M  V30 5783 C 574.451 0.894856 -2.14698 0
M  V30 5784 C 575.445 1.29903 -1.08727 0
M  V30 5785 O 576.651 1.27471 -1.27088 0
M  V30 5786 H 573.026 0.306569 -0.686673 0
M  V30 5787 H 574.997 0.386542 -2.95886 0
M  V30 5788 C 573.746 2.14798 -2.73417 0
M  V30 5789 H 573.069 1.84585 -3.54638 0
M  V30 5790 H 574.509 2.81456 -3.1711 0
M  V30 5791 C 572.968 2.91546 -1.68828 0
M  V30 5792 O 573.498 3.85733 -1.12129 0
M  V30 5793 N 571.704 2.54901 -1.39549 0
M  V30 5794 H 571.251 1.7838 -1.85845 0
M  V30 5795 H 571.209 3.06553 -0.698054 0
M  V30 5796 N 574.981 1.5647 0.188427 0
M  V30 5797 C 576.206 1.85486 0.927891 0
M  V30 5798 C 576.631 0.669575 1.75779 0
M  V30 5799 O 575.989 -0.381573 1.77239 0
M  V30 5800 C 576.037 3.12784 1.7944 0
M  V30 5801 O 575.141 2.93805 2.894 0
M  V30 5802 H 574.482 0.610585 0.260925 0
M  V30 5803 H 577.012 2.037 0.191729 0
M  V30 5804 H 577.022 3.43749 2.19774 0
M  V30 5805 H 575.697 3.98671 1.18468 0
M  V30 5806 H 574.274 2.74153 2.52774 0
M  V30 5807 N 576.459 -0.456382 1.50847 0
M  V30 5808 C 577.707 -1.20497 1.62249 0
M  V30 5809 C 578.028 -1.92156 0.331839 0
M  V30 5810 O 577.298 -1.84751 -0.651443 0
M  V30 5811 H 575.878 -0.447775 0.597918 0
M  V30 5812 H 578.54 -0.525099 1.87693 0
M  V30 5813 H 577.636 -1.94492 2.44089 0
M  V30 5814 N 577.937 -1.40673 -0.710563 0
M  V30 5815 C 579.162 -1.42741 -1.50465 0
M  V30 5816 C 579.587 -0.0302116 -1.88076 0
M  V30 5817 O 578.945 0.962945 -1.53613 0
M  V30 5818 C 578.993 -2.32873 -2.75322 0
M  V30 5819 O 578.097 -1.77544 -3.72226 0
M  V30 5820 H 577.438 -0.485056 -0.45345 0
M  V30 5821 H 579.968 -1.84961 -0.874681 0
M  V30 5822 H 579.978 -2.48233 -3.23797 0
M  V30 5823 H 578.653 -3.34401 -2.47283 0
M  V30 5824 H 577.23 -1.71556 -3.31093 0
M  V30 5825 N 579.415 0.9433 -1.26252 0
M  V30 5826 C 580.64 1.72898 -1.14547 0
M  V30 5827 C 581.065 1.85761 0.295743 0
M  V30 5828 O 580.423 1.3463 1.21427 0
M  V30 5829 C 580.471 3.11471 -1.8171 0
M  V30 5830 O 579.575 3.97336 -1.10445 0
M  V30 5831 H 578.916 0.530555 -0.399259 0
M  V30 5832 H 581.446 1.18159 -1.67032 0
M  V30 5833 H 581.456 3.61872 -1.88449 0
M  V30 5834 H 580.131 3.01425 -2.86558 0
M  V30 5835 H 578.708 3.55788 -1.11666 0
M  V30 5836 N 580.893 1.08022 1.14757 0
M  V30 5837 C 581.826 0.650738 2.18725 0
M  V30 5838 C 582.804 -0.335496 1.59101 0
M  V30 5839 O 583.988 -0.240295 1.86962 0
M  V30 5840 C 581.115 -0.0434377 3.38672 0
M  V30 5841 C 580.161 0.90232 4.16846 0
M  V30 5842 S 580.994 2.40693 4.78359 0
M  V30 5843 C 582.15 1.72475 6.01667 0
M  V30 5844 H 582.383 1.53152 2.54817 0
M  V30 5845 H 579.916 0.894823 1.25826 0
M  V30 5846 H 581.874 -0.437684 4.0816 0
M  V30 5847 H 580.535 -0.900659 3.0091 0
M  V30 5848 H 579.728 0.363445 5.02688 0
M  V30 5849 H 579.33 1.23728 3.52941 0
M  V30 5850 H 581.622 1.0404 6.69464 0
M  V30 5851 H 582.565 2.56175 6.60136 0
M  V30 5852 H 582.973 1.19979 5.51602 0
M  V30 5853 N 582.371 -1.3172 0.865308 0
M  V30 5854 C 583.319 -2.30569 0.306674 0
M  V30 5855 C 584.313 -1.59317 -0.575724 0
M  V30 5856 O 585.519 -1.73961 -0.462343 0
M  V30 5857 H 581.894 -0.747681 0.0804834 0
M  V30 5858 H 583.865 -2.75165 1.15441 0
M  V30 5859 C 582.614 -3.44358 -0.480952 0
M  V30 5860 H 581.937 -3.99354 0.18876 0
M  V30 5861 H 583.377 -4.15652 -0.837241 0
M  V30 5862 C 581.836 -2.92574 -1.67039 0
M  V30 5863 O 582.366 -2.90954 -2.76964 0
M  V30 5864 N 580.572 -2.48835 -1.50097 0
M  V30 5865 H 580.119 -2.50353 -0.606738 0
M  V30 5866 H 580.077 -2.14543 -2.29823 0
M  V30 5867 N 583.85 -0.624285 -1.44708 0
M  V30 5868 C 584.798 0.0969952 -2.32398 0
M  V30 5869 C 585.792 0.842762 -1.46949 0
M  V30 5870 O 586.998 0.756436 -1.63334 0
M  V30 5871 H 583.373 0.0501306 -0.750327 0
M  V30 5872 H 585.344 -0.660767 -2.90992 0
M  V30 5873 C 584.093 1.06967 -3.30837 0
M  V30 5874 H 583.416 0.505242 -3.96595 0
M  V30 5875 H 584.856 1.54397 -3.94889 0
M  V30 5876 C 583.315 2.15153 -2.5925 0
M  V30 5877 O 583.845 3.23139 -2.3863 0
M  V30 5878 N 582.051 1.90898 -2.19103 0
M  V30 5879 H 581.598 1.03086 -2.36074 0
M  V30 5880 H 581.556 2.63485 -1.71531 0
M  V30 5881 N 585.328 1.53329 -0.364422 0
M  V30 5882 C 586.291 2.24323 0.470292 0
M  V30 5883 C 587.291 1.25068 1.01067 0
M  V30 5884 O 588.481 1.49354 0.896605 0
M  V30 5885 C 585.613 2.97908 1.65722 0
M  V30 5886 H 586.806 2.9952 -0.150917 0
M  V30 5887 H 584.359 1.55868 -0.116092 0
M  V30 5888 H 585.094 2.2695 2.31655 0
M  V30 5889 H 584.879 3.70732 1.27671 0
M  V30 5890 H 586.369 3.5188 2.24878 0
M  V30 5891 N 586.806 0.0935595 1.57322 0
M  V30 5892 C 588.054 -0.569383 1.93913 0
M  V30 5893 C 588.375 -1.68817 0.976009 0
M  V30 5894 O 587.645 -1.9588 0.0278099 0
M  V30 5895 H 586.225 -0.21332 0.715894 0
M  V30 5896 H 588.887 0.156531 1.9427 0
M  V30 5897 H 587.983 -0.980577 2.96296 0
M  V30 5898 N 588.284 -1.56567 -0.180126 0
M  V30 5899 C 589.509 -1.85975 -0.918041 0
M  V30 5900 C 589.934 -0.678888 -1.75422 0
M  V30 5901 O 589.292 0.372168 -1.77439 0
M  V30 5902 C 589.34 -3.13731 -1.77779 0
M  V30 5903 O 588.444 -2.95335 -2.87838 0
M  V30 5904 H 587.785 -0.61196 -0.257683 0
M  V30 5905 H 590.315 -2.03798 -0.180923 0
M  V30 5906 H 590.325 -3.4491 -2.17948 0
M  V30 5907 H 589 -3.99293 -1.16352 0
M  V30 5908 H 587.577 -2.7549 -2.51316 0
M  V30 5909 N 589.762 0.448376 -1.51087 0
M  V30 5910 C 590.725 1.52588 -1.71025 0
M  V30 5911 C 591.725 1.49958 -0.580442 0
M  V30 5912 O 592.915 1.52176 -0.847833 0
M  V30 5913 C 590.047 2.92163 -1.75652 0
M  V30 5914 H 591.24 1.36218 -2.67179 0
M  V30 5915 H 588.793 0.676313 -1.4091 0
M  V30 5916 H 589.528 3.13951 -0.812724 0
M  V30 5917 H 589.313 2.95478 -2.57751 0
M  V30 5918 H 590.803 3.70349 -1.92953 0
M  V30 5919 N 591.24 1.41047 0.703093 0
M  V30 5920 C 592.187 1.42302 1.81711 0
M  V30 5921 C 593.157 0.278336 1.63751 0
M  V30 5922 O 594.342 0.478266 1.84709 0
M  V30 5923 C 591.482 1.30362 3.19531 0
M  V30 5924 C 590.595 2.54638 3.48975 0
M  V30 5925 C 589.73 2.35047 4.76368 0
M  V30 5926 C 588.769 3.54837 4.98756 0
M  V30 5927 N 587.906 3.34363 6.1737 0
M  V30 5928 H 592.746 2.37516 1.79973 0
M  V30 5929 H 590.283 1.1795 0.878983 0
M  V30 5930 H 592.241 1.21443 3.99134 0
M  V30 5931 H 590.871 0.387602 3.20464 0
M  V30 5932 H 589.923 2.74037 2.63833 0
M  V30 5933 H 591.235 3.43766 3.61423 0
M  V30 5934 H 590.389 2.23552 5.64012 0
M  V30 5935 H 589.128 1.43363 4.66153 0
M  V30 5936 H 588.133 3.66795 4.09563 0
M  V30 5937 H 589.358 4.47464 5.10835 0
M  V30 5938 H 587.304 2.45373 6.08382 0
M  V30 5939 H 587.221 4.17063 6.30551 0
M  V30 5940 H 588.489 3.26626 7.07768 0
M  V30 5941 N 592.718 -0.936591 1.26751 0
M  V30 5942 C 593.665 -2.03597 1.08706 0
M  V30 5943 C 594.635 -1.66097 -0.00926542 0
M  V30 5944 O 595.82 -1.90199 0.151377 0
M  V30 5945 C 592.96 -3.3727 0.73094 0
M  V30 5946 C 592.073 -3.87778 1.90399 0
M  V30 5947 C 591.208 -5.09859 1.49056 0
M  V30 5948 C 590.247 -5.5264 2.63164 0
M  V30 5949 N 589.384 -6.65921 2.22471 0
M  V30 5950 H 594.224 -2.18364 2.02784 0
M  V30 5951 H 591.761 -1.06985 1.00958 0
M  V30 5952 H 593.719 -4.14128 0.505328 0
M  V30 5953 H 592.349 -3.22337 -0.172868 0
M  V30 5954 H 591.401 -3.07279 2.2424 0
M  V30 5955 H 592.713 -4.15464 2.76028 0
M  V30 5956 H 591.867 -5.9419 1.22567 0
M  V30 5957 H 590.606 -4.8393 0.60524 0
M  V30 5958 H 589.611 -4.66863 2.90377 0
M  V30 5959 H 590.836 -5.80568 3.52303 0
M  V30 5960 H 588.782 -6.41667 1.36379 0
M  V30 5961 H 588.699 -6.93216 3.01641 0
M  V30 5962 H 589.967 -7.53616 1.99205 0
M  V30 5963 N 594.196 -1.08629 -1.14182 0
M  V30 5964 C 595.473 -0.73002 -1.81466 0
M  V30 5965 C 595.853 0.785996 -1.95922 0
M  V30 5966 O 595.201 1.70535 -1.52086 0
M  V30 5967 C 595.411 -1.45957 -3.17014 0
M  V30 5968 C 596.759 -1.62008 -3.92477 0
M  V30 5969 O 597.783 -1.42141 -3.26611 0
M  V30 5970 O 596.642 -1.94806 -5.106 0
M  V30 5971 H 593.736 -0.261307 -0.784632 0
M  V30 5972 H 596.282 -1.188 -1.2118 0
M  V30 5973 H 595.054 -2.49221 -3.01669 0
M  V30 5974 H 594.677 -0.993222 -3.84995 0
M  V30 5975 N 595.674 1.31259 -0.872281 0
M  V30 5976 C 596.584 2.32221 -0.333255 0
M  V30 5977 C 597.6 1.6481 0.558013 0
M  V30 5978 O 598.776 1.96212 0.454175 0
M  V30 5979 C 595.841 3.43708 0.454479 0
M  V30 5980 C 594.902 4.26774 -0.465024 0
M  V30 5981 C 594.135 5.32937 0.28521 0
M  V30 5982 O 594.358 5.49968 1.513 0
M  V30 5983 O 593.292 6.00834 -0.358126 0
M  V30 5984 H 597.118 2.80252 -1.17016 0
M  V30 5985 H 594.703 1.352 -0.635724 0
M  V30 5986 H 596.585 4.11656 0.900963 0
M  V30 5987 H 595.26 2.97836 1.26789 0
M  V30 5988 H 594.167 3.61571 -0.960055 0
M  V30 5989 H 595.5 4.76217 -1.2441 0
M  V30 5990 N 597.152 0.631951 1.44375 0
M  V30 5991 C 598.38 0.143867 2.06399 0
M  V30 5992 C 598.795 -1.18188 1.47231 0
M  V30 5993 O 598.152 -1.72511 0.595498 0
M  V30 5994 C 598.203 0.0238253 3.61492 0
M  V30 5995 O 597.924 1.29715 4.18456 0
M  V30 5996 C 599.425 -0.492856 4.40552 0
M  V30 5997 H 596.645 0.0800542 0.666207 0
M  V30 5998 H 599.189 0.866586 1.85231 0
M  V30 5999 H 597.344 -0.649338 3.81919 0
M  V30 6000 H 597.758 1.14252 5.11905 0
M  V30 6001 H 599.232 -0.525861 5.49489 0
M  V30 6002 H 599.709 -1.52006 4.12057 0
M  V30 6003 H 600.315 0.147085 4.25046 0
M  V30 6004 N 598.631 -1.53133 0.372548 0
M  V30 6005 C 599.594 -2.24569 -0.458389 0
M  V30 6006 C 600.594 -1.25603 -1.00402 0
M  V30 6007 O 601.784 -1.49827 -0.888672 0
M  V30 6008 C 598.916 -2.98783 -1.6414 0
M  V30 6009 H 600.109 -2.99436 0.166799 0
M  V30 6010 H 597.662 -1.55805 0.124357 0
M  V30 6011 H 598.397 -2.28176 -2.30448 0
M  V30 6012 H 598.182 -3.71404 -1.25704 0
M  V30 6013 H 599.672 -3.53068 -2.23008 0
M  V30 6014 N 600.109 -0.101901 -1.5727 0
M  V30 6015 C 601.072 0.840129 -2.13247 0
M  V30 6016 C 602.072 1.20625 -1.06331 0
M  V30 6017 O 603.262 1.13456 -1.32186 0
M  V30 6018 C 600.394 2.13372 -2.65867 0
M  V30 6019 H 601.587 0.353945 -2.97804 0
M  V30 6020 H 599.14 0.147167 -1.55606 0
M  V30 6021 H 599.875 2.66461 -1.84849 0
M  V30 6022 H 599.66 1.88085 -3.44044 0
M  V30 6023 H 601.15 2.80748 -3.09145 0
M  V30 6024 N 601.587 1.56661 0.17182 0
M  V30 6025 C 602.812 1.86459 0.908165 0
M  V30 6026 C 603.237 0.688181 1.75059 0
M  V30 6027 O 602.595 -0.362753 1.77634 0
M  V30 6028 C 602.643 3.14669 1.76112 0
M  V30 6029 O 601.747 2.96858 2.86268 0
M  V30 6030 H 601.088 0.613318 0.254434 0
M  V30 6031 H 603.618 2.03892 0.170113 0
M  V30 6032 H 603.628 3.46061 2.16115 0
M  V30 6033 H 602.303 3.99905 1.14233 0
M  V30 6034 H 600.88 2.76819 2.49852 0
M  V30 6035 N 603.065 -0.440357 1.51323 0
M  V30 6036 C 604.342 -1.20109 1.5438 0
M  V30 6037 C 604.722 -2.08866 0.306303 0
M  V30 6038 O 604.07 -2.1723 -0.708773 0
M  V30 6039 C 604.28 -2.00555 2.8562 0
M  V30 6040 C 605.628 -2.577 3.37455 0
M  V30 6041 O 606.652 -2.10769 2.8715 0
M  V30 6042 O 605.511 -3.43289 4.25224 0
M  V30 6043 H 602.605 -0.546668 0.620551 0
M  V30 6044 H 605.151 -0.449672 1.63634 0
M  V30 6045 H 603.923 -1.35346 3.67147 0
M  V30 6046 H 603.546 -2.82768 2.79514 0
M  V30 6047 N 604.543 -1.41418 -0.695603 0
M  V30 6048 C 605.783 -1.42241 -1.46788 0
M  V30 6049 C 606.147 -0.0300827 -1.91976 0
M  V30 6050 O 607.348 0.0868914 -2.6866 0
M  V30 6051 C 605.619 -2.4011 -2.6473 0
M  V30 6052 S 607.178 -2.59462 -3.53871 0
M  V30 6053 H 603.996 -0.503893 -0.50161 0
M  V30 6054 H 606.598 -1.77855 -0.811654 0
M  V30 6055 H 605.302 -3.40073 -2.29736 0
M  V30 6056 H 604.833 -2.05849 -3.35246 0
M  V30 6057 H 606.848 -1.862 -4.59939 0
M  V30 6058 N 606.021 0.929856 -1.27246 0
M  V30 6059 C 606.984 2.01172 -1.09829 0
M  V30 6060 C 607.984 1.60743 -0.0429687 0
M  V30 6061 O 609.174 1.71813 -0.287373 0
M  V30 6062 C 606.306 3.34191 -0.673003 0
M  V30 6063 H 607.499 2.18054 -2.05895 0
M  V30 6064 H 605.052 1.11036 -1.10003 0
M  V30 6065 H 605.787 3.23009 0.289134 0
M  V30 6066 H 605.572 3.64892 -1.43515 0
M  V30 6067 H 607.062 4.13646 -0.573323 0
M  V30 6068 N 607.499 1.09233 1.13605 0
M  V30 6069 C 608.776 0.739633 1.81077 0
M  V30 6070 C 609.156 -0.775595 1.96336 0
M  V30 6071 O 608.504 -1.69726 1.52988 0
M  V30 6072 C 608.714 1.47636 3.16235 0
M  V30 6073 C 610.062 1.64087 3.91613 0
M  V30 6074 O 611.086 1.43871 3.25852 0
M  V30 6075 O 609.945 1.97511 5.0956 0
M  V30 6076 H 607.039 0.265464 0.783236 0
M  V30 6077 H 609.585 1.19441 1.20549 0
M  V30 6078 H 608.357 2.50818 3.00344 0
M  V30 6079 H 607.98 1.01362 3.84462 0
M  V30 6080 N 608.977 -1.30795 0.87923 0
M  V30 6081 C 610.205 -2.00527 0.509548 0
M  V30 6082 C 610.62 -1.65944 -0.90045 0
M  V30 6083 O 609.977 -0.893525 -1.5913 0
M  V30 6084 C 610.028 -3.55276 0.667943 0
M  V30 6085 O 609.749 -3.88625 2.02242 0
M  V30 6086 C 611.25 -4.4228 0.300494 0
M  V30 6087 H 608.47 -0.641261 0.197549 0
M  V30 6088 H 611.014 -1.66813 1.18295 0
M  V30 6089 H 609.169 -3.87377 0.0419843 0
M  V30 6090 H 609.583 -4.83334 2.03688 0
M  V30 6091 H 611.057 -5.50061 0.462242 0
M  V30 6092 H 611.534 -4.32556 -0.76106 0
M  V30 6093 H 612.14 -4.15613 0.902536 0
M  V30 6094 N 610.455 -0.639598 -1.44038 0
M  V30 6095 C 611.866 -0.228866 -1.85292 0
M  V30 6096 C 612.217 1.22161 -1.53529 0
M  V30 6097 O 611.342 1.93064 -0.977518 0
M  V30 6098 C 611.937 -0.408592 -3.36327 0
M  V30 6099 C 610.496 -0.0522953 -3.76364 0
M  V30 6100 C 609.643 -0.717959 -2.67844 0
M  V30 6101 H 612.594 -0.844194 -1.34384 0
M  V30 6102 H 612.615 0.349968 -3.78887 0
M  V30 6103 H 612.127 -1.46435 -3.59414 0
M  V30 6104 H 610.228 1.0014 -3.58891 0
M  V30 6105 H 610.341 -0.468261 -4.76806 0
M  V30 6106 H 608.705 -0.152459 -2.54243 0
M  V30 6107 H 609.488 -1.77648 -2.93762 0
M  V30 6108 N 611.933 1.52934 -0.380664 0
M  V30 6109 C 612.881 2.27727 0.47361 0
M  V30 6110 C 613.875 1.31288 1.0705 0
M  V30 6111 O 615.081 1.4886 1.01197 0
M  V30 6112 H 611.456 0.732189 0.171475 0
M  V30 6113 H 613.427 2.97864 -0.178785 0
M  V30 6114 C 612.176 3.0904 1.59341 0
M  V30 6115 H 611.499 3.831 1.14343 0
M  V30 6116 H 612.939 3.64527 2.16555 0
M  V30 6117 C 611.398 2.20813 2.54447 0
M  V30 6118 O 611.928 1.82907 3.57642 0
M  V30 6119 N 610.134 1.85145 2.23986 0
M  V30 6120 H 609.681 2.16169 1.40103 0
M  V30 6121 H 609.639 1.26402 2.87871 0
M  V30 6122 N 613.412 0.11024 1.57214 0
M  V30 6123 C 614.661 -0.549638 1.94067 0
M  V30 6124 C 614.974 -1.68388 0.995234 0
M  V30 6125 O 616.18 -2.40593 1.25807 0
M  V30 6126 C 614.636 -1.02912 3.44873 0
M  V30 6127 C 614.244 0.0761861 4.47935 0
M  V30 6128 C 615.988 -1.66087 3.9066 0
M  V30 6129 C 613.895 -0.419502 5.8991 0
M  V30 6130 H 612.825 -0.209092 0.724428 0
M  V30 6131 H 615.476 0.188683 1.82527 0
M  V30 6132 H 613.858 -1.82159 3.51616 0
M  V30 6133 H 615.032 0.852185 4.52851 0
M  V30 6134 H 613.347 0.614052 4.11847 0
M  V30 6135 H 615.944 -2.04272 4.94143 0
M  V30 6136 H 616.287 -2.53591 3.30148 0
M  V30 6137 H 616.82 -0.933959 3.86681 0
M  V30 6138 H 613.559 0.419277 6.54158 0
M  V30 6139 H 613.079 -1.16217 5.88433 0
M  V30 6140 H 614.758 -0.883577 6.40938 0
M  V30 6141 N 614.89 -1.56749 -0.16351 0
M  V30 6142 C 615.82 -2.00042 -1.20438 0
M  V30 6143 C 616.801 -0.877256 -1.45733 0
M  V30 6144 O 617.986 -1.1439 -1.56935 0
M  V30 6145 C 615.116 -2.36697 -2.54149 0
M  V30 6146 C 614.07 -3.52046 -2.43408 0
M  V30 6147 C 613.396 -3.74466 -3.81679 0
M  V30 6148 C 614.696 -4.85247 -1.93216 0
M  V30 6149 H 616.39 -2.87244 -0.844477 0
M  V30 6150 H 613.936 -1.38194 -0.40478 0
M  V30 6151 H 615.889 -2.65582 -3.27176 0
M  V30 6152 H 614.613 -1.46414 -2.91943 0
M  V30 6153 H 613.272 -3.23301 -1.72834 0
M  V30 6154 H 612.92 -2.81461 -4.1688 0
M  V30 6155 H 612.62 -4.52084 -3.75359 0
M  V30 6156 H 614.144 -4.0576 -4.5628 0
M  V30 6157 H 615.558 -5.12957 -2.56023 0
M  V30 6158 H 613.955 -5.66556 -1.97825 0
M  V30 6159 H 615.025 -4.7672 -0.88689 0
M  V30 6160 N 616.368 0.432326 -1.51554 0
M  V30 6161 C 617.598 1.2019 -1.68042 0
M  V30 6162 C 618.006 1.85356 -0.379434 0
M  V30 6163 O 617.349 1.71724 0.652427 0
M  V30 6164 C 617.411 2.32387 -2.74292 0
M  V30 6165 C 617.075 1.87548 -4.16743 0
M  V30 6166 C 618.072 1.37611 -5.01357 0
M  V30 6167 C 615.757 1.95087 -4.62868 0
M  V30 6168 C 617.751 0.958069 -6.30159 0
M  V30 6169 C 615.438 1.52894 -5.91664 0
M  V30 6170 C 616.436 1.03336 -6.75137 0
M  V30 6171 O 616.124 0.617435 -8.01525 0
M  V30 6172 H 615.856 0.368132 -0.56697 0
M  V30 6173 H 618.41 0.517875 -1.98764 0
M  V30 6174 H 616.64 3.04082 -2.38895 0
M  V30 6175 H 618.329 2.94235 -2.79608 0
M  V30 6176 H 619.095 1.31178 -4.66923 0
M  V30 6177 H 614.974 2.32606 -3.98015 0
M  V30 6178 H 618.518 0.570562 -6.95263 0
M  V30 6179 H 614.415 1.58999 -6.25611 0
M  V30 6180 H 615.183 0.742835 -8.15122 0
M  V30 6181 N 617.846 1.41785 0.688094 0
M  V30 6182 C 619.092 1.41753 1.4503 0
M  V30 6183 C 619.425 0.0290745 1.94178 0
M  V30 6184 O 618.7 -0.944456 1.7003 0
M  V30 6185 C 618.983 2.43069 2.65686 0
M  V30 6186 C 618.836 3.91053 2.22256 0
M  V30 6187 C 620.155 2.41543 3.67893 0
M  V30 6188 H 617.274 0.516202 0.526027 0
M  V30 6189 H 619.916 1.73111 0.783105 0
M  V30 6190 H 618.066 2.1646 3.2261 0
M  V30 6191 H 619.738 4.28594 1.70602 0
M  V30 6192 H 617.981 4.05559 1.53963 0
M  V30 6193 H 618.652 4.57501 3.08863 0
M  V30 6194 H 621.128 2.65175 3.20658 0
M  V30 6195 H 620.004 3.14434 4.49914 0
M  V30 6196 H 620.265 1.43666 4.18106 0
M  V30 6197 N 619.324 -0.923095 1.27737 0
M  V30 6198 C 620.572 -1.66797 1.14119 0
M  V30 6199 C 620.893 -1.92479 -0.312541 0
M  V30 6200 O 620.163 -1.53432 -1.218 0
M  V30 6201 H 618.743 -0.618196 0.419336 0
M  V30 6202 H 621.405 -1.10815 1.60331 0
M  V30 6203 H 620.501 -2.63424 1.67374 0
M  V30 6204 N 620.802 -1.09834 -1.13024 0
M  V30 6205 C 622.213 -0.855651 -1.65938 0
M  V30 6206 C 622.564 0.615159 -1.86307 0
M  V30 6207 O 621.689 1.47335 -1.58497 0
M  V30 6208 C 622.284 -1.5467 -3.01434 0
M  V30 6209 C 620.843 -1.35088 -3.51323 0
M  V30 6210 C 619.99 -1.6001 -2.26478 0
M  V30 6211 H 622.941 -1.25691 -0.968889 0
M  V30 6212 H 622.962 -0.982179 -3.67605 0
M  V30 6213 H 622.474 -2.61715 -2.86578 0
M  V30 6214 H 620.575 -0.30179 -3.71376 0
M  V30 6215 H 620.688 -2.0886 -4.31178 0
M  V30 6216 H 619.052 -1.02246 -2.33276 0
M  V30 6217 H 619.835 -2.68293 -2.14182 0
M  V30 6218 N 622.28 1.30327 -0.886154 0
M  V30 6219 C 623.23 2.25668 -0.325248 0
M  V30 6220 C 624.214 1.51318 0.546972 0
M  V30 6221 O 625.406 1.72623 0.391203 0
M  V30 6222 C 622.535 3.40229 0.458167 0
M  V30 6223 C 621.621 4.21933 -0.428208 0
M  V30 6224 N 622.012 4.82129 -1.52921 0
M  V30 6225 C 620.31 4.45439 -0.223535 0
M  V30 6226 C 621.011 5.43351 -2.07714 0
M  V30 6227 N 619.987 5.26002 -1.37195 0
M  V30 6228 H 623.789 2.69759 -1.1665 0
M  V30 6229 H 621.303 1.4478 -0.735691 0
M  V30 6230 H 623.3 4.07579 0.876648 0
M  V30 6231 H 621.96 2.97678 1.29684 0
M  V30 6232 H 622.971 4.81312 -1.91205 0
M  V30 6233 H 619.648 4.13481 0.577875 0
M  V30 6234 H 621.038 6.01118 -3.00178 0
M  V30 6235 N 623.758 0.647228 1.43697 0
M  V30 6236 C 624.69 -0.0866232 2.29036 0
M  V30 6237 C 625.703 -0.793051 1.42178 0
M  V30 6238 O 626.892 -0.651807 1.66174 0
M  V30 6239 C 623.992 -1.14552 3.18953 0
M  V30 6240 C 623.165 -0.518422 4.34317 0
M  V30 6241 C 622.224 -1.4734 5.05151 0
M  V30 6242 O 621.25 -0.984312 5.60625 0
M  V30 6243 N 622.452 -2.8075 5.08094 0
M  V30 6244 H 625.217 0.645834 2.92659 0
M  V30 6245 H 622.778 0.489567 1.54321 0
M  V30 6246 H 624.77 -1.78505 3.63205 0
M  V30 6247 H 623.34 -1.78001 2.56971 0
M  V30 6248 H 622.56 0.300079 3.93056 0
M  V30 6249 H 623.848 -0.080401 5.08736 0
M  V30 6250 H 623.246 -3.23052 4.64386 0
M  V30 6251 H 621.803 -3.40022 5.56083 0
M  V30 6252 N 625.236 -1.5273 0.388769 0
M  V30 6253 C 626.461 -2.0647 -0.19621 0
M  V30 6254 C 626.886 -1.25865 -1.39784 0
M  V30 6255 O 626.244 -0.283562 -1.79069 0
M  V30 6256 C 626.292 -3.56456 -0.5451 0
M  V30 6257 O 625.396 -3.78426 -1.63912 0
M  V30 6258 H 624.737 -0.663599 -0.023067 0
M  V30 6259 H 627.267 -1.96898 0.556084 0
M  V30 6260 H 627.277 -3.99888 -0.809557 0
M  V30 6261 H 625.952 -4.14561 0.333417 0
M  V30 6262 H 624.529 -3.46884 -1.36842 0
M  V30 6263 N 626.714 -0.118576 -1.57153 0
M  V30 6264 C 628.13 0.238014 -1.57815 0
M  V30 6265 C 628.33 1.66747 -1.13127 0
M  V30 6266 O 627.386 2.38867 -0.818462 0
M  V30 6267 C 628.699 0.00508207 -3.007 0
M  V30 6268 C 630.247 0.0710139 -3.12919 0
M  V30 6269 C 630.722 -0.13422 -4.57803 0
M  V30 6270 N 632.213 -0.0801755 -4.63131 0
M  V30 6271 C 632.948 -0.213885 -5.73001 0
M  V30 6272 N 632.444 -0.403742 -6.91623 0
M  V30 6273 N 634.237 -0.15349 -5.6189 0
M  V30 6274 H 626.388 -1.05226 -1.84503 0
M  V30 6275 H 628.651 -0.414318 -0.852669 0
M  V30 6276 H 628.357 -0.983125 -3.3768 0
M  V30 6277 H 628.231 0.73714 -3.69927 0
M  V30 6278 H 630.618 1.04975 -2.75798 0
M  V30 6279 H 630.699 -0.692918 -2.46236 0
M  V30 6280 H 630.343 -1.10992 -4.95624 0
M  V30 6281 H 630.273 0.649692 -5.22577 0
M  V30 6282 H 632.764 0.0630689 -3.77847 0
M  V30 6283 H 633.077 -0.496645 -7.71202 0
M  V30 6284 H 631.422 -0.43971 -6.93608 0
M  V30 6285 H 634.613 -0.00613174 -4.681 0
M  V30 6286 H 634.786 -0.261138 -6.47474 0
M  V30 6287 N 628.193 1.56834 0.155195 0
M  V30 6288 C 629.156 1.96748 1.17571 0
M  V30 6289 C 630.156 0.853006 1.3631 0
M  V30 6290 O 631.346 1.11978 1.33441 0
M  V30 6291 C 628.478 2.27631 2.53765 0
M  V30 6292 H 629.671 2.88085 0.833498 0
M  V30 6293 H 627.224 1.51141 0.398242 0
M  V30 6294 H 627.959 1.39059 2.92973 0
M  V30 6295 H 627.744 3.0888 2.41527 0
M  V30 6296 H 629.234 2.59377 3.27282 0
M  V30 6297 N 629.671 -0.424282 1.51781 0
M  V30 6298 C 631.087 -0.761768 1.40247 0
M  V30 6299 C 631.287 -1.95324 0.495041 0
M  V30 6300 O 630.343 -2.5246 -0.0448949 0
M  V30 6301 C 631.656 -1.0299 2.82513 0
M  V30 6302 C 633.204 -1.13354 2.91753 0
M  V30 6303 C 633.679 -1.43453 4.34954 0
M  V30 6304 N 635.17 -1.5035 4.3812 0
M  V30 6305 C 635.905 -1.75236 5.45967 0
M  V30 6306 N 635.401 -1.97827 6.63955 0
M  V30 6307 N 637.194 -1.77126 5.33463 0
M  V30 6308 H 629.345 0.360228 2.09323 0
M  V30 6309 H 631.608 0.0988128 0.942836 0
M  V30 6310 H 631.314 -0.226961 3.50967 0
M  V30 6311 H 631.188 -1.95411 3.22637 0
M  V30 6312 H 633.575 -1.92709 2.23489 0
M  V30 6313 H 633.656 -0.188041 2.55108 0
M  V30 6314 H 633.3 -0.646209 5.03772 0
M  V30 6315 H 633.23 -2.3923 4.69123 0
M  V30 6316 H 635.721 -1.34742 3.53062 0
M  V30 6317 H 636.034 -2.16223 7.41935 0
M  V30 6318 H 634.379 -1.95123 6.67047 0
M  V30 6319 H 637.57 -1.59005 4.40267 0
M  V30 6320 H 637.743 -1.96182 6.17589 0
M  V30 6321 N 631.149 -1.42148 -0.680565 0
M  V30 6322 C 632.565 -1.24947 -0.992995 0
M  V30 6323 C 632.765 -0.149527 -2.00944 0
M  V30 6324 O 631.821 0.481145 -2.47873 0
M  V30 6325 C 633.134 -2.60426 -1.5033 0
M  V30 6326 C 634.682 -2.67733 -1.62137 0
M  V30 6327 C 635.157 -4.03564 -2.16565 0
M  V30 6328 N 636.648 -4.05488 -2.23905 0
M  V30 6329 C 637.383 -5.07401 -2.67081 0
M  V30 6330 N 636.879 -6.19698 -3.09751 0
M  V30 6331 N 638.672 -4.94758 -2.66778 0
M  V30 6332 H 630.823 -2.12399 -0.0074788 0
M  V30 6333 H 633.086 -0.94571 -0.0658529 0
M  V30 6334 H 632.792 -3.41743 -0.830947 0
M  V30 6335 H 632.666 -2.83949 -2.483 0
M  V30 6336 H 635.053 -1.86765 -2.2848 0
M  V30 6337 H 635.134 -2.48004 -0.626713 0
M  V30 6338 H 634.778 -4.84987 -1.50833 0
M  V30 6339 H 634.708 -4.20641 -3.1681 0
M  V30 6340 H 637.199 -3.24415 -1.93812 0
M  V30 6341 H 637.512 -6.93318 -3.41365 0
M  V30 6342 H 635.857 -6.23212 -3.07623 0
M  V30 6343 H 639.048 -4.06105 -2.32801 0
M  V30 6344 H 639.221 -5.74317 -3.00107 0
M  V30 6345 N 632.627 0.916307 -1.28225 0
M  V30 6346 C 633.577 2.00488 -1.08574 0
M  V30 6347 C 634.561 1.60897 -0.0101874 0
M  V30 6348 O 635.753 1.75499 -0.230034 0
M  V30 6349 C 632.882 3.35076 -0.746943 0
M  V30 6350 C 631.968 3.81077 -1.86121 0
M  V30 6351 N 632.359 3.99475 -3.10247 0
M  V30 6352 C 630.657 4.10212 -1.75048 0
M  V30 6353 C 631.358 4.37965 -3.82834 0
M  V30 6354 N 630.334 4.4608 -3.10667 0
M  V30 6355 H 634.136 2.1276 -2.02757 0
M  V30 6356 H 631.65 1.10397 -1.19107 0
M  V30 6357 H 633.647 4.12743 -0.587252 0
M  V30 6358 H 632.307 3.2416 0.187146 0
M  V30 6359 H 633.318 3.85466 -3.45885 0
M  V30 6360 H 629.995 4.07947 -0.887999 0
M  V30 6361 H 631.385 4.60183 -4.89572 0
M  V30 6362 N 634.105 1.10431 1.1244 0
M  V30 6363 C 635.068 0.756542 2.16354 0
M  V30 6364 C 636.068 -0.21899 1.59302 0
M  V30 6365 O 637.258 0.00415969 1.742 0
M  V30 6366 C 634.39 0.120612 3.40687 0
M  V30 6367 H 635.583 1.67696 2.48632 0
M  V30 6368 H 633.136 0.904832 1.27446 0
M  V30 6369 H 633.871 -0.810536 3.14008 0
M  V30 6370 H 633.656 0.822693 3.83372 0
M  V30 6371 H 635.146 -0.106945 4.17463 0
M  V30 6372 N 635.583 -1.29855 0.893053 0
M  V30 6373 C 636.832 -1.95104 0.511597 0
M  V30 6374 C 637.145 -1.71226 -0.945567 0
M  V30 6375 O 638.351 -2.30525 -1.43424 0
M  V30 6376 C 636.807 -3.49374 0.864034 0
M  V30 6377 C 636.415 -3.82061 2.33952 0
M  V30 6378 C 638.159 -4.20894 0.552167 0
M  V30 6379 C 636.066 -5.29546 2.63316 0
M  V30 6380 H 634.996 -0.73029 0.187597 0
M  V30 6381 H 637.647 -1.47682 1.08914 0
M  V30 6382 H 636.029 -3.95413 0.215493 0
M  V30 6383 H 637.203 -3.46904 3.03305 0
M  V30 6384 H 635.518 -3.23665 2.61973 0
M  V30 6385 H 638.115 -5.29435 0.748489 0
M  V30 6386 H 638.458 -4.13178 -0.508924 0
M  V30 6387 H 638.991 -3.80564 1.15825 0
M  V30 6388 H 635.73 -5.4232 3.68197 0
M  V30 6389 H 635.25 -5.65974 1.9858 0
M  V30 6390 H 636.929 -5.97068 2.49236 0
M  V30 6391 N 637.061 -0.65484 -1.43351 0
M  V30 6392 C 637.991 0.0221809 -2.33489 0
M  V30 6393 C 638.972 0.810272 -1.49561 0
M  V30 6394 O 640.157 0.771426 -1.78221 0
M  V30 6395 C 637.287 0.988117 -3.32947 0
M  V30 6396 C 636.241 0.310026 -4.26876 0
M  V30 6397 C 635.567 1.38752 -5.16384 0
M  V30 6398 C 636.867 -0.798589 -5.16159 0
M  V30 6399 H 638.561 -0.730571 -2.9035 0
M  V30 6400 H 636.107 -0.352773 -1.39612 0
M  V30 6401 H 638.06 1.47067 -3.94904 0
M  V30 6402 H 636.784 1.77205 -2.74346 0
M  V30 6403 H 635.443 -0.152097 -3.66284 0
M  V30 6404 H 635.091 2.16293 -4.54121 0
M  V30 6405 H 634.791 0.939051 -5.80048 0
M  V30 6406 H 636.315 1.87141 -5.81215 0
M  V30 6407 H 637.729 -0.398126 -5.71916 0
M  V30 6408 H 636.126 -1.17163 -5.88552 0
M  V30 6409 H 637.196 -1.65588 -4.55751 0
M  V30 6410 N 638.539 1.52521 -0.396863 0
M  V30 6411 C 639.486 2.26671 0.434624 0
M  V30 6412 C 640.456 1.28584 1.05144 0
M  V30 6413 O 641.641 1.57426 1.07804 0
M  V30 6414 C 638.781 3.08234 1.55196 0
M  V30 6415 C 637.894 4.21261 0.957262 0
M  V30 6416 C 637.029 4.90205 2.04627 0
M  V30 6417 C 636.068 5.95213 1.42787 0
M  V30 6418 N 635.205 6.57723 2.45651 0
M  V30 6419 H 640.045 2.973 -0.204139 0
M  V30 6420 H 637.582 1.46669 -0.112505 0
M  V30 6421 H 639.54 3.53819 2.2106 0
M  V30 6422 H 638.17 2.398 2.16092 0
M  V30 6423 H 637.222 3.79935 0.188005 0
M  V30 6424 H 638.534 4.96624 0.465416 0
M  V30 6425 H 637.688 5.39133 2.78246 0
M  V30 6426 H 636.427 4.14383 2.57174 0
M  V30 6427 H 635.432 5.45616 0.676968 0
M  V30 6428 H 636.657 6.72972 0.910255 0
M  V30 6429 H 634.603 5.84737 2.97353 0
M  V30 6430 H 634.52 7.28723 2.01243 0
M  V30 6431 H 635.788 7.11293 3.18876 0
M  V30 6432 N 640.017 0.126909 1.57088 0
M  V30 6433 C 640.98 -0.806097 2.14557 0
M  V30 6434 C 641.98 -1.18918 1.08236 0
M  V30 6435 O 643.17 -1.11339 1.33975 0
M  V30 6436 C 640.302 -2.09116 2.69227 0
M  V30 6437 H 641.495 -0.306522 2.98329 0
M  V30 6438 H 639.048 -0.122393 1.5582 0
M  V30 6439 H 639.783 -2.63486 1.89065 0
M  V30 6440 H 639.568 -1.82588 3.46993 0
M  V30 6441 H 641.058 -2.75794 3.13572 0
M  V30 6442 N 641.495 -1.56914 -0.146875 0
M  V30 6443 C 642.442 -1.98275 -1.18134 0
M  V30 6444 C 643.412 -0.850367 -1.42681 0
M  V30 6445 O 644.597 -1.11244 -1.55014 0
M  V30 6446 C 641.737 -2.36861 -2.5098 0
M  V30 6447 C 640.85 -3.63391 -2.33605 0
M  V30 6448 C 639.985 -3.91079 -3.59486 0
M  V30 6449 C 639.024 -5.10879 -3.37149 0
M  V30 6450 N 638.161 -5.34577 -4.55161 0
M  V30 6451 H 643.001 -2.8645 -0.821622 0
M  V30 6452 H 640.538 -1.41718 -0.394248 0
M  V30 6453 H 642.496 -2.57262 -3.28439 0
M  V30 6454 H 641.126 -1.51766 -2.84898 0
M  V30 6455 H 640.178 -3.50766 -1.47199 0
M  V30 6456 H 641.49 -4.51007 -2.13059 0
M  V30 6457 H 640.644 -4.11979 -4.45374 0
M  V30 6458 H 639.383 -3.01885 -3.83036 0
M  V30 6459 H 638.388 -4.89853 -2.49649 0
M  V30 6460 H 639.613 -6.01626 -3.14997 0
M  V30 6461 H 637.559 -4.48337 -4.78884 0
M  V30 6462 H 637.476 -6.16463 -4.37618 0
M  V30 6463 H 638.744 -5.59975 -5.42263 0
M  V30 6464 N 642.974 0.416227 -1.52004 0
M  V30 6465 C 644.221 1.16383 -1.65714 0
M  V30 6466 C 644.549 1.9068 -0.383594 0
M  V30 6467 O 643.804 1.85174 0.633185 0
M  V30 6468 C 644.103 2.18923 -2.82502 0
M  V30 6469 C 643.769 1.61485 -4.20991 0
M  V30 6470 C 642.431 1.45545 -4.58661 0
M  V30 6471 C 644.783 1.19468 -5.07323 0
M  V30 6472 C 642.111 0.860937 -5.80349 0
M  V30 6473 C 644.463 0.614386 -6.29609 0
M  V30 6474 C 643.127 0.442056 -6.66035 0
M  V30 6475 H 642.397 0.425875 -0.606392 0
M  V30 6476 H 645.044 0.45199 -1.8609 0
M  V30 6477 H 643.349 2.96225 -2.56433 0
M  V30 6478 H 645.046 2.76628 -2.90307 0
M  V30 6479 H 641.636 1.74873 -3.91302 0
M  V30 6480 H 645.82 1.30596 -4.78809 0
M  V30 6481 H 641.076 0.715372 -6.072 0
M  V30 6482 H 645.25 0.280393 -6.95835 0
M  V30 6483 H 642.877 -0.0207218 -7.60197 0
M  V30 6484 N 644.452 1.42507 0.673017 0
M  V30 6485 C 645.729 1.33554 1.42908 0
M  V30 6486 C 646.109 -0.0262211 2.11084 0
M  V30 6487 O 645.457 -1.04181 2.03368 0
M  V30 6488 C 645.667 2.50498 2.43006 0
M  V30 6489 C 647.015 2.92694 3.07596 0
M  V30 6490 O 648.039 2.50401 2.53333 0
M  V30 6491 O 646.898 3.65899 4.05931 0
M  V30 6492 H 643.992 0.526785 0.637516 0
M  V30 6493 H 646.538 1.54518 0.701591 0
M  V30 6494 H 645.31 3.41272 1.9144 0
M  V30 6495 H 644.933 2.3153 3.23233 0
M  V30 6496 N 645.93 -0.909495 1.28709 0
M  V30 6497 C 646.878 -2.03381 1.12866 0
M  V30 6498 C 647.872 -1.69335 0.0468074 0
M  V30 6499 O 649.078 -1.78819 0.205891 0
M  V30 6500 H 645.453 -0.666452 0.348348 0
M  V30 6501 H 647.424 -2.13885 2.08077 0
M  V30 6502 C 646.173 -3.38092 0.811742 0
M  V30 6503 H 645.496 -3.64786 1.63619 0
M  V30 6504 H 646.936 -4.17477 0.740869 0
M  V30 6505 C 645.395 -3.33395 -0.484679 0
M  V30 6506 O 645.925 -3.72089 -1.5137 0
M  V30 6507 N 644.131 -2.86491 -0.486961 0
M  V30 6508 H 643.678 -2.55199 0.350877 0
M  V30 6509 H 643.636 -2.83731 -1.3544 0
M  V30 6510 N 647.408 -1.11026 -1.11852 0
M  V30 6511 C 648.338 -0.786812 -2.19844 0
M  V30 6512 C 649.319 0.242935 -1.68356 0
M  V30 6513 O 650.504 0.107355 -1.93903 0
M  V30 6514 C 647.634 -0.224516 -3.46574 0
M  V30 6515 C 646.588 -1.18564 -4.1125 0
M  V30 6516 C 645.914 -0.484261 -5.32503 0
M  V30 6517 C 647.214 -2.53465 -4.56676 0
M  V30 6518 H 648.908 -1.68978 -2.47158 0
M  V30 6519 H 646.454 -0.813906 -1.18792 0
M  V30 6520 H 648.407 0.0139435 -4.21398 0
M  V30 6521 H 647.131 0.713722 -3.18706 0
M  V30 6522 H 645.79 -1.40966 -3.38414 0
M  V30 6523 H 645.438 0.458646 -5.00905 0
M  V30 6524 H 645.138 -1.12526 -5.76725 0
M  V30 6525 H 646.662 -0.254492 -6.10069 0
M  V30 6526 H 648.076 -2.35177 -5.22843 0
M  V30 6527 H 646.473 -3.13507 -5.11697 0
M  V30 6528 H 647.543 -3.13008 -3.70343 0
M  V30 6529 N 648.886 1.2938 -0.899927 0
M  V30 6530 C 649.834 2.29675 -0.367698 0
M  V30 6531 C 650.828 1.60787 0.533282 0
M  V30 6532 O 652.034 1.75126 0.416058 0
M  V30 6533 H 648.409 0.745284 -0.100279 0
M  V30 6534 H 650.38 2.72008 -1.22696 0
M  V30 6535 C 649.129 3.45512 0.389483 0
M  V30 6536 H 648.452 3.98713 -0.294575 0
M  V30 6537 H 649.892 4.17725 0.726744 0
M  V30 6538 C 648.351 2.969 1.59223 0
M  V30 6539 O 648.881 2.98195 2.69152 0
M  V30 6540 N 647.087 2.52728 1.43447 0
M  V30 6541 H 646.634 2.51873 0.540148 0
M  V30 6542 H 646.592 2.20561 2.24054 0
M  V30 6543 N 650.364 0.662433 1.43002 0
M  V30 6544 C 651.61 0.179857 2.02001 0
M  V30 6545 C 651.943 -1.20625 1.52195 0
M  V30 6546 O 651.218 -1.80726 0.718911 0
M  V30 6547 C 651.501 0.200845 3.59539 0
M  V30 6548 C 651.354 1.62153 4.19555 0
M  V30 6549 C 652.673 -0.457738 4.37713 0
M  V30 6550 H 649.792 0.0668305 0.733964 0
M  V30 6551 H 652.434 0.84487 1.70182 0
M  V30 6552 H 650.584 -0.365411 3.86778 0
M  V30 6553 H 652.256 2.23908 4.03315 0
M  V30 6554 H 650.499 2.16601 3.75854 0
M  V30 6555 H 651.17 1.58799 5.28665 0
M  V30 6556 H 653.646 0.0241495 4.16093 0
M  V30 6557 H 652.522 -0.412363 5.47349 0
M  V30 6558 H 652.783 -1.53336 4.14657 0
M  V30 6559 N 651.842 -1.52309 0.404946 0
M  V30 6560 C 652.752 -2.30634 -0.429555 0
M  V30 6561 C 653.768 -1.38187 -1.05737 0
M  V30 6562 O 654.944 -1.71261 -1.05979 0
M  V30 6563 C 652.009 -3.10947 -1.53339 0
M  V30 6564 C 651.07 -4.19126 -0.929065 0
M  V30 6565 C 650.303 -4.95601 -1.9803 0
M  V30 6566 O 650.526 -4.72331 -3.1978 0
M  V30 6567 O 649.46 -5.80551 -1.58886 0
M  V30 6568 H 653.286 -3.0298 0.208963 0
M  V30 6569 H 650.871 -1.4845 0.168255 0
M  V30 6570 H 652.753 -3.60974 -2.1743 0
M  V30 6571 H 651.428 -2.41399 -2.15658 0
M  V30 6572 H 650.335 -3.73257 -0.250982 0
M  V30 6573 H 651.668 -4.90955 -0.349855 0
M  V30 6574 N 653.32 -0.135238 -1.57019 0
M  V30 6575 C 654.268 0.826099 -2.17436 0
M  V30 6576 C 655.262 1.26378 -1.12805 0
M  V30 6577 O 656.468 1.23363 -1.31079 0
M  V30 6578 H 652.843 0.284568 -0.696078 0
M  V30 6579 H 654.814 0.292212 -2.96966 0
M  V30 6580 C 653.563 2.05991 -2.80112 0
M  V30 6581 H 652.886 1.73209 -3.60331 0
M  V30 6582 H 654.326 2.71225 -3.25903 0
M  V30 6583 C 652.785 2.86027 -1.78017 0
M  V30 6584 O 653.315 3.81971 -1.24344 0
M  V30 6585 N 651.521 2.50332 -1.47588 0
M  V30 6586 H 651.068 1.72377 -1.91426 0
M  V30 6587 H 651.026 3.04177 -0.795228 0
M  V30 6588 N 654.798 1.5699 0.138552 0
M  V30 6589 C 655.745 1.98899 1.17081 0
M  V30 6590 C 656.715 0.857922 1.42228 0
M  V30 6591 O 657.9 1.12065 1.54422 0
M  V30 6592 C 655.04 2.38189 2.4972 0
M  V30 6593 C 654.153 3.64624 2.31674 0
M  V30 6594 C 653.288 3.9298 3.57407 0
M  V30 6595 C 652.327 5.1266 3.34435 0
M  V30 6596 N 651.464 5.36983 4.5232 0
M  V30 6597 H 656.304 2.86881 0.80642 0
M  V30 6598 H 653.841 1.41925 0.386727 0
M  V30 6599 H 655.799 2.59 3.2707 0
M  V30 6600 H 654.429 1.53275 2.84089 0
M  V30 6601 H 653.481 3.51542 1.45337 0
M  V30 6602 H 654.793 4.52131 2.10664 0
M  V30 6603 H 653.947 4.14335 4.43183 0
M  V30 6604 H 652.686 3.03912 3.8143 0
M  V30 6605 H 651.691 4.9117 2.47048 0
M  V30 6606 H 652.916 6.03288 3.11802 0
M  V30 6607 H 650.862 4.50871 4.76499 0
M  V30 6608 H 650.779 6.18775 4.34343 0
M  V30 6609 H 652.047 5.62842 5.39285 0
M  V30 6610 N 656.276 -0.40816 1.52223 0
M  V30 6611 C 657.224 -1.51788 1.76248 0
M  V30 6612 C 658.218 -1.57264 0.629638 0
M  V30 6613 O 659.424 -1.60659 0.811704 0
M  V30 6614 H 655.799 -0.504823 0.557367 0
M  V30 6615 H 657.77 -1.2871 2.69214 0
M  V30 6616 C 656.519 -2.89145 1.93107 0
M  V30 6617 H 655.842 -2.85674 2.79697 0
M  V30 6618 H 657.282 -3.66082 2.13916 0
M  V30 6619 C 655.741 -3.29581 0.698431 0
M  V30 6620 O 656.271 -4.01479 -0.133238 0
M  V30 6621 N 654.477 -2.85651 0.53405 0
M  V30 6622 H 654.024 -2.2731 1.21194 0
M  V30 6623 H 653.982 -3.13065 -0.289387 0
M  V30 6624 N 657.755 -1.42862 -0.66545 0
M  V30 6625 C 658.702 -1.4707 -1.77874 0
M  V30 6626 C 659.672 -0.321654 -1.62956 0
M  V30 6627 O 660.857 -0.52707 -1.83376 0
M  V30 6628 C 657.997 -1.38788 -3.15962 0
M  V30 6629 C 657.11 -2.63801 -3.42101 0
M  V30 6630 C 656.245 -2.47594 -4.69969 0
M  V30 6631 C 655.284 -3.67936 -4.89172 0
M  V30 6632 N 654.421 -3.50614 -6.08288 0
M  V30 6633 H 659.261 -2.42204 -1.73613 0
M  V30 6634 H 656.798 -1.20239 -0.847401 0
M  V30 6635 H 658.756 -1.31982 -3.95773 0
M  V30 6636 H 657.386 -0.472431 -3.19324 0
M  V30 6637 H 656.438 -2.80935 -2.56475 0
M  V30 6638 H 657.75 -3.53228 -3.52181 0
M  V30 6639 H 656.904 -2.38427 -5.57886 0
M  V30 6640 H 655.643 -1.55672 -4.62188 0
M  V30 6641 H 654.648 -3.77525 -3.99694 0
M  V30 6642 H 655.873 -4.60851 -4.98792 0
M  V30 6643 H 653.819 -2.61417 -6.01662 0
M  V30 6644 H 653.736 -4.33634 -6.19272 0
M  V30 6645 H 655.004 -3.45276 -6.98859 0
M  V30 6646 N 659.233 0.902656 -1.29189 0
M  V30 6647 C 660.183 1.99326 -1.10695 0
M  V30 6648 C 661.167 1.60877 -0.0272521 0
M  V30 6649 O 662.359 1.75245 -0.248635 0
M  V30 6650 C 659.488 3.34265 -0.78244 0
M  V30 6651 C 658.574 3.79081 -1.90153 0
M  V30 6652 N 658.965 3.96162 -3.14466 0
M  V30 6653 C 657.263 4.08333 -1.79389 0
M  V30 6654 C 657.964 4.3388 -3.87458 0
M  V30 6655 N 656.94 4.42759 -3.15381 0
M  V30 6656 H 660.742 2.10597 -2.05003 0
M  V30 6657 H 658.256 1.09127 -1.20271 0
M  V30 6658 H 660.253 4.12097 -0.630996 0
M  V30 6659 H 658.913 3.2434 0.152754 0
M  V30 6660 H 659.924 3.81775 -3.49954 0
M  V30 6661 H 656.601 4.06982 -0.931217 0
M  V30 6662 H 657.991 4.54965 -4.94425 0
M  V30 6663 N 660.711 1.11618 1.11262 0
M  V30 6664 C 661.643 0.734015 2.17129 0
M  V30 6665 C 662.656 -0.235243 1.61091 0
M  V30 6666 O 663.845 -0.0178597 1.78491 0
M  V30 6667 C 660.945 0.0643682 3.38839 0
M  V30 6668 C 660.118 1.06092 4.24339 0
M  V30 6669 C 659.177 0.420482 5.24517 0
M  V30 6670 O 658.203 1.07495 5.58957 0
M  V30 6671 N 659.405 -0.815828 5.74739 0
M  V30 6672 H 662.17 1.64492 2.50524 0
M  V30 6673 H 659.731 1.00664 1.26801 0
M  V30 6674 H 661.723 -0.375851 4.02951 0
M  V30 6675 H 660.293 -0.749147 3.03491 0
M  V30 6676 H 659.513 1.67903 3.56654 0
M  V30 6677 H 660.801 1.73507 4.78302 0
M  V30 6678 H 660.199 -1.36668 5.48943 0
M  V30 6679 H 658.756 -1.199 6.40677 0
M  V30 6680 N 662.189 -1.289 0.906776 0
M  V30 6681 C 663.437 -1.94883 0.535266 0
M  V30 6682 C 663.758 -1.71784 -0.922791 0
M  V30 6683 O 663.028 -1.05359 -1.65156 0
M  V30 6684 H 661.608 -0.721109 0.194962 0
M  V30 6685 H 664.27 -1.57018 1.15461 0
M  V30 6686 H 663.366 -3.03591 0.723821 0
M  V30 6687 N 663.667 -0.670007 -1.42649 0
M  V30 6688 C 664.913 -0.190568 -2.01903 0
M  V30 6689 C 665.246 1.19817 -1.52832 0
M  V30 6690 O 664.521 1.80342 -0.728485 0
M  V30 6691 C 664.804 -0.21991 -3.59428 0
M  V30 6692 C 664.657 -1.64376 -4.18689 0
M  V30 6693 C 665.976 0.434519 -4.3795 0
M  V30 6694 H 663.095 -0.0707219 -0.733599 0
M  V30 6695 H 665.737 -0.853883 -1.69732 0
M  V30 6696 H 663.887 0.344894 -3.86966 0
M  V30 6697 H 665.559 -2.26044 -4.02122 0
M  V30 6698 H 663.802 -2.18591 -3.747 0
M  V30 6699 H 664.473 -1.61601 -5.27815 0
M  V30 6700 H 666.949 -0.0462156 -4.16074 0
M  V30 6701 H 665.825 0.38333 -5.4756 0
M  V30 6702 H 666.086 1.51135 -4.15464 0
M  V30 6703 N 665.145 1.52092 -0.413018 0
M  V30 6704 C 666.093 2.28681 0.425199 0
M  V30 6705 C 667.087 1.3353 1.04241 0
M  V30 6706 O 668.293 1.50973 0.980166 0
M  V30 6707 H 664.668 0.735661 0.155906 0
M  V30 6708 H 666.639 2.97418 -0.241926 0
M  V30 6709 C 665.388 3.1235 1.5275 0
M  V30 6710 H 664.711 3.85439 1.06191 0
M  V30 6711 H 666.151 3.69038 2.08774 0
M  V30 6712 C 664.61 2.26161 2.49706 0
M  V30 6713 O 665.14 1.90452 3.53682 0
M  V30 6714 N 663.346 1.89854 2.20008 0
M  V30 6715 H 662.893 2.19092 1.35486 0
M  V30 6716 H 662.851 1.3248 2.85125 0
M  V30 6717 N 666.623 0.143563 1.56945 0
M  V30 6718 C 667.553 -0.7936 2.196 0
M  V30 6719 C 668.534 -1.25955 1.14321 0
M  V30 6720 O 669.719 -1.31773 1.42651 0
M  V30 6721 C 666.849 -2.03424 2.81489 0
M  V30 6722 C 665.803 -1.70519 3.92565 0
M  V30 6723 C 665.129 -3.01817 4.41373 0
M  V30 6724 C 666.429 -0.95449 5.13504 0
M  V30 6725 H 668.123 -0.271423 2.98167 0
M  V30 6726 H 665.669 -0.12911 1.4342 0
M  V30 6727 H 667.622 -2.69463 3.23987 0
M  V30 6728 H 666.346 -2.58008 2.00248 0
M  V30 6729 H 665.005 -1.06859 3.5068 0
M  V30 6730 H 664.653 -3.54386 3.56959 0
M  V30 6731 H 664.353 -2.80565 5.16292 0
M  V30 6732 H 665.877 -3.68934 4.86539 0
M  V30 6733 H 667.291 -1.5169 5.52868 0
M  V30 6734 H 665.688 -0.842035 5.94163 0
M  V30 6735 H 666.758 0.0544033 4.84869 0
M  V30 6736 N 668.101 -1.57061 -0.130224 0
M  V30 6737 C 669.331 -1.88159 -0.853217 0
M  V30 6738 C 669.739 -0.731675 -1.7448 0
M  V30 6739 O 669.082 0.307035 -1.81116 0
M  V30 6740 C 669.144 -3.1415 -1.74785 0
M  V30 6741 C 668.808 -4.45202 -1.03173 0
M  V30 6742 C 669.805 -5.18526 -0.377759 0
M  V30 6743 C 667.49 -4.91912 -1.01624 0
M  V30 6744 C 669.484 -6.36775 0.282123 0
M  V30 6745 C 667.171 -6.10082 -0.352555 0
M  V30 6746 C 668.169 -6.82361 0.295483 0
M  V30 6747 O 667.857 -7.98284 0.948606 0
M  V30 6748 H 667.589 -0.627596 -0.251197 0
M  V30 6749 H 670.143 -2.05034 -0.1226 0
M  V30 6750 H 668.373 -2.93328 -2.51983 0
M  V30 6751 H 670.062 -3.31359 -2.34427 0
M  V30 6752 H 670.828 -4.83498 -0.381417 0
M  V30 6753 H 666.707 -4.35566 -1.51007 0
M  V30 6754 H 670.251 -6.93129 0.788525 0
M  V30 6755 H 666.148 -6.44569 -0.346621 0
M  V30 6756 H 666.916 -8.14054 0.851954 0
M  V30 6757 N 669.579 0.400081 -1.52437 0
M  V30 6758 C 670.828 1.14332 -1.66166 0
M  V30 6759 C 671.141 1.91419 -0.402253 0
M  V30 6760 O 672.347 2.6824 -0.419487 0
M  V30 6761 C 670.803 2.08137 -2.9361 0
M  V30 6762 C 670.411 1.36524 -4.26691 0
M  V30 6763 C 672.155 2.82664 -3.16703 0
M  V30 6764 C 670.062 2.29031 -5.45251 0
M  V30 6765 H 668.992 0.430499 -0.61902 0
M  V30 6766 H 671.643 0.407017 -1.78929 0
M  V30 6767 H 670.025 2.85358 -2.74567 0
M  V30 6768 H 671.199 0.646061 -4.56249 0
M  V30 6769 H 669.514 0.74002 -4.09771 0
M  V30 6770 H 672.111 3.52037 -4.0246 0
M  V30 6771 H 672.454 3.46122 -2.31312 0
M  V30 6772 H 672.987 2.12541 -3.36261 0
M  V30 6773 H 669.726 1.70206 -6.33017 0
M  V30 6774 H 669.246 2.98896 -5.2002 0
M  V30 6775 H 670.925 2.89359 -5.78689 0
M  V30 6776 N 671.057 1.43213 0.657864 0
M  V30 6777 C 672.004 1.48011 1.77092 0
M  V30 6778 C 672.974 0.330291 1.62783 0
M  V30 6779 O 674.159 0.536787 1.83094 0
M  V30 6780 C 671.299 1.40461 3.15222 0
M  V30 6781 C 670.412 2.65612 3.40697 0
M  V30 6782 C 669.547 2.50083 4.68649 0
M  V30 6783 C 668.586 3.70525 4.87214 0
M  V30 6784 N 667.723 3.53835 6.0642 0
M  V30 6785 H 672.563 2.43121 1.72326 0
M  V30 6786 H 670.1 1.20687 0.841013 0
M  V30 6787 H 672.058 1.34079 3.95068 0
M  V30 6788 H 670.688 0.489359 3.19069 0
M  V30 6789 H 669.74 2.82292 2.54982 0
M  V30 6790 H 671.052 3.5509 3.50303 0
M  V30 6791 H 670.206 2.41383 5.56614 0
M  V30 6792 H 668.945 1.58121 4.61356 0
M  V30 6793 H 667.95 3.79639 3.97686 0
M  V30 6794 H 669.175 4.63489 4.96341 0
M  V30 6795 H 667.121 2.64604 6.00267 0
M  V30 6796 H 667.038 4.36912 6.16963 0
M  V30 6797 H 668.306 3.48978 6.97019 0
M  V30 6798 N 672.536 -0.895792 1.29666 0
M  V30 6799 C 673.484 -2.02173 1.15017 0
M  V30 6800 C 674.478 -1.69276 0.0647651 0
M  V30 6801 O 675.684 -1.7859 0.224846 0
M  V30 6802 H 672.059 -0.662719 0.355397 0
M  V30 6803 H 674.03 -2.11666 2.10334 0
M  V30 6804 C 672.779 -3.37212 0.847555 0
M  V30 6805 H 672.102 -3.6303 1.67479 0
M  V30 6806 H 673.542 -4.16668 0.785106 0
M  V30 6807 C 672.001 -3.33891 -0.44929 0
M  V30 6808 O 672.531 -3.73673 -1.47415 0
M  V30 6809 N 670.737 -2.86991 -0.456547 0
M  V30 6810 H 670.284 -2.54813 0.377925 0
M  V30 6811 H 670.242 -2.85152 -1.32423 0
M  V30 6812 N 674.014 -1.12206 -1.10668 0
M  V30 6813 C 674.944 -0.810086 -2.18997 0
M  V30 6814 C 675.925 0.225065 -1.68604 0
M  V30 6815 O 677.11 0.086783 -1.94006 0
M  V30 6816 C 674.24 -0.261262 -3.46316 0
M  V30 6817 C 673.194 -1.2292 -4.09969 0
M  V30 6818 C 672.52 -0.540713 -5.31959 0
M  V30 6819 C 673.82 -2.58295 -4.53962 0
M  V30 6820 H 675.514 -1.7159 -2.45352 0
M  V30 6821 H 673.06 -0.82646 -1.17922 0
M  V30 6822 H 675.013 -0.0307522 -4.21389 0
M  V30 6823 H 673.737 0.679879 -3.19445 0
M  V30 6824 H 672.396 -1.44548 -3.369 0
M  V30 6825 H 672.044 0.405492 -5.01363 0
M  V30 6826 H 671.744 -1.18637 -5.75499 0
M  V30 6827 H 673.268 -0.319184 -6.09765 0
M  V30 6828 H 674.682 -2.40709 -5.20319 0
M  V30 6829 H 673.079 -3.18916 -5.08343 0
M  V30 6830 H 674.149 -3.16918 -3.67002 0
M  V30 6831 N 675.492 1.28418 -0.913599 0
M  V30 6832 C 676.769 1.89977 -0.465619 0
M  V30 6833 C 677.149 1.82813 1.05559 0
M  V30 6834 O 676.497 1.26397 1.90358 0
M  V30 6835 C 676.707 3.34492 -0.995813 0
M  V30 6836 C 678.055 4.11468 -1.04782 0
M  V30 6837 O 679.079 3.43451 -0.944445 0
M  V30 6838 O 677.938 5.33046 -1.20518 0
M  V30 6839 H 675.032 0.813734 -0.147532 0
M  V30 6840 H 677.578 1.36786 -1.00437 0
M  V30 6841 H 676.35 3.33929 -2.03978 0
M  V30 6842 H 675.973 3.95181 -0.437878 0
M  V30 6843 N 676.97 0.677563 1.42291 0
M  V30 6844 C 678.247 0.129803 1.95169 0
M  V30 6845 C 678.627 -1.35605 1.61786 0
M  V30 6846 O 677.975 -2.09361 0.915444 0
M  V30 6847 C 678.185 0.401889 3.46678 0
M  V30 6848 C 679.533 0.319889 4.23393 0
M  V30 6849 O 680.557 0.33579 3.54614 0
M  V30 6850 O 679.416 0.264459 5.4586 0
M  V30 6851 H 676.51 0.00447433 0.826988 0
M  V30 6852 H 679.056 0.752483 1.52105 0
M  V30 6853 H 677.828 1.43108 3.64192 0
M  V30 6854 H 677.451 -0.252662 3.96796 0
M  V30 6855 N 678.448 -1.51871 0.421078 0
M  V30 6856 C 679.696 -2.01539 -0.150492 0
M  V30 6857 C 680.017 -1.30803 -1.44623 0
M  V30 6858 O 679.287 -0.437568 -1.90951 0
M  V30 6859 H 677.867 -0.744698 -0.0586041 0
M  V30 6860 H 680.529 -1.8668 0.560059 0
M  V30 6861 H 679.625 -3.10264 -0.338068 0
M  V30 6862 N 679.926 -0.151884 -1.56866 0
M  V30 6863 C 681.175 0.497992 -1.95456 0
M  V30 6864 C 681.488 1.6569 -1.03953 0
M  V30 6865 O 682.694 2.37173 -1.32142 0
M  V30 6866 C 681.15 0.93732 -3.4748 0
M  V30 6867 C 680.758 -0.194921 -4.47576 0
M  V30 6868 C 682.502 1.55671 -3.94926 0
M  V30 6869 C 680.409 0.26295 -5.90815 0
M  V30 6870 H 679.339 0.189811 -0.729717 0
M  V30 6871 H 681.99 -0.237011 -1.81963 0
M  V30 6872 H 680.372 1.72773 -3.56322 0
M  V30 6873 H 681.546 -0.971951 -4.50433 0
M  V30 6874 H 679.861 -0.72303 -4.10075 0
M  V30 6875 H 682.458 1.91099 -4.99385 0
M  V30 6876 H 682.801 2.44748 -3.36755 0
M  V30 6877 H 683.334 0.831109 -3.89021 0
M  V30 6878 H 680.073 -0.592568 -6.52816 0
M  V30 6879 H 679.593 1.00575 -5.91308 0
M  V30 6880 H 681.272 0.713333 -6.43056 0
M  V30 6881 N 681.404 1.57128 0.121893 0
M  V30 6882 C 682.681 1.75664 0.860327 0
M  V30 6883 C 683.061 0.726585 1.98202 0
M  V30 6884 O 682.409 -0.24999 2.27128 0
M  V30 6885 C 682.619 3.20571 1.37968 0
M  V30 6886 C 683.967 3.82988 1.83317 0
M  V30 6887 O 684.991 3.24156 1.47654 0
M  V30 6888 O 683.85 4.86393 2.49168 0
M  V30 6889 H 680.944 0.719153 0.408348 0
M  V30 6890 H 683.49 1.6937 0.105859 0
M  V30 6891 H 682.262 3.87056 0.57477 0
M  V30 6892 H 681.885 3.31392 2.19694 0
M  V30 6893 N 682.882 -0.391992 1.52647 0
M  V30 6894 C 684.159 -1.15136 1.58123 0
M  V30 6895 C 684.539 -2.07786 0.372597 0
M  V30 6896 O 683.887 -2.19374 -0.639304 0
M  V30 6897 C 684.097 -1.91367 2.91856 0
M  V30 6898 C 685.445 -2.46833 3.45483 0
M  V30 6899 O 686.469 -2.01527 2.9371 0
M  V30 6900 O 685.328 -3.29587 4.3593 0
M  V30 6901 H 682.422 -0.526649 0.637629 0
M  V30 6902 H 684.968 -0.397386 1.64982 0
M  V30 6903 H 683.74 -1.23597 3.71268 0
M  V30 6904 H 683.363 -2.73732 2.88369 0
M  V30 6905 N 684.36 -1.4356 -0.65026 0
M  V30 6906 C 685.609 -1.44619 -1.406 0
M  V30 6907 C 685.922 -0.0752645 -1.95455 0
M  V30 6908 O 687.128 0.0366832 -2.71475 0
M  V30 6909 C 685.584 -2.54511 -2.54465 0
M  V30 6910 C 685.192 -3.97723 -2.06204 0
M  V30 6911 C 686.936 -2.64768 -3.31811 0
M  V30 6912 C 684.843 -4.99075 -3.17298 0
M  V30 6913 H 683.773 -0.537983 -0.52829 0
M  V30 6914 H 686.424 -1.69559 -0.701561 0
M  V30 6915 H 684.806 -2.22777 -3.27393 0
M  V30 6916 H 685.98 -4.38932 -1.40267 0
M  V30 6917 H 684.295 -3.91538 -1.41729 0
M  V30 6918 H 686.892 -3.37664 -4.14593 0
M  V30 6919 H 687.235 -1.69936 -3.80036 0
M  V30 6920 H 687.768 -2.95817 -2.65964 0
M  V30 6921 H 684.507 -5.95469 -2.74038 0
M  V30 6922 H 684.027 -4.62476 -3.81937 0
M  V30 6923 H 685.706 -5.21913 -3.82382 0
M  V30 6924 N 685.838 0.888903 -1.30139 0
M  V30 6925 C 686.771 1.99655 -1.10514 0
M  V30 6926 C 687.749 1.62594 -0.0138934 0
M  V30 6927 O 688.933 1.87762 -0.166689 0
M  V30 6928 C 686.06 3.31708 -0.684655 0
M  V30 6929 C 685.106 3.87755 -1.77619 0
M  V30 6930 S 685.939 4.15532 -3.37777 0
M  V30 6931 C 687.095 5.5061 -2.97622 0
M  V30 6932 H 687.328 2.15996 -2.04287 0
M  V30 6933 H 684.861 1.03682 -1.14409 0
M  V30 6934 H 686.819 4.08039 -0.448782 0
M  V30 6935 H 685.48 3.1323 0.233648 0
M  V30 6936 H 684.673 4.83164 -1.43417 0
M  V30 6937 H 684.275 3.18149 -1.96614 0
M  V30 6938 H 686.567 6.31518 -2.45338 0
M  V30 6939 H 687.51 5.89747 -3.91924 0
M  V30 6940 H 687.918 5.12983 -2.35603 0
M  V30 6941 N 687.317 1.12792 1.10072 0
M  V30 6942 C 688.247 0.821688 2.18565 0
M  V30 6943 C 689.228 -0.21612 1.68721 0
M  V30 6944 O 690.413 -0.0764932 1.94049 0
M  V30 6945 C 687.543 0.279624 3.46172 0
M  V30 6946 C 686.497 1.25092 4.09312 0
M  V30 6947 C 685.823 0.568916 5.31665 0
M  V30 6948 C 687.123 2.60699 4.52585 0
M  V30 6949 H 688.817 1.72888 2.44438 0
M  V30 6950 H 686.363 0.832702 1.17482 0
M  V30 6951 H 688.316 0.053099 4.21367 0
M  V30 6952 H 687.04 -0.662929 3.19801 0
M  V30 6953 H 685.699 1.46332 3.36129 0
M  V30 6954 H 685.347 -0.378898 5.01571 0
M  V30 6955 H 685.047 1.21687 5.74862 0
M  V30 6956 H 686.571 0.351517 6.09587 0
M  V30 6957 H 687.985 2.43465 5.19035 0
M  V30 6958 H 686.382 3.21608 5.06644 0
M  V30 6959 H 687.452 3.1886 3.65317 0
M  V30 6960 N 688.795 -1.27931 0.920396 0
M  V30 6961 C 690.211 -1.47085 0.619537 0
M  V30 6962 C 690.411 -1.83463 -0.833291 0
M  V30 6963 O 689.467 -1.94363 -1.61181 0
M  V30 6964 C 690.78 -2.56878 1.56314 0
M  V30 6965 C 692.328 -2.70743 1.57058 0
M  V30 6966 C 692.803 -3.83687 2.50097 0
M  V30 6967 N 694.294 -3.9105 2.48262 0
M  V30 6968 C 695.029 -4.77842 3.16945 0
M  V30 6969 N 694.525 -5.69176 3.94982 0
M  V30 6970 N 696.318 -4.71509 3.06 0
M  V30 6971 H 688.469 -1.02601 1.85975 0
M  V30 6972 H 690.732 -0.511682 0.798051 0
M  V30 6973 H 690.438 -2.36923 2.59923 0
M  V30 6974 H 690.312 -3.54117 1.29928 0
M  V30 6975 H 692.699 -2.90083 0.541832 0
M  V30 6976 H 692.78 -1.74015 1.8749 0
M  V30 6977 H 692.424 -3.65101 3.53077 0
M  V30 6978 H 692.354 -4.79827 2.16964 0
M  V30 6979 H 694.845 -3.25738 1.91581 0
M  V30 6980 H 695.158 -6.32245 4.44394 0
M  V30 6981 H 693.503 -5.68995 3.99086 0
M  V30 6982 H 696.694 -3.99151 2.44533 0
M  V30 6983 H 696.867 -5.38933 3.59799 0
M  V30 6984 N 690.273 -0.685099 -1.4193 0
M  V30 6985 C 691.183 -0.013404 -2.34596 0
M  V30 6986 C 692.199 0.777589 -1.55658 0
M  V30 6987 O 693.375 0.717553 -1.88184 0
M  V30 6988 C 690.44 0.919031 -3.34297 0
M  V30 6989 C 689.501 0.121417 -4.29128 0
M  V30 6990 C 688.734 1.00944 -5.24067 0
M  V30 6991 O 688.957 2.24898 -5.24192 0
M  V30 6992 O 687.891 0.464724 -6.00103 0
M  V30 6993 H 691.717 -0.776978 -2.93593 0
M  V30 6994 H 689.302 -0.445379 -1.42607 0
M  V30 6995 H 691.184 1.45402 -3.9552 0
M  V30 6996 H 689.859 1.66228 -2.77759 0
M  V30 6997 H 688.766 -0.45792 -3.71287 0
M  V30 6998 H 690.099 -0.582937 -4.88736 0
M  V30 6999 N 691.751 1.51645 -0.429126 0
M  V30 7000 C 692.681 2.30434 0.377148 0
M  V30 7001 C 693.662 1.35493 1.02838 0
M  V30 7002 O 694.847 1.6441 1.03359 0
M  V30 7003 C 691.977 3.14038 1.48315 0
M  V30 7004 C 690.931 4.1719 0.955855 0
M  V30 7005 C 690.257 4.89263 2.15698 0
M  V30 7006 C 691.557 5.223 -0.00402136 0
M  V30 7007 H 693.251 2.98085 -0.280336 0
M  V30 7008 H 690.797 1.43354 -0.136265 0
M  V30 7009 H 692.75 3.67933 2.05435 0
M  V30 7010 H 691.474 2.44193 2.16881 0
M  V30 7011 H 690.133 3.64335 0.406929 0
M  V30 7012 H 689.781 4.15929 2.82864 0
M  V30 7013 H 689.481 5.59009 1.81059 0
M  V30 7014 H 691.005 5.45978 2.73387 0
M  V30 7015 H 692.419 5.71315 0.476607 0
M  V30 7016 H 690.816 5.99525 -0.26258 0
M  V30 7017 H 691.886 4.75638 -0.943236 0
M  V30 7018 N 693.229 0.160201 1.56784 0
M  V30 7019 C 694.476 -0.487588 1.96542 0
M  V30 7020 C 694.804 -1.63999 1.04569 0
M  V30 7021 O 694.059 -1.95546 0.0775211 0
M  V30 7022 C 694.358 -1.02259 3.42459 0
M  V30 7023 C 694.024 0.0127436 4.50898 0
M  V30 7024 C 692.686 0.297318 4.80281 0
M  V30 7025 C 695.038 0.716078 5.16257 0
M  V30 7026 C 692.366 1.29081 5.72324 0
M  V30 7027 C 694.718 1.69847 6.09372 0
M  V30 7028 C 693.382 1.99061 6.37127 0
M  V30 7029 H 692.652 -0.178421 0.719199 0
M  V30 7030 H 695.299 0.249818 1.89864 0
M  V30 7031 H 693.604 -1.8376 3.46034 0
M  V30 7032 H 695.301 -1.53261 3.70556 0
M  V30 7033 H 691.891 -0.219235 4.28039 0
M  V30 7034 H 696.075 0.509428 4.93679 0
M  V30 7035 H 691.331 1.52344 5.92116 0
M  V30 7036 H 695.505 2.2489 6.59088 0
M  V30 7037 H 693.132 2.76194 7.08252 0
M  V30 7038 N 694.707 -1.5719 -0.113559 0
M  V30 7039 C 695.617 -2.04041 -1.15777 0
M  V30 7040 C 696.633 -0.961812 -1.45001 0
M  V30 7041 O 697.809 -1.2737 -1.56009 0
M  V30 7042 C 694.874 -2.43994 -2.46308 0
M  V30 7043 C 693.935 -3.65962 -2.24433 0
M  V30 7044 C 693.168 -4.04 -3.4874 0
M  V30 7045 O 693.391 -3.42321 -4.56259 0
M  V30 7046 O 692.325 -4.97069 -3.3942 0
M  V30 7047 H 696.151 -2.93248 -0.789899 0
M  V30 7048 H 693.736 -1.45828 -0.324748 0
M  V30 7049 H 695.618 -2.70401 -3.23204 0
M  V30 7050 H 694.293 -1.57932 -2.82558 0
M  V30 7051 H 693.2 -3.44697 -1.45377 0
M  V30 7052 H 694.533 -4.52746 -1.93084 0
M  V30 7053 N 696.185 0.383891 -1.52853 0
M  V30 7054 C 697.596 0.961591 -1.60032 0
M  V30 7055 C 697.947 1.90819 -0.456333 0
M  V30 7056 O 697.072 2.12288 0.419873 0
M  V30 7057 C 697.667 1.75078 -2.90057 0
M  V30 7058 C 696.226 2.2781 -2.99632 0
M  V30 7059 C 695.373 1.08512 -2.55187 0
M  V30 7060 H 698.324 0.163269 -1.57858 0
M  V30 7061 H 698.345 2.61046 -2.7683 0
M  V30 7062 H 697.857 1.06157 -3.73299 0
M  V30 7063 H 695.958 3.00028 -2.20939 0
M  V30 7064 H 696.071 2.56947 -4.0437 0
M  V30 7065 H 694.435 1.44667 -2.09627 0
M  V30 7066 H 695.218 0.41118 -3.40829 0
M  V30 7067 N 697.663 1.43903 0.642637 0
M  V30 7068 C 698.91 1.46079 1.40239 0
M  V30 7069 C 699.238 0.0890335 1.94296 0
M  V30 7070 O 698.493 -0.907533 1.73385 0
M  V30 7071 C 698.792 2.45907 2.59354 0
M  V30 7072 C 698.458 3.91522 2.23654 0
M  V30 7073 C 697.12 4.31179 2.1363 0
M  V30 7074 C 699.472 4.83242 1.95261 0
M  V30 7075 C 696.8 5.60495 1.73384 0
M  V30 7076 C 699.152 6.12933 1.56511 0
M  V30 7077 C 697.816 6.51556 1.4502 0
M  V30 7078 H 697.086 0.534542 0.513172 0
M  V30 7079 H 699.733 1.77047 0.72984 0
M  V30 7080 H 698.038 2.08381 3.3179 0
M  V30 7081 H 699.735 2.44842 3.17574 0
M  V30 7082 H 696.325 3.60142 2.32369 0
M  V30 7083 H 700.509 4.53367 2.0192 0
M  V30 7084 H 695.765 5.89249 1.63082 0
M  V30 7085 H 699.939 6.83469 1.33576 0
M  V30 7086 H 697.566 7.51663 1.13606 0
M  V30 7087 N 699.141 -0.881989 1.30609 0
M  V30 7088 C 700.389 -1.63082 1.19368 0
M  V30 7089 C 700.71 -1.93376 -0.251147 0
M  V30 7090 O 699.98 -1.5723 -1.16857 0
M  V30 7091 H 698.56 -0.604542 0.438791 0
M  V30 7092 H 701.222 -1.05658 1.63776 0
M  V30 7093 H 700.318 -2.57966 1.7567 0
M  V30 7094 N 700.619 -1.13374 -1.09472 0
M  V30 7095 C 701.847 -0.918351 -1.85402 0
M  V30 7096 C 702.262 0.53281 -1.81126 0
M  V30 7097 O 701.619 1.36879 -1.20708 0
M  V30 7098 C 701.67 -1.39743 -3.33398 0
M  V30 7099 O 701.391 -2.79172 -3.37631 0
M  V30 7100 C 702.892 -1.22042 -4.2617 0
M  V30 7101 H 700.112 -0.327511 -0.585643 0
M  V30 7102 H 702.656 -1.50617 -1.38328 0
M  V30 7103 H 700.811 -0.852619 -3.77901 0
M  V30 7104 H 701.225 -3.00428 -4.29934 0
M  V30 7105 H 702.699 -1.60438 -5.2817 0
M  V30 7106 H 703.176 -0.162047 -4.38901 0
M  V30 7107 H 703.782 -1.75323 -3.87482 0
M  V30 7108 N 702.098 1.27442 -0.927168 0
M  V30 7109 C 703.347 1.93679 -0.563146 0
M  V30 7110 C 703.66 1.73673 0.899837 0
M  V30 7111 O 704.866 2.34247 1.37262 0
M  V30 7112 C 703.322 3.46961 -0.95636 0
M  V30 7113 C 702.93 3.75724 -2.43999 0
M  V30 7114 C 704.674 4.19282 -0.663565 0
M  V30 7115 C 702.581 5.22378 -2.77263 0
M  V30 7116 H 701.511 0.725059 -0.206894 0
M  V30 7117 H 704.162 1.44743 -1.12791 0
M  V30 7118 H 702.544 3.94703 -0.320254 0
M  V30 7119 H 703.718 3.38741 -3.12396 0
M  V30 7120 H 702.033 3.16605 -2.70463 0
M  V30 7121 H 704.63 5.27265 -0.888596 0
M  V30 7122 H 704.973 4.14382 0.399198 0
M  V30 7123 H 705.506 3.7736 -1.25875 0
M  V30 7124 H 702.245 5.32367 -3.82446 0
M  V30 7125 H 701.765 5.6051 -2.13516 0
M  V30 7126 H 703.444 5.9025 -2.64979 0
M  V30 7127 N 703.576 0.692616 1.41565 0
M  V30 7128 C 704.804 0.231279 2.05603 0
M  V30 7129 C 705.219 -1.11837 1.52111 0
M  V30 7130 O 704.576 -1.6983 0.66813 0
M  V30 7131 C 704.627 0.177125 3.61066 0
M  V30 7132 O 704.348 1.47346 4.12578 0
M  V30 7133 C 705.849 -0.30556 4.42246 0
M  V30 7134 H 703.069 0.108238 0.662213 0
M  V30 7135 H 705.613 0.944369 1.81389 0
M  V30 7136 H 703.768 -0.486769 3.8433 0
M  V30 7137 H 704.182 1.35861 5.06599 0
M  V30 7138 H 705.656 -0.29233 5.51225 0
M  V30 7139 H 706.133 -1.34393 4.18133 0
M  V30 7140 H 706.739 0.327229 4.24039 0
M  V30 7141 N 705.054 -1.51416 0.437162 0
M  V30 7142 C 706.279 -2.0699 -0.130424 0
M  V30 7143 C 706.704 -1.30249 -1.35709 0
M  V30 7144 O 706.062 -0.340388 -1.78076 0
M  V30 7145 C 706.11 -3.5801 -0.43142 0
M  V30 7146 O 705.214 -3.8345 -1.5179 0
M  V30 7147 H 704.555 -0.663997 -0.00194339 0
M  V30 7148 H 707.085 -1.95029 0.618445 0
M  V30 7149 H 707.095 -4.02261 -0.681926 0
M  V30 7150 H 705.77 -4.13291 0.465137 0
M  V30 7151 H 704.347 -3.51062 -1.25737 0
M  V30 7152 N 706.532 -0.168513 -1.56696 0
M  V30 7153 C 707.495 0.748928 -2.16619 0
M  V30 7154 C 708.495 1.16007 -1.11351 0
M  V30 7155 O 709.685 1.07748 -1.3688 0
M  V30 7156 C 706.817 2.01904 -2.74677 0
M  V30 7157 H 708.01 0.227317 -2.99037 0
M  V30 7158 H 705.563 0.0810372 -1.5609 0
M  V30 7159 H 706.298 2.58381 -1.95985 0
M  V30 7160 H 706.083 1.73323 -3.51712 0
M  V30 7161 H 707.573 2.67383 -3.20774 0
M  V30 7162 N 708.01 1.57248 0.105221 0
M  V30 7163 C 708.957 2.01338 1.12835 0
M  V30 7164 C 709.927 0.887897 1.40377 0
M  V30 7165 O 711.112 1.15315 1.5201 0
M  V30 7166 C 708.252 2.43432 2.44611 0
M  V30 7167 C 707.365 3.69457 2.23888 0
M  V30 7168 C 706.5 4.00473 3.48991 0
M  V30 7169 C 705.539 5.19638 3.23485 0
M  V30 7170 N 704.676 5.46457 4.40828 0
M  V30 7171 H 709.516 2.88527 0.745386 0
M  V30 7172 H 707.053 1.42714 0.356535 0
M  V30 7173 H 709.011 2.65879 3.21503 0
M  V30 7174 H 707.641 1.59266 2.80774 0
M  V30 7175 H 706.693 3.54545 1.37847 0
M  V30 7176 H 708.005 4.56497 2.01026 0
M  V30 7177 H 707.159 4.23642 4.34295 0
M  V30 7178 H 705.898 3.11935 3.74897 0
M  V30 7179 H 704.903 4.96299 2.36574 0
M  V30 7180 H 706.128 6.09766 2.98935 0
M  V30 7181 H 704.074 4.60876 4.66829 0
M  V30 7182 H 703.991 6.27849 4.2112 0
M  V30 7183 H 705.259 5.74155 5.27225 0
M  V30 7184 N 709.488 -0.375779 1.53054 0
M  V30 7185 C 710.734 -1.12114 1.68992 0
M  V30 7186 C 711.067 -1.8926 0.435238 0
M  V30 7187 O 710.342 -1.86044 -0.567278 0
M  V30 7188 C 710.625 -2.08867 2.93337 0
M  V30 7189 C 710.478 -1.35397 4.28938 0
M  V30 7190 C 711.797 -3.09124 3.13257 0
M  V30 7191 H 708.916 -0.406207 0.614951 0
M  V30 7192 H 711.558 -0.403054 1.85676 0
M  V30 7193 H 709.708 -2.70102 2.79244 0
M  V30 7194 H 711.38 -0.770242 4.54824 0
M  V30 7195 H 709.623 -0.655801 4.28814 0
M  V30 7196 H 710.294 -2.06161 5.12056 0
M  V30 7197 H 712.77 -2.57987 3.26469 0
M  V30 7198 H 711.646 -3.74054 4.01715 0
M  V30 7199 H 711.907 -3.78729 2.28072 0
M  V30 7200 N 710.966 -1.44241 -0.634997 0
M  V30 7201 C 711.899 -1.45274 -1.75985 0
M  V30 7202 C 712.877 -0.312025 -1.59578 0
M  V30 7203 O 714.061 -0.508409 -1.81514 0
M  V30 7204 C 711.188 -1.28173 -3.13511 0
M  V30 7205 C 710.234 -2.45757 -3.48576 0
M  V30 7206 S 711.067 -4.08293 -3.46492 0
M  V30 7207 C 712.223 -3.93608 -4.86645 0
M  V30 7208 H 712.456 -2.40454 -1.74841 0
M  V30 7209 H 709.989 -1.31492 -0.809268 0
M  V30 7210 H 711.947 -1.18993 -3.92875 0
M  V30 7211 H 710.608 -0.34511 -3.12198 0
M  V30 7212 H 709.801 -2.29644 -4.48642 0
M  V30 7213 H 709.403 -2.51657 -2.76667 0
M  V30 7214 H 711.695 -3.57059 -5.75774 0
M  V30 7215 H 712.638 -4.9349 -5.07813 0
M  V30 7216 H 713.046 -3.25737 -4.61038 0
M  V30 7217 N 712.444 0.87505 -1.31075 0
M  V30 7218 C 713.86 1.15997 -1.09622 0
M  V30 7219 C 714.06 2.01036 0.136611 0
M  V30 7220 O 713.116 2.38559 0.827397 0
M  V30 7221 C 714.429 1.85702 -2.36506 0
M  V30 7222 C 715.977 1.98425 -2.42067 0
M  V30 7223 C 716.452 2.71544 -3.68819 0
M  V30 7224 N 717.943 2.79084 -3.69684 0
M  V30 7225 C 718.678 3.36259 -4.64454 0
M  V30 7226 N 718.174 3.94406 -5.69575 0
M  V30 7227 N 719.967 3.34169 -4.51982 0
M  V30 7228 H 712.118 0.308258 -2.10151 0
M  V30 7229 H 714.381 0.199145 -0.926847 0
M  V30 7230 H 714.087 1.30663 -3.26527 0
M  V30 7231 H 713.961 2.86017 -2.45915 0
M  V30 7232 H 716.348 2.5263 -1.52518 0
M  V30 7233 H 716.429 0.971682 -2.36626 0
M  V30 7234 H 716.073 2.18008 -4.58732 0
M  V30 7235 H 716.003 3.73198 -3.71525 0
M  V30 7236 H 718.494 2.3781 -2.93691 0
M  V30 7237 H 718.807 4.36129 -6.37974 0
M  V30 7238 H 717.152 3.92797 -5.73355 0
M  V30 7239 H 720.343 2.87977 -3.69035 0
M  V30 7240 H 720.516 3.78431 -5.26017 0
M  V30 7241 N 713.922 1.13953 1.08869 0
M  V30 7242 C 715.199 0.815768 1.77777 0
M  V30 7243 C 715.579 -0.691624 1.99449 0
M  V30 7244 O 714.927 -1.63085 1.60049 0
M  V30 7245 C 715.137 1.60916 3.09689 0
M  V30 7246 C 716.485 1.80549 3.84301 0
M  V30 7247 O 717.509 1.57562 3.19457 0
M  V30 7248 O 716.368 2.18946 5.00724 0
M  V30 7249 H 713.462 0.298445 0.771271 0
M  V30 7250 H 716.008 1.24446 1.15374 0
M  V30 7251 H 714.78 2.6333 2.89435 0
M  V30 7252 H 714.403 1.17578 3.79817 0
M  V30 7253 N 715.4 -1.26948 0.933913 0
M  V30 7254 C 716.31 -2.30366 0.443671 0
M  V30 7255 C 717.326 -1.67284 -0.478745 0
M  V30 7256 O 718.502 -1.98156 -0.360043 0
M  V30 7257 C 715.567 -3.45485 -0.289974 0
M  V30 7258 C 714.628 -4.24069 0.668114 0
M  V30 7259 C 713.861 -5.33691 -0.0306138 0
M  V30 7260 O 714.084 -5.5656 -1.24888 0
M  V30 7261 O 713.018 -5.98441 0.644384 0
M  V30 7262 H 716.844 -2.74349 1.30254 0
M  V30 7263 H 714.429 -1.32012 0.699506 0
M  V30 7264 H 716.311 -4.15486 -0.70353 0
M  V30 7265 H 714.986 -3.03546 -1.12435 0
M  V30 7266 H 713.893 -3.56579 1.13147 0
M  V30 7267 H 715.226 -4.69739 1.46989 0
M  V30 7268 N 716.879 -0.700114 -1.41195 0
M  V30 7269 C 717.826 -0.0376652 -2.30769 0
M  V30 7270 C 718.796 0.766544 -1.47354 0
M  V30 7271 O 719.981 0.73365 -1.76131 0
M  V30 7272 C 717.121 0.889452 -3.33441 0
M  V30 7273 C 716.234 0.076373 -4.31932 0
M  V30 7274 C 715.369 1.00155 -5.21673 0
M  V30 7275 C 714.408 0.181644 -6.1183 0
M  V30 7276 N 713.545 1.06087 -6.94039 0
M  V30 7277 H 718.385 -0.80726 -2.86858 0
M  V30 7278 H 715.922 -0.409798 -1.41277 0
M  V30 7279 H 717.88 1.44107 -3.91522 0
M  V30 7280 H 716.51 1.6254 -2.78892 0
M  V30 7281 H 715.562 -0.592223 -3.75762 0
M  V30 7282 H 716.874 -0.559076 -4.95657 0
M  V30 7283 H 716.028 1.62223 -5.8461 0
M  V30 7284 H 714.767 1.67085 -4.58186 0
M  V30 7285 H 713.772 -0.452085 -5.47938 0
M  V30 7286 H 714.997 -0.483925 -6.77374 0
M  V30 7287 H 712.943 1.7161 -6.33156 0
M  V30 7288 H 712.86 0.481094 -7.54468 0
M  V30 7289 H 714.128 1.66822 -7.6144 0
M  V30 7290 N 718.357 1.51182 -0.445186 0
M  V30 7291 C 719.267 2.31692 0.368255 0
M  V30 7292 C 720.283 1.40942 1.02036 0
M  V30 7293 O 721.459 1.74011 1.01401 0
M  V30 7294 C 718.524 3.14903 1.45041 0
M  V30 7295 C 717.585 4.21442 0.817615 0
M  V30 7296 C 716.818 5.00677 1.8482 0
M  V30 7297 O 717.041 4.80644 3.07145 0
M  V30 7298 O 715.975 5.84559 1.43438 0
M  V30 7299 H 719.801 3.0232 -0.289219 0
M  V30 7300 H 717.386 1.47951 -0.207555 0
M  V30 7301 H 719.268 3.66612 2.07783 0
M  V30 7302 H 717.943 2.47031 2.09182 0
M  V30 7303 H 716.85 3.73791 0.151931 0
M  V30 7304 H 718.183 4.9171 0.219564 0
M  V30 7305 N 719.835 0.176821 1.56605 0
M  V30 7306 C 720.767 -0.782836 2.15417 0
M  V30 7307 C 721.78 -1.18982 1.11117 0
M  V30 7308 O 722.969 -1.12872 1.38283 0
M  V30 7309 C 720.069 -2.06596 2.68647 0
M  V30 7310 C 719.242 -1.82167 3.9766 0
M  V30 7311 C 718.301 -2.94751 4.35899 0
M  V30 7312 O 717.327 -2.65148 5.03672 0
M  V30 7313 N 718.529 -4.2267 3.97907 0
M  V30 7314 H 721.294 -0.280012 2.98389 0
M  V30 7315 H 718.855 -0.00577529 1.61899 0
M  V30 7316 H 720.847 -2.81018 2.91223 0
M  V30 7317 H 719.417 -2.48054 1.90232 0
M  V30 7318 H 718.637 -0.916208 3.83405 0
M  V30 7319 H 719.925 -1.6322 4.81909 0
M  V30 7320 H 719.323 -4.4958 3.43357 0
M  V30 7321 H 717.88 -4.93778 4.25472 0
M  V30 7322 N 721.313 -1.57302 -0.09688 0
M  V30 7323 C 722.538 -1.9058 -0.818169 0
M  V30 7324 C 722.963 -0.770921 -1.71576 0
M  V30 7325 O 722.321 0.277588 -1.79162 0
M  V30 7326 C 722.369 -3.22714 -1.60898 0
M  V30 7327 O 721.473 -3.10178 -2.71779 0
M  V30 7328 H 720.814 -0.624759 -0.224882 0
M  V30 7329 H 723.344 -2.04471 -0.07264 0
M  V30 7330 H 723.354 -3.55978 -1.99358 0
M  V30 7331 H 722.029 -4.04899 -0.950227 0
M  V30 7332 H 720.606 -2.88424 -2.3636 0
M  V30 7333 N 722.791 0.367657 -1.53252 0
M  V30 7334 C 723.738 1.45028 -1.79543 0
M  V30 7335 C 724.708 1.53288 -0.63969 0
M  V30 7336 O 725.893 1.69209 -0.881653 0
M  V30 7337 C 723.033 2.82 -1.98923 0
M  V30 7338 C 722.146 2.82722 -3.26638 0
M  V30 7339 C 721.281 4.11257 -3.36216 0
M  V30 7340 C 720.32 4.06113 -4.57972 0
M  V30 7341 N 719.457 5.26293 -4.64715 0
M  V30 7342 H 724.297 1.21908 -2.71923 0
M  V30 7343 H 721.834 0.591011 -1.34705 0
M  V30 7344 H 723.792 3.61568 -2.08146 0
M  V30 7345 H 722.422 3.03523 -1.09881 0
M  V30 7346 H 721.474 1.95399 -3.26379 0
M  V30 7347 H 722.786 2.74794 -4.16281 0
M  V30 7348 H 721.94 4.99239 -3.44739 0
M  V30 7349 H 720.679 4.21935 -2.44586 0
M  V30 7350 H 719.684 3.16517 -4.49552 0
M  V30 7351 H 720.909 3.97039 -5.50942 0
M  V30 7352 H 718.855 5.37561 -3.75985 0
M  V30 7353 H 718.772 5.20526 -5.4826 0
M  V30 7354 H 720.04 6.16113 -4.77519 0
M  V30 7355 N 724.269 1.44576 0.627338 0
M  V30 7356 C 725.517 1.47267 1.38408 0
M  V30 7357 C 725.838 0.107971 1.94701 0
M  V30 7358 O 725.108 -0.860206 1.76004 0
M  V30 7359 H 723.688 0.542276 0.513756 0
M  V30 7360 H 726.35 1.80383 0.738099 0
M  V30 7361 H 725.446 2.20025 2.21349 0
M  V30 7362 N 725.747 -0.868086 1.31537 0
M  V30 7363 C 726.994 -1.62127 1.2133 0
M  V30 7364 C 727.322 -1.93158 -0.2281 0
M  V30 7365 O 726.577 -1.5632 -1.1774 0
M  V30 7366 C 726.876 -2.95889 2.0046 0
M  V30 7367 C 726.542 -2.84343 3.49943 0
M  V30 7368 C 725.204 -2.80901 3.90702 0
M  V30 7369 C 727.556 -2.71243 4.45058 0
M  V30 7370 C 724.884 -2.6222 5.24841 0
M  V30 7371 C 727.236 -2.54098 5.79325 0
M  V30 7372 C 725.9 -2.4904 6.19302 0
M  V30 7373 H 725.17 -0.593265 0.443979 0
M  V30 7374 H 727.817 -1.00803 1.62822 0
M  V30 7375 H 726.122 -3.61259 1.51655 0
M  V30 7376 H 727.819 -3.53161 1.89942 0
M  V30 7377 H 724.409 -2.8784 3.17563 0
M  V30 7378 H 728.593 -2.72956 4.14498 0
M  V30 7379 H 723.849 -2.56731 5.54887 0
M  V30 7380 H 728.023 -2.42938 6.52652 0
M  V30 7381 H 725.65 -2.34324 7.23185 0
M  V30 7382 N 727.225 -1.14528 -1.08264 0
M  V30 7383 C 728.473 -0.912599 -1.80322 0
M  V30 7384 C 728.794 0.562256 -1.86718 0
M  V30 7385 O 728.064 1.40869 -1.36135 0
M  V30 7386 H 726.644 -0.334645 -0.667849 0
M  V30 7387 H 729.306 -1.44415 -1.30883 0
M  V30 7388 H 728.402 -1.31384 -2.83098 0
M  V30 7389 N 728.703 1.26451 -0.940633 0
M  V30 7390 C 729.95 1.93778 -0.587909 0
M  V30 7391 C 730.278 1.73811 0.872935 0
M  V30 7392 O 729.533 1.06816 1.63978 0
M  V30 7393 C 729.832 3.46503 -0.875794 0
M  V30 7394 C 729.498 3.86609 -2.32043 0
M  V30 7395 C 728.16 3.97269 -2.71534 0
M  V30 7396 C 730.512 4.0672 -3.25927 0
M  V30 7397 C 727.84 4.25436 -4.04006 0
M  V30 7398 C 730.192 4.36375 -4.57995 0
M  V30 7399 C 728.856 4.45249 -4.97302 0
M  V30 7400 H 728.126 0.709084 -0.215131 0
M  V30 7401 H 730.773 1.50272 -1.18704 0
M  V30 7402 H 729.078 3.91319 -0.194124 0
M  V30 7403 H 730.775 3.96759 -0.581665 0
M  V30 7404 H 727.365 3.78858 -2.00411 0
M  V30 7405 H 731.549 3.97912 -2.96614 0
M  V30 7406 H 726.805 4.30519 -4.34124 0
M  V30 7407 H 730.979 4.50882 -5.30734 0
M  V30 7408 H 728.606 4.66829 -5.99979 0
M  V30 7409 N 730.181 0.707592 1.40822 0
M  V30 7410 C 731.427 0.244031 2.01326 0
M  V30 7411 C 731.76 -1.15722 1.55955 0
M  V30 7412 O 731.035 -1.78347 0.776044 0
M  V30 7413 C 731.318 0.315128 3.58718 0
M  V30 7414 C 731.171 1.75419 4.14184 0
M  V30 7415 C 732.49 -0.318251 4.38948 0
M  V30 7416 H 729.609 0.0901471 0.731466 0
M  V30 7417 H 732.251 0.898584 1.67408 0
M  V30 7418 H 730.401 -0.242176 3.87744 0
M  V30 7419 H 732.073 2.36626 3.95987 0
M  V30 7420 H 730.316 2.28449 3.68773 0
M  V30 7421 H 730.987 1.75538 5.23345 0
M  V30 7422 H 733.463 0.156514 4.15806 0
M  V30 7423 H 732.339 -0.238019 5.48384 0
M  V30 7424 H 732.6 -1.40067 4.19325 0
M  V30 7425 N 731.66 -1.50943 0.453197 0
M  V30 7426 C 732.9 -2.0412 -0.106894 0
M  V30 7427 C 733.264 -1.32895 -1.38575 0
M  V30 7428 O 734.465 -1.76529 -2.02709 0
M  V30 7429 C 732.736 -3.561 -0.304565 0
M  V30 7430 S 734.295 -4.3096 -0.825784 0
M  V30 7431 H 731.113 -0.710581 -0.0243969 0
M  V30 7432 H 733.715 -1.85534 0.616239 0
M  V30 7433 H 732.419 -4.055 0.632277 0
M  V30 7434 H 731.95 -3.79009 -1.05433 0
M  V30 7435 H 733.965 -4.49503 -2.10147 0
M  V30 7436 N 733.138 -0.185124 -1.56509 0
M  V30 7437 C 734.385 0.456258 -1.97293 0
M  V30 7438 C 734.713 1.62314 -1.07165 0
M  V30 7439 O 733.968 1.95398 -0.108621 0
M  V30 7440 C 734.267 0.967977 -3.44042 0
M  V30 7441 C 733.933 -0.084476 -4.50821 0
M  V30 7442 C 732.595 -0.373689 -4.79747 0
M  V30 7443 C 734.947 -0.79812 -5.15053 0
M  V30 7444 C 732.275 -1.3817 -5.70198 0
M  V30 7445 C 734.627 -1.79521 -6.06593 0
M  V30 7446 C 733.291 -2.09172 -6.3388 0
M  V30 7447 H 732.561 0.166957 -0.721946 0
M  V30 7448 H 735.208 -0.279992 -1.89442 0
M  V30 7449 H 733.513 1.78231 -3.48914 0
M  V30 7450 H 735.21 1.47347 -3.72948 0
M  V30 7451 H 731.8 0.15111 -4.28334 0
M  V30 7452 H 735.984 -0.587903 -4.92806 0
M  V30 7453 H 731.24 -1.61745 -5.89617 0
M  V30 7454 H 735.414 -2.35347 -6.55427 0
M  V30 7455 H 733.041 -2.87427 -7.03768 0
M  V30 7456 N 734.616 1.57351 0.0885366 0
M  V30 7457 C 735.579 2.01557 1.09121 0
M  V30 7458 C 736.579 0.910052 1.3257 0
M  V30 7459 O 737.769 1.17537 1.28572 0
M  V30 7460 C 734.901 2.38189 2.43883 0
M  V30 7461 H 736.094 2.91361 0.710562 0
M  V30 7462 H 733.647 1.52694 0.333779 0
M  V30 7463 H 734.382 1.5136 2.86811 0
M  V30 7464 H 734.167 3.18846 2.28209 0
M  V30 7465 H 735.657 2.73025 3.15986 0
M  V30 7466 N 736.094 -0.359525 1.53444 0
M  V30 7467 C 737.319 -1.12644 1.74144 0
M  V30 7468 C 737.744 -1.82082 0.472007 0
M  V30 7469 O 737.102 -1.71962 -0.57436 0
M  V30 7470 C 737.15 -2.12781 2.9113 0
M  V30 7471 O 736.254 -3.19984 2.60162 0
M  V30 7472 H 735.595 -0.326553 0.578152 0
M  V30 7473 H 738.125 -0.414798 2.00351 0
M  V30 7474 H 738.135 -2.56278 3.17467 0
M  V30 7475 H 736.81 -1.61634 3.83207 0
M  V30 7476 H 735.387 -2.81417 2.44661 0
M  V30 7477 N 737.572 -1.44907 -0.619662 0
M  V30 7478 C 738.504 -1.48652 -1.74457 0
M  V30 7479 C 739.517 -0.378596 -1.58337 0
M  V30 7480 O 740.706 -0.644987 -1.6644 0
M  V30 7481 C 737.806 -1.31568 -3.12319 0
M  V30 7482 C 736.979 -2.55816 -3.54792 0
M  V30 7483 C 736.038 -2.33465 -4.71573 0
M  V30 7484 O 735.064 -3.07015 -4.79302 0
M  V30 7485 N 736.266 -1.37254 -5.6404 0
M  V30 7486 H 739.031 -2.45632 -1.71712 0
M  V30 7487 H 736.592 -1.40492 -0.804582 0
M  V30 7488 H 738.584 -1.14445 -3.88181 0
M  V30 7489 H 737.154 -0.429095 -3.09641 0
M  V30 7490 H 736.374 -2.88137 -2.69018 0
M  V30 7491 H 737.662 -3.38431 -3.79924 0
M  V30 7492 H 737.06 -0.765309 -5.60499 0
M  V30 7493 H 735.617 -1.26106 -6.39485 0
M  V30 7494 N 739.05 0.861098 -1.31996 0
M  V30 7495 C 739.96 2.00154 -1.22374 0
M  V30 7496 C 740.976 1.73447 -0.138631 0
M  V30 7497 O 742.152 1.98191 -0.358104 0
M  V30 7498 C 739.217 3.33696 -0.940645 0
M  V30 7499 C 738.278 3.73668 -2.11355 0
M  V30 7500 C 737.511 5.00837 -1.84386 0
M  V30 7501 O 737.734 5.64996 -0.783287 0
M  V30 7502 O 736.668 5.37787 -2.70313 0
M  V30 7503 H 740.494 2.11207 -2.18233 0
M  V30 7504 H 738.079 0.990768 -1.11822 0
M  V30 7505 H 739.961 4.13756 -0.798987 0
M  V30 7506 H 738.636 3.23698 -0.0121636 0
M  V30 7507 H 737.543 2.94211 -2.31065 0
M  V30 7508 H 738.876 3.88303 -3.02459 0
M  V30 7509 N 740.528 1.15101 1.07655 0
M  V30 7510 C 741.438 0.858869 2.18313 0
M  V30 7511 C 742.454 -0.163641 1.73229 0
M  V30 7512 O 743.63 0.00969541 2.01398 0
M  V30 7513 C 740.695 0.34893 3.4494 0
M  V30 7514 C 739.756 1.43495 4.04608 0
M  V30 7515 C 738.989 0.949253 5.2519 0
M  V30 7516 O 739.212 -0.20636 5.70027 0
M  V30 7517 O 738.146 1.73161 5.76454 0
M  V30 7518 H 741.972 1.78386 2.45788 0
M  V30 7519 H 739.557 0.929876 1.16934 0
M  V30 7520 H 741.439 0.070851 4.2134 0
M  V30 7521 H 740.114 -0.548237 3.19024 0
M  V30 7522 H 739.021 1.7666 3.29761 0
M  V30 7523 H 740.354 2.30692 4.3479 0
M  V30 7524 N 742.006 -1.2595 0.947325 0
M  V30 7525 C 742.969 -2.24407 0.466285 0
M  V30 7526 C 743.969 -1.55054 -0.426005 0
M  V30 7527 O 745.159 -1.7275 -0.224319 0
M  V30 7528 C 742.291 -3.39326 -0.327201 0
M  V30 7529 H 743.484 -2.68477 1.33642 0
M  V30 7530 H 741.037 -1.38211 0.729887 0
M  V30 7531 H 741.772 -3.00667 -1.21532 0
M  V30 7532 H 741.557 -3.9085 0.312839 0
M  V30 7533 H 743.047 -4.12455 -0.653477 0
M  V30 7534 N 743.484 -0.715051 -1.40445 0
M  V30 7535 C 744.432 -0.0509974 -2.32544 0
M  V30 7536 C 745.426 0.747602 -1.52011 0
M  V30 7537 O 746.632 0.651031 -1.67814 0
M  V30 7538 H 743.007 0.00231113 -0.751996 0
M  V30 7539 H 744.978 -0.84449 -2.86201 0
M  V30 7540 C 743.727 0.857101 -3.3697 0
M  V30 7541 H 743.05 0.252 -3.99005 0
M  V30 7542 H 744.49 1.28971 -4.03909 0
M  V30 7543 C 742.949 1.98231 -2.72408 0
M  V30 7544 O 743.479 3.07309 -2.58697 0
M  V30 7545 N 741.685 1.76577 -2.308 0
M  V30 7546 H 741.232 0.878641 -2.42152 0
M  V30 7547 H 741.19 2.52043 -1.87941 0
M  V30 7548 N 744.962 1.50701 -0.461195 0
M  V30 7549 C 745.909 2.2831 0.338094 0
M  V30 7550 C 746.879 1.32928 0.995957 0
M  V30 7551 O 748.064 1.61857 1.0103 0
M  V30 7552 C 745.204 3.14539 1.41983 0
M  V30 7553 C 744.317 4.24942 0.77773 0
M  V30 7554 C 743.452 4.98443 1.83652 0
M  V30 7555 C 742.491 6.00733 1.17413 0
M  V30 7556 N 741.628 6.6755 2.17533 0
M  V30 7557 H 746.468 2.96167 -0.330051 0
M  V30 7558 H 744.005 1.4606 -0.174611 0
M  V30 7559 H 745.963 3.62877 2.05855 0
M  V30 7560 H 744.593 2.48749 2.05727 0
M  V30 7561 H 743.645 3.80391 0.0266924 0
M  V30 7562 H 744.957 4.98151 0.254362 0
M  V30 7563 H 744.111 5.50449 2.55129 0
M  V30 7564 H 742.85 4.24917 2.39367 0
M  V30 7565 H 741.855 5.47997 0.444944 0
M  V30 7566 H 743.08 6.76227 0.624006 0
M  V30 7567 H 741.026 5.96823 2.72284 0
M  V30 7568 H 740.943 7.36603 1.70154 0
M  V30 7569 H 742.211 7.24178 2.88421 0
M  V30 7570 N 746.441 0.193421 1.56409 0
M  V30 7571 C 747.404 -0.714371 2.17783 0
M  V30 7572 C 748.404 -1.1422 1.13183 0
M  V30 7573 O 749.594 -1.05557 1.38576 0
M  V30 7574 C 746.726 -1.97509 2.77855 0
M  V30 7575 H 747.919 -0.179714 2.99361 0
M  V30 7576 H 745.472 -0.0561944 1.56199 0
M  V30 7577 H 746.207 -2.5523 2.0007 0
M  V30 7578 H 745.992 -1.67706 3.54425 0
M  V30 7579 H 747.482 -2.62246 3.24987 0
M  V30 7580 N 747.919 -1.57396 -0.0801906 0
M  V30 7581 C 749.165 -1.87113 -0.782083 0
M  V30 7582 C 749.498 -0.78458 -1.77646 0
M  V30 7583 O 748.773 0.205993 -1.93406 0
M  V30 7584 C 749.056 -3.27483 -1.49756 0
M  V30 7585 C 748.909 -4.46782 -0.520171 0
M  V30 7586 C 750.228 -3.65965 -2.44454 0
M  V30 7587 H 747.347 -0.680559 -0.282858 0
M  V30 7588 H 749.989 -1.89946 -0.0454139 0
M  V30 7589 H 748.139 -3.25199 -2.12551 0
M  V30 7590 H 749.811 -4.61187 0.101919 0
M  V30 7591 H 748.054 -4.33485 0.165219 0
M  V30 7592 H 748.725 -5.41761 -1.05824 0
M  V30 7593 H 751.201 -3.69289 -1.91742 0
M  V30 7594 H 750.077 -4.65086 -2.91524 0
M  V30 7595 H 750.338 -2.95446 -3.28883 0
M  V30 7596 N 749.397 0.351382 -1.53633 0
M  V30 7597 C 750.625 1.11275 -1.74429 0
M  V30 7598 C 751.04 1.82602 -0.479798 0
M  V30 7599 O 750.397 1.74074 0.548125 0
M  V30 7600 C 750.448 2.13223 -2.91921 0
M  V30 7601 O 750.169 1.44798 -4.13479 0
M  V30 7602 C 751.67 3.01797 -3.24706 0
M  V30 7603 H 748.89 0.332153 -0.583023 0
M  V30 7604 H 751.434 0.405974 -2.0043 0
M  V30 7605 H 749.589 2.79477 -2.68274 0
M  V30 7606 H 750.003 2.12839 -4.79374 0
M  V30 7607 H 751.477 3.69282 -4.10286 0
M  V30 7608 H 751.954 3.67387 -2.40673 0
M  V30 7609 H 752.56 2.41141 -3.5033 0
M  V30 7610 N 750.875 1.45233 0.611969 0
M  V30 7611 C 751.785 1.56098 1.7513 0
M  V30 7612 C 752.801 0.445646 1.68196 0
M  V30 7613 O 753.977 0.705718 1.88631 0
M  V30 7614 C 751.042 1.52052 3.11579 0
M  V30 7615 C 750.103 2.74589 3.29999 0
M  V30 7616 C 749.336 2.70726 4.59938 0
M  V30 7617 O 749.559 1.77806 5.41979 0
M  V30 7618 O 748.493 3.61864 4.80976 0
M  V30 7619 H 752.319 2.52392 1.68914 0
M  V30 7620 H 749.904 1.27695 0.775528 0
M  V30 7621 H 751.786 1.52387 3.92882 0
M  V30 7622 H 750.461 0.589085 3.18295 0
M  V30 7623 H 749.368 2.79817 2.48301 0
M  V30 7624 H 750.701 3.66843 3.28157 0
M  V30 7625 N 752.353 -0.854086 1.3245 0
M  V30 7626 C 753.286 -1.96654 1.15768 0
M  V30 7627 C 754.264 -1.625 0.0569975 0
M  V30 7628 O 755.448 -1.87254 0.216412 0
M  V30 7629 C 752.575 -3.29776 0.772361 0
M  V30 7630 C 751.621 -3.82909 1.87837 0
M  V30 7631 S 752.454 -4.0643 3.48675 0
M  V30 7632 C 753.61 -5.42526 3.12116 0
M  V30 7633 H 753.843 -2.10504 2.09942 0
M  V30 7634 H 751.376 -1.00612 1.17118 0
M  V30 7635 H 753.334 -4.06706 0.556809 0
M  V30 7636 H 751.995 -3.13739 -0.150519 0
M  V30 7637 H 751.188 -4.79192 1.56177 0
M  V30 7638 H 750.79 -3.12825 2.0498 0
M  V30 7639 H 753.082 -6.24792 2.61996 0
M  V30 7640 H 754.025 -5.79148 4.07422 0
M  V30 7641 H 754.433 -5.06556 2.49121 0
M  V30 7642 N 753.831 -1.1567 -1.07043 0
M  V30 7643 C 754.781 -0.824733 -2.12561 0
M  V30 7644 C 755.765 0.19243 -1.59745 0
M  V30 7645 O 756.957 -0.00728759 -1.76998 0
M  V30 7646 C 754.086 -0.31921 -3.41813 0
M  V30 7647 C 753.172 -1.36671 -4.01475 0
M  V30 7648 N 753.563 -2.57493 -4.35351 0
M  V30 7649 C 751.861 -1.22018 -4.28984 0
M  V30 7650 C 752.562 -3.24658 -4.82672 0
M  V30 7651 N 751.538 -2.52043 -4.81638 0
M  V30 7652 H 755.34 -1.74363 -2.3659 0
M  V30 7653 H 752.854 -1.04262 -1.24511 0
M  V30 7654 H 754.851 -0.0630216 -4.16852 0
M  V30 7655 H 753.511 0.593708 -3.19226 0
M  V30 7656 H 754.522 -2.94612 -4.25939 0
M  V30 7657 H 751.199 -0.367414 -4.1588 0
M  V30 7658 H 752.589 -4.2775 -5.1815 0
M  V30 7659 N 755.309 1.25446 -0.953992 0
M  V30 7660 C 756.239 2.28264 -0.491717 0
M  V30 7661 C 757.22 1.63717 0.461617 0
M  V30 7662 O 758.405 1.90821 0.36071 0
M  V30 7663 C 755.535 3.46525 0.231915 0
M  V30 7664 C 754.489 4.23247 -0.636098 0
M  V30 7665 C 753.815 5.34254 0.218238 0
M  V30 7666 C 755.115 4.85971 -1.91389 0
M  V30 7667 H 756.809 2.67183 -1.35106 0
M  V30 7668 H 754.355 1.2844 -0.651095 0
M  V30 7669 H 756.308 4.17576 0.566439 0
M  V30 7670 H 755.032 3.06594 1.12551 0
M  V30 7671 H 753.691 3.53978 -0.953696 0
M  V30 7672 H 753.339 4.90564 1.11156 0
M  V30 7673 H 753.039 5.86501 -0.359232 0
M  V30 7674 H 754.563 6.08138 0.547743 0
M  V30 7675 H 755.977 5.49168 -1.64581 0
M  V30 7676 H 754.374 5.48391 -2.43696 0
M  V30 7677 H 755.444 4.08192 -2.61738 0
M  V30 7678 N 756.787 0.722489 1.40064 0
M  V30 7679 C 757.734 0.0743738 2.3068 0
M  V30 7680 C 758.704 -0.743004 1.48555 0
M  V30 7681 O 759.889 -0.705536 1.77276 0
M  V30 7682 C 757.029 -0.836292 3.34814 0
M  V30 7683 C 756.142 -0.00764663 4.31999 0
M  V30 7684 C 755.277 -0.918428 5.232 0
M  V30 7685 C 754.316 -0.0842838 6.12042 0
M  V30 7686 N 753.453 -0.950316 6.95639 0
M  V30 7687 H 758.293 0.852794 2.85537 0
M  V30 7688 H 755.83 0.432222 1.40607 0
M  V30 7689 H 757.788 -1.3786 3.93765 0
M  V30 7690 H 756.418 -1.58082 2.81443 0
M  V30 7691 H 755.47 0.651928 3.74772 0
M  V30 7692 H 756.782 0.63786 4.94705 0
M  V30 7693 H 755.936 -1.52902 5.87116 0
M  V30 7694 H 754.675 -1.59774 4.60786 0
M  V30 7695 H 753.68 0.5392 5.4715 0
M  V30 7696 H 754.905 0.591628 6.76518 0
M  V30 7697 H 752.851 -1.61515 6.35806 0
M  V30 7698 H 752.768 -0.361004 7.55138 0
M  V30 7699 H 754.036 -1.54687 7.63997 0
M  V30 7700 N 758.265 -1.50454 0.469181 0
M  V30 7701 C 759.514 -2.01507 -0.0881425 0
M  V30 7702 C 759.827 -1.35613 -1.40956 0
M  V30 7703 O 761.033 -1.77812 -2.05171 0
M  V30 7704 C 759.489 -3.59301 -0.207596 0
M  V30 7705 C 759.097 -4.34152 1.10527 0
M  V30 7706 C 760.841 -4.18401 -0.716981 0
M  V30 7707 C 758.748 -5.83725 0.949717 0
M  V30 7708 H 757.678 -0.753106 -0.0367156 0
M  V30 7709 H 760.329 -1.73282 0.603788 0
M  V30 7710 H 758.711 -3.84106 -0.963265 0
M  V30 7711 H 759.885 -4.21073 1.87175 0
M  V30 7712 H 758.2 -3.86652 1.54562 0
M  V30 7713 H 760.797 -5.27895 -0.850363 0
M  V30 7714 H 761.14 -3.79657 -1.70782 0
M  V30 7715 H 761.673 -3.97796 -0.0187511 0
M  V30 7716 H 758.412 -6.26938 1.91387 0
M  V30 7717 H 757.932 -5.99383 0.223591 0
M  V30 7718 H 759.611 -6.44065 0.61557 0
M  V30 7719 N 759.743 -0.201713 -1.56304 0
M  V30 7720 C 760.992 0.435557 -1.96941 0
M  V30 7721 C 761.305 1.62299 -1.09172 0
M  V30 7722 O 762.511 2.32849 -1.3962 0
M  V30 7723 C 760.967 0.826298 -3.50286 0
M  V30 7724 C 760.575 -0.337216 -4.46729 0
M  V30 7725 C 762.319 1.43028 -3.99679 0
M  V30 7726 C 760.226 0.0748539 -5.91353 0
M  V30 7727 H 759.156 0.1665 -0.735387 0
M  V30 7728 H 761.807 -0.294781 -1.81117 0
M  V30 7729 H 760.189 1.61349 -3.61639 0
M  V30 7730 H 761.363 -1.11476 -4.47113 0
M  V30 7731 H 759.678 -0.853126 -4.07567 0
M  V30 7732 H 762.275 1.75115 -5.05212 0
M  V30 7733 H 762.618 2.33911 -3.44371 0
M  V30 7734 H 763.151 0.706924 -3.91468 0
M  V30 7735 H 759.89 -0.799957 -6.506 0
M  V30 7736 H 759.41 0.817122 -5.94208 0
M  V30 7737 H 761.089 0.508389 -6.45 0
M  V30 7738 N 761.222 1.57436 0.0718424 0
M  V30 7739 C 762.17 2.04725 1.10411 0
M  V30 7740 C 763.164 0.952579 1.4008 0
M  V30 7741 O 764.37 1.13769 1.39487 0
M  V30 7742 H 760.745 0.652749 0.373393 0
M  V30 7743 H 762.716 2.90569 0.679126 0
M  V30 7744 C 761.465 2.5068 2.40946 0
M  V30 7745 H 760.788 3.34505 2.18967 0
M  V30 7746 H 762.228 2.87521 3.11621 0
M  V30 7747 C 760.687 1.38971 3.06902 0
M  V30 7748 O 761.217 0.731786 3.94978 0
M  V30 7749 N 759.423 1.13485 2.67525 0
M  V30 7750 H 758.97 1.67168 1.95991 0
M  V30 7751 H 758.928 0.389467 3.11978 0
M  V30 7752 N 762.7 -0.34323 1.53817 0
M  V30 7753 C 763.948 -1.0813 1.70741 0
M  V30 7754 C 764.269 -1.89165 0.473461 0
M  V30 7755 O 763.539 -1.89075 -0.512605 0
M  V30 7756 H 762.119 -0.40219 0.629486 0
M  V30 7757 H 764.781 -0.384426 1.91071 0
M  V30 7758 H 763.877 -1.7585 2.57843 0
M  V30 7759 N 764.178 -1.45556 -0.604258 0
M  V30 7760 C 765.125 -1.54482 -1.71476 0
M  V30 7761 C 766.095 -0.390479 -1.61445 0
M  V30 7762 O 767.28 -0.604371 -1.80975 0
M  V30 7763 C 764.42 -1.52064 -3.09791 0
M  V30 7764 C 763.533 -2.78073 -3.30604 0
M  V30 7765 C 762.668 -2.67304 -4.59044 0
M  V30 7766 C 761.707 -3.88352 -4.73127 0
M  V30 7767 N 760.844 -3.76098 -5.9287 0
M  V30 7768 H 765.684 -2.49349 -1.63184 0
M  V30 7769 H 763.221 -1.23725 -0.795641 0
M  V30 7770 H 765.179 -1.48649 -3.89819 0
M  V30 7771 H 763.809 -0.607442 -3.17033 0
M  V30 7772 H 762.861 -2.91561 -2.44329 0
M  V30 7773 H 764.173 -3.67847 -3.36883 0
M  V30 7774 H 763.327 -2.61875 -5.47272 0
M  V30 7775 H 762.066 -1.75135 -4.55169 0
M  V30 7776 H 761.071 -3.94137 -3.83322 0
M  V30 7777 H 762.296 -4.81591 -4.78797 0
M  V30 7778 H 760.242 -2.867 -5.90033 0
M  V30 7779 H 760.159 -4.59509 -6.00323 0
M  V30 7780 H 761.427 -3.74607 -6.83586 0
M  V30 7781 N 765.656 0.84705 -1.32902 0
M  V30 7782 C 767.067 1.41785 -1.21466 0
M  V30 7783 C 767.418 1.95464 0.169767 0
M  V30 7784 O 766.543 1.88157 1.06892 0
M  V30 7785 C 767.138 2.57734 -2.19906 0
M  V30 7786 C 765.697 3.10791 -2.12334 0
M  V30 7787 C 764.844 1.83562 -2.07847 0
M  V30 7788 H 767.795 0.653532 -1.44619 0
M  V30 7789 H 767.816 3.35123 -1.80202 0
M  V30 7790 H 767.328 2.18635 -3.20656 0
M  V30 7791 H 765.429 3.54455 -1.14858 0
M  V30 7792 H 765.542 3.71519 -3.02506 0
M  V30 7793 H 763.906 2.03475 -1.53199 0
M  V30 7794 H 764.689 1.4667 -3.10392 0
M  V30 7795 N 767.134 1.16236 1.06428 0
M  V30 7796 C 768.064 0.890807 2.1584 0
M  V30 7797 C 769.045 -0.162333 1.69324 0
M  V30 7798 O 770.23 -0.0147191 1.94194 0
M  V30 7799 C 767.36 0.389615 3.45108 0
M  V30 7800 C 766.314 1.38051 4.05125 0
M  V30 7801 C 765.64 0.737773 5.29586 0
M  V30 7802 C 766.94 2.74965 4.44062 0
M  V30 7803 H 768.634 1.80577 2.38814 0
M  V30 7804 H 766.18 0.869657 1.14774 0
M  V30 7805 H 768.133 0.187127 4.20984 0
M  V30 7806 H 766.857 -0.560851 3.21748 0
M  V30 7807 H 765.516 1.56952 3.31303 0
M  V30 7808 H 765.164 -0.219135 5.02522 0
M  V30 7809 H 764.864 1.39914 5.70699 0
M  V30 7810 H 766.388 0.545275 6.0816 0
M  V30 7811 H 767.802 2.59855 5.11027 0
M  V30 7812 H 766.199 3.37563 4.96156 0
M  V30 7813 H 767.269 3.30321 3.54987 0
M  V30 7814 N 768.612 -1.24939 0.960631 0
M  V30 7815 C 769.842 -1.96595 0.635123 0
M  V30 7816 C 770.25 -1.71538 -0.798206 0
M  V30 7817 O 769.593 -0.991727 -1.5463 0
M  V30 7818 C 769.655 -3.49994 0.821248 0
M  V30 7819 C 769.319 -3.98738 2.23287 0
M  V30 7820 C 770.316 -4.08965 3.21004 0
M  V30 7821 C 768.001 -4.32247 2.55867 0
M  V30 7822 C 769.995 -4.52025 4.49391 0
M  V30 7823 C 767.682 -4.74991 3.84482 0
M  V30 7824 C 768.68 -4.84844 4.81056 0
M  V30 7825 O 768.368 -5.26638 6.07378 0
M  V30 7826 H 768.1 -0.633265 0.23654 0
M  V30 7827 H 770.654 -1.5991 1.28911 0
M  V30 7828 H 768.884 -3.86543 0.110105 0
M  V30 7829 H 770.573 -4.02859 0.495892 0
M  V30 7830 H 771.339 -3.83302 2.97161 0
M  V30 7831 H 767.218 -4.23801 1.81421 0
M  V30 7832 H 770.762 -4.5963 5.24773 0
M  V30 7833 H 766.659 -5.00101 4.08129 0
M  V30 7834 H 767.427 -5.44807 6.10842 0
M  V30 7835 N 770.09 -0.729906 -1.39679 0
M  V30 7836 C 771.336 -0.27603 -2.00913 0
M  V30 7837 C 771.669 1.13227 -1.57776 0
M  V30 7838 O 770.944 1.7709 -0.804319 0
M  V30 7839 C 771.227 -0.372157 -3.58172 0
M  V30 7840 C 771.08 -1.81986 -4.11341 0
M  V30 7841 C 772.399 0.248378 -4.39399 0
M  V30 7842 H 769.518 -0.101773 -0.729939 0
M  V30 7843 H 772.16 -0.925104 -1.65957 0
M  V30 7844 H 770.31 0.180459 -3.88081 0
M  V30 7845 H 771.982 -2.42896 -3.92172 0
M  V30 7846 H 770.225 -2.34287 -3.65092 0
M  V30 7847 H 770.896 -1.83842 -5.20486 0
M  V30 7848 H 773.372 -0.222645 -4.15504 0
M  V30 7849 H 772.248 0.150746 -5.48693 0
M  V30 7850 H 772.509 1.33378 -4.21501 0
M  V30 7851 N 771.568 1.50203 -0.477153 0
M  V30 7852 C 772.816 2.01959 0.0755889 0
M  V30 7853 C 773.137 1.3608 1.39668 0
M  V30 7854 O 772.407 0.508136 1.89195 0
M  V30 7855 H 770.987 0.74636 0.0309248 0
M  V30 7856 H 773.649 1.84473 -0.628959 0
M  V30 7857 H 772.745 3.11305 0.222683 0
M  V30 7858 N 773.046 0.209999 1.56195 0
M  V30 7859 C 773.976 -0.699746 2.22769 0
M  V30 7860 C 774.957 -1.20993 1.1956 0
M  V30 7861 O 776.142 -1.25605 1.48112 0
M  V30 7862 C 773.272 -1.91302 2.89863 0
M  V30 7863 C 772.226 -1.53715 3.99444 0
M  V30 7864 C 771.552 -2.82826 4.53777 0
M  V30 7865 C 772.852 -0.735836 5.17091 0
M  V30 7866 H 774.546 -0.144716 2.9905 0
M  V30 7867 H 772.092 -0.0681645 1.43839 0
M  V30 7868 H 774.045 -2.5548 3.35124 0
M  V30 7869 H 772.769 -2.49283 2.11011 0
M  V30 7870 H 771.428 -0.918892 3.54897 0
M  V30 7871 H 771.076 -3.38927 3.71669 0
M  V30 7872 H 770.776 -2.58415 5.27727 0
M  V30 7873 H 772.3 -3.47966 5.01749 0
M  V30 7874 H 773.714 -1.28105 5.58804 0
M  V30 7875 H 772.111 -0.589272 5.972 0
M  V30 7876 H 773.181 0.260004 4.84202 0
M  V30 7877 N 774.524 -1.57472 -0.0634922 0
M  V30 7878 C 775.487 -2.03268 -1.059 0
M  V30 7879 C 776.487 -0.931028 -1.31105 0
M  V30 7880 O 777.677 -1.19567 -1.26686 0
M  V30 7881 C 774.809 -2.42039 -2.40062 0
M  V30 7882 H 776.002 -2.92454 -0.664119 0
M  V30 7883 H 773.555 -1.53206 -0.309444 0
M  V30 7884 H 774.29 -1.55904 -2.84367 0
M  V30 7885 H 774.075 -3.22437 -2.23108 0
M  V30 7886 H 775.565 -2.78017 -3.11603 0
M  V30 7887 N 776.003 0.335068 -1.53997 0
M  V30 7888 C 776.913 1.43511 -1.85585 0
M  V30 7889 C 777.929 1.57162 -0.746726 0
M  V30 7890 O 779.105 1.72477 -1.03988 0
M  V30 7891 C 776.17 2.78386 -2.06646 0
M  V30 7892 C 775.231 2.74007 -3.30483 0
M  V30 7893 C 774.464 4.02449 -3.50529 0
M  V30 7894 O 774.687 5.00147 -2.74242 0
M  V30 7895 O 773.621 4.06405 -4.4398 0
M  V30 7896 H 777.447 1.19731 -2.79102 0
M  V30 7897 H 775.032 0.528033 -1.39758 0
M  V30 7898 H 776.914 3.58247 -2.21894 0
M  V30 7899 H 775.589 3.0208 -1.16317 0
M  V30 7900 H 774.496 1.92736 -3.2063 0
M  V30 7901 H 775.829 2.55267 -4.20832 0
M  V30 7902 N 777.481 1.45874 0.596531 0
M  V30 7903 C 778.428 1.55389 1.70655 0
M  V30 7904 C 779.398 0.399036 1.61236 0
M  V30 7905 O 780.583 0.61396 1.80652 0
M  V30 7906 C 777.723 1.53705 3.0898 0
M  V30 7907 C 776.836 2.79823 3.29125 0
M  V30 7908 C 775.971 2.69735 4.5762 0
M  V30 7909 C 775.01 3.90856 4.71061 0
M  V30 7910 N 774.147 3.79237 5.90867 0
M  V30 7911 H 778.987 2.50211 1.61859 0
M  V30 7912 H 776.524 1.24146 0.789069 0
M  V30 7913 H 778.482 1.50715 3.89026 0
M  V30 7914 H 777.112 0.624247 3.16706 0
M  V30 7915 H 776.164 2.92852 2.42779 0
M  V30 7916 H 777.476 3.69628 3.34927 0
M  V30 7917 H 776.63 2.64773 5.45875 0
M  V30 7918 H 775.369 1.77547 4.54234 0
M  V30 7919 H 774.374 3.96164 3.81227 0
M  V30 7920 H 775.599 4.84124 4.76236 0
M  V30 7921 H 773.545 2.89825 5.88504 0
M  V30 7922 H 773.462 4.62686 5.97877 0
M  V30 7923 H 774.73 3.78227 6.8159 0
M  V30 7924 N 778.959 -0.83999 1.33349 0
M  V30 7925 C 780.375 -1.13049 1.12659 0
M  V30 7926 C 780.575 -2.01328 -0.0832613 0
M  V30 7927 O 779.631 -2.40669 -0.763856 0
M  V30 7928 C 780.944 -1.79366 2.41347 0
M  V30 7929 C 782.492 -1.91937 2.47243 0
M  V30 7930 C 782.967 -2.6167 3.75889 0
M  V30 7931 N 784.458 -2.69184 3.76954 0
M  V30 7932 C 785.193 -3.23827 4.73206 0
M  V30 7933 N 784.689 -3.79166 5.79832 0
M  V30 7934 N 786.482 -3.22068 4.60683 0
M  V30 7935 H 778.633 -0.252432 2.10895 0
M  V30 7936 H 780.896 -0.174501 0.931801 0
M  V30 7937 H 780.602 -1.2196 3.29877 0
M  V30 7938 H 780.476 -2.79396 2.53412 0
M  V30 7939 H 782.863 -2.48498 1.59163 0
M  V30 7940 H 782.944 -0.908604 2.39119 0
M  V30 7941 H 782.588 -2.05769 4.64351 0
M  V30 7942 H 782.518 -3.63217 3.81289 0
M  V30 7943 H 785.009 -2.2994 2.99893 0
M  V30 7944 H 785.322 -4.19061 6.49313 0
M  V30 7945 H 783.667 -3.77457 5.83568 0
M  V30 7946 H 786.858 -2.78092 3.7654 0
M  V30 7947 H 787.031 -3.64351 5.35866 0
M  V30 7948 N 780.437 -1.16799 -1.0581 0
M  V30 7949 C 781.347 -0.893492 -2.16919 0
M  V30 7950 C 782.363 0.136061 -1.73467 0
M  V30 7951 O 783.539 -0.0417348 -2.01357 0
M  V30 7952 C 780.604 -0.403763 -3.44341 0
M  V30 7953 C 779.665 -1.49914 -4.02274 0
M  V30 7954 C 778.898 -1.03269 -5.23614 0
M  V30 7955 O 779.121 0.115647 -5.70283 0
M  V30 7956 O 778.055 -1.8231 -5.73626 0
M  V30 7957 H 781.881 -1.82274 -2.42919 0
M  V30 7958 H 779.466 -0.948361 -1.1544 0
M  V30 7959 H 781.348 -0.137874 -4.21174 0
M  V30 7960 H 780.023 0.497413 -3.19855 0
M  V30 7961 H 778.93 -1.81883 -3.26909 0
M  V30 7962 H 780.263 -2.3758 -4.31064 0
M  V30 7963 N 781.915 1.24427 -0.967243 0
M  V30 7964 C 782.847 2.24641 -0.454856 0
M  V30 7965 C 783.86 1.56849 0.436152 0
M  V30 7966 O 785.049 1.76846 0.242401 0
M  V30 7967 C 782.149 3.36954 0.362672 0
M  V30 7968 C 781.322 4.34318 -0.518324 0
M  V30 7969 C 780.381 5.25638 0.243122 0
M  V30 7970 O 779.407 5.68043 -0.362791 0
M  V30 7971 N 780.609 5.59897 1.53282 0
M  V30 7972 H 783.374 2.69238 -1.31648 0
M  V30 7973 H 780.935 1.38464 -0.839015 0
M  V30 7974 H 782.927 3.95014 0.880094 0
M  V30 7975 H 781.497 2.91646 1.12522 0
M  V30 7976 H 780.717 3.74953 -1.21672 0
M  V30 7977 H 782.005 4.96338 -1.11919 0
M  V30 7978 H 781.403 5.27373 2.04682 0
M  V30 7979 H 779.96 6.20488 1.99594 0
M  V30 7980 N 783.393 0.737304 1.3929 0
M  V30 7981 C 784.809 0.413132 1.5416 0
M  V30 7982 C 785.009 -1.07574 1.70382 0
M  V30 7983 O 784.065 -1.86185 1.70562 0
M  V30 7984 C 785.378 1.19817 2.75798 0
M  V30 7985 C 786.926 1.18662 2.89635 0
M  V30 7986 C 787.401 1.95427 4.14213 0
M  V30 7987 N 788.892 1.92605 4.21257 0
M  V30 7988 C 789.627 2.48808 5.16606 0
M  V30 7989 N 789.123 3.13659 6.1773 0
M  V30 7990 N 790.916 2.38829 5.08839 0
M  V30 7991 H 783.067 1.70243 1.27008 0
M  V30 7992 H 785.33 0.720802 0.61575 0
M  V30 7993 H 785.036 2.25179 2.70161 0
M  V30 7994 H 784.91 0.804144 3.68529 0
M  V30 7995 H 787.297 0.141112 2.94762 0
M  V30 7996 H 787.378 1.62003 1.97961 0
M  V30 7997 H 787.022 2.9998 4.09847 0
M  V30 7998 H 786.952 1.4949 5.04936 0
M  V30 7999 H 789.443 1.45362 3.48824 0
M  V30 8000 H 789.756 3.54006 6.8695 0
M  V30 8001 H 788.101 3.17749 6.1811 0
M  V30 8002 H 791.292 1.87806 4.28773 0
M  V30 8003 H 791.465 2.82929 5.82971 0
M  V30 8004 N 784.871 -1.49948 0.485112 0
M  V30 8005 C 785.801 -2.31675 -0.291364 0
M  V30 8006 C 786.782 -1.39216 -0.977383 0
M  V30 8007 O 787.967 -1.68133 -0.971855 0
M  V30 8008 C 785.097 -3.19326 -1.36558 0
M  V30 8009 C 784.051 -4.2045 -0.800359 0
M  V30 8010 C 783.377 -4.96931 -1.97391 0
M  V30 8011 C 784.677 -5.21925 0.197867 0
M  V30 8012 H 786.371 -2.96839 0.390775 0
M  V30 8013 H 783.917 -1.42749 0.189375 0
M  V30 8014 H 785.87 -3.75304 -1.91638 0
M  V30 8015 H 784.594 -2.52074 -2.07668 0
M  V30 8016 H 783.253 -3.65594 -0.271428 0
M  V30 8017 H 782.901 -4.26141 -2.67232 0
M  V30 8018 H 782.601 -5.65344 -1.60187 0
M  V30 8019 H 784.125 -5.55749 -2.52935 0
M  V30 8020 H 785.539 -5.72691 -0.264239 0
M  V30 8021 H 783.936 -5.98138 0.484908 0
M  V30 8022 H 785.006 -4.71809 1.11912 0
M  V30 8023 N 786.349 -0.21828 -1.56081 0
M  V30 8024 C 787.574 0.422302 -2.03055 0
M  V30 8025 C 787.999 1.5279 -1.09713 0
M  V30 8026 O 787.357 1.81102 -0.0847187 0
M  V30 8027 C 787.405 0.934177 -3.48289 0
M  V30 8028 O 786.509 2.04574 -3.58083 0
M  V30 8029 H 785.85 0.0959764 -0.657027 0
M  V30 8030 H 788.38 -0.335958 -2.01823 0
M  V30 8031 H 788.39 1.24484 -3.88546 0
M  V30 8032 H 787.065 0.124963 -4.15712 0
M  V30 8033 H 785.642 1.74196 -3.29712 0
M  V30 8034 N 787.827 1.57504 0.0551401 0
M  V30 8035 C 789.243 1.54236 0.410292 0
M  V30 8036 C 789.443 0.940839 1.78187 0
M  V30 8037 O 788.499 0.550541 2.46425 0
M  V30 8038 C 789.812 2.98816 0.336064 0
M  V30 8039 C 791.36 3.10236 0.415047 0
M  V30 8040 C 791.835 4.56499 0.37055 0
M  V30 8041 N 793.326 4.61199 0.43013 0
M  V30 8042 C 794.061 5.71873 0.418179 0
M  V30 8043 N 793.557 6.91864 0.360056 0
M  V30 8044 N 795.35 5.60165 0.465977 0
M  V30 8045 H 787.501 1.94965 -0.842759 0
M  V30 8046 H 789.764 0.893096 -0.317937 0
M  V30 8047 H 789.47 3.4645 -0.605429 0
M  V30 8048 H 789.344 3.59564 1.13988 0
M  V30 8049 H 791.731 2.62566 1.34697 0
M  V30 8050 H 791.812 2.52367 -0.417648 0
M  V30 8051 H 791.456 5.0483 -0.557592 0
M  V30 8052 H 791.386 5.12249 1.221 0
M  V30 8053 H 793.877 3.74857 0.478623 0
M  V30 8054 H 794.19 7.71983 0.35532 0
M  V30 8055 H 792.535 6.94233 0.326492 0
M  V30 8056 H 795.726 4.65322 0.509194 0
M  V30 8057 H 795.899 6.46413 0.453194 0
M  V30 8058 N 789.305 -0.326896 1.54172 0
M  V30 8059 C 790.235 -1.40741 1.86317 0
M  V30 8060 C 791.216 -1.54125 0.719684 0
M  V30 8061 O 792.401 -1.6806 0.973117 0
M  V30 8062 C 789.531 -2.77557 2.08757 0
M  V30 8063 C 788.485 -2.78965 3.24596 0
M  V30 8064 C 787.811 -4.18824 3.32401 0
M  V30 8065 C 789.111 -2.4301 4.62324 0
M  V30 8066 H 790.805 -1.14088 2.76811 0
M  V30 8067 H 788.351 -0.547389 1.3319 0
M  V30 8068 H 790.304 -3.53209 2.29829 0
M  V30 8069 H 789.028 -3.0568 1.15009 0
M  V30 8070 H 787.687 -2.05767 3.03406 0
M  V30 8071 H 787.335 -4.44083 2.36218 0
M  V30 8072 H 787.035 -4.20673 4.10253 0
M  V30 8073 H 788.559 -4.96294 3.55703 0
M  V30 8074 H 789.973 -3.08375 4.83299 0
M  V30 8075 H 788.37 -2.56116 5.42701 0
M  V30 8076 H 789.44 -1.38165 4.64799 0
M  V30 8077 N 790.784 -1.46188 -0.588786 0
M  V30 8078 C 791.716 -1.52319 -1.71265 0
M  V30 8079 C 792.729 -0.412096 -1.57498 0
M  V30 8080 O 793.918 -0.680146 -1.65034 0
M  V30 8081 C 791.018 -1.38164 -3.09458 0
M  V30 8082 C 790.191 -2.63284 -3.49286 0
M  V30 8083 C 789.25 -2.43415 -4.66514 0
M  V30 8084 O 788.276 -3.17113 -4.72682 0
M  V30 8085 N 789.478 -1.49187 -5.61002 0
M  V30 8086 H 792.243 -2.49219 -1.66463 0
M  V30 8087 H 789.804 -1.42167 -0.774601 0
M  V30 8088 H 791.796 -1.22653 -3.85666 0
M  V30 8089 H 790.366 -0.494678 -3.08661 0
M  V30 8090 H 789.586 -2.93779 -2.62845 0
M  V30 8091 H 790.874 -3.46413 -3.7266 0
M  V30 8092 H 790.272 -0.884027 -5.5875 0
M  V30 8093 H 788.829 -1.39642 -6.36666 0
M  V30 8094 N 792.262 0.832906 -1.33792 0
M  V30 8095 C 793.194 1.95042 -1.2038 0
M  V30 8096 C 794.207 1.62253 -0.133299 0
M  V30 8097 O 795.396 1.74315 -0.384261 0
M  V30 8098 C 792.496 3.287 -0.825215 0
M  V30 8099 C 791.669 3.89581 -1.98861 0
M  V30 8100 C 790.728 5.01602 -1.59003 0
M  V30 8101 O 789.754 5.20431 -2.30522 0
M  V30 8102 N 790.956 5.78356 -0.498446 0
M  V30 8103 H 793.721 2.07083 -2.16649 0
M  V30 8104 H 791.282 1.00896 -1.26616 0
M  V30 8105 H 793.274 4.01074 -0.540559 0
M  V30 8106 H 791.844 3.12565 0.0469796 0
M  V30 8107 H 791.064 3.09723 -2.43856 0
M  V30 8108 H 792.352 4.26989 -2.76691 0
M  V30 8109 H 791.75 5.65618 0.0963297 0
M  V30 8110 H 790.307 6.51226 -0.273485 0
M  V30 8111 N 793.74 1.17359 1.05189 0
M  V30 8112 C 795.156 0.920861 1.30355 0
M  V30 8113 C 795.356 -0.419993 1.97074 0
M  V30 8114 O 794.412 -1.15696 2.24434 0
M  V30 8115 C 795.725 2.07818 2.1733 0
M  V30 8116 C 797.273 2.1152 2.30712 0
M  V30 8117 C 797.748 3.26637 3.21048 0
M  V30 8118 N 799.239 3.26426 3.28634 0
M  V30 8119 C 799.974 4.12141 3.98657 0
M  V30 8120 N 799.47 5.07966 4.71107 0
M  V30 8121 N 801.263 4.00091 3.94821 0
M  V30 8122 H 793.414 2.03666 0.602821 0
M  V30 8123 H 795.677 0.889294 0.328421 0
M  V30 8124 H 795.383 3.04727 1.75597 0
M  V30 8125 H 795.257 2.02922 3.17966 0
M  V30 8126 H 797.644 1.15196 2.71687 0
M  V30 8127 H 797.725 2.20477 1.29706 0
M  V30 8128 H 797.369 4.23227 2.80788 0
M  V30 8129 H 797.299 3.14917 4.2206 0
M  V30 8130 H 799.79 2.57045 2.77013 0
M  V30 8131 H 800.103 5.69766 5.22099 0
M  V30 8132 H 798.448 5.11936 4.7005 0
M  V30 8133 H 801.639 3.24523 3.37346 0
M  V30 8134 H 801.812 4.6711 4.49123 0
M  V30 8135 N 795.218 -1.23913 0.973828 0
M  V30 8136 C 796.465 -1.92151 0.639079 0
M  V30 8137 C 796.793 -1.76064 -0.826545 0
M  V30 8138 O 796.048 -1.11126 -1.61088 0
M  V30 8139 C 796.347 -3.4406 0.967356 0
M  V30 8140 C 796.013 -3.80321 2.42212 0
M  V30 8141 C 794.675 -3.8993 2.81971 0
M  V30 8142 C 797.027 -3.97935 3.36596 0
M  V30 8143 C 794.355 -4.14575 4.15144 0
M  V30 8144 C 796.707 -4.24079 4.69404 0
M  V30 8145 C 795.371 -4.31908 5.08932 0
M  V30 8146 H 794.641 -0.70313 0.233856 0
M  V30 8147 H 797.288 -1.47072 1.22646 0
M  V30 8148 H 795.593 -3.90667 0.297807 0
M  V30 8149 H 797.29 -3.95077 0.686654 0
M  V30 8150 H 793.88 -3.73411 2.10385 0
M  V30 8151 H 798.064 -3.89908 3.07059 0
M  V30 8152 H 793.32 -4.18858 4.45385 0
M  V30 8153 H 797.494 -4.36652 5.42502 0
M  V30 8154 H 795.121 -4.50758 6.12145 0
M  V30 8155 N 796.696 -0.74468 -1.38897 0
M  V30 8156 C 798.112 -0.421302 -1.53939 0
M  V30 8157 C 798.312 1.06668 -1.70951 0
M  V30 8158 O 797.368 1.85278 -1.71547 0
M  V30 8159 C 798.681 -1.21278 -2.75159 0
M  V30 8160 C 800.229 -1.20196 -2.89001 0
M  V30 8161 C 800.704 -1.97621 -4.13171 0
M  V30 8162 N 802.195 -1.94836 -4.2023 0
M  V30 8163 C 802.93 -2.51545 -5.15279 0
M  V30 8164 N 802.426 -3.1693 -6.16058 0
M  V30 8165 N 804.219 -2.41524 -5.07565 0
M  V30 8166 H 796.37 -1.70914 -1.26103 0
M  V30 8167 H 798.633 -0.724058 -0.611919 0
M  V30 8168 H 798.339 -2.26609 -2.68963 0
M  V30 8169 H 798.213 -0.823677 -3.68097 0
M  V30 8170 H 800.6 -0.156742 -2.94683 0
M  V30 8171 H 800.681 -1.63051 -1.97099 0
M  V30 8172 H 800.325 -3.02149 -4.0825 0
M  V30 8173 H 800.255 -1.52166 -5.04136 0
M  V30 8174 H 802.746 -1.4721 -3.48048 0
M  V30 8175 H 803.059 -3.57644 -6.85062 0
M  V30 8176 H 801.404 -3.21023 -6.16417 0
M  V30 8177 H 804.595 -1.90077 -4.27771 0
M  V30 8178 H 804.768 -2.86016 -5.81462 0
M  V30 8179 N 798.174 1.49689 -0.493057 0
M  V30 8180 C 799.107 2.25712 0.336062 0
M  V30 8181 C 800.085 1.29953 0.977294 0
M  V30 8182 O 801.269 1.59225 1.00895 0
M  V30 8183 C 798.396 3.0501 1.47263 0
M  V30 8184 C 797.442 4.15863 0.946575 0
M  V30 8185 S 798.275 5.35272 -0.156323 0
M  V30 8186 C 799.431 6.18123 0.983601 0
M  V30 8187 H 799.664 2.95688 -0.309215 0
M  V30 8188 H 797.197 1.51872 -0.278238 0
M  V30 8189 H 799.155 3.51284 2.12391 0
M  V30 8190 H 797.816 2.34519 2.08949 0
M  V30 8191 H 797.009 4.70834 1.7981 0
M  V30 8192 H 796.611 3.72139 0.372647 0
M  V30 8193 H 798.903 6.50588 1.89056 0
M  V30 8194 H 799.846 7.06521 0.472687 0
M  V30 8195 H 800.254 5.50547 1.24735 0
M  V30 8196 N 799.652 0.226554 1.55963 0
M  V30 8197 C 800.602 -0.694986 2.1715 0
M  V30 8198 C 801.586 -1.15394 1.12129 0
M  V30 8199 O 802.778 -1.1071 1.38102 0
M  V30 8200 C 799.907 -1.9007 2.85882 0
M  V30 8201 C 798.993 -1.46119 3.98133 0
M  V30 8202 N 799.384 -0.734584 5.00437 0
M  V30 8203 C 797.682 -1.74809 4.10314 0
M  V30 8204 C 798.383 -0.509773 5.79462 0
M  V30 8205 N 797.359 -1.06796 5.33006 0
M  V30 8206 H 801.161 -0.131469 2.93606 0
M  V30 8207 H 798.675 0.0280165 1.62376 0
M  V30 8208 H 800.672 -2.57169 3.28131 0
M  V30 8209 H 799.332 -2.46864 2.10923 0
M  V30 8210 H 800.343 -0.386757 5.16454 0
M  V30 8211 H 797.02 -2.32887 3.46511 0
M  V30 8212 H 798.41 0.0688847 6.71865 0
M  V30 8213 N 801.13 -1.57531 -0.0467866 0
M  V30 8214 C 802.541 -1.76945 -0.595603 0
M  V30 8215 C 802.892 -0.855354 -1.76573 0
M  V30 8216 O 802.017 -0.045668 -2.16352 0
M  V30 8217 C 802.612 -3.20881 -1.08725 0
M  V30 8218 C 801.171 -3.41553 -1.58172 0
M  V30 8219 C 800.318 -2.72533 -0.511968 0
M  V30 8220 H 803.269 -1.57682 0.179436 0
M  V30 8221 H 803.29 -3.26419 -1.95528 0
M  V30 8222 H 802.802 -3.87385 -0.235398 0
M  V30 8223 H 800.903 -2.80199 -2.456 0
M  V30 8224 H 801.016 -4.50104 -1.64143 0
M  V30 8225 H 799.38 -2.35797 -0.962899 0
M  V30 8226 H 800.163 -3.41709 0.330117 0
M  V30 8227 N 802.608 0.318715 -1.54344 0
M  V30 8228 C 803.857 1.05363 -1.71993 0
M  V30 8229 C 804.17 1.89018 -0.503155 0
M  V30 8230 O 805.376 2.65639 -0.561085 0
M  V30 8231 C 803.832 1.92281 -3.0423 0
M  V30 8232 C 803.44 1.13715 -4.33328 0
M  V30 8233 C 805.184 2.65479 -3.31242 0
M  V30 8234 C 803.091 1.99806 -5.56625 0
M  V30 8235 H 802.021 0.397081 -0.64097 0
M  V30 8236 H 804.672 0.311598 -1.80835 0
M  V30 8237 H 803.054 2.70402 -2.89307 0
M  V30 8238 H 804.228 0.403305 -4.59032 0
M  V30 8239 H 802.543 0.521769 -4.13118 0
M  V30 8240 H 805.14 3.30209 -4.20555 0
M  V30 8241 H 805.483 3.33374 -2.49334 0
M  V30 8242 H 806.016 1.94417 -3.47054 0
M  V30 8243 H 802.755 1.36411 -6.41149 0
M  V30 8244 H 802.275 2.70911 -5.35133 0
M  V30 8245 H 803.954 2.58277 -5.93213 0
M  V30 8246 N 804.086 1.46499 0.581025 0
M  V30 8247 C 805.502 1.31491 0.904563 0
M  V30 8248 C 805.702 0.287598 1.99437 0
M  V30 8249 O 804.758 -0.309247 2.50599 0
M  V30 8250 C 806.071 2.70163 1.32032 0
M  V30 8251 C 807.619 2.78266 1.43308 0
M  V30 8252 C 808.094 4.17524 1.8825 0
M  V30 8253 N 809.585 4.19949 1.9544 0
M  V30 8254 C 810.32 5.24594 2.31493 0
M  V30 8255 N 809.816 6.39564 2.66326 0
M  V30 8256 N 811.609 5.11961 2.32062 0
M  V30 8257 H 803.76 2.11946 -0.138856 0
M  V30 8258 H 806.023 0.948 0.000548528 0
M  V30 8259 H 805.729 3.46655 0.593554 0
M  V30 8260 H 805.603 3.00379 2.2815 0
M  V30 8261 H 807.99 2.02061 2.15071 0
M  V30 8262 H 808.071 2.51732 0.45438 0
M  V30 8263 H 807.715 4.94225 1.17065 0
M  V30 8264 H 807.645 4.41466 2.87081 0
M  V30 8265 H 810.136 3.36996 1.71004 0
M  V30 8266 H 810.449 7.15187 2.92793 0
M  V30 8267 H 808.794 6.42923 2.6396 0
M  V30 8268 H 811.985 4.21177 2.04272 0
M  V30 8269 H 812.158 5.93626 2.5983 0
M  V30 8270 N 805.565 -0.825799 1.34232 0
M  V30 8271 C 806.515 -1.92533 1.22128 0
M  V30 8272 C 807.499 -1.60444 0.121002 0
M  V30 8273 O 808.691 -1.73497 0.350385 0
M  V30 8274 C 805.82 -3.29134 0.975995 0
M  V30 8275 C 804.906 -3.6735 2.11931 0
M  V30 8276 N 805.297 -3.77154 3.37029 0
M  V30 8277 C 803.595 -3.97179 2.02891 0
M  V30 8278 C 804.296 -4.10552 4.12095 0
M  V30 8279 N 803.272 -4.23619 3.40658 0
M  V30 8280 H 807.074 -1.98287 2.16932 0
M  V30 8281 H 804.588 -1.01929 1.26429 0
M  V30 8282 H 806.585 -4.07717 0.870187 0
M  V30 8283 H 805.245 -3.24679 0.036606 0
M  V30 8284 H 806.256 -3.60723 3.71618 0
M  V30 8285 H 802.933 -4.00861 1.16692 0
M  V30 8286 H 804.323 -4.25365 5.2011 0
M  V30 8287 N 807.043 -1.17915 -1.04565 0
M  V30 8288 C 807.993 -0.869634 -2.10764 0
M  V30 8289 C 808.977 0.158502 -1.60117 0
M  V30 8290 O 810.169 -0.04483 -1.76943 0
M  V30 8291 C 807.298 -0.391642 -3.41059 0
M  V30 8292 C 806.384 -1.45156 -3.98485 0
M  V30 8293 N 806.775 -2.6667 -4.29792 0
M  V30 8294 C 805.073 -1.3109 -4.263 0
M  V30 8295 C 805.774 -3.34823 -4.75677 0
M  V30 8296 N 804.75 -2.62203 -4.76183 0
M  V30 8297 H 808.552 -1.79342 -2.32838 0
M  V30 8298 H 806.066 -1.0688 -1.22272 0
M  V30 8299 H 808.063 -0.151428 -4.16625 0
M  V30 8300 H 806.723 0.525862 -3.20413 0
M  V30 8301 H 807.734 -3.0358 -4.19594 0
M  V30 8302 H 804.411 -0.455545 -4.15007 0
M  V30 8303 H 805.801 -4.38645 -5.0896 0
M  V30 8304 N 808.521 1.23394 -0.980386 0
M  V30 8305 C 809.454 2.23404 -0.465404 0
M  V30 8306 C 810.432 1.55735 0.467471 0
M  V30 8307 O 811.616 1.84295 0.395921 0
M  V30 8308 C 808.743 3.3712 0.32672 0
M  V30 8309 C 807.789 4.22935 -0.550296 0
M  V30 8310 S 808.622 4.96824 -1.99814 0
M  V30 8311 C 809.778 6.13991 -1.21516 0
M  V30 8312 H 810.011 2.6674 -1.31289 0
M  V30 8313 H 807.544 1.32874 -0.78638 0
M  V30 8314 H 809.502 4.03065 0.777738 0
M  V30 8315 H 808.163 2.92317 1.14933 0
M  V30 8316 H 807.356 5.03966 0.0585298 0
M  V30 8317 H 806.958 3.62058 -0.937558 0
M  V30 8318 H 809.25 6.75822 -0.476476 0
M  V30 8319 H 810.193 6.7926 -2.0003 0
M  V30 8320 H 810.601 5.59708 -0.733949 0
M  V30 8321 N 809.999 0.752036 1.385 0
M  V30 8322 C 810.947 0.112634 2.32327 0
M  V30 8323 C 811.941 -0.707037 1.53939 0
M  V30 8324 O 813.147 -0.606309 1.69481 0
M  V30 8325 H 809.522 0.0176275 0.751793 0
M  V30 8326 H 811.493 0.920074 2.83861 0
M  V30 8327 C 810.242 -0.767458 3.39124 0
M  V30 8328 H 809.565 -0.146122 3.99533 0
M  V30 8329 H 811.005 -1.18216 4.07187 0
M  V30 8330 C 809.464 -1.90938 2.77568 0
M  V30 8331 O 809.994 -3.00342 2.66754 0
M  V30 8332 N 808.2 -1.70396 2.35401 0
M  V30 8333 H 807.747 -0.81413 2.44397 0
M  V30 8334 H 807.705 -2.46972 1.94557 0
M  V30 8335 N 811.477 -1.49425 0.500989 0
M  V30 8336 C 812.425 -2.30771 -0.291149 0
M  V30 8337 C 813.419 -1.3938 -0.962787 0
M  V30 8338 O 814.625 -1.56431 -0.890477 0
M  V30 8339 H 811 -0.743499 -0.11275 0
M  V30 8340 H 812.971 -2.95501 0.414917 0
M  V30 8341 C 811.72 -3.20725 -1.34279 0
M  V30 8342 H 811.043 -3.90975 -0.83538 0
M  V30 8343 H 812.483 -3.80583 -1.86903 0
M  V30 8344 C 810.942 -2.40334 -2.36095 0
M  V30 8345 O 811.472 -2.10749 -3.41976 0
M  V30 8346 N 809.678 -2.02359 -2.08565 0
M  V30 8347 H 809.225 -2.26619 -1.22482 0
M  V30 8348 H 809.183 -1.48878 -2.76916 0
M  V30 8349 N 812.955 -0.234822 -1.55841 0
M  V30 8350 C 814.366 0.270588 -1.84729 0
M  V30 8351 C 814.717 1.58494 -1.15646 0
M  V30 8352 O 813.842 2.12071 -0.430667 0
M  V30 8353 C 814.437 0.497733 -3.35124 0
M  V30 8354 C 812.996 0.947428 -3.64281 0
M  V30 8355 C 812.143 0.01787 -2.77294 0
M  V30 8356 H 815.094 -0.457691 -1.51957 0
M  V30 8357 H 815.115 1.34199 -3.56049 0
M  V30 8358 H 814.627 -0.459037 -3.85376 0
M  V30 8359 H 812.728 1.91709 -3.19497 0
M  V30 8360 H 812.841 0.812651 -4.72158 0
M  V30 8361 H 811.205 0.527071 -2.49187 0
M  V30 8362 H 811.988 -0.934056 -3.30349 0
M  V30 8363 N 814.433 1.57553 0.0384317 0
M  V30 8364 C 815.363 2.0898 1.04161 0
M  V30 8365 C 816.344 0.99029 1.38301 0
M  V30 8366 O 817.529 1.26499 1.47349 0
M  V30 8367 C 814.659 2.56145 2.34536 0
M  V30 8368 C 813.613 3.70275 2.14663 0
M  V30 8369 C 812.939 4.03612 3.50715 0
M  V30 8370 C 814.239 4.99067 1.54045 0
M  V30 8371 H 815.933 2.93046 0.613548 0
M  V30 8372 H 813.479 1.40973 0.293684 0
M  V30 8373 H 815.432 2.90741 3.05037 0
M  V30 8374 H 814.156 1.6915 2.79385 0
M  V30 8375 H 812.815 3.36013 1.46597 0
M  V30 8376 H 812.463 3.13698 3.93195 0
M  V30 8377 H 812.163 4.80482 3.38247 0
M  V30 8378 H 813.687 4.40735 4.22593 0
M  V30 8379 H 815.101 5.3168 2.14451 0
M  V30 8380 H 813.498 5.80484 1.52178 0
M  V30 8381 H 814.568 4.8226 0.505259 0
M  V30 8382 N 815.911 -0.310526 1.54511 0
M  V30 8383 C 816.859 -1.40272 1.85544 0
M  V30 8384 C 817.853 -1.52941 0.728377 0
M  V30 8385 O 819.059 -1.55172 0.912234 0
M  V30 8386 H 815.434 -0.468355 0.588343 0
M  V30 8387 H 817.405 -1.11329 2.76855 0
M  V30 8388 C 816.154 -2.76279 2.11105 0
M  V30 8389 H 815.477 -2.67308 2.97298 0
M  V30 8390 H 816.917 -3.51736 2.36765 0
M  V30 8391 C 815.376 -3.24472 0.906618 0
M  V30 8392 O 815.906 -4.01514 0.122358 0
M  V30 8393 N 814.112 -2.81676 0.714632 0
M  V30 8394 H 813.659 -2.19143 1.35404 0
M  V30 8395 H 813.617 -3.14272 -0.089703 0
M  V30 8396 N 817.389 -1.46805 -0.573248 0
M  V30 8397 C 818.617 -1.56191 -1.3569 0
M  V30 8398 C 819.032 -0.206362 -1.87669 0
M  V30 8399 O 818.389 0.797883 -1.64134 0
M  V30 8400 C 818.44 -2.57433 -2.53792 0
M  V30 8401 O 818.161 -3.87724 -2.03965 0
M  V30 8402 C 819.662 -2.76851 -3.4622 0
M  V30 8403 H 816.882 -0.527907 -0.414192 0
M  V30 8404 H 819.426 -1.92292 -0.695989 0
M  V30 8405 H 817.581 -2.24311 -3.15854 0
M  V30 8406 H 817.995 -4.42909 -2.80948 0
M  V30 8407 H 819.469 -3.5159 -4.25545 0
M  V30 8408 H 819.946 -1.84095 -3.98755 0
M  V30 8409 H 820.552 -3.11107 -2.89987 0
M  V30 8410 N 818.867 0.818669 -1.34668 0
M  V30 8411 C 820.278 1.39177 -1.24446 0
M  V30 8412 C 820.629 1.9578 0.128268 0
M  V30 8413 O 819.754 1.90382 1.02877 0
M  V30 8414 C 820.349 2.53012 -2.25323 0
M  V30 8415 C 818.908 3.06218 -2.18878 0
M  V30 8416 C 818.055 1.79112 -2.11694 0
M  V30 8417 H 821.006 0.622709 -1.45973 0
M  V30 8418 H 821.027 3.31226 -1.8727 0
M  V30 8419 H 820.539 2.11784 -3.25221 0
M  V30 8420 H 818.64 3.51939 -1.22351 0
M  V30 8421 H 818.753 3.65019 -3.10319 0
M  V30 8422 H 817.117 2.0018 -1.57481 0
M  V30 8423 H 817.9 1.40053 -3.13433 0
M  V30 8424 N 820.346 1.18468 1.03938 0
M  V30 8425 C 821.279 0.856251 2.11527 0
M  V30 8426 C 822.257 -0.182323 1.61575 0
M  V30 8427 O 823.441 -0.061 1.88401 0
M  V30 8428 C 820.568 0.279562 3.37544 0
M  V30 8429 C 819.614 1.29552 4.06348 0
M  V30 8430 S 820.447 2.85191 4.5324 0
M  V30 8431 C 821.603 2.29037 5.82489 0
M  V30 8432 H 821.836 1.76742 2.39059 0
M  V30 8433 H 819.369 1.01068 1.16725 0
M  V30 8434 H 821.327 -0.0466579 4.10473 0
M  V30 8435 H 819.988 -0.60975 3.08125 0
M  V30 8436 H 819.181 0.840922 4.96935 0
M  V30 8437 H 818.783 1.56804 3.39541 0
M  V30 8438 H 821.075 1.67376 6.565 0
M  V30 8439 H 822.018 3.17929 6.32714 0
M  V30 8440 H 822.426 1.72009 5.37655 0
M  V30 8441 N 821.824 -1.22873 0.986916 0
M  V30 8442 C 822.756 -2.23889 0.490537 0
M  V30 8443 C 823.769 -1.57523 -0.411144 0
M  V30 8444 O 824.958 -1.7721 -0.214236 0
M  V30 8445 C 822.058 -3.37488 -0.30902 0
M  V30 8446 C 821.231 -4.33438 0.587354 0
M  V30 8447 C 820.29 -5.25958 -0.159467 0
M  V30 8448 O 819.316 -5.67394 0.453115 0
M  V30 8449 N 820.518 -5.62265 -1.44355 0
M  V30 8450 H 823.283 -2.67109 1.35914 0
M  V30 8451 H 820.844 -1.37111 0.860937 0
M  V30 8452 H 822.836 -3.96365 -0.817139 0
M  V30 8453 H 821.406 -2.934 -1.07868 0
M  V30 8454 H 820.626 -3.72969 1.27622 0
M  V30 8455 H 821.914 -4.94495 1.19801 0
M  V30 8456 H 821.312 -5.30562 -1.96266 0
M  V30 8457 H 819.869 -6.23585 -1.89698 0
M  V30 8458 N 823.302 -0.75937 -1.38099 0
M  V30 8459 C 824.532 -0.328634 -2.0397 0
M  V30 8460 C 824.94 1.04989 -1.57398 0
M  V30 8461 O 824.283 1.67918 -0.744932 0
M  V30 8462 C 824.345 -0.279216 -3.58414 0
M  V30 8463 C 824.009 -1.60025 -4.28067 0
M  V30 8464 C 825.006 -2.55048 -4.53041 0
M  V30 8465 C 822.691 -1.87128 -4.66142 0
M  V30 8466 C 824.685 -3.7539 -5.15132 0
M  V30 8467 C 822.372 -3.07742 -5.27956 0
M  V30 8468 C 823.37 -4.01694 -5.52387 0
M  V30 8469 O 823.058 -5.20186 -6.12912 0
M  V30 8470 H 822.79 -0.137443 -0.66188 0
M  V30 8471 H 825.344 -1.03082 -1.77661 0
M  V30 8472 H 823.574 0.479254 -3.83719 0
M  V30 8473 H 825.263 0.122781 -4.05714 0
M  V30 8474 H 826.029 -2.35387 -4.24049 0
M  V30 8475 H 821.908 -1.14833 -4.46469 0
M  V30 8476 H 825.452 -4.48737 -5.34117 0
M  V30 8477 H 821.349 -3.27294 -5.56371 0
M  V30 8478 H 822.117 -5.20846 -6.31397 0
M  V30 8479 N 824.78 1.49157 -0.508906 0
M  V30 8480 C 825.743 2.27784 0.25434 0
M  V30 8481 C 826.743 1.34132 0.88686 0
M  V30 8482 O 827.933 1.5722 0.750168 0
M  V30 8483 C 825.065 3.12347 1.36573 0
M  V30 8484 H 826.258 2.96718 -0.435714 0
M  V30 8485 H 823.811 1.54052 -0.264128 0
M  V30 8486 H 824.546 2.47997 2.08969 0
M  V30 8487 H 824.331 3.81213 0.917543 0
M  V30 8488 H 825.821 3.71712 1.90315 0
M  V30 8489 N 826.258 0.243083 1.55714 0
M  V30 8490 C 827.483 -0.389944 2.03701 0
M  V30 8491 C 827.908 -1.51025 1.12129 0
M  V30 8492 O 827.266 -1.80944 0.11352 0
M  V30 8493 C 827.314 -0.878649 3.49731 0
M  V30 8494 O 826.418 -1.98851 3.61292 0
M  V30 8495 H 825.759 -0.0855115 0.658471 0
M  V30 8496 H 828.289 0.368023 2.01263 0
M  V30 8497 H 828.299 -1.18287 3.90477 0
M  V30 8498 H 826.974 -0.0588107 4.15858 0
M  V30 8499 H 825.551 -1.68928 3.32442 0
M  V30 8500 N 827.736 -1.57571 -0.0300757 0
M  V30 8501 C 829.147 -1.77567 -0.576802 0
M  V30 8502 C 829.498 -0.874034 -1.75656 0
M  V30 8503 O 828.623 -0.0686124 -2.16291 0
M  V30 8504 C 829.218 -3.22016 -1.05315 0
M  V30 8505 C 827.777 -3.43212 -1.5454 0
M  V30 8506 C 826.924 -2.73061 -0.483033 0
M  V30 8507 H 829.875 -1.57483 0.196151 0
M  V30 8508 H 829.896 -3.28474 -1.92055 0
M  V30 8509 H 829.408 -3.87613 -0.194298 0
M  V30 8510 H 827.509 -2.82788 -2.42615 0
M  V30 8511 H 827.622 -4.5182 -1.5936 0
M  V30 8512 H 825.986 -2.36805 -0.937835 0
M  V30 8513 H 826.769 -3.4134 0.366341 0
M  V30 8514 N 829.214 0.302327 -1.54673 0
M  V30 8515 C 830.146 1.39443 -1.81902 0
M  V30 8516 C 831.159 1.46891 -0.701914 0
M  V30 8517 O 832.348 1.49233 -0.979369 0
M  V30 8518 C 829.448 2.77824 -1.9408 0
M  V30 8519 C 828.621 2.93324 -3.24468 0
M  V30 8520 C 827.68 4.12196 -3.27079 0
M  V30 8521 O 826.706 4.04344 -4.00617 0
M  V30 8522 N 827.908 5.22768 -2.52376 0
M  V30 8523 H 830.673 1.1644 -2.76155 0
M  V30 8524 H 828.234 0.492392 -1.54231 0
M  V30 8525 H 830.226 3.5559 -1.9323 0
M  V30 8526 H 828.796 2.9378 -1.06828 0
M  V30 8527 H 828.016 2.02682 -3.38103 0
M  V30 8528 H 829.304 3.0059 -4.10516 0
M  V30 8529 H 828.702 5.32027 -1.92259 0
M  V30 8530 H 827.259 5.98874 -2.57281 0
M  V30 8531 N 830.692 1.47107 0.565454 0
M  V30 8532 C 831.917 1.57153 1.35343 0
M  V30 8533 C 832.342 0.219247 1.86818 0
M  V30 8534 O 831.7 -0.803539 1.62521 0
M  V30 8535 C 831.748 2.59387 2.50501 0
M  V30 8536 O 830.852 2.14086 3.52478 0
M  V30 8537 H 830.193 0.528209 0.402357 0
M  V30 8538 H 832.723 1.92821 0.684189 0
M  V30 8539 H 832.733 2.79546 2.97184 0
M  V30 8540 H 831.408 3.57579 2.12391 0
M  V30 8541 H 829.985 2.03991 3.12157 0
M  V30 8542 N 832.17 -0.811516 1.35101 0
M  V30 8543 C 833.581 -1.38515 1.25182 0
M  V30 8544 C 833.932 -1.95846 -0.117883 0
M  V30 8545 O 833.057 -1.90925 -1.01866 0
M  V30 8546 C 833.652 -2.51813 2.26662 0
M  V30 8547 C 832.211 -3.05052 2.20499 0
M  V30 8548 C 831.358 -1.77987 2.12641 0
M  V30 8549 H 834.309 -0.614959 1.46301 0
M  V30 8550 H 834.33 -3.30228 1.89023 0
M  V30 8551 H 833.842 -2.10057 3.2634 0
M  V30 8552 H 831.943 -3.51285 1.24215 0
M  V30 8553 H 832.056 -3.63368 3.1225 0
M  V30 8554 H 830.42 -1.99342 1.5854 0
M  V30 8555 H 831.203 -1.38389 3.14171 0
M  V30 8556 N 833.648 -1.19017 -1.03309 0
M  V30 8557 C 834.58 -0.881847 -2.11556 0
M  V30 8558 C 835.593 0.123711 -1.62329 0
M  V30 8559 O 836.782 -0.105141 -1.7819 0
M  V30 8560 C 833.882 -0.297634 -3.37591 0
M  V30 8561 C 833.055 -1.35072 -4.16022 0
M  V30 8562 C 832.114 -0.780812 -5.20375 0
M  V30 8563 O 831.14 -1.45745 -5.50224 0
M  V30 8564 N 832.342 0.417964 -5.78993 0
M  V30 8565 H 835.107 -1.81359 -2.38598 0
M  V30 8566 H 832.668 -1.0916 -1.19565 0
M  V30 8567 H 834.66 0.097374 -4.04583 0
M  V30 8568 H 833.23 0.538299 -3.0793 0
M  V30 8569 H 832.45 -1.92074 -3.4424 0
M  V30 8570 H 833.738 -2.06044 -4.65213 0
M  V30 8571 H 833.136 0.985281 -5.57054 0
M  V30 8572 H 831.693 0.754802 -6.47415 0
M  V30 8573 N 835.127 1.22348 -0.993418 0
M  V30 8574 C 836.057 2.26584 -0.564088 0
M  V30 8575 C 837.038 1.65102 0.409298 0
M  V30 8576 O 838.223 1.91872 0.299819 0
M  V30 8577 C 835.353 3.47087 0.121554 0
M  V30 8578 C 834.307 4.21009 -0.770429 0
M  V30 8579 C 833.633 5.34678 0.0481586 0
M  V30 8580 C 834.933 4.79636 -2.06752 0
M  V30 8581 H 836.627 2.62749 -1.43538 0
M  V30 8582 H 834.173 1.26303 -0.691628 0
M  V30 8583 H 836.126 4.19166 0.433303 0
M  V30 8584 H 834.85 3.1002 1.0274 0
M  V30 8585 H 833.509 3.50764 -1.06583 0
M  V30 8586 H 833.157 4.93852 0.954933 0
M  V30 8587 H 832.857 5.85061 -0.545641 0
M  V30 8588 H 834.381 6.09573 0.353991 0
M  V30 8589 H 835.795 5.43654 -1.81969 0
M  V30 8590 H 834.192 5.4036 -2.61019 0
M  V30 8591 H 835.262 3.99659 -2.74592 0
M  V30 8592 N 836.605 0.766683 1.37694 0
M  V30 8593 C 837.537 0.107798 2.28946 0
M  V30 8594 C 838.55 -0.669701 1.48387 0
M  V30 8595 O 839.739 -0.508629 1.711 0
M  V30 8596 C 836.839 -0.871084 3.27514 0
M  V30 8597 C 836.012 -0.148471 4.37148 0
M  V30 8598 C 835.071 -1.03998 5.1582 0
M  V30 8599 O 834.097 -0.505639 5.6695 0
M  V30 8600 N 835.299 -2.36679 5.3006 0
M  V30 8601 H 838.064 0.89154 2.86132 0
M  V30 8602 H 835.625 0.618593 1.49616 0
M  V30 8603 H 837.617 -1.47081 3.77027 0
M  V30 8604 H 836.187 -1.55582 2.71133 0
M  V30 8605 H 835.407 0.632117 3.89099 0
M  V30 8606 H 836.695 0.351045 5.07588 0
M  V30 8607 H 836.093 -2.82532 4.90094 0
M  V30 8608 H 834.65 -2.9167 5.82899 0
M  V30 8609 N 838.083 -1.48885 0.516809 0
M  V30 8610 C 839.33 -2.02488 -0.0220602 0
M  V30 8611 C 839.658 -1.39513 -1.35523 0
M  V30 8612 O 838.913 -0.52558 -1.8851 0
M  V30 8613 C 839.212 -3.56801 -0.206798 0
M  V30 8614 C 838.878 -4.38496 1.05035 0
M  V30 8615 C 837.54 -4.60538 1.39492 0
M  V30 8616 C 839.892 -4.85909 1.88525 0
M  V30 8617 C 837.22 -5.2724 2.57361 0
M  V30 8618 C 839.572 -5.53909 3.05561 0
M  V30 8619 C 838.236 -5.74193 3.4038 0
M  V30 8620 H 837.506 -0.740956 -0.00807238 0
M  V30 8621 H 840.153 -1.79014 0.680168 0
M  V30 8622 H 838.458 -3.79042 -0.991687 0
M  V30 8623 H 840.155 -3.95885 -0.638447 0
M  V30 8624 H 836.745 -4.2159 0.771984 0
M  V30 8625 H 840.929 -4.68694 1.63218 0
M  V30 8626 H 836.185 -5.41145 2.84556 0
M  V30 8627 H 840.359 -5.89619 3.7057 0
M  V30 8628 H 837.986 -6.25652 4.31814 0
M  V30 8629 N 839.561 -0.251338 -1.55583 0
M  V30 8630 C 840.786 0.379136 -2.03905 0
M  V30 8631 C 841.211 1.50428 -1.12929 0
M  V30 8632 O 840.569 1.80882 -0.123114 0
M  V30 8633 C 840.617 0.86009 -3.50193 0
M  V30 8634 O 839.721 1.96932 -3.62342 0
M  V30 8635 H 839.062 0.0820183 -0.658915 0
M  V30 8636 H 841.592 -0.378692 -2.01065 0
M  V30 8637 H 841.602 1.16214 -3.91099 0
M  V30 8638 H 840.277 0.0367559 -4.15884 0
M  V30 8639 H 838.854 1.67163 -3.33333 0
M  V30 8640 N 841.039 1.57585 0.0217189 0
M  V30 8641 C 841.971 2.03849 1.04777 0
M  V30 8642 C 842.984 0.952558 1.32023 0
M  V30 8643 O 844.173 1.22974 1.29381 0
M  V30 8644 C 841.273 2.40504 2.3877 0
M  V30 8645 C 840.446 3.71566 2.30775 0
M  V30 8646 C 839.505 3.95329 3.47277 0
M  V30 8647 O 838.531 4.66289 3.26441 0
M  V30 8648 N 839.733 3.41536 4.69397 0
M  V30 8649 H 842.498 2.92491 0.653395 0
M  V30 8650 H 840.059 1.60538 0.209527 0
M  V30 8651 H 842.051 2.53532 3.15442 0
M  V30 8652 H 840.621 1.57494 2.70027 0
M  V30 8653 H 839.841 3.68822 1.39155 0
M  V30 8654 H 841.129 4.5753 2.22584 0
M  V30 8655 H 840.527 2.84033 4.89226 0
M  V30 8656 H 839.084 3.59932 5.43408 0
M  V30 8657 N 842.517 -0.29412 1.54831 0
M  V30 8658 C 843.465 -1.38296 1.87021 0
M  V30 8659 C 844.459 -1.5216 0.744557 0
M  V30 8660 O 845.665 -1.54196 0.92864 0
M  V30 8661 H 842.04 -0.462088 0.593278 0
M  V30 8662 H 844.011 -1.08386 2.7802 0
M  V30 8663 C 842.76 -2.74024 2.14023 0
M  V30 8664 H 842.083 -2.6414 3.00117 0
M  V30 8665 H 843.523 -3.49205 2.40482 0
M  V30 8666 C 841.982 -3.23492 0.940982 0
M  V30 8667 O 842.512 -4.01361 0.164937 0
M  V30 8668 N 840.718 -2.80902 0.744467 0
M  V30 8669 H 840.265 -2.17694 1.37721 0
M  V30 8670 H 840.223 -3.14349 -0.0563652 0
M  V30 8671 N 843.995 -1.47404 -0.557645 0
M  V30 8672 C 845.223 -1.57622 -1.34026 0
M  V30 8673 C 845.638 -0.226256 -1.87439 0
M  V30 8674 O 844.995 0.78043 -1.64971 0
M  V30 8675 C 845.046 -2.60111 -2.51047 0
M  V30 8676 O 844.767 -3.89866 -1.99841 0
M  V30 8677 C 846.268 -2.80508 -3.43264 0
M  V30 8678 H 843.488 -0.532271 -0.40857 0
M  V30 8679 H 846.032 -1.93019 -0.675555 0
M  V30 8680 H 844.187 -2.27648 -3.13457 0
M  V30 8681 H 844.601 -4.45864 -2.76234 0
M  V30 8682 H 846.075 -3.56084 -4.21792 0
M  V30 8683 H 846.552 -1.88314 -3.9678 0
M  V30 8684 H 847.158 -3.14166 -2.86671 0
M  V30 8685 N 845.473 0.80434 -1.35529 0
M  V30 8686 C 846.403 1.93086 -1.31301 0
M  V30 8687 C 847.384 1.69068 -0.187044 0
M  V30 8688 O 848.569 1.90399 -0.382359 0
M  V30 8689 C 845.699 3.29867 -1.0865 0
M  V30 8690 C 844.653 3.68373 -2.17911 0
M  V30 8691 C 843.979 5.0334 -1.80423 0
M  V30 8692 C 845.279 3.78516 -3.59893 0
M  V30 8693 H 846.973 1.96882 -2.25561 0
M  V30 8694 H 844.519 0.945841 -1.08581 0
M  V30 8695 H 846.472 4.08281 -1.04331 0
M  V30 8696 H 845.196 3.2642 -0.108359 0
M  V30 8697 H 843.855 2.92247 -2.21331 0
M  V30 8698 H 843.503 4.96399 -0.812213 0
M  V30 8699 H 843.203 5.30074 -2.53565 0
M  V30 8700 H 844.727 5.84191 -1.77633 0
M  V30 8701 H 846.141 4.47155 -3.58783 0
M  V30 8702 H 844.538 4.16721 -4.31814 0
M  V30 8703 H 845.608 2.8001 -3.95882 0
M  V30 8704 N 846.951 1.19563 1.02676 0
M  V30 8705 C 848.176 1.02556 1.80269 0
M  V30 8706 C 848.601 -0.421056 1.83327 0
M  V30 8707 O 847.959 -1.30279 1.26084 0
M  V30 8708 C 848.007 1.60165 3.23078 0
M  V30 8709 O 847.111 0.832404 4.03912 0
M  V30 8710 H 846.452 0.362354 0.556413 0
M  V30 8711 H 848.982 1.58633 1.29216 0
M  V30 8712 H 848.992 1.6347 3.7382 0
M  V30 8713 H 847.667 2.65454 3.20167 0
M  V30 8714 H 846.244 0.872768 3.62543 0
M  V30 8715 N 848.429 -1.21819 0.999893 0
M  V30 8716 C 849.659 -1.94475 0.697346 0
M  V30 8717 C 850.067 -1.73991 -0.743228 0
M  V30 8718 O 849.41 -1.04042 -1.51397 0
M  V30 8719 C 849.472 -3.47204 0.932181 0
M  V30 8720 C 849.136 -3.91432 2.3586 0
M  V30 8721 C 850.133 -3.98545 3.33853 0
M  V30 8722 C 847.818 -4.23888 2.69489 0
M  V30 8723 C 849.812 -4.37499 4.63545 0
M  V30 8724 C 847.499 -4.62519 3.99399 0
M  V30 8725 C 848.497 -4.69294 4.96238 0
M  V30 8726 O 848.185 -5.07048 6.23825 0
M  V30 8727 H 847.917 -0.625419 0.256567 0
M  V30 8728 H 850.471 -1.55728 1.33933 0
M  V30 8729 H 848.701 -3.85997 0.233025 0
M  V30 8730 H 850.39 -4.01078 0.623807 0
M  V30 8731 H 851.156 -3.73654 3.09205 0
M  V30 8732 H 847.035 -4.17815 1.94812 0
M  V30 8733 H 850.579 -4.42702 5.3913 0
M  V30 8734 H 846.476 -4.86864 4.23833 0
M  V30 8735 H 847.244 -5.25098 6.27865 0
M  V30 8736 N 849.908 -0.773975 -1.37286 0
M  V30 8737 C 851.156 -0.338636 -1.99243 0
M  V30 8738 C 851.477 1.08919 -1.61746 0
M  V30 8739 O 850.747 1.74822 -0.88397 0
M  V30 8740 H 849.327 -0.12222 -0.736934 0
M  V30 8741 H 851.989 -0.992595 -1.67731 0
M  V30 8742 H 851.085 -0.418055 -3.09287 0
M  V30 8743 N 851.386 1.48609 -0.524698 0
M  V30 8744 C 852.802 1.58557 -0.182199 0
M  V30 8745 C 853.002 1.52732 1.31435 0
M  V30 8746 O 852.058 1.41362 2.0922 0
M  V30 8747 C 853.371 2.90406 -0.78004 0
M  V30 8748 C 854.919 3.03924 -0.748293 0
M  V30 8749 C 855.394 4.38427 -1.32462 0
M  V30 8750 N 856.885 4.4498 -1.28635 0
M  V30 8751 C 857.62 5.47551 -1.70223 0
M  V30 8752 N 857.116 6.57103 -2.19515 0
M  V30 8753 N 858.909 5.38402 -1.61493 0
M  V30 8754 H 851.06 1.50638 -1.4974 0
M  V30 8755 H 853.323 0.714952 -0.622533 0
M  V30 8756 H 853.029 3.00308 -1.83052 0
M  V30 8757 H 852.903 3.76343 -0.254075 0
M  V30 8758 H 855.29 2.93638 0.293407 0
M  V30 8759 H 855.371 2.19611 -1.31167 0
M  V30 8760 H 855.015 4.49466 -2.36522 0
M  V30 8761 H 854.945 5.21418 -0.736967 0
M  V30 8762 H 857.436 3.66393 -0.92545 0
M  V30 8763 H 857.749 7.31499 -2.49257 0
M  V30 8764 H 856.094 6.58081 -2.23506 0
M  V30 8765 H 859.285 4.5171 -1.22785 0
M  V30 8766 H 859.458 6.18208 -1.94225 0
M  V30 8767 N 852.864 0.259585 1.55447 0
M  V30 8768 C 854.275 -0.241165 1.85136 0
M  V30 8769 C 854.626 -1.56634 1.18153 0
M  V30 8770 O 853.751 -2.11359 0.464351 0
M  V30 8771 C 854.346 -0.444355 3.35873 0
M  V30 8772 C 852.905 -0.889354 3.65742 0
M  V30 8773 C 852.052 0.0262474 2.77288 0
M  V30 8774 H 855.003 0.481808 1.51209 0
M  V30 8775 H 855.024 -1.28517 3.58139 0
M  V30 8776 H 854.536 0.520289 3.84597 0
M  V30 8777 H 852.637 -1.86602 3.22507 0
M  V30 8778 H 852.75 -0.737432 4.73391 0
M  V30 8779 H 851.114 -0.487361 2.49994 0
M  V30 8780 H 851.897 0.986494 3.28821 0
M  V30 8781 N 854.342 -1.57594 -0.0133615 0
M  V30 8782 C 855.588 -1.90262 -0.702019 0
M  V30 8783 C 855.921 -0.859219 -1.74158 0
M  V30 8784 O 855.196 0.123778 -1.94106 0
M  V30 8785 C 855.479 -3.3354 -1.35732 0
M  V30 8786 C 855.332 -4.48586 -0.330208 0
M  V30 8787 C 856.651 -3.76004 -2.28712 0
M  V30 8788 H 853.77 -0.691943 -0.253739 0
M  V30 8789 H 856.412 -1.89967 0.0351894 0
M  V30 8790 H 854.562 -3.33921 -1.98567 0
M  V30 8791 H 856.234 -4.6034 0.297433 0
M  V30 8792 H 854.477 -4.32394 0.348926 0
M  V30 8793 H 855.148 -5.45762 -0.827508 0
M  V30 8794 H 857.624 -3.77089 -1.75906 0
M  V30 8795 H 856.5 -4.77032 -2.71535 0
M  V30 8796 H 856.761 -3.09129 -3.16056 0
M  V30 8797 N 855.82 0.285905 -1.54985 0
M  V30 8798 C 857.069 1.01691 -1.74189 0
M  V30 8799 C 857.382 1.87908 -0.543135 0
M  V30 8800 O 858.588 2.64389 -0.617305 0
M  V30 8801 C 857.044 1.85785 -3.0824 0
M  V30 8802 C 856.652 1.04497 -4.35642 0
M  V30 8803 C 858.396 2.58393 -3.36798 0
M  V30 8804 C 856.303 1.87955 -5.60738 0
M  V30 8805 H 855.233 0.383396 -0.649248 0
M  V30 8806 H 857.884 0.27317 -1.81455 0
M  V30 8807 H 856.266 2.64205 -2.94978 0
M  V30 8808 H 857.44 0.305847 -4.59784 0
M  V30 8809 H 855.755 0.434023 -4.14132 0
M  V30 8810 H 858.352 3.21214 -4.27464 0
M  V30 8811 H 858.695 3.28011 -2.56349 0
M  V30 8812 H 859.228 1.87012 -3.511 0
M  V30 8813 H 855.967 1.22781 -6.43898 0
M  V30 8814 H 855.487 2.59499 -5.40759 0
M  V30 8815 H 857.166 2.45636 -5.98558 0
M  V30 8816 N 857.298 1.47698 0.54982 0
M  V30 8817 C 858.526 1.5833 1.33188 0
M  V30 8818 C 858.941 0.236193 1.87317 0
M  V30 8819 O 858.298 -0.77167 1.65383 0
M  V30 8820 C 858.349 2.61438 2.49664 0
M  V30 8821 O 858.07 3.9092 1.97771 0
M  V30 8822 C 859.571 2.82324 3.41772 0
M  V30 8823 H 856.791 0.53443 0.405741 0
M  V30 8824 H 859.335 1.93375 0.665309 0
M  V30 8825 H 857.49 2.29307 3.12245 0
M  V30 8826 H 857.904 4.47323 2.73866 0
M  V30 8827 H 859.378 3.58316 4.19897 0
M  V30 8828 H 859.855 1.90416 3.95776 0
M  V30 8829 H 860.461 3.15682 2.85 0
M  V30 8830 N 858.776 -0.797141 1.35954 0
M  V30 8831 C 859.739 -1.89104 1.29508 0
M  V30 8832 C 860.739 -1.59495 0.204444 0
M  V30 8833 O 861.929 -1.68051 0.458746 0
M  V30 8834 C 859.061 -3.25726 1.00576 0
M  V30 8835 H 860.254 -1.96237 2.26785 0
M  V30 8836 H 857.807 -0.994075 1.20614 0
M  V30 8837 H 858.542 -3.24279 0.0372519 0
M  V30 8838 H 858.327 -3.48604 1.79492 0
M  V30 8839 H 859.817 -4.0578 0.986508 0
M  V30 8840 N 860.254 -1.20106 -1.0204 0
M  V30 8841 C 861.501 -1.00889 -1.75578 0
M  V30 8842 C 861.829 0.459415 -1.88996 0
M  V30 8843 O 861.084 1.35735 -1.40977 0
M  V30 8844 C 861.383 -1.63308 -3.17908 0
M  V30 8845 C 861.049 -3.13091 -3.24476 0
M  V30 8846 C 859.711 -3.53968 -3.25976 0
M  V30 8847 C 862.063 -4.09093 -3.22944 0
M  V30 8848 C 859.391 -4.89381 -3.2361 0
M  V30 8849 C 861.743 -5.44447 -3.22119 0
M  V30 8850 C 860.407 -5.84742 -3.2192 0
M  V30 8851 H 859.677 -0.36918 -0.642485 0
M  V30 8852 H 862.324 -1.49475 -1.19706 0
M  V30 8853 H 860.629 -1.06974 -3.76914 0
M  V30 8854 H 862.326 -1.45958 -3.73493 0
M  V30 8855 H 858.916 -2.80526 -3.24042 0
M  V30 8856 H 863.1 -3.78549 -3.20958 0
M  V30 8857 H 858.356 -5.1987 -3.21785 0
M  V30 8858 H 862.53 -6.18584 -3.19885 0
M  V30 8859 H 860.157 -6.89642 -3.19841 0
M  V30 8860 N 861.732 1.21287 -1.00634 0
M  V30 8861 C 862.68 2.25733 -0.561026 0
M  V30 8862 C 863.674 1.64728 0.395095 0
M  V30 8863 O 864.88 1.78022 0.266141 0
M  V30 8864 H 861.255 0.734104 -0.163081 0
M  V30 8865 H 863.226 2.60631 -1.45307 0
M  V30 8866 C 861.975 3.47569 0.0952587 0
M  V30 8867 H 861.298 3.94782 -0.631427 0
M  V30 8868 H 862.738 4.22382 0.370105 0
M  V30 8869 C 861.197 3.09326 1.33488 0
M  V30 8870 O 861.727 3.19933 2.42912 0
M  V30 8871 N 859.933 2.63976 1.21512 0
M  V30 8872 H 859.48 2.55545 0.324741 0
M  V30 8873 H 859.438 2.38757 2.04555 0
M  V30 8874 N 863.21 0.781244 1.36873 0
M  V30 8875 C 864.142 0.132075 2.28819 0
M  V30 8876 C 865.155 -0.653925 1.49089 0
M  V30 8877 O 866.344 -0.490453 1.7163 0
M  V30 8878 C 863.444 -0.836297 3.28419 0
M  V30 8879 C 862.617 -0.102097 4.37281 0
M  V30 8880 C 861.676 -0.985217 5.16894 0
M  V30 8881 O 860.702 -0.445478 5.67454 0
M  V30 8882 N 861.904 -2.31043 5.3254 0
M  V30 8883 H 864.669 0.921838 2.85171 0
M  V30 8884 H 862.23 0.634427 1.48952 0
M  V30 8885 H 864.222 -1.43074 3.78566 0
M  V30 8886 H 862.792 -1.52698 2.72767 0
M  V30 8887 H 862.012 0.67335 3.88407 0
M  V30 8888 H 863.3 0.404862 5.07187 0
M  V30 8889 H 862.698 -2.77318 4.93063 0
M  V30 8890 H 861.255 -2.85472 5.8596 0
M  V30 8891 N 864.689 -1.48329 0.532571 0
M  V30 8892 C 865.637 -2.31336 -0.242133 0
M  V30 8893 C 866.631 -1.41391 -0.933006 0
M  V30 8894 O 867.837 -1.58284 -0.857096 0
M  V30 8895 H 864.212 -0.745724 -0.0969536 0
M  V30 8896 H 866.183 -2.94555 0.477504 0
M  V30 8897 C 864.932 -3.23501 -1.27446 0
M  V30 8898 H 864.255 -3.92659 -0.752261 0
M  V30 8899 H 865.695 -3.84461 -1.78789 0
M  V30 8900 C 864.154 -2.45288 -2.30944 0
M  V30 8901 O 864.684 -2.17955 -3.37429 0
M  V30 8902 N 862.89 -2.06737 -2.04226 0
M  V30 8903 H 862.437 -2.29166 -1.17647 0
M  V30 8904 H 862.395 -1.54719 -2.73696 0
M  V30 8905 N 866.167 -0.267825 -1.55308 0
M  V30 8906 C 867.115 0.638848 -2.23655 0
M  V30 8907 C 868.109 1.16363 -1.2311 0
M  V30 8908 O 869.315 1.1181 -1.41062 0
M  V30 8909 H 865.69 0.224551 -0.717691 0
M  V30 8910 H 867.661 0.0394809 -2.98374 0
M  V30 8911 C 866.41 1.8151 -2.96562 0
M  V30 8912 H 865.733 1.42048 -3.73715 0
M  V30 8913 H 867.173 2.42629 -3.47717 0
M  V30 8914 C 865.632 2.69911 -2.01618 0
M  V30 8915 O 866.162 3.70058 -1.56268 0
M  V30 8916 N 864.368 2.36924 -1.68272 0
M  V30 8917 H 863.915 1.55533 -2.05347 0
M  V30 8918 H 863.873 2.96343 -1.05016 0
M  V30 8919 N 867.645 1.57599 0.00500368 0
M  V30 8920 C 868.575 2.11143 0.99705 0
M  V30 8921 C 869.556 1.0194 1.3617 0
M  V30 8922 O 870.741 1.29596 1.44632 0
M  V30 8923 C 867.871 2.61062 2.2905 0
M  V30 8924 C 866.825 3.74745 2.0676 0
M  V30 8925 C 866.151 4.10961 3.42075 0
M  V30 8926 C 867.451 5.02222 1.43424 0
M  V30 8927 H 869.145 2.94281 0.551251 0
M  V30 8928 H 866.691 1.41565 0.263715 0
M  V30 8929 H 868.644 2.97146 2.98801 0
M  V30 8930 H 867.368 1.75038 2.75734 0
M  V30 8931 H 866.027 3.39047 1.39436 0
M  V30 8932 H 865.675 3.21968 3.86453 0
M  V30 8933 H 865.375 4.87549 3.27979 0
M  V30 8934 H 866.899 4.49599 4.1315 0
M  V30 8935 H 868.313 5.36109 2.03125 0
M  V30 8936 H 866.71 5.83581 1.39831 0
M  V30 8937 H 867.78 4.83224 0.40285 0
M  V30 8938 N 869.123 -0.277682 1.55134 0
M  V30 8939 C 870.372 -1.00766 1.74726 0
M  V30 8940 C 870.685 -1.87617 0.553092 0
M  V30 8941 O 871.891 -2.64058 0.631318 0
M  V30 8942 C 870.347 -1.84147 3.09221 0
M  V30 8943 C 869.955 -1.02186 4.3619 0
M  V30 8944 C 871.699 -2.56604 3.38164 0
M  V30 8945 C 869.606 -1.84978 5.61727 0
M  V30 8946 H 868.536 -0.379948 0.651273 0
M  V30 8947 H 871.187 -0.263543 1.81598 0
M  V30 8948 H 869.569 -2.62637 2.96375 0
M  V30 8949 H 870.743 -0.281459 4.5994 0
M  V30 8950 H 869.058 -0.412054 4.14356 0
M  V30 8951 H 871.655 -3.18942 4.29162 0
M  V30 8952 H 871.998 -3.26647 2.58085 0
M  V30 8953 H 872.531 -1.85147 3.52087 0
M  V30 8954 H 869.27 -1.19365 6.4454 0
M  V30 8955 H 868.79 -2.56628 5.42128 0
M  V30 8956 H 870.469 -2.42458 5.99853 0
M  V30 8957 N 870.601 -1.47988 -0.541979 0
M  V30 8958 C 871.826 -1.59286 -1.32826 0
M  V30 8959 C 872.251 -0.24894 -1.86445 0
M  V30 8960 O 871.609 0.777581 -1.63778 0
M  V30 8961 C 871.657 -2.6334 -2.46343 0
M  V30 8962 O 870.761 -2.19667 -3.49028 0
M  V30 8963 H 870.102 -0.534543 -0.393903 0
M  V30 8964 H 872.632 -1.93885 -0.653427 0
M  V30 8965 H 872.642 -2.84238 -2.92699 0
M  V30 8966 H 871.317 -3.60913 -2.06675 0
M  V30 8967 H 869.894 -2.08932 -3.08872 0
M  V30 8968 N 872.079 0.78992 -1.36375 0
M  V30 8969 C 873.325 1.54939 -1.31778 0
M  V30 8970 C 873.68 1.92128 0.102327 0
M  V30 8971 O 872.973 1.59823 1.05675 0
M  V30 8972 C 873.167 2.83698 -2.17371 0
M  V30 8973 C 872.996 2.59093 -3.67561 0
M  V30 8974 C 871.766 2.5414 -4.36739 0
M  V30 8975 C 873.964 2.28325 -4.60838 0
M  V30 8976 N 871.946 2.21427 -5.72576 0
M  V30 8977 C 873.317 2.05596 -5.84919 0
M  V30 8978 C 875.372 2.14328 -4.49409 0
M  V30 8979 C 874.075 1.70285 -6.98853 0
M  V30 8980 C 876.101 1.80415 -5.63209 0
M  V30 8981 C 875.463 1.58533 -6.86328 0
M  V30 8982 H 871.562 0.568011 -0.537483 0
M  V30 8983 H 874.146 0.923183 -1.71422 0
M  V30 8984 H 872.317 3.44187 -1.79972 0
M  V30 8985 H 874.049 3.49425 -2.04167 0
M  V30 8986 H 870.804 2.69368 -3.89535 0
M  V30 8987 H 871.228 2.07818 -6.44314 0
M  V30 8988 H 875.87 2.29935 -3.54809 0
M  V30 8989 H 873.588 1.53415 -7.93404 0
M  V30 8990 H 877.174 1.70269 -5.56327 0
M  V30 8991 H 876.054 1.32677 -7.72895 0
M  V30 8992 N 873.557 1.20646 1.01402 0
M  V30 8993 C 874.973 0.961866 1.27359 0
M  V30 8994 C 875.173 -0.357083 1.98311 0
M  V30 8995 O 874.229 -1.08498 2.28001 0
M  V30 8996 C 875.542 2.14627 2.10609 0
M  V30 8997 C 877.09 2.18753 2.23866 0
M  V30 8998 C 877.565 3.36686 3.10494 0
M  V30 8999 N 879.056 3.36716 3.18083 0
M  V30 9000 C 879.791 4.24615 3.85343 0
M  V30 9001 N 879.287 5.22697 4.54708 0
M  V30 9002 N 881.08 4.12449 3.81893 0
M  V30 9003 H 873.231 2.05481 0.537721 0
M  V30 9004 H 875.494 0.899292 0.299963 0
M  V30 9005 H 875.2 3.10159 1.65814 0
M  V30 9006 H 875.074 2.12935 3.11349 0
M  V30 9007 H 877.461 1.23782 2.67885 0
M  V30 9008 H 877.542 2.24492 1.22626 0
M  V30 9009 H 877.186 4.31945 2.67181 0
M  V30 9010 H 877.116 3.28185 4.11828 0
M  V30 9011 H 879.607 2.65728 2.68695 0
M  V30 9012 H 879.92 5.86087 5.03708 0
M  V30 9013 H 878.265 5.26631 4.53525 0
M  V30 9014 H 881.456 3.35091 3.26851 0
M  V30 9015 H 881.629 4.81162 4.34035 0
M  V30 9016 N 875.035 -1.20752 1.01276 0
M  V30 9017 C 875.985 -2.21252 0.550602 0
M  V30 9018 C 876.969 -1.56052 -0.391985 0
M  V30 9019 O 878.161 -1.75682 -0.215575 0
M  V30 9020 C 875.29 -3.43112 -0.113601 0
M  V30 9021 C 874.376 -4.15485 0.850465 0
M  V30 9022 N 874.767 -4.64301 2.00643 0
M  V30 9023 C 873.065 -4.40932 0.670476 0
M  V30 9024 C 873.766 -5.197 2.61317 0
M  V30 9025 N 872.742 -5.09534 1.8941 0
M  V30 9026 H 876.544 -2.56657 1.43194 0
M  V30 9027 H 874.058 -1.36646 0.877597 0
M  V30 9028 H 876.055 -4.1433 -0.462211 0
M  V30 9029 H 874.715 -3.09213 -0.990825 0
M  V30 9030 H 875.726 -4.59637 2.38651 0
M  V30 9031 H 872.403 -4.17197 -0.159016 0
M  V30 9032 H 873.793 -5.67873 3.59123 0
M  V30 9033 N 876.513 -0.788492 -1.36457 0
M  V30 9034 C 877.445 -0.144208 -2.28746 0
M  V30 9035 C 878.458 0.646009 -1.49434 0
M  V30 9036 O 879.647 0.481344 -1.71888 0
M  V30 9037 C 876.747 0.818869 -3.28858 0
M  V30 9038 C 875.92 0.0789055 -4.37329 0
M  V30 9039 C 874.979 0.957791 -5.1741 0
M  V30 9040 O 874.005 0.415378 -5.67682 0
M  V30 9041 N 875.207 2.28216 -5.33758 0
M  V30 9042 H 877.972 -0.936949 -2.84678 0
M  V30 9043 H 875.533 -0.642317 -1.48613 0
M  V30 9044 H 877.525 1.41065 -3.79319 0
M  V30 9045 H 876.095 1.51249 -2.73573 0
M  V30 9046 H 875.315 -0.693939 -3.88044 0
M  V30 9047 H 876.603 -0.431753 -5.06965 0
M  V30 9048 H 876.001 2.747 -4.94527 0
M  V30 9049 H 874.558 2.8236 -5.87466 0
M  V30 9050 N 877.991 1.48044 -0.54043 0
M  V30 9051 C 878.923 2.2779 0.253854 0
M  V30 9052 C 879.936 1.35999 0.894883 0
M  V30 9053 O 881.125 1.60963 0.771563 0
M  V30 9054 C 878.225 3.09724 1.37566 0
M  V30 9055 C 877.398 4.29364 0.83459 0
M  V30 9056 C 876.457 4.93026 1.83881 0
M  V30 9057 O 875.483 5.51927 1.39159 0
M  V30 9058 N 876.685 4.86207 3.17149 0
M  V30 9059 H 879.45 2.96597 -0.430125 0
M  V30 9060 H 877.011 1.57487 -0.375423 0
M  V30 9061 H 879.003 3.49181 2.04584 0
M  V30 9062 H 877.573 2.43269 1.96314 0
M  V30 9063 H 876.793 3.94198 -0.0118878 0
M  V30 9064 H 878.081 5.06787 0.452155 0
M  V30 9065 H 877.479 4.39523 3.56141 0
M  V30 9066 H 876.036 5.29733 3.79771 0
M  V30 9067 N 879.47 0.276058 1.55163 0
M  V30 9068 C 880.433 -0.597924 2.21263 0
M  V30 9069 C 881.433 -1.0806 1.19078 0
M  V30 9070 O 882.623 -0.980626 1.43977 0
M  V30 9071 C 879.755 -1.82503 2.87933 0
M  V30 9072 H 880.948 -0.0207769 2.99893 0
M  V30 9073 H 878.501 0.0266823 1.56277 0
M  V30 9074 H 879.236 -2.44266 2.13318 0
M  V30 9075 H 879.021 -1.48683 3.62816 0
M  V30 9076 H 880.511 -2.44651 3.38431 0
M  V30 9077 N 880.948 -1.576 0.00335426 0
M  V30 9078 C 881.911 -2.07576 -0.971838 0
M  V30 9079 C 882.911 -0.985796 -1.27038 0
M  V30 9080 O 884.101 -1.24833 -1.21501 0
M  V30 9081 C 881.233 -2.52003 -2.29581 0
M  V30 9082 H 882.426 -2.95008 -0.539481 0
M  V30 9083 H 879.979 -1.54381 -0.244186 0
M  V30 9084 H 880.714 -1.67825 -2.77498 0
M  V30 9085 H 880.499 -3.31609 -2.09231 0
M  V30 9086 H 881.989 -2.90983 -2.99531 0
M  V30 9087 N 882.426 0.269451 -1.5528 0
M  V30 9088 C 883.358 1.35553 -1.84819 0
M  V30 9089 C 884.371 1.45369 -0.732914 0
M  V30 9090 O 885.56 1.47122 -1.0108 0
M  V30 9091 C 882.66 2.73645 -1.9993 0
M  V30 9092 C 881.833 2.86376 -3.30617 0
M  V30 9093 C 880.892 4.05165 -3.35749 0
M  V30 9094 O 879.918 3.95756 -4.09104 0
M  V30 9095 N 881.12 5.17297 -2.63408 0
M  V30 9096 H 883.885 1.10557 -2.78563 0
M  V30 9097 H 881.446 0.459566 -1.5524 0
M  V30 9098 H 883.438 3.51411 -2.00729 0
M  V30 9099 H 882.008 2.91448 -1.13035 0
M  V30 9100 H 881.228 1.95465 -3.42326 0
M  V30 9101 H 882.516 2.91815 -4.16799 0
M  V30 9102 H 881.914 5.2783 -2.03501 0
M  V30 9103 H 880.471 5.93281 -2.69927 0
M  V30 9104 N 883.904 1.48273 0.534124 0
M  V30 9105 C 884.836 1.5857 1.65494 0
M  V30 9106 C 885.849 0.470266 1.5586 0
M  V30 9107 O 887.038 0.740928 1.62396 0
M  V30 9108 C 884.138 1.49554 3.04117 0
M  V30 9109 C 883.311 2.76066 3.39273 0
M  V30 9110 C 882.37 2.60562 4.57159 0
M  V30 9111 O 881.396 3.34438 4.60587 0
M  V30 9112 N 882.598 1.69906 5.55079 0
M  V30 9113 H 885.363 2.55226 1.57099 0
M  V30 9114 H 882.924 1.44944 0.721303 0
M  V30 9115 H 884.916 1.36882 3.80848 0
M  V30 9116 H 883.486 0.608895 3.06613 0
M  V30 9117 H 882.706 3.03332 2.51761 0
M  V30 9118 H 883.994 3.60006 3.59546 0
M  V30 9119 H 883.392 1.09079 5.55084 0
M  V30 9120 H 881.949 1.63175 6.31044 0
M  V30 9121 N 885.382 -0.782676 1.36792 0
M  V30 9122 C 886.314 -1.9044 1.27536 0
M  V30 9123 C 887.327 -1.61647 0.193426 0
M  V30 9124 O 888.516 -1.72769 0.448692 0
M  V30 9125 C 885.616 -3.2541 0.946641 0
M  V30 9126 C 884.789 -3.81932 2.13183 0
M  V30 9127 C 883.848 -4.95355 1.7751 0
M  V30 9128 O 882.874 -5.11517 2.49678 0
M  V30 9129 N 884.076 -5.76108 0.712755 0
M  V30 9130 H 886.841 -1.98899 2.24186 0
M  V30 9131 H 884.402 -0.96127 1.30274 0
M  V30 9132 H 886.394 -3.98791 0.689043 0
M  V30 9133 H 884.964 -3.12524 0.0690591 0
M  V30 9134 H 884.184 -3.00459 2.55183 0
M  V30 9135 H 885.472 -4.16426 2.92347 0
M  V30 9136 H 884.87 -5.65586 0.113662 0
M  V30 9137 H 883.427 -6.49762 0.514995 0
M  V30 9138 N 886.86 -1.21182 -1.00761 0
M  V30 9139 C 887.823 -0.970339 -2.07646 0
M  V30 9140 C 888.823 0.0576345 -1.60697 0
M  V30 9141 O 890.013 -0.179369 -1.73274 0
M  V30 9142 C 887.145 -0.462703 -3.37745 0
M  V30 9143 H 888.338 -1.91856 -2.30502 0
M  V30 9144 H 885.891 -1.02844 -1.17698 0
M  V30 9145 H 886.626 0.490559 -3.20568 0
M  V30 9146 H 886.411 -1.20416 -3.73152 0
M  V30 9147 H 887.901 -0.313531 -4.16421 0
M  V30 9148 N 888.338 1.20213 -1.01915 0
M  V30 9149 C 889.584 1.89928 -0.711007 0
M  V30 9150 C 889.917 1.7881 0.75767 0
M  V30 9151 O 889.192 1.17399 1.55073 0
M  V30 9152 C 889.475 3.41225 -1.15053 0
M  V30 9153 C 889.328 3.61264 -2.67971 0
M  V30 9154 C 890.647 4.34108 -0.72377 0
M  V30 9155 H 887.766 0.689702 -0.259768 0
M  V30 9156 H 890.408 1.41557 -1.26734 0
M  V30 9157 H 888.558 3.82552 -0.677199 0
M  V30 9158 H 890.23 3.29173 -3.23176 0
M  V30 9159 H 888.473 3.04647 -3.08824 0
M  V30 9160 H 889.144 4.67331 -2.93779 0
M  V30 9161 H 891.62 4.00442 -1.13073 0
M  V30 9162 H 890.496 5.38581 -1.05931 0
M  V30 9163 H 890.757 4.40512 0.374424 0
M  V30 9164 N 889.816 0.795718 1.36037 0
M  V30 9165 C 890.766 0.171437 2.27355 0
M  V30 9166 C 891.75 -0.648346 1.47259 0
M  V30 9167 O 892.942 -0.507386 1.69572 0
M  V30 9168 C 890.071 -0.687876 3.36338 0
M  V30 9169 C 889.157 0.141041 4.23865 0
M  V30 9170 N 889.548 1.19868 4.91391 0
M  V30 9171 C 887.846 -0.0791045 4.4593 0
M  V30 9172 C 888.547 1.70382 5.56188 0
M  V30 9173 N 887.523 1.01202 5.34097 0
M  V30 9174 H 891.325 0.980846 2.7705 0
M  V30 9175 H 888.839 0.635798 1.49437 0
M  V30 9176 H 890.836 -1.15107 4.00694 0
M  V30 9177 H 889.496 -1.49576 2.88196 0
M  V30 9178 H 890.507 1.58119 4.93172 0
M  V30 9179 H 887.184 -0.856993 4.0861 0
M  V30 9180 H 888.574 2.58715 6.20093 0
M  V30 9181 N 891.294 -1.47756 0.548274 0
M  V30 9182 C 892.226 -2.27921 -0.24177 0
M  V30 9183 C 893.239 -1.36471 -0.887658 0
M  V30 9184 O 894.428 -1.6137 -0.763016 0
M  V30 9185 C 891.528 -3.10449 -1.35922 0
M  V30 9186 C 890.701 -4.298 -0.811808 0
M  V30 9187 C 889.76 -4.93994 -1.81264 0
M  V30 9188 O 888.786 -5.52657 -1.3623 0
M  V30 9189 N 889.988 -4.87882 -3.14566 0
M  V30 9190 H 892.753 -2.96365 0.445848 0
M  V30 9191 H 890.314 -1.57286 0.383769 0
M  V30 9192 H 892.306 -3.50261 -2.02729 0
M  V30 9193 H 890.876 -2.44306 -1.95021 0
M  V30 9194 H 890.096 -3.94186 0.0327929 0
M  V30 9195 H 891.384 -5.0702 -0.425272 0
M  V30 9196 H 890.782 -4.41405 -3.53805 0
M  V30 9197 H 889.339 -5.3174 -3.76956 0
M  V30 9198 N 892.772 -0.284283 -1.55015 0
M  V30 9199 C 893.704 0.63258 -2.20298 0
M  V30 9200 C 894.717 1.11045 -1.1905 0
M  V30 9201 O 895.906 1.03078 -1.4573 0
M  V30 9202 C 893.006 1.87599 -2.82241 0
M  V30 9203 C 892.179 1.5434 -4.09265 0
M  V30 9204 C 891.238 2.64023 -4.55169 0
M  V30 9205 O 890.264 2.29821 -5.20741 0
M  V30 9206 N 891.466 3.94255 -4.26079 0
M  V30 9207 H 894.231 0.0737928 -2.99609 0
M  V30 9208 H 891.792 -0.105767 -1.61554 0
M  V30 9209 H 893.784 2.60289 -3.0989 0
M  V30 9210 H 892.354 2.3436 -2.06868 0
M  V30 9211 H 891.574 0.649912 -3.88806 0
M  V30 9212 H 892.862 1.29634 -4.92009 0
M  V30 9213 H 892.26 4.24859 -3.73512 0
M  V30 9214 H 890.817 4.63295 -4.58477 0
M  V30 9215 N 894.251 1.57596 -0.0117121 0
M  V30 9216 C 895.214 2.08089 0.960816 0
M  V30 9217 C 896.214 0.992519 1.26514 0
M  V30 9218 O 897.404 1.25475 1.20837 0
M  V30 9219 C 894.536 2.53217 2.28241 0
M  V30 9220 H 895.729 2.9529 0.523829 0
M  V30 9221 H 893.282 1.54508 0.235995 0
M  V30 9222 H 894.017 1.69294 2.76604 0
M  V30 9223 H 893.802 3.32714 2.0747 0
M  V30 9224 H 895.292 2.92568 2.97983 0
M  V30 9225 N 895.729 -0.261212 1.5542 0
M  V30 9226 C 896.975 -0.992699 1.76843 0
M  V30 9227 C 897.308 -1.8551 0.574428 0
M  V30 9228 O 896.583 -1.89739 -0.427713 0
M  V30 9229 C 896.866 -1.86532 3.08022 0
M  V30 9230 C 896.719 -1.03206 4.378 0
M  V30 9231 C 898.038 -2.85036 3.35324 0
M  V30 9232 H 895.157 -0.359473 0.643388 0
M  V30 9233 H 897.799 -0.264214 1.88154 0
M  V30 9234 H 895.949 -2.48644 2.9851 0
M  V30 9235 H 897.621 -0.430743 4.59285 0
M  V30 9236 H 895.864 -0.335911 4.32497 0
M  V30 9237 H 896.535 -1.6761 5.25938 0
M  V30 9238 H 899.011 -2.3306 3.44706 0
M  V30 9239 H 897.887 -3.43226 4.28354 0
M  V30 9240 H 898.148 -3.60768 2.55537 0
M  V30 9241 N 897.207 -1.48554 -0.526253 0
M  V30 9242 C 898.157 -1.59753 -1.62674 0
M  V30 9243 C 899.141 -0.454452 -1.54349 0
M  V30 9244 O 900.333 -0.706091 -1.62306 0
M  V30 9245 C 897.462 -1.64388 -3.01383 0
M  V30 9246 C 896.548 -2.84188 -3.14798 0
M  V30 9247 N 896.939 -4.08564 -2.98176 0
M  V30 9248 C 895.237 -2.81599 -3.45859 0
M  V30 9249 C 895.938 -4.88961 -3.15106 0
M  V30 9250 N 894.914 -4.21848 -3.42849 0
M  V30 9251 H 898.716 -2.5366 -1.48438 0
M  V30 9252 H 896.23 -1.44977 -0.731801 0
M  V30 9253 H 898.227 -1.70505 -3.80439 0
M  V30 9254 H 896.887 -0.716006 -3.16707 0
M  V30 9255 H 897.898 -4.38943 -2.74862 0
M  V30 9256 H 894.575 -1.98083 -3.67518 0
M  V30 9257 H 895.965 -5.97683 -3.0696 0
M  V30 9258 N 898.685 0.775411 -1.37205 0
M  V30 9259 C 899.617 1.89761 -1.28544 0
M  V30 9260 C 900.63 1.61542 -0.201996 0
M  V30 9261 O 901.819 1.72528 -0.457848 0
M  V30 9262 C 898.919 3.24904 -0.963885 0
M  V30 9263 C 898.092 3.80796 -2.15205 0
M  V30 9264 C 897.151 4.94407 -1.80135 0
M  V30 9265 O 896.177 5.10185 -2.52388 0
M  V30 9266 N 897.379 5.75722 -0.743298 0
M  V30 9267 H 900.144 1.97708 -2.25237 0
M  V30 9268 H 897.705 0.954348 -1.30782 0
M  V30 9269 H 899.697 3.9842 -0.710182 0
M  V30 9270 H 898.267 3.12483 -0.085632 0
M  V30 9271 H 897.487 2.99101 -2.56773 0
M  V30 9272 H 898.775 4.1487 -2.94552 0
M  V30 9273 H 898.173 5.65518 -0.143655 0
M  V30 9274 H 896.73 6.4948 -0.549446 0
M  V30 9275 N 900.163 1.21714 1.00117 0
M  V30 9276 C 901.095 0.937627 2.09144 0
M  V30 9277 C 902.108 -0.0806291 1.626 0
M  V30 9278 O 903.297 0.152348 1.77849 0
M  V30 9279 C 900.397 0.387036 3.36683 0
M  V30 9280 C 899.57 1.46054 4.12295 0
M  V30 9281 C 898.629 0.918505 5.18122 0
M  V30 9282 O 897.655 1.60282 5.46167 0
M  V30 9283 N 898.857 -0.264308 5.79898 0
M  V30 9284 H 901.622 1.87622 2.33705 0
M  V30 9285 H 899.183 1.12291 1.16629 0
M  V30 9286 H 901.175 0.00992825 4.04699 0
M  V30 9287 H 899.745 -0.456467 3.09249 0
M  V30 9288 H 898.965 2.01133 3.39027 0
M  V30 9289 H 900.253 2.18306 4.59587 0
M  V30 9290 H 899.651 -0.837242 5.5947 0
M  V30 9291 H 898.208 -0.582886 6.49188 0
M  V30 9292 N 901.641 -1.19671 1.02551 0
M  V30 9293 C 902.604 -2.20987 0.608055 0
M  V30 9294 C 903.604 -1.5745 -0.326534 0
M  V30 9295 O 904.794 -1.73827 -0.114003 0
M  V30 9296 C 901.926 -3.4072 -0.11074 0
M  V30 9297 H 903.119 -2.59434 1.50446 0
M  V30 9298 H 900.672 -1.3329 0.816307 0
M  V30 9299 H 901.407 -3.07787 -1.02165 0
M  V30 9300 H 901.192 -3.88069 0.560772 0
M  V30 9301 H 902.682 -4.15776 -0.389848 0
M  V30 9302 N 903.119 -0.802921 -1.35613 0
M  V30 9303 C 904.082 -0.216422 -2.28176 0
M  V30 9304 C 905.082 0.594101 -1.49422 0
M  V30 9305 O 906.272 0.41312 -1.6923 0
M  V30 9306 C 903.404 0.698746 -3.33662 0
M  V30 9307 H 904.597 -1.03276 -2.81557 0
M  V30 9308 H 902.15 -0.573307 -1.45406 0
M  V30 9309 H 902.885 1.53891 -2.85461 0
M  V30 9310 H 902.67 0.119314 -3.91918 0
M  V30 9311 H 904.16 1.10354 -4.02755 0
M  V30 9312 N 904.597 1.47463 -0.556102 0
M  V30 9313 C 905.529 2.28046 0.22968 0
M  V30 9314 C 906.542 1.3694 0.880409 0
M  V30 9315 O 907.731 1.61773 0.754447 0
M  V30 9316 C 904.831 3.11165 1.34273 0
M  V30 9317 C 904.004 4.30225 0.789004 0
M  V30 9318 C 903.063 4.94948 1.78641 0
M  V30 9319 O 902.089 5.53372 1.33297 0
M  V30 9320 N 903.291 4.89543 3.11974 0
M  V30 9321 H 906.056 2.96125 -0.461558 0
M  V30 9322 H 903.617 1.5708 -0.392105 0
M  V30 9323 H 905.609 3.51331 2.00869 0
M  V30 9324 H 904.179 2.45337 1.93722 0
M  V30 9325 H 903.399 3.94163 -0.0536971 0
M  V30 9326 H 904.687 5.07238 0.398378 0
M  V30 9327 H 904.085 4.43275 3.51459 0
M  V30 9328 H 902.642 5.33732 3.74131 0
M  V30 9329 N 906.075 0.2925 1.54862 0
M  V30 9330 C 907.007 -0.620889 2.2063 0
M  V30 9331 C 908.02 -1.10412 1.19637 0
M  V30 9332 O 909.209 -1.02304 1.46274 0
M  V30 9333 C 906.309 -1.861 2.83232 0
M  V30 9334 C 905.482 -1.52168 4.10078 0
M  V30 9335 C 904.541 -2.61605 4.56562 0
M  V30 9336 O 903.567 -2.27056 5.21952 0
M  V30 9337 N 904.769 -3.9199 4.28163 0
M  V30 9338 H 907.534 -0.0579028 2.99644 0
M  V30 9339 H 905.095 0.114333 1.61496 0
M  V30 9340 H 907.087 -2.58642 3.11266 0
M  V30 9341 H 905.657 -2.33259 2.08108 0
M  V30 9342 H 904.877 -0.629283 3.89145 0
M  V30 9343 H 906.165 -1.27023 4.92689 0
M  V30 9344 H 905.563 -4.22872 3.7576 0
M  V30 9345 H 904.12 -4.60857 4.60928 0
M  V30 9346 N 907.553 -1.57587 0.0200696 0
M  V30 9347 C 908.485 -2.06555 -0.993359 0
M  V30 9348 C 909.498 -0.987227 -1.29451 0
M  V30 9349 O 910.687 -1.26361 -1.26075 0
M  V30 9350 C 907.787 -2.4675 -2.3231 0
M  V30 9351 C 906.96 -3.77554 -2.20843 0
M  V30 9352 C 906.019 -4.04397 -3.36674 0
M  V30 9353 O 905.045 -4.7478 -3.13963 0
M  V30 9354 N 906.247 -3.53861 -4.60176 0
M  V30 9355 H 909.012 -2.9412 -0.575617 0
M  V30 9356 H 906.573 -1.61038 -0.166889 0
M  V30 9357 H 908.565 -2.61806 -3.08609 0
M  V30 9358 H 907.135 -1.64598 -2.65756 0
M  V30 9359 H 906.355 -3.72382 -1.29327 0
M  V30 9360 H 907.643 -4.63271 -2.10375 0
M  V30 9361 H 907.041 -2.96904 -4.81523 0
M  V30 9362 H 905.598 -3.74213 -5.33674 0
M  V30 9363 N 909.032 0.252966 -1.55557 0
M  V30 9364 C 909.962 1.31691 -1.9282 0
M  V30 9365 C 910.943 1.50516 -0.7924 0
M  V30 9366 O 912.128 1.63225 -1.05219 0
M  V30 9367 C 909.258 2.67281 -2.21762 0
M  V30 9368 C 908.212 2.6316 -3.37536 0
M  V30 9369 C 907.538 4.02488 -3.52005 0
M  V30 9370 C 908.838 2.20675 -4.73392 0
M  V30 9371 H 910.532 1.00751 -2.81939 0
M  V30 9372 H 908.078 0.483219 -1.3565 0
M  V30 9373 H 910.031 3.41842 -2.46419 0
M  V30 9374 H 908.755 2.99845 -1.29463 0
M  V30 9375 H 907.414 1.91057 -3.12878 0
M  V30 9376 H 907.062 4.32307 -2.57137 0
M  V30 9377 H 906.762 4.00621 -4.29857 0
M  V30 9378 H 908.286 4.78758 -3.78977 0
M  V30 9379 H 909.7 2.84965 -4.97461 0
M  V30 9380 H 908.097 2.29931 -5.54303 0
M  V30 9381 H 909.167 1.15831 -4.70862 0
M  V30 9382 N 910.51 1.48831 0.518367 0
M  V30 9383 C 911.458 1.64678 1.64268 0
M  V30 9384 C 912.452 0.512967 1.61447 0
M  V30 9385 O 913.658 0.692063 1.66164 0
M  V30 9386 H 910.033 0.518964 0.544224 0
M  V30 9387 H 912.004 2.59083 1.4805 0
M  V30 9388 C 910.753 1.71449 3.0249 0
M  V30 9389 H 910.076 2.58061 3.0536 0
M  V30 9390 H 911.516 1.86577 3.80743 0
M  V30 9391 C 909.975 0.455584 3.33805 0
M  V30 9392 O 910.505 -0.426428 3.9943 0
M  V30 9393 N 908.711 0.323763 2.88791 0
M  V30 9394 H 908.258 1.04249 2.35563 0
M  V30 9395 H 908.216 -0.517514 3.10112 0
M  V30 9396 N 911.988 -0.768124 1.37614 0
M  V30 9397 C 913.235 -1.5268 1.33022 0
M  V30 9398 C 913.563 -1.94318 -0.0841918 0
M  V30 9399 O 912.818 -1.64623 -1.0582 0
M  V30 9400 C 913.117 -2.80204 2.21856 0
M  V30 9401 C 912.783 -2.57602 3.7007 0
M  V30 9402 C 911.445 -2.51146 4.10462 0
M  V30 9403 C 913.797 -2.37482 4.63952 0
M  V30 9404 C 911.125 -2.22566 5.42846 0
M  V30 9405 C 913.477 -2.10425 5.96577 0
M  V30 9406 C 912.141 -2.02416 6.36069 0
M  V30 9407 H 911.411 -0.558697 0.486763 0
M  V30 9408 H 914.058 -0.88447 1.69851 0
M  V30 9409 H 912.363 -3.49014 1.78034 0
M  V30 9410 H 914.06 -3.38099 2.15615 0
M  V30 9411 H 910.65 -2.63491 3.38039 0
M  V30 9412 H 914.834 -2.41457 4.33604 0
M  V30 9413 H 910.09 -2.14863 5.72402 0
M  V30 9414 H 914.264 -1.93857 6.68874 0
M  V30 9415 H 911.891 -1.80034 7.38574 0
M  V30 9416 N 913.466 -1.22244 -0.994698 0
M  V30 9417 C 914.414 -0.988118 -2.10568 0
M  V30 9418 C 915.408 0.0681541 -1.69263 0
M  V30 9419 O 916.614 -0.0841311 -1.79803 0
M  V30 9420 H 912.989 -0.302343 -0.688544 0
M  V30 9421 H 914.96 -1.93091 -2.27505 0
M  V30 9422 C 913.709 -0.580557 -3.42819 0
M  V30 9423 H 913.032 -1.385 -3.75044 0
M  V30 9424 H 914.472 -0.456004 -4.21541 0
M  V30 9425 C 912.931 0.709692 -3.2934 0
M  V30 9426 O 913.461 1.76259 -3.60965 0
M  V30 9427 N 911.667 0.680155 -2.82528 0
M  V30 9428 H 911.214 -0.176977 -2.56991 0
M  V30 9429 H 911.172 1.54372 -2.73892 0
M  V30 9430 N 914.944 1.19125 -1.03184 0
M  V30 9431 C 916.172 1.92838 -0.74975 0
M  V30 9432 C 916.587 1.75667 0.691851 0
M  V30 9433 O 915.944 1.0805 1.47076 0
M  V30 9434 C 915.995 3.44509 -1.09525 0
M  V30 9435 O 915.716 3.6113 -2.48025 0
M  V30 9436 C 917.217 4.35338 -0.836397 0
M  V30 9437 H 914.437 0.61246 -0.274105 0
M  V30 9438 H 916.981 1.5118 -1.37712 0
M  V30 9439 H 915.136 3.83988 -0.513006 0
M  V30 9440 H 915.55 4.54959 -2.60984 0
M  V30 9441 H 917.024 5.4035 -1.12808 0
M  V30 9442 H 917.501 4.38602 0.229102 0
M  V30 9443 H 918.107 4.01544 -1.40152 0
M  V30 9444 N 916.422 0.810101 1.35185 0
M  V30 9445 C 917.37 0.211071 2.3164 0
M  V30 9446 C 918.364 -0.641109 1.568 0
M  V30 9447 O 919.57 -0.533881 1.719 0
M  V30 9448 H 915.945 0.0494978 0.750369 0
M  V30 9449 H 917.916 1.03964 2.79703 0
M  V30 9450 C 916.665 -0.622933 3.42074 0
M  V30 9451 H 915.988 0.0234648 3.99793 0
M  V30 9452 H 917.428 -1.0084 4.11834 0
M  V30 9453 C 915.887 -1.78994 2.85417 0
M  V30 9454 O 916.417 -2.88758 2.79252 0
M  V30 9455 N 914.623 -1.60259 2.42416 0
M  V30 9456 H 914.17 -0.70974 2.4763 0
M  V30 9457 H 914.128 -2.38498 2.04857 0
M  V30 9458 N 917.9 -1.47166 0.563914 0
M  V30 9459 C 918.83 -2.32894 -0.168148 0
M  V30 9460 C 919.811 -1.44202 -0.902214 0
M  V30 9461 O 920.996 -1.73048 -0.881365 0
M  V30 9462 C 918.126 -3.26116 -1.19439 0
M  V30 9463 C 917.08 -4.24101 -0.576363 0
M  V30 9464 C 916.406 -5.06696 -1.70772 0
M  V30 9465 C 917.706 -5.20142 0.47425 0
M  V30 9466 H 919.4 -2.9435 0.547573 0
M  V30 9467 H 916.946 -1.41545 0.264778 0
M  V30 9468 H 918.899 -3.84935 -1.71474 0
M  V30 9469 H 917.623 -2.62728 -1.94014 0
M  V30 9470 H 916.282 -3.66519 -0.0772534 0
M  V30 9471 H 915.93 -4.39707 -2.44268 0
M  V30 9472 H 915.63 -5.7304 -1.29994 0
M  V30 9473 H 917.154 -5.68375 -2.2312 0
M  V30 9474 H 918.568 -5.73286 0.0397035 0
M  V30 9475 H 916.965 -5.94726 0.801287 0
M  V30 9476 H 918.035 -4.65214 1.36764 0
M  V30 9477 N 919.378 -0.300708 -1.54705 0
M  V30 9478 C 920.794 0.0526874 -1.59513 0
M  V30 9479 C 920.994 1.52444 -1.31769 0
M  V30 9480 O 920.05 2.27716 -1.09096 0
M  V30 9481 C 921.363 -0.344989 -2.98714 0
M  V30 9482 C 922.911 -0.29373 -3.11619 0
M  V30 9483 C 923.386 -0.666225 -4.53129 0
M  V30 9484 N 924.877 -0.618749 -4.59049 0
M  V30 9485 C 925.612 -0.879447 -5.66616 0
M  V30 9486 N 925.108 -1.2061 -6.82221 0
M  V30 9487 N 926.901 -0.806528 -5.56284 0
M  V30 9488 H 919.052 -1.25988 -1.71 0
M  V30 9489 H 921.315 -0.510758 -0.798643 0
M  V30 9490 H 921.021 -1.36953 -3.2394 0
M  V30 9491 H 920.895 0.301507 -3.75993 0
M  V30 9492 H 923.282 0.72156 -2.86142 0
M  V30 9493 H 923.363 -0.974844 -2.36496 0
M  V30 9494 H 923.007 -1.67932 -4.79334 0
M  V30 9495 H 922.937 0.0369575 -5.26587 0
M  V30 9496 H 925.428 -0.377202 -3.76013 0
M  V30 9497 H 925.741 -1.391 -7.60178 0
M  V30 9498 H 924.086 -1.24413 -6.83774 0
M  V30 9499 H 927.277 -0.550993 -4.64846 0
M  V30 9500 H 927.45 -1.01307 -6.40032 0
M  V30 9501 N 920.856 1.57574 -0.0284266 0
M  V30 9502 C 922.104 1.91393 0.649079 0
M  V30 9503 C 922.425 0.905368 1.72708 0
M  V30 9504 O 921.695 -0.0532107 1.95828 0
M  V30 9505 H 920.275 0.70646 0.24274 0
M  V30 9506 H 922.937 1.94752 -0.076066 0
M  V30 9507 H 922.033 2.91988 1.10226 0
M  V30 9508 N 922.334 -0.244713 1.55689 0
M  V30 9509 C 923.266 -1.32595 1.86952 0
M  V30 9510 C 924.279 -1.44185 0.755948 0
M  V30 9511 O 925.468 -1.45496 1.03408 0
M  V30 9512 C 922.568 -2.70429 2.04258 0
M  V30 9513 C 921.741 -2.8108 3.35131 0
M  V30 9514 C 920.8 -3.99773 3.42152 0
M  V30 9515 O 919.826 -3.89197 4.15348 0
M  V30 9516 N 921.028 -5.13041 2.71604 0
M  V30 9517 H 923.793 -1.06111 2.80287 0
M  V30 9518 H 921.354 -0.434811 1.55952 0
M  V30 9519 H 923.346 -3.48173 2.06295 0
M  V30 9520 H 921.916 -2.89612 1.17658 0
M  V30 9521 H 921.136 -1.89994 3.45392 0
M  V30 9522 H 922.424 -2.85147 4.21389 0
M  V30 9523 H 921.822 -5.24525 2.11872 0
M  V30 9524 H 920.379 -5.88912 2.79331 0
M  V30 9525 N 923.813 -1.49104 -0.510467 0
M  V30 9526 C 925.062 -1.57362 -1.26175 0
M  V30 9527 C 925.375 -0.261218 -1.93848 0
M  V30 9528 O 926.581 -0.222238 -2.70589 0
M  V30 9529 C 925.037 -2.77606 -2.29048 0
M  V30 9530 C 924.645 -4.15567 -1.67357 0
M  V30 9531 C 926.389 -2.95188 -3.05064 0
M  V30 9532 C 924.296 -5.27046 -2.68285 0
M  V30 9533 H 923.226 -0.585887 -0.474608 0
M  V30 9534 H 925.877 -1.75474 -0.536753 0
M  V30 9535 H 924.259 -2.52968 -3.04669 0
M  V30 9536 H 925.433 -4.50304 -0.977924 0
M  V30 9537 H 923.748 -4.03264 -1.03765 0
M  V30 9538 H 926.345 -3.75643 -3.80521 0
M  V30 9539 H 926.688 -2.05385 -3.62108 0
M  V30 9540 H 927.221 -3.19821 -2.36558 0
M  V30 9541 H 923.96 -6.18878 -2.16034 0
M  V30 9542 H 923.48 -4.96774 -3.36118 0
M  V30 9543 H 925.159 -5.55983 -3.30896 0
M  V30 9544 N 925.291 0.760815 -1.38019 0
M  V30 9545 C 926.239 1.89578 -1.34771 0
M  V30 9546 C 927.233 1.67766 -0.234714 0
M  V30 9547 O 928.439 1.75423 -0.403352 0
M  V30 9548 H 924.814 0.623608 -0.420258 0
M  V30 9549 H 926.785 1.89434 -2.30558 0
M  V30 9550 C 925.534 3.26976 -1.18246 0
M  V30 9551 H 924.857 3.44342 -2.03147 0
M  V30 9552 H 926.297 4.06657 -1.20026 0
M  V30 9553 C 924.756 3.36717 0.111145 0
M  V30 9554 O 925.286 3.86607 1.09079 0
M  V30 9555 N 923.492 2.90128 0.165542 0
M  V30 9556 H 923.039 2.49719 -0.632328 0
M  V30 9557 H 922.997 2.97026 1.03067 0
M  V30 9558 N 926.769 1.22769 0.988202 0
M  V30 9559 C 927.701 0.959757 2.08138 0
M  V30 9560 C 928.714 -0.0633787 1.62677 0
M  V30 9561 O 929.903 0.171203 1.77677 0
M  V30 9562 C 927.003 0.422724 3.36253 0
M  V30 9563 C 926.176 1.50419 4.10722 0
M  V30 9564 C 925.235 0.973407 5.17118 0
M  V30 9565 O 924.261 1.66066 5.44436 0
M  V30 9566 N 925.463 -0.202787 5.80146 0
M  V30 9567 H 928.228 1.9009 2.31702 0
M  V30 9568 H 925.789 1.13522 1.15431 0
M  V30 9569 H 927.781 0.0528514 4.04665 0
M  V30 9570 H 926.351 -0.423642 3.09716 0
M  V30 9571 H 925.571 2.04718 3.36874 0
M  V30 9572 H 926.859 2.23169 4.57245 0
M  V30 9573 H 926.257 -0.777856 5.60327 0
M  V30 9574 H 924.814 -0.513998 6.4977 0
M  V30 9575 N 928.247 -1.18576 1.03814 0
M  V30 9576 C 929.18 -2.20929 0.571463 0
M  V30 9577 C 930.158 -1.57788 -0.392636 0
M  V30 9578 O 931.342 -1.85974 -0.30754 0
M  V30 9579 C 928.469 -3.38295 -0.165504 0
M  V30 9580 C 927.515 -4.19828 0.751457 0
M  V30 9581 S 928.348 -4.86725 2.23291 0
M  V30 9582 C 929.504 -6.07494 1.50672 0
M  V30 9583 H 929.737 -2.60173 1.43866 0
M  V30 9584 H 927.27 -1.2897 0.84888 0
M  V30 9585 H 929.228 -4.06317 -0.584545 0
M  V30 9586 H 927.889 -2.97468 -1.00855 0
M  V30 9587 H 927.082 -5.03671 0.181986 0
M  V30 9588 H 926.684 -3.57172 1.10923 0
M  V30 9589 H 928.976 -6.72779 0.798377 0
M  V30 9590 H 929.919 -6.68942 2.3221 0
M  V30 9591 H 930.327 -5.55569 1.00016 0
M  V30 9592 N 929.725 -0.817259 -1.34754 0
M  V30 9593 C 931.141 -0.502309 -1.51489 0
M  V30 9594 C 931.341 0.974568 -1.76364 0
M  V30 9595 O 930.397 1.75924 -1.81127 0
M  V30 9596 C 931.71 -1.35693 -2.68343 0
M  V30 9597 C 933.258 -1.35347 -2.82224 0
M  V30 9598 C 933.733 -2.19244 -4.02114 0
M  V30 9599 N 935.224 -2.16837 -4.09311 0
M  V30 9600 C 935.959 -2.78505 -5.01221 0
M  V30 9601 N 935.455 -3.4914 -5.98392 0
M  V30 9602 N 937.248 -2.68089 -4.94049 0
M  V30 9603 H 929.399 -1.77359 -1.16866 0
M  V30 9604 H 931.662 -0.755476 -0.572678 0
M  V30 9605 H 931.368 -2.40548 -2.56573 0
M  V30 9606 H 931.242 -1.01764 -3.63213 0
M  V30 9607 H 933.629 -0.312727 -2.93438 0
M  V30 9608 H 933.71 -1.7327 -1.88179 0
M  V30 9609 H 933.354 -3.23365 -3.9166 0
M  V30 9610 H 933.284 -1.78675 -4.95361 0
M  V30 9611 H 935.775 -1.65452 -3.39756 0
M  V30 9612 H 936.088 -3.93455 -6.65141 0
M  V30 9613 H 934.433 -3.53246 -5.98533 0
M  V30 9614 H 937.624 -2.12485 -4.17094 0
M  V30 9615 H 937.797 -3.16436 -5.65484 0
M  V30 9616 N 931.203 1.46865 -0.571711 0
M  V30 9617 C 932.133 2.3298 0.155795 0
M  V30 9618 C 933.114 1.44678 0.894553 0
M  V30 9619 O 934.299 1.73513 0.872176 0
M  V30 9620 C 931.429 3.26745 1.17708 0
M  V30 9621 C 930.383 4.24401 0.553863 0
M  V30 9622 C 929.709 5.07595 1.68083 0
M  V30 9623 C 931.009 5.19884 -0.501827 0
M  V30 9624 H 932.703 2.94056 -0.563176 0
M  V30 9625 H 930.249 1.41402 -0.27228 0
M  V30 9626 H 932.202 3.85838 1.6943 0
M  V30 9627 H 930.926 2.63753 1.92618 0
M  V30 9628 H 929.585 3.66554 0.057815 0
M  V30 9629 H 929.233 4.40996 2.41933 0
M  V30 9630 H 928.933 5.73722 1.26953 0
M  V30 9631 H 930.457 5.6955 2.20103 0
M  V30 9632 H 931.871 5.73257 -0.0701057 0
M  V30 9633 H 930.268 5.94293 -0.832815 0
M  V30 9634 H 931.338 4.64482 -1.39229 0
M  V30 9635 N 932.681 0.308908 1.54543 0
M  V30 9636 C 933.911 -0.299983 2.04411 0
M  V30 9637 C 934.319 -1.47463 1.18538 0
M  V30 9638 O 933.662 -1.82547 0.205463 0
M  V30 9639 C 933.724 -0.811579 3.50219 0
M  V30 9640 C 933.388 0.238834 4.56375 0
M  V30 9641 C 934.385 1.06997 5.08771 0
M  V30 9642 C 932.07 0.382808 5.00839 0
M  V30 9643 C 934.064 2.03096 6.04178 0
M  V30 9644 C 931.751 1.34723 5.96065 0
M  V30 9645 C 932.749 2.16978 6.47618 0
M  V30 9646 O 932.437 3.11783 7.40977 0
M  V30 9647 H 932.169 -0.0679682 0.672574 0
M  V30 9648 H 934.723 0.448815 2.00437 0
M  V30 9649 H 932.953 -1.61104 3.51543 0
M  V30 9650 H 934.642 -1.33721 3.83241 0
M  V30 9651 H 935.408 0.969654 4.75208 0
M  V30 9652 H 931.287 -0.247507 4.60335 0
M  V30 9653 H 934.831 2.67338 6.44342 0
M  V30 9654 H 930.728 1.44824 6.29044 0
M  V30 9655 H 931.496 3.06853 7.58804 0
M  V30 9656 N 934.159 -1.57557 0.0367827 0
M  V30 9657 C 935.387 -1.96419 -0.650168 0
M  V30 9658 C 935.802 -0.913656 -1.6522 0
M  V30 9659 O 935.159 0.103718 -1.82205 0
M  V30 9660 C 935.21 -3.35355 -1.3498 0
M  V30 9661 O 934.931 -4.36379 -0.387905 0
M  V30 9662 C 936.432 -3.88892 -2.12786 0
M  V30 9663 H 933.652 -0.646751 -0.178756 0
M  V30 9664 H 936.196 -2.04261 0.0988197 0
M  V30 9665 H 934.351 -3.28708 -2.05012 0
M  V30 9666 H 934.765 -5.16969 -0.885596 0
M  V30 9667 H 936.239 -4.88428 -2.5718 0
M  V30 9668 H 936.716 -3.23547 -2.97008 0
M  V30 9669 H 937.322 -3.98831 -1.47694 0
M  V30 9670 N 935.637 0.236453 -1.55816 0
M  V30 9671 C 936.569 1.31602 -1.87653 0
M  V30 9672 C 937.582 1.43782 -0.763584 0
M  V30 9673 O 938.771 1.44945 -1.04178 0
M  V30 9674 C 935.871 2.69342 -2.05689 0
M  V30 9675 C 935.044 2.79298 -3.36617 0
M  V30 9676 C 934.103 3.97952 -3.44268 0
M  V30 9677 O 933.129 3.86989 -4.17406 0
M  V30 9678 N 934.331 5.11594 -2.74321 0
M  V30 9679 H 937.096 1.04623 -2.80845 0
M  V30 9680 H 934.657 0.426534 -1.5618 0
M  V30 9681 H 936.649 3.47074 -2.08138 0
M  V30 9682 H 935.219 2.88984 -1.19192 0
M  V30 9683 H 934.439 1.8816 -3.46395 0
M  V30 9684 H 935.727 2.82908 -4.22895 0
M  V30 9685 H 935.125 5.23394 -2.14651 0
M  V30 9686 H 933.682 5.87422 -2.8245 0
M  V30 9687 N 937.115 1.49373 0.502552 0
M  V30 9688 C 938.063 1.66411 1.62512 0
M  V30 9689 C 939.057 0.530062 1.60893 0
M  V30 9690 O 940.263 0.709648 1.65421 0
M  V30 9691 H 936.638 0.524707 0.538689 0
M  V30 9692 H 938.609 2.60639 1.45293 0
M  V30 9693 C 937.358 1.74648 3.00655 0
M  V30 9694 H 936.681 2.61285 3.02606 0
M  V30 9695 H 938.121 1.90605 3.78742 0
M  V30 9696 C 936.58 0.490963 3.33303 0
M  V30 9697 O 937.11 -0.384039 3.9986 0
M  V30 9698 N 935.316 0.354375 2.88431 0
M  V30 9699 H 934.863 1.06742 2.34444 0
M  V30 9700 H 934.821 -0.484593 3.10643 0
M  V30 9701 N 938.594 -0.753485 1.38421 0
M  V30 9702 C 939.542 -1.8886 1.35774 0
M  V30 9703 C 940.536 -1.67639 0.243608 0
M  V30 9704 O 941.742 -1.75206 0.412649 0
M  V30 9705 H 938.117 -0.62137 0.42356 0
M  V30 9706 H 940.088 -1.88209 2.3156 0
M  V30 9707 C 938.837 -3.26344 1.19979 0
M  V30 9708 H 938.16 -3.43259 2.04971 0
M  V30 9709 H 939.6 -4.06015 1.22181 0
M  V30 9710 C 938.059 -3.36771 -0.0932867 0
M  V30 9711 O 938.589 -3.8718 -1.07027 0
M  V30 9712 N 936.795 -2.90212 -0.150154 0
M  V30 9713 H 936.342 -2.4938 0.645562 0
M  V30 9714 H 936.3 -2.97569 -1.0149 0
M  V30 9715 N 940.072 -1.23292 -0.981677 0
M  V30 9716 C 941.005 -0.956198 -2.07201 0
M  V30 9717 C 941.983 0.105027 -1.6226 0
M  V30 9718 O 943.167 -0.0289582 -1.88478 0
M  V30 9719 C 940.294 -0.44029 -3.35826 0
M  V30 9720 C 939.34 -1.48792 -3.99704 0
M  V30 9721 S 940.173 -3.06491 -4.39117 0
M  V30 9722 C 941.329 -2.56567 -5.70898 0
M  V30 9723 H 941.562 -1.87947 -2.30355 0
M  V30 9724 H 939.095 -1.06522 -1.1177 0
M  V30 9725 H 941.053 -0.149237 -4.10229 0
M  V30 9726 H 939.714 0.462045 -3.10683 0
M  V30 9727 H 938.907 -1.07706 -4.92357 0
M  V30 9728 H 938.509 -1.72826 -3.31673 0
M  V30 9729 H 940.801 -1.98508 -6.47766 0
M  V30 9730 H 941.744 -3.47755 -6.16824 0
M  V30 9731 H 942.152 -1.97465 -5.28836 0
M  V30 9732 N 941.55 1.18024 -1.04442 0
M  V30 9733 C 942.483 2.20623 -0.583171 0
M  V30 9734 C 943.461 1.57994 0.384262 0
M  V30 9735 O 944.645 1.86135 0.297673 0
M  V30 9736 C 941.772 3.38378 0.147561 0
M  V30 9737 C 940.818 4.19423 -0.773711 0
M  V30 9738 S 941.651 4.85534 -2.25869 0
M  V30 9739 C 942.807 6.06686 -1.53891 0
M  V30 9740 H 943.04 2.59406 -1.45244 0
M  V30 9741 H 940.573 1.28518 -0.855708 0
M  V30 9742 H 942.531 4.06621 0.562988 0
M  V30 9743 H 941.192 2.97998 0.992765 0
M  V30 9744 H 940.385 5.03568 -0.208694 0
M  V30 9745 H 939.987 3.56579 -1.12816 0
M  V30 9746 H 942.279 6.72347 -0.834045 0
M  V30 9747 H 943.222 6.67702 -2.35755 0
M  V30 9748 H 943.63 5.55031 -1.02961 0
M  V30 9749 N 943.028 0.824394 1.34319 0
M  V30 9750 C 943.976 0.235628 2.31403 0
M  V30 9751 C 944.97 -0.624443 1.57471 0
M  V30 9752 O 946.176 -0.515618 1.72457 0
M  V30 9753 H 942.551 0.0574537 0.749802 0
M  V30 9754 H 944.522 1.06925 2.78585 0
M  V30 9755 C 943.271 -0.586617 3.42716 0
M  V30 9756 H 942.594 0.0658669 3.99746 0
M  V30 9757 H 944.034 -0.964661 4.1288 0
M  V30 9758 C 942.493 -1.75957 2.87299 0
M  V30 9759 O 943.023 -2.8578 2.82299 0
M  V30 9760 N 941.229 -1.57678 2.44102 0
M  V30 9761 H 940.776 -0.683436 2.48369 0
M  V30 9762 H 940.734 -2.36311 2.07375 0
M  V30 9763 N 944.506 -1.46559 0.579492 0
M  V30 9764 C 945.454 -2.3199 -0.168413 0
M  V30 9765 C 946.448 -1.44288 -0.887551 0
M  V30 9766 O 947.654 -1.60931 -0.806305 0
M  V30 9767 H 944.029 -0.748431 -0.0731799 0
M  V30 9768 H 946 -2.92886 0.570973 0
M  V30 9769 C 944.749 -3.27392 -1.1709 0
M  V30 9770 H 944.072 -3.94853 -0.626958 0
M  V30 9771 H 945.512 -3.89955 -1.66467 0
M  V30 9772 C 943.971 -2.52511 -2.23024 0
M  V30 9773 O 944.501 -2.2858 -3.30324 0
M  V30 9774 N 942.707 -2.1313 -1.97545 0
M  V30 9775 H 942.254 -2.32793 -1.10297 0
M  V30 9776 H 942.212 -1.63348 -2.68635 0
M  V30 9777 N 945.984 -0.3171 -1.54377 0
M  V30 9778 C 946.932 0.567371 -2.25574 0
M  V30 9779 C 947.926 1.12387 -1.2675 0
M  V30 9780 O 949.132 1.07266 -1.44548 0
M  V30 9781 H 945.507 0.201605 -0.724472 0
M  V30 9782 H 947.478 -0.0554644 -2.98348 0
M  V30 9783 C 946.227 1.71984 -3.02187 0
M  V30 9784 H 945.55 1.30086 -3.78044 0
M  V30 9785 H 946.99 2.31443 -3.5526 0
M  V30 9786 C 945.449 2.6336 -2.10103 0
M  V30 9787 O 945.979 3.64899 -1.67962 0
M  V30 9788 N 944.185 2.3145 -1.75725 0
M  V30 9789 H 943.732 1.48921 -2.10191 0
M  V30 9790 H 943.69 2.92852 -1.14391 0
M  V30 9791 N 947.462 1.57535 -0.0451378 0
M  V30 9792 C 948.392 2.14208 0.929372 0
M  V30 9793 C 949.373 1.06221 1.32858 0
M  V30 9794 O 950.558 1.34132 1.40436 0
M  V30 9795 C 947.688 2.68217 2.20629 0
M  V30 9796 C 946.642 3.81134 1.94734 0
M  V30 9797 C 945.968 4.21636 3.28828 0
M  V30 9798 C 947.268 5.06531 1.27374 0
M  V30 9799 H 948.962 2.95886 0.457348 0
M  V30 9800 H 946.508 1.42332 0.218544 0
M  V30 9801 H 948.461 3.06502 2.89196 0
M  V30 9802 H 947.185 1.83722 2.70026 0
M  V30 9803 H 945.844 3.43312 1.28579 0
M  V30 9804 H 945.492 3.34099 3.76014 0
M  V30 9805 H 945.192 4.97736 3.12302 0
M  V30 9806 H 946.716 4.62516 3.98637 0
M  V30 9807 H 948.13 5.423 1.85967 0
M  V30 9808 H 946.527 5.87735 1.21194 0
M  V30 9809 H 947.597 4.84261 0.248913 0
M  V30 9810 N 948.94 -0.228186 1.55939 0
M  V30 9811 C 949.888 -1.30239 1.92719 0
M  V30 9812 C 950.882 -1.48865 0.808424 0
M  V30 9813 O 952.088 -1.50118 0.993204 0
M  V30 9814 H 948.463 -0.436509 0.612343 0
M  V30 9815 H 950.434 -0.964965 2.82367 0
M  V30 9816 C 949.183 -2.647 2.25453 0
M  V30 9817 H 948.506 -2.51173 3.1105 0
M  V30 9818 H 949.946 -3.38691 2.55077 0
M  V30 9819 C 948.405 -3.1921 1.07734 0
M  V30 9820 O 948.935 -4.00301 0.335019 0
M  V30 9821 N 947.141 -2.77492 0.862938 0
M  V30 9822 H 946.688 -2.11657 1.4683 0
M  V30 9823 H 946.646 -3.14306 0.0770119 0
M  V30 9824 N 950.418 -1.49637 -0.494624 0
M  V30 9825 C 951.35 -1.62902 -1.61231 0
M  V30 9826 C 952.363 -0.511425 -1.54558 0
M  V30 9827 O 953.552 -0.783724 -1.60375 0
M  V30 9828 C 950.652 -1.57564 -3.00045 0
M  V30 9829 C 949.825 -2.84964 -3.31835 0
M  V30 9830 C 948.884 -2.72591 -4.5009 0
M  V30 9831 O 947.91 -3.46532 -4.51558 0
M  V30 9832 N 949.112 -1.84563 -5.50379 0
M  V30 9833 H 951.877 -2.59301 -1.50276 0
M  V30 9834 H 949.438 -1.46806 -0.68262 0
M  V30 9835 H 951.43 -1.46932 -3.77085 0
M  V30 9836 H 950 -0.689974 -3.0489 0
M  V30 9837 H 949.22 -3.099 -2.4363 0
M  V30 9838 H 950.508 -3.69412 -3.49875 0
M  V30 9839 H 949.906 -1.23758 -5.51997 0
M  V30 9840 H 948.463 -1.79849 -6.26496 0
M  V30 9841 N 951.896 0.746133 -1.38819 0
M  V30 9842 C 952.844 1.88137 -1.36774 0
M  V30 9843 C 953.838 1.67508 -0.252495 0
M  V30 9844 O 955.044 1.74985 -0.421935 0
M  V30 9845 H 951.419 0.619116 -0.426849 0
M  V30 9846 H 953.39 1.86978 -2.32555 0
M  V30 9847 C 952.139 3.25703 -1.21708 0
M  V30 9848 H 951.462 3.42168 -2.06788 0
M  V30 9849 H 952.902 4.05361 -1.24332 0
M  V30 9850 C 951.361 3.36816 0.0754257 0
M  V30 9851 O 951.891 3.87742 1.04972 0
M  V30 9852 N 950.097 2.90287 0.134761 0
M  V30 9853 H 949.644 2.49034 -0.658779 0
M  V30 9854 H 949.602 2.98103 0.999109 0
M  V30 9855 N 953.375 1.23811 0.975125 0
M  V30 9856 C 954.322 1.02394 2.06843 0
M  V30 9857 C 955.292 -0.060337 1.6599 0
M  V30 9858 O 956.477 0.0928187 1.90574 0
M  V30 9859 C 953.617 0.626882 3.39359 0
M  V30 9860 C 952.73 1.78385 3.9345 0
M  V30 9861 C 951.865 1.33307 5.14201 0
M  V30 9862 C 950.904 2.46045 5.60471 0
M  V30 9863 N 950.041 2.01888 6.72448 0
M  V30 9864 H 954.881 1.95973 2.24496 0
M  V30 9865 H 952.418 0.976206 1.10039 0
M  V30 9866 H 954.376 0.377742 4.15486 0
M  V30 9867 H 953.006 -0.271907 3.21653 0
M  V30 9868 H 952.058 2.14685 3.14029 0
M  V30 9869 H 953.37 2.63122 4.23755 0
M  V30 9870 H 952.524 1.04237 5.97678 0
M  V30 9871 H 951.263 0.456143 4.85562 0
M  V30 9872 H 950.268 2.75884 4.75571 0
M  V30 9873 H 951.493 3.34283 5.91127 0
M  V30 9874 H 949.439 1.16583 6.45558 0
M  V30 9875 H 949.356 2.80182 7.02164 0
M  V30 9876 H 950.624 1.75937 7.59386 0
M  V30 9877 N 954.853 -1.17469 1.05066 0
M  V30 9878 C 956.264 -1.69334 0.786304 0
M  V30 9879 C 956.615 -1.83604 -0.691671 0
M  V30 9880 O 955.74 -1.52269 -1.53763 0
M  V30 9881 C 956.335 -3.07572 1.42074 0
M  V30 9882 C 954.894 -3.56609 1.20446 0
M  V30 9883 C 954.041 -2.329 1.50508 0
M  V30 9884 H 956.992 -1.02003 1.21577 0
M  V30 9885 H 957.013 -3.71352 0.829334 0
M  V30 9886 H 956.525 -2.97154 2.49642 0
M  V30 9887 H 954.626 -3.72306 0.147968 0
M  V30 9888 H 954.739 -4.39446 1.90852 0
M  V30 9889 H 953.103 -2.37305 0.925124 0
M  V30 9890 H 953.886 -2.25093 2.59207 0
M  V30 9891 N 956.331 -0.831506 -1.3388 0
M  V30 9892 C 957.279 -0.247896 -2.31275 0
M  V30 9893 C 958.273 0.616083 -1.578 0
M  V30 9894 O 959.479 0.506465 -1.72728 0
M  V30 9895 H 955.854 -0.0614293 -0.749487 0
M  V30 9896 H 957.825 -1.08401 -2.78014 0
M  V30 9897 C 956.574 0.568434 -3.43022 0
M  V30 9898 H 955.897 -0.0870654 -3.99705 0
M  V30 9899 H 957.337 0.942751 -4.13386 0
M  V30 9900 C 955.796 1.74431 -2.88228 0
M  V30 9901 O 956.326 2.84278 -2.83811 0
M  V30 9902 N 954.532 1.56382 -2.44935 0
M  V30 9903 H 954.079 0.670255 -2.48727 0
M  V30 9904 H 954.037 2.35208 -2.08625 0
M  V30 9905 N 957.809 1.4625 -0.587256 0
M  V30 9906 C 958.772 2.28812 0.133238 0
M  V30 9907 C 959.772 1.38645 0.814513 0
M  V30 9908 O 960.962 1.60975 0.665774 0
M  V30 9909 C 958.094 3.19147 1.19824 0
M  V30 9910 H 959.287 2.93991 -0.592386 0
M  V30 9911 H 956.84 1.52435 -0.345416 0
M  V30 9912 H 957.575 2.58725 1.95529 0
M  V30 9913 H 957.36 3.85541 0.71418 0
M  V30 9914 H 958.85 3.81278 1.70344 0
M  V30 9915 N 959.287 0.325282 1.54207 0
M  V30 9916 C 960.219 -0.57395 2.21897 0
M  V30 9917 C 961.232 -1.0785 1.21952 0
M  V30 9918 O 962.421 -0.991782 1.48411 0
M  V30 9919 C 959.521 -1.8005 2.87115 0
M  V30 9920 C 958.694 -1.43435 4.13213 0
M  V30 9921 C 957.753 -2.51862 4.62009 0
M  V30 9922 O 956.779 -2.15934 5.26651 0
M  V30 9923 N 957.981 -3.8282 4.36382 0
M  V30 9924 H 960.746 0.00566918 2.99699 0
M  V30 9925 H 958.307 0.148563 1.61217 0
M  V30 9926 H 960.299 -2.51981 3.16682 0
M  V30 9927 H 958.869 -2.28792 2.13009 0
M  V30 9928 H 958.089 -0.546598 3.90392 0
M  V30 9929 H 959.377 -1.16544 4.95273 0
M  V30 9930 H 958.775 -4.14807 3.84645 0
M  V30 9931 H 957.332 -4.50976 4.70599 0
M  V30 9932 N 960.765 -1.57509 0.0534917 0
M  V30 9933 C 961.695 -2.14698 -0.917999 0
M  V30 9934 C 962.676 -1.06924 -1.32292 0
M  V30 9935 O 963.861 -1.34875 -1.39723 0
M  V30 9936 C 960.991 -2.69383 -2.19203 0
M  V30 9937 C 959.945 -3.82161 -1.9271 0
M  V30 9938 C 959.271 -4.23373 -3.26587 0
M  V30 9939 C 960.571 -5.07199 -1.24686 0
M  V30 9940 H 962.265 -2.96125 -0.44165 0
M  V30 9941 H 959.811 -1.42446 -0.210993 0
M  V30 9942 H 961.764 -3.08031 -2.87567 0
M  V30 9943 H 960.488 -1.85151 -2.69048 0
M  V30 9944 H 959.147 -3.43989 -1.26757 0
M  V30 9945 H 958.795 -3.36089 -3.74237 0
M  V30 9946 H 958.495 -4.99385 -3.09658 0
M  V30 9947 H 960.019 -4.64623 -3.96178 0
M  V30 9948 H 961.433 -5.43279 -1.83088 0
M  V30 9949 H 959.83 -5.88369 -1.18076 0
M  V30 9950 H 960.9 -4.84386 -0.223227 0
M  V30 9951 N 962.243 0.219913 -1.56058 0
M  V30 9952 C 963.193 1.27606 -1.88946 0
M  V30 9953 C 964.177 1.42209 -0.752691 0
M  V30 9954 O 965.369 1.44996 -1.01514 0
M  V30 9955 C 962.498 2.62614 -2.21108 0
M  V30 9956 C 961.584 2.51906 -3.4118 0
M  V30 9957 N 961.975 2.10851 -4.59756 0
M  V30 9958 C 960.273 2.82861 -3.44827 0
M  V30 9959 C 960.974 2.11434 -5.41914 0
M  V30 9960 N 959.95 2.51985 -4.81669 0
M  V30 9961 H 963.752 0.94957 -2.78137 0
M  V30 9962 H 961.266 0.428468 -1.56646 0
M  V30 9963 H 963.263 3.38869 -2.42844 0
M  V30 9964 H 961.923 2.96108 -1.3323 0
M  V30 9965 H 962.934 1.81956 -4.84884 0
M  V30 9966 H 959.611 3.20716 -2.67297 0
M  V30 9967 H 961.001 1.81803 -6.46836 0
M  V30 9968 N 963.721 1.49897 0.486681 0
M  V30 9969 C 964.671 1.6401 1.58381 0
M  V30 9970 C 965.655 0.495215 1.5309 0
M  V30 9971 O 966.847 0.748876 1.60377 0
M  V30 9972 C 963.976 1.72321 2.96918 0
M  V30 9973 C 963.062 2.92435 3.07152 0
M  V30 9974 N 963.453 4.16326 2.87238 0
M  V30 9975 C 961.751 2.90669 3.38271 0
M  V30 9976 C 962.452 4.97144 3.02031 0
M  V30 9977 N 961.428 4.3079 3.31544 0
M  V30 9978 H 965.23 2.57506 1.41661 0
M  V30 9979 H 962.744 1.46867 0.693106 0
M  V30 9980 H 964.741 1.80532 3.75784 0
M  V30 9981 H 963.401 0.799724 3.14697 0
M  V30 9982 H 964.412 4.46076 2.63128 0
M  V30 9983 H 961.089 2.07758 3.62137 0
M  V30 9984 H 962.479 6.05611 2.91006 0
M  V30 9985 N 965.199 -0.738761 1.39212 0
M  V30 9986 C 966.147 -1.8741 1.3777 0
M  V30 9987 C 967.141 -1.67371 0.261375 0
M  V30 9988 O 968.347 -1.74759 0.431209 0
M  V30 9989 H 964.722 -0.616843 0.430126 0
M  V30 9990 H 966.693 -1.85742 2.33543 0
M  V30 9991 C 965.442 -3.25053 1.23433 0
M  V30 9992 H 964.765 -3.41066 2.086 0
M  V30 9993 H 966.205 -4.04696 1.2648 0
M  V30 9994 C 964.664 -3.36851 -0.0575624 0
M  V30 9995 O 965.194 -3.88293 -1.02915 0
M  V30 9996 N 963.4 -2.90355 -0.119364 0
M  V30 9997 H 962.947 -2.48681 0.671976 0
M  V30 9998 H 962.905 -2.98628 -0.983286 0
M  V30 9999 N 966.677 -1.24326 -0.968545 0
M  V30 10000 C 967.609 -0.992749 -2.06584 0
M  V30 10001 C 968.622 0.0374902 -1.62757 0
M  V30 10002 O 969.811 -0.199448 -1.77382 0
M  V30 10003 C 966.911 -0.476165 -3.35538 0
M  V30 10004 C 966.084 -1.56934 -4.08277 0
M  V30 10005 C 965.143 -1.05555 -5.15504 0
M  V30 10006 O 964.169 -1.74707 -5.41725 0
M  V30 10007 N 965.371 0.110465 -5.80395 0
M  V30 10008 H 968.136 -1.93752 -2.28649 0
M  V30 10009 H 965.697 -1.15344 -1.13611 0
M  V30 10010 H 967.689 -0.117223 -4.0453 0
M  V30 10011 H 966.259 0.374315 -3.10351 0
M  V30 10012 H 965.479 -2.10051 -3.33575 0
M  V30 10013 H 966.767 -2.30415 -4.53637 0
M  V30 10014 H 966.165 0.688614 -5.61493 0
M  V30 10015 H 964.722 0.41056 -6.50506 0
M  V30 10016 N 968.156 1.1691 -1.05688 0
M  V30 10017 C 969.088 2.20648 -0.620237 0
M  V30 10018 C 970.101 1.59652 0.318604 0
M  V30 10019 O 971.29 1.78157 0.110553 0
M  V30 10020 C 968.39 3.38716 0.111729 0
M  V30 10021 C 967.563 4.29277 -0.839062 0
M  V30 10022 C 966.622 5.25993 -0.147453 0
M  V30 10023 O 965.648 5.63787 -0.783151 0
M  V30 10024 N 966.85 5.69725 1.11327 0
M  V30 10025 H 969.615 2.58731 -1.51256 0
M  V30 10026 H 967.176 1.31858 -0.939412 0
M  V30 10027 H 969.168 4.00455 0.584657 0
M  V30 10028 H 967.738 2.99189 0.905784 0
M  V30 10029 H 966.958 3.64894 -1.4915 0
M  V30 10030 H 968.246 4.86669 -1.48428 0
M  V30 10031 H 967.644 5.41103 1.64999 0
M  V30 10032 H 966.201 6.33584 1.53018 0
M  V30 10033 N 969.634 0.838594 1.33437 0
M  V30 10034 C 970.864 0.446995 2.01707 0
M  V30 10035 C 971.272 -0.956335 1.63251 0
M  V30 10036 O 970.615 -1.63289 0.841566 0
M  V30 10037 C 970.677 0.487707 3.56176 0
M  V30 10038 C 970.341 1.8471 4.18009 0
M  V30 10039 C 971.338 2.81028 4.374 0
M  V30 10040 C 969.023 2.13987 4.54439 0
M  V30 10041 C 971.017 4.04785 4.92369 0
M  V30 10042 C 968.704 3.38 5.09116 0
M  V30 10043 C 969.702 4.33216 5.28027 0
M  V30 10044 O 969.39 5.55036 5.81541 0
M  V30 10045 H 969.122 0.175799 0.652741 0
M  V30 10046 H 971.676 1.13265 1.71348 0
M  V30 10047 H 969.906 -0.254719 3.8586 0
M  V30 10048 H 971.595 0.113971 4.0574 0
M  V30 10049 H 972.361 2.5971 4.09604 0
M  V30 10050 H 968.24 1.40668 4.39014 0
M  V30 10051 H 971.784 4.79114 5.07046 0
M  V30 10052 H 967.681 3.59175 5.36343 0
M  V30 10053 H 968.449 5.56772 5.99956 0
M  V30 10054 N 971.112 -1.45937 0.595003 0
M  V30 10055 C 972.358 -2.0262 0.0854317 0
M  V30 10056 C 972.691 -1.46402 -1.27594 0
M  V30 10057 O 971.966 -0.633823 -1.83883 0
M  V30 10058 C 972.249 -3.60085 0.0329075 0
M  V30 10059 C 972.102 -4.26663 1.42405 0
M  V30 10060 C 973.421 -4.35101 -0.661426 0
M  V30 10061 H 970.54 -0.736282 0.0325196 0
M  V30 10062 H 973.182 -1.73938 0.764563 0
M  V30 10063 H 971.332 -3.84652 -0.545439 0
M  V30 10064 H 973.004 -4.13321 2.04851 0
M  V30 10065 H 971.247 -3.85549 1.98833 0
M  V30 10066 H 971.918 -5.35497 1.33965 0
M  V30 10067 H 974.394 -4.15753 -0.169977 0
M  V30 10068 H 973.27 -5.44829 -0.667243 0
M  V30 10069 H 973.531 -4.07053 -1.72513 0
M  V30 10070 N 972.59 -0.333456 -1.54032 0
M  V30 10071 C 974.001 0.15256 -1.86076 0
M  V30 10072 C 974.352 1.50819 -1.25492 0
M  V30 10073 O 973.477 2.08903 -0.564665 0
M  V30 10074 C 974.072 0.283599 -3.37611 0
M  V30 10075 C 972.631 0.713841 -3.69569 0
M  V30 10076 C 971.778 -0.158515 -2.76847 0
M  V30 10077 H 974.729 -0.553404 -1.48738 0
M  V30 10078 H 974.75 1.11284 -3.63863 0
M  V30 10079 H 974.262 -0.703193 -3.81676 0
M  V30 10080 H 972.363 1.71002 -3.31042 0
M  V30 10081 H 972.476 0.510731 -4.7637 0
M  V30 10082 H 970.84 0.367531 -2.52034 0
M  V30 10083 H 971.623 -1.14226 -3.2374 0
M  V30 10084 N 974.068 1.57479 -0.061844 0
M  V30 10085 C 975.016 2.13346 0.926629 0
M  V30 10086 C 976.01 1.06787 1.31502 0
M  V30 10087 O 977.216 1.25181 1.29343 0
M  V30 10088 H 973.591 0.682046 0.316729 0
M  V30 10089 H 975.562 2.95279 0.430424 0
M  V30 10090 C 974.311 2.70198 2.18834 0
M  V30 10091 H 973.634 3.51859 1.89829 0
M  V30 10092 H 975.074 3.12897 2.86132 0
M  V30 10093 C 973.533 1.64481 2.9402 0
M  V30 10094 O 974.063 1.0639 3.87355 0
M  V30 10095 N 972.269 1.35749 2.56944 0
M  V30 10096 H 971.816 1.83177 1.81119 0
M  V30 10097 H 971.774 0.652469 3.07555 0
M  V30 10098 N 975.546 -0.211634 1.56173 0
M  V30 10099 C 976.509 -1.24588 1.92381 0
M  V30 10100 C 977.509 -1.39297 0.803311 0
M  V30 10101 O 978.699 -1.37392 1.07094 0
M  V30 10102 C 975.831 -2.61807 2.18335 0
M  V30 10103 H 977.024 -0.936814 2.84893 0
M  V30 10104 H 974.577 -0.452471 1.49607 0
M  V30 10105 H 975.312 -2.97795 1.28407 0
M  V30 10106 H 975.097 -2.52506 2.99972 0
M  V30 10107 H 976.587 -3.3642 2.4741 0
M  V30 10108 N 977.024 -1.50153 -0.478725 0
M  V30 10109 C 977.954 -1.71384 -1.58587 0
M  V30 10110 C 978.935 -0.562705 -1.60523 0
M  V30 10111 O 980.12 -0.80101 -1.76911 0
M  V30 10112 C 977.25 -1.80094 -2.96957 0
M  V30 10113 C 976.204 -2.95218 -3.09888 0
M  V30 10114 C 975.53 -2.89063 -4.49829 0
M  V30 10115 C 976.83 -4.35841 -2.8782 0
M  V30 10116 H 978.524 -2.64081 -1.41073 0
M  V30 10117 H 976.07 -1.27081 -0.677239 0
M  V30 10118 H 978.023 -1.93531 -3.74331 0
M  V30 10119 H 976.747 -0.840131 -3.1561 0
M  V30 10120 H 975.406 -2.81419 -2.34944 0
M  V30 10121 H 975.054 -1.90844 -4.6539 0
M  V30 10122 H 974.754 -3.66345 -4.59418 0
M  V30 10123 H 976.278 -3.04539 -5.29234 0
M  V30 10124 H 977.692 -4.50205 -3.54948 0
M  V30 10125 H 976.089 -5.14515 -3.0886 0
M  V30 10126 H 977.159 -4.48739 -1.83742 0
M  V30 10127 N 978.502 0.731368 -1.39602 0
M  V30 10128 C 979.465 1.8271 -1.38383 0
M  V30 10129 C 980.465 1.58338 -0.280309 0
M  V30 10130 O 981.655 1.65671 -0.538402 0
M  V30 10131 C 978.787 3.20556 -1.16002 0
M  V30 10132 H 979.98 1.85193 -2.35889 0
M  V30 10133 H 977.533 0.935396 -1.2522 0
M  V30 10134 H 978.268 3.23732 -0.191927 0
M  V30 10135 H 978.053 3.39643 -1.9592 0
M  V30 10136 H 979.543 4.00612 -1.17899 0
M  V30 10137 N 979.98 1.24838 0.961938 0
M  V30 10138 C 980.912 1.00369 2.06055 0
M  V30 10139 C 981.925 -0.0288583 1.62774 0
M  V30 10140 O 983.114 0.208853 1.77274 0
M  V30 10141 C 980.214 0.493953 3.35281 0
M  V30 10142 C 979.387 1.59097 4.07439 0
M  V30 10143 C 978.446 1.08288 5.14937 0
M  V30 10144 O 977.472 1.77577 5.40791 0
M  V30 10145 N 978.674 -0.0796836 5.80445 0
M  V30 10146 H 981.439 1.94962 2.27618 0
M  V30 10147 H 979 1.15945 1.12997 0
M  V30 10148 H 980.992 0.138675 4.04462 0
M  V30 10149 H 979.562 -0.357851 3.10545 0
M  V30 10150 H 978.782 2.11817 3.32456 0
M  V30 10151 H 980.07 2.32817 4.52409 0
M  V30 10152 H 979.468 -0.658827 5.6185 0
M  V30 10153 H 978.025 -0.376057 6.50714 0
M  V30 10154 N 981.458 -1.16348 1.06306 0
M  V30 10155 C 982.406 -2.22799 0.668087 0
M  V30 10156 C 983.4 -1.66426 -0.316051 0
M  V30 10157 O 984.606 -1.79089 -0.180902 0
M  V30 10158 H 980.981 -0.725487 0.19792 0
M  V30 10159 H 982.952 -2.53401 1.57577 0
M  V30 10160 C 981.701 -3.47628 0.0706797 0
M  V30 10161 H 981.024 -3.9132 0.819064 0
M  V30 10162 H 982.464 -4.23666 -0.16816 0
M  V30 10163 C 980.923 -3.15343 -1.18577 0
M  V30 10164 O 981.453 -3.31158 -2.27371 0
M  V30 10165 N 979.659 -2.69472 -1.08779 0
M  V30 10166 H 979.206 -2.56803 -0.202447 0
M  V30 10167 H 979.164 -2.48244 -1.92931 0
M  V30 10168 N 982.937 -0.845659 -1.3299 0
M  V30 10169 C 984.185 -0.443774 -1.97168 0
M  V30 10170 C 984.506 1.00192 -1.67292 0
M  V30 10171 O 983.776 1.69891 -0.975397 0
M  V30 10172 H 982.356 -0.161111 -0.729419 0
M  V30 10173 H 985.018 -1.08011 -1.62233 0
M  V30 10174 H 984.114 -0.581414 -3.06637 0
M  V30 10175 N 984.415 1.45619 -0.602734 0
M  V30 10176 C 985.347 2.28662 0.157012 0
M  V30 10177 C 986.36 1.39672 0.836396 0
M  V30 10178 O 987.549 1.64091 0.702599 0
M  V30 10179 C 984.649 3.1528 1.24306 0
M  V30 10180 C 983.822 4.32517 0.651731 0
M  V30 10181 C 982.881 5.00381 1.62804 0
M  V30 10182 O 981.907 5.57333 1.15624 0
M  V30 10183 N 983.109 4.99221 2.96241 0
M  V30 10184 H 985.874 2.94506 -0.555535 0
M  V30 10185 H 983.435 1.55753 -0.441881 0
M  V30 10186 H 985.427 3.57544 1.8959 0
M  V30 10187 H 983.997 2.51376 1.85819 0
M  V30 10188 H 983.217 3.93793 -0.17907 0
M  V30 10189 H 984.505 5.08249 0.236802 0
M  V30 10190 H 983.903 4.54232 3.37179 0
M  V30 10191 H 982.46 5.45364 3.56961 0
M  V30 10192 N 985.893 0.34162 1.53853 0
M  V30 10193 C 986.825 -0.550383 2.22494 0
M  V30 10194 C 987.838 -1.0655 1.23089 0
M  V30 10195 O 989.027 -0.975985 1.49455 0
M  V30 10196 C 986.127 -1.76995 2.89009 0
M  V30 10197 C 985.3 -1.39045 4.14711 0
M  V30 10198 C 984.359 -2.46947 4.64654 0
M  V30 10199 O 983.385 -2.10336 5.28912 0
M  V30 10200 N 984.587 -3.7817 4.40418 0
M  V30 10201 H 987.352 0.037456 2.99677 0
M  V30 10202 H 984.913 0.165654 1.6105 0
M  V30 10203 H 986.905 -2.48608 3.19337 0
M  V30 10204 H 985.475 -2.2652 2.15424 0
M  V30 10205 H 984.695 -0.505161 3.9095 0
M  V30 10206 H 985.983 -1.11284 4.96481 0
M  V30 10207 H 985.381 -4.10704 3.89023 0
M  V30 10208 H 983.938 -4.45959 4.75356 0
M  V30 10209 N 987.371 -1.57444 0.0701946 0
M  V30 10210 C 988.303 -2.09611 -0.927142 0
M  V30 10211 C 989.316 -1.02791 -1.26245 0
M  V30 10212 O 990.505 -1.30309 -1.21992 0
M  V30 10213 C 987.605 -2.54015 -2.24342 0
M  V30 10214 C 986.778 -3.84389 -2.08719 0
M  V30 10215 C 985.837 -4.14904 -3.23638 0
M  V30 10216 O 984.863 -4.84528 -2.98699 0
M  V30 10217 N 986.065 -3.68322 -4.48686 0
M  V30 10218 H 988.83 -2.95803 -0.481753 0
M  V30 10219 H 986.391 -1.61487 -0.115572 0
M  V30 10220 H 988.383 -2.71492 -3.00124 0
M  V30 10221 H 986.953 -1.72969 -2.60385 0
M  V30 10222 H 986.173 -3.76308 -1.17415 0
M  V30 10223 H 987.461 -4.69729 -1.9553 0
M  V30 10224 H 986.859 -3.12073 -4.71834 0
M  V30 10225 H 985.416 -3.91002 -5.21499 0
M  V30 10226 N 988.849 0.203349 -1.56283 0
M  V30 10227 C 990.26 0.768764 -1.70138 0
M  V30 10228 C 990.611 1.8421 -0.675358 0
M  V30 10229 O 989.736 2.15732 0.1699 0
M  V30 10230 C 990.331 1.40123 -3.08466 0
M  V30 10231 C 988.89 1.91382 -3.24114 0
M  V30 10232 C 988.037 0.780685 -2.66084 0
M  V30 10233 H 990.988 -0.0215997 -1.58685 0
M  V30 10234 H 991.009 2.27046 -3.05336 0
M  V30 10235 H 990.521 0.619805 -3.83119 0
M  V30 10236 H 988.622 2.7227 -2.54362 0
M  V30 10237 H 988.735 2.08128 -4.31531 0
M  V30 10238 H 987.099 1.19281 -2.25042 0
M  V30 10239 H 987.882 0.0116351 -3.43298 0
M  V30 10240 N 990.327 1.50405 0.470755 0
M  V30 10241 C 991.275 1.6982 1.58946 0
M  V30 10242 C 992.269 0.56407 1.59733 0
M  V30 10243 O 993.475 0.744576 1.63878 0
M  V30 10244 H 989.85 0.536016 0.527438 0
M  V30 10245 H 991.821 2.63662 1.39732 0
M  V30 10246 C 990.57 1.80986 2.96883 0
M  V30 10247 H 989.893 2.67645 2.96996 0
M  V30 10248 H 991.333 1.98596 3.74614 0
M  V30 10249 C 989.792 0.561551 3.32187 0
M  V30 10250 O 990.322 -0.299136 4.00585 0
M  V30 10251 N 988.528 0.415476 2.87615 0
M  V30 10252 H 988.075 1.11691 2.32127 0
M  V30 10253 H 988.033 -0.418592 3.11601 0
M  V30 10254 N 991.805 -0.723954 1.39988 0
M  V30 10255 C 992.735 -1.85103 1.42335 0
M  V30 10256 C 993.716 -1.6769 0.285297 0
M  V30 10257 O 994.901 -1.87846 0.492716 0
M  V30 10258 C 992.031 -3.22972 1.27697 0
M  V30 10259 C 990.985 -3.55041 2.39018 0
M  V30 10260 C 990.311 -4.91965 2.09462 0
M  V30 10261 C 991.611 -3.56889 3.8135 0
M  V30 10262 H 993.305 -1.83396 2.36656 0
M  V30 10263 H 990.851 -0.880926 1.13911 0
M  V30 10264 H 992.804 -4.01503 1.27958 0
M  V30 10265 H 991.528 -3.25233 0.298487 0
M  V30 10266 H 990.187 -2.78845 2.37993 0
M  V30 10267 H 989.835 -4.90819 1.10025 0
M  V30 10268 H 989.535 -5.14389 2.84038 0
M  V30 10269 H 991.059 -5.7284 2.11391 0
M  V30 10270 H 992.473 -4.25476 3.84243 0
M  V30 10271 H 990.87 -3.90836 4.55376 0
M  V30 10272 H 991.94 -2.56452 4.11534 0
M  V30 10273 N 993.283 -1.25346 -0.955304 0
M  V30 10274 C 994.231 -1.05461 -2.07318 0
M  V30 10275 C 995.225 0.0142699 -1.69394 0
M  V30 10276 O 996.431 -0.141292 -1.79445 0
M  V30 10277 H 992.806 -0.324095 -0.678577 0
M  V30 10278 H 994.777 -2.00231 -2.21247 0
M  V30 10279 C 993.526 -0.689329 -3.40798 0
M  V30 10280 H 992.849 -1.50362 -3.70447 0
M  V30 10281 H 994.289 -0.589883 -4.19877 0
M  V30 10282 C 992.748 0.604556 -3.31431 0
M  V30 10283 O 993.278 1.64686 -3.6639 0
M  V30 10284 N 991.484 0.589927 -2.84549 0
M  V30 10285 H 991.031 -0.258647 -2.56298 0
M  V30 10286 H 990.989 1.4558 -2.78664 0
M  V30 10287 N 994.761 1.15782 -1.06922 0
M  V30 10288 C 995.724 2.18578 -0.689654 0
M  V30 10289 C 996.724 1.58553 0.267872 0
M  V30 10290 O 997.914 1.7413 0.0494097 0
M  V30 10291 C 995.046 3.40896 -0.0157919 0
M  V30 10292 H 996.239 2.53672 -1.59971 0
M  V30 10293 H 993.792 1.30168 -0.865214 0
M  V30 10294 H 994.527 3.11367 0.906712 0
M  V30 10295 H 994.312 3.85721 -0.704415 0
M  V30 10296 H 995.802 4.16937 0.235266 0
M  V30 10297 N 996.239 0.8527 1.3254 0
M  V30 10298 C 997.202 0.300959 2.27215 0
M  V30 10299 C 998.202 -0.538235 1.51525 0
M  V30 10300 O 999.392 -0.350027 1.70647 0
M  V30 10301 C 996.524 -0.574428 3.36025 0
M  V30 10302 H 997.717 1.13655 2.77529 0
M  V30 10303 H 995.27 0.626878 1.43178 0
M  V30 10304 H 996.005 -1.43191 2.90976 0
M  V30 10305 H 995.79 0.0262265 3.92091 0
M  V30 10306 H 997.28 -0.9533 4.06573 0
M  V30 10307 N 997.718 -1.45297 0.610449 0
M  V30 10308 C 998.966 -2.01819 0.106548 0
M  V30 10309 C 999.287 -1.48102 -1.26849 0
M  V30 10310 O 998.557 -0.676411 -1.83852 0
M  V30 10311 H 997.137 -0.746113 0.0363982 0
M  V30 10312 H 999.799 -1.78061 0.792491 0
M  V30 10313 H 998.895 -3.12045 0.0585 0
M  V30 10314 N 999.196 -0.349774 -1.5367 0
M  V30 10315 C 1000.13 0.538575 -2.22782 0
M  V30 10316 C 1001.14 1.05896 -1.23652 0
M  V30 10317 O 1002.33 0.968045 -1.4997 0
M  V30 10318 C 999.43 1.7546 -2.89943 0
M  V30 10319 C 998.603 1.36843 -4.15443 0
M  V30 10320 C 997.662 2.4448 -4.65957 0
M  V30 10321 O 996.688 2.07528 -5.3002 0
M  V30 10322 N 997.89 3.75829 -4.42417 0
M  V30 10323 H 1000.65 -0.053348 -2.99653 0
M  V30 10324 H 998.216 -0.174193 -1.6096 0
M  V30 10325 H 1000.21 2.46911 -3.20651 0
M  V30 10326 H 998.778 2.25375 -2.16622 0
M  V30 10327 H 997.998 0.484421 -3.91212 0
M  V30 10328 H 999.286 1.0865 -4.97064 0
M  V30 10329 H 998.684 4.08635 -3.91196 0
M  V30 10330 H 997.241 4.43432 -4.77714 0
M  V30 10331 N 1000.67 1.57404 -0.0785433 0
M  V30 10332 C 1001.62 2.09632 0.896565 0
M  V30 10333 C 1002.61 1.00754 1.25449 0
M  V30 10334 O 1003.8 1.27053 1.23234 0
M  V30 10335 C 1000.93 2.66694 2.16169 0
M  V30 10336 C 1000.01 3.82588 1.82994 0
M  V30 10337 N 1000.41 4.91286 1.203 0
M  V30 10338 C 998.704 3.92011 2.12704 0
M  V30 10339 C 999.405 5.72077 1.05367 0
M  V30 10340 N 998.381 5.20567 1.56559 0
M  V30 10341 H 1002.18 2.9106 0.407621 0
M  V30 10342 H 999.697 1.61917 0.125155 0
M  V30 10343 H 1001.69 3.0243 2.86952 0
M  V30 10344 H 1000.35 1.86716 2.65645 0
M  V30 10345 H 1001.36 5.10509 0.871817 0
M  V30 10346 H 998.042 3.23018 2.6451 0
M  V30 10347 H 999.432 6.69523 0.564685 0
M  V30 10348 N 1002.15 -0.195058 1.56388 0
M  V30 10349 C 1003.1 -1.26122 1.95438 0
M  V30 10350 C 1004.09 -1.47117 0.839818 0
M  V30 10351 O 1005.3 -1.47978 1.02482 0
M  V30 10352 H 1001.67 -0.423422 0.621464 0
M  V30 10353 H 1003.65 -0.904854 2.8435 0
M  V30 10354 C 1002.39 -2.59858 2.31017 0
M  V30 10355 H 1001.72 -2.44519 3.16308 0
M  V30 10356 H 1003.16 -3.33205 2.62203 0
M  V30 10357 C 1001.62 -3.16853 1.14481 0
M  V30 10358 O 1002.15 -3.995 0.419853 0
M  V30 10359 N 1000.35 -2.75599 0.921604 0
M  V30 10360 H 999.9 -2.08495 1.51287 0
M  V30 10361 H 999.858 -3.14072 0.143663 0
M  V30 10362 N 1003.63 -1.50653 -0.462772 0
M  V30 10363 C 1004.59 -1.69561 -1.54213 0
M  V30 10364 C 1005.59 -0.566106 -1.50505 0
M  V30 10365 O 1006.78 -0.833273 -1.52978 0
M  V30 10366 C 1003.91 -1.72856 -2.93826 0
M  V30 10367 H 1005.11 -2.65867 -1.38761 0
M  V30 10368 H 1002.66 -1.40259 -0.689728 0
M  V30 10369 H 1003.4 -0.78273 -3.14712 0
M  V30 10370 H 1003.18 -2.54919 -2.97924 0
M  V30 10371 H 1004.67 -1.89411 -3.72174 0
M  V30 10372 N 1005.11 0.71652 -1.4037 0
M  V30 10373 C 1006.04 1.84138 -1.36477 0
M  V30 10374 C 1007.05 1.6054 -0.27033 0
M  V30 10375 O 1008.24 1.70431 -0.530612 0
M  V30 10376 C 1005.34 3.20523 -1.10082 0
M  V30 10377 C 1004.52 3.71326 -2.31162 0
M  V30 10378 C 1003.57 4.86322 -2.00942 0
M  V30 10379 O 1002.6 4.99022 -2.73799 0
M  V30 10380 N 1003.8 5.72051 -0.986812 0
M  V30 10381 H 1006.57 1.87977 -2.3342 0
M  V30 10382 H 1004.13 0.89802 -1.34712 0
M  V30 10383 H 1006.12 3.95049 -0.878526 0
M  V30 10384 H 1004.69 3.11838 -0.21809 0
M  V30 10385 H 1003.91 2.87941 -2.69227 0
M  V30 10386 H 1005.2 4.02003 -3.11883 0
M  V30 10387 H 1004.6 5.64399 -0.383381 0
M  V30 10388 H 1003.15 6.46565 -0.824419 0
M  V30 10389 N 1006.59 1.25851 0.948643 0
M  V30 10390 C 1007.52 1.02549 2.04979 0
M  V30 10391 C 1008.53 -0.0115923 1.62796 0
M  V30 10392 O 1009.72 0.227643 1.77042 0
M  V30 10393 C 1006.82 0.529486 3.34738 0
M  V30 10394 C 1005.99 1.6341 4.05729 0
M  V30 10395 C 1005.05 1.13743 5.1376 0
M  V30 10396 O 1004.08 1.83303 5.38877 0
M  V30 10397 N 1005.28 -0.0181151 5.80497 0
M  V30 10398 H 1008.05 1.97365 2.25537 0
M  V30 10399 H 1005.61 1.17137 1.11761 0
M  V30 10400 H 1007.6 0.181566 4.04293 0
M  V30 10401 H 1006.17 -0.324893 3.10907 0
M  V30 10402 H 1005.39 2.15331 3.30191 0
M  V30 10403 H 1006.68 2.37603 4.49914 0
M  V30 10404 H 1006.07 -0.599198 5.62518 0
M  V30 10405 H 1004.63 -0.307019 6.51077 0
M  V30 10406 N 1008.06 -1.15214 1.07534 0
M  V30 10407 C 1008.99 -2.2216 0.718837 0
M  V30 10408 C 1009.98 -1.6753 -0.29459 0
M  V30 10409 O 1011.16 -1.93481 -0.166931 0
M  V30 10410 C 1008.29 -3.471 0.117836 0
M  V30 10411 C 1007.24 -4.14701 1.05862 0
M  V30 10412 C 1006.57 -5.3374 0.320284 0
M  V30 10413 C 1007.87 -4.64254 2.39302 0
M  V30 10414 H 1009.56 -2.52237 1.61297 0
M  V30 10415 H 1007.11 -1.21239 0.776992 0
M  V30 10416 H 1009.06 -4.21156 -0.143519 0
M  V30 10417 H 1007.79 -3.16361 -0.811389 0
M  V30 10418 H 1006.45 -3.42589 1.30493 0
M  V30 10419 H 1006.09 -4.99257 -0.61246 0
M  V30 10420 H 1005.79 -5.79912 0.947381 0
M  V30 10421 H 1007.32 -6.10563 0.0667721 0
M  V30 10422 H 1008.73 -5.29827 2.18988 0
M  V30 10423 H 1007.13 -5.21095 2.97623 0
M  V30 10424 H 1008.2 -3.79793 3.01472 0
M  V30 10425 N 1009.54 -0.859717 -1.32086 0
M  V30 10426 C 1010.47 -0.265258 -2.2766 0
M  V30 10427 C 1011.49 0.565889 -1.52648 0
M  V30 10428 O 1012.68 0.389554 -1.74197 0
M  V30 10429 C 1009.78 0.643397 -3.32737 0
M  V30 10430 C 1008.95 -0.153024 -4.37132 0
M  V30 10431 C 1008.01 0.682176 -5.21759 0
M  V30 10432 O 1007.03 0.113878 -5.69086 0
M  V30 10433 N 1008.24 1.99602 -5.45105 0
M  V30 10434 H 1011 -1.08653 -2.79311 0
M  V30 10435 H 1008.56 -0.720191 -1.45 0
M  V30 10436 H 1010.55 1.20759 -3.86263 0
M  V30 10437 H 1009.12 1.36535 -2.81206 0
M  V30 10438 H 1008.34 -0.898657 -3.8382 0
M  V30 10439 H 1009.63 -0.699877 -5.03963 0
M  V30 10440 H 1009.03 2.481 -5.08393 0
M  V30 10441 H 1007.59 2.50823 -6.01607 0
M  V30 10442 N 1011.02 1.44971 -0.618145 0
M  V30 10443 C 1011.95 2.28815 0.132751 0
M  V30 10444 C 1012.97 1.40551 0.821535 0
M  V30 10445 O 1014.15 1.64827 0.685155 0
M  V30 10446 C 1011.25 3.1658 1.20955 0
M  V30 10447 C 1010.43 4.33184 0.605821 0
M  V30 10448 C 1009.49 5.0208 1.57488 0
M  V30 10449 O 1008.51 5.58528 1.09706 0
M  V30 10450 N 1009.71 5.02335 2.9093 0
M  V30 10451 H 1012.48 2.939 -0.58674 0
M  V30 10452 H 1010.04 1.55276 -0.458375 0
M  V30 10453 H 1012.03 3.59535 1.85787 0
M  V30 10454 H 1010.6 2.53333 1.83143 0
M  V30 10455 H 1009.82 3.93581 -0.220827 0
M  V30 10456 H 1011.11 5.08471 0.182883 0
M  V30 10457 H 1010.51 4.57783 3.32342 0
M  V30 10458 H 1009.07 5.49119 3.51157 0
M  V30 10459 N 1012.5 0.357919 1.53482 0
M  V30 10460 C 1013.43 -0.526753 2.23065 0
M  V30 10461 C 1014.44 -1.05239 1.24212 0
M  V30 10462 O 1015.63 -0.960078 1.50482 0
M  V30 10463 C 1012.73 -1.73919 2.9087 0
M  V30 10464 C 1011.91 -1.34638 4.16163 0
M  V30 10465 C 1010.96 -2.42005 4.67247 0
M  V30 10466 O 1009.99 -2.04714 5.31113 0
M  V30 10467 N 1011.19 -3.73478 4.44404 0
M  V30 10468 H 1013.96 0.0692386 2.9962 0
M  V30 10469 H 1011.52 0.182726 1.60866 0
M  V30 10470 H 1013.51 -2.45207 3.21956 0
M  V30 10471 H 1012.08 -2.24223 2.17814 0
M  V30 10472 H 1011.3 -0.463667 3.91464 0
M  V30 10473 H 1012.59 -1.06012 4.97633 0
M  V30 10474 H 1011.99 -4.06555 3.93357 0
M  V30 10475 H 1010.54 -4.40893 4.80059 0
M  V30 10476 N 1013.98 -1.5736 0.0868897 0
M  V30 10477 C 1015.22 -1.9367 -0.577598 0
M  V30 10478 C 1015.55 -0.968844 -1.69229 0
M  V30 10479 O 1014.82 -0.0195061 -1.9589 0
M  V30 10480 H 1013.4 -0.714983 -0.216353 0
M  V30 10481 H 1016.06 -1.94335 0.148294 0
M  V30 10482 H 1015.15 -2.95877 -0.993128 0
M  V30 10483 N 1015.45 0.186762 -1.56489 0
M  V30 10484 C 1016.4 1.25084 -1.96104 0
M  V30 10485 C 1017.4 1.4667 -0.847609 0
M  V30 10486 O 1018.6 1.47432 -1.03266 0
M  V30 10487 H 1014.98 0.420121 -0.623701 0
M  V30 10488 H 1016.95 0.889761 -2.84826 0
M  V30 10489 C 1015.7 2.5863 -2.32392 0
M  V30 10490 H 1015.02 2.42838 -3.176 0
M  V30 10491 H 1016.46 3.3181 -2.63967 0
M  V30 10492 C 1014.92 3.16241 -1.16159 0
M  V30 10493 O 1015.45 3.99272 -0.441034 0
M  V30 10494 N 1013.66 2.75106 -0.936206 0
M  V30 10495 H 1013.2 2.0769 -1.5239 0
M  V30 10496 H 1013.16 3.13991 -0.160317 0
M  V30 10497 N 1016.93 1.50896 0.454776 0
M  V30 10498 C 1017.88 1.71497 1.57136 0
M  V30 10499 C 1018.87 0.58098 1.59126 0
M  V30 10500 O 1020.08 0.761916 1.63079 0
M  V30 10501 H 1016.46 0.54158 0.521724 0
M  V30 10502 H 1018.43 2.65129 1.36928 0
M  V30 10503 C 1017.18 1.84125 2.94947 0
M  V30 10504 H 1016.5 2.7078 2.9414 0
M  V30 10505 H 1017.94 2.02558 3.72487 0
M  V30 10506 C 1016.4 0.596752 3.31573 0
M  V30 10507 O 1016.93 -0.256632 4.00879 0
M  V30 10508 N 1015.13 0.445958 2.87158 0
M  V30 10509 H 1014.68 1.14146 2.30929 0
M  V30 10510 H 1014.64 -0.385519 3.12027 0
M  V30 10511 N 1018.41 -0.709066 1.40748 0
M  V30 10512 C 1019.34 -1.83412 1.37451 0
M  V30 10513 C 1020.36 -1.60394 0.27884 0
M  V30 10514 O 1021.54 -1.70147 0.539642 0
M  V30 10515 C 1018.64 -3.19935 1.1178 0
M  V30 10516 C 1017.82 -3.70095 2.33128 0
M  V30 10517 C 1016.88 -4.85249 2.03518 0
M  V30 10518 O 1015.9 -4.97563 2.76442 0
M  V30 10519 N 1017.1 -5.7152 1.01714 0
M  V30 10520 H 1019.87 -1.86736 2.34414 0
M  V30 10521 H 1017.43 -0.890863 1.35186 0
M  V30 10522 H 1019.42 -3.94578 0.899464 0
M  V30 10523 H 1017.99 -3.11718 0.234624 0
M  V30 10524 H 1017.21 -2.8651 2.70751 0
M  V30 10525 H 1018.5 -4.00344 3.1401 0
M  V30 10526 H 1017.9 -5.64188 0.413307 0
M  V30 10527 H 1016.46 -6.46119 0.858696 0
M  V30 10528 N 1019.89 -1.26353 -0.941956 0
M  V30 10529 C 1020.82 -1.10341 -2.05784 0
M  V30 10530 C 1021.8 -0.00881565 -1.70098 0
M  V30 10531 O 1022.99 -0.180699 -1.93357 0
M  V30 10532 C 1020.12 -0.734788 -3.39438 0
M  V30 10533 C 1019.07 -1.78103 -3.89183 0
M  V30 10534 C 1018.4 -1.26675 -5.19478 0
M  V30 10535 C 1019.7 -3.1824 -4.14151 0
M  V30 10536 H 1021.39 -2.03684 -2.19438 0
M  V30 10537 H 1018.94 -0.980698 -1.05443 0
M  V30 10538 H 1020.89 -0.609653 -4.16967 0
M  V30 10539 H 1019.61 0.234354 -3.25758 0
M  V30 10540 H 1018.27 -1.89482 -3.13835 0
M  V30 10541 H 1017.92 -0.287472 -5.02178 0
M  V30 10542 H 1017.62 -1.96612 -5.53731 0
M  V30 10543 H 1019.14 -1.15427 -5.99591 0
M  V30 10544 H 1020.56 -3.09942 -4.82296 0
M  V30 10545 H 1018.95 -3.8576 -4.59684 0
M  V30 10546 H 1020.02 -3.64354 -3.19959 0
M  V30 10547 N 1021.37 1.14642 -1.08144 0
M  V30 10548 C 1022.3 2.21775 -0.730609 0
M  V30 10549 C 1023.28 1.67683 0.285702 0
M  V30 10550 O 1024.46 1.93567 0.156667 0
M  V30 10551 C 1021.59 3.47033 -0.136242 0
M  V30 10552 C 1020.55 4.14134 -1.0806 0
M  V30 10553 C 1019.87 5.33563 -0.348585 0
M  V30 10554 C 1021.17 4.62978 -2.41761 0
M  V30 10555 H 1022.87 2.51378 -1.62633 0
M  V30 10556 H 1020.41 1.20825 -0.783411 0
M  V30 10557 H 1022.37 4.21226 0.121182 0
M  V30 10558 H 1021.09 3.16786 0.7946 0
M  V30 10559 H 1019.75 3.41892 -1.32308 0
M  V30 10560 H 1019.4 4.99575 0.585974 0
M  V30 10561 H 1019.1 5.79402 -0.978122 0
M  V30 10562 H 1020.62 6.10519 -0.0991508 0
M  V30 10563 H 1022.04 5.28659 -2.21795 0
M  V30 10564 H 1020.43 5.1951 -3.00383 0
M  V30 10565 H 1021.5 3.78189 -3.03482 0
M  V30 10566 N 1022.85 0.866709 1.31628 0
M  V30 10567 C 1023.79 0.309128 2.30537 0
M  V30 10568 C 1024.79 -0.574028 1.59378 0
M  V30 10569 O 1025.99 -0.460491 1.7401 0
M  V30 10570 H 1022.37 0.081279 0.747595 0
M  V30 10571 H 1024.34 1.15734 2.75042 0
M  V30 10572 C 1023.09 -0.477287 3.44409 0
M  V30 10573 H 1022.41 0.19301 3.99334 0
M  V30 10574 H 1023.85 -0.832818 4.1574 0
M  V30 10575 C 1022.31 -1.66727 2.92752 0
M  V30 10576 O 1022.84 -2.76654 2.91248 0
M  V30 10577 N 1021.05 -1.49833 2.48995 0
M  V30 10578 H 1020.59 -0.604073 2.50417 0
M  V30 10579 H 1020.55 -2.29594 2.14788 0
M  V30 10580 N 1024.32 -1.44642 0.625825 0
M  V30 10581 C 1025.27 -2.32408 -0.0945221 0
M  V30 10582 C 1026.27 -1.47038 -0.841198 0
M  V30 10583 O 1027.47 -1.63415 -0.754698 0
M  V30 10584 H 1023.85 -0.75038 -0.0493321 0
M  V30 10585 H 1025.82 -2.90922 0.663863 0
M  V30 10586 C 1024.57 -3.30951 -1.06615 0
M  V30 10587 H 1023.89 -3.96648 -0.501021 0
M  V30 10588 H 1025.33 -3.95054 -1.53976 0
M  V30 10589 C 1023.79 -2.59479 -2.14877 0
M  V30 10590 O 1024.32 -2.38974 -3.22885 0
M  V30 10591 N 1022.52 -2.19307 -1.90665 0
M  V30 10592 H 1022.07 -2.36184 -1.02835 0
M  V30 10593 H 1022.03 -1.71811 -2.63303 0
M  V30 10594 N 1025.8 -0.366053 -1.5329 0
M  V30 10595 C 1026.75 0.495319 -2.27265 0
M  V30 10596 C 1027.74 1.08298 -1.30261 0
M  V30 10597 O 1028.95 1.02613 -1.47887 0
M  V30 10598 H 1025.32 0.178454 -0.730519 0
M  V30 10599 H 1027.3 -0.150354 -2.98021 0
M  V30 10600 C 1026.04 1.62283 -3.07505 0
M  V30 10601 H 1025.37 1.17993 -3.81992 0
M  V30 10602 H 1026.81 2.20024 -3.62444 0
M  V30 10603 C 1025.27 2.56542 -2.18375 0
M  V30 10604 O 1025.8 3.59371 -1.79486 0
M  V30 10605 N 1024 2.25742 -1.82999 0
M  V30 10606 H 1023.55 1.42159 -2.14822 0
M  V30 10607 H 1023.51 2.89064 -1.2365 0
M  V30 10608 N 1027.28 1.57312 -0.0952337 0
M  V30 10609 C 1028.21 2.09691 0.900274 0
M  V30 10610 C 1029.19 1.0075 1.27625 0
M  V30 10611 O 1030.37 1.28249 1.38147 0
M  V30 10612 C 1027.5 2.574 2.20142 0
M  V30 10613 C 1026.55 3.78 1.9753 0
M  V30 10614 S 1027.38 5.21577 1.21318 0
M  V30 10615 C 1028.54 5.72636 2.52663 0
M  V30 10616 H 1028.77 2.93803 0.45467 0
M  V30 10617 H 1026.3 1.53948 0.118056 0
M  V30 10618 H 1028.26 2.85546 2.94914 0
M  V30 10619 H 1026.92 1.73514 2.61824 0
M  V30 10620 H 1026.11 4.09451 2.93881 0
M  V30 10621 H 1025.72 3.50349 1.30888 0
M  V30 10622 H 1028.01 5.80911 3.48638 0
M  V30 10623 H 1028.95 6.71136 2.25791 0
M  V30 10624 H 1029.36 5.00569 2.60943 0
M  V30 10625 N 1028.76 -0.17846 1.56586 0
M  V30 10626 C 1030.17 -0.529957 1.50544 0
M  V30 10627 C 1030.37 -1.85015 0.798237 0
M  V30 10628 O 1029.43 -2.49983 0.355639 0
M  V30 10629 C 1030.74 -0.569314 2.95261 0
M  V30 10630 C 1032.29 -0.657008 3.06027 0
M  V30 10631 C 1032.77 -0.727323 4.52188 0
M  V30 10632 N 1034.26 -0.790406 4.56406 0
M  V30 10633 C 1034.99 -0.865265 5.66834 0
M  V30 10634 N 1034.49 -0.901398 6.86911 0
M  V30 10635 N 1036.28 -0.903736 5.54787 0
M  V30 10636 H 1028.43 0.687304 2.00972 0
M  V30 10637 H 1030.69 0.246936 0.915274 0
M  V30 10638 H 1030.4 0.331934 3.5013 0
M  V30 10639 H 1030.27 -1.41828 3.4952 0
M  V30 10640 H 1032.66 -1.54868 2.51197 0
M  V30 10641 H 1032.74 0.218495 2.54865 0
M  V30 10642 H 1032.39 0.160067 5.07648 0
M  V30 10643 H 1032.32 -1.61887 5.01099 0
M  V30 10644 H 1034.81 -0.771054 3.6995 0
M  V30 10645 H 1035.12 -0.959494 7.6682 0
M  V30 10646 H 1033.47 -0.869795 6.89536 0
M  V30 10647 H 1036.66 -0.872459 4.59898 0
M  V30 10648 H 1036.83 -0.958615 6.4087 0
M  V30 10649 N 1030.24 -1.51135 -0.446768 0
M  V30 10650 C 1031.18 -1.72328 -1.56224 0
M  V30 10651 C 1032.18 -0.589411 -1.58815 0
M  V30 10652 O 1033.38 -0.770554 -1.62673 0
M  V30 10653 H 1029.76 -0.544339 -0.518844 0
M  V30 10654 H 1031.73 -2.65851 -1.3552 0
M  V30 10655 C 1030.48 -1.85686 -2.93966 0
M  V30 10656 H 1029.8 -2.72336 -2.927 0
M  V30 10657 H 1031.24 -2.0453 -3.71407 0
M  V30 10658 C 1029.7 -0.614328 -3.31252 0
M  V30 10659 O 1030.23 0.235369 -4.0101 0
M  V30 10660 N 1028.44 -0.461181 -2.86917 0
M  V30 10661 H 1027.98 -1.15369 -2.30321 0
M  V30 10662 H 1027.94 0.368966 -3.12227 0
M  V30 10663 N 1031.71 0.701592 -1.41122 0
M  V30 10664 C 1032.65 1.8257 -1.36907 0
M  V30 10665 C 1033.62 1.6086 -0.237245 0
M  V30 10666 O 1034.81 1.83688 -0.423182 0
M  V30 10667 C 1031.94 3.19149 -1.13408 0
M  V30 10668 C 1030.98 3.59661 -2.29229 0
M  V30 10669 S 1031.81 3.65161 -3.91685 0
M  V30 10670 C 1032.97 5.04477 -3.70478 0
M  V30 10671 H 1033.2 1.85867 -2.32036 0
M  V30 10672 H 1030.74 0.869726 -1.27574 0
M  V30 10673 H 1032.69 3.97998 -1.00537 0
M  V30 10674 H 1031.36 3.13468 -0.199099 0
M  V30 10675 H 1030.55 4.58866 -2.08466 0
M  V30 10676 H 1030.15 2.88105 -2.38477 0
M  V30 10677 H 1032.44 5.91803 -3.29811 0
M  V30 10678 H 1033.39 5.3028 -4.69264 0
M  V30 10679 H 1033.79 4.75731 -3.03876 0
M  V30 10680 N 1033.19 1.2685 0.935242 0
M  V30 10681 C 1034.14 1.08746 2.05614 0
M  V30 10682 C 1035.13 0.012681 1.69395 0
M  V30 10683 O 1036.34 0.169822 1.79197 0
M  V30 10684 H 1032.71 0.33485 0.673335 0
M  V30 10685 H 1034.69 2.03725 2.18033 0
M  V30 10686 C 1033.43 0.74346 3.39659 0
M  V30 10687 H 1032.76 1.56236 3.68008 0
M  V30 10688 H 1034.2 0.656607 4.18885 0
M  V30 10689 C 1032.66 -0.551751 3.32351 0
M  V30 10690 O 1033.19 -1.58836 3.68963 0
M  V30 10691 N 1031.39 -0.544583 2.85452 0
M  V30 10692 H 1030.94 0.29939 2.55854 0
M  V30 10693 H 1030.9 -1.41129 2.80945 0
M  V30 10694 N 1034.67 -1.14067 1.0875 0
M  V30 10695 C 1035.62 -2.21332 0.715195 0
M  V30 10696 C 1036.61 -1.67059 -0.280679 0
M  V30 10697 O 1037.82 -1.79432 -0.142874 0
M  V30 10698 H 1034.19 -0.721126 0.213264 0
M  V30 10699 H 1036.16 -2.50002 1.62916 0
M  V30 10700 C 1034.91 -3.474 0.144401 0
M  V30 10701 H 1034.24 -3.89495 0.901884 0
M  V30 10702 H 1035.68 -4.23928 -0.0782564 0
M  V30 10703 C 1034.14 -3.17787 -1.11862 0
M  V30 10704 O 1034.67 -3.35906 -2.20295 0
M  V30 10705 N 1032.87 -2.71719 -1.03039 0
M  V30 10706 H 1032.42 -2.57175 -0.14793 0
M  V30 10707 H 1032.38 -2.52281 -1.87621 0
M  V30 10708 N 1036.15 -0.873678 -1.31166 0
M  V30 10709 C 1037.56 -0.566109 -1.49223 0
M  V30 10710 C 1037.76 0.898889 -1.80339 0
M  V30 10711 O 1036.82 1.68084 -1.88425 0
M  V30 10712 C 1038.13 -1.46952 -2.62346 0
M  V30 10713 C 1039.68 -1.47195 -2.76229 0
M  V30 10714 C 1040.16 -2.36102 -3.92454 0
M  V30 10715 N 1041.65 -2.34003 -3.99746 0
M  V30 10716 C 1042.38 -2.99513 -4.88958 0
M  V30 10717 N 1041.88 -3.74206 -5.83045 0
M  V30 10718 N 1043.67 -2.88802 -4.82234 0
M  V30 10719 H 1035.82 -1.82156 -1.09239 0
M  V30 10720 H 1038.09 -0.779086 -0.54012 0
M  V30 10721 H 1037.79 -2.51213 -2.4614 0
M  V30 10722 H 1037.67 -1.17077 -3.5857 0
M  V30 10723 H 1040.05 -0.436902 -2.91848 0
M  V30 10724 H 1040.13 -1.81095 -1.80661 0
M  V30 10725 H 1039.78 -3.39685 -3.77593 0
M  V30 10726 H 1039.71 -1.99524 -4.87337 0
M  V30 10727 H 1042.2 -1.79713 -3.32433 0
M  V30 10728 H 1042.51 -4.21312 -6.47855 0
M  V30 10729 H 1040.86 -3.78314 -5.83012 0
M  V30 10730 H 1044.05 -2.29984 -4.07707 0
M  V30 10731 H 1044.22 -3.40136 -5.51554 0
M  V30 10732 N 1037.63 1.44308 -0.633487 0
M  V30 10733 C 1038.59 2.2912 0.060376 0
M  V30 10734 C 1039.59 1.41166 0.769992 0
M  V30 10735 O 1040.78 1.63012 0.614224 0
M  V30 10736 C 1037.91 3.22798 1.0961 0
M  V30 10737 H 1039.1 2.91958 -0.685617 0
M  V30 10738 H 1036.66 1.51259 -0.393738 0
M  V30 10739 H 1037.39 2.64815 1.87199 0
M  V30 10740 H 1037.18 3.87618 0.591161 0
M  V30 10741 H 1038.67 3.86504 1.58127 0
M  V30 10742 N 1039.1 0.374177 1.53094 0
M  V30 10743 C 1040.05 -0.48326 2.27524 0
M  V30 10744 C 1041.05 -1.07606 1.30833 0
M  V30 10745 O 1042.25 -1.01827 1.48429 0
M  V30 10746 H 1038.63 -0.174578 0.731455 0
M  V30 10747 H 1040.6 0.166156 2.97937 0
M  V30 10748 C 1039.35 -1.6065 3.08362 0
M  V30 10749 H 1038.67 -1.15966 3.82612 0
M  V30 10750 H 1040.11 -2.18099 3.63606 0
M  V30 10751 C 1038.57 -2.55381 2.19732 0
M  V30 10752 O 1039.1 -3.58414 1.8139 0
M  V30 10753 N 1037.31 -2.24769 1.84194 0
M  V30 10754 H 1036.85 -1.41018 2.15573 0
M  V30 10755 H 1036.81 -2.88404 1.25181 0
M  V30 10756 N 1040.58 -1.57259 0.103575 0
M  V30 10757 C 1042 -1.57581 -0.253062 0
M  V30 10758 C 1042.2 -1.11531 -1.67819 0
M  V30 10759 O 1041.25 -0.795632 -2.39637 0
M  V30 10760 C 1042.57 -3.00681 -0.0337753 0
M  V30 10761 C 1044.12 -3.12837 -0.10087 0
M  V30 10762 C 1044.59 -4.57911 0.0905295 0
M  V30 10763 N 1046.08 -4.63186 0.0359789 0
M  V30 10764 C 1046.82 -5.73179 0.159199 0
M  V30 10765 N 1046.31 -6.91976 0.337728 0
M  V30 10766 N 1048.11 -5.62011 0.0998662 0
M  V30 10767 H 1040.26 -1.85499 1.0346 0
M  V30 10768 H 1042.52 -0.856584 0.406163 0
M  V30 10769 H 1042.23 -3.38602 0.950858 0
M  V30 10770 H 1042.1 -3.69207 -0.772406 0
M  V30 10771 H 1044.49 -2.74783 -1.07601 0
M  V30 10772 H 1044.57 -2.46886 0.66939 0
M  V30 10773 H 1044.21 -4.9666 1.06258 0
M  V30 10774 H 1044.14 -5.21933 -0.699528 0
M  V30 10775 H 1046.63 -3.7777 -0.099121 0
M  V30 10776 H 1046.95 -7.71641 0.423032 0
M  V30 10777 H 1045.29 -6.93996 0.373504 0
M  V30 10778 H 1048.48 -4.68084 -0.0385356 0
M  V30 10779 H 1048.65 -6.47693 0.199342 0
M  V30 10780 N 1042.06 0.170153 -1.56679 0
M  V30 10781 C 1043.01 1.22997 -1.9742 0
M  V30 10782 C 1044 1.45762 -0.863117 0
M  V30 10783 O 1045.21 1.46328 -1.04824 0
M  V30 10784 H 1041.58 0.413482 -0.628122 0
M  V30 10785 H 1043.55 0.859502 -2.85754 0
M  V30 10786 C 1042.3 2.5615 -2.35122 0
M  V30 10787 H 1041.63 2.39456 -3.20158 0
M  V30 10788 H 1043.07 3.28991 -2.67471 0
M  V30 10789 C 1041.53 3.14992 -1.19507 0
M  V30 10790 O 1042.06 3.98781 -0.483357 0
M  V30 10791 N 1040.26 2.74098 -0.965332 0
M  V30 10792 H 1039.81 2.06062 -1.54585 0
M  V30 10793 H 1039.77 3.13803 -0.193611 0
M  V30 10794 N 1043.54 1.5137 0.438746 0
M  V30 10795 C 1044.47 1.67264 1.55236 0
M  V30 10796 C 1045.45 0.520238 1.54053 0
M  V30 10797 O 1046.63 0.743897 1.73201 0
M  V30 10798 C 1043.76 1.68492 2.93816 0
M  V30 10799 C 1042.81 2.8968 3.1303 0
M  V30 10800 S 1043.64 4.50514 2.89478 0
M  V30 10801 C 1044.8 4.54485 4.30342 0
M  V30 10802 H 1045.03 2.61456 1.4152 0
M  V30 10803 H 1042.56 1.41036 0.628341 0
M  V30 10804 H 1044.52 1.69884 3.73697 0
M  V30 10805 H 1043.18 0.754787 3.04896 0
M  V30 10806 H 1042.37 2.86936 4.14347 0
M  V30 10807 H 1041.98 2.86022 2.40972 0
M  V30 10808 H 1044.27 4.30039 5.2352 0
M  V30 10809 H 1045.21 5.56288 4.3812 0
M  V30 10810 H 1045.62 3.83824 4.13931 0
M  V30 10811 N 1045.02 -0.694098 1.41492 0
M  V30 10812 C 1046.26 -1.45127 1.4065 0
M  V30 10813 C 1046.59 -1.94993 0.0170289 0
M  V30 10814 O 1045.86 -1.71799 -0.941372 0
M  V30 10815 H 1044.44 -0.538493 0.51772 0
M  V30 10816 H 1047.1 -0.821441 1.76744 0
M  V30 10817 H 1046.19 -2.31372 2.0946 0
M  V30 10818 N 1046.49 -1.27344 -0.928501 0
M  V30 10819 C 1047.44 -1.09835 -2.05034 0
M  V30 10820 C 1048.44 -0.0216643 -1.69386 0
M  V30 10821 O 1049.64 -0.179323 -1.79105 0
M  V30 10822 H 1046.02 -0.338416 -0.671549 0
M  V30 10823 H 1047.99 -2.04879 -2.1695 0
M  V30 10824 C 1046.74 -0.761462 -3.3926 0
M  V30 10825 H 1046.06 -1.58186 -3.67175 0
M  V30 10826 H 1047.5 -0.678812 -4.18531 0
M  V30 10827 C 1045.96 0.534118 -3.32639 0
M  V30 10828 O 1046.49 1.56877 -3.69801 0
M  V30 10829 N 1044.7 0.529437 -2.85736 0
M  V30 10830 H 1044.24 -0.312954 -2.55692 0
M  V30 10831 H 1044.2 1.39637 -2.81689 0
M  V30 10832 N 1047.97 1.13488 -1.09353 0
M  V30 10833 C 1048.9 2.20988 -0.75409 0
M  V30 10834 C 1049.88 1.67977 0.267901 0
M  V30 10835 O 1051.07 1.93722 0.136128 0
M  V30 10836 C 1048.2 3.46869 -0.173042 0
M  V30 10837 C 1047.15 4.12965 -1.12446 0
M  V30 10838 C 1046.48 5.33163 -0.405157 0
M  V30 10839 C 1047.78 4.60388 -2.46658 0
M  V30 10840 H 1049.47 2.49639 -1.6529 0
M  V30 10841 H 1047.02 1.19987 -0.796182 0
M  V30 10842 H 1048.97 4.21331 0.0764988 0
M  V30 10843 H 1047.7 3.17611 0.760956 0
M  V30 10844 H 1046.35 3.40469 -1.35927 0
M  V30 10845 H 1046 5.00169 0.532955 0
M  V30 10846 H 1045.7 5.78332 -1.03952 0
M  V30 10847 H 1047.23 6.1038 -0.163899 0
M  V30 10848 H 1048.64 5.26276 -2.27389 0
M  V30 10849 H 1047.04 5.16294 -3.05876 0
M  V30 10850 H 1048.11 3.74949 -3.07476 0
M  V30 10851 N 1049.45 0.880621 1.30701 0
M  V30 10852 C 1050.7 0.495894 1.95922 0
M  V30 10853 C 1051.02 -0.957214 1.69889 0
M  V30 10854 O 1050.29 -1.67245 1.0201 0
M  V30 10855 H 1048.87 0.180394 0.724891 0
M  V30 10856 H 1051.53 1.12274 1.59313 0
M  V30 10857 H 1050.63 0.662508 3.04987 0
M  V30 10858 N 1050.93 -1.4397 0.641131 0
M  V30 10859 C 1051.88 -2.32495 -0.0698668 0
M  V30 10860 C 1052.87 -1.47922 -0.825555 0
M  V30 10861 O 1054.08 -1.64206 -0.737323 0
M  V30 10862 H 1050.45 -0.750861 -0.0413706 0
M  V30 10863 H 1052.42 -2.90201 0.694682 0
M  V30 10864 C 1051.17 -3.32063 -1.03098 0
M  V30 10865 H 1050.5 -3.97157 -0.458923 0
M  V30 10866 H 1051.94 -3.96664 -1.49778 0
M  V30 10867 C 1050.39 -2.61743 -2.12113 0
M  V30 10868 O 1050.92 -2.42385 -3.20332 0
M  V30 10869 N 1049.13 -2.21316 -1.88328 0
M  V30 10870 H 1048.68 -2.37261 -1.00324 0
M  V30 10871 H 1048.64 -1.74594 -2.61465 0
M  V30 10872 N 1052.41 -0.382291 -1.52893 0
M  V30 10873 C 1053.34 0.500194 -2.22651 0
M  V30 10874 C 1054.32 1.06969 -1.22459 0
M  V30 10875 O 1055.5 1.12267 -1.51422 0
M  V30 10876 C 1052.63 1.6917 -2.93427 0
M  V30 10877 C 1051.68 1.24811 -4.07829 0
M  V30 10878 S 1052.51 0.235466 -5.34982 0
M  V30 10879 C 1053.66 1.43292 -6.09277 0
M  V30 10880 H 1053.9 -0.0921913 -2.97157 0
M  V30 10881 H 1051.43 -0.16645 -1.535 0
M  V30 10882 H 1053.39 2.37507 -3.34815 0
M  V30 10883 H 1052.05 2.25537 -2.18613 0
M  V30 10884 H 1051.24 2.13754 -4.56426 0
M  V30 10885 H 1050.84 0.643744 -3.68418 0
M  V30 10886 H 1053.14 2.36118 -6.35023 0
M  V30 10887 H 1054.08 0.988003 -7.01173 0
M  V30 10888 H 1054.49 1.64655 -5.39953 0
M  V30 10889 N 1053.89 1.57202 -0.111913 0
M  V30 10890 C 1054.83 2.16186 0.858286 0
M  V30 10891 C 1055.83 1.10917 1.28039 0
M  V30 10892 O 1057.03 1.29233 1.25295 0
M  V30 10893 H 1053.41 0.691777 0.29487 0
M  V30 10894 H 1055.38 2.96499 0.336265 0
M  V30 10895 C 1054.13 2.77024 2.10127 0
M  V30 10896 H 1053.45 3.5772 1.78539 0
M  V30 10897 H 1054.89 3.21841 2.76033 0
M  V30 10898 C 1053.35 1.73752 2.88638 0
M  V30 10899 O 1053.88 1.18659 3.83774 0
M  V30 10900 N 1052.09 1.43855 2.52496 0
M  V30 10901 H 1051.63 1.88846 1.75199 0
M  V30 10902 H 1051.59 0.749985 3.05324 0
M  V30 10903 N 1055.36 -0.161842 1.56767 0
M  V30 10904 C 1056.31 -1.21948 1.98069 0
M  V30 10905 C 1057.31 -1.45303 0.870835 0
M  V30 10906 O 1058.51 -1.45771 1.05598 0
M  V30 10907 H 1054.89 -0.410145 0.630306 0
M  V30 10908 H 1056.86 -0.844336 2.86205 0
M  V30 10909 C 1055.61 -2.549 2.36477 0
M  V30 10910 H 1054.93 -2.37755 3.21423 0
M  V30 10911 H 1056.37 -3.27568 2.69212 0
M  V30 10912 C 1054.83 -3.14353 1.21176 0
M  V30 10913 O 1055.36 -3.98519 0.504499 0
M  V30 10914 N 1053.56 -2.73582 0.979855 0
M  V30 10915 H 1053.11 -2.05239 1.55675 0
M  V30 10916 H 1053.07 -3.13696 0.21025 0
M  V30 10917 N 1056.84 -1.516 -0.430713 0
M  V30 10918 C 1057.77 -1.69594 -1.54177 0
M  V30 10919 C 1058.79 -0.576518 -1.5225 0
M  V30 10920 O 1059.98 -0.85104 -1.56906 0
M  V30 10921 C 1057.08 -1.70148 -2.93092 0
M  V30 10922 C 1056.25 -2.98782 -3.1945 0
M  V30 10923 C 1055.31 -2.91435 -4.38123 0
M  V30 10924 O 1054.33 -3.65372 -4.36454 0
M  V30 10925 N 1055.54 -2.0774 -5.42056 0
M  V30 10926 H 1058.3 -2.65442 -1.39143 0
M  V30 10927 H 1055.86 -1.49569 -0.61974 0
M  V30 10928 H 1057.85 -1.62793 -3.70514 0
M  V30 10929 H 1056.42 -0.818667 -3.0169 0
M  V30 10930 H 1055.64 -3.19954 -2.30267 0
M  V30 10931 H 1056.93 -3.83919 -3.33892 0
M  V30 10932 H 1056.33 -1.47059 -5.46251 0
M  V30 10933 H 1054.89 -2.06259 -6.18305 0
M  V30 10934 N 1058.32 0.686584 -1.41858 0
M  V30 10935 C 1059.27 1.80038 -1.44413 0
M  V30 10936 C 1060.24 1.63415 -0.297427 0
M  V30 10937 O 1061.42 1.84138 -0.499789 0
M  V30 10938 C 1058.56 3.17988 -1.34082 0
M  V30 10939 C 1057.67 3.45979 -2.58693 0
M  V30 10940 C 1056.81 4.73592 -2.4059 0
M  V30 10941 C 1055.85 4.94581 -3.60633 0
M  V30 10942 N 1054.99 6.13426 -3.41545 0
M  V30 10943 H 1059.83 1.77189 -2.396 0
M  V30 10944 H 1057.36 0.865158 -1.18968 0
M  V30 10945 H 1059.32 3.97689 -1.26092 0
M  V30 10946 H 1057.95 3.1999 -0.424975 0
M  V30 10947 H 1057 2.60617 -2.77097 0
M  V30 10948 H 1058.31 3.57386 -3.47961 0
M  V30 10949 H 1057.47 5.61364 -2.30119 0
M  V30 10950 H 1056.21 4.64448 -1.48794 0
M  V30 10951 H 1055.21 4.05254 -3.71549 0
M  V30 10952 H 1056.44 5.05578 -4.53395 0
M  V30 10953 H 1054.38 6.05477 -2.52456 0
M  V30 10954 H 1054.3 6.25641 -4.24393 0
M  V30 10955 H 1055.57 7.03908 -3.34864 0
M  V30 10956 N 1059.8 1.27835 0.921735 0
M  V30 10957 C 1060.73 1.06874 2.02758 0
M  V30 10958 C 1061.74 0.0229418 1.62784 0
M  V30 10959 O 1062.93 0.265145 1.7652 0
M  V30 10960 C 1060.03 0.60037 3.3354 0
M  V30 10961 C 1059.2 1.71979 4.02172 0
M  V30 10962 C 1058.26 1.24615 5.11231 0
M  V30 10963 O 1057.29 1.94692 5.34868 0
M  V30 10964 N 1058.49 0.105021 5.80405 0
M  V30 10965 H 1061.26 2.02105 2.213 0
M  V30 10966 H 1058.82 1.19481 1.09251 0
M  V30 10967 H 1060.81 0.267281 4.03816 0
M  V30 10968 H 1059.38 -0.258872 3.11526 0
M  V30 10969 H 1058.6 2.22287 3.25549 0
M  V30 10970 H 1059.89 2.47092 4.44773 0
M  V30 10971 H 1059.29 -0.479745 5.63662 0
M  V30 10972 H 1057.84 -0.168846 6.51581 0
M  V30 10973 N 1061.28 -1.12907 1.09954 0
M  V30 10974 C 1062.21 -2.20585 0.765799 0
M  V30 10975 C 1063.19 -1.68117 -0.258989 0
M  V30 10976 O 1064.37 -1.93792 -0.125853 0
M  V30 10977 C 1061.5 -3.46772 0.191435 0
M  V30 10978 C 1060.46 -4.12363 1.14635 0
M  V30 10979 C 1059.78 -5.3294 0.433426 0
M  V30 10980 C 1061.08 -4.59073 2.49096 0
M  V30 10981 H 1062.78 -2.48759 1.66612 0
M  V30 10982 H 1060.32 -1.19563 0.802534 0
M  V30 10983 H 1062.27 -4.21365 -0.0541535 0
M  V30 10984 H 1061 -3.18011 -0.744101 0
M  V30 10985 H 1059.66 -3.39744 1.37731 0
M  V30 10986 H 1059.31 -5.00444 -0.506422 0
M  V30 10987 H 1059.01 -5.77772 1.07018 0
M  V30 10988 H 1060.53 -6.10284 0.196267 0
M  V30 10989 H 1061.94 -5.25063 2.30177 0
M  V30 10990 H 1060.34 -5.14665 3.0861 0
M  V30 10991 H 1061.41 -3.73313 3.0946 0
M  V30 10992 N 1062.75 -0.88754 -1.30232 0
M  V30 10993 C 1064.16 -0.55745 -1.78184 0
M  V30 10994 C 1064.52 0.926474 -1.72948 0
M  V30 10995 O 1063.64 1.72403 -1.3079 0
M  V30 10996 C 1064.24 -1.00512 -3.23547 0
M  V30 10997 C 1062.79 -0.726402 -3.69324 0
M  V30 10998 C 1061.94 -1.18666 -2.50627 0
M  V30 10999 H 1064.89 -1.07151 -1.17066 0
M  V30 11000 H 1064.91 -0.335185 -3.79021 0
M  V30 11001 H 1064.43 -2.08517 -3.27326 0
M  V30 11002 H 1062.53 0.341548 -3.71031 0
M  V30 11003 H 1062.64 -1.31575 -4.60679 0
M  V30 11004 H 1061 -0.605936 -2.47387 0
M  V30 11005 H 1061.79 -2.2745 -2.57141 0
M  V30 11006 N 1064.23 1.43628 -0.648757 0
M  V30 11007 C 1065.16 2.33478 0.0320785 0
M  V30 11008 C 1066.14 1.49217 0.816605 0
M  V30 11009 O 1067.33 1.77892 0.778974 0
M  V30 11010 C 1064.46 3.32525 1.00222 0
M  V30 11011 C 1063.41 4.2674 0.328119 0
M  V30 11012 C 1062.74 5.15791 1.4094 0
M  V30 11013 C 1064.04 5.16493 -0.776701 0
M  V30 11014 H 1065.73 2.90657 -0.718257 0
M  V30 11015 H 1063.28 1.3976 -0.346852 0
M  V30 11016 H 1065.23 3.94277 1.4874 0
M  V30 11017 H 1063.96 2.73593 1.78366 0
M  V30 11018 H 1062.61 3.66346 -0.136569 0
M  V30 11019 H 1062.26 4.53201 2.18216 0
M  V30 11020 H 1061.96 5.79645 0.963631 0
M  V30 11021 H 1063.49 5.80416 1.89603 0
M  V30 11022 H 1064.9 5.7208 -0.373878 0
M  V30 11023 H 1063.3 5.89043 -1.14667 0
M  V30 11024 H 1064.37 4.56448 -1.63654 0
M  V30 11025 N 1065.71 0.390394 1.52688 0
M  V30 11026 C 1066.66 -0.4591 2.28024 0
M  V30 11027 C 1067.65 -1.06212 1.31967 0
M  V30 11028 O 1068.86 -1.00247 1.49501 0
M  V30 11029 H 1065.23 -0.16681 0.733266 0
M  V30 11030 H 1067.2 0.197747 2.97744 0
M  V30 11031 C 1065.95 -1.5737 3.10048 0
M  V30 11032 H 1065.28 -1.11901 3.83821 0
M  V30 11033 H 1066.72 -2.1423 3.65898 0
M  V30 11034 C 1065.18 -2.53036 2.22429 0
M  V30 11035 O 1065.71 -3.5647 1.85181 0
M  V30 11036 N 1063.91 -2.22802 1.86567 0
M  V30 11037 H 1063.46 -1.38723 2.17057 0
M  V30 11038 H 1063.42 -2.87061 1.28233 0
M  V30 11039 N 1067.19 -1.57141 0.120249 0
M  V30 11040 C 1068.44 -1.94413 -0.53727 0
M  V30 11041 C 1068.75 -1.00594 -1.67751 0
M  V30 11042 O 1069.96 -1.27336 -2.39787 0
M  V30 11043 C 1068.41 -3.45521 -1.00714 0
M  V30 11044 C 1068.02 -4.47878 0.104706 0
M  V30 11045 C 1069.76 -3.9171 -1.63596 0
M  V30 11046 C 1067.67 -5.90165 -0.381932 0
M  V30 11047 H 1066.6 -0.725745 -0.204475 0
M  V30 11048 H 1069.25 -1.82404 0.200302 0
M  V30 11049 H 1067.63 -3.52769 -1.79917 0
M  V30 11050 H 1068.81 -4.523 0.881002 0
M  V30 11051 H 1067.12 -4.11448 0.640264 0
M  V30 11052 H 1069.72 -4.95433 -2.01122 0
M  V30 11053 H 1070.06 -3.31756 -2.51483 0
M  V30 11054 H 1070.6 -3.87268 -0.909319 0
M  V30 11055 H 1067.34 -6.53877 0.460921 0
M  V30 11056 H 1066.86 -5.89161 -1.12468 0
M  V30 11057 H 1068.53 -6.41488 -0.842748 0
M  V30 11058 N 1068.67 0.153526 -1.5685 0
M  V30 11059 C 1069.61 1.20896 -1.98713 0
M  V30 11060 C 1070.61 1.44839 -0.878529 0
M  V30 11061 O 1071.81 1.45208 -1.0637 0
M  V30 11062 H 1068.19 0.406797 -0.632472 0
M  V30 11063 H 1070.16 0.829145 -2.86649 0
M  V30 11064 C 1068.91 2.53642 -2.37825 0
M  V30 11065 H 1068.23 2.36047 -3.22679 0
M  V30 11066 H 1069.67 3.26136 -2.70946 0
M  V30 11067 C 1068.13 3.13706 -1.22841 0
M  V30 11068 O 1068.66 3.98246 -0.525626 0
M  V30 11069 N 1066.87 2.73059 -0.99435 0
M  V30 11070 H 1066.41 2.0441 -1.56761 0
M  V30 11071 H 1066.37 3.1358 -0.226883 0
M  V30 11072 N 1070.14 1.51827 0.422667 0
M  V30 11073 C 1071.09 1.74791 1.53463 0
M  V30 11074 C 1072.09 0.614602 1.57858 0
M  V30 11075 O 1073.29 0.796336 1.61426 0
M  V30 11076 H 1069.67 0.552524 0.510118 0
M  V30 11077 H 1071.64 2.67974 1.31273 0
M  V30 11078 C 1070.39 1.90339 2.90975 0
M  V30 11079 H 1069.71 2.76958 2.8833 0
M  V30 11080 H 1071.15 2.10413 3.68106 0
M  V30 11081 C 1069.61 0.66695 3.30232 0
M  V30 11082 O 1070.14 -0.171542 4.01334 0
M  V30 11083 N 1068.35 0.506768 2.86147 0
M  V30 11084 H 1067.89 1.19019 2.28456 0
M  V30 11085 H 1067.85 -0.319247 3.12775 0
M  V30 11086 N 1071.62 -0.679052 1.4222 0
M  V30 11087 C 1072.57 -1.79269 1.45366 0
M  V30 11088 C 1073.54 -1.63255 0.306089 0
M  V30 11089 O 1074.72 -1.8387 0.509548 0
M  V30 11090 C 1071.86 -3.17272 1.35766 0
M  V30 11091 C 1070.98 -3.44603 2.60525 0
M  V30 11092 C 1070.11 -4.7231 2.43098 0
M  V30 11093 C 1069.15 -4.92661 3.63251 0
M  V30 11094 N 1068.29 -6.11606 3.44794 0
M  V30 11095 H 1073.13 -1.75916 2.40536 0
M  V30 11096 H 1070.67 -0.858836 1.19425 0
M  V30 11097 H 1072.62 -3.97015 1.282 0
M  V30 11098 H 1071.25 -3.1976 0.441939 0
M  V30 11099 H 1070.31 -2.59144 2.78475 0
M  V30 11100 H 1071.62 -3.55536 3.49851 0
M  V30 11101 H 1070.77 -5.60136 2.33093 0
M  V30 11102 H 1069.51 -4.63652 1.51255 0
M  V30 11103 H 1068.52 -4.03278 3.73693 0
M  V30 11104 H 1069.74 -5.03167 4.5607 0
M  V30 11105 H 1067.69 -6.04129 2.55663 0
M  V30 11106 H 1067.6 -6.23381 4.27705 0
M  V30 11107 H 1068.87 -7.02122 3.38592 0
M  V30 11108 N 1073.1 -1.28322 -0.914942 0
M  V30 11109 C 1074.03 -1.07947 -2.02188 0
M  V30 11110 C 1075.05 -0.0315743 -1.62769 0
M  V30 11111 O 1076.23 -0.274503 -1.76377 0
M  V30 11112 C 1073.33 -0.61805 -3.33217 0
M  V30 11113 C 1072.51 -1.74109 -4.01254 0
M  V30 11114 C 1071.57 -1.27325 -5.10563 0
M  V30 11115 O 1070.59 -1.97526 -5.33828 0
M  V30 11116 N 1071.79 -0.1358 -5.80341 0
M  V30 11117 H 1074.56 -2.03275 -2.20225 0
M  V30 11118 H 1072.12 -1.20059 -1.08616 0
M  V30 11119 H 1074.11 -0.288693 -4.03669 0
M  V30 11120 H 1072.68 0.242348 -3.11659 0
M  V30 11121 H 1071.9 -2.2401 -3.24366 0
M  V30 11122 H 1073.19 -2.49448 -4.43456 0
M  V30 11123 H 1072.59 0.449846 -5.63909 0
M  V30 11124 H 1071.15 0.134289 -6.51662 0
M  V30 11125 N 1074.58 1.12322 -1.10551 0
M  V30 11126 C 1075.51 2.17819 -0.713263 0
M  V30 11127 C 1076.52 1.6086 0.250604 0
M  V30 11128 O 1077.71 1.78466 0.0348909 0
M  V30 11129 C 1074.81 3.38885 -0.0320325 0
M  V30 11130 C 1073.99 4.25332 -1.02038 0
M  V30 11131 C 1073.04 5.24895 -0.370412 0
M  V30 11132 O 1072.07 5.59958 -1.02157 0
M  V30 11133 N 1073.27 5.73934 0.870633 0
M  V30 11134 H 1076.04 2.52083 -1.62094 0
M  V30 11135 H 1073.6 1.27755 -0.994492 0
M  V30 11136 H 1075.59 4.02574 0.414285 0
M  V30 11137 H 1074.16 3.02762 0.778072 0
M  V30 11138 H 1073.38 3.5824 -1.64492 0
M  V30 11139 H 1074.67 4.79936 -1.68936 0
M  V30 11140 H 1074.07 5.47614 1.419 0
M  V30 11141 H 1072.62 6.39504 1.26008 0
M  V30 11142 N 1076.06 0.894434 1.2976 0
M  V30 11143 C 1077 0.357958 2.29829 0
M  V30 11144 C 1078 -0.540093 1.6056 0
M  V30 11145 O 1079.2 -0.423478 1.74948 0
M  V30 11146 H 1075.58 0.0971183 0.745702 0
M  V30 11147 H 1077.55 1.21542 2.72526 0
M  V30 11148 C 1076.3 -0.404126 3.45343 0
M  V30 11149 H 1075.62 0.277671 3.98835 0
M  V30 11150 H 1077.06 -0.744446 4.17413 0
M  V30 11151 C 1075.52 -1.6048 2.96222 0
M  V30 11152 O 1076.05 -2.70414 2.97051 0
M  V30 11153 N 1074.26 -1.44517 2.52117 0
M  V30 11154 H 1073.8 -0.55082 2.51642 0
M  V30 11155 H 1073.76 -2.24987 2.1961 0
M  V30 11156 N 1077.53 -1.43282 0.656365 0
M  V30 11157 C 1078.5 -2.29188 -0.0239173 0
M  V30 11158 C 1079.5 -1.42373 -0.747436 0
M  V30 11159 O 1080.69 -1.63969 -0.588213 0
M  V30 11160 C 1077.82 -3.24501 -1.0446 0
M  V30 11161 H 1079.01 -2.9083 0.731978 0
M  V30 11162 H 1076.57 -1.50614 0.417752 0
M  V30 11163 H 1077.3 -2.6776 -1.82962 0
M  V30 11164 H 1077.09 -3.88509 -0.52942 0
M  V30 11165 H 1078.58 -3.88971 -1.51958 0
M  V30 11166 N 1079.01 -0.398486 -1.52479 0
M  V30 11167 C 1079.98 0.420206 -2.25315 0
M  V30 11168 C 1080.98 0.982559 -1.27289 0
M  V30 11169 O 1082.17 0.863113 -1.51314 0
M  V30 11170 C 1079.3 1.59045 -3.01525 0
M  V30 11171 H 1080.49 -0.217599 -2.9911 0
M  V30 11172 H 1078.04 -0.150784 -1.55571 0
M  V30 11173 H 1078.78 2.26542 -2.32054 0
M  V30 11174 H 1078.56 1.19382 -3.73484 0
M  V30 11175 H 1080.05 2.16984 -3.56802 0
M  V30 11176 N 1080.49 1.57075 -0.12858 0
M  V30 11177 C 1081.72 2.00305 0.537839 0
M  V30 11178 C 1082.14 1.00787 1.58819 0
M  V30 11179 O 1081.5 -0.0190839 1.8129 0
M  V30 11180 C 1081.55 3.42371 1.13201 0
M  V30 11181 O 1080.65 3.45786 2.24735 0
M  V30 11182 H 1079.99 0.650456 0.133428 0
M  V30 11183 H 1082.52 2.03415 -0.219882 0
M  V30 11184 H 1082.53 3.80783 1.4652 0
M  V30 11185 H 1081.21 4.14315 0.362713 0
M  V30 11186 H 1079.78 3.19201 1.92783 0
M  V30 11187 N 1081.97 -0.145205 1.5693 0
M  V30 11188 C 1082.9 -1.20438 1.95006 0
M  V30 11189 C 1083.91 -1.39085 0.846114 0
M  V30 11190 O 1085.1 -1.38625 1.12452 0
M  V30 11191 C 1082.2 -2.56892 2.21043 0
M  V30 11192 C 1081.38 -2.59197 3.52329 0
M  V30 11193 C 1080.44 -3.77204 3.66884 0
M  V30 11194 O 1079.46 -3.61995 4.39259 0
M  V30 11195 N 1080.66 -4.9473 3.03682 0
M  V30 11196 H 1083.43 -0.880709 2.86467 0
M  V30 11197 H 1080.99 -0.334751 1.58401 0
M  V30 11198 H 1082.98 -3.34349 2.2802 0
M  V30 11199 H 1081.55 -2.81544 1.35838 0
M  V30 11200 H 1080.77 -1.67644 3.56776 0
M  V30 11201 H 1082.06 -2.57771 4.3867 0
M  V30 11202 H 1081.46 -5.09989 2.44801 0
M  V30 11203 H 1080.01 -5.69956 3.16218 0
M  V30 11204 N 1083.45 -1.52049 -0.414609 0
M  V30 11205 C 1084.41 -1.74382 -1.4874 0
M  V30 11206 C 1085.41 -0.613701 -1.48628 0
M  V30 11207 O 1086.6 -0.88152 -1.50249 0
M  V30 11208 C 1083.73 -1.82116 -2.88178 0
M  V30 11209 H 1084.93 -2.70147 -1.30233 0
M  V30 11210 H 1082.48 -1.42382 -0.644756 0
M  V30 11211 H 1083.21 -0.882457 -3.12063 0
M  V30 11212 H 1083 -2.64268 -2.89663 0
M  V30 11213 H 1084.49 -2.01155 -3.65959 0
M  V30 11214 N 1084.93 0.6715 -1.42579 0
M  V30 11215 C 1085.87 1.80623 -1.46554 0
M  V30 11216 C 1086.87 1.65934 -0.340932 0
M  V30 11217 O 1088.07 1.72502 -0.514098 0
M  V30 11218 H 1084.45 0.595619 -0.459067 0
M  V30 11219 H 1086.42 1.74388 -2.42139 0
M  V30 11220 C 1085.17 3.18794 -1.38801 0
M  V30 11221 H 1084.49 3.30725 -2.24635 0
M  V30 11222 H 1085.93 3.98201 -1.45645 0
M  V30 11223 C 1084.39 3.36742 -0.103219 0
M  V30 11224 O 1084.92 3.92761 0.842715 0
M  V30 11225 N 1083.13 2.90594 -0.0193034 0
M  V30 11226 H 1082.67 2.45192 -0.78986 0
M  V30 11227 H 1082.63 3.0298 0.839686 0
M  V30 11228 N 1086.4 1.28806 0.908124 0
M  V30 11229 C 1087.34 1.09018 2.01613 0
M  V30 11230 C 1088.35 0.0402059 1.6275 0
M  V30 11231 O 1089.54 0.283853 1.76229 0
M  V30 11232 C 1086.64 0.635712 3.32884 0
M  V30 11233 C 1085.81 1.76235 4.00325 0
M  V30 11234 C 1084.87 1.3003 5.09881 0
M  V30 11235 O 1083.9 2.00354 5.32773 0
M  V30 11236 N 1085.1 0.166575 5.80261 0
M  V30 11237 H 1087.86 2.0444 2.19144 0
M  V30 11238 H 1085.42 1.20633 1.07978 0
M  V30 11239 H 1087.42 0.310097 4.0351 0
M  V30 11240 H 1085.99 -0.225816 3.11783 0
M  V30 11241 H 1085.21 2.25727 3.23173 0
M  V30 11242 H 1086.49 2.51796 4.42127 0
M  V30 11243 H 1085.89 -0.419934 5.64139 0
M  V30 11244 H 1084.45 -0.0997281 6.51724 0
M  V30 11245 N 1087.88 -1.11734 1.11145 0
M  V30 11246 C 1088.81 -2.16847 0.710809 0
M  V30 11247 C 1089.79 -1.59966 -0.291494 0
M  V30 11248 O 1090.98 -1.87554 -0.188645 0
M  V30 11249 C 1088.1 -3.38663 0.0499744 0
M  V30 11250 C 1087.15 -4.14199 1.01693 0
M  V30 11251 S 1087.98 -4.7154 2.53793 0
M  V30 11252 C 1089.14 -5.96682 1.89001 0
M  V30 11253 H 1089.37 -2.50497 1.60121 0
M  V30 11254 H 1086.9 -1.23311 0.929182 0
M  V30 11255 H 1088.86 -4.09212 -0.324959 0
M  V30 11256 H 1087.52 -3.03279 -0.817335 0
M  V30 11257 H 1086.72 -5.01494 0.501933 0
M  V30 11258 H 1086.32 -3.49395 1.33414 0
M  V30 11259 H 1088.61 -6.6634 1.22462 0
M  V30 11260 H 1089.55 -6.52821 2.74282 0
M  V30 11261 H 1089.96 -5.48084 1.35145 0
M  V30 11262 N 1089.36 -0.901303 -1.29284 0
M  V30 11263 C 1090.31 -0.370142 -2.29636 0
M  V30 11264 C 1091.3 0.53157 -1.60844 0
M  V30 11265 O 1092.51 0.414194 -1.7517 0
M  V30 11266 H 1088.88 -0.101072 -0.745177 0
M  V30 11267 H 1090.85 -1.22985 -2.71877 0
M  V30 11268 C 1089.6 0.385806 -3.45553 0
M  V30 11269 H 1088.93 -0.298818 -3.98682 0
M  V30 11270 H 1090.37 0.722299 -4.17802 0
M  V30 11271 C 1088.82 1.58907 -2.97069 0
M  V30 11272 O 1089.35 2.68835 -2.98481 0
M  V30 11273 N 1087.56 1.43178 -2.5288 0
M  V30 11274 H 1087.11 0.537467 -2.51931 0
M  V30 11275 H 1087.07 2.23819 -2.208 0
M  V30 11276 N 1090.84 1.42931 -0.663954 0
M  V30 11277 C 1091.79 2.27958 0.0436184 0
M  V30 11278 C 1092.77 1.40493 0.784258 0
M  V30 11279 O 1093.96 1.64035 0.664956 0
M  V30 11280 C 1091.09 3.28357 1.00183 0
M  V30 11281 C 1090.18 4.23308 0.259099 0
M  V30 11282 N 1090.57 5.00502 -0.730182 0
M  V30 11283 C 1088.87 4.43199 0.499061 0
M  V30 11284 C 1089.57 5.69771 -1.17201 0
M  V30 11285 N 1088.54 5.41258 -0.504105 0
M  V30 11286 H 1092.35 2.85061 -0.715348 0
M  V30 11287 H 1089.86 1.54764 -0.492117 0
M  V30 11288 H 1091.86 3.88061 1.52362 0
M  V30 11289 H 1090.52 2.72815 1.76074 0
M  V30 11290 H 1091.53 5.0588 -1.10932 0
M  V30 11291 H 1088.21 3.98713 1.23831 0
M  V30 11292 H 1089.6 6.41718 -1.99117 0
M  V30 11293 N 1092.32 0.406567 1.52266 0
M  V30 11294 C 1093.25 -0.45552 2.24628 0
M  V30 11295 C 1094.26 -1.01234 1.27497 0
M  V30 11296 O 1095.45 -0.911718 1.5346 0
M  V30 11297 C 1092.55 -1.64578 2.96256 0
M  V30 11298 C 1091.72 -1.2133 4.20235 0
M  V30 11299 C 1090.78 -2.27018 4.7471 0
M  V30 11300 O 1089.81 -1.87714 5.37357 0
M  V30 11301 N 1091.01 -3.5915 4.56061 0
M  V30 11302 H 1093.77 0.164525 2.99248 0
M  V30 11303 H 1091.34 0.233812 1.60203 0
M  V30 11304 H 1093.33 -2.3484 3.29594 0
M  V30 11305 H 1091.9 -2.1718 2.24837 0
M  V30 11306 H 1091.12 -0.338892 3.92741 0
M  V30 11307 H 1092.41 -0.901268 5.00754 0
M  V30 11308 H 1091.8 -3.93834 4.06092 0
M  V30 11309 H 1090.36 -4.25397 4.93843 0
M  V30 11310 N 1093.79 -1.57004 0.136909 0
M  V30 11311 C 1094.76 -2.15066 -0.792419 0
M  V30 11312 C 1095.76 -1.08991 -1.18226 0
M  V30 11313 O 1096.95 -1.34681 -1.10484 0
M  V30 11314 C 1094.08 -2.70554 -2.07397 0
M  V30 11315 H 1095.27 -2.98519 -0.28752 0
M  V30 11316 H 1092.83 -1.55895 -0.112469 0
M  V30 11317 H 1093.56 -1.90739 -2.62277 0
M  V30 11318 H 1093.35 -3.48149 -1.80374 0
M  V30 11319 H 1094.84 -3.15322 -2.73792 0
M  V30 11320 N 1095.27 0.136881 -1.57004 0
M  V30 11321 C 1096.2 1.19402 -1.95642 0
M  V30 11322 C 1097.22 1.38635 -0.853478 0
M  V30 11323 O 1098.41 1.38027 -1.13185 0
M  V30 11324 C 1095.51 2.55716 -2.22402 0
M  V30 11325 C 1094.68 2.57325 -3.53698 0
M  V30 11326 C 1093.74 3.75253 -3.68879 0
M  V30 11327 O 1092.76 3.5966 -4.41173 0
M  V30 11328 N 1093.97 4.93112 -3.06302 0
M  V30 11329 H 1096.73 0.865504 -2.8693 0
M  V30 11330 H 1094.29 0.326346 -1.58577 0
M  V30 11331 H 1096.28 3.33135 -2.29789 0
M  V30 11332 H 1094.85 2.80819 -1.37329 0
M  V30 11333 H 1094.07 1.65749 -3.5766 0
M  V30 11334 H 1095.36 2.55441 -4.40031 0
M  V30 11335 H 1094.76 5.08684 -2.47502 0
M  V30 11336 H 1093.32 5.68271 -3.19236 0
M  V30 11337 N 1096.75 1.52266 0.40654 0
M  V30 11338 C 1098.16 1.58587 0.985241 0
M  V30 11339 C 1098.51 0.427955 1.91476 0
M  V30 11340 O 1097.64 -0.451341 2.11641 0
M  V30 11341 C 1098.23 2.87426 1.79365 0
M  V30 11342 C 1096.79 2.96217 2.32233 0
M  V30 11343 C 1095.94 2.53548 1.12288 0
M  V30 11344 H 1098.89 1.57598 0.186685 0
M  V30 11345 H 1098.91 2.72925 2.65127 0
M  V30 11346 H 1098.42 3.71682 1.11687 0
M  V30 11347 H 1096.52 2.1646 3.03275 0
M  V30 11348 H 1096.64 4.00511 2.62922 0
M  V30 11349 H 1095 2.07457 1.47763 0
M  V30 11350 H 1095.78 3.40181 0.461731 0
M  V30 11351 N 1098.23 -0.663929 1.42933 0
M  V30 11352 C 1099.16 -1.78946 1.43217 0
M  V30 11353 C 1100.17 -1.59426 0.329727 0
M  V30 11354 O 1101.36 -1.68344 0.5935 0
M  V30 11355 C 1098.46 -3.16217 1.21902 0
M  V30 11356 C 1097.64 -3.6249 2.44785 0
M  V30 11357 C 1096.69 -4.78529 2.18853 0
M  V30 11358 O 1095.72 -4.88516 2.92131 0
M  V30 11359 N 1096.92 -5.67994 1.19845 0
M  V30 11360 H 1099.69 -1.79184 2.40236 0
M  V30 11361 H 1097.25 -0.847404 1.37952 0
M  V30 11362 H 1099.24 -3.91517 1.02454 0
M  V30 11363 H 1097.81 -3.10814 0.333676 0
M  V30 11364 H 1097.03 -2.77751 2.79729 0
M  V30 11365 H 1098.32 -3.90151 3.26588 0
M  V30 11366 H 1097.72 -5.62588 0.59259 0
M  V30 11367 H 1096.27 -6.4306 1.06382 0
M  V30 11368 N 1099.71 -1.29285 -0.901281 0
M  V30 11369 C 1100.95 -1.16934 -1.64836 0
M  V30 11370 C 1101.28 0.279826 -1.92982 0
M  V30 11371 O 1100.55 1.19179 -1.55478 0
M  V30 11372 H 1099.13 -0.429768 -0.61099 0
M  V30 11373 H 1101.79 -1.62189 -1.08077 0
M  V30 11374 H 1100.88 -1.71821 -2.60545 0
M  V30 11375 N 1101.18 1.11143 -1.11736 0
M  V30 11376 C 1102.15 2.15456 -0.78174 0
M  V30 11377 C 1103.15 1.59547 0.200383 0
M  V30 11378 O 1104.34 1.74183 -0.0244893 0
M  V30 11379 C 1101.47 3.40523 -0.160364 0
M  V30 11380 H 1102.66 2.46658 -1.70586 0
M  V30 11381 H 1100.22 1.26381 -0.919644 0
M  V30 11382 H 1100.95 3.14932 0.773835 0
M  V30 11383 H 1100.74 3.82386 -0.867378 0
M  V30 11384 H 1102.23 4.17559 0.0582175 0
M  V30 11385 N 1102.66 0.908147 1.28804 0
M  V30 11386 C 1103.59 0.34957 2.26519 0
M  V30 11387 C 1104.61 -0.508845 1.54643 0
M  V30 11388 O 1105.8 -0.324633 1.75523 0
M  V30 11389 C 1102.9 -0.519461 3.34895 0
M  V30 11390 C 1102.07 0.315157 4.36263 0
M  V30 11391 C 1101.13 -0.488059 5.23932 0
M  V30 11392 O 1100.15 0.0974133 5.69117 0
M  V30 11393 N 1101.36 -1.79233 5.52137 0
M  V30 11394 H 1104.12 1.18945 2.75086 0
M  V30 11395 H 1101.68 0.77351 1.42227 0
M  V30 11396 H 1103.67 -1.0634 3.90479 0
M  V30 11397 H 1102.24 -1.26004 2.8608 0
M  V30 11398 H 1101.46 1.04049 3.8022 0
M  V30 11399 H 1102.75 0.886438 5.01019 0
M  V30 11400 H 1102.15 -2.2906 5.1725 0
M  V30 11401 H 1100.71 -2.28322 6.10502 0
M  V30 11402 N 1104.14 -1.42577 0.671525 0
M  V30 11403 C 1105.1 -2.292 0.000392482 0
M  V30 11404 C 1106.1 -1.43158 -0.732294 0
M  V30 11405 O 1107.29 -1.64583 -0.570789 0
M  V30 11406 C 1104.43 -3.25591 -1.01013 0
M  V30 11407 H 1105.62 -2.90037 0.762783 0
M  V30 11408 H 1103.17 -1.50162 0.433703 0
M  V30 11409 H 1103.91 -2.69685 -1.80112 0
M  V30 11410 H 1103.69 -3.89049 -0.488183 0
M  V30 11411 H 1105.18 -3.90561 -1.47824 0
M  V30 11412 N 1105.62 -0.414636 -1.52048 0
M  V30 11413 C 1106.55 0.443601 -2.24866 0
M  V30 11414 C 1107.56 1.00556 -1.28032 0
M  V30 11415 O 1108.75 0.903566 -1.53941 0
M  V30 11416 C 1105.85 1.63004 -2.97124 0
M  V30 11417 C 1105.03 1.191 -4.20873 0
M  V30 11418 C 1104.08 2.24497 -4.75907 0
M  V30 11419 O 1103.11 1.84861 -5.38345 0
M  V30 11420 N 1104.31 3.56727 -4.57959 0
M  V30 11421 H 1107.08 -0.180393 -2.99157 0
M  V30 11422 H 1104.64 -0.242305 -1.60077 0
M  V30 11423 H 1106.63 2.33089 -3.30835 0
M  V30 11424 H 1105.2 2.15984 -2.25986 0
M  V30 11425 H 1104.42 0.318059 -3.92915 0
M  V30 11426 H 1105.71 0.874699 -5.01225 0
M  V30 11427 H 1105.11 3.91675 -4.08175 0
M  V30 11428 H 1103.66 4.22772 -4.96092 0
M  V30 11429 N 1107.1 1.56929 -0.145233 0
M  V30 11430 C 1108.03 2.13796 0.826078 0
M  V30 11431 C 1109.04 1.08697 1.21197 0
M  V30 11432 O 1110.23 1.3598 1.15635 0
M  V30 11433 C 1107.33 2.6443 2.11967 0
M  V30 11434 C 1106.5 3.9391 1.90142 0
M  V30 11435 C 1105.56 4.29872 3.03474 0
M  V30 11436 O 1104.59 4.98227 2.75242 0
M  V30 11437 N 1105.79 3.8931 4.30602 0
M  V30 11438 H 1108.56 2.97764 0.340073 0
M  V30 11439 H 1106.12 1.61854 0.0383928 0
M  V30 11440 H 1108.11 2.85502 2.86829 0
M  V30 11441 H 1106.68 1.85196 2.51836 0
M  V30 11442 H 1105.9 3.81481 0.993268 0
M  V30 11443 H 1107.19 4.78523 1.72896 0
M  V30 11444 H 1106.58 3.34229 4.56407 0
M  V30 11445 H 1105.14 4.15438 5.0225 0
M  V30 11446 N 1108.58 -0.128553 1.57075 0
M  V30 11447 C 1109.52 -1.15812 1.9964 0
M  V30 11448 C 1110.49 -1.41679 0.86696 0
M  V30 11449 O 1111.68 -1.53705 1.13046 0
M  V30 11450 C 1108.82 -2.48198 2.39774 0
M  V30 11451 C 1107.93 -2.29348 3.66092 0
M  V30 11452 C 1107.07 -3.54898 3.95248 0
M  V30 11453 C 1106.1 -3.31164 5.14779 0
M  V30 11454 N 1105.24 -4.48891 5.39853 0
M  V30 11455 H 1110.08 -0.788136 2.87389 0
M  V30 11456 H 1107.62 -0.377682 1.42169 0
M  V30 11457 H 1109.58 -3.25414 2.61077 0
M  V30 11458 H 1108.21 -2.83108 1.5508 0
M  V30 11459 H 1107.26 -1.43095 3.5246 0
M  V30 11460 H 1108.57 -2.07781 4.53463 0
M  V30 11461 H 1107.72 -4.40536 4.17148 0
M  V30 11462 H 1106.46 -3.79487 3.06335 0
M  V30 11463 H 1105.47 -2.43915 4.92733 0
M  V30 11464 H 1106.69 -3.07954 6.05261 0
M  V30 11465 H 1104.64 -4.73619 4.53895 0
M  V30 11466 H 1104.56 -4.30394 6.21528 0
M  V30 11467 H 1105.82 -5.35691 5.66265 0
M  V30 11468 N 1110.05 -1.5248 -0.398459 0
M  V30 11469 C 1111 -1.77211 -1.50662 0
M  V30 11470 C 1112 -0.639638 -1.5686 0
M  V30 11471 O 1113.2 -0.821917 -1.60139 0
M  V30 11472 H 1109.58 -0.56057 -0.501264 0
M  V30 11473 H 1111.55 -2.70028 -1.26993 0
M  V30 11474 C 1110.3 -1.94944 -2.8791 0
M  V30 11475 H 1109.62 -2.8151 -2.83888 0
M  V30 11476 H 1111.06 -2.16243 -3.64712 0
M  V30 11477 C 1109.52 -0.719402 -3.29129 0
M  V30 11478 O 1110.05 0.107671 -4.01556 0
M  V30 11479 N 1108.25 -0.552228 -2.85305 0
M  V30 11480 H 1107.8 -1.22638 -2.26534 0
M  V30 11481 H 1107.76 0.269447 -3.13243 0
M  V30 11482 N 1111.53 0.65634 -1.43283 0
M  V30 11483 C 1112.94 1.23744 -1.39801 0
M  V30 11484 C 1113.29 1.95942 -0.100507 0
M  V30 11485 O 1112.42 2.01063 0.800161 0
M  V30 11486 C 1113.01 2.25062 -2.53244 0
M  V30 11487 C 1111.57 2.78657 -2.53036 0
M  V30 11488 C 1110.72 1.53251 -2.31105 0
M  V30 11489 H 1113.67 0.448553 -1.52229 0
M  V30 11490 H 1113.69 3.07174 -2.24553 0
M  V30 11491 H 1113.2 1.72487 -3.47664 0
M  V30 11492 H 1111.3 3.35304 -1.62487 0
M  V30 11493 H 1111.42 3.26414 -3.507 0
M  V30 11494 H 1109.78 1.80487 -1.79713 0
M  V30 11495 H 1110.56 1.02615 -3.27605 0
M  V30 11496 N 1113.01 1.29761 0.894412 0
M  V30 11497 C 1113.94 1.1115 2.00445 0
M  V30 11498 C 1114.95 0.0574655 1.62699 0
M  V30 11499 O 1116.14 0.302528 1.75918 0
M  V30 11500 C 1113.24 0.670984 3.32191 0
M  V30 11501 C 1112.42 1.80471 3.98433 0
M  V30 11502 C 1111.48 1.35431 5.08473 0
M  V30 11503 O 1110.5 2.05994 5.30618 0
M  V30 11504 N 1111.7 0.22811 5.80052 0
M  V30 11505 H 1114.47 2.06753 2.16964 0
M  V30 11506 H 1112.03 1.21772 1.06692 0
M  V30 11507 H 1114.02 0.352877 4.03159 0
M  V30 11508 H 1112.59 -0.192735 3.12005 0
M  V30 11509 H 1111.81 2.29142 3.20761 0
M  V30 11510 H 1113.1 2.56471 4.39431 0
M  V30 11511 H 1112.5 -0.360076 5.64553 0
M  V30 11512 H 1111.05 -0.0305985 6.51793 0
M  V30 11513 N 1114.49 -1.10549 1.12324 0
M  V30 11514 C 1115.42 -2.16657 0.747826 0
M  V30 11515 C 1116.43 -1.61238 -0.224981 0
M  V30 11516 O 1117.62 -1.78499 -0.00649408 0
M  V30 11517 C 1114.72 -3.38791 0.0859421 0
M  V30 11518 C 1113.89 -4.23655 1.08792 0
M  V30 11519 C 1112.95 -5.24239 0.453871 0
M  V30 11520 O 1111.98 -5.58262 1.11052 0
M  V30 11521 N 1113.18 -5.75246 -0.779215 0
M  V30 11522 H 1115.95 -2.49472 1.66084 0
M  V30 11523 H 1113.51 -1.26157 1.01469 0
M  V30 11524 H 1115.5 -4.03182 -0.350186 0
M  V30 11525 H 1114.07 -3.03961 -0.729807 0
M  V30 11526 H 1113.29 -3.55578 1.70171 0
M  V30 11527 H 1114.58 -4.77187 1.76549 0
M  V30 11528 H 1113.98 -5.49802 -1.3317 0
M  V30 11529 H 1112.53 -6.41428 -1.15818 0
M  V30 11530 N 1115.97 -0.914965 -1.28321 0
M  V30 11531 C 1116.9 -0.348729 -2.2552 0
M  V30 11532 C 1117.88 0.547737 -1.53097 0
M  V30 11533 O 1119.06 0.491119 -1.8199 0
M  V30 11534 C 1116.19 0.501397 -3.34968 0
M  V30 11535 C 1115.23 -0.329859 -4.25223 0
M  V30 11536 S 1116.07 -1.73737 -5.06533 0
M  V30 11537 C 1117.22 -0.89458 -6.19474 0
M  V30 11538 H 1117.46 -1.17256 -2.732 0
M  V30 11539 H 1114.99 -0.716297 -1.36779 0
M  V30 11540 H 1116.95 0.986061 -3.98481 0
M  V30 11541 H 1115.61 1.29962 -2.85952 0
M  V30 11542 H 1114.8 0.320236 -5.02982 0
M  V30 11543 H 1114.4 -0.748221 -3.66439 0
M  V30 11544 H 1116.69 -0.124776 -6.77385 0
M  V30 11545 H 1117.64 -1.64475 -6.88733 0
M  V30 11546 H 1118.05 -0.442217 -5.62765 0
M  V30 11547 N 1117.44 1.42219 -0.679077 0
M  V30 11548 C 1118.38 2.29172 0.035583 0
M  V30 11549 C 1119.39 1.43909 0.761183 0
M  V30 11550 O 1120.58 1.67584 0.61463 0
M  V30 11551 C 1117.68 3.21426 1.07419 0
M  V30 11552 C 1116.85 4.35364 0.421547 0
M  V30 11553 C 1115.91 5.08307 1.36051 0
M  V30 11554 O 1114.94 5.62678 0.859186 0
M  V30 11555 N 1116.14 5.14222 2.69362 0
M  V30 11556 H 1118.9 2.91147 -0.710865 0
M  V30 11557 H 1116.46 1.53192 -0.523821 0
M  V30 11558 H 1118.46 3.67091 1.70371 0
M  V30 11559 H 1117.03 2.60873 1.72233 0
M  V30 11560 H 1116.25 3.9229 -0.387559 0
M  V30 11561 H 1117.53 5.08789 -0.0329421 0
M  V30 11562 H 1116.93 4.71467 3.12627 0
M  V30 11563 H 1115.49 5.63519 3.27551 0
M  V30 11564 N 1118.92 0.422693 1.51826 0
M  V30 11565 C 1119.85 -0.43167 2.25098 0
M  V30 11566 C 1120.87 -0.998758 1.28564 0
M  V30 11567 O 1122.06 -0.89539 1.54418 0
M  V30 11568 C 1119.16 -1.61426 2.97985 0
M  V30 11569 C 1118.33 -1.16866 4.21499 0
M  V30 11570 C 1117.39 -2.2197 4.77091 0
M  V30 11571 O 1116.41 -1.82004 5.39317 0
M  V30 11572 N 1117.62 -3.54293 4.59844 0
M  V30 11573 H 1120.38 0.196255 2.99057 0
M  V30 11574 H 1117.94 0.25079 1.59946 0
M  V30 11575 H 1119.93 -2.31331 3.32066 0
M  V30 11576 H 1118.5 -2.14783 2.27128 0
M  V30 11577 H 1117.72 -0.297217 3.93078 0
M  V30 11578 H 1119.01 -0.848106 5.01682 0
M  V30 11579 H 1118.41 -3.89505 4.10247 0
M  V30 11580 H 1116.97 -4.20135 4.98327 0
M  V30 11581 N 1120.4 -1.5685 0.153553 0
M  V30 11582 C 1121.65 -1.96625 -0.49665 0
M  V30 11583 C 1121.98 -1.03877 -1.64083 0
M  V30 11584 O 1121.25 -0.0824112 -1.94325 0
M  V30 11585 C 1121.54 -3.46035 -0.996585 0
M  V30 11586 C 1121.39 -4.49561 0.146551 0
M  V30 11587 C 1122.71 -3.98104 -1.8762 0
M  V30 11588 H 1119.83 -0.714917 -0.179059 0
M  V30 11589 H 1122.47 -1.88527 0.236104 0
M  V30 11590 H 1120.62 -3.53066 -1.621 0
M  V30 11591 H 1122.29 -4.54604 0.783108 0
M  V30 11592 H 1120.53 -4.26271 0.804727 0
M  V30 11593 H 1121.21 -5.51456 -0.245078 0
M  V30 11594 H 1123.68 -3.93593 -1.34997 0
M  V30 11595 H 1122.56 -5.03098 -2.19508 0
M  V30 11596 H 1122.82 -3.40852 -2.81554 0
M  V30 11597 N 1121.88 0.120221 -1.57141 0
M  V30 11598 C 1123.29 0.677497 -1.73974 0
M  V30 11599 C 1123.64 1.80371 -0.772055 0
M  V30 11600 O 1122.76 2.16329 0.0553062 0
M  V30 11601 C 1123.36 1.23575 -3.1546 0
M  V30 11602 C 1121.92 1.73933 -3.33803 0
M  V30 11603 C 1121.07 0.638542 -2.69848 0
M  V30 11604 H 1124.02 -0.105685 -1.58348 0
M  V30 11605 H 1124.04 2.10542 -3.16942 0
M  V30 11606 H 1123.55 0.415851 -3.85866 0
M  V30 11607 H 1121.65 2.58404 -2.68437 0
M  V30 11608 H 1121.76 1.84961 -4.41957 0
M  V30 11609 H 1120.13 1.07185 -2.31049 0
M  V30 11610 H 1120.91 -0.170356 -3.42877 0
M  V30 11611 N 1123.36 1.52689 0.390367 0
M  V30 11612 C 1124.29 1.73622 1.49626 0
M  V30 11613 C 1125.3 0.616682 1.50668 0
M  V30 11614 O 1126.49 0.892341 1.54595 0
M  V30 11615 C 1123.59 1.77859 2.88477 0
M  V30 11616 C 1122.76 3.07146 3.11416 0
M  V30 11617 C 1121.82 3.02949 4.30242 0
M  V30 11618 O 1120.85 3.76816 4.26613 0
M  V30 11619 N 1122.05 2.22039 5.36357 0
M  V30 11620 H 1124.82 2.69037 1.32057 0
M  V30 11621 H 1122.38 1.51159 0.579867 0
M  V30 11622 H 1124.37 1.72559 3.66067 0
M  V30 11623 H 1122.94 0.898367 2.99413 0
M  V30 11624 H 1122.16 3.25947 2.21703 0
M  V30 11625 H 1123.45 3.92637 3.23595 0
M  V30 11626 H 1122.84 1.6149 5.4216 0
M  V30 11627 H 1121.4 2.2258 6.12619 0
M  V30 11628 N 1124.83 -0.648732 1.43629 0
M  V30 11629 C 1126.08 -1.40579 1.45196 0
M  V30 11630 C 1126.4 -1.9484 0.0790556 0
M  V30 11631 O 1125.67 -1.74707 -0.886239 0
M  V30 11632 H 1124.25 -0.52175 0.53459 0
M  V30 11633 H 1126.92 -0.764796 1.79268 0
M  V30 11634 H 1126.01 -2.24591 2.16715 0
M  V30 11635 N 1126.31 -1.30234 -0.887518 0
M  V30 11636 C 1127.26 -1.16302 -2.01436 0
M  V30 11637 C 1128.25 -0.0755422 -1.69231 0
M  V30 11638 O 1129.46 -0.236213 -1.78443 0
M  V30 11639 H 1125.84 -0.35961 -0.660443 0
M  V30 11640 H 1127.81 -2.11677 -2.10322 0
M  V30 11641 C 1126.56 -0.869009 -3.36665 0
M  V30 11642 H 1125.88 -1.69787 -3.61956 0
M  V30 11643 H 1127.32 -0.811621 -4.16159 0
M  V30 11644 C 1125.78 0.428021 -3.3417 0
M  V30 11645 O 1126.31 1.45033 -3.74604 0
M  V30 11646 N 1124.51 0.438264 -2.87276 0
M  V30 11647 H 1124.06 -0.394142 -2.54567 0
M  V30 11648 H 1124.02 1.30604 -2.85989 0
M  V30 11649 N 1127.79 1.09952 -1.12909 0
M  V30 11650 C 1128.74 2.18525 -0.796849 0
M  V30 11651 C 1129.73 1.67985 0.218483 0
M  V30 11652 O 1130.94 1.79839 0.07618 0
M  V30 11653 H 1127.31 0.712714 -0.239882 0
M  V30 11654 H 1129.28 2.43783 -1.72083 0
M  V30 11655 C 1128.03 3.46625 -0.273237 0
M  V30 11656 H 1127.36 3.85879 -1.04582 0
M  V30 11657 H 1128.8 4.23926 -0.0791355 0
M  V30 11658 C 1127.26 3.2172 0.999903 0
M  V30 11659 O 1127.79 3.43851 2.07676 0
M  V30 11660 N 1125.99 2.75356 0.928833 0
M  V30 11661 H 1125.54 2.57547 0.052379 0
M  V30 11662 H 1125.5 2.5907 1.78129 0
M  V30 11663 N 1129.27 0.921757 1.27833 0
M  V30 11664 C 1130.52 0.559078 1.94629 0
M  V30 11665 C 1130.84 -0.898641 1.72495 0
M  V30 11666 O 1130.1 -1.65546 1.0437 0
M  V30 11667 C 1130.4 0.824259 3.47765 0
M  V30 11668 C 1130.06 2.26278 3.90011 0
M  V30 11669 C 1128.73 2.65607 4.01256 0
M  V30 11670 C 1131.08 3.19853 4.11513 0
M  V30 11671 C 1128.41 3.97646 4.31387 0
M  V30 11672 C 1130.76 4.51467 4.43126 0
M  V30 11673 C 1129.42 4.90637 4.52583 0
M  V30 11674 H 1128.69 0.204581 0.712199 0
M  V30 11675 H 1131.34 1.1646 1.52018 0
M  V30 11676 H 1129.64 0.136011 3.91564 0
M  V30 11677 H 1131.34 0.522701 3.97579 0
M  V30 11678 H 1127.93 1.94765 3.81791 0
M  V30 11679 H 1132.11 2.90674 4.02271 0
M  V30 11680 H 1127.37 4.27685 4.36916 0
M  V30 11681 H 1131.54 5.23982 4.58711 0
M  V30 11682 H 1129.17 5.92982 4.75685 0
M  V30 11683 N 1130.75 -1.41857 0.686609 0
M  V30 11684 C 1131.69 -2.30795 0.015643 0
M  V30 11685 C 1132.66 -1.46616 -0.780569 0
M  V30 11686 O 1133.85 -1.75423 -0.750424 0
M  V30 11687 C 1130.99 -3.32577 -0.921229 0
M  V30 11688 C 1130.1 -4.3184 -0.117585 0
M  V30 11689 C 1129.24 -5.20693 -1.05128 0
M  V30 11690 C 1128.28 -6.11629 -0.240018 0
M  V30 11691 N 1127.41 -6.92995 -1.12704 0
M  V30 11692 H 1132.25 -2.87615 0.77985 0
M  V30 11693 H 1129.79 -1.41661 0.396298 0
M  V30 11694 H 1131.75 -3.90129 -1.47836 0
M  V30 11695 H 1130.38 -2.77328 -1.65193 0
M  V30 11696 H 1129.43 -3.7631 0.55634 0
M  V30 11697 H 1130.74 -4.96168 0.511753 0
M  V30 11698 H 1129.9 -5.83035 -1.67795 0
M  V30 11699 H 1128.63 -4.5657 -1.71449 0
M  V30 11700 H 1127.64 -5.48345 0.399779 0
M  V30 11701 H 1128.86 -6.77805 0.419266 0
M  V30 11702 H 1126.81 -6.31489 -1.77644 0
M  V30 11703 H 1126.73 -7.53974 -0.553065 0
M  V30 11704 H 1128 -7.59813 -1.7408 0
M  V30 11705 N 1132.22 -0.430739 -1.51599 0
M  V30 11706 C 1133.47 0.137929 -2.0203 0
M  V30 11707 C 1133.8 1.43287 -1.31526 0
M  V30 11708 O 1133.05 1.9121 -0.416814 0
M  V30 11709 C 1133.35 0.410694 -3.55032 0
M  V30 11710 C 1133.02 -0.797634 -4.43789 0
M  V30 11711 C 1131.68 -1.12902 -4.67768 0
M  V30 11712 C 1134.03 -1.60403 -4.95904 0
M  V30 11713 C 1131.36 -2.2676 -5.41107 0
M  V30 11714 C 1133.71 -2.73354 -5.70491 0
M  V30 11715 C 1132.38 -3.06955 -5.92735 0
M  V30 11716 H 1131.65 0.0504718 -0.739279 0
M  V30 11717 H 1134.29 -0.576585 -1.82614 0
M  V30 11718 H 1132.6 1.20703 -3.72744 0
M  V30 11719 H 1134.3 0.864006 -3.91581 0
M  V30 11720 H 1130.89 -0.529397 -4.25318 0
M  V30 11721 H 1135.07 -1.36122 -4.77268 0
M  V30 11722 H 1130.33 -2.53114 -5.56546 0
M  V30 11723 H 1134.5 -3.36213 -6.09864 0
M  V30 11724 H 1132.13 -3.95293 -6.49344 0
M  V30 11725 N 1133.7 1.56767 -0.161869 0
M  V30 11726 C 1134.93 2.00964 0.492027 0
M  V30 11727 C 1135.35 1.04206 1.57437 0
M  V30 11728 O 1134.7 0.0413998 1.82453 0
M  V30 11729 C 1134.75 3.4502 1.07904 0
M  V30 11730 O 1134.47 4.38082 0.0399085 0
M  V30 11731 C 1135.98 4.04572 1.81209 0
M  V30 11732 H 1133.2 0.658911 0.126797 0
M  V30 11733 H 1135.74 2.0283 -0.260824 0
M  V30 11734 H 1133.89 3.43959 1.78243 0
M  V30 11735 H 1134.31 5.22372 0.471985 0
M  V30 11736 H 1135.78 5.07321 2.17554 0
M  V30 11737 H 1136.26 3.46126 2.70359 0
M  V30 11738 H 1136.87 4.09307 1.15534 0
M  V30 11739 N 1135.18 -0.111886 1.57202 0
M  V30 11740 C 1136.14 -1.12101 1.99915 0
M  V30 11741 C 1137.14 -1.33906 0.890272 0
M  V30 11742 O 1138.33 -1.30303 1.15615 0
M  V30 11743 C 1135.47 -2.47392 2.34543 0
M  V30 11744 H 1136.66 -0.753736 2.90274 0
M  V30 11745 H 1134.21 -0.35641 1.52182 0
M  V30 11746 H 1134.95 -2.89026 1.47086 0
M  V30 11747 H 1134.73 -2.32917 3.15423 0
M  V30 11748 H 1136.22 -3.20004 2.68304 0
M  V30 11749 N 1136.66 -1.52894 -0.382264 0
M  V30 11750 C 1137.59 -1.74413 -1.48703 0
M  V30 11751 C 1138.6 -0.624663 -1.50339 0
M  V30 11752 O 1139.79 -0.900527 -1.54119 0
M  V30 11753 C 1136.89 -1.79387 -2.8753 0
M  V30 11754 C 1136.07 -3.08794 -3.09783 0
M  V30 11755 C 1135.12 -3.05226 -4.2863 0
M  V30 11756 O 1134.15 -3.79073 -4.24609 0
M  V30 11757 N 1135.35 -2.2488 -5.35172 0
M  V30 11758 H 1138.12 -2.69734 -1.30628 0
M  V30 11759 H 1135.68 -1.51465 -0.571842 0
M  V30 11760 H 1137.67 -1.74498 -3.65147 0
M  V30 11761 H 1136.24 -0.914233 -2.98932 0
M  V30 11762 H 1135.46 -3.27118 -2.19971 0
M  V30 11763 H 1136.75 -3.94347 -3.21509 0
M  V30 11764 H 1136.15 -1.64363 -5.41296 0
M  V30 11765 H 1134.7 -2.25825 -6.1143 0
M  V30 11766 N 1138.14 0.641106 -1.43971 0
M  V30 11767 C 1139.1 1.73539 -1.49723 0
M  V30 11768 C 1140.1 1.56235 -0.380438 0
M  V30 11769 O 1141.29 1.61912 -0.642673 0
M  V30 11770 C 1138.42 3.1253 -1.36153 0
M  V30 11771 H 1139.62 1.69816 -2.47189 0
M  V30 11772 H 1137.17 0.853867 -1.30915 0
M  V30 11773 H 1137.9 3.21856 -0.39742 0
M  V30 11774 H 1137.69 3.26496 -2.17124 0
M  V30 11775 H 1139.18 3.92303 -1.43138 0
M  V30 11776 N 1139.62 1.30703 0.880598 0
M  V30 11777 C 1141.03 1.09129 1.1646 0
M  V30 11778 C 1141.23 -0.145131 2.00977 0
M  V30 11779 O 1140.29 -0.837502 2.38206 0
M  V30 11780 C 1141.6 2.35717 1.86703 0
M  V30 11781 C 1143.15 2.41224 1.9945 0
M  V30 11782 C 1143.62 3.67665 2.73105 0
M  V30 11783 N 1145.11 3.68498 2.80648 0
M  V30 11784 C 1145.85 4.63024 3.38225 0
M  V30 11785 N 1145.35 5.67898 3.96817 0
M  V30 11786 N 1147.14 4.50561 3.36082 0
M  V30 11787 H 1139.29 2.10019 0.317164 0
M  V30 11788 H 1141.55 0.925994 0.203072 0
M  V30 11789 H 1141.26 3.2597 1.32046 0
M  V30 11790 H 1141.13 2.447 2.87057 0
M  V30 11791 H 1143.52 1.51446 2.53275 0
M  V30 11792 H 1143.6 2.36212 0.981704 0
M  V30 11793 H 1143.24 4.57803 2.19951 0
M  V30 11794 H 1143.17 3.69939 3.7477 0
M  V30 11795 H 1145.67 2.92681 2.39053 0
M  V30 11796 H 1145.98 6.3612 4.3883 0
M  V30 11797 H 1144.32 5.71685 3.95223 0
M  V30 11798 H 1147.51 3.67811 2.89539 0
M  V30 11799 H 1147.69 5.24408 3.80657 0
M  V30 11800 N 1141.09 -1.09351 1.1349 0
M  V30 11801 C 1142.04 -2.18099 0.808426 0
M  V30 11802 C 1143.04 -1.68099 -0.209571 0
M  V30 11803 O 1144.24 -1.79877 -0.0666417 0
M  V30 11804 H 1140.62 -0.711432 0.243658 0
M  V30 11805 H 1142.59 -2.42867 1.73373 0
M  V30 11806 C 1141.34 -3.46475 0.291615 0
M  V30 11807 H 1140.66 -3.85319 1.06627 0
M  V30 11808 H 1142.1 -4.23878 0.101616 0
M  V30 11809 C 1140.56 -3.22245 -0.982827 0
M  V30 11810 O 1141.09 -3.44947 -2.0585 0
M  V30 11811 N 1139.29 -2.75845 -0.914218 0
M  V30 11812 H 1138.84 -2.57571 -0.03872 0
M  V30 11813 H 1138.8 -2.60011 -1.76753 0
M  V30 11814 N 1142.57 -0.928524 -1.27343 0
M  V30 11815 C 1143.99 -0.62889 -1.46687 0
M  V30 11816 C 1144.19 0.821592 -1.83989 0
M  V30 11817 O 1143.24 1.59941 -1.95385 0
M  V30 11818 C 1144.56 -1.57947 -2.55878 0
M  V30 11819 C 1146.1 -1.58778 -2.69738 0
M  V30 11820 C 1146.58 -2.52535 -3.82087 0
M  V30 11821 N 1148.07 -2.50747 -3.89462 0
M  V30 11822 C 1148.81 -3.19981 -4.75814 0
M  V30 11823 N 1148.3 -3.98598 -5.66649 0
M  V30 11824 N 1150.09 -3.08996 -4.69551 0
M  V30 11825 H 1142.25 -1.86625 -1.01414 0
M  V30 11826 H 1144.51 -0.801293 -0.50659 0
M  V30 11827 H 1144.21 -2.61427 -2.35264 0
M  V30 11828 H 1144.09 -1.3218 -3.53282 0
M  V30 11829 H 1146.48 -0.560292 -2.89732 0
M  V30 11830 H 1146.56 -1.88594 -1.72817 0
M  V30 11831 H 1146.2 -3.55395 -3.62846 0
M  V30 11832 H 1146.13 -2.20015 -4.78436 0
M  V30 11833 H 1148.62 -1.93651 -3.24511 0
M  V30 11834 H 1148.93 -4.4841 -6.29403 0
M  V30 11835 H 1147.28 -4.02701 -5.66442 0
M  V30 11836 H 1150.47 -2.4707 -3.97585 0
M  V30 11837 H 1150.64 -3.63223 -5.36631 0
M  V30 11838 N 1144.05 1.41491 -0.694123 0
M  V30 11839 C 1144.98 2.28189 0.0226347 0
M  V30 11840 C 1145.96 1.42152 0.7894 0
M  V30 11841 O 1147.14 1.71581 0.780519 0
M  V30 11842 C 1144.27 3.22357 1.03942 0
M  V30 11843 C 1143.32 4.24927 0.365994 0
M  V30 11844 S 1144.15 5.28043 -0.890562 0
M  V30 11845 C 1145.31 6.25776 0.124665 0
M  V30 11846 H 1145.54 2.88631 -0.712698 0
M  V30 11847 H 1143.07 1.46607 -0.484344 0
M  V30 11848 H 1145.03 3.77143 1.62091 0
M  V30 11849 H 1143.69 2.61013 1.74732 0
M  V30 11850 H 1142.88 4.9108 1.13388 0
M  V30 11851 H 1142.49 3.73729 -0.142389 0
M  V30 11852 H 1144.78 6.70398 0.978393 0
M  V30 11853 H 1145.72 7.06312 -0.502901 0
M  V30 11854 H 1146.13 5.62466 0.478792 0
M  V30 11855 N 1145.53 0.438773 1.51369 0
M  V30 11856 C 1146.44 -0.378074 2.31534 0
M  V30 11857 C 1147.45 -1.02632 1.40508 0
M  V30 11858 O 1148.63 -1.02138 1.73579 0
M  V30 11859 C 1145.69 -1.46374 3.14286 0
M  V30 11860 C 1144.76 -0.835473 4.21092 0
M  V30 11861 C 1143.99 -1.86941 4.99889 0
M  V30 11862 O 1144.21 -3.0918 4.79337 0
M  V30 11863 O 1143.15 -1.45914 5.83946 0
M  V30 11864 H 1146.97 0.276401 3.0244 0
M  V30 11865 H 1144.56 0.201281 1.48038 0
M  V30 11866 H 1146.44 -2.09335 3.65728 0
M  V30 11867 H 1145.11 -2.10227 2.46143 0
M  V30 11868 H 1144.02 -0.167775 3.73724 0
M  V30 11869 H 1145.35 -0.240406 4.91613 0
M  V30 11870 N 1147.01 -1.56678 0.170181 0
M  V30 11871 C 1147.94 -2.20916 -0.756213 0
M  V30 11872 C 1148.92 -1.16442 -1.23997 0
M  V30 11873 O 1150.1 -1.44867 -1.29333 0
M  V30 11874 C 1147.23 -2.84901 -1.98617 0
M  V30 11875 C 1146.19 -3.95403 -1.63831 0
M  V30 11876 C 1145.51 -4.46432 -2.94282 0
M  V30 11877 C 1146.81 -5.15051 -0.867195 0
M  V30 11878 H 1148.51 -2.98585 -0.220776 0
M  V30 11879 H 1146.05 -1.43619 -0.104748 0
M  V30 11880 H 1148 -3.28514 -2.63926 0
M  V30 11881 H 1146.73 -2.04598 -2.54572 0
M  V30 11882 H 1145.39 -3.52444 -1.00891 0
M  V30 11883 H 1145.04 -3.62923 -3.48276 0
M  V30 11884 H 1144.74 -5.20979 -2.71762 0
M  V30 11885 H 1146.26 -4.92731 -3.60622 0
M  V30 11886 H 1147.67 -5.55363 -1.42285 0
M  V30 11887 H 1146.07 -5.95507 -0.741065 0
M  V30 11888 H 1147.14 -4.84707 0.136693 0
M  V30 11889 N 1148.48 0.103547 -1.57259 0
M  V30 11890 C 1149.89 0.659006 -1.74683 0
M  V30 11891 C 1150.25 1.79542 -0.791142 0
M  V30 11892 O 1149.37 2.16376 0.0323585 0
M  V30 11893 C 1149.97 1.20222 -3.16752 0
M  V30 11894 C 1148.52 1.70382 -3.35629 0
M  V30 11895 C 1147.67 0.609886 -2.7051 0
M  V30 11896 H 1150.62 -0.122474 -1.58227 0
M  V30 11897 H 1150.64 2.07169 -3.19157 0
M  V30 11898 H 1150.16 0.374901 -3.86285 0
M  V30 11899 H 1148.26 2.55542 -2.71162 0
M  V30 11900 H 1148.37 1.80263 -4.43894 0
M  V30 11901 H 1146.73 1.04728 -2.32173 0
M  V30 11902 H 1147.52 -0.206713 -3.42677 0
M  V30 11903 N 1149.96 1.53094 0.37415 0
M  V30 11904 C 1150.91 1.79585 1.47824 0
M  V30 11905 C 1151.9 0.664513 1.55822 0
M  V30 11906 O 1153.11 0.84729 1.58811 0
M  V30 11907 H 1149.48 0.568474 0.492282 0
M  V30 11908 H 1151.46 2.72014 1.22681 0
M  V30 11909 C 1150.2 1.995 2.84772 0
M  V30 11910 H 1149.53 2.85991 2.79373 0
M  V30 11911 H 1150.97 2.22018 3.61226 0
M  V30 11912 C 1149.43 0.771673 3.27943 0
M  V30 11913 O 1149.96 -0.0437737 4.01676 0
M  V30 11914 N 1148.16 0.597547 2.8439 0
M  V30 11915 H 1147.71 1.26227 2.24554 0
M  V30 11916 H 1147.67 -0.219578 3.13632 0
M  V30 11917 N 1151.44 -0.633461 1.44309 0
M  V30 11918 C 1152.39 -1.74554 1.50995 0
M  V30 11919 C 1153.36 -1.62199 0.357873 0
M  V30 11920 O 1154.54 -1.82156 0.567787 0
M  V30 11921 C 1151.68 -3.12792 1.45791 0
M  V30 11922 C 1150.79 -3.3614 2.71356 0
M  V30 11923 C 1149.93 -4.64337 2.58002 0
M  V30 11924 C 1148.97 -4.80855 3.78741 0
M  V30 11925 N 1148.11 -6.00327 3.64077 0
M  V30 11926 H 1152.95 -1.68174 2.46011 0
M  V30 11927 H 1150.48 -0.820407 1.22097 0
M  V30 11928 H 1152.44 -3.92735 1.40765 0
M  V30 11929 H 1151.07 -3.18193 0.543445 0
M  V30 11930 H 1150.12 -2.50154 2.86579 0
M  V30 11931 H 1151.43 -3.44226 3.60985 0
M  V30 11932 H 1150.59 -5.52437 2.50795 0
M  V30 11933 H 1149.33 -4.58605 1.65929 0
M  V30 11934 H 1148.33 -3.91185 3.86334 0
M  V30 11935 H 1149.56 -4.88403 4.71847 0
M  V30 11936 H 1147.5 -5.9569 2.74754 0
M  V30 11937 H 1147.42 -6.09459 4.47321 0
M  V30 11938 H 1148.69 -6.90995 3.60758 0
M  V30 11939 N 1152.92 -1.31168 -0.873655 0
M  V30 11940 C 1153.87 -1.18432 -2.00191 0
M  V30 11941 C 1154.86 -0.0934873 -1.69142 0
M  V30 11942 O 1156.07 -0.255126 -1.78183 0
M  V30 11943 H 1152.44 -0.366594 -0.656592 0
M  V30 11944 H 1154.41 -2.13896 -2.08065 0
M  V30 11945 C 1153.16 -0.904668 -3.35725 0
M  V30 11946 H 1152.48 -1.73617 -3.60135 0
M  V30 11947 H 1153.92 -0.855715 -4.15275 0
M  V30 11948 C 1152.38 0.392554 -3.34605 0
M  V30 11949 O 1152.91 1.41052 -3.76121 0
M  V30 11950 N 1151.12 0.40777 -2.87725 0
M  V30 11951 H 1150.67 -0.42112 -2.54134 0
M  V30 11952 H 1150.62 1.27564 -2.87358 0
M  V30 11953 N 1154.4 1.08748 -1.14068 0
M  V30 11954 C 1155.36 2.1375 -0.827266 0
M  V30 11955 C 1156.36 1.59936 0.166496 0
M  V30 11956 O 1157.55 1.74092 -0.0614305 0
M  V30 11957 C 1154.68 3.40106 -0.232557 0
M  V30 11958 H 1155.87 2.42985 -1.7578 0
M  V30 11959 H 1153.43 1.24402 -0.946244 0
M  V30 11960 H 1154.16 3.16503 0.706859 0
M  V30 11961 H 1153.95 3.8046 -0.948293 0
M  V30 11962 H 1155.44 4.17589 -0.0303662 0
M  V30 11963 N 1155.87 0.935264 1.26849 0
M  V30 11964 C 1156.82 0.430895 2.28574 0
M  V30 11965 C 1157.82 -0.488739 1.62196 0
M  V30 11966 O 1159.02 -0.367605 1.76206 0
M  V30 11967 H 1155.4 0.120793 0.742235 0
M  V30 11968 H 1157.37 1.3015 2.68521 0
M  V30 11969 C 1156.12 -0.294053 3.46454 0
M  V30 11970 H 1155.44 0.404416 3.97749 0
M  V30 11971 H 1156.88 -0.611272 4.19571 0
M  V30 11972 C 1155.34 -1.50975 3.01178 0
M  V30 11973 O 1155.87 -2.60826 3.05504 0
M  V30 11974 N 1154.08 -1.36423 2.56587 0
M  V30 11975 H 1153.62 -0.470483 2.53267 0
M  V30 11976 H 1153.58 -2.17886 2.26656 0
M  V30 11977 N 1157.35 -1.41121 0.701616 0
M  V30 11978 C 1158.3 -2.30765 0.040121 0
M  V30 11979 C 1159.27 -1.47436 -0.764975 0
M  V30 11980 O 1160.45 -1.76209 -0.731775 0
M  V30 11981 C 1157.59 -3.33535 -0.885903 0
M  V30 11982 C 1156.71 -4.3194 -0.0717765 0
M  V30 11983 C 1155.84 -5.21779 -0.995996 0
M  V30 11984 C 1154.88 -6.11849 -0.175133 0
M  V30 11985 N 1154.02 -6.94151 -1.05348 0
M  V30 11986 H 1158.86 -2.86772 0.810312 0
M  V30 11987 H 1156.4 -1.41233 0.411301 0
M  V30 11988 H 1158.35 -3.91675 -1.4369 0
M  V30 11989 H 1156.98 -2.79065 -1.62243 0
M  V30 11990 H 1156.04 -3.75698 0.596221 0
M  V30 11991 H 1157.35 -4.95597 0.56435 0
M  V30 11992 H 1156.5 -5.84782 -1.61601 0
M  V30 11993 H 1155.24 -4.58363 -1.66597 0
M  V30 11994 H 1154.25 -5.4789 0.457916 0
M  V30 11995 H 1155.47 -6.77322 0.491133 0
M  V30 11996 H 1153.42 -6.33338 -1.70936 0
M  V30 11997 H 1153.33 -7.54518 -0.473065 0
M  V30 11998 H 1154.6 -7.61617 -1.66012 0
M  V30 11999 N 1158.83 -0.446794 -1.51134 0
M  V30 12000 C 1160.08 0.116666 -2.02464 0
M  V30 12001 C 1160.41 1.41532 -1.32975 0
M  V30 12002 O 1159.68 1.89278 -0.447651 0
M  V30 12003 C 1159.97 0.325659 -3.58624 0
M  V30 12004 C 1159.82 -0.992307 -4.38718 0
M  V30 12005 C 1161.14 1.09121 -4.26357 0
M  V30 12006 H 1158.26 0.0409262 -0.735863 0
M  V30 12007 H 1160.9 -0.587641 -1.80684 0
M  V30 12008 H 1159.05 0.925585 -3.77313 0
M  V30 12009 H 1160.72 -1.62694 -4.31658 0
M  V30 12010 H 1158.97 -1.5947 -4.03425 0
M  V30 12011 H 1159.64 -0.800005 -5.46172 0
M  V30 12012 H 1162.11 0.582944 -4.11996 0
M  V30 12013 H 1160.99 1.20621 -5.35483 0
M  V30 12014 H 1161.25 2.12171 -3.87861 0
M  V30 12015 N 1160.31 1.56586 -0.178487 0
M  V30 12016 C 1161.26 2.19631 0.765822 0
M  V30 12017 C 1162.25 1.16247 1.23219 0
M  V30 12018 O 1163.46 1.34431 1.19701 0
M  V30 12019 H 1159.83 0.703661 0.265264 0
M  V30 12020 H 1161.8 2.97659 0.210207 0
M  V30 12021 C 1160.55 2.85686 1.98188 0
M  V30 12022 H 1159.87 3.64971 1.63206 0
M  V30 12023 H 1161.31 3.33259 2.62134 0
M  V30 12024 C 1159.77 1.85837 2.81009 0
M  V30 12025 O 1160.3 1.3483 3.78396 0
M  V30 12026 N 1158.51 1.54435 2.46167 0
M  V30 12027 H 1158.06 1.96107 1.67032 0
M  V30 12028 H 1158.01 0.878808 3.01868 0
M  V30 12029 N 1161.79 -0.095206 1.57312 0
M  V30 12030 C 1163.01 -0.81227 1.90289 0
M  V30 12031 C 1163.43 -1.72287 0.772178 0
M  V30 12032 O 1162.79 -1.80698 -0.255841 0
M  V30 12033 C 1162.84 -1.62572 3.22882 0
M  V30 12034 O 1162.56 -0.75175 4.31602 0
M  V30 12035 C 1164.06 -2.44585 3.6972 0
M  V30 12036 H 1161.28 -0.232256 0.629522 0
M  V30 12037 H 1163.82 -0.0724733 2.04372 0
M  V30 12038 H 1161.98 -2.31803 3.10397 0
M  V30 12039 H 1162.39 -1.31514 5.07744 0
M  V30 12040 H 1163.87 -2.97155 4.65191 0
M  V30 12041 H 1164.34 -3.23044 2.97555 0
M  V30 12042 H 1164.95 -1.80554 3.85072 0
M  V30 12043 N 1163.26 -1.53291 -0.366026 0
M  V30 12044 C 1164.2 -1.7448 -1.47079 0
M  V30 12045 C 1165.18 -0.593147 -1.51395 0
M  V30 12046 O 1166.36 -0.825686 -1.69454 0
M  V30 12047 C 1163.49 -1.82319 -2.85443 0
M  V30 12048 C 1162.53 -3.04285 -2.98852 0
M  V30 12049 S 1163.37 -4.63812 -2.67653 0
M  V30 12050 C 1164.52 -4.74499 -4.08168 0
M  V30 12051 H 1164.75 -2.67911 -1.28884 0
M  V30 12052 H 1162.29 -1.43874 -0.560335 0
M  V30 12053 H 1164.25 -1.87521 -3.65166 0
M  V30 12054 H 1162.91 -0.899398 -3.00948 0
M  V30 12055 H 1162.1 -3.06379 -4.00185 0
M  V30 12056 H 1161.7 -2.97193 -2.27051 0
M  V30 12057 H 1163.99 -4.54527 -5.02406 0
M  V30 12058 H 1164.94 -5.76558 -4.1108 0
M  V30 12059 H 1165.34 -4.03136 -3.95147 0
M  V30 12060 N 1164.74 0.6258 -1.44643 0
M  V30 12061 C 1165.69 1.75869 -1.52226 0
M  V30 12062 C 1166.68 1.64765 -0.39355 0
M  V30 12063 O 1167.89 1.70779 -0.568718 0
M  V30 12064 H 1164.27 0.580712 -0.477784 0
M  V30 12065 H 1166.24 1.66596 -2.47565 0
M  V30 12066 C 1164.99 3.14217 -1.48873 0
M  V30 12067 H 1164.31 3.23411 -2.35043 0
M  V30 12068 H 1165.75 3.93365 -1.58239 0
M  V30 12069 C 1164.21 3.36243 -0.210299 0
M  V30 12070 O 1164.74 3.95243 0.717335 0
M  V30 12071 N 1162.94 2.90385 -0.111744 0
M  V30 12072 H 1162.49 2.42555 -0.867466 0
M  V30 12073 H 1162.45 3.05498 0.742871 0
M  V30 12074 N 1166.22 1.31629 0.866686 0
M  V30 12075 C 1167.17 1.19492 1.99561 0
M  V30 12076 C 1168.16 0.102456 1.6909 0
M  V30 12077 O 1169.37 0.264571 1.78045 0
M  V30 12078 H 1165.74 0.370071 0.654638 0
M  V30 12079 H 1167.71 2.14996 2.06928 0
M  V30 12080 C 1166.46 0.92246 3.3524 0
M  V30 12081 H 1165.79 1.75524 3.59209 0
M  V30 12082 H 1167.23 0.877726 4.14816 0
M  V30 12083 C 1165.69 -0.374803 3.34809 0
M  V30 12084 O 1166.22 -1.39055 3.76864 0
M  V30 12085 N 1164.42 -0.392506 2.87937 0
M  V30 12086 H 1163.97 0.434591 2.53908 0
M  V30 12087 H 1163.93 -1.26038 2.88031 0
M  V30 12088 N 1167.7 -1.08142 1.14644 0
M  V30 12089 C 1168.65 -2.17229 0.831513 0
M  V30 12090 C 1169.64 -1.68311 -0.19173 0
M  V30 12091 O 1170.85 -1.79937 -0.0475596 0
M  V30 12092 H 1167.22 -0.708807 0.25119 0
M  V30 12093 H 1169.19 -2.41014 1.75939 0
M  V30 12094 C 1167.94 -3.46146 0.328347 0
M  V30 12095 H 1167.27 -3.84166 1.10708 0
M  V30 12096 H 1168.71 -4.23747 0.146568 0
M  V30 12097 C 1167.16 -3.2327 -0.948594 0
M  V30 12098 O 1167.69 -3.47111 -2.0218 0
M  V30 12099 N 1165.9 -2.76799 -0.884909 0
M  V30 12100 H 1165.45 -2.57597 -0.011399 0
M  V30 12101 H 1165.41 -2.61871 -1.73985 0
M  V30 12102 N 1169.18 -0.941978 -1.26351 0
M  V30 12103 C 1170.11 -0.396486 -2.24729 0
M  V30 12104 C 1171.09 0.51514 -1.54224 0
M  V30 12105 O 1172.27 0.452405 -1.82991 0
M  V30 12106 C 1169.4 0.430232 -3.35956 0
M  V30 12107 C 1168.45 -0.419981 -4.24427 0
M  V30 12108 S 1169.28 -1.84442 -5.02734 0
M  V30 12109 C 1170.43 -1.02578 -6.17437 0
M  V30 12110 H 1170.67 -1.23025 -2.70651 0
M  V30 12111 H 1168.2 -0.745148 -1.35229 0
M  V30 12112 H 1170.16 0.901315 -4.00483 0
M  V30 12113 H 1168.82 1.23868 -2.88644 0
M  V30 12114 H 1168.01 0.213475 -5.03548 0
M  V30 12115 H 1167.61 -0.82578 -3.6477 0
M  V30 12116 H 1169.91 -0.268431 -6.76968 0
M  V30 12117 H 1170.85 -1.79047 -6.85089 0
M  V30 12118 H 1171.26 -0.561488 -5.61701 0
M  V30 12119 N 1170.66 1.40747 -0.709091 0
M  V30 12120 C 1171.6 2.32564 -0.0411392 0
M  V30 12121 C 1172.6 1.51692 0.75404 0
M  V30 12122 O 1173.8 1.67537 0.658139 0
M  V30 12123 H 1170.18 0.75198 0.00549889 0
M  V30 12124 H 1172.15 2.86556 -0.83235 0
M  V30 12125 C 1170.9 3.36604 0.871378 0
M  V30 12126 H 1170.22 3.98895 0.268912 0
M  V30 12127 H 1171.66 4.03359 1.30682 0
M  V30 12128 C 1170.12 2.71566 1.99384 0
M  V30 12129 O 1170.65 2.57392 3.08403 0
M  V30 12130 N 1168.86 2.3005 1.77554 0
M  V30 12131 H 1168.4 2.41778 0.888898 0
M  V30 12132 H 1168.36 1.8687 2.52838 0
M  V30 12133 N 1172.13 0.454803 1.50895 0
M  V30 12134 C 1173.38 -0.105927 2.02523 0
M  V30 12135 C 1173.71 -1.40825 1.33724 0
M  V30 12136 O 1172.99 -1.89038 0.457683 0
M  V30 12137 C 1173.27 -0.306635 3.58792 0
M  V30 12138 C 1173.12 1.01556 4.38185 0
M  V30 12139 C 1174.44 -1.06858 4.2693 0
M  V30 12140 H 1171.56 -0.0370232 0.736069 0
M  V30 12141 H 1174.2 0.597215 1.8037 0
M  V30 12142 H 1172.35 -0.905563 3.77799 0
M  V30 12143 H 1174.03 1.64981 4.30789 0
M  V30 12144 H 1172.27 1.61608 4.02574 0
M  V30 12145 H 1172.94 0.828959 5.4574 0
M  V30 12146 H 1175.42 -0.561086 4.123 0
M  V30 12147 H 1174.29 -1.1778 5.36115 0
M  V30 12148 H 1174.55 -2.10111 3.8898 0
M  V30 12149 N 1173.61 -1.56489 0.186789 0
M  V30 12150 C 1174.56 -2.20034 -0.754164 0
M  V30 12151 C 1175.55 -1.16899 -1.22601 0
M  V30 12152 O 1176.76 -1.35064 -1.18987 0
M  V30 12153 H 1173.13 -0.705058 -0.261529 0
M  V30 12154 H 1175.11 -2.97766 -0.194418 0
M  V30 12155 C 1173.85 -2.86733 -1.9667 0
M  V30 12156 H 1173.18 -3.65831 -1.61268 0
M  V30 12157 H 1174.62 -3.34645 -2.60363 0
M  V30 12158 C 1173.08 -1.87325 -2.8002 0
M  V30 12159 O 1173.61 -1.36835 -3.77676 0
M  V30 12160 N 1171.81 -1.55738 -2.45345 0
M  V30 12161 H 1171.36 -1.9699 -1.6599 0
M  V30 12162 H 1171.32 -0.894805 -3.01398 0
M  V30 12163 N 1175.09 0.086862 -1.5736 0
M  V30 12164 C 1176.34 0.78884 -1.86504 0
M  V30 12165 C 1176.66 1.78329 -0.77646 0
M  V30 12166 O 1175.92 1.94354 0.229122 0
M  V30 12167 C 1176.22 1.54537 -3.22263 0
M  V30 12168 C 1175.88 0.692284 -4.45554 0
M  V30 12169 C 1174.55 0.45714 -4.79024 0
M  V30 12170 C 1176.9 0.0997695 -5.21105 0
M  V30 12171 C 1174.23 -0.380247 -5.85466 0
M  V30 12172 C 1176.58 -0.724986 -6.28432 0
M  V30 12173 C 1175.24 -0.970144 -6.60412 0
M  V30 12174 H 1174.51 0.288657 -0.682465 0
M  V30 12175 H 1177.16 0.050059 -1.91435 0
M  V30 12176 H 1175.46 2.35594 -3.13053 0
M  V30 12177 H 1177.16 2.09305 -3.42042 0
M  V30 12178 H 1173.75 0.885675 -4.19349 0
M  V30 12179 H 1177.94 0.268583 -4.95573 0
M  V30 12180 H 1173.19 -0.579084 -6.08651 0
M  V30 12181 H 1177.37 -1.19093 -6.86141 0
M  V30 12182 H 1174.99 -1.6208 -7.42721 0
M  V30 12183 N 1176.57 1.53483 0.357892 0
M  V30 12184 C 1177.52 1.81143 1.45911 0
M  V30 12185 C 1178.51 0.681002 1.55109 0
M  V30 12186 O 1179.72 0.864086 1.57904 0
M  V30 12187 H 1176.09 0.573663 0.486225 0
M  V30 12188 H 1178.06 2.733 1.19789 0
M  V30 12189 C 1176.81 2.02509 2.8264 0
M  V30 12190 H 1176.13 2.88938 2.76324 0
M  V30 12191 H 1177.57 2.25837 3.58851 0
M  V30 12192 C 1176.03 0.806412 3.27106 0
M  V30 12193 O 1176.56 -0.00116809 4.017 0
M  V30 12194 N 1174.77 0.627677 2.8374 0
M  V30 12195 H 1174.32 1.28601 2.23203 0
M  V30 12196 H 1174.27 -0.186301 3.13848 0
M  V30 12197 N 1178.05 -0.61812 1.44973 0
M  V30 12198 C 1178.99 -1.75059 1.53157 0
M  V30 12199 C 1179.99 -1.64554 0.402282 0
M  V30 12200 O 1181.19 -1.70475 0.577767 0
M  V30 12201 H 1177.57 -0.57817 0.480856 0
M  V30 12202 H 1179.54 -1.65281 2.48445 0
M  V30 12203 C 1178.29 -3.13423 1.50538 0
M  V30 12204 H 1177.61 -3.2216 2.36755 0
M  V30 12205 H 1179.05 -3.92521 1.60323 0
M  V30 12206 C 1177.51 -3.36127 0.228127 0
M  V30 12207 O 1178.04 -3.95618 -0.696364 0
M  V30 12208 N 1176.25 -2.90322 0.127142 0
M  V30 12209 H 1175.79 -2.42091 0.880317 0
M  V30 12210 H 1175.75 -3.05887 -0.726659 0
M  V30 12211 N 1179.52 -1.32087 -0.859693 0
M  V30 12212 C 1180.47 -1.20549 -1.98924 0
M  V30 12213 C 1181.47 -0.111422 -1.69033 0
M  V30 12214 O 1182.67 -0.27401 -1.77902 0
M  V30 12215 H 1179.05 -0.373538 -0.652667 0
M  V30 12216 H 1181.02 -2.16091 -2.05785 0
M  V30 12217 C 1179.77 -0.940226 -3.34746 0
M  V30 12218 H 1179.09 -1.77427 -3.58273 0
M  V30 12219 H 1180.53 -0.899712 -4.14344 0
M  V30 12220 C 1178.99 0.357042 -3.35003 0
M  V30 12221 O 1179.52 1.37054 -3.77596 0
M  V30 12222 N 1177.72 0.37723 -2.88141 0
M  V30 12223 H 1177.27 -0.448051 -2.53674 0
M  V30 12224 H 1177.23 1.24509 -2.88695 0
M  V30 12225 N 1181 1.07532 -1.15215 0
M  V30 12226 C 1182.23 1.84356 -0.950139 0
M  V30 12227 C 1182.65 1.81429 0.496502 0
M  V30 12228 O 1182.01 1.20589 1.35381 0
M  V30 12229 C 1182.06 3.29425 -1.46669 0
M  V30 12230 O 1181.16 4.07008 -0.664674 0
M  V30 12231 H 1180.5 0.570921 -0.339036 0
M  V30 12232 H 1183.03 1.35665 -1.53154 0
M  V30 12233 H 1183.04 3.8026 -1.47873 0
M  V30 12234 H 1181.72 3.3087 -2.51988 0
M  V30 12235 H 1180.29 3.65841 -0.72211 0
M  V30 12236 N 1182.48 0.948665 1.2585 0
M  V30 12237 C 1183.71 0.617229 1.97479 0
M  V30 12238 C 1184.12 -0.809406 1.7057 0
M  V30 12239 O 1183.48 -1.54066 0.97826 0
M  V30 12240 C 1183.53 0.859065 3.51144 0
M  V30 12241 O 1183.25 2.2296 3.77121 0
M  V30 12242 C 1184.75 0.539197 4.40009 0
M  V30 12243 H 1181.97 0.231933 0.629641 0
M  V30 12244 H 1184.52 1.27141 1.60173 0
M  V30 12245 H 1182.67 0.25138 3.86584 0
M  V30 12246 H 1183.09 2.29524 4.71613 0
M  V30 12247 H 1184.56 0.758986 5.46757 0
M  V30 12248 H 1185.04 -0.526062 4.36038 0
M  V30 12249 H 1185.64 1.12594 4.10125 0
M  V30 12250 N 1183.96 -1.40369 0.716545 0
M  V30 12251 C 1184.89 -2.33365 0.0793533 0
M  V30 12252 C 1185.87 -1.52943 -0.744482 0
M  V30 12253 O 1187.05 -1.81406 -0.693212 0
M  V30 12254 C 1184.18 -3.36928 -0.842429 0
M  V30 12255 C 1183.14 -4.2782 -0.124142 0
M  V30 12256 C 1182.46 -5.21928 -1.1617 0
M  V30 12257 C 1183.76 -5.12199 1.02224 0
M  V30 12258 H 1185.46 -2.86899 0.856115 0
M  V30 12259 H 1183 -1.37946 0.413138 0
M  V30 12260 H 1184.96 -4.00925 -1.29759 0
M  V30 12261 H 1183.68 -2.81791 -1.6511 0
M  V30 12262 H 1182.34 -3.65277 0.311201 0
M  V30 12263 H 1181.99 -4.63096 -1.96345 0
M  V30 12264 H 1181.69 -5.83582 -0.685978 0
M  V30 12265 H 1183.21 -5.88802 -1.61694 0
M  V30 12266 H 1184.63 -5.69644 0.646399 0
M  V30 12267 H 1183.02 -5.82901 1.4264 0
M  V30 12268 H 1184.09 -4.4812 1.85246 0
M  V30 12269 N 1185.44 -0.462799 -1.50652 0
M  V30 12270 C 1186.66 0.0929761 -2.06691 0
M  V30 12271 C 1187.08 1.34241 -1.32758 0
M  V30 12272 O 1186.44 1.78187 -0.394427 0
M  V30 12273 C 1186.49 0.389492 -3.59396 0
M  V30 12274 O 1186.21 -0.810379 -4.3054 0
M  V30 12275 C 1187.71 0.993147 -4.32032 0
M  V30 12276 H 1184.93 -0.00338664 -0.670991 0
M  V30 12277 H 1187.47 -0.649201 -1.93922 0
M  V30 12278 H 1185.63 1.08159 -3.71995 0
M  V30 12279 H 1186.04 -0.54996 -5.21609 0
M  V30 12280 H 1187.52 1.15044 -5.39878 0
M  V30 12281 H 1187.99 1.98106 -3.91983 0
M  V30 12282 H 1188.6 0.339677 -4.23941 0
M  V30 12283 N 1186.91 1.56388 -0.195085 0
M  V30 12284 C 1187.88 2.17859 0.712053 0
M  V30 12285 C 1188.88 1.13304 1.141 0
M  V30 12286 O 1190.07 1.38689 1.05409 0
M  V30 12287 C 1187.2 2.78065 1.97213 0
M  V30 12288 H 1188.39 2.9938 0.176529 0
M  V30 12289 H 1185.95 1.56205 0.0545322 0
M  V30 12290 H 1186.68 2.00342 2.55017 0
M  V30 12291 H 1186.47 3.54603 1.67329 0
M  V30 12292 H 1187.96 3.25266 2.619 0
M  V30 12293 N 1188.39 -0.0785156 1.57404 0
M  V30 12294 C 1189.36 -1.07835 2.02248 0
M  V30 12295 C 1190.36 -1.31987 0.918475 0
M  V30 12296 O 1191.55 -1.27821 1.18353 0
M  V30 12297 C 1188.68 -2.42361 2.39737 0
M  V30 12298 H 1189.87 -0.691995 2.91807 0
M  V30 12299 H 1187.42 -0.32405 1.52904 0
M  V30 12300 H 1188.16 -2.85841 1.53183 0
M  V30 12301 H 1187.94 -2.26174 3.20293 0
M  V30 12302 H 1189.43 -3.14241 2.75031 0
M  V30 12303 N 1189.87 -1.5367 -0.349747 0
M  V30 12304 C 1190.83 -1.80533 -1.41211 0
M  V30 12305 C 1191.83 -0.676188 -1.45892 0
M  V30 12306 O 1193.02 -0.944453 -1.46375 0
M  V30 12307 C 1190.16 -1.94175 -2.80195 0
M  V30 12308 H 1191.35 -2.75428 -1.18658 0
M  V30 12309 H 1188.9 -1.44988 -0.583787 0
M  V30 12310 H 1189.64 -1.01402 -3.08039 0
M  V30 12311 H 1189.42 -2.76316 -2.78194 0
M  V30 12312 H 1190.91 -2.16496 -3.57098 0
M  V30 12313 N 1191.35 0.610423 -1.45298 0
M  V30 12314 C 1192.28 1.73207 -1.56594 0
M  V30 12315 C 1193.26 1.64893 -0.417651 0
M  V30 12316 O 1194.44 1.83336 -0.64043 0
M  V30 12317 C 1191.57 3.11803 -1.52959 0
M  V30 12318 C 1190.53 3.34925 -2.66475 0
M  V30 12319 C 1189.85 4.73764 -2.47894 0
M  V30 12320 C 1191.15 3.25456 -4.08504 0
M  V30 12321 H 1192.85 1.6401 -2.50482 0
M  V30 12322 H 1190.39 0.787621 -1.20551 0
M  V30 12323 H 1192.35 3.90065 -1.59458 0
M  V30 12324 H 1191.07 3.21833 -0.55599 0
M  V30 12325 H 1189.73 2.59051 -2.59399 0
M  V30 12326 H 1189.38 4.80524 -1.4868 0
M  V30 12327 H 1189.08 4.90191 -3.24016 0
M  V30 12328 H 1190.6 5.54231 -2.56243 0
M  V30 12329 H 1192.02 3.93597 -4.16839 0
M  V30 12330 H 1190.41 3.53414 -4.84994 0
M  V30 12331 H 1191.48 2.22939 -4.30612 0
M  V30 12332 N 1192.83 1.32541 0.852676 0
M  V30 12333 C 1193.79 1.21578 1.94297 0
M  V30 12334 C 1194.79 0.138318 1.60204 0
M  V30 12335 O 1195.98 0.388864 1.69804 0
M  V30 12336 C 1193.11 0.870209 3.29606 0
M  V30 12337 H 1194.3 2.18476 2.05446 0
M  V30 12338 H 1191.86 1.16401 1.0431 0
M  V30 12339 H 1192.59 -0.0968698 3.24155 0
M  V30 12340 H 1192.38 1.64924 3.55728 0
M  V30 12341 H 1193.87 0.817874 4.09513 0
M  V30 12342 N 1194.3 -1.0692 1.15784 0
M  V30 12343 C 1195.53 -1.83849 0.959903 0
M  V30 12344 C 1195.95 -1.8169 -0.486873 0
M  V30 12345 O 1195.31 -1.21305 -1.34739 0
M  V30 12346 C 1195.36 -3.28642 1.48414 0
M  V30 12347 O 1194.46 -4.0665 0.686249 0
M  V30 12348 H 1193.81 -0.569115 0.342059 0
M  V30 12349 H 1196.34 -1.34851 1.53871 0
M  V30 12350 H 1196.35 -3.7947 1.49888 0
M  V30 12351 H 1195.02 -3.29529 2.53739 0
M  V30 12352 H 1193.6 -3.65453 0.741501 0
M  V30 12353 N 1195.78 -0.955326 -1.25345 0
M  V30 12354 C 1196.75 -0.480564 -2.24105 0
M  V30 12355 C 1197.75 0.416123 -1.55322 0
M  V30 12356 O 1198.94 0.213315 -1.72889 0
M  V30 12357 C 1196.07 0.305589 -3.39528 0
M  V30 12358 H 1197.26 -1.35349 -2.6762 0
M  V30 12359 H 1194.81 -0.738673 -1.37744 0
M  V30 12360 H 1195.55 1.19615 -3.01434 0
M  V30 12361 H 1195.33 -0.337719 -3.90643 0
M  V30 12362 H 1196.82 0.627201 -4.12863 0
M  V30 12363 N 1197.26 1.39987 -0.723979 0
M  V30 12364 C 1198.67 1.83606 -0.338461 0
M  V30 12365 C 1199.02 1.6051 1.12831 0
M  V30 12366 O 1198.15 1.09041 1.8692 0
M  V30 12367 C 1198.74 3.33308 -0.607533 0
M  V30 12368 C 1197.3 3.75389 -0.275632 0
M  V30 12369 C 1196.45 2.6311 -0.875699 0
M  V30 12370 H 1199.4 1.29135 -0.922483 0
M  V30 12371 H 1199.42 3.80297 0.124424 0
M  V30 12372 H 1198.93 3.50087 -1.67514 0
M  V30 12373 H 1197.03 3.64203 0.786579 0
M  V30 12374 H 1197.15 4.73185 -0.750492 0
M  V30 12375 H 1195.51 2.5289 -0.303122 0
M  V30 12376 H 1196.29 2.82698 -1.94774 0
M  V30 12377 N 1198.74 0.470782 1.50404 0
M  V30 12378 C 1200.15 0.0155901 1.86693 0
M  V30 12379 C 1200.5 -1.38908 1.38561 0
M  V30 12380 O 1199.63 -2.02971 0.750454 0
M  V30 12381 C 1200.22 0.0215152 3.38793 0
M  V30 12382 C 1198.78 -0.378206 3.74495 0
M  V30 12383 C 1197.93 0.407126 2.74295 0
M  V30 12384 H 1200.88 0.68507 1.43152 0
M  V30 12385 H 1200.9 -0.780717 3.72404 0
M  V30 12386 H 1200.41 1.04397 3.73795 0
M  V30 12387 H 1198.51 -1.40503 3.45094 0
M  V30 12388 H 1198.63 -0.0797643 4.79034 0
M  V30 12389 H 1196.99 -0.139123 2.5432 0
M  V30 12390 H 1197.77 1.42909 3.12141 0
M  V30 12391 N 1200.22 -1.56282 0.203376 0
M  V30 12392 C 1201.44 -2.02643 -0.441658 0
M  V30 12393 C 1201.87 -1.0825 -1.5383 0
M  V30 12394 O 1201.23 -0.0674337 -1.81175 0
M  V30 12395 C 1201.27 -3.47382 -0.967369 0
M  V30 12396 O 1200.38 -3.56115 -2.07981 0
M  V30 12397 H 1199.72 -0.656081 -0.102242 0
M  V30 12398 H 1202.25 -2.02134 0.316684 0
M  V30 12399 H 1202.26 -3.8734 -1.28186 0
M  V30 12400 H 1200.93 -4.15574 -0.164625 0
M  V30 12401 H 1199.51 -3.28035 -1.77334 0
M  V30 12402 N 1201.7 0.070167 -1.57444 0
M  V30 12403 C 1202.63 1.11509 -1.991 0
M  V30 12404 C 1203.61 1.37481 -0.868194 0
M  V30 12405 O 1204.79 1.50827 -1.13064 0
M  V30 12406 C 1201.92 2.45908 -2.3291 0
M  V30 12407 C 1200.96 2.36059 -3.55216 0
M  V30 12408 S 1201.8 1.75316 -5.05989 0
M  V30 12409 C 1202.95 3.11289 -5.43001 0
M  V30 12410 H 1203.19 0.760096 -2.87419 0
M  V30 12411 H 1200.72 0.278756 -1.51863 0
M  V30 12412 H 1202.68 3.23217 -2.53063 0
M  V30 12413 H 1201.34 2.78567 -1.45117 0
M  V30 12414 H 1200.53 3.35176 -3.76395 0
M  V30 12415 H 1200.13 1.66886 -3.34701 0
M  V30 12416 H 1202.42 4.07603 -5.41171 0
M  V30 12417 H 1203.37 2.94888 -6.43775 0
M  V30 12418 H 1203.78 3.11969 -4.70463 0
M  V30 12419 N 1203.17 1.53854 0.341593 0
M  V30 12420 C 1204.11 1.78295 1.44027 0
M  V30 12421 C 1205.12 0.664303 1.4863 0
M  V30 12422 O 1206.31 0.941073 1.51678 0
M  V30 12423 C 1203.41 1.86947 2.82673 0
M  V30 12424 C 1202.58 3.16898 3.01487 0
M  V30 12425 C 1201.64 3.16483 4.20386 0
M  V30 12426 O 1200.67 3.90197 4.14409 0
M  V30 12427 N 1201.87 2.3899 5.29022 0
M  V30 12428 H 1204.63 2.73102 1.23431 0
M  V30 12429 H 1202.19 1.52928 0.531483 0
M  V30 12430 H 1204.19 1.84118 3.60392 0
M  V30 12431 H 1202.76 0.993169 2.96403 0
M  V30 12432 H 1201.98 3.32835 2.11221 0
M  V30 12433 H 1203.26 4.02733 3.1094 0
M  V30 12434 H 1202.66 1.78657 5.36748 0
M  V30 12435 H 1201.22 2.41957 6.05227 0
M  V30 12436 N 1204.65 -0.602709 1.4562 0
M  V30 12437 C 1205.6 -1.71312 1.54664 0
M  V30 12438 C 1206.57 -1.61403 0.392197 0
M  V30 12439 O 1207.75 -1.80911 0.606297 0
M  V30 12440 C 1204.89 -3.09629 1.52393 0
M  V30 12441 C 1204.01 -3.30308 2.78425 0
M  V30 12442 C 1203.14 -4.5876 2.67793 0
M  V30 12443 C 1202.18 -4.72713 3.88855 0
M  V30 12444 N 1201.32 -5.92469 3.76729 0
M  V30 12445 H 1206.16 -1.62918 2.49523 0
M  V30 12446 H 1203.69 -0.794324 1.2381 0
M  V30 12447 H 1205.65 -3.89661 1.49064 0
M  V30 12448 H 1204.28 -3.16968 0.610816 0
M  V30 12449 H 1203.33 -2.44018 2.9182 0
M  V30 12450 H 1204.65 -3.36491 3.68205 0
M  V30 12451 H 1203.8 -5.46993 2.62457 0
M  V30 12452 H 1202.54 -4.54983 1.75619 0
M  V30 12453 H 1201.54 -3.82903 3.94545 0
M  V30 12454 H 1202.77 -4.78284 4.82101 0
M  V30 12455 H 1200.72 -5.89728 2.87328 0
M  V30 12456 H 1200.63 -5.99833 4.60148 0
M  V30 12457 H 1201.9 -6.83187 3.75334 0
M  V30 12458 N 1206.13 -1.32992 -0.845635 0
M  V30 12459 C 1207.06 -1.18513 -1.96182 0
M  V30 12460 C 1208.07 -0.11781 -1.62373 0
M  V30 12461 O 1209.26 -0.36761 -1.74674 0
M  V30 12462 C 1206.36 -0.793812 -3.29472 0
M  V30 12463 C 1205.54 -1.95134 -3.91461 0
M  V30 12464 C 1204.6 -1.54209 -5.03096 0
M  V30 12465 O 1203.62 -2.25545 -5.22607 0
M  V30 12466 N 1204.82 -0.443235 -5.78805 0
M  V30 12467 H 1207.59 -2.14663 -2.09141 0
M  V30 12468 H 1205.15 -1.25648 -1.02099 0
M  V30 12469 H 1207.14 -0.502263 -4.01571 0
M  V30 12470 H 1205.71 0.0768031 -3.12506 0
M  V30 12471 H 1204.93 -2.40889 -3.12035 0
M  V30 12472 H 1206.22 -2.72604 -4.2961 0
M  V30 12473 H 1205.62 0.150298 -5.655 0
M  V30 12474 H 1204.17 -0.211331 -6.51457 0
M  V30 12475 N 1207.61 1.06304 -1.1635 0
M  V30 12476 C 1208.85 1.79366 -0.94634 0
M  V30 12477 C 1209.19 1.86981 0.524569 0
M  V30 12478 O 1208.46 1.36134 1.38917 0
M  V30 12479 C 1208.74 3.23861 -1.57436 0
M  V30 12480 C 1208.6 3.24327 -3.1166 0
M  V30 12481 C 1209.92 4.21409 -1.26895 0
M  V30 12482 H 1207.04 0.65115 -0.345215 0
M  V30 12483 H 1209.68 1.24325 -1.43678 0
M  V30 12484 H 1207.83 3.70862 -1.15731 0
M  V30 12485 H 1209.5 2.85488 -3.62346 0
M  V30 12486 H 1207.74 2.62983 -3.44997 0
M  V30 12487 H 1208.41 4.2626 -3.50723 0
M  V30 12488 H 1210.89 3.8285 -1.62989 0
M  V30 12489 H 1209.77 5.20778 -1.73439 0
M  V30 12490 H 1210.03 4.41701 -0.187768 0
M  V30 12491 N 1209.09 0.96196 1.24836 0
M  V30 12492 C 1210.02 0.506241 2.27946 0
M  V30 12493 C 1211 -0.451183 1.64007 0
M  V30 12494 O 1212.18 -0.348552 1.91046 0
M  V30 12495 C 1209.31 -0.209846 3.46665 0
M  V30 12496 C 1208.27 0.663035 4.22833 0
M  V30 12497 C 1207.59 -0.184216 5.34383 0
M  V30 12498 C 1208.89 1.94479 4.84742 0
M  V30 12499 H 1210.59 1.36805 2.66317 0
M  V30 12500 H 1208.13 0.65926 1.28023 0
M  V30 12501 H 1210.08 -0.539838 4.17928 0
M  V30 12502 H 1208.81 -1.10596 3.07305 0
M  V30 12503 H 1207.47 0.976216 3.53363 0
M  V30 12504 H 1207.12 -1.08031 4.91262 0
M  V30 12505 H 1206.82 0.39657 5.8626 0
M  V30 12506 H 1208.34 -0.509009 6.08475 0
M  V30 12507 H 1209.75 1.68074 5.48109 0
M  V30 12508 H 1208.15 2.47183 5.46828 0
M  V30 12509 H 1209.22 2.64332 4.06517 0
M  V30 12510 N 1210.56 -1.39601 0.731392 0
M  V30 12511 C 1211.81 -2.0019 0.277208 0
M  V30 12512 C 1212.13 -1.5832 -1.13841 0
M  V30 12513 O 1211.4 -0.829793 -1.77458 0
M  V30 12514 H 1209.98 -0.740344 0.0995006 0
M  V30 12515 H 1212.64 -1.70704 0.940547 0
M  V30 12516 H 1211.74 -3.10427 0.322749 0
M  V30 12517 N 1212.04 -0.478751 -1.50152 0
M  V30 12518 C 1212.95 0.316554 -2.32455 0
M  V30 12519 C 1213.97 0.98871 -1.4318 0
M  V30 12520 O 1215.14 0.974998 -1.76226 0
M  V30 12521 C 1212.21 1.3799 -3.18056 0
M  V30 12522 C 1211.27 0.723534 -4.23159 0
M  V30 12523 C 1210.5 1.73621 -5.0467 0
M  V30 12524 O 1210.73 2.96362 -4.87366 0
M  V30 12525 O 1209.66 1.30381 -5.87609 0
M  V30 12526 H 1213.49 -0.356491 -3.016 0
M  V30 12527 H 1211.07 -0.24046 -1.47452 0
M  V30 12528 H 1212.95 1.99565 -3.71149 0
M  V30 12529 H 1211.63 2.03627 -2.5163 0
M  V30 12530 H 1210.54 0.0686296 -3.74037 0
M  V30 12531 H 1211.87 0.109979 -4.92077 0
M  V30 12532 N 1213.52 1.56172 -0.211661 0
M  V30 12533 C 1214.47 2.21206 0.719063 0
M  V30 12534 C 1215.46 1.18835 1.20725 0
M  V30 12535 O 1216.67 1.36939 1.16823 0
M  V30 12536 H 1213.04 0.709129 0.250279 0
M  V30 12537 H 1215.01 2.98038 0.147022 0
M  V30 12538 C 1213.76 2.89826 1.92084 0
M  V30 12539 H 1213.09 3.68351 1.55428 0
M  V30 12540 H 1214.53 3.38744 2.55006 0
M  V30 12541 C 1212.99 1.91756 2.77004 0
M  V30 12542 O 1213.52 1.42826 3.75451 0
M  V30 12543 N 1211.72 1.59622 2.42836 0
M  V30 12544 H 1211.27 1.99606 1.62835 0
M  V30 12545 H 1211.23 0.942641 2.99936 0
M  V30 12546 N 1215 -0.0618163 1.57479 0
M  V30 12547 C 1215.93 -1.07252 2.07411 0
M  V30 12548 C 1216.91 -1.39756 0.969649 0
M  V30 12549 O 1218.09 -1.4921 1.24298 0
M  V30 12550 C 1215.22 -2.38313 2.52635 0
M  V30 12551 C 1214.18 -2.20136 3.67048 0
M  V30 12552 C 1213.5 -3.56668 3.98361 0
M  V30 12553 C 1214.8 -1.61437 4.96725 0
M  V30 12554 H 1216.5 -0.656983 2.92103 0
M  V30 12555 H 1214.04 -0.314579 1.40522 0
M  V30 12556 H 1216 -3.09319 2.86181 0
M  V30 12557 H 1214.72 -2.81865 1.64984 0
M  V30 12558 H 1213.38 -1.51569 3.338 0
M  V30 12559 H 1213.03 -3.97809 3.07826 0
M  V30 12560 H 1212.73 -3.45342 4.75408 0
M  V30 12561 H 1214.25 -4.2909 4.34413 0
M  V30 12562 H 1215.67 -2.2232 5.28438 0
M  V30 12563 H 1214.06 -1.60779 5.78161 0
M  V30 12564 H 1215.13 -0.576795 4.81457 0
M  V30 12565 N 1216.48 -1.54033 -0.333429 0
M  V30 12566 C 1217.72 -1.71765 -1.07252 0
M  V30 12567 C 1218.05 -0.486135 -1.88327 0
M  V30 12568 O 1217.31 0.532135 -1.88326 0
M  V30 12569 C 1217.61 -2.93926 -2.03328 0
M  V30 12570 C 1217.27 -4.29107 -1.38486 0
M  V30 12571 C 1215.93 -4.6586 -1.20532 0
M  V30 12572 C 1218.29 -5.13041 -0.918624 0
M  V30 12573 C 1215.61 -5.84155 -0.545881 0
M  V30 12574 C 1217.97 -6.3201 -0.273055 0
M  V30 12575 C 1216.63 -6.67451 -0.0812815 0
M  V30 12576 H 1215.9 -0.628532 -0.392464 0
M  V30 12577 H 1218.55 -1.88261 -0.350709 0
M  V30 12578 H 1216.85 -2.72075 -2.81926 0
M  V30 12579 H 1218.55 -3.0484 -2.60526 0
M  V30 12580 H 1215.14 -4.00185 -1.5346 0
M  V30 12581 H 1219.32 -4.8517 -1.04515 0
M  V30 12582 H 1214.58 -6.1018 -0.386009 0
M  V30 12583 H 1218.75 -6.96333 0.0962582 0
M  V30 12584 H 1216.38 -7.58973 0.431734 0
M  V30 12585 N 1217.95 0.594978 -1.45938 0
M  V30 12586 C 1219.37 1.17703 -1.44924 0
M  V30 12587 C 1219.72 1.9534 -0.183522 0
M  V30 12588 O 1218.84 2.04276 0.714163 0
M  V30 12589 C 1219.44 2.14119 -2.62561 0
M  V30 12590 C 1218 2.67674 -2.64627 0
M  V30 12591 C 1217.14 1.43312 -2.37397 0
M  V30 12592 H 1220.09 0.383583 -1.53995 0
M  V30 12593 H 1220.11 2.97374 -2.3738 0
M  V30 12594 H 1219.63 1.57586 -3.54667 0
M  V30 12595 H 1217.73 3.28111 -1.76562 0
M  V30 12596 H 1217.84 3.11246 -3.64229 0
M  V30 12597 H 1216.2 1.72702 -1.87206 0
M  V30 12598 H 1216.99 0.886276 -3.31663 0
M  V30 12599 N 1219.43 1.33438 0.838571 0
M  V30 12600 C 1220.36 1.26344 1.96365 0
M  V30 12601 C 1221.34 0.143956 1.6949 0
M  V30 12602 O 1222.53 0.333779 1.9131 0
M  V30 12603 C 1219.66 1.0022 3.32526 0
M  V30 12604 C 1218.61 2.08466 3.73799 0
M  V30 12605 C 1217.94 1.67555 5.07769 0
M  V30 12606 C 1219.24 3.50144 3.87552 0
M  V30 12607 H 1220.93 2.20478 2.02558 0
M  V30 12608 H 1218.48 1.06139 0.973168 0
M  V30 12609 H 1220.43 0.939068 4.10803 0
M  V30 12610 H 1219.16 0.0252514 3.2659 0
M  V30 12611 H 1217.81 2.13822 2.97785 0
M  V30 12612 H 1217.46 0.685619 4.98305 0
M  V30 12613 H 1217.16 2.39993 5.36356 0
M  V30 12614 H 1218.69 1.62708 5.88522 0
M  V30 12615 H 1220.1 3.47287 4.56141 0
M  V30 12616 H 1218.5 4.21069 4.27575 0
M  V30 12617 H 1219.57 3.88628 2.89994 0
M  V30 12618 N 1220.91 -1.05686 1.16912 0
M  V30 12619 C 1222.16 -1.78862 0.955839 0
M  V30 12620 C 1222.49 -1.87257 -0.514645 0
M  V30 12621 O 1221.76 -1.36869 -1.38193 0
M  V30 12622 C 1222.05 -3.23021 1.59152 0
M  V30 12623 C 1221.9 -3.22669 3.13376 0
M  V30 12624 C 1223.22 -4.2073 1.29128 0
M  V30 12625 H 1220.34 -0.64931 0.348663 0
M  V30 12626 H 1222.98 -1.23561 1.44335 0
M  V30 12627 H 1221.13 -3.70243 1.17697 0
M  V30 12628 H 1222.8 -2.83562 3.63855 0
M  V30 12629 H 1221.05 -2.61149 3.46386 0
M  V30 12630 H 1221.72 -4.24394 3.52979 0
M  V30 12631 H 1224.19 -3.8198 1.65017 0
M  V30 12632 H 1223.07 -5.19851 1.76198 0
M  V30 12633 H 1223.33 -4.41595 0.21119 0
M  V30 12634 N 1222.39 -0.968567 -1.24324 0
M  V30 12635 C 1223.35 -0.504307 -2.23583 0
M  V30 12636 C 1224.35 0.399626 -1.55755 0
M  V30 12637 O 1225.54 0.194966 -1.73106 0
M  V30 12638 C 1222.67 0.26956 -3.39833 0
M  V30 12639 H 1223.87 -1.3818 -2.6617 0
M  V30 12640 H 1221.42 -0.753241 -1.36952 0
M  V30 12641 H 1222.15 1.16411 -3.02686 0
M  V30 12642 H 1221.94 -0.379133 -3.90263 0
M  V30 12643 H 1223.43 0.583376 -4.13505 0
M  V30 12644 N 1223.87 1.39211 -0.738786 0
M  V30 12645 C 1224.81 2.32424 -0.0904601 0
M  V30 12646 C 1225.81 1.53258 0.721694 0
M  V30 12647 O 1227.01 1.68895 0.622454 0
M  V30 12648 H 1223.39 0.751927 -0.010453 0
M  V30 12649 H 1225.36 2.84726 -0.892945 0
M  V30 12650 C 1224.11 3.38377 0.799783 0
M  V30 12651 H 1223.43 3.99375 0.18424 0
M  V30 12652 H 1224.87 4.0604 1.22096 0
M  V30 12653 C 1223.33 2.75734 1.93578 0
M  V30 12654 O 1223.86 2.63876 3.02874 0
M  V30 12655 N 1222.07 2.33764 1.72634 0
M  V30 12656 H 1221.61 2.43609 0.837413 0
M  V30 12657 H 1221.57 1.92191 2.48817 0
M  V30 12658 N 1225.34 0.486708 1.49896 0
M  V30 12659 C 1226.57 -0.0599944 2.06513 0
M  V30 12660 C 1226.98 -1.32662 1.34898 0
M  V30 12661 O 1226.33 -1.78915 0.416565 0
M  V30 12662 C 1226.39 -0.39838 3.57286 0
M  V30 12663 C 1226.05 0.768465 4.50493 0
M  V30 12664 C 1227.05 1.65495 4.92856 0
M  V30 12665 C 1224.73 0.96322 4.92978 0
M  V30 12666 C 1226.73 2.72046 5.76429 0
M  V30 12667 C 1224.41 2.03193 5.7633 0
M  V30 12668 C 1225.41 2.9089 6.17958 0
M  V30 12669 O 1225.1 3.95919 6.99645 0
M  V30 12670 H 1224.83 0.0107865 0.675914 0
M  V30 12671 H 1227.39 0.679087 1.93849 0
M  V30 12672 H 1225.62 -1.19086 3.67907 0
M  V30 12673 H 1227.31 -0.882003 3.96201 0
M  V30 12674 H 1228.07 1.51624 4.6069 0
M  V30 12675 H 1223.95 0.29004 4.60087 0
M  V30 12676 H 1227.49 3.40526 6.08841 0
M  V30 12677 H 1223.39 2.17064 6.07909 0
M  V30 12678 H 1224.16 3.93097 7.17925 0
M  V30 12679 N 1226.82 -1.56058 0.219941 0
M  V30 12680 C 1227.77 -2.16853 -0.704185 0
M  V30 12681 C 1228.76 -1.11639 -1.15869 0
M  V30 12682 O 1229.95 -1.37632 -1.11295 0
M  V30 12683 C 1227.08 -2.85073 -1.9128 0
M  V30 12684 C 1226.16 -3.9751 -1.47805 0
M  V30 12685 N 1226.56 -5.00121 -0.755792 0
M  V30 12686 C 1224.85 -4.0957 -1.76546 0
M  V30 12687 C 1225.55 -5.79241 -0.534332 0
M  V30 12688 N 1224.53 -5.32549 -1.09055 0
M  V30 12689 H 1228.33 -2.93547 -0.143914 0
M  V30 12690 H 1225.85 -1.62386 0.021133 0
M  V30 12691 H 1227.84 -3.27037 -2.58558 0
M  V30 12692 H 1226.5 -2.09874 -2.47756 0
M  V30 12693 H 1227.51 -5.16285 -0.408647 0
M  V30 12694 H 1224.19 -3.45521 -2.34353 0
M  V30 12695 H 1225.58 -6.71888 0.0404032 0
M  V30 12696 N 1228.3 0.053464 -1.57509 0
M  V30 12697 C 1229.71 0.603099 -1.76691 0
M  V30 12698 C 1230.06 1.76934 -0.847861 0
M  V30 12699 O 1229.19 2.16369 -0.0364962 0
M  V30 12700 C 1229.78 1.10084 -3.20417 0
M  V30 12701 C 1228.34 1.59618 -3.4088 0
M  V30 12702 C 1227.49 0.523516 -2.72313 0
M  V30 12703 H 1230.44 -0.172751 -1.57757 0
M  V30 12704 H 1230.46 1.9691 -3.25587 0
M  V30 12705 H 1229.97 0.251818 -3.87282 0
M  V30 12706 H 1228.07 2.46786 -2.79155 0
M  V30 12707 H 1228.19 1.6605 -4.49404 0
M  V30 12708 H 1226.55 0.972886 -2.35387 0
M  V30 12709 H 1227.33 -0.315629 -3.41846 0
M  V30 12710 N 1229.78 1.54207 0.325255 0
M  V30 12711 C 1231.01 1.76293 1.08298 0
M  V30 12712 C 1231.42 0.510722 1.81761 0
M  V30 12713 O 1230.78 -0.5185 1.7498 0
M  V30 12714 C 1230.83 2.95498 2.08238 0
M  V30 12715 O 1230.55 4.15877 1.37759 0
M  V30 12716 C 1232.05 3.29781 2.96242 0
M  V30 12717 H 1229.27 0.588576 0.322209 0
M  V30 12718 H 1231.82 2.0109 0.371896 0
M  V30 12719 H 1229.97 2.72979 2.74884 0
M  V30 12720 H 1230.39 4.82918 2.04672 0
M  V30 12721 H 1231.86 4.16495 3.62265 0
M  V30 12722 H 1232.34 2.46874 3.63249 0
M  V30 12723 H 1232.94 3.54372 2.3516 0
M  V30 12724 N 1231.26 -0.58723 1.46251 0
M  V30 12725 C 1232.19 -1.70694 1.5933 0
M  V30 12726 C 1233.17 -1.64208 0.443831 0
M  V30 12727 O 1234.35 -1.82294 0.669516 0
M  V30 12728 C 1231.48 -3.0933 1.579 0
M  V30 12729 C 1230.44 -3.30643 2.7177 0
M  V30 12730 C 1229.76 -4.69761 2.554 0
M  V30 12731 C 1231.06 -3.18916 4.1363 0
M  V30 12732 H 1232.76 -1.60004 2.53059 0
M  V30 12733 H 1230.3 -0.768343 1.21789 0
M  V30 12734 H 1232.26 -3.87479 1.65644 0
M  V30 12735 H 1230.98 -3.20907 0.60712 0
M  V30 12736 H 1229.64 -2.54892 2.63488 0
M  V30 12737 H 1229.29 -4.78098 1.56306 0
M  V30 12738 H 1228.99 -4.84974 3.31774 0
M  V30 12739 H 1230.51 -5.50084 2.65028 0
M  V30 12740 H 1231.93 -3.86915 4.23048 0
M  V30 12741 H 1230.32 -3.45653 4.90555 0
M  V30 12742 H 1231.39 -2.1606 4.34104 0
M  V30 12743 N 1232.74 -1.33881 -0.831482 0
M  V30 12744 C 1233.7 -1.24654 -1.92339 0
M  V30 12745 C 1234.7 -0.163788 -1.59964 0
M  V30 12746 O 1235.89 -0.415829 -1.69164 0
M  V30 12747 C 1233.02 -0.922537 -3.2818 0
M  V30 12748 H 1234.21 -2.21717 -2.01944 0
M  V30 12749 H 1231.77 -1.18046 -1.02445 0
M  V30 12750 H 1232.5 0.0452872 -3.24268 0
M  V30 12751 H 1232.29 -1.70562 -3.53059 0
M  V30 12752 H 1233.78 -0.88292 -4.0816 0
M  V30 12753 N 1234.21 1.05064 -1.1747 0
M  V30 12754 C 1235.46 1.77737 -0.961979 0
M  V30 12755 C 1235.78 1.88198 0.510551 0
M  V30 12756 O 1235.05 1.39968 1.37062 0
M  V30 12757 H 1233.63 0.658366 -0.352935 0
M  V30 12758 H 1236.29 1.26851 -1.47969 0
M  V30 12759 H 1235.39 2.79368 -1.39141 0
M  V30 12760 N 1235.69 0.975146 1.23809 0
M  V30 12761 C 1236.64 0.510761 2.25077 0
M  V30 12762 C 1237.61 -0.447605 1.59955 0
M  V30 12763 O 1238.79 -0.356318 1.87443 0
M  V30 12764 C 1235.93 -0.185755 3.446 0
M  V30 12765 C 1235.05 0.812254 4.24295 0
M  V30 12766 C 1234.18 0.0910835 5.31122 0
M  V30 12767 C 1233.22 1.07866 6.02521 0
M  V30 12768 N 1232.36 0.386995 7.01033 0
M  V30 12769 H 1237.2 1.37913 2.64166 0
M  V30 12770 H 1234.73 0.691184 1.2985 0
M  V30 12771 H 1236.69 -0.606341 4.1277 0
M  V30 12772 H 1235.32 -1.01803 3.06327 0
M  V30 12773 H 1234.37 1.35125 3.55592 0
M  V30 12774 H 1235.69 1.56502 4.73612 0
M  V30 12775 H 1234.84 -0.387129 6.05464 0
M  V30 12776 H 1233.58 -0.694324 4.82732 0
M  V30 12777 H 1232.58 1.56767 5.26976 0
M  V30 12778 H 1233.81 1.86464 6.52999 0
M  V30 12779 H 1231.76 -0.3793 6.54903 0
M  V30 12780 H 1231.67 1.0785 7.48268 0
M  V30 12781 H 1232.94 -0.0690036 7.79469 0
M  V30 12782 N 1237.17 -1.38817 0.746158 0
M  V30 12783 C 1238.42 -1.99519 0.295839 0
M  V30 12784 C 1238.73 -1.59897 -1.12661 0
M  V30 12785 O 1239.94 -2.13514 -1.67702 0
M  V30 12786 C 1238.39 -3.56712 0.477984 0
M  V30 12787 C 1238 -4.0529 1.90904 0
M  V30 12788 C 1239.75 -4.24405 0.0900039 0
M  V30 12789 C 1237.65 -5.55097 2.04014 0
M  V30 12790 H 1236.58 -0.746389 0.106861 0
M  V30 12791 H 1239.23 -1.58676 0.921637 0
M  V30 12792 H 1237.62 -3.95406 -0.216884 0
M  V30 12793 H 1238.79 -3.77904 2.63677 0
M  V30 12794 H 1237.1 -3.50297 2.25125 0
M  V30 12795 H 1239.7 -5.3444 0.16682 0
M  V30 12796 H 1240.04 -4.05166 -0.956349 0
M  V30 12797 H 1240.58 -3.90924 0.736446 0
M  V30 12798 H 1237.32 -5.7923 3.06877 0
M  V30 12799 H 1236.84 -5.8425 1.35692 0
M  V30 12800 H 1238.52 -6.20682 1.82656 0
M  V30 12801 N 1238.65 -0.49465 -1.49636 0
M  V30 12802 C 1239.88 0.0491129 -2.06842 0
M  V30 12803 C 1240.29 1.31395 -1.35576 0
M  V30 12804 O 1239.65 1.7731 -0.432135 0
M  V30 12805 C 1239.7 0.313171 -3.60141 0
M  V30 12806 O 1239.42 -0.90152 -4.28724 0
M  V30 12807 C 1240.92 0.901284 -4.34041 0
M  V30 12808 H 1238.14 -0.0176186 -0.670769 0
M  V30 12809 H 1240.68 -0.690188 -1.92501 0
M  V30 12810 H 1238.84 1.00244 -3.74206 0
M  V30 12811 H 1239.25 -0.660477 -5.20325 0
M  V30 12812 H 1240.73 1.03567 -5.42197 0
M  V30 12813 H 1241.2 1.89746 -3.96097 0
M  V30 12814 H 1241.81 0.249677 -4.24566 0
M  V30 12815 N 1240.13 1.55939 -0.228214 0
M  V30 12816 C 1241.37 1.98084 0.400884 0
M  V30 12817 C 1241.69 1.11727 1.59819 0
M  V30 12818 O 1240.96 0.195794 1.94919 0
M  V30 12819 H 1239.54 0.731558 0.151102 0
M  V30 12820 H 1242.21 1.92211 -0.322659 0
M  V30 12821 H 1241.3 3.03617 0.722706 0
M  V30 12822 N 1241.6 -0.0451101 1.57535 0
M  V30 12823 C 1242.54 -1.08327 2.00849 0
M  V30 12824 C 1243.52 -1.36083 0.889957 0
M  V30 12825 O 1244.7 -1.49009 1.15449 0
M  V30 12826 C 1241.83 -2.42171 2.36793 0
M  V30 12827 C 1240.87 -2.30378 3.58926 0
M  V30 12828 S 1241.71 -1.67244 5.08714 0
M  V30 12829 C 1242.86 -3.02611 5.47885 0
M  V30 12830 H 1243.09 -0.714274 2.88592 0
M  V30 12831 H 1240.63 -0.254561 1.52287 0
M  V30 12832 H 1242.59 -3.1915 2.58174 0
M  V30 12833 H 1241.25 -2.76224 1.49531 0
M  V30 12834 H 1240.44 -3.29146 3.81679 0
M  V30 12835 H 1240.04 -1.6154 3.37314 0
M  V30 12836 H 1242.33 -3.98941 5.47587 0
M  V30 12837 H 1243.28 -2.84609 6.48385 0
M  V30 12838 H 1243.68 -3.04445 4.75367 0
M  V30 12839 N 1243.08 -1.54377 -0.317073 0
M  V30 12840 C 1244.02 -1.7907 -1.41453 0
M  V30 12841 C 1244.99 -0.641012 -1.49432 0
M  V30 12842 O 1246.18 -0.879179 -1.66741 0
M  V30 12843 C 1243.3 -1.91307 -2.79498 0
M  V30 12844 C 1242.35 -3.13639 -2.8902 0
M  V30 12845 S 1243.18 -4.72093 -2.52762 0
M  V30 12846 C 1244.34 -4.87245 -3.92866 0
M  V30 12847 H 1244.57 -2.71875 -1.20296 0
M  V30 12848 H 1242.11 -1.45583 -0.514279 0
M  V30 12849 H 1244.06 -1.99043 -3.59015 0
M  V30 12850 H 1242.72 -0.994687 -2.97934 0
M  V30 12851 H 1241.92 -3.18955 -3.90235 0
M  V30 12852 H 1241.52 -3.04266 -2.17481 0
M  V30 12853 H 1243.81 -4.7028 -4.87691 0
M  V30 12854 H 1244.75 -5.89344 -3.92529 0
M  V30 12855 H 1245.16 -4.15504 -3.82122 0
M  V30 12856 N 1244.56 0.579466 -1.4656 0
M  V30 12857 C 1245.49 1.69846 -1.60233 0
M  V30 12858 C 1246.47 1.6397 -0.452533 0
M  V30 12859 O 1247.66 1.81936 -0.679174 0
M  V30 12860 C 1244.79 3.08488 -1.59538 0
M  V30 12861 C 1243.74 3.29197 -2.7352 0
M  V30 12862 C 1243.07 4.684 -2.57887 0
M  V30 12863 C 1244.37 3.16718 -4.15315 0
M  V30 12864 H 1246.06 1.5866 -2.53904 0
M  V30 12865 H 1243.61 0.761873 -1.22194 0
M  V30 12866 H 1245.56 3.86595 -1.67696 0
M  V30 12867 H 1244.28 3.20581 -0.62413 0
M  V30 12868 H 1242.94 2.53491 -2.64836 0
M  V30 12869 H 1242.59 4.77262 -1.58839 0
M  V30 12870 H 1242.29 4.83208 -3.34341 0
M  V30 12871 H 1243.81 5.48671 -2.67942 0
M  V30 12872 H 1245.23 3.84666 -4.25094 0
M  V30 12873 H 1243.63 3.43047 -4.92381 0
M  V30 12874 H 1244.7 2.13755 -4.35244 0
M  V30 12875 N 1246.04 1.3432 0.824371 0
M  V30 12876 C 1246.95 1.27847 1.96704 0
M  V30 12877 C 1247.96 0.18641 1.72999 0
M  V30 12878 O 1249.14 0.412623 1.97128 0
M  V30 12879 C 1246.21 1.03231 3.30975 0
M  V30 12880 C 1245.27 2.21579 3.67697 0
M  V30 12881 C 1244.5 1.98128 4.95561 0
M  V30 12882 O 1244.72 0.938798 5.62621 0
M  V30 12883 O 1243.66 2.85041 5.30128 0
M  V30 12884 H 1247.48 2.23974 2.05108 0
M  V30 12885 H 1245.07 1.14512 0.959554 0
M  V30 12886 H 1246.95 0.912784 4.11395 0
M  V30 12887 H 1245.62 0.101425 3.23541 0
M  V30 12888 H 1244.53 2.3909 2.87727 0
M  V30 12889 H 1245.86 3.13052 3.79815 0
M  V30 12890 N 1247.52 -1.0444 1.18026 0
M  V30 12891 C 1248.45 -2.11888 0.847277 0
M  V30 12892 C 1249.43 -1.61496 -0.189171 0
M  V30 12893 O 1250.61 -1.88374 -0.0689859 0
M  V30 12894 C 1247.74 -3.3766 0.26525 0
M  V30 12895 C 1246.78 -4.06893 1.27829 0
M  V30 12896 S 1247.62 -4.54445 2.83267 0
M  V30 12897 C 1248.77 -5.83454 2.26565 0
M  V30 12898 H 1249.01 -2.39806 1.75727 0
M  V30 12899 H 1246.54 -1.17152 1.00572 0
M  V30 12900 H 1248.5 -4.1045 -0.0640578 0
M  V30 12901 H 1247.16 -3.07864 -0.622806 0
M  V30 12902 H 1246.35 -4.97287 0.819849 0
M  V30 12903 H 1245.95 -3.40203 1.55364 0
M  V30 12904 H 1248.25 -6.57203 1.64591 0
M  V30 12905 H 1249.19 -6.34056 3.15244 0
M  V30 12906 H 1249.6 -5.3838 1.69728 0
M  V30 12907 N 1248.99 -0.981699 -1.2329 0
M  V30 12908 C 1250.27 -0.567659 -1.87182 0
M  V30 12909 C 1250.65 0.955194 -1.88253 0
M  V30 12910 O 1250 1.83245 -1.36504 0
M  V30 12911 C 1250.21 -1.17522 -3.28618 0
M  V30 12912 C 1251.56 -1.26877 -4.052 0
M  V30 12913 O 1252.58 -1.12877 -3.37842 0
M  V30 12914 O 1251.44 -1.49163 -5.2575 0
M  V30 12915 H 1248.53 -0.191315 -0.804567 0
M  V30 12916 H 1251.08 -1.07686 -1.31155 0
M  V30 12917 H 1249.85 -2.21735 -3.22411 0
M  V30 12918 H 1249.48 -0.650913 -3.92236 0
M  V30 12919 N 1250.47 1.3842 -0.753509 0
M  V30 12920 C 1251.42 2.32315 -0.115107 0
M  V30 12921 C 1252.41 1.54015 0.705398 0
M  V30 12922 O 1253.62 1.69546 0.604505 0
M  V30 12923 H 1250 0.751774 -0.0184276 0
M  V30 12924 H 1251.97 2.83763 -0.923094 0
M  V30 12925 C 1250.72 3.39206 0.763849 0
M  V30 12926 H 1250.04 3.99548 0.14187 0
M  V30 12927 H 1251.48 4.07312 1.17783 0
M  V30 12928 C 1249.94 2.77771 1.90643 0
M  V30 12929 O 1250.47 2.67073 3.00058 0
M  V30 12930 N 1248.67 2.35582 1.70145 0
M  V30 12931 H 1248.22 2.44483 0.811528 0
M  V30 12932 H 1248.18 1.9482 2.46764 0
M  V30 12933 N 1251.95 0.502579 1.49372 0
M  V30 12934 C 1253.18 -0.0403087 2.07361 0
M  V30 12935 C 1253.6 -1.29918 1.36026 0
M  V30 12936 O 1252.96 -1.76428 0.417488 0
M  V30 12937 C 1253.01 -0.275362 3.59547 0
M  V30 12938 O 1252.11 -1.34975 3.89686 0
M  V30 12939 H 1251.45 0.0269268 0.663454 0
M  V30 12940 H 1253.98 0.702652 1.92156 0
M  V30 12941 H 1253.99 -0.506392 4.04845 0
M  V30 12942 H 1252.67 0.644382 4.10878 0
M  V30 12943 H 1251.24 -1.10355 3.56197 0
M  V30 12944 N 1253.43 -1.55816 0.23648 0
M  V30 12945 C 1254.34 -2.24576 -0.678439 0
M  V30 12946 C 1255.35 -1.25836 -1.20172 0
M  V30 12947 O 1256.53 -1.58686 -1.24019 0
M  V30 12948 C 1253.6 -2.92376 -1.86325 0
M  V30 12949 C 1252.66 -4.06499 -1.38047 0
M  V30 12950 C 1251.89 -4.71057 -2.50881 0
M  V30 12951 O 1252.11 -4.34652 -3.69369 0
M  V30 12952 O 1251.05 -5.59768 -2.21232 0
M  V30 12953 H 1254.87 -3.03452 -0.122601 0
M  V30 12954 H 1252.46 -1.49399 0.00540803 0
M  V30 12955 H 1254.34 -3.35117 -2.55488 0
M  V30 12956 H 1253.01 -2.16448 -2.40691 0
M  V30 12957 H 1251.92 -3.68296 -0.656422 0
M  V30 12958 H 1253.25 -4.84214 -0.883024 0
M  V30 12959 N 1254.91 0.036755 -1.57557 0
M  V30 12960 C 1255.84 1.03939 -2.09091 0
M  V30 12961 C 1256.82 1.38196 -0.991761 0
M  V30 12962 O 1258 1.47214 -1.26656 0
M  V30 12963 C 1255.13 2.34263 -2.56394 0
M  V30 12964 C 1254.09 2.14269 -3.70504 0
M  V30 12965 C 1253.41 3.50286 -4.03985 0
M  V30 12966 C 1254.71 1.53514 -4.9923 0
M  V30 12967 H 1256.41 0.610429 -2.93111 0
M  V30 12968 H 1253.95 0.292183 -1.41005 0
M  V30 12969 H 1255.91 3.04727 -2.91066 0
M  V30 12970 H 1254.63 2.79205 -1.69447 0
M  V30 12971 H 1253.29 1.46239 -3.36169 0
M  V30 12972 H 1252.94 3.92861 -3.14116 0
M  V30 12973 H 1252.64 3.37735 -4.80842 0
M  V30 12974 H 1254.16 4.22124 -4.41184 0
M  V30 12975 H 1255.57 2.13885 -5.31908 0
M  V30 12976 H 1253.97 1.51561 -5.80646 0
M  V30 12977 H 1255.04 0.500126 -4.82314 0
M  V30 12978 N 1256.39 1.54543 0.308881 0
M  V30 12979 C 1257.32 1.87947 1.38557 0
M  V30 12980 C 1258.3 0.737622 1.53275 0
M  V30 12981 O 1259.48 0.992664 1.66913 0
M  V30 12982 C 1256.61 2.11982 2.75102 0
M  V30 12983 C 1255.57 3.2783 2.75158 0
M  V30 12984 C 1254.89 3.37266 4.14917 0
M  V30 12985 C 1256.19 4.65129 2.37598 0
M  V30 12986 H 1257.89 2.78123 1.1085 0
M  V30 12987 H 1255.43 1.3382 0.531808 0
M  V30 12988 H 1257.38 2.33935 3.50503 0
M  V30 12989 H 1256.11 1.18569 3.04317 0
M  V30 12990 H 1254.77 3.05787 2.02212 0
M  V30 12991 H 1254.42 2.41384 4.41296 0
M  V30 12992 H 1254.12 4.15135 4.15857 0
M  V30 12993 H 1255.64 3.61471 4.92109 0
M  V30 12994 H 1257.05 4.86865 3.02714 0
M  V30 12995 H 1255.45 5.45653 2.49765 0
M  V30 12996 H 1256.52 4.6638 1.32731 0
M  V30 12997 N 1257.86 -0.571685 1.46866 0
M  V30 12998 C 1259.11 -1.32574 1.5201 0
M  V30 12999 C 1259.43 -1.94762 0.180838 0
M  V30 13000 O 1260.63 -2.71276 0.110158 0
M  V30 13001 C 1259.09 -2.40331 2.67897 0
M  V30 13002 C 1258.7 -1.84398 4.08291 0
M  V30 13003 C 1260.44 -3.17009 2.82321 0
M  V30 13004 C 1258.35 -2.89849 5.15501 0
M  V30 13005 H 1257.28 -0.498428 0.565761 0
M  V30 13006 H 1259.93 -0.608853 1.73105 0
M  V30 13007 H 1258.31 -3.14869 2.40153 0
M  V30 13008 H 1259.48 -1.16329 4.45875 0
M  V30 13009 H 1257.8 -1.20351 3.98628 0
M  V30 13010 H 1260.4 -3.95729 3.59587 0
M  V30 13011 H 1260.74 -3.70292 1.90236 0
M  V30 13012 H 1261.27 -2.4958 3.09765 0
M  V30 13013 H 1258.01 -2.4144 6.09415 0
M  V30 13014 H 1257.53 -3.56372 4.82451 0
M  V30 13015 H 1259.21 -3.53603 5.41825 0
M  V30 13016 N 1259.34 -1.34755 -0.817236 0
M  V30 13017 C 1260.27 -1.29452 -1.94331 0
M  V30 13018 C 1261.25 -0.170902 -1.69239 0
M  V30 13019 O 1262.44 -0.364173 -1.90755 0
M  V30 13020 C 1259.57 -1.05497 -3.30889 0
M  V30 13021 C 1258.52 -2.14386 -3.70436 0
M  V30 13022 C 1257.85 -1.75612 -5.05039 0
M  V30 13023 C 1259.15 -3.56265 -3.81933 0
M  V30 13024 H 1260.84 -2.23672 -1.99025 0
M  V30 13025 H 1258.39 -1.07674 -0.956159 0
M  V30 13026 H 1260.34 -1.0043 -4.09257 0
M  V30 13027 H 1259.06 -0.0772059 -3.26509 0
M  V30 13028 H 1257.72 -2.18532 -2.94345 0
M  V30 13029 H 1257.37 -0.764809 -4.97152 0
M  V30 13030 H 1257.07 -2.48495 -5.3247 0
M  V30 13031 H 1258.6 -1.72051 -5.85859 0
M  V30 13032 H 1260.01 -3.545 -4.50558 0
M  V30 13033 H 1258.41 -4.27818 -4.20822 0
M  V30 13034 H 1259.48 -3.93192 -2.83775 0
M  V30 13035 N 1260.82 1.03812 -1.18578 0
M  V30 13036 C 1261.75 2.13802 -0.938665 0
M  V30 13037 C 1262.73 1.69643 0.124575 0
M  V30 13038 O 1263.92 1.94179 -0.0285421 0
M  V30 13039 C 1261.05 3.44154 -0.466392 0
M  V30 13040 C 1260 4.01949 -1.47041 0
M  V30 13041 C 1259.33 5.27811 -0.855558 0
M  V30 13042 C 1260.63 4.37827 -2.84789 0
M  V30 13043 H 1262.32 2.34732 -1.85852 0
M  V30 13044 H 1259.87 1.12808 -0.895007 0
M  V30 13045 H 1261.82 4.20463 -0.280856 0
M  V30 13046 H 1260.54 3.22918 0.489041 0
M  V30 13047 H 1259.2 3.27725 -1.64293 0
M  V30 13048 H 1258.85 5.02886 0.107142 0
M  V30 13049 H 1258.55 5.67441 -1.52592 0
M  V30 13050 H 1260.07 6.06795 -0.680609 0
M  V30 13051 H 1261.49 5.05112 -2.71173 0
M  V30 13052 H 1259.88 4.88514 -3.48532 0
M  V30 13053 H 1260.95 3.47541 -3.38147 0
M  V30 13054 N 1262.3 0.988223 1.22768 0
M  V30 13055 C 1263.21 0.543407 2.2822 0
M  V30 13056 C 1264.22 -0.405563 1.69208 0
M  V30 13057 O 1265.4 -0.273551 1.99534 0
M  V30 13058 C 1262.46 -0.139495 3.46419 0
M  V30 13059 C 1261.53 0.851853 4.20764 0
M  V30 13060 C 1260.76 0.201446 5.3332 0
M  V30 13061 O 1260.98 -1.00573 5.61464 0
M  V30 13062 O 1259.92 0.903956 5.95073 0
M  V30 13063 H 1263.74 1.42059 2.68427 0
M  V30 13064 H 1261.33 0.756239 1.28846 0
M  V30 13065 H 1263.21 -0.522226 4.18152 0
M  V30 13066 H 1261.88 -0.991315 3.08147 0
M  V30 13067 H 1260.79 1.28543 3.51322 0
M  V30 13068 H 1262.12 1.67273 4.62905 0
M  V30 13069 N 1263.78 -1.38018 0.760839 0
M  V30 13070 C 1264.72 -2.32251 0.127425 0
M  V30 13071 C 1265.72 -1.54387 -0.69722 0
M  V30 13072 O 1266.92 -1.69864 -0.595505 0
M  V30 13073 H 1263.3 -0.751666 0.0224141 0
M  V30 13074 H 1265.27 -2.8327 0.93813 0
M  V30 13075 C 1264.02 -3.39606 -0.745849 0
M  V30 13076 H 1263.34 -3.99618 -0.120679 0
M  V30 13077 H 1264.78 -4.07931 -1.15621 0
M  V30 13078 C 1263.24 -2.78778 -1.89167 0
M  V30 13079 O 1263.77 -2.68661 -2.98637 0
M  V30 13080 N 1261.98 -2.36481 -1.68894 0
M  V30 13081 H 1261.52 -2.4491 -0.798551 0
M  V30 13082 H 1261.48 -1.96126 -2.45728 0
M  V30 13083 N 1265.25 -0.510493 -1.49103 0
M  V30 13084 C 1266.16 0.267176 -2.33074 0
M  V30 13085 C 1267.18 0.958117 -1.45245 0
M  V30 13086 O 1268.36 0.937399 -1.78255 0
M  V30 13087 C 1265.42 1.31212 -3.20911 0
M  V30 13088 C 1264.48 0.633613 -4.24598 0
M  V30 13089 C 1263.71 1.62878 -5.08239 0
M  V30 13090 O 1263.94 2.85958 -4.93543 0
M  V30 13091 O 1262.87 1.17887 -5.90242 0
M  V30 13092 H 1266.7 -0.420384 -3.00776 0
M  V30 13093 H 1264.28 -0.271683 -1.46909 0
M  V30 13094 H 1266.16 1.91647 -3.75299 0
M  V30 13095 H 1264.84 1.98244 -2.55892 0
M  V30 13096 H 1263.75 -0.0107246 -3.74098 0
M  V30 13097 H 1265.08 0.0055777 -4.922 0
M  V30 13098 N 1266.73 1.55688 -0.24474 0
M  V30 13099 C 1267.64 2.24933 0.666519 0
M  V30 13100 C 1268.66 1.26471 1.19503 0
M  V30 13101 O 1269.83 1.59342 1.23176 0
M  V30 13102 C 1266.9 2.9336 1.84772 0
M  V30 13103 C 1265.96 4.07225 1.35889 0
M  V30 13104 C 1265.19 4.72381 2.48379 0
M  V30 13105 O 1265.42 4.36605 3.67059 0
M  V30 13106 O 1264.35 5.60933 2.18261 0
M  V30 13107 H 1268.18 3.03513 0.106507 0
M  V30 13108 H 1265.76 1.49394 -0.0133309 0
M  V30 13109 H 1267.64 3.36468 2.53708 0
M  V30 13110 H 1266.32 2.17721 2.39539 0
M  V30 13111 H 1265.22 3.68639 0.636881 0
M  V30 13112 H 1266.56 4.84676 0.857333 0
M  V30 13113 N 1268.21 -0.0283989 1.57574 0
M  V30 13114 C 1269.14 -1.05641 2.03403 0
M  V30 13115 C 1270.15 -1.32426 0.946953 0
M  V30 13116 O 1271.34 -1.29902 1.22425 0
M  V30 13117 C 1268.44 -2.39788 2.39489 0
M  V30 13118 C 1267.62 -2.32348 3.70585 0
M  V30 13119 C 1266.68 -3.4895 3.93853 0
M  V30 13120 O 1265.7 -3.28414 4.64901 0
M  V30 13121 N 1266.9 -4.7084 3.39543 0
M  V30 13122 H 1269.67 -0.665788 2.92211 0
M  V30 13123 H 1267.23 -0.21633 1.60448 0
M  V30 13124 H 1269.22 -3.16514 2.52193 0
M  V30 13125 H 1267.79 -2.70692 1.56348 0
M  V30 13126 H 1267.01 -1.40717 3.68229 0
M  V30 13127 H 1268.3 -2.24521 4.56582 0
M  V30 13128 H 1267.7 -4.90425 2.81956 0
M  V30 13129 H 1266.25 -5.44929 3.57625 0
M  V30 13130 N 1269.69 -1.54705 -0.300681 0
M  V30 13131 C 1270.62 -1.88679 -1.37559 0
M  V30 13132 C 1271.6 -0.74574 -1.52881 0
M  V30 13133 O 1272.78 -1.0015 -1.66384 0
M  V30 13134 C 1269.91 -2.13438 -2.73974 0
M  V30 13135 C 1268.87 -3.29284 -2.73415 0
M  V30 13136 C 1268.19 -3.39462 -4.13122 0
M  V30 13137 C 1269.49 -4.66382 -2.35128 0
M  V30 13138 H 1271.19 -2.78707 -1.09373 0
M  V30 13139 H 1268.73 -1.341 -0.524704 0
M  V30 13140 H 1270.69 -2.35791 -3.49257 0
M  V30 13141 H 1269.41 -1.20181 -3.03684 0
M  V30 13142 H 1268.07 -3.06855 -2.00588 0
M  V30 13143 H 1267.72 -2.43721 -4.4001 0
M  V30 13144 H 1267.42 -4.17334 -4.1365 0
M  V30 13145 H 1268.94 -3.64075 -4.90185 0
M  V30 13146 H 1270.36 -4.88463 -3.00128 0
M  V30 13147 H 1268.75 -5.4697 -2.46867 0
M  V30 13148 H 1269.82 -4.67078 -1.30256 0
M  V30 13149 N 1271.17 0.563888 -1.47167 0
M  V30 13150 C 1272.11 1.67151 -1.59152 0
M  V30 13151 C 1273.08 1.60307 -0.434852 0
M  V30 13152 O 1274.27 1.7924 -0.654049 0
M  V30 13153 C 1271.41 3.0548 -1.60549 0
M  V30 13154 C 1270.52 3.2281 -2.87085 0
M  V30 13155 C 1269.66 4.51498 -2.79862 0
M  V30 13156 C 1268.7 4.62237 -4.01252 0
M  V30 13157 N 1267.83 5.82273 -3.92305 0
M  V30 13158 H 1272.67 1.56245 -2.53755 0
M  V30 13159 H 1270.21 0.761219 -1.25872 0
M  V30 13160 H 1272.17 3.85572 -1.59343 0
M  V30 13161 H 1270.8 3.15237 -0.69464 0
M  V30 13162 H 1269.85 2.36196 -2.98188 0
M  V30 13163 H 1271.16 3.2661 -3.76997 0
M  V30 13164 H 1270.32 5.39842 -2.76867 0
M  V30 13165 H 1269.05 4.50166 -1.87621 0
M  V30 13166 H 1268.06 3.72307 -4.04558 0
M  V30 13167 H 1269.28 4.65334 -4.94612 0
M  V30 13168 H 1267.23 5.81902 -3.02862 0
M  V30 13169 H 1267.15 5.87422 -4.7589 0
M  V30 13170 H 1268.42 6.72996 -3.93315 0
M  V30 13171 N 1272.64 1.35187 0.810078 0
M  V30 13172 C 1273.59 1.27822 1.92173 0
M  V30 13173 C 1274.56 0.150851 1.65414 0
M  V30 13174 O 1275.75 0.333973 1.87854 0
M  V30 13175 C 1272.89 1.05258 3.28656 0
M  V30 13176 C 1272 2.26884 3.67624 0
M  V30 13177 C 1271.13 1.97499 4.9312 0
M  V30 13178 C 1270.17 3.15198 5.24706 0
M  V30 13179 N 1269.31 2.85612 6.41381 0
M  V30 13180 H 1274.15 2.22884 1.97804 0
M  V30 13181 H 1271.69 1.10799 0.967577 0
M  V30 13182 H 1273.65 0.902084 4.07331 0
M  V30 13183 H 1272.28 0.138583 3.22502 0
M  V30 13184 H 1271.33 2.5281 2.84238 0
M  V30 13185 H 1272.64 3.14783 3.86928 0
M  V30 13186 H 1271.79 1.7926 5.79613 0
M  V30 13187 H 1270.53 1.0688 4.75844 0
M  V30 13188 H 1269.54 3.34019 4.36705 0
M  V30 13189 H 1270.76 4.06614 5.43913 0
M  V30 13190 H 1268.71 1.97583 6.25537 0
M  V30 13191 H 1268.63 3.67044 6.60919 0
M  V30 13192 H 1269.89 2.70906 7.3091 0
M  V30 13193 N 1274.12 -1.03182 1.19127 0
M  V30 13194 C 1275.07 -2.11394 0.926339 0
M  V30 13195 C 1276.04 -1.65528 -0.137703 0
M  V30 13196 O 1277.22 -1.908 0.00381804 0
M  V30 13197 C 1274.36 -3.41913 0.467894 0
M  V30 13198 C 1273.48 -4.01343 1.59837 0
M  V30 13199 C 1272.61 -5.1986 1.09175 0
M  V30 13200 C 1271.65 -5.71339 2.19632 0
M  V30 13201 N 1270.79 -6.81133 1.703 0
M  V30 13202 H 1275.63 -2.33393 1.85288 0
M  V30 13203 H 1273.17 -1.14473 0.923811 0
M  V30 13204 H 1275.12 -4.16796 0.183513 0
M  V30 13205 H 1273.75 -3.20034 -0.421656 0
M  V30 13206 H 1272.81 -3.23702 1.99803 0
M  V30 13207 H 1274.12 -4.35568 2.43068 0
M  V30 13208 H 1273.27 -6.0189 0.762427 0
M  V30 13209 H 1272.01 -4.87161 0.22914 0
M  V30 13210 H 1271.02 -4.87923 2.53399 0
M  V30 13211 H 1272.24 -6.06078 3.06344 0
M  V30 13212 H 1270.19 -6.50293 0.863415 0
M  V30 13213 H 1270.1 -7.1447 2.47122 0
M  V30 13214 H 1271.37 -7.66766 1.40321 0
M  V30 13215 N 1275.6 -0.99472 -1.22242 0
M  V30 13216 C 1276.85 -0.667045 -1.90351 0
M  V30 13217 C 1277.16 0.804615 -1.78284 0
M  V30 13218 O 1278.37 1.24395 -2.41326 0
M  V30 13219 C 1276.82 -1.14256 -3.41282 0
M  V30 13220 C 1276.43 -2.63958 -3.61981 0
M  V30 13221 C 1278.18 -0.889302 -4.1508 0
M  V30 13222 C 1276.08 -3.05103 -5.06622 0
M  V30 13223 H 1275.01 -0.245795 -0.712812 0
M  V30 13224 H 1277.66 -1.20452 -1.38432 0
M  V30 13225 H 1276.05 -0.533203 -3.92394 0
M  V30 13226 H 1277.22 -3.30255 -3.21354 0
M  V30 13227 H 1275.54 -2.87186 -3.01518 0
M  V30 13228 H 1278.13 -1.17239 -5.21689 0
M  V30 13229 H 1278.48 0.174556 -4.15934 0
M  V30 13230 H 1279.01 -1.46095 -3.70002 0
M  V30 13231 H 1275.75 -4.10672 -5.1091 0
M  V30 13232 H 1275.27 -2.4351 -5.48145 0
M  V30 13233 H 1276.95 -2.96506 -5.75059 0
M  V30 13234 N 1277.08 1.37613 -0.768148 0
M  V30 13235 C 1278.36 1.93921 -0.255724 0
M  V30 13236 C 1278.74 1.70215 1.2486 0
M  V30 13237 O 1278.08 1.0489 2.03003 0
M  V30 13238 C 1278.29 3.43354 -0.625204 0
M  V30 13239 C 1279.64 4.20439 -0.592978 0
M  V30 13240 O 1280.67 3.51701 -0.564375 0
M  V30 13241 O 1279.52 5.43008 -0.616849 0
M  V30 13242 H 1276.62 0.824968 -0.0579366 0
M  V30 13243 H 1279.16 1.46921 -0.849257 0
M  V30 13244 H 1277.94 3.54177 -1.66356 0
M  V30 13245 H 1277.56 3.976 -0.00442816 0
M  V30 13246 N 1278.56 0.518393 1.4883 0
M  V30 13247 C 1279.47 -0.254811 2.33212 0
M  V30 13248 C 1280.48 -0.950401 1.45751 0
M  V30 13249 O 1281.66 -0.927932 1.78749 0
M  V30 13250 C 1278.72 -1.29509 3.21603 0
M  V30 13251 C 1277.78 -0.611086 4.24928 0
M  V30 13252 C 1277.02 -1.6018 5.09095 0
M  V30 13253 O 1277.24 -2.83336 4.95052 0
M  V30 13254 O 1276.17 -1.14756 5.90859 0
M  V30 13255 H 1280 0.436329 3.00549 0
M  V30 13256 H 1277.59 0.27947 1.46763 0
M  V30 13257 H 1279.47 -1.89654 3.7631 0
M  V30 13258 H 1278.14 -1.96884 2.5694 0
M  V30 13259 H 1277.05 0.0305638 3.74088 0
M  V30 13260 H 1278.38 0.0205249 4.92196 0
M  V30 13261 N 1280.03 -1.55556 0.252993 0
M  V30 13262 C 1281 -2.20351 -0.630705 0
M  V30 13263 C 1282 -1.17461 -1.09816 0
M  V30 13264 O 1283.19 -1.42505 -1.00189 0
M  V30 13265 C 1280.32 -2.85192 -1.86757 0
M  V30 13266 H 1281.51 -2.99829 -0.0652939 0
M  V30 13267 H 1279.07 -1.563 0.00347982 0
M  V30 13268 H 1279.8 -2.09669 -2.47406 0
M  V30 13269 H 1279.59 -3.60569 -1.54053 0
M  V30 13270 H 1281.08 -3.34762 -2.49648 0
M  V30 13271 N 1281.51 0.0200419 -1.57587 0
M  V30 13272 C 1282.44 1.01715 -2.10181 0
M  V30 13273 C 1283.42 1.37136 -1.00636 0
M  V30 13274 O 1284.61 1.45862 -1.2821 0
M  V30 13275 C 1281.74 2.31531 -2.58865 0
M  V30 13276 C 1280.69 2.10327 -3.72755 0
M  V30 13277 C 1280.02 3.45981 -4.07678 0
M  V30 13278 C 1281.32 1.4821 -5.0083 0
M  V30 13279 H 1283.01 0.579307 -2.93742 0
M  V30 13280 H 1280.56 0.277211 -1.41307 0
M  V30 13281 H 1282.51 3.01623 -2.94281 0
M  V30 13282 H 1281.24 2.77392 -1.72399 0
M  V30 13283 H 1279.89 1.42665 -3.37701 0
M  V30 13284 H 1279.54 3.89508 -3.18265 0
M  V30 13285 H 1279.24 3.32616 -4.84397 0
M  V30 13286 H 1280.77 4.17421 -4.45637 0
M  V30 13287 H 1282.18 2.08232 -5.34146 0
M  V30 13288 H 1280.58 1.45393 -5.82221 0
M  V30 13289 H 1281.65 0.448942 -4.82817 0
M  V30 13290 N 1282.99 1.54862 0.292472 0
M  V30 13291 C 1284.24 1.74807 1.02813 0
M  V30 13292 C 1284.57 0.536935 1.8663 0
M  V30 13293 O 1283.84 -0.465854 1.88839 0
M  V30 13294 C 1284.13 3.04202 1.927 0
M  V30 13295 C 1283.98 4.35631 1.12006 0
M  V30 13296 C 1285.3 3.29514 2.91734 0
M  V30 13297 H 1282.42 0.636015 0.372362 0
M  V30 13298 H 1285.06 1.87583 0.302069 0
M  V30 13299 H 1283.21 2.9344 2.54608 0
M  V30 13300 H 1284.88 4.58323 0.52319 0
M  V30 13301 H 1283.13 4.31733 0.42298 0
M  V30 13302 H 1283.8 5.22454 1.78172 0
M  V30 13303 H 1286.27 3.39941 2.39957 0
M  V30 13304 H 1285.15 4.21352 3.51786 0
M  V30 13305 H 1285.41 2.48216 3.65843 0
M  V30 13306 N 1284.47 -0.556076 1.47464 0
M  V30 13307 C 1285.71 -1.31515 1.54375 0
M  V30 13308 C 1286.05 -1.93106 0.205837 0
M  V30 13309 O 1285.32 -1.77927 -0.785643 0
M  V30 13310 C 1285.61 -2.4244 2.66261 0
M  V30 13311 C 1285.46 -1.8571 4.09673 0
M  V30 13312 C 1286.78 -3.4436 2.74051 0
M  V30 13313 H 1283.9 -0.476817 0.561974 0
M  V30 13314 H 1286.54 -0.622157 1.79525 0
M  V30 13315 H 1284.69 -3.01551 2.44948 0
M  V30 13316 H 1286.36 -1.30851 4.42353 0
M  V30 13317 H 1284.6 -1.16379 4.17898 0
M  V30 13318 H 1285.27 -2.65904 4.83735 0
M  V30 13319 H 1287.75 -2.95169 2.93282 0
M  V30 13320 H 1286.63 -4.194 3.54111 0
M  V30 13321 H 1286.89 -4.03281 1.81155 0
M  V30 13322 N 1285.95 -1.35615 -0.802897 0
M  V30 13323 C 1286.88 -1.31506 -1.92947 0
M  V30 13324 C 1287.86 -0.188843 -1.69048 0
M  V30 13325 O 1289.04 -0.384384 -1.90358 0
M  V30 13326 C 1286.17 -1.09001 -3.29752 0
M  V30 13327 C 1285.13 -2.18303 -3.68141 0
M  V30 13328 C 1284.45 -1.80959 -5.03148 0
M  V30 13329 C 1285.75 -3.60296 -3.78132 0
M  V30 13330 H 1287.45 -2.25771 -1.96642 0
M  V30 13331 H 1284.99 -1.08682 -0.944685 0
M  V30 13332 H 1286.95 -1.04766 -4.08169 0
M  V30 13333 H 1285.67 -0.111832 -3.26408 0
M  V30 13334 H 1284.33 -2.21642 -2.92011 0
M  V30 13335 H 1283.98 -0.817495 -4.96312 0
M  V30 13336 H 1283.68 -2.54129 -5.29804 0
M  V30 13337 H 1285.2 -1.78255 -5.84001 0
M  V30 13338 H 1286.62 -3.59259 -4.46773 0
M  V30 13339 H 1285.01 -4.32258 -4.16261 0
M  V30 13340 H 1286.08 -3.9618 -2.79588 0
M  V30 13341 N 1287.43 1.02549 -1.19673 0
M  V30 13342 C 1288.36 2.10991 -0.8953 0
M  V30 13343 C 1289.37 1.62405 0.113373 0
M  V30 13344 O 1290.56 1.7812 -0.116485 0
M  V30 13345 C 1287.66 3.37394 -0.319124 0
M  V30 13346 C 1286.83 4.15154 -1.37718 0
M  V30 13347 C 1285.89 5.19867 -0.81393 0
M  V30 13348 O 1284.92 5.49285 -1.49246 0
M  V30 13349 N 1286.12 5.79248 0.381089 0
M  V30 13350 H 1288.88 2.37438 -1.82875 0
M  V30 13351 H 1286.45 1.18867 -1.09919 0
M  V30 13352 H 1288.44 4.04637 0.0716106 0
M  V30 13353 H 1287.01 3.08267 0.518681 0
M  V30 13354 H 1286.23 3.4301 -1.94262 0
M  V30 13355 H 1287.52 4.63892 -2.09003 0
M  V30 13356 H 1286.91 5.5767 0.949791 0
M  V30 13357 H 1285.47 6.47882 0.713563 0
M  V30 13358 N 1288.9 1.00119 1.21713 0
M  V30 13359 C 1289.85 0.558388 2.23943 0
M  V30 13360 C 1290.82 -0.413576 1.60869 0
M  V30 13361 O 1292.01 -0.316478 1.88157 0
M  V30 13362 C 1289.15 -0.112618 3.44916 0
M  V30 13363 C 1288.26 0.902071 4.22477 0
M  V30 13364 C 1287.39 0.203722 5.30809 0
M  V30 13365 C 1286.43 1.20622 6.00097 0
M  V30 13366 N 1285.57 0.535607 7.00054 0
M  V30 13367 H 1290.41 1.43486 2.61182 0
M  V30 13368 H 1287.95 0.718572 1.28355 0
M  V30 13369 H 1289.9 -0.51865 4.13964 0
M  V30 13370 H 1288.53 -0.952827 3.08417 0
M  V30 13371 H 1287.59 1.42637 3.52645 0
M  V30 13372 H 1288.9 1.66513 4.70186 0
M  V30 13373 H 1288.05 -0.258614 6.06149 0
M  V30 13374 H 1286.79 -0.591773 4.84096 0
M  V30 13375 H 1285.8 1.6791 5.23532 0
M  V30 13376 H 1287.02 2.00273 6.48897 0
M  V30 13377 H 1284.97 -0.2403 6.5556 0
M  V30 13378 H 1284.88 1.23698 7.45812 0
M  V30 13379 H 1286.15 0.0963489 7.7944 0
M  V30 13380 N 1290.38 -1.37203 0.775435 0
M  V30 13381 C 1291.34 -2.28566 0.170406 0
M  V30 13382 C 1292.34 -1.48195 -0.624085 0
M  V30 13383 O 1293.53 -1.68364 -0.447132 0
M  V30 13384 C 1290.67 -3.32186 -0.765829 0
M  V30 13385 H 1291.86 -2.8358 0.975824 0
M  V30 13386 H 1289.41 -1.46531 0.543895 0
M  V30 13387 H 1290.15 -2.82303 -1.59611 0
M  V30 13388 H 1289.93 -3.91598 -0.198251 0
M  V30 13389 H 1291.42 -4.0045 -1.18446 0
M  V30 13390 N 1291.86 -0.526279 -1.48553 0
M  V30 13391 C 1292.81 0.238513 -2.29564 0
M  V30 13392 C 1293.78 0.937222 -1.37133 0
M  V30 13393 O 1294.96 0.93897 -1.66096 0
M  V30 13394 C 1292.1 1.28173 -3.20415 0
M  V30 13395 C 1291.21 0.592244 -4.27921 0
M  V30 13396 C 1290.35 1.61808 -5.05956 0
M  V30 13397 C 1289.39 0.911846 -6.0527 0
M  V30 13398 N 1288.53 1.88305 -6.76377 0
M  V30 13399 H 1293.37 -0.458502 -2.94452 0
M  V30 13400 H 1290.9 -0.237948 -1.45163 0
M  V30 13401 H 1292.86 1.89883 -3.71484 0
M  V30 13402 H 1291.49 1.94718 -2.57458 0
M  V30 13403 H 1290.54 -0.138714 -3.80147 0
M  V30 13404 H 1291.85 0.0375427 -4.98786 0
M  V30 13405 H 1291.01 2.30956 -5.61021 0
M  V30 13406 H 1289.75 2.20667 -4.34922 0
M  V30 13407 H 1288.75 0.206273 -5.49413 0
M  V30 13408 H 1289.98 0.329415 -6.78301 0
M  V30 13409 H 1287.92 2.46079 -6.08096 0
M  V30 13410 H 1287.84 1.37969 -7.43304 0
M  V30 13411 H 1289.11 2.56663 -7.36033 0
M  V30 13412 O 1293.38 1.56388 -0.403108 0
M  V30 13413 H 1294.07 1.93202 0.138823 0
M  V30 END ATOM
M  V30 BEGIN BOND
M  V30 END BOND
M  V30 END CTAB
M  END
$$$$
