drugbank_target|P08179 Phosphoribosylglycinamide formyltransferase (DB02236; DB02540; DB02794; DB04264)
 OpenBabel12092119543D

  0  0  0     0  0            999 V3000
M  V30 BEGIN CTAB
M  V30 COUNTS 3247 3284 0 0 0
M  V30 BEGIN ATOM
M  V30 1 H -0.908 1.98254 -0.117106 0
M  V30 2 N 0 1.576 0 0
M  V30 3 C 0.933 2.03868 1.02534 0
M  V30 4 C 1.911 0.928543 1.3348 0
M  V30 5 O 3.095 1.19667 1.45644 0
M  V30 6 C 0.222 2.43627 2.35294 0
M  V30 7 C -0.732 3.65373 2.2001 0
M  V30 8 S 0.101 5.13292 1.52614 0
M  V30 9 C 1.257 5.56322 2.86805 0
M  V30 10 H 1.49 2.90518 0.631377 0
M  V30 11 H -0.977 1.52953 0.210867 0
M  V30 12 H 0.981 2.67203 3.11629 0
M  V30 13 H -0.358 1.57376 2.7183 0
M  V30 14 H -1.165 3.90944 3.18086 0
M  V30 15 H -1.563 3.418 1.51819 0
M  V30 16 H 0.729 5.58782 3.83104 0
M  V30 17 H 1.672 6.56266 2.65933 0
M  V30 18 H 2.08 4.83886 2.90714 0
M  V30 19 N 1.4781 -0.272755 1.55222 0
M  V30 20 C 2.4261 -1.35705 1.88909 0
M  V30 21 C 3.4201 -1.5112 0.765456 0
M  V30 22 O 4.6261 -1.52901 0.949802 0
M  V30 23 H 1.0011 -0.453868 0.59959 0
M  V30 24 H 2.9721 -1.04544 2.79487 0
M  V30 25 C 1.7211 -2.71049 2.17779 0
M  V30 26 H 1.0441 -2.59979 3.03728 0
M  V30 27 H 2.4841 -3.45858 2.45272 0
M  V30 28 C 0.9431 -3.22165 0.985473 0
M  V30 29 O 1.4731 -4.01096 0.220233 0
M  V30 30 N -0.3209 -2.7985 0.783108 0
M  V30 31 H -0.7739 -2.15775 1.40708 0
M  V30 32 H -0.8159 -3.14397 -0.0130392 0
M  V30 33 N 2.9562 -1.48159 -0.537278 0
M  V30 34 C 4.2052 -1.5506 -1.28993 0
M  V30 35 C 4.5182 -0.226211 -1.94288 0
M  V30 36 O 5.7242 -0.173395 -2.70946 0
M  V30 37 C 4.1802 -2.73429 -2.34018 0
M  V30 38 C 3.7882 -4.1248 -1.74825 0
M  V30 39 C 5.5322 -2.89638 -3.10339 0
M  V30 40 C 3.4392 -5.22121 -2.77747 0
M  V30 41 H 2.3692 -0.577231 -0.485098 0
M  V30 42 H 5.0202 -1.74478 -0.568317 0
M  V30 43 H 3.4022 -2.47431 -3.09182 0
M  V30 44 H 4.5762 -4.48466 -1.05899 0
M  V30 45 H 2.8912 -4.01327 -1.11022 0
M  V30 46 H 5.4882 -3.68718 -3.87235 0
M  V30 47 H 5.8312 -1.9882 -3.65754 0
M  V30 48 H 6.3642 -3.15502 -2.42288 0
M  V30 49 H 3.1032 -6.1488 -2.27161 0
M  V30 50 H 2.6232 -4.90631 -3.45024 0
M  V30 51 H 4.3022 -5.49924 -3.4087 0
M  V30 52 N 4.4343 0.785586 -1.36625 0
M  V30 53 C 5.6803 1.54591 -1.31261 0
M  V30 54 C 6.0133 1.93906 0.106823 0
M  V30 55 O 5.2883 1.63007 1.06108 0
M  V30 56 C 5.5713 2.82038 -2.23889 0
M  V30 57 C 5.4243 2.49066 -3.74548 0
M  V30 58 C 6.7433 3.83887 -2.15217 0
M  V30 59 H 3.8623 0.560846 -0.478143 0
M  V30 60 H 6.5043 0.902278 -1.67209 0
M  V30 61 H 4.6543 3.36961 -1.93363 0
M  V30 62 H 6.3263 2.00164 -4.15611 0
M  V30 63 H 4.5693 1.81954 -3.93796 0
M  V30 64 H 5.2403 3.40109 -4.34776 0
M  V30 65 H 7.7163 3.38421 -2.42096 0
M  V30 66 H 6.5923 4.70806 -2.82193 0
M  V30 67 H 6.8533 4.27131 -1.14068 0
M  V30 68 N 5.9124 1.20967 1.01018 0
M  V30 69 C 7.1584 1.02526 1.74975 0
M  V30 70 C 7.4914 -0.4408 1.89131 0
M  V30 71 O 6.7664 -1.32718 1.42184 0
M  V30 72 C 7.0494 1.71699 3.1653 0
M  V30 73 C 6.9024 3.25791 3.10129 0
M  V30 74 C 8.2214 1.45531 4.15342 0
M  V30 75 H 5.3404 0.373863 0.635134 0
M  V30 76 H 7.9824 1.49071 1.17805 0
M  V30 77 H 6.1324 1.32128 3.65341 0
M  V30 78 H 7.8044 3.74697 2.69072 0
M  V30 79 H 6.0474 3.56363 2.47362 0
M  V30 80 H 6.7184 3.69353 4.10222 0
M  V30 81 H 9.1944 1.79872 3.75213 0
M  V30 82 H 8.0704 1.96453 5.1254 0
M  V30 83 H 8.3314 0.384237 4.40427 0
M  V30 84 N 7.3905 -1.2043 1.01659 0
M  V30 85 C 8.3205 -2.25466 0.607226 0
M  V30 86 C 9.3015 -1.65853 -0.377716 0
M  V30 87 O 10.4865 -1.92409 -0.263149 0
M  V30 88 C 7.6165 -3.47256 -0.0552949 0
M  V30 89 C 6.5705 -4.19462 0.850632 0
M  V30 90 C 5.8965 -5.34673 0.0538859 0
M  V30 91 C 7.1965 -4.75603 2.15868 0
M  V30 92 H 8.8905 -2.59962 1.48526 0
M  V30 93 H 6.4365 -1.2496 0.715605 0
M  V30 94 H 8.3895 -4.19917 -0.353233 0
M  V30 95 H 7.1135 -3.11924 -0.968045 0
M  V30 96 H 5.7725 -3.48667 1.13257 0
M  V30 97 H 5.4205 -4.95585 -0.860514 0
M  V30 98 H 5.1205 -5.83913 0.657192 0
M  V30 99 H 6.6445 -6.10138 -0.237598 0
M  V30 100 H 8.0585 -5.40083 1.92311 0
M  V30 101 H 6.4555 -5.3528 2.71284 0
M  V30 102 H 7.5255 -3.94346 2.82169 0
M  V30 103 N 8.8686 -0.792821 -1.36206 0
M  V30 104 C 10.1176 -0.363353 -1.984 0
M  V30 105 C 10.4306 1.07172 -1.63626 0
M  V30 106 O 11.6366 1.60362 -2.19081 0
M  V30 107 C 10.0926 -0.59872 -3.54885 0
M  V30 108 C 9.7006 -2.04543 -3.9858 0
M  V30 109 C 11.4446 -0.233926 -4.23855 0
M  V30 110 C 9.3516 -2.22727 -5.47856 0
M  V30 111 H 8.2816 -0.13212 -0.742334 0
M  V30 112 H 10.9326 -0.974935 -1.55458 0
M  V30 113 H 9.3146 0.0826222 -3.95914 0
M  V30 114 H 10.4886 -2.76345 -3.68741 0
M  V30 115 H 8.8036 -2.36879 -3.42458 0
M  V30 116 H 11.4006 -0.348027 -5.33566 0
M  V30 117 H 11.7436 0.818351 -4.08177 0
M  V30 118 H 12.2766 -0.868639 -3.882 0
M  V30 119 H 9.0156 -3.2635 -5.68486 0
M  V30 120 H 8.5356 -1.55434 -5.7931 0
M  V30 121 H 10.2146 -2.03607 -6.14128 0
M  V30 122 N 10.3467 1.47872 -0.545128 0
M  V30 123 C 11.5717 2.07391 -0.0190611 0
M  V30 124 C 11.9967 1.39688 1.25971 0
M  V30 125 O 11.3547 0.467816 1.7516 0
M  V30 126 C 11.4027 3.60188 0.172335 0
M  V30 127 O 10.5067 3.9339 1.23766 0
M  V30 128 H 9.8477 0.662411 -0.0459059 0
M  V30 129 H 12.3777 1.90066 -0.757365 0
M  V30 130 H 12.3877 4.06129 0.390305 0
M  V30 131 H 11.0627 4.08865 -0.761725 0
M  V30 132 H 9.6397 3.5921 1.00114 0
M  V30 133 N 11.8248 0.280983 1.55075 0
M  V30 134 C 13.0728 -0.333455 1.9933 0
M  V30 135 C 13.3938 -1.55937 1.17085 0
M  V30 136 O 12.6638 -1.94143 0.261805 0
M  V30 137 H 11.2438 -0.126197 0.736263 0
M  V30 138 H 13.9058 0.387678 1.91005 0
M  V30 139 H 13.0018 -0.619292 3.05894 0
M  V30 140 N 13.3029 -1.57598 0.00835791 0
M  V30 141 C 14.2509 -2.10078 -0.998508 0
M  V30 142 C 15.2449 -1.02262 -1.35051 0
M  V30 143 O 16.4509 -1.20719 -1.33518 0
M  V30 144 H 12.8259 -0.670903 -0.339696 0
M  V30 145 H 14.7969 -2.93648 -0.530398 0
M  V30 146 C 13.5459 -2.62615 -2.27879 0
M  V30 147 H 12.8689 -3.45213 -2.01662 0
M  V30 148 H 14.3089 -3.03004 -2.96588 0
M  V30 149 C 12.7679 -1.54407 -2.99433 0
M  V30 150 O 13.2979 -0.931812 -3.90743 0
M  V30 151 N 11.5039 -1.2695 -2.61404 0
M  V30 152 H 11.0509 -1.76924 -1.87232 0
M  V30 153 H 11.0089 -0.547704 -3.09593 0
M  V30 154 N 14.781 0.264519 -1.55364 0
M  V30 155 C 16.029 0.993021 -1.76021 0
M  V30 156 C 16.35 1.86511 -0.569099 0
M  V30 157 O 15.62 1.91438 0.415735 0
M  V30 158 H 14.2 0.369639 -0.649135 0
M  V30 159 H 16.862 0.286707 -1.9278 0
M  V30 160 H 15.958 1.62502 -2.66457 0
M  V30 161 N 16.2591 1.48442 0.529413 0
M  V30 162 C 17.4841 1.60406 1.31471 0
M  V30 163 C 17.9091 0.264738 1.86228 0
M  V30 164 O 17.2671 -0.763668 1.64432 0
M  V30 165 C 17.3151 2.65419 2.44101 0
M  V30 166 O 16.4191 2.22618 3.47153 0
M  V30 167 H 15.7601 0.537863 0.389357 0
M  V30 168 H 18.2901 1.94432 0.636965 0
M  V30 169 H 18.3001 2.86709 2.90279 0
M  V30 170 H 16.9751 3.62652 2.03608 0
M  V30 171 H 15.5521 2.11543 3.0709 0
M  V30 172 N 17.7372 -0.778329 1.37039 0
M  V30 173 C 18.6852 -1.91278 1.32345 0
M  V30 174 C 19.6792 -1.68051 0.213331 0
M  V30 175 O 20.8852 -1.75922 0.38098 0
M  V30 176 H 17.2602 -0.628909 0.412283 0
M  V30 177 H 19.2312 -1.92355 2.28127 0
M  V30 178 C 17.9802 -3.28455 1.14073 0
M  V30 179 H 17.3032 -3.46901 1.98746 0
M  V30 180 H 18.7432 -4.08152 1.14837 0
M  V30 181 C 17.2022 -3.36548 -0.154015 0
M  V30 182 O 17.7322 -3.85186 -1.13993 0
M  V30 183 N 15.9382 -2.89894 -0.202475 0
M  V30 184 H 15.4852 -2.50504 0.600476 0
M  V30 185 H 15.4432 -2.9569 -1.06841 0
M  V30 186 N 19.2153 -1.21501 -1.00376 0
M  V30 187 C 20.1453 -0.999478 -2.11028 0
M  V30 188 C 21.1263 0.0759671 -1.6993 0
M  V30 189 O 22.3113 -0.0841106 -1.94018 0
M  V30 190 C 19.4413 -0.564709 -3.42678 0
M  V30 191 C 18.3953 -1.58486 -3.97576 0
M  V30 192 C 17.7213 -1.00628 -5.25146 0
M  V30 193 C 19.0213 -2.97204 -4.29496 0
M  V30 194 H 20.7153 -1.92495 -2.29317 0
M  V30 195 H 18.2613 -0.92693 -1.102 0
M  V30 196 H 20.2143 -0.401091 -4.19487 0
M  V30 197 H 18.9383 0.396411 -3.24185 0
M  V30 198 H 17.5973 -1.73606 -3.22888 0
M  V30 199 H 17.2453 -0.0368439 -5.02987 0
M  V30 200 H 16.9453 -1.68771 -5.62841 0
M  V30 201 H 18.4693 -0.854015 -6.04598 0
M  V30 202 H 19.8833 -2.8552 -4.97143 0
M  V30 203 H 18.2803 -3.62372 -4.78338 0
M  V30 204 H 19.3503 -3.47956 -3.3772 0
M  V30 205 N 20.6934 1.19889 -1.02296 0
M  V30 206 C 21.6254 2.22334 -0.556787 0
M  V30 207 C 22.6384 1.58674 0.364199 0
M  V30 208 O 23.8274 1.77768 0.161533 0
M  V30 209 C 20.9274 3.38257 0.208694 0
M  V30 210 C 20.1004 4.31504 -0.71577 0
M  V30 211 C 19.1594 5.262 0.00325597 0
M  V30 212 O 18.1854 5.65798 -0.621357 0
M  V30 213 N 19.3874 5.66303 1.27599 0
M  V30 214 H 22.1524 2.62957 -1.43784 0
M  V30 215 H 19.7134 1.34495 -0.901261 0
M  V30 216 H 21.7054 3.98616 0.699111 0
M  V30 217 H 20.2754 2.96472 0.991102 0
M  V30 218 H 19.4954 3.69016 -1.38638 0
M  V30 219 H 20.7834 4.9072 -1.34428 0
M  V30 220 H 20.1814 5.36155 1.80429 0
M  V30 221 H 18.7384 6.28942 1.71102 0
M  V30 222 N 22.1715 0.800033 1.35784 0
M  V30 223 C 23.1345 0.211565 2.28221 0
M  V30 224 C 24.1345 -0.59728 1.49296 0
M  V30 225 O 25.3245 -0.416721 1.69142 0
M  V30 226 C 22.4565 -0.705846 3.33513 0
M  V30 227 H 23.6495 1.02677 2.81776 0
M  V30 228 H 21.2025 0.570211 1.45528 0
M  V30 229 H 21.9375 -1.54498 2.85133 0
M  V30 230 H 21.7225 -0.127655 3.91892 0
M  V30 231 H 23.2125 -1.11211 4.02519 0
M  V30 232 N 23.6496 -1.47581 0.552962 0
M  V30 233 C 24.8986 -2.01684 0.0251995 0
M  V30 234 C 25.2116 -1.43317 -1.33115 0
M  V30 235 O 26.4176 -1.89057 -1.94858 0
M  V30 236 C 24.8736 -3.599 -0.00542052 0
M  V30 237 C 24.4816 -4.27257 1.34742 0
M  V30 238 C 26.2256 -4.21768 -0.4808 0
M  V30 239 C 24.1326 -5.77467 1.27614 0
M  V30 240 H 23.0626 -0.753979 0.00565033 0
M  V30 241 H 25.7136 -1.69616 0.70018 0
M  V30 242 H 24.0956 -3.88911 -0.745961 0
M  V30 243 H 25.2696 -4.09893 2.10534 0
M  V30 244 H 23.5846 -3.77358 1.76039 0
M  V30 245 H 26.1816 -5.31838 -0.55246 0
M  V30 246 H 26.5246 -3.88651 -1.49184 0
M  V30 247 H 27.0576 -3.97273 0.204752 0
M  V30 248 H 23.7966 -6.15196 2.26304 0
M  V30 249 H 23.3166 -5.9718 0.55996 0
M  V30 250 H 24.9956 -6.3959 0.976421 0
M  V30 251 N 25.1277 -0.289203 -1.54924 0
M  V30 252 C 26.3767 0.324231 -1.99077 0
M  V30 253 C 26.6897 1.5591 -1.18117 0
M  V30 254 O 27.8957 2.24637 -1.52481 0
M  V30 255 C 26.3517 0.628209 -3.54375 0
M  V30 256 C 25.9597 -0.587647 -4.44129 0
M  V30 257 C 27.7037 1.20349 -4.07083 0
M  V30 258 C 25.6107 -0.257475 -5.90839 0
M  V30 259 H 24.5407 0.124924 -0.743579 0
M  V30 260 H 27.1917 -0.396063 -1.79175 0
M  V30 261 H 25.5737 1.40778 -3.70132 0
M  V30 262 H 26.7477 -1.36418 -4.40144 0
M  V30 263 H 25.0627 -1.08074 -4.0213 0
M  V30 264 H 27.6597 1.46456 -5.14252 0
M  V30 265 H 28.0027 2.14195 -3.56968 0
M  V30 266 H 28.5357 0.485889 -3.94821 0
M  V30 267 H 25.2747 -1.16419 -6.45079 0
M  V30 268 H 24.7947 0.482018 -5.9786 0
M  V30 269 H 26.4737 0.145238 -6.46837 0
M  V30 270 N 26.6058 1.57591 -0.0167156 0
M  V30 271 C 27.8828 1.82547 0.702564 0
M  V30 272 C 28.2628 0.898018 1.91047 0
M  V30 273 O 27.6108 -0.0493456 2.28447 0
M  V30 274 C 27.8208 3.31459 1.09251 0
M  V30 275 C 29.1688 3.97622 1.48937 0
M  V30 276 O 30.1928 3.35881 1.18584 0
M  V30 277 O 29.0518 5.06415 2.05442 0
M  V30 278 H 26.1458 0.752268 0.343544 0
M  V30 279 H 28.6918 1.69644 -0.0434495 0
M  V30 280 H 27.4638 3.9061 0.23227 0
M  V30 281 H 27.0868 3.49422 1.89709 0
M  V30 282 N 28.0839 -0.256276 1.55502 0
M  V30 283 C 29.0469 -1.30047 1.88734 0
M  V30 284 C 30.0469 -1.4154 0.763086 0
M  V30 285 O 31.2369 -1.40403 1.03115 0
M  V30 286 C 28.3689 -2.67953 2.10747 0
M  V30 287 H 29.5619 -1.01802 2.82093 0
M  V30 288 H 27.1149 -0.495134 1.4825 0
M  V30 289 H 27.8499 -3.01351 1.19825 0
M  V30 290 H 27.6349 -2.60993 2.92617 0
M  V30 291 H 29.1249 -3.43368 2.37673 0
M  V30 292 N 29.562 -1.4872 -0.521534 0
M  V30 293 C 30.802 -1.58771 -1.28729 0
M  V30 294 C 31.166 -0.259394 -1.9024 0
M  V30 295 O 32.367 -0.234942 -2.67771 0
M  V30 296 C 30.638 -2.70039 -2.34124 0
M  V30 297 S 32.197 -2.9991 -3.20312 0
M  V30 298 H 29.015 -0.560251 -0.437767 0
M  V30 299 H 31.617 -1.86283 -0.593188 0
M  V30 300 H 30.321 -3.65101 -1.87429 0
M  V30 301 H 29.852 -2.44455 -3.08229 0
M  V30 302 H 31.867 -2.39855 -4.34378 0
M  V30 303 N 31.0401 0.771051 -1.3745 0
M  V30 304 C 31.9871 1.88435 -1.3327 0
M  V30 305 C 32.9571 1.64914 -0.198136 0
M  V30 306 O 34.1421 1.86821 -0.387606 0
M  V30 307 C 31.2821 3.25509 -1.14622 0
M  V30 308 C 30.3951 3.60979 -2.37314 0
M  V30 309 C 29.5301 4.87265 -2.11533 0
M  V30 310 C 28.5691 5.15469 -3.30088 0
M  V30 311 N 27.7061 6.32944 -3.03853 0
M  V30 312 H 32.5461 1.91344 -2.28455 0
M  V30 313 H 30.0831 0.935466 -1.13523 0
M  V30 314 H 32.0411 4.04582 -1.01831 0
M  V30 315 H 30.6711 3.21974 -0.230837 0
M  V30 316 H 29.7231 2.76885 -2.60842 0
M  V30 317 H 31.0351 3.77759 -3.25729 0
M  V30 318 H 30.1891 5.74244 -1.95777 0
M  V30 319 H 28.9281 4.7259 -1.20457 0
M  V30 320 H 27.9331 4.26966 -3.46382 0
M  V30 321 H 29.1581 5.32052 -4.22016 0
M  V30 322 H 27.1041 6.19625 -2.15407 0
M  V30 323 H 27.0211 6.50143 -3.85812 0
M  V30 324 H 28.2891 7.22857 -2.91716 0
M  V30 325 N 32.5182 1.22032 0.997298 0
M  V30 326 C 33.7462 1.06841 1.7718 0
M  V30 327 C 34.1612 -0.381325 1.84909 0
M  V30 328 O 33.5182 -1.26437 1.31605 0
M  V30 329 C 33.5692 1.66814 3.20711 0
M  V30 330 O 33.2902 3.06116 3.13408 0
M  V30 331 C 34.7912 1.56838 4.14628 0
M  V30 332 H 32.0112 0.374782 0.556578 0
M  V30 333 H 34.5552 1.61532 1.2541 0
M  V30 334 H 32.7102 1.16196 3.69564 0
M  V30 335 H 33.1242 3.34926 4.0364 0
M  V30 336 H 34.5982 2.03532 5.13107 0
M  V30 337 H 35.0752 0.524155 4.36061 0
M  V30 338 H 35.6812 2.06741 3.7167 0
M  V30 339 N 33.9963 -1.19345 1.0293 0
M  V30 340 C 34.9443 -2.24621 0.604001 0
M  V30 341 C 35.9383 -1.65452 -0.363587 0
M  V30 342 O 37.1443 -1.78497 -0.23212 0
M  V30 343 H 33.5193 -0.730858 0.177061 0
M  V30 344 H 35.4903 -2.5781 1.50255 0
M  V30 345 C 34.2393 -3.47688 -0.0289127 0
M  V30 346 H 33.5623 -3.93505 0.706651 0
M  V30 347 H 35.0023 -4.23011 -0.289432 0
M  V30 348 C 33.4613 -3.11817 -1.2756 0
M  V30 349 O 33.9913 -3.2451 -2.36762 0
M  V30 350 N 32.1973 -2.66246 -1.16453 0
M  V30 351 H 31.7443 -2.56118 -0.275914 0
M  V30 352 H 31.7023 -2.42617 -1.99961 0
M  V30 353 N 35.4744 -0.807222 -1.35358 0
M  V30 354 C 36.4214 -0.216037 -2.29787 0
M  V30 355 C 37.3914 0.650278 -1.52842 0
M  V30 356 O 38.5764 0.595227 -1.81278 0
M  V30 357 C 35.7164 0.628893 -3.39321 0
M  V30 358 C 34.8294 -0.257927 -4.31229 0
M  V30 359 C 33.9644 0.595069 -5.27856 0
M  V30 360 C 33.0034 -0.292111 -6.11403 0
M  V30 361 N 32.1404 0.520895 -7.00165 0
M  V30 362 H 36.9804 -1.02671 -2.79755 0
M  V30 363 H 34.5174 -0.517839 -1.37684 0
M  V30 364 H 36.4754 1.13393 -4.01494 0
M  V30 365 H 35.1054 1.40482 -2.90628 0
M  V30 366 H 34.1574 -0.881076 -3.70056 0
M  V30 367 H 35.4694 -0.940759 -4.89848 0
M  V30 368 H 34.6234 1.16522 -5.95405 0
M  V30 369 H 33.3624 1.31146 -4.69736 0
M  V30 370 H 32.3674 -0.874525 -5.428 0
M  V30 371 H 33.5924 -1.00638 -6.71602 0
M  V30 372 H 31.5384 1.22125 -6.44532 0
M  V30 373 H 31.4554 -0.103877 -7.55929 0
M  V30 374 H 32.7234 1.0743 -7.72062 0
M  V30 375 N 36.9525 1.47285 -0.560781 0
M  V30 376 C 38.2015 2.01668 -0.035895 0
M  V30 377 C 38.5145 1.44021 1.32353 0
M  V30 378 O 39.7205 1.90088 1.93853 0
M  V30 379 C 38.1765 3.59897 -0.0136659 0
M  V30 380 C 37.7845 4.26536 -1.37006 0
M  V30 381 C 39.5285 4.22017 0.458425 0
M  V30 382 C 37.4355 5.76782 -1.30675 0
M  V30 383 H 36.3655 0.753938 -0.00964879 0
M  V30 384 H 39.0165 1.69243 -0.709166 0
M  V30 385 H 37.3985 3.89301 0.725325 0
M  V30 386 H 38.5725 4.0877 -2.12705 0
M  V30 387 H 36.8875 3.76419 -1.78038 0
M  V30 388 H 39.4845 5.32124 0.524247 0
M  V30 389 H 39.8275 3.89437 1.4712 0
M  V30 390 H 40.3605 3.97159 -0.225818 0
M  V30 391 H 37.0995 6.13988 -2.29564 0
M  V30 392 H 36.6195 5.96875 -0.591622 0
M  V30 393 H 38.2985 6.39063 -1.01033 0
M  V30 394 N 38.4306 0.297415 1.54768 0
M  V30 395 C 39.3776 -0.580276 2.23386 0
M  V30 396 C 40.3476 -1.13238 1.21517 0
M  V30 397 O 41.5326 -1.17757 1.50126 0
M  V30 398 C 38.6726 -1.74801 2.97555 0
M  V30 399 C 37.7856 -1.22764 4.1419 0
M  V30 400 C 36.9206 -2.35895 4.75949 0
M  V30 401 C 35.9596 -1.80974 5.84735 0
M  V30 402 N 35.0966 -2.87664 6.40464 0
M  V30 403 H 39.9366 0.0114833 2.97998 0
M  V30 404 H 37.4736 0.0174361 1.4709 0
M  V30 405 H 39.4316 -2.43475 3.38786 0
M  V30 406 H 38.0616 -2.31145 2.25326 0
M  V30 407 H 37.1136 -0.433271 3.77924 0
M  V30 408 H 38.4256 -0.785551 4.92575 0
M  V30 409 H 37.5796 -3.12523 5.20014 0
M  V30 410 H 36.3186 -2.83429 3.96887 0
M  V30 411 H 35.3236 -1.02834 5.40097 0
M  V30 412 H 36.5486 -1.34348 6.65678 0
M  V30 413 H 34.4946 -3.34538 5.64287 0
M  V30 414 H 34.4116 -2.4794 7.14186 0
M  V30 415 H 35.6796 -3.642 6.89187 0
M  V30 416 N 39.9087 -1.5758 0.0250728 0
M  V30 417 C 41.1567 -1.91255 -0.653151 0
M  V30 418 C 41.4777 -0.901691 -1.729 0
M  V30 419 O 40.7477 0.0573785 -1.95816 0
M  V30 420 H 39.3277 -0.705942 -0.244243 0
M  V30 421 H 41.9897 -1.94767 0.0719209 0
M  V30 422 H 41.0857 -2.91752 -1.10847 0
M  V30 423 N 41.3868 0.248026 -1.55636 0
M  V30 424 C 42.6148 0.993808 -1.81469 0
M  V30 425 C 43.0298 1.78991 -0.60064 0
M  V30 426 O 42.3868 1.77345 0.430682 0
M  V30 427 C 42.4378 1.93258 -3.05506 0
M  V30 428 O 42.1588 1.16869 -4.22224 0
M  V30 429 C 43.6598 2.79444 -3.4413 0
M  V30 430 H 40.8798 0.292486 -0.603898 0
M  V30 431 H 43.4238 0.271253 -2.02693 0
M  V30 432 H 41.5788 2.60943 -2.86335 0
M  V30 433 H 41.9928 1.80359 -4.92515 0
M  V30 434 H 43.4668 3.41066 -4.34026 0
M  V30 435 H 43.9438 3.50499 -2.64665 0
M  V30 436 H 44.5498 2.17214 -3.65648 0
M  V30 437 N 42.8649 1.48995 0.513639 0
M  V30 438 C 44.1109 1.58076 1.27042 0
M  V30 439 C 44.4439 0.261026 1.92438 0
M  V30 440 O 43.7189 -0.734393 1.80103 0
M  V30 441 C 44.0019 2.73091 2.34719 0
M  V30 442 C 43.8549 4.14821 1.73907 0
M  V30 443 C 45.1739 2.83796 3.36375 0
M  V30 444 H 42.2929 0.575391 0.460536 0
M  V30 445 H 44.9349 1.81232 0.570516 0
M  V30 446 H 43.0849 2.53479 2.94416 0
M  V30 447 H 44.7569 4.45917 1.18135 0
M  V30 448 H 42.9999 4.21058 1.0437 0
M  V30 449 H 43.6709 4.91147 2.51949 0
M  V30 450 H 46.1469 3.01611 2.86653 0
M  V30 451 H 45.0229 3.65971 4.09093 0
M  V30 452 H 45.2839 1.92624 3.9793 0
M  V30 453 N 44.343 -0.763751 1.37857 0
M  V30 454 C 45.759 -1.06542 1.18832 0
M  V30 455 C 45.959 -2.01478 0.0299722 0
M  V30 456 O 45.015 -2.4458 -0.627447 0
M  V30 457 C 46.328 -1.65525 2.51042 0
M  V30 458 C 47.876 -1.77745 2.57635 0
M  V30 459 C 48.351 -2.4014 3.89996 0
M  V30 460 N 49.842 -2.47582 3.91481 0
M  V30 461 C 50.577 -2.96732 4.9065 0
M  V30 462 N 50.073 -3.45993 6.00217 0
M  V30 463 N 51.866 -2.95679 4.78048 0
M  V30 464 H 44.017 -0.133556 2.1198 0
M  V30 465 H 46.28 -0.121879 0.940133 0
M  V30 466 H 45.986 -1.03236 3.36207 0
M  V30 467 H 45.86 -2.64719 2.68707 0
M  V30 468 H 48.247 -2.39164 1.72872 0
M  V30 469 H 48.328 -0.772836 2.43846 0
M  V30 470 H 47.972 -1.79358 4.75177 0
M  V30 471 H 47.902 -3.41223 4.01092 0
M  V30 472 H 50.393 -2.1273 3.12337 0
M  V30 473 H 50.706 -3.81922 6.7183 0
M  V30 474 H 49.051 -3.44077 6.03851 0
M  V30 475 H 52.242 -2.56499 3.91568 0
M  V30 476 H 52.415 -3.33672 5.55488 0
M  V30 477 N 45.8211 -1.22559 -0.990812 0
M  V30 478 C 46.7841 -0.998863 -2.0629 0
M  V30 479 C 47.7841 0.0354834 -1.60761 0
M  V30 480 O 48.9741 -0.203231 -1.7301 0
M  V30 481 C 46.1061 -0.509203 -3.37076 0
M  V30 482 H 47.2991 -1.95014 -2.27837 0
M  V30 483 H 44.8521 -1.04456 -1.16269 0
M  V30 484 H 45.5871 0.446335 -3.21214 0
M  V30 485 H 45.3721 -1.25547 -3.71457 0
M  V30 486 H 46.8621 -0.370888 -4.1595 0
M  V30 487 N 47.2992 1.18797 -1.03562 0
M  V30 488 C 48.5452 1.8893 -0.737113 0
M  V30 489 C 48.8782 1.79837 0.732956 0
M  V30 490 O 48.1532 1.19525 1.5344 0
M  V30 491 C 48.4362 3.39607 -1.19745 0
M  V30 492 C 48.2892 3.57537 -2.72924 0
M  V30 493 C 49.6082 4.33069 -0.783526 0
M  V30 494 H 46.7272 0.686057 -0.269249 0
M  V30 495 H 49.3692 1.39797 -1.28673 0
M  V30 496 H 47.5192 3.81583 -0.729855 0
M  V30 497 H 49.1912 3.24688 -3.27682 0
M  V30 498 H 47.4342 3.00363 -3.12993 0
M  V30 499 H 48.1052 4.63238 -3.00191 0
M  V30 500 H 50.5812 3.98846 -1.18581 0
M  V30 501 H 49.4572 5.3707 -1.13343 0
M  V30 502 H 49.7182 4.40986 0.313681 0
M  V30 503 N 48.7773 0.814389 1.34928 0
M  V30 504 C 50.0243 0.398423 1.98542 0
M  V30 505 C 50.3523 -1.03638 1.64589 0
M  V30 506 O 49.6073 -1.73509 0.90516 0
M  V30 507 C 49.9063 0.537781 3.53331 0
M  V30 508 C 49.5723 1.93704 4.07172 0
M  V30 509 C 48.2343 2.31984 4.21589 0
M  V30 510 C 50.5863 2.85213 4.36237 0
M  V30 511 C 47.9143 3.61125 4.62391 0
M  V30 512 C 50.2663 4.13809 4.78482 0
M  V30 513 C 48.9303 4.52077 4.91104 0
M  V30 514 H 48.2003 0.145793 0.726516 0
M  V30 515 H 50.8473 1.03669 1.61012 0
M  V30 516 H 49.1523 -0.183906 3.91368 0
M  V30 517 H 50.8493 0.196588 4.00518 0
M  V30 518 H 47.4393 1.62966 3.96409 0
M  V30 519 H 51.6233 2.56885 4.24645 0
M  V30 520 H 46.8793 3.90612 4.70353 0
M  V30 521 H 51.0533 4.84811 4.99932 0
M  V30 522 H 48.6803 5.52196 5.22478 0
M  V30 523 N 50.2554 -1.46986 0.568584 0
M  V30 524 C 51.4804 -2.07335 0.0520528 0
M  V30 525 C 51.9054 -1.41675 -1.23733 0
M  V30 526 O 51.2634 -0.495623 -1.74394 0
M  V30 527 C 51.3114 -3.60417 -0.11501 0
M  V30 528 O 50.4154 -3.95309 -1.17492 0
M  V30 529 H 49.7564 -0.661597 0.0564385 0
M  V30 530 H 52.2864 -1.88837 0.787507 0
M  V30 531 H 52.2964 -4.06698 -0.325644 0
M  V30 532 H 50.9714 -4.07601 0.826675 0
M  V30 533 H 49.5484 -3.60757 -0.943869 0
M  V30 534 N 51.7335 -0.305618 -1.54608 0
M  V30 535 C 52.6815 0.584119 -2.25146 0
M  V30 536 C 53.6755 1.13326 -1.25911 0
M  V30 537 O 54.8815 1.08337 -1.43747 0
M  V30 538 H 51.2565 0.206983 -0.722954 0
M  V30 539 H 53.2275 -0.033291 -2.98381 0
M  V30 540 C 51.9765 1.74225 -3.009 0
M  V30 541 H 51.2995 1.32892 -3.77067 0
M  V30 542 H 52.7395 2.34077 -3.53531 0
M  V30 543 C 51.1985 2.64914 -2.0814 0
M  V30 544 O 51.7285 3.66137 -1.65246 0
M  V30 545 N 49.9345 2.3275 -1.74 0
M  V30 546 H 49.4815 1.50479 -2.09078 0
M  V30 547 H 49.4395 2.93694 -1.12211 0
M  V30 548 N 53.2116 1.57565 -0.0334293 0
M  V30 549 C 54.1586 2.10478 0.946981 0
M  V30 550 C 55.1286 1.00787 1.32027 0
M  V30 551 O 56.3136 1.28232 1.41284 0
M  V30 552 C 53.4536 2.63994 2.22263 0
M  V30 553 C 52.5666 3.87709 1.90541 0
M  V30 554 C 51.7016 4.29604 3.12433 0
M  V30 555 C 50.7406 5.46065 2.76549 0
M  V30 556 N 49.8776 5.83096 3.9108 0
M  V30 557 H 54.7176 2.93963 0.488846 0
M  V30 558 H 52.2546 1.45296 0.22969 0
M  V30 559 H 54.2126 2.93114 2.96884 0
M  V30 560 H 52.8426 1.83333 2.65685 0
M  V30 561 H 51.8946 3.65291 1.06144 0
M  V30 562 H 53.2066 4.72403 1.60116 0
M  V30 563 H 52.3606 4.60182 3.9537 0
M  V30 564 H 51.0996 3.43685 3.46023 0
M  V30 565 H 50.1046 5.15176 1.92026 0
M  V30 566 H 51.3296 6.33685 2.44171 0
M  V30 567 H 49.2756 5.00132 4.24504 0
M  V30 568 H 49.1926 6.6244 3.64293 0
M  V30 569 H 50.4606 6.18282 4.74708 0
M  V30 570 N 54.6897 -0.239769 1.55765 0
M  V30 571 C 55.6527 -1.28038 1.90103 0
M  V30 572 C 56.6527 -1.40723 0.778055 0
M  V30 573 O 57.8427 -1.39301 1.04599 0
M  V30 574 C 54.9747 -2.65702 2.13577 0
M  V30 575 H 56.1677 -0.988048 2.83157 0
M  V30 576 H 53.7207 -0.479382 1.48767 0
M  V30 577 H 54.4557 -3.00063 1.23015 0
M  V30 578 H 54.2407 -2.57875 2.95369 0
M  V30 579 H 55.7307 -3.40828 2.41301 0
M  V30 580 N 56.1678 -1.49265 -0.50573 0
M  V30 581 C 57.4448 -1.49012 -1.26707 0
M  V30 582 C 57.8248 -0.215205 -2.1 0
M  V30 583 O 57.1728 0.802547 -2.13943 0
M  V30 584 C 57.3828 -2.7663 -2.12783 0
M  V30 585 C 58.7308 -3.25932 -2.72127 0
M  V30 586 O 59.7548 -2.77715 -2.23054 0
M  V30 587 O 58.6138 -4.09897 -3.61451 0
M  V30 588 H 55.7078 -0.596197 -0.57313 0
M  V30 589 H 58.2538 -1.61524 -0.52039 0
M  V30 590 H 57.0258 -3.60916 -1.5118 0
M  V30 591 H 56.6488 -2.66956 -2.94653 0
M  V30 592 N 57.6459 0.756429 -1.3826 0
M  V30 593 C 58.6089 1.85176 -1.35065 0
M  V30 594 C 59.6089 1.58818 -0.251703 0
M  V30 595 O 60.7989 1.66615 -0.508433 0
M  V30 596 C 57.9309 3.22596 -1.10201 0
M  V30 597 H 59.1239 1.89417 -2.3251 0
M  V30 598 H 56.6769 0.95783 -1.23512 0
M  V30 599 H 57.4119 3.24025 -0.133504 0
M  V30 600 H 57.1969 3.43122 -1.89762 0
M  V30 601 H 58.6869 4.02673 -1.10654 0
M  V30 602 N 59.124 1.23083 0.984299 0
M  V30 603 C 60.371 1.06057 1.72505 0
M  V30 604 C 60.699 -0.403105 1.90277 0
M  V30 605 O 59.954 -1.3149 1.44944 0
M  V30 606 C 60.253 1.72673 3.1292 0
M  V30 607 C 59.919 3.22586 3.15038 0
M  V30 608 C 58.581 3.63489 3.15324 0
M  V30 609 C 60.933 4.185 3.10657 0
M  V30 610 C 58.261 4.98772 3.08939 0
M  V30 611 C 60.613 5.53769 3.05814 0
M  V30 612 C 59.277 5.94041 3.04419 0
M  V30 613 H 58.547 0.388091 0.631242 0
M  V30 614 H 61.194 1.52963 1.15215 0
M  V30 615 H 59.499 1.18116 3.73572 0
M  V30 616 H 61.196 1.56982 3.68996 0
M  V30 617 H 57.786 2.90022 3.15571 0
M  V30 618 H 61.97 3.87911 3.09579 0
M  V30 619 H 57.226 5.29193 3.0621 0
M  V30 620 H 61.4 6.27808 3.0138 0
M  V30 621 H 59.027 6.98833 2.99227 0
M  V30 622 N 60.6021 -1.18246 1.0419 0
M  V30 623 C 61.8501 -1.87886 0.744543 0
M  V30 624 C 62.1711 -1.8082 -0.730006 0
M  V30 625 O 61.4411 -1.22736 -1.52685 0
M  V30 626 H 60.0211 -0.695556 0.272417 0
M  V30 627 H 62.6831 -1.43494 1.31892 0
M  V30 628 H 61.7791 -2.9389 1.05049 0
M  V30 629 N 62.0802 -0.821533 -1.34494 0
M  V30 630 C 63.0102 -0.257138 -2.3208 0
M  V30 631 C 63.9912 0.625645 -1.58176 0
M  V30 632 O 65.1762 0.552811 -1.86166 0
M  V30 633 C 62.3062 0.582958 -3.42372 0
M  V30 634 C 61.2602 -0.202571 -4.2752 0
M  V30 635 C 60.5862 0.760179 -5.29269 0
M  V30 636 C 61.8862 -1.40998 -5.02908 0
M  V30 637 H 63.5802 -1.07247 -2.79532 0
M  V30 638 H 61.1262 -0.517163 -1.34393 0
M  V30 639 H 63.0792 0.987972 -4.09655 0
M  V30 640 H 61.8032 1.43133 -2.93565 0
M  V30 641 H 60.4622 -0.588936 -3.61838 0
M  V30 642 H 60.1102 1.60447 -4.76724 0
M  V30 643 H 59.8102 0.238809 -5.87115 0
M  V30 644 H 61.3342 1.16308 -5.9942 0
M  V30 645 H 62.7482 -1.07905 -5.63054 0
M  V30 646 H 61.1452 -1.86689 -5.70322 0
M  V30 647 H 62.2152 -2.1889 -4.32684 0
M  V30 648 N 63.5583 1.46682 -0.576371 0
M  V30 649 C 64.4683 2.34032 0.163141 0
M  V30 650 C 65.4843 1.49367 0.892501 0
M  V30 651 O 66.6603 1.82252 0.857106 0
M  V30 652 C 63.7253 3.26435 1.16795 0
M  V30 653 C 62.7863 4.26998 0.443944 0
M  V30 654 C 62.0193 5.14986 1.40088 0
M  V30 655 O 62.2423 5.05785 2.637 0
M  V30 656 O 61.1763 5.94906 0.914917 0
M  V30 657 H 65.0023 2.98607 -0.55388 0
M  V30 658 H 62.5873 1.45554 -0.336821 0
M  V30 659 H 64.4693 3.83459 1.74748 0
M  V30 660 H 63.1443 2.64465 1.86655 0
M  V30 661 H 62.0513 3.7368 -0.177271 0
M  V30 662 H 63.3843 4.91736 -0.213566 0
M  V30 663 N 65.0364 0.313813 1.54444 0
M  V30 664 C 66.4524 -0.0391619 1.59552 0
M  V30 665 C 66.6524 -1.51322 1.33056 0
M  V30 666 O 65.7084 -2.26782 1.11022 0
M  V30 667 C 67.0214 0.370302 2.98411 0
M  V30 668 C 68.5694 0.320139 3.11358 0
M  V30 669 C 69.0444 0.704617 4.52547 0
M  V30 670 N 70.5354 0.657645 4.58508 0
M  V30 671 C 71.2704 0.927453 5.6585 0
M  V30 672 N 70.7664 1.26389 6.81174 0
M  V30 673 N 72.5594 0.853662 5.5558 0
M  V30 674 H 64.7104 1.27433 1.69925 0
M  V30 675 H 66.9734 0.517511 0.794284 0
M  V30 676 H 66.6794 1.39694 3.22767 0
M  V30 677 H 66.5534 -0.269619 3.76235 0
M  V30 678 H 68.9404 -0.697275 2.86744 0
M  V30 679 H 69.0214 0.99486 2.35661 0
M  V30 680 H 68.6654 1.7199 4.77893 0
M  V30 681 H 68.5954 0.00768843 5.26599 0
M  V30 682 H 71.0864 0.409067 3.75679 0
M  V30 683 H 71.3994 1.4554 7.58972 0
M  V30 684 H 69.7444 1.30206 6.82694 0
M  V30 685 H 72.9354 0.590383 4.64362 0
M  V30 686 H 73.1084 1.0673 6.3915 0
M  V30 687 N 66.5145 -1.57545 0.0417849 0
M  V30 688 C 67.4775 -2.09885 -0.92093 0
M  V30 689 C 68.4775 -1.01648 -1.24596 0
M  V30 690 O 69.6675 -1.27759 -1.1842 0
M  V30 691 C 66.7995 -2.57527 -2.23367 0
M  V30 692 H 67.9925 -2.96236 -0.467382 0
M  V30 693 H 65.5455 -1.5493 -0.206467 0
M  V30 694 H 66.2805 -1.74542 -2.73323 0
M  V30 695 H 66.0655 -3.36613 -2.01083 0
M  V30 696 H 67.5555 -2.98201 -2.92346 0
M  V30 697 N 67.9926 0.231505 -1.5589 0
M  V30 698 C 69.4086 0.580748 -1.48659 0
M  V30 699 C 69.6086 1.87617 -0.73498 0
M  V30 700 O 68.6646 2.51046 -0.270586 0
M  V30 701 C 69.9776 0.669202 -2.93159 0
M  V30 702 C 71.5256 0.760499 -3.03621 0
M  V30 703 C 72.0006 0.880383 -4.49459 0
M  V30 704 N 73.4916 0.944861 -4.53461 0
M  V30 705 C 74.2266 1.05716 -5.63571 0
M  V30 706 N 73.7226 1.13403 -6.83456 0
M  V30 707 N 75.5156 1.09152 -5.514 0
M  V30 708 H 67.6666 -0.618695 -2.03189 0
M  V30 709 H 69.9296 -0.215728 -0.923128 0
M  V30 710 H 69.6356 -0.212904 -3.51055 0
M  V30 711 H 69.5096 1.5361 -3.44505 0
M  V30 712 H 71.8966 1.63305 -2.45796 0
M  V30 713 H 71.9776 -0.131864 -2.5546 0
M  V30 714 H 71.6216 0.0123284 -5.07899 0
M  V30 715 H 71.5516 1.78802 -4.95316 0
M  V30 716 H 74.0426 0.896176 -3.6712 0
M  V30 717 H 74.3556 1.21921 -7.63122 0
M  V30 718 H 72.7006 1.10333 -6.86186 0
M  V30 719 H 75.8916 1.02805 -4.56671 0
M  V30 720 H 76.0646 1.17558 -6.37247 0
M  V30 721 N 69.4707 1.49531 0.497807 0
M  V30 722 C 70.4027 1.62559 1.61578 0
M  V30 723 C 71.4157 0.508134 1.54667 0
M  V30 724 O 72.6047 0.780309 1.60541 0
M  V30 725 C 69.7047 1.56925 3.00379 0
M  V30 726 C 68.8777 2.84257 3.3244 0
M  V30 727 C 67.9367 2.71632 4.50669 0
M  V30 728 O 66.9627 3.4557 4.52294 0
M  V30 729 N 68.1647 1.83391 5.5077 0
M  V30 730 H 70.9297 2.58981 1.50828 0
M  V30 731 H 68.4907 1.4666 0.685743 0
M  V30 732 H 70.4827 1.46129 3.77397 0
M  V30 733 H 69.0527 0.683483 3.05037 0
M  V30 734 H 68.2727 3.09381 2.44289 0
M  V30 735 H 69.5607 3.68666 3.5066 0
M  V30 736 H 68.9587 1.22583 5.52259 0
M  V30 737 H 67.5157 1.78515 6.26878 0
M  V30 738 N 70.9488 -0.749086 1.3866 0
M  V30 739 C 71.9118 -1.84457 1.36045 0
M  V30 740 C 72.9118 -1.58682 0.260122 0
M  V30 741 O 74.1018 -1.66343 0.517261 0
M  V30 742 C 71.2338 -3.22008 1.11911 0
M  V30 743 H 72.4268 -1.88182 2.33512 0
M  V30 744 H 69.9798 -0.951266 1.24019 0
M  V30 745 H 70.7148 -3.2395 0.150686 0
M  V30 746 H 70.4998 -3.42111 1.91579 0
M  V30 747 H 71.9898 -4.0208 1.12788 0
M  V30 748 N 72.4269 -1.23603 -0.977757 0
M  V30 749 C 73.6749 -1.06759 -1.71601 0
M  V30 750 C 73.9959 0.395929 -1.90938 0
M  V30 751 O 73.2659 1.28356 -1.47992 0
M  V30 752 H 71.8459 -0.392062 -0.635843 0
M  V30 753 H 74.5079 -1.55362 -1.1768 0
M  V30 754 H 73.6039 -1.55763 -2.70452 0
M  V30 755 N 73.905 1.17692 -1.04816 0
M  V30 756 C 75.154 1.87192 -0.751132 0
M  V30 757 C 75.467 1.8169 0.724441 0
M  V30 758 O 76.673 2.46625 1.13527 0
M  V30 759 C 75.129 3.35857 -1.29338 0
M  V30 760 C 74.737 3.4987 -2.79812 0
M  V30 761 C 76.481 4.10709 -1.07322 0
M  V30 762 C 74.388 4.92536 -3.27356 0
M  V30 763 H 73.318 0.701162 -0.277288 0
M  V30 764 H 75.969 1.32932 -1.26496 0
M  V30 765 H 74.351 3.89631 -0.707376 0
M  V30 766 H 75.525 3.06332 -3.44235 0
M  V30 767 H 73.84 2.88433 -3.00325 0
M  V30 768 H 76.437 5.15952 -1.4035 0
M  V30 769 H 76.78 4.16299 -0.0108001 0
M  V30 770 H 77.313 3.6313 -1.62423 0
M  V30 771 H 74.052 4.92119 -4.33012 0
M  V30 772 H 73.572 5.3676 -2.67673 0
M  V30 773 H 75.251 5.61288 -3.21815 0
M  V30 774 N 75.3831 0.828654 1.34056 0
M  V30 775 C 76.3461 0.259927 2.27721 0
M  V30 776 C 77.3461 -0.565478 1.50529 0
M  V30 777 O 78.5361 -0.38075 1.69988 0
M  V30 778 C 75.6681 -0.634944 3.34935 0
M  V30 779 H 76.8611 1.0863 2.79534 0
M  V30 780 H 74.4141 0.600951 1.44285 0
M  V30 781 H 75.1491 -1.48416 2.88346 0
M  V30 782 H 74.9341 -0.0444999 3.92075 0
M  V30 783 H 76.4241 -1.02648 4.04788 0
M  V30 784 N 76.8612 -1.46375 0.584142 0
M  V30 785 C 78.0892 -2.06761 0.0759296 0
M  V30 786 C 78.5042 -1.43266 -1.22965 0
M  V30 787 O 77.8612 -0.538458 -1.74376 0
M  V30 788 C 77.9122 -3.61375 -0.0950384 0
M  V30 789 O 77.6332 -4.22495 1.15887 0
M  V30 790 C 79.1342 -4.38693 -0.637434 0
M  V30 791 H 76.3542 -0.668479 0.0581075 0
M  V30 792 H 78.8982 -1.8798 0.805218 0
M  V30 793 H 77.0532 -3.79578 -0.774554 0
M  V30 794 H 77.4672 -5.15385 0.973598 0
M  V30 795 H 78.9412 -5.47464 -0.706237 0
M  V30 796 H 79.4182 -4.06836 -1.65472 0
M  V30 797 H 80.0242 -4.25299 0.00725967 0
M  V30 798 N 78.3393 -0.321999 -1.54275 0
M  V30 799 C 79.2893 0.560185 -2.21011 0
M  V30 800 C 80.2733 1.08283 -1.19011 0
M  V30 801 O 81.4653 1.02011 -1.44647 0
M  V30 802 C 78.5943 1.72137 -2.97025 0
M  V30 803 C 77.6803 1.21369 -4.06363 0
M  V30 804 N 78.0713 0.425566 -5.04007 0
M  V30 805 C 76.3693 1.49255 -4.20284 0
M  V30 806 C 77.0703 0.152601 -5.815 0
M  V30 807 N 76.0463 0.738294 -5.38563 0
M  V30 808 H 79.8483 -0.049265 -2.93859 0
M  V30 809 H 77.3623 -0.127779 -1.61897 0
M  V30 810 H 79.3593 2.36512 -3.43319 0
M  V30 811 H 78.0193 2.33431 -2.25699 0
M  V30 812 H 79.0303 0.068551 -5.17855 0
M  V30 813 H 75.7073 2.11145 -3.60172 0
M  V30 814 H 77.0973 -0.481764 -6.70171 0
M  V30 815 N 79.8174 1.5752 -0.0501392 0
M  V30 816 C 81.0454 1.96963 0.633492 0
M  V30 817 C 81.4604 0.927631 1.6444 0
M  V30 818 O 80.8174 -0.0882665 1.82286 0
M  V30 819 C 80.8684 3.36487 1.32132 0
M  V30 820 O 80.5894 4.36693 0.350894 0
M  V30 821 C 82.0904 3.90682 2.09481 0
M  V30 822 H 79.3104 0.648244 0.173266 0
M  V30 823 H 81.8544 2.0417 -0.116134 0
M  V30 824 H 80.0094 3.30434 2.02218 0
M  V30 825 H 80.4234 5.17702 0.841735 0
M  V30 826 H 81.8974 4.90591 2.5303 0
M  V30 827 H 82.3744 3.26053 2.94255 0
M  V30 828 H 82.9804 4.00069 1.44307 0
M  V30 829 N 81.2955 -0.223234 1.56011 0
M  V30 830 C 82.2255 -1.27988 1.95298 0
M  V30 831 C 83.2065 -1.48976 0.820979 0
M  V30 832 O 84.3915 -1.61188 1.08315 0
M  V30 833 C 81.5215 -2.63 2.26822 0
M  V30 834 C 80.4755 -2.56671 3.42497 0
M  V30 835 C 79.8015 -3.95697 3.59622 0
M  V30 836 C 81.1015 -2.11601 4.77517 0
M  V30 837 H 82.7955 -0.953525 2.8381 0
M  V30 838 H 80.3415 -0.457244 1.36548 0
M  V30 839 H 82.2945 -3.37077 2.52898 0
M  V30 840 H 81.0185 -2.9732 1.35161 0
M  V30 841 H 79.6775 -1.85051 3.16467 0
M  V30 842 H 79.3255 -4.27322 2.6534 0
M  V30 843 H 79.0255 -3.92345 4.37424 0
M  V30 844 H 80.5495 -4.71438 3.88044 0
M  V30 845 H 81.9635 -2.7542 5.02809 0
M  V30 846 H 80.3605 -2.19311 5.5859 0
M  V30 847 H 81.4305 -1.06824 4.72987 0
M  V30 848 N 82.7736 -1.49793 -0.48987 0
M  V30 849 C 84.0226 -1.59085 -1.23995 0
M  V30 850 C 84.3356 -0.287907 -1.9347 0
M  V30 851 O 85.5416 -0.259506 -2.70257 0
M  V30 852 C 83.9976 -2.80736 -2.252 0
M  V30 853 C 83.6056 -4.17833 -1.61614 0
M  V30 854 C 85.3496 -2.99364 -3.00967 0
M  V30 855 C 83.2566 -5.30693 -2.60996 0
M  V30 856 H 82.1866 -0.592372 -0.466488 0
M  V30 857 H 84.8376 -1.76197 -0.51252 0
M  V30 858 H 83.2196 -2.57142 -3.01154 0
M  V30 859 H 84.3936 -4.51608 -0.915774 0
M  V30 860 H 82.7086 -4.04656 -0.981977 0
M  V30 861 H 85.3056 -3.80851 -3.75308 0
M  V30 862 H 85.6486 -2.10356 -3.59244 0
M  V30 863 H 86.1816 -3.2305 -2.32128 0
M  V30 864 H 82.9206 -6.21796 -2.07485 0
M  V30 865 H 82.4406 -5.01359 -3.2924 0
M  V30 866 H 84.1196 -5.6049 -3.23202 0
M  V30 867 N 84.2517 0.741722 -1.39055 0
M  V30 868 C 85.2147 1.83733 -1.37021 0
M  V30 869 C 86.2147 1.58542 -0.268534 0
M  V30 870 O 87.4047 1.66067 -0.526076 0
M  V30 871 C 84.5367 3.2141 -1.13617 0
M  V30 872 H 85.7297 1.86941 -2.34506 0
M  V30 873 H 83.2827 0.944676 -1.24521 0
M  V30 874 H 84.0177 3.23865 -0.167863 0
M  V30 875 H 83.8027 3.4109 -1.93391 0
M  V30 876 H 85.2927 4.01477 -1.14918 0
M  V30 877 N 85.7298 1.2412 0.971189 0
M  V30 878 C 86.9548 1.10667 1.75407 0
M  V30 879 C 87.3798 -0.337048 1.85056 0
M  V30 880 O 86.7378 -1.24396 1.31892 0
M  V30 881 C 86.7858 1.74726 3.15441 0
M  V30 882 O 85.8898 1.01566 3.99697 0
M  V30 883 H 85.2308 0.387341 0.539317 0
M  V30 884 H 87.7608 1.64358 1.2185 0
M  V30 885 H 87.7708 1.80341 3.6598 0
M  V30 886 H 86.4458 2.79773 3.07734 0
M  V30 887 H 85.0228 1.03713 3.58187 0
M  V30 888 N 87.2079 -1.17134 1.05439 0
M  V30 889 C 88.1709 -2.19439 0.661764 0
M  V30 890 C 89.1709 -1.58199 -0.288042 0
M  V30 891 O 90.3609 -1.74053 -0.0715803 0
M  V30 892 C 87.4929 -3.40889 -0.0276209 0
M  V30 893 H 88.6859 -2.55688 1.56728 0
M  V30 894 H 86.2389 -1.31259 0.848567 0
M  V30 895 H 86.9739 -3.10187 -0.94629 0
M  V30 896 H 86.7589 -3.86586 0.655238 0
M  V30 897 H 88.2489 -4.16603 -0.288342 0
M  V30 898 N 88.686 -0.835752 -1.33615 0
M  V30 899 C 89.933 -0.429959 -1.97883 0
M  V30 900 C 90.261 1.01006 -1.66217 0
M  V30 901 O 89.516 1.72047 -0.93265 0
M  V30 902 C 89.815 -0.593925 -3.52431 0
M  V30 903 C 89.481 -2.00158 -4.04039 0
M  V30 904 C 88.143 -2.38662 -4.17844 0
M  V30 905 C 90.495 -2.92117 -4.31644 0
M  V30 906 C 87.823 -3.68435 -4.56588 0
M  V30 907 C 90.175 -4.21368 -4.71838 0
M  V30 908 C 88.839 -4.59833 -4.83849 0
M  V30 909 H 88.109 -0.157333 -0.724104 0
M  V30 910 H 90.756 -1.06217 -1.59343 0
M  V30 911 H 89.061 0.121619 -3.91611 0
M  V30 912 H 90.758 -0.260282 -4.00154 0
M  V30 913 H 87.348 -1.69252 -3.93766 0
M  V30 914 H 91.532 -2.63608 -4.20505 0
M  V30 915 H 86.788 -3.98046 -4.64079 0
M  V30 916 H 90.962 -4.92703 -4.92155 0
M  V30 917 H 88.589 -5.60438 -5.13627 0
M  V30 918 N 90.1641 1.46063 -0.591896 0
M  V30 919 C 91.4411 1.95595 -0.0137119 0
M  V30 920 C 91.8211 1.5345 1.4497 0
M  V30 921 O 91.1691 0.789543 2.14426 0
M  V30 922 C 91.3791 3.48453 -0.195373 0
M  V30 923 C 92.7271 4.24546 -0.0679765 0
M  V30 924 O 93.7511 3.55982 -0.124681 0
M  V30 925 O 92.6101 5.46467 0.0600579 0
M  V30 926 H 89.7041 0.825795 0.0446279 0
M  V30 927 H 92.2501 1.56303 -0.660859 0
M  V30 928 H 91.0221 3.72045 -1.21235 0
M  V30 929 H 90.6451 3.94597 0.487775 0
M  V30 930 N 91.6422 0.330177 1.54103 0
M  V30 931 C 92.8672 -0.274893 2.0557 0
M  V30 932 C 93.2922 -1.44487 1.20437 0
M  V30 933 O 92.6502 -1.80021 0.214991 0
M  V30 934 C 92.6982 -0.68079 3.54115 0
M  V30 935 O 91.8022 -1.7824 3.71893 0
M  V30 936 H 91.1432 -0.0483849 0.662235 0
M  V30 937 H 93.6732 0.480508 1.98878 0
M  V30 938 H 93.6832 -0.961635 3.96505 0
M  V30 939 H 92.3582 0.174903 4.15532 0
M  V30 940 H 90.9352 -1.49985 3.41407 0
M  V30 941 N 93.1203 -1.57491 0.0584922 0
M  V30 942 C 94.5363 -1.56792 -0.298091 0
M  V30 943 C 94.7363 -1.06679 -1.70944 0
M  V30 944 O 93.7923 -0.726672 -2.41818 0
M  V30 945 C 95.1053 -3.00461 -0.119879 0
M  V30 946 C 96.6533 -3.1242 -0.190428 0
M  V30 947 C 97.1283 -4.57982 -0.0406567 0
M  V30 948 N 98.6193 -4.63099 -0.0966958 0
M  V30 949 C 99.3543 -5.734 -0.00502943 0
M  V30 950 N 98.8503 -6.9266 0.139402 0
M  V30 951 N 100.643 -5.62067 -0.0611391 0
M  V30 952 H 92.7943 -1.88386 0.98105 0
M  V30 953 H 95.0573 -0.867865 0.381463 0
M  V30 954 H 94.7633 -3.41187 0.85349 0
M  V30 955 H 94.6373 -3.66843 -0.877833 0
M  V30 956 H 97.0243 -2.71589 -1.15427 0
M  V30 957 H 97.1053 -2.48702 0.598405 0
M  V30 958 H 96.7493 -4.995 0.919897 0
M  V30 959 H 96.6793 -5.19715 -0.848727 0
M  V30 960 H 99.1703 -3.77331 -0.207277 0
M  V30 961 H 99.4833 -7.72536 0.201855 0
M  V30 962 H 97.8283 -6.94781 0.174586 0
M  V30 963 H 101.019 -4.67782 -0.172583 0
M  V30 964 H 101.192 -6.47999 0.0137562 0
M  V30 965 N 94.5984 0.214957 -1.56127 0
M  V30 966 C 95.5084 1.28727 -1.96129 0
M  V30 967 C 96.5244 1.50916 -0.866044 0
M  V30 968 O 97.7004 1.63918 -1.17016 0
M  V30 969 C 94.7654 2.61569 -2.27558 0
M  V30 970 C 93.8264 2.47625 -3.50685 0
M  V30 971 C 93.0594 3.74132 -3.80606 0
M  V30 972 O 93.2824 4.77438 -3.12104 0
M  V30 973 O 92.2164 3.70849 -4.74083 0
M  V30 974 H 96.0424 0.977855 -2.87527 0
M  V30 975 H 93.6274 0.418358 -1.43423 0
M  V30 976 H 95.5094 3.40012 -2.48938 0
M  V30 977 H 94.1844 2.92178 -1.39332 0
M  V30 978 H 93.0914 1.67361 -3.34576 0
M  V30 979 H 94.4244 2.21954 -4.39315 0
M  V30 980 N 96.0765 1.50051 0.48192 0
M  V30 981 C 97.0395 1.67584 1.5636 0
M  V30 982 C 98.0395 0.546894 1.51214 0
M  V30 983 O 99.2295 0.813725 1.54026 0
M  V30 984 C 96.3615 1.691 2.96003 0
M  V30 985 H 97.5545 2.64078 1.42136 0
M  V30 986 H 95.1075 1.39369 0.707533 0
M  V30 987 H 95.8425 0.742589 3.15684 0
M  V30 988 H 95.6275 2.51105 3.01146 0
M  V30 989 H 97.1175 1.84656 3.74556 0
M  V30 990 N 97.5546 -0.734337 1.39446 0
M  V30 991 C 98.7846 -1.52137 1.39778 0
M  V30 992 C 99.1926 -1.89198 -0.00929312 0
M  V30 993 O 98.5356 -1.54666 -0.991168 0
M  V30 994 C 98.5976 -2.83762 2.20724 0
M  V30 995 C 98.2616 -2.69131 3.69347 0
M  V30 996 C 99.2586 -2.37635 4.62413 0
M  V30 997 C 96.9436 -2.85982 4.1294 0
M  V30 998 C 98.9376 -2.23172 5.97054 0
M  V30 999 C 96.6246 -2.71137 5.47657 0
M  V30 1000 C 97.6226 -2.39777 6.39528 0
M  V30 1001 O 97.3106 -2.25026 7.71763 0
M  V30 1002 H 97.0426 -0.476717 0.479288 0
M  V30 1003 H 99.5966 -0.915012 1.83893 0
M  V30 1004 H 97.8266 -3.4666 1.71359 0
M  V30 1005 H 99.5156 -3.45383 2.13226 0
M  V30 1006 H 100.282 -2.24267 4.30034 0
M  V30 1007 H 96.1606 -3.09383 3.41765 0
M  V30 1008 H 99.7046 -1.98617 6.68728 0
M  V30 1009 H 95.6016 -2.84083 5.79626 0
M  V30 1010 H 96.3696 -2.40091 7.82495 0
M  V30 1011 N 99.0327 -1.24633 -0.964593 0
M  V30 1012 C 100.31 -0.995809 -1.68354 0
M  V30 1013 C 100.69 0.480964 -2.05548 0
M  V30 1014 O 100.038 1.45599 -1.76105 0
M  V30 1015 C 100.248 -1.92177 -2.91323 0
M  V30 1016 C 101.596 -2.19446 -3.63495 0
M  V30 1017 O 102.62 -1.89855 -3.01386 0
M  V30 1018 O 101.479 -2.69714 -4.75307 0
M  V30 1019 H 98.5727 -0.376854 -0.736146 0
M  V30 1020 H 101.119 -1.35745 -1.0184 0
M  V30 1021 H 99.8907 -2.91938 -2.60553 0
M  V30 1022 H 99.5137 -1.56349 -3.65569 0
M  V30 1023 N 100.511 1.16574 -1.06058 0
M  V30 1024 C 101.927 1.3904 -0.783585 0
M  V30 1025 C 102.127 1.91784 0.618145 0
M  V30 1026 O 101.183 2.11511 1.37911 0
M  V30 1027 C 102.496 2.37329 -1.84649 0
M  V30 1028 C 104.044 2.51018 -1.86973 0
M  V30 1029 C 104.519 3.52588 -2.92311 0
M  V30 1030 N 106.01 3.60113 -2.91329 0
M  V30 1031 C 106.745 4.38486 -3.69482 0
M  V30 1032 N 106.241 5.20302 -4.57447 0
M  V30 1033 N 108.034 4.33446 -3.57885 0
M  V30 1034 H 100.185 0.806725 -1.96483 0
M  V30 1035 H 102.448 0.417117 -0.851303 0
M  V30 1036 H 102.154 2.05663 -2.85299 0
M  V30 1037 H 102.028 3.36946 -1.6955 0
M  V30 1038 H 104.415 2.81989 -0.869827 0
M  V30 1039 H 104.496 1.51445 -2.0615 0
M  V30 1040 H 104.14 3.22354 -3.92492 0
M  V30 1041 H 104.07 4.51886 -2.70383 0
M  V30 1042 H 106.561 3.01707 -2.27555 0
M  V30 1043 H 106.874 5.77311 -5.13743 0
M  V30 1044 H 105.219 5.19653 -4.61503 0
M  V30 1045 H 108.41 3.68586 -2.88551 0
M  V30 1046 H 108.583 4.94279 -4.19037 0
M  V30 1047 N 101.989 0.842826 1.3317 0
M  V30 1048 C 102.899 0.281444 2.32906 0
M  V30 1049 C 103.915 -0.594587 1.63526 0
M  V30 1050 O 105.091 -0.49777 1.95152 0
M  V30 1051 C 102.156 -0.530929 3.42611 0
M  V30 1052 C 101.217 0.369843 4.27704 0
M  V30 1053 C 100.45 -0.403853 5.3217 0
M  V30 1054 O 100.673 -1.63513 5.46461 0
M  V30 1055 O 99.6069 0.224199 6.01482 0
M  V30 1056 H 103.433 1.10744 2.82789 0
M  V30 1057 H 101.018 0.60545 1.36582 0
M  V30 1058 H 102.9 -0.992437 4.09547 0
M  V30 1059 H 101.575 -1.33392 2.94938 0
M  V30 1060 H 100.482 0.879275 3.6362 0
M  V30 1061 H 101.815 1.13771 4.78871 0
M  V30 1062 N 103.467 -1.45747 0.599634 0
M  V30 1063 C 104.397 -2.33235 -0.111306 0
M  V30 1064 C 105.378 -1.46359 -0.866781 0
M  V30 1065 O 106.563 -1.75146 -0.838904 0
M  V30 1066 C 103.693 -3.28932 -1.11451 0
M  V30 1067 C 102.647 -4.25381 -0.472772 0
M  V30 1068 C 101.973 -5.1071 -1.58365 0
M  V30 1069 C 103.273 -5.18831 0.600948 0
M  V30 1070 H 104.967 -2.92927 0.61919 0
M  V30 1071 H 102.513 -1.40857 0.299215 0
M  V30 1072 H 104.466 -3.89002 -1.62036 0
M  V30 1073 H 103.19 -2.67381 -1.8755 0
M  V30 1074 H 101.849 -3.66598 0.0121472 0
M  V30 1075 H 101.497 -4.45533 -2.33473 0
M  V30 1076 H 101.197 -5.7604 -1.15982 0
M  V30 1077 H 102.721 -5.73647 -2.09194 0
M  V30 1078 H 104.135 -5.73019 0.179491 0
M  V30 1079 H 102.532 -5.92595 0.946076 0
M  V30 1080 H 103.602 -4.6174 1.48068 0
M  V30 1081 N 104.945 -0.338344 -1.53925 0
M  V30 1082 C 106.194 0.260732 -2.00008 0
M  V30 1083 C 106.507 1.52073 -1.23017 0
M  V30 1084 O 107.713 2.19672 -1.5955 0
M  V30 1085 C 106.169 0.51515 -3.56194 0
M  V30 1086 C 105.777 -0.728645 -4.42035 0
M  V30 1087 C 107.521 1.07337 -4.10706 0
M  V30 1088 C 105.428 -0.445315 -5.89721 0
M  V30 1089 H 104.358 0.101205 -0.747177 0
M  V30 1090 H 107.009 -0.452866 -1.77824 0
M  V30 1091 H 105.391 1.28932 -3.74423 0
M  V30 1092 H 106.565 -1.50352 -4.35581 0
M  V30 1093 H 104.88 -1.20813 -3.98489 0
M  V30 1094 H 107.477 1.30022 -5.18651 0
M  V30 1095 H 107.82 2.0273 -3.63602 0
M  V30 1096 H 108.353 0.360034 -3.96167 0
M  V30 1097 H 105.092 -1.36883 -6.41049 0
M  V30 1098 H 104.612 0.291569 -5.99091 0
M  V30 1099 H 106.291 -0.0606218 -6.46972 0
M  V30 1100 N 106.423 1.57458 -0.0668435 0
M  V30 1101 C 107.373 2.0896 0.912119 0
M  V30 1102 C 108.357 0.998186 1.26195 0
M  V30 1103 O 109.549 1.26133 1.24175 0
M  V30 1104 C 106.678 2.6508 2.18145 0
M  V30 1105 C 105.764 3.81218 1.85832 0
M  V30 1106 N 106.155 4.90378 1.23948 0
M  V30 1107 C 104.453 3.9042 2.15612 0
M  V30 1108 C 105.154 5.71279 1.09616 0
M  V30 1109 N 104.13 5.19389 1.60423 0
M  V30 1110 H 107.932 2.90749 0.42924 0
M  V30 1111 H 105.446 1.6182 0.137184 0
M  V30 1112 H 107.443 3.0029 2.89192 0
M  V30 1113 H 106.103 1.84736 2.67025 0
M  V30 1114 H 107.114 5.09847 0.909731 0
M  V30 1115 H 103.791 3.21043 2.66903 0
M  V30 1116 H 105.181 6.69085 0.614425 0
M  V30 1117 N 107.901 -0.206675 1.56239 0
M  V30 1118 C 108.811 -1.27686 1.96808 0
M  V30 1119 C 109.827 -1.50455 0.874035 0
M  V30 1120 O 111.003 -1.63295 1.17884 0
M  V30 1121 C 108.068 -2.60358 2.28942 0
M  V30 1122 C 107.129 -2.45762 3.51994 0
M  V30 1123 C 106.362 -3.72108 3.82585 0
M  V30 1124 O 106.585 -4.75776 3.14631 0
M  V30 1125 O 105.519 -3.6833 4.76043 0
M  V30 1126 H 109.345 -0.962593 2.88041 0
M  V30 1127 H 106.93 -0.410746 1.43643 0
M  V30 1128 H 108.812 -3.38687 2.50737 0
M  V30 1129 H 107.487 -2.91435 1.4088 0
M  V30 1130 H 106.394 -1.65584 3.35459 0
M  V30 1131 H 107.727 -2.19621 4.40486 0
M  V30 1132 N 109.379 -1.50304 -0.473955 0
M  V30 1133 C 110.628 -1.60392 -1.22301 0
M  V30 1134 C 110.941 -0.308411 -1.93153 0
M  V30 1135 O 112.147 -0.288156 -2.69966 0
M  V30 1136 C 110.603 -2.83109 -2.2221 0
M  V30 1137 C 110.211 -4.19524 -1.57173 0
M  V30 1138 C 111.955 -3.0254 -2.97775 0
M  V30 1139 C 109.862 -5.33431 -2.55353 0
M  V30 1140 H 108.792 -0.597286 -0.460179 0
M  V30 1141 H 111.443 -1.76731 -0.493803 0
M  V30 1142 H 109.825 -2.60322 -2.9841 0
M  V30 1143 H 110.999 -4.52554 -0.867824 0
M  V30 1144 H 109.314 -4.05674 -0.939002 0
M  V30 1145 H 111.911 -3.84811 -3.71248 0
M  V30 1146 H 112.254 -2.14154 -3.56992 0
M  V30 1147 H 112.787 -3.25494 -2.28688 0
M  V30 1148 H 109.526 -6.23962 -2.00878 0
M  V30 1149 H 109.046 -5.04823 -3.23904 0
M  V30 1150 H 110.725 -5.63887 -3.17239 0
M  V30 1151 N 110.857 0.726932 -1.39834 0
M  V30 1152 C 112.134 1.47902 -1.28001 0
M  V30 1153 C 112.514 2.1083 0.106789 0
M  V30 1154 O 111.862 1.99242 1.11869 0
M  V30 1155 C 112.072 2.52392 -2.41038 0
M  V30 1156 C 113.42 3.18546 -2.80737 0
M  V30 1157 O 114.444 2.62708 -2.40547 0
M  V30 1158 O 113.303 4.19604 -3.50135 0
M  V30 1159 H 110.397 0.657163 -0.502062 0
M  V30 1160 H 112.943 0.760071 -1.51727 0
M  V30 1161 H 111.715 2.04329 -3.33715 0
M  V30 1162 H 111.338 3.31837 -2.19021 0
M  V30 1163 N 112.336 1.25143 0.95797 0
M  V30 1164 C 113.269 0.995565 2.05338 0
M  V30 1165 C 114.247 -0.0740423 1.62431 0
M  V30 1166 O 115.431 0.0649212 1.88388 0
M  V30 1167 C 112.558 0.504298 3.34925 0
M  V30 1168 C 111.604 1.56393 3.96792 0
M  V30 1169 S 112.437 3.14815 4.33188 0
M  V30 1170 C 113.593 2.67415 5.65898 0
M  V30 1171 H 113.826 1.92309 2.26726 0
M  V30 1172 H 111.359 1.08635 1.09716 0
M  V30 1173 H 113.317 0.227497 4.09869 0
M  V30 1174 H 111.978 -0.402671 3.11508 0
M  V30 1175 H 111.171 1.17082 4.90212 0
M  V30 1176 H 110.773 1.79124 3.28315 0
M  V30 1177 H 113.065 2.10833 6.4386 0
M  V30 1178 H 114.008 3.59463 6.10076 0
M  V30 1179 H 114.416 2.07521 5.24972 0
M  V30 1180 N 113.814 -1.1601 1.06675 0
M  V30 1181 C 115.044 -1.90251 0.805497 0
M  V30 1182 C 115.452 -1.77891 -0.64431 0
M  V30 1183 O 114.795 -1.12383 -1.45313 0
M  V30 1184 C 114.857 -3.41419 1.12576 0
M  V30 1185 C 114.521 -3.77564 2.57477 0
M  V30 1186 C 115.518 -3.79161 3.55715 0
M  V30 1187 C 113.203 -4.08079 2.92877 0
M  V30 1188 C 115.197 -4.10767 4.8739 0
M  V30 1189 C 112.884 -4.39351 4.24751 0
M  V30 1190 C 113.882 -4.40675 5.21818 0
M  V30 1191 O 113.57 -4.71202 6.51325 0
M  V30 1192 H 113.302 -0.610018 0.291297 0
M  V30 1193 H 115.856 -1.47958 1.4247 0
M  V30 1194 H 114.086 -3.84079 0.449503 0
M  V30 1195 H 115.775 -3.9694 0.84814 0
M  V30 1196 H 116.541 -3.55693 3.29708 0
M  V30 1197 H 112.42 -4.06211 2.17976 0
M  V30 1198 H 115.964 -4.11715 5.63148 0
M  V30 1199 H 111.861 -4.62285 4.50514 0
M  V30 1200 H 112.629 -4.88996 6.56373 0
M  V30 1201 N 115.292 -0.849877 -1.32721 0
M  V30 1202 C 116.255 -0.296122 -2.27279 0
M  V30 1203 C 117.255 0.541458 -1.5141 0
M  V30 1204 O 118.445 0.353658 -1.70572 0
M  V30 1205 C 115.577 0.581579 -3.35902 0
M  V30 1206 H 116.77 -1.13064 -2.77771 0
M  V30 1207 H 114.323 -0.62383 -1.43311 0
M  V30 1208 H 115.058 1.43809 -2.9067 0
M  V30 1209 H 114.843 -0.0178814 -3.92096 0
M  V30 1210 H 116.333 0.961951 -4.0637 0
M  V30 1211 N 116.77 1.45427 -0.607355 0
M  V30 1212 C 118.181 1.85756 -0.187535 0
M  V30 1213 C 118.532 1.5077 1.25551 0
M  V30 1214 O 117.657 0.93427 1.95193 0
M  V30 1215 C 118.252 3.37154 -0.333572 0
M  V30 1216 C 116.811 3.76387 0.0315542 0
M  V30 1217 C 115.958 2.69377 -0.658117 0
M  V30 1218 H 118.909 1.36231 -0.81405 0
M  V30 1219 H 118.93 3.78014 0.43428 0
M  V30 1220 H 118.442 3.62586 -1.38393 0
M  V30 1221 H 116.543 3.56571 1.0811 0
M  V30 1222 H 116.656 4.77731 -0.361935 0
M  V30 1223 H 115.02 2.5452 -0.0957873 0
M  V30 1224 H 115.803 2.97646 -1.7106 0
M  V30 1225 N 118.248 0.346503 1.53744 0
M  V30 1226 C 119.525 -0.304532 1.93215 0
M  V30 1227 C 119.905 -1.67993 1.27834 0
M  V30 1228 O 119.253 -2.24411 0.430352 0
M  V30 1229 C 119.463 -0.373852 3.46992 0
M  V30 1230 C 120.811 -0.62329 4.2 0
M  V30 1231 O 121.835 -0.455847 3.53271 0
M  V30 1232 O 120.694 -0.947879 5.38217 0
M  V30 1233 H 117.788 -0.178318 0.807547 0
M  V30 1234 H 120.334 0.397895 1.64969 0
M  V30 1235 H 119.106 0.591224 3.86808 0
M  V30 1236 H 118.729 -1.12294 3.81413 0
M  V30 1237 N 119.726 -1.57421 0.075193 0
M  V30 1238 C 120.972 -1.93905 -0.594025 0
M  V30 1239 C 121.305 -0.955701 -1.69056 0
M  V30 1240 O 120.58 0.0145373 -1.94495 0
M  V30 1241 C 120.863 -3.40638 -1.1678 0
M  V30 1242 C 120.716 -4.49733 -0.0776792 0
M  V30 1243 C 122.035 -3.88259 -2.07228 0
M  V30 1244 H 119.154 -0.705105 -0.214466 0
M  V30 1245 H 121.796 -1.8947 0.141854 0
M  V30 1246 H 119.946 -3.44549 -1.79494 0
M  V30 1247 H 121.618 -4.57942 0.555573 0
M  V30 1248 H 119.861 -4.29751 0.591286 0
M  V30 1249 H 120.532 -5.49549 -0.519603 0
M  V30 1250 H 123.008 -3.86376 -1.54445 0
M  V30 1251 H 121.884 -4.91533 -2.44308 0
M  V30 1252 H 122.145 -3.26396 -2.98191 0
M  V30 1253 N 121.204 0.198386 -1.56346 0
M  V30 1254 C 122.45 0.920648 -1.80698 0
M  V30 1255 C 122.783 1.83045 -0.648697 0
M  V30 1256 O 122.058 1.91308 0.350925 0
M  V30 1257 C 122.341 1.73971 -3.15287 0
M  V30 1258 C 122.194 0.85485 -4.41602 0
M  V30 1259 C 123.513 2.71296 -3.46535 0
M  V30 1260 H 120.632 0.333261 -0.657348 0
M  V30 1261 H 123.274 0.188198 -1.89066 0
M  V30 1262 H 121.424 2.36416 -3.08285 0
M  V30 1263 H 123.096 0.245362 -4.60647 0
M  V30 1264 H 121.339 0.161398 -4.335 0
M  V30 1265 H 122.01 1.46286 -5.32264 0
M  V30 1266 H 124.486 2.18983 -3.53816 0
M  V30 1267 H 123.362 3.2569 -4.41834 0
M  V30 1268 H 123.623 3.5018 -2.69864 0
M  V30 1269 N 122.682 1.50554 0.465978 0
M  V30 1270 C 123.928 1.62038 1.21949 0
M  V30 1271 C 124.261 0.322116 1.9151 0
M  V30 1272 O 123.536 -0.676723 1.82348 0
M  V30 1273 C 123.819 2.80421 2.25912 0
M  V30 1274 C 123.672 4.20144 1.60622 0
M  V30 1275 C 124.991 2.94354 3.27176 0
M  V30 1276 H 122.11 0.589752 0.441998 0
M  V30 1277 H 124.752 1.82956 0.51257 0
M  V30 1278 H 122.902 2.62717 2.86203 0
M  V30 1279 H 124.574 4.49449 1.03889 0
M  V30 1280 H 122.817 4.24165 0.909211 0
M  V30 1281 H 123.488 4.98914 2.36196 0
M  V30 1282 H 125.964 3.10578 2.76913 0
M  V30 1283 H 124.84 3.788 3.97242 0
M  V30 1284 H 125.101 2.05186 3.916 0
M  V30 1285 N 124.16 -0.719506 1.40217 0
M  V30 1286 C 125.09 -1.8465 1.42922 0
M  V30 1287 C 126.071 -1.67599 0.29062 0
M  V30 1288 O 127.256 -1.87688 0.498677 0
M  V30 1289 C 124.386 -3.22565 1.28722 0
M  V30 1290 C 123.34 -3.54281 2.40144 0
M  V30 1291 C 122.666 -4.91298 2.11023 0
M  V30 1292 C 123.966 -3.55676 3.82481 0
M  V30 1293 H 125.66 -1.82644 2.37237 0
M  V30 1294 H 123.206 -0.877305 1.1419 0
M  V30 1295 H 125.159 -4.01095 1.29232 0
M  V30 1296 H 123.883 -3.25137 0.308811 0
M  V30 1297 H 122.542 -2.78088 2.38877 0
M  V30 1298 H 122.19 -4.90468 1.11582 0
M  V30 1299 H 121.89 -5.13485 2.8567 0
M  V30 1300 H 123.414 -5.72166 2.13209 0
M  V30 1301 H 124.828 -4.24254 3.85592 0
M  V30 1302 H 123.225 -3.89388 4.56614 0
M  V30 1303 H 124.295 -2.55144 4.12346 0
M  V30 1304 N 125.638 -1.25649 -0.95132 0
M  V30 1305 C 126.601 -1.06399 -2.03007 0
M  V30 1306 C 127.601 -0.0156794 -1.60792 0
M  V30 1307 O 128.791 -0.25817 -1.72276 0
M  V30 1308 C 125.923 -0.616184 -3.35285 0
M  V30 1309 H 127.116 -2.02164 -2.21517 0
M  V30 1310 H 124.669 -1.08103 -1.12887 0
M  V30 1311 H 125.404 0.343917 -3.22471 0
M  V30 1312 H 125.189 -1.37301 -3.67275 0
M  V30 1313 H 126.679 -0.503032 -4.14559 0
M  V30 1314 N 127.117 1.15442 -1.07289 0
M  V30 1315 C 128.365 1.85845 -0.794096 0
M  V30 1316 C 128.686 1.82692 0.681809 0
M  V30 1317 O 127.956 1.26741 1.49377 0
M  V30 1318 H 126.536 0.688089 -0.290763 0
M  V30 1319 H 129.198 1.39947 -1.3565 0
M  V30 1320 H 128.294 2.91001 -1.12804 0
M  V30 1321 N 128.595 0.856903 1.32268 0
M  V30 1322 C 129.842 0.461386 1.97174 0
M  V30 1323 C 130.17 -0.983491 1.67803 0
M  V30 1324 O 129.425 -1.70541 0.959903 0
M  V30 1325 C 129.724 0.649919 3.51441 0
M  V30 1326 C 129.39 2.0656 4.00804 0
M  V30 1327 C 128.052 2.45279 4.13995 0
M  V30 1328 C 130.404 2.98947 4.26943 0
M  V30 1329 C 127.732 3.75653 4.50668 0
M  V30 1330 C 130.084 4.28822 4.65075 0
M  V30 1331 C 128.748 4.67472 4.76472 0
M  V30 1332 H 128.018 0.168833 0.72151 0
M  V30 1333 H 130.665 1.08739 1.57633 0
M  V30 1334 H 128.97 -0.0593018 3.91755 0
M  V30 1335 H 130.667 0.32391 3.9969 0
M  V30 1336 H 127.257 1.75495 3.91024 0
M  V30 1337 H 131.441 2.70265 4.16258 0
M  V30 1338 H 126.697 4.05379 4.57688 0
M  V30 1339 H 130.871 5.0047 4.84255 0
M  V30 1340 H 128.498 5.68539 5.04646 0
M  V30 1341 N 130.073 -1.45103 0.615059 0
M  V30 1342 C 131.006 -2.27717 -0.148408 0
M  V30 1343 C 131.984 -1.37584 -0.866572 0
M  V30 1344 O 133.168 -1.67017 -0.87393 0
M  V30 1345 C 130.295 -3.16136 -1.21557 0
M  V30 1346 C 129.341 -4.22263 -0.599712 0
M  V30 1347 S 130.174 -5.3215 0.598081 0
M  V30 1348 C 131.33 -6.24137 -0.469484 0
M  V30 1349 H 131.563 -2.92121 0.552483 0
M  V30 1350 H 129.096 -1.49054 0.402778 0
M  V30 1351 H 131.054 -3.67633 -1.82638 0
M  V30 1352 H 129.715 -2.50982 -1.88857 0
M  V30 1353 H 128.908 -4.84081 -1.4029 0
M  V30 1354 H 128.51 -3.73945 -0.063876 0
M  V30 1355 H 130.802 -6.63984 -1.34652 0
M  V30 1356 H 131.745 -7.0801 0.112725 0
M  V30 1357 H 132.153 -5.58971 -0.788168 0
M  V30 1358 N 131.551 -0.354651 -1.53558 0
M  V30 1359 C 132.967 -0.00315426 -1.596 0
M  V30 1360 C 133.167 1.47741 -1.37021 0
M  V30 1361 O 132.223 2.23759 -1.16996 0
M  V30 1362 C 133.536 -0.44929 -2.97325 0
M  V30 1363 C 135.084 -0.402578 -3.104 0
M  V30 1364 C 135.559 -0.824355 -4.5052 0
M  V30 1365 N 137.05 -0.778979 -4.56603 0
M  V30 1366 C 137.785 -1.07715 -5.63192 0
M  V30 1367 N 137.281 -1.44405 -6.77583 0
M  V30 1368 N 139.074 -1.00066 -5.53121 0
M  V30 1369 H 131.225 -1.31893 -1.66487 0
M  V30 1370 H 133.488 -0.538388 -0.780284 0
M  V30 1371 H 133.194 -1.48202 -3.1895 0
M  V30 1372 H 133.068 0.169772 -3.76818 0
M  V30 1373 H 135.455 0.621004 -2.88492 0
M  V30 1374 H 135.536 -1.05699 -2.32941 0
M  V30 1375 H 135.18 -1.846 -4.73165 0
M  V30 1376 H 135.11 -0.147304 -5.26394 0
M  V30 1377 H 137.601 -0.508528 -3.74463 0
M  V30 1378 H 137.914 -1.65612 -7.54846 0
M  V30 1379 H 136.259 -1.4826 -6.79002 0
M  V30 1380 H 139.45 -0.713293 -4.62633 0
M  V30 1381 H 139.623 -1.23638 -6.36096 0
M  V30 1382 N 133.029 1.57378 -0.0835403 0
M  V30 1383 C 134.278 1.93106 0.582498 0
M  V30 1384 C 134.591 0.96651 1.70053 0
M  V30 1385 O 135.797 1.21705 2.42693 0
M  V30 1386 C 134.253 3.43076 1.08751 0
M  V30 1387 C 133.861 4.48 -0.000146404 0
M  V30 1388 C 135.605 3.87785 1.72694 0
M  V30 1389 C 133.512 5.89113 0.519568 0
M  V30 1390 H 132.442 0.720775 0.221358 0
M  V30 1391 H 135.093 1.82821 -0.157675 0
M  V30 1392 H 133.475 3.48474 1.88101 0
M  V30 1393 H 134.649 4.54233 -0.775199 0
M  V30 1394 H 132.964 4.1283 -0.54406 0
M  V30 1395 H 135.561 4.90604 2.1263 0
M  V30 1396 H 135.904 3.25796 2.59158 0
M  V30 1397 H 136.437 3.8504 0.999457 0
M  V30 1398 H 133.176 6.54775 -0.308186 0
M  V30 1399 H 132.696 5.86376 1.26188 0
M  V30 1400 H 134.375 6.39346 0.992237 0
M  V30 1401 N 134.507 -0.190092 1.56449 0
M  V30 1402 C 135.437 -1.23816 1.97969 0
M  V30 1403 C 136.418 -1.47201 0.852395 0
M  V30 1404 O 137.603 -1.58854 1.1171 0
M  V30 1405 C 134.733 -2.5813 2.3235 0
M  V30 1406 C 133.687 -2.49348 3.47864 0
M  V30 1407 C 133.013 -3.8798 3.67934 0
M  V30 1408 C 134.313 -2.01424 4.81898 0
M  V30 1409 H 136.007 -0.89311 2.85769 0
M  V30 1410 H 133.553 -0.428177 1.37487 0
M  V30 1411 H 135.506 -3.31637 2.59991 0
M  V30 1412 H 134.23 -2.94386 1.41438 0
M  V30 1413 H 132.889 -1.78297 3.20321 0
M  V30 1414 H 132.537 -4.21597 2.74344 0
M  V30 1415 H 132.237 -3.82978 4.45648 0
M  V30 1416 H 133.761 -4.63101 3.97957 0
M  V30 1417 H 135.175 -2.64693 5.08538 0
M  V30 1418 H 133.572 -2.07413 5.63116 0
M  V30 1419 H 134.642 -0.967677 4.75146 0
M  V30 1420 N 135.985 -1.50799 -0.457987 0
M  V30 1421 C 137.21 -1.66496 -1.23668 0
M  V30 1422 C 137.635 -0.353288 -1.84752 0
M  V30 1423 O 136.993 0.684346 -1.67888 0
M  V30 1424 C 137.041 -2.76763 -2.3116 0
M  V30 1425 O 136.145 -2.38928 -3.36136 0
M  V30 1426 H 135.486 -0.555828 -0.363252 0
M  V30 1427 H 138.016 -1.9725 -0.543474 0
M  V30 1428 H 138.026 -3.00232 -2.76269 0
M  V30 1429 H 136.701 -3.71954 -1.86073 0
M  V30 1430 H 135.278 -2.25953 -2.96647 0
M  V30 1431 N 137.463 0.71206 -1.40597 0
M  V30 1432 C 138.874 1.29135 -1.34837 0
M  V30 1433 C 139.225 1.96186 -0.0235395 0
M  V30 1434 O 138.35 1.97768 0.878444 0
M  V30 1435 C 138.945 2.34827 -2.44217 0
M  V30 1436 C 137.504 2.88371 -2.41907 0
M  V30 1437 C 136.651 1.62202 -2.24913 0
M  V30 1438 H 139.602 0.507944 -1.50352 0
M  V30 1439 H 139.623 3.15749 -2.12327 0
M  V30 1440 H 139.135 1.85996 -3.40627 0
M  V30 1441 H 137.236 3.41422 -1.49204 0
M  V30 1442 H 137.349 3.39925 -3.37621 0
M  V30 1443 H 135.713 1.874 -1.72492 0
M  V30 1444 H 136.496 1.15391 -3.23326 0
M  V30 1445 N 138.941 1.26152 0.944643 0
M  V30 1446 C 139.904 1.07474 2.0244 0
M  V30 1447 C 140.904 0.0242064 1.60782 0
M  V30 1448 O 142.094 0.267302 1.72137 0
M  V30 1449 C 139.226 0.633956 3.34953 0
M  V30 1450 H 140.419 2.03336 2.20442 0
M  V30 1451 H 137.972 1.087 1.12312 0
M  V30 1452 H 138.707 -0.326811 3.22649 0
M  V30 1453 H 138.492 1.39247 3.66542 0
M  V30 1454 H 139.982 0.52501 4.14287 0
M  V30 1455 N 140.419 -1.14872 1.07899 0
M  V30 1456 C 141.666 -1.85789 0.805532 0
M  V30 1457 C 141.994 -1.82649 -0.668561 0
M  V30 1458 O 141.249 -1.24858 -1.50695 0
M  V30 1459 C 141.548 -3.34223 1.26609 0
M  V30 1460 C 141.214 -3.57555 2.74709 0
M  V30 1461 C 139.876 -3.63631 3.1516 0
M  V30 1462 C 142.228 -3.66803 3.70277 0
M  V30 1463 C 139.556 -3.76473 4.49983 0
M  V30 1464 C 141.908 -3.8117 5.04869 0
M  V30 1465 C 140.572 -3.85494 5.44932 0
M  V30 1466 H 139.842 -0.679849 0.294765 0
M  V30 1467 H 142.489 -1.3572 1.35101 0
M  V30 1468 H 140.794 -3.86536 0.640103 0
M  V30 1469 H 142.491 -3.87511 1.03132 0
M  V30 1470 H 139.081 -3.5347 2.42398 0
M  V30 1471 H 143.265 -3.61404 3.40149 0
M  V30 1472 H 138.521 -3.7808 4.80484 0
M  V30 1473 H 142.695 -3.87268 5.78789 0
M  V30 1474 H 140.322 -3.95197 6.49403 0
M  V30 1475 N 141.898 -0.863906 -1.31812 0
M  V30 1476 C 143.144 -0.472535 -1.97218 0
M  V30 1477 C 143.477 0.971394 -1.68159 0
M  V30 1478 O 142.752 1.68309 -0.974798 0
M  V30 1479 C 143.035 -0.723054 -3.52766 0
M  V30 1480 C 142.888 -2.21608 -3.91421 0
M  V30 1481 C 144.207 -0.185522 -4.39709 0
M  V30 1482 H 141.326 -0.173158 -0.71637 0
M  V30 1483 H 143.968 -1.08403 -1.56041 0
M  V30 1484 H 142.118 -0.202577 -3.87971 0
M  V30 1485 H 143.79 -2.80334 -3.66347 0
M  V30 1486 H 142.033 -2.691 -3.40246 0
M  V30 1487 H 142.704 -2.34203 -4.99853 0
M  V30 1488 H 145.18 -0.630726 -4.11292 0
M  V30 1489 H 144.056 -0.390306 -5.47511 0
M  V30 1490 H 144.317 0.912229 -4.32586 0
M  V30 1491 N 143.376 1.44774 -0.622745 0
M  V30 1492 C 144.601 2.06999 -0.128968 0
M  V30 1493 C 145.026 1.4617 1.1839 0
M  V30 1494 O 144.384 0.560007 1.72434 0
M  V30 1495 C 144.432 3.60595 -0.0188351 0
M  V30 1496 O 143.536 3.99398 1.02739 0
M  V30 1497 H 142.877 0.659047 -0.0809544 0
M  V30 1498 H 145.407 1.85784 -0.85705 0
M  V30 1499 H 145.417 4.07627 0.174476 0
M  V30 1500 H 144.092 4.04252 -0.977384 0
M  V30 1501 H 142.669 3.64011 0.809326 0
M  V30 1502 N 144.854 0.36279 1.53368 0
M  V30 1503 C 145.804 -0.501391 2.22419 0
M  V30 1504 C 146.788 -1.0509 1.2184 0
M  V30 1505 O 147.98 -0.981404 1.47301 0
M  V30 1506 C 145.109 -1.64201 3.01484 0
M  V30 1507 C 144.195 -1.10552 4.09438 0
M  V30 1508 N 144.586 -0.291788 5.04958 0
M  V30 1509 C 142.884 -1.3806 4.24094 0
M  V30 1510 C 143.585 0.00162655 5.817 0
M  V30 1511 N 142.561 -0.595244 5.40331 0
M  V30 1512 H 146.363 0.127159 2.93625 0
M  V30 1513 H 143.877 0.170658 1.61501 0
M  V30 1514 H 145.874 -2.27326 3.49469 0
M  V30 1515 H 144.534 -2.27365 2.31809 0
M  V30 1516 H 145.545 0.0687731 5.17854 0
M  V30 1517 H 142.222 -2.01522 3.65644 0
M  V30 1518 H 143.612 0.659278 6.68658 0
M  V30 1519 N 146.332 -1.57332 0.0918853 0
M  V30 1520 C 147.562 -1.98286 -0.580205 0
M  V30 1521 C 147.97 -0.969713 -1.6246 0
M  V30 1522 O 147.313 0.0493501 -1.83634 0
M  V30 1523 C 147.375 -3.35603 -1.28882 0
M  V30 1524 C 147.039 -4.55285 -0.395559 0
M  V30 1525 C 148.036 -5.18687 0.355002 0
M  V30 1526 C 145.721 -5.01314 -0.314556 0
M  V30 1527 C 147.715 -6.26484 1.17458 0
M  V30 1528 C 145.402 -6.08979 0.508677 0
M  V30 1529 C 146.4 -6.71429 1.2519 0
M  V30 1530 O 146.088 -7.77018 2.06151 0
M  V30 1531 H 145.82 -0.656678 -0.160466 0
M  V30 1532 H 148.374 -2.04721 0.16688 0
M  V30 1533 H 146.604 -3.25842 -2.08241 0
M  V30 1534 H 148.293 -3.61026 -1.85512 0
M  V30 1535 H 149.059 -4.84058 0.302134 0
M  V30 1536 H 144.938 -4.5247 -0.882697 0
M  V30 1537 H 148.482 -6.75159 1.75518 0
M  V30 1538 H 144.379 -6.4304 0.563037 0
M  V30 1539 H 145.147 -7.93991 1.98799 0
M  V30 1540 N 147.81 0.181792 -1.56548 0
M  V30 1541 C 148.773 1.20894 -1.94724 0
M  V30 1542 C 149.773 1.37738 -0.829747 0
M  V30 1543 O 150.963 1.35323 -1.09697 0
M  V30 1544 C 148.095 2.57593 -2.23291 0
M  V30 1545 H 149.288 0.882275 -2.86629 0
M  V30 1546 H 146.841 0.423838 -1.50444 0
M  V30 1547 H 147.576 2.95291 -1.34067 0
M  V30 1548 H 147.361 2.46735 -3.04736 0
M  V30 1549 H 148.851 3.31637 -2.53785 0
M  V30 1550 N 149.288 1.51039 0.449983 0
M  V30 1551 C 150.536 1.62759 1.19808 0
M  V30 1552 C 150.857 0.339981 1.92013 0
M  V30 1553 O 150.127 -0.643606 1.85026 0
M  V30 1554 H 148.707 0.599811 0.445237 0
M  V30 1555 H 151.369 1.87914 0.517138 0
M  V30 1556 H 150.465 2.44911 1.93455 0
M  V30 1557 N 150.766 -0.704594 1.40972 0
M  V30 1558 C 152.182 -1.01406 1.23244 0
M  V30 1559 C 152.382 -2.01169 0.115399 0
M  V30 1560 O 151.438 -2.47021 -0.523147 0
M  V30 1561 C 152.751 -1.54728 2.57836 0
M  V30 1562 C 154.299 -1.66658 2.64942 0
M  V30 1563 C 154.774 -2.23383 3.9983 0
M  V30 1564 N 156.265 -2.30756 4.01629 0
M  V30 1565 C 157 -2.75655 5.02794 0
M  V30 1566 N 156.496 -3.20225 6.14352 0
M  V30 1567 N 158.289 -2.75138 4.90159 0
M  V30 1568 H 150.44 -0.0435285 2.12355 0
M  V30 1569 H 152.703 -0.0818951 0.944456 0
M  V30 1570 H 152.409 -0.888832 3.40283 0
M  V30 1571 H 152.283 -2.53084 2.79693 0
M  V30 1572 H 154.67 -2.31617 1.8286 0
M  V30 1573 H 154.751 -0.668717 2.46904 0
M  V30 1574 H 154.395 -1.59043 4.82357 0
M  V30 1575 H 154.325 -3.23904 4.15203 0
M  V30 1576 H 156.816 -1.99291 3.21079 0
M  V30 1577 H 157.129 -3.53084 6.87424 0
M  V30 1578 H 155.474 -3.18156 6.17901 0
M  V30 1579 H 158.665 -2.39661 4.02095 0
M  V30 1580 H 158.838 -3.09812 5.6914 0
M  V30 1581 N 152.244 -1.26651 -0.937939 0
M  V30 1582 C 153.174 -1.10993 -2.05433 0
M  V30 1583 C 154.155 -0.0142161 -1.70094 0
M  V30 1584 O 155.34 -0.186837 -1.93299 0
M  V30 1585 C 152.47 -0.745561 -3.39203 0
M  V30 1586 C 151.424 -1.79337 -3.88616 0
M  V30 1587 C 150.75 -1.28324 -5.19073 0
M  V30 1588 C 152.05 -3.19553 -4.13138 0
M  V30 1589 H 153.744 -2.0438 -2.1879 0
M  V30 1590 H 151.29 -0.984041 -1.05131 0
M  V30 1591 H 153.243 -0.622888 -4.16771 0
M  V30 1592 H 151.967 0.22401 -3.25831 0
M  V30 1593 H 150.626 -1.90477 -3.13231 0
M  V30 1594 H 150.274 -0.303414 -5.02084 0
M  V30 1595 H 149.974 -1.98369 -5.53103 0
M  V30 1596 H 151.498 -1.1733 -5.99221 0
M  V30 1597 H 152.912 -3.11471 -4.81309 0
M  V30 1598 H 151.309 -3.87218 -4.58457 0
M  V30 1599 H 152.379 -3.65368 -3.18801 0
M  V30 1600 N 153.722 1.14298 -1.08507 0
M  V30 1601 C 154.652 2.21542 -0.737646 0
M  V30 1602 C 155.633 1.67773 0.280377 0
M  V30 1603 O 156.818 1.93616 0.150521 0
M  V30 1604 C 153.948 3.46988 -0.147259 0
M  V30 1605 C 152.902 4.13789 -1.09374 0
M  V30 1606 C 152.228 5.33449 -0.365524 0
M  V30 1607 C 153.528 4.62208 -2.4323 0
M  V30 1608 H 155.222 2.5086 -1.6343 0
M  V30 1609 H 152.768 1.20576 -0.787243 0
M  V30 1610 H 154.721 4.21262 0.107808 0
M  V30 1611 H 153.445 3.17037 0.784538 0
M  V30 1612 H 152.104 3.4147 -1.33393 0
M  V30 1613 H 151.752 4.99759 0.57011 0
M  V30 1614 H 151.452 5.79088 -0.996512 0
M  V30 1615 H 152.976 6.10485 -0.118534 0
M  V30 1616 H 154.39 5.27952 -2.23472 0
M  V30 1617 H 152.787 5.18553 -3.02031 0
M  V30 1618 H 153.857 3.77224 -3.04681 0
M  V30 1619 N 155.201 0.870884 1.31352 0
M  V30 1620 C 156.149 0.316445 2.30437 0
M  V30 1621 C 157.143 -0.568965 1.59559 0
M  V30 1622 O 158.349 -0.454964 1.74155 0
M  V30 1623 H 154.724 0.0836521 0.747333 0
M  V30 1624 H 156.695 1.16606 2.74673 0
M  V30 1625 C 155.444 -0.46635 3.44558 0
M  V30 1626 H 154.767 0.205687 3.99271 0
M  V30 1627 H 156.207 -0.819614 4.16003 0
M  V30 1628 C 154.666 -1.65797 2.9328 0
M  V30 1629 O 155.196 -2.75728 2.92125 0
M  V30 1630 N 153.402 -1.49041 2.4947 0
M  V30 1631 H 152.949 -0.59612 2.50608 0
M  V30 1632 H 152.907 -2.28911 2.15516 0
M  V30 1633 N 156.679 -1.44442 0.630414 0
M  V30 1634 C 157.928 -2.01267 0.132073 0
M  V30 1635 C 158.241 -1.50172 -1.25331 0
M  V30 1636 O 159.447 -1.9912 -1.84562 0
M  V30 1637 C 157.903 -3.59422 0.185362 0
M  V30 1638 C 157.511 -4.19514 1.57201 0
M  V30 1639 C 159.255 -4.23724 -0.256553 0
M  V30 1640 C 157.162 -5.69891 1.58045 0
M  V30 1641 H 156.092 -0.752619 0.0456092 0
M  V30 1642 H 158.743 -1.65666 0.789106 0
M  V30 1643 H 157.125 -3.92318 -0.538759 0
M  V30 1644 H 158.299 -3.98156 2.31966 0
M  V30 1645 H 156.614 -3.67496 1.95795 0
M  V30 1646 H 159.211 -5.34019 -0.269767 0
M  V30 1647 H 159.554 -3.96013 -1.28372 0
M  V30 1648 H 160.087 -3.95629 0.41505 0
M  V30 1649 H 156.826 -6.02336 2.58597 0
M  V30 1650 H 156.346 -5.93373 0.875725 0
M  V30 1651 H 158.025 -6.33515 1.31408 0
M  V30 1652 N 158.157 -0.370918 -1.53173 0
M  V30 1653 C 159.107 0.489588 -2.22681 0
M  V30 1654 C 160.091 1.04442 -1.22395 0
M  V30 1655 O 161.283 0.973578 -1.47819 0
M  V30 1656 C 158.412 1.626 -3.02351 0
M  V30 1657 C 157.498 1.08379 -4.10018 0
M  V30 1658 N 157.889 0.265004 -5.05105 0
M  V30 1659 C 156.187 1.35809 -4.2482 0
M  V30 1660 C 156.888 -0.0324755 -5.81691 0
M  V30 1661 N 155.864 0.566581 -5.40639 0
M  V30 1662 H 159.666 -0.142729 -2.93553 0
M  V30 1663 H 157.18 -0.179221 -1.61408 0
M  V30 1664 H 159.177 2.2547 -3.50669 0
M  V30 1665 H 157.837 2.26132 -2.33011 0
M  V30 1666 H 158.848 -0.0962352 -5.17811 0
M  V30 1667 H 155.525 1.9958 -3.66707 0
M  V30 1668 H 156.915 -0.69473 -6.68299 0
M  V30 1669 N 159.635 1.57281 -0.100228 0
M  V30 1670 C 161.046 1.81725 0.428107 0
M  V30 1671 C 161.397 1.01619 1.67833 0
M  V30 1672 O 160.522 0.247098 2.14985 0
M  V30 1673 C 161.117 3.29617 0.78347 0
M  V30 1674 C 159.676 3.54808 1.25653 0
M  V30 1675 C 158.823 2.76118 0.255752 0
M  V30 1676 H 161.774 1.55324 -0.325608 0
M  V30 1677 H 161.795 3.4322 1.64256 0
M  V30 1678 H 161.307 3.87893 -0.12665 0
M  V30 1679 H 159.408 3.01868 2.18418 0
M  V30 1680 H 159.521 4.63443 1.21482 0
M  V30 1681 H 157.885 2.43745 0.738956 0
M  V30 1682 H 158.668 3.37145 -0.647136 0
M  V30 1683 N 161.113 -0.173488 1.56642 0
M  V30 1684 C 162.338 -0.910149 1.86363 0
M  V30 1685 C 162.763 -1.75132 0.686318 0
M  V30 1686 O 162.121 -1.77595 -0.364643 0
M  V30 1687 C 162.169 -1.76447 3.14482 0
M  V30 1688 O 161.273 -2.86584 2.96553 0
M  V30 1689 H 160.614 -0.255086 0.613047 0
M  V30 1690 H 163.144 -0.172283 2.03873 0
M  V30 1691 H 163.154 -2.16483 3.45831 0
M  V30 1692 H 161.829 -1.14658 3.99783 0
M  V30 1693 H 160.406 -2.50146 2.76553 0
M  V30 1694 N 162.591 -1.51276 -0.441967 0
M  V30 1695 C 163.521 -1.752 -1.54361 0
M  V30 1696 C 164.502 -0.601682 -1.59103 0
M  V30 1697 O 165.687 -0.843913 -1.74905 0
M  V30 1698 C 162.817 -1.87282 -2.92477 0
M  V30 1699 C 161.771 -3.02687 -3.02596 0
M  V30 1700 C 161.097 -2.99947 -4.42647 0
M  V30 1701 C 162.397 -4.4273 -2.77106 0
M  V30 1702 H 164.091 -2.67442 -1.34592 0
M  V30 1703 H 161.637 -1.28694 -0.646048 0
M  V30 1704 H 163.59 -2.02602 -3.695 0
M  V30 1705 H 162.314 -0.916844 -3.13467 0
M  V30 1706 H 160.973 -2.87065 -2.28012 0
M  V30 1707 H 160.621 -2.02136 -4.60597 0
M  V30 1708 H 160.321 -3.77439 -4.50348 0
M  V30 1709 H 161.845 -3.17354 -5.2165 0
M  V30 1710 H 163.259 -4.58727 -3.43864 0
M  V30 1711 H 161.656 -5.21893 -2.96222 0
M  V30 1712 H 162.726 -4.53087 -1.72744 0
M  V30 1713 N 164.069 0.697108 -1.41344 0
M  V30 1714 C 164.999 1.82353 -1.45841 0
M  V30 1715 C 165.98 1.67115 -0.317247 0
M  V30 1716 O 167.165 1.86871 -0.528474 0
M  V30 1717 C 164.295 3.20476 -1.33838 0
M  V30 1718 C 163.249 3.50415 -2.4575 0
M  V30 1719 C 162.575 4.87878 -2.18813 0
M  V30 1720 C 163.875 3.49546 -3.88091 0
M  V30 1721 H 165.569 1.78846 -2.40113 0
M  V30 1722 H 163.115 0.859028 -1.15571 0
M  V30 1723 H 165.068 3.98988 -1.35596 0
M  V30 1724 H 163.792 3.24604 -0.360498 0
M  V30 1725 H 162.451 2.74253 -2.43271 0
M  V30 1726 H 162.099 4.8863 -1.19371 0
M  V30 1727 H 161.799 5.08875 -2.93803 0
M  V30 1728 H 163.323 5.68702 -2.22284 0
M  V30 1729 H 164.737 4.18066 -3.92293 0
M  V30 1730 H 163.134 3.82075 -4.62751 0
M  V30 1731 H 164.204 2.48552 -4.16353 0
M  V30 1732 N 165.547 1.27147 0.931209 0
M  V30 1733 C 166.958 1.12044 1.49342 0
M  V30 1734 C 167.309 -0.295795 1.93957 0
M  V30 1735 O 166.434 -1.18835 1.80852 0
M  V30 1736 C 167.029 2.02781 2.71414 0
M  V30 1737 C 165.588 1.91794 3.2387 0
M  V30 1738 C 164.735 1.95543 1.96617 0
M  V30 1739 H 167.686 1.40091 0.745672 0
M  V30 1740 H 167.707 1.58156 3.46074 0
M  V30 1741 H 167.219 3.05848 2.38911 0
M  V30 1742 H 165.32 0.916992 3.6114 0
M  V30 1743 H 165.433 2.77852 3.90302 0
M  V30 1744 H 163.797 1.39722 2.12955 0
M  V30 1745 H 164.58 3.00259 1.66432 0
M  V30 1746 N 167.025 -1.13721 1.09112 0
M  V30 1747 C 167.972 -2.19031 0.727591 0
M  V30 1748 C 168.942 -1.63555 -0.289656 0
M  V30 1749 O 170.127 -1.90023 -0.172026 0
M  V30 1750 C 167.267 -3.4477 0.15082 0
M  V30 1751 C 166.38 -4.14365 1.22172 0
M  V30 1752 C 165.515 -5.27709 0.608042 0
M  V30 1753 C 164.554 -5.89147 1.66047 0
M  V30 1754 N 163.691 -6.93929 1.06806 0
M  V30 1755 H 168.531 -2.49475 1.62991 0
M  V30 1756 H 166.068 -1.22499 0.81439 0
M  V30 1757 H 168.026 -4.16714 -0.201358 0
M  V30 1758 H 166.656 -3.14787 -0.714783 0
M  V30 1759 H 165.708 -3.40737 1.69122 0
M  V30 1760 H 167.02 -4.56114 2.01895 0
M  V30 1761 H 166.174 -6.06355 0.204523 0
M  V30 1762 H 164.913 -4.872 -0.220769 0
M  V30 1763 H 163.918 -5.09198 2.07357 0
M  V30 1764 H 165.143 -6.31729 2.49189 0
M  V30 1765 H 163.089 -6.55483 0.260476 0
M  V30 1766 H 163.006 -7.34202 1.8023 0
M  V30 1767 H 164.274 -7.76434 0.690644 0
M  V30 1768 N 168.503 -0.877838 -1.30888 0
M  V30 1769 C 169.733 -0.506678 -2.00291 0
M  V30 1770 C 170.141 0.907449 -1.66018 0
M  V30 1771 O 169.484 1.60719 -0.88967 0
M  V30 1772 C 169.546 -0.59323 -3.54572 0
M  V30 1773 C 169.21 -1.97038 -4.12341 0
M  V30 1774 C 170.207 -2.93889 -4.28865 0
M  V30 1775 C 167.892 -2.27383 -4.47886 0
M  V30 1776 C 169.886 -4.19224 -4.80136 0
M  V30 1777 C 167.573 -3.52965 -4.98857 0
M  V30 1778 C 168.571 -4.48701 -5.14934 0
M  V30 1779 O 168.259 -5.72056 -5.64808 0
M  V30 1780 H 167.991 -0.1951 -0.647234 0
M  V30 1781 H 170.545 -1.18301 -1.6791 0
M  V30 1782 H 168.775 0.140057 -3.86446 0
M  V30 1783 H 170.464 -0.234372 -4.05223 0
M  V30 1784 H 171.23 -2.71756 -4.01714 0
M  V30 1785 H 167.109 -1.53639 -4.34645 0
M  V30 1786 H 170.653 -4.93956 -4.92599 0
M  V30 1787 H 166.55 -3.74939 -5.25443 0
M  V30 1788 H 167.318 -5.74337 -5.83163 0
M  V30 1789 N 169.982 1.44106 -0.638065 0
M  V30 1790 C 171.393 1.85316 -0.226894 0
M  V30 1791 C 171.744 1.53399 1.22324 0
M  V30 1792 O 170.869 0.975463 1.93167 0
M  V30 1793 C 171.464 3.3637 -0.405013 0
M  V30 1794 C 170.023 3.76369 -0.0482902 0
M  V30 1795 C 169.17 2.67921 -0.715108 0
M  V30 1796 H 172.121 1.34474 -0.842764 0
M  V30 1797 H 172.142 3.7885 0.354 0
M  V30 1798 H 171.654 3.59569 -1.46053 0
M  V30 1799 H 169.755 3.58784 1.00522 0
M  V30 1800 H 169.868 4.76856 -0.463187 0
M  V30 1801 H 168.232 2.54259 -0.149753 0
M  V30 1802 H 169.015 2.93951 -1.77335 0
M  V30 1803 N 171.46 0.379036 1.52974 0
M  V30 1804 C 172.708 -0.206014 2.01047 0
M  V30 1805 C 173.029 -1.48175 1.26765 0
M  V30 1806 O 172.299 -1.92085 0.384743 0
M  V30 1807 H 170.879 -0.0791184 0.742798 0
M  V30 1808 H 173.541 0.508366 1.88153 0
M  V30 1809 H 172.637 -0.423501 3.09213 0
M  V30 1810 N 172.938 -1.57226 0.108567 0
M  V30 1811 C 173.868 -2.17778 -0.84232 0
M  V30 1812 C 174.849 -1.11487 -1.2847 0
M  V30 1813 O 176.034 -1.39681 -1.34918 0
M  V30 1814 C 173.164 -2.76888 -2.09644 0
M  V30 1815 C 172.118 -3.88669 -1.79221 0
M  V30 1816 C 171.444 -4.34541 -3.11574 0
M  V30 1817 C 172.744 -5.11251 -1.06864 0
M  V30 1818 H 174.438 -2.97489 -0.337774 0
M  V30 1819 H 171.984 -1.43097 -0.161025 0
M  V30 1820 H 173.937 -3.17904 -2.76614 0
M  V30 1821 H 172.661 -1.94451 -2.62405 0
M  V30 1822 H 171.32 -3.48213 -1.14644 0
M  V30 1823 H 170.968 -3.48977 -3.62249 0
M  V30 1824 H 170.668 -5.09914 -2.91996 0
M  V30 1825 H 172.192 -4.782 -3.7968 0
M  V30 1826 H 173.606 -5.49352 -1.63968 0
M  V30 1827 H 172.003 -5.9214 -0.974178 0
M  V30 1828 H 173.073 -4.8487 -0.0536168 0
M  V30 1829 N 174.416 0.165178 -1.56732 0
M  V30 1830 C 175.366 1.20917 -1.93295 0
M  V30 1831 C 176.35 1.39488 -0.801985 0
M  V30 1832 O 177.542 1.41356 -1.06525 0
M  V30 1833 C 174.671 2.54718 -2.3016 0
M  V30 1834 C 173.757 2.39815 -3.49785 0
M  V30 1835 N 174.148 1.94637 -4.66851 0
M  V30 1836 C 172.446 2.70623 -3.54513 0
M  V30 1837 C 173.147 1.92344 -5.4898 0
M  V30 1838 N 172.123 2.34978 -4.9019 0
M  V30 1839 H 175.925 0.851675 -2.81289 0
M  V30 1840 H 173.439 0.373399 -1.58049 0
M  V30 1841 H 175.436 3.30165 -2.54552 0
M  V30 1842 H 174.096 2.91265 -1.43508 0
M  V30 1843 H 175.107 1.6488 -4.90953 0
M  V30 1844 H 171.784 3.11167 -2.78354 0
M  V30 1845 H 173.174 1.5906 -6.52801 0
M  V30 1846 N 175.894 1.51508 0.433938 0
M  V30 1847 C 177.122 1.68157 1.20543 0
M  V30 1848 C 177.537 0.380362 1.84929 0
M  V30 1849 O 176.894 -0.641446 1.70856 0
M  V30 1850 C 176.945 2.79965 2.28696 0
M  V30 1851 O 176.666 4.05045 1.66943 0
M  V30 1852 C 178.167 3.07912 3.18912 0
M  V30 1853 H 175.387 0.56421 0.363191 0
M  V30 1854 H 177.931 1.97941 0.513754 0
M  V30 1855 H 176.086 2.5277 2.93574 0
M  V30 1856 H 176.5 4.67165 2.38448 0
M  V30 1857 H 177.974 3.89719 3.90926 0
M  V30 1858 H 178.451 2.20456 3.79863 0
M  V30 1859 H 179.057 3.36779 2.59731 0
M  V30 1860 N 177.372 -0.689602 1.41712 0
M  V30 1861 C 178.322 -1.79571 1.40493 0
M  V30 1862 C 179.306 -1.58473 0.278409 0
M  V30 1863 O 180.498 -1.69204 0.519532 0
M  V30 1864 C 177.627 -3.17923 1.29536 0
M  V30 1865 C 176.713 -3.44695 2.47075 0
M  V30 1866 N 177.104 -3.42132 3.72531 0
M  V30 1867 C 175.402 -3.75269 2.41017 0
M  V30 1868 C 176.103 -3.67976 4.50521 0
M  V30 1869 N 175.079 -3.88014 3.80718 0
M  V30 1870 H 178.881 -1.75961 2.35404 0
M  V30 1871 H 176.395 -0.889839 1.35851 0
M  V30 1872 H 178.392 -3.97167 1.26745 0
M  V30 1873 H 177.052 -3.22741 0.356153 0
M  V30 1874 H 178.063 -3.22375 4.05333 0
M  V30 1875 H 174.74 -3.87421 1.55599 0
M  V30 1876 H 176.13 -3.7208 5.59469 0
M  V30 1877 N 178.85 -1.27639 -0.924453 0
M  V30 1878 C 180.266 -1.05113 -1.20097 0
M  V30 1879 C 180.466 0.213262 -2.00368 0
M  V30 1880 O 179.522 0.91787 -2.35226 0
M  V30 1881 C 180.835 -2.29244 -1.94596 0
M  V30 1882 C 182.383 -2.34315 -2.07522 0
M  V30 1883 C 182.858 -3.58183 -2.85427 0
M  V30 1884 N 184.349 -3.5876 -2.92994 0
M  V30 1885 C 185.084 -4.51277 -3.53746 0
M  V30 1886 N 184.58 -5.54102 -4.15863 0
M  V30 1887 N 186.373 -4.38894 -3.51181 0
M  V30 1888 H 178.524 -2.08821 -0.388264 0
M  V30 1889 H 180.787 -0.918568 -0.234385 0
M  V30 1890 H 180.493 -3.21301 -1.43034 0
M  V30 1891 H 180.367 -2.34816 -2.95197 0
M  V30 1892 H 182.754 -1.42762 -2.58269 0
M  V30 1893 H 182.835 -2.32744 -1.06131 0
M  V30 1894 H 182.479 -4.50074 -2.35363 0
M  V30 1895 H 182.409 -3.57006 -3.8711 0
M  V30 1896 H 184.9 -2.84398 -2.4885 0
M  V30 1897 H 185.213 -6.20859 -4.60168 0
M  V30 1898 H 183.558 -5.57941 -4.144 0
M  V30 1899 H 186.749 -3.57772 -3.01856 0
M  V30 1900 H 186.922 -5.11186 -3.98237 0
M  V30 1901 N 180.328 1.1314 -1.09713 0
M  V30 1902 C 181.26 2.18343 -0.697056 0
M  V30 1903 C 182.273 1.60669 0.262551 0
M  V30 1904 O 183.462 1.78435 0.0481527 0
M  V30 1905 C 180.562 3.38899 -0.00684728 0
M  V30 1906 C 179.735 4.26078 -0.988741 0
M  V30 1907 C 178.794 5.25155 -0.331394 0
M  V30 1908 O 177.82 5.60701 -0.979926 0
M  V30 1909 N 179.022 5.73271 0.913261 0
M  V30 1910 H 181.787 2.5328 -1.60216 0
M  V30 1911 H 179.348 1.28491 -0.984971 0
M  V30 1912 H 181.34 4.02255 0.444191 0
M  V30 1913 H 179.91 3.02175 0.800551 0
M  V30 1914 H 179.13 3.59453 -1.61826 0
M  V30 1915 H 180.418 4.81178 -1.65364 0
M  V30 1916 H 179.816 5.46544 1.45966 0
M  V30 1917 H 178.373 6.3855 1.30757 0
M  V30 1918 N 181.806 0.884767 1.30421 0
M  V30 1919 C 182.769 0.356277 2.26414 0
M  V30 1920 C 183.769 -0.501124 1.52792 0
M  V30 1921 O 184.959 -0.30831 1.7145 0
M  V30 1922 C 182.091 -0.492316 3.37326 0
M  V30 1923 H 183.284 1.20389 2.74675 0
M  V30 1924 H 180.837 0.661607 1.41607 0
M  V30 1925 H 181.572 -1.36052 2.94381 0
M  V30 1926 H 181.357 0.121832 3.91911 0
M  V30 1927 H 182.847 -0.853871 4.08777 0
M  V30 1928 N 183.284 -1.43765 0.645699 0
M  V30 1929 C 184.214 -2.33471 -0.0370477 0
M  V30 1930 C 185.195 -1.49042 -0.819779 0
M  V30 1931 O 186.38 -1.77726 -0.782758 0
M  V30 1932 C 183.51 -3.32311 -1.0093 0
M  V30 1933 C 182.464 -4.2667 -0.337201 0
M  V30 1934 C 181.79 -5.1549 -1.42037 0
M  V30 1935 C 183.09 -5.16657 0.765706 0
M  V30 1936 H 184.784 -2.90809 0.712069 0
M  V30 1937 H 182.33 -1.39834 0.343876 0
M  V30 1938 H 184.283 -3.9396 -1.49578 0
M  V30 1939 H 183.007 -2.73213 -1.78948 0
M  V30 1940 H 181.666 -3.66374 0.128771 0
M  V30 1941 H 181.314 -4.52735 -2.1918 0
M  V30 1942 H 181.014 -5.79438 -0.975966 0
M  V30 1943 H 182.538 -5.80012 -1.90838 0
M  V30 1944 H 183.952 -5.72158 0.361702 0
M  V30 1945 H 182.349 -5.89286 1.13413 0
M  V30 1946 H 183.419 -4.56796 1.62683 0
M  V30 1947 N 184.763 -0.387143 -1.52771 0
M  V30 1948 C 185.673 0.456442 -2.30117 0
M  V30 1949 C 186.689 1.07342 -1.36944 0
M  V30 1950 O 187.865 1.07971 -1.70013 0
M  V30 1951 C 184.93 1.56957 -3.09136 0
M  V30 1952 C 183.991 0.977916 -4.18014 0
M  V30 1953 C 183.224 2.038 -4.93256 0
M  V30 1954 O 183.447 3.25271 -4.68567 0
M  V30 1955 O 182.381 1.6565 -5.78657 0
M  V30 1956 H 186.207 -0.17359 -3.03203 0
M  V30 1957 H 183.792 -0.150919 -1.48636 0
M  V30 1958 H 185.674 2.21628 -3.58412 0
M  V30 1959 H 184.349 2.18461 -2.38865 0
M  V30 1960 H 183.256 0.294525 -3.72939 0
M  V30 1961 H 184.589 0.407128 -4.90513 0
M  V30 1962 N 186.241 1.57166 -0.116904 0
M  V30 1963 C 187.189 2.16457 0.851418 0
M  V30 1964 C 188.183 1.11323 1.27686 0
M  V30 1965 O 189.389 1.2963 1.24884 0
M  V30 1966 H 185.764 0.69271 0.292672 0
M  V30 1967 H 187.735 2.96605 0.32685 0
M  V30 1968 C 186.484 2.77689 2.09246 0
M  V30 1969 H 185.807 3.58285 1.77402 0
M  V30 1970 H 187.247 3.22716 2.7501 0
M  V30 1971 C 185.706 1.74667 2.88085 0
M  V30 1972 O 186.236 1.19877 3.83396 0
M  V30 1973 N 184.442 1.44656 2.52038 0
M  V30 1974 H 183.989 1.89402 1.74599 0
M  V30 1975 H 183.947 0.759675 3.05084 0
M  V30 1976 N 187.719 -0.156864 1.56817 0
M  V30 1977 C 188.967 -0.869404 1.82444 0
M  V30 1978 C 189.288 -1.82147 0.69623 0
M  V30 1979 O 188.558 -1.93847 -0.28287 0
M  V30 1980 H 187.138 -0.324043 0.673056 0
M  V30 1981 H 189.8 -0.153224 1.94297 0
M  V30 1982 H 188.896 -1.43761 2.77019 0
M  V30 1983 N 189.197 -1.51736 -0.425897 0
M  V30 1984 C 190.474 -1.55519 -1.1863 0
M  V30 1985 C 190.854 -0.326219 -2.08564 0
M  V30 1986 O 190.202 0.688012 -2.17896 0
M  V30 1987 C 190.412 -2.87521 -1.9782 0
M  V30 1988 C 191.76 -3.39899 -2.54468 0
M  V30 1989 O 192.784 -2.89148 -2.08019 0
M  V30 1990 O 191.643 -4.2848 -3.39215 0
M  V30 1991 H 188.737 -0.625739 -0.540721 0
M  V30 1992 H 191.283 -1.64055 -0.434038 0
M  V30 1993 H 190.055 -3.68422 -1.31836 0
M  V30 1994 H 189.678 -2.822 -2.80088 0
M  V30 1995 N 190.675 0.682077 -1.42076 0
M  V30 1996 C 191.585 1.82535 -1.47371 0
M  V30 1997 C 192.601 1.7017 -0.363079 0
M  V30 1998 O 193.777 1.91848 -0.612875 0
M  V30 1999 C 190.842 3.18624 -1.36674 0
M  V30 2000 C 189.903 3.42999 -2.58167 0
M  V30 2001 C 189.136 4.72595 -2.4797 0
M  V30 2002 O 189.359 5.50006 -1.5116 0
M  V30 2003 O 188.293 4.98054 -3.37974 0
M  V30 2004 H 192.119 1.81023 -2.43853 0
M  V30 2005 H 189.704 0.836887 -1.2376 0
M  V30 2006 H 191.586 3.99847 -1.33043 0
M  V30 2007 H 190.261 3.20789 -0.433138 0
M  V30 2008 H 189.168 2.61653 -2.67373 0
M  V30 2009 H 190.501 3.45659 -3.50401 0
M  V30 2010 N 192.153 1.28127 0.917671 0
M  V30 2011 C 193.063 1.13556 2.05286 0
M  V30 2012 C 194.079 0.0630914 1.73886 0
M  V30 2013 O 195.255 0.271598 1.9956 0
M  V30 2014 C 192.32 0.794676 3.3747 0
M  V30 2015 C 191.381 1.94909 3.82504 0
M  V30 2016 C 190.614 1.62437 5.0838 0
M  V30 2017 O 190.837 0.536905 5.67867 0
M  V30 2018 O 189.771 2.46677 5.4903 0
M  V30 2019 H 193.597 2.08844 2.20495 0
M  V30 2020 H 191.182 1.07409 1.03845 0
M  V30 2021 H 193.064 0.618344 4.16839 0
M  V30 2022 H 191.739 -0.128581 3.23445 0
M  V30 2023 H 190.646 2.18055 3.03978 0
M  V30 2024 H 191.979 2.85291 4.01086 0
M  V30 2025 N 193.631 -1.12557 1.10312 0
M  V30 2026 C 194.581 -2.16331 0.720076 0
M  V30 2027 C 195.565 -1.58616 -0.270115 0
M  V30 2028 O 196.757 -1.76823 -0.0790507 0
M  V30 2029 C 193.886 -3.42963 0.152113 0
M  V30 2030 C 192.972 -4.07663 1.16927 0
M  V30 2031 N 193.363 -4.47392 2.35953 0
M  V30 2032 C 191.661 -4.34425 1.0095 0
M  V30 2033 C 192.362 -4.97932 3.0073 0
M  V30 2034 N 191.338 -4.93358 2.28252 0
M  V30 2035 H 195.14 -2.44813 1.62616 0
M  V30 2036 H 192.654 -1.29449 0.980654 0
M  V30 2037 H 194.651 -4.16664 -0.14037 0
M  V30 2038 H 193.311 -3.1595 -0.748701 0
M  V30 2039 H 194.322 -4.39802 2.73486 0
M  V30 2040 H 190.999 -4.17177 0.164134 0
M  V30 2041 H 192.389 -5.38397 4.01969 0
M  V30 2042 N 195.109 -0.891671 -1.2995 0
M  V30 2043 C 196.357 -0.512486 -1.95494 0
M  V30 2044 C 196.678 0.942776 -1.70695 0
M  V30 2045 O 195.948 1.66374 -1.03424 0
M  V30 2046 H 194.528 -0.186533 -0.723336 0
M  V30 2047 H 197.19 -1.13621 -1.58355 0
M  V30 2048 H 196.286 -0.688342 -3.04415 0
M  V30 2049 N 196.587 1.43421 -0.653314 0
M  V30 2050 C 197.815 2.06163 -0.174491 0
M  V30 2051 C 198.23 1.48969 1.1599 0
M  V30 2052 O 197.587 0.621042 1.71608 0
M  V30 2053 C 197.638 3.61417 -0.0774865 0
M  V30 2054 O 197.359 4.16485 -1.35912 0
M  V30 2055 C 198.86 4.41235 0.427402 0
M  V30 2056 H 196.08 0.664946 -0.0899353 0
M  V30 2057 H 198.624 1.83924 -0.893988 0
M  V30 2058 H 196.779 3.82841 0.59257 0
M  V30 2059 H 197.193 5.10153 -1.21839 0
M  V30 2060 H 198.667 5.5021 0.44423 0
M  V30 2061 H 199.144 4.14268 1.45873 0
M  V30 2062 H 199.75 4.2478 -0.210167 0
M  V30 2063 N 198.065 0.39524 1.52563 0
M  V30 2064 C 199.29 -0.187456 2.06551 0
M  V30 2065 C 199.715 -1.39249 1.26457 0
M  V30 2066 O 199.073 -1.78947 0.291151 0
M  V30 2067 C 199.121 -0.529985 3.56684 0
M  V30 2068 O 198.225 -1.62307 3.79118 0
M  V30 2069 H 197.566 -0.0202537 0.663691 0
M  V30 2070 H 200.096 0.564426 1.96661 0
M  V30 2071 H 200.106 -0.792598 4.00227 0
M  V30 2072 H 198.781 0.350987 4.14416 0
M  V30 2073 H 197.358 -1.3537 3.47461 0
M  V30 2074 N 199.544 -1.57102 0.125237 0
M  V30 2075 C 200.79 -1.95697 -0.532035 0
M  V30 2076 C 201.123 -1.009 -1.6593 0
M  V30 2077 O 200.398 -0.047347 -1.94442 0
M  V30 2078 C 200.681 -3.44181 -1.05884 0
M  V30 2079 C 200.534 -4.49752 0.0654392 0
M  V30 2080 C 201.853 -3.94655 -1.9477 0
M  V30 2081 H 198.972 -0.711571 -0.191925 0
M  V30 2082 H 201.614 -1.88923 0.20206 0
M  V30 2083 H 199.764 -3.50085 -1.68442 0
M  V30 2084 H 201.436 -4.55943 0.700982 0
M  V30 2085 H 199.679 -4.27653 0.727709 0
M  V30 2086 H 200.35 -5.50924 -0.344505 0
M  V30 2087 H 202.826 -3.91094 -1.42074 0
M  V30 2088 H 201.702 -4.99057 -2.28546 0
M  V30 2089 H 201.963 -3.35718 -2.87656 0
M  V30 2090 N 201.022 0.148545 -1.56898 0
M  V30 2091 C 201.972 1.1886 -1.94567 0
M  V30 2092 C 202.956 1.3863 -0.816735 0
M  V30 2093 O 204.148 1.40218 -1.08018 0
M  V30 2094 C 201.277 2.52262 -2.32849 0
M  V30 2095 C 200.363 2.36092 -3.52309 0
M  V30 2096 N 200.754 1.89674 -4.6889 0
M  V30 2097 C 199.052 2.66848 -3.57363 0
M  V30 2098 C 199.753 1.86511 -5.50989 0
M  V30 2099 N 198.729 2.29766 -4.92655 0
M  V30 2100 H 202.531 0.821793 -2.82177 0
M  V30 2101 H 200.045 0.356615 -1.58436 0
M  V30 2102 H 202.042 3.27447 -2.58039 0
M  V30 2103 H 200.702 2.89727 -1.46589 0
M  V30 2104 H 201.713 1.59663 -4.92674 0
M  V30 2105 H 198.39 3.08198 -2.81639 0
M  V30 2106 H 199.78 1.52128 -6.54452 0
M  V30 2107 N 202.5 1.5196 0.417844 0
M  V30 2108 C 203.747 1.65591 1.16559 0
M  V30 2109 C 204.075 0.381565 1.90721 0
M  V30 2110 O 203.33 -0.635156 1.85106 0
M  V30 2111 C 203.629 2.82269 2.19223 0
M  V30 2112 C 203.295 4.20819 1.61933 0
M  V30 2113 C 201.957 4.58506 1.46033 0
M  V30 2114 C 204.309 5.07196 1.20008 0
M  V30 2115 C 201.637 5.80257 0.867113 0
M  V30 2116 C 203.989 6.29544 0.621086 0
M  V30 2117 C 202.653 6.65987 0.449144 0
M  V30 2118 H 201.923 0.605939 0.42652 0
M  V30 2119 H 204.57 1.86041 0.45397 0
M  V30 2120 H 202.875 2.56118 2.96498 0
M  V30 2121 H 204.572 2.90012 2.76936 0
M  V30 2122 H 201.162 3.91116 1.7529 0
M  V30 2123 H 205.346 4.7867 1.31105 0
M  V30 2124 H 200.602 6.07124 0.721833 0
M  V30 2125 H 204.776 6.95805 0.287798 0
M  V30 2126 H 202.403 7.60199 -0.012632 0
M  V30 2127 N 203.978 -0.674533 1.42435 0
M  V30 2128 C 205.224 -1.43671 1.43131 0
M  V30 2129 C 205.557 -1.94142 0.0476021 0
M  V30 2130 O 204.832 -1.70924 -0.928188 0
M  V30 2131 C 205.115 -2.63355 2.45594 0
M  V30 2132 C 204.968 -2.18514 3.93156 0
M  V30 2133 C 206.287 -3.65571 2.45043 0
M  V30 2134 H 203.406 -0.521077 0.521198 0
M  V30 2135 H 206.048 -0.766551 1.7385 0
M  V30 2136 H 204.198 -3.2053 2.19528 0
M  V30 2137 H 205.87 -1.66504 4.30202 0
M  V30 2138 H 204.113 -1.50086 4.07009 0
M  V30 2139 H 204.784 -3.04484 4.60428 0
M  V30 2140 H 207.26 -3.18113 2.68223 0
M  V30 2141 H 206.136 -4.46893 3.18713 0
M  V30 2142 H 206.397 -4.16716 1.47649 0
M  V30 2143 N 205.456 -1.28612 -0.910864 0
M  V30 2144 C 206.684 -1.18792 -1.69399 0
M  V30 2145 C 207.099 0.253039 -1.87097 0
M  V30 2146 O 206.456 1.17071 -1.40003 0
M  V30 2147 C 206.507 -1.88511 -3.08457 0
M  V30 2148 O 206.228 -3.26979 -2.91576 0
M  V30 2149 C 207.729 -1.85029 -4.02839 0
M  V30 2150 H 204.949 -0.412233 -0.529438 0
M  V30 2151 H 207.493 -1.69788 -1.13984 0
M  V30 2152 H 205.648 -1.41379 -3.60681 0
M  V30 2153 H 206.062 -3.61936 -3.79608 0
M  V30 2154 H 207.536 -2.38395 -4.97867 0
M  V30 2155 H 208.013 -0.823303 -4.31414 0
M  V30 2156 H 208.619 -2.31853 -3.56545 0
M  V30 2157 N 206.934 1.1197 -1.10907 0
M  V30 2158 C 208.211 1.79959 -0.766432 0
M  V30 2159 C 208.591 1.97466 0.746363 0
M  V30 2160 O 207.939 1.55491 1.67436 0
M  V30 2161 C 208.149 3.14009 -1.52314 0
M  V30 2162 C 209.497 3.89134 -1.69883 0
M  V30 2163 O 210.521 3.2368 -1.48692 0
M  V30 2164 O 209.38 5.06572 -2.05054 0
M  V30 2165 H 206.474 0.779208 -0.277062 0
M  V30 2166 H 209.02 1.18762 -1.21217 0
M  V30 2167 H 207.792 2.96587 -2.55249 0
M  V30 2168 H 207.415 3.82915 -1.07059 0
M  V30 2169 N 208.412 0.89855 1.29475 0
M  V30 2170 C 209.322 0.379974 2.31502 0
M  V30 2171 C 210.338 -0.524695 1.659 0
M  V30 2172 O 211.514 -0.414551 1.97087 0
M  V30 2173 C 208.579 -0.385138 3.44554 0
M  V30 2174 C 207.64 0.550914 4.2575 0
M  V30 2175 C 206.873 -0.177778 5.33404 0
M  V30 2176 O 207.096 -1.40189 5.52904 0
M  V30 2177 O 206.03 0.479106 5.9999 0
M  V30 2178 H 209.856 1.22639 2.77837 0
M  V30 2179 H 207.441 0.662834 1.33891 0
M  V30 2180 H 209.323 -0.817841 4.13388 0
M  V30 2181 H 207.998 -1.20763 3.0033 0
M  V30 2182 H 206.905 1.03271 3.59564 0
M  V30 2183 H 208.238 1.33979 4.73614 0
M  V30 2184 N 209.89 -1.43072 0.660911 0
M  V30 2185 C 210.82 -2.33497 -0.0122829 0
M  V30 2186 C 211.801 -1.49903 -0.803925 0
M  V30 2187 O 212.986 -1.78546 -0.763864 0
M  V30 2188 C 210.116 -3.33363 -0.973994 0
M  V30 2189 C 209.07 -4.27003 -0.291928 0
M  V30 2190 C 208.396 -5.16967 -1.36562 0
M  V30 2191 C 209.696 -5.15816 0.820462 0
M  V30 2192 H 211.39 -2.90038 0.742873 0
M  V30 2193 H 208.936 -1.39461 0.358688 0
M  V30 2194 H 210.889 -3.95524 -1.45392 0
M  V30 2195 H 209.613 -2.75095 -1.7604 0
M  V30 2196 H 208.272 -3.66217 0.167623 0
M  V30 2197 H 207.92 -4.55034 -2.14366 0
M  V30 2198 H 207.62 -5.80441 -0.914454 0
M  V30 2199 H 209.144 -5.82003 -1.84675 0
M  V30 2200 H 210.558 -5.71742 0.422366 0
M  V30 2201 H 208.955 -5.8805 1.19656 0
M  V30 2202 H 210.025 -4.55045 1.67518 0
M  V30 2203 N 211.368 -0.403325 -1.52352 0
M  V30 2204 C 212.645 0.232611 -1.94212 0
M  V30 2205 C 213.025 1.63133 -1.33981 0
M  V30 2206 O 212.373 2.22659 -0.513344 0
M  V30 2207 C 212.583 0.244811 -3.4814 0
M  V30 2208 C 213.931 0.46698 -4.22024 0
M  V30 2209 O 214.955 0.324419 -3.5472 0
M  V30 2210 O 213.814 0.74747 -5.41364 0
M  V30 2211 H 210.908 0.148223 -0.813609 0
M  V30 2212 H 213.454 -0.458848 -1.63379 0
M  V30 2213 H 212.226 -0.734378 -3.84347 0
M  V30 2214 H 211.849 0.980611 -3.85318 0
M  V30 2215 N 212.846 1.57033 -0.133567 0
M  V30 2216 C 214.094 1.953 0.519848 0
M  V30 2217 C 214.415 1.01866 1.66278 0
M  V30 2218 O 213.685 0.0776513 1.95746 0
M  V30 2219 H 212.265 0.721091 0.195032 0
M  V30 2220 H 214.927 1.93809 -0.205921 0
M  V30 2221 H 214.023 2.98695 0.904854 0
M  V30 2222 N 214.325 -0.140222 1.56975 0
M  V30 2223 C 215.573 -0.850005 1.83356 0
M  V30 2224 C 215.894 -1.81399 0.71551 0
M  V30 2225 O 215.164 -1.94136 -0.262294 0
M  V30 2226 H 213.744 -0.316886 0.676456 0
M  V30 2227 H 216.406 -0.132608 1.94448 0
M  V30 2228 H 215.502 -1.40814 2.78528 0
M  V30 2229 N 215.803 -1.52179 -0.40978 0
M  V30 2230 C 217.214 -1.58377 -0.988615 0
M  V30 2231 C 217.565 -0.423879 -1.91566 0
M  V30 2232 O 216.69 0.455844 -2.11544 0
M  V30 2233 C 217.285 -2.87044 -1.79976 0
M  V30 2234 C 215.844 -2.95722 -2.32863 0
M  V30 2235 C 214.991 -2.53309 -1.12828 0
M  V30 2236 H 217.942 -1.57558 -0.190039 0
M  V30 2237 H 217.963 -2.7236 -2.65707 0
M  V30 2238 H 217.475 -3.71444 -1.12478 0
M  V30 2239 H 215.576 -2.15814 -3.03735 0
M  V30 2240 H 215.689 -3.99951 -2.63773 0
M  V30 2241 H 214.053 -2.07142 -1.48204 0
M  V30 2242 H 214.836 -3.40082 -0.46897 0
M  V30 2243 N 217.281 0.66697 -1.42791 0
M  V30 2244 C 218.527 1.4291 -1.43891 0
M  V30 2245 C 218.86 1.94114 -0.0578972 0
M  V30 2246 O 218.135 1.71414 0.91911 0
M  V30 2247 C 218.418 2.62049 -2.46987 0
M  V30 2248 C 218.271 2.16426 -3.94309 0
M  V30 2249 C 219.59 3.64266 -2.46978 0
M  V30 2250 H 216.709 0.518306 -0.523954 0
M  V30 2251 H 219.351 0.757321 -1.74255 0
M  V30 2252 H 217.501 3.19361 -2.21225 0
M  V30 2253 H 219.173 1.64221 -4.31079 0
M  V30 2254 H 217.416 1.47925 -4.078 0
M  V30 2255 H 218.087 3.02038 -4.62036 0
M  V30 2256 H 220.563 3.16686 -2.69906 0
M  V30 2257 H 219.439 4.45196 -3.21079 0
M  V30 2258 H 219.7 4.15927 -1.49857 0
M  V30 2259 N 218.759 1.29093 0.90403 0
M  V30 2260 C 220.008 1.16187 1.64874 0
M  V30 2261 C 220.321 -0.286742 1.93487 0
M  V30 2262 O 221.527 -0.537062 2.66135 0
M  V30 2263 C 219.983 2.03177 2.97064 0
M  V30 2264 C 219.591 3.52836 2.76062 0
M  V30 2265 C 221.335 1.98984 3.74974 0
M  V30 2266 C 219.242 4.31945 4.03952 0
M  V30 2267 H 218.172 0.431246 0.618501 0
M  V30 2268 H 220.823 1.53699 1.00243 0
M  V30 2269 H 219.205 1.5853 3.62883 0
M  V30 2270 H 220.379 4.05507 2.18863 0
M  V30 2271 H 218.694 3.58656 2.11553 0
M  V30 2272 H 221.291 2.55351 4.69787 0
M  V30 2273 H 221.634 0.968815 4.0487 0
M  V30 2274 H 222.167 2.41652 3.15989 0
M  V30 2275 H 218.906 5.34667 3.79225 0
M  V30 2276 H 218.426 3.84045 4.60727 0
M  V30 2277 H 220.105 4.42379 4.72133 0
M  V30 2278 N 220.237 -1.11381 1.11499 0
M  V30 2279 C 221.167 -2.19509 0.796125 0
M  V30 2280 C 222.148 -1.68458 -0.235796 0
M  V30 2281 O 223.333 -1.93947 -0.0991344 0
M  V30 2282 C 220.463 -3.46475 0.239205 0
M  V30 2283 C 219.417 -4.10744 1.20307 0
M  V30 2284 C 218.743 -5.32293 0.50683 0
M  V30 2285 C 220.043 -4.55597 2.55399 0
M  V30 2286 H 221.737 -2.46439 1.70024 0
M  V30 2287 H 219.283 -1.18446 0.818935 0
M  V30 2288 H 221.236 -4.214 0.00392006 0
M  V30 2289 H 219.96 -3.19006 -0.700206 0
M  V30 2290 H 218.619 -3.37813 1.42399 0
M  V30 2291 H 218.267 -5.01095 -0.437408 0
M  V30 2292 H 217.967 -5.76243 1.1497 0
M  V30 2293 H 219.491 -6.09956 0.280351 0
M  V30 2294 H 220.905 -5.21841 2.37391 0
M  V30 2295 H 219.302 -5.10363 3.15673 0
M  V30 2296 H 220.372 -3.69013 3.14575 0
M  V30 2297 N 221.715 -0.905404 -1.28997 0
M  V30 2298 C 222.647 -0.344748 -2.26592 0
M  V30 2299 C 223.66 0.512135 -1.54535 0
M  V30 2300 O 224.849 0.328368 -1.75454 0
M  V30 2301 C 221.949 0.526587 -3.34784 0
M  V30 2302 C 221.122 -0.305871 -4.36329 0
M  V30 2303 C 220.181 0.499209 -5.23827 0
M  V30 2304 O 219.207 -0.0853004 -5.69136 0
M  V30 2305 N 220.409 1.80408 -5.51755 0
M  V30 2306 H 223.174 -1.18359 -2.75338 0
M  V30 2307 H 220.735 -0.770481 -1.42391 0
M  V30 2308 H 222.727 1.07171 -3.90252 0
M  V30 2309 H 221.297 1.26613 -2.85811 0
M  V30 2310 H 220.517 -1.0324 -3.80441 0
M  V30 2311 H 221.805 -0.875773 -5.01206 0
M  V30 2312 H 221.203 2.3016 -5.16762 0
M  V30 2313 H 219.76 2.29621 -6.10014 0
M  V30 2314 N 223.193 1.4272 -0.668489 0
M  V30 2315 C 224.156 2.292 0.00448567 0
M  V30 2316 C 225.156 1.43001 0.735339 0
M  V30 2317 O 226.346 1.64461 0.57429 0
M  V30 2318 C 223.478 3.25375 1.01705 0
M  V30 2319 H 224.671 2.90199 -0.756608 0
M  V30 2320 H 222.224 1.50254 -0.430506 0
M  V30 2321 H 222.959 2.69301 1.80686 0
M  V30 2322 H 222.744 3.88944 0.496463 0
M  V30 2323 H 224.234 3.90245 1.48655 0
M  V30 2324 N 224.671 0.411399 1.52136 0
M  V30 2325 C 225.618 -0.412975 2.27075 0
M  V30 2326 C 226.588 -1.03912 1.29582 0
M  V30 2327 O 227.773 -1.06296 1.58448 0
M  V30 2328 C 224.913 -1.52247 3.09701 0
M  V30 2329 C 224.026 -0.917021 4.22155 0
M  V30 2330 C 223.161 -1.9994 4.92135 0
M  V30 2331 C 222.2 -1.37101 5.96548 0
M  V30 2332 N 221.337 -2.39364 6.60038 0
M  V30 2333 H 226.177 0.232499 2.97092 0
M  V30 2334 H 223.714 0.126496 1.46555 0
M  V30 2335 H 225.672 -2.17674 3.55913 0
M  V30 2336 H 224.302 -2.13794 2.41851 0
M  V30 2337 H 223.354 -0.151742 3.80097 0
M  V30 2338 H 224.666 -0.418006 4.97045 0
M  V30 2339 H 223.82 -2.73088 5.41763 0
M  V30 2340 H 222.559 -2.53208 4.16818 0
M  V30 2341 H 221.564 -0.624873 5.46237 0
M  V30 2342 H 222.789 -0.845998 6.7381 0
M  V30 2343 H 220.735 -2.91759 5.87548 0
M  V30 2344 H 220.652 -1.9428 7.3061 0
M  V30 2345 H 221.92 -3.12074 7.14304 0
M  V30 2346 N 226.149 -1.5696 0.141893 0
M  V30 2347 C 227.395 -1.9625 -0.511248 0
M  V30 2348 C 227.728 -1.02654 -1.64851 0
M  V30 2349 O 227.003 -0.0679676 -1.94381 0
M  V30 2350 C 227.286 -3.45285 -1.02227 0
M  V30 2351 C 227.139 -4.49658 0.113138 0
M  V30 2352 C 228.458 -3.96698 -1.90574 0
M  V30 2353 H 225.577 -0.713567 -0.184367 0
M  V30 2354 H 228.219 -1.88698 0.222087 0
M  V30 2355 H 226.369 -3.51852 -1.64719 0
M  V30 2356 H 228.041 -4.55174 0.749302 0
M  V30 2357 H 226.284 -4.26857 0.773026 0
M  V30 2358 H 226.955 -5.51258 -0.286053 0
M  V30 2359 H 229.431 -3.92578 -1.37918 0
M  V30 2360 H 228.307 -5.01453 -2.2324 0
M  V30 2361 H 228.568 -3.3875 -2.84079 0
M  V30 2362 N 227.627 0.131896 -1.57047 0
M  V30 2363 C 229.038 0.690407 -1.73465 0
M  V30 2364 C 229.389 1.8094 -0.758629 0
M  V30 2365 O 228.514 2.16282 0.0713813 0
M  V30 2366 C 229.109 1.25916 -3.14532 0
M  V30 2367 C 227.668 1.76409 -3.32501 0
M  V30 2368 C 226.815 0.658579 -2.69366 0
M  V30 2369 H 229.766 -0.0939144 -1.58422 0
M  V30 2370 H 229.787 2.12892 -3.15369 0
M  V30 2371 H 229.299 0.444515 -3.85546 0
M  V30 2372 H 227.4 2.60391 -2.66509 0
M  V30 2373 H 227.513 1.88241 -4.4057 0
M  V30 2374 H 225.877 1.08899 -2.30246 0
M  V30 2375 H 226.66 -0.14487 -3.42994 0
M  V30 2376 N 229.106 1.52395 0.401703 0
M  V30 2377 C 230.352 1.67065 1.14966 0
M  V30 2378 C 230.685 0.403052 1.89971 0
M  V30 2379 O 229.96 -0.598774 1.85054 0
M  V30 2380 C 230.243 2.8975 2.13815 0
M  V30 2381 C 230.096 4.26578 1.42658 0
M  V30 2382 C 231.415 3.07965 3.14397 0
M  V30 2383 H 228.534 0.607968 0.416587 0
M  V30 2384 H 231.176 1.84965 0.434511 0
M  V30 2385 H 229.326 2.74619 2.74803 0
M  V30 2386 H 230.998 4.53451 0.847329 0
M  V30 2387 H 229.241 4.27639 0.72849 0
M  V30 2388 H 229.912 5.08483 2.14823 0
M  V30 2389 H 232.388 3.22043 2.63491 0
M  V30 2390 H 231.264 3.95308 3.80819 0
M  V30 2391 H 231.525 2.21611 3.82545 0
M  V30 2392 N 230.584 -0.659388 1.43143 0
M  V30 2393 C 231.831 -1.41935 1.44433 0
M  V30 2394 C 232.159 -1.94387 0.0663522 0
M  V30 2395 O 231.414 -1.72314 -0.927706 0
M  V30 2396 C 231.713 -2.62206 2.42864 0
M  V30 2397 C 231.379 -2.28208 3.88886 0
M  V30 2398 C 230.041 -2.18647 4.28657 0
M  V30 2399 C 232.393 -2.00887 4.8093 0
M  V30 2400 C 229.721 -1.79914 5.58433 0
M  V30 2401 C 232.073 -1.63653 6.11065 0
M  V30 2402 C 230.737 -1.52614 6.49819 0
M  V30 2403 H 230.007 -0.519376 0.528517 0
M  V30 2404 H 232.654 -0.750453 1.76183 0
M  V30 2405 H 230.959 -3.34199 2.04495 0
M  V30 2406 H 232.656 -3.2041 2.41119 0
M  V30 2407 H 229.246 -2.36557 3.57406 0
M  V30 2408 H 233.43 -2.07198 4.5098 0
M  V30 2409 H 228.686 -1.69948 5.87305 0
M  V30 2410 H 232.86 -1.41543 6.81864 0
M  V30 2411 H 230.487 -1.22371 7.50286 0
M  V30 2412 N 232.062 -1.29571 -0.897171 0
M  V30 2413 C 233.025 -1.14913 -1.98312 0
M  V30 2414 C 234.025 -0.0838629 -1.60581 0
M  V30 2415 O 235.215 -0.331006 -1.71026 0
M  V30 2416 C 232.347 -0.757835 -3.3237 0
M  V30 2417 H 233.54 -2.11377 -2.12743 0
M  V30 2418 H 231.093 -1.12793 -1.08201 0
M  V30 2419 H 231.828 0.206837 -3.2364 0
M  V30 2420 H 231.613 -1.52755 -3.61121 0
M  V30 2421 H 233.103 -0.678408 -4.12053 0
M  V30 2422 N 233.54 1.10788 -1.12088 0
M  V30 2423 C 234.788 1.8231 -0.872205 0
M  V30 2424 C 235.109 1.85419 0.603709 0
M  V30 2425 O 234.379 1.32963 1.43867 0
M  V30 2426 H 232.959 0.675137 -0.319686 0
M  V30 2427 H 235.621 1.34068 -1.41463 0
M  V30 2428 H 234.717 2.85955 -1.25045 0
M  V30 2429 N 235.018 0.912232 1.28515 0
M  V30 2430 C 236.295 0.463597 1.90027 0
M  V30 2431 C 236.675 -1.05753 1.82701 0
M  V30 2432 O 236.023 -1.90492 1.26194 0
M  V30 2433 C 236.233 0.992253 3.34597 0
M  V30 2434 C 237.581 1.04344 4.11579 0
M  V30 2435 O 238.605 0.94079 3.43551 0
M  V30 2436 O 237.464 1.1995 5.33174 0
M  V30 2437 H 234.558 0.146666 0.813891 0
M  V30 2438 H 237.104 1.00292 1.36893 0
M  V30 2439 H 235.876 2.03623 3.34146 0
M  V30 2440 H 235.499 0.433672 3.95228 0
M  V30 2441 N 236.496 -1.42363 0.676048 0
M  V30 2442 C 237.721 -2.06377 0.205705 0
M  V30 2443 C 238.146 -1.50463 -1.12883 0
M  V30 2444 O 237.504 -0.623619 -1.70237 0
M  V30 2445 C 237.552 -3.60277 0.152655 0
M  V30 2446 O 236.656 -4.02935 -0.87845 0
M  V30 2447 H 235.997 -0.655588 0.105359 0
M  V30 2448 H 238.527 -1.82475 0.925412 0
M  V30 2449 H 238.537 -4.07993 -0.0230675 0
M  V30 2450 H 237.212 -4.00346 1.12675 0
M  V30 2451 H 235.789 -3.66764 -0.673668 0
M  V30 2452 N 237.974 -0.419461 -1.51915 0
M  V30 2453 C 238.884 0.407528 -2.31033 0
M  V30 2454 C 239.9 1.04413 -1.3919 0
M  V30 2455 O 241.076 1.0434 -1.72265 0
M  V30 2456 C 238.141 1.50365 -3.12396 0
M  V30 2457 C 237.202 0.889029 -4.19994 0
M  V30 2458 C 236.435 1.93291 -4.97468 0
M  V30 2459 O 236.658 3.15259 -4.75361 0
M  V30 2460 O 235.592 1.53339 -5.8204 0
M  V30 2461 H 239.418 -0.237865 -3.02767 0
M  V30 2462 H 237.003 -0.182413 -1.48282 0
M  V30 2463 H 238.885 2.13975 -3.63032 0
M  V30 2464 H 237.56 2.13345 -2.43445 0
M  V30 2465 H 236.467 0.215353 -3.7348 0
M  V30 2466 H 237.8 0.302991 -4.91267 0
M  V30 2467 N 239.452 1.56882 -0.150215 0
M  V30 2468 C 240.729 1.87844 0.545327 0
M  V30 2469 C 241.109 1.0567 1.82749 0
M  V30 2470 O 240.457 0.144442 2.28043 0
M  V30 2471 C 240.667 3.39526 0.80767 0
M  V30 2472 C 242.015 4.08814 1.14703 0
M  V30 2473 O 243.039 3.44723 0.896917 0
M  V30 2474 O 241.898 5.22004 1.61784 0
M  V30 2475 H 238.992 0.778677 0.278553 0
M  V30 2476 H 241.538 1.68666 -0.187068 0
M  V30 2477 H 240.31 3.91173 -0.0996096 0
M  V30 2478 H 239.933 3.64243 1.59413 0
M  V30 2479 N 240.93 -0.123565 1.57115 0
M  V30 2480 C 242.207 -0.862196 1.75572 0
M  V30 2481 C 242.587 -1.98279 0.724475 0
M  V30 2482 O 241.935 -2.27102 -0.252407 0
M  V30 2483 C 242.145 -1.38309 3.20424 0
M  V30 2484 C 243.493 -1.83724 3.82793 0
M  V30 2485 O 244.517 -1.47999 3.23998 0
M  V30 2486 O 243.376 -2.49685 4.86127 0
M  V30 2487 H 240.47 -0.409113 0.718718 0
M  V30 2488 H 243.016 -0.107661 1.69358 0
M  V30 2489 H 241.788 -0.578889 3.86994 0
M  V30 2490 H 241.411 -2.20046 3.31158 0
M  V30 2491 N 242.408 -1.52605 -0.393616 0
M  V30 2492 C 243.657 -1.66649 -1.13627 0
M  V30 2493 C 243.97 -0.410364 -1.91247 0
M  V30 2494 O 245.176 -0.430854 -2.68059 0
M  V30 2495 C 243.632 -2.9449 -2.06891 0
M  V30 2496 C 243.24 -4.27266 -1.34714 0
M  V30 2497 C 244.984 -3.17899 -2.81319 0
M  V30 2498 C 242.891 -5.46217 -2.26717 0
M  V30 2499 H 241.821 -0.62084 -0.427871 0
M  V30 2500 H 244.472 -1.791 -0.399428 0
M  V30 2501 H 242.854 -2.75774 -2.84191 0
M  V30 2502 H 244.028 -4.56518 -0.626714 0
M  V30 2503 H 242.343 -4.10081 -0.722643 0
M  V30 2504 H 244.94 -4.03949 -3.50328 0
M  V30 2505 H 245.283 -2.32777 -3.45139 0
M  V30 2506 H 245.816 -3.37159 -2.11113 0
M  V30 2507 H 242.555 -6.33733 -1.67521 0
M  V30 2508 H 242.075 -5.21283 -2.96689 0
M  V30 2509 H 243.754 -5.7991 -2.86903 0
M  V30 2510 N 243.887 0.651787 -1.4349 0
M  V30 2511 C 245.115 1.43937 -1.48626 0
M  V30 2512 C 245.53 1.8851 -0.104587 0
M  V30 2513 O 244.887 1.5958 0.885464 0
M  V30 2514 C 244.938 2.6734 -2.43334 0
M  V30 2515 O 244.659 2.24631 -3.76128 0
M  V30 2516 C 246.16 3.60683 -2.57726 0
M  V30 2517 H 243.38 0.44213 -0.504739 0
M  V30 2518 H 245.924 0.798944 -1.88248 0
M  V30 2519 H 244.079 3.2752 -2.06904 0
M  V30 2520 H 244.493 3.04485 -4.2707 0
M  V30 2521 H 245.967 4.43933 -3.28067 0
M  V30 2522 H 246.444 4.08126 -1.62265 0
M  V30 2523 H 247.05 3.06384 -2.94973 0
M  V30 2524 N 245.365 1.30045 0.890287 0
M  V30 2525 C 246.328 1.15963 1.977 0
M  V30 2526 C 247.328 0.0923777 1.60534 0
M  V30 2527 O 248.518 0.340071 1.70848 0
M  V30 2528 C 245.65 0.775451 3.31963 0
M  V30 2529 H 246.843 2.12502 2.11619 0
M  V30 2530 H 244.396 1.13366 1.07601 0
M  V30 2531 H 245.131 -0.189671 3.23745 0
M  V30 2532 H 244.916 1.54668 3.60306 0
M  V30 2533 H 246.406 0.700251 4.11687 0
M  V30 2534 N 246.843 -1.10192 1.12674 0
M  V30 2535 C 248.259 -1.34235 0.863317 0
M  V30 2536 C 248.459 -1.95062 -0.505277 0
M  V30 2537 O 247.515 -2.19192 -1.25345 0
M  V30 2538 C 248.828 -2.2616 1.98172 0
M  V30 2539 C 250.376 -2.3969 2.0129 0
M  V30 2540 C 250.851 -3.34946 3.1237 0
M  V30 2541 N 252.342 -3.42515 3.11829 0
M  V30 2542 C 253.077 -4.16199 3.94419 0
M  V30 2543 N 252.573 -4.92747 4.87004 0
M  V30 2544 N 254.366 -4.11843 3.82547 0
M  V30 2545 H 246.517 -0.690798 2.00853 0
M  V30 2546 H 248.78 -0.366774 0.874174 0
M  V30 2547 H 248.486 -1.8868 2.96804 0
M  V30 2548 H 248.36 -3.26488 1.88906 0
M  V30 2549 H 250.747 -2.76438 1.03276 0
M  V30 2550 H 250.828 -1.39169 2.14629 0
M  V30 2551 H 250.472 -2.98923 4.10619 0
M  V30 2552 H 250.402 -4.35353 2.96269 0
M  V30 2553 H 252.893 -2.87926 2.44759 0
M  V30 2554 H 253.206 -5.46376 5.46528 0
M  V30 2555 H 251.551 -4.91862 4.91016 0
M  V30 2556 H 254.742 -3.51136 3.0955 0
M  V30 2557 H 254.915 -4.69007 4.47142 0
M  V30 2558 N 248.321 -0.919034 -1.28029 0
M  V30 2559 C 249.567 -0.555757 -1.95036 0
M  V30 2560 C 249.9 0.899198 -1.72128 0
M  V30 2561 O 249.175 1.64023 -1.04531 0
M  V30 2562 C 249.458 -0.872024 -3.49382 0
M  V30 2563 C 249.311 -2.3801 -3.81669 0
M  V30 2564 C 250.63 -0.37185 -4.38526 0
M  V30 2565 H 247.749 -0.203386 -0.708381 0
M  V30 2566 H 250.391 -1.14924 -1.51303 0
M  V30 2567 H 248.541 -0.366946 -3.86763 0
M  V30 2568 H 250.213 -2.9562 -3.54128 0
M  V30 2569 H 248.456 -2.83289 -3.28526 0
M  V30 2570 H 249.127 -2.55192 -4.8947 0
M  V30 2571 H 251.603 -0.804602 -4.08247 0
M  V30 2572 H 250.479 -0.622173 -5.45362 0
M  V30 2573 H 250.74 0.727934 -4.36066 0
M  V30 2574 N 249.799 1.42003 -0.683588 0
M  V30 2575 C 250.731 2.29183 0.0283068 0
M  V30 2576 C 251.744 1.4415 0.756611 0
M  V30 2577 O 252.933 1.67779 0.609306 0
M  V30 2578 C 250.033 3.21765 1.06398 0
M  V30 2579 C 249.206 4.35496 0.407723 0
M  V30 2580 C 248.265 5.08737 1.34437 0
M  V30 2581 O 247.291 5.62948 0.841318 0
M  V30 2582 N 248.493 5.15075 2.67728 0
M  V30 2583 H 251.258 2.9092 -0.720105 0
M  V30 2584 H 248.819 1.53025 -0.528682 0
M  V30 2585 H 250.811 3.6763 1.69204 0
M  V30 2586 H 249.381 2.61418 1.71404 0
M  V30 2587 H 248.601 3.92165 -0.400012 0
M  V30 2588 H 249.889 5.08776 -0.0490956 0
M  V30 2589 H 249.287 4.72457 3.11129 0
M  V30 2590 H 247.844 5.64556 3.2576 0
M  V30 2591 N 251.277 0.427512 1.51691 0
M  V30 2592 C 252.505 -0.141191 2.06418 0
M  V30 2593 C 252.92 -1.37303 1.29589 0
M  V30 2594 O 252.277 -1.79059 0.352732 0
M  V30 2595 C 252.328 -0.473266 3.58389 0
M  V30 2596 O 252.049 0.709673 4.32314 0
M  V30 2597 C 253.55 -1.09371 4.29596 0
M  V30 2598 H 250.77 -0.0122747 0.670888 0
M  V30 2599 H 253.314 0.603764 1.95384 0
M  V30 2600 H 251.469 -1.16812 3.69369 0
M  V30 2601 H 251.883 0.42807 5.2275 0
M  V30 2602 H 253.357 -1.27613 5.37046 0
M  V30 2603 H 253.834 -2.072 3.87253 0
M  V30 2604 H 254.44 -0.43853 4.23033 0
M  V30 2605 N 252.755 -1.56801 0.158532 0
M  V30 2606 C 253.687 -2.14488 -0.807923 0
M  V30 2607 C 254.7 -1.09721 -1.20271 0
M  V30 2608 O 255.889 -1.36956 -1.14478 0
M  V30 2609 C 252.989 -2.66217 -2.09718 0
M  V30 2610 C 252.162 -3.95507 -1.86796 0
M  V30 2611 C 251.221 -4.3243 -2.99818 0
M  V30 2612 O 250.247 -5.00543 -2.71008 0
M  V30 2613 N 251.449 -3.92947 -4.27285 0
M  V30 2614 H 254.214 -2.98042 -0.314816 0
M  V30 2615 H 251.775 -1.61881 -0.0246692 0
M  V30 2616 H 253.767 -2.87924 -2.84398 0
M  V30 2617 H 252.337 -1.87324 -2.50257 0
M  V30 2618 H 251.557 -3.82309 -0.96089 0
M  V30 2619 H 252.845 -4.79972 -1.68833 0
M  V30 2620 H 252.243 -3.38087 -4.53557 0
M  V30 2621 H 250.8 -4.19681 -4.9871 0
M  V30 2622 N 254.233 0.115231 -1.57178 0
M  V30 2623 C 255.143 1.15994 -2.03918 0
M  V30 2624 C 256.159 1.45103 -0.960268 0
M  V30 2625 O 257.335 1.56144 -1.27204 0
M  V30 2626 C 254.4 2.46568 -2.43732 0
M  V30 2627 C 253.461 2.24822 -3.65723 0
M  V30 2628 C 252.694 3.4917 -4.03629 0
M  V30 2629 O 252.917 4.56623 -3.41835 0
M  V30 2630 O 251.851 3.39949 -4.96708 0
M  V30 2631 H 255.677 0.793019 -2.93164 0
M  V30 2632 H 253.262 0.3263 -1.45793 0
M  V30 2633 H 255.144 3.23492 -2.70057 0
M  V30 2634 H 253.819 2.82726 -1.57631 0
M  V30 2635 H 252.726 1.45744 -3.44542 0
M  V30 2636 H 254.059 1.93566 -4.52541 0
M  V30 2637 N 255.711 1.52812 0.385517 0
M  V30 2638 C 256.661 1.74219 1.47078 0
M  V30 2639 C 257.645 0.59632 1.49442 0
M  V30 2640 O 258.837 0.85428 1.5502 0
M  V30 2641 C 255.966 1.9176 2.84751 0
M  V30 2642 C 255.052 3.12289 2.86943 0
M  V30 2643 N 255.443 4.34575 2.58802 0
M  V30 2644 C 253.741 3.12605 3.1811 0
M  V30 2645 C 254.442 5.162 2.68166 0
M  V30 2646 N 253.418 4.51964 3.02043 0
M  V30 2647 H 257.22 2.6639 1.24152 0
M  V30 2648 H 254.734 1.51166 0.593504 0
M  V30 2649 H 256.731 2.05218 3.62893 0
M  V30 2650 H 255.391 1.00805 3.08656 0
M  V30 2651 H 256.402 4.62649 2.32759 0
M  V30 2652 H 253.079 2.31472 3.47458 0
M  V30 2653 H 254.469 6.23689 2.49923 0
M  V30 2654 N 257.189 -0.644168 1.43834 0
M  V30 2655 C 258.152 -1.73857 1.49353 0
M  V30 2656 C 259.152 -1.56315 0.377112 0
M  V30 2657 O 260.342 -1.62048 0.639226 0
M  V30 2658 C 257.474 -3.12819 1.35488 0
M  V30 2659 H 258.667 -1.70342 2.46827 0
M  V30 2660 H 256.22 -0.856652 1.30733 0
M  V30 2661 H 256.955 -3.2194 0.390569 0
M  V30 2662 H 256.74 -3.26958 2.16428 0
M  V30 2663 H 258.23 -3.92606 1.42302 0
M  V30 2664 N 258.668 -1.30515 -0.883378 0
M  V30 2665 C 259.917 -1.18795 -1.63005 0
M  V30 2666 C 260.23 0.255923 -1.93919 0
M  V30 2667 O 261.436 0.494654 -2.66956 0
M  V30 2668 C 259.892 -2.07878 -2.93794 0
M  V30 2669 C 259.5 -3.57184 -2.70414 0
M  V30 2670 C 261.244 -2.04924 -3.71761 0
M  V30 2671 C 259.151 -4.38317 -3.97029 0
M  V30 2672 H 258.081 -0.441031 -0.611562 0
M  V30 2673 H 260.732 -1.55275 -0.977854 0
M  V30 2674 H 259.114 -1.64283 -3.60315 0
M  V30 2675 H 260.288 -4.08937 -2.12384 0
M  V30 2676 H 258.603 -3.61976 -2.0582 0
M  V30 2677 H 261.2 -2.62792 -4.65665 0
M  V30 2678 H 261.543 -1.0331 -4.03277 0
M  V30 2679 H 262.076 -2.46649 -3.12104 0
M  V30 2680 H 258.815 -5.40632 -3.70671 0
M  V30 2681 H 258.335 -3.91326 -4.54559 0
M  V30 2682 H 260.014 -4.49834 -4.65036 0
M  V30 2683 N 260.146 1.09593 -1.13257 0
M  V30 2684 C 261.376 1.85231 -0.915049 0
M  V30 2685 C 261.784 1.81345 0.539498 0
M  V30 2686 O 261.127 1.20664 1.38513 0
M  V30 2687 C 261.189 3.34275 -1.3229 0
M  V30 2688 C 260.853 3.6191 -2.79052 0
M  V30 2689 C 261.85 3.57777 -3.77216 0
M  V30 2690 C 259.535 3.90309 -3.16171 0
M  V30 2691 C 261.529 3.81652 -5.1051 0
M  V30 2692 C 259.216 4.13839 -4.49644 0
M  V30 2693 C 260.214 4.09502 -5.46623 0
M  V30 2694 O 259.902 4.32426 -6.77689 0
M  V30 2695 H 259.634 0.591997 -0.326367 0
M  V30 2696 H 262.188 1.394 -1.50854 0
M  V30 2697 H 260.418 3.80805 -0.672667 0
M  V30 2698 H 262.107 3.9132 -1.07812 0
M  V30 2699 H 262.873 3.35865 -3.49885 0
M  V30 2700 H 258.752 3.92811 -2.41289 0
M  V30 2701 H 262.296 3.78182 -5.86195 0
M  V30 2702 H 258.193 4.35232 -4.767 0
M  V30 2703 H 258.961 4.49896 -6.83766 0
M  V30 2704 N 261.624 0.925811 1.2754 0
M  V30 2705 C 263.035 0.610102 1.7645 0
M  V30 2706 C 263.386 -0.874723 1.75622 0
M  V30 2707 O 262.511 -1.68444 1.35851 0
M  V30 2708 C 263.106 1.10073 3.20421 0
M  V30 2709 C 261.665 0.835723 3.67005 0
M  V30 2710 C 260.812 1.26054 2.46993 0
M  V30 2711 H 263.763 1.10579 1.13833 0
M  V30 2712 H 263.784 0.447557 3.77859 0
M  V30 2713 H 263.296 2.18143 3.20991 0
M  V30 2714 H 261.397 -0.231249 3.71882 0
M  V30 2715 H 261.51 1.45193 4.56569 0
M  V30 2716 H 259.874 0.679111 2.45479 0
M  V30 2717 H 260.657 2.34984 2.50275 0
M  V30 2718 N 263.102 -1.41638 0.69111 0
M  V30 2719 C 264.032 -2.3347 0.037248 0
M  V30 2720 C 265.013 -1.51575 -0.771947 0
M  V30 2721 O 266.198 -1.80126 -0.72582 0
M  V30 2722 C 263.328 -3.35354 -0.903064 0
M  V30 2723 C 262.282 -4.27526 -0.201288 0
M  V30 2724 C 261.608 -5.19747 -1.25565 0
M  V30 2725 C 262.908 -5.13959 0.929689 0
M  V30 2726 H 264.602 -2.88397 0.804227 0
M  V30 2727 H 262.148 -1.38669 0.388189 0
M  V30 2728 H 264.101 -3.98519 -1.36969 0
M  V30 2729 H 262.825 -2.78767 -1.70166 0
M  V30 2730 H 261.484 -3.65779 0.245265 0
M  V30 2731 H 261.132 -4.59479 -2.04666 0
M  V30 2732 H 260.832 -5.8225 -0.791128 0
M  V30 2733 H 262.356 -5.85789 -1.72288 0
M  V30 2734 H 263.77 -5.70718 0.543546 0
M  V30 2735 H 262.167 -5.85379 1.32103 0
M  V30 2736 H 263.237 -4.51389 1.77133 0
M  V30 2737 N 264.58 -0.43555 -1.51462 0
M  V30 2738 C 265.826 0.131709 -2.02372 0
M  V30 2739 C 266.159 1.42516 -1.3192 0
M  V30 2740 O 265.434 1.89606 -0.433573 0
M  V30 2741 C 265.717 0.352301 -3.58373 0
M  V30 2742 C 265.57 -0.959676 -4.39443 0
M  V30 2743 C 266.889 1.12286 -4.25535 0
M  V30 2744 H 264.008 0.0463936 -0.735538 0
M  V30 2745 H 266.65 -0.574197 -1.81116 0
M  V30 2746 H 264.8 0.9536 -3.76615 0
M  V30 2747 H 266.472 -1.59482 -4.32855 0
M  V30 2748 H 264.715 -1.56468 -4.04599 0
M  V30 2749 H 265.386 -0.759394 -5.46752 0
M  V30 2750 H 267.862 0.613545 -4.11552 0
M  V30 2751 H 266.738 1.24598 -5.34571 0
M  V30 2752 H 266.999 2.15048 -3.86273 0
M  V30 2753 N 266.058 1.56714 -0.166846 0
M  V30 2754 C 267.307 1.95922 0.479318 0
M  V30 2755 C 267.62 1.05529 1.6469 0
M  V30 2756 O 268.826 1.34399 2.35901 0
M  V30 2757 C 267.282 3.48359 0.90412 0
M  V30 2758 C 266.89 4.47369 -0.237621 0
M  V30 2759 C 268.634 3.96394 1.51896 0
M  V30 2760 C 266.541 5.91039 0.206561 0
M  V30 2761 H 265.471 0.731495 0.18284 0
M  V30 2762 H 268.122 1.81728 -0.254363 0
M  V30 2763 H 266.504 3.57955 1.69365 0
M  V30 2764 H 267.678 4.49485 -1.01489 0
M  V30 2765 H 265.993 4.09366 -0.762128 0
M  V30 2766 H 268.59 5.01186 1.86325 0
M  V30 2767 H 268.933 3.39075 2.41524 0
M  V30 2768 H 269.466 3.89796 0.79395 0
M  V30 2769 H 266.205 6.52221 -0.654834 0
M  V30 2770 H 265.725 5.9224 0.949282 0
M  V30 2771 H 267.404 6.43707 0.651939 0
M  V30 2772 N 267.536 -0.106894 1.57237 0
M  V30 2773 C 268.761 -0.830287 1.90055 0
M  V30 2774 C 269.186 -1.72064 0.75998 0
M  V30 2775 O 268.544 -1.78982 -0.288991 0
M  V30 2776 C 268.592 -1.6295 3.21683 0
M  V30 2777 O 267.696 -2.73748 3.08441 0
M  V30 2778 H 267.037 -0.228855 0.623315 0
M  V30 2779 H 269.567 -0.085658 2.04421 0
M  V30 2780 H 269.577 -2.01621 3.54701 0
M  V30 2781 H 268.252 -0.975989 4.04286 0
M  V30 2782 H 266.829 -2.38192 2.86913 0
M  V30 2783 N 269.014 -1.53014 -0.377408 0
M  V30 2784 C 270.26 -1.69821 -1.11948 0
M  V30 2785 C 270.615 -0.438581 -1.87335 0
M  V30 2786 O 269.908 0.568094 -1.82984 0
M  V30 2787 C 270.102 -2.87982 -2.11663 0
M  V30 2788 C 269.931 -4.25315 -1.46072 0
M  V30 2789 C 268.701 -4.90354 -1.21986 0
M  V30 2790 C 270.899 -5.06281 -0.904664 0
M  V30 2791 N 268.881 -6.11641 -0.526215 0
M  V30 2792 C 270.252 -6.19069 -0.339726 0
M  V30 2793 C 272.307 -4.91395 -0.8022 0
M  V30 2794 C 271.01 -7.18598 0.317669 0
M  V30 2795 C 273.036 -5.91187 -0.158606 0
M  V30 2796 C 272.398 -7.03289 0.39551 0
M  V30 2797 H 268.497 -0.674785 -0.395207 0
M  V30 2798 H 271.081 -1.90389 -0.407437 0
M  V30 2799 H 269.252 -2.68974 -2.80192 0
M  V30 2800 H 270.984 -2.93669 -2.78461 0
M  V30 2801 H 267.739 -4.49286 -1.49798 0
M  V30 2802 H 268.163 -6.76719 -0.195098 0
M  V30 2803 H 272.805 -4.04925 -1.21639 0
M  V30 2804 H 270.523 -8.04669 0.743836 0
M  V30 2805 H 274.109 -5.81744 -0.0804138 0
M  V30 2806 H 272.989 -7.79183 0.885648 0
M  V30 2807 N 270.492 0.636531 -1.44174 0
M  V30 2808 C 271.739 1.39619 -1.46672 0
M  V30 2809 C 272.067 1.94257 -0.0972691 0
M  V30 2810 O 271.322 1.73768 0.900175 0
M  V30 2811 C 271.621 2.58309 -2.47005 0
M  V30 2812 C 271.287 2.21992 -3.92467 0
M  V30 2813 C 269.949 2.118 -4.32081 0
M  V30 2814 C 272.301 1.9321 -4.84065 0
M  V30 2815 C 269.629 1.71007 -5.61225 0
M  V30 2816 C 271.981 1.53911 -6.13591 0
M  V30 2817 C 270.645 1.42257 -6.52165 0
M  V30 2818 H 269.915 0.510902 -0.536712 0
M  V30 2819 H 272.562 0.722328 -1.77355 0
M  V30 2820 H 270.867 3.30903 -2.09786 0
M  V30 2821 H 272.564 3.16533 -2.46186 0
M  V30 2822 H 269.154 2.30841 -3.61124 0
M  V30 2823 H 273.338 1.99997 -4.54219 0
M  V30 2824 H 268.594 1.60583 -5.89935 0
M  V30 2825 H 272.768 1.30677 -6.8403 0
M  V30 2826 H 270.395 1.10419 -7.52138 0
M  V30 2827 N 271.97 1.30982 0.876444 0
M  V30 2828 C 272.933 1.18054 1.96459 0
M  V30 2829 C 273.933 0.109399 1.60427 0
M  V30 2830 O 275.123 0.358173 1.70478 0
M  V30 2831 C 272.255 0.810616 3.31122 0
M  V30 2832 H 273.448 2.14735 2.09354 0
M  V30 2833 H 271.001 1.145 1.06392 0
M  V30 2834 H 271.736 -0.155322 3.23928 0
M  V30 2835 H 271.521 1.58481 3.58645 0
M  V30 2836 H 273.011 0.743876 4.10921 0
M  V30 2837 N 273.449 -1.08991 1.13837 0
M  V30 2838 C 274.726 -1.77863 0.813876 0
M  V30 2839 C 275.106 -1.99375 -0.693746 0
M  V30 2840 O 274.454 -1.59875 -1.63255 0
M  V30 2841 C 274.664 -3.0986 1.60586 0
M  V30 2842 C 276.012 -3.84493 1.8014 0
M  V30 2843 O 277.036 -3.19624 1.57222 0
M  V30 2844 O 275.895 -5.00957 2.18413 0
M  V30 2845 H 272.989 -0.771589 0.297624 0
M  V30 2846 H 275.535 -1.15507 1.24323 0
M  V30 2847 H 274.307 -2.89715 2.63022 0
M  V30 2848 H 273.93 -3.79942 1.17173 0
M  V30 2849 N 274.927 -0.932562 -1.27047 0
M  V30 2850 C 276.175 -0.574422 -1.93765 0
M  V30 2851 C 276.496 0.887993 -1.73608 0
M  V30 2852 O 275.766 1.62999 -1.08665 0
M  V30 2853 H 274.346 -0.209451 -0.717035 0
M  V30 2854 H 277.008 -1.18601 -1.5466 0
M  V30 2855 H 276.104 -0.784841 -3.02071 0
M  V30 2856 N 276.405 1.4127 -0.698611 0
M  V30 2857 C 277.821 1.55241 -0.370462 0
M  V30 2858 C 278.021 1.67351 1.12231 0
M  V30 2859 O 277.077 1.65363 1.90818 0
M  V30 2860 C 278.39 2.78997 -1.12165 0
M  V30 2861 C 279.938 2.92797 -1.1063 0
M  V30 2862 C 280.413 4.19445 -1.8393 0
M  V30 2863 N 281.904 4.26409 -1.80914 0
M  V30 2864 C 282.639 5.23271 -2.34467 0
M  V30 2865 N 282.135 6.26145 -2.96504 0
M  V30 2866 N 283.928 5.15232 -2.24706 0
M  V30 2867 H 276.079 1.31654 -1.66676 0
M  V30 2868 H 278.342 0.635393 -0.703548 0
M  V30 2869 H 278.048 2.76268 -2.17644 0
M  V30 2870 H 277.922 3.70606 -0.702209 0
M  V30 2871 H 280.309 2.95039 -0.0597713 0
M  V30 2872 H 280.39 2.02353 -1.56483 0
M  V30 2873 H 280.034 4.17964 -2.88563 0
M  V30 2874 H 279.964 5.08866 -1.35509 0
M  V30 2875 H 282.455 3.527 -1.35687 0
M  V30 2876 H 282.768 6.96451 -3.34927 0
M  V30 2877 H 281.113 6.26638 -3.00583 0
M  V30 2878 H 284.304 4.33789 -1.7591 0
M  V30 2879 H 284.477 5.90552 -2.66745 0
M  V30 2880 N 277.883 0.443576 1.51229 0
M  V30 2881 C 278.813 -0.355142 2.30783 0
M  V30 2882 C 279.794 -1.0154 1.36468 0
M  V30 2883 O 280.979 -1.01785 1.65389 0
M  V30 2884 C 278.109 -1.45312 3.15439 0
M  V30 2885 C 277.063 -0.916002 4.18083 0
M  V30 2886 C 276.389 -2.1102 4.91299 0
M  V30 2887 C 277.689 0.0538602 5.22272 0
M  V30 2888 H 279.383 0.308767 2.97804 0
M  V30 2889 H 276.929 0.149937 1.43217 0
M  V30 2890 H 278.882 -2.01914 3.69876 0
M  V30 2891 H 277.606 -2.14541 2.46252 0
M  V30 2892 H 276.265 -0.372145 3.64706 0
M  V30 2893 H 275.913 -2.78882 4.18609 0
M  V30 2894 H 275.613 -1.75717 5.60712 0
M  V30 2895 H 277.137 -2.68164 5.48562 0
M  V30 2896 H 278.551 -0.422069 5.71744 0
M  V30 2897 H 276.948 0.319776 5.99247 0
M  V30 2898 H 278.018 0.98858 4.74716 0
M  V30 2899 N 279.361 -1.56624 0.175154 0
M  V30 2900 C 280.308 -2.18149 -0.753634 0
M  V30 2901 C 281.278 -1.12265 -1.22417 0
M  V30 2902 O 282.463 -1.40432 -1.29165 0
M  V30 2903 C 279.603 -2.82933 -1.97592 0
M  V30 2904 C 278.716 -4.03289 -1.5486 0
M  V30 2905 C 277.851 -4.55988 -2.72485 0
M  V30 2906 C 276.89 -5.68746 -2.26262 0
M  V30 2907 N 276.027 -6.15938 -3.36994 0
M  V30 2908 H 280.867 -2.9717 -0.222195 0
M  V30 2909 H 278.404 -1.46774 -0.0979422 0
M  V30 2910 H 280.362 -3.18653 -2.69288 0
M  V30 2911 H 278.992 -2.06509 -2.481 0
M  V30 2912 H 278.044 -3.73364 -0.728246 0
M  V30 2913 H 279.356 -4.849 -1.16933 0
M  V30 2914 H 278.51 -4.9391 -3.52332 0
M  V30 2915 H 277.249 -3.73443 -3.13674 0
M  V30 2916 H 276.254 -5.30372 -1.44863 0
M  V30 2917 H 277.479 -6.53095 -1.86127 0
M  V30 2918 H 275.425 -5.36321 -3.77751 0
M  V30 2919 H 275.342 -6.92548 -3.03172 0
M  V30 2920 H 276.61 -6.58511 -4.17114 0
M  V30 2921 N 280.839 0.0985539 -1.57292 0
M  V30 2922 C 281.772 1.15082 -1.97057 0
M  V30 2923 C 282.75 1.39025 -0.843255 0
M  V30 2924 O 283.934 1.52842 -1.10325 0
M  V30 2925 C 281.061 2.50069 -2.28437 0
M  V30 2926 C 280.107 2.42428 -3.509 0
M  V30 2927 S 280.94 1.84414 -5.02744 0
M  V30 2928 C 282.096 3.21032 -5.37298 0
M  V30 2929 H 282.329 0.811815 -2.86002 0
M  V30 2930 H 279.862 0.306102 -1.51335 0
M  V30 2931 H 281.82 3.27729 -2.47192 0
M  V30 2932 H 280.481 2.8114 -1.40069 0
M  V30 2933 H 279.674 3.41911 -3.70288 0
M  V30 2934 H 279.276 1.72896 -3.31637 0
M  V30 2935 H 281.568 4.17297 -5.33731 0
M  V30 2936 H 282.511 3.06452 -6.38352 0
M  V30 2937 H 282.919 3.20404 -4.64759 0
M  V30 2938 N 282.317 1.53212 0.369288 0
M  V30 2939 C 283.267 1.75769 1.45222 0
M  V30 2940 C 284.251 0.612136 1.48801 0
M  V30 2941 O 285.443 0.870674 1.54105 0
M  V30 2942 C 282.572 1.94769 2.82701 0
M  V30 2943 C 281.658 3.15315 2.83615 0
M  V30 2944 N 282.049 4.37295 2.54178 0
M  V30 2945 C 280.347 3.15962 3.14776 0
M  V30 2946 C 281.048 5.19015 2.62675 0
M  V30 2947 N 280.024 4.55142 2.97232 0
M  V30 2948 H 283.826 2.67691 1.2132 0
M  V30 2949 H 281.34 1.51787 0.577438 0
M  V30 2950 H 283.337 2.09056 3.60696 0
M  V30 2951 H 281.997 1.04073 3.07569 0
M  V30 2952 H 283.008 4.65091 2.27839 0
M  V30 2953 H 279.685 2.35144 3.44983 0
M  V30 2954 H 281.075 6.26305 2.43294 0
M  V30 2955 N 283.795 -0.628877 1.44509 0
M  V30 2956 C 284.705 -1.7694 1.54044 0
M  V30 2957 C 285.721 -1.68705 0.425987 0
M  V30 2958 O 286.897 -1.89442 0.683656 0
M  V30 2959 C 283.962 -3.13332 1.48405 0
M  V30 2960 C 283.023 -3.33181 2.70719 0
M  V30 2961 C 282.256 -4.63067 2.6534 0
M  V30 2962 O 282.479 -5.44017 1.71469 0
M  V30 2963 O 281.413 -4.85167 3.56226 0
M  V30 2964 H 285.239 -1.71848 2.50403 0
M  V30 2965 H 282.824 -0.790378 1.26781 0
M  V30 2966 H 284.706 -3.94634 1.47791 0
M  V30 2967 H 283.381 -3.1896 0.551898 0
M  V30 2968 H 282.288 -2.51549 2.769 0
M  V30 2969 H 283.621 -3.32416 3.62988 0
M  V30 2970 N 285.273 -1.31445 -0.869486 0
M  V30 2971 C 286.221 -1.19067 -1.99814 0
M  V30 2972 C 287.215 -0.0988569 -1.69111 0
M  V30 2973 O 288.421 -0.260781 -1.78101 0
M  V30 2974 H 284.796 -0.368677 -0.655425 0
M  V30 2975 H 286.767 -2.14555 -2.07385 0
M  V30 2976 C 285.516 -0.915323 -3.35436 0
M  V30 2977 H 284.839 -1.74759 -3.59582 0
M  V30 2978 H 286.279 -0.868895 -4.15001 0
M  V30 2979 C 284.738 0.381928 -3.34728 0
M  V30 2980 O 285.268 1.39857 -3.76567 0
M  V30 2981 N 283.474 0.398633 -2.87853 0
M  V30 2982 H 283.021 -0.429186 -2.54 0
M  V30 2983 H 282.979 1.26651 -2.87762 0
M  V30 2984 N 286.751 1.08385 -1.14413 0
M  V30 2985 C 287.714 2.13486 -0.834048 0
M  V30 2986 C 288.714 1.59988 0.161418 0
M  V30 2987 O 289.904 1.74071 -0.0669575 0
M  V30 2988 C 287.036 3.4003 -0.243354 0
M  V30 2989 H 288.229 2.42425 -1.7655 0
M  V30 2990 H 285.782 1.24101 -0.950189 0
M  V30 2991 H 286.517 3.16726 0.696807 0
M  V30 2992 H 286.302 3.80157 -0.960367 0
M  V30 2993 H 287.792 4.17577 -0.0436242 0
M  V30 2994 N 288.23 0.939286 1.26551 0
M  V30 2995 C 289.193 0.451987 2.24699 0
M  V30 2996 C 290.193 -0.435869 1.5478 0
M  V30 2997 O 291.383 -0.235314 1.72603 0
M  V30 2998 C 288.515 -0.348801 3.39111 0
M  V30 2999 H 289.708 1.3193 2.69322 0
M  V30 3000 H 287.261 0.721072 1.38673 0
M  V30 3001 H 287.996 -1.23444 2.99887 0
M  V30 3002 H 287.781 0.287945 3.91041 0
M  V30 3003 H 289.271 -0.679726 4.12031 0
M  V30 3004 N 289.708 -1.40897 0.706093 0
M  V30 3005 C 290.954 -2.01849 0.250681 0
M  V30 3006 C 291.309 -1.5496 -1.14041 0
M  V30 3007 O 290.602 -0.755566 -1.76073 0
M  V30 3008 C 290.796 -3.5646 0.259099 0
M  V30 3009 C 290.625 -4.18357 1.64947 0
M  V30 3010 C 289.395 -4.522 2.25485 0
M  V30 3011 C 291.593 -4.43856 2.598 0
M  V30 3012 N 289.575 -4.9944 3.56977 0
M  V30 3013 C 290.946 -4.92986 3.75985 0
M  V30 3014 C 293.001 -4.25882 2.57933 0
M  V30 3015 C 291.704 -5.2603 4.90597 0
M  V30 3016 C 293.73 -4.6002 3.71665 0
M  V30 3017 C 293.092 -5.09331 4.86581 0
M  V30 3018 H 289.191 -0.769843 0.137353 0
M  V30 3019 H 291.775 -1.71278 0.925845 0
M  V30 3020 H 289.946 -3.86481 -0.385592 0
M  V30 3021 H 291.678 -4.04144 -0.21213 0
M  V30 3022 H 288.433 -4.3901 1.77671 0
M  V30 3023 H 288.857 -5.27454 4.24407 0
M  V30 3024 H 293.499 -3.86986 1.70298 0
M  V30 3025 H 291.217 -5.63843 5.78884 0
M  V30 3026 H 294.803 -4.47762 3.71484 0
M  V30 3027 H 293.683 -5.35251 5.73129 0
M  V30 3028 N 291.186 -0.45159 -1.50991 0
M  V30 3029 C 292.116 0.342898 -2.30969 0
M  V30 3030 C 293.097 1.00815 -1.37005 0
M  V30 3031 O 294.282 1.00907 -1.65926 0
M  V30 3032 C 291.412 1.43637 -3.16205 0
M  V30 3033 C 290.366 0.893818 -4.18563 0
M  V30 3034 C 289.692 2.08411 -4.92411 0
M  V30 3035 C 290.992 -0.0815568 -5.22236 0
M  V30 3036 H 292.686 -0.324556 -2.97636 0
M  V30 3037 H 290.232 -0.157531 -1.43136 0
M  V30 3038 H 292.185 1.9995 -3.70942 0
M  V30 3039 H 290.909 2.13232 -2.47386 0
M  V30 3040 H 289.568 0.352798 -3.64898 0
M  V30 3041 H 289.216 2.76658 -4.20082 0
M  V30 3042 H 288.916 1.72741 -5.61636 0
M  V30 3043 H 290.44 2.65251 -5.49976 0
M  V30 3044 H 291.854 0.391742 -5.7196 0
M  V30 3045 H 290.251 -0.351551 -5.99069 0
M  V30 3046 H 291.321 -1.01374 -4.74185 0
M  V30 3047 N 292.664 1.56529 -0.183458 0
M  V30 3048 C 293.941 1.88959 0.50536 0
M  V30 3049 C 294.321 1.09523 1.80466 0
M  V30 3050 O 293.669 0.19278 2.27685 0
M  V30 3051 C 293.879 3.41162 0.73547 0
M  V30 3052 C 295.227 4.11155 1.06005 0
M  V30 3053 O 296.251 3.46548 0.823594 0
M  V30 3054 O 295.11 5.25318 1.50675 0
M  V30 3055 H 292.204 0.78441 0.261973 0
M  V30 3056 H 294.75 1.68231 -0.222802 0
M  V30 3057 H 293.522 3.90874 -0.182561 0
M  V30 3058 H 293.145 3.67543 1.51651 0
M  V30 3059 N 294.142 -0.090211 1.57342 0
M  V30 3060 C 295.39 -0.791241 1.85967 0
M  V30 3061 C 295.711 -1.7903 0.772859 0
M  V30 3062 O 294.981 -1.94872 -0.200398 0
M  V30 3063 H 293.561 -0.295205 0.686195 0
M  V30 3064 H 296.223 -0.0706782 1.94772 0
M  V30 3065 H 295.319 -1.31882 2.82867 0
M  V30 3066 N 295.62 -1.53406 -0.361157 0
M  V30 3067 C 296.552 -1.76446 -1.46286 0
M  V30 3068 C 297.565 -0.645322 -1.49464 0
M  V30 3069 O 298.754 -0.921681 -1.52864 0
M  V30 3070 C 295.854 -1.83332 -2.85031 0
M  V30 3071 C 295.027 -3.13033 -3.05498 0
M  V30 3072 C 294.086 -3.11104 -4.24383 0
M  V30 3073 O 293.112 -3.84888 -4.19344 0
M  V30 3074 N 294.314 -2.32234 -5.32022 0
M  V30 3075 H 297.079 -2.71508 -1.26899 0
M  V30 3076 H 294.64 -1.52238 -0.550915 0
M  V30 3077 H 296.632 -1.79514 -3.62708 0
M  V30 3078 H 295.202 -0.955342 -2.97644 0
M  V30 3079 H 294.422 -3.30119 -2.15442 0
M  V30 3080 H 295.71 -3.9874 -3.16044 0
M  V30 3081 H 295.108 -1.71807 -5.38979 0
M  V30 3082 H 293.665 -2.3423 -6.08259 0
M  V30 3083 N 297.098 0.621204 -1.44841 0
M  V30 3084 C 298.514 0.94048 -1.28946 0
M  V30 3085 C 298.714 2.00154 -0.23249 0
M  V30 3086 O 297.77 2.49651 0.378237 0
M  V30 3087 C 299.083 1.39433 -2.66419 0
M  V30 3088 C 300.631 1.50927 -2.74208 0
M  V30 3089 C 301.106 1.99692 -4.12174 0
M  V30 3090 N 302.597 2.06947 -4.144 0
M  V30 3091 C 303.332 2.45871 -5.1801 0
M  V30 3092 N 302.828 2.83862 -6.31977 0
M  V30 3093 N 304.621 2.46092 -5.05366 0
M  V30 3094 H 296.772 -0.0803548 -2.12248 0
M  V30 3095 H 299.035 0.0266913 -0.947624 0
M  V30 3096 H 298.741 0.688925 -3.44887 0
M  V30 3097 H 298.615 2.36347 -2.93973 0
M  V30 3098 H 301.002 2.20561 -1.96053 0
M  V30 3099 H 301.083 0.523627 -2.50383 0
M  V30 3100 H 300.727 1.30649 -4.90809 0
M  V30 3101 H 300.657 2.99146 -4.33381 0
M  V30 3102 H 303.148 1.80232 -3.32152 0
M  V30 3103 H 303.461 3.12405 -7.0684 0
M  V30 3104 H 301.806 2.8159 -6.35399 0
M  V30 3105 H 304.997 2.1581 -4.15384 0
M  V30 3106 H 305.17 2.76102 -5.86235 0
M  V30 3107 N 298.576 1.31904 0.862503 0
M  V30 3108 C 299.506 1.22782 1.98612 0
M  V30 3109 C 300.487 0.113362 1.69722 0
M  V30 3110 O 301.672 0.299218 1.91881 0
M  V30 3111 C 298.802 0.942058 3.34279 0
M  V30 3112 C 297.756 2.0169 3.77499 0
M  V30 3113 C 297.082 1.58369 5.10709 0
M  V30 3114 C 298.382 3.43096 3.93805 0
M  V30 3115 H 300.076 2.16788 2.06502 0
M  V30 3116 H 297.622 1.04366 0.992154 0
M  V30 3117 H 299.575 0.864818 4.1243 0
M  V30 3118 H 298.299 -0.0336603 3.26583 0
M  V30 3119 H 296.958 2.08416 3.01593 0
M  V30 3120 H 296.606 0.595628 4.99461 0
M  V30 3121 H 296.306 2.30279 5.40597 0
M  V30 3122 H 297.83 1.52067 5.91361 0
M  V30 3123 H 299.244 3.39003 4.62331 0
M  V30 3124 H 297.641 4.13288 4.35101 0
M  V30 3125 H 298.711 3.83334 2.96957 0
M  V30 3126 N 300.054 -1.07777 1.14986 0
M  V30 3127 C 301.465 -1.61766 0.932127 0
M  V30 3128 C 301.816 -1.88974 -0.527581 0
M  V30 3129 O 300.941 -1.65198 -1.39781 0
M  V30 3130 C 301.536 -2.93891 1.68563 0
M  V30 3131 C 300.095 -3.44639 1.5133 0
M  V30 3132 C 299.242 -2.18767 1.704 0
M  V30 3133 H 302.193 -0.909201 1.30074 0
M  V30 3134 H 302.214 -3.62623 1.15259 0
M  V30 3135 H 301.726 -2.74057 2.74799 0
M  V30 3136 H 299.827 -3.69564 0.474702 0
M  V30 3137 H 299.94 -4.20966 2.28746 0
M  V30 3138 H 298.304 -2.28253 1.13016 0
M  V30 3139 H 299.087 -2.01433 2.77992 0
M  V30 3140 N 301.532 -0.945985 -1.26051 0
M  V30 3141 C 302.943 -0.638096 -1.75457 0
M  V30 3142 C 303.294 0.846672 -1.76991 0
M  V30 3143 O 302.419 1.66262 -1.38513 0
M  V30 3144 C 303.014 -1.15157 -3.18629 0
M  V30 3145 C 301.573 -0.894004 -3.65629 0
M  V30 3146 C 300.72 -1.29967 -2.44957 0
M  V30 3147 H 303.671 -1.12376 -1.1206 0
M  V30 3148 H 303.692 -0.507615 -3.77099 0
M  V30 3149 H 303.204 -2.23222 -3.1748 0
M  V30 3150 H 301.305 0.172057 -3.72203 0
M  V30 3151 H 301.418 -1.52439 -4.54202 0
M  V30 3152 H 299.782 -0.718078 -2.44368 0
M  V30 3153 H 300.565 -2.38935 -2.46505 0
M  V30 3154 N 303.011 1.40521 -0.713556 0
M  V30 3155 C 303.943 2.29191 -0.0203126 0
M  V30 3156 C 304.956 1.45723 0.725864 0
M  V30 3157 O 306.145 1.69033 0.573581 0
M  V30 3158 C 303.245 3.2395 0.995486 0
M  V30 3159 C 302.418 4.36262 0.315256 0
M  V30 3160 C 301.477 5.11474 1.23616 0
M  V30 3161 O 300.503 5.64606 0.721719 0
M  V30 3162 N 301.705 5.20638 2.56743 0
M  V30 3163 H 304.47 2.89327 -0.781652 0
M  V30 3164 H 302.031 1.51869 -0.561022 0
M  V30 3165 H 304.023 3.71137 1.61368 0
M  V30 3166 H 302.593 2.64995 1.6582 0
M  V30 3167 H 301.813 3.91228 -0.483106 0
M  V30 3168 H 303.101 5.08558 -0.157004 0
M  V30 3169 H 302.499 4.7895 3.01037 0
M  V30 3170 H 301.056 5.71339 3.13712 0
M  V30 3171 N 304.489 0.459591 1.5075 0
M  V30 3172 C 305.737 -0.0991532 2.01857 0
M  V30 3173 C 306.058 -1.41247 1.34441 0
M  V30 3174 O 305.328 -1.89775 0.486022 0
M  V30 3175 H 303.908 -0.039633 0.745948 0
M  V30 3176 H 306.57 0.607387 1.85194 0
M  V30 3177 H 305.666 -0.258998 3.11023 0
M  V30 3178 N 305.967 -1.56429 0.191757 0
M  V30 3179 C 307.197 -2.01574 -0.452928 0
M  V30 3180 C 307.605 -1.07107 -1.55964 0
M  V30 3181 O 306.948 -0.067534 -1.83576 0
M  V30 3182 C 307.01 -3.43121 -1.07278 0
M  V30 3183 C 306.674 -4.56879 -0.105214 0
M  V30 3184 C 307.671 -5.15379 0.684149 0
M  V30 3185 C 305.356 -5.023 0.00489824 0
M  V30 3186 C 307.35 -6.17746 1.57062 0
M  V30 3187 C 305.037 -6.04511 0.894935 0
M  V30 3188 C 306.035 -6.62108 1.67637 0
M  V30 3189 O 305.723 -7.62335 2.55149 0
M  V30 3190 H 305.455 -0.665554 -0.118379 0
M  V30 3191 H 308.009 -2.03245 0.296737 0
M  V30 3192 H 306.239 -3.38425 -1.87097 0
M  V30 3193 H 307.928 -3.72093 -1.62177 0
M  V30 3194 H 308.694 -4.81157 0.609365 0
M  V30 3195 H 304.573 -4.57168 -0.593156 0
M  V30 3196 H 308.117 -6.6263 2.181 0
M  V30 3197 H 304.014 -6.38157 0.970847 0
M  V30 3198 H 304.782 -7.79741 2.48892 0
M  V30 3199 N 307.445 0.0818655 -1.57387 0
M  V30 3200 C 308.408 1.08265 -2.02018 0
M  V30 3201 C 309.408 1.32183 -0.915664 0
M  V30 3202 O 310.598 1.28073 -1.18081 0
M  V30 3203 C 307.73 2.42871 -2.39221 0
M  V30 3204 H 308.923 0.698204 -2.91659 0
M  V30 3205 H 306.476 0.327303 -1.52835 0
M  V30 3206 H 307.211 2.86167 -1.52575 0
M  V30 3207 H 306.996 2.26855 -3.19811 0
M  V30 3208 H 308.486 3.14826 -2.74362 0
M  V30 3209 N 308.923 1.53595 0.353017 0
M  V30 3210 C 309.886 1.80232 1.41594 0
M  V30 3211 C 310.886 0.673081 1.46035 0
M  V30 3212 O 312.076 0.941335 1.46576 0
M  V30 3213 C 309.208 1.93578 2.80607 0
M  V30 3214 H 310.401 2.75174 1.19244 0
M  V30 3215 H 307.954 1.44864 0.586872 0
M  V30 3216 H 308.689 1.00746 3.08254 0
M  V30 3217 H 308.474 2.75724 2.78781 0
M  V30 3218 H 309.964 2.15735 3.57558 0
M  V30 3219 N 310.401 -0.613514 1.45168 0
M  V30 3220 C 311.678 -1.37263 1.39349 0
M  V30 3221 C 312.058 -2.11012 0.0610848 0
M  V30 3222 O 311.406 -2.07502 -0.956825 0
M  V30 3223 C 311.616 -2.3244 2.60332 0
M  V30 3224 C 312.964 -2.9523 3.05163 0
M  V30 3225 O 313.988 -2.42762 2.60663 0
M  V30 3226 O 312.847 -3.90454 3.82372 0
M  V30 3227 H 309.941 -0.615188 0.552696 0
M  V30 3228 H 312.487 -0.637097 1.57287 0
M  V30 3229 H 311.259 -1.77164 3.48896 0
M  V30 3230 H 310.882 -3.13383 2.44698 0
M  V30 3231 N 311.879 -1.3236 -0.855495 0
M  V30 3232 C 312.789 -1.23221 -1.99634 0
M  V30 3233 C 313.805 -0.145983 -1.73387 0
M  V30 3234 O 314.981 -0.366502 -1.98037 0
M  V30 3235 C 312.046 -0.954782 -3.33294 0
M  V30 3236 C 311.107 -2.12937 -3.72769 0
M  V30 3237 C 310.34 -1.86508 -5.00051 0
M  V30 3238 O 310.563 -0.807231 -5.64659 0
M  V30 3239 O 309.497 -2.72591 -5.36636 0
M  V30 3240 H 313.323 -2.19126 -2.1028 0
M  V30 3241 H 310.908 -1.12241 -0.986018 0
M  V30 3242 H 312.79 -0.816519 -4.13414 0
M  V30 3243 H 311.465 -0.0258854 -3.2369 0
M  V30 3244 H 310.372 -2.3231 -2.93228 0
M  V30 3245 H 311.705 -3.04102 -3.87018 0
M  V30 3246 O 313.396 0.992737 -1.27385 0
M  V30 3247 H 314.087 1.61512 -1.06928 0
M  V30 END ATOM
M  V30 BEGIN BOND
M  V30 END BOND
M  V30 END CTAB
M  END
$$$$
