drugbank_target|P48449 Lanosterol synthase (DB02016; DB03696)
 OpenBabel12092119543D

  0  0  0     0  0            999 V3000
M  V30 BEGIN CTAB
M  V30 COUNTS 11535 11704 0 0 0
M  V30 BEGIN ATOM
M  V30 1 H -0.908 1.98254 -0.117106 0
M  V30 2 N 0 1.576 0 0
M  V30 3 C 0.933 2.03868 1.02534 0
M  V30 4 C 1.911 0.928543 1.3348 0
M  V30 5 O 3.095 1.19667 1.45644 0
M  V30 6 C 0.222 2.43627 2.35294 0
M  V30 7 C -0.732 3.65373 2.2001 0
M  V30 8 S 0.101 5.13292 1.52614 0
M  V30 9 C 1.257 5.56322 2.86805 0
M  V30 10 H 1.49 2.90518 0.631377 0
M  V30 11 H -0.977 1.52953 0.210867 0
M  V30 12 H 0.981 2.67203 3.11629 0
M  V30 13 H -0.358 1.57376 2.7183 0
M  V30 14 H -1.165 3.90944 3.18086 0
M  V30 15 H -1.563 3.418 1.51819 0
M  V30 16 H 0.729 5.58782 3.83104 0
M  V30 17 H 1.672 6.56266 2.65933 0
M  V30 18 H 2.08 4.83886 2.90714 0
M  V30 19 N 1.4781 -0.272755 1.55222 0
M  V30 20 C 2.7061 -1.02255 1.79865 0
M  V30 21 C 3.1211 -1.79924 0.572088 0
M  V30 22 O 2.4781 -1.76638 -0.458842 0
M  V30 23 C 2.5291 -1.98094 3.02392 0
M  V30 24 O 2.2501 -1.23572 4.20311 0
M  V30 25 C 3.7511 -2.84884 3.39641 0
M  V30 26 H 0.9711 -0.302057 0.599168 0
M  V30 27 H 3.5151 -0.303465 2.02236 0
M  V30 28 H 1.6701 -2.65465 2.82147 0
M  V30 29 H 2.0841 -1.88172 4.89583 0
M  V30 30 H 3.5581 -3.47927 4.28545 0
M  V30 31 H 4.0351 -3.54665 2.59055 0
M  V30 32 H 4.6411 -2.23003 3.62146 0
M  V30 33 N 2.9562 -1.48159 -0.537278 0
M  V30 34 C 3.8662 -1.64807 -1.6696 0
M  V30 35 C 4.8822 -0.530651 -1.65711 0
M  V30 36 O 6.0582 -0.800784 -1.84796 0
M  V30 37 C 3.1232 -1.67708 -3.03438 0
M  V30 38 C 2.1842 -2.91025 -3.156 0
M  V30 39 C 1.4172 -2.93778 -4.45567 0
M  V30 40 O 1.6402 -2.05153 -5.3223 0
M  V30 41 O 0.5742 -3.85868 -4.61941 0
M  V30 42 H 4.4002 -2.6066 -1.55853 0
M  V30 43 H 1.9852 -1.31475 -0.709549 0
M  V30 44 H 3.8672 -1.7218 -3.84619 0
M  V30 45 H 2.5422 -0.750278 -3.14885 0
M  V30 46 H 1.4492 -2.92089 -2.33741 0
M  V30 47 H 2.7822 -3.83065 -3.09066 0
M  V30 48 N 4.4343 0.785586 -1.36625 0
M  V30 49 C 5.6823 1.54057 -1.30808 0
M  V30 50 C 6.0033 1.94683 0.111157 0
M  V30 51 O 5.2733 1.65241 1.05224 0
M  V30 52 H 3.8533 0.571354 -0.481211 0
M  V30 53 H 6.5153 0.935821 -1.70963 0
M  V30 54 H 5.6113 2.44637 -1.93801 0
M  V30 55 N 5.9124 1.20967 1.01018 0
M  V30 56 C 7.1404 1.04956 1.78303 0
M  V30 57 C 7.5554 -0.400915 1.84494 0
M  V30 58 O 6.9124 -1.27826 1.30257 0
M  V30 59 C 6.9634 1.63403 3.22462 0
M  V30 60 O 6.6844 3.02775 3.16637 0
M  V30 61 C 8.1854 1.52432 4.16268 0
M  V30 62 H 5.4054 0.368858 0.560522 0
M  V30 63 H 7.9494 1.60193 1.27116 0
M  V30 64 H 6.1044 1.1227 3.70775 0
M  V30 65 H 6.5184 3.30626 4.07169 0
M  V30 66 H 7.9924 1.98078 5.15237 0
M  V30 67 H 8.4694 0.477875 4.36592 0
M  V30 68 H 9.0754 2.02787 3.73841 0
M  V30 69 N 7.3905 -1.2043 1.01659 0
M  V30 70 C 8.6305 -1.91507 0.714456 0
M  V30 71 C 8.9945 -1.77073 -0.742237 0
M  V30 72 O 10.1955 -2.42631 -1.15688 0
M  V30 73 C 8.4665 -3.38795 1.13809 0
M  V30 74 S 10.0255 -4.28216 0.957925 0
M  V30 75 H 6.8435 -0.661571 0.260471 0
M  V30 76 H 9.4455 -1.45671 1.30384 0
M  V30 77 H 8.1495 -3.46822 2.19415 0
M  V30 78 H 7.6805 -3.89656 0.541474 0
M  V30 79 H 9.6955 -4.96007 -0.138531 0
M  V30 80 N 8.8686 -0.792821 -1.36206 0
M  V30 81 C 9.7986 -0.207853 -2.32573 0
M  V30 82 C 10.7796 0.659055 -1.56813 0
M  V30 83 O 11.9646 0.592176 -1.84951 0
M  V30 84 C 9.0946 0.655449 -3.41059 0
M  V30 85 C 8.0486 -0.111842 -4.27854 0
M  V30 86 C 7.3746 0.872274 -5.27537 0
M  V30 87 C 8.6746 -1.30299 -5.05786 0
M  V30 88 H 10.3686 -1.01294 -2.81744 0
M  V30 89 H 7.9146 -0.48854 -1.3546 0
M  V30 90 H 9.8676 1.07464 -4.07467 0
M  V30 91 H 8.5916 1.49328 -2.90463 0
M  V30 92 H 7.2506 -0.512053 -3.63006 0
M  V30 93 H 6.8986 1.70523 -4.73214 0
M  V30 94 H 6.5986 0.363291 -5.86476 0
M  V30 95 H 8.1226 1.28996 -5.96818 0
M  V30 96 H 9.5366 -0.959379 -5.65216 0
M  V30 97 H 7.9336 -1.7455 -5.74154 0
M  V30 98 H 9.0036 -2.09663 -4.37229 0
M  V30 99 N 10.3467 1.47872 -0.545128 0
M  V30 100 C 11.7627 1.5829 -0.204032 0
M  V30 101 C 11.9627 1.54529 1.29317 0
M  V30 102 O 11.0187 1.44232 2.07252 0
M  V30 103 C 12.3317 2.89304 -0.819987 0
M  V30 104 C 13.8797 3.02864 -0.790105 0
M  V30 105 C 14.3547 4.3656 -1.38491 0
M  V30 106 N 15.8457 4.43165 -1.34755 0
M  V30 107 C 16.5807 5.45153 -1.77753 0
M  V30 108 N 16.0767 6.54016 -2.2855 0
M  V30 109 N 17.8697 5.36125 -1.68897 0
M  V30 110 H 10.0207 1.4856 -1.51802 0
M  V30 111 H 12.2837 0.706305 -0.632327 0
M  V30 112 H 11.9897 2.97757 -1.87173 0
M  V30 113 H 11.8637 3.75957 -0.305915 0
M  V30 114 H 14.2507 2.94014 0.252913 0
M  V30 115 H 14.3317 2.17782 -1.34181 0
M  V30 116 H 13.9757 4.46164 -2.42693 0
M  V30 117 H 13.9057 5.20353 -0.808754 0
M  V30 118 H 16.3967 3.65083 -0.975855 0
M  V30 119 H 16.7097 7.27994 -2.59314 0
M  V30 120 H 15.0547 6.54938 -2.32553 0
M  V30 121 H 18.2457 4.49975 -1.28998 0
M  V30 122 H 18.4187 6.15472 -2.02726 0
M  V30 123 N 11.8248 0.280983 1.55075 0
M  V30 124 C 13.2408 -0.0729964 1.59433 0
M  V30 125 C 13.4408 -1.5411 1.29817 0
M  V30 126 O 12.4968 -2.29086 1.06187 0
M  V30 127 C 13.8098 0.306921 2.9913 0
M  V30 128 C 15.3578 0.254023 3.11968 0
M  V30 129 C 15.8328 0.608467 4.5394 0
M  V30 130 N 17.3238 0.560241 4.59799 0
M  V30 131 C 18.0588 0.80722 5.6769 0
M  V30 132 N 17.5548 1.11912 6.83701 0
M  V30 133 N 19.3478 0.735623 5.57266 0
M  V30 134 H 11.4988 1.238 1.7259 0
M  V30 135 H 13.7618 0.500547 0.805082 0
M  V30 136 H 13.4678 1.32816 3.25657 0
M  V30 137 H 13.3418 -0.349363 3.75579 0
M  V30 138 H 15.7288 -0.75794 2.852 0
M  V30 139 H 15.8098 0.944649 2.37718 0
M  V30 140 H 15.4538 1.61814 4.81434 0
M  V30 141 H 15.3838 -0.104013 5.26497 0
M  V30 142 H 17.8748 0.329288 3.76463 0
M  V30 143 H 18.1878 1.29409 7.61888 0
M  V30 144 H 16.5328 1.15695 6.85303 0
M  V30 145 H 19.7238 0.491752 4.6551 0
M  V30 146 H 19.8968 0.931482 6.4127 0
M  V30 147 N 13.3029 -1.57598 0.00835791 0
M  V30 148 C 14.7189 -1.55764 -0.347822 0
M  V30 149 C 14.9189 -1.01186 -1.74252 0
M  V30 150 O 13.9749 -0.649371 -2.44007 0
M  V30 151 C 15.2879 -2.99927 -0.215407 0
M  V30 152 C 16.8359 -3.11656 -0.289725 0
M  V30 153 C 17.3109 -4.57621 -0.18634 0
M  V30 154 N 18.8019 -4.62557 -0.243978 0
M  V30 155 C 19.5369 -5.73094 -0.18745 0
M  V30 156 N 19.0329 -6.92753 -0.0810331 0
M  V30 157 N 20.8259 -5.61588 -0.239925 0
M  V30 158 H 12.9769 -1.91411 0.92062 0
M  V30 159 H 15.2399 -0.879562 0.353659 0
M  V30 160 H 14.9459 -3.43729 0.744512 0
M  V30 161 H 14.8199 -3.63865 -0.994097 0
M  V30 162 H 17.2069 -2.67779 -1.24009 0
M  V30 163 H 17.2879 -2.5048 0.51898 0
M  V30 164 H 16.9319 -5.02174 0.760519 0
M  V30 165 H 16.8619 -5.16752 -1.01364 0
M  V30 166 H 19.3529 -3.76481 -0.327217 0
M  V30 167 H 19.6659 -7.72787 -0.0440241 0
M  V30 168 H 18.0109 -6.94984 -0.0465419 0
M  V30 169 H 21.2019 -4.66996 -0.321317 0
M  V30 170 H 21.3749 -6.47714 -0.192407 0
M  V30 171 N 14.781 0.264519 -1.55364 0
M  V30 172 C 16.029 0.993021 -1.76021 0
M  V30 173 C 16.35 1.86511 -0.569099 0
M  V30 174 O 15.62 1.91438 0.415735 0
M  V30 175 H 14.2 0.369639 -0.649135 0
M  V30 176 H 16.862 0.286707 -1.9278 0
M  V30 177 H 15.958 1.62502 -2.66457 0
M  V30 178 N 16.2591 1.48442 0.529413 0
M  V30 179 C 17.5071 1.56179 1.28267 0
M  V30 180 C 17.8281 0.237721 1.93546 0
M  V30 181 O 17.0981 -0.740779 1.81354 0
M  V30 182 H 15.6781 0.575367 0.476405 0
M  V30 183 H 18.3401 1.84909 0.61602 0
M  V30 184 H 17.4361 2.34312 2.06165 0
M  V30 185 N 17.7372 -0.778329 1.37039 0
M  V30 186 C 19.1482 -1.35421 1.28523 0
M  V30 187 C 19.4992 -1.96075 -0.0700901 0
M  V30 188 O 18.6242 -1.93352 -0.971801 0
M  V30 189 C 19.2192 -2.46211 2.32735 0
M  V30 190 C 17.7782 -2.99585 2.27873 0
M  V30 191 C 16.9252 -1.72748 2.16918 0
M  V30 192 H 19.8762 -0.5791 1.47757 0
M  V30 193 H 19.8972 -3.2552 1.9702 0
M  V30 194 H 19.4092 -2.02036 3.31365 0
M  V30 195 H 17.5102 -3.48152 1.32745 0
M  V30 196 H 17.6232 -3.55646 3.21018 0
M  V30 197 H 15.9872 -1.95416 1.63354 0
M  V30 198 H 16.7702 -1.30686 3.17452 0
M  V30 199 N 19.2153 -1.21501 -1.00376 0
M  V30 200 C 20.4453 -1.05746 -1.77486 0
M  V30 201 C 20.8533 0.395655 -1.85017 0
M  V30 202 O 20.1963 1.28626 -1.31152 0
M  V30 203 C 20.2583 -1.58092 -3.22873 0
M  V30 204 C 19.9223 -3.06568 -3.38917 0
M  V30 205 C 20.9193 -4.04106 -3.271 0
M  V30 206 C 18.6043 -3.45799 -3.64319 0
M  V30 207 C 20.5983 -5.38862 -3.40451 0
M  V30 208 C 18.2853 -4.80707 -3.77311 0
M  V30 209 C 19.2833 -5.77047 -3.65384 0
M  V30 210 O 18.9713 -7.09507 -3.77961 0
M  V30 211 H 18.7033 -0.371778 -0.564586 0
M  V30 212 H 21.2573 -1.61319 -1.27143 0
M  V30 213 H 19.4873 -0.969163 -3.74358 0
M  V30 214 H 21.1763 -1.38162 -3.81662 0
M  V30 215 H 21.9423 -3.75141 -3.07399 0
M  V30 216 H 17.8213 -2.71344 -3.72684 0
M  V30 217 H 21.3653 -6.14041 -3.31058 0
M  V30 218 H 17.2623 -5.09357 -3.96517 0
M  V30 219 H 18.0303 -7.16935 -3.94901 0
M  V30 220 N 20.6934 1.19889 -1.02296 0
M  V30 221 C 21.6404 2.22901 -0.598651 0
M  V30 222 C 22.6104 1.61588 0.384521 0
M  V30 223 O 23.7954 1.88697 0.282522 0
M  V30 224 C 20.9354 3.45063 0.0504476 0
M  V30 225 C 20.0484 4.20783 -0.978053 0
M  V30 226 C 19.1834 5.30356 -0.299338 0
M  V30 227 C 18.2224 5.97826 -1.31416 0
M  V30 228 N 17.3594 6.98975 -0.661667 0
M  V30 229 H 22.1994 2.58554 -1.48169 0
M  V30 230 H 19.7364 1.27039 -0.741584 0
M  V30 231 H 21.6944 4.14831 0.443971 0
M  V30 232 H 20.3244 3.10084 0.897097 0
M  V30 233 H 19.3764 3.50018 -1.48969 0
M  V30 234 H 20.6884 4.67109 -1.74958 0
M  V30 235 H 19.8424 6.06516 0.149347 0
M  V30 236 H 18.5814 4.85084 0.504445 0
M  V30 237 H 17.5864 5.20422 -1.77317 0
M  V30 238 H 18.8114 6.45183 -2.11933 0
M  V30 239 H 16.7574 6.55886 0.122132 0
M  V30 240 H 16.6744 7.43461 -1.37117 0
M  V30 241 H 17.9424 7.7914 -0.236785 0
M  V30 242 N 22.1715 0.800033 1.35784 0
M  V30 243 C 23.3995 0.389606 2.03199 0
M  V30 244 C 23.8145 -0.997375 1.60306 0
M  V30 245 O 23.1715 -1.64154 0.797481 0
M  V30 246 C 23.2225 0.455855 3.58614 0
M  V30 247 O 22.9435 1.78815 3.99946 0
M  V30 248 C 24.4445 0.0374032 4.43284 0
M  V30 249 H 21.6645 0.159132 0.651857 0
M  V30 250 H 24.2085 1.08183 1.73541 0
M  V30 251 H 22.3635 -0.188057 3.86943 0
M  V30 252 H 22.7775 1.74636 4.94573 0
M  V30 253 H 24.2515 0.134882 5.51835 0
M  V30 254 H 24.7285 -1.01651 4.27275 0
M  V30 255 H 25.3345 0.654215 4.20238 0
M  V30 256 N 23.6496 -1.47581 0.552962 0
M  V30 257 C 24.5596 -2.33743 -0.200353 0
M  V30 258 C 25.5756 -1.47928 -0.916151 0
M  V30 259 O 26.7516 -1.80865 -0.885993 0
M  V30 260 C 23.8166 -3.24536 -1.21973 0
M  V30 261 C 22.8776 -4.26238 -0.511819 0
M  V30 262 C 22.1106 -5.12693 -1.48263 0
M  V30 263 O 22.3336 -5.01525 -2.71714 0
M  V30 264 O 21.2676 -5.93375 -1.00945 0
M  V30 265 H 25.0936 -2.9945 0.506304 0
M  V30 266 H 22.6786 -1.46071 0.313622 0
M  V30 267 H 24.5606 -3.80631 -1.80827 0
M  V30 268 H 23.2356 -2.61462 -1.90839 0
M  V30 269 H 22.1426 -3.73914 0.117799 0
M  V30 270 H 23.4756 -4.92014 0.135308 0
M  V30 271 N 25.1277 -0.289203 -1.54924 0
M  V30 272 C 26.5387 0.205791 -1.85562 0
M  V30 273 C 26.8897 1.54351 -1.2112 0
M  V30 274 O 26.0147 2.10435 -0.504601 0
M  V30 275 C 26.6097 0.380177 -3.3666 0
M  V30 276 C 25.1687 0.819395 -3.67373 0
M  V30 277 C 24.3157 -0.079159 -2.77187 0
M  V30 278 H 27.2667 -0.510577 -1.50262 0
M  V30 279 H 27.2877 1.21659 -3.60526 0
M  V30 280 H 26.7997 -0.593589 -3.83534 0
M  V30 281 H 24.9007 1.80413 -3.26009 0
M  V30 282 H 25.0137 0.646957 -4.74712 0
M  V30 283 H 23.3777 0.439565 -2.50878 0
M  V30 284 H 24.1607 -1.04906 -3.26878 0
M  V30 285 N 26.6058 1.57591 -0.0167156 0
M  V30 286 C 27.5688 2.08393 0.954204 0
M  V30 287 C 28.5688 0.996531 1.26198 0
M  V30 288 O 29.7588 1.25858 1.20438 0
M  V30 289 C 26.8908 2.5394 2.27436 0
M  V30 290 H 28.0838 2.95455 0.514451 0
M  V30 291 H 25.6368 1.54582 0.231089 0
M  V30 292 H 26.3718 1.70171 2.76066 0
M  V30 293 H 26.1568 3.33371 2.06412 0
M  V30 294 H 27.6468 2.93512 2.97053 0
M  V30 295 N 28.0839 -0.256276 1.55502 0
M  V30 296 C 29.3119 -1.00342 1.8094 0
M  V30 297 C 29.7269 -1.79307 0.59114 0
M  V30 298 O 29.0839 -1.77114 -0.440081 0
M  V30 299 C 29.1349 -1.94875 3.04476 0
M  V30 300 O 28.8559 -1.19107 4.21598 0
M  V30 301 C 30.3569 -2.81266 3.42644 0
M  V30 302 H 27.5769 -0.295685 0.602338 0
M  V30 303 H 30.1209 -0.281998 2.02546 0
M  V30 304 H 28.2759 -2.62457 2.84947 0
M  V30 305 H 28.6899 -1.82969 4.91551 0
M  V30 306 H 30.1639 -3.43362 4.32211 0
M  V30 307 H 30.6409 -3.51897 2.62802 0
M  V30 308 H 31.2469 -2.1915 3.64491 0
M  V30 309 N 29.562 -1.4872 -0.521534 0
M  V30 310 C 30.839 -1.4766 -1.2828 0
M  V30 311 C 31.219 -0.19292 -2.10217 0
M  V30 312 O 30.567 0.825193 -2.13079 0
M  V30 313 C 30.777 -2.74358 -2.15705 0
M  V30 314 C 32.125 -3.23028 -2.75569 0
M  V30 315 O 33.149 -2.75333 -2.25987 0
M  V30 316 O 32.008 -4.0604 -3.65778 0
M  V30 317 H 29.102 -0.590085 -0.579421 0
M  V30 318 H 31.648 -1.60963 -0.537492 0
M  V30 319 H 30.42 -3.59292 -1.54999 0
M  V30 320 H 30.043 -2.63816 -2.97467 0
M  V30 321 N 31.0401 0.771051 -1.3745 0
M  V30 322 C 31.9701 1.89827 -1.3597 0
M  V30 323 C 32.9511 1.68562 -0.228216 0
M  V30 324 O 34.1361 1.8941 -0.428675 0
M  V30 325 C 31.2661 3.2712 -1.16662 0
M  V30 326 C 30.2201 3.6295 -2.2683 0
M  V30 327 C 29.5461 4.98791 -1.92644 0
M  V30 328 C 30.8461 3.69627 -3.69017 0
M  V30 329 H 32.5401 1.91323 -2.30295 0
M  V30 330 H 30.0861 0.919082 -1.10855 0
M  V30 331 H 32.0391 4.05615 -1.14256 0
M  V30 332 H 30.7631 3.26059 -0.187926 0
M  V30 333 H 29.4221 2.86763 -2.28392 0
M  V30 334 H 29.0701 4.94271 -0.933021 0
M  V30 335 H 28.7701 5.23733 -2.66416 0
M  V30 336 H 30.2941 5.79685 -1.91826 0
M  V30 337 H 31.7081 4.38273 -3.69581 0
M  V30 338 H 30.1051 4.06067 -4.41848 0
M  V30 339 H 31.1751 2.70273 -4.02592 0
M  V30 340 N 32.5182 1.22032 0.997298 0
M  V30 341 C 33.7662 1.04016 1.73278 0
M  V30 342 C 34.0872 -0.426255 1.90284 0
M  V30 343 O 33.3572 -1.30694 1.45931 0
M  V30 344 H 31.9372 0.381897 0.642 0
M  V30 345 H 34.5992 1.5347 1.20137 0
M  V30 346 H 33.6952 1.51441 2.72896 0
M  V30 347 N 33.9963 -1.19345 1.0293 0
M  V30 348 C 35.4123 -1.41069 0.746446 0
M  V30 349 C 35.6123 -1.90078 -0.668776 0
M  V30 350 O 34.6683 -2.0778 -1.4347 0
M  V30 351 C 35.9813 -2.42141 1.78292 0
M  V30 352 C 37.5293 -2.55887 1.80252 0
M  V30 353 C 38.0043 -3.60214 2.8286 0
M  V30 354 N 39.4953 -3.67711 2.81679 0
M  V30 355 C 40.2303 -4.48128 3.57727 0
M  V30 356 N 39.7263 -5.32248 4.43491 0
M  V30 357 N 41.5193 -4.42782 3.46267 0
M  V30 358 H 33.6703 -0.858536 1.94275 0
M  V30 359 H 35.9333 -0.439541 0.839945 0
M  V30 360 H 35.6393 -2.13155 2.79746 0
M  V30 361 H 35.5133 -3.41323 1.60557 0
M  V30 362 H 37.9003 -2.84196 0.794757 0
M  V30 363 H 37.9813 -1.56858 2.02062 0
M  V30 364 H 37.6253 -3.32647 3.83807 0
M  V30 365 H 37.5553 -4.58895 2.58307 0
M  V30 366 H 40.0463 -3.07634 2.19476 0
M  V30 367 H 40.3593 -5.90729 4.98256 0
M  V30 368 H 38.7043 -5.31707 4.47564 0
M  V30 369 H 41.8953 -3.76107 2.78677 0
M  V30 370 H 42.0683 -5.05215 4.05785 0
M  V30 371 N 35.4744 -0.807222 -1.35358 0
M  V30 372 C 36.7204 -0.397594 -1.99476 0
M  V30 373 C 37.0754 1.02405 -1.62883 0
M  V30 374 O 36.3684 1.70077 -0.882282 0
M  V30 375 C 36.5624 -0.519036 -3.53611 0
M  V30 376 C 36.3914 -1.95094 -4.05177 0
M  V30 377 C 35.1614 -2.57945 -4.34503 0
M  V30 378 C 37.3594 -2.91558 -4.23673 0
M  V30 379 N 35.3414 -3.92539 -4.72003 0
M  V30 380 C 36.7124 -4.11024 -4.64176 0
M  V30 381 C 38.7674 -2.88381 -4.05883 0
M  V30 382 C 37.4704 -5.27745 -4.88751 0
M  V30 383 C 39.4964 -4.04306 -4.31614 0
M  V30 384 C 38.8584 -5.22519 -4.72391 0
M  V30 385 H 34.9574 -0.193274 -0.75774 0
M  V30 386 H 37.5414 -1.0486 -1.6405 0
M  V30 387 H 35.7124 0.101979 -3.88266 0
M  V30 388 H 37.4444 -0.0839321 -4.04613 0
M  V30 389 H 34.1994 -2.09295 -4.24844 0
M  V30 390 H 34.6234 -4.61836 -4.95011 0
M  V30 391 H 39.2654 -1.98137 -3.73499 0
M  V30 392 H 36.9834 -6.1856 -5.20008 0
M  V30 393 H 40.5694 -4.03229 -4.19402 0
M  V30 394 H 39.4494 -6.1073 -4.91913 0
M  V30 395 N 36.9525 1.47285 -0.560781 0
M  V30 396 C 38.3685 1.58065 -0.22081 0
M  V30 397 C 38.5685 1.55892 1.27671 0
M  V30 398 O 37.6245 1.46422 2.0571 0
M  V30 399 C 38.9375 2.88418 -0.850625 0
M  V30 400 C 40.4855 3.02009 -0.822184 0
M  V30 401 C 40.9605 4.35066 -1.43113 0
M  V30 402 N 42.4515 4.41711 -1.39448 0
M  V30 403 C 43.1865 5.43237 -1.83525 0
M  V30 404 N 42.6825 6.51555 -2.35474 0
M  V30 405 N 44.4755 5.34304 -1.74574 0
M  V30 406 H 36.6265 1.46941 -1.53369 0
M  V30 407 H 38.8895 0.699558 -0.639783 0
M  V30 408 H 38.5955 2.95755 -1.9032 0
M  V30 409 H 38.4695 3.75612 -0.345773 0
M  V30 410 H 40.8565 2.94266 0.221714 0
M  V30 411 H 40.9375 2.16347 -1.36483 0
M  V30 412 H 40.5815 4.43565 -2.47412 0
M  V30 413 H 40.5115 5.19465 -0.863899 0
M  V30 414 H 43.0025 3.64027 -1.01452 0
M  V30 415 H 43.3155 7.25203 -2.67021 0
M  V30 416 H 41.6605 6.52435 -2.39487 0
M  V30 417 H 44.8515 4.48581 -1.33763 0
M  V30 418 H 45.0245 6.13288 -2.09242 0
M  V30 419 N 38.4306 0.297415 1.54768 0
M  V30 420 C 39.3606 -0.573494 2.26348 0
M  V30 421 C 40.3416 -1.14085 1.26169 0
M  V30 422 O 41.5266 -1.17086 1.54934 0
M  V30 423 C 38.6566 -1.74716 3.00153 0
M  V30 424 C 37.6106 -1.31032 4.07449 0
M  V30 425 C 36.9366 -2.56887 4.68949 0
M  V30 426 C 38.2366 -0.444183 5.20408 0
M  V30 427 H 39.9306 0.0235131 2.99391 0
M  V30 428 H 37.4766 0.0127488 1.43994 0
M  V30 429 H 39.4296 -2.3625 3.48947 0
M  V30 430 H 38.1536 -2.37035 2.24682 0
M  V30 431 H 36.8126 -0.718066 3.59499 0
M  V30 432 H 36.4606 -3.17512 3.90122 0
M  V30 433 H 36.1606 -2.2836 5.41411 0
M  V30 434 H 37.6846 -3.19229 5.20505 0
M  V30 435 H 39.0986 -0.9651 5.65118 0
M  V30 436 H 37.4956 -0.252846 5.99567 0
M  V30 437 H 38.5656 0.531609 4.81977 0
M  V30 438 N 39.9087 -1.5758 0.0250728 0
M  V30 439 C 40.8567 -2.11125 -0.97617 0
M  V30 440 C 41.8507 -1.03689 -1.33959 0
M  V30 441 O 43.0567 -1.22128 -1.3223 0
M  V30 442 H 39.4317 -0.674468 -0.332561 0
M  V30 443 H 41.4027 -2.94194 -0.499223 0
M  V30 444 C 40.1517 -2.65017 -2.2508 0
M  V30 445 H 39.4747 -3.47333 -1.9799 0
M  V30 446 H 40.9147 -3.06133 -2.93357 0
M  V30 447 C 39.3737 -1.57574 -2.97779 0
M  V30 448 O 39.9037 -0.973203 -3.89733 0
M  V30 449 N 38.1097 -1.29716 -2.60043 0
M  V30 450 H 37.6567 -1.789 -1.85345 0
M  V30 451 H 37.6147 -0.58051 -3.08994 0
M  V30 452 N 41.3868 0.248026 -1.55636 0
M  V30 453 C 42.6268 0.983592 -1.79178 0
M  V30 454 C 42.9908 1.82567 -0.594414 0
M  V30 455 O 44.1918 2.59292 -0.708583 0
M  V30 456 C 42.4628 1.82228 -3.07454 0
M  V30 457 S 44.0218 2.61709 -3.52213 0
M  V30 458 H 40.8398 0.330866 -0.629324 0
M  V30 459 H 43.4418 0.251562 -1.93875 0
M  V30 460 H 42.1458 1.19333 -3.92668 0
M  V30 461 H 41.6768 2.59708 -2.95492 0
M  V30 462 H 43.6918 3.84655 -3.13457 0
M  V30 463 N 42.8649 1.48995 0.513639 0
M  V30 464 C 43.7749 1.67443 1.64317 0
M  V30 465 C 44.7909 0.556947 1.64846 0
M  V30 466 O 45.9669 0.830082 1.83498 0
M  V30 467 C 43.0319 1.72515 3.00732 0
M  V30 468 C 42.0929 2.96009 3.1093 0
M  V30 469 C 41.3259 3.00829 4.40837 0
M  V30 470 O 41.5489 2.13594 5.28898 0
M  V30 471 O 40.4829 3.93168 4.55744 0
M  V30 472 H 44.3089 2.63106 1.51687 0
M  V30 473 H 41.8939 1.32588 0.688543 0
M  V30 474 H 43.7759 1.78277 3.81831 0
M  V30 475 H 42.4509 0.800278 3.13651 0
M  V30 476 H 41.3579 2.9577 2.29065 0
M  V30 477 H 42.6909 3.87934 3.02933 0
M  V30 478 N 44.343 -0.763751 1.37857 0
M  V30 479 C 45.759 -1.06542 1.18832 0
M  V30 480 C 45.959 -2.01478 0.0299722 0
M  V30 481 O 45.015 -2.4458 -0.627447 0
M  V30 482 C 46.328 -1.65525 2.51042 0
M  V30 483 C 47.876 -1.77745 2.57635 0
M  V30 484 C 48.351 -2.4014 3.89996 0
M  V30 485 N 49.842 -2.47582 3.91481 0
M  V30 486 C 50.577 -2.96732 4.9065 0
M  V30 487 N 50.073 -3.45993 6.00217 0
M  V30 488 N 51.866 -2.95679 4.78048 0
M  V30 489 H 44.017 -0.133556 2.1198 0
M  V30 490 H 46.28 -0.121879 0.940133 0
M  V30 491 H 45.986 -1.03236 3.36207 0
M  V30 492 H 45.86 -2.64719 2.68707 0
M  V30 493 H 48.247 -2.39164 1.72872 0
M  V30 494 H 48.328 -0.772836 2.43846 0
M  V30 495 H 47.972 -1.79358 4.75177 0
M  V30 496 H 47.902 -3.41223 4.01092 0
M  V30 497 H 50.393 -2.1273 3.12337 0
M  V30 498 H 50.706 -3.81922 6.7183 0
M  V30 499 H 49.051 -3.44077 6.03851 0
M  V30 500 H 52.242 -2.56499 3.91568 0
M  V30 501 H 52.415 -3.33672 5.55488 0
M  V30 502 N 45.8211 -1.22559 -0.990812 0
M  V30 503 C 47.0691 -1.04933 -1.72724 0
M  V30 504 C 47.3901 0.416158 -1.90508 0
M  V30 505 O 46.6601 1.29918 -1.46622 0
M  V30 506 H 45.2401 -0.385296 -0.639965 0
M  V30 507 H 47.9021 -1.54105 -1.19322 0
M  V30 508 H 46.9981 -1.52886 -2.72089 0
M  V30 509 N 47.2992 1.18797 -1.03562 0
M  V30 510 C 48.7152 1.40671 -0.753917 0
M  V30 511 C 48.9152 1.9043 0.658686 0
M  V30 512 O 47.9712 2.08538 1.42366 0
M  V30 513 C 49.2842 2.41192 -1.79574 0
M  V30 514 C 50.8322 2.54928 -1.81606 0
M  V30 515 C 51.3072 3.58709 -2.84766 0
M  V30 516 N 52.7982 3.66212 -2.83625 0
M  V30 517 C 53.5332 4.46225 -3.60098 0
M  V30 518 N 53.0292 5.29888 -4.46308 0
M  V30 519 N 54.8222 4.40939 -3.4861 0
M  V30 520 H 46.9732 0.848221 -1.94728 0
M  V30 521 H 49.2362 0.435081 -0.842264 0
M  V30 522 H 48.9422 2.11669 -2.80872 0
M  V30 523 H 48.8162 3.40467 -1.62365 0
M  V30 524 H 51.2032 2.83771 -0.809817 0
M  V30 525 H 51.2842 1.55784 -2.02891 0
M  V30 526 H 50.9282 3.30607 -3.85566 0
M  V30 527 H 50.8582 4.57519 -2.60737 0
M  V30 528 H 53.3492 3.06466 -2.21105 0
M  V30 529 H 53.6622 5.88078 -5.01382 0
M  V30 530 H 52.0072 5.29326 -4.50377 0
M  V30 531 H 55.1982 3.74624 -2.80668 0
M  V30 532 H 55.3712 5.03056 -4.08459 0
M  V30 533 N 48.7773 0.814389 1.34928 0
M  V30 534 C 49.7093 0.187834 2.28429 0
M  V30 535 C 50.7223 -0.617374 1.5064 0
M  V30 536 O 51.9113 -0.448454 1.72775 0
M  V30 537 C 49.0113 -0.755962 3.30361 0
M  V30 538 C 48.1843 0.00456686 4.374 0
M  V30 539 C 47.2433 -0.858876 5.19143 0
M  V30 540 O 46.2693 -0.306968 5.68372 0
M  V30 541 N 47.4713 -2.17988 5.38016 0
M  V30 542 H 50.2363 0.991105 2.82838 0
M  V30 543 H 47.7973 0.670561 1.4736 0
M  V30 544 H 49.7893 -1.338 3.81942 0
M  V30 545 H 48.3593 -1.46001 2.7641 0
M  V30 546 H 47.5793 0.767865 3.86649 0
M  V30 547 H 48.8673 0.528422 5.06049 0
M  V30 548 H 48.2653 -2.65212 4.99679 0
M  V30 549 H 46.8223 -2.71098 5.92747 0
M  V30 550 N 50.2554 -1.46986 0.568584 0
M  V30 551 C 51.4834 -2.0683 0.0539956 0
M  V30 552 C 51.8984 -1.41953 -1.24478 0
M  V30 553 O 51.2554 -0.519933 -1.74937 0
M  V30 554 C 51.3064 -3.61254 -0.133362 0
M  V30 555 O 51.0274 -4.237 1.11399 0
M  V30 556 C 52.5284 -4.37992 -0.683927 0
M  V30 557 H 49.7484 -0.669058 0.0510141 0
M  V30 558 H 52.2924 -1.88824 0.785234 0
M  V30 559 H 50.4474 -3.78735 -0.81477 0
M  V30 560 H 50.8614 -5.16388 0.91888 0
M  V30 561 H 52.3354 -5.46684 -0.764263 0
M  V30 562 H 52.8124 -4.05058 -1.69778 0
M  V30 563 H 53.4184 -4.25283 -0.0378494 0
M  V30 564 N 51.7335 -0.305618 -1.54608 0
M  V30 565 C 52.9795 0.295595 -2.01241 0
M  V30 566 C 53.3345 1.51171 -1.19018 0
M  V30 567 O 52.6275 1.89832 -0.259684 0
M  V30 568 C 52.8215 0.698983 -3.50498 0
M  V30 569 C 52.6505 -0.476491 -4.47168 0
M  V30 570 C 51.4205 -0.969963 -4.95903 0
M  V30 571 C 53.6185 -1.32294 -4.96994 0
M  V30 572 N 51.6005 -2.11172 -5.76437 0
M  V30 573 C 52.9715 -2.31212 -5.75275 0
M  V30 574 C 55.0265 -1.35278 -4.7917 0
M  V30 575 C 53.7295 -3.32896 -6.37631 0
M  V30 576 C 55.7555 -2.35823 -5.42348 0
M  V30 577 C 55.1175 -3.33469 -6.20466 0
M  V30 578 H 51.2165 0.0724992 -0.778632 0
M  V30 579 H 53.8005 -0.436583 -1.89742 0
M  V30 580 H 51.9715 1.40032 -3.62278 0
M  V30 581 H 53.7035 1.28013 -3.8392 0
M  V30 582 H 50.4585 -0.544178 -4.70463 0
M  V30 583 H 50.8825 -2.68714 -6.21387 0
M  V30 584 H 55.5245 -0.61157 -4.18354 0
M  V30 585 H 53.2425 -4.07933 -6.97579 0
M  V30 586 H 56.8285 -2.38911 -5.30484 0
M  V30 587 H 55.7085 -4.09996 -6.68485 0
M  V30 588 N 53.2116 1.57565 -0.0334293 0
M  V30 589 C 54.4396 1.9628 0.654347 0
M  V30 590 C 54.8546 0.910138 1.65414 0
M  V30 591 O 54.2116 -0.107595 1.82183 0
M  V30 592 C 54.2626 3.35067 1.35693 0
M  V30 593 O 53.9836 4.36296 0.397191 0
M  V30 594 C 55.4846 3.88439 2.13613 0
M  V30 595 H 52.7046 0.646369 0.180132 0
M  V30 596 H 55.2486 2.04282 -0.0944721 0
M  V30 597 H 53.4036 3.2827 2.05712 0
M  V30 598 H 53.8176 5.1678 0.896597 0
M  V30 599 H 55.2916 4.8788 2.58219 0
M  V30 600 H 55.7686 3.22914 2.97696 0
M  V30 601 H 56.3746 3.98516 1.48543 0
M  V30 602 N 54.6897 -0.239769 1.55765 0
M  V30 603 C 55.9197 -0.982743 1.8173 0
M  V30 604 C 56.3277 -1.7917 0.607835 0
M  V30 605 O 55.6707 -1.78525 -0.432973 0
M  V30 606 C 55.7327 -1.96332 3.01155 0
M  V30 607 C 55.3967 -1.34062 4.36894 0
M  V30 608 C 56.3937 -0.739539 5.14613 0
M  V30 609 C 54.0787 -1.35784 4.83599 0
M  V30 610 C 56.0727 -0.163989 6.37189 0
M  V30 611 C 53.7597 -0.778441 6.06122 0
M  V30 612 C 54.7577 -0.182548 6.82756 0
M  V30 613 O 54.4457 0.387887 8.02964 0
M  V30 614 H 54.1777 -0.294481 0.608487 0
M  V30 615 H 56.7317 -0.26572 2.03674 0
M  V30 616 H 54.9617 -2.71884 2.74984 0
M  V30 617 H 56.6507 -2.57032 3.14149 0
M  V30 618 H 57.4167 -0.718687 4.79646 0
M  V30 619 H 53.2957 -1.81105 4.23936 0
M  V30 620 H 56.8397 0.301753 6.96947 0
M  V30 621 H 52.7367 -0.796645 6.40565 0
M  V30 622 H 53.5047 0.28044 8.18019 0
M  V30 623 N 56.1678 -1.49265 -0.50573 0
M  V30 624 C 57.0978 -1.68495 -1.61653 0
M  V30 625 C 58.0788 -0.53366 -1.61512 0
M  V30 626 O 59.2638 -0.76897 -1.78327 0
M  V30 627 C 56.3938 -1.74709 -3.00157 0
M  V30 628 C 55.3478 -2.89581 -3.15162 0
M  V30 629 C 54.6738 -2.80903 -4.5497 0
M  V30 630 C 55.9738 -4.30578 -2.95634 0
M  V30 631 H 57.6678 -2.61493 -1.45814 0
M  V30 632 H 55.2138 -1.25838 -0.70005 0
M  V30 633 H 57.1668 -1.86748 -3.77761 0
M  V30 634 H 55.8908 -0.783067 -3.17074 0
M  V30 635 H 54.5498 -2.77136 -2.39982 0
M  V30 636 H 54.1978 -1.82419 -4.68756 0
M  V30 637 H 53.8978 -3.57999 -4.65951 0
M  V30 638 H 55.4218 -2.94944 -5.34641 0
M  V30 639 H 56.8358 -4.4373 -3.63011 0
M  V30 640 H 55.2328 -5.0886 -3.18091 0
M  V30 641 H 56.3028 -4.45352 -1.91806 0
M  V30 642 N 57.6459 0.756429 -1.3826 0
M  V30 643 C 58.5779 1.87971 -1.31147 0
M  V30 644 C 59.5909 1.61248 -0.224239 0
M  V30 645 O 60.7799 1.71881 -0.481581 0
M  V30 646 C 57.8799 3.23545 -1.00857 0
M  V30 647 C 57.0529 3.77794 -2.20432 0
M  V30 648 C 56.1119 4.91877 -1.86931 0
M  V30 649 O 55.1379 5.06659 -2.59395 0
M  V30 650 N 56.3399 5.74643 -0.822568 0
M  V30 651 H 59.1049 1.94585 -2.2794 0
M  V30 652 H 56.6659 0.936234 -1.32084 0
M  V30 653 H 58.6579 3.97403 -0.765021 0
M  V30 654 H 57.2279 3.12335 -0.128687 0
M  V30 655 H 56.4479 2.95534 -2.6087 0
M  V30 656 H 57.7359 4.10771 -3.00241 0
M  V30 657 H 57.1339 5.65266 -0.221575 0
M  V30 658 H 55.6909 6.48661 -0.638899 0
M  V30 659 N 59.124 1.23083 0.984299 0
M  V30 660 C 60.401 0.9689 1.69917 0
M  V30 661 C 60.781 -0.513604 2.04757 0
M  V30 662 O 60.129 -1.48383 1.73767 0
M  V30 663 C 60.339 1.87518 2.94343 0
M  V30 664 C 61.687 2.13636 3.6694 0
M  V30 665 O 62.711 1.85036 3.04368 0
M  V30 666 O 61.57 2.62119 4.79537 0
M  V30 667 H 58.664 0.365095 0.742048 0
M  V30 668 H 61.21 1.34107 1.03987 0
M  V30 669 H 59.982 2.87756 2.65164 0
M  V30 670 H 59.605 1.50514 3.6801 0
M  V30 671 N 60.6021 -1.18246 1.0419 0
M  V30 672 C 61.5121 -2.25574 0.644476 0
M  V30 673 C 62.5281 -1.70845 -0.329826 0
M  V30 674 O 63.7041 -2.00554 -0.184443 0
M  V30 675 C 60.7691 -3.46697 0.014877 0
M  V30 676 C 59.8301 -4.16554 1.03834 0
M  V30 677 C 59.0631 -5.31894 0.438692 0
M  V30 678 O 59.2861 -5.65385 -0.754752 0
M  V30 679 O 58.2201 -5.90459 1.168 0
M  V30 680 H 62.0461 -2.61836 1.53869 0
M  V30 681 H 59.6311 -1.25352 0.812854 0
M  V30 682 H 61.5131 -4.20062 -0.335538 0
M  V30 683 H 60.1881 -3.12255 -0.853138 0
M  V30 684 H 59.0951 -3.45251 1.44057 0
M  V30 685 H 60.4281 -4.54998 1.87716 0
M  V30 686 N 62.0802 -0.821533 -1.34494 0
M  V30 687 C 63.4962 -0.507117 -1.51329 0
M  V30 688 C 63.6962 0.968964 -1.76673 0
M  V30 689 O 62.7522 1.75348 -1.81685 0
M  V30 690 C 64.0652 -1.36544 -2.67911 0
M  V30 691 C 65.6132 -1.36242 -2.81793 0
M  V30 692 C 66.0882 -2.2052 -4.01416 0
M  V30 693 N 67.5792 -2.18136 -4.08621 0
M  V30 694 C 68.3142 -2.80095 -5.00334 0
M  V30 695 N 67.8102 -3.51039 -5.9728 0
M  V30 696 N 69.6032 -2.69656 -4.93196 0
M  V30 697 H 61.7542 -1.77729 -1.16302 0
M  V30 698 H 64.0172 -0.757291 -0.570276 0
M  V30 699 H 63.7232 -2.41361 -2.55808 0
M  V30 700 H 63.5972 -1.02917 -3.62888 0
M  V30 701 H 65.9842 -0.322041 -2.93338 0
M  V30 702 H 66.0652 -1.73866 -1.87628 0
M  V30 703 H 65.7092 -3.24607 -3.90631 0
M  V30 704 H 65.6392 -1.80247 -4.94791 0
M  V30 705 H 68.1302 -1.6653 -3.39229 0
M  V30 706 H 68.4432 -3.95565 -6.63889 0
M  V30 707 H 66.7882 -3.55145 -5.97409 0
M  V30 708 H 69.9792 -2.13808 -4.16418 0
M  V30 709 H 70.1522 -3.1823 -5.64476 0
M  V30 710 N 63.5583 1.46682 -0.576371 0
M  V30 711 C 64.5213 2.28707 0.150239 0
M  V30 712 C 65.5213 1.38035 0.824794 0
M  V30 713 O 66.7113 1.60476 0.677719 0
M  V30 714 C 63.8433 3.18248 1.22192 0
M  V30 715 H 65.0363 2.94423 -0.570521 0
M  V30 716 H 62.5893 1.52688 -0.334078 0
M  V30 717 H 63.3243 2.57265 1.97447 0
M  V30 718 H 63.1093 3.85 0.742812 0
M  V30 719 H 64.5993 3.80001 1.73172 0
M  V30 720 N 65.0364 0.313813 1.54444 0
M  V30 721 C 66.2844 -0.291099 1.99993 0
M  V30 722 C 66.6054 -1.53418 1.20366 0
M  V30 723 O 65.8754 -1.93544 0.302927 0
M  V30 724 H 64.4554 -0.110552 0.738774 0
M  V30 725 H 67.1174 0.428106 1.9014 0
M  V30 726 H 66.2134 -0.554268 3.07139 0
M  V30 727 N 66.5145 -1.57545 0.0417849 0
M  V30 728 C 67.9305 -1.56467 -0.314704 0
M  V30 729 C 68.1305 -1.04859 -1.72066 0
M  V30 730 O 67.1865 -0.700983 -2.42575 0
M  V30 731 C 68.4995 -3.00317 -0.15174 0
M  V30 732 C 70.0475 -3.12201 -0.223553 0
M  V30 733 C 70.5225 -4.57913 -0.0892295 0
M  V30 734 N 72.0135 -4.6297 -0.145808 0
M  V30 735 C 72.7485 -5.73362 -0.0658459 0
M  V30 736 N 72.2445 -6.92769 0.0659282 0
M  V30 737 N 74.0375 -5.6197 -0.12075 0
M  V30 738 H 66.1885 -1.89416 0.961014 0
M  V30 739 H 68.4515 -0.871862 0.372237 0
M  V30 740 H 68.1575 -3.42073 0.817254 0
M  V30 741 H 68.0315 -3.65892 -0.916692 0
M  V30 742 H 70.4185 -2.70349 -1.18301 0
M  V30 743 H 70.4995 -2.49323 0.571994 0
M  V30 744 H 70.1435 -5.00448 0.866867 0
M  V30 745 H 70.0735 -5.18786 -0.903802 0
M  V30 746 H 72.5645 -3.7709 -0.247286 0
M  V30 747 H 72.8775 -7.72707 0.119905 0
M  V30 748 H 71.2225 -6.94927 0.100885 0
M  V30 749 H 74.4135 -4.67572 -0.222187 0
M  V30 750 H 74.5865 -6.47977 -0.0549735 0
M  V30 751 N 67.9926 0.231505 -1.5589 0
M  V30 752 C 68.9026 1.308 -1.94752 0
M  V30 753 C 69.9186 1.51826 -0.849989 0
M  V30 754 O 71.0946 1.6515 -1.15271 0
M  V30 755 C 68.1596 2.63968 -2.24771 0
M  V30 756 C 67.2206 2.51331 -3.48039 0
M  V30 757 C 66.4536 3.78148 -3.76616 0
M  V30 758 O 66.6766 4.80722 -3.07022 0
M  V30 759 O 65.6106 3.75857 -4.70123 0
M  V30 760 H 69.4366 1.0083 -2.86474 0
M  V30 761 H 67.0216 0.433547 -1.42971 0
M  V30 762 H 68.9036 3.42633 -2.45318 0
M  V30 763 H 67.5786 2.9364 -1.36225 0
M  V30 764 H 66.4856 1.709 -3.32782 0
M  V30 765 H 67.8186 2.26601 -4.36936 0
M  V30 766 N 69.4707 1.49531 0.497807 0
M  V30 767 C 70.4027 1.62559 1.61578 0
M  V30 768 C 71.4157 0.508134 1.54667 0
M  V30 769 O 72.6047 0.780309 1.60541 0
M  V30 770 C 69.7047 1.56925 3.00379 0
M  V30 771 C 68.8777 2.84257 3.3244 0
M  V30 772 C 67.9367 2.71632 4.50669 0
M  V30 773 O 66.9627 3.4557 4.52294 0
M  V30 774 N 68.1647 1.83391 5.5077 0
M  V30 775 H 70.9297 2.58981 1.50828 0
M  V30 776 H 68.4907 1.4666 0.685743 0
M  V30 777 H 70.4827 1.46129 3.77397 0
M  V30 778 H 69.0527 0.683483 3.05037 0
M  V30 779 H 68.2727 3.09381 2.44289 0
M  V30 780 H 69.5607 3.68666 3.5066 0
M  V30 781 H 68.9587 1.22583 5.52259 0
M  V30 782 H 67.5157 1.78515 6.26878 0
M  V30 783 N 70.9488 -0.749086 1.3866 0
M  V30 784 C 72.1768 -1.53834 1.38358 0
M  V30 785 C 72.5918 -1.88783 -0.0255219 0
M  V30 786 O 71.9488 -1.53101 -0.993292 0
M  V30 787 C 71.9998 -2.83468 2.2434 0
M  V30 788 O 71.7208 -2.50008 3.5976 0
M  V30 789 C 73.2218 -3.7758 2.32267 0
M  V30 790 H 70.4418 -0.47585 0.473083 0
M  V30 791 H 72.9858 -0.926726 1.82297 0
M  V30 792 H 71.1408 -3.40995 1.83851 0
M  V30 793 H 71.5548 -3.33182 4.05081 0
M  V30 794 H 73.0288 -4.65478 2.96706 0
M  V30 795 H 73.5058 -4.18334 1.33765 0
M  V30 796 H 74.1118 -3.25976 2.73166 0
M  V30 797 N 72.4269 -1.23603 -0.977757 0
M  V30 798 C 73.6749 -1.06759 -1.71601 0
M  V30 799 C 73.9959 0.395929 -1.90938 0
M  V30 800 O 73.2659 1.28356 -1.47992 0
M  V30 801 H 71.8459 -0.392062 -0.635843 0
M  V30 802 H 74.5079 -1.55362 -1.1768 0
M  V30 803 H 73.6039 -1.55763 -2.70452 0
M  V30 804 N 73.905 1.17692 -1.04816 0
M  V30 805 C 74.835 2.23777 -0.666791 0
M  V30 806 C 75.816 1.66796 0.33361 0
M  V30 807 O 77.001 1.93039 0.212042 0
M  V30 808 C 74.131 3.47281 -0.0367933 0
M  V30 809 C 73.085 4.17059 -0.961546 0
M  V30 810 C 72.411 5.34342 -0.195626 0
M  V30 811 C 73.711 4.69713 -2.28402 0
M  V30 812 H 75.405 2.55933 -1.55367 0
M  V30 813 H 72.951 1.23019 -0.748484 0
M  V30 814 H 74.904 4.20706 0.241775 0
M  V30 815 H 73.628 3.14381 0.885004 0
M  V30 816 H 72.287 3.45541 -1.22462 0
M  V30 817 H 71.935 4.97692 0.728816 0
M  V30 818 H 71.635 5.81966 -0.811775 0
M  V30 819 H 73.159 6.10553 0.0757473 0
M  V30 820 H 74.573 5.34794 -2.06563 0
M  V30 821 H 72.97 5.279 -2.8538 0
M  V30 822 H 74.04 3.86726 -2.92525 0
M  V30 823 N 75.3831 0.828654 1.34056 0
M  V30 824 C 76.2931 0.256725 2.33191 0
M  V30 825 C 77.3091 -0.611898 1.62886 0
M  V30 826 O 78.4851 -0.51844 1.94613 0
M  V30 827 C 75.5501 -0.567238 3.42028 0
M  V30 828 C 74.6111 0.324458 4.28072 0
M  V30 829 C 73.8441 -0.460274 5.31712 0
M  V30 830 O 74.0671 -1.693 5.44696 0
M  V30 831 O 73.0011 0.160391 6.01686 0
M  V30 832 H 76.8271 1.07739 2.83947 0
M  V30 833 H 74.4121 0.59093 1.37217 0
M  V30 834 H 76.2941 -1.03582 4.08471 0
M  V30 835 H 74.9691 -1.36513 2.93506 0
M  V30 836 H 73.8761 0.840659 3.64532 0
M  V30 837 H 75.2091 1.08685 4.8005 0
M  V30 838 N 76.8612 -1.46375 0.584142 0
M  V30 839 C 77.8242 -2.28784 -0.138108 0
M  V30 840 C 78.8242 -1.38471 -0.817462 0
M  V30 841 O 80.0142 -1.60833 -0.669199 0
M  V30 842 C 77.1462 -3.18892 -1.20503 0
M  V30 843 H 78.3392 -2.94117 0.586127 0
M  V30 844 H 75.8922 -1.52509 0.342171 0
M  V30 845 H 76.6272 -2.58309 -1.96079 0
M  V30 846 H 76.4122 -3.85388 -0.722384 0
M  V30 847 H 77.9022 -3.80914 -1.71155 0
M  V30 848 N 78.3393 -0.321999 -1.54275 0
M  V30 849 C 79.5693 0.282642 -2.04658 0
M  V30 850 C 79.9773 1.46453 -1.19784 0
M  V30 851 O 79.3203 1.82367 -0.220932 0
M  V30 852 C 79.3823 0.781857 -3.50895 0
M  V30 853 C 79.0463 -0.277517 -4.56157 0
M  V30 854 C 80.0433 -1.11307 -5.07845 0
M  V30 855 C 77.7283 -0.425256 -5.00497 0
M  V30 856 C 79.7223 -2.08211 -6.02434 0
M  V30 857 C 77.4093 -1.39771 -5.94901 0
M  V30 858 C 78.4073 -2.2246 -6.45756 0
M  V30 859 O 78.0953 -3.18054 -7.38307 0
M  V30 860 H 77.8273 0.0622636 -0.673126 0
M  V30 861 H 80.3813 -0.465792 -2.00049 0
M  V30 862 H 78.6113 1.58118 -3.52896 0
M  V30 863 H 80.3003 1.30467 -3.84361 0
M  V30 864 H 81.0663 -1.00991 -4.74369 0
M  V30 865 H 76.9453 0.20847 -4.60528 0
M  V30 866 H 80.4893 -2.72791 -6.42052 0
M  V30 867 H 76.3863 -1.50152 -6.27794 0
M  V30 868 H 77.1543 -3.13275 -7.56175 0
M  V30 869 N 79.8174 1.5752 -0.0501392 0
M  V30 870 C 80.7804 2.1037 0.909786 0
M  V30 871 C 81.7804 1.02308 1.24056 0
M  V30 872 O 82.9704 1.28385 1.17741 0
M  V30 873 C 80.1024 2.58708 2.21998 0
M  V30 874 H 81.2954 2.96479 0.451665 0
M  V30 875 H 78.8484 1.55038 0.198248 0
M  V30 876 H 79.5834 1.75989 2.72394 0
M  V30 877 H 79.3684 3.37675 1.99295 0
M  V30 878 H 80.8584 2.99747 2.9076 0
M  V30 879 N 81.2955 -0.223234 1.56011 0
M  V30 880 C 82.2255 -1.27988 1.95298 0
M  V30 881 C 83.2065 -1.48976 0.820979 0
M  V30 882 O 84.3915 -1.61188 1.08315 0
M  V30 883 C 81.5215 -2.63 2.26822 0
M  V30 884 C 80.4755 -2.56671 3.42497 0
M  V30 885 C 79.8015 -3.95697 3.59622 0
M  V30 886 C 81.1015 -2.11601 4.77517 0
M  V30 887 H 82.7955 -0.953525 2.8381 0
M  V30 888 H 80.3415 -0.457244 1.36548 0
M  V30 889 H 82.2945 -3.37077 2.52898 0
M  V30 890 H 81.0185 -2.9732 1.35161 0
M  V30 891 H 79.6775 -1.85051 3.16467 0
M  V30 892 H 79.3255 -4.27322 2.6534 0
M  V30 893 H 79.0255 -3.92345 4.37424 0
M  V30 894 H 80.5495 -4.71438 3.88044 0
M  V30 895 H 81.9635 -2.7542 5.02809 0
M  V30 896 H 80.3605 -2.19311 5.5859 0
M  V30 897 H 81.4305 -1.06824 4.72987 0
M  V30 898 N 82.7736 -1.49793 -0.48987 0
M  V30 899 C 84.0216 -1.59525 -1.24081 0
M  V30 900 C 84.3426 -0.288953 -1.92847 0
M  V30 901 O 83.6126 0.692436 -1.83254 0
M  V30 902 H 82.1926 -0.587796 -0.460983 0
M  V30 903 H 84.8546 -1.86477 -0.566778 0
M  V30 904 H 83.9506 -2.39696 -1.99881 0
M  V30 905 N 84.2517 0.741722 -1.39055 0
M  V30 906 C 85.1817 1.869 -1.39966 0
M  V30 907 C 86.1627 1.6804 -0.26392 0
M  V30 908 O 87.3477 1.88458 -0.468755 0
M  V30 909 C 84.4777 3.24572 -1.23574 0
M  V30 910 C 83.4317 3.58056 -2.34477 0
M  V30 911 C 82.7577 4.94593 -2.0318 0
M  V30 912 C 84.0577 3.61716 -3.76774 0
M  V30 913 H 85.7517 1.86395 -2.34302 0
M  V30 914 H 83.2977 0.895361 -1.1278 0
M  V30 915 H 85.2507 4.031 -1.22834 0
M  V30 916 H 83.9747 3.25587 -0.257045 0
M  V30 917 H 82.6337 2.81854 -2.34423 0
M  V30 918 H 82.2817 4.92181 -1.03765 0
M  V30 919 H 81.9817 5.17964 -2.77465 0
M  V30 920 H 83.5057 5.75486 -2.04079 0
M  V30 921 H 84.9197 4.30335 -3.78794 0
M  V30 922 H 83.3167 3.96603 -4.50362 0
M  V30 923 H 84.3867 2.61672 -4.08235 0
M  V30 924 N 85.7298 1.2412 0.971189 0
M  V30 925 C 87.0068 0.986867 1.6888 0
M  V30 926 C 87.3868 -0.491857 2.0529 0
M  V30 927 O 86.7348 -1.46531 1.75331 0
M  V30 928 C 86.9448 1.9063 2.92338 0
M  V30 929 C 88.2928 2.17515 3.64654 0
M  V30 930 O 89.3168 1.88254 3.02388 0
M  V30 931 O 88.1758 2.6719 4.7673 0
M  V30 932 H 85.2698 0.372944 0.738134 0
M  V30 933 H 87.8158 1.35203 1.02559 0
M  V30 934 H 86.5878 2.90552 2.62097 0
M  V30 935 H 86.2108 1.54408 3.66393 0
M  V30 936 N 87.2079 -1.17134 1.05439 0
M  V30 937 C 88.4359 -1.91372 0.786414 0
M  V30 938 C 88.8509 -1.76955 -0.658202 0
M  V30 939 O 88.2079 -1.10838 -1.44987 0
M  V30 940 C 88.2589 -3.42356 1.1608 0
M  V30 941 O 87.9799 -3.56332 2.54871 0
M  V30 942 C 89.4809 -4.33663 0.919322 0
M  V30 943 H 86.7009 -0.607118 0.285743 0
M  V30 944 H 89.2449 -1.48525 1.40572 0
M  V30 945 H 87.3999 -3.82939 0.586191 0
M  V30 946 H 87.8139 -4.49896 2.69618 0
M  V30 947 H 89.2879 -5.38099 1.231 0
M  V30 948 H 89.7649 -4.38959 -0.145359 0
M  V30 949 H 90.3709 -3.98796 1.47789 0
M  V30 950 N 88.686 -0.835752 -1.33615 0
M  V30 951 C 89.633 -0.26473 -2.29277 0
M  V30 952 C 90.603 0.617712 -1.54187 0
M  V30 953 O 91.788 0.556641 -1.825 0
M  V30 954 C 88.928 0.556777 -3.40579 0
M  V30 955 C 88.041 -0.349339 -4.30585 0
M  V30 956 C 87.176 0.482969 -5.29 0
M  V30 957 C 86.215 -0.421732 -6.10645 0
M  V30 958 N 85.352 0.372262 -7.01112 0
M  V30 959 H 90.192 -1.08582 -2.77514 0
M  V30 960 H 87.729 -0.546927 -1.36554 0
M  V30 961 H 89.687 1.04852 -4.03809 0
M  V30 962 H 88.317 1.34286 -2.93542 0
M  V30 963 H 87.369 -0.959372 -3.68104 0
M  V30 964 H 88.681 -1.04445 -4.87742 0
M  V30 965 H 87.835 1.03866 -5.97743 0
M  V30 966 H 86.574 1.21153 -4.72412 0
M  V30 967 H 85.579 -0.989464 -5.40823 0
M  V30 968 H 86.804 -1.14861 -6.69316 0
M  V30 969 H 84.75 1.08426 -6.46977 0
M  V30 970 H 84.667 -0.264198 -7.55538 0
M  V30 971 H 85.935 0.910293 -7.74167 0
M  V30 972 N 90.1641 1.46063 -0.591896 0
M  V30 973 C 91.1121 2.32124 0.148739 0
M  V30 974 C 92.1061 1.45035 0.875286 0
M  V30 975 O 93.3121 1.61609 0.792632 0
M  V30 976 H 89.6871 0.749024 0.066832 0
M  V30 977 H 91.6581 2.92392 -0.595783 0
M  V30 978 C 90.4071 3.28373 1.1431 0
M  V30 979 H 89.7301 3.95371 0.59346 0
M  V30 980 H 91.1701 3.91352 1.63155 0
M  V30 981 C 89.6291 2.54393 2.20875 0
M  V30 982 O 90.1591 2.31373 3.28374 0
M  V30 983 N 88.3651 2.14797 1.95731 0
M  V30 984 H 87.9121 2.33719 1.08319 0
M  V30 985 H 87.8701 1.65619 2.67241 0
M  V30 986 N 91.6422 0.330177 1.54103 0
M  V30 987 C 92.8722 -0.271784 2.04805 0
M  V30 988 C 93.2802 -1.45816 1.20559 0
M  V30 989 O 92.6232 -1.82247 0.2306 0
M  V30 990 C 92.6852 -0.763238 3.51305 0
M  V30 991 C 92.3492 0.301705 4.56003 0
M  V30 992 C 93.3462 1.13999 5.07248 0
M  V30 993 C 91.0312 0.451793 5.00264 0
M  V30 994 C 93.0252 2.11402 6.01322 0
M  V30 995 C 90.7122 1.42924 5.94151 0
M  V30 996 C 91.7102 2.25882 6.44567 0
M  V30 997 O 91.3982 3.21965 7.3661 0
M  V30 998 H 91.1302 -0.058693 0.673447 0
M  V30 999 H 93.6842 0.476395 1.99799 0
M  V30 1000 H 91.9142 -1.56244 3.5373 0
M  V30 1001 H 93.6032 -1.28427 3.85047 0
M  V30 1002 H 94.3692 1.03505 4.73827 0
M  V30 1003 H 90.2482 -0.184044 4.60632 0
M  V30 1004 H 93.7922 2.76192 6.40596 0
M  V30 1005 H 89.6892 1.53479 6.26988 0
M  V30 1006 H 90.4572 3.17281 7.54503 0
M  V30 1007 N 93.1203 -1.57491 0.0584922 0
M  V30 1008 C 94.3673 -1.92978 -0.613648 0
M  V30 1009 C 94.6953 -0.937461 -1.70417 0
M  V30 1010 O 93.9503 0.049078 -1.95638 0
M  V30 1011 C 94.2493 -3.3513 -1.24188 0
M  V30 1012 C 93.9153 -4.50037 -0.278826 0
M  V30 1013 C 92.5773 -4.81198 -0.0138447 0
M  V30 1014 C 94.9293 -5.19807 0.380777 0
M  V30 1015 C 92.2573 -5.79473 0.918052 0
M  V30 1016 C 94.6093 -6.19079 1.30091 0
M  V30 1017 C 93.2733 -6.48665 1.57449 0
M  V30 1018 H 92.5433 -0.706157 -0.22455 0
M  V30 1019 H 95.1903 -1.91082 0.126533 0
M  V30 1020 H 93.4953 -3.33429 -2.05749 0
M  V30 1021 H 95.1923 -3.59871 -1.769 0
M  V30 1022 H 91.7823 -4.25726 -0.495539 0
M  V30 1023 H 95.9663 -4.95939 0.189158 0
M  V30 1024 H 91.2223 -6.00727 1.1374 0
M  V30 1025 H 95.3963 -6.7225 1.81804 0
M  V30 1026 H 93.0233 -7.24628 2.29822 0
M  V30 1027 N 94.5984 0.214957 -1.56127 0
M  V30 1028 C 95.5454 1.26642 -1.92952 0
M  V30 1029 C 96.5154 1.46244 -0.78753 0
M  V30 1030 O 97.7004 1.59704 -1.04399 0
M  V30 1031 C 94.8404 2.6104 -2.25726 0
M  V30 1032 C 93.9534 2.49183 -3.52891 0
M  V30 1033 C 93.0884 3.76149 -3.7508 0
M  V30 1034 C 92.1274 3.59041 -4.95738 0
M  V30 1035 N 91.2644 4.77972 -5.14283 0
M  V30 1036 H 96.1044 0.945384 -2.82607 0
M  V30 1037 H 93.6414 0.455489 -1.3987 0
M  V30 1038 H 95.5994 3.39313 -2.42739 0
M  V30 1039 H 94.2294 2.91227 -1.39236 0
M  V30 1040 H 93.2814 1.6231 -3.44034 0
M  V30 1041 H 94.5934 2.32466 -4.41318 0
M  V30 1042 H 93.7474 4.62865 -3.92226 0
M  V30 1043 H 92.4864 3.95799 -2.84947 0
M  V30 1044 H 91.4914 2.7071 -4.78535 0
M  V30 1045 H 92.7164 3.40856 -5.87362 0
M  V30 1046 H 90.6624 4.97923 -4.27093 0
M  V30 1047 H 90.5794 4.64006 -5.96853 0
M  V30 1048 H 91.8474 5.66096 -5.35869 0
M  V30 1049 N 96.0765 1.50051 0.48192 0
M  V30 1050 C 97.3535 1.51009 1.2432 0
M  V30 1051 C 97.7335 0.248587 2.09631 0
M  V30 1052 O 97.0815 -0.768409 2.15192 0
M  V30 1053 C 97.2915 2.79981 2.08355 0
M  V30 1054 C 98.6395 3.3022 2.66908 0
M  V30 1055 O 99.6635 2.81228 2.18607 0
M  V30 1056 O 98.5225 4.15595 3.54884 0
M  V30 1057 H 95.6165 0.605239 0.563573 0
M  V30 1058 H 98.1625 1.62332 0.494627 0
M  V30 1059 H 96.9345 3.63275 1.45419 0
M  V30 1060 H 96.5575 2.7161 2.90368 0
M  V30 1061 N 97.5546 -0.734337 1.39446 0
M  V30 1062 C 98.4846 -1.86155 1.40955 0
M  V30 1063 C 99.4656 -1.67898 0.272827 0
M  V30 1064 O 100.651 -1.88207 0.478743 0
M  V30 1065 C 97.7806 -3.23912 1.25294 0
M  V30 1066 C 96.7346 -3.56808 2.36373 0
M  V30 1067 C 96.0606 -4.93508 2.058 0
M  V30 1068 C 97.3606 -3.59713 3.78687 0
M  V30 1069 H 99.0546 -1.8515 2.35287 0
M  V30 1070 H 96.6006 -0.889367 1.13253 0
M  V30 1071 H 98.5536 -4.02443 1.2497 0
M  V30 1072 H 97.2776 -3.25446 0.274308 0
M  V30 1073 H 95.9366 -2.80606 2.35914 0
M  V30 1074 H 95.5846 -4.91623 1.06374 0
M  V30 1075 H 95.2846 -5.16486 2.80208 0
M  V30 1076 H 96.8086 -5.74396 2.07128 0
M  V30 1077 H 98.2226 -4.2832 3.81071 0
M  V30 1078 H 96.6196 -3.94209 4.52459 0
M  V30 1079 H 97.6896 -2.59504 4.09617 0
M  V30 1080 N 99.0327 -1.24633 -0.964593 0
M  V30 1081 C 100.444 -1.08045 -1.5226 0
M  V30 1082 C 100.795 0.347116 -1.93105 0
M  V30 1083 O 99.9197 1.23588 -1.77637 0
M  V30 1084 C 100.515 -1.95514 -2.76695 0
M  V30 1085 C 99.0737 -1.8314 -3.28841 0
M  V30 1086 C 98.2207 -1.90262 -2.01732 0
M  V30 1087 H 101.172 -1.38064 -0.782553 0
M  V30 1088 H 101.193 -1.48925 -3.50145 0
M  V30 1089 H 100.705 -2.99407 -2.46936 0
M  V30 1090 H 98.8057 -0.82092 -3.63444 0
M  V30 1091 H 98.9187 -2.67406 -3.97531 0
M  V30 1092 H 97.2827 -1.34027 -2.16584 0
M  V30 1093 H 98.0657 -2.9574 -1.74334 0
M  V30 1094 N 100.511 1.16574 -1.06058 0
M  V30 1095 C 101.458 2.20883 -0.669263 0
M  V30 1096 C 102.428 1.62729 0.332918 0
M  V30 1097 O 103.613 1.895 0.222346 0
M  V30 1098 C 100.753 3.45049 -0.0593572 0
M  V30 1099 C 99.8658 4.17458 -1.11143 0
M  V30 1100 C 99.0008 5.29135 -0.467916 0
M  V30 1101 C 98.0398 5.93343 -1.50369 0
M  V30 1102 N 97.1768 6.96516 -0.883706 0
M  V30 1103 H 102.017 2.53709 -1.5632 0
M  V30 1104 H 99.5538 1.24616 -0.781625 0
M  V30 1105 H 101.512 4.16033 0.311771 0
M  V30 1106 H 100.142 3.12781 0.797992 0
M  V30 1107 H 99.1938 3.45101 -1.60029 0
M  V30 1108 H 100.506 4.61307 -1.89731 0
M  V30 1109 H 99.6598 6.06684 -0.0436871 0
M  V30 1110 H 98.3988 4.86443 0.349864 0
M  V30 1111 H 97.4038 5.14517 -1.93784 0
M  V30 1112 H 98.6288 6.38114 -2.32352 0
M  V30 1113 H 96.5748 6.55943 -0.086595 0
M  V30 1114 H 96.4918 7.38723 -1.607 0
M  V30 1115 H 97.7598 7.77993 -0.484543 0
M  V30 1116 N 101.989 0.842826 1.3317 0
M  V30 1117 C 102.952 0.284065 2.27433 0
M  V30 1118 C 103.952 -0.54948 1.5112 0
M  V30 1119 O 105.142 -0.362699 1.70382 0
M  V30 1120 C 102.274 -0.599384 3.35589 0
M  V30 1121 H 103.467 1.11589 2.78366 0
M  V30 1122 H 101.02 0.616221 1.4364 0
M  V30 1123 H 101.755 -1.45349 2.89904 0
M  V30 1124 H 101.54 -0.00291266 3.921 0
M  V30 1125 H 103.03 -0.983488 4.05854 0
M  V30 1126 N 103.467 -1.45747 0.599634 0
M  V30 1127 C 104.417 -2.27538 -0.145107 0
M  V30 1128 C 105.401 -1.3686 -0.846055 0
M  V30 1129 O 106.593 -1.6091 -0.737357 0
M  V30 1130 C 103.722 -3.23569 -1.14708 0
M  V30 1131 C 102.808 -4.21734 -0.447383 0
M  V30 1132 N 103.199 -5.03257 0.506535 0
M  V30 1133 C 101.497 -4.40536 -0.695966 0
M  V30 1134 C 102.198 -5.74426 0.917068 0
M  V30 1135 N 101.174 -5.42966 0.26253 0
M  V30 1136 H 104.976 -2.87965 0.587672 0
M  V30 1137 H 102.49 -1.56803 0.422697 0
M  V30 1138 H 104.487 -3.8089 -1.69495 0
M  V30 1139 H 103.147 -2.64702 -1.8805 0
M  V30 1140 H 104.158 -5.10319 0.882899 0
M  V30 1141 H 100.835 -3.92802 -1.41467 0
M  V30 1142 H 102.225 -6.4995 1.70338 0
M  V30 1143 N 104.945 -0.338344 -1.53925 0
M  V30 1144 C 106.173 0.261298 -2.05243 0
M  V30 1145 C 106.588 1.44625 -1.21363 0
M  V30 1146 O 105.945 1.80811 -0.247736 0
M  V30 1147 C 105.996 0.681412 -3.5502 0
M  V30 1148 O 105.717 -0.456414 -4.35716 0
M  V30 1149 C 107.218 1.34232 -4.22489 0
M  V30 1150 H 104.438 0.0513685 -0.669031 0
M  V30 1151 H 106.982 -0.488822 -1.98572 0
M  V30 1152 H 105.137 1.38148 -3.61931 0
M  V30 1153 H 105.551 -0.122564 -5.24357 0
M  V30 1154 H 107.025 1.58708 -5.28693 0
M  V30 1155 H 107.502 2.29426 -3.74514 0
M  V30 1156 H 108.108 0.684424 -4.19757 0
M  V30 1157 N 106.423 1.57458 -0.0668435 0
M  V30 1158 C 107.386 2.11323 0.887422 0
M  V30 1159 C 108.386 1.03618 1.22964 0
M  V30 1160 O 109.576 1.29626 1.16373 0
M  V30 1161 C 106.708 2.61048 2.19242 0
M  V30 1162 H 107.901 2.96942 0.420194 0
M  V30 1163 H 105.454 1.55239 0.181793 0
M  V30 1164 H 106.189 1.78868 2.70512 0
M  V30 1165 H 105.974 3.39769 1.95702 0
M  V30 1166 H 107.464 3.02814 2.87565 0
M  V30 1167 N 107.901 -0.206675 1.56239 0
M  V30 1168 C 109.148 -0.928842 1.79941 0
M  V30 1169 C 109.476 -1.83734 0.638131 0
M  V30 1170 O 108.731 -1.92039 -0.376746 0
M  V30 1171 C 109.03 -1.78675 3.09532 0
M  V30 1172 C 108.696 -1.03022 4.38973 0
M  V30 1173 C 107.358 -0.821302 4.74139 0
M  V30 1174 C 109.71 -0.497081 5.18824 0
M  V30 1175 C 107.038 -0.0675719 5.86661 0
M  V30 1176 C 109.39 0.24338 6.32132 0
M  V30 1177 C 108.054 0.463422 6.65889 0
M  V30 1178 H 107.324 -0.339887 0.658451 0
M  V30 1179 H 109.971 -0.195977 1.90495 0
M  V30 1180 H 108.276 -2.58794 2.94165 0
M  V30 1181 H 109.973 -2.34792 3.25075 0
M  V30 1182 H 106.563 -1.20306 4.11369 0
M  V30 1183 H 110.747 -0.645921 4.92079 0
M  V30 1184 H 106.003 0.112995 6.11296 0
M  V30 1185 H 110.177 0.66393 6.93228 0
M  V30 1186 H 107.804 1.04938 7.52922 0
M  V30 1187 N 109.379 -1.50304 -0.473955 0
M  V30 1188 C 110.289 -1.7174 -1.5982 0
M  V30 1189 C 111.305 -0.600457 -1.63311 0
M  V30 1190 O 112.481 -0.878441 -1.81233 0
M  V30 1191 C 109.546 -1.80427 -2.96052 0
M  V30 1192 C 108.607 -3.04148 -3.02972 0
M  V30 1193 C 107.84 -3.12411 -4.32706 0
M  V30 1194 O 108.063 -2.27542 -5.23049 0
M  V30 1195 O 106.997 -4.05113 -4.45159 0
M  V30 1196 H 110.823 -2.67035 -1.44657 0
M  V30 1197 H 108.408 -1.34366 -0.653148 0
M  V30 1198 H 110.29 -1.88338 -3.7697 0
M  V30 1199 H 108.965 -0.883156 -3.11419 0
M  V30 1200 H 107.872 -3.0174 -2.21142 0
M  V30 1201 H 109.205 -3.95829 -2.92541 0
M  V30 1202 N 110.857 0.726932 -1.39834 0
M  V30 1203 C 112.105 1.4837 -1.37225 0
M  V30 1204 C 112.426 1.94979 0.0284857 0
M  V30 1205 O 111.696 1.69555 0.981213 0
M  V30 1206 H 110.276 0.55043 -0.505011 0
M  V30 1207 H 112.938 0.862468 -1.74778 0
M  V30 1208 H 112.034 2.36198 -2.04003 0
M  V30 1209 N 112.336 1.25143 0.95797 0
M  V30 1210 C 113.299 1.05321 2.03569 0
M  V30 1211 C 114.299 0.007152 1.60798 0
M  V30 1212 O 115.489 0.24903 1.72411 0
M  V30 1213 C 112.621 0.598394 3.35607 0
M  V30 1214 H 113.814 2.00986 2.22586 0
M  V30 1215 H 111.367 1.07502 1.13459 0
M  V30 1216 H 112.102 -0.361014 3.22284 0
M  V30 1217 H 111.887 1.35351 3.67998 0
M  V30 1218 H 113.377 0.48104 4.1482 0
M  V30 1219 N 113.814 -1.1601 1.06675 0
M  V30 1220 C 114.744 -2.22688 0.702307 0
M  V30 1221 C 115.725 -1.67306 -0.307032 0
M  V30 1222 O 116.91 -1.93352 -0.181305 0
M  V30 1223 C 114.04 -3.47178 0.092038 0
M  V30 1224 C 112.994 -4.15477 1.02777 0
M  V30 1225 C 112.32 -5.33963 0.28061 0
M  V30 1226 C 113.62 -4.66019 2.35846 0
M  V30 1227 H 115.314 -2.53429 1.59419 0
M  V30 1228 H 112.86 -1.21813 0.767961 0
M  V30 1229 H 114.813 -4.21037 -0.174814 0
M  V30 1230 H 113.537 -3.15749 -0.834877 0
M  V30 1231 H 112.196 -3.43549 1.27944 0
M  V30 1232 H 111.844 -4.98788 -0.649545 0
M  V30 1233 H 111.544 -5.806 0.904258 0
M  V30 1234 H 113.068 -6.10596 0.021396 0
M  V30 1235 H 114.482 -5.3144 2.15045 0
M  V30 1236 H 112.879 -5.23293 2.93743 0
M  V30 1237 H 113.949 -3.82023 2.98641 0
M  V30 1238 N 115.292 -0.849877 -1.32721 0
M  V30 1239 C 116.24 -0.279745 -2.30912 0
M  V30 1240 C 117.234 0.594278 -1.58634 0
M  V30 1241 O 118.44 0.482613 -1.73409 0
M  V30 1242 H 114.815 -0.0717521 -0.748569 0
M  V30 1243 H 116.786 -1.12222 -2.76494 0
M  V30 1244 C 115.535 0.521108 -3.43773 0
M  V30 1245 H 114.858 -0.142141 -3.99547 0
M  V30 1246 H 116.298 0.885693 -4.14646 0
M  V30 1247 C 114.757 1.70442 -2.90605 0
M  V30 1248 O 115.287 2.8034 -2.87702 0
M  V30 1249 N 113.493 1.52991 -2.47067 0
M  V30 1250 H 113.04 0.635914 -2.49628 0
M  V30 1251 H 112.998 2.32311 -2.11847 0
M  V30 1252 N 116.77 1.45427 -0.607355 0
M  V30 1253 C 118.018 2.01841 -0.102253 0
M  V30 1254 C 118.339 1.47832 1.27164 0
M  V30 1255 O 117.609 0.672497 1.83995 0
M  V30 1256 H 116.189 0.746188 -0.0348101 0
M  V30 1257 H 118.851 1.78229 -0.7887 0
M  V30 1258 H 117.947 3.12057 -0.0518585 0
M  V30 1259 N 118.248 0.346503 1.53744 0
M  V30 1260 C 119.181 -0.552023 2.21423 0
M  V30 1261 C 120.159 -1.09798 1.19929 0
M  V30 1262 O 121.343 -1.1577 1.4876 0
M  V30 1263 C 118.47 -1.75972 2.89398 0
M  V30 1264 C 117.516 -1.34295 4.04805 0
M  V30 1265 S 118.349 -0.360263 5.34287 0
M  V30 1266 C 119.505 -1.57473 6.05767 0
M  V30 1267 H 119.738 0.0228119 2.97291 0
M  V30 1268 H 117.271 0.130579 1.53847 0
M  V30 1269 H 119.229 -2.45256 3.2918 0
M  V30 1270 H 117.89 -2.30578 2.1329 0
M  V30 1271 H 117.083 -2.24349 4.51313 0
M  V30 1272 H 116.685 -0.729555 3.66815 0
M  V30 1273 H 118.977 -2.50875 6.29339 0
M  V30 1274 H 119.92 -1.15138 6.98676 0
M  V30 1275 H 120.328 -1.77212 5.35963 0
M  V30 1276 N 119.726 -1.57421 0.075193 0
M  V30 1277 C 120.954 -1.97946 -0.602076 0
M  V30 1278 C 121.369 -0.953674 -1.62943 0
M  V30 1279 O 120.726 0.0592551 -1.82404 0
M  V30 1280 C 120.777 -3.38546 -1.26762 0
M  V30 1281 O 120.498 -4.37195 -0.281376 0
M  V30 1282 C 121.999 -3.93966 -2.03239 0
M  V30 1283 H 119.219 -0.650918 -0.162931 0
M  V30 1284 H 121.763 -2.03959 0.148601 0
M  V30 1285 H 119.918 -3.33609 -1.96936 0
M  V30 1286 H 120.332 -5.18975 -0.759267 0
M  V30 1287 H 121.806 -4.94555 -2.45193 0
M  V30 1288 H 122.283 -3.30693 -2.8903 0
M  V30 1289 H 122.889 -4.02315 -1.37924 0
M  V30 1290 N 121.204 0.198386 -1.56346 0
M  V30 1291 C 122.451 0.919286 -1.80431 0
M  V30 1292 C 122.779 1.83393 -0.647866 0
M  V30 1293 O 122.034 1.92236 0.366556 0
M  V30 1294 C 122.333 1.77031 -3.10475 0
M  V30 1295 C 121.999 1.00693 -4.39513 0
M  V30 1296 C 120.661 0.796145 -4.74568 0
M  V30 1297 C 123.013 0.469559 -5.19081 0
M  V30 1298 C 120.341 0.0364588 -5.86689 0
M  V30 1299 C 122.693 -0.2769 -6.31994 0
M  V30 1300 C 121.357 -0.49873 -6.65634 0
M  V30 1301 H 120.627 0.336391 -0.660244 0
M  V30 1302 H 123.274 0.185872 -1.90596 0
M  V30 1303 H 121.579 2.5723 -2.95533 0
M  V30 1304 H 123.276 2.33065 -3.26315 0
M  V30 1305 H 119.866 1.18122 -4.12001 0
M  V30 1306 H 124.05 0.619816 -4.92414 0
M  V30 1307 H 119.306 -0.145412 -6.11227 0
M  V30 1308 H 123.48 -0.700684 -6.92866 0
M  V30 1309 H 121.107 -1.0893 -7.52355 0
M  V30 1310 N 122.682 1.50554 0.465978 0
M  V30 1311 C 123.912 1.65323 1.23903 0
M  V30 1312 C 124.32 0.338051 1.86155 0
M  V30 1313 O 123.663 -0.690518 1.70228 0
M  V30 1314 C 123.725 2.69048 2.3844 0
M  V30 1315 C 123.389 4.12462 1.96784 0
M  V30 1316 C 124.386 4.98168 1.48745 0
M  V30 1317 C 122.071 4.58407 2.05349 0
M  V30 1318 C 124.065 6.27868 1.0982 0
M  V30 1319 C 121.752 5.88112 1.66035 0
M  V30 1320 C 122.75 6.72668 1.18349 0
M  V30 1321 O 122.438 7.99951 0.795825 0
M  V30 1322 H 122.17 0.558629 0.38067 0
M  V30 1323 H 124.724 1.97561 0.562022 0
M  V30 1324 H 122.954 2.32062 3.09328 0
M  V30 1325 H 124.643 2.72985 3.0039 0
M  V30 1326 H 125.409 4.63885 1.41546 0
M  V30 1327 H 121.288 3.92735 2.41414 0
M  V30 1328 H 124.832 6.93819 0.725293 0
M  V30 1329 H 120.729 6.21914 1.72895 0
M  V30 1330 H 121.497 8.13265 0.924222 0
M  V30 1331 N 124.16 -0.719506 1.40217 0
M  V30 1332 C 125.406 -1.48152 1.38488 0
M  V30 1333 C 125.739 -1.94195 -0.0141867 0
M  V30 1334 O 125.014 -1.67884 -0.982096 0
M  V30 1335 C 125.297 -2.71035 2.37091 0
M  V30 1336 C 125.15 -2.30912 3.86005 0
M  V30 1337 C 126.469 -3.73182 2.33288 0
M  V30 1338 H 123.588 -0.537395 0.504357 0
M  V30 1339 H 126.23 -0.821472 1.71324 0
M  V30 1340 H 124.38 -3.27352 2.0922 0
M  V30 1341 H 126.052 -1.80107 4.24687 0
M  V30 1342 H 124.295 -1.62958 4.02029 0
M  V30 1343 H 124.966 -3.18978 4.50508 0
M  V30 1344 H 127.442 -3.26485 2.57966 0
M  V30 1345 H 126.318 -4.56806 3.04334 0
M  V30 1346 H 126.579 -4.21202 1.34317 0
M  V30 1347 N 125.638 -1.25649 -0.95132 0
M  V30 1348 C 126.886 -1.10375 -1.69298 0
M  V30 1349 C 127.207 0.355339 -1.91735 0
M  V30 1350 O 126.477 1.25188 -1.50681 0
M  V30 1351 H 125.057 -0.405461 -0.627384 0
M  V30 1352 H 127.719 -1.57823 -1.14358 0
M  V30 1353 H 126.815 -1.61465 -2.67087 0
M  V30 1354 N 127.117 1.15442 -1.07289 0
M  V30 1355 C 128.047 2.22312 -0.714107 0
M  V30 1356 C 129.028 1.67467 0.298155 0
M  V30 1357 O 130.213 1.93445 0.171048 0
M  V30 1358 C 127.343 3.47124 -0.110448 0
M  V30 1359 C 126.297 4.14926 -1.04979 0
M  V30 1360 C 125.623 5.33807 -0.308924 0
M  V30 1361 C 126.923 4.64762 -2.38314 0
M  V30 1362 H 128.617 2.5258 -1.6076 0
M  V30 1363 H 126.163 1.21404 -0.77441 0
M  V30 1364 H 128.116 4.21124 0.152482 0
M  V30 1365 H 126.84 3.16187 0.81812 0
M  V30 1366 H 125.499 3.42866 -1.29764 0
M  V30 1367 H 125.147 4.99126 0.623084 0
M  V30 1368 H 124.847 5.80113 -0.935036 0
M  V30 1369 H 126.371 6.10576 -0.0537771 0
M  V30 1370 H 127.785 5.30292 -2.1786 0
M  V30 1371 H 126.182 5.21728 -2.96514 0
M  V30 1372 H 127.252 3.80434 -3.00663 0
M  V30 1373 N 128.595 0.856903 1.32268 0
M  V30 1374 C 129.527 0.260412 2.27716 0
M  V30 1375 C 130.54 -0.569137 1.52528 0
M  V30 1376 O 131.729 -0.39326 1.74114 0
M  V30 1377 C 128.829 -0.650477 3.32599 0
M  V30 1378 C 128.002 0.14372 4.37164 0
M  V30 1379 C 127.061 -0.69328 5.21613 0
M  V30 1380 O 126.087 -0.12599 5.69061 0
M  V30 1381 N 127.289 -2.00761 5.44679 0
M  V30 1382 H 130.054 1.08059 2.79541 0
M  V30 1383 H 127.615 0.717103 1.45152 0
M  V30 1384 H 129.607 -1.21581 3.86005 0
M  V30 1385 H 128.177 -1.37133 2.80915 0
M  V30 1386 H 127.397 0.890486 3.8401 0
M  V30 1387 H 128.685 0.68915 5.04111 0
M  V30 1388 H 128.083 -2.49181 5.07863 0
M  V30 1389 H 126.64 -2.52103 6.01072 0
M  V30 1390 N 130.073 -1.45103 0.615059 0
M  V30 1391 C 131.036 -2.29025 -0.0895485 0
M  V30 1392 C 132.036 -1.40174 -0.787906 0
M  V30 1393 O 133.226 -1.62217 -0.634933 0
M  V30 1394 C 130.358 -3.21376 -1.13711 0
M  V30 1395 H 131.551 -2.92807 0.648382 0
M  V30 1396 H 129.104 -1.51749 0.374444 0
M  V30 1397 H 129.839 -2.6241 -1.90556 0
M  V30 1398 H 129.624 -3.86834 -0.640475 0
M  V30 1399 H 131.114 -3.84459 -1.63036 0
M  V30 1400 N 131.551 -0.354651 -1.53558 0
M  V30 1401 C 132.461 0.50515 -2.29097 0
M  V30 1402 C 133.477 1.10223 -1.34636 0
M  V30 1403 O 134.653 1.11553 -1.67684 0
M  V30 1404 C 131.718 1.63479 -3.05738 0
M  V30 1405 C 130.779 1.06636 -4.15845 0
M  V30 1406 C 130.012 2.14217 -4.88822 0
M  V30 1407 O 130.235 3.35137 -4.61562 0
M  V30 1408 O 129.169 1.77887 -5.75013 0
M  V30 1409 H 132.995 -0.109237 -3.03503 0
M  V30 1410 H 130.58 -0.119357 -1.48922 0
M  V30 1411 H 132.462 2.2918 -3.5363 0
M  V30 1412 H 131.137 2.23478 -2.34178 0
M  V30 1413 H 130.044 0.373565 -3.7223 0
M  V30 1414 H 131.377 0.511081 -4.89539 0
M  V30 1415 N 133.029 1.57378 -0.0835403 0
M  V30 1416 C 134.306 1.85363 0.624507 0
M  V30 1417 C 134.686 0.978239 1.87066 0
M  V30 1418 O 134.034 0.0475908 2.2845 0
M  V30 1419 C 134.244 3.35795 0.950947 0
M  V30 1420 C 135.592 4.03581 1.31939 0
M  V30 1421 O 136.616 3.40609 1.04232 0
M  V30 1422 O 135.475 5.14672 1.83779 0
M  V30 1423 H 132.569 0.766162 0.311329 0
M  V30 1424 H 135.115 1.69307 -0.115362 0
M  V30 1425 H 133.887 3.91244 0.0663899 0
M  V30 1426 H 133.51 3.57154 1.74719 0
M  V30 1427 N 134.507 -0.190092 1.56449 0
M  V30 1428 C 135.755 -0.907908 1.80559 0
M  V30 1429 C 136.076 -1.83583 0.657438 0
M  V30 1430 O 135.346 -1.93203 -0.323924 0
M  V30 1431 H 133.926 -0.338247 0.666032 0
M  V30 1432 H 136.588 -0.194403 1.93928 0
M  V30 1433 H 135.684 -1.49604 2.73907 0
M  V30 1434 N 135.985 -1.50799 -0.457987 0
M  V30 1435 C 136.935 -1.67003 -1.55222 0
M  V30 1436 C 137.919 -0.52434 -1.52117 0
M  V30 1437 O 139.111 -0.779345 -1.58919 0
M  V30 1438 C 136.24 -1.77956 -2.93576 0
M  V30 1439 C 135.326 -2.98243 -3.01516 0
M  V30 1440 N 135.717 -4.21732 -2.79241 0
M  V30 1441 C 134.015 -2.97072 -3.32662 0
M  V30 1442 C 134.716 -5.02817 -2.92489 0
M  V30 1443 N 133.692 -4.37038 -3.23262 0
M  V30 1444 H 137.494 -2.60163 -1.36721 0
M  V30 1445 H 135.008 -1.48163 -0.664952 0
M  V30 1446 H 137.005 -1.87671 -3.72271 0
M  V30 1447 H 135.665 -0.859634 -3.13114 0
M  V30 1448 H 136.676 -4.51016 -2.54567 0
M  V30 1449 H 133.353 -2.14631 -3.58106 0
M  V30 1450 H 134.743 -6.11054 -2.79396 0
M  V30 1451 N 137.463 0.71206 -1.40597 0
M  V30 1452 C 138.709 1.47292 -1.40274 0
M  V30 1453 C 139.064 1.92399 -0.00576812 0
M  V30 1454 O 138.357 1.65507 0.965297 0
M  V30 1455 C 138.551 2.71039 -2.32965 0
M  V30 1456 C 138.38 2.38035 -3.81536 0
M  V30 1457 C 137.15 2.29203 -4.50327 0
M  V30 1458 C 139.348 2.02076 -4.72938 0
M  V30 1459 N 137.33 1.88911 -5.84111 0
M  V30 1460 C 138.701 1.72412 -5.95545 0
M  V30 1461 C 140.756 1.88742 -4.60739 0
M  V30 1462 C 139.459 1.30756 -7.07316 0
M  V30 1463 C 141.485 1.4849 -5.72455 0
M  V30 1464 C 140.847 1.19726 -6.94151 0
M  V30 1465 H 136.946 0.536919 -0.568544 0
M  V30 1466 H 139.53 0.825424 -1.76337 0
M  V30 1467 H 137.701 3.33533 -1.99023 0
M  V30 1468 H 139.433 3.37404 -2.23474 0
M  V30 1469 H 136.188 2.47059 -4.04053 0
M  V30 1470 H 136.612 1.71293 -6.54972 0
M  V30 1471 H 141.254 2.0964 -3.67166 0
M  V30 1472 H 138.972 1.08601 -8.00769 0
M  V30 1473 H 142.558 1.38747 -5.65014 0
M  V30 1474 H 141.438 0.890482 -7.79128 0
M  V30 1475 N 138.941 1.26152 0.944643 0
M  V30 1476 C 140.169 1.14259 1.72489 0
M  V30 1477 C 140.584 -0.302555 1.8636 0
M  V30 1478 O 139.941 -1.20741 1.36849 0
M  V30 1479 C 139.992 1.80266 3.13347 0
M  V30 1480 O 139.713 3.19133 3.00143 0
M  V30 1481 C 141.214 1.74283 4.07603 0
M  V30 1482 H 138.434 0.398051 0.540181 0
M  V30 1483 H 140.978 1.66706 1.18446 0
M  V30 1484 H 139.133 1.31766 3.64303 0
M  V30 1485 H 139.547 3.51744 3.89071 0
M  V30 1486 H 141.021 2.25111 5.04013 0
M  V30 1487 H 141.498 0.708631 4.33446 0
M  V30 1488 H 142.104 2.22319 3.62567 0
M  V30 1489 N 140.419 -1.14872 1.07899 0
M  V30 1490 C 141.667 -1.85422 0.803941 0
M  V30 1491 C 141.988 -1.83051 -0.67211 0
M  V30 1492 O 141.258 -1.27532 -1.48703 0
M  V30 1493 H 139.838 -0.686537 0.294408 0
M  V30 1494 H 142.5 -1.39226 1.3639 0
M  V30 1495 H 141.596 -2.90399 1.14346 0
M  V30 1496 N 141.898 -0.863906 -1.31812 0
M  V30 1497 C 143.175 -0.39275 -1.91616 0
M  V30 1498 C 143.555 1.12461 -1.7865 0
M  V30 1499 O 142.903 1.95045 -1.19037 0
M  V30 1500 C 143.113 -0.867385 -3.38049 0
M  V30 1501 C 144.461 -0.889966 -4.15168 0
M  V30 1502 O 145.485 -0.812635 -3.46806 0
M  V30 1503 O 144.344 -1.00079 -5.37258 0
M  V30 1504 H 141.438 -0.116358 -0.818773 0
M  V30 1505 H 143.984 -0.951418 -1.40521 0
M  V30 1506 H 142.756 -1.91081 -3.41473 0
M  V30 1507 H 142.379 -0.286687 -3.96565 0
M  V30 1508 N 143.376 1.44774 -0.622745 0
M  V30 1509 C 144.606 2.06187 -0.130532 0
M  V30 1510 C 145.014 1.46547 1.19669 0
M  V30 1511 O 144.357 0.579636 1.74316 0
M  V30 1512 C 144.419 3.59437 0.0674983 0
M  V30 1513 C 144.083 4.41496 -1.18026 0
M  V30 1514 C 145.08 4.75512 -2.102 0
M  V30 1515 C 142.765 4.82007 -1.41333 0
M  V30 1516 C 144.759 5.48912 -3.23998 0
M  V30 1517 C 142.446 5.55157 -2.55429 0
M  V30 1518 C 143.444 5.88528 -3.46589 0
M  V30 1519 O 143.132 6.60191 -4.58697 0
M  V30 1520 H 142.864 0.672045 -0.0730162 0
M  V30 1521 H 145.418 1.86768 -0.854802 0
M  V30 1522 H 143.648 3.77314 0.846825 0
M  V30 1523 H 145.337 4.02642 0.513209 0
M  V30 1524 H 146.103 4.4476 -1.93425 0
M  V30 1525 H 141.982 4.55457 -0.712709 0
M  V30 1526 H 145.526 5.74877 -3.95174 0
M  V30 1527 H 141.423 5.85324 -2.72151 0
M  V30 1528 H 142.191 6.78654 -4.57571 0
M  V30 1529 N 144.854 0.36279 1.53368 0
M  V30 1530 C 146.102 -0.227326 2.00817 0
M  V30 1531 C 146.423 -1.49511 1.25186 0
M  V30 1532 O 145.693 -1.92482 0.364348 0
M  V30 1533 H 144.273 -0.0869923 0.741917 0
M  V30 1534 H 146.935 0.488381 1.88682 0
M  V30 1535 H 146.031 -0.456273 3.08747 0
M  V30 1536 N 146.332 -1.57332 0.0918853 0
M  V30 1537 C 147.58 -1.93853 -0.571446 0
M  V30 1538 C 147.901 -0.974212 -1.6892 0
M  V30 1539 O 147.171 -0.0257254 -1.95883 0
M  V30 1540 H 145.751 -0.715666 -0.214082 0
M  V30 1541 H 148.413 -1.94287 0.154464 0
M  V30 1542 H 147.509 -2.96191 -0.983729 0
M  V30 1543 N 147.81 0.181792 -1.56548 0
M  V30 1544 C 149.221 0.745244 -1.71181 0
M  V30 1545 C 149.572 1.83262 -0.70068 0
M  V30 1546 O 148.697 2.15946 0.140154 0
M  V30 1547 C 149.292 1.35859 -3.10367 0
M  V30 1548 C 147.851 1.86898 -3.2672 0
M  V30 1549 C 146.998 0.743942 -2.67134 0
M  V30 1550 H 149.949 -0.0434661 -1.5864 0
M  V30 1551 H 149.97 2.22817 -3.08436 0
M  V30 1552 H 149.482 0.566948 -3.83937 0
M  V30 1553 H 147.583 2.68738 -2.5809 0
M  V30 1554 H 147.696 2.02162 -4.34359 0
M  V30 1555 H 146.06 1.16169 -2.26665 0
M  V30 1556 H 146.843 -0.035676 -3.43281 0
M  V30 1557 N 149.288 1.51039 0.449983 0
M  V30 1558 C 150.218 1.74379 1.55288 0
M  V30 1559 C 151.199 0.593236 1.5942 0
M  V30 1560 O 152.384 0.834625 1.7535 0
M  V30 1561 C 149.514 1.85728 2.93466 0
M  V30 1562 C 148.468 3.01078 3.04197 0
M  V30 1563 C 147.794 2.97595 4.44231 0
M  V30 1564 C 149.094 4.41254 2.7945 0
M  V30 1565 H 150.788 2.66725 1.36008 0
M  V30 1566 H 148.334 1.2835 0.652864 0
M  V30 1567 H 150.287 2.0064 3.70569 0
M  V30 1568 H 149.011 0.900207 3.13949 0
M  V30 1569 H 147.67 2.85851 2.29531 0
M  V30 1570 H 147.318 1.99691 4.61663 0
M  V30 1571 H 147.018 3.75046 4.52343 0
M  V30 1572 H 148.542 3.14583 5.23326 0
M  V30 1573 H 149.956 4.56897 3.46292 0
M  V30 1574 H 148.353 5.20315 2.98985 0
M  V30 1575 H 149.423 4.52164 1.75144 0
M  V30 1576 N 150.766 -0.704594 1.40972 0
M  V30 1577 C 152.013 -1.46458 1.39844 0
M  V30 1578 C 152.341 -1.94499 0.00447594 0
M  V30 1579 O 151.596 -1.69275 -0.982057 0
M  V30 1580 C 151.895 -2.698 2.34399 0
M  V30 1581 C 151.561 -2.40464 3.81429 0
M  V30 1582 C 150.223 -2.32174 4.21484 0
M  V30 1583 C 152.575 -2.16086 4.74296 0
M  V30 1584 C 149.903 -1.97589 5.52427 0
M  V30 1585 C 152.255 -1.83011 6.05549 0
M  V30 1586 C 150.919 -1.7321 6.44635 0
M  V30 1587 H 150.189 -0.535927 0.511725 0
M  V30 1588 H 152.836 -0.806124 1.73706 0
M  V30 1589 H 151.141 -3.40536 1.93759 0
M  V30 1590 H 152.838 -3.27919 2.30804 0
M  V30 1591 H 149.428 -2.47808 3.49699 0
M  V30 1592 H 153.612 -2.2144 4.4416 0
M  V30 1593 H 148.868 -1.88547 5.81601 0
M  V30 1594 H 153.042 -1.63164 6.77016 0
M  V30 1595 H 150.669 -1.46179 7.46013 0
M  V30 1596 N 152.244 -1.26651 -0.937939 0
M  V30 1597 C 153.174 -1.10993 -2.05433 0
M  V30 1598 C 154.155 -0.0142161 -1.70094 0
M  V30 1599 O 155.34 -0.186837 -1.93299 0
M  V30 1600 C 152.47 -0.745561 -3.39203 0
M  V30 1601 C 151.424 -1.79337 -3.88616 0
M  V30 1602 C 150.75 -1.28324 -5.19073 0
M  V30 1603 C 152.05 -3.19553 -4.13138 0
M  V30 1604 H 153.744 -2.0438 -2.1879 0
M  V30 1605 H 151.29 -0.984041 -1.05131 0
M  V30 1606 H 153.243 -0.622888 -4.16771 0
M  V30 1607 H 151.967 0.22401 -3.25831 0
M  V30 1608 H 150.626 -1.90477 -3.13231 0
M  V30 1609 H 150.274 -0.303414 -5.02084 0
M  V30 1610 H 149.974 -1.98369 -5.53103 0
M  V30 1611 H 151.498 -1.1733 -5.99221 0
M  V30 1612 H 152.912 -3.11471 -4.81309 0
M  V30 1613 H 151.309 -3.87218 -4.58457 0
M  V30 1614 H 152.379 -3.65368 -3.18801 0
M  V30 1615 N 153.722 1.14298 -1.08507 0
M  V30 1616 C 154.652 2.21542 -0.737646 0
M  V30 1617 C 155.633 1.67773 0.280377 0
M  V30 1618 O 156.818 1.93616 0.150521 0
M  V30 1619 C 153.948 3.46988 -0.147259 0
M  V30 1620 C 152.902 4.13789 -1.09374 0
M  V30 1621 C 152.228 5.33449 -0.365524 0
M  V30 1622 C 153.528 4.62208 -2.4323 0
M  V30 1623 H 155.222 2.5086 -1.6343 0
M  V30 1624 H 152.768 1.20576 -0.787243 0
M  V30 1625 H 154.721 4.21262 0.107808 0
M  V30 1626 H 153.445 3.17037 0.784538 0
M  V30 1627 H 152.104 3.4147 -1.33393 0
M  V30 1628 H 151.752 4.99759 0.57011 0
M  V30 1629 H 151.452 5.79088 -0.996512 0
M  V30 1630 H 152.976 6.10485 -0.118534 0
M  V30 1631 H 154.39 5.27952 -2.23472 0
M  V30 1632 H 152.787 5.18553 -3.02031 0
M  V30 1633 H 153.857 3.77224 -3.04681 0
M  V30 1634 N 155.201 0.870884 1.31352 0
M  V30 1635 C 156.612 0.534714 1.78879 0
M  V30 1636 C 156.963 -0.948423 1.71754 0
M  V30 1637 O 156.088 -1.74055 1.28584 0
M  V30 1638 C 156.683 0.963839 3.24801 0
M  V30 1639 C 155.242 0.679311 3.70219 0
M  V30 1640 C 154.389 1.15465 2.52117 0
M  V30 1641 H 157.34 1.05651 1.18421 0
M  V30 1642 H 157.361 0.286892 3.79417 0
M  V30 1643 H 156.873 2.04332 3.29955 0
M  V30 1644 H 154.974 -0.388769 3.70566 0
M  V30 1645 H 155.087 1.25698 4.62317 0
M  V30 1646 H 153.451 0.574383 2.48139 0
M  V30 1647 H 154.234 2.24157 2.60016 0
M  V30 1648 N 156.679 -1.44442 0.630414 0
M  V30 1649 C 157.927 -2.01653 0.134351 0
M  V30 1650 C 158.248 -1.49836 -1.24796 0
M  V30 1651 O 157.518 -0.701684 -1.82902 0
M  V30 1652 H 156.098 -0.74554 0.0466769 0
M  V30 1653 H 158.76 -1.76952 0.816955 0
M  V30 1654 H 157.856 -3.11935 0.101498 0
M  V30 1655 N 158.157 -0.370918 -1.53173 0
M  V30 1656 C 159.087 0.464847 -2.28826 0
M  V30 1657 C 160.068 1.07936 -1.31468 0
M  V30 1658 O 161.253 1.0956 -1.60344 0
M  V30 1659 C 158.383 1.60196 -3.08147 0
M  V30 1660 C 157.337 1.11443 -4.13237 0
M  V30 1661 C 156.663 2.3422 -4.80672 0
M  V30 1662 C 157.963 0.195384 -5.21934 0
M  V30 1663 H 159.657 -0.166329 -2.98938 0
M  V30 1664 H 157.203 -0.0814359 -1.4377 0
M  V30 1665 H 159.156 2.19332 -3.59822 0
M  V30 1666 H 157.88 2.26045 -2.35735 0
M  V30 1667 H 156.539 0.545727 -3.62515 0
M  V30 1668 H 156.187 2.98537 -4.04827 0
M  V30 1669 H 155.887 2.02269 -5.51689 0
M  V30 1670 H 157.411 2.94032 -5.35143 0
M  V30 1671 H 158.825 0.694375 -5.69079 0
M  V30 1672 H 157.222 -0.0335027 -6.00091 0
M  V30 1673 H 158.292 -0.760961 -4.78892 0
M  V30 1674 N 159.635 1.57281 -0.100228 0
M  V30 1675 C 160.565 2.17328 0.853857 0
M  V30 1676 C 161.546 1.10804 1.2906 0
M  V30 1677 O 162.731 1.38963 1.35657 0
M  V30 1678 C 159.861 2.75772 2.11109 0
M  V30 1679 C 158.815 3.87713 1.81279 0
M  V30 1680 C 158.141 4.32882 3.13874 0
M  V30 1681 C 159.441 5.10677 1.09574 0
M  V30 1682 H 161.135 2.97305 0.353545 0
M  V30 1683 H 158.681 1.43009 0.168612 0
M  V30 1684 H 160.634 3.16433 2.78296 0
M  V30 1685 H 159.358 1.93057 2.63432 0
M  V30 1686 H 158.017 3.476 1.16489 0
M  V30 1687 H 157.665 3.47051 3.64095 0
M  V30 1688 H 157.365 5.08358 2.94696 0
M  V30 1689 H 158.889 4.7618 3.82211 0
M  V30 1690 H 160.303 5.48474 1.66879 0
M  V30 1691 H 158.7 5.91615 1.00557 0
M  V30 1692 H 159.77 4.84835 0.0793299 0
M  V30 1693 N 161.113 -0.173488 1.56642 0
M  V30 1694 C 162.362 -0.888758 1.81063 0
M  V30 1695 C 162.675 -1.83506 0.67712 0
M  V30 1696 O 163.881 -2.59254 0.806206 0
M  V30 1697 C 162.337 -1.63091 3.20826 0
M  V30 1698 C 161.945 -0.728357 4.4204 0
M  V30 1699 C 163.689 -2.33454 3.54541 0
M  V30 1700 C 161.596 -1.47062 5.72823 0
M  V30 1701 H 160.526 -0.335618 0.675186 0
M  V30 1702 H 163.177 -0.141712 1.82952 0
M  V30 1703 H 161.559 -2.42263 3.13248 0
M  V30 1704 H 162.733 0.0262449 4.60793 0
M  V30 1705 H 161.048 -0.134492 4.16183 0
M  V30 1706 H 163.645 -2.89578 4.49498 0
M  V30 1707 H 163.988 -3.08687 2.79317 0
M  V30 1708 H 164.521 -1.61227 3.63663 0
M  V30 1709 H 161.26 -0.760658 6.51072 0
M  V30 1710 H 160.78 -2.1986 5.58052 0
M  V30 1711 H 162.459 -2.01868 6.14702 0
M  V30 1712 N 162.591 -1.51276 -0.441967 0
M  V30 1713 C 163.819 -1.67516 -1.21434 0
M  V30 1714 C 164.234 -0.37055 -1.85128 0
M  V30 1715 O 163.591 0.650498 -1.70513 0
M  V30 1716 C 163.642 -2.78748 -2.30177 0
M  V30 1717 O 163.363 -4.04154 -1.69089 0
M  V30 1718 C 164.864 -3.06217 -3.20541 0
M  V30 1719 H 162.084 -0.562276 -0.366178 0
M  V30 1720 H 164.628 -1.97666 -0.524244 0
M  V30 1721 H 162.783 -2.5121 -2.94911 0
M  V30 1722 H 163.197 -4.65894 -2.40922 0
M  V30 1723 H 164.671 -3.8764 -3.92987 0
M  V30 1724 H 165.148 -2.18439 -3.81026 0
M  V30 1725 H 165.754 -3.35397 -2.61513 0
M  V30 1726 N 164.069 0.697108 -1.41344 0
M  V30 1727 C 165.309 1.46939 -1.42085 0
M  V30 1728 C 165.673 1.9198 -0.0280397 0
M  V30 1729 O 166.874 2.6865 0.0897504 0
M  V30 1730 C 165.145 2.64985 -2.39828 0
M  V30 1731 S 166.704 3.54147 -2.59085 0
M  V30 1732 H 163.522 0.502146 -0.503359 0
M  V30 1733 H 166.124 0.813546 -1.77769 0
M  V30 1734 H 164.828 2.30098 -3.39828 0
M  V30 1735 H 164.359 3.35464 -2.05493 0
M  V30 1736 H 166.374 4.60137 -1.85711 0
M  V30 1737 N 165.547 1.27147 0.931209 0
M  V30 1738 C 166.497 1.06227 2.01742 0
M  V30 1739 C 167.481 -0.00859065 1.60898 0
M  V30 1740 O 168.673 0.209537 1.75755 0
M  V30 1741 C 165.802 0.707787 3.35924 0
M  V30 1742 C 164.888 1.81661 3.83223 0
M  V30 1743 N 165.279 3.05564 4.03069 0
M  V30 1744 C 163.577 1.70249 4.12227 0
M  V30 1745 C 164.278 3.77697 4.42403 0
M  V30 1746 N 163.254 3.0544 4.49675 0
M  V30 1747 H 167.056 2.00261 2.15111 0
M  V30 1748 H 164.57 1.1781 1.11779 0
M  V30 1749 H 166.567 0.539043 4.134 0
M  V30 1750 H 165.227 -0.224964 3.2392 0
M  V30 1751 H 166.238 3.41363 3.89476 0
M  V30 1752 H 162.915 0.840329 4.08956 0
M  V30 1753 H 164.305 4.84168 4.65866 0
M  V30 1754 N 167.025 -1.13721 1.09112 0
M  V30 1755 C 168.271 -1.85198 0.826414 0
M  V30 1756 C 168.604 -1.83129 -0.646319 0
M  V30 1757 O 167.879 -1.2671 -1.47563 0
M  V30 1758 C 168.162 -3.33507 1.35812 0
M  V30 1759 C 168.015 -3.44108 2.89672 0
M  V30 1760 C 169.334 -4.28838 0.989256 0
M  V30 1761 H 166.453 -0.67243 0.301675 0
M  V30 1762 H 169.095 -1.33499 1.35197 0
M  V30 1763 H 167.245 -3.77666 0.911082 0
M  V30 1764 H 168.917 -3.08684 3.428 0
M  V30 1765 H 167.16 -2.85087 3.26967 0
M  V30 1766 H 167.831 -4.48388 3.21951 0
M  V30 1767 H 170.307 -3.92734 1.37475 0
M  V30 1768 H 169.183 -5.31051 1.38838 0
M  V30 1769 H 169.444 -4.4198 -0.102924 0
M  V30 1770 N 168.503 -0.877838 -1.30888 0
M  V30 1771 C 169.466 -0.344265 -2.266 0
M  V30 1772 C 170.466 0.50922 -1.52524 0
M  V30 1773 O 171.656 0.317398 -1.71284 0
M  V30 1774 C 168.788 0.510198 -3.37061 0
M  V30 1775 H 169.981 -1.1893 -2.7531 0
M  V30 1776 H 167.534 -0.654088 -1.41956 0
M  V30 1777 H 168.269 1.37612 -2.93655 0
M  V30 1778 H 168.054 -0.101047 -3.9197 0
M  V30 1779 H 169.544 0.875537 -4.08319 0
M  V30 1780 N 169.982 1.44106 -0.638065 0
M  V30 1781 C 171.398 1.56672 -0.304286 0
M  V30 1782 C 171.598 1.6244 1.19228 0
M  V30 1783 O 170.654 1.57121 1.9766 0
M  V30 1784 C 171.967 2.83503 -1.00231 0
M  V30 1785 C 173.515 2.97226 -0.981116 0
M  V30 1786 C 173.99 4.26868 -1.65974 0
M  V30 1787 N 175.481 4.33698 -1.62666 0
M  V30 1788 C 176.216 5.32745 -2.12063 0
M  V30 1789 N 175.712 6.38157 -2.6968 0
M  V30 1790 N 177.505 5.24299 -2.02651 0
M  V30 1791 H 169.656 1.38605 -1.60942 0
M  V30 1792 H 171.919 0.664661 -0.675965 0
M  V30 1793 H 171.625 2.85251 -2.0573 0
M  V30 1794 H 171.499 3.73251 -0.54439 0
M  V30 1795 H 173.886 2.95027 0.0654188 0
M  V30 1796 H 173.967 2.08808 -1.47759 0
M  V30 1797 H 173.611 4.29826 -2.70576 0
M  V30 1798 H 173.541 5.14156 -1.13804 0
M  V30 1799 H 176.032 3.58138 -1.20606 0
M  V30 1800 H 176.345 7.10029 -3.05087 0
M  V30 1801 H 174.69 6.38823 -2.73734 0
M  V30 1802 H 177.881 4.4086 -1.57353 0
M  V30 1803 H 178.054 6.01334 -2.41457 0
M  V30 1804 N 171.46 0.379036 1.52974 0
M  V30 1805 C 172.709 -0.207612 2.00629 0
M  V30 1806 C 173.022 -1.48758 1.27006 0
M  V30 1807 O 174.228 -2.15365 1.65318 0
M  V30 1808 C 172.684 -0.42053 3.57435 0
M  V30 1809 C 172.292 0.845587 4.39948 0
M  V30 1810 C 174.036 -0.964102 4.13407 0
M  V30 1811 C 171.943 0.601513 5.88333 0
M  V30 1812 H 170.873 -0.0813591 0.749598 0
M  V30 1813 H 173.524 0.499853 1.76561 0
M  V30 1814 H 171.906 -1.18959 3.7771 0
M  V30 1815 H 173.08 1.61848 4.31442 0
M  V30 1816 H 171.395 1.31336 3.95145 0
M  V30 1817 H 173.992 -1.16225 5.21916 0
M  V30 1818 H 174.335 -1.93019 3.68849 0
M  V30 1819 H 174.868 -0.25487 3.96983 0
M  V30 1820 H 171.607 1.53831 6.37194 0
M  V30 1821 H 171.127 -0.132628 5.99653 0
M  V30 1822 H 172.806 0.232134 6.46583 0
M  V30 1823 N 172.938 -1.57226 0.108567 0
M  V30 1824 C 174.349 -1.8195 -0.418464 0
M  V30 1825 C 174.7 -1.02508 -1.67292 0
M  V30 1826 O 173.825 -0.258496 -2.14851 0
M  V30 1827 C 174.42 -3.30028 -0.765979 0
M  V30 1828 C 172.979 -3.55469 -1.23769 0
M  V30 1829 C 172.126 -2.7625 -0.241106 0
M  V30 1830 H 175.077 -1.55149 0.33384 0
M  V30 1831 H 175.098 -3.44086 -1.62434 0
M  V30 1832 H 174.61 -3.87821 0.147219 0
M  V30 1833 H 172.711 -3.03022 -2.16814 0
M  V30 1834 H 172.824 -4.6408 -1.19022 0
M  V30 1835 H 171.188 -2.44133 -0.72602 0
M  V30 1836 H 171.971 -3.36797 0.665007 0
M  V30 1837 N 174.416 0.165178 -1.56732 0
M  V30 1838 C 175.346 1.20651 -1.99914 0
M  V30 1839 C 176.327 1.45827 -0.875705 0
M  V30 1840 O 177.512 1.57057 -1.14223 0
M  V30 1841 C 174.642 2.54401 -2.36427 0
M  V30 1842 C 173.596 2.43782 -3.51787 0
M  V30 1843 C 172.922 3.82078 -3.7406 0
M  V30 1844 C 174.222 1.93732 -4.85041 0
M  V30 1845 H 175.916 0.847534 -2.87154 0
M  V30 1846 H 173.462 0.40625 -1.38151 0
M  V30 1847 H 175.415 3.27458 -2.65234 0
M  V30 1848 H 174.139 2.92098 -1.46103 0
M  V30 1849 H 172.798 1.73178 -3.23117 0
M  V30 1850 H 172.446 4.17179 -2.81017 0
M  V30 1851 H 172.146 3.7584 -4.51684 0
M  V30 1852 H 173.67 4.56712 -4.05274 0
M  V30 1853 H 175.084 2.56569 -5.12684 0
M  V30 1854 H 173.481 1.98428 -5.66345 0
M  V30 1855 H 174.551 0.891962 -4.76626 0
M  V30 1856 N 175.894 1.51508 0.433938 0
M  V30 1857 C 177.305 1.56784 1.01369 0
M  V30 1858 C 177.656 0.393349 1.92217 0
M  V30 1859 O 176.781 -0.489441 2.10792 0
M  V30 1860 C 177.376 2.84144 1.8452 0
M  V30 1861 C 175.935 2.9198 2.37539 0
M  V30 1862 C 175.082 2.51482 1.16843 0
M  V30 1863 H 178.033 1.57236 0.215081 0
M  V30 1864 H 178.054 2.68098 2.70007 0
M  V30 1865 H 177.566 3.69607 1.18373 0
M  V30 1866 H 175.667 2.10955 3.0713 0
M  V30 1867 H 175.78 3.95704 2.70103 0
M  V30 1868 H 174.144 2.04758 1.51481 0
M  V30 1869 H 174.927 3.39293 0.523015 0
M  V30 1870 N 177.372 -0.689602 1.41712 0
M  V30 1871 C 178.335 -1.78521 1.43746 0
M  V30 1872 C 179.335 -1.57436 0.327191 0
M  V30 1873 O 180.525 -1.64 0.587348 0
M  V30 1874 C 177.657 -3.16971 1.25467 0
M  V30 1875 H 178.85 -1.78108 2.41283 0
M  V30 1876 H 176.403 -0.89781 1.27942 0
M  V30 1877 H 177.138 -3.23019 0.287948 0
M  V30 1878 H 176.923 -3.33678 2.05917 0
M  V30 1879 H 178.413 -3.96935 1.2974 0
M  V30 1880 N 178.85 -1.27639 -0.924453 0
M  V30 1881 C 180.098 -1.13941 -1.66918 0
M  V30 1882 C 180.419 0.314589 -1.92446 0
M  V30 1883 O 179.689 1.21964 -1.53303 0
M  V30 1884 H 178.269 -0.418678 -0.618642 0
M  V30 1885 H 180.931 -1.60213 -1.10985 0
M  V30 1886 H 180.027 -1.67094 -2.63602 0
M  V30 1887 N 180.328 1.1314 -1.09713 0
M  V30 1888 C 181.558 1.88048 -0.855656 0
M  V30 1889 C 181.966 1.79537 0.596919 0
M  V30 1890 O 181.309 1.16196 1.42282 0
M  V30 1891 C 181.371 3.38314 -1.21589 0
M  V30 1892 C 181.035 3.70605 -2.67397 0
M  V30 1893 C 182.032 3.69596 -3.65643 0
M  V30 1894 C 179.717 4.0017 -3.03593 0
M  V30 1895 C 181.711 3.977 -4.9811 0
M  V30 1896 C 179.398 4.27935 -4.36251 0
M  V30 1897 C 180.396 4.26685 -5.33318 0
M  V30 1898 O 180.084 4.53767 -6.63589 0
M  V30 1899 H 179.816 0.60208 -0.307368 0
M  V30 1900 H 182.37 1.44128 -1.46343 0
M  V30 1901 H 180.6 3.82752 -0.551177 0
M  V30 1902 H 182.289 3.94552 -0.953083 0
M  V30 1903 H 183.055 3.46826 -3.39023 0
M  V30 1904 H 178.934 4.00289 -2.2867 0
M  V30 1905 H 182.478 3.9664 -5.73866 0
M  V30 1906 H 178.375 4.50178 -4.62613 0
M  V30 1907 H 179.143 4.71422 -6.69107 0
M  V30 1908 N 181.806 0.884767 1.30421 0
M  V30 1909 C 183.222 0.57874 1.48737 0
M  V30 1910 C 183.422 -0.883567 1.81095 0
M  V30 1911 O 182.478 -1.6648 1.89844 0
M  V30 1912 C 183.791 1.49171 2.61091 0
M  V30 1913 C 185.339 1.49532 2.74971 0
M  V30 1914 C 185.814 2.39421 3.90438 0
M  V30 1915 N 187.305 2.37383 3.97748 0
M  V30 1916 C 188.04 3.03647 4.86401 0
M  V30 1917 N 187.536 3.79136 5.79852 0
M  V30 1918 N 189.329 2.9288 4.79768 0
M  V30 1919 H 181.48 1.83075 1.0769 0
M  V30 1920 H 183.743 0.783637 0.533495 0
M  V30 1921 H 183.449 2.53291 2.44001 0
M  V30 1922 H 183.323 1.20113 3.57565 0
M  V30 1923 H 185.71 0.46163 2.91467 0
M  V30 1924 H 185.791 1.8262 1.79119 0
M  V30 1925 H 185.435 3.42874 3.74699 0
M  V30 1926 H 185.365 2.03649 4.85628 0
M  V30 1927 H 187.856 1.82525 3.30897 0
M  V30 1928 H 188.169 4.26789 6.4426 0
M  V30 1929 H 186.514 3.83243 5.79784 0
M  V30 1930 H 189.705 2.33433 4.05742 0
M  V30 1931 H 189.878 3.448 5.4865 0
M  V30 1932 N 183.284 -1.43765 0.645699 0
M  V30 1933 C 184.194 -2.34544 -0.0512957 0
M  V30 1934 C 185.21 -1.53455 -0.82022 0
M  V30 1935 O 186.386 -1.86133 -0.769176 0
M  V30 1936 C 183.451 -3.31636 -1.01087 0
M  V30 1937 C 182.512 -4.2863 -0.239712 0
M  V30 1938 C 181.745 -5.21084 -1.15358 0
M  V30 1939 O 181.968 -5.1779 -2.39269 0
M  V30 1940 O 180.902 -5.98593 -0.630038 0
M  V30 1941 H 184.728 -2.95624 0.695718 0
M  V30 1942 H 182.313 -1.43781 0.405882 0
M  V30 1943 H 184.195 -3.9136 -1.56254 0
M  V30 1944 H 182.87 -2.73069 -1.73824 0
M  V30 1945 H 181.777 -3.72408 0.355356 0
M  V30 1946 H 183.11 -4.90157 0.447936 0
M  V30 1947 N 184.763 -0.387143 -1.52771 0
M  V30 1948 C 185.673 0.456442 -2.30117 0
M  V30 1949 C 186.689 1.07342 -1.36944 0
M  V30 1950 O 187.865 1.07971 -1.70013 0
M  V30 1951 C 184.93 1.56957 -3.09136 0
M  V30 1952 C 183.991 0.977916 -4.18014 0
M  V30 1953 C 183.224 2.038 -4.93256 0
M  V30 1954 O 183.447 3.25271 -4.68567 0
M  V30 1955 O 182.381 1.6565 -5.78657 0
M  V30 1956 H 186.207 -0.17359 -3.03203 0
M  V30 1957 H 183.792 -0.150919 -1.48636 0
M  V30 1958 H 185.674 2.21628 -3.58412 0
M  V30 1959 H 184.349 2.18461 -2.38865 0
M  V30 1960 H 183.256 0.294525 -3.72939 0
M  V30 1961 H 184.589 0.407128 -4.90513 0
M  V30 1962 N 186.241 1.57166 -0.116904 0
M  V30 1963 C 187.49 1.94298 0.541407 0
M  V30 1964 C 187.803 1.00236 1.67964 0
M  V30 1965 O 189.009 1.26826 2.40057 0
M  V30 1966 C 187.465 3.45306 1.01449 0
M  V30 1967 C 187.073 4.47899 -0.0951738 0
M  V30 1968 C 188.817 3.91361 1.6443 0
M  V30 1969 C 186.724 5.90083 0.394491 0
M  V30 1970 H 185.654 0.725308 0.206019 0
M  V30 1971 H 188.305 1.82446 -0.196419 0
M  V30 1972 H 186.687 3.52385 1.80667 0
M  V30 1973 H 187.861 4.52486 -0.871374 0
M  V30 1974 H 186.176 4.11583 -0.631505 0
M  V30 1975 H 188.773 4.95004 2.02176 0
M  V30 1976 H 189.116 3.3122 2.52189 0
M  V30 1977 H 189.649 3.87073 0.917559 0
M  V30 1978 H 186.388 6.53974 -0.447004 0
M  V30 1979 H 185.908 5.88921 1.13722 0
M  V30 1980 H 187.587 6.41307 0.856399 0
M  V30 1981 N 187.719 -0.156864 1.56817 0
M  V30 1982 C 188.965 -0.872416 1.83076 0
M  V30 1983 C 189.298 -1.81261 0.697001 0
M  V30 1984 O 188.573 -1.92171 -0.30008 0
M  V30 1985 C 188.856 -1.65551 3.19789 0
M  V30 1986 C 188.709 -0.737467 4.43713 0
M  V30 1987 C 190.028 -2.62012 3.53606 0
M  V30 1988 H 187.147 -0.315715 0.665953 0
M  V30 1989 H 189.789 -0.138004 1.89498 0
M  V30 1990 H 187.939 -2.28159 3.14445 0
M  V30 1991 H 189.611 -0.123143 4.61136 0
M  V30 1992 H 187.854 -0.0464067 4.33775 0
M  V30 1993 H 188.525 -1.32122 5.35955 0
M  V30 1994 H 191.001 -2.09525 3.59497 0
M  V30 1995 H 189.877 -3.13861 4.50314 0
M  V30 1996 H 190.138 -3.42902 2.79053 0
M  V30 1997 N 189.197 -1.51736 -0.425897 0
M  V30 1998 C 190.613 -1.40166 -0.76326 0
M  V30 1999 C 190.813 -0.492962 -1.95377 0
M  V30 2000 O 189.869 0.0475815 -2.52455 0
M  V30 2001 C 191.182 -2.82403 -1.03291 0
M  V30 2002 C 192.73 -2.91632 -1.13665 0
M  V30 2003 C 193.205 -4.34801 -1.43916 0
M  V30 2004 N 194.696 -4.3796 -1.50816 0
M  V30 2005 C 195.431 -5.4578 -1.75817 0
M  V30 2006 N 194.927 -6.63744 -1.98534 0
M  V30 2007 N 196.72 -5.33274 -1.77694 0
M  V30 2008 H 188.871 -2.09361 0.358 0
M  V30 2009 H 191.134 -0.942941 0.0978094 0
M  V30 2010 H 190.84 -3.50943 -0.230696 0
M  V30 2011 H 190.714 -3.22428 -1.95754 0
M  V30 2012 H 193.101 -2.23284 -1.92947 0
M  V30 2013 H 193.182 -2.55088 -0.190756 0
M  V30 2014 H 192.826 -5.03703 -0.65157 0
M  V30 2015 H 192.756 -4.68868 -2.39729 0
M  V30 2016 H 195.247 -3.52919 -1.35118 0
M  V30 2017 H 195.56 -7.41704 -2.17013 0
M  V30 2018 H 193.905 -6.66839 -1.95832 0
M  V30 2019 H 197.096 -4.40098 -1.59473 0
M  V30 2020 H 197.269 -6.1738 -1.9684 0
M  V30 2021 N 190.675 0.682077 -1.42076 0
M  V30 2022 C 191.905 1.46844 -1.45329 0
M  V30 2023 C 192.313 1.89102 -0.0609328 0
M  V30 2024 O 191.656 1.58238 0.933082 0
M  V30 2025 C 191.718 2.75375 -2.31104 0
M  V30 2026 C 191.382 2.55238 -3.79081 0
M  V30 2027 C 192.379 2.20309 -4.70914 0
M  V30 2028 C 190.064 2.70459 -4.2327 0
M  V30 2029 C 192.058 2.00859 -6.04925 0
M  V30 2030 C 189.745 2.50624 -5.57343 0
M  V30 2031 C 190.743 2.15876 -6.47986 0
M  V30 2032 O 190.431 1.96227 -7.79583 0
M  V30 2033 H 190.163 0.4586 -0.496651 0
M  V30 2034 H 192.717 0.846131 -1.87162 0
M  V30 2035 H 190.947 3.40061 -1.84107 0
M  V30 2036 H 192.636 3.37231 -2.25898 0
M  V30 2037 H 193.402 2.08153 -4.38061 0
M  V30 2038 H 189.281 2.96485 -3.53012 0
M  V30 2039 H 192.825 1.7366 -6.75639 0
M  V30 2040 H 188.722 2.62375 -5.89771 0
M  V30 2041 H 189.49 2.10883 -7.90867 0
M  V30 2042 N 192.153 1.28127 0.917671 0
M  V30 2043 C 193.083 1.14248 2.03641 0
M  V30 2044 C 194.064 0.0412748 1.7005 0
M  V30 2045 O 195.249 0.217566 1.92977 0
M  V30 2046 C 192.379 0.799431 3.37974 0
M  V30 2047 C 191.333 1.85497 3.85713 0
M  V30 2048 C 190.659 1.36565 5.16966 0
M  V30 2049 C 191.959 3.26085 4.08002 0
M  V30 2050 H 193.653 2.07835 2.15511 0
M  V30 2051 H 191.199 1.00064 1.03553 0
M  V30 2052 H 193.152 0.689114 4.15727 0
M  V30 2053 H 191.876 -0.172145 3.26146 0
M  V30 2054 H 190.535 1.95437 3.10161 0
M  V30 2055 H 190.183 0.383253 5.01538 0
M  V30 2056 H 189.883 2.07143 5.49878 0
M  V30 2057 H 191.407 1.26848 5.97279 0
M  V30 2058 H 192.821 3.19089 4.76293 0
M  V30 2059 H 191.218 3.94462 4.52238 0
M  V30 2060 H 192.288 3.70394 3.12948 0
M  V30 2061 N 193.631 -1.12557 1.10312 0
M  V30 2062 C 195.047 -1.36036 0.834649 0
M  V30 2063 C 195.247 -1.93946 -0.546539 0
M  V30 2064 O 194.303 -2.16484 -1.29966 0
M  V30 2065 C 195.616 -2.30312 1.9333 0
M  V30 2066 C 197.164 -2.43906 1.9616 0
M  V30 2067 C 197.639 -3.41496 3.05195 0
M  V30 2068 N 199.13 -3.49053 3.04494 0
M  V30 2069 C 199.865 -4.24471 3.85502 0
M  V30 2070 N 199.361 -5.02966 4.76442 0
M  V30 2071 N 201.154 -4.19864 3.73725 0
M  V30 2072 H 193.305 -0.733246 1.99342 0
M  V30 2073 H 195.568 -0.385234 0.866198 0
M  V30 2074 H 195.274 -1.94933 2.92735 0
M  V30 2075 H 195.148 -3.30421 1.81939 0
M  V30 2076 H 197.535 -2.78567 0.973886 0
M  V30 2077 H 197.616 -1.4369 2.11629 0
M  V30 2078 H 197.26 -3.07565 4.04186 0
M  V30 2079 H 197.19 -4.41539 2.86968 0
M  V30 2080 H 199.681 -2.93053 2.38596 0
M  V30 2081 H 199.994 -5.57846 5.34815 0
M  V30 2082 H 198.339 -5.02167 4.80472 0
M  V30 2083 H 201.53 -3.57623 3.02032 0
M  V30 2084 H 201.703 -4.78386 4.37093 0
M  V30 2085 N 195.109 -0.891671 -1.2995 0
M  V30 2086 C 196.334 -0.527932 -2.00568 0
M  V30 2087 C 196.759 0.877969 -1.66353 0
M  V30 2088 O 196.117 1.58301 -0.883762 0
M  V30 2089 C 196.165 -0.717745 -3.53385 0
M  V30 2090 O 195.269 0.233376 -4.11739 0
M  V30 2091 H 194.61 -0.20722 -0.630837 0
M  V30 2092 H 197.14 -1.20105 -1.65638 0
M  V30 2093 H 197.15 -0.619307 -4.03272 0
M  V30 2094 H 195.825 -1.74276 -3.77625 0
M  V30 2095 H 194.402 0.0880706 -3.72796 0
M  V30 2096 N 196.587 1.43421 -0.653314 0
M  V30 2097 C 197.833 2.02111 -0.166992 0
M  V30 2098 C 198.166 1.51423 1.21592 0
M  V30 2099 O 197.441 0.707389 1.8118 0
M  V30 2100 C 197.724 3.5966 -0.177948 0
M  V30 2101 C 197.577 4.20579 -1.59478 0
M  V30 2102 C 198.896 4.37413 0.4856 0
M  V30 2103 H 196.015 0.734374 -0.0621557 0
M  V30 2104 H 198.657 1.70717 -0.834016 0
M  V30 2105 H 196.807 3.86537 0.390032 0
M  V30 2106 H 198.479 4.04732 -2.21336 0
M  V30 2107 H 196.722 3.77226 -2.14204 0
M  V30 2108 H 197.393 5.29665 -1.5543 0
M  V30 2109 H 199.869 4.161 0.00234528 0
M  V30 2110 H 198.745 5.47075 0.447207 0
M  V30 2111 H 199.006 4.13672 1.55974 0
M  V30 2112 N 198.065 0.39524 1.52563 0
M  V30 2113 C 198.997 -0.472201 2.24283 0
M  V30 2114 C 200.01 -1.02178 1.26742 0
M  V30 2115 O 201.199 -0.923097 1.52778 0
M  V30 2116 C 198.299 -1.66775 2.95024 0
M  V30 2117 C 197.472 -1.2445 4.19322 0
M  V30 2118 C 196.531 -2.30539 4.7301 0
M  V30 2119 O 195.557 -1.91702 5.35947 0
M  V30 2120 N 196.759 -3.6253 4.53379 0
M  V30 2121 H 199.524 0.142282 2.99362 0
M  V30 2122 H 197.085 0.2219 1.60372 0
M  V30 2123 H 199.077 -2.37283 3.27839 0
M  V30 2124 H 197.647 -2.18845 2.23217 0
M  V30 2125 H 196.867 -0.368069 3.92478 0
M  V30 2126 H 198.155 -0.938457 5.0007 0
M  V30 2127 H 197.553 -3.96841 4.03154 0
M  V30 2128 H 196.11 -4.29055 4.90668 0
M  V30 2129 N 199.544 -1.57102 0.125237 0
M  V30 2130 C 200.474 -2.18659 -0.819174 0
M  V30 2131 C 201.455 -1.12843 -1.27281 0
M  V30 2132 O 202.64 -1.41104 -1.33429 0
M  V30 2133 C 199.77 -2.79096 -2.06695 0
M  V30 2134 C 198.724 -3.90548 -1.75088 0
M  V30 2135 C 198.05 -4.37821 -3.06948 0
M  V30 2136 C 199.35 -5.12356 -1.01435 0
M  V30 2137 H 201.044 -2.9783 -0.306202 0
M  V30 2138 H 198.59 -1.4326 -0.145839 0
M  V30 2139 H 200.543 -3.2082 -2.73226 0
M  V30 2140 H 199.267 -1.97223 -2.60328 0
M  V30 2141 H 197.926 -3.49409 -1.10944 0
M  V30 2142 H 197.574 -3.52799 -3.58527 0
M  V30 2143 H 197.274 -5.12982 -2.86571 0
M  V30 2144 H 198.798 -4.822 -3.74587 0
M  V30 2145 H 200.212 -5.5106 -1.58132 0
M  V30 2146 H 198.609 -5.9314 -0.911319 0
M  V30 2147 H 199.679 -4.849 -0.00218681 0
M  V30 2148 N 201.022 0.148545 -1.56898 0
M  V30 2149 C 202.433 0.708766 -1.72723 0
M  V30 2150 C 202.784 1.81734 -0.739395 0
M  V30 2151 O 201.909 2.16194 0.0943169 0
M  V30 2152 C 202.504 1.29245 -3.13179 0
M  V30 2153 C 201.063 1.79925 -3.30611 0
M  V30 2154 C 200.21 0.687111 -2.68652 0
M  V30 2155 H 203.161 -0.0771063 -1.58513 0
M  V30 2156 H 203.182 2.16224 -3.13093 0
M  V30 2157 H 202.694 0.485382 -3.85053 0
M  V30 2158 H 200.795 2.63203 -2.63732 0
M  V30 2159 H 200.908 1.92903 -4.38549 0
M  V30 2160 H 199.272 1.11335 -2.29078 0
M  V30 2161 H 200.055 -0.108483 -3.43129 0
M  V30 2162 N 202.5 1.5196 0.417844 0
M  V30 2163 C 203.777 1.56146 1.17803 0
M  V30 2164 C 204.157 0.337275 2.08388 0
M  V30 2165 O 203.505 -0.676447 2.18258 0
M  V30 2166 C 203.715 2.88566 1.96293 0
M  V30 2167 C 205.063 3.41244 2.52662 0
M  V30 2168 O 206.087 2.90247 2.06483 0
M  V30 2169 O 204.946 4.30273 3.36938 0
M  V30 2170 H 202.04 0.628598 0.537395 0
M  V30 2171 H 204.586 1.64283 0.425331 0
M  V30 2172 H 203.358 3.69116 1.2988 0
M  V30 2173 H 202.981 2.83681 2.78587 0
M  V30 2174 N 203.978 -0.674533 1.42435 0
M  V30 2175 C 205.226 -1.43175 1.42637 0
M  V30 2176 C 205.547 -1.94951 0.0438992 0
M  V30 2177 O 204.817 -1.7308 -0.917607 0
M  V30 2178 H 203.397 -0.531307 0.525092 0
M  V30 2179 H 206.059 -0.797006 1.77859 0
M  V30 2180 H 205.155 -2.28463 2.12629 0
M  V30 2181 N 205.456 -1.28612 -0.910864 0
M  V30 2182 C 206.704 -1.15705 -1.65701 0
M  V30 2183 C 207.025 0.29416 -1.92769 0
M  V30 2184 O 206.295 1.20331 -1.54588 0
M  V30 2185 H 204.875 -0.425216 -0.614167 0
M  V30 2186 H 207.537 -1.61381 -1.0928 0
M  V30 2187 H 206.633 -1.6988 -2.61815 0
M  V30 2188 N 206.934 1.1197 -1.10907 0
M  V30 2189 C 208.18 1.84059 -0.865674 0
M  V30 2190 C 208.535 1.82731 0.602254 0
M  V30 2191 O 207.828 1.26543 1.43866 0
M  V30 2192 C 208.022 3.30749 -1.35425 0
M  V30 2193 C 207.851 3.46363 -2.86815 0
M  V30 2194 C 206.621 3.59712 -3.54874 0
M  V30 2195 C 208.819 3.41116 -3.84895 0
M  V30 2196 N 206.801 3.63741 -4.94536 0
M  V30 2197 C 208.172 3.51698 -5.10596 0
M  V30 2198 C 210.227 3.24612 -3.77533 0
M  V30 2199 C 208.93 3.4748 -6.29802 0
M  V30 2200 C 210.956 3.21708 -4.96244 0
M  V30 2201 C 210.318 3.32856 -6.20795 0
M  V30 2202 H 206.417 0.689015 -0.369841 0
M  V30 2203 H 209.001 1.34016 -1.41237 0
M  V30 2204 H 207.172 3.79322 -0.834814 0
M  V30 2205 H 208.904 3.90718 -1.05458 0
M  V30 2206 H 205.659 3.62038 -3.05329 0
M  V30 2207 H 206.083 3.69408 -5.67333 0
M  V30 2208 H 210.725 3.14883 -2.8215 0
M  V30 2209 H 208.443 3.55978 -7.25469 0
M  V30 2210 H 212.029 3.10113 -4.92261 0
M  V30 2211 H 210.909 3.3059 -7.11112 0
M  V30 2212 N 208.412 0.89855 1.29475 0
M  V30 2213 C 209.66 0.522847 1.9522 0
M  V30 2214 C 209.981 -0.93371 1.71192 0
M  V30 2215 O 209.251 -1.65823 1.04305 0
M  V30 2216 H 207.831 0.190366 0.722336 0
M  V30 2217 H 210.493 1.14459 1.5775 0
M  V30 2218 H 209.589 0.704476 3.04045 0
M  V30 2219 N 209.89 -1.43072 0.660911 0
M  V30 2220 C 210.82 -2.33497 -0.0122829 0
M  V30 2221 C 211.801 -1.49903 -0.803925 0
M  V30 2222 O 212.986 -1.78546 -0.763864 0
M  V30 2223 C 210.116 -3.33363 -0.973994 0
M  V30 2224 C 209.07 -4.27003 -0.291928 0
M  V30 2225 C 208.396 -5.16967 -1.36562 0
M  V30 2226 C 209.696 -5.15816 0.820462 0
M  V30 2227 H 211.39 -2.90038 0.742873 0
M  V30 2228 H 208.936 -1.39461 0.358688 0
M  V30 2229 H 210.889 -3.95524 -1.45392 0
M  V30 2230 H 209.613 -2.75095 -1.7604 0
M  V30 2231 H 208.272 -3.66217 0.167623 0
M  V30 2232 H 207.92 -4.55034 -2.14366 0
M  V30 2233 H 207.62 -5.80441 -0.914454 0
M  V30 2234 H 209.144 -5.82003 -1.84675 0
M  V30 2235 H 210.558 -5.71742 0.422366 0
M  V30 2236 H 208.955 -5.8805 1.19656 0
M  V30 2237 H 210.025 -4.55045 1.67518 0
M  V30 2238 N 211.368 -0.403325 -1.52352 0
M  V30 2239 C 212.318 0.442244 -2.2367 0
M  V30 2240 C 213.302 1.01823 -1.24583 0
M  V30 2241 O 214.494 0.942005 -1.49851 0
M  V30 2242 C 211.623 1.5615 -3.05732 0
M  V30 2243 C 210.709 0.996575 -4.12225 0
M  V30 2244 N 211.1 0.157804 -5.05554 0
M  V30 2245 C 209.398 1.26767 -4.27605 0
M  V30 2246 C 210.099 -0.155853 -5.81491 0
M  V30 2247 N 209.075 0.451775 -5.41719 0
M  V30 2248 H 212.877 -0.204964 -2.93184 0
M  V30 2249 H 210.391 -0.213418 -1.60992 0
M  V30 2250 H 212.388 2.17981 -3.55373 0
M  V30 2251 H 211.048 2.21139 -2.37755 0
M  V30 2252 H 212.059 -0.206049 -5.1749 0
M  V30 2253 H 208.736 1.91757 -3.70858 0
M  V30 2254 H 210.126 -0.836329 -6.66675 0
M  V30 2255 N 212.846 1.57033 -0.133567 0
M  V30 2256 C 214.095 1.94861 0.520768 0
M  V30 2257 C 214.408 1.02012 1.66892 0
M  V30 2258 O 215.614 1.29365 2.38699 0
M  V30 2259 C 214.07 3.46362 0.977809 0
M  V30 2260 C 213.678 4.47773 -0.142674 0
M  V30 2261 C 215.422 3.93083 1.60269 0
M  V30 2262 C 213.329 5.90468 0.331883 0
M  V30 2263 H 212.259 0.727453 0.198315 0
M  V30 2264 H 214.91 1.82227 -0.215759 0
M  V30 2265 H 213.292 3.54282 1.7692 0
M  V30 2266 H 214.466 4.51536 -0.919317 0
M  V30 2267 H 212.781 4.10891 -0.675124 0
M  V30 2268 H 215.378 4.97121 1.96914 0
M  V30 2269 H 215.721 3.33876 2.48662 0
M  V30 2270 H 216.254 3.88025 0.876453 0
M  V30 2271 H 212.993 6.53463 -0.516341 0
M  V30 2272 H 212.513 5.90094 1.07469 0
M  V30 2273 H 214.192 6.42179 0.788332 0
M  V30 2274 N 214.325 -0.140222 1.56975 0
M  V30 2275 C 215.235 -1.19223 2.02047 0
M  V30 2276 C 216.251 -1.46612 0.937062 0
M  V30 2277 O 217.427 -1.58148 1.24704 0
M  V30 2278 C 214.492 -2.50414 2.39778 0
M  V30 2279 C 213.553 -2.30612 3.621 0
M  V30 2280 C 212.786 -3.55547 3.98023 0
M  V30 2281 O 213.009 -4.62004 3.34528 0
M  V30 2282 O 211.943 -3.47808 4.91237 0
M  V30 2283 H 215.769 -0.839559 2.91865 0
M  V30 2284 H 213.354 -0.349453 1.45256 0
M  V30 2285 H 215.236 -3.27747 2.64877 0
M  V30 2286 H 213.911 -2.85198 1.53114 0
M  V30 2287 H 212.818 -1.51207 3.4218 0
M  V30 2288 H 214.151 -2.00741 4.49404 0
M  V30 2289 N 215.803 -1.52179 -0.40978 0
M  V30 2290 C 217.08 -1.56769 -1.16974 0
M  V30 2291 C 217.46 -0.348322 -2.08206 0
M  V30 2292 O 216.808 0.664862 -2.18613 0
M  V30 2293 C 217.018 -2.89603 -1.9476 0
M  V30 2294 C 218.366 -3.42579 -2.50849 0
M  V30 2295 O 219.39 -2.91338 -2.04941 0
M  V30 2296 O 218.249 -4.32054 -3.34652 0
M  V30 2297 H 215.343 -0.631439 -0.534054 0
M  V30 2298 H 217.889 -1.64507 -0.416613 0
M  V30 2299 H 216.661 -3.698 -1.27921 0
M  V30 2300 H 216.284 -2.85155 -2.77079 0
M  V30 2301 N 217.281 0.66697 -1.42791 0
M  V30 2302 C 218.228 1.7803 -1.4688 0
M  V30 2303 C 219.198 1.6299 -0.319919 0
M  V30 2304 O 220.383 1.83432 -0.525118 0
M  V30 2305 C 217.523 3.1611 -1.38451 0
M  V30 2306 C 216.636 3.42381 -2.63437 0
M  V30 2307 C 215.771 4.70232 -2.47094 0
M  V30 2308 C 214.81 4.89564 -3.67415 0
M  V30 2309 N 213.947 6.08661 -3.49966 0
M  V30 2310 H 218.787 1.7387 -2.42019 0
M  V30 2311 H 216.324 0.84868 -1.20149 0
M  V30 2312 H 218.282 3.95914 -1.31561 0
M  V30 2313 H 216.912 3.19374 -0.469033 0
M  V30 2314 H 215.964 2.56774 -2.80662 0
M  V30 2315 H 217.276 3.52557 -3.52853 0
M  V30 2316 H 216.43 5.5814 -2.37834 0
M  V30 2317 H 215.169 4.62353 -1.5518 0
M  V30 2318 H 214.174 4.00096 -3.77099 0
M  V30 2319 H 215.399 4.99282 -4.6032 0
M  V30 2320 H 213.345 6.0194 -2.60776 0
M  V30 2321 H 213.262 6.19733 -4.32975 0
M  V30 2322 H 214.53 6.99226 -3.44532 0
M  V30 2323 N 218.759 1.29093 0.90403 0
M  V30 2324 C 219.984 1.19809 1.69294 0
M  V30 2325 C 220.409 -0.238481 1.86582 0
M  V30 2326 O 219.767 -1.1723 1.383 0
M  V30 2327 C 219.815 1.91202 3.05736 0
M  V30 2328 O 218.919 1.22611 3.93752 0
M  V30 2329 H 218.26 0.415385 0.518027 0
M  V30 2330 H 220.79 1.70586 1.12967 0
M  V30 2331 H 220.8 1.99487 3.55906 0
M  V30 2332 H 219.475 2.95692 2.92471 0
M  V30 2333 H 218.052 1.22554 3.52186 0
M  V30 2334 N 220.237 -1.11381 1.11499 0
M  V30 2335 C 221.465 -1.86934 0.88675 0
M  V30 2336 C 221.88 -1.80195 -0.563476 0
M  V30 2337 O 221.237 -1.18367 -1.38908 0
M  V30 2338 C 221.288 -3.35722 1.34064 0
M  V30 2339 O 221.009 -3.4232 2.73401 0
M  V30 2340 C 222.51 -4.2818 1.14791 0
M  V30 2341 H 219.73 -0.591117 0.317523 0
M  V30 2342 H 222.274 -1.40865 1.48248 0
M  V30 2343 H 220.429 -3.79294 0.788355 0
M  V30 2344 H 220.843 -4.34971 2.93087 0
M  V30 2345 H 222.317 -5.30817 1.5145 0
M  V30 2346 H 222.794 -4.39113 0.0875279 0
M  V30 2347 H 223.4 -3.90402 1.68721 0
M  V30 2348 N 221.715 -0.905404 -1.28997 0
M  V30 2349 C 222.961 -0.535039 -1.95615 0
M  V30 2350 C 223.294 0.917404 -1.71165 0
M  V30 2351 O 222.569 1.65123 -1.02785 0
M  V30 2352 C 222.852 -0.834918 -3.50287 0
M  V30 2353 C 222.705 -2.33948 -3.84172 0
M  V30 2354 C 224.024 -0.325318 -4.38896 0
M  V30 2355 H 221.143 -0.195861 -0.710498 0
M  V30 2356 H 223.785 -1.13313 -1.52513 0
M  V30 2357 H 221.935 -0.325904 -3.87131 0
M  V30 2358 H 223.607 -2.91847 -3.57243 0
M  V30 2359 H 221.85 -2.79789 -3.31513 0
M  V30 2360 H 222.521 -2.49987 -4.92149 0
M  V30 2361 H 224.997 -0.761256 -4.09077 0
M  V30 2362 H 223.873 -0.564295 -5.45992 0
M  V30 2363 H 224.134 0.774144 -4.35269 0
M  V30 2364 N 223.193 1.4272 -0.668489 0
M  V30 2365 C 224.44 2.01624 -0.18814 0
M  V30 2366 C 224.768 1.5282 1.20317 0
M  V30 2367 O 224.023 0.718323 1.8204 0
M  V30 2368 C 224.322 3.57021 -0.164499 0
M  V30 2369 C 223.988 4.25232 -1.49962 0
M  V30 2370 C 222.65 4.4358 -1.8652 0
M  V30 2371 C 225.002 4.63727 -2.37921 0
M  V30 2372 C 222.33 4.97694 -3.10674 0
M  V30 2373 C 224.682 5.19218 -3.6138 0
M  V30 2374 C 223.346 5.3578 -3.98115 0
M  V30 2375 H 222.616 0.737795 -0.0688454 0
M  V30 2376 H 225.263 1.70991 -0.862225 0
M  V30 2377 H 223.568 3.87285 0.593079 0
M  V30 2378 H 225.265 4.00372 0.224271 0
M  V30 2379 H 221.855 4.11306 -1.20522 0
M  V30 2380 H 226.039 4.4923 -2.10964 0
M  V30 2381 H 221.295 5.08702 -3.39164 0
M  V30 2382 H 225.469 5.4799 -4.29743 0
M  V30 2383 H 223.096 5.77475 -4.94395 0
M  V30 2384 N 224.671 0.411399 1.52136 0
M  V30 2385 C 225.919 -0.163322 2.01439 0
M  V30 2386 C 226.24 -1.45453 1.29879 0
M  V30 2387 O 225.51 -1.91225 0.4254 0
M  V30 2388 H 224.09 -0.0633447 0.744309 0
M  V30 2389 H 226.752 0.548161 1.87033 0
M  V30 2390 H 225.848 -0.357817 3.10042 0
M  V30 2391 N 226.149 -1.5696 0.141893 0
M  V30 2392 C 227.377 -2.00322 -0.517579 0
M  V30 2393 C 227.792 -1.02193 -1.58752 0
M  V30 2394 O 227.149 -0.0181619 -1.82491 0
M  V30 2395 C 227.2 -3.43618 -1.12289 0
M  V30 2396 O 226.921 -4.37995 -0.0956929 0
M  V30 2397 C 228.422 -4.02231 -1.86347 0
M  V30 2398 H 225.642 -0.657243 -0.135177 0
M  V30 2399 H 228.186 -2.03146 0.234973 0
M  V30 2400 H 226.341 -3.41662 -1.82609 0
M  V30 2401 H 226.755 -5.21729 -0.538469 0
M  V30 2402 H 228.229 -5.04509 -2.23997 0
M  V30 2403 H 228.706 -3.42655 -2.74744 0
M  V30 2404 H 229.312 -4.07802 -1.20737 0
M  V30 2405 N 227.627 0.131896 -1.57047 0
M  V30 2406 C 228.59 1.14638 -1.98471 0
M  V30 2407 C 229.59 1.35029 -0.873148 0
M  V30 2408 O 230.78 1.31764 -1.13946 0
M  V30 2409 C 227.912 2.50358 -2.31373 0
M  V30 2410 H 229.105 0.79064 -2.8929 0
M  V30 2411 H 226.658 0.375761 -1.51716 0
M  V30 2412 H 227.393 2.90876 -1.43393 0
M  V30 2413 H 227.178 2.36915 -3.12432 0
M  V30 2414 H 228.668 3.23395 -2.64207 0
M  V30 2415 N 229.106 1.52395 0.401703 0
M  V30 2416 C 230.036 1.79231 1.49661 0
M  V30 2417 C 231.017 0.643654 1.57452 0
M  V30 2418 O 232.202 0.889989 1.72606 0
M  V30 2419 C 229.332 1.94971 2.87409 0
M  V30 2420 C 228.286 3.10604 2.94465 0
M  V30 2421 C 227.612 3.11577 4.34538 0
M  V30 2422 C 228.912 4.49921 2.6527 0
M  V30 2423 H 230.606 2.70917 1.27454 0
M  V30 2424 H 228.152 1.30362 0.6117 0
M  V30 2425 H 230.105 2.12328 3.63999 0
M  V30 2426 H 228.829 0.999632 3.10926 0
M  V30 2427 H 227.488 2.93009 2.20321 0
M  V30 2428 H 227.136 2.14277 4.55076 0
M  V30 2429 H 226.836 3.89247 4.40183 0
M  V30 2430 H 228.36 3.31073 5.13053 0
M  V30 2431 H 229.774 4.67683 3.31581 0
M  V30 2432 H 228.171 5.29564 2.82281 0
M  V30 2433 H 229.241 4.57507 1.60671 0
M  V30 2434 N 230.584 -0.659388 1.43143 0
M  V30 2435 C 231.532 -1.79374 1.4808 0
M  V30 2436 C 232.526 -1.65639 0.354988 0
M  V30 2437 O 233.732 -1.7206 0.528704 0
M  V30 2438 H 230.107 -0.591705 0.4641 0
M  V30 2439 H 232.078 -1.72329 2.43609 0
M  V30 2440 C 230.827 -3.17606 1.41499 0
M  V30 2441 H 230.15 -3.28809 2.27431 0
M  V30 2442 H 231.59 -3.96951 1.49015 0
M  V30 2443 C 230.049 -3.36642 0.131765 0
M  V30 2444 O 230.579 -3.93461 -0.809386 0
M  V30 2445 N 228.785 -2.90567 0.0439396 0
M  V30 2446 H 228.332 -2.44513 0.810619 0
M  V30 2447 H 228.29 -3.03681 -0.813969 0
M  V30 2448 N 232.062 -1.29571 -0.897171 0
M  V30 2449 C 233.292 -1.20408 -1.67886 0
M  V30 2450 C 233.7 0.237429 -1.87704 0
M  V30 2451 O 233.043 1.17048 -1.41582 0
M  V30 2452 C 233.105 -1.84887 -3.08314 0
M  V30 2453 C 232.769 -3.34189 -3.11716 0
M  V30 2454 C 233.766 -4.30374 -2.91675 0
M  V30 2455 C 231.451 -3.75431 -3.33701 0
M  V30 2456 C 233.445 -5.65776 -2.93557 0
M  V30 2457 C 231.132 -5.10955 -3.35214 0
M  V30 2458 C 232.13 -6.05938 -3.15164 0
M  V30 2459 O 231.818 -7.38987 -3.1647 0
M  V30 2460 H 231.55 -0.418289 -0.531046 0
M  V30 2461 H 234.104 -1.71514 -1.13014 0
M  V30 2462 H 232.334 -1.28295 -3.64798 0
M  V30 2463 H 234.023 -1.70011 -3.6858 0
M  V30 2464 H 234.789 -3.99844 -2.74499 0
M  V30 2465 H 230.668 -3.01953 -3.48347 0
M  V30 2466 H 234.212 -6.39889 -2.77826 0
M  V30 2467 H 230.109 -5.4113 -3.51922 0
M  V30 2468 H 230.877 -7.47823 -3.3272 0
M  V30 2469 N 233.54 1.10788 -1.12088 0
M  V30 2470 C 234.786 1.82942 -0.875226 0
M  V30 2471 C 235.119 1.84779 0.597538 0
M  V30 2472 O 234.394 1.30578 1.44152 0
M  V30 2473 C 234.677 3.29789 -1.44606 0
M  V30 2474 C 234.53 3.36307 -2.98693 0
M  V30 2475 C 235.849 4.26064 -1.10261 0
M  V30 2476 H 232.968 0.664195 -0.319397 0
M  V30 2477 H 235.61 1.29867 -1.38689 0
M  V30 2478 H 233.76 3.75118 -1.01089 0
M  V30 2479 H 235.432 2.99487 -3.50864 0
M  V30 2480 H 233.675 2.76318 -3.34411 0
M  V30 2481 H 234.346 4.39694 -3.33726 0
M  V30 2482 H 236.822 3.88951 -1.4784 0
M  V30 2483 H 235.698 5.27183 -1.52869 0
M  V30 2484 H 235.959 4.42098 -0.0142953 0
M  V30 2485 N 235.018 0.912232 1.28515 0
M  V30 2486 C 236.243 0.559774 1.99703 0
M  V30 2487 C 236.668 -0.851393 1.67729 0
M  V30 2488 O 236.026 -1.56875 0.908834 0
M  V30 2489 C 236.074 0.773874 3.52198 0
M  V30 2490 O 235.178 -0.167842 4.12058 0
M  V30 2491 H 234.519 0.21723 0.627461 0
M  V30 2492 H 237.049 1.22725 1.63706 0
M  V30 2493 H 237.059 0.683386 4.02236 0
M  V30 2494 H 235.734 1.80261 3.74805 0
M  V30 2495 H 234.311 -0.0287509 3.72889 0
M  V30 2496 N 236.496 -1.42363 0.676048 0
M  V30 2497 C 237.426 -2.33497 0.0124832 0
M  V30 2498 C 238.407 -1.50748 -0.787981 0
M  V30 2499 O 239.592 -1.79346 -0.744884 0
M  V30 2500 C 236.722 -3.34377 -0.938582 0
M  V30 2501 C 235.676 -4.27289 -0.246622 0
M  V30 2502 C 235.002 -5.18386 -1.31071 0
M  V30 2503 C 236.302 -5.14916 0.875125 0
M  V30 2504 H 237.996 -2.89233 0.773593 0
M  V30 2505 H 235.542 -1.39073 0.37346 0
M  V30 2506 H 237.495 -3.97044 -1.41188 0
M  V30 2507 H 236.219 -2.76947 -1.73113 0
M  V30 2508 H 234.878 -3.66018 0.206456 0
M  V30 2509 H 234.526 -4.57282 -2.09528 0
M  V30 2510 H 234.226 -5.81378 -0.852839 0
M  V30 2511 H 235.75 -5.83929 -1.78492 0
M  V30 2512 H 237.164 -5.71262 0.482983 0
M  V30 2513 H 235.561 -5.86747 1.25887 0
M  V30 2514 H 236.631 -4.53242 1.72335 0
M  V30 2515 N 237.974 -0.419461 -1.51915 0
M  V30 2516 C 239.39 -0.0708431 -1.59443 0
M  V30 2517 C 239.59 1.41796 -1.43164 0
M  V30 2518 O 238.646 2.18596 -1.26381 0
M  V30 2519 C 239.959 -0.574991 -2.95151 0
M  V30 2520 C 241.507 -0.533867 -3.08413 0
M  V30 2521 C 241.982 -1.01469 -4.46618 0
M  V30 2522 N 243.473 -0.971939 -4.52888 0
M  V30 2523 C 244.208 -1.31505 -5.58116 0
M  V30 2524 N 243.704 -1.73014 -6.70849 0
M  V30 2525 N 245.497 -1.23436 -5.48379 0
M  V30 2526 H 237.648 -1.38836 -1.60743 0
M  V30 2527 H 239.911 -0.570998 -0.756747 0
M  V30 2528 H 239.617 -1.61597 -3.12377 0
M  V30 2529 H 239.491 0.00979777 -3.77199 0
M  V30 2530 H 241.878 0.498086 -2.90866 0
M  V30 2531 H 241.959 -1.15484 -2.28248 0
M  V30 2532 H 241.603 -2.04502 -4.6491 0
M  V30 2533 H 241.533 -0.370433 -5.25295 0
M  V30 2534 H 244.024 -0.666893 -3.71969 0
M  V30 2535 H 244.337 -1.97479 -7.47143 0
M  V30 2536 H 242.682 -1.76926 -6.72103 0
M  V30 2537 H 245.873 -0.908869 -4.59192 0
M  V30 2538 H 246.046 -1.50506 -6.30279 0
M  V30 2539 N 239.452 1.56882 -0.150215 0
M  V30 2540 C 240.701 1.95403 0.500071 0
M  V30 2541 C 241.014 1.03777 1.658 0
M  V30 2542 O 242.22 1.31889 2.37313 0
M  V30 2543 C 240.676 3.4738 0.941018 0
M  V30 2544 C 240.284 4.47596 -0.190158 0
M  V30 2545 C 242.028 3.9476 1.56091 0
M  V30 2546 C 239.935 5.90787 0.269237 0
M  V30 2547 H 238.865 0.729515 0.190588 0
M  V30 2548 H 241.516 1.81988 -0.235074 0
M  V30 2549 H 239.898 3.56138 1.73152 0
M  V30 2550 H 241.072 4.50536 -0.967157 0
M  V30 2551 H 239.387 4.10151 -0.718666 0
M  V30 2552 H 241.984 4.99181 1.9163 0
M  V30 2553 H 242.327 3.36494 2.45107 0
M  V30 2554 H 242.86 3.88932 0.835249 0
M  V30 2555 H 239.599 6.52879 -0.585621 0
M  V30 2556 H 239.119 5.912 1.01204 0
M  V30 2557 H 240.798 6.42979 0.720176 0
M  V30 2558 N 240.93 -0.123565 1.57115 0
M  V30 2559 C 241.86 -1.15309 2.03042 0
M  V30 2560 C 242.841 -1.43454 0.914061 0
M  V30 2561 O 244.026 -1.53973 1.18347 0
M  V30 2562 C 241.156 -2.48043 2.43089 0
M  V30 2563 C 240.11 -2.3437 3.58127 0
M  V30 2564 C 239.436 -3.72026 3.84059 0
M  V30 2565 C 240.736 -1.80804 4.90007 0
M  V30 2566 H 242.43 -0.771102 2.893 0
M  V30 2567 H 239.976 -0.369479 1.39179 0
M  V30 2568 H 241.929 -3.20311 2.73823 0
M  V30 2569 H 240.653 -2.88122 1.53796 0
M  V30 2570 H 239.312 -1.64551 3.27595 0
M  V30 2571 H 238.96 -4.09582 2.91979 0
M  V30 2572 H 238.66 -3.63732 4.6149 0
M  V30 2573 H 240.184 -4.45806 4.1724 0
M  V30 2574 H 241.598 -2.42886 5.19307 0
M  V30 2575 H 239.995 -1.83343 5.71407 0
M  V30 2576 H 241.065 -0.76528 4.78823 0
M  V30 2577 N 242.408 -1.52605 -0.393616 0
M  V30 2578 C 243.656 -1.67093 -1.13685 0
M  V30 2579 C 243.977 -0.411011 -1.90619 0
M  V30 2580 O 243.247 0.574491 -1.87287 0
M  V30 2581 H 241.827 -0.615923 -0.422668 0
M  V30 2582 H 244.489 -1.89704 -0.447039 0
M  V30 2583 H 243.585 -2.51922 -1.84232 0
M  V30 2584 N 243.887 0.651787 -1.4349 0
M  V30 2585 C 245.133 1.41376 -1.45398 0
M  V30 2586 C 245.466 1.94041 -0.0784823 0
M  V30 2587 O 244.741 1.72379 0.900878 0
M  V30 2588 C 245.024 2.59414 -2.49752 0
M  V30 2589 C 244.877 2.12232 -3.96582 0
M  V30 2590 C 246.196 3.61626 -2.50827 0
M  V30 2591 H 243.315 0.512719 -0.529422 0
M  V30 2592 H 245.957 0.738796 -1.75048 0
M  V30 2593 H 244.107 3.16997 -2.246 0
M  V30 2594 H 245.779 1.59639 -4.32797 0
M  V30 2595 H 244.022 1.43592 -4.09346 0
M  V30 2596 H 244.693 2.9712 -4.65214 0
M  V30 2597 H 247.169 3.13805 -2.7325 0
M  V30 2598 H 246.045 4.41766 -3.25783 0
M  V30 2599 H 246.306 4.14314 -1.5426 0
M  V30 2600 N 245.365 1.30045 0.890287 0
M  V30 2601 C 246.613 1.18327 1.63839 0
M  V30 2602 C 246.934 -0.263455 1.93212 0
M  V30 2603 O 246.204 -1.17856 1.56482 0
M  V30 2604 H 244.784 0.434933 0.607324 0
M  V30 2605 H 247.446 1.631 1.06698 0
M  V30 2606 H 246.542 1.74024 2.59079 0
M  V30 2607 N 246.843 -1.10192 1.12674 0
M  V30 2608 C 248.254 -1.63707 0.897604 0
M  V30 2609 C 248.605 -1.87812 -0.567546 0
M  V30 2610 O 247.73 -1.62196 -1.43253 0
M  V30 2611 C 248.325 -2.974 1.62292 0
M  V30 2612 C 246.884 -3.47772 1.43986 0
M  V30 2613 C 246.031 -2.22332 1.65722 0
M  V30 2614 H 248.982 -0.936587 1.28116 0
M  V30 2615 H 249.003 -3.64986 1.07541 0
M  V30 2616 H 248.515 -2.79824 2.68924 0
M  V30 2617 H 246.616 -3.70487 0.396206 0
M  V30 2618 H 246.729 -4.25723 2.19765 0
M  V30 2619 H 245.093 -2.30599 1.08149 0
M  V30 2620 H 245.876 -2.07285 2.73657 0
M  V30 2621 N 248.321 -0.919034 -1.28029 0
M  V30 2622 C 249.598 -0.473668 -1.89778 0
M  V30 2623 C 249.978 1.04783 -1.83259 0
M  V30 2624 O 249.326 1.8982 -1.27202 0
M  V30 2625 C 249.536 -1.00998 -3.34066 0
M  V30 2626 C 250.884 -1.06525 -4.1102 0
M  V30 2627 O 251.908 -0.958996 -3.43048 0
M  V30 2628 O 250.767 -1.22776 -5.3253 0
M  V30 2629 H 247.861 -0.15098 -0.813101 0
M  V30 2630 H 250.407 -1.01016 -1.36359 0
M  V30 2631 H 249.179 -2.05392 -3.33061 0
M  V30 2632 H 248.802 -0.454626 -3.94992 0
M  V30 2633 N 249.799 1.42003 -0.683588 0
M  V30 2634 C 251.076 1.95112 -0.138075 0
M  V30 2635 C 251.456 1.62359 1.34918 0
M  V30 2636 O 250.804 0.924311 2.08971 0
M  V30 2637 C 251.014 3.46505 -0.416581 0
M  V30 2638 C 252.362 4.23254 -0.337834 0
M  V30 2639 O 253.386 3.54468 -0.35082 0
M  V30 2640 O 252.245 5.45743 -0.287596 0
M  V30 2641 H 249.339 0.826961 -0.00797996 0
M  V30 2642 H 251.885 1.51784 -0.758924 0
M  V30 2643 H 250.657 3.63582 -1.4465 0
M  V30 2644 H 250.28 3.969 0.235839 0
M  V30 2645 N 251.277 0.427512 1.51691 0
M  V30 2646 C 252.688 -0.0378867 1.86662 0
M  V30 2647 C 253.039 -1.42819 1.34525 0
M  V30 2648 O 252.164 -2.05037 0.692014 0
M  V30 2649 C 252.759 -0.0755266 3.38716 0
M  V30 2650 C 251.318 -0.485309 3.73258 0
M  V30 2651 C 250.465 0.328399 2.75349 0
M  V30 2652 H 253.416 0.64379 1.45055 0
M  V30 2653 H 253.437 -0.887056 3.70016 0
M  V30 2654 H 252.949 0.936487 3.76632 0
M  V30 2655 H 251.05 -1.50329 3.40928 0
M  V30 2656 H 251.163 -0.21693 4.78609 0
M  V30 2657 H 249.527 -0.211905 2.53817 0
M  V30 2658 H 250.31 1.3391 3.16106 0
M  V30 2659 N 252.755 -1.56801 0.158532 0
M  V30 2660 C 254.032 -1.88131 -0.535357 0
M  V30 2661 C 254.412 -1.06638 -1.82186 0
M  V30 2662 O 253.76 -0.156533 -2.27963 0
M  V30 2663 C 253.97 -3.39949 -0.789653 0
M  V30 2664 C 255.318 -4.09416 -1.12533 0
M  V30 2665 O 256.342 -3.45194 -0.878622 0
M  V30 2666 O 255.201 -5.22855 -1.59014 0
M  V30 2667 H 252.295 -0.780143 -0.27442 0
M  V30 2668 H 254.841 -1.68564 0.19601 0
M  V30 2669 H 253.613 -3.91115 0.120353 0
M  V30 2670 H 253.236 -3.65084 -1.57479 0
M  V30 2671 N 254.233 0.115231 -1.57178 0
M  V30 2672 C 255.163 1.1423 -2.03651 0
M  V30 2673 C 256.144 1.42967 -0.921655 0
M  V30 2674 O 257.329 1.53343 -1.19162 0
M  V30 2675 C 254.459 2.4675 -2.44401 0
M  V30 2676 C 253.413 2.32467 -3.59365 0
M  V30 2677 C 252.739 3.69984 -3.86026 0
M  V30 2678 C 254.039 1.78203 -4.90959 0
M  V30 2679 H 255.733 0.755749 -2.89705 0
M  V30 2680 H 253.279 0.362093 -1.39373 0
M  V30 2681 H 255.232 3.18854 -2.75517 0
M  V30 2682 H 253.956 2.87302 -1.55322 0
M  V30 2683 H 252.615 1.62811 -3.28463 0
M  V30 2684 H 252.263 4.08028 -2.94147 0
M  V30 2685 H 251.963 3.61279 -4.63412 0
M  V30 2686 H 253.487 4.43587 -4.19599 0
M  V30 2687 H 254.901 2.40128 -5.20587 0
M  V30 2688 H 253.298 1.8031 -5.72371 0
M  V30 2689 H 254.368 0.739876 -4.79222 0
M  V30 2690 N 255.711 1.52812 0.385517 0
M  V30 2691 C 256.957 1.68275 1.13188 0
M  V30 2692 C 257.29 0.423179 1.89533 0
M  V30 2693 O 256.565 -0.579113 1.85679 0
M  V30 2694 C 256.848 2.92001 2.1073 0
M  V30 2695 C 256.701 4.28067 1.38125 0
M  V30 2696 C 258.02 3.11283 3.11113 0
M  V30 2697 H 255.139 0.612352 0.410115 0
M  V30 2698 H 257.781 1.85415 0.414869 0
M  V30 2699 H 255.931 2.77519 2.71874 0
M  V30 2700 H 257.603 4.54324 0.799187 0
M  V30 2701 H 255.846 4.28388 0.683092 0
M  V30 2702 H 256.517 5.10733 2.09417 0
M  V30 2703 H 258.993 3.2482 2.6006 0
M  V30 2704 H 257.869 3.99325 3.76605 0
M  V30 2705 H 258.13 2.25656 3.80173 0
M  V30 2706 N 257.189 -0.644168 1.43834 0
M  V30 2707 C 258.605 -0.960875 1.27434 0
M  V30 2708 C 258.805 -2.00499 0.200618 0
M  V30 2709 O 257.861 -2.49018 -0.417906 0
M  V30 2710 C 259.174 -1.43653 2.64167 0
M  V30 2711 C 260.722 -1.55271 2.71772 0
M  V30 2712 C 261.197 -2.06224 4.08944 0
M  V30 2713 N 262.688 -2.13513 4.11055 0
M  V30 2714 C 263.423 -2.54081 5.14033 0
M  V30 2715 N 262.919 -2.9388 6.27381 0
M  V30 2716 N 264.712 -2.54101 5.01387 0
M  V30 2717 H 256.863 0.0465779 2.12349 0
M  V30 2718 H 259.126 -0.0417638 0.94708 0
M  V30 2719 H 258.832 -0.743706 3.43747 0
M  V30 2720 H 258.706 -2.40993 2.90176 0
M  V30 2721 H 261.093 -2.23653 1.92519 0
M  V30 2722 H 261.174 -0.563395 2.49519 0
M  V30 2723 H 260.818 -1.38441 4.88668 0
M  V30 2724 H 260.748 -3.06003 4.28567 0
M  V30 2725 H 263.239 -1.85493 3.29242 0
M  V30 2726 H 263.552 -3.2361 7.01781 0
M  V30 2727 H 261.897 -2.91663 6.30839 0
M  V30 2728 H 265.088 -2.22391 4.11898 0
M  V30 2729 H 265.261 -2.85394 5.81768 0
M  V30 2730 N 258.668 -1.30515 -0.883378 0
M  V30 2731 C 259.631 -1.1701 -1.97082 0
M  V30 2732 C 260.631 -0.10089 -1.60483 0
M  V30 2733 O 261.821 -0.349127 -1.70666 0
M  V30 2734 C 258.953 -0.793045 -3.31547 0
M  V30 2735 H 260.146 -2.13622 -2.10489 0
M  V30 2736 H 257.699 -1.13935 -1.06998 0
M  V30 2737 H 258.434 0.172499 -3.23841 0
M  V30 2738 H 258.219 -1.56576 -3.5948 0
M  V30 2739 H 259.709 -0.722073 -4.1131 0
M  V30 2740 N 260.146 1.09593 -1.13257 0
M  V30 2741 C 261.562 1.33775 -0.870423 0
M  V30 2742 C 261.762 1.95327 0.494926 0
M  V30 2743 O 260.818 2.19853 1.2418 0
M  V30 2744 C 262.131 2.25106 -1.99369 0
M  V30 2745 C 263.679 2.3862 -2.02558 0
M  V30 2746 C 264.154 3.33285 -3.14142 0
M  V30 2747 N 265.645 3.40857 -3.13641 0
M  V30 2748 C 266.38 4.14101 -3.96621 0
M  V30 2749 N 265.876 4.90157 -4.8961 0
M  V30 2750 N 267.669 4.09808 -3.84726 0
M  V30 2751 H 259.82 0.680136 -2.01216 0
M  V30 2752 H 262.083 0.362133 -0.876107 0
M  V30 2753 H 261.789 1.87103 -2.97801 0
M  V30 2754 H 261.663 3.25481 -1.90635 0
M  V30 2755 H 264.05 2.75887 -1.0474 0
M  V30 2756 H 264.131 1.38028 -2.15364 0
M  V30 2757 H 263.775 2.96741 -4.12198 0
M  V30 2758 H 263.705 4.33776 -2.98574 0
M  V30 2759 H 266.196 2.86624 -2.46282 0
M  V30 2760 H 266.509 5.4347 -5.49418 0
M  V30 2761 H 264.854 4.89251 -4.93617 0
M  V30 2762 H 268.045 3.4949 -3.11408 0
M  V30 2763 H 268.218 4.66629 -4.49623 0
M  V30 2764 N 261.624 0.925811 1.2754 0
M  V30 2765 C 262.572 0.413897 2.28888 0
M  V30 2766 C 263.566 -0.500779 1.61829 0
M  V30 2767 O 264.772 -0.38069 1.75928 0
M  V30 2768 H 261.147 0.115274 0.743112 0
M  V30 2769 H 263.118 1.28151 2.69481 0
M  V30 2770 C 261.867 -0.319792 3.46226 0
M  V30 2771 H 261.19 0.374846 3.98039 0
M  V30 2772 H 262.63 -0.642435 4.19105 0
M  V30 2773 C 261.089 -1.53209 3.00048 0
M  V30 2774 O 261.619 -2.6309 3.03557 0
M  V30 2775 N 259.825 -1.38326 2.55566 0
M  V30 2776 H 259.372 -0.489292 2.5291 0
M  V30 2777 H 259.33 -2.19564 2.25031 0
M  V30 2778 N 263.102 -1.41638 0.69111 0
M  V30 2779 C 264.351 -2.00526 0.217318 0
M  V30 2780 C 264.664 -1.55353 -1.18848 0
M  V30 2781 O 265.87 -2.06769 -1.75951 0
M  V30 2782 C 264.326 -3.58313 0.337639 0
M  V30 2783 C 263.934 -4.12469 1.74852 0
M  V30 2784 C 265.678 -4.24431 -0.0766066 0
M  V30 2785 C 263.585 -5.62675 1.82074 0
M  V30 2786 H 262.515 -0.750008 0.0774893 0
M  V30 2787 H 265.166 -1.6217 0.858661 0
M  V30 2788 H 263.548 -3.9425 -0.371879 0
M  V30 2789 H 264.722 -3.8796 2.48644 0
M  V30 2790 H 263.037 -3.58861 2.11205 0
M  V30 2791 H 265.634 -5.34683 -0.0430284 0
M  V30 2792 H 265.977 -4.01101 -1.1146 0
M  V30 2793 H 266.51 -3.93512 0.582476 0
M  V30 2794 H 263.249 -5.90826 2.83911 0
M  V30 2795 H 262.769 -5.89124 1.12661 0
M  V30 2796 H 264.448 -6.27371 1.58159 0
M  V30 2797 N 264.58 -0.43555 -1.51462 0
M  V30 2798 C 265.51 0.367376 -2.30592 0
M  V30 2799 C 266.491 1.02263 -1.35928 0
M  V30 2800 O 267.676 1.02661 -1.64847 0
M  V30 2801 C 264.806 1.46983 -3.14664 0
M  V30 2802 C 263.76 0.938161 -4.17591 0
M  V30 2803 C 263.086 2.13622 -4.90173 0
M  V30 2804 C 264.386 -0.0261621 -5.22293 0
M  V30 2805 H 266.08 -0.292969 -2.97963 0
M  V30 2806 H 263.626 -0.14234 -1.43295 0
M  V30 2807 H 265.579 2.03873 -3.688 0
M  V30 2808 H 264.303 2.15843 -2.4511 0
M  V30 2809 H 262.962 0.391481 -3.64504 0
M  V30 2810 H 262.61 2.81098 -4.17124 0
M  V30 2811 H 262.31 1.78688 -5.59772 0
M  V30 2812 H 263.834 2.7107 -5.47132 0
M  V30 2813 H 265.248 0.452384 -5.71512 0
M  V30 2814 H 263.645 -0.287992 -5.99409 0
M  V30 2815 H 264.715 -0.963391 -4.75233 0
M  V30 2816 N 266.058 1.56714 -0.166846 0
M  V30 2817 C 267.008 2.14338 0.777382 0
M  V30 2818 C 267.992 1.07642 1.19591 0
M  V30 2819 O 269.184 1.33775 1.15902 0
M  V30 2820 C 266.313 2.78417 2.00846 0
M  V30 2821 C 265.399 3.92264 1.61212 0
M  V30 2822 N 265.79 4.97268 0.925104 0
M  V30 2823 C 264.088 4.03342 1.90346 0
M  V30 2824 C 264.789 5.77093 0.730627 0
M  V30 2825 N 263.765 5.2854 1.27067 0
M  V30 2826 H 267.567 2.9289 0.243466 0
M  V30 2827 H 265.081 1.62364 0.0339954 0
M  V30 2828 H 267.078 3.18073 2.69509 0
M  V30 2829 H 265.738 2.01344 2.54736 0
M  V30 2830 H 266.749 5.14601 0.583646 0
M  V30 2831 H 263.426 3.37368 2.45946 0
M  V30 2832 H 264.816 6.71638 0.187668 0
M  V30 2833 N 267.536 -0.106894 1.57237 0
M  V30 2834 C 268.483 -1.13049 2.01217 0
M  V30 2835 C 269.453 -1.40471 0.886403 0
M  V30 2836 O 270.638 -1.52133 1.15153 0
M  V30 2837 C 267.778 -2.4487 2.43172 0
M  V30 2838 C 266.891 -2.24281 3.69218 0
M  V30 2839 C 266.026 -3.49417 4.00101 0
M  V30 2840 C 265.065 -3.24038 5.19294 0
M  V30 2841 N 264.202 -4.41409 5.45988 0
M  V30 2842 H 269.042 -0.748456 2.88448 0
M  V30 2843 H 266.579 -0.358054 1.42676 0
M  V30 2844 H 268.537 -3.21786 2.65537 0
M  V30 2845 H 267.167 -2.80944 1.58967 0
M  V30 2846 H 266.219 -1.38224 3.54398 0
M  V30 2847 H 267.531 -2.01512 4.56283 0
M  V30 2848 H 266.685 -4.34746 4.2318 0
M  V30 2849 H 265.424 -3.75229 3.11535 0
M  V30 2850 H 264.429 -2.37102 4.96047 0
M  V30 2851 H 265.654 -2.99584 6.09447 0
M  V30 2852 H 263.6 -4.67319 4.60379 0
M  V30 2853 H 263.517 -4.21788 6.274 0
M  V30 2854 H 264.785 -5.27836 5.73593 0
M  V30 2855 N 269.014 -1.53014 -0.377408 0
M  V30 2856 C 269.961 -1.78616 -1.46168 0
M  V30 2857 C 270.931 -0.629917 -1.53692 0
M  V30 2858 O 272.116 -0.870861 -1.69766 0
M  V30 2859 C 269.256 -1.97123 -2.8326 0
M  V30 2860 C 268.369 -3.24831 -2.84796 0
M  V30 2861 C 267.504 -3.33591 -4.13389 0
M  V30 2862 C 266.543 -4.55377 -4.09021 0
M  V30 2863 N 265.68 -4.61355 -5.29241 0
M  V30 2864 H 270.52 -2.71142 -1.23637 0
M  V30 2865 H 268.057 -1.34326 -0.599577 0
M  V30 2866 H 270.015 -2.05839 -3.62886 0
M  V30 2867 H 268.645 -1.07946 -3.04216 0
M  V30 2868 H 267.697 -3.25128 -1.97474 0
M  V30 2869 H 269.009 -4.14523 -2.77439 0
M  V30 2870 H 268.163 -3.41554 -5.01424 0
M  V30 2871 H 266.902 -2.41894 -4.23484 0
M  V30 2872 H 265.907 -4.47527 -3.19373 0
M  V30 2873 H 267.132 -5.48402 -4.00539 0
M  V30 2874 H 265.078 -3.72554 -5.39944 0
M  V30 2875 H 264.995 -5.44935 -5.24006 0
M  V30 2876 H 266.263 -4.73586 -6.19141 0
M  V30 2877 N 270.492 0.636531 -1.44174 0
M  V30 2878 C 271.74 1.39343 -1.46383 0
M  V30 2879 C 272.061 1.94766 -0.0955715 0
M  V30 2880 O 271.331 1.75452 0.871395 0
M  V30 2881 H 269.911 0.517199 -0.538994 0
M  V30 2882 H 272.573 0.74957 -1.7991 0
M  V30 2883 H 271.669 2.22746 -2.18611 0
M  V30 2884 N 271.97 1.30982 0.876444 0
M  V30 2885 C 273.218 1.20058 1.62575 0
M  V30 2886 C 273.539 -0.242947 1.93481 0
M  V30 2887 O 272.809 -1.1619 1.57724 0
M  V30 2888 H 271.389 0.44135 0.602677 0
M  V30 2889 H 274.051 1.64222 1.04962 0
M  V30 2890 H 273.147 1.76762 2.57219 0
M  V30 2891 N 273.449 -1.08991 1.13837 0
M  V30 2892 C 274.412 -2.13925 0.822715 0
M  V30 2893 C 275.412 -1.599 -0.1699 0
M  V30 2894 O 276.602 -1.74104 0.0577251 0
M  V30 2895 C 273.734 -3.40155 0.225318 0
M  V30 2896 H 274.927 -2.43358 1.75262 0
M  V30 2897 H 272.48 -1.24603 0.943594 0
M  V30 2898 H 273.215 -3.16352 -0.713594 0
M  V30 2899 H 273 -3.80661 0.940193 0
M  V30 2900 H 274.49 -4.17594 0.0214784 0
M  V30 2901 N 274.927 -0.932562 -1.27047 0
M  V30 2902 C 276.173 -0.576412 -1.94436 0
M  V30 2903 C 276.506 0.880891 -1.73072 0
M  V30 2904 O 275.781 1.62905 -1.06264 0
M  V30 2905 C 276.064 -0.909031 -3.48437 0
M  V30 2906 C 275.917 -2.42044 -3.79123 0
M  V30 2907 C 277.236 -0.418341 -4.38107 0
M  V30 2908 H 274.355 -0.210888 -0.706184 0
M  V30 2909 H 276.997 -1.16522 -1.50075 0
M  V30 2910 H 275.147 -0.407947 -3.86352 0
M  V30 2911 H 276.819 -2.99359 -3.50973 0
M  V30 2912 H 275.062 -2.86758 -3.25503 0
M  V30 2913 H 275.733 -2.6037 -4.86736 0
M  V30 2914 H 278.209 -0.847856 -4.0737 0
M  V30 2915 H 277.085 -0.679981 -5.44672 0
M  V30 2916 H 277.346 0.681642 -4.36814 0
M  V30 2917 N 276.405 1.4127 -0.698611 0
M  V30 2918 C 277.368 2.29158 -0.044132 0
M  V30 2919 C 278.368 1.44529 0.704841 0
M  V30 2920 O 279.558 1.65643 0.539276 0
M  V30 2921 C 276.69 3.27459 0.947809 0
M  V30 2922 H 277.883 2.88529 -0.817994 0
M  V30 2923 H 275.436 1.49307 -0.46228 0
M  V30 2924 H 276.171 2.73073 1.74933 0
M  V30 2925 H 275.956 3.8991 0.41385 0
M  V30 2926 H 277.446 3.93311 1.40344 0
M  V30 2927 N 277.883 0.443576 1.51229 0
M  V30 2928 C 279.132 -0.122332 2.01329 0
M  V30 2929 C 279.445 -1.43237 1.33201 0
M  V30 2930 O 280.651 -2.0816 1.74304 0
M  V30 2931 C 279.107 -0.268551 3.58897 0
M  V30 2932 C 278.715 1.03142 4.35965 0
M  V30 2933 C 280.459 -0.787894 4.17124 0
M  V30 2934 C 278.366 0.850504 5.85252 0
M  V30 2935 H 277.296 -0.0494929 0.752374 0
M  V30 2936 H 279.947 0.574289 1.74282 0
M  V30 2937 H 278.329 -1.02832 3.82415 0
M  V30 2938 H 279.503 1.80001 4.24189 0
M  V30 2939 H 277.818 1.47977 3.89219 0
M  V30 2940 H 280.415 -0.939841 5.26375 0
M  V30 2941 H 280.758 -1.77201 3.76703 0
M  V30 2942 H 281.291 -0.0862669 3.97706 0
M  V30 2943 H 278.03 1.80718 6.30096 0
M  V30 2944 H 277.55 0.121825 5.99676 0
M  V30 2945 H 279.229 0.506163 6.45017 0
M  V30 2946 N 279.361 -1.56624 0.175154 0
M  V30 2947 C 280.772 -1.83561 -0.340916 0
M  V30 2948 C 281.123 -1.09511 -1.62794 0
M  V30 2949 O 280.248 -0.349389 -2.13561 0
M  V30 2950 C 280.843 -3.32979 -0.625313 0
M  V30 2951 C 279.402 -3.60399 -1.08581 0
M  V30 2952 C 278.549 -2.77024 -0.123722 0
M  V30 2953 H 281.5 -1.53593 0.399344 0
M  V30 2954 H 281.521 -3.50666 -1.47694 0
M  V30 2955 H 281.033 -3.86847 0.311575 0
M  V30 2956 H 279.134 -3.11945 -2.03767 0
M  V30 2957 H 279.247 -4.68711 -0.992317 0
M  V30 2958 H 277.611 -2.46993 -0.621821 0
M  V30 2959 H 278.394 -3.33674 0.807256 0
M  V30 2960 N 280.839 0.0985539 -1.57292 0
M  V30 2961 C 282.064 0.820196 -1.90493 0
M  V30 2962 C 282.489 1.71658 -0.769094 0
M  V30 2963 O 281.847 1.79133 0.279495 0
M  V30 2964 C 281.895 1.61242 -3.22542 0
M  V30 2965 O 280.999 2.72108 -3.09888 0
M  V30 2966 H 280.34 0.225547 -0.62452 0
M  V30 2967 H 282.87 0.0748159 -2.04463 0
M  V30 2968 H 282.88 1.99737 -3.55766 0
M  V30 2969 H 281.555 0.954535 -4.04798 0
M  V30 2970 H 280.132 2.36667 -2.88172 0
M  V30 2971 N 282.317 1.53212 0.369288 0
M  V30 2972 C 283.563 1.70413 1.11046 0
M  V30 2973 C 283.918 0.448509 1.87099 0
M  V30 2974 O 283.211 -0.558382 1.83283 0
M  V30 2975 C 283.405 2.89101 2.10132 0
M  V30 2976 C 283.234 4.26084 1.43814 0
M  V30 2977 C 282.004 4.90994 1.19384 0
M  V30 2978 C 284.202 5.06754 0.877802 0
M  V30 2979 N 282.184 6.11911 0.49377 0
M  V30 2980 C 283.555 6.1924 0.306891 0
M  V30 2981 C 285.61 4.91814 0.776129 0
M  V30 2982 C 284.313 7.1842 -0.355774 0
M  V30 2983 C 286.339 5.91263 0.127252 0
M  V30 2984 C 285.701 7.03069 -0.432801 0
M  V30 2985 H 281.8 0.676872 0.391623 0
M  V30 2986 H 284.384 1.90603 0.397334 0
M  V30 2987 H 282.555 2.70456 2.78761 0
M  V30 2988 H 284.287 2.95142 2.76899 0
M  V30 2989 H 281.042 4.50074 1.47413 0
M  V30 2990 H 281.466 6.76813 0.159207 0
M  V30 2991 H 286.108 4.05564 1.19489 0
M  V30 2992 H 283.826 8.04264 -0.786499 0
M  V30 2993 H 287.412 5.81779 0.0495613 0
M  V30 2994 H 286.292 7.78702 -0.926958 0
M  V30 2995 N 283.795 -0.628877 1.44509 0
M  V30 2996 C 285.043 -1.38565 1.4712 0
M  V30 2997 C 285.364 -1.94712 0.105899 0
M  V30 2998 O 284.634 -1.75912 -0.862079 0
M  V30 2999 H 283.214 -0.514333 0.541729 0
M  V30 3000 H 285.876 -0.740018 1.80305 0
M  V30 3001 H 284.972 -2.21583 2.19789 0
M  V30 3002 N 285.273 -1.31445 -0.869486 0
M  V30 3003 C 286.22 -1.19135 -1.97675 0
M  V30 3004 C 287.19 -0.0770266 -1.65921 0
M  V30 3005 O 288.375 -0.249972 -1.89155 0
M  V30 3006 C 285.515 -0.905149 -3.33018 0
M  V30 3007 C 284.628 -2.10285 -3.77365 0
M  V30 3008 C 283.763 -1.75339 -5.01427 0
M  V30 3009 C 282.802 -2.91515 -5.38224 0
M  V30 3010 N 281.939 -2.56762 -6.53466 0
M  V30 3011 H 286.779 -2.13853 -2.07535 0
M  V30 3012 H 284.316 -1.06379 -1.01597 0
M  V30 3013 H 286.274 -0.719765 -4.10944 0
M  V30 3014 H 284.904 0.00519624 -3.228 0
M  V30 3015 H 283.956 -2.39899 -2.95216 0
M  V30 3016 H 285.268 -2.97237 -4.00564 0
M  V30 3017 H 284.422 -1.53266 -5.87022 0
M  V30 3018 H 283.161 -0.855801 -4.80133 0
M  V30 3019 H 282.166 -3.14237 -4.51149 0
M  V30 3020 H 283.391 -3.81985 -5.61484 0
M  V30 3021 H 281.337 -1.69526 -6.33717 0
M  V30 3022 H 281.254 -3.37243 -6.76612 0
M  V30 3023 H 282.522 -2.38083 -7.42251 0
M  V30 3024 N 286.751 1.08385 -1.14413 0
M  V30 3025 C 287.998 1.80776 -0.912482 0
M  V30 3026 C 288.326 1.86236 0.560934 0
M  V30 3027 O 287.581 1.33431 1.43159 0
M  V30 3028 C 287.88 3.26273 -1.45879 0
M  V30 3029 C 287.546 3.4093 -2.95089 0
M  V30 3030 C 286.208 3.44638 -3.35824 0
M  V30 3031 C 288.56 3.44591 -3.91033 0
M  V30 3032 C 285.888 3.49597 -4.71167 0
M  V30 3033 C 288.24 3.51086 -5.26233 0
M  V30 3034 C 286.904 3.53067 -5.6648 0
M  V30 3035 H 286.174 0.661507 -0.333901 0
M  V30 3036 H 288.821 1.27613 -1.42784 0
M  V30 3037 H 287.126 3.82146 -0.864376 0
M  V30 3038 H 288.823 3.80839 -1.2555 0
M  V30 3039 H 285.413 3.38736 -2.62594 0
M  V30 3040 H 289.597 3.40957 -3.60641 0
M  V30 3041 H 284.853 3.49424 -5.0171 0
M  V30 3042 H 289.027 3.52864 -6.00383 0
M  V30 3043 H 286.654 3.56662 -6.71339 0
M  V30 3044 N 288.23 0.939286 1.26551 0
M  V30 3045 C 289.476 0.596234 1.94465 0
M  V30 3046 C 289.831 -0.855013 1.72358 0
M  V30 3047 O 289.124 -1.6034 1.04889 0
M  V30 3048 C 289.318 0.872106 3.46596 0
M  V30 3049 C 289.147 2.34862 3.83497 0
M  V30 3050 C 287.917 3.00344 4.06352 0
M  V30 3051 C 290.115 3.32697 3.92195 0
M  V30 3052 N 288.097 4.38027 4.30123 0
M  V30 3053 C 289.468 4.55631 4.20476 0
M  V30 3054 C 291.523 3.27747 3.74815 0
M  V30 3055 C 290.226 5.74233 4.33185 0
M  V30 3056 C 292.252 4.45672 3.88755 0
M  V30 3057 C 291.614 5.67388 4.17433 0
M  V30 3058 H 287.713 0.268515 0.734455 0
M  V30 3059 H 290.297 1.2083 1.5267 0
M  V30 3060 H 288.468 0.289102 3.87323 0
M  V30 3061 H 290.2 0.490513 4.01716 0
M  V30 3062 H 286.955 2.50969 4.01636 0
M  V30 3063 H 287.379 5.09288 4.46044 0
M  V30 3064 H 292.021 2.34703 3.51673 0
M  V30 3065 H 289.739 6.67731 4.55149 0
M  V30 3066 H 293.325 4.43372 3.76713 0
M  V30 3067 H 292.205 6.57115 4.27983 0
M  V30 3068 N 289.708 -1.40897 0.706093 0
M  V30 3069 C 290.638 -2.33418 0.0620085 0
M  V30 3070 C 291.619 -1.52385 -0.755827 0
M  V30 3071 O 292.804 -1.80886 -0.706674 0
M  V30 3072 C 289.934 -3.36293 -0.867445 0
M  V30 3073 C 288.888 -4.27716 -0.155932 0
M  V30 3074 C 288.214 -5.2105 -1.20046 0
M  V30 3075 C 289.514 -5.12944 0.984149 0
M  V30 3076 H 291.208 -2.87527 0.83477 0
M  V30 3077 H 288.754 -1.38249 0.402875 0
M  V30 3078 H 290.707 -3.99949 -1.32735 0
M  V30 3079 H 289.431 -2.80556 -1.67199 0
M  V30 3080 H 288.09 -3.65498 0.284047 0
M  V30 3081 H 287.738 -4.61624 -1.99781 0
M  V30 3082 H 287.438 -5.83056 -0.729328 0
M  V30 3083 H 288.962 -5.87584 -1.66066 0
M  V30 3084 H 290.376 -5.70109 0.604048 0
M  V30 3085 H 288.773 -5.83945 1.38304 0
M  V30 3086 H 289.843 -4.49485 1.81911 0
M  V30 3087 N 291.186 -0.45159 -1.50991 0
M  V30 3088 C 292.149 0.341117 -2.26647 0
M  V30 3089 C 293.149 0.937422 -1.30649 0
M  V30 3090 O 294.339 0.809644 -1.54241 0
M  V30 3091 C 291.471 1.48398 -3.06905 0
M  V30 3092 H 292.664 -0.322117 -2.98165 0
M  V30 3093 H 290.217 -0.205122 -1.54948 0
M  V30 3094 H 290.952 2.18284 -2.39838 0
M  V30 3095 H 290.737 1.06241 -3.77432 0
M  V30 3096 H 292.227 2.04367 -3.64176 0
M  V30 3097 N 292.664 1.56529 -0.183458 0
M  V30 3098 C 293.91 1.97537 0.459036 0
M  V30 3099 C 294.243 1.06989 1.62071 0
M  V30 3100 O 293.518 0.11948 1.94133 0
M  V30 3101 C 293.801 3.47874 0.930368 0
M  V30 3102 C 293.654 4.492 -0.232317 0
M  V30 3103 C 294.973 4.01612 1.79989 0
M  V30 3104 H 292.092 0.718204 0.165383 0
M  V30 3105 H 294.734 1.88042 -0.272038 0
M  V30 3106 H 292.884 3.56095 1.55333 0
M  V30 3107 H 294.556 4.53027 -0.86972 0
M  V30 3108 H 292.799 4.24657 -0.885928 0
M  V30 3109 H 293.47 5.51823 0.139796 0
M  V30 3110 H 295.946 3.96097 1.27461 0
M  V30 3111 H 294.822 5.07195 2.09867 0
M  V30 3112 H 295.083 3.46163 2.74998 0
M  V30 3113 N 294.142 -0.090211 1.57342 0
M  V30 3114 C 295.072 -1.10976 2.05443 0
M  V30 3115 C 296.053 -1.41482 0.944284 0
M  V30 3116 O 297.238 -1.51428 1.21586 0
M  V30 3117 C 294.368 -2.42831 2.48295 0
M  V30 3118 C 293.322 -2.26721 3.63018 0
M  V30 3119 C 292.648 -3.63796 3.91863 0
M  V30 3120 C 293.948 -1.7037 4.93732 0
M  V30 3121 H 295.642 -0.709564 2.9087 0
M  V30 3122 H 293.188 -0.339874 1.39932 0
M  V30 3123 H 295.141 -3.14431 2.80555 0
M  V30 3124 H 293.865 -2.84795 1.59873 0
M  V30 3125 H 292.524 -1.57565 3.31012 0
M  V30 3126 H 292.172 -4.03297 3.00601 0
M  V30 3127 H 291.872 -3.53861 4.69101 0
M  V30 3128 H 293.396 -4.36855 4.26603 0
M  V30 3129 H 294.81 -2.31816 5.24342 0
M  V30 3130 H 293.207 -1.71181 5.75167 0
M  V30 3131 H 294.277 -0.663542 4.80339 0
M  V30 3132 N 295.62 -1.53406 -0.361157 0
M  V30 3133 C 296.568 -1.80832 -1.46296 0
M  V30 3134 C 297.562 -0.677699 -1.55253 0
M  V30 3135 O 298.768 -0.860723 -1.58087 0
M  V30 3136 H 295.143 -0.572627 -0.487445 0
M  V30 3137 H 297.114 -2.73045 -1.20371 0
M  V30 3138 C 295.863 -2.01907 -2.8307 0
M  V30 3139 H 295.186 -2.88349 -2.76938 0
M  V30 3140 H 296.626 -2.25072 -3.59331 0
M  V30 3141 C 295.085 -0.799449 -3.27277 0
M  V30 3142 O 295.615 0.00971761 -4.01699 0
M  V30 3143 N 293.821 -0.621637 -2.83873 0
M  V30 3144 H 293.368 -1.28126 -2.23476 0
M  V30 3145 H 293.326 0.19298 -3.13807 0
M  V30 3146 N 297.098 0.621204 -1.44841 0
M  V30 3147 C 298.344 1.3826 -1.48365 0
M  V30 3148 C 298.677 1.93831 -0.119624 0
M  V30 3149 O 297.952 1.74251 0.864111 0
M  V30 3150 C 298.235 2.54058 -2.55199 0
M  V30 3151 C 298.088 2.03772 -4.00995 0
M  V30 3152 C 299.407 3.56225 -2.58442 0
M  V30 3153 H 296.526 0.501374 -0.540179 0
M  V30 3154 H 299.168 0.7015 -1.76576 0
M  V30 3155 H 297.318 3.12162 -2.31274 0
M  V30 3156 H 298.99 1.50423 -4.36086 0
M  V30 3157 H 297.233 1.34876 -4.12299 0
M  V30 3158 H 297.904 2.87185 -4.71411 0
M  V30 3159 H 300.38 3.07939 -2.79844 0
M  V30 3160 H 299.256 4.34756 -3.3508 0
M  V30 3161 H 299.517 4.10949 -1.63013 0
M  V30 3162 N 298.576 1.31904 0.862503 0
M  V30 3163 C 299.806 1.24817 1.64634 0
M  V30 3164 C 300.214 -0.187579 1.88268 0
M  V30 3165 O 299.557 -1.13253 1.44635 0
M  V30 3166 C 299.619 1.92996 3.03303 0
M  V30 3167 C 299.283 3.42336 3.02746 0
M  V30 3168 C 300.28 4.37956 2.80162 0
M  V30 3169 C 297.965 3.84147 3.2363 0
M  V30 3170 C 299.959 5.73361 2.78453 0
M  V30 3171 C 297.646 5.19663 3.21549 0
M  V30 3172 C 298.644 6.14081 2.98988 0
M  V30 3173 O 298.332 7.47118 2.96766 0
M  V30 3174 H 298.064 0.432222 0.519769 0
M  V30 3175 H 300.618 1.7445 1.08427 0
M  V30 3176 H 298.848 1.37922 3.61268 0
M  V30 3177 H 300.537 1.79723 3.63943 0
M  V30 3178 H 301.303 4.06981 2.63802 0
M  V30 3179 H 297.182 3.11083 3.40218 0
M  V30 3180 H 300.726 6.4703 2.60763 0
M  V30 3181 H 296.623 5.5027 3.37451 0
M  V30 3182 H 297.391 7.56382 3.12775 0
M  V30 3183 N 300.054 -1.07777 1.14986 0
M  V30 3184 C 301.279 -1.84558 0.946213 0
M  V30 3185 C 301.704 -1.81323 -0.500362 0
M  V30 3186 O 301.062 -1.20301 -1.35637 0
M  V30 3187 C 301.11 -3.29736 1.45968 0
M  V30 3188 O 300.214 -4.07149 0.65601 0
M  V30 3189 H 299.555 -0.571641 0.33782 0
M  V30 3190 H 302.085 -1.35991 1.52865 0
M  V30 3191 H 302.095 -3.80574 1.47063 0
M  V30 3192 H 300.77 -3.31406 2.51283 0
M  V30 3193 H 299.347 -3.65994 0.714322 0
M  V30 3194 N 301.532 -0.945985 -1.26051 0
M  V30 3195 C 302.778 -0.606539 -1.94146 0
M  V30 3196 C 303.133 0.84586 -1.72809 0
M  V30 3197 O 302.426 1.59781 -1.05738 0
M  V30 3198 C 302.62 -0.890475 -3.46129 0
M  V30 3199 C 302.449 -2.36892 -3.82246 0
M  V30 3200 C 301.219 -3.02494 -4.04753 0
M  V30 3201 C 303.417 -3.34772 -3.90425 0
M  V30 3202 N 301.399 -4.40302 -4.27794 0
M  V30 3203 C 302.77 -4.57855 -4.18054 0
M  V30 3204 C 304.825 -3.2973 -3.73072 0
M  V30 3205 C 303.528 -5.76522 -4.30134 0
M  V30 3206 C 305.554 -4.47727 -3.86386 0
M  V30 3207 C 304.916 -5.69593 -4.14419 0
M  V30 3208 H 301.015 -0.272407 -0.73302 0
M  V30 3209 H 303.599 -1.21638 -1.52027 0
M  V30 3210 H 301.77 -0.309638 -3.87164 0
M  V30 3211 H 303.502 -0.51181 -4.01451 0
M  V30 3212 H 300.257 -2.53095 -4.003 0
M  V30 3213 H 300.681 -5.11646 -4.43337 0
M  V30 3214 H 305.323 -2.36565 -3.50424 0
M  V30 3215 H 303.041 -6.70136 -4.51601 0
M  V30 3216 H 306.627 -4.45363 -3.74356 0
M  V30 3217 H 305.507 -6.59375 -4.24493 0
M  V30 3218 N 303.011 1.40521 -0.713556 0
M  V30 3219 C 303.921 2.34522 -0.0606667 0
M  V30 3220 C 304.937 1.57193 0.74607 0
M  V30 3221 O 306.113 1.89591 0.679493 0
M  V30 3222 C 303.178 3.36081 0.851491 0
M  V30 3223 C 302.239 4.29286 0.0349339 0
M  V30 3224 C 301.472 5.25994 0.903649 0
M  V30 3225 O 301.695 5.28616 2.14292 0
M  V30 3226 O 300.629 6.00918 0.343723 0
M  V30 3227 H 304.455 2.91968 -0.835972 0
M  V30 3228 H 302.04 1.41681 -0.47402 0
M  V30 3229 H 303.922 3.98369 1.37404 0
M  V30 3230 H 302.597 2.81052 1.60598 0
M  V30 3231 H 301.504 3.70289 -0.532633 0
M  V30 3232 H 302.837 4.87462 -0.681287 0
M  V30 3233 N 304.489 0.459591 1.5075 0
M  V30 3234 C 305.737 -0.0991532 2.01857 0
M  V30 3235 C 306.058 -1.41247 1.34441 0
M  V30 3236 O 305.328 -1.89775 0.486022 0
M  V30 3237 H 303.908 -0.039633 0.745948 0
M  V30 3238 H 306.57 0.607387 1.85194 0
M  V30 3239 H 305.666 -0.258998 3.11023 0
M  V30 3240 N 305.967 -1.56429 0.191757 0
M  V30 3241 C 306.897 -2.21937 -0.725696 0
M  V30 3242 C 307.878 -1.1814 -1.2238 0
M  V30 3243 O 309.063 -1.46636 -1.27325 0
M  V30 3244 C 306.193 -2.87611 -1.94672 0
M  V30 3245 C 305.147 -3.97623 -1.58366 0
M  V30 3246 C 304.473 -4.50446 -2.88102 0
M  V30 3247 C 305.773 -5.16197 -0.796133 0
M  V30 3248 H 307.467 -2.98861 -0.179606 0
M  V30 3249 H 305.013 -1.43749 -0.0849464 0
M  V30 3250 H 306.966 -3.3212 -2.59373 0
M  V30 3251 H 305.69 -2.08087 -2.51728 0
M  V30 3252 H 304.349 -3.53801 -0.960247 0
M  V30 3253 H 303.997 -3.67688 -3.43241 0
M  V30 3254 H 303.697 -5.24675 -2.64556 0
M  V30 3255 H 305.221 -4.97654 -3.53798 0
M  V30 3256 H 306.635 -5.57271 -1.34618 0
M  V30 3257 H 305.032 -5.96471 -0.658928 0
M  V30 3258 H 306.102 -4.84473 0.203478 0
M  V30 3259 N 307.445 0.0818655 -1.57387 0
M  V30 3260 C 308.393 1.11712 -2.04018 0
M  V30 3261 C 309.387 1.40683 -0.94364 0
M  V30 3262 O 310.593 1.40209 -1.12878 0
M  V30 3263 H 306.968 0.377542 -0.650358 0
M  V30 3264 H 308.939 0.697614 -2.90131 0
M  V30 3265 C 307.688 2.42537 -2.49141 0
M  V30 3266 H 307.011 2.21092 -3.33104 0
M  V30 3267 H 308.451 3.13446 -2.85531 0
M  V30 3268 C 306.91 3.0778 -1.37014 0
M  V30 3269 O 307.44 3.95436 -0.706621 0
M  V30 3270 N 305.646 2.68242 -1.11779 0
M  V30 3271 H 305.193 1.97052 -1.65917 0
M  V30 3272 H 305.151 3.1222 -0.369594 0
M  V30 3273 N 308.923 1.53595 0.353017 0
M  V30 3274 C 310.151 1.74311 1.1146 0
M  V30 3275 C 310.566 0.477854 1.82653 0
M  V30 3276 O 309.923 -0.549977 1.74016 0
M  V30 3277 C 309.974 2.91694 2.13534 0
M  V30 3278 O 309.695 4.13325 1.45238 0
M  V30 3279 C 311.196 3.24384 3.02142 0
M  V30 3280 H 308.416 0.582669 0.332773 0
M  V30 3281 H 310.96 2.00386 0.408107 0
M  V30 3282 H 309.115 2.67977 2.79763 0
M  V30 3283 H 309.529 4.79148 2.13349 0
M  V30 3284 H 311.003 4.09893 3.69718 0
M  V30 3285 H 311.48 2.40282 3.67643 0
M  V30 3286 H 312.086 3.50073 2.41514 0
M  V30 3287 N 310.401 -0.613514 1.45168 0
M  V30 3288 C 311.331 -1.7354 1.56225 0
M  V30 3289 C 312.312 -1.64981 0.41414 0
M  V30 3290 O 313.497 -1.83472 0.636526 0
M  V30 3291 C 310.627 -3.12128 1.52295 0
M  V30 3292 C 309.581 -3.35491 2.65762 0
M  V30 3293 C 308.907 -4.74291 2.46885 0
M  V30 3294 C 310.207 -3.26325 4.0781 0
M  V30 3295 H 311.901 -1.64543 2.50132 0
M  V30 3296 H 309.447 -0.790185 1.20383 0
M  V30 3297 H 311.4 -3.90404 1.58628 0
M  V30 3298 H 310.124 -3.2195 0.549139 0
M  V30 3299 H 308.783 -2.59603 2.58847 0
M  V30 3300 H 308.431 -4.80839 1.47657 0
M  V30 3301 H 308.131 -4.9088 3.22972 0
M  V30 3302 H 309.655 -5.54775 2.55063 0
M  V30 3303 H 311.069 -3.94483 4.16 0
M  V30 3304 H 309.466 -3.54445 4.8424 0
M  V30 3305 H 310.536 -2.23855 4.30136 0
M  V30 3306 N 311.879 -1.3236 -0.855495 0
M  V30 3307 C 313.126 -1.22872 -1.60962 0
M  V30 3308 C 313.454 0.209658 -1.93367 0
M  V30 3309 O 312.709 1.16243 -1.57436 0
M  V30 3310 C 313.008 -2.03275 -2.93963 0
M  V30 3311 C 312.674 -3.5264 -2.80991 0
M  V30 3312 C 311.336 -3.93364 -2.7716 0
M  V30 3313 C 313.688 -4.47626 -2.66983 0
M  V30 3314 C 311.016 -5.27319 -2.572 0
M  V30 3315 C 313.368 -5.81723 -2.48558 0
M  V30 3316 C 312.032 -6.2165 -2.4312 0
M  V30 3317 H 311.302 -0.44962 -0.589001 0
M  V30 3318 H 313.949 -1.63777 -0.992442 0
M  V30 3319 H 312.254 -1.55095 -3.59795 0
M  V30 3320 H 313.951 -1.93303 -3.51333 0
M  V30 3321 H 310.541 -3.20295 -2.84797 0
M  V30 3322 H 314.725 -4.17084 -2.68988 0
M  V30 3323 H 309.981 -5.57311 -2.51424 0
M  V30 3324 H 314.155 -6.5494 -2.36699 0
M  V30 3325 H 311.782 -7.25388 -2.27412 0
M  V30 3326 N 313.357 1.07166 -1.15556 0
M  V30 3327 C 314.768 1.6127 -0.940693 0
M  V30 3328 C 315.119 1.89251 0.517551 0
M  V30 3329 O 314.244 1.65937 1.38903 0
M  V30 3330 C 314.839 2.92993 -1.7012 0
M  V30 3331 C 313.398 3.43832 -1.53156 0
M  V30 3332 C 312.545 2.1786 -1.71558 0
M  V30 3333 H 315.496 0.90229 -1.30554 0
M  V30 3334 H 315.517 3.62007 -1.17181 0
M  V30 3335 H 315.029 2.72596 -2.76248 0
M  V30 3336 H 313.13 3.69307 -0.494294 0
M  V30 3337 H 313.243 4.19747 -2.30975 0
M  V30 3338 H 311.607 2.2765 -1.14225 0
M  V30 3339 H 312.39 1.99956 -2.79056 0
M  V30 3340 N 314.835 0.952656 1.25548 0
M  V30 3341 C 315.745 0.47782 2.29682 0
M  V30 3342 C 316.761 -0.453859 1.67977 0
M  V30 3343 O 317.937 -0.330587 1.98668 0
M  V30 3344 C 315.002 -0.238655 3.45878 0
M  V30 3345 C 314.063 0.730994 4.23031 0
M  V30 3346 C 313.296 0.0486165 5.33678 0
M  V30 3347 O 313.519 -1.16612 5.58353 0
M  V30 3348 O 312.453 0.733152 5.97418 0
M  V30 3349 H 316.279 1.34312 2.72386 0
M  V30 3350 H 313.864 0.719026 1.30959 0
M  V30 3351 H 315.746 -0.641774 4.16484 0
M  V30 3352 H 314.421 -1.07916 3.05181 0
M  V30 3353 H 313.328 1.18428 3.5486 0
M  V30 3354 H 314.661 1.53946 4.67506 0
M  V30 3355 N 316.313 -1.40141 0.720998 0
M  V30 3356 C 317.246 -2.2819 0.020916 0
M  V30 3357 C 318.224 -1.43633 -0.762129 0
M  V30 3358 O 319.408 -1.7304 -0.747633 0
M  V30 3359 C 316.535 -3.24281 -0.977715 0
M  V30 3360 C 315.581 -4.25548 -0.284836 0
M  V30 3361 S 316.414 -5.26247 0.991169 0
M  V30 3362 C 317.57 -6.259 -0.0052214 0
M  V30 3363 H 317.803 -2.87218 0.767649 0
M  V30 3364 H 315.336 -1.45656 0.512233 0
M  V30 3365 H 317.294 -3.80167 -1.54865 0
M  V30 3366 H 315.955 -2.643 -1.69719 0
M  V30 3367 H 315.148 -4.93154 -1.03996 0
M  V30 3368 H 314.75 -3.73389 0.213684 0
M  V30 3369 H 317.042 -6.72143 -0.850279 0
M  V30 3370 H 317.985 -7.05224 0.637599 0
M  V30 3371 H 318.393 -5.63277 -0.371366 0
M  V30 3372 N 317.792 -0.46758 -1.50504 0
M  V30 3373 C 319.038 0.0808869 -2.03239 0
M  V30 3374 C 319.393 1.37721 -1.34353 0
M  V30 3375 O 318.686 1.86016 -0.459194 0
M  V30 3376 C 318.88 0.323995 -3.55928 0
M  V30 3377 C 318.709 -0.947215 -4.39611 0
M  V30 3378 C 317.479 -1.48951 -4.82848 0
M  V30 3379 C 319.677 -1.84166 -4.80195 0
M  V30 3380 N 317.659 -2.71011 -5.50842 0
M  V30 3381 C 319.03 -2.90815 -5.47564 0
M  V30 3382 C 321.085 -1.85246 -4.62156 0
M  V30 3383 C 319.788 -3.98529 -5.98805 0
M  V30 3384 C 321.814 -2.91914 -5.14335 0
M  V30 3385 C 321.176 -3.97282 -5.81676 0
M  V30 3386 H 317.275 -0.0103394 -0.781932 0
M  V30 3387 H 319.859 -0.635003 -1.84054 0
M  V30 3388 H 318.03 1.00892 -3.75067 0
M  V30 3389 H 319.762 0.866492 -3.95315 0
M  V30 3390 H 316.517 -1.03918 -4.62058 0
M  V30 3391 H 316.941 -3.32988 -5.89447 0
M  V30 3392 H 321.583 -1.05103 -4.09528 0
M  V30 3393 H 319.301 -4.79491 -6.50472 0
M  V30 3394 H 322.887 -2.93729 -5.0221 0
M  V30 3395 H 321.767 -4.78462 -6.21324 0
M  V30 3396 N 319.27 1.56325 -0.20005 0
M  V30 3397 C 320.2 2.22318 0.713916 0
M  V30 3398 C 321.181 1.18788 1.21752 0
M  V30 3399 O 322.366 1.47309 1.26545 0
M  V30 3400 C 319.496 2.88639 1.93144 0
M  V30 3401 C 318.45 3.98457 1.56255 0
M  V30 3402 C 317.776 4.51967 2.85709 0
M  V30 3403 C 319.076 5.16612 0.768747 0
M  V30 3404 H 320.77 2.98952 0.163755 0
M  V30 3405 H 318.316 1.43792 0.0773219 0
M  V30 3406 H 320.269 3.33491 2.57608 0
M  V30 3407 H 318.993 2.09419 2.50621 0
M  V30 3408 H 317.652 3.54305 0.941471 0
M  V30 3409 H 317.3 3.69503 3.41287 0
M  V30 3410 H 317 5.26071 2.6177 0
M  V30 3411 H 318.524 4.99523 3.51154 0
M  V30 3412 H 319.938 5.57977 1.3166 0
M  V30 3413 H 318.335 5.96812 0.627286 0
M  V30 3414 H 319.405 4.84358 -0.229168 0
M  V30 3415 N 320.748 -0.0735177 1.57428 0
M  V30 3416 C 321.995 -0.772999 1.87166 0
M  V30 3417 C 322.323 -1.77665 0.791551 0
M  V30 3418 O 321.578 -1.94541 -0.212636 0
M  V30 3419 C 321.877 -1.51799 3.23561 0
M  V30 3420 C 321.543 -0.654484 4.46125 0
M  V30 3421 C 320.205 -0.416511 4.79394 0
M  V30 3422 C 322.557 -0.0555862 5.2117 0
M  V30 3423 C 319.885 0.429869 5.85123 0
M  V30 3424 C 322.237 0.778239 6.27795 0
M  V30 3425 C 320.901 1.0261 6.59566 0
M  V30 3426 H 320.171 -0.282861 0.684888 0
M  V30 3427 H 322.818 -0.0338272 1.9147 0
M  V30 3428 H 321.123 -2.32932 3.1504 0
M  V30 3429 H 322.82 -2.06397 3.43804 0
M  V30 3430 H 319.41 -0.850091 4.20085 0
M  V30 3431 H 323.594 -0.226558 4.95783 0
M  V30 3432 H 318.85 0.630665 6.08139 0
M  V30 3433 H 323.024 1.24906 6.85107 0
M  V30 3434 H 320.651 1.68371 7.4132 0
M  V30 3435 N 322.226 -1.5378 -0.344866 0
M  V30 3436 C 323.637 -1.62428 -0.920552 0
M  V30 3437 C 323.988 -0.504747 -1.89596 0
M  V30 3438 O 323.113 0.365711 -2.13287 0
M  V30 3439 C 323.708 -2.94419 -1.67639 0
M  V30 3440 C 322.267 -3.05333 -2.20111 0
M  V30 3441 C 321.414 -2.57866 -1.01982 0
M  V30 3442 H 324.365 -1.58222 -0.123042 0
M  V30 3443 H 324.386 -2.83384 -2.53917 0
M  V30 3444 H 323.898 -3.7588 -0.966224 0
M  V30 3445 H 321.999 -2.28502 -2.94308 0
M  V30 3446 H 322.112 -4.10778 -2.46573 0
M  V30 3447 H 320.476 -2.13241 -1.39285 0
M  V30 3448 H 321.259 -3.41765 -0.324308 0
M  V30 3449 N 323.704 0.605807 -1.45491 0
M  V30 3450 C 324.981 1.36522 -1.40075 0
M  V30 3451 C 325.361 2.10976 -0.0722744 0
M  V30 3452 O 324.709 2.08007 0.945808 0
M  V30 3453 C 324.919 2.31056 -2.61561 0
M  V30 3454 C 326.267 2.93608 -3.06724 0
M  V30 3455 O 327.291 2.41376 -2.61946 0
M  V30 3456 O 326.15 3.88421 -3.84437 0
M  V30 3457 H 323.244 0.612248 -0.555951 0
M  V30 3458 H 325.79 0.628747 -1.57623 0
M  V30 3459 H 324.562 1.75311 -3.49831 0
M  V30 3460 H 324.185 3.12081 -2.46356 0
M  V30 3461 N 325.182 1.32811 0.848464 0
M  V30 3462 C 326.428 1.24917 1.60522 0
M  V30 3463 C 326.783 -0.185761 1.91501 0
M  V30 3464 O 326.076 -1.12524 1.55077 0
M  V30 3465 C 326.27 2.04831 2.92881 0
M  V30 3466 C 326.099 3.55949 2.74828 0
M  V30 3467 C 324.869 4.25277 2.72887 0
M  V30 3468 C 327.067 4.50476 2.48145 0
M  V30 3469 N 325.049 5.62408 2.46111 0
M  V30 3470 C 326.42 5.75427 2.30832 0
M  V30 3471 C 328.475 4.39665 2.33664 0
M  V30 3472 C 327.178 6.90789 2.00508 0
M  V30 3473 C 329.204 5.54833 2.04731 0
M  V30 3474 C 328.566 6.78787 1.88223 0
M  V30 3475 H 324.665 0.512279 0.590842 0
M  V30 3476 H 327.249 1.67246 0.996839 0
M  V30 3477 H 325.42 1.64837 3.51686 0
M  V30 3478 H 327.152 1.88782 3.57971 0
M  V30 3479 H 323.907 3.77456 2.86049 0
M  V30 3480 H 324.331 6.3467 2.35634 0
M  V30 3481 H 328.973 3.44477 2.45144 0
M  V30 3482 H 326.691 7.85984 1.87765 0
M  V30 3483 H 330.277 5.48398 1.94295 0
M  V30 3484 H 329.157 7.66396 1.66155 0
M  V30 3485 N 326.66 -1.06551 1.16123 0
M  V30 3486 C 327.623 -2.12132 0.867906 0
M  V30 3487 C 328.623 -1.60224 -0.135944 0
M  V30 3488 O 329.813 -1.73943 0.0946422 0
M  V30 3489 C 326.945 -3.396 0.297419 0
M  V30 3490 H 328.138 -2.39586 1.80385 0
M  V30 3491 H 325.691 -1.22574 0.969812 0
M  V30 3492 H 326.426 -3.17794 -0.64633 0
M  V30 3493 H 326.211 -3.78581 1.02073 0
M  V30 3494 H 327.701 -4.17455 0.110052 0
M  V30 3495 N 328.138 -0.959301 -1.25041 0
M  V30 3496 C 329.549 -0.65667 -1.74771 0
M  V30 3497 C 329.9 0.827852 -1.77879 0
M  V30 3498 O 329.025 1.64783 -1.40269 0
M  V30 3499 C 329.62 -1.1853 -3.1739 0
M  V30 3500 C 328.179 -0.932734 -3.6466 0
M  V30 3501 C 327.326 -1.32558 -2.43564 0
M  V30 3502 H 330.277 -1.13558 -1.10862 0
M  V30 3503 H 330.298 -0.547582 -3.76539 0
M  V30 3504 H 329.81 -2.26576 -3.15095 0
M  V30 3505 H 327.911 0.13257 -3.72364 0
M  V30 3506 H 328.024 -1.57248 -4.52559 0
M  V30 3507 H 326.388 -0.743956 -2.43593 0
M  V30 3508 H 327.171 -2.41537 -2.43957 0
M  V30 3509 N 329.616 1.39756 -0.72842 0
M  V30 3510 C 330.579 2.29012 -0.0927297 0
M  V30 3511 C 331.579 1.45992 0.674025 0
M  V30 3512 O 332.769 1.66749 0.50402 0
M  V30 3513 C 329.901 3.29396 0.878137 0
M  V30 3514 H 331.094 2.86729 -0.879011 0
M  V30 3515 H 328.647 1.48293 -0.493847 0
M  V30 3516 H 329.382 2.76722 1.69101 0
M  V30 3517 H 329.167 3.907 0.331051 0
M  V30 3518 H 330.657 3.96199 1.3197 0
M  V30 3519 N 331.094 0.475555 1.50254 0
M  V30 3520 C 332.044 -0.335025 2.25525 0
M  V30 3521 C 333.028 -0.957625 1.29299 0
M  V30 3522 O 334.22 -0.869436 1.54175 0
M  V30 3523 C 331.349 -1.41385 3.12834 0
M  V30 3524 C 330.435 -0.798762 4.1651 0
M  V30 3525 N 330.826 0.0835815 5.05731 0
M  V30 3526 C 329.124 -1.06221 4.33166 0
M  V30 3527 C 329.825 0.433113 5.80085 0
M  V30 3528 N 328.801 -0.1928 5.43258 0
M  V30 3529 H 332.603 0.344612 2.91873 0
M  V30 3530 H 330.117 0.289986 1.5979 0
M  V30 3531 H 332.114 -2.00777 3.65368 0
M  V30 3532 H 330.774 -2.09543 2.48036 0
M  V30 3533 H 331.785 0.452715 5.15918 0
M  V30 3534 H 328.462 -1.73844 3.79585 0
M  V30 3535 H 329.852 1.15346 6.61925 0
M  V30 3536 N 332.573 -1.56217 0.208337 0
M  V30 3537 C 333.984 -1.84243 -0.301904 0
M  V30 3538 C 334.335 -1.12939 -1.60434 0
M  V30 3539 O 333.46 -0.39461 -2.12772 0
M  V30 3540 C 334.055 -3.34231 -0.554543 0
M  V30 3541 C 332.614 -3.62621 -1.00912 0
M  V30 3542 C 331.761 -2.77224 -0.064933 0
M  V30 3543 H 334.712 -1.52712 0.431833 0
M  V30 3544 H 334.733 -3.5372 -1.40223 0
M  V30 3545 H 334.245 -3.86099 0.393561 0
M  V30 3546 H 332.346 -3.16197 -1.97104 0
M  V30 3547 H 332.459 -4.7071 -0.892674 0
M  V30 3548 H 330.823 -2.48256 -0.56929 0
M  V30 3549 H 331.606 -3.31887 0.877851 0
M  V30 3550 N 334.051 0.0651679 -1.57465 0
M  V30 3551 C 335.276 0.779605 -1.9219 0
M  V30 3552 C 335.701 1.69988 -0.805333 0
M  V30 3553 O 335.059 1.79685 0.241435 0
M  V30 3554 C 335.107 1.54364 -3.2589 0
M  V30 3555 O 334.211 2.65474 -3.1559 0
M  V30 3556 H 333.552 0.212249 -0.629163 0
M  V30 3557 H 336.082 0.0314294 -2.04576 0
M  V30 3558 H 336.092 1.92146 -3.59922 0
M  V30 3559 H 334.767 0.868457 -4.06732 0
M  V30 3560 H 333.344 2.30501 -2.93128 0
M  V30 3561 N 335.529 1.53961 0.336706 0
M  V30 3562 C 336.757 1.75483 1.09605 0
M  V30 3563 C 337.172 0.4972 1.82136 0
M  V30 3564 O 336.529 -0.53149 1.74589 0
M  V30 3565 C 336.58 2.93943 2.10428 0
M  V30 3566 O 336.301 4.14842 1.40846 0
M  V30 3567 C 337.802 3.27571 2.98684 0
M  V30 3568 H 335.022 0.586166 0.326574 0
M  V30 3569 H 337.566 2.00808 0.38683 0
M  V30 3570 H 335.721 2.70929 2.76905 0
M  V30 3571 H 336.135 4.81383 2.08255 0
M  V30 3572 H 337.609 4.13791 3.6535 0
M  V30 3573 H 338.086 2.44168 3.65074 0
M  V30 3574 H 338.692 3.52615 2.37787 0
M  V30 3575 N 337.007 -0.598083 1.45811 0
M  V30 3576 C 337.937 -1.71873 1.58057 0
M  V30 3577 C 338.918 -1.64533 0.431615 0
M  V30 3578 O 340.103 -1.82787 0.65595 0
M  V30 3579 C 337.233 -3.10495 1.55597 0
M  V30 3580 C 336.187 -3.32654 2.69305 0
M  V30 3581 C 335.513 -4.71646 2.51902 0
M  V30 3582 C 336.813 -3.21981 4.11248 0
M  V30 3583 H 338.507 -1.61881 2.51863 0
M  V30 3584 H 336.053 -0.777372 1.21214 0
M  V30 3585 H 338.006 -3.88699 1.6276 0
M  V30 3586 H 336.73 -3.2135 0.583255 0
M  V30 3587 H 335.389 -2.56843 2.61586 0
M  V30 3588 H 335.037 -4.79246 1.52748 0
M  V30 3589 H 334.737 -4.87426 3.2816 0
M  V30 3590 H 336.261 -5.52038 2.60933 0
M  V30 3591 H 337.675 -3.90049 4.20161 0
M  V30 3592 H 336.072 -3.49289 4.87972 0
M  V30 3593 H 337.142 -2.1928 4.32486 0
M  V30 3594 N 338.485 -1.33259 -0.841409 0
M  V30 3595 C 339.731 -1.25766 -1.59857 0
M  V30 3596 C 340.086 0.175602 -1.91597 0
M  V30 3597 O 339.379 1.117 -1.55672 0
M  V30 3598 C 339.573 -2.06381 -2.9179 0
M  V30 3599 C 339.402 -3.57401 -2.72937 0
M  V30 3600 C 338.172 -4.26718 -2.70628 0
M  V30 3601 C 340.37 -4.51786 -2.45753 0
M  V30 3602 N 338.352 -5.63705 -2.43125 0
M  V30 3603 C 339.723 -5.76643 -2.27777 0
M  V30 3604 C 341.778 -4.40898 -2.31329 0
M  V30 3605 C 340.481 -6.91842 -1.96841 0
M  V30 3606 C 342.507 -5.55911 -2.01786 0
M  V30 3607 C 341.869 -6.79776 -1.8462 0
M  V30 3608 H 337.968 -0.515406 -0.588117 0
M  V30 3609 H 340.552 -1.67772 -0.987955 0
M  V30 3610 H 338.723 -1.667 -3.50807 0
M  V30 3611 H 340.455 -1.90678 -3.56965 0
M  V30 3612 H 337.21 -3.78968 -2.84043 0
M  V30 3613 H 337.634 -6.35911 -2.32265 0
M  V30 3614 H 342.276 -3.45772 -2.43314 0
M  V30 3615 H 339.994 -7.86968 -1.83594 0
M  V30 3616 H 343.58 -5.49421 -1.91384 0
M  V30 3617 H 342.46 -7.67266 -1.62088 0
M  V30 3618 N 339.963 1.05934 -1.16686 0
M  V30 3619 C 341.203 1.80382 -0.961345 0
M  V30 3620 C 341.567 1.85331 0.501643 0
M  V30 3621 O 342.768 2.55795 0.825986 0
M  V30 3622 C 341.039 3.20777 -1.57596 0
M  V30 3623 S 342.598 4.11795 -1.51559 0
M  V30 3624 H 339.416 0.621332 -0.345641 0
M  V30 3625 H 342.018 1.27157 -1.48497 0
M  V30 3626 H 340.722 3.14773 -2.63337 0
M  V30 3627 H 340.253 3.79078 -1.05182 0
M  V30 3628 H 342.268 4.93485 -0.518374 0
M  V30 3629 N 341.441 0.965919 1.2453 0
M  V30 3630 C 342.391 0.465731 2.23193 0
M  V30 3631 C 343.375 -0.451277 1.54442 0
M  V30 3632 O 344.567 -0.282489 1.74731 0
M  V30 3633 C 341.696 -0.244511 3.42428 0
M  V30 3634 C 340.782 0.691222 4.18429 0
M  V30 3635 N 341.173 1.82771 4.71623 0
M  V30 3636 C 339.471 0.501649 4.4317 0
M  V30 3637 C 340.172 2.41285 5.29298 0
M  V30 3638 N 339.148 1.69819 5.16394 0
M  V30 3639 H 342.95 1.33291 2.61937 0
M  V30 3640 H 340.464 0.824789 1.39896 0
M  V30 3641 H 342.461 -0.620056 4.12263 0
M  V30 3642 H 341.121 -1.10815 3.05205 0
M  V30 3643 H 342.132 2.20929 4.68413 0
M  V30 3644 H 338.809 -0.318177 4.16286 0
M  V30 3645 H 340.199 3.37181 5.8117 0
M  V30 3646 N 342.919 -1.39368 0.735821 0
M  V30 3647 C 344.159 -2.02349 0.288813 0
M  V30 3648 C 344.523 -1.57127 -1.10341 0
M  V30 3649 O 345.724 -2.12312 -1.64854 0
M  V30 3650 C 343.995 -3.55288 0.387986 0
M  V30 3651 S 345.554 -4.38795 0.0209408 0
M  V30 3652 H 342.372 -0.701944 0.113115 0
M  V30 3653 H 344.974 -1.70164 0.962518 0
M  V30 3654 H 343.678 -3.85691 1.40252 0
M  V30 3655 H 343.209 -3.92227 -0.303512 0
M  V30 3656 H 345.224 -4.81595 -1.19503 0
M  V30 3657 N 344.397 -0.483516 -1.5 0
M  V30 3658 C 345.813 -0.138404 -1.58999 0
M  V30 3659 C 346.013 1.35597 -1.4905 0
M  V30 3660 O 345.069 2.13039 -1.35539 0
M  V30 3661 C 346.382 -0.699658 -2.92447 0
M  V30 3662 C 347.93 -0.664195 -3.05872 0
M  V30 3663 C 348.405 -1.20321 -4.41913 0
M  V30 3664 N 349.896 -1.16315 -4.48358 0
M  V30 3665 C 350.631 -1.55058 -5.52037 0
M  V30 3666 N 350.127 -2.01311 -6.62907 0
M  V30 3667 N 351.92 -1.46584 -5.42651 0
M  V30 3668 H 344.071 -1.45529 -1.5471 0
M  V30 3669 H 346.334 -0.60258 -0.731848 0
M  V30 3670 H 346.04 -1.747 -3.05242 0
M  V30 3671 H 345.914 -0.150194 -3.76901 0
M  V30 3672 H 348.301 0.374272 -2.92717 0
M  V30 3673 H 348.382 -1.25061 -2.23144 0
M  V30 3674 H 348.026 -2.24037 -4.55818 0
M  V30 3675 H 347.956 -0.592896 -5.23252 0
M  V30 3676 H 350.447 -0.824058 -3.68806 0
M  V30 3677 H 350.76 -2.2899 -7.38095 0
M  V30 3678 H 349.105 -2.05273 -6.63994 0
M  V30 3679 H 352.296 -1.10281 -4.54924 0
M  V30 3680 H 352.469 -1.77103 -6.23329 0
M  V30 3681 N 345.875 1.56104 -0.216619 0
M  V30 3682 C 346.807 2.17339 0.72776 0
M  V30 3683 C 347.82 1.14109 1.16116 0
M  V30 3684 O 349.009 1.4111 1.09317 0
M  V30 3685 C 346.109 2.73818 1.99693 0
M  V30 3686 C 345.282 4.02168 1.71988 0
M  V30 3687 C 344.341 4.43259 2.83562 0
M  V30 3688 O 343.367 5.10257 2.52244 0
M  V30 3689 N 344.569 4.08535 4.12407 0
M  V30 3690 H 347.334 2.99005 0.203983 0
M  V30 3691 H 344.895 1.61861 -0.0354289 0
M  V30 3692 H 346.887 2.9828 2.73516 0
M  V30 3693 H 345.457 1.96483 2.43132 0
M  V30 3694 H 344.677 3.85612 0.818337 0
M  V30 3695 H 345.965 4.85907 1.50903 0
M  V30 3696 H 345.363 3.54687 4.40696 0
M  V30 3697 H 343.92 4.37901 4.8279 0
M  V30 3698 N 347.353 -0.0568162 1.57498 0
M  V30 3699 C 348.599 -0.75422 1.88253 0
M  V30 3700 C 348.932 -1.76461 0.810865 0
M  V30 3701 O 348.207 -1.93691 -0.177259 0
M  V30 3702 C 348.49 -1.44878 3.2967 0
M  V30 3703 C 348.343 -0.453789 4.47505 0
M  V30 3704 C 349.662 -2.38994 3.69554 0
M  V30 3705 H 346.781 -0.272724 0.684683 0
M  V30 3706 H 349.423 -0.0172113 1.89992 0
M  V30 3707 H 347.573 -2.077 3.28318 0
M  V30 3708 H 349.245 0.170371 4.60985 0
M  V30 3709 H 347.488 0.229552 4.33192 0
M  V30 3710 H 348.159 -0.977699 5.43273 0
M  V30 3711 H 350.635 -1.86239 3.72095 0
M  V30 3712 H 349.511 -2.84587 4.69363 0
M  V30 3713 H 349.772 -3.24461 3.00296 0
M  V30 3714 N 348.832 -1.54138 -0.328536 0
M  V30 3715 C 350.062 -1.75807 -1.08516 0
M  V30 3716 C 350.47 -0.50428 -1.82356 0
M  V30 3717 O 349.813 0.534451 -1.75754 0
M  V30 3718 C 349.875 -2.89423 -2.13248 0
M  V30 3719 C 349.539 -4.28504 -1.5885 0
M  V30 3720 C 350.536 -5.09536 -1.03289 0
M  V30 3721 C 348.221 -4.75034 -1.63243 0
M  V30 3722 C 350.215 -6.35206 -0.52845 0
M  V30 3723 C 347.902 -6.00672 -1.12411 0
M  V30 3724 C 348.9 -6.80592 -0.573062 0
M  V30 3725 O 348.588 -8.03867 -0.0723692 0
M  V30 3726 H 348.32 -0.590633 -0.328829 0
M  V30 3727 H 350.874 -2.01819 -0.381868 0
M  V30 3728 H 349.104 -2.5897 -2.87178 0
M  V30 3729 H 350.793 -2.98921 -2.74592 0
M  V30 3730 H 351.559 -4.74745 -0.99206 0
M  V30 3731 H 347.438 -4.12875 -2.05074 0
M  V30 3732 H 350.982 -6.97532 -0.0976774 0
M  V30 3733 H 346.879 -6.34955 -1.162 0
M  V30 3734 H 347.647 -8.18283 -0.188258 0
M  V30 3735 N 350.31 0.590341 -1.46126 0
M  V30 3736 C 351.24 1.71032 -1.58966 0
M  V30 3737 C 352.221 1.64302 -0.440335 0
M  V30 3738 O 353.406 1.82436 -0.665634 0
M  V30 3739 C 350.536 3.09665 -1.57241 0
M  V30 3740 C 349.49 3.31221 -2.71066 0
M  V30 3741 C 348.816 4.70303 -2.54399 0
M  V30 3742 C 350.116 3.19796 -4.1295 0
M  V30 3743 H 351.81 1.60543 -2.52718 0
M  V30 3744 H 349.356 0.770933 -1.21625 0
M  V30 3745 H 351.309 3.87831 -1.64819 0
M  V30 3746 H 350.033 3.21036 -0.600289 0
M  V30 3747 H 348.692 2.55452 -2.62944 0
M  V30 3748 H 348.34 4.78429 -1.55288 0
M  V30 3749 H 348.04 4.85679 -3.30741 0
M  V30 3750 H 349.564 5.50647 -2.63857 0
M  V30 3751 H 350.978 3.87815 -4.22223 0
M  V30 3752 H 349.375 3.46696 -4.89818 0
M  V30 3753 H 350.445 2.16983 -4.33643 0
M  V30 3754 N 351.788 1.33704 0.83433 0
M  V30 3755 C 353.199 1.22813 1.4062 0
M  V30 3756 C 353.55 -0.151107 1.95617 0
M  V30 3757 O 352.675 -1.05092 1.89168 0
M  V30 3758 C 353.27 2.22355 2.55624 0
M  V30 3759 C 351.829 2.1529 3.08751 0
M  V30 3760 C 350.976 2.09589 1.8157 0
M  V30 3761 H 353.927 1.45236 0.639702 0
M  V30 3762 H 353.948 1.83391 3.33389 0
M  V30 3763 H 353.46 3.22728 2.15566 0
M  V30 3764 H 351.561 1.18235 3.53343 0
M  V30 3765 H 351.674 3.06038 3.68616 0
M  V30 3766 H 350.038 1.55134 2.02004 0
M  V30 3767 H 350.821 3.11777 1.43701 0
M  V30 3768 N 353.266 -1.05314 1.17247 0
M  V30 3769 C 354.199 -2.12512 0.831507 0
M  V30 3770 C 355.177 -1.61351 -0.201168 0
M  V30 3771 O 356.361 -1.88317 -0.0829831 0
M  V30 3772 C 353.488 -3.37848 0.24015 0
M  V30 3773 C 352.534 -4.07832 1.24801 0
M  V30 3774 S 353.367 -4.56537 2.79882 0
M  V30 3775 C 354.523 -5.85122 2.22223 0
M  V30 3776 H 354.756 -2.41106 1.7394 0
M  V30 3777 H 352.289 -1.17896 0.996988 0
M  V30 3778 H 354.247 -4.10391 -0.0945588 0
M  V30 3779 H 352.908 -3.07392 -0.645668 0
M  V30 3780 H 352.101 -4.97883 0.78287 0
M  V30 3781 H 351.703 -3.41348 1.52831 0
M  V30 3782 H 353.995 -6.58408 1.59703 0
M  V30 3783 H 354.938 -6.36381 3.10523 0
M  V30 3784 H 355.346 -5.39626 1.65722 0
M  V30 3785 N 354.744 -0.972509 -1.24016 0
M  V30 3786 C 355.969 -0.654417 -1.96805 0
M  V30 3787 C 356.394 0.770398 -1.716 0
M  V30 3788 O 355.752 1.52361 -0.982647 0
M  V30 3789 C 355.8 -0.941031 -3.48105 0
M  V30 3790 O 354.904 -0.0289472 -4.1239 0
M  V30 3791 H 354.245 -0.24692 -0.616382 0
M  V30 3792 H 356.775 -1.30396 -1.57664 0
M  V30 3793 H 356.785 -0.87452 -3.98517 0
M  V30 3794 H 355.46 -1.97939 -3.65777 0
M  V30 3795 H 354.037 -0.149192 -3.72601 0
M  V30 3796 N 356.222 1.38976 -0.743202 0
M  V30 3797 C 357.452 2.04339 -0.304807 0
M  V30 3798 C 357.86 1.56162 1.06819 0
M  V30 3799 O 357.203 0.725284 1.68776 0
M  V30 3800 C 357.265 3.58716 -0.237369 0
M  V30 3801 C 356.929 4.29905 -1.55018 0
M  V30 3802 C 357.926 4.55987 -2.49744 0
M  V30 3803 C 355.611 4.68294 -1.81675 0
M  V30 3804 C 357.605 5.19478 -3.69353 0
M  V30 3805 C 355.292 5.31512 -3.0156 0
M  V30 3806 C 356.29 5.57037 -3.9522 0
M  V30 3807 O 355.978 6.18941 -5.12998 0
M  V30 3808 H 355.71 0.663439 -0.12971 0
M  V30 3809 H 358.264 1.78852 -1.01001 0
M  V30 3810 H 356.494 3.83133 0.524003 0
M  V30 3811 H 358.183 4.05543 0.170121 0
M  V30 3812 H 358.949 4.26767 -2.30423 0
M  V30 3813 H 354.828 4.47779 -1.09615 0
M  V30 3814 H 358.372 5.39318 -4.42473 0
M  V30 3815 H 354.269 5.60153 -3.20778 0
M  V30 3816 H 355.037 6.37433 -5.13441 0
M  V30 3817 N 357.7 0.491464 1.49741 0
M  V30 3818 C 358.94 -0.0549118 2.04326 0
M  V30 3819 C 359.304 -1.35148 1.36378 0
M  V30 3820 O 360.505 -1.9815 1.81631 0
M  V30 3821 C 358.776 -0.213841 3.5676 0
M  V30 3822 S 360.335 -0.715839 4.32922 0
M  V30 3823 H 357.153 -0.00630513 0.710972 0
M  V30 3824 H 359.755 0.663257 1.83905 0
M  V30 3825 H 358.459 0.73527 4.0376 0
M  V30 3826 H 357.99 -0.957529 3.81569 0
M  V30 3827 H 360.005 -1.9864 4.54705 0
M  V30 3828 N 359.178 -1.55987 0.224894 0
M  V30 3829 C 360.408 -2.02489 -0.41007 0
M  V30 3830 C 360.816 -1.10391 -1.53657 0
M  V30 3831 O 360.159 -0.106458 -1.83391 0
M  V30 3832 C 360.221 -3.45319 -0.999757 0
M  V30 3833 C 359.885 -4.56999 -0.00827976 0
M  V30 3834 C 360.882 -5.13812 0.793314 0
M  V30 3835 C 358.567 -5.02176 0.111442 0
M  V30 3836 C 360.561 -6.14276 1.7013 0
M  V30 3837 C 358.248 -6.02477 1.02296 0
M  V30 3838 C 359.246 -6.58403 1.81643 0
M  V30 3839 O 358.934 -7.56751 2.71262 0
M  V30 3840 H 358.666 -0.667915 -0.104235 0
M  V30 3841 H 361.22 -2.0257 0.339782 0
M  V30 3842 H 359.45 -3.42318 -1.79876 0
M  V30 3843 H 361.139 -3.7545 -1.54248 0
M  V30 3844 H 361.905 -4.79756 0.711288 0
M  V30 3845 H 357.784 -4.58323 -0.49605 0
M  V30 3846 H 361.328 -6.57854 2.32107 0
M  V30 3847 H 357.225 -6.35954 1.10599 0
M  V30 3848 H 357.993 -7.74286 2.65375 0
M  V30 3849 N 360.656 0.0484629 -1.57525 0
M  V30 3850 C 361.619 1.03956 -2.04269 0
M  V30 3851 C 362.619 1.30211 -0.943496 0
M  V30 3852 O 363.809 1.25539 -1.20771 0
M  V30 3853 C 360.941 2.37742 -2.44319 0
M  V30 3854 H 362.134 0.636182 -2.93075 0
M  V30 3855 H 359.687 0.294811 -1.53494 0
M  V30 3856 H 360.422 2.82866 -1.5861 0
M  V30 3857 H 360.207 2.20021 -3.24551 0
M  V30 3858 H 361.697 3.08936 -2.80978 0
M  V30 3859 N 362.134 1.5431 0.320358 0
M  V30 3860 C 363.38 1.72924 1.05949 0
M  V30 3861 C 363.713 0.503185 1.87568 0
M  V30 3862 O 362.988 -0.499839 1.87968 0
M  V30 3863 C 363.271 3.00676 1.98156 0
M  V30 3864 C 363.124 4.3354 1.19845 0
M  V30 3865 C 364.443 3.24198 2.9763 0
M  V30 3866 H 361.562 0.629195 0.383774 0
M  V30 3867 H 364.204 1.87008 0.335854 0
M  V30 3868 H 362.354 2.888 2.59859 0
M  V30 3869 H 364.026 4.57305 0.605773 0
M  V30 3870 H 362.269 4.309 0.500784 0
M  V30 3871 H 362.94 5.19156 1.87567 0
M  V30 3872 H 365.416 3.35557 2.4605 0
M  V30 3873 H 364.292 4.14938 3.59329 0
M  V30 3874 H 364.553 2.41577 3.7026 0
M  V30 3875 N 363.613 -0.582584 1.46437 0
M  V30 3876 C 365.029 -0.905962 1.31394 0
M  V30 3877 C 365.229 -1.99468 0.285476 0
M  V30 3878 O 364.285 -2.50566 -0.311914 0
M  V30 3879 C 365.598 -1.3232 2.70022 0
M  V30 3880 C 367.146 -1.43604 2.78113 0
M  V30 3881 C 367.621 -1.88694 4.17323 0
M  V30 3882 N 369.112 -1.95887 4.19741 0
M  V30 3883 C 369.847 -2.32051 5.24347 0
M  V30 3884 N 369.343 -2.67006 6.39281 0
M  V30 3885 N 371.136 -2.32606 5.11713 0
M  V30 3886 H 363.287 0.1366 2.1196 0
M  V30 3887 H 365.55 -0.00155736 0.947999 0
M  V30 3888 H 365.256 -0.597242 3.46592 0
M  V30 3889 H 365.13 -2.28469 3.00136 0
M  V30 3890 H 367.517 -2.15286 2.01832 0
M  V30 3891 H 367.598 -0.457059 2.51684 0
M  V30 3892 H 367.242 -1.1759 4.941 0
M  V30 3893 H 367.172 -2.8755 4.4116 0
M  V30 3894 H 369.663 -1.71362 3.36814 0
M  V30 3895 H 369.976 -2.93554 7.14875 0
M  V30 3896 H 368.321 -2.64644 6.42642 0
M  V30 3897 H 371.512 -2.04721 4.2096 0
M  V30 3898 H 371.685 -2.60462 5.93349 0
M  V30 3899 N 365.091 -1.34144 -0.827227 0
M  V30 3900 C 366.021 -1.28005 -1.95287 0
M  V30 3901 C 367.002 -0.158321 -1.69362 0
M  V30 3902 O 368.187 -0.349987 -1.9102 0
M  V30 3903 C 365.317 -1.03036 -3.31664 0
M  V30 3904 C 364.271 -2.11628 -3.72019 0
M  V30 3905 C 363.597 -1.71854 -5.0633 0
M  V30 3906 C 364.897 -3.53417 -3.8457 0
M  V30 3907 H 366.591 -2.22187 -2.00682 0
M  V30 3908 H 364.137 -1.0696 -0.964135 0
M  V30 3909 H 366.09 -0.973863 -4.09993 0
M  V30 3910 H 364.814 -0.0529391 -3.26557 0
M  V30 3911 H 363.473 -2.16339 -2.95961 0
M  V30 3912 H 363.121 -0.727841 -4.97706 0
M  V30 3913 H 362.821 -2.44531 -5.34302 0
M  V30 3914 H 364.345 -1.67692 -5.87122 0
M  V30 3915 H 365.759 -3.51142 -4.5318 0
M  V30 3916 H 364.156 -4.24679 -4.2399 0
M  V30 3917 H 365.226 -3.91072 -2.86689 0
M  V30 3918 N 366.569 1.04691 -1.17803 0
M  V30 3919 C 367.794 1.81984 -0.994813 0
M  V30 3920 C 368.219 1.82586 0.452112 0
M  V30 3921 O 367.577 1.23854 1.324 0
M  V30 3922 C 367.625 3.2575 -1.54659 0
M  V30 3923 O 366.729 4.05267 -0.763728 0
M  V30 3924 H 366.07 0.562483 -0.352857 0
M  V30 3925 H 368.6 1.3189 -1.56417 0
M  V30 3926 H 368.61 3.76541 -1.57102 0
M  V30 3927 H 367.285 3.24627 -2.59981 0
M  V30 3928 H 365.862 3.63972 -0.811108 0
M  V30 3929 N 368.047 0.979072 1.23499 0
M  V30 3930 C 369.01 0.523244 2.23147 0
M  V30 3931 C 370.01 -0.386406 1.56088 0
M  V30 3932 O 371.2 -0.180283 1.73265 0
M  V30 3933 C 368.332 -0.240739 3.40049 0
M  V30 3934 H 369.525 1.40432 2.64989 0
M  V30 3935 H 367.078 0.764824 1.36309 0
M  V30 3936 H 367.813 -1.13841 3.03662 0
M  V30 3937 H 367.598 0.412207 3.89927 0
M  V30 3938 H 369.088 -0.548297 4.13985 0
M  V30 3939 N 369.525 -1.3858 0.750561 0
M  V30 3940 C 370.488 -2.28836 0.129152 0
M  V30 3941 C 371.488 -1.47045 -0.650714 0
M  V30 3942 O 372.678 -1.6753 -0.477428 0
M  V30 3943 C 369.81 -3.30751 -0.825622 0
M  V30 3944 H 371.003 -2.85294 0.924516 0
M  V30 3945 H 368.556 -1.47489 0.517376 0
M  V30 3946 H 369.291 -2.79378 -1.64677 0
M  V30 3947 H 369.076 -3.91177 -0.268852 0
M  V30 3948 H 370.566 -3.98249 -1.2565 0
M  V30 3949 N 371.003 -0.499398 -1.49478 0
M  V30 3950 C 371.913 0.284489 -2.32869 0
M  V30 3951 C 372.929 0.968885 -1.44529 0
M  V30 3952 O 374.105 0.95062 -1.77553 0
M  V30 3953 C 371.17 1.33594 -3.19928 0
M  V30 3954 C 370.231 0.665149 -4.24116 0
M  V30 3955 C 369.464 1.6665 -5.07014 0
M  V30 3956 O 369.687 2.89618 -4.91404 0
M  V30 3957 O 368.621 1.22271 -5.8935 0
M  V30 3958 H 372.447 -0.39802 -3.01081 0
M  V30 3959 H 370.032 -0.260758 -1.47107 0
M  V30 3960 H 371.914 1.94431 -3.73864 0
M  V30 3961 H 370.589 2.0014 -2.54412 0
M  V30 3962 H 369.496 0.0170769 -3.74096 0
M  V30 3963 H 370.829 0.0421555 -4.92182 0
M  V30 3964 N 372.481 1.55866 -0.233164 0
M  V30 3965 C 373.758 1.90471 0.444988 0
M  V30 3966 C 374.138 1.15209 1.7689 0
M  V30 3967 O 373.486 0.265119 2.26957 0
M  V30 3968 C 373.696 3.4333 0.626559 0
M  V30 3969 C 375.044 4.14319 0.92871 0
M  V30 3970 O 376.068 3.48993 0.712926 0
M  V30 3971 O 374.927 5.29846 1.33887 0
M  V30 3972 H 372.021 0.792347 0.236885 0
M  V30 3973 H 374.567 1.67437 -0.276211 0
M  V30 3974 H 373.339 3.90095 -0.306822 0
M  V30 3975 H 372.962 3.72181 1.39881 0
M  V30 3976 N 373.959 -0.0401083 1.57549 0
M  V30 3977 C 375.37 -0.588097 1.77196 0
M  V30 3978 C 375.721 -1.76209 0.862832 0
M  V30 3979 O 374.846 -2.16331 0.0548389 0
M  V30 3980 C 375.441 -1.07363 3.21339 0
M  V30 3981 C 374 -1.56723 3.42221 0
M  V30 3982 C 373.147 -0.50041 2.72747 0
M  V30 3983 H 376.098 0.186119 1.57605 0
M  V30 3984 H 376.119 -1.94143 3.27244 0
M  V30 3985 H 375.631 -0.218975 3.87482 0
M  V30 3986 H 373.732 -2.4441 2.81237 0
M  V30 3987 H 373.845 -1.62234 4.50796 0
M  V30 3988 H 372.209 -0.952894 2.36203 0
M  V30 3989 H 372.992 0.344599 3.41566 0
M  V30 3990 N 375.437 -1.54477 -0.31217 0
M  V30 3991 C 376.367 -1.87652 -1.38957 0
M  V30 3992 C 377.348 -0.734358 -1.53431 0
M  V30 3993 O 378.533 -0.98911 -1.67123 0
M  V30 3994 C 375.663 -2.11396 -2.75552 0
M  V30 3995 C 374.617 -3.27243 -2.75855 0
M  V30 3996 C 373.943 -3.36382 -4.15633 0
M  V30 3997 C 375.243 -4.64622 -2.38587 0
M  V30 3998 H 376.937 -2.77887 -1.11442 0
M  V30 3999 H 374.483 -1.33707 -0.534655 0
M  V30 4000 H 376.436 -2.33189 -3.51 0
M  V30 4001 H 375.16 -1.17921 -3.04569 0
M  V30 4002 H 373.819 -3.05356 -2.02863 0
M  V30 4003 H 373.467 -2.40445 -4.41809 0
M  V30 4004 H 373.167 -4.14249 -4.1674 0
M  V30 4005 H 374.691 -3.60422 -4.92877 0
M  V30 4006 H 376.105 -4.86219 -3.03749 0
M  V30 4007 H 374.502 -5.45121 -2.50925 0
M  V30 4008 H 375.572 -4.66097 -1.33723 0
M  V30 4009 N 376.915 0.57481 -1.46744 0
M  V30 4010 C 378.161 1.3347 -1.52688 0
M  V30 4011 C 378.494 1.93353 -0.181229 0
M  V30 4012 O 377.769 1.76912 0.808237 0
M  V30 4013 C 378.052 2.45811 -2.63152 0
M  V30 4014 C 377.905 1.90912 -4.07275 0
M  V30 4015 C 379.224 3.47822 -2.69644 0
M  V30 4016 H 376.343 0.483935 -0.555856 0
M  V30 4017 H 378.985 0.644968 -1.78718 0
M  V30 4018 H 377.135 3.04646 -2.41088 0
M  V30 4019 H 378.807 1.36473 -4.4065 0
M  V30 4020 H 377.05 1.21691 -4.16382 0
M  V30 4021 H 377.721 2.72042 -4.80309 0
M  V30 4022 H 380.197 2.9888 -2.895 0
M  V30 4023 H 379.073 4.23876 -3.48742 0
M  V30 4024 H 379.334 4.05555 -1.76005 0
M  V30 4025 N 378.394 1.34581 0.820102 0
M  V30 4026 C 379.326 1.22236 1.93884 0
M  V30 4027 C 380.339 0.148776 1.62119 0
M  V30 4028 O 381.528 0.400877 1.7394 0
M  V30 4029 C 378.628 0.856542 3.27897 0
M  V30 4030 C 377.801 2.02569 3.87666 0
M  V30 4031 C 376.86 1.63782 5.00062 0
M  V30 4032 O 375.886 2.35477 5.18208 0
M  V30 4033 N 377.088 0.553611 5.77854 0
M  V30 4034 H 379.853 2.18615 2.05006 0
M  V30 4035 H 377.414 1.27573 0.99683 0
M  V30 4036 H 379.406 0.578806 4.0054 0
M  V30 4037 H 377.976 -0.0171518 3.12595 0
M  V30 4038 H 377.196 2.468 3.07382 0
M  V30 4039 H 378.484 2.80752 4.24329 0
M  V30 4040 H 377.882 -0.0423528 5.65684 0
M  V30 4041 H 376.439 0.335614 6.50935 0
M  V30 4042 N 379.872 -1.04064 1.18357 0
M  V30 4043 C 381.097 -1.81454 1.00445 0
M  V30 4044 C 381.522 -1.82823 -0.442423 0
M  V30 4045 O 380.88 -1.24555 -1.31741 0
M  V30 4046 C 380.928 -3.24925 1.56384 0
M  V30 4047 O 380.032 -4.04856 0.785209 0
M  V30 4048 H 379.373 -0.560604 0.355835 0
M  V30 4049 H 381.903 -1.31059 1.57114 0
M  V30 4050 H 381.913 -3.75702 1.59097 0
M  V30 4051 H 380.588 -3.23244 2.61699 0
M  V30 4052 H 379.165 -3.63537 0.830399 0
M  V30 4053 N 381.35 -0.985608 -1.22978 0
M  V30 4054 C 382.28 -0.549649 -2.26939 0
M  V30 4055 C 383.261 0.419803 -1.64838 0
M  V30 4056 O 384.446 0.31203 -1.91677 0
M  V30 4057 C 381.576 0.143652 -3.47003 0
M  V30 4058 C 380.53 -0.743606 -4.21491 0
M  V30 4059 C 379.856 0.0822027 -5.34637 0
M  V30 4060 C 381.156 -2.03694 -4.80943 0
M  V30 4061 H 382.85 -1.41862 -2.63658 0
M  V30 4062 H 380.396 -0.683571 -1.26741 0
M  V30 4063 H 382.349 0.459985 -4.18882 0
M  V30 4064 H 381.073 1.04711 -3.09359 0
M  V30 4065 H 379.732 -1.04347 -3.51436 0
M  V30 4066 H 379.38 0.986359 -4.93234 0
M  V30 4067 H 379.08 -0.508377 -5.85397 0
M  V30 4068 H 380.604 0.392797 -6.09335 0
M  V30 4069 H 382.018 -1.78504 -5.44802 0
M  V30 4070 H 380.415 -2.57573 -5.42011 0
M  V30 4071 H 381.485 -2.72042 -4.01399 0
M  V30 4072 N 382.828 1.3818 -0.7579 0
M  V30 4073 C 384.244 1.5353 -0.435972 0
M  V30 4074 C 384.444 1.71961 1.05032 0
M  V30 4075 O 383.5 1.73307 1.83633 0
M  V30 4076 C 384.813 2.73989 -1.23898 0
M  V30 4077 C 386.361 2.87841 -1.22949 0
M  V30 4078 C 386.836 4.11266 -2.01554 0
M  V30 4079 N 388.327 4.18352 -1.98837 0
M  V30 4080 C 389.062 5.12856 -2.5645 0
M  V30 4081 N 388.558 6.13005 -3.22794 0
M  V30 4082 N 390.351 5.05238 -2.46356 0
M  V30 4083 H 382.502 1.24467 -1.7211 0
M  V30 4084 H 384.765 0.604982 -0.729864 0
M  V30 4085 H 384.471 2.66789 -2.29165 0
M  V30 4086 H 384.345 3.67294 -0.858764 0
M  V30 4087 H 386.732 2.9452 -0.184854 0
M  V30 4088 H 386.813 1.95534 -1.64924 0
M  V30 4089 H 386.457 4.05349 -3.06031 0
M  V30 4090 H 386.387 5.02661 -1.5697 0
M  V30 4091 H 388.878 3.46628 -1.50524 0
M  V30 4092 H 389.191 6.81619 -3.64165 0
M  V30 4093 H 387.536 6.13325 -3.2689 0
M  V30 4094 H 390.727 4.25938 -1.9415 0
M  V30 4095 H 390.9 5.78707 -2.91552 0
M  V30 4096 N 384.306 0.507319 1.49211 0
M  V30 4097 C 385.238 -0.304532 2.27168 0
M  V30 4098 C 386.251 -0.924956 1.33972 0
M  V30 4099 O 387.44 -0.807227 1.59205 0
M  V30 4100 C 384.54 -1.44431 3.06583 0
M  V30 4101 C 383.713 -0.930026 4.27398 0
M  V30 4102 C 382.772 -1.94817 4.88807 0
M  V30 4103 O 381.798 -1.51418 5.4869 0
M  V30 4104 N 383 -3.279 4.79022 0
M  V30 4105 H 385.765 0.36395 2.97482 0
M  V30 4106 H 383.326 0.340249 1.58284 0
M  V30 4107 H 385.318 -2.12311 3.44537 0
M  V30 4108 H 383.888 -2.01684 2.38835 0
M  V30 4109 H 383.108 -0.0759244 3.94127 0
M  V30 4110 H 384.396 -0.564932 5.05654 0
M  V30 4111 H 383.794 -3.65843 4.3148 0
M  V30 4112 H 382.351 -3.91476 5.21142 0
M  V30 4113 N 385.784 -1.5574 0.241426 0
M  V30 4114 C 386.694 -2.2479 -0.671305 0
M  V30 4115 C 387.71 -1.26217 -1.19772 0
M  V30 4116 O 388.886 -1.59079 -1.23514 0
M  V30 4117 C 385.951 -2.92966 -1.85396 0
M  V30 4118 C 385.012 -4.06935 -1.36756 0
M  V30 4119 C 384.245 -4.71851 -2.49384 0
M  V30 4120 O 384.468 -4.35823 -3.67987 0
M  V30 4121 O 383.402 -5.60467 -2.19454 0
M  V30 4122 H 387.228 -3.0349 -0.112966 0
M  V30 4123 H 384.813 -1.49397 0.0101513 0
M  V30 4124 H 386.695 -3.35927 -2.54423 0
M  V30 4125 H 385.37 -2.17211 -2.40002 0
M  V30 4126 H 384.277 -3.68503 -0.644726 0
M  V30 4127 H 385.61 -4.84492 -0.867647 0
M  V30 4128 N 387.262 0.0317525 -1.57568 0
M  V30 4129 C 388.192 1.03274 -2.0942 0
M  V30 4130 C 389.173 1.3788 -0.996143 0
M  V30 4131 O 390.358 1.46811 -1.27122 0
M  V30 4132 C 387.488 2.33448 -2.57137 0
M  V30 4133 C 386.442 2.13091 -3.71182 0
M  V30 4134 C 385.768 3.49001 -4.05095 0
M  V30 4135 C 387.068 1.51928 -4.99715 0
M  V30 4136 H 388.762 0.60112 -2.93303 0
M  V30 4137 H 386.308 0.287705 -1.41097 0
M  V30 4138 H 388.261 3.03802 -2.92032 0
M  V30 4139 H 386.985 2.78665 -1.70333 0
M  V30 4140 H 385.644 1.45171 -3.36632 0
M  V30 4141 H 385.292 3.91862 -3.15362 0
M  V30 4142 H 384.992 3.36207 -4.81911 0
M  V30 4143 H 386.516 4.20721 -4.42522 0
M  V30 4144 H 387.93 2.12196 -5.32584 0
M  V30 4145 H 386.327 1.49716 -5.81124 0
M  V30 4146 H 387.397 0.484811 -4.8247 0
M  V30 4147 N 388.74 1.54641 0.303973 0
M  V30 4148 C 389.97 1.77511 1.05705 0
M  V30 4149 C 390.378 0.533228 1.81531 0
M  V30 4150 O 389.721 -0.506423 1.76582 0
M  V30 4151 C 389.783 2.92779 2.08617 0
M  V30 4152 C 389.447 4.30977 1.52013 0
M  V30 4153 C 390.444 5.11115 0.9517 0
M  V30 4154 C 388.129 4.77571 1.55665 0
M  V30 4155 C 390.123 6.35966 0.427327 0
M  V30 4156 C 387.81 6.02384 1.02841 0
M  V30 4157 C 388.808 6.81417 0.464713 0
M  V30 4158 O 388.496 8.03881 -0.0555283 0
M  V30 4159 H 388.228 0.59579 0.319391 0
M  V30 4160 H 390.782 2.02401 0.349712 0
M  V30 4161 H 389.012 2.63506 2.83022 0
M  V30 4162 H 390.701 3.03252 2.69802 0
M  V30 4163 H 391.467 4.76264 0.916407 0
M  V30 4164 H 387.346 4.16085 1.9848 0
M  V30 4165 H 390.89 6.97599 -0.0133062 0
M  V30 4166 H 386.787 6.36723 1.06084 0
M  V30 4167 H 387.555 8.18479 0.0580522 0
M  V30 4168 N 390.218 -0.567019 1.47046 0
M  V30 4169 C 391.464 -1.32658 1.53394 0
M  V30 4170 C 391.797 -1.93254 0.19148 0
M  V30 4171 O 391.072 -1.77338 -0.798844 0
M  V30 4172 C 391.355 -2.44412 2.64452 0
M  V30 4173 C 391.208 -1.88749 4.08282 0
M  V30 4174 C 392.527 -3.46387 2.71485 0
M  V30 4175 H 389.646 -0.48098 0.558415 0
M  V30 4176 H 392.288 -0.635481 1.79058 0
M  V30 4177 H 390.438 -3.03363 2.427 0
M  V30 4178 H 392.11 -1.34134 4.41368 0
M  V30 4179 H 390.353 -1.19481 4.17021 0
M  V30 4180 H 391.024 -2.69491 4.81745 0
M  V30 4181 H 393.5 -2.9734 2.91081 0
M  V30 4182 H 392.376 -4.2202 3.50985 0
M  V30 4183 H 392.637 -4.04616 1.78153 0
M  V30 4184 N 391.696 -1.35014 -0.812953 0
M  V30 4185 C 392.606 -1.2951 -1.95613 0
M  V30 4186 C 393.622 -0.20107 -1.72834 0
M  V30 4187 O 394.798 -0.42932 -1.96771 0
M  V30 4188 C 391.863 -1.06033 -3.30088 0
M  V30 4189 C 390.924 -2.24688 -3.65805 0
M  V30 4190 C 390.157 -2.02322 -4.93864 0
M  V30 4191 O 390.38 -0.986464 -5.61805 0
M  V30 4192 O 389.314 -2.89525 -5.27692 0
M  V30 4193 H 393.14 -2.25705 -2.03202 0
M  V30 4194 H 390.725 -1.15321 -0.949811 0
M  V30 4195 H 392.607 -0.94763 -4.10607 0
M  V30 4196 H 391.282 -0.128852 -3.23443 0
M  V30 4197 H 390.189 -2.41521 -2.85689 0
M  V30 4198 H 391.522 -3.16261 -3.77147 0
M  V30 4199 N 393.175 1.03435 -1.18907 0
M  V30 4200 C 394.452 1.73778 -0.89781 0
M  V30 4201 C 394.832 2.02458 0.597832 0
M  V30 4202 O 394.18 1.67482 1.55441 0
M  V30 4203 C 394.39 3.01845 -1.75187 0
M  V30 4204 C 395.738 3.7546 -1.9828 0
M  V30 4205 O 396.762 3.11759 -1.72293 0
M  V30 4206 O 395.621 4.89966 -2.42065 0
M  V30 4207 H 392.715 0.75651 -0.334098 0
M  V30 4208 H 395.261 1.09444 -1.29693 0
M  V30 4209 H 394.033 2.76836 -2.76545 0
M  V30 4210 H 393.656 3.73919 -1.35167 0
M  V30 4211 N 394.653 0.992116 1.22453 0
M  V30 4212 C 395.9 0.667534 1.91181 0
M  V30 4213 C 396.228 -0.800317 1.77271 0
M  V30 4214 O 395.483 -1.59421 1.13505 0
M  V30 4215 C 395.782 1.01832 3.42586 0
M  V30 4216 C 395.448 2.47831 3.76684 0
M  V30 4217 C 394.11 2.87729 3.85701 0
M  V30 4218 C 396.462 3.42466 3.92895 0
M  V30 4219 C 393.79 4.21252 4.08367 0
M  V30 4220 C 396.142 4.75648 4.17064 0
M  V30 4221 C 394.806 5.15288 4.24305 0
M  V30 4222 H 394.076 0.244268 0.699581 0
M  V30 4223 H 396.723 1.24816 1.45235 0
M  V30 4224 H 395.028 0.355769 3.90181 0
M  V30 4225 H 396.725 0.745228 3.94014 0
M  V30 4226 H 393.315 2.15905 3.70247 0
M  V30 4227 H 397.499 3.12814 3.85307 0
M  V30 4228 H 392.755 4.51554 4.122 0
M  V30 4229 H 396.929 5.48924 4.2855 0
M  V30 4230 H 394.556 6.18769 4.41621 0
M  V30 4231 N 396.131 -1.37776 0.765217 0
M  V30 4232 C 397.094 -2.28686 0.153416 0
M  V30 4233 C 398.094 -1.47727 -0.635081 0
M  V30 4234 O 399.284 -1.68027 -0.459632 0
M  V30 4235 C 396.416 -3.31608 -0.790495 0
M  V30 4236 H 397.609 -2.84297 0.954723 0
M  V30 4237 H 395.162 -1.46932 0.53299 0
M  V30 4238 H 395.897 -2.81109 -1.61705 0
M  V30 4239 H 395.682 -3.9144 -0.227348 0
M  V30 4240 H 397.172 -3.99559 -1.21419 0
M  V30 4241 N 397.609 -0.515225 -1.4894 0
M  V30 4242 C 398.834 0.022727 -2.07388 0
M  V30 4243 C 399.259 1.2876 -1.37122 0
M  V30 4244 O 398.617 1.76067 -0.432431 0
M  V30 4245 C 398.665 0.244869 -3.59768 0
M  V30 4246 O 397.769 1.31667 -3.90817 0
M  V30 4247 H 397.11 -0.0325506 -0.663202 0
M  V30 4248 H 399.64 -0.718918 -1.91553 0
M  V30 4249 H 399.65 0.47205 -4.0526 0
M  V30 4250 H 398.325 -0.679194 -4.10317 0
M  V30 4251 H 396.902 1.07331 -3.5712 0
M  V30 4252 N 399.087 1.5561 -0.249682 0
M  V30 4253 C 400.336 1.98187 0.37479 0
M  V30 4254 C 400.649 1.14111 1.58865 0
M  V30 4255 O 401.855 1.46714 2.28445 0
M  V30 4256 C 400.311 3.52661 0.718192 0
M  V30 4257 C 399.919 4.45481 -0.474428 0
M  V30 4258 C 401.663 4.03888 1.3067 0
M  V30 4259 C 399.57 5.91303 -0.107026 0
M  V30 4260 H 398.5 0.740159 0.143808 0
M  V30 4261 H 401.151 1.80125 -0.350336 0
M  V30 4262 H 399.533 3.66429 1.50152 0
M  V30 4263 H 400.707 4.43473 -1.25172 0
M  V30 4264 H 399.022 4.04751 -0.978052 0
M  V30 4265 H 401.619 5.10358 1.59496 0
M  V30 4266 H 401.962 3.51401 2.23211 0
M  V30 4267 H 402.495 3.93457 0.586211 0
M  V30 4268 H 399.234 6.47833 -0.999642 0
M  V30 4269 H 398.754 5.9644 0.634013 0
M  V30 4270 H 400.433 6.46258 0.309807 0
M  V30 4271 N 400.565 -0.0233959 1.57583 0
M  V30 4272 C 401.842 -0.748794 1.807 0
M  V30 4273 C 402.222 -1.9327 0.849106 0
M  V30 4274 O 401.57 -2.28247 -0.107468 0
M  V30 4275 C 401.78 -1.17651 3.28571 0
M  V30 4276 C 403.128 -1.59008 3.93702 0
M  V30 4277 O 404.152 -1.27094 3.32755 0
M  V30 4278 O 403.011 -2.18264 5.01022 0
M  V30 4279 H 400.105 -0.362578 0.743281 0
M  V30 4280 H 402.651 0.000261958 1.697 0
M  V30 4281 H 401.423 -0.331603 3.89892 0
M  V30 4282 H 401.046 -1.98541 3.44481 0
M  V30 4283 N 402.043 -1.548 -0.295768 0
M  V30 4284 C 403.289 -1.75517 -1.02789 0
M  V30 4285 C 403.644 -0.537266 -1.84746 0
M  V30 4286 O 402.937 0.470299 -1.85738 0
M  V30 4287 C 403.131 -2.98797 -1.961 0
M  V30 4288 C 402.96 -4.3246 -1.23321 0
M  V30 4289 C 401.73 -4.96131 -0.95822 0
M  V30 4290 C 403.928 -5.10365 -0.635024 0
M  V30 4291 N 401.91 -6.1357 -0.201257 0
M  V30 4292 C 403.281 -6.19999 -0.0110937 0
M  V30 4293 C 405.336 -4.94957 -0.540594 0
M  V30 4294 C 404.039 -7.15904 0.698136 0
M  V30 4295 C 406.065 -5.91197 0.154992 0
M  V30 4296 C 405.427 -7.00203 0.767752 0
M  V30 4297 H 401.526 -0.694786 -0.358882 0
M  V30 4298 H 404.11 -1.92281 -0.305943 0
M  V30 4299 H 402.281 -2.83448 -2.6554 0
M  V30 4300 H 404.013 -3.08017 -2.62502 0
M  V30 4301 H 400.768 -4.56595 -1.25771 0
M  V30 4302 H 401.192 -6.76802 0.16389 0
M  V30 4303 H 405.834 -4.10803 -1.00003 0
M  V30 4304 H 403.552 -7.99595 1.16933 0
M  V30 4305 H 407.138 -5.81353 0.228069 0
M  V30 4306 H 406.018 -7.73393 1.29743 0
M  V30 4307 N 403.521 0.559213 -1.47345 0
M  V30 4308 C 404.451 1.67622 -1.62558 0
M  V30 4309 C 405.432 1.63331 -0.475087 0
M  V30 4310 O 406.617 1.80983 -0.704182 0
M  V30 4311 C 403.747 3.0626 -1.63774 0
M  V30 4312 C 402.701 3.25397 -2.7803 0
M  V30 4313 C 402.027 4.64801 -2.64318 0
M  V30 4314 C 403.327 3.10965 -4.19641 0
M  V30 4315 H 405.021 1.55146 -2.56067 0
M  V30 4316 H 402.567 0.744961 -1.23233 0
M  V30 4317 H 404.52 3.84247 -1.73008 0
M  V30 4318 H 403.244 3.1969 -0.66825 0
M  V30 4319 H 401.903 2.49817 -2.68304 0
M  V30 4320 H 401.551 4.75028 -1.65401 0
M  V30 4321 H 401.251 4.78555 -3.40968 0
M  V30 4322 H 402.775 5.44926 -2.75478 0
M  V30 4323 H 404.189 3.78772 -4.30354 0
M  V30 4324 H 402.586 3.36229 -4.97062 0
M  V30 4325 H 403.656 2.07736 -4.38148 0
M  V30 4326 N 404.999 1.35443 0.805782 0
M  V30 4327 C 405.962 1.28301 1.89925 0
M  V30 4328 C 406.962 0.194285 1.59622 0
M  V30 4329 O 408.152 0.448036 1.6834 0
M  V30 4330 C 405.284 0.984997 3.2636 0
M  V30 4331 H 406.477 2.2553 1.97677 0
M  V30 4332 H 404.03 1.19979 1.00173 0
M  V30 4333 H 404.765 0.016603 3.24296 0
M  V30 4334 H 404.55 1.77269 3.4974 0
M  V30 4335 H 406.04 0.960651 4.064 0
M  V30 4336 N 406.477 -1.02803 1.19454 0
M  V30 4337 C 407.409 -2.11181 0.890807 0
M  V30 4338 C 408.422 -1.6238 -0.116829 0
M  V30 4339 O 409.611 -1.78144 0.112694 0
M  V30 4340 C 406.711 -3.37461 0.311942 0
M  V30 4341 C 405.884 -4.15446 1.36834 0
M  V30 4342 C 404.943 -5.20039 0.802864 0
M  V30 4343 O 403.969 -5.49602 1.48077 0
M  V30 4344 N 405.171 -5.79165 -0.393417 0
M  V30 4345 H 407.936 -2.37827 1.82369 0
M  V30 4346 H 405.497 -1.19101 1.09666 0
M  V30 4347 H 407.489 -4.0462 -0.0802225 0
M  V30 4348 H 406.059 -3.08156 -0.52524 0
M  V30 4349 H 405.279 -3.43423 1.93531 0
M  V30 4350 H 406.567 -4.64335 2.08015 0
M  V30 4351 H 405.965 -5.57466 -0.961658 0
M  V30 4352 H 404.522 -6.47729 -0.727351 0
M  V30 4353 N 407.956 -0.998596 -1.21925 0
M  V30 4354 C 409.372 -0.710303 -1.42923 0
M  V30 4355 C 409.572 0.716933 -1.88314 0
M  V30 4356 O 408.628 1.48712 -2.04062 0
M  V30 4357 C 409.941 -1.72072 -2.466 0
M  V30 4358 C 411.489 -1.73681 -2.60392 0
M  V30 4359 C 411.964 -2.73601 -3.67296 0
M  V30 4360 N 413.455 -2.7223 -3.7476 0
M  V30 4361 C 414.19 -3.46206 -4.57087 0
M  V30 4362 N 413.686 -4.29802 -5.43362 0
M  V30 4363 N 415.479 -3.34886 -4.51451 0
M  V30 4364 H 407.63 -1.92028 -0.9077 0
M  V30 4365 H 409.893 -0.828487 -0.460775 0
M  V30 4366 H 409.599 -2.74231 -2.20206 0
M  V30 4367 H 409.473 -1.51818 -3.45299 0
M  V30 4368 H 411.86 -0.722173 -2.86127 0
M  V30 4369 H 411.941 -1.98005 -1.61949 0
M  V30 4370 H 411.585 -3.75217 -3.42307 0
M  V30 4371 H 411.515 -2.46545 -4.65321 0
M  V30 4372 H 414.006 -2.11576 -3.1312 0
M  V30 4373 H 414.319 -4.83061 -6.03218 0
M  V30 4374 H 412.664 -4.33887 -5.42925 0
M  V30 4375 H 415.855 -2.69015 -3.83078 0
M  V30 4376 H 416.028 -3.92796 -5.15379 0
M  V30 4377 N 409.434 1.37368 -0.772513 0
M  V30 4378 C 410.382 2.32134 -0.147111 0
M  V30 4379 C 411.376 1.54972 0.684106 0
M  V30 4380 O 412.582 1.70363 0.581083 0
M  V30 4381 H 408.957 0.751449 -0.028786 0
M  V30 4382 H 410.928 2.82464 -0.962112 0
M  V30 4383 C 409.677 3.40226 0.71703 0
M  V30 4384 H 409 3.99706 0.0867951 0
M  V30 4385 H 410.44 4.08897 1.12159 0
M  V30 4386 C 408.899 2.80372 1.86797 0
M  V30 4387 O 409.429 2.71183 2.96349 0
M  V30 4388 N 407.635 2.37904 1.66883 0
M  V30 4389 H 407.182 2.45578 0.777759 0
M  V30 4390 H 407.14 1.98202 2.44056 0
M  V30 4391 N 410.912 0.523116 1.48665 0
M  V30 4392 C 411.86 -0.256859 2.31177 0
M  V30 4393 C 412.854 -0.94199 1.40794 0
M  V30 4394 O 414.06 -0.867157 1.57735 0
M  V30 4395 H 410.435 -0.1017 0.745091 0
M  V30 4396 H 412.406 0.458739 2.94853 0
M  V30 4397 C 411.155 -1.29503 3.22683 0
M  V30 4398 H 410.478 -0.777248 3.92172 0
M  V30 4399 H 411.918 -1.81233 3.83315 0
M  V30 4400 C 410.377 -2.32501 2.43813 0
M  V30 4401 O 410.907 -3.3881 2.15803 0
M  V30 4402 N 409.113 -2.05538 2.05432 0
M  V30 4403 H 408.66 -1.19104 2.28412 0
M  V30 4404 H 408.618 -2.74676 1.52973 0
M  V30 4405 N 412.39 -1.55475 0.257931 0
M  V30 4406 C 413.636 -1.99502 -0.364266 0
M  V30 4407 C 413.969 -1.146 -1.56782 0
M  V30 4408 O 413.244 -0.211968 -1.93342 0
M  V30 4409 C 413.527 -3.51917 -0.763333 0
M  V30 4410 C 413.38 -4.4758 0.446371 0
M  V30 4411 C 414.699 -4.09742 -1.60623 0
M  V30 4412 H 411.818 -0.725277 -0.130929 0
M  V30 4413 H 414.46 -1.8653 0.361446 0
M  V30 4414 H 412.61 -3.63101 -1.38166 0
M  V30 4415 H 414.282 -4.48362 1.08487 0
M  V30 4416 H 412.525 -4.19947 1.08753 0
M  V30 4417 H 413.196 -5.51862 0.123645 0
M  V30 4418 H 415.672 -4.01727 -1.08418 0
M  V30 4419 H 414.548 -5.16631 -1.85429 0
M  V30 4420 H 414.809 -3.58889 -2.58169 0
M  V30 4421 N 413.868 0.0150385 -1.57593 0
M  V30 4422 C 414.831 0.995996 -2.06428 0
M  V30 4423 C 415.831 1.2818 -0.970903 0
M  V30 4424 O 417.021 1.22949 -1.23406 0
M  V30 4425 C 414.153 2.32506 -2.49307 0
M  V30 4426 H 415.346 0.573873 -2.94358 0
M  V30 4427 H 412.899 0.262186 -1.54085 0
M  V30 4428 H 413.634 2.79438 -1.64575 0
M  V30 4429 H 413.419 2.13087 -3.29145 0
M  V30 4430 H 414.909 3.02906 -2.87468 0
M  V30 4431 N 415.346 1.54954 0.287554 0
M  V30 4432 C 416.757 1.65732 0.859634 0
M  V30 4433 C 417.108 0.574767 1.87592 0
M  V30 4434 O 416.233 -0.286299 2.14498 0
M  V30 4435 C 416.828 3.00438 1.56597 0
M  V30 4436 C 415.387 3.13292 2.08627 0
M  V30 4437 C 414.534 2.61473 0.923416 0
M  V30 4438 H 417.485 1.5857 0.0642338 0
M  V30 4439 H 417.506 2.92613 2.43224 0
M  V30 4440 H 417.018 3.79207 0.826053 0
M  V30 4441 H 415.119 2.39268 2.85625 0
M  V30 4442 H 415.232 4.19647 2.31157 0
M  V30 4443 H 413.596 2.18264 1.31275 0
M  V30 4444 H 414.379 3.42733 0.197241 0
M  V30 4445 N 416.824 -0.551391 1.4764 0
M  V30 4446 C 418.101 -1.31229 1.45046 0
M  V30 4447 C 418.481 -2.10563 0.150527 0
M  V30 4448 O 417.829 -2.11374 -0.867956 0
M  V30 4449 C 418.039 -2.21189 2.69956 0
M  V30 4450 C 419.387 -2.82021 3.1741 0
M  V30 4451 O 420.411 -2.31488 2.70724 0
M  V30 4452 O 419.27 -3.73885 3.98588 0
M  V30 4453 H 416.364 -0.591193 0.578291 0
M  V30 4454 H 418.91 -0.569813 1.59847 0
M  V30 4455 H 417.682 -1.62207 3.56096 0
M  V30 4456 H 417.305 -3.02722 2.57769 0
M  V30 4457 N 418.302 -1.35869 -0.798587 0
M  V30 4458 C 419.212 -1.31578 -1.94228 0
M  V30 4459 C 420.228 -0.21939 -1.72611 0
M  V30 4460 O 421.404 -0.450167 -1.96305 0
M  V30 4461 C 418.469 -1.09528 -3.28944 0
M  V30 4462 C 417.53 -2.28556 -3.63402 0
M  V30 4463 C 416.763 -2.07549 -4.9169 0
M  V30 4464 O 416.986 -1.046 -5.60727 0
M  V30 4465 O 415.92 -2.95106 -5.24591 0
M  V30 4466 H 419.746 -2.27847 -2.00796 0
M  V30 4467 H 417.331 -1.16322 -0.937526 0
M  V30 4468 H 419.213 -0.991127 -4.09579 0
M  V30 4469 H 417.888 -0.16315 -3.23289 0
M  V30 4470 H 416.795 -2.44538 -2.83112 0
M  V30 4471 H 418.128 -3.20244 -3.73771 0
M  V30 4472 N 419.78 1.02168 -1.19998 0
M  V30 4473 C 420.71 2.12488 -0.96804 0
M  V30 4474 C 421.691 1.69799 0.101185 0
M  V30 4475 O 422.876 1.94121 -0.0552993 0
M  V30 4476 C 420.006 3.43479 -0.513776 0
M  V30 4477 C 418.96 3.99884 -1.52566 0
M  V30 4478 C 418.286 5.26582 -0.928214 0
M  V30 4479 C 419.586 4.33861 -2.90795 0
M  V30 4480 H 421.28 2.32149 -1.89069 0
M  V30 4481 H 418.826 1.11564 -0.910468 0
M  V30 4482 H 420.779 4.20036 -0.338774 0
M  V30 4483 H 419.503 3.23561 0.444493 0
M  V30 4484 H 418.162 3.25429 -1.68794 0
M  V30 4485 H 417.81 5.02986 0.0378289 0
M  V30 4486 H 417.51 5.65284 -1.60397 0
M  V30 4487 H 419.034 6.05799 -0.764167 0
M  V30 4488 H 420.448 5.01327 -2.78109 0
M  V30 4489 H 418.845 4.83664 -3.55231 0
M  V30 4490 H 419.915 3.42848 -3.42904 0
M  V30 4491 N 421.258 1.00505 1.21394 0
M  V30 4492 C 422.488 0.705584 1.94178 0
M  V30 4493 C 422.896 -0.735846 1.74304 0
M  V30 4494 O 422.239 -1.50954 1.04683 0
M  V30 4495 C 422.301 0.94689 3.46806 0
M  V30 4496 C 421.965 2.37517 3.90429 0
M  V30 4497 C 422.962 3.35539 3.97127 0
M  V30 4498 C 420.647 2.71284 4.22742 0
M  V30 4499 C 422.641 4.65395 4.3553 0
M  V30 4500 C 420.328 4.01356 4.60822 0
M  V30 4501 C 421.326 4.98223 4.67186 0
M  V30 4502 O 421.014 6.25969 5.04399 0
M  V30 4503 H 420.746 0.259216 0.624326 0
M  V30 4504 H 423.3 1.34592 1.55159 0
M  V30 4505 H 421.53 0.249386 3.85895 0
M  V30 4506 H 423.219 0.640804 4.0081 0
M  V30 4507 H 423.985 3.10786 3.7234 0
M  V30 4508 H 419.864 1.96581 4.16985 0
M  V30 4509 H 423.408 5.41002 4.40412 0
M  V30 4510 H 419.305 4.25893 4.85063 0
M  V30 4511 H 420.073 6.30085 5.22431 0
M  V30 4512 N 422.737 -1.36956 0.779787 0
M  V30 4513 C 423.965 -2.03755 0.359398 0
M  V30 4514 C 424.38 -1.58807 -1.02106 0
M  V30 4515 O 423.737 -0.773024 -1.6532 0
M  V30 4516 C 423.788 -3.59251 0.402568 0
M  V30 4517 O 423.509 -4.02557 1.72858 0
M  V30 4518 C 425.01 -4.43291 -0.0284068 0
M  V30 4519 H 422.23 -0.654148 0.149437 0
M  V30 4520 H 424.774 -1.75128 1.05595 0
M  V30 4521 H 422.929 -3.86621 -0.245478 0
M  V30 4522 H 423.343 -4.97111 1.67275 0
M  V30 4523 H 424.817 -5.51975 0.0529466 0
M  V30 4524 H 425.294 -4.25719 -1.07982 0
M  V30 4525 H 425.9 -4.21163 0.591758 0
M  V30 4526 N 424.215 -0.530993 -1.48385 0
M  V30 4527 C 425.626 -0.0907905 -1.86479 0
M  V30 4528 C 425.977 1.33213 -1.44044 0
M  V30 4529 O 425.102 1.99783 -0.831615 0
M  V30 4530 C 425.697 -0.157987 -3.38431 0
M  V30 4531 C 424.256 0.227026 -3.75715 0
M  V30 4532 C 423.403 -0.5173 -2.72432 0
M  V30 4533 H 426.354 -0.742186 -1.40276 0
M  V30 4534 H 426.375 0.630053 -3.75247 0
M  V30 4535 H 425.887 -1.19372 -3.69286 0
M  V30 4536 H 423.988 1.26486 -3.50474 0
M  V30 4537 H 424.101 -0.113288 -4.78966 0
M  V30 4538 H 422.465 0.0365527 -2.54674 0
M  V30 4539 H 423.248 -1.55368 -3.0613 0
M  V30 4540 N 425.693 1.55336 -0.266172 0
M  V30 4541 C 426.643 2.18848 0.639497 0
M  V30 4542 C 427.627 1.1503 1.12503 0
M  V30 4543 O 428.819 1.40875 1.0716 0
M  V30 4544 C 425.948 2.90626 1.82733 0
M  V30 4545 C 425.034 4.01723 1.35939 0
M  V30 4546 N 425.425 5.02145 0.606988 0
M  V30 4547 C 423.723 4.1463 1.6431 0
M  V30 4548 C 424.424 5.80572 0.362138 0
M  V30 4549 N 423.4 5.35551 0.931971 0
M  V30 4550 H 427.202 2.93845 0.0567057 0
M  V30 4551 H 424.716 1.62252 -0.0693312 0
M  V30 4552 H 426.713 3.34569 2.48735 0
M  V30 4553 H 425.373 2.17137 2.41416 0
M  V30 4554 H 426.384 5.17271 0.255198 0
M  V30 4555 H 423.061 3.52326 2.23993 0
M  V30 4556 H 424.451 6.71472 -0.239848 0
M  V30 4557 N 427.171 -0.0066808 1.57599 0
M  V30 4558 C 428.396 -0.707738 1.94951 0
M  V30 4559 C 428.821 -1.66882 0.867868 0
M  V30 4560 O 428.179 -1.80457 -0.17458 0
M  V30 4561 C 428.227 -1.42162 3.31394 0
M  V30 4562 O 427.331 -2.53578 3.25226 0
M  V30 4563 H 426.672 -0.188752 0.636607 0
M  V30 4564 H 429.202 0.0445193 2.04552 0
M  V30 4565 H 429.212 -1.78655 3.66806 0
M  V30 4566 H 427.887 -0.716903 4.09675 0
M  V30 4567 H 426.464 -2.19463 3.01481 0
M  V30 4568 N 428.649 -1.55105 -0.279332 0
M  V30 4569 C 429.895 -1.76597 -1.00921 0
M  V30 4570 C 430.25 -0.556831 -1.84166 0
M  V30 4571 O 429.543 0.450573 -1.86227 0
M  V30 4572 C 429.737 -3.0086 -1.92919 0
M  V30 4573 C 429.566 -4.33744 -1.18728 0
M  V30 4574 C 428.336 -4.9712 -0.905545 0
M  V30 4575 C 430.534 -5.11009 -0.580857 0
M  V30 4576 N 428.516 -6.13749 -0.136169 0
M  V30 4577 C 429.887 -6.19976 0.0546661 0
M  V30 4578 C 431.942 -4.95502 -0.488067 0
M  V30 4579 C 430.645 -7.15123 0.774028 0
M  V30 4580 C 432.671 -5.90999 0.217688 0
M  V30 4581 C 432.033 -6.9935 0.841975 0
M  V30 4582 H 428.132 -0.698553 -0.351493 0
M  V30 4583 H 430.716 -1.92595 -0.285531 0
M  V30 4584 H 428.887 -2.86249 -2.62519 0
M  V30 4585 H 430.619 -3.10784 -2.59221 0
M  V30 4586 H 427.374 -4.57903 -1.20921 0
M  V30 4587 H 427.798 -6.7659 0.235665 0
M  V30 4588 H 432.44 -4.11841 -0.956406 0
M  V30 4589 H 430.158 -7.9831 1.25407 0
M  V30 4590 H 433.744 -5.81078 0.289717 0
M  V30 4591 H 432.624 -7.71973 1.37939 0
M  V30 4592 N 430.127 0.543554 -1.4793 0
M  V30 4593 C 431.057 1.65888 -1.64327 0
M  V30 4594 C 432.038 1.62818 -0.492383 0
M  V30 4595 O 433.223 1.80226 -0.723338 0
M  V30 4596 C 430.353 3.04506 -1.67013 0
M  V30 4597 C 429.307 3.2243 -2.81466 0
M  V30 4598 C 428.633 4.61972 -2.69233 0
M  V30 4599 C 429.933 3.06496 -4.22915 0
M  V30 4600 H 431.627 1.52421 -2.57698 0
M  V30 4601 H 429.173 0.731849 -1.24016 0
M  V30 4602 H 431.126 3.82391 -1.77074 0
M  V30 4603 H 429.85 3.18964 -0.70212 0
M  V30 4604 H 428.509 2.46957 -2.70938 0
M  V30 4605 H 428.157 4.73247 -1.7043 0
M  V30 4606 H 427.857 4.74911 -3.46025 0
M  V30 4607 H 429.381 5.41974 -2.81242 0
M  V30 4608 H 430.795 3.74186 -4.34348 0
M  V30 4609 H 429.192 3.30938 -5.006 0
M  V30 4610 H 430.262 2.03077 -4.40327 0
M  V30 4611 N 431.605 1.3629 0.791371 0
M  V30 4612 C 432.535 1.33137 1.91825 0
M  V30 4613 C 433.516 0.203168 1.68882 0
M  V30 4614 O 434.701 0.400509 1.90025 0
M  V30 4615 C 431.831 1.11793 3.28816 0
M  V30 4616 C 430.785 2.21417 3.66277 0
M  V30 4617 C 430.111 1.85218 5.01596 0
M  V30 4618 C 431.411 3.63489 3.75064 0
M  V30 4619 H 433.105 2.2743 1.9472 0
M  V30 4620 H 430.651 1.09479 0.935437 0
M  V30 4621 H 432.604 1.08222 4.07266 0
M  V30 4622 H 431.328 0.139501 3.26302 0
M  V30 4623 H 429.987 2.2411 2.90121 0
M  V30 4624 H 429.635 0.859544 4.95602 0
M  V30 4625 H 429.335 2.58611 5.27631 0
M  V30 4626 H 430.859 1.832 5.82469 0
M  V30 4627 H 432.273 3.63034 4.43711 0
M  V30 4628 H 430.67 4.35771 4.12582 0
M  V30 4629 H 431.74 3.98536 2.76219 0
M  V30 4630 N 433.083 -1.0153 1.20538 0
M  V30 4631 C 434.499 -1.27461 0.96051 0
M  V30 4632 C 434.699 -1.98273 -0.359193 0
M  V30 4633 O 433.755 -2.27886 -1.0874 0
M  V30 4634 C 435.068 -2.10837 2.14402 0
M  V30 4635 C 436.616 -2.24099 2.18515 0
M  V30 4636 C 437.091 -3.10852 3.36355 0
M  V30 4637 N 438.582 -3.18441 3.36377 0
M  V30 4638 C 439.317 -3.85795 4.24205 0
M  V30 4639 N 438.813 -4.55264 5.22213 0
M  V30 4640 N 440.606 -3.82331 4.12043 0
M  V30 4641 H 432.757 -0.539907 2.05423 0
M  V30 4642 H 435.02 -0.30092 0.898972 0
M  V30 4643 H 434.726 -1.66144 3.09983 0
M  V30 4644 H 434.6 -3.11576 2.12604 0
M  V30 4645 H 436.987 -2.68016 1.23497 0
M  V30 4646 H 437.068 -1.22865 2.24361 0
M  V30 4647 H 436.712 -2.6764 4.31661 0
M  V30 4648 H 436.642 -4.12177 3.27746 0
M  V30 4649 H 439.133 -2.68978 2.65442 0
M  V30 4650 H 439.446 -5.04331 5.85551 0
M  V30 4651 H 437.791 -4.54085 5.26148 0
M  V30 4652 H 440.982 -3.27207 3.34743 0
M  V30 4653 H 441.155 -4.34547 4.807 0
M  V30 4654 N 434.561 -1.01147 -1.20859 0
M  V30 4655 C 435.807 -0.698899 -1.90377 0
M  V30 4656 C 436.14 0.76904 -1.78324 0
M  V30 4657 O 435.415 1.55817 -1.16409 0
M  V30 4658 C 435.698 -1.12878 -3.41951 0
M  V30 4659 C 435.551 -2.65665 -3.62963 0
M  V30 4660 C 436.87 -0.696114 -4.3456 0
M  V30 4661 H 433.989 -0.255372 -0.691342 0
M  V30 4662 H 436.631 -1.25831 -1.42361 0
M  V30 4663 H 434.781 -0.652827 -3.82976 0
M  V30 4664 H 436.453 -3.21074 -3.31224 0
M  V30 4665 H 434.696 -3.06878 -3.06608 0
M  V30 4666 H 435.367 -2.90797 -4.69192 0
M  V30 4667 H 437.843 -1.10521 -4.01154 0
M  V30 4668 H 436.719 -1.025 -5.39245 0
M  V30 4669 H 436.98 0.402465 -4.40264 0
M  V30 4670 N 436.039 1.36541 -0.78704 0
M  V30 4671 C 437.285 1.99599 -0.358872 0
M  V30 4672 C 437.618 1.62323 1.06606 0
M  V30 4673 O 436.893 0.876858 1.73613 0
M  V30 4674 C 437.176 3.56327 -0.519944 0
M  V30 4675 C 437.029 4.03464 -1.98839 0
M  V30 4676 C 438.348 4.4005 0.0664737 0
M  V30 4677 H 435.467 0.725107 -0.131869 0
M  V30 4678 H 438.109 1.6199 -0.992936 0
M  V30 4679 H 436.259 3.88495 0.0198321 0
M  V30 4680 H 437.931 3.81793 -2.58905 0
M  V30 4681 H 436.174 3.55092 -2.49183 0
M  V30 4682 H 436.845 5.12439 -2.05207 0
M  V30 4683 H 439.321 4.14228 -0.394267 0
M  V30 4684 H 438.197 5.48847 -0.0762682 0
M  V30 4685 H 438.458 4.26655 1.15835 0
M  V30 4686 N 437.518 0.538854 1.48102 0
M  V30 4687 C 438.748 0.0122958 2.06596 0
M  V30 4688 C 439.156 -1.27861 1.39457 0
M  V30 4689 O 438.499 -1.77348 0.478907 0
M  V30 4690 C 438.561 -0.273131 3.58461 0
M  V30 4691 C 438.225 0.92561 4.47528 0
M  V30 4692 C 439.222 1.82637 4.86765 0
M  V30 4693 C 436.907 1.13511 4.89306 0
M  V30 4694 C 438.901 2.92047 5.66558 0
M  V30 4695 C 436.588 2.23233 5.68868 0
M  V30 4696 C 437.586 3.12333 6.07402 0
M  V30 4697 O 437.274 4.20155 6.85365 0
M  V30 4698 H 437.006 0.0344283 0.675123 0
M  V30 4699 H 439.56 0.746494 1.91355 0
M  V30 4700 H 437.79 -1.06141 3.71848 0
M  V30 4701 H 439.479 -0.742842 3.99045 0
M  V30 4702 H 440.245 1.67649 4.55103 0
M  V30 4703 H 436.124 0.450835 4.5879 0
M  V30 4704 H 439.668 3.6162 5.96554 0
M  V30 4705 H 435.565 2.38201 5.99942 0
M  V30 4706 H 436.333 4.17975 7.03732 0
M  V30 4707 N 438.996 -1.55193 0.274407 0
M  V30 4708 C 439.959 -2.212 -0.600279 0
M  V30 4709 C 440.959 -1.18963 -1.08187 0
M  V30 4710 O 442.149 -1.43873 -0.982158 0
M  V30 4711 C 439.281 -2.87739 -1.82809 0
M  V30 4712 H 440.474 -2.9989 -0.0239682 0
M  V30 4713 H 438.027 -1.5628 0.0250192 0
M  V30 4714 H 438.762 -2.13058 -2.44493 0
M  V30 4715 H 438.547 -3.62658 -1.49069 0
M  V30 4716 H 440.037 -3.38171 -2.45011 0
M  V30 4717 N 440.474 -0.00167713 -1.576 0
M  V30 4718 C 441.404 0.988091 -2.11563 0
M  V30 4719 C 442.385 1.35736 -1.02517 0
M  V30 4720 O 443.57 1.44082 -1.30208 0
M  V30 4721 C 440.7 2.27941 -2.62031 0
M  V30 4722 C 439.654 2.0517 -3.75619 0
M  V30 4723 C 438.98 3.4033 -4.12407 0
M  V30 4724 C 440.28 1.41294 -5.02825 0
M  V30 4725 H 441.974 0.538771 -2.94513 0
M  V30 4726 H 439.52 0.257712 -1.41675 0
M  V30 4727 H 441.473 2.97539 -2.9841 0
M  V30 4728 H 440.197 2.74989 -1.76205 0
M  V30 4729 H 438.856 1.37998 -3.39635 0
M  V30 4730 H 438.504 3.85085 -3.23603 0
M  V30 4731 H 438.204 3.25909 -4.88935 0
M  V30 4732 H 439.728 4.1124 -4.51347 0
M  V30 4733 H 441.142 2.00851 -5.36965 0
M  V30 4734 H 439.539 1.37356 -5.84169 0
M  V30 4735 H 440.609 0.382362 -4.8339 0
M  V30 4736 N 441.952 1.55251 0.271103 0
M  V30 4737 C 442.882 1.9127 1.33933 0
M  V30 4738 C 443.863 0.77478 1.5143 0
M  V30 4739 O 445.048 1.03307 1.64442 0
M  V30 4740 C 442.178 2.18627 2.69851 0
M  V30 4741 C 441.132 3.34442 2.67081 0
M  V30 4742 C 440.458 3.47284 4.06569 0
M  V30 4743 C 441.758 4.70784 2.26185 0
M  V30 4744 H 443.452 2.80744 1.04035 0
M  V30 4745 H 440.998 1.35077 0.499017 0
M  V30 4746 H 442.951 2.42413 3.44694 0
M  V30 4747 H 441.675 1.25955 3.01335 0
M  V30 4748 H 440.334 3.10627 1.94695 0
M  V30 4749 H 439.982 2.52074 4.35279 0
M  V30 4750 H 439.682 4.25152 4.0561 0
M  V30 4751 H 441.206 3.73363 4.83148 0
M  V30 4752 H 442.62 4.94102 2.90751 0
M  V30 4753 H 441.017 5.51582 2.36384 0
M  V30 4754 H 442.087 4.69478 1.21319 0
M  V30 4755 N 443.43 -0.535701 1.48216 0
M  V30 4756 C 444.378 -1.66179 1.62749 0
M  V30 4757 C 445.372 -1.62034 0.49409 0
M  V30 4758 O 446.578 -1.6696 0.672624 0
M  V30 4759 H 442.953 -0.550244 0.512578 0
M  V30 4760 H 444.924 -1.51063 2.57337 0
M  V30 4761 C 443.673 -3.04471 1.67907 0
M  V30 4762 H 442.996 -3.08351 2.54479 0
M  V30 4763 H 444.436 -3.82894 1.82121 0
M  V30 4764 C 442.895 -3.34314 0.416596 0
M  V30 4765 O 443.425 -3.98905 -0.473014 0
M  V30 4766 N 441.631 -2.89149 0.290038 0
M  V30 4767 H 441.178 -2.36764 1.01493 0
M  V30 4768 H 441.136 -3.09486 -0.55367 0
M  V30 4769 N 444.908 -1.36708 -0.784132 0
M  V30 4770 C 445.838 -1.34153 -1.91116 0
M  V30 4771 C 446.819 -0.212121 -1.68772 0
M  V30 4772 O 448.004 -0.410581 -1.8981 0
M  V30 4773 C 445.134 -1.13535 -3.28218 0
M  V30 4774 C 444.088 -2.23356 -3.65097 0
M  V30 4775 C 443.414 -1.87875 -5.00607 0
M  V30 4776 C 444.714 -3.65473 -3.73131 0
M  V30 4777 H 446.408 -2.28459 -1.93512 0
M  V30 4778 H 443.954 -1.09973 -0.929618 0
M  V30 4779 H 445.907 -1.10381 -4.06687 0
M  V30 4780 H 444.631 -0.156804 -3.26223 0
M  V30 4781 H 443.29 -2.25645 -2.88929 0
M  V30 4782 H 442.938 -0.885814 -4.95139 0
M  V30 4783 H 442.638 -2.61406 -5.26252 0
M  V30 4784 H 444.162 -1.86286 -5.81489 0
M  V30 4785 H 445.576 -3.65382 -4.41779 0
M  V30 4786 H 443.973 -4.37953 -4.10265 0
M  V30 4787 H 445.043 -3.99995 -2.74102 0
M  V30 4788 N 446.386 1.0089 -1.21074 0
M  V30 4789 C 447.616 1.77933 -1.04993 0
M  V30 4790 C 448.024 1.84847 0.403495 0
M  V30 4791 O 447.367 1.30606 1.29181 0
M  V30 4792 C 447.429 3.23541 -1.56722 0
M  V30 4793 C 447.093 3.40214 -3.05129 0
M  V30 4794 C 448.09 3.2881 -4.02716 0
M  V30 4795 C 445.775 3.65781 -3.44252 0
M  V30 4796 C 447.769 3.42732 -5.37414 0
M  V30 4797 C 445.456 3.79346 -4.79103 0
M  V30 4798 C 446.454 3.67827 -5.75493 0
M  V30 4799 O 446.142 3.80965 -7.07899 0
M  V30 4800 H 445.874 0.566157 -0.369381 0
M  V30 4801 H 448.428 1.27826 -1.60779 0
M  V30 4802 H 446.658 3.74766 -0.953285 0
M  V30 4803 H 448.347 3.82245 -1.36543 0
M  V30 4804 H 449.113 3.08986 -3.73835 0
M  V30 4805 H 444.992 3.73831 -2.69762 0
M  V30 4806 H 448.536 3.33658 -6.12632 0
M  V30 4807 H 444.433 3.98672 -5.07672 0
M  V30 4808 H 445.201 3.97937 -7.15254 0
M  V30 4809 N 447.864 1.01787 1.20321 0
M  V30 4810 C 448.774 0.598898 2.26827 0
M  V30 4811 C 449.79 -0.36418 1.70146 0
M  V30 4812 O 450.966 -0.224812 2.00141 0
M  V30 4813 C 448.031 -0.0549769 3.46656 0
M  V30 4814 C 447.092 0.954205 4.18561 0
M  V30 4815 C 446.325 0.331439 5.3267 0
M  V30 4816 O 446.548 -0.86851 5.63749 0
M  V30 4817 O 445.482 1.0488 5.92692 0
M  V30 4818 H 449.308 1.48562 2.64883 0
M  V30 4819 H 446.893 0.787434 1.26964 0
M  V30 4820 H 448.775 -0.420102 4.19301 0
M  V30 4821 H 447.45 -0.915876 3.10473 0
M  V30 4822 H 446.357 1.37072 3.48083 0
M  V30 4823 H 447.69 1.78511 4.58688 0
M  V30 4824 N 449.342 -1.36122 0.79427 0
M  V30 4825 C 450.292 -2.27373 0.169017 0
M  V30 4826 C 451.276 -1.4719 -0.649913 0
M  V30 4827 O 452.468 -1.69518 -0.50919 0
M  V30 4828 C 449.597 -3.36264 -0.691455 0
M  V30 4829 C 448.683 -4.2388 0.13653 0
M  V30 4830 N 449.074 -4.91519 1.19345 0
M  V30 4831 C 447.372 -4.45921 -0.0838499 0
M  V30 4832 C 448.073 -5.56369 1.6979 0
M  V30 4833 N 447.049 -5.34204 1.00634 0
M  V30 4834 H 450.851 -2.77154 0.977897 0
M  V30 4835 H 448.365 -1.49504 0.634208 0
M  V30 4836 H 450.362 -4.00572 -1.15534 0
M  V30 4837 H 449.022 -2.88037 -1.49883 0
M  V30 4838 H 450.033 -4.9334 1.57594 0
M  V30 4839 H 446.71 -4.08518 -0.861341 0
M  V30 4840 H 448.1 -6.20368 2.58055 0
M  V30 4841 N 450.82 -0.546701 -1.47814 0
M  V30 4842 C 451.77 0.227042 -2.26867 0
M  V30 4843 C 452.754 0.894844 -1.33721 0
M  V30 4844 O 453.946 0.794887 -1.58147 0
M  V30 4845 C 451.075 1.26299 -3.19223 0
M  V30 4846 C 450.161 0.59913 -4.19847 0
M  V30 4847 N 450.552 -0.324777 -5.04756 0
M  V30 4848 C 448.85 0.854331 -4.37741 0
M  V30 4849 C 449.551 -0.709386 -5.77358 0
M  V30 4850 N 448.527 -0.0666153 -5.43559 0
M  V30 4851 H 452.329 -0.483476 -2.89896 0
M  V30 4852 H 449.843 -0.365893 -1.58224 0
M  V30 4853 H 451.84 1.83116 -3.74532 0
M  V30 4854 H 450.5 1.97471 -2.57751 0
M  V30 4855 H 451.511 -0.698351 -5.1317 0
M  V30 4856 H 448.188 1.55536 -3.87447 0
M  V30 4857 H 449.578 -1.46796 -6.55668 0
M  V30 4858 N 452.299 1.55045 -0.282633 0
M  V30 4859 C 453.249 2.19514 0.616249 0
M  V30 4860 C 454.233 1.16216 1.11277 0
M  V30 4861 O 455.425 1.42004 1.05659 0
M  V30 4862 C 452.554 2.92548 1.7964 0
M  V30 4863 C 451.64 4.03142 1.31671 0
M  V30 4864 N 452.031 5.0276 0.553695 0
M  V30 4865 C 450.329 4.1635 1.59903 0
M  V30 4866 C 451.03 5.80923 0.30054 0
M  V30 4867 N 450.006 5.3651 0.875116 0
M  V30 4868 H 453.808 2.93889 0.0255363 0
M  V30 4869 H 451.322 1.62169 -0.0865362 0
M  V30 4870 H 453.319 3.37188 2.45173 0
M  V30 4871 H 451.979 2.19685 2.39099 0
M  V30 4872 H 452.99 5.17512 0.20032 0
M  V30 4873 H 449.667 3.54682 2.20243 0
M  V30 4874 H 451.057 6.7118 -0.311053 0
M  V30 4875 N 453.777 0.010035 1.57597 0
M  V30 4876 C 455.002 -0.687021 1.95691 0
M  V30 4877 C 455.427 -1.65952 0.885519 0
M  V30 4878 O 454.785 -1.80633 -0.15543 0
M  V30 4879 C 454.833 -1.3864 3.32884 0
M  V30 4880 O 453.937 -2.50115 3.27897 0
M  V30 4881 H 453.278 -0.181989 0.638573 0
M  V30 4882 H 455.808 0.0662122 2.04493 0
M  V30 4883 H 455.818 -1.74754 3.6868 0
M  V30 4884 H 454.493 -0.673411 4.10412 0
M  V30 4885 H 453.07 -2.16253 3.03791 0
M  V30 4886 N 455.255 -1.55392 -0.262866 0
M  V30 4887 C 456.218 -1.88181 -1.30846 0
M  V30 4888 C 457.218 -0.757079 -1.41862 0
M  V30 4889 O 458.408 -1.02519 -1.40838 0
M  V30 4890 C 455.54 -2.09609 -2.68844 0
M  V30 4891 H 456.733 -2.81659 -1.02997 0
M  V30 4892 H 454.286 -1.48039 -0.501414 0
M  V30 4893 H 455.021 -1.18547 -3.01856 0
M  V30 4894 H 454.806 -2.91508 -2.62231 0
M  V30 4895 H 456.296 -2.36215 -3.44372 0
M  V30 4896 N 456.733 0.527833 -1.48498 0
M  V30 4897 C 457.683 1.62844 -1.5958 0
M  V30 4898 C 458.667 1.54397 -0.452809 0
M  V30 4899 O 459.859 1.62381 -0.704364 0
M  V30 4900 C 456.988 3.01557 -1.64067 0
M  V30 4901 C 456.074 3.151 -2.83853 0
M  V30 4902 N 456.465 2.9861 -4.08247 0
M  V30 4903 C 454.763 3.46158 -2.8123 0
M  V30 4904 C 455.464 3.15626 -4.88626 0
M  V30 4905 N 454.44 3.43298 -4.21483 0
M  V30 4906 H 458.242 1.48708 -2.53502 0
M  V30 4907 H 455.756 0.733343 -1.44899 0
M  V30 4908 H 457.753 3.8062 -1.70101 0
M  V30 4909 H 456.413 3.16783 -0.712636 0
M  V30 4910 H 457.424 2.75329 -4.3865 0
M  V30 4911 H 454.101 3.67728 -1.97692 0
M  V30 4912 H 455.491 3.07596 -5.97356 0
M  V30 4913 N 458.211 1.37122 0.776871 0
M  V30 4914 C 459.141 1.35164 1.90402 0
M  V30 4915 C 460.122 0.221069 1.68657 0
M  V30 4916 O 461.307 0.420642 1.8959 0
M  V30 4917 C 458.437 1.15274 3.27611 0
M  V30 4918 C 457.391 2.25289 3.63908 0
M  V30 4919 C 456.717 1.90527 4.99603 0
M  V30 4920 C 458.017 3.67446 3.71188 0
M  V30 4921 H 459.711 2.29482 1.92297 0
M  V30 4922 H 457.257 1.10465 0.923773 0
M  V30 4923 H 459.21 1.12536 4.06096 0
M  V30 4924 H 457.934 0.174102 3.26136 0
M  V30 4925 H 456.593 2.27174 2.87728 0
M  V30 4926 H 456.241 0.91206 4.94662 0
M  V30 4927 H 455.941 2.64193 5.24858 0
M  V30 4928 H 457.465 1.89367 5.80493 0
M  V30 4929 H 458.879 3.67719 4.39836 0
M  V30 4930 H 457.276 4.40123 4.07936 0
M  V30 4931 H 458.346 4.01443 2.71977 0
M  V30 4932 N 459.689 -1.00246 1.21608 0
M  V30 4933 C 461.105 -1.26435 0.973975 0
M  V30 4934 C 461.305 -1.98642 -0.338143 0
M  V30 4935 O 460.361 -2.29026 -1.06317 0
M  V30 4936 C 461.674 -2.08551 2.16626 0
M  V30 4937 C 463.222 -2.21769 2.20879 0
M  V30 4938 C 463.697 -3.07267 3.39633 0
M  V30 4939 N 465.188 -3.14855 3.39736 0
M  V30 4940 C 465.923 -3.81274 4.28273 0
M  V30 4941 N 465.419 -4.497 5.27012 0
M  V30 4942 N 467.212 -3.7794 4.16074 0
M  V30 4943 H 459.363 -0.518089 2.05984 0
M  V30 4944 H 461.626 -0.291368 0.902113 0
M  V30 4945 H 461.332 -1.62847 3.11727 0
M  V30 4946 H 461.206 -3.09303 2.15897 0
M  V30 4947 H 463.593 -2.66691 1.26332 0
M  V30 4948 H 463.674 -1.20478 2.25652 0
M  V30 4949 H 463.318 -2.63047 4.34475 0
M  V30 4950 H 463.248 -4.08678 3.321 0
M  V30 4951 H 465.739 -2.66147 2.6828 0
M  V30 4952 H 466.052 -4.98092 5.90867 0
M  V30 4953 H 464.397 -4.48479 5.30935 0
M  V30 4954 H 467.588 -3.23638 3.38195 0
M  V30 4955 H 467.761 -4.29424 4.85282 0
M  V30 4956 N 461.167 -1.02423 -1.1978 0
M  V30 4957 C 462.099 -0.559152 -2.22275 0
M  V30 4958 C 463.112 0.36251 -1.58713 0
M  V30 4959 O 464.301 0.159641 -1.77785 0
M  V30 4960 C 461.401 0.205094 -3.38279 0
M  V30 4961 C 460.574 -0.720361 -4.31427 0
M  V30 4962 C 459.633 -0.00234368 -5.262 0
M  V30 4963 O 458.659 -0.627378 -5.65732 0
M  V30 4964 N 459.861 1.26996 -5.66438 0
M  V30 4965 H 462.626 -1.44064 -2.62804 0
M  V30 4966 H 460.187 -0.902692 -1.34399 0
M  V30 4967 H 462.179 0.694868 -3.9869 0
M  V30 4968 H 460.749 0.987947 -2.96578 0
M  V30 4969 H 459.969 -1.39031 -3.68869 0
M  V30 4970 H 461.257 -1.3495 -4.90577 0
M  V30 4971 H 460.655 1.79858 -5.36347 0
M  V30 4972 H 459.212 1.70432 -6.29123 0
M  V30 4973 N 462.645 1.35699 -0.801477 0
M  V30 4974 C 464.061 1.52065 -0.484596 0
M  V30 4975 C 464.261 1.75215 0.995084 0
M  V30 4976 O 463.317 1.79061 1.78026 0
M  V30 4977 C 464.63 2.69908 -1.32552 0
M  V30 4978 C 466.178 2.83784 -1.32044 0
M  V30 4979 C 466.653 4.04646 -2.14536 0
M  V30 4980 N 468.144 4.11814 -2.12046 0
M  V30 4981 C 468.879 5.04437 -2.72636 0
M  V30 4982 N 468.375 6.02426 -3.42133 0
M  V30 4983 N 470.168 4.97144 -2.62305 0
M  V30 4984 H 462.319 1.18928 -1.75983 0
M  V30 4985 H 464.582 0.581455 -0.748741 0
M  V30 4986 H 464.288 2.59363 -2.37537 0
M  V30 4987 H 464.162 3.64376 -0.975181 0
M  V30 4988 H 466.549 2.93783 -0.27846 0
M  V30 4989 H 466.63 1.90188 -1.71062 0
M  V30 4990 H 466.274 3.95407 -3.18772 0
M  V30 4991 H 466.204 4.97413 -1.72882 0
M  V30 4992 H 468.695 3.41664 -1.61476 0
M  V30 4993 H 469.008 6.69688 -3.85666 0
M  V30 4994 H 467.353 6.02615 -3.46237 0
M  V30 4995 H 470.544 4.19546 -2.07603 0
M  V30 4996 H 470.717 5.69138 -3.09815 0
M  V30 4997 N 464.123 0.554532 1.47522 0
M  V30 4998 C 465.086 -0.184174 2.28459 0
M  V30 4999 C 466.086 -0.845195 1.36796 0
M  V30 5000 O 467.276 -0.701467 1.59452 0
M  V30 5001 C 464.408 -1.26903 3.16399 0
M  V30 5002 H 465.601 0.526751 2.95238 0
M  V30 5003 H 463.154 0.311375 1.53167 0
M  V30 5004 H 463.889 -2.01244 2.54306 0
M  V30 5005 H 463.674 -0.799883 3.83854 0
M  V30 5006 H 465.164 -1.78794 3.77389 0
M  V30 5007 N 465.601 -1.54893 0.290851 0
M  V30 5008 C 466.847 -2.0023 -0.321867 0
M  V30 5009 C 467.18 -1.179 -1.54316 0
M  V30 5010 O 466.455 -0.25293 -1.92848 0
M  V30 5011 C 466.738 -3.53456 -0.688515 0
M  V30 5012 C 466.591 -4.46532 0.541209 0
M  V30 5013 C 467.91 -4.13057 -1.51895 0
M  V30 5014 H 465.029 -0.727891 -0.115515 0
M  V30 5015 H 467.671 -1.85722 0.400931 0
M  V30 5016 H 465.821 -3.6595 -1.30433 0
M  V30 5017 H 467.493 -4.4596 1.17973 0
M  V30 5018 H 465.736 -4.17545 1.17636 0
M  V30 5019 H 466.407 -5.51475 0.240675 0
M  V30 5020 H 468.883 -4.03937 -0.99872 0
M  V30 5021 H 467.759 -5.20448 -1.74429 0
M  V30 5022 H 468.02 -3.64284 -2.50498 0
M  V30 5023 N 467.08 -0.0183926 -1.57589 0
M  V30 5024 C 468.012 0.995557 -2.06449 0
M  V30 5025 C 469.025 1.29556 -0.985849 0
M  V30 5026 O 470.214 1.2621 -1.26227 0
M  V30 5027 C 467.314 2.32572 -2.46502 0
M  V30 5028 C 466.487 2.21245 -3.77319 0
M  V30 5029 C 465.546 3.37104 -4.04039 0
M  V30 5030 O 464.572 3.14468 -4.74445 0
M  V30 5031 N 465.774 4.60553 -3.53372 0
M  V30 5032 H 468.539 0.578746 -2.94059 0
M  V30 5033 H 466.1 0.168603 -1.6102 0
M  V30 5034 H 468.092 3.08887 -2.61478 0
M  V30 5035 H 466.662 2.65931 -1.64315 0
M  V30 5036 H 465.882 1.29723 -3.72244 0
M  V30 5037 H 467.17 2.10868 -4.63047 0
M  V30 5038 H 466.568 4.81839 -2.96391 0
M  V30 5039 H 465.125 5.34072 -3.73644 0
M  V30 5040 N 468.558 1.5553 0.254621 0
M  V30 5041 C 469.505 1.89666 1.31512 0
M  V30 5042 C 470.475 0.750057 1.482 0
M  V30 5043 O 471.66 1.00301 1.62309 0
M  V30 5044 C 468.8 2.19009 2.667 0
M  V30 5045 C 467.913 3.46435 2.58083 0
M  V30 5046 C 467.048 3.65386 3.85573 0
M  V30 5047 C 466.087 4.8644 3.71541 0
M  V30 5048 N 465.224 5.01952 4.90906 0
M  V30 5049 H 470.064 2.80109 1.017 0
M  V30 5050 H 467.601 1.38666 0.490938 0
M  V30 5051 H 469.559 2.34025 3.45381 0
M  V30 5052 H 468.189 1.31779 2.94676 0
M  V30 5053 H 467.241 3.39792 1.71013 0
M  V30 5054 H 468.553 4.35258 2.43622 0
M  V30 5055 H 467.707 3.80319 4.72697 0
M  V30 5056 H 466.446 2.74781 4.02922 0
M  V30 5057 H 465.451 4.71491 2.82801 0
M  V30 5058 H 466.676 5.78497 3.55694 0
M  V30 5059 H 464.622 4.14283 5.08631 0
M  V30 5060 H 464.539 5.84851 4.79046 0
M  V30 5061 H 465.807 5.21289 5.7955 0
M  V30 5062 N 470.036 -0.519951 1.48776 0
M  V30 5063 C 470.966 -1.63253 1.66945 0
M  V30 5064 C 471.947 -1.62014 0.518224 0
M  V30 5065 O 473.132 -1.79053 0.751919 0
M  V30 5066 C 470.262 -3.0181 1.71836 0
M  V30 5067 C 469.216 -3.17911 2.8656 0
M  V30 5068 C 468.542 -4.5763 2.76548 0
M  V30 5069 C 469.842 -2.99729 4.27738 0
M  V30 5070 H 471.536 -1.48302 2.6009 0
M  V30 5071 H 469.082 -0.712026 1.25165 0
M  V30 5072 H 471.035 -3.79525 1.83135 0
M  V30 5073 H 469.759 -3.17806 0.752775 0
M  V30 5074 H 468.418 -2.42616 2.74833 0
M  V30 5075 H 468.066 -4.70476 1.77937 0
M  V30 5076 H 467.766 -4.69346 3.53536 0
M  V30 5077 H 469.29 -5.37431 2.89828 0
M  V30 5078 H 470.704 -3.67228 4.40246 0
M  V30 5079 H 469.101 -3.22932 5.05801 0
M  V30 5080 H 470.171 -1.96047 4.43502 0
M  V30 5081 N 471.514 -1.37532 -0.769588 0
M  V30 5082 C 472.744 -1.35861 -1.55645 0
M  V30 5083 C 473.152 0.0574398 -1.89113 0
M  V30 5084 O 472.495 1.03021 -1.52093 0
M  V30 5085 C 472.557 -2.13431 -2.89288 0
M  V30 5086 C 472.221 -3.62378 -2.78444 0
M  V30 5087 C 473.218 -4.56215 -2.49326 0
M  V30 5088 C 470.903 -4.05529 -2.96398 0
M  V30 5089 C 472.897 -5.91181 -2.38294 0
M  V30 5090 C 470.584 -5.40579 -2.84987 0
M  V30 5091 C 471.582 -6.33218 -2.55975 0
M  V30 5092 O 471.27 -7.65787 -2.44594 0
M  V30 5093 H 471.002 -0.467001 -0.48876 0
M  V30 5094 H 473.556 -1.81505 -0.961515 0
M  V30 5095 H 471.786 -1.62481 -3.50909 0
M  V30 5096 H 473.475 -2.04368 -3.50697 0
M  V30 5097 H 474.241 -4.24187 -2.35139 0
M  V30 5098 H 470.12 -3.33781 -3.1798 0
M  V30 5099 H 473.664 -6.63457 -2.15571 0
M  V30 5100 H 469.561 -5.72209 -2.98743 0
M  V30 5101 H 470.329 -7.76132 -2.59927 0
M  V30 5102 N 472.992 0.995999 -1.22138 0
M  V30 5103 C 473.902 2.11985 -1.00496 0
M  V30 5104 C 474.918 1.7394 0.0457701 0
M  V30 5105 O 476.094 2.00868 -0.146273 0
M  V30 5106 C 473.159 3.41779 -0.582086 0
M  V30 5107 C 472.22 3.93943 -1.70608 0
M  V30 5108 C 471.453 5.17542 -1.30328 0
M  V30 5109 O 471.676 5.70114 -0.180743 0
M  V30 5110 O 470.61 5.63382 -2.11861 0
M  V30 5111 H 474.436 2.33123 -1.94647 0
M  V30 5112 H 472.021 1.10358 -1.00705 0
M  V30 5113 H 473.903 4.1989 -0.356467 0
M  V30 5114 H 472.578 3.22007 0.330592 0
M  V30 5115 H 471.485 3.17019 -1.98619 0
M  V30 5116 H 472.818 4.18141 -2.59651 0
M  V30 5117 N 474.47 1.03057 1.19235 0
M  V30 5118 C 475.42 0.583386 2.2041 0
M  V30 5119 C 476.404 -0.368776 1.56617 0
M  V30 5120 O 477.596 -0.189471 1.75983 0
M  V30 5121 C 474.725 -0.0626534 3.43243 0
M  V30 5122 C 473.811 0.91205 4.14177 0
M  V30 5123 N 474.202 2.07514 4.61272 0
M  V30 5124 C 472.5 0.735859 4.39888 0
M  V30 5125 C 473.201 2.69003 5.15764 0
M  V30 5126 N 472.177 1.96954 5.06666 0
M  V30 5127 H 475.979 1.46988 2.54503 0
M  V30 5128 H 473.493 0.897785 1.35328 0
M  V30 5129 H 475.49 -0.400653 4.1497 0
M  V30 5130 H 474.15 -0.944813 3.1065 0
M  V30 5131 H 475.161 2.45448 4.56043 0
M  V30 5132 H 471.838 -0.0970656 4.17387 0
M  V30 5133 H 473.228 3.67514 5.6248 0
M  V30 5134 N 475.948 -1.35272 0.808662 0
M  V30 5135 C 477.197 -1.97963 0.386483 0
M  V30 5136 C 477.51 -1.64866 -1.05255 0
M  V30 5137 O 478.716 -2.20937 -1.57794 0
M  V30 5138 C 477.172 -3.54162 0.640096 0
M  V30 5139 C 476.78 -3.96166 2.0918 0
M  V30 5140 C 478.524 -4.23553 0.283376 0
M  V30 5141 C 476.431 -5.4522 2.29106 0
M  V30 5142 H 475.361 -0.740742 0.140774 0
M  V30 5143 H 478.012 -1.5431 0.993012 0
M  V30 5144 H 476.394 -3.95983 -0.0364117 0
M  V30 5145 H 477.568 -3.65491 2.80629 0
M  V30 5146 H 475.883 -3.3967 2.40859 0
M  V30 5147 H 478.48 -5.33124 0.410273 0
M  V30 5148 H 478.823 -4.09105 -0.770659 0
M  V30 5149 H 479.356 -3.8716 0.913884 0
M  V30 5150 H 476.095 -5.64638 3.32962 0
M  V30 5151 H 475.615 -5.77457 1.62184 0
M  V30 5152 H 477.294 -6.1171 2.1076 0
M  V30 5153 N 477.426 -0.562348 -1.47226 0
M  V30 5154 C 478.672 -0.0402761 -2.0276 0
M  V30 5155 C 479.005 1.30823 -1.43523 0
M  V30 5156 O 478.28 1.85249 -0.592705 0
M  V30 5157 C 478.563 0.047311 -3.60069 0
M  V30 5158 C 478.416 -1.32865 -4.29729 0
M  V30 5159 C 479.735 0.758182 -4.3352 0
M  V30 5160 H 476.854 -0.0161105 -0.736824 0
M  V30 5161 H 479.496 -0.725628 -1.75598 0
M  V30 5162 H 477.646 0.630986 -3.83342 0
M  V30 5163 H 479.318 -1.95593 -4.17781 0
M  V30 5164 H 477.561 -1.90195 -3.89882 0
M  V30 5165 H 478.232 -1.22004 -5.38349 0
M  V30 5166 H 480.708 0.262546 -4.15271 0
M  V30 5167 H 479.584 0.78844 -5.43208 0
M  V30 5168 H 479.845 1.81537 -4.03109 0
M  V30 5169 N 478.904 1.54736 -0.299062 0
M  V30 5170 C 479.867 2.22127 0.565012 0
M  V30 5171 C 480.867 1.20669 1.06281 0
M  V30 5172 O 482.057 1.45417 0.959145 0
M  V30 5173 C 479.189 2.90611 1.78208 0
M  V30 5174 H 480.382 2.99891 -0.0237448 0
M  V30 5175 H 477.935 1.5622 -0.0498788 0
M  V30 5176 H 478.67 2.16921 2.41072 0
M  V30 5177 H 478.455 3.64984 1.43281 0
M  V30 5178 H 479.945 3.42026 2.396 0
M  V30 5179 N 480.382 0.0267497 1.57577 0
M  V30 5180 C 481.659 -0.690926 1.82991 0
M  V30 5181 C 482.039 -1.90471 0.910164 0
M  V30 5182 O 481.387 -2.28474 -0.0347985 0
M  V30 5183 C 481.597 -1.07139 3.32148 0
M  V30 5184 C 482.945 -1.46402 3.98562 0
M  V30 5185 O 483.969 -1.16443 3.36629 0
M  V30 5186 O 482.828 -2.02214 5.07712 0
M  V30 5187 H 479.922 -0.338747 0.75444 0
M  V30 5188 H 482.468 0.0542506 1.69613 0
M  V30 5189 H 481.24 -0.207394 3.9075 0
M  V30 5190 H 480.863 -1.87481 3.50623 0
M  V30 5191 N 481.861 -1.55662 -0.24637 0
M  V30 5192 C 483.138 -1.68272 -0.997198 0
M  V30 5193 C 483.518 -0.566785 -2.03349 0
M  V30 5194 O 482.866 0.429688 -2.24424 0
M  V30 5195 C 483.076 -3.08594 -1.63006 0
M  V30 5196 C 484.424 -3.6721 -2.13171 0
M  V30 5197 O 485.448 -3.11397 -1.72946 0
M  V30 5198 O 484.307 -4.65054 -2.87031 0
M  V30 5199 H 481.401 -0.684429 -0.464205 0
M  V30 5200 H 483.947 -1.67993 -0.240114 0
M  V30 5201 H 482.719 -3.81264 -0.880527 0
M  V30 5202 H 482.342 -3.12886 -2.45333 0
M  V30 5203 N 483.339 0.512053 -1.4905 0
M  V30 5204 C 484.755 0.84224 -1.35567 0
M  V30 5205 C 484.955 1.97878 -0.380319 0
M  V30 5206 O 484.011 2.51769 0.19201 0
M  V30 5207 C 485.324 1.19286 -2.76028 0
M  V30 5208 C 486.872 1.30171 -2.84648 0
M  V30 5209 C 487.347 1.68568 -4.25851 0
M  V30 5210 N 488.838 1.75638 -4.28609 0
M  V30 5211 C 489.573 2.06769 -5.34821 0
M  V30 5212 N 489.069 2.36201 -6.51292 0
M  V30 5213 N 490.862 2.07927 -5.22229 0
M  V30 5214 H 483.013 -0.237574 -2.11067 0
M  V30 5215 H 485.276 -0.0436747 -0.946993 0
M  V30 5216 H 484.982 0.431199 -3.49047 0
M  V30 5217 H 484.856 2.13889 -3.10695 0
M  V30 5218 H 487.243 2.05411 -2.11873 0
M  V30 5219 H 487.324 0.336457 -2.53578 0
M  V30 5220 H 486.968 0.938824 -4.99148 0
M  V30 5221 H 486.898 2.66174 -4.54377 0
M  V30 5222 H 489.389 1.55097 -3.44606 0
M  V30 5223 H 489.702 2.59112 -7.28066 0
M  V30 5224 H 488.047 2.33681 -6.54536 0
M  V30 5225 H 491.238 1.84403 -4.30248 0
M  V30 5226 H 491.411 2.31856 -6.05101 0
M  V30 5227 N 484.817 1.37938 0.762283 0
M  V30 5228 C 486.064 1.33668 1.52115 0
M  V30 5229 C 486.392 -0.0759538 1.94352 0
M  V30 5230 O 485.647 -1.05121 1.6507 0
M  V30 5231 C 485.946 2.23042 2.79261 0
M  V30 5232 C 485.612 3.71159 2.56031 0
M  V30 5233 C 484.274 4.11523 2.49404 0
M  V30 5234 C 486.626 4.64955 2.35513 0
M  V30 5235 C 483.954 5.43784 2.20263 0
M  V30 5236 C 486.306 5.97464 2.07894 0
M  V30 5237 C 484.97 6.36922 1.99718 0
M  V30 5238 H 484.24 0.489127 0.556629 0
M  V30 5239 H 486.887 1.70224 0.877262 0
M  V30 5240 H 485.192 1.79512 3.48256 0
M  V30 5241 H 486.889 2.17047 3.37182 0
M  V30 5242 H 483.479 3.39153 2.62056 0
M  V30 5243 H 487.663 4.34623 2.39617 0
M  V30 5244 H 482.919 5.73307 2.12435 0
M  V30 5245 H 487.093 6.6969 1.91019 0
M  V30 5246 H 484.72 7.39331 1.76902 0
M  V30 5247 N 486.295 -0.989507 1.22664 0
M  V30 5248 C 487.523 -1.76496 1.07967 0
M  V30 5249 C 487.938 -1.85148 -0.369543 0
M  V30 5250 O 487.295 -1.32408 -1.25596 0
M  V30 5251 C 487.346 -3.19642 1.68853 0
M  V30 5252 O 487.067 -3.11453 3.08105 0
M  V30 5253 C 488.568 -4.13621 1.59475 0
M  V30 5254 H 485.788 -0.55418 0.378319 0
M  V30 5255 H 488.332 -1.24378 1.62328 0
M  V30 5256 H 486.487 -3.68816 1.18547 0
M  V30 5257 H 486.901 -4.01499 3.37489 0
M  V30 5258 H 488.375 -5.11801 2.06795 0
M  V30 5259 H 488.852 -4.35718 0.55191 0
M  V30 5260 H 489.458 -3.70346 2.09103 0
M  V30 5261 N 487.773 -1.03688 -1.18687 0
M  V30 5262 C 488.72 -0.624624 -2.22187 0
M  V30 5263 C 489.69 0.365636 -1.62026 0
M  V30 5264 O 490.875 0.260481 -1.89014 0
M  V30 5265 C 488.015 0.0101738 -3.45099 0
M  V30 5266 C 487.128 -1.02709 -4.19613 0
M  V30 5267 C 486.263 -0.361213 -5.2997 0
M  V30 5268 C 485.302 -1.38384 -5.96252 0
M  V30 5269 N 484.439 -0.743196 -6.98155 0
M  V30 5270 H 489.279 -1.51176 -2.56807 0
M  V30 5271 H 486.816 -0.75636 -1.26165 0
M  V30 5272 H 488.774 0.395528 -4.15321 0
M  V30 5273 H 487.404 0.860848 -3.1111 0
M  V30 5274 H 486.456 -1.53043 -3.48256 0
M  V30 5275 H 487.768 -1.80398 -4.65036 0
M  V30 5276 H 486.922 0.0785537 -6.06649 0
M  V30 5277 H 485.661 0.447799 -4.8564 0
M  V30 5278 H 484.666 -1.83378 -5.18317 0
M  V30 5279 H 485.891 -2.19448 -6.42666 0
M  V30 5280 H 483.837 0.0455789 -6.55984 0
M  V30 5281 H 483.754 -1.45784 -7.41811 0
M  V30 5282 H 485.022 -0.327698 -7.78811 0
M  V30 5283 N 489.251 1.34841 -0.815825 0
M  V30 5284 C 490.476 2.03261 -0.41226 0
M  V30 5285 C 490.901 1.61055 0.971751 0
M  V30 5286 O 490.259 0.7917 1.63101 0
M  V30 5287 C 490.307 3.56914 -0.514289 0
M  V30 5288 O 489.411 4.09728 0.468675 0
M  V30 5289 H 488.752 0.641664 -0.170771 0
M  V30 5290 H 491.282 1.72241 -1.10427 0
M  V30 5291 H 491.292 4.06156 -0.387457 0
M  V30 5292 H 489.967 3.86982 -1.52375 0
M  V30 5293 H 488.544 3.71681 0.301316 0
M  V30 5294 N 490.729 0.570148 1.46925 0
M  V30 5295 C 491.978 0.0487352 2.01641 0
M  V30 5296 C 492.291 -1.31433 1.44861 0
M  V30 5297 O 493.497 -1.92638 1.91318 0
M  V30 5298 C 491.953 0.0365817 3.59881 0
M  V30 5299 C 491.561 1.39719 4.25655 0
M  V30 5300 C 493.305 -0.431545 4.22301 0
M  V30 5301 C 491.212 1.34345 5.75939 0
M  V30 5302 H 490.142 0.0144492 0.753862 0
M  V30 5303 H 492.793 0.719928 1.68788 0
M  V30 5304 H 491.175 -0.700522 3.89755 0
M  V30 5305 H 492.349 2.15303 4.07408 0
M  V30 5306 H 490.664 1.80431 3.75278 0
M  V30 5307 H 493.261 -0.490354 5.32447 0
M  V30 5308 H 493.604 -1.44638 3.90366 0
M  V30 5309 H 494.137 0.251102 3.97007 0
M  V30 5310 H 490.876 2.33469 6.12513 0
M  V30 5311 H 490.396 0.629615 5.96486 0
M  V30 5312 H 492.075 1.051 6.38407 0
M  V30 5313 N 492.207 -1.54576 0.307264 0
M  V30 5314 C 493.432 -2.05139 -0.305379 0
M  V30 5315 C 493.857 -1.18278 -1.46259 0
M  V30 5316 O 493.215 -0.188243 -1.8032 0
M  V30 5317 C 493.263 -3.53066 -0.733283 0
M  V30 5318 O 492.367 -3.69206 -1.83741 0
M  V30 5319 H 491.708 -0.661444 -0.0582105 0
M  V30 5320 H 494.238 -1.99569 0.450931 0
M  V30 5321 H 494.248 -3.95034 -1.02039 0
M  V30 5322 H 492.923 -4.15746 0.113198 0
M  V30 5323 H 491.5 -3.39143 -1.55037 0
M  V30 5324 N 493.685 -0.035106 -1.57561 0
M  V30 5325 C 494.934 0.641604 -1.91223 0
M  V30 5326 C 495.247 1.72944 -0.913761 0
M  V30 5327 O 496.453 2.46321 -1.14185 0
M  V30 5328 C 494.909 1.19249 -3.3957 0
M  V30 5329 C 494.517 0.137616 -4.47789 0
M  V30 5330 C 496.261 1.84537 -3.82291 0
M  V30 5331 C 494.168 0.700478 -5.87237 0
M  V30 5332 H 493.098 0.243417 -0.713627 0
M  V30 5333 H 495.749 -0.101382 -1.8322 0
M  V30 5334 H 494.131 1.98728 -3.42525 0
M  V30 5335 H 495.305 -0.635153 -4.56402 0
M  V30 5336 H 493.62 -0.416855 -4.14308 0
M  V30 5337 H 496.217 2.27616 -4.83834 0
M  V30 5338 H 496.56 2.69054 -3.17672 0
M  V30 5339 H 497.093 1.11739 -3.81784 0
M  V30 5340 H 493.832 -0.106693 -6.55413 0
M  V30 5341 H 493.352 1.4416 -5.82218 0
M  V30 5342 H 495.031 1.18837 -6.35993 0
M  V30 5343 N 495.163 1.55791 0.238111 0
M  V30 5344 C 496.411 1.77681 0.963001 0
M  V30 5345 C 496.732 0.600674 1.85518 0
M  V30 5346 O 496.002 -0.383182 1.92116 0
M  V30 5347 H 494.582 0.655315 0.358568 0
M  V30 5348 H 497.244 1.93239 0.253945 0
M  V30 5349 H 496.34 2.69177 1.57956 0
M  V30 5350 N 496.642 -0.504142 1.49319 0
M  V30 5351 C 498.053 -1.08572 1.51885 0
M  V30 5352 C 498.404 -1.93842 0.303255 0
M  V30 5353 O 497.529 -2.0828 -0.58724 0
M  V30 5354 C 498.124 -1.97574 2.75227 0
M  V30 5355 C 496.683 -2.509 2.80581 0
M  V30 5356 C 495.83 -1.28447 2.45757 0
M  V30 5357 H 498.781 -0.288194 1.56061 0
M  V30 5358 H 498.802 -2.82219 2.55211 0
M  V30 5359 H 498.314 -1.35486 3.63683 0
M  V30 5360 H 496.415 -3.16636 1.96398 0
M  V30 5361 H 496.528 -2.88268 3.82673 0
M  V30 5362 H 494.892 -1.60868 1.97468 0
M  V30 5363 H 495.675 -0.68072 3.36483 0
M  V30 5364 N 498.12 -1.38341 -0.754957 0
M  V30 5365 C 499.369 -1.33791 -1.5094 0
M  V30 5366 C 499.682 0.0699267 -1.95475 0
M  V30 5367 O 500.888 0.237956 -2.70455 0
M  V30 5368 C 499.344 -2.34934 -2.72643 0
M  V30 5369 C 498.952 -3.81332 -2.35138 0
M  V30 5370 C 500.696 -2.39425 -3.50536 0
M  V30 5371 C 498.603 -4.74164 -3.53444 0
M  V30 5372 H 497.533 -0.497314 -0.566741 0
M  V30 5373 H 500.184 -1.63888 -0.825403 0
M  V30 5374 H 498.566 -1.97878 -3.43017 0
M  V30 5375 H 499.74 -4.27319 -1.7244 0
M  V30 5376 H 498.055 -3.79946 -1.70382 0
M  V30 5377 H 500.652 -3.0598 -4.38498 0
M  V30 5378 H 500.995 -1.41278 -3.91594 0
M  V30 5379 H 501.528 -2.75274 -2.87174 0
M  V30 5380 H 498.267 -5.73501 -3.17453 0
M  V30 5381 H 497.787 -4.3287 -4.15191 0
M  V30 5382 H 499.466 -4.92111 -4.20043 0
M  V30 5383 N 499.598 0.982988 -1.23187 0
M  V30 5384 C 500.823 1.76455 -1.08988 0
M  V30 5385 C 501.248 1.84726 0.354691 0
M  V30 5386 O 500.606 1.30699 1.25649 0
M  V30 5387 C 500.654 3.17094 -1.71708 0
M  V30 5388 O 499.758 4.00648 -0.977477 0
M  V30 5389 H 499.099 0.542988 -0.382177 0
M  V30 5390 H 501.629 1.23413 -1.63188 0
M  V30 5391 H 501.639 3.67684 -1.76841 0
M  V30 5392 H 500.314 3.10389 -2.76823 0
M  V30 5393 H 498.891 3.59161 -1.0029 0
M  V30 5394 N 501.076 1.04316 1.18135 0
M  V30 5395 C 502.023 0.636398 2.21853 0
M  V30 5396 C 502.993 -0.357039 1.62217 0
M  V30 5397 O 504.178 -0.250453 1.89149 0
M  V30 5398 C 501.318 0.00812779 3.45099 0
M  V30 5399 C 500.431 1.04933 4.19062 0
M  V30 5400 C 499.566 0.389313 5.29771 0
M  V30 5401 C 498.605 1.41544 5.9551 0
M  V30 5402 N 497.742 0.78021 6.97751 0
M  V30 5403 H 502.582 1.52536 2.56002 0
M  V30 5404 H 500.119 0.76304 1.25762 0
M  V30 5405 H 502.077 -0.373497 4.15525 0
M  V30 5406 H 500.707 -0.844336 3.11562 0
M  V30 5407 H 499.759 1.54888 3.47439 0
M  V30 5408 H 501.071 1.82862 4.64072 0
M  V30 5409 H 500.225 -0.0463805 6.06682 0
M  V30 5410 H 498.964 -0.422038 4.8587 0
M  V30 5411 H 497.969 1.86124 5.17337 0
M  V30 5412 H 499.194 2.22854 6.41493 0
M  V30 5413 H 497.14 -0.0107899 6.55999 0
M  V30 5414 H 497.057 1.49716 7.41027 0
M  V30 5415 H 498.325 0.368996 7.78626 0
M  V30 5416 N 502.554 -1.34406 0.822964 0
M  V30 5417 C 503.782 -2.02508 0.424039 0
M  V30 5418 C 504.197 -1.61975 -0.970022 0
M  V30 5419 O 503.554 -0.825228 -1.62777 0
M  V30 5420 C 503.605 -3.57789 0.516657 0
M  V30 5421 O 503.326 -3.96853 1.85577 0
M  V30 5422 C 504.827 -4.43157 0.112637 0
M  V30 5423 H 502.047 -0.649063 0.170173 0
M  V30 5424 H 504.591 -1.7168 1.11113 0
M  V30 5425 H 502.746 -3.87207 -0.122353 0
M  V30 5426 H 503.16 -4.91538 1.83005 0
M  V30 5427 H 504.634 -5.51527 0.228526 0
M  V30 5428 H 505.111 -4.28939 -0.943837 0
M  V30 5429 H 505.717 -4.19067 0.725449 0
M  V30 5430 N 504.032 -0.577932 -1.46621 0
M  V30 5431 C 505.281 -0.0594281 -2.01612 0
M  V30 5432 C 505.594 1.30663 -1.45556 0
M  V30 5433 O 506.8 1.91621 -1.92337 0
M  V30 5434 C 505.256 -0.0556666 -3.59857 0
M  V30 5435 C 504.864 -1.41975 -4.24908 0
M  V30 5436 C 506.608 0.409143 -4.22524 0
M  V30 5437 C 504.515 -1.37397 -5.75218 0
M  V30 5438 H 503.445 -0.0184469 -0.753774 0
M  V30 5439 H 506.096 -0.728869 -1.68404 0
M  V30 5440 H 504.478 0.679843 -3.90121 0
M  V30 5441 H 505.652 -2.17461 -4.0626 0
M  V30 5442 H 503.967 -1.82419 -3.74316 0
M  V30 5443 H 506.564 0.46211 -5.32699 0
M  V30 5444 H 506.907 1.42565 -3.91128 0
M  V30 5445 H 507.44 -0.272152 -3.96868 0
M  V30 5446 H 504.179 -2.36714 -6.11267 0
M  V30 5447 H 503.699 -0.661239 -5.96144 0
M  V30 5448 H 505.378 -1.08484 -6.3784 0
M  V30 5449 N 505.51 1.54411 -0.315457 0
M  V30 5450 C 506.458 2.25514 0.569771 0
M  V30 5451 C 507.452 1.2663 1.12522 0
M  V30 5452 O 508.658 1.44434 1.07419 0
M  V30 5453 H 505.033 0.724257 0.202376 0
M  V30 5454 H 507.004 2.98354 -0.0522895 0
M  V30 5455 C 505.753 3.02004 1.72305 0
M  V30 5456 H 505.076 3.77906 1.30488 0
M  V30 5457 H 506.516 3.55014 2.31821 0
M  V30 5458 C 504.975 2.09822 2.63583 0
M  V30 5459 O 505.505 1.67574 3.65078 0
M  V30 5460 N 503.711 1.75478 2.31637 0
M  V30 5461 H 503.258 2.10032 1.49145 0
M  V30 5462 H 503.216 1.14079 2.92973 0
M  V30 5463 N 506.988 0.0434614 1.5754 0
M  V30 5464 C 507.921 -0.968729 2.06618 0
M  V30 5465 C 508.899 -1.30868 0.965 0
M  V30 5466 O 510.083 -1.42288 1.23638 0
M  V30 5467 C 507.21 -2.28486 2.50023 0
M  V30 5468 C 506.256 -2.09851 3.71302 0
M  V30 5469 S 507.089 -1.38401 5.17306 0
M  V30 5470 C 508.245 -2.71354 5.64019 0
M  V30 5471 H 508.478 -0.551021 2.92149 0
M  V30 5472 H 506.011 -0.168607 1.53477 0
M  V30 5473 H 507.969 -3.04142 2.75695 0
M  V30 5474 H 506.63 -2.67387 1.64812 0
M  V30 5475 H 505.823 -3.07184 3.99567 0
M  V30 5476 H 505.425 -1.42336 3.45856 0
M  V30 5477 H 507.717 -3.67549 5.69134 0
M  V30 5478 H 508.66 -2.47734 6.6335 0
M  V30 5479 H 509.068 -2.77259 4.91719 0
M  V30 5480 N 508.466 -1.55915 -0.229846 0
M  V30 5481 C 509.396 -1.94754 -1.28815 0
M  V30 5482 C 510.377 -0.814657 -1.49323 0
M  V30 5483 O 511.562 -1.07631 -1.61645 0
M  V30 5484 C 508.692 -2.25705 -2.63959 0
M  V30 5485 C 507.646 -3.41406 -2.5812 0
M  V30 5486 C 506.972 -3.57941 -3.97218 0
M  V30 5487 C 508.272 -4.76616 -2.13623 0
M  V30 5488 H 509.966 -2.83404 -0.965547 0
M  V30 5489 H 507.512 -1.36353 -0.463028 0
M  V30 5490 H 509.465 -2.51467 -3.38146 0
M  V30 5491 H 508.189 -1.339 -2.9789 0
M  V30 5492 H 506.848 -3.1568 -1.86391 0
M  V30 5493 H 506.496 -2.63526 -4.28443 0
M  V30 5494 H 506.196 -4.35757 -3.94195 0
M  V30 5495 H 507.72 -3.86042 -4.73079 0
M  V30 5496 H 509.134 -5.01637 -2.77549 0
M  V30 5497 H 507.531 -5.57655 -2.21677 0
M  V30 5498 H 508.601 -4.7253 -1.08829 0
M  V30 5499 N 509.944 0.496216 -1.49584 0
M  V30 5500 C 511.19 1.25189 -1.59548 0
M  V30 5501 C 511.523 1.9212 -0.283466 0
M  V30 5502 O 510.798 1.80947 0.713324 0
M  V30 5503 C 511.081 2.31516 -2.75812 0
M  V30 5504 C 510.934 1.69054 -4.16822 0
M  V30 5505 C 512.253 3.3304 -2.87702 0
M  V30 5506 H 509.372 0.45379 -0.580727 0
M  V30 5507 H 512.014 0.549327 -1.81886 0
M  V30 5508 H 510.164 2.91438 -2.56897 0
M  V30 5509 H 511.836 1.12923 -4.47265 0
M  V30 5510 H 510.079 0.994485 -4.22247 0
M  V30 5511 H 510.75 2.462 -4.94054 0
M  V30 5512 H 513.226 2.83114 -3.04936 0
M  V30 5513 H 512.102 4.04794 -3.7072 0
M  V30 5514 H 512.363 3.95655 -1.97255 0
M  V30 5515 N 511.423 1.38739 0.74761 0
M  V30 5516 C 512.839 1.20067 1.05148 0
M  V30 5517 C 513.039 0.0534835 2.01429 0
M  V30 5518 O 512.095 -0.59886 2.45296 0
M  V30 5519 C 513.408 2.52957 1.62584 0
M  V30 5520 C 514.956 2.59692 1.74726 0
M  V30 5521 C 515.431 3.92772 2.35573 0
M  V30 5522 N 516.922 3.94343 2.42997 0
M  V30 5523 C 517.657 4.9408 2.90985 0
M  V30 5524 N 517.153 6.04214 3.38965 0
M  V30 5525 N 518.946 4.81466 2.9008 0
M  V30 5526 H 511.097 2.12121 0.108808 0
M  V30 5527 H 513.36 0.941491 0.110899 0
M  V30 5528 H 513.066 3.37389 0.993051 0
M  V30 5529 H 512.94 2.71779 2.61565 0
M  V30 5530 H 515.327 1.75651 2.3713 0
M  V30 5531 H 515.408 2.44731 0.744326 0
M  V30 5532 H 515.052 4.77238 1.738 0
M  V30 5533 H 514.982 4.05046 3.36519 0
M  V30 5534 H 517.473 3.14799 2.0907 0
M  V30 5535 H 517.786 6.76241 3.74056 0
M  V30 5536 H 516.131 6.07825 3.37007 0
M  V30 5537 H 519.322 3.94535 2.51912 0
M  V30 5538 H 519.495 5.59344 3.27166 0
M  V30 5539 N 512.901 -0.976442 1.23707 0
M  V30 5540 C 514.147 -1.72158 1.08319 0
M  V30 5541 C 514.502 -1.88701 -0.375445 0
M  V30 5542 O 513.795 -1.43107 -1.274 0
M  V30 5543 C 513.989 -3.11814 1.74662 0
M  V30 5544 C 513.818 -3.08892 3.26827 0
M  V30 5545 C 512.588 -3.13861 3.96004 0
M  V30 5546 C 514.786 -2.9175 4.2354 0
M  V30 5547 N 512.768 -3.00867 5.35119 0
M  V30 5548 C 514.139 -2.8696 5.49595 0
M  V30 5549 C 516.194 -2.76265 4.14225 0
M  V30 5550 C 514.897 -2.68268 6.67401 0
M  V30 5551 C 516.923 -2.58938 5.317 0
M  V30 5552 C 516.285 -2.54849 6.56682 0
M  V30 5553 H 512.384 -0.638896 0.450927 0
M  V30 5554 H 514.968 -1.15835 1.56494 0
M  V30 5555 H 513.139 -3.66347 1.29014 0
M  V30 5556 H 514.871 -3.74984 1.52215 0
M  V30 5557 H 511.626 -3.22198 3.4711 0
M  V30 5558 H 512.05 -2.97634 6.08065 0
M  V30 5559 H 516.692 -2.78213 3.18366 0
M  V30 5560 H 514.41 -2.65063 7.63392 0
M  V30 5561 H 517.996 -2.47914 5.26336 0
M  V30 5562 H 516.876 -2.41611 7.46052 0
M  V30 5563 N 514.379 -1.04941 -1.1758 0
M  V30 5564 C 515.609 -0.777166 -1.91425 0
M  V30 5565 C 516.017 0.670647 -1.76915 0
M  V30 5566 O 515.36 1.46965 -1.10213 0
M  V30 5567 C 515.422 -1.07495 -3.43052 0
M  V30 5568 C 515.086 -2.51844 -3.81345 0
M  V30 5569 C 516.083 -3.50047 -3.844 0
M  V30 5570 C 513.768 -2.86787 -4.12382 0
M  V30 5571 C 515.762 -4.81239 -4.17957 0
M  V30 5572 C 513.449 -4.18182 -4.45608 0
M  V30 5573 C 514.447 -5.15219 -4.48373 0
M  V30 5574 O 514.135 -6.44258 -4.80819 0
M  V30 5575 H 513.867 -0.282209 -0.614275 0
M  V30 5576 H 516.421 -1.40258 -1.50056 0
M  V30 5577 H 514.651 -0.392437 -3.84704 0
M  V30 5578 H 516.34 -0.78912 -3.98155 0
M  V30 5579 H 517.106 -3.24391 -3.60548 0
M  V30 5580 H 512.985 -2.11922 -4.09402 0
M  V30 5581 H 516.529 -5.56974 -4.2003 0
M  V30 5582 H 512.426 -4.43602 -4.68922 0
M  V30 5583 H 513.194 -6.49041 -4.98686 0
M  V30 5584 N 515.857 1.33968 -0.830081 0
M  V30 5585 C 517.103 1.98357 -0.422191 0
M  V30 5586 C 517.436 1.65633 1.01387 0
M  V30 5587 O 516.711 0.931648 1.70735 0
M  V30 5588 C 516.994 3.54492 -0.633043 0
M  V30 5589 C 516.847 3.96934 -2.11574 0
M  V30 5590 C 518.166 4.40039 -0.0735584 0
M  V30 5591 H 515.285 0.720544 -0.154871 0
M  V30 5592 H 517.927 1.58749 -1.04397 0
M  V30 5593 H 516.077 3.88361 -0.103775 0
M  V30 5594 H 517.749 3.73363 -2.7092 0
M  V30 5595 H 515.992 3.46984 -2.60354 0
M  V30 5596 H 516.663 5.05651 -2.21406 0
M  V30 5597 H 519.139 4.12764 -0.52585 0
M  V30 5598 H 518.015 5.48327 -0.250841 0
M  V30 5599 H 518.276 4.30124 1.02202 0
M  V30 5600 N 517.335 0.585699 1.46312 0
M  V30 5601 C 518.612 0.00542031 1.95599 0
M  V30 5602 C 518.992 -1.45619 1.52834 0
M  V30 5603 O 518.34 -2.14759 0.780446 0
M  V30 5604 C 518.55 0.180601 3.48532 0
M  V30 5605 C 519.898 0.049979 4.24571 0
M  V30 5606 O 520.922 0.109589 3.56031 0
M  V30 5607 O 519.781 -0.0832226 5.46437 0
M  V30 5608 H 516.875 -0.0481281 0.825598 0
M  V30 5609 H 519.421 0.654227 1.56582 0
M  V30 5610 H 518.193 1.19657 3.72556 0
M  V30 5611 H 517.816 -0.504498 3.94386 0
M  V30 5612 N 518.813 -1.54241 0.323641 0
M  V30 5613 C 520.061 -2.00174 -0.278359 0
M  V30 5614 C 520.382 -1.2134 -1.52648 0
M  V30 5615 O 519.652 -0.315244 -1.93347 0
M  V30 5616 H 518.232 -0.739463 -0.105845 0
M  V30 5617 H 520.894 -1.89864 0.440204 0
M  V30 5618 H 519.99 -3.07486 -0.5347 0
M  V30 5619 N 520.291 -0.0518155 -1.57515 0
M  V30 5620 C 521.702 0.483787 -1.80323 0
M  V30 5621 C 522.053 1.70879 -0.964099 0
M  V30 5622 O 521.178 2.15643 -0.180872 0
M  V30 5623 C 521.773 0.884459 -3.27052 0
M  V30 5624 C 520.332 1.36504 -3.50776 0
M  V30 5625 C 519.479 0.340539 -2.75201 0
M  V30 5626 H 522.43 -0.277691 -1.56252 0
M  V30 5627 H 522.451 1.74733 -3.38007 0
M  V30 5628 H 521.963 -0.00731093 -3.88099 0
M  V30 5629 H 520.064 2.27598 -2.95009 0
M  V30 5630 H 520.177 1.35675 -4.59488 0
M  V30 5631 H 518.541 0.81356 -2.41357 0
M  V30 5632 H 519.324 -0.543156 -3.38976 0
M  V30 5633 N 521.769 1.56035 0.221574 0
M  V30 5634 C 522.732 1.91584 1.2581 0
M  V30 5635 C 523.732 0.794425 1.39805 0
M  V30 5636 O 524.922 1.06217 1.38071 0
M  V30 5637 C 522.054 2.16663 2.63192 0
M  V30 5638 H 523.247 2.8429 0.954935 0
M  V30 5639 H 520.8 1.49316 0.461988 0
M  V30 5640 H 521.535 1.26508 2.98607 0
M  V30 5641 H 521.32 2.98358 2.5441 0
M  V30 5642 H 522.81 2.45262 3.37988 0
M  V30 5643 N 523.247 -0.488276 1.49845 0
M  V30 5644 C 524.472 -1.26997 1.63971 0
M  V30 5645 C 524.897 -1.85427 0.315994 0
M  V30 5646 O 524.255 -1.66475 -0.718032 0
M  V30 5647 C 524.303 -2.36689 2.72049 0
M  V30 5648 O 523.407 -3.40882 2.32107 0
M  V30 5649 H 522.748 -0.374376 0.548396 0
M  V30 5650 H 525.278 -0.583104 1.96115 0
M  V30 5651 H 525.288 -2.82262 2.94605 0
M  V30 5652 H 523.963 -1.93529 3.68129 0
M  V30 5653 H 522.54 -3.01139 2.19931 0
M  V30 5654 N 524.725 -1.39134 -0.740242 0
M  V30 5655 C 525.953 -1.39334 -1.5295 0
M  V30 5656 C 526.368 0.0135008 -1.88795 0
M  V30 5657 O 525.725 0.983524 -1.5373 0
M  V30 5658 C 525.776 -2.2614 -2.82034 0
M  V30 5659 O 525.497 -3.61345 -2.47712 0
M  V30 5660 C 526.998 -2.34666 -3.76094 0
M  V30 5661 H 524.218 -0.476103 -0.472828 0
M  V30 5662 H 526.762 -1.82883 -0.9151 0
M  V30 5663 H 524.917 -1.86018 -3.39818 0
M  V30 5664 H 525.331 -4.07194 -3.30595 0
M  V30 5665 H 526.805 -2.99663 -4.63579 0
M  V30 5666 H 527.282 -1.36426 -4.17474 0
M  V30 5667 H 527.888 -2.75236 -3.2423 0
M  V30 5668 N 526.204 0.969867 -1.24223 0
M  V30 5669 C 527.167 2.04564 -1.03373 0
M  V30 5670 C 528.167 1.60798 0.00819206 0
M  V30 5671 O 529.357 1.72641 -0.232567 0
M  V30 5672 C 526.489 3.36163 -0.566343 0
M  V30 5673 H 527.682 2.24494 -1.98853 0
M  V30 5674 H 525.235 1.1448 -1.06415 0
M  V30 5675 H 525.97 3.21925 0.391751 0
M  V30 5676 H 525.755 3.69273 -1.31834 0
M  V30 5677 H 527.245 4.1526 -0.441435 0
M  V30 5678 N 527.682 1.05563 1.17022 0
M  V30 5679 C 528.929 0.767937 1.87374 0
M  V30 5680 C 529.257 -0.705224 1.81265 0
M  V30 5681 O 528.512 -1.5318 1.21796 0
M  V30 5682 C 528.811 1.19849 3.36706 0
M  V30 5683 C 528.477 2.6745 3.63017 0
M  V30 5684 C 527.139 3.0777 3.69907 0
M  V30 5685 C 529.491 3.62811 3.74189 0
M  V30 5686 C 526.819 4.42307 3.85463 0
M  V30 5687 C 529.171 4.97087 3.91264 0
M  V30 5688 C 527.835 5.37055 3.96394 0
M  V30 5689 H 527.105 0.281008 0.68565 0
M  V30 5690 H 529.752 1.32339 1.38415 0
M  V30 5691 H 528.057 0.562096 3.87747 0
M  V30 5692 H 529.754 0.953038 3.8951 0
M  V30 5693 H 526.344 2.35228 3.58282 0
M  V30 5694 H 530.528 3.32798 3.68183 0
M  V30 5695 H 525.784 4.72769 3.87684 0
M  V30 5696 H 529.958 5.70869 3.9885 0
M  V30 5697 H 527.585 6.41308 4.082 0
M  V30 5698 N 529.16 -1.33526 0.837174 0
M  V30 5699 C 530.092 -2.28077 0.226579 0
M  V30 5700 C 531.105 -1.51666 -0.591717 0
M  V30 5701 O 532.294 -1.73511 -0.419064 0
M  V30 5702 C 529.394 -3.31597 -0.69978 0
M  V30 5703 C 528.567 -4.37329 0.0788067 0
M  V30 5704 C 527.626 -5.20526 -0.770637 0
M  V30 5705 O 526.652 -5.68811 -0.210453 0
M  V30 5706 N 527.854 -5.41639 -2.08825 0
M  V30 5707 H 530.619 -2.81115 1.03897 0
M  V30 5708 H 528.18 -1.46201 0.695476 0
M  V30 5709 H 530.172 -3.84158 -1.27298 0
M  V30 5710 H 528.742 -2.78848 -1.41288 0
M  V30 5711 H 527.962 -3.8529 0.833381 0
M  V30 5712 H 529.25 -5.05079 0.614238 0
M  V30 5713 H 528.648 -5.04108 -2.56693 0
M  V30 5714 H 527.205 -5.97263 -2.60998 0
M  V30 5715 N 530.638 -0.59345 -1.46 0
M  V30 5716 C 531.548 0.135817 -2.34207 0
M  V30 5717 C 532.564 0.875008 -1.50398 0
M  V30 5718 O 533.74 0.835778 -1.83239 0
M  V30 5719 C 530.805 1.12977 -3.27776 0
M  V30 5720 C 529.866 0.394081 -4.27487 0
M  V30 5721 C 529.099 1.34068 -5.16586 0
M  V30 5722 O 529.322 2.5778 -5.08828 0
M  V30 5723 O 528.256 0.845426 -5.95933 0
M  V30 5724 H 532.082 -0.588691 -2.9794 0
M  V30 5725 H 529.667 -0.353784 -1.45151 0
M  V30 5726 H 531.549 1.70261 -3.85473 0
M  V30 5727 H 530.224 1.83556 -2.66625 0
M  V30 5728 H 529.131 -0.220869 -3.73447 0
M  V30 5729 H 530.464 -0.270939 -4.91454 0
M  V30 5730 N 532.116 1.54067 -0.331816 0
M  V30 5731 C 533.066 2.21363 0.546101 0
M  V30 5732 C 534.05 1.19698 1.07523 0
M  V30 5733 O 535.242 1.45293 1.01088 0
M  V30 5734 C 532.371 2.98115 1.70242 0
M  V30 5735 C 531.457 4.07127 1.18779 0
M  V30 5736 N 531.848 5.04267 0.393465 0
M  V30 5737 C 530.146 4.21226 1.46576 0
M  V30 5738 C 530.847 5.81585 0.115572 0
M  V30 5739 N 529.823 5.39022 0.703987 0
M  V30 5740 H 533.625 2.93821 -0.0679751 0
M  V30 5741 H 531.139 1.61812 -0.138085 0
M  V30 5742 H 533.136 3.44818 2.34321 0
M  V30 5743 H 531.796 2.27181 2.31989 0
M  V30 5744 H 532.807 5.17888 0.0355757 0
M  V30 5745 H 529.484 3.61509 2.08848 0
M  V30 5746 H 530.874 6.6985 -0.524426 0
M  V30 5747 N 533.594 0.0601682 1.57485 0
M  V30 5748 C 534.84 -0.612501 1.93329 0
M  V30 5749 C 535.173 -1.6996 0.939526 0
M  V30 5750 O 534.448 -1.94472 -0.0330957 0
M  V30 5751 C 534.731 -1.20025 3.39508 0
M  V30 5752 C 534.584 -0.12059 4.49638 0
M  V30 5753 C 535.903 -2.10923 3.86264 0
M  V30 5754 H 533.022 -0.221185 0.703027 0
M  V30 5755 H 535.664 0.123768 1.89596 0
M  V30 5756 H 533.814 -1.82774 3.42821 0
M  V30 5757 H 535.486 0.51185 4.58452 0
M  V30 5758 H 533.729 0.550251 4.30296 0
M  V30 5759 H 534.4 -0.572019 5.49028 0
M  V30 5760 H 536.876 -1.58124 3.84884 0
M  V30 5761 H 535.752 -2.48987 4.8918 0
M  V30 5762 H 536.013 -3.01292 3.23536 0
M  V30 5763 N 535.072 -1.5615 -0.213296 0
M  V30 5764 C 536.297 -1.83986 -0.957282 0
M  V30 5765 C 536.722 -0.641526 -1.76822 0
M  V30 5766 O 536.08 0.409722 -1.7661 0
M  V30 5767 C 536.128 -3.09889 -1.84393 0
M  V30 5768 O 535.232 -2.89163 -2.94038 0
M  V30 5769 H 534.573 -0.606357 -0.270605 0
M  V30 5770 H 537.103 -2.03369 -0.224111 0
M  V30 5771 H 537.113 -3.40209 -2.25215 0
M  V30 5772 H 535.788 -3.96735 -1.24795 0
M  V30 5773 H 534.365 -2.70097 -2.57103 0
M  V30 5774 N 536.55 0.480323 -1.50102 0
M  V30 5775 C 537.966 0.813295 -1.37323 0
M  V30 5776 C 538.166 1.97027 -0.422206 0
M  V30 5777 O 537.222 2.5212 0.138563 0
M  V30 5778 C 538.535 1.13404 -2.78496 0
M  V30 5779 C 540.083 1.24104 -2.87345 0
M  V30 5780 C 540.558 1.59497 -4.29331 0
M  V30 5781 N 542.049 1.66507 -4.32238 0
M  V30 5782 C 542.784 1.95378 -5.39087 0
M  V30 5783 N 542.28 2.22333 -6.56155 0
M  V30 5784 N 544.073 1.96803 -5.26522 0
M  V30 5785 H 536.224 -0.282291 -2.10516 0
M  V30 5786 H 538.487 -0.063752 -0.945854 0
M  V30 5787 H 538.193 0.357064 -3.49883 0
M  V30 5788 H 538.067 2.07251 -3.15162 0
M  V30 5789 H 540.454 2.00871 -2.16183 0
M  V30 5790 H 540.535 0.282593 -2.54234 0
M  V30 5791 H 540.179 0.832736 -5.01027 0
M  V30 5792 H 540.109 2.56477 -4.59921 0
M  V30 5793 H 542.6 1.47753 -3.47818 0
M  V30 5794 H 542.913 2.43611 -7.33399 0
M  V30 5795 H 541.258 2.19745 -6.59346 0
M  V30 5796 H 544.449 1.75235 -4.34062 0
M  V30 5797 H 544.622 2.18969 -6.09883 0
M  V30 5798 N 538.028 1.39524 0.732853 0
M  V30 5799 C 539.277 1.36175 1.48792 0
M  V30 5800 C 539.59 -0.0388195 1.95561 0
M  V30 5801 O 540.796 -0.194899 2.708 0
M  V30 5802 C 539.252 2.39242 2.68871 0
M  V30 5803 C 538.86 3.85024 2.29042 0
M  V30 5804 C 540.604 2.44972 3.46683 0
M  V30 5805 C 538.511 4.79727 3.45856 0
M  V30 5806 H 537.441 0.506267 0.558757 0
M  V30 5807 H 540.092 1.65181 0.799226 0
M  V30 5808 H 538.474 2.0331 3.39825 0
M  V30 5809 H 539.648 4.30008 1.6562 0
M  V30 5810 H 537.963 3.82609 1.64316 0
M  V30 5811 H 540.56 3.12918 4.33574 0
M  V30 5812 H 540.903 1.4749 3.89297 0
M  V30 5813 H 541.436 2.79808 2.82759 0
M  V30 5814 H 538.175 5.78479 3.08289 0
M  V30 5815 H 537.695 4.39421 4.08251 0
M  V30 5816 H 539.374 4.98731 4.12161 0
M  V30 5817 N 539.506 -0.963266 1.24736 0
M  V30 5818 C 540.917 -1.52145 1.08207 0
M  V30 5819 C 541.268 -1.93142 -0.345061 0
M  V30 5820 O 540.393 -1.77769 -1.23399 0
M  V30 5821 C 540.988 -2.76486 1.95808 0
M  V30 5822 C 539.547 -3.28646 1.8349 0
M  V30 5823 C 538.694 -2.01529 1.90476 0
M  V30 5824 H 541.645 -0.781083 1.38148 0
M  V30 5825 H 541.666 -3.49986 1.49297 0
M  V30 5826 H 541.178 -2.46617 2.99669 0
M  V30 5827 H 539.279 -3.63357 0.824787 0
M  V30 5828 H 539.392 -3.97246 2.67829 0
M  V30 5829 H 537.756 -2.16442 1.34258 0
M  V30 5830 H 538.539 -1.7402 2.95926 0
M  V30 5831 N 540.985 -1.06182 -1.16461 0
M  V30 5832 C 542.262 -0.691364 -1.82974 0
M  V30 5833 C 542.642 0.827377 -1.9421 0
M  V30 5834 O 541.99 1.73723 -1.48434 0
M  V30 5835 C 542.2 -1.39199 -3.20038 0
M  V30 5836 C 543.548 -1.53647 -3.95825 0
M  V30 5837 O 544.572 -1.35181 -3.29552 0
M  V30 5838 O 543.431 -1.83932 -5.14618 0
M  V30 5839 H 540.525 -0.244605 -0.789998 0
M  V30 5840 H 543.071 -1.16203 -1.23673 0
M  V30 5841 H 541.843 -2.42766 -3.06888 0
M  V30 5842 H 541.466 -0.911335 -3.87015 0
M  V30 5843 N 542.463 1.3308 -0.844243 0
M  V30 5844 C 543.693 2.01515 -0.455541 0
M  V30 5845 C 544.101 1.63655 0.949406 0
M  V30 5846 O 543.444 0.84848 1.62931 0
M  V30 5847 C 543.506 3.55967 -0.502801 0
M  V30 5848 C 543.17 4.17222 -1.86481 0
M  V30 5849 C 544.167 4.36205 -2.8288 0
M  V30 5850 C 541.852 4.53528 -2.15911 0
M  V30 5851 C 543.846 4.90649 -4.06869 0
M  V30 5852 C 541.533 5.07679 -3.40155 0
M  V30 5853 C 542.531 5.26186 -4.35451 0
M  V30 5854 O 542.219 5.79183 -5.57496 0
M  V30 5855 H 541.951 0.65199 -0.178565 0
M  V30 5856 H 544.505 1.70867 -1.1399 0
M  V30 5857 H 542.735 3.85965 0.23836 0
M  V30 5858 H 544.424 4.05688 -0.131169 0
M  V30 5859 H 545.19 4.085 -2.61444 0
M  V30 5860 H 541.069 4.38414 -1.42528 0
M  V30 5861 H 544.613 5.0501 -4.81259 0
M  V30 5862 H 540.51 5.34815 -3.61446 0
M  V30 5863 H 541.278 5.97591 -5.5931 0
M  V30 5864 N 543.941 0.601185 1.45683 0
M  V30 5865 C 544.871 -0.108824 2.33246 0
M  V30 5866 C 545.852 -0.865223 1.46451 0
M  V30 5867 O 547.037 -0.83704 1.75235 0
M  V30 5868 C 544.167 -1.11101 3.2905 0
M  V30 5869 C 543.121 -0.468244 4.25431 0
M  V30 5870 C 542.447 -1.57822 5.10878 0
M  V30 5871 C 543.747 0.606469 5.18767 0
M  V30 5872 H 545.441 0.622306 2.92861 0
M  V30 5873 H 542.987 0.300714 1.40825 0
M  V30 5874 H 544.94 -1.61622 3.89174 0
M  V30 5875 H 543.664 -1.87265 2.67581 0
M  V30 5876 H 542.323 0.0160484 3.66596 0
M  V30 5877 H 541.971 -2.32998 4.45781 0
M  V30 5878 H 541.671 -1.15369 5.76163 0
M  V30 5879 H 543.195 -2.08583 5.73869 0
M  V30 5880 H 544.609 0.185589 5.73 0
M  V30 5881 H 543.006 0.952381 5.92494 0
M  V30 5882 H 544.076 1.48559 4.61582 0
M  V30 5883 N 545.419 -1.53889 0.339982 0
M  V30 5884 C 546.665 -2.01849 -0.250694 0
M  V30 5885 C 547.02 -1.22356 -1.48482 0
M  V30 5886 O 546.313 -0.301906 -1.89206 0
M  V30 5887 C 546.507 -3.51968 -0.620735 0
M  V30 5888 C 546.336 -4.45996 0.575981 0
M  V30 5889 C 545.106 -4.93619 1.08019 0
M  V30 5890 C 547.304 -4.93923 1.43332 0
M  V30 5891 N 545.286 -5.7159 2.2396 0
M  V30 5892 C 546.657 -5.69982 2.43969 0
M  V30 5893 C 548.712 -4.76038 1.45918 0
M  V30 5894 C 547.415 -6.30057 3.47016 0
M  V30 5895 C 549.441 -5.36961 2.47845 0
M  V30 5896 C 548.803 -6.12884 3.47208 0
M  V30 5897 H 544.902 -0.780054 -0.0551368 0
M  V30 5898 H 547.486 -1.88722 0.478741 0
M  V30 5899 H 545.657 -3.65308 -1.31928 0
M  V30 5900 H 547.389 -3.86677 -1.19429 0
M  V30 5901 H 544.144 -4.69134 0.64884 0
M  V30 5902 H 544.568 -6.15247 2.82489 0
M  V30 5903 H 549.21 -4.16887 0.704608 0
M  V30 5904 H 546.928 -6.88319 4.23371 0
M  V30 5905 H 550.514 -5.2503 2.50668 0
M  V30 5906 H 549.394 -6.59187 4.24785 0
M  V30 5907 N 546.897 -0.0685191 -1.57451 0
M  V30 5908 C 547.83 0.935736 -2.08133 0
M  V30 5909 C 548.808 1.29317 -0.985698 0
M  V30 5910 O 549.992 1.40304 -1.25886 0
M  V30 5911 C 547.119 2.2448 -2.53627 0
M  V30 5912 C 546.165 2.03917 -3.74593 0
M  V30 5913 S 546.998 1.30154 -5.19442 0
M  V30 5914 C 548.154 2.62346 -5.68265 0
M  V30 5915 H 548.387 0.504473 -2.92989 0
M  V30 5916 H 545.92 0.144169 -1.53725 0
M  V30 5917 H 547.878 2.99718 -2.80499 0
M  V30 5918 H 546.539 2.64731 -1.69045 0
M  V30 5919 H 545.732 3.00788 -4.04404 0
M  V30 5920 H 545.334 1.36815 -3.48077 0
M  V30 5921 H 547.626 3.58448 -5.7491 0
M  V30 5922 H 548.569 2.3715 -6.67207 0
M  V30 5923 H 548.977 2.69401 -4.96068 0
M  V30 5924 N 548.375 1.56261 0.205012 0
M  V30 5925 C 549.623 1.79684 0.925096 0
M  V30 5926 C 549.944 0.63989 1.84202 0
M  V30 5927 O 549.214 -0.342345 1.92885 0
M  V30 5928 H 547.794 0.662774 0.344587 0
M  V30 5929 H 550.456 1.93734 0.212899 0
M  V30 5930 H 549.552 2.72467 1.52211 0
M  V30 5931 N 549.853 -0.472356 1.50355 0
M  V30 5932 C 550.783 -1.57859 1.72055 0
M  V30 5933 C 551.764 -1.60283 0.569505 0
M  V30 5934 O 552.949 -1.7657 0.808503 0
M  V30 5935 C 550.079 -2.96191 1.81351 0
M  V30 5936 C 549.033 -3.08633 2.96529 0
M  V30 5937 C 548.359 -4.486 2.90968 0
M  V30 5938 C 549.659 -2.85969 4.37057 0
M  V30 5939 H 551.353 -1.39953 2.64676 0
M  V30 5940 H 548.899 -0.671846 1.27367 0
M  V30 5941 H 550.852 -3.73507 1.95117 0
M  V30 5942 H 549.576 -3.15251 0.853502 0
M  V30 5943 H 548.235 -2.33749 2.82413 0
M  V30 5944 H 547.883 -4.64577 1.92815 0
M  V30 5945 H 547.583 -4.57861 3.68289 0
M  V30 5946 H 549.107 -5.27938 3.0678 0
M  V30 5947 H 550.521 -3.53036 4.51706 0
M  V30 5948 H 548.918 -3.06677 5.15819 0
M  V30 5949 H 549.988 -1.81838 4.49514 0
M  V30 5950 N 551.331 -1.39911 -0.725443 0
M  V30 5951 C 552.608 -1.28158 -1.47766 0
M  V30 5952 C 552.988 0.104545 -2.10841 0
M  V30 5953 O 552.336 1.11657 -1.99361 0
M  V30 5954 C 552.546 -2.41306 -2.52135 0
M  V30 5955 C 553.894 -2.81076 -3.18247 0
M  V30 5956 O 554.918 -2.40827 -2.62452 0
M  V30 5957 O 553.777 -3.50581 -4.19231 0
M  V30 5958 H 550.871 -0.502761 -0.656628 0
M  V30 5959 H 553.417 -1.51808 -0.758456 0
M  V30 5960 H 552.189 -3.33932 -2.03974 0
M  V30 5961 H 551.812 -2.19374 -3.31603 0
M  V30 5962 N 552.809 0.956637 -1.25245 0
M  V30 5963 C 554.057 1.69764 -1.09657 0
M  V30 5964 C 554.378 1.91583 0.363464 0
M  V30 5965 O 553.648 1.50149 1.25825 0
M  V30 5966 H 552.228 0.629097 -0.402798 0
M  V30 5967 H 554.89 1.15026 -1.57337 0
M  V30 5968 H 553.986 2.67769 -1.60331 0
M  V30 5969 N 554.287 1.06798 1.15896 0
M  V30 5970 C 555.22 0.627503 2.19403 0
M  V30 5971 C 556.198 -0.352352 1.58736 0
M  V30 5972 O 557.382 -0.260111 1.86697 0
M  V30 5973 C 554.509 -0.079356 3.38607 0
M  V30 5974 C 553.555 0.858057 4.17779 0
M  V30 5975 S 554.388 2.35605 4.80885 0
M  V30 5976 C 555.544 1.66083 6.03463 0
M  V30 5977 H 555.777 1.50441 2.56427 0
M  V30 5978 H 553.31 0.881427 1.26768 0
M  V30 5979 H 555.268 -0.48095 4.07673 0
M  V30 5980 H 553.929 -0.932524 2.99938 0
M  V30 5981 H 553.122 0.310108 5.03045 0
M  V30 5982 H 552.724 1.19977 3.54234 0
M  V30 5983 H 555.016 0.969337 6.7053 0
M  V30 5984 H 555.959 2.49159 6.62816 0
M  V30 5985 H 556.367 1.14122 5.52844 0
M  V30 5986 N 555.766 -1.3263 0.851289 0
M  V30 5987 C 556.713 -2.28952 0.291469 0
M  V30 5988 C 557.683 -1.54897 -0.599676 0
M  V30 5989 O 558.868 -1.83137 -0.535305 0
M  V30 5990 C 556.008 -3.41206 -0.516992 0
M  V30 5991 C 555.121 -4.30148 0.399566 0
M  V30 5992 C 554.256 -5.29527 -0.4212 0
M  V30 5993 C 553.295 -6.10112 0.492969 0
M  V30 5994 N 552.432 -7.01499 -0.290414 0
M  V30 5995 H 557.272 -2.76228 1.11813 0
M  V30 5996 H 554.809 -1.35907 0.562826 0
M  V30 5997 H 556.767 -4.05005 -1.00132 0
M  V30 5998 H 555.397 -2.9509 -1.30851 0
M  V30 5999 H 554.449 -3.66959 1.00227 0
M  V30 6000 H 555.761 -4.8649 1.1013 0
M  V30 6001 H 554.915 -5.98914 -0.968832 0
M  V30 6002 H 553.654 -4.73794 -1.15632 0
M  V30 6003 H 552.659 -5.39632 1.05251 0
M  V30 6004 H 553.884 -6.6793 1.22664 0
M  V30 6005 H 551.83 -6.48199 -1.00868 0
M  V30 6006 H 551.747 -7.55178 0.352354 0
M  V30 6007 H 553.015 -7.75176 -0.819882 0
M  V30 6008 N 557.244 -0.608902 -1.45362 0
M  V30 6009 C 558.177 0.158059 -2.27652 0
M  V30 6010 C 559.155 0.872397 -1.37215 0
M  V30 6011 O 560.339 0.881002 -1.66645 0
M  V30 6012 C 557.466 1.22896 -3.15617 0
M  V30 6013 C 556.512 0.617607 -4.22005 0
M  V30 6014 S 557.345 -0.575518 -5.32398 0
M  V30 6015 C 558.501 0.495938 -6.23932 0
M  V30 6016 H 558.734 -0.540095 -2.92353 0
M  V30 6017 H 556.267 -0.396456 -1.49223 0
M  V30 6018 H 558.225 1.84195 -3.66855 0
M  V30 6019 H 556.886 1.89919 -2.50179 0
M  V30 6020 H 556.079 1.42341 -4.83482 0
M  V30 6021 H 555.681 0.0797273 -3.73915 0
M  V30 6022 H 557.973 1.37465 -6.63408 0
M  V30 6023 H 558.916 -0.0827108 -7.08052 0
M  V30 6024 H 559.324 0.811856 -5.58631 0
M  V30 6025 N 558.722 1.53707 -0.348139 0
M  V30 6026 C 559.654 2.22725 0.540946 0
M  V30 6027 C 560.667 1.2354 1.06027 0
M  V30 6028 O 561.856 1.49867 0.96964 0
M  V30 6029 C 558.956 2.89756 1.75768 0
M  V30 6030 C 558.129 4.15297 1.37285 0
M  V30 6031 C 557.188 4.65697 2.44976 0
M  V30 6032 O 556.214 5.29798 2.08092 0
M  V30 6033 N 557.416 4.42017 3.763 0
M  V30 6034 H 560.181 2.99658 -0.0501592 0
M  V30 6035 H 557.742 1.60979 -0.17248 0
M  V30 6036 H 559.734 3.20388 2.47252 0
M  V30 6037 H 558.304 2.16382 2.25605 0
M  V30 6038 H 557.524 3.9116 0.488584 0
M  V30 6039 H 558.812 4.96948 1.09179 0
M  V30 6040 H 558.21 3.9076 4.09051 0
M  V30 6041 H 556.767 4.77242 4.4394 0
M  V30 6042 N 560.2 0.0768682 1.57412 0
M  V30 6043 C 561.448 -0.589918 1.93299 0
M  V30 6044 C 561.769 -1.69842 0.958049 0
M  V30 6045 O 561.039 -1.95899 0.00703261 0
M  V30 6046 H 559.619 -0.220901 0.713591 0
M  V30 6047 H 562.281 0.135917 1.94425 0
M  V30 6048 H 561.377 -1.01195 2.95239 0
M  V30 6049 N 561.678 -1.56367 -0.196722 0
M  V30 6050 C 562.906 -1.84639 -0.933608 0
M  V30 6051 C 563.321 -0.659164 -1.76919 0
M  V30 6052 O 562.678 0.372142 -1.78665 0
M  V30 6053 C 562.729 -3.11694 -1.83109 0
M  V30 6054 O 562.45 -4.25838 -1.02924 0
M  V30 6055 C 563.951 -3.53132 -2.67979 0
M  V30 6056 H 561.171 -0.613188 -0.272473 0
M  V30 6057 H 563.715 -2.03475 -0.204465 0
M  V30 6058 H 561.87 -2.94759 -2.51387 0
M  V30 6059 H 562.284 -4.98178 -1.64069 0
M  V30 6060 H 563.758 -4.45005 -3.26611 0
M  V30 6061 H 564.235 -2.76045 -3.41608 0
M  V30 6062 H 564.841 -3.72592 -2.05074 0
M  V30 6063 N 563.156 0.464375 -1.50603 0
M  V30 6064 C 564.104 1.58224 -1.70493 0
M  V30 6065 C 565.098 1.59492 -0.570836 0
M  V30 6066 O 566.304 1.63561 -0.751517 0
M  V30 6067 H 562.679 0.525161 -0.538247 0
M  V30 6068 H 564.65 1.38613 -2.64252 0
M  V30 6069 C 563.399 2.96113 -1.82243 0
M  V30 6070 H 562.722 2.95858 -2.68901 0
M  V30 6071 H 564.162 3.73769 -2.00182 0
M  V30 6072 C 562.621 3.31946 -0.575628 0
M  V30 6073 O 563.151 4.00708 0.282152 0
M  V30 6074 N 561.357 2.87436 -0.427665 0
M  V30 6075 H 560.904 2.31652 -1.12674 0
M  V30 6076 H 560.862 3.11776 0.405379 0
M  V30 6077 N 564.634 1.40294 0.718013 0
M  V30 6078 C 565.882 1.38167 1.47494 0
M  V30 6079 C 566.203 -0.01607 1.94993 0
M  V30 6080 O 565.473 -0.970396 1.70177 0
M  V30 6081 H 564.053 0.508505 0.547203 0
M  V30 6082 H 566.715 1.75324 0.851322 0
M  V30 6083 H 565.811 2.05503 2.34894 0
M  V30 6084 N 566.112 -0.949982 1.2575 0
M  V30 6085 C 567.337 -1.73503 1.13628 0
M  V30 6086 C 567.762 -1.85601 -0.30559 0
M  V30 6087 O 567.12 -1.33984 -1.22139 0
M  V30 6088 C 567.168 -3.1243 1.80055 0
M  V30 6089 O 566.272 -3.97916 1.08336 0
M  V30 6090 H 565.613 -0.532665 0.396439 0
M  V30 6091 H 568.143 -1.19043 1.66403 0
M  V30 6092 H 568.153 -3.62866 1.86527 0
M  V30 6093 H 566.828 -3.02941 2.84956 0
M  V30 6094 H 565.405 -3.56375 1.09777 0
M  V30 6095 N 567.59 -1.07411 -1.15328 0
M  V30 6096 C 568.522 -0.652924 -2.19703 0
M  V30 6097 C 569.535 0.294869 -1.60107 0
M  V30 6098 O 570.724 0.0840932 -1.78302 0
M  V30 6099 C 567.824 0.061434 -3.38844 0
M  V30 6100 C 566.997 -0.902696 -4.27984 0
M  V30 6101 C 566.056 -0.225521 -5.25717 0
M  V30 6102 O 565.082 -0.86676 -5.62562 0
M  V30 6103 N 566.284 1.02858 -5.71315 0
M  V30 6104 H 569.049 -1.55081 -2.56457 0
M  V30 6105 H 566.61 -0.958883 -1.30449 0
M  V30 6106 H 568.602 0.525145 -4.01278 0
M  V30 6107 H 567.172 0.861269 -3.00501 0
M  V30 6108 H 566.392 -1.54551 -3.6264 0
M  V30 6109 H 567.68 -1.55636 -4.84412 0
M  V30 6110 H 567.078 1.56948 -5.43492 0
M  V30 6111 H 565.635 1.43596 -6.35786 0
M  V30 6112 N 569.068 1.32177 -0.85831 0
M  V30 6113 C 570.317 1.96392 -0.459689 0
M  V30 6114 C 570.63 1.68659 0.990632 0
M  V30 6115 O 571.836 2.26641 1.49485 0
M  V30 6116 C 570.292 3.51542 -0.7711 0
M  V30 6117 C 569.9 3.8813 -2.2374 0
M  V30 6118 C 571.644 4.2221 -0.44038 0
M  V30 6119 C 569.551 5.36341 -2.49183 0
M  V30 6120 H 568.481 0.735007 -0.168169 0
M  V30 6121 H 571.132 1.50518 -1.0496 0
M  V30 6122 H 569.514 3.95846 -0.11058 0
M  V30 6123 H 570.688 3.54824 -2.94001 0
M  V30 6124 H 569.003 3.30497 -2.533 0
M  V30 6125 H 571.6 5.31234 -0.607855 0
M  V30 6126 H 571.943 4.11683 0.618291 0
M  V30 6127 H 572.476 3.83502 -1.05695 0
M  V30 6128 H 569.215 5.51892 -3.53689 0
M  V30 6129 H 568.735 5.7104 -1.83504 0
M  V30 6130 H 570.414 6.03466 -2.33318 0
M  V30 6131 N 570.547 0.616602 1.45037 0
M  V30 6132 C 571.793 0.123965 2.03022 0
M  V30 6133 C 572.148 -1.23508 1.47525 0
M  V30 6134 O 571.441 -1.80453 0.643981 0
M  V30 6135 C 571.635 0.0356829 3.57382 0
M  V30 6136 C 571.464 1.38462 4.27853 0
M  V30 6137 C 570.234 1.96766 4.65415 0
M  V30 6138 C 572.432 2.31536 4.59234 0
M  V30 6139 N 570.414 3.25046 5.20786 0
M  V30 6140 C 571.785 3.4442 5.15533 0
M  V30 6141 C 573.84 2.30796 4.41178 0
M  V30 6142 C 572.543 4.56742 5.55679 0
M  V30 6143 C 574.569 3.42171 4.82362 0
M  V30 6144 C 573.931 4.53778 5.38762 0
M  V30 6145 H 570.03 0.0889428 0.776925 0
M  V30 6146 H 572.614 0.816925 1.76733 0
M  V30 6147 H 570.785 -0.62652 3.83314 0
M  V30 6148 H 572.517 -0.464443 4.02026 0
M  V30 6149 H 569.272 1.4987 4.49261 0
M  V30 6150 H 569.696 3.90592 5.52962 0
M  V30 6151 H 574.338 1.45765 3.96878 0
M  V30 6152 H 572.056 5.42491 5.9894 0
M  V30 6153 H 575.642 3.42757 4.70116 0
M  V30 6154 H 574.522 5.38536 5.70043 0
M  V30 6155 N 572.025 -1.5352 0.356285 0
M  V30 6156 C 573.302 -1.93405 -0.292223 0
M  V30 6157 C 573.682 -1.28901 -1.67176 0
M  V30 6158 O 573.03 -0.444632 -2.24132 0
M  V30 6159 C 573.24 -3.47223 -0.35175 0
M  V30 6160 C 574.588 -4.20389 -0.596534 0
M  V30 6161 O 575.612 -3.53554 -0.433344 0
M  V30 6162 O 574.471 -5.3881 -0.913589 0
M  V30 6163 H 571.565 -0.808666 -0.173172 0
M  V30 6164 H 574.111 -1.64713 0.408391 0
M  V30 6165 H 572.883 -3.86423 0.615841 0
M  V30 6166 H 572.506 -3.8212 -1.09864 0
M  V30 6167 N 573.503 -0.0852151 -1.57369 0
M  V30 6168 C 574.731 0.58946 -1.98325 0
M  V30 6169 C 575.146 1.62333 -0.96403 0
M  V30 6170 O 574.503 1.82438 0.0476395 0
M  V30 6171 C 574.554 1.24604 -3.39347 0
M  V30 6172 O 574.275 0.253532 -4.37366 0
M  V30 6173 C 575.776 2.00726 -3.95252 0
M  V30 6174 H 572.996 0.158783 -0.651942 0
M  V30 6175 H 575.54 -0.161584 -2.03861 0
M  V30 6176 H 573.695 1.94808 -3.34856 0
M  V30 6177 H 574.109 0.726207 -5.19448 0
M  V30 6178 H 575.583 2.42039 -4.96106 0
M  V30 6179 H 576.06 2.86919 -3.32527 0
M  V30 6180 H 576.666 1.3536 -4.03185 0
M  V30 6181 N 574.981 1.5647 0.188427 0
M  V30 6182 C 575.944 1.9421 1.21718 0
M  V30 6183 C 576.944 0.823901 1.38089 0
M  V30 6184 O 578.134 1.09122 1.35787 0
M  V30 6185 C 575.266 2.22197 2.58537 0
M  V30 6186 H 576.459 2.86252 0.894418 0
M  V30 6187 H 574.012 1.50263 0.430211 0
M  V30 6188 H 574.747 1.32814 2.95856 0
M  V30 6189 H 574.532 3.03688 2.48025 0
M  V30 6190 H 576.022 2.52376 3.3271 0
M  V30 6191 N 576.459 -0.456382 1.50847 0
M  V30 6192 C 577.706 -1.20736 1.62571 0
M  V30 6193 C 578.034 -1.9163 0.332904 0
M  V30 6194 O 577.289 -1.8343 -0.682058 0
M  V30 6195 C 577.588 -2.26336 2.76599 0
M  V30 6196 C 577.254 -1.7259 4.16562 0
M  V30 6197 C 575.916 -1.57654 4.54641 0
M  V30 6198 C 578.268 -1.32877 5.03977 0
M  V30 6199 C 575.596 -1.0145 5.77862 0
M  V30 6200 C 577.948 -0.7811 6.27759 0
M  V30 6201 C 576.612 -0.618488 6.64628 0
M  V30 6202 H 575.882 -0.441803 0.594888 0
M  V30 6203 H 578.529 -0.501169 1.84826 0
M  V30 6204 H 576.834 -3.0292 2.48489 0
M  V30 6205 H 578.531 -2.84227 2.82871 0
M  V30 6206 H 575.121 -1.85187 3.86528 0
M  V30 6207 H 579.305 -1.43245 4.75179 0
M  V30 6208 H 574.561 -0.876109 6.0509 0
M  V30 6209 H 578.735 -0.464783 6.94847 0
M  V30 6210 H 576.362 -0.180838 7.59985 0
M  V30 6211 N 577.937 -1.40673 -0.710563 0
M  V30 6212 C 578.9 -1.4108 -1.80635 0
M  V30 6213 C 579.9 -0.303783 -1.57904 0
M  V30 6214 O 581.09 -0.562937 -1.64853 0
M  V30 6215 C 578.222 -1.20748 -3.18799 0
M  V30 6216 H 579.415 -2.38612 -1.81671 0
M  V30 6217 H 576.968 -1.26595 -0.916704 0
M  V30 6218 H 577.703 -0.239964 -3.23411 0
M  V30 6219 H 577.488 -2.00941 -3.36698 0
M  V30 6220 H 578.978 -1.23833 -3.98817 0
M  V30 6221 N 579.415 0.9433 -1.26252 0
M  V30 6222 C 580.664 1.68369 -1.11062 0
M  V30 6223 C 580.977 1.92514 0.346104 0
M  V30 6224 O 582.183 2.64358 0.618646 0
M  V30 6225 C 580.639 3.03171 -1.93946 0
M  V30 6226 C 580.247 2.86782 -3.4418 0
M  V30 6227 C 581.991 3.80916 -1.87359 0
M  V30 6228 C 579.898 4.17044 -4.19319 0
M  V30 6229 H 578.828 0.631469 -0.412023 0
M  V30 6230 H 581.479 1.04922 -1.50544 0
M  V30 6231 H 579.861 3.67587 -1.47296 0
M  V30 6232 H 581.035 2.31229 -3.98585 0
M  V30 6233 H 579.35 2.22482 -3.51981 0
M  V30 6234 H 581.947 4.77417 -2.40784 0
M  V30 6235 H 582.29 4.07658 -0.843857 0
M  V30 6236 H 582.823 3.2327 -2.31821 0
M  V30 6237 H 579.562 3.95487 -5.22753 0
M  V30 6238 H 579.082 4.72319 -3.69696 0
M  V30 6239 H 580.761 4.85513 -4.27651 0
M  V30 6240 N 580.893 1.08022 1.14757 0
M  V30 6241 C 581.825 0.664566 2.19354 0
M  V30 6242 C 582.838 -0.286374 1.60261 0
M  V30 6243 O 584.027 -0.0746362 1.78344 0
M  V30 6244 C 581.127 -0.0434634 3.38872 0
M  V30 6245 C 580.3 0.925381 4.27499 0
M  V30 6246 C 579.359 0.253398 5.2559 0
M  V30 6247 O 578.385 0.896581 5.62094 0
M  V30 6248 N 579.587 -0.998263 5.71852 0
M  V30 6249 H 582.352 1.56438 2.55631 0
M  V30 6250 H 579.913 0.965788 1.29939 0
M  V30 6251 H 581.905 -0.503857 4.01551 0
M  V30 6252 H 580.475 -0.845321 3.00954 0
M  V30 6253 H 579.695 1.56472 3.61815 0
M  V30 6254 H 580.983 1.58203 4.8358 0
M  V30 6255 H 580.381 -1.54063 5.44317 0
M  V30 6256 H 578.938 -1.40222 6.36538 0
M  V30 6257 N 582.371 -1.3172 0.865308 0
M  V30 6258 C 583.334 -2.26918 0.322627 0
M  V30 6259 C 584.334 -1.52031 -0.523751 0
M  V30 6260 O 585.524 -1.70973 -0.333727 0
M  V30 6261 C 582.656 -3.36558 -0.542338 0
M  V30 6262 H 583.849 -2.76432 1.16298 0
M  V30 6263 H 581.402 -1.42573 0.640512 0
M  V30 6264 H 582.137 -2.92329 -1.40407 0
M  V30 6265 H 581.922 -3.92048 0.0636395 0
M  V30 6266 H 583.412 -4.07465 -0.91446 0
M  V30 6267 N 583.85 -0.624285 -1.44708 0
M  V30 6268 C 584.779 0.0717025 -2.3339 0
M  V30 6269 C 585.76 0.841814 -1.47809 0
M  V30 6270 O 586.946 0.809056 -1.76544 0
M  V30 6271 C 584.076 1.05852 -3.30776 0
M  V30 6272 C 583.029 0.400503 -4.26122 0
M  V30 6273 C 582.356 1.49674 -5.13324 0
M  V30 6274 C 583.656 -0.688924 -5.17737 0
M  V30 6275 H 585.35 -0.668819 -2.91834 0
M  V30 6276 H 582.896 -0.32308 -1.40329 0
M  V30 6277 H 584.849 1.5541 -3.91696 0
M  V30 6278 H 583.572 1.82984 -2.70526 0
M  V30 6279 H 582.231 -0.0743687 -3.66525 0
M  V30 6280 H 581.88 2.25877 -4.49431 0
M  V30 6281 H 581.58 1.06188 -5.77926 0
M  V30 6282 H 583.104 1.99427 -5.77115 0
M  V30 6283 H 584.518 -0.276724 -5.72632 0
M  V30 6284 H 582.915 -1.04652 -5.90904 0
M  V30 6285 H 583.985 -1.55884 -4.5916 0
M  V30 6286 N 585.328 1.53329 -0.364422 0
M  V30 6287 C 586.258 2.28627 0.474543 0
M  V30 6288 C 587.239 1.31009 1.08492 0
M  V30 6289 O 588.424 1.59878 1.10239 0
M  V30 6290 C 585.554 3.07465 1.61501 0
M  V30 6291 C 584.508 4.1276 1.13194 0
M  V30 6292 C 583.834 4.79674 2.36255 0
M  V30 6293 C 585.134 5.21847 0.217507 0
M  V30 6294 H 586.828 2.99005 -0.153656 0
M  V30 6295 H 584.374 1.43803 -0.0753406 0
M  V30 6296 H 586.327 3.58889 2.20855 0
M  V30 6297 H 585.051 2.34775 2.27042 0
M  V30 6298 H 583.71 3.62281 0.56109 0
M  V30 6299 H 583.358 4.03557 3.00251 0
M  V30 6300 H 583.058 5.50827 2.04606 0
M  V30 6301 H 584.582 5.33892 2.96297 0
M  V30 6302 H 585.996 5.6878 0.718493 0
M  V30 6303 H 584.393 6.00099 -0.00806408 0
M  V30 6304 H 585.463 4.7921 -0.740653 0
M  V30 6305 N 586.806 0.0935595 1.57322 0
M  V30 6306 C 587.716 -0.880192 2.17462 0
M  V30 6307 C 588.732 -1.31135 1.14366 0
M  V30 6308 O 589.908 -1.37958 1.46729 0
M  V30 6309 C 586.973 -2.12184 2.74188 0
M  V30 6310 C 586.034 -1.74503 3.92234 0
M  V30 6311 C 585.267 -2.92748 4.46245 0
M  V30 6312 O 585.49 -4.07427 3.99198 0
M  V30 6313 O 584.424 -2.71303 5.37288 0
M  V30 6314 H 588.25 -0.398516 3.01074 0
M  V30 6315 H 585.835 -0.130707 1.48827 0
M  V30 6316 H 587.717 -2.84953 3.10451 0
M  V30 6317 H 586.392 -2.59407 1.93623 0
M  V30 6318 H 585.299 -0.989186 3.60785 0
M  V30 6319 H 586.632 -1.32044 4.74157 0
M  V30 6320 N 588.284 -1.56567 -0.180126 0
M  V30 6321 C 589.247 -1.94852 -1.20686 0
M  V30 6322 C 590.247 -0.831212 -1.3765 0
M  V30 6323 O 591.437 -1.09841 -1.35206 0
M  V30 6324 C 588.569 -2.23565 -2.57355 0
M  V30 6325 H 589.762 -2.86722 -0.879225 0
M  V30 6326 H 587.315 -1.50489 -0.422237 0
M  V30 6327 H 588.05 -1.34381 -2.95148 0
M  V30 6328 H 587.835 -3.04999 -2.46411 0
M  V30 6329 H 589.325 -2.54137 -3.31367 0
M  V30 6330 N 589.762 0.448376 -1.51087 0
M  V30 6331 C 591.01 1.19635 -1.62886 0
M  V30 6332 C 591.331 1.91977 -0.342024 0
M  V30 6333 O 590.601 1.85094 0.641636 0
M  V30 6334 H 589.181 0.444598 -0.600285 0
M  V30 6335 H 591.843 0.515138 -1.87969 0
M  V30 6336 H 590.939 1.93194 -2.45117 0
M  V30 6337 N 591.24 1.41047 0.703093 0
M  V30 6338 C 592.488 1.39723 1.4602 0
M  V30 6339 C 592.809 0.00461257 1.94999 0
M  V30 6340 O 592.079 -0.952292 1.71196 0
M  V30 6341 H 590.659 0.514281 0.541779 0
M  V30 6342 H 593.321 1.76217 0.832678 0
M  V30 6343 H 592.417 2.07982 2.32701 0
M  V30 6344 N 592.718 -0.936591 1.26751 0
M  V30 6345 C 593.668 -2.0219 1.05371 0
M  V30 6346 C 594.652 -1.60893 -0.0154112 0
M  V30 6347 O 595.844 -1.75843 0.202085 0
M  V30 6348 C 592.973 -3.36222 0.693541 0
M  V30 6349 C 592.059 -3.8399 1.80035 0
M  V30 6350 N 592.45 -4.0436 3.03852 0
M  V30 6351 C 590.748 -4.12945 1.685 0
M  V30 6352 C 591.449 -4.44 3.75818 0
M  V30 6353 N 590.425 -4.50966 3.03531 0
M  V30 6354 H 594.227 -2.15958 1.99347 0
M  V30 6355 H 591.741 -1.12277 1.17335 0
M  V30 6356 H 593.738 -4.13625 0.521513 0
M  V30 6357 H 592.398 -3.23821 -0.238693 0
M  V30 6358 H 593.409 -3.9092 3.39709 0
M  V30 6359 H 590.086 -4.09308 0.822986 0
M  V30 6360 H 591.476 -4.67914 4.82189 0
M  V30 6361 N 594.196 -1.08629 -1.14182 0
M  V30 6362 C 595.146 -0.687882 -2.17376 0
M  V30 6363 C 596.13 0.293632 -1.58198 0
M  V30 6364 O 597.322 0.105292 -1.76687 0
M  V30 6365 C 594.451 -0.101184 -3.43151 0
M  V30 6366 C 593.537 -1.10862 -4.09354 0
M  V30 6367 N 593.928 -2.29285 -4.50846 0
M  V30 6368 C 592.226 -0.944897 -4.35876 0
M  V30 6369 C 592.927 -2.93305 -5.02342 0
M  V30 6370 N 591.903 -2.20903 -4.96692 0
M  V30 6371 H 595.705 -1.58963 -2.472 0
M  V30 6372 H 593.219 -0.961329 -1.3089 0
M  V30 6373 H 595.216 0.202209 -4.16409 0
M  V30 6374 H 593.876 0.795522 -3.14804 0
M  V30 6375 H 594.887 -2.66927 -4.43813 0
M  V30 6376 H 591.564 -0.102186 -4.17375 0
M  V30 6377 H 592.954 -3.93932 -5.44304 0
M  V30 6378 N 595.674 1.31259 -0.872281 0
M  V30 6379 C 597.09 1.49283 -0.564521 0
M  V30 6380 C 597.29 1.80243 0.900807 0
M  V30 6381 O 596.346 1.88246 1.68284 0
M  V30 6382 C 597.659 2.62503 -1.46673 0
M  V30 6383 C 599.207 2.76386 -1.46901 0
M  V30 6384 C 599.682 3.92705 -2.35684 0
M  V30 6385 N 601.173 3.99995 -2.33577 0
M  V30 6386 C 601.908 4.89276 -2.98992 0
M  V30 6387 N 601.404 5.83443 -3.73585 0
M  V30 6388 N 603.197 4.82541 -2.88289 0
M  V30 6389 H 595.348 1.09432 -1.82039 0
M  V30 6390 H 597.611 0.540949 -0.77851 0
M  V30 6391 H 597.317 2.46407 -2.50951 0
M  V30 6392 H 597.191 3.58695 -1.16696 0
M  V30 6393 H 599.578 2.91894 -0.433796 0
M  V30 6394 H 599.659 1.80853 -1.80903 0
M  V30 6395 H 599.303 3.77954 -3.39283 0
M  V30 6396 H 599.233 4.87549 -1.99006 0
M  V30 6397 H 601.724 3.32624 -1.7936 0
M  V30 6398 H 602.037 6.48303 -4.20622 0
M  V30 6399 H 600.382 5.83415 -3.77694 0
M  V30 6400 H 603.573 4.07951 -2.2955 0
M  V30 6401 H 603.746 5.51916 -3.39549 0
M  V30 6402 N 597.152 0.631951 1.44375 0
M  V30 6403 C 598.563 0.219036 1.85411 0
M  V30 6404 C 598.914 -1.22974 1.52879 0
M  V30 6405 O 598.039 -1.93579 0.967266 0
M  V30 6406 C 598.634 0.39075 3.36539 0
M  V30 6407 C 597.193 0.0323351 3.76386 0
M  V30 6408 C 596.34 0.703744 2.68221 0
M  V30 6409 H 599.291 0.837056 1.3483 0
M  V30 6410 H 599.312 -0.370056 3.78696 0
M  V30 6411 H 598.824 1.44527 3.60185 0
M  V30 6412 H 596.925 -1.02042 3.58355 0
M  V30 6413 H 597.038 0.442969 4.77048 0
M  V30 6414 H 595.402 0.138974 2.54321 0
M  V30 6415 H 596.185 1.76088 2.947 0
M  V30 6416 N 598.631 -1.53133 0.372548 0
M  V30 6417 C 599.541 -2.29671 -0.478379 0
M  V30 6418 C 600.557 -1.35913 -1.08644 0
M  V30 6419 O 601.733 -1.68975 -1.09588 0
M  V30 6420 C 598.798 -3.07625 -1.599 0
M  V30 6421 C 597.859 -4.17061 -1.01776 0
M  V30 6422 C 597.092 -4.91289 -2.08497 0
M  V30 6423 O 597.315 -4.65442 -3.29727 0
M  V30 6424 O 596.249 -5.7705 -1.71164 0
M  V30 6425 H 600.075 -3.03355 0.144649 0
M  V30 6426 H 597.66 -1.48773 0.136729 0
M  V30 6427 H 599.542 -3.56281 -2.25038 0
M  V30 6428 H 598.217 -2.3677 -2.2073 0
M  V30 6429 H 597.124 -3.72641 -0.330098 0
M  V30 6430 H 598.457 -4.90102 -0.453915 0
M  V30 6431 N 600.109 -0.101901 -1.5727 0
M  V30 6432 C 601.356 0.560197 -1.94597 0
M  V30 6433 C 601.684 1.67767 -0.984101 0
M  V30 6434 O 600.939 1.95699 -0.00489193 0
M  V30 6435 C 601.238 1.14898 -3.38427 0
M  V30 6436 C 600.904 0.154613 -4.50635 0
M  V30 6437 C 599.566 -0.118861 -4.81053 0
M  V30 6438 C 601.918 -0.523979 -5.18559 0
M  V30 6439 C 599.246 -1.0775 -5.76721 0
M  V30 6440 C 601.598 -1.47114 -6.15256 0
M  V30 6441 C 600.262 -1.75278 -6.44076 0
M  V30 6442 H 599.532 0.204991 -0.712081 0
M  V30 6443 H 602.179 -0.17918 -1.9066 0
M  V30 6444 H 600.484 1.96476 -3.38976 0
M  V30 6445 H 602.181 1.66909 -3.64613 0
M  V30 6446 H 598.771 0.377948 -4.2693 0
M  V30 6447 H 602.955 -0.325851 -4.95229 0
M  V30 6448 H 598.211 -1.30263 -5.97362 0
M  V30 6449 H 602.385 -2.00274 -6.66981 0
M  V30 6450 H 600.012 -2.49717 -7.18015 0
M  V30 6451 N 601.587 1.56661 0.17182 0
M  V30 6452 C 602.812 1.86459 0.908165 0
M  V30 6453 C 603.237 0.688181 1.75059 0
M  V30 6454 O 602.595 -0.362753 1.77634 0
M  V30 6455 C 602.643 3.14669 1.76112 0
M  V30 6456 O 601.747 2.96858 2.86268 0
M  V30 6457 H 601.088 0.613318 0.254434 0
M  V30 6458 H 603.618 2.03892 0.170113 0
M  V30 6459 H 603.628 3.46061 2.16115 0
M  V30 6460 H 602.303 3.99905 1.14233 0
M  V30 6461 H 600.88 2.76819 2.49852 0
M  V30 6462 N 603.065 -0.440357 1.51323 0
M  V30 6463 C 604.29 -1.21716 1.67928 0
M  V30 6464 C 604.715 -1.84328 0.374826 0
M  V30 6465 O 604.073 -1.68675 -0.664706 0
M  V30 6466 C 604.121 -2.27914 2.79442 0
M  V30 6467 O 603.225 -3.33325 2.42834 0
M  V30 6468 H 602.566 -0.35674 0.560029 0
M  V30 6469 H 605.096 -0.520417 1.97871 0
M  V30 6470 H 605.106 -2.72746 3.03436 0
M  V30 6471 H 603.781 -1.8172 3.741 0
M  V30 6472 H 602.358 -2.9399 2.294 0
M  V30 6473 N 604.543 -1.41418 -0.695603 0
M  V30 6474 C 605.783 -1.42241 -1.46788 0
M  V30 6475 C 606.147 -0.0300827 -1.91976 0
M  V30 6476 O 607.348 0.0868914 -2.6866 0
M  V30 6477 C 605.619 -2.4011 -2.6473 0
M  V30 6478 S 607.178 -2.59462 -3.53871 0
M  V30 6479 H 603.996 -0.503893 -0.50161 0
M  V30 6480 H 606.598 -1.77855 -0.811654 0
M  V30 6481 H 605.302 -3.40073 -2.29736 0
M  V30 6482 H 604.833 -2.05849 -3.35246 0
M  V30 6483 H 606.848 -1.862 -4.59939 0
M  V30 6484 N 606.021 0.929856 -1.27246 0
M  V30 6485 C 606.951 2.04722 -1.12299 0
M  V30 6486 C 607.932 1.70082 -0.0250464 0
M  V30 6487 O 609.117 1.93176 -0.199141 0
M  V30 6488 C 606.247 3.38721 -0.767145 0
M  V30 6489 C 605.201 3.87466 -1.81808 0
M  V30 6490 C 604.527 5.18246 -1.31626 0
M  V30 6491 C 605.827 4.11095 -3.22177 0
M  V30 6492 H 607.521 2.17485 -2.05769 0
M  V30 6493 H 605.067 1.04503 -0.990715 0
M  V30 6494 H 607.02 4.16366 -0.649413 0
M  V30 6495 H 605.744 3.25967 0.203259 0
M  V30 6496 H 604.403 3.12012 -1.92468 0
M  V30 6497 H 604.051 5.01881 -0.335378 0
M  V30 6498 H 603.751 5.51829 -2.01887 0
M  V30 6499 H 605.275 5.98462 -1.21143 0
M  V30 6500 H 606.689 4.79316 -3.1453 0
M  V30 6501 H 605.086 4.55982 -3.90129 0
M  V30 6502 H 606.156 3.16468 -3.67391 0
M  V30 6503 N 607.499 1.09233 1.13605 0
M  V30 6504 C 608.431 0.687794 2.18637 0
M  V30 6505 C 609.444 -0.26936 1.60556 0
M  V30 6506 O 610.633 -0.0557162 1.78413 0
M  V30 6507 C 607.733 -0.00751901 3.38899 0
M  V30 6508 C 606.906 0.97067 4.26494 0
M  V30 6509 C 605.965 0.309129 5.25291 0
M  V30 6510 O 604.991 0.956149 5.61112 0
M  V30 6511 N 606.193 -0.937555 5.72879 0
M  V30 6512 H 608.958 1.59141 2.53957 0
M  V30 6513 H 606.519 0.979515 1.28907 0
M  V30 6514 H 608.511 -0.461238 4.02063 0
M  V30 6515 H 607.081 -0.813353 3.01833 0
M  V30 6516 H 606.301 1.603 3.60135 0
M  V30 6517 H 607.589 1.63323 4.81875 0
M  V30 6518 H 606.987 -1.48281 5.4592 0
M  V30 6519 H 605.544 -1.33463 6.3799 0
M  V30 6520 N 608.977 -1.30795 0.87923 0
M  V30 6521 C 609.924 -2.28282 0.339968 0
M  V30 6522 C 610.894 -1.56134 -0.566685 0
M  V30 6523 O 612.079 -1.84231 -0.496338 0
M  V30 6524 C 609.219 -3.42225 -0.444501 0
M  V30 6525 C 608.332 -4.29204 0.490717 0
M  V30 6526 C 607.467 -5.30302 -0.308784 0
M  V30 6527 C 606.506 -6.08929 0.622272 0
M  V30 6528 N 605.643 -7.01957 -0.14155 0
M  V30 6529 H 610.483 -2.73794 1.17647 0
M  V30 6530 H 608.02 -1.34682 0.591527 0
M  V30 6531 H 609.978 -4.07038 -0.915186 0
M  V30 6532 H 608.608 -2.97799 -1.24562 0
M  V30 6533 H 607.66 -3.6475 1.07988 0
M  V30 6534 H 608.972 -4.84045 1.20425 0
M  V30 6535 H 608.126 -6.00835 -0.841575 0
M  V30 6536 H 606.865 -4.7614 -1.05556 0
M  V30 6537 H 605.87 -5.37278 1.16674 0
M  V30 6538 H 607.095 -6.65178 1.36804 0
M  V30 6539 H 605.041 -6.50192 -0.870966 0
M  V30 6540 H 604.958 -7.54261 0.51246 0
M  V30 6541 H 606.226 -7.76741 -0.655271 0
M  V30 6542 N 610.455 -0.639598 -1.44038 0
M  V30 6543 C 611.418 0.0506628 -2.29144 0
M  V30 6544 C 612.418 0.764001 -1.41491 0
M  V30 6545 O 613.608 0.607309 -1.63271 0
M  V30 6546 C 610.74 1.0824 -3.2326 0
M  V30 6547 H 611.933 -0.697987 -2.91664 0
M  V30 6548 H 609.486 -0.400146 -1.51091 0
M  V30 6549 H 610.221 1.86075 -2.65606 0
M  V30 6550 H 610.006 0.574725 -3.87865 0
M  V30 6551 H 611.496 1.56487 -3.87171 0
M  V30 6552 N 611.933 1.52934 -0.380664 0
M  V30 6553 C 612.883 2.22989 0.475399 0
M  V30 6554 C 613.867 1.23058 1.03661 0
M  V30 6555 O 615.059 1.48436 0.964146 0
M  V30 6556 C 612.188 3.0338 1.60671 0
M  V30 6557 C 611.274 4.107 1.05766 0
M  V30 6558 N 611.665 5.05264 0.232837 0
M  V30 6559 C 609.963 4.25676 1.33101 0
M  V30 6560 C 610.664 5.81658 -0.0695134 0
M  V30 6561 N 609.64 5.40989 0.532144 0
M  V30 6562 H 613.442 2.93456 -0.161418 0
M  V30 6563 H 610.956 1.61291 -0.189495 0
M  V30 6564 H 612.953 3.52098 2.23232 0
M  V30 6565 H 611.613 2.34446 2.24644 0
M  V30 6566 H 612.624 5.17739 -0.129204 0
M  V30 6567 H 609.301 3.6797 1.97241 0
M  V30 6568 H 610.691 6.67843 -0.737269 0
M  V30 6569 N 613.412 0.11024 1.57214 0
M  V30 6570 C 614.322 -0.857077 2.18383 0
M  V30 6571 C 615.338 -1.29915 1.1575 0
M  V30 6572 O 616.514 -1.36394 1.48184 0
M  V30 6573 C 613.579 -2.09264 2.76423 0
M  V30 6574 C 612.64 -1.70333 3.94063 0
M  V30 6575 C 611.873 -2.87999 4.49324 0
M  V30 6576 O 612.096 -4.0317 4.03497 0
M  V30 6577 O 611.03 -2.6559 5.40135 0
M  V30 6578 H 614.856 -0.366561 3.0148 0
M  V30 6579 H 612.441 -0.114914 1.48957 0
M  V30 6580 H 614.323 -2.81644 3.13456 0
M  V30 6581 H 612.998 -2.57339 1.96363 0
M  V30 6582 H 611.905 -0.950864 3.61814 0
M  V30 6583 H 613.238 -1.27007 4.75531 0
M  V30 6584 N 614.89 -1.56749 -0.16351 0
M  V30 6585 C 616.137 -1.82434 -0.878866 0
M  V30 6586 C 616.465 -0.688557 -1.81904 0
M  V30 6587 O 615.72 0.323644 -1.93005 0
M  V30 6588 C 616.019 -3.14342 -1.70071 0
M  V30 6589 C 615.685 -4.41647 -0.908775 0
M  V30 6590 C 614.347 -4.76224 -0.690236 0
M  V30 6591 C 616.699 -5.19998 -0.353815 0
M  V30 6592 C 614.027 -5.86624 0.0942374 0
M  V30 6593 C 616.379 -6.3122 0.41761 0
M  V30 6594 C 615.043 -6.64358 0.646879 0
M  V30 6595 H 614.313 -0.667574 -0.3216 0
M  V30 6596 H 616.96 -1.90963 -0.14337 0
M  V30 6597 H 615.265 -3.0119 -2.50583 0
M  V30 6598 H 616.962 -3.31426 -2.25738 0
M  V30 6599 H 613.552 -4.1453 -1.08916 0
M  V30 6600 H 617.736 -4.93673 -0.509975 0
M  V30 6601 H 612.992 -6.10751 0.281529 0
M  V30 6602 H 617.166 -6.91133 0.854849 0
M  V30 6603 H 614.793 -7.49742 1.25662 0
M  V30 6604 N 616.368 0.432326 -1.51554 0
M  V30 6605 C 617.298 1.53242 -1.76179 0
M  V30 6606 C 618.279 1.58717 -0.611801 0
M  V30 6607 O 619.464 1.74364 -0.855033 0
M  V30 6608 C 616.594 2.91278 -1.89141 0
M  V30 6609 C 615.548 3.00663 -3.04608 0
M  V30 6610 C 614.874 4.40728 -3.02759 0
M  V30 6611 C 616.174 2.74281 -4.44485 0
M  V30 6612 H 617.868 1.32886 -2.68294 0
M  V30 6613 H 615.414 0.637841 -1.29103 0
M  V30 6614 H 617.367 3.68203 -2.04951 0
M  V30 6615 H 616.091 3.12877 -0.936785 0
M  V30 6616 H 614.75 2.26179 -2.88511 0
M  V30 6617 H 614.398 4.59301 -2.05065 0
M  V30 6618 H 614.098 4.47936 -3.80299 0
M  V30 6619 H 615.622 5.19619 -3.20669 0
M  V30 6620 H 617.036 3.40936 -4.60907 0
M  V30 6621 H 615.433 2.92893 -5.23769 0
M  V30 6622 H 616.503 1.69856 -4.54177 0
M  V30 6623 N 617.846 1.41785 0.688094 0
M  V30 6624 C 619.262 1.24419 0.999608 0
M  V30 6625 C 619.462 0.138868 2.01021 0
M  V30 6626 O 618.518 -0.494283 2.47615 0
M  V30 6627 C 619.831 2.59625 1.51709 0
M  V30 6628 C 621.379 2.66869 1.63554 0
M  V30 6629 C 621.854 4.0241 2.18702 0
M  V30 6630 N 623.345 4.04295 2.26053 0
M  V30 6631 C 624.08 5.05977 2.69768 0
M  V30 6632 N 623.576 6.18047 3.13033 0
M  V30 6633 N 625.369 4.93336 2.69398 0
M  V30 6634 H 617.52 2.12392 0.0187427 0
M  V30 6635 H 619.783 0.945347 0.0708673 0
M  V30 6636 H 619.489 3.41297 0.849059 0
M  V30 6637 H 619.363 2.82628 2.49803 0
M  V30 6638 H 621.75 1.8555 2.29467 0
M  V30 6639 H 621.831 2.47668 0.639857 0
M  V30 6640 H 621.475 4.8418 1.53402 0
M  V30 6641 H 621.405 4.18955 3.19037 0
M  V30 6642 H 623.896 3.23383 1.9553 0
M  V30 6643 H 624.209 6.91498 3.45038 0
M  V30 6644 H 622.554 6.21572 3.10923 0
M  V30 6645 H 625.745 4.04865 2.34952 0
M  V30 6646 H 625.918 5.72717 3.03148 0
M  V30 6647 N 619.324 -0.923095 1.27737 0
M  V30 6648 C 620.254 -2.04124 1.13383 0
M  V30 6649 C 621.235 -1.70066 0.0340658 0
M  V30 6650 O 622.42 -1.93068 0.209383 0
M  V30 6651 C 619.55 -3.3831 0.785097 0
M  V30 6652 C 618.504 -3.86496 1.8386 0
M  V30 6653 C 617.83 -5.1754 1.34373 0
M  V30 6654 C 619.13 -4.09381 3.24353 0
M  V30 6655 H 620.824 -2.1639 2.06919 0
M  V30 6656 H 618.37 -1.03976 0.996243 0
M  V30 6657 H 620.323 -4.16016 0.671485 0
M  V30 6658 H 619.047 -3.2607 -0.185969 0
M  V30 6659 H 617.706 -3.10987 1.9412 0
M  V30 6660 H 617.354 -5.01696 0.361989 0
M  V30 6661 H 617.054 -5.50751 2.04811 0
M  V30 6662 H 618.578 -5.97811 1.24315 0
M  V30 6663 H 619.992 -4.77641 3.17067 0
M  V30 6664 H 618.389 -4.53906 3.92542 0
M  V30 6665 H 619.459 -3.14515 3.69064 0
M  V30 6666 N 620.802 -1.09834 -1.13024 0
M  V30 6667 C 622.027 -0.85909 -1.88771 0
M  V30 6668 C 622.452 0.584402 -1.78791 0
M  V30 6669 O 621.81 1.41101 -1.13842 0
M  V30 6670 C 621.858 -1.30427 -3.36186 0
M  V30 6671 O 620.962 -0.465368 -4.09766 0
M  V30 6672 H 620.303 -0.310786 -0.586778 0
M  V30 6673 H 622.833 -1.46355 -1.42973 0
M  V30 6674 H 622.843 -1.2915 -3.8702 0
M  V30 6675 H 621.518 -2.3555 -3.42767 0
M  V30 6676 H 620.095 -0.542814 -3.68928 0
M  V30 6677 N 622.28 1.30327 -0.886154 0
M  V30 6678 C 623.212 2.27079 -0.311072 0
M  V30 6679 C 624.225 1.53758 0.53502 0
M  V30 6680 O 625.414 1.74947 0.354378 0
M  V30 6681 C 622.514 3.33965 0.576228 0
M  V30 6682 C 621.687 4.36735 -0.241064 0
M  V30 6683 C 620.746 5.23028 0.576916 0
M  V30 6684 O 619.772 5.692 -0.000802231 0
M  V30 6685 N 620.974 5.49016 1.88579 0
M  V30 6686 H 623.739 2.77065 -1.14259 0
M  V30 6687 H 621.3 1.43519 -0.749258 0
M  V30 6688 H 623.292 3.88618 1.12953 0
M  V30 6689 H 621.862 2.839 1.30842 0
M  V30 6690 H 621.082 3.81932 -0.975805 0
M  V30 6691 H 622.37 5.02451 -0.801272 0
M  V30 6692 H 621.768 5.13288 2.37806 0
M  V30 6693 H 620.325 6.06539 2.38651 0
M  V30 6694 N 623.758 0.647228 1.43697 0
M  V30 6695 C 625.004 0.158422 2.0218 0
M  V30 6696 C 625.337 -1.22233 1.50907 0
M  V30 6697 O 624.612 -1.81478 0.699702 0
M  V30 6698 C 624.895 0.1627 3.59732 0
M  V30 6699 C 624.748 1.57694 4.21251 0
M  V30 6700 C 626.067 -0.504138 4.37203 0
M  V30 6701 H 623.186 0.059042 0.734631 0
M  V30 6702 H 625.828 0.826772 1.71069 0
M  V30 6703 H 623.978 -0.406414 3.86368 0
M  V30 6704 H 625.65 2.19618 4.05667 0
M  V30 6705 H 623.893 2.12603 3.7813 0
M  V30 6706 H 624.564 1.53183 5.3032 0
M  V30 6707 H 627.04 -0.0199841 4.16095 0
M  V30 6708 H 625.916 -0.470394 5.46881 0
M  V30 6709 H 626.177 -1.57726 4.13007 0
M  V30 6710 N 625.236 -1.5273 0.388769 0
M  V30 6711 C 626.647 -1.86505 -0.0853788 0
M  V30 6712 C 626.998 -1.30847 -1.46197 0
M  V30 6713 O 626.123 -0.639609 -2.06732 0
M  V30 6714 C 626.718 -3.38414 -0.161703 0
M  V30 6715 C 625.277 -3.71902 -0.580144 0
M  V30 6716 C 624.424 -2.76095 0.258218 0
M  V30 6717 H 627.375 -1.46647 0.606665 0
M  V30 6718 H 627.396 -3.67638 -0.980936 0
M  V30 6719 H 626.908 -3.78893 0.840333 0
M  V30 6720 H 625.009 -3.36992 -1.58957 0
M  V30 6721 H 625.122 -4.77902 -0.338663 0
M  V30 6722 H 623.486 -2.53195 -0.276432 0
M  V30 6723 H 624.269 -3.19411 1.25822 0
M  V30 6724 N 626.714 -0.118576 -1.57153 0
M  V30 6725 C 627.991 0.583062 -1.86708 0
M  V30 6726 C 628.371 1.84841 -1.01967 0
M  V30 6727 O 627.719 2.28288 -0.0984673 0
M  V30 6728 C 627.929 0.875912 -3.3783 0
M  V30 6729 C 629.277 1.22916 -4.0642 0
M  V30 6730 O 630.301 0.966188 -3.42846 0
M  V30 6731 O 629.16 1.72269 -5.18638 0
M  V30 6732 H 626.254 0.294185 -0.772906 0
M  V30 6733 H 628.8 -0.153048 -1.69008 0
M  V30 6734 H 627.572 -0.0207776 -3.91294 0
M  V30 6735 H 627.195 1.66719 -3.60958 0
M  V30 6736 N 628.193 1.56834 0.155195 0
M  V30 6737 C 629.141 1.98584 1.21107 0
M  V30 6738 C 630.135 0.876987 1.44932 0
M  V30 6739 O 631.341 1.06215 1.45322 0
M  V30 6740 H 627.716 0.632039 0.407469 0
M  V30 6741 H 629.687 2.86561 0.832195 0
M  V30 6742 C 628.436 2.37555 2.53895 0
M  V30 6743 H 627.759 3.22428 2.3639 0
M  V30 6744 H 629.199 2.70598 3.26424 0
M  V30 6745 C 627.658 1.22507 3.13837 0
M  V30 6746 O 628.188 0.521388 3.98302 0
M  V30 6747 N 626.394 0.991444 2.73164 0
M  V30 6748 H 625.941 1.56544 2.04577 0
M  V30 6749 H 625.899 0.223546 3.13604 0
M  V30 6750 N 629.671 -0.424282 1.51781 0
M  V30 6751 C 631.082 -1.00368 1.57427 0
M  V30 6752 C 631.433 -1.91962 0.40558 0
M  V30 6753 O 630.558 -2.111 -0.47601 0
M  V30 6754 C 631.153 -1.82707 2.85313 0
M  V30 6755 C 629.712 -2.35675 2.93487 0
M  V30 6756 C 628.859 -1.1524 2.5222 0
M  V30 6757 H 631.81 -0.205064 1.5737 0
M  V30 6758 H 631.831 -2.68294 2.69812 0
M  V30 6759 H 631.343 -1.16017 3.70353 0
M  V30 6760 H 629.444 -3.05781 2.12906 0
M  V30 6761 H 629.557 -2.67578 3.97415 0
M  V30 6762 H 627.921 -1.50174 2.05718 0
M  V30 6763 H 628.704 -0.5014 3.39619 0
M  V30 6764 N 631.149 -1.42148 -0.680565 0
M  V30 6765 C 632.56 -1.3768 -1.26099 0
M  V30 6766 C 632.911 -0.0672348 -1.96085 0
M  V30 6767 O 632.036 0.834172 -1.99676 0
M  V30 6768 C 632.631 -2.49387 -2.29328 0
M  V30 6769 C 631.19 -2.4827 -2.82911 0
M  V30 6770 C 630.337 -2.2847 -1.57152 0
M  V30 6771 H 633.288 -1.51446 -0.474326 0
M  V30 6772 H 633.309 -2.19307 -3.10941 0
M  V30 6773 H 632.821 -3.44686 -1.78363 0
M  V30 6774 H 630.922 -1.56773 -3.38013 0
M  V30 6775 H 631.035 -3.45109 -3.3232 0
M  V30 6776 H 629.399 -1.76623 -1.83511 0
M  V30 6777 H 630.182 -3.25816 -1.0816 0
M  V30 6778 N 632.627 0.916307 -1.28225 0
M  V30 6779 C 633.904 1.64429 -1.05936 0
M  V30 6780 C 634.284 2.07234 0.402139 0
M  V30 6781 O 633.632 1.81535 1.3877 0
M  V30 6782 C 633.842 2.83773 -2.03159 0
M  V30 6783 C 635.19 3.54852 -2.33164 0
M  V30 6784 O 636.214 2.93918 -2.01223 0
M  V30 6785 O 635.073 4.64663 -2.87664 0
M  V30 6786 H 632.167 0.721221 -0.404683 0
M  V30 6787 H 634.713 0.965838 -1.39534 0
M  V30 6788 H 633.485 2.49217 -3.01673 0
M  V30 6789 H 633.108 3.59333 -1.70192 0
M  V30 6790 N 634.105 1.10431 1.1244 0
M  V30 6791 C 635.335 0.867612 1.87499 0
M  V30 6792 C 635.743 -0.585475 1.79913 0
M  V30 6793 O 635.086 -1.41539 1.171 0
M  V30 6794 C 635.148 1.2374 3.37533 0
M  V30 6795 C 634.812 2.69751 3.68895 0
M  V30 6796 C 635.809 3.67988 3.67261 0
M  V30 6797 C 633.494 3.06135 3.98229 0
M  V30 6798 C 635.488 5.00632 3.9452 0
M  V30 6799 C 633.175 4.38967 4.25149 0
M  V30 6800 C 634.173 5.36025 4.23281 0
M  V30 6801 O 633.861 6.66465 4.49533 0
M  V30 6802 H 633.593 0.311196 0.600111 0
M  V30 6803 H 636.147 1.47257 1.43194 0
M  V30 6804 H 634.377 0.575537 3.82393 0
M  V30 6805 H 636.066 0.978187 3.93937 0
M  V30 6806 H 636.832 3.41224 3.44661 0
M  V30 6807 H 632.711 2.31214 3.98825 0
M  V30 6808 H 636.255 5.7638 3.92978 0
M  V30 6809 H 632.152 4.6547 4.47223 0
M  V30 6810 H 632.92 6.72095 4.67152 0
M  V30 6811 N 635.583 -1.29855 0.893053 0
M  V30 6812 C 636.515 -2.26911 0.32311 0
M  V30 6813 C 637.528 -1.54039 -0.526858 0
M  V30 6814 O 638.717 -1.75132 -0.345095 0
M  V30 6815 C 635.817 -3.34266 -0.558509 0
M  V30 6816 C 634.99 -4.36601 0.264222 0
M  V30 6817 C 634.049 -5.23326 -0.549171 0
M  V30 6818 O 633.075 -5.69192 0.0309883 0
M  V30 6819 N 634.277 -5.50008 -1.85664 0
M  V30 6820 H 637.042 -2.76455 1.15726 0
M  V30 6821 H 634.603 -1.4312 0.756859 0
M  V30 6822 H 636.595 -3.89211 -1.1089 0
M  V30 6823 H 635.165 -2.8459 -1.29334 0
M  V30 6824 H 634.385 -3.81409 0.996046 0
M  V30 6825 H 635.673 -5.02019 0.827906 0
M  V30 6826 H 635.071 -5.14542 -2.35081 0
M  V30 6827 H 633.628 -6.07796 -2.35431 0
M  V30 6828 N 637.061 -0.65484 -1.43351 0
M  V30 6829 C 638.008 0.0357713 -2.30772 0
M  V30 6830 C 638.978 0.813035 -1.44841 0
M  V30 6831 O 640.163 0.789314 -1.73708 0
M  V30 6832 C 637.303 0.995084 -3.30442 0
M  V30 6833 C 636.416 0.21375 -4.31471 0
M  V30 6834 C 635.551 1.16701 -5.18222 0
M  V30 6835 C 634.59 0.376201 -6.10943 0
M  V30 6836 N 633.727 1.28113 -6.90313 0
M  V30 6837 H 638.567 -0.71559 -2.89281 0
M  V30 6838 H 636.104 -0.364645 -1.42509 0
M  V30 6839 H 638.062 1.5649 -3.86739 0
M  V30 6840 H 636.692 1.7133 -2.7358 0
M  V30 6841 H 635.744 -0.472377 -3.77456 0
M  V30 6842 H 637.056 -0.401103 -4.97185 0
M  V30 6843 H 636.21 1.8074 -5.79153 0
M  V30 6844 H 634.949 1.81577 -4.52638 0
M  V30 6845 H 633.954 -0.277534 -5.49099 0
M  V30 6846 H 635.179 -0.268178 -6.7857 0
M  V30 6847 H 633.125 1.91666 -6.27376 0
M  V30 6848 H 633.042 0.720879 -7.52555 0
M  V30 6849 H 634.31 1.90962 -7.55747 0
M  V30 6850 N 638.539 1.52521 -0.396863 0
M  V30 6851 C 639.769 2.05792 0.182485 0
M  V30 6852 C 640.177 1.26784 1.40436 0
M  V30 6853 O 639.52 0.309617 1.81072 0
M  V30 6854 C 639.582 3.54291 0.609781 0
M  V30 6855 C 639.246 4.5426 -0.499674 0
M  V30 6856 C 640.243 5.01812 -1.35944 0
M  V30 6857 C 637.928 4.97827 -0.668864 0
M  V30 6858 C 639.922 5.91562 -2.37346 0
M  V30 6859 C 637.609 5.87376 -1.68621 0
M  V30 6860 C 638.607 6.34137 -2.53692 0
M  V30 6861 O 638.295 7.21915 -3.53686 0
M  V30 6862 H 638.027 0.675362 0.0293583 0
M  V30 6863 H 640.581 1.97539 -0.56281 0
M  V30 6864 H 638.811 3.60188 1.40717 0
M  V30 6865 H 640.5 3.90267 1.11565 0
M  V30 6866 H 641.266 4.68879 -1.24008 0
M  V30 6867 H 637.145 4.60997 -0.0163971 0
M  V30 6868 H 640.689 6.27983 -3.03782 0
M  V30 6869 H 636.586 6.19723 -1.80593 0
M  V30 6870 H 637.354 7.39996 -3.49784 0
M  V30 6871 N 640.017 0.126909 1.57088 0
M  V30 6872 C 641.247 -0.535892 1.99529 0
M  V30 6873 C 641.655 -1.60259 1.00566 0
M  V30 6874 O 640.998 -1.83698 -0.00843269 0
M  V30 6875 C 641.06 -1.21374 3.38391 0
M  V30 6876 C 640.724 -0.294044 4.56053 0
M  V30 6877 C 641.721 0.470454 5.17767 0
M  V30 6878 C 639.406 -0.202808 5.0189 0
M  V30 6879 C 641.4 1.31384 6.23712 0
M  V30 6880 C 639.087 0.644203 6.07695 0
M  V30 6881 C 640.085 1.40115 6.68473 0
M  V30 6882 O 639.773 2.23408 7.72233 0
M  V30 6883 H 639.505 -0.145799 0.66009 0
M  V30 6884 H 642.059 0.212441 2.04298 0
M  V30 6885 H 640.289 -2.00931 3.30399 0
M  V30 6886 H 641.978 -1.77424 3.65069 0
M  V30 6887 H 642.744 0.409884 4.83265 0
M  V30 6888 H 638.623 -0.781688 4.54324 0
M  V30 6889 H 642.167 1.90514 6.71081 0
M  V30 6890 H 638.064 0.706137 6.41626 0
M  V30 6891 H 638.832 2.16436 7.89365 0
M  V30 6892 N 641.495 -1.56914 -0.146875 0
M  V30 6893 C 642.911 -1.51582 -0.499518 0
M  V30 6894 C 643.111 -0.83535 -1.83369 0
M  V30 6895 O 642.167 -0.405932 -2.49216 0
M  V30 6896 C 643.48 -2.96349 -0.509711 0
M  V30 6897 C 645.028 -3.07288 -0.595217 0
M  V30 6898 C 645.503 -4.53562 -0.636071 0
M  V30 6899 N 646.994 -4.57906 -0.69829 0
M  V30 6900 C 647.729 -5.68462 -0.750886 0
M  V30 6901 N 647.225 -6.88588 -0.76282 0
M  V30 6902 N 649.018 -5.56496 -0.791777 0
M  V30 6903 H 641.169 -1.99547 0.727656 0
M  V30 6904 H 643.432 -0.910113 0.265327 0
M  V30 6905 H 643.138 -3.4939 0.402409 0
M  V30 6906 H 643.012 -3.52307 -1.34758 0
M  V30 6907 H 645.399 -2.54266 -1.49776 0
M  V30 6908 H 645.48 -2.54373 0.2698 0
M  V30 6909 H 645.124 -5.07222 0.262313 0
M  V30 6910 H 645.054 -5.04259 -1.51758 0
M  V30 6911 H 647.545 -3.71429 -0.696362 0
M  V30 6912 H 647.858 -7.68598 -0.804804 0
M  V30 6913 H 646.203 -6.91148 -0.730694 0
M  V30 6914 H 649.394 -4.61562 -0.779624 0
M  V30 6915 H 649.567 -6.42671 -0.829301 0
M  V30 6916 N 642.974 0.416227 -1.52004 0
M  V30 6917 C 643.906 1.52552 -1.71058 0
M  V30 6918 C 644.919 1.51693 -0.59102 0
M  V30 6919 O 646.108 1.56087 -0.865973 0
M  V30 6920 C 643.208 2.91455 -1.72937 0
M  V30 6921 C 642.381 3.16584 -3.01816 0
M  V30 6922 C 641.44 4.35322 -2.95603 0
M  V30 6923 O 640.466 4.32947 -3.6952 0
M  V30 6924 N 641.668 5.40049 -2.12903 0
M  V30 6925 H 644.433 1.36604 -2.66757 0
M  V30 6926 H 641.994 0.60544 -1.50153 0
M  V30 6927 H 643.986 3.68944 -1.66321 0
M  V30 6928 H 642.556 3.00895 -0.847418 0
M  V30 6929 H 641.776 2.27203 -3.22137 0
M  V30 6930 H 643.064 3.30213 -3.87088 0
M  V30 6931 H 642.462 5.44823 -1.52265 0
M  V30 6932 H 641.019 6.16308 -2.1215 0
M  V30 6933 N 644.452 1.42507 0.673017 0
M  V30 6934 C 645.385 1.40557 1.79774 0
M  V30 6935 C 646.363 0.269606 1.60349 0
M  V30 6936 O 647.547 0.460105 1.82798 0
M  V30 6937 C 644.674 1.19815 3.168 0
M  V30 6938 C 643.72 2.36429 3.5497 0
M  V30 6939 S 644.553 3.98963 3.57196 0
M  V30 6940 C 645.709 3.80567 4.9691 0
M  V30 6941 H 645.942 2.35734 1.81154 0
M  V30 6942 H 643.475 1.293 0.843846 0
M  V30 6943 H 645.433 1.08535 3.95892 0
M  V30 6944 H 644.094 0.262215 3.13004 0
M  V30 6945 H 643.287 2.17669 4.54573 0
M  V30 6946 H 642.889 2.44233 2.83242 0
M  V30 6947 H 645.181 3.41668 5.85038 0
M  V30 6948 H 646.124 4.79852 5.20718 0
M  V30 6949 H 646.532 3.13399 4.69512 0
M  V30 6950 N 645.93 -0.909495 1.28709 0
M  V30 6951 C 647.346 -1.18862 1.06508 0
M  V30 6952 C 647.546 -2.00604 -0.189864 0
M  V30 6953 O 646.602 -2.36281 -0.890355 0
M  V30 6954 C 647.915 -1.91908 2.31499 0
M  V30 6955 C 649.463 -2.04773 2.36721 0
M  V30 6956 C 649.938 -2.81228 3.6149 0
M  V30 6957 N 651.429 -2.88787 3.62155 0
M  V30 6958 C 652.164 -3.48455 4.55375 0
M  V30 6959 N 651.66 -4.09369 5.58918 0
M  V30 6960 N 653.453 -3.46035 4.42963 0
M  V30 6961 H 645.604 -0.363867 2.0926 0
M  V30 6962 H 647.867 -0.223649 0.921241 0
M  V30 6963 H 647.573 -1.39275 3.22948 0
M  V30 6964 H 647.447 -2.92436 2.38245 0
M  V30 6965 H 649.834 -2.56585 1.45767 0
M  V30 6966 H 649.915 -1.03408 2.33967 0
M  V30 6967 H 649.559 -2.30094 4.5279 0
M  V30 6968 H 649.489 -3.82917 3.61499 0
M  V30 6969 H 651.98 -2.45514 2.87283 0
M  V30 6970 H 652.293 -4.52891 6.26187 0
M  V30 6971 H 650.638 -4.0786 5.62739 0
M  V30 6972 H 653.829 -2.9766 3.6127 0
M  V30 6973 H 654.002 -3.92244 5.15799 0
M  V30 6974 N 647.408 -1.11026 -1.11852 0
M  V30 6975 C 648.355 -0.764662 -2.17765 0
M  V30 6976 C 649.325 0.261854 -1.64023 0
M  V30 6977 O 650.51 0.139748 -1.90288 0
M  V30 6978 C 647.65 -0.209317 -3.44465 0
M  V30 6979 C 646.763 -1.29187 -4.12231 0
M  V30 6980 C 645.898 -0.697523 -5.266 0
M  V30 6981 C 644.937 -1.76023 -5.86244 0
M  V30 6982 N 644.074 -1.18569 -6.92016 0
M  V30 6983 H 648.914 -1.67202 -2.46673 0
M  V30 6984 H 646.451 -0.835065 -1.21099 0
M  V30 6985 H 648.409 0.130599 -4.16996 0
M  V30 6986 H 647.039 0.661251 -3.15955 0
M  V30 6987 H 646.091 -1.74881 -3.37818 0
M  V30 6988 H 647.403 -2.09607 -4.52622 0
M  V30 6989 H 646.557 -0.307412 -6.05921 0
M  V30 6990 H 645.296 0.138044 -4.87505 0
M  V30 6991 H 644.301 -2.1597 -5.05606 0
M  V30 6992 H 645.526 -2.59875 -6.27409 0
M  V30 6993 H 643.472 -0.371695 -6.54946 0
M  V30 6994 H 643.389 -1.92666 -7.31038 0
M  V30 6995 H 644.657 -0.82233 -7.7515 0
M  V30 6996 N 648.886 1.2938 -0.899927 0
M  V30 6997 C 650.134 1.95164 -0.524924 0
M  V30 6998 C 650.455 1.71292 0.931888 0
M  V30 6999 O 649.725 1.04481 1.65712 0
M  V30 7000 H 648.305 0.722133 -0.191135 0
M  V30 7001 H 650.967 1.57628 -1.14627 0
M  V30 7002 H 650.063 3.0397 -0.707711 0
M  V30 7003 N 650.364 0.662433 1.43002 0
M  V30 7004 C 651.612 0.179237 2.01304 0
M  V30 7005 C 651.933 -1.21428 1.52579 0
M  V30 7006 O 651.203 -1.81294 0.742252 0
M  V30 7007 H 649.783 0.0632725 0.744316 0
M  V30 7008 H 652.445 0.856169 1.75088 0
M  V30 7009 H 651.541 0.170957 3.11631 0
M  V30 7010 N 651.842 -1.52309 0.404946 0
M  V30 7011 C 653.089 -2.01767 -0.1722 0
M  V30 7012 C 653.417 -1.29075 -1.45498 0
M  V30 7013 O 652.672 -0.3843 -1.9189 0
M  V30 7014 C 652.971 -3.54284 -0.470895 0
M  V30 7015 C 652.637 -4.45079 0.722194 0
M  V30 7016 C 651.299 -4.69617 1.04946 0
M  V30 7017 C 653.651 -4.98555 1.51962 0
M  V30 7018 C 650.979 -5.44878 2.17543 0
M  V30 7019 C 653.331 -5.75049 2.63632 0
M  V30 7020 C 651.995 -5.9786 2.9685 0
M  V30 7021 H 651.265 -0.738316 -0.0630125 0
M  V30 7022 H 653.912 -1.83566 0.545506 0
M  V30 7023 H 652.217 -3.70642 -1.27012 0
M  V30 7024 H 653.914 -3.90058 -0.930346 0
M  V30 7025 H 650.504 -4.26155 0.457131 0
M  V30 7026 H 654.688 -4.79509 1.28002 0
M  V30 7027 H 649.944 -5.60762 2.43631 0
M  V30 7028 H 654.118 -6.15483 3.25813 0
M  V30 7029 H 651.745 -6.5596 3.84215 0
M  V30 7030 N 653.32 -0.135238 -1.57019 0
M  V30 7031 C 654.545 0.529343 -2.00531 0
M  V30 7032 C 654.97 1.58391 -1.01459 0
M  V30 7033 O 654.328 1.81296 0.0113986 0
M  V30 7034 C 654.376 1.11748 -3.42848 0
M  V30 7035 O 653.48 2.23267 -3.46736 0
M  V30 7036 H 652.821 0.130669 -0.651016 0
M  V30 7037 H 655.351 -0.228503 -2.0332 0
M  V30 7038 H 655.361 1.44905 -3.81401 0
M  V30 7039 H 654.036 0.345147 -4.14465 0
M  V30 7040 H 652.613 1.91428 -3.20015 0
M  V30 7041 N 654.798 1.5699 0.138552 0
M  V30 7042 C 656.045 1.83809 0.849732 0
M  V30 7043 C 656.373 0.717409 1.80786 0
M  V30 7044 O 655.628 -0.292897 1.93496 0
M  V30 7045 C 655.927 3.17007 1.65049 0
M  V30 7046 C 655.593 4.43037 0.838398 0
M  V30 7047 C 654.255 4.77262 0.614385 0
M  V30 7048 C 656.607 5.20495 0.271044 0
M  V30 7049 C 653.935 5.864 -0.187552 0
M  V30 7050 C 656.287 6.30476 -0.517979 0
M  V30 7051 C 654.951 6.63245 -0.75249 0
M  V30 7052 H 654.221 0.672605 0.310939 0
M  V30 7053 H 656.868 1.91166 0.112971 0
M  V30 7054 H 655.173 3.05138 2.4576 0
M  V30 7055 H 656.87 3.34975 2.20437 0
M  V30 7056 H 653.46 4.16211 1.02307 0
M  V30 7057 H 657.644 4.94422 0.431371 0
M  V30 7058 H 652.9 6.10226 -0.378659 0
M  V30 7059 H 657.074 6.89686 -0.964694 0
M  V30 7060 H 654.701 7.47648 -1.37573 0
M  V30 7061 N 656.276 -0.40816 1.52223 0
M  V30 7062 C 657.501 -1.18127 1.70472 0
M  V30 7063 C 657.926 -1.83491 0.41384 0
M  V30 7064 O 657.284 -1.70047 -0.628778 0
M  V30 7065 C 657.332 -2.21935 2.84213 0
M  V30 7066 O 656.436 -3.28099 2.4985 0
M  V30 7067 H 655.777 -0.344781 0.56747 0
M  V30 7068 H 658.307 -0.478328 1.9893 0
M  V30 7069 H 658.317 -2.66248 3.09153 0
M  V30 7070 H 656.992 -1.73744 3.7787 0
M  V30 7071 H 655.569 -2.89058 2.35584 0
M  V30 7072 N 657.755 -1.42862 -0.66545 0
M  V30 7073 C 658.983 -1.47246 -1.45349 0
M  V30 7074 C 659.398 -0.0865944 -1.88601 0
M  V30 7075 O 658.755 0.900652 -1.58728 0
M  V30 7076 C 658.806 -2.40772 -2.6965 0
M  V30 7077 O 658.527 -3.73968 -2.2821 0
M  V30 7078 C 660.028 -2.54272 -3.63126 0
M  V30 7079 H 657.248 -0.500497 -0.446927 0
M  V30 7080 H 659.792 -1.87477 -0.816871 0
M  V30 7081 H 657.947 -2.0377 -3.29479 0
M  V30 7082 H 658.361 -4.24146 -3.08546 0
M  V30 7083 H 659.835 -3.23815 -4.47043 0
M  V30 7084 H 660.312 -1.58364 -4.09656 0
M  V30 7085 H 660.918 -2.92036 -3.09185 0
M  V30 7086 N 659.233 0.902656 -1.29189 0
M  V30 7087 C 660.163 2.02294 -1.16616 0
M  V30 7088 C 661.144 1.6999 -0.0611175 0
M  V30 7089 O 662.329 1.9271 -0.240072 0
M  V30 7090 C 659.459 3.37018 -0.83882 0
M  V30 7091 C 658.413 3.83522 -1.89986 0
M  V30 7092 C 657.739 5.15337 -1.42589 0
M  V30 7093 C 659.039 4.04169 -3.30824 0
M  V30 7094 H 660.733 2.13071 -2.10336 0
M  V30 7095 H 658.279 1.02378 -1.01266 0
M  V30 7096 H 660.232 4.14895 -0.737584 0
M  V30 7097 H 658.956 3.26325 0.134071 0
M  V30 7098 H 657.615 3.07859 -1.99043 0
M  V30 7099 H 657.263 5.01056 -0.441759 0
M  V30 7100 H 656.963 5.47423 -2.13547 0
M  V30 7101 H 658.487 5.95758 -1.3381 0
M  V30 7102 H 659.901 4.72537 -3.24626 0
M  V30 7103 H 658.298 4.47604 -3.99713 0
M  V30 7104 H 659.368 3.08604 -3.74021 0
M  V30 7105 N 660.711 1.11618 1.11262 0
M  V30 7106 C 661.988 0.777876 1.79467 0
M  V30 7107 C 662.368 -0.733774 1.97937 0
M  V30 7108 O 661.716 -1.66443 1.56554 0
M  V30 7109 C 661.926 1.5431 3.13032 0
M  V30 7110 C 663.274 1.72357 3.88044 0
M  V30 7111 O 664.298 1.5075 3.22727 0
M  V30 7112 O 663.157 2.08276 5.05256 0
M  V30 7113 H 660.251 0.282018 0.777428 0
M  V30 7114 H 662.797 1.21971 1.17988 0
M  V30 7115 H 661.569 2.57132 2.94956 0
M  V30 7116 H 661.192 1.09495 3.82226 0
M  V30 7117 N 662.189 -1.289 0.906776 0
M  V30 7118 C 663.429 -1.97046 0.543329 0
M  V30 7119 C 663.793 -1.69862 -0.895034 0
M  V30 7120 O 664.994 -2.31521 -1.36571 0
M  V30 7121 C 663.265 -3.47489 0.835833 0
M  V30 7122 S 664.824 -4.3498 0.577756 0
M  V30 7123 H 661.642 -0.681908 0.201302 0
M  V30 7124 H 664.244 -1.5657 1.17073 0
M  V30 7125 H 662.948 -3.64768 1.88075 0
M  V30 7126 H 662.479 -3.92907 0.196817 0
M  V30 7127 H 664.494 -4.92868 -0.574052 0
M  V30 7128 N 663.667 -0.670007 -1.42649 0
M  V30 7129 C 664.915 -0.18991 -2.01206 0
M  V30 7130 C 665.236 1.20617 -1.53221 0
M  V30 7131 O 664.506 1.80898 -0.751856 0
M  V30 7132 H 663.086 -0.0672189 -0.743969 0
M  V30 7133 H 665.748 -0.865442 -1.74631 0
M  V30 7134 H 664.844 -0.187481 -3.11536 0
M  V30 7135 N 665.145 1.52092 -0.413018 0
M  V30 7136 C 666.391 2.02815 0.154104 0
M  V30 7137 C 666.746 1.293 1.42475 0
M  V30 7138 O 666.039 0.391835 1.87551 0
M  V30 7139 C 666.233 3.54529 0.4521 0
M  V30 7140 C 666.062 4.4274 -0.788116 0
M  V30 7141 C 664.832 4.87903 -1.31447 0
M  V30 7142 C 667.03 4.86522 -1.66735 0
M  V30 7143 N 665.012 5.60254 -2.50976 0
M  V30 7144 C 666.383 5.57692 -2.70886 0
M  V30 7145 C 668.438 4.68534 -1.68465 0
M  V30 7146 C 667.141 6.12783 -3.76682 0
M  V30 7147 C 669.167 5.24524 -2.73182 0
M  V30 7148 C 668.529 5.9562 -3.76054 0
M  V30 7149 H 664.628 0.781796 0.0178567 0
M  V30 7150 H 667.212 1.86223 -0.568237 0
M  V30 7151 H 665.383 3.71186 1.14348 0
M  V30 7152 H 667.115 3.91934 1.00844 0
M  V30 7153 H 663.87 4.65504 -0.871931 0
M  V30 7154 H 664.294 6.01069 -3.11521 0
M  V30 7155 H 668.936 4.13051 -0.902708 0
M  V30 7156 H 666.654 6.67335 -4.55729 0
M  V30 7157 H 670.24 5.12473 -2.75433 0
M  V30 7158 H 669.12 6.38169 -4.55752 0
M  V30 7159 N 666.623 0.143563 1.56945 0
M  V30 7160 C 667.872 -0.50835 1.95189 0
M  V30 7161 C 668.185 -1.66239 1.03073 0
M  V30 7162 O 669.391 -2.3787 1.30882 0
M  V30 7163 C 667.847 -0.955735 3.46978 0
M  V30 7164 C 667.455 0.171183 4.47673 0
M  V30 7165 C 669.199 -1.57763 3.94095 0
M  V30 7166 C 667.106 -0.294279 5.90667 0
M  V30 7167 H 666.036 -0.193679 0.728701 0
M  V30 7168 H 668.687 0.227357 1.82086 0
M  V30 7169 H 667.069 -1.7466 3.55401 0
M  V30 7170 H 668.243 0.948049 4.50942 0
M  V30 7171 H 666.558 0.701273 4.10452 0
M  V30 7172 H 669.155 -1.93745 4.98364 0
M  V30 7173 H 669.498 -2.46531 3.35452 0
M  V30 7174 H 670.031 -0.851728 3.88575 0
M  V30 7175 H 666.77 0.557939 6.53121 0
M  V30 7176 H 666.29 -1.0371 5.90766 0
M  V30 7177 H 667.969 -0.747426 6.42668 0
M  V30 7178 N 668.101 -1.57061 -0.130224 0
M  V30 7179 C 669.347 -1.8453 -0.841216 0
M  V30 7180 C 669.68 -0.727666 -1.80052 0
M  V30 7181 O 668.955 0.267419 -1.92653 0
M  V30 7182 C 669.238 -3.22553 -1.60099 0
M  V30 7183 C 669.091 -4.44901 -0.662048 0
M  V30 7184 C 670.41 -3.58003 -2.55973 0
M  V30 7185 H 667.529 -0.671215 -0.304366 0
M  V30 7186 H 670.171 -1.89705 -0.105821 0
M  V30 7187 H 668.321 -3.18272 -2.22789 0
M  V30 7188 H 669.993 -4.61278 -0.0448559 0
M  V30 7189 H 668.236 -4.33791 0.0272253 0
M  V30 7190 H 668.907 -5.3812 -1.23006 0
M  V30 7191 H 671.383 -3.63002 -2.03393 0
M  V30 7192 H 670.259 -4.55576 -3.06172 0
M  V30 7193 H 670.52 -2.84833 -3.38116 0
M  V30 7194 N 669.579 0.400081 -1.52437 0
M  V30 7195 C 670.804 1.17221 -1.71096 0
M  V30 7196 C 671.229 1.83269 -0.423565 0
M  V30 7197 O 670.587 1.70378 0.619751 0
M  V30 7198 C 670.635 2.20425 -2.85386 0
M  V30 7199 O 669.739 3.26769 -2.51586 0
M  V30 7200 H 669.08 0.341766 -0.569291 0
M  V30 7201 H 671.61 0.467772 -1.99181 0
M  V30 7202 H 671.62 2.64605 -3.10561 0
M  V30 7203 H 670.295 1.71737 -3.78786 0
M  V30 7204 H 668.872 2.87804 -2.37114 0
M  V30 7205 N 671.057 1.43213 0.657864 0
M  V30 7206 C 672.334 1.35063 1.41483 0
M  V30 7207 C 672.714 -0.0038314 2.111 0
M  V30 7208 O 672.062 -1.02018 2.04462 0
M  V30 7209 C 672.272 2.53061 2.40335 0
M  V30 7210 C 673.62 2.9594 3.04474 0
M  V30 7211 O 674.644 2.53074 2.50663 0
M  V30 7212 O 673.503 3.70184 4.02027 0
M  V30 7213 H 670.597 0.533517 0.631893 0
M  V30 7214 H 673.143 1.55253 0.685162 0
M  V30 7215 H 671.915 3.43283 1.87809 0
M  V30 7216 H 671.538 2.34945 3.20759 0
M  V30 7217 N 672.536 -0.895792 1.29666 0
M  V30 7218 C 673.776 -1.6609 1.19136 0
M  V30 7219 C 674.14 -1.90336 -0.252245 0
M  V30 7220 O 675.341 -2.64469 -0.480593 0
M  V30 7221 C 673.612 -2.97129 1.98618 0
M  V30 7222 S 675.171 -3.88146 2.04666 0
M  V30 7223 H 671.989 -0.570188 0.424744 0
M  V30 7224 H 674.591 -1.06411 1.64003 0
M  V30 7225 H 673.295 -2.77199 3.02637 0
M  V30 7226 H 672.826 -3.61847 1.54371 0
M  V30 7227 H 674.841 -4.82301 1.16618 0
M  V30 7228 N 674.014 -1.12206 -1.10668 0
M  V30 7229 C 675.242 -0.898635 -1.86366 0
M  V30 7230 C 675.657 0.551991 -1.80551 0
M  V30 7231 O 675.014 1.38152 -1.19249 0
M  V30 7232 C 675.065 -1.36199 -3.34861 0
M  V30 7233 O 674.786 -2.75576 -3.40573 0
M  V30 7234 C 676.287 -1.17515 -4.2744 0
M  V30 7235 H 673.507 -0.321281 -0.589084 0
M  V30 7236 H 676.051 -1.49142 -1.39918 0
M  V30 7237 H 674.206 -0.81249 -3.78784 0
M  V30 7238 H 674.62 -2.95851 -4.33096 0
M  V30 7239 H 676.094 -1.54827 -5.29842 0
M  V30 7240 H 676.571 -0.115486 -4.39048 0
M  V30 7241 H 677.177 -1.71203 -3.89319 0
M  V30 7242 N 675.492 1.28418 -0.913599 0
M  V30 7243 C 676.455 2.25564 -0.406624 0
M  V30 7244 C 677.455 1.5387 0.466965 0
M  V30 7245 O 678.645 1.72094 0.270042 0
M  V30 7246 C 675.777 3.38339 0.417053 0
M  V30 7247 H 676.97 2.71926 -1.26477 0
M  V30 7248 H 674.523 1.40098 -0.692986 0
M  V30 7249 H 675.258 2.97339 1.29461 0
M  V30 7250 H 675.043 3.91542 -0.209102 0
M  V30 7251 H 676.533 4.10578 0.762602 0
M  V30 7252 N 676.97 0.677563 1.42291 0
M  V30 7253 C 677.88 0.000962654 2.346 0
M  V30 7254 C 678.896 -0.785833 1.55244 0
M  V30 7255 O 680.072 -0.727523 1.87801 0
M  V30 7256 C 677.137 -0.936746 3.33805 0
M  V30 7257 C 676.198 -0.144173 4.29058 0
M  V30 7258 C 675.431 -1.03722 5.23524 0
M  V30 7259 O 675.654 -2.27675 5.22992 0
M  V30 7260 O 674.588 -0.496542 5.99848 0
M  V30 7261 H 678.414 0.761397 2.94001 0
M  V30 7262 H 675.999 0.43781 1.42841 0
M  V30 7263 H 677.881 -1.47497 3.94744 0
M  V30 7264 H 676.556 -1.67698 2.76874 0
M  V30 7265 H 675.463 0.438224 3.71524 0
M  V30 7266 H 676.796 0.55701 4.89038 0
M  V30 7267 N 678.448 -1.51871 0.421078 0
M  V30 7268 C 679.411 -2.25914 -0.386712 0
M  V30 7269 C 680.411 -1.28733 -0.963555 0
M  V30 7270 O 681.601 -1.52579 -0.840556 0
M  V30 7271 C 678.733 -3.03853 -1.54551 0
M  V30 7272 H 679.926 -2.98754 0.261978 0
M  V30 7273 H 677.479 -1.5533 0.173862 0
M  V30 7274 H 678.214 -2.35392 -2.23072 0
M  V30 7275 H 677.999 -3.75215 -1.13824 0
M  V30 7276 H 679.489 -3.59984 -2.11663 0
M  V30 7277 N 679.926 -0.151884 -1.56866 0
M  V30 7278 C 680.856 0.781943 -2.20018 0
M  V30 7279 C 681.837 1.25347 -1.14987 0
M  V30 7280 O 683.022 1.31015 -1.43348 0
M  V30 7281 C 680.152 2.01928 -2.82564 0
M  V30 7282 C 679.106 1.68434 -3.93464 0
M  V30 7283 C 678.432 2.99472 -4.42968 0
M  V30 7284 C 679.732 0.927244 -5.14003 0
M  V30 7285 H 681.426 0.255607 -2.98307 0
M  V30 7286 H 678.972 0.121502 -1.43486 0
M  V30 7287 H 680.925 2.67741 -3.25411 0
M  V30 7288 H 679.649 2.56943 -2.01614 0
M  V30 7289 H 678.308 1.04998 -3.51242 0
M  V30 7290 H 677.956 3.52488 -3.58834 0
M  V30 7291 H 677.656 2.77823 -5.17772 0
M  V30 7292 H 679.18 3.66348 -4.88489 0
M  V30 7293 H 680.594 1.48756 -5.53665 0
M  V30 7294 H 678.991 0.810513 -5.94601 0
M  V30 7295 H 680.061 -0.0801163 -4.84834 0
M  V30 7296 N 681.404 1.57128 0.121893 0
M  V30 7297 C 682.351 2.0013 1.14964 0
M  V30 7298 C 683.321 0.872959 1.4131 0
M  V30 7299 O 684.506 1.13696 1.53225 0
M  V30 7300 C 681.646 2.40824 2.4718 0
M  V30 7301 C 680.759 3.67061 2.27794 0
M  V30 7302 C 679.894 3.96749 3.53219 0
M  V30 7303 C 678.933 5.16178 3.28978 0
M  V30 7304 N 678.07 5.41751 4.46599 0
M  V30 7305 H 682.91 2.8772 0.775947 0
M  V30 7306 H 680.447 1.42328 0.371652 0
M  V30 7307 H 682.405 2.62454 3.24305 0
M  V30 7308 H 681.035 1.56279 2.82448 0
M  V30 7309 H 680.087 3.53063 1.416 0
M  V30 7310 H 681.399 4.5434 2.05857 0
M  V30 7311 H 680.553 4.19012 4.38764 0
M  V30 7312 H 679.292 3.07941 3.78185 0
M  V30 7313 H 678.297 4.93762 2.41824 0
M  V30 7314 H 679.522 6.06561 3.05386 0
M  V30 7315 H 677.468 4.55899 4.71691 0
M  V30 7316 H 677.385 6.23347 4.27756 0
M  V30 7317 H 678.653 5.68531 5.33285 0
M  V30 7318 N 682.882 -0.391992 1.52647 0
M  V30 7319 C 683.845 -1.46135 1.7657 0
M  V30 7320 C 684.845 -1.47701 0.635698 0
M  V30 7321 O 686.035 -1.48924 0.903728 0
M  V30 7322 C 683.167 -2.85443 1.86374 0
M  V30 7323 H 684.36 -1.26208 2.72051 0
M  V30 7324 H 681.913 -0.623549 1.43323 0
M  V30 7325 H 682.648 -3.10718 0.928685 0
M  V30 7326 H 682.433 -2.85708 2.68539 0
M  V30 7327 H 683.923 -3.62933 2.06566 0
M  V30 7328 N 684.36 -1.4356 -0.65026 0
M  V30 7329 C 685.606 -1.45549 -1.41221 0
M  V30 7330 C 685.939 -0.0805472 -1.94033 0
M  V30 7331 O 685.214 0.899043 -1.72475 0
M  V30 7332 C 685.497 -2.50028 -2.59148 0
M  V30 7333 C 685.35 -3.96808 -2.1181 0
M  V30 7334 C 686.669 -2.51212 -3.61359 0
M  V30 7335 H 683.788 -0.529967 -0.512156 0
M  V30 7336 H 686.43 -1.75127 -0.736933 0
M  V30 7337 H 684.58 -2.24937 -3.16758 0
M  V30 7338 H 686.252 -4.32966 -1.59178 0
M  V30 7339 H 684.495 -4.09498 -1.43156 0
M  V30 7340 H 685.166 -4.6553 -2.96625 0
M  V30 7341 H 687.642 -2.73583 -3.13515 0
M  V30 7342 H 686.518 -3.26252 -4.41419 0
M  V30 7343 H 686.779 -1.54701 -4.1415 0
M  V30 7344 N 685.838 0.888903 -1.30139 0
M  V30 7345 C 686.768 2.01046 -1.18755 0
M  V30 7346 C 687.749 1.69916 -0.0791438 0
M  V30 7347 O 688.934 1.92445 -0.260498 0
M  V30 7348 C 686.064 3.36109 -0.874518 0
M  V30 7349 C 685.018 3.81486 -1.94043 0
M  V30 7350 C 684.344 5.13796 -1.48047 0
M  V30 7351 C 685.644 4.00637 -3.35093 0
M  V30 7352 H 687.338 2.10828 -2.12584 0
M  V30 7353 H 684.884 1.01298 -1.02346 0
M  V30 7354 H 686.837 4.14089 -0.781548 0
M  V30 7355 H 685.561 3.26449 0.0994519 0
M  V30 7356 H 684.22 3.05731 -2.02297 0
M  V30 7357 H 683.868 5.0056 -0.494878 0
M  V30 7358 H 683.568 5.45127 -2.19341 0
M  V30 7359 H 685.092 5.94305 -1.40121 0
M  V30 7360 H 686.506 4.69067 -3.2962 0
M  V30 7361 H 684.903 4.43339 -4.04438 0
M  V30 7362 H 685.973 3.0462 -3.77273 0
M  V30 7363 N 687.317 1.12792 1.10072 0
M  V30 7364 C 688.247 0.821688 2.18565 0
M  V30 7365 C 689.228 -0.21612 1.68721 0
M  V30 7366 O 690.413 -0.0764932 1.94049 0
M  V30 7367 C 687.543 0.279624 3.46172 0
M  V30 7368 C 686.497 1.25092 4.09312 0
M  V30 7369 C 685.823 0.568916 5.31665 0
M  V30 7370 C 687.123 2.60699 4.52585 0
M  V30 7371 H 688.817 1.72888 2.44438 0
M  V30 7372 H 686.363 0.832702 1.17482 0
M  V30 7373 H 688.316 0.053099 4.21367 0
M  V30 7374 H 687.04 -0.662929 3.19801 0
M  V30 7375 H 685.699 1.46332 3.36129 0
M  V30 7376 H 685.347 -0.378898 5.01571 0
M  V30 7377 H 685.047 1.21687 5.74862 0
M  V30 7378 H 686.571 0.351517 6.09587 0
M  V30 7379 H 687.985 2.43465 5.19035 0
M  V30 7380 H 686.382 3.21608 5.06644 0
M  V30 7381 H 687.452 3.1886 3.65317 0
M  V30 7382 N 688.795 -1.27931 0.920396 0
M  V30 7383 C 689.725 -2.29487 0.431024 0
M  V30 7384 C 690.706 -1.62435 -0.504861 0
M  V30 7385 O 691.891 -1.89797 -0.411176 0
M  V30 7386 C 689.021 -3.45788 -0.323709 0
M  V30 7387 C 687.975 -4.24784 0.523658 0
M  V30 7388 C 687.301 -5.33488 -0.359809 0
M  V30 7389 C 688.601 -4.90874 1.78437 0
M  V30 7390 H 690.295 -2.70671 1.27975 0
M  V30 7391 H 687.841 -1.30121 0.616813 0
M  V30 7392 H 689.794 -4.15927 -0.676952 0
M  V30 7393 H 688.518 -3.03502 -1.2064 0
M  V30 7394 H 687.177 -3.56382 0.85951 0
M  V30 7395 H 686.825 -4.87445 -1.24124 0
M  V30 7396 H 686.525 -5.87247 0.203605 0
M  V30 7397 H 688.049 -6.06472 -0.708787 0
M  V30 7398 H 689.463 -5.53339 1.49963 0
M  V30 7399 H 687.86 -5.54659 2.29071 0
M  V30 7400 H 688.93 -4.14988 2.50824 0
M  V30 7401 N 690.273 -0.685099 -1.4193 0
M  V30 7402 C 691.205 0.0258679 -2.29185 0
M  V30 7403 C 692.218 0.755076 -1.44231 0
M  V30 7404 O 693.407 0.60752 -1.67844 0
M  V30 7405 C 690.507 1.06055 -3.21878 0
M  V30 7406 C 689.68 0.403088 -4.35539 0
M  V30 7407 C 688.739 1.33895 -5.0888 0
M  V30 7408 O 687.765 0.835326 -5.63037 0
M  V30 7409 N 688.967 2.6718 -5.15359 0
M  V30 7410 H 691.732 -0.723201 -2.90843 0
M  V30 7411 H 689.293 -0.53031 -1.52968 0
M  V30 7412 H 691.285 1.68813 -3.6781 0
M  V30 7413 H 689.855 1.71126 -2.616 0
M  V30 7414 H 689.075 -0.404185 -3.92122 0
M  V30 7415 H 690.363 -0.0545098 -5.08771 0
M  V30 7416 H 689.761 3.10626 -4.72788 0
M  V30 7417 H 688.318 3.25159 -5.64903 0
M  V30 7418 N 691.751 1.51645 -0.429126 0
M  V30 7419 C 692.661 2.31288 0.392809 0
M  V30 7420 C 693.677 1.39852 1.03525 0
M  V30 7421 O 694.853 1.72926 1.03241 0
M  V30 7422 C 691.918 3.13347 1.48372 0
M  V30 7423 C 690.979 4.20551 0.862268 0
M  V30 7424 C 690.212 4.98688 1.9012 0
M  V30 7425 O 690.435 4.77359 3.12225 0
M  V30 7426 O 689.369 5.83005 1.4963 0
M  V30 7427 H 693.195 3.02609 -0.257138 0
M  V30 7428 H 690.78 1.48163 -0.191851 0
M  V30 7429 H 692.662 3.64387 2.1166 0
M  V30 7430 H 691.337 2.44799 2.1179 0
M  V30 7431 H 690.244 3.73609 0.191568 0
M  V30 7432 H 691.577 4.91449 0.271704 0
M  V30 7433 N 693.229 0.160201 1.56784 0
M  V30 7434 C 694.176 -0.774416 2.1742 0
M  V30 7435 C 695.146 -1.23483 1.11091 0
M  V30 7436 O 696.331 -1.30499 1.39193 0
M  V30 7437 C 693.471 -2.00283 2.81035 0
M  V30 7438 C 692.584 -1.58701 4.01793 0
M  V30 7439 C 691.719 -2.76824 4.53367 0
M  V30 7440 C 690.758 -2.31679 5.66561 0
M  V30 7441 N 689.895 -3.42856 6.12694 0
M  V30 7442 H 694.735 -0.250542 2.96945 0
M  V30 7443 H 692.272 -0.111943 1.46673 0
M  V30 7444 H 694.23 -2.72316 3.16069 0
M  V30 7445 H 692.86 -2.5006 2.04132 0
M  V30 7446 H 691.912 -0.76384 3.72652 0
M  V30 7447 H 693.224 -1.21555 4.83762 0
M  V30 7448 H 692.378 -3.57029 4.90525 0
M  V30 7449 H 691.117 -3.17223 3.70433 0
M  V30 7450 H 690.122 -1.49917 5.28966 0
M  V30 7451 H 691.347 -1.9235 6.5129 0
M  V30 7452 H 689.293 -3.82852 5.32692 0
M  V30 7453 H 689.21 -3.09767 6.89624 0
M  V30 7454 H 690.478 -4.23379 6.545 0
M  V30 7455 N 694.707 -1.5719 -0.113559 0
M  V30 7456 C 695.947 -1.86958 -0.82621 0
M  V30 7457 C 696.311 -0.748884 -1.76793 0
M  V30 7458 O 697.512 -0.92847 -2.52256 0
M  V30 7459 C 695.783 -3.21957 -1.55173 0
M  V30 7460 S 697.342 -3.73371 -2.3052 0
M  V30 7461 H 694.16 -0.655394 -0.275643 0
M  V30 7462 H 696.762 -1.95318 -0.0842684 0
M  V30 7463 H 695.466 -4.01459 -0.851977 0
M  V30 7464 H 694.997 -3.16688 -2.33393 0
M  V30 7465 H 697.012 -3.45308 -3.56338 0
M  V30 7466 N 696.185 0.383891 -1.52853 0
M  V30 7467 C 697.596 0.961591 -1.60032 0
M  V30 7468 C 697.947 1.90819 -0.456333 0
M  V30 7469 O 697.072 2.12288 0.419873 0
M  V30 7470 C 697.667 1.75078 -2.90057 0
M  V30 7471 C 696.226 2.2781 -2.99632 0
M  V30 7472 C 695.373 1.08512 -2.55187 0
M  V30 7473 H 698.324 0.163269 -1.57858 0
M  V30 7474 H 698.345 2.61046 -2.7683 0
M  V30 7475 H 697.857 1.06157 -3.73299 0
M  V30 7476 H 695.958 3.00028 -2.20939 0
M  V30 7477 H 696.071 2.56947 -4.0437 0
M  V30 7478 H 694.435 1.44667 -2.09627 0
M  V30 7479 H 695.218 0.41118 -3.40829 0
M  V30 7480 N 697.663 1.43903 0.642637 0
M  V30 7481 C 698.613 1.46321 1.74854 0
M  V30 7482 C 699.597 0.330361 1.57472 0
M  V30 7483 O 700.789 0.574881 1.67404 0
M  V30 7484 C 697.918 1.39919 3.13493 0
M  V30 7485 C 697.004 2.58274 3.36385 0
M  V30 7486 N 697.395 3.83578 3.29699 0
M  V30 7487 C 695.693 2.53224 3.67142 0
M  V30 7488 C 696.394 4.62375 3.52965 0
M  V30 7489 N 695.37 3.93269 3.75287 0
M  V30 7490 H 699.172 2.41062 1.68126 0
M  V30 7491 H 696.686 1.38704 0.844693 0
M  V30 7492 H 698.683 1.39735 3.92785 0
M  V30 7493 H 697.343 0.46207 3.21395 0
M  V30 7494 H 698.354 4.15713 3.08874 0
M  V30 7495 H 695.031 1.68252 3.82096 0
M  V30 7496 H 696.421 5.714 3.53485 0
M  V30 7497 N 699.141 -0.881989 1.30609 0
M  V30 7498 C 700.387 -1.63647 1.19781 0
M  V30 7499 C 700.72 -1.92632 -0.246265 0
M  V30 7500 O 699.995 -1.54938 -1.17577 0
M  V30 7501 C 700.278 -2.97437 2.02985 0
M  V30 7502 C 700.131 -2.75406 3.55628 0
M  V30 7503 C 701.45 -3.98397 1.86997 0
M  V30 7504 H 698.569 -0.593841 0.436488 0
M  V30 7505 H 701.211 -1.02041 1.60273 0
M  V30 7506 H 699.361 -3.50018 1.68581 0
M  V30 7507 H 701.033 -2.2959 4.00107 0
M  V30 7508 H 699.276 -2.09856 3.79662 0
M  V30 7509 H 699.947 -3.70552 4.09139 0
M  V30 7510 H 702.423 -3.54986 2.17081 0
M  V30 7511 H 701.299 -4.89916 2.47536 0
M  V30 7512 H 701.56 -4.3424 0.829943 0
M  V30 7513 N 700.619 -1.13374 -1.09472 0
M  V30 7514 C 701.847 -0.918351 -1.85402 0
M  V30 7515 C 702.262 0.53281 -1.81126 0
M  V30 7516 O 701.619 1.36879 -1.20708 0
M  V30 7517 C 701.67 -1.39743 -3.33398 0
M  V30 7518 O 701.391 -2.79172 -3.37631 0
M  V30 7519 C 702.892 -1.22042 -4.2617 0
M  V30 7520 H 700.112 -0.327511 -0.585643 0
M  V30 7521 H 702.656 -1.50617 -1.38328 0
M  V30 7522 H 700.811 -0.852619 -3.77901 0
M  V30 7523 H 701.225 -3.00428 -4.29934 0
M  V30 7524 H 702.699 -1.60438 -5.2817 0
M  V30 7525 H 703.176 -0.162047 -4.38901 0
M  V30 7526 H 703.782 -1.75323 -3.87482 0
M  V30 7527 N 702.098 1.27442 -0.927168 0
M  V30 7528 C 703.008 2.30599 -0.431448 0
M  V30 7529 C 704.024 1.67028 0.48761 0
M  V30 7530 O 705.2 1.97962 0.370546 0
M  V30 7531 C 702.265 3.45327 0.308292 0
M  V30 7532 C 701.326 4.24418 -0.645615 0
M  V30 7533 C 700.559 5.33667 0.0589164 0
M  V30 7534 O 700.782 5.5589 1.27838 0
M  V30 7535 O 699.716 5.98774 -0.612638 0
M  V30 7536 H 703.542 2.75036 -1.28797 0
M  V30 7537 H 701.127 1.32382 -0.692495 0
M  V30 7538 H 703.009 4.15107 0.725555 0
M  V30 7539 H 701.684 3.02945 1.14043 0
M  V30 7540 H 700.591 3.57174 -1.11255 0
M  V30 7541 H 701.924 4.70512 -1.44496 0
M  V30 7542 N 703.576 0.692616 1.41565 0
M  V30 7543 C 704.526 0.00231847 2.28 0
M  V30 7544 C 705.51 -0.755793 1.42044 0
M  V30 7545 O 706.702 -0.631772 1.65341 0
M  V30 7546 C 703.831 -0.935468 3.30309 0
M  V30 7547 C 702.917 -0.173761 4.23744 0
M  V30 7548 N 703.308 0.830872 4.98929 0
M  V30 7549 C 701.606 -0.409666 4.44115 0
M  V30 7550 C 702.307 1.28656 5.67294 0
M  V30 7551 N 701.283 0.613053 5.40132 0
M  V30 7552 H 705.085 0.772635 2.83562 0
M  V30 7553 H 702.599 0.523198 1.53741 0
M  V30 7554 H 704.596 -1.44513 3.91052 0
M  V30 7555 H 703.256 -1.70542 2.76307 0
M  V30 7556 H 704.267 1.21101 5.03542 0
M  V30 7557 H 700.944 -1.15773 4.01127 0
M  V30 7558 H 702.334 2.12006 6.37576 0
M  V30 7559 N 705.054 -1.51416 0.437162 0
M  V30 7560 C 706.303 -2.01275 -0.130865 0
M  V30 7561 C 706.616 -1.32593 -1.438 0
M  V30 7562 O 707.822 -1.7342 -2.08897 0
M  V30 7563 C 706.278 -3.5878 -0.283763 0
M  V30 7564 C 705.886 -4.36399 1.01293 0
M  V30 7565 C 707.63 -4.16786 -0.805569 0
M  V30 7566 C 705.537 -5.85608 0.825687 0
M  V30 7567 H 704.467 -0.752157 -0.0526818 0
M  V30 7568 H 707.118 -1.74524 0.566896 0
M  V30 7569 H 705.5 -3.81976 -1.04452 0
M  V30 7570 H 706.674 -4.24948 1.78201 0
M  V30 7571 H 704.989 -3.89843 1.46326 0
M  V30 7572 H 707.586 -5.25972 -0.962146 0
M  V30 7573 H 707.929 -3.75949 -1.78796 0
M  V30 7574 H 708.462 -3.97666 -0.103125 0
M  V30 7575 H 705.201 -6.30857 1.78045 0
M  V30 7576 H 704.721 -5.99723 0.0964029 0
M  V30 7577 H 706.4 -6.45226 0.478815 0
M  V30 7578 N 706.532 -0.168513 -1.56696 0
M  V30 7579 C 707.943 0.348694 -1.83415 0
M  V30 7580 C 708.294 1.63257 -1.0882 0
M  V30 7581 O 707.419 2.13707 -0.340333 0
M  V30 7582 C 708.014 0.639423 -3.32711 0
M  V30 7583 C 706.573 1.10108 -3.59935 0
M  V30 7584 C 705.72 0.135464 -2.76969 0
M  V30 7585 H 708.671 -0.392829 -1.53761 0
M  V30 7586 H 708.692 1.49179 -3.50037 0
M  V30 7587 H 708.204 -0.295173 -3.86976 0
M  V30 7588 H 706.305 2.05088 -3.11079 0
M  V30 7589 H 706.418 1.01218 -4.68286 0
M  V30 7590 H 704.782 0.632286 -2.46727 0
M  V30 7591 H 705.565 -0.793104 -3.34013 0
M  V30 7592 N 708.01 1.57248 0.105221 0
M  V30 7593 C 709.426 1.52853 0.459153 0
M  V30 7594 C 709.626 0.883674 1.8109 0
M  V30 7595 O 708.682 0.471864 2.48052 0
M  V30 7596 C 709.995 2.97596 0.43096 0
M  V30 7597 C 711.543 3.08758 0.513536 0
M  V30 7598 C 712.018 4.55089 0.515593 0
M  V30 7599 N 713.509 4.59597 0.576639 0
M  V30 7600 C 714.244 5.70253 0.599904 0
M  V30 7601 N 713.74 6.90368 0.579985 0
M  V30 7602 N 715.533 5.58399 0.643953 0
M  V30 7603 H 707.684 1.97547 -0.780306 0
M  V30 7604 H 709.947 0.902758 -0.289363 0
M  V30 7605 H 709.653 3.48201 -0.494903 0
M  V30 7606 H 709.527 3.55756 1.2537 0
M  V30 7607 H 711.914 2.58148 1.42982 0
M  V30 7608 H 711.995 2.53568 -0.337148 0
M  V30 7609 H 711.639 5.06348 -0.396701 0
M  V30 7610 H 711.569 5.08105 1.38335 0
M  V30 7611 H 714.06 3.73144 0.597639 0
M  V30 7612 H 714.373 7.70462 0.600741 0
M  V30 7613 H 712.718 6.92843 0.547191 0
M  V30 7614 H 715.909 4.63467 0.656975 0
M  V30 7615 H 716.082 6.44644 0.658616 0
M  V30 7616 N 709.488 -0.375779 1.53054 0
M  V30 7617 C 710.398 -1.48381 1.81715 0
M  V30 7618 C 711.414 -1.59087 0.704795 0
M  V30 7619 O 712.59 -1.75174 0.993785 0
M  V30 7620 C 709.655 -2.83767 1.99192 0
M  V30 7621 C 708.716 -2.82673 3.23102 0
M  V30 7622 C 707.949 -4.11601 3.39736 0
M  V30 7623 O 708.172 -5.07243 2.60885 0
M  V30 7624 O 707.106 -4.18034 4.33049 0
M  V30 7625 H 710.932 -1.27089 2.7583 0
M  V30 7626 H 708.517 -0.564902 1.38308 0
M  V30 7627 H 710.399 -3.64004 2.12318 0
M  V30 7628 H 709.074 -3.05057 1.08267 0
M  V30 7629 H 707.981 -2.0117 3.15407 0
M  V30 7630 H 709.314 -2.66335 4.13916 0
M  V30 7631 N 710.966 -1.44241 -0.634997 0
M  V30 7632 C 712.382 -1.28043 -0.952742 0
M  V30 7633 C 712.582 -0.21338 -2.00367 0
M  V30 7634 O 711.638 0.402042 -2.49279 0
M  V30 7635 C 712.951 -2.65076 -1.41968 0
M  V30 7636 C 714.499 -2.72755 -1.53537 0
M  V30 7637 C 714.974 -4.10249 -2.03616 0
M  V30 7638 N 716.465 -4.12406 -2.10892 0
M  V30 7639 C 717.2 -5.15641 -2.50803 0
M  V30 7640 N 716.696 -6.29239 -2.89879 0
M  V30 7641 N 718.489 -5.02995 -2.50903 0
M  V30 7642 H 710.64 -2.12315 0.060098 0
M  V30 7643 H 712.903 -0.947326 -0.0357325 0
M  V30 7644 H 712.609 -3.44213 -0.721804 0
M  V30 7645 H 712.483 -2.91704 -2.39141 0
M  V30 7646 H 714.87 -1.93939 -2.22422 0
M  V30 7647 H 714.951 -2.49872 -0.547496 0
M  V30 7648 H 714.595 -4.8954 -1.35327 0
M  V30 7649 H 714.525 -4.30507 -3.03268 0
M  V30 7650 H 717.016 -3.30417 -1.83393 0
M  V30 7651 H 717.329 -7.03827 -3.19135 0
M  V30 7652 H 715.674 -6.32683 -2.8764 0
M  V30 7653 H 718.865 -4.13306 -2.19763 0
M  V30 7654 H 719.038 -5.83574 -2.81683 0
M  V30 7655 N 712.444 0.87505 -1.31075 0
M  V30 7656 C 713.374 1.99775 -1.20881 0
M  V30 7657 C 714.355 1.69822 -0.0971612 0
M  V30 7658 O 715.54 1.92158 -0.280895 0
M  V30 7659 C 712.67 3.35163 -0.910118 0
M  V30 7660 C 711.624 3.79406 -1.98078 0
M  V30 7661 C 710.95 5.12197 -1.53488 0
M  V30 7662 C 712.25 3.97061 -3.39323 0
M  V30 7663 H 713.944 2.08562 -2.14808 0
M  V30 7664 H 711.49 1.00207 -1.03415 0
M  V30 7665 H 713.443 4.13237 -0.825423 0
M  V30 7666 H 712.167 3.26536 0.064822 0
M  V30 7667 H 710.826 3.03568 -2.05528 0
M  V30 7668 H 710.474 5.00007 -0.547941 0
M  V30 7669 H 710.174 5.4277 -2.2511 0
M  V30 7670 H 711.698 5.92785 -1.46417 0
M  V30 7671 H 713.112 4.65545 -3.34576 0
M  V30 7672 H 711.509 4.39025 -4.09118 0
M  V30 7673 H 712.579 3.00601 -3.80483 0
M  V30 7674 N 713.922 1.13953 1.08869 0
M  V30 7675 C 715.162 0.915128 1.8277 0
M  V30 7676 C 715.526 -0.548647 1.83994 0
M  V30 7677 O 716.727 -0.890817 2.5361 0
M  V30 7678 C 714.998 1.49382 3.24684 0
M  V30 7679 S 716.557 1.4103 4.15519 0
M  V30 7680 H 713.375 0.329716 0.629927 0
M  V30 7681 H 715.977 1.45213 1.30895 0
M  V30 7682 H 714.681 2.55241 3.21372 0
M  V30 7683 H 714.212 0.955008 3.81632 0
M  V30 7684 H 716.227 0.392617 4.94644 0
M  V30 7685 N 715.4 -1.26948 0.933913 0
M  V30 7686 C 716.677 -1.89212 0.495784 0
M  V30 7687 C 717.057 -1.84469 -1.02637 0
M  V30 7688 O 716.405 -1.29409 -1.88323 0
M  V30 7689 C 716.615 -3.32865 1.0489 0
M  V30 7690 C 717.963 -4.09749 1.11315 0
M  V30 7691 O 718.987 -3.41905 0.998966 0
M  V30 7692 O 717.846 -5.31061 1.28983 0
M  V30 7693 H 714.94 -0.811284 0.160459 0
M  V30 7694 H 717.486 -1.35171 1.02601 0
M  V30 7695 H 716.258 -3.30642 2.09265 0
M  V30 7696 H 715.881 -3.94435 0.500692 0
M  V30 7697 N 716.879 -0.700114 -1.41195 0
M  V30 7698 C 717.842 -0.0465706 -2.29153 0
M  V30 7699 C 718.842 0.703302 -1.44604 0
M  V30 7700 O 720.032 0.537513 -1.657 0
M  V30 7701 C 717.164 0.944324 -3.2756 0
M  V30 7702 H 718.357 -0.821064 -2.88442 0
M  V30 7703 H 715.91 -0.463869 -1.49258 0
M  V30 7704 H 716.645 1.74642 -2.73259 0
M  V30 7705 H 716.43 0.409701 -3.89954 0
M  V30 7706 H 717.92 1.39925 -3.9346 0
M  V30 7707 N 718.357 1.51182 -0.445186 0
M  V30 7708 C 719.603 2.02452 0.11882 0
M  V30 7709 C 719.936 1.32824 1.41673 0
M  V30 7710 O 719.211 0.445637 1.89326 0
M  V30 7711 C 719.494 3.5859 0.329475 0
M  V30 7712 C 719.347 4.38823 -0.987638 0
M  V30 7713 C 720.666 4.26241 1.09575 0
M  V30 7714 H 717.785 0.735819 0.0417092 0
M  V30 7715 H 720.427 1.80747 -0.585718 0
M  V30 7716 H 718.577 3.77214 0.9296 0
M  V30 7717 H 720.249 4.3183 -1.62235 0
M  V30 7718 H 718.492 4.03594 -1.59041 0
M  V30 7719 H 719.163 5.46257 -0.794192 0
M  V30 7720 H 721.639 4.11934 0.587328 0
M  V30 7721 H 720.515 5.35354 1.21191 0
M  V30 7722 H 720.776 3.87635 2.12584 0
M  V30 7723 N 719.835 0.176821 1.56605 0
M  V30 7724 C 720.798 -0.737429 2.17013 0
M  V30 7725 C 721.798 -1.15414 1.11965 0
M  V30 7726 O 722.988 -1.0702 1.37449 0
M  V30 7727 C 720.12 -2.00445 2.75744 0
M  V30 7728 H 721.313 -0.211455 2.99154 0
M  V30 7729 H 718.866 -0.0727582 1.56131 0
M  V30 7730 H 719.601 -2.57338 1.97352 0
M  V30 7731 H 719.386 -1.71456 3.52626 0
M  V30 7732 H 720.876 -2.65679 3.22187 0
M  V30 7733 N 721.313 -1.57302 -0.09688 0
M  V30 7734 C 722.559 -1.86273 -0.801885 0
M  V30 7735 C 722.892 -0.765694 -1.78468 0
M  V30 7736 O 722.167 0.226495 -1.93177 0
M  V30 7737 C 722.45 -3.25876 -1.53221 0
M  V30 7738 C 722.303 -4.46205 -0.567529 0
M  V30 7739 C 723.622 -3.63352 -2.48321 0
M  V30 7740 H 720.741 -0.67752 -0.29006 0
M  V30 7741 H 723.383 -1.89887 -0.0655577 0
M  V30 7742 H 721.533 -3.22926 -2.15988 0
M  V30 7743 H 723.205 -4.6127 0.0529982 0
M  V30 7744 H 721.448 -4.33636 0.119233 0
M  V30 7745 H 722.119 -5.40608 -1.11564 0
M  V30 7746 H 724.595 -3.67234 -1.95648 0
M  V30 7747 H 723.471 -4.61968 -2.9644 0
M  V30 7748 H 723.732 -2.91941 -3.31998 0
M  V30 7749 N 722.791 0.367657 -1.53252 0
M  V30 7750 C 723.721 1.45632 -1.8252 0
M  V30 7751 C 724.702 1.55979 -0.678568 0
M  V30 7752 O 725.887 1.70581 -0.928217 0
M  V30 7753 C 723.017 2.82994 -2.01325 0
M  V30 7754 C 721.971 2.87473 -3.17086 0
M  V30 7755 C 721.297 4.2749 -3.21179 0
M  V30 7756 C 722.597 2.55182 -4.55719 0
M  V30 7757 H 724.291 1.21387 -2.73689 0
M  V30 7758 H 721.837 0.58251 -1.31692 0
M  V30 7759 H 723.79 3.59179 -2.20383 0
M  V30 7760 H 722.514 3.08622 -1.06864 0
M  V30 7761 H 721.173 2.13739 -2.97844 0
M  V30 7762 H 720.821 4.5019 -2.24361 0
M  V30 7763 H 720.521 4.31403 -3.98955 0
M  V30 7764 H 722.045 5.0555 -3.42419 0
M  V30 7765 H 723.459 3.21081 -4.74953 0
M  V30 7766 H 721.856 2.70414 -5.3572 0
M  V30 7767 H 722.926 1.5044 -4.60973 0
M  V30 7768 N 724.269 1.44576 0.627338 0
M  V30 7769 C 725.199 1.54562 1.75022 0
M  V30 7770 C 726.18 0.398378 1.65369 0
M  V30 7771 O 727.365 0.61899 1.84071 0
M  V30 7772 C 724.495 1.49309 3.13567 0
M  V30 7773 C 723.449 2.62549 3.38012 0
M  V30 7774 C 722.775 2.42348 4.76625 0
M  V30 7775 C 724.075 4.04678 3.30202 0
M  V30 7776 H 725.769 2.4855 1.66922 0
M  V30 7777 H 723.315 1.19624 0.801636 0
M  V30 7778 H 725.268 1.54895 3.919 0
M  V30 7779 H 723.992 0.518392 3.2246 0
M  V30 7780 H 722.651 2.56358 2.62061 0
M  V30 7781 H 722.299 1.43062 4.82226 0
M  V30 7782 H 721.999 3.18273 4.93939 0
M  V30 7783 H 723.523 2.49758 5.57183 0
M  V30 7784 H 724.937 4.12217 3.98435 0
M  V30 7785 H 723.334 4.80836 3.5905 0
M  V30 7786 H 724.404 4.2798 2.27949 0
M  V30 7787 N 725.747 -0.868086 1.31537 0
M  V30 7788 C 726.695 -1.99688 1.1928 0
M  V30 7789 C 727.689 -1.69101 0.100656 0
M  V30 7790 O 728.895 -1.78073 0.262677 0
M  V30 7791 H 725.27 -0.655032 0.369374 0
M  V30 7792 H 727.241 -2.07157 2.14776 0
M  V30 7793 C 725.99 -3.35338 0.918892 0
M  V30 7794 H 725.313 -3.59396 1.75142 0
M  V30 7795 H 726.753 -4.14909 0.873311 0
M  V30 7796 C 725.212 -3.34769 -0.378366 0
M  V30 7797 O 725.742 -3.76716 -1.39456 0
M  V30 7798 N 723.948 -2.87895 -0.39557 0
M  V30 7799 H 723.495 -2.53954 0.431889 0
M  V30 7800 H 723.453 -2.87897 -1.26344 0
M  V30 7801 N 727.225 -1.14528 -1.08264 0
M  V30 7802 C 728.158 -0.777154 -2.14559 0
M  V30 7803 C 729.136 0.242165 -1.60787 0
M  V30 7804 O 730.32 0.130882 -1.88045 0
M  V30 7805 C 727.447 -0.154092 -3.38349 0
M  V30 7806 C 726.493 -1.14382 -4.10876 0
M  V30 7807 S 727.326 -2.68173 -4.63512 0
M  V30 7808 C 728.482 -2.0726 -5.90588 0
M  V30 7809 H 728.715 -1.67748 -2.45454 0
M  V30 7810 H 726.248 -0.966661 -1.20395 0
M  V30 7811 H 728.206 0.19897 -4.10018 0
M  V30 7812 H 726.867 0.723688 -3.05649 0
M  V30 7813 H 726.06 -0.655908 -4.99714 0
M  V30 7814 H 725.662 -1.44095 -3.45127 0
M  V30 7815 H 727.954 -1.42895 -6.62259 0
M  V30 7816 H 728.897 -2.94227 -6.44078 0
M  V30 7817 H 729.305 -1.51935 -5.43669 0
M  V30 7818 N 728.703 1.26451 -0.940633 0
M  V30 7819 C 730.119 1.4608 -0.642859 0
M  V30 7820 C 730.319 1.84765 0.803998 0
M  V30 7821 O 729.375 1.96902 1.58069 0
M  V30 7822 C 730.688 2.54359 -1.60381 0
M  V30 7823 C 732.236 2.6821 -1.61345 0
M  V30 7824 C 732.711 3.79659 -2.56169 0
M  V30 7825 N 734.202 3.87051 -2.54452 0
M  V30 7826 C 734.937 4.72739 -3.24507 0
M  V30 7827 N 734.433 5.6282 -4.03987 0
M  V30 7828 N 736.226 4.66581 -3.13462 0
M  V30 7829 H 728.377 0.996289 -1.87584 0
M  V30 7830 H 730.64 0.498921 -0.80609 0
M  V30 7831 H 730.346 2.32758 -2.6366 0
M  V30 7832 H 730.22 3.52005 -1.35545 0
M  V30 7833 H 732.607 2.89184 -0.587913 0
M  V30 7834 H 732.688 1.7101 -1.90235 0
M  V30 7835 H 732.332 3.59438 -3.58841 0
M  V30 7836 H 732.262 4.76315 -2.2457 0
M  V30 7837 H 734.753 3.22649 -1.96739 0
M  V30 7838 H 735.066 6.25095 -4.54396 0
M  V30 7839 H 733.411 5.62574 -4.08088 0
M  V30 7840 H 736.602 3.9521 -2.50852 0
M  V30 7841 H 736.775 5.33141 -3.68327 0
M  V30 7842 N 730.181 0.707592 1.40822 0
M  V30 7843 C 731.129 0.0386643 2.32568 0
M  V30 7844 C 732.123 -0.755653 1.51612 0
M  V30 7845 O 733.329 -0.659921 1.67467 0
M  V30 7846 H 729.704 -0.00629912 0.751974 0
M  V30 7847 H 731.675 0.8293 2.86645 0
M  V30 7848 C 730.424 -0.87496 3.36511 0
M  V30 7849 H 729.747 -0.273157 3.98866 0
M  V30 7850 H 731.187 -1.31111 4.03219 0
M  V30 7851 C 729.646 -1.99672 2.71353 0
M  V30 7852 O 730.176 -3.08676 2.57064 0
M  V30 7853 N 728.382 -1.77799 2.29861 0
M  V30 7854 H 727.929 -0.89147 2.41683 0
M  V30 7855 H 727.887 -2.53036 1.86601 0
M  V30 7856 N 731.66 -1.50943 0.453197 0
M  V30 7857 C 733.071 -1.86699 -0.00619892 0
M  V30 7858 C 733.422 -1.3693 -1.40515 0
M  V30 7859 O 732.547 -0.726715 -2.03833 0
M  V30 7860 C 733.142 -3.38795 -0.018025 0
M  V30 7861 C 731.701 -3.74028 -0.421885 0
M  V30 7862 C 730.848 -2.74752 0.375087 0
M  V30 7863 H 733.799 -1.43942 0.668317 0
M  V30 7864 H 733.82 -3.71468 -0.824125 0
M  V30 7865 H 733.332 -3.74988 1.00028 0
M  V30 7866 H 731.433 -3.43431 -1.44521 0
M  V30 7867 H 731.546 -4.78908 -0.135664 0
M  V30 7868 H 729.91 -2.5414 -0.168794 0
M  V30 7869 H 730.693 -3.13787 1.39256 0
M  V30 7870 N 733.138 -0.185124 -1.56509 0
M  V30 7871 C 734.415 0.503348 -1.89013 0
M  V30 7872 C 734.795 1.80349 -1.09715 0
M  V30 7873 O 734.143 2.27665 -0.195203 0
M  V30 7874 C 734.353 0.731839 -3.41241 0
M  V30 7875 C 735.701 1.05568 -4.11267 0
M  V30 7876 O 736.725 0.819906 -3.46635 0
M  V30 7877 O 735.584 1.50116 -5.25478 0
M  V30 7878 H 732.678 0.261139 -0.784688 0
M  V30 7879 H 735.224 -0.224592 -1.68207 0
M  V30 7880 H 733.996 -0.18672 -3.90854 0
M  V30 7881 H 733.619 1.5126 -3.67704 0
M  V30 7882 N 734.616 1.57351 0.0885366 0
M  V30 7883 C 735.864 1.86051 0.789262 0
M  V30 7884 C 736.185 0.774763 1.78948 0
M  V30 7885 O 735.455 -0.198324 1.94894 0
M  V30 7886 H 734.035 0.686508 0.294475 0
M  V30 7887 H 736.697 1.94779 0.0686055 0
M  V30 7888 H 735.793 2.83007 1.31581 0
M  V30 7889 N 736.094 -0.359525 1.53444 0
M  V30 7890 C 737.342 -1.09935 1.69584 0
M  V30 7891 C 737.663 -1.89656 0.453371 0
M  V30 7892 O 736.933 -1.8852 -0.53263 0
M  V30 7893 H 735.513 -0.408843 0.625185 0
M  V30 7894 H 738.175 -0.40467 1.90653 0
M  V30 7895 H 737.271 -1.78575 2.55964 0
M  V30 7896 N 737.572 -1.44907 -0.619662 0
M  V30 7897 C 738.819 -1.48292 -1.37898 0
M  V30 7898 C 739.147 -0.119933 -1.9413 0
M  V30 7899 O 738.402 0.879834 -1.74807 0
M  V30 7900 C 738.701 -2.50002 -2.55409 0
M  V30 7901 C 738.367 -3.95031 -2.17397 0
M  V30 7902 C 737.029 -4.34524 -2.06743 0
M  V30 7903 C 739.381 -4.86287 -1.87548 0
M  V30 7904 C 736.709 -5.63183 -1.64445 0
M  V30 7905 C 739.061 -6.15346 -1.4674 0
M  V30 7906 C 737.725 -6.53781 -1.34636 0
M  V30 7907 H 736.995 -0.542638 -0.504603 0
M  V30 7908 H 739.642 -1.78186 -0.701581 0
M  V30 7909 H 737.947 -2.13634 -3.28433 0
M  V30 7910 H 739.644 -2.49864 -3.13639 0
M  V30 7911 H 736.234 -3.63793 -2.26611 0
M  V30 7912 H 740.418 -4.56522 -1.94682 0
M  V30 7913 H 735.674 -5.91769 -1.53687 0
M  V30 7914 H 739.848 -6.85508 -1.22685 0
M  V30 7915 H 737.475 -7.53375 -1.01634 0
M  V30 7916 N 739.05 0.861098 -1.31996 0
M  V30 7917 C 740.013 1.95068 -1.20338 0
M  V30 7918 C 741.013 1.60289 -0.128114 0
M  V30 7919 O 742.203 1.70048 -0.378044 0
M  V30 7920 C 739.335 3.30153 -0.849205 0
M  V30 7921 H 740.528 2.06833 -2.17164 0
M  V30 7922 H 738.081 1.05049 -1.15734 0
M  V30 7923 H 738.816 3.24087 0.117508 0
M  V30 7924 H 738.601 3.56771 -1.62655 0
M  V30 7925 H 740.091 4.10025 -0.791782 0
M  V30 7926 N 740.528 1.15101 1.07655 0
M  V30 7927 C 741.756 0.947731 1.83918 0
M  V30 7928 C 742.171 -0.503927 1.81951 0
M  V30 7929 O 741.528 -1.34941 1.2287 0
M  V30 7930 C 741.579 1.4503 3.31132 0
M  V30 7931 O 741.3 2.84508 3.33146 0
M  V30 7932 C 742.801 1.28806 4.24174 0
M  V30 7933 H 740.021 0.336786 0.580358 0
M  V30 7934 H 742.565 1.52799 1.35914 0
M  V30 7935 H 740.72 0.912632 3.76497 0
M  V30 7936 H 741.134 3.0723 4.251 0
M  V30 7937 H 742.608 1.6882 5.25551 0
M  V30 7938 H 743.085 0.231851 4.38588 0
M  V30 7939 H 743.691 1.81465 3.84643 0
M  V30 7940 N 742.006 -1.2595 0.947325 0
M  V30 7941 C 743.236 -1.97258 0.614235 0
M  V30 7942 C 743.644 -1.70682 -0.816355 0
M  V30 7943 O 742.987 -0.97527 -1.55673 0
M  V30 7944 C 743.049 -3.50845 0.784081 0
M  V30 7945 C 742.713 -4.01084 2.19045 0
M  V30 7946 C 743.71 -4.12347 3.16648 0
M  V30 7947 C 741.395 -4.34936 2.51268 0
M  V30 7948 C 743.389 -4.56766 4.44572 0
M  V30 7949 C 741.076 -4.79043 3.79422 0
M  V30 7950 C 742.074 -4.89919 4.75887 0
M  V30 7951 O 741.762 -5.3305 6.01758 0
M  V30 7952 H 741.494 -0.635738 0.22981 0
M  V30 7953 H 744.048 -1.61268 1.27207 0
M  V30 7954 H 742.278 -3.86638 0.069101 0
M  V30 7955 H 743.967 -4.03363 0.453135 0
M  V30 7956 H 744.733 -3.86432 2.93079 0
M  V30 7957 H 740.612 -4.25702 1.76916 0
M  V30 7958 H 744.156 -4.6517 5.19868 0
M  V30 7959 H 740.053 -5.04402 4.02802 0
M  V30 7960 H 740.821 -5.51255 6.05029 0
M  V30 7961 N 743.484 -0.715051 -1.40445 0
M  V30 7962 C 744.394 -0.0631624 -2.34515 0
M  V30 7963 C 745.41 0.744397 -1.57273 0
M  V30 7964 O 746.586 0.677475 -1.89663 0
M  V30 7965 C 743.651 0.847915 -3.36172 0
M  V30 7966 C 742.712 0.0303655 -4.29289 0
M  V30 7967 C 741.945 0.898051 -5.2609 0
M  V30 7968 O 742.168 2.13729 -5.28844 0
M  V30 7969 O 741.102 0.337328 -6.00954 0
M  V30 7970 H 744.928 -0.839078 -2.91879 0
M  V30 7971 H 742.513 -0.475527 -1.4163 0
M  V30 7972 H 744.395 1.3698 -3.98515 0
M  V30 7973 H 743.07 1.60299 -2.81222 0
M  V30 7974 H 741.977 -0.536573 -3.70232 0
M  V30 7975 H 743.31 -0.686474 -4.87389 0
M  V30 7976 N 744.962 1.50701 -0.461195 0
M  V30 7977 C 746.19 2.06681 0.0951756 0
M  V30 7978 C 746.605 1.32615 1.34382 0
M  V30 7979 O 745.962 0.392531 1.78229 0
M  V30 7980 C 746.013 3.59354 0.393316 0
M  V30 7981 O 745.734 4.30626 -0.805797 0
M  V30 7982 C 747.235 4.31926 0.997744 0
M  V30 7983 H 744.455 0.670995 -0.00267259 0
M  V30 7984 H 746.999 1.93991 -0.647137 0
M  V30 7985 H 745.154 3.7188 1.08555 0
M  V30 7986 H 745.568 5.21667 -0.544409 0
M  V30 7987 H 747.042 5.39756 1.15619 0
M  V30 7988 H 747.519 3.91772 1.98523 0
M  V30 7989 H 748.125 4.23905 0.344188 0
M  V30 7990 N 746.441 0.193421 1.56409 0
M  V30 7991 C 747.388 -0.728124 2.19014 0
M  V30 7992 C 748.358 -1.21098 1.13686 0
M  V30 7993 O 749.543 -1.27517 1.4193 0
M  V30 7994 C 746.683 -1.94277 2.8522 0
M  V30 7995 C 745.796 -1.50143 4.05069 0
M  V30 7996 C 744.931 -2.67145 4.59137 0
M  V30 7997 C 743.97 -2.19609 5.71348 0
M  V30 7998 N 743.107 -3.29782 6.19829 0
M  V30 7999 H 747.947 -0.187499 2.9741 0
M  V30 8000 H 745.484 -0.0808064 1.46878 0
M  V30 8001 H 747.442 -2.65551 3.21774 0
M  V30 8002 H 746.072 -2.45673 2.09391 0
M  V30 8003 H 745.124 -0.684624 3.74189 0
M  V30 8004 H 746.436 -1.11266 4.86232 0
M  V30 8005 H 745.59 -3.46544 4.97988 0
M  V30 8006 H 744.329 -3.09295 3.77078 0
M  V30 8007 H 743.334 -1.38664 5.32027 0
M  V30 8008 H 744.559 -1.78492 6.55223 0
M  V30 8009 H 742.505 -3.71466 5.40693 0
M  V30 8010 H 742.422 -2.95069 6.96039 0
M  V30 8011 H 743.69 -4.094 6.63334 0
M  V30 8012 N 747.919 -1.57396 -0.0801906 0
M  V30 8013 C 749.335 -1.53564 -0.434778 0
M  V30 8014 C 749.535 -0.912372 -1.79661 0
M  V30 8015 O 748.591 -0.511268 -2.4727 0
M  V30 8016 C 749.904 -2.98244 -0.383561 0
M  V30 8017 C 751.452 -3.09536 -0.46435 0
M  V30 8018 C 751.927 -4.55851 -0.443128 0
M  V30 8019 N 753.418 -4.60456 -0.503448 0
M  V30 8020 C 754.153 -5.71135 -0.509106 0
M  V30 8021 N 753.649 -6.91203 -0.47008 0
M  V30 8022 N 755.442 -5.59353 -0.555035 0
M  V30 8023 H 747.593 -1.96281 0.811635 0
M  V30 8024 H 749.856 -0.898041 0.303689 0
M  V30 8025 H 749.562 -3.47369 0.550236 0
M  V30 8026 H 749.436 -3.57705 -1.19694 0
M  V30 8027 H 751.823 -2.6039 -1.38857 0
M  V30 8028 H 751.904 -2.53 0.377445 0
M  V30 8029 H 751.548 -5.05653 0.477207 0
M  V30 8030 H 751.478 -5.10242 -1.30234 0
M  V30 8031 H 753.969 -3.74048 -0.538199 0
M  V30 8032 H 754.282 -7.7132 -0.478091 0
M  V30 8033 H 752.627 -6.93625 -0.436897 0
M  V30 8034 H 755.818 -4.64453 -0.583158 0
M  V30 8035 H 755.991 -6.4561 -0.555976 0
M  V30 8036 N 749.397 0.351382 -1.53633 0
M  V30 8037 C 750.645 1.09034 -1.70165 0
M  V30 8038 C 750.966 1.89413 -0.463422 0
M  V30 8039 O 750.236 1.888 0.522624 0
M  V30 8040 H 748.816 0.405522 -0.627344 0
M  V30 8041 H 751.478 0.394554 -1.90865 0
M  V30 8042 H 750.574 1.77215 -2.56907 0
M  V30 8043 N 750.875 1.45233 0.611969 0
M  V30 8044 C 752.123 1.48727 1.36838 0
M  V30 8045 C 752.444 0.128616 1.94575 0
M  V30 8046 O 751.714 -0.84149 1.76906 0
M  V30 8047 H 750.294 0.547695 0.507976 0
M  V30 8048 H 752.956 1.81156 0.718925 0
M  V30 8049 H 752.052 2.2236 2.19003 0
M  V30 8050 N 752.353 -0.854086 1.3245 0
M  V30 8051 C 753.303 -1.9508 1.18016 0
M  V30 8052 C 754.287 -1.60665 0.0869417 0
M  V30 8053 O 755.479 -1.74201 0.313505 0
M  V30 8054 C 752.608 -3.3113 0.905961 0
M  V30 8055 C 751.694 -3.71763 2.04091 0
M  V30 8056 N 752.085 -3.84218 3.28953 0
M  V30 8057 C 750.383 -4.01393 1.94421 0
M  V30 8058 C 751.084 -4.192 4.03294 0
M  V30 8059 N 750.06 -4.30749 3.31596 0
M  V30 8060 H 753.862 -2.02843 2.12678 0
M  V30 8061 H 751.376 -1.04588 1.24238 0
M  V30 8062 H 753.373 -4.09471 0.783508 0
M  V30 8063 H 752.033 -3.24684 -0.0322715 0
M  V30 8064 H 753.044 -3.68524 3.63883 0
M  V30 8065 H 749.721 -4.03246 1.08162 0
M  V30 8066 H 751.111 -4.36301 5.1097 0
M  V30 8067 N 753.831 -1.1567 -1.07043 0
M  V30 8068 C 754.761 -0.879348 -2.16309 0
M  V30 8069 C 755.742 0.171311 -1.69235 0
M  V30 8070 O 756.927 0.0250175 -1.94184 0
M  V30 8071 C 754.057 -0.371307 -3.45309 0
M  V30 8072 C 753.011 -1.359 -4.05851 0
M  V30 8073 C 752.337 -0.709678 -5.29969 0
M  V30 8074 C 753.637 -2.72606 -4.45514 0
M  V30 8075 H 755.331 -1.79308 -2.39768 0
M  V30 8076 H 752.877 -0.863558 -1.15233 0
M  V30 8077 H 754.83 -0.164798 -4.21078 0
M  V30 8078 H 753.554 0.577906 -3.21446 0
M  V30 8079 H 752.213 -1.55193 -3.32131 0
M  V30 8080 H 751.861 0.245782 -5.02399 0
M  V30 8081 H 751.561 -1.36886 -5.71433 0
M  V30 8082 H 753.085 -0.513015 -6.08441 0
M  V30 8083 H 754.499 -2.57141 -5.12398 0
M  V30 8084 H 752.896 -3.34927 -4.97939 0
M  V30 8085 H 753.966 -3.28434 -3.56734 0
M  V30 8086 N 755.309 1.25446 -0.953992 0
M  V30 8087 C 756.239 2.28264 -0.491717 0
M  V30 8088 C 757.22 1.63717 0.461617 0
M  V30 8089 O 758.405 1.90821 0.36071 0
M  V30 8090 C 755.535 3.46525 0.231915 0
M  V30 8091 C 754.489 4.23247 -0.636098 0
M  V30 8092 C 753.815 5.34254 0.218238 0
M  V30 8093 C 755.115 4.85971 -1.91389 0
M  V30 8094 H 756.809 2.67183 -1.35106 0
M  V30 8095 H 754.355 1.2844 -0.651095 0
M  V30 8096 H 756.308 4.17576 0.566439 0
M  V30 8097 H 755.032 3.06594 1.12551 0
M  V30 8098 H 753.691 3.53978 -0.953696 0
M  V30 8099 H 753.339 4.90564 1.11156 0
M  V30 8100 H 753.039 5.86501 -0.359232 0
M  V30 8101 H 754.563 6.08138 0.547743 0
M  V30 8102 H 755.977 5.49168 -1.64581 0
M  V30 8103 H 754.374 5.48391 -2.43696 0
M  V30 8104 H 755.444 4.08192 -2.61738 0
M  V30 8105 N 756.787 0.722489 1.40064 0
M  V30 8106 C 757.697 0.0755984 2.34478 0
M  V30 8107 C 758.713 -0.736046 1.57665 0
M  V30 8108 O 759.889 -0.667407 1.9002 0
M  V30 8109 C 756.954 -0.830075 3.36616 0
M  V30 8110 C 756.015 -0.00759884 4.29299 0
M  V30 8111 C 755.248 -0.870139 5.26559 0
M  V30 8112 O 755.471 -2.10921 5.2997 0
M  V30 8113 O 754.405 -0.305454 6.01124 0
M  V30 8114 H 758.231 0.854545 2.9143 0
M  V30 8115 H 755.816 0.483032 1.41376 0
M  V30 8116 H 757.698 -1.34864 3.99236 0
M  V30 8117 H 756.373 -1.58805 2.82069 0
M  V30 8118 H 755.28 0.556199 3.69942 0
M  V30 8119 H 756.613 0.712312 4.87018 0
M  V30 8120 N 758.265 -1.50454 0.469181 0
M  V30 8121 C 759.195 -2.31353 -0.31592 0
M  V30 8122 C 760.176 -1.38172 -0.992094 0
M  V30 8123 O 761.361 -1.67093 -0.989633 0
M  V30 8124 C 758.491 -3.1786 -1.39937 0
M  V30 8125 C 757.445 -4.19578 -0.844909 0
M  V30 8126 C 756.771 -4.9481 -2.0265 0
M  V30 8127 C 758.071 -5.22106 0.142499 0
M  V30 8128 H 759.765 -2.97237 0.359269 0
M  V30 8129 H 757.311 -1.42942 0.174224 0
M  V30 8130 H 759.264 -3.7325 -1.95607 0
M  V30 8131 H 757.988 -2.49858 -2.1033 0
M  V30 8132 H 756.647 -3.65285 -0.310189 0
M  V30 8133 H 756.295 -4.23282 -2.71737 0
M  V30 8134 H 755.995 -5.63613 -1.66174 0
M  V30 8135 H 757.519 -5.53035 -2.58815 0
M  V30 8136 H 758.933 -5.72378 -0.324966 0
M  V30 8137 H 757.33 -5.98618 0.421441 0
M  V30 8138 H 758.4 -4.7297 1.06901 0
M  V30 8139 N 759.743 -0.201713 -1.56304 0
M  V30 8140 C 760.673 0.71155 -2.22394 0
M  V30 8141 C 761.654 1.21625 -1.18917 0
M  V30 8142 O 762.839 1.26388 -1.47444 0
M  V30 8143 C 759.969 1.92837 -2.88845 0
M  V30 8144 C 758.923 1.55831 -3.98623 0
M  V30 8145 C 758.249 2.85228 -4.52271 0
M  V30 8146 C 759.549 0.763249 -5.16693 0
M  V30 8147 H 761.243 0.160573 -2.98969 0
M  V30 8148 H 758.789 0.0757916 -1.438 0
M  V30 8149 H 760.742 2.57253 -3.33764 0
M  V30 8150 H 759.466 2.50398 -2.09686 0
M  V30 8151 H 758.125 0.9377 -3.54405 0
M  V30 8152 H 757.773 3.40893 -3.69866 0
M  V30 8153 H 757.473 2.6121 -5.26349 0
M  V30 8154 H 758.997 3.50622 -4.99897 0
M  V30 8155 H 760.411 1.31066 -5.58117 0
M  V30 8156 H 758.808 0.620935 -5.96879 0
M  V30 8157 H 759.878 -0.234322 -4.84334 0
M  V30 8158 N 761.222 1.57436 0.0718424 0
M  V30 8159 C 762.17 2.04725 1.10411 0
M  V30 8160 C 763.164 0.952579 1.4008 0
M  V30 8161 O 764.37 1.13769 1.39487 0
M  V30 8162 H 760.745 0.652749 0.373393 0
M  V30 8163 H 762.716 2.90569 0.679126 0
M  V30 8164 C 761.465 2.5068 2.40946 0
M  V30 8165 H 760.788 3.34505 2.18967 0
M  V30 8166 H 762.228 2.87521 3.11621 0
M  V30 8167 C 760.687 1.38971 3.06902 0
M  V30 8168 O 761.217 0.731786 3.94978 0
M  V30 8169 N 759.423 1.13485 2.67525 0
M  V30 8170 H 758.97 1.67168 1.95991 0
M  V30 8171 H 758.928 0.389467 3.11978 0
M  V30 8172 N 762.7 -0.34323 1.53817 0
M  V30 8173 C 764.111 -0.918823 1.62525 0
M  V30 8174 C 764.462 -1.89542 0.506765 0
M  V30 8175 O 763.587 -2.13326 -0.363441 0
M  V30 8176 C 764.182 -1.67326 2.94597 0
M  V30 8177 C 762.741 -2.19786 3.05567 0
M  V30 8178 C 761.888 -1.01708 2.57974 0
M  V30 8179 H 764.839 -0.121358 1.58235 0
M  V30 8180 H 764.86 -2.53615 2.83654 0
M  V30 8181 H 764.372 -0.962223 3.75983 0
M  V30 8182 H 762.473 -2.94065 2.28816 0
M  V30 8183 H 762.586 -2.46135 4.1104 0
M  V30 8184 H 760.95 -1.39058 2.13389 0
M  V30 8185 H 761.733 -0.320671 3.41799 0
M  V30 8186 N 764.178 -1.45556 -0.604258 0
M  V30 8187 C 765.403 -1.53509 -1.39462 0
M  V30 8188 C 765.828 -0.169638 -1.87333 0
M  V30 8189 O 765.186 0.846346 -1.60333 0
M  V30 8190 C 765.234 -2.52654 -2.5729 0
M  V30 8191 O 764.338 -2.04666 -3.5803 0
M  V30 8192 H 763.679 -0.517355 -0.416221 0
M  V30 8193 H 766.209 -1.90939 -0.735072 0
M  V30 8194 H 766.219 -2.71568 -3.04491 0
M  V30 8195 H 764.894 -3.51823 -2.21797 0
M  V30 8196 H 763.471 -1.95643 -3.17456 0
M  V30 8197 N 765.656 0.84705 -1.32902 0
M  V30 8198 C 766.566 1.98845 -1.2449 0
M  V30 8199 C 767.582 1.7329 -0.15702 0
M  V30 8200 O 768.758 1.978 -0.379104 0
M  V30 8201 C 765.823 3.32679 -0.975985 0
M  V30 8202 C 764.884 3.71405 -2.15306 0
M  V30 8203 C 764.117 4.98853 -1.89688 0
M  V30 8204 O 764.34 5.64134 -0.843168 0
M  V30 8205 O 763.274 5.34889 -2.76002 0
M  V30 8206 H 767.1 2.0888 -2.2046 0
M  V30 8207 H 764.685 0.978852 -1.12867 0
M  V30 8208 H 766.567 4.12885 -0.842826 0
M  V30 8209 H 765.242 3.23667 -0.0464954 0
M  V30 8210 H 764.149 2.91743 -2.34172 0
M  V30 8211 H 765.482 3.85073 -3.06561 0
M  V30 8212 N 767.134 1.16236 1.06428 0
M  V30 8213 C 768.38 0.944431 1.79467 0
M  V30 8214 C 768.713 -0.526558 1.86925 0
M  V30 8215 O 767.988 -1.39061 1.35986 0
M  V30 8216 C 768.271 1.57092 3.24028 0
M  V30 8217 C 768.124 3.11315 3.24658 0
M  V30 8218 C 769.443 1.26447 4.21544 0
M  V30 8219 H 766.562 0.344521 0.651517 0
M  V30 8220 H 769.204 1.43545 1.24478 0
M  V30 8221 H 767.354 1.15337 3.70985 0
M  V30 8222 H 769.026 3.62042 2.85873 0
M  V30 8223 H 767.269 3.44716 2.6335 0
M  V30 8224 H 767.94 3.50269 4.26633 0
M  V30 8225 H 770.416 1.62581 3.83023 0
M  V30 8226 H 769.292 1.72885 5.20963 0
M  V30 8227 H 769.553 0.183068 4.41721 0
M  V30 8228 N 768.612 -1.24939 0.960631 0
M  V30 8229 C 769.859 -1.92818 0.618663 0
M  V30 8230 C 770.187 -1.75177 -0.845173 0
M  V30 8231 O 769.442 -1.09412 -1.62258 0
M  V30 8232 C 769.741 -3.45066 0.930809 0
M  V30 8233 C 769.407 -3.82869 2.38164 0
M  V30 8234 C 768.069 -3.92899 2.7782 0
M  V30 8235 C 770.421 -4.01483 3.32356 0
M  V30 8236 C 767.749 -4.18955 4.10723 0
M  V30 8237 C 770.101 -4.29033 4.6488 0
M  V30 8238 C 768.765 -4.37282 5.04322 0
M  V30 8239 H 768.035 -0.705571 0.226385 0
M  V30 8240 H 770.682 -1.48365 1.21079 0
M  V30 8241 H 768.987 -3.9096 0.256355 0
M  V30 8242 H 770.684 -3.95783 0.644712 0
M  V30 8243 H 767.274 -3.75622 2.06413 0
M  V30 8244 H 771.458 -3.93143 3.02907 0
M  V30 8245 H 766.714 -4.23558 4.40918 0
M  V30 8246 H 770.888 -4.42381 5.3784 0
M  V30 8247 H 768.515 -4.57225 6.0733 0
M  V30 8248 N 770.09 -0.729906 -1.39679 0
M  V30 8249 C 771.338 -0.275077 -2.00219 0
M  V30 8250 C 771.659 1.1401 -1.58199 0
M  V30 8251 O 770.929 1.77546 -0.827904 0
M  V30 8252 H 769.509 -0.0987127 -0.740449 0
M  V30 8253 H 772.171 -0.93873 -1.70804 0
M  V30 8254 H 771.267 -0.319446 -3.10461 0
M  V30 8255 N 771.568 1.50203 -0.477153 0
M  V30 8256 C 772.845 1.95115 0.137609 0
M  V30 8257 C 773.225 1.41778 1.56404 0
M  V30 8258 O 772.573 0.621333 2.1989 0
M  V30 8259 C 772.783 3.4892 0.0747168 0
M  V30 8260 C 774.131 4.238 0.260585 0
M  V30 8261 O 775.155 3.5588 0.151021 0
M  V30 8262 O 774.014 5.44366 0.482534 0
M  V30 8263 H 771.108 0.81987 0.108364 0
M  V30 8264 H 773.654 1.60946 -0.537989 0
M  V30 8265 H 772.426 3.80308 -0.920966 0
M  V30 8266 H 772.049 3.89642 0.791509 0
M  V30 8267 N 773.046 0.209999 1.56195 0
M  V30 8268 C 774.295 -0.425106 1.97169 0
M  V30 8269 C 774.608 -1.61718 1.10031 0
M  V30 8270 O 775.814 -2.32105 1.40853 0
M  V30 8271 C 774.27 -0.80771 3.50719 0
M  V30 8272 C 773.878 0.360902 4.46544 0
M  V30 8273 C 775.622 -1.40906 4.00432 0
M  V30 8274 C 773.529 -0.0434919 5.91384 0
M  V30 8275 H 772.459 -0.162598 0.736259 0
M  V30 8276 H 775.11 0.304382 1.80958 0
M  V30 8277 H 773.492 -1.59429 3.62489 0
M  V30 8278 H 774.666 1.13846 4.46515 0
M  V30 8279 H 772.981 0.874729 4.07109 0
M  V30 8280 H 775.578 -1.72433 5.06133 0
M  V30 8281 H 775.921 -2.32081 3.45607 0
M  V30 8282 H 776.454 -0.686154 3.91838 0
M  V30 8283 H 773.193 0.834448 6.50167 0
M  V30 8284 H 772.713 -0.785598 5.94633 0
M  V30 8285 H 774.392 -0.474176 6.4526 0
M  V30 8286 N 774.524 -1.57472 -0.0634922 0
M  V30 8287 C 775.457 -1.99571 -1.10664 0
M  V30 8288 C 776.435 -0.874015 -1.37112 0
M  V30 8289 O 777.619 -1.13702 -1.50347 0
M  V30 8290 C 774.746 -2.3395 -2.44918 0
M  V30 8291 C 773.792 -3.56213 -2.34551 0
M  V30 8292 S 774.625 -5.06727 -1.73169 0
M  V30 8293 C 775.781 -5.44316 -3.08984 0
M  V30 8294 H 776.014 -2.87739 -0.747905 0
M  V30 8295 H 773.547 -1.5198 -0.272316 0
M  V30 8296 H 775.505 -2.54431 -3.22141 0
M  V30 8297 H 774.166 -1.46297 -2.7795 0
M  V30 8298 H 773.359 -3.77812 -3.33578 0
M  V30 8299 H 772.961 -3.35406 -1.65466 0
M  V30 8300 H 775.253 -5.42894 -4.05305 0
M  V30 8301 H 776.196 -6.4502 -2.92156 0
M  V30 8302 H 776.604 -4.71781 -3.09972 0
M  V30 8303 N 776.003 0.335068 -1.53997 0
M  V30 8304 C 777.252 1.07182 -1.70865 0
M  V30 8305 C 777.565 1.89541 -0.483078 0
M  V30 8306 O 778.771 2.66219 -0.532879 0
M  V30 8307 C 777.227 1.95497 -3.02174 0
M  V30 8308 C 776.835 1.18304 -4.32097 0
M  V30 8309 C 778.579 2.68978 -3.28407 0
M  V30 8310 C 776.486 2.05699 -5.54474 0
M  V30 8311 H 775.416 0.403857 -0.636722 0
M  V30 8312 H 778.067 0.33076 -1.80494 0
M  V30 8313 H 776.449 2.73456 -2.86423 0
M  V30 8314 H 777.623 0.451969 -4.58578 0
M  V30 8315 H 775.938 0.565556 -4.12541 0
M  V30 8316 H 778.535 3.34651 -4.17029 0
M  V30 8317 H 778.878 3.36 -2.45784 0
M  V30 8318 H 779.411 1.98087 -3.44973 0
M  V30 8319 H 776.15 1.43204 -6.39666 0
M  V30 8320 H 775.67 2.76572 -5.32229 0
M  V30 8321 H 777.349 2.64554 -5.90441 0
M  V30 8322 N 777.481 1.45874 0.596531 0
M  V30 8323 C 778.758 1.40942 1.35627 0
M  V30 8324 C 779.138 0.0857066 2.10926 0
M  V30 8325 O 778.486 -0.932544 2.08605 0
M  V30 8326 C 778.696 2.63027 2.29386 0
M  V30 8327 C 780.044 3.08588 2.91649 0
M  V30 8328 O 781.068 2.63478 2.39704 0
M  V30 8329 O 779.927 3.86902 3.85965 0
M  V30 8330 H 777.021 0.559838 0.608696 0
M  V30 8331 H 779.567 1.5802 0.618698 0
M  V30 8332 H 778.339 3.5094 1.7308 0
M  V30 8333 H 777.962 2.48338 3.10506 0
M  V30 8334 N 778.959 -0.83999 1.33349 0
M  V30 8335 C 780.189 -1.62492 1.27593 0
M  V30 8336 C 780.597 -1.88559 -0.155597 0
M  V30 8337 O 779.94 -1.46537 -1.10782 0
M  V30 8338 C 780.002 -2.99984 1.98116 0
M  V30 8339 C 779.666 -2.96892 3.47425 0
M  V30 8340 C 780.663 -2.72688 4.42648 0
M  V30 8341 C 778.348 -3.17063 3.89585 0
M  V30 8342 C 780.342 -2.68681 5.78004 0
M  V30 8343 C 778.029 -3.12682 5.25046 0
M  V30 8344 C 779.027 -2.88522 6.19067 0
M  V30 8345 O 778.715 -2.84042 7.52047 0
M  V30 8346 H 778.447 -0.512358 0.440982 0
M  V30 8347 H 781.001 -1.0545 1.76265 0
M  V30 8348 H 779.231 -3.58875 1.44034 0
M  V30 8349 H 780.92 -3.6084 1.85875 0
M  V30 8350 H 781.686 -2.56856 4.114 0
M  V30 8351 H 777.565 -3.34889 3.16813 0
M  V30 8352 H 781.109 -2.49743 6.51363 0
M  V30 8353 H 777.006 -3.28063 5.55918 0
M  V30 8354 H 777.774 -2.99892 7.61582 0
M  V30 8355 N 780.437 -1.16799 -1.0581 0
M  V30 8356 C 781.665 -0.97687 -1.82387 0
M  V30 8357 C 782.08 0.474917 -1.82729 0
M  V30 8358 O 781.437 1.3297 -1.25001 0
M  V30 8359 C 781.488 -1.50279 -3.28783 0
M  V30 8360 O 781.209 -2.89772 -3.28578 0
M  V30 8361 C 782.71 -1.35538 -4.22071 0
M  V30 8362 H 779.93 -0.345977 -0.574927 0
M  V30 8363 H 782.474 -1.54942 -1.33466 0
M  V30 8364 H 780.629 -0.972414 -3.74997 0
M  V30 8365 H 781.043 -3.13954 -4.20159 0
M  V30 8366 H 782.517 -1.7716 -5.22799 0
M  V30 8367 H 782.994 -0.301598 -4.38163 0
M  V30 8368 H 783.6 -1.87562 -3.81708 0
M  V30 8369 N 781.915 1.24427 -0.967243 0
M  V30 8370 C 783.145 1.96256 -0.64554 0
M  V30 8371 C 783.553 1.71959 0.789098 0
M  V30 8372 O 782.896 0.999913 1.54102 0
M  V30 8373 C 782.958 3.49553 -0.839798 0
M  V30 8374 C 782.622 3.97548 -2.25399 0
M  V30 8375 C 783.619 4.07257 -3.23168 0
M  V30 8376 C 781.304 4.30884 -2.58156 0
M  V30 8377 C 783.298 4.49635 -4.51782 0
M  V30 8378 C 780.985 4.72946 -3.86996 0
M  V30 8379 C 781.983 4.82286 -4.83621 0
M  V30 8380 O 781.671 5.23409 -6.10162 0
M  V30 8381 H 781.403 0.632002 -0.239895 0
M  V30 8382 H 783.957 1.59224 -1.29757 0
M  V30 8383 H 782.187 3.86479 -0.130603 0
M  V30 8384 H 783.876 4.02591 -0.517249 0
M  V30 8385 H 784.642 3.8172 -2.9919 0
M  V30 8386 H 780.521 4.22833 -1.83666 0
M  V30 8387 H 784.065 4.5684 -5.27203 0
M  V30 8388 H 779.962 4.9793 -4.10775 0
M  V30 8389 H 780.73 5.4156 -6.13722 0
M  V30 8390 N 783.393 0.737304 1.3929 0
M  V30 8391 C 784.639 0.286681 2.00763 0
M  V30 8392 C 784.972 -1.12388 1.58375 0
M  V30 8393 O 784.247 -1.76661 0.813699 0
M  V30 8394 C 784.53 0.391147 3.57969 0
M  V30 8395 C 784.383 1.84165 4.1037 0
M  V30 8396 C 785.702 -0.225072 4.39524 0
M  V30 8397 H 782.821 0.105642 0.729389 0
M  V30 8398 H 785.463 0.933892 1.65464 0
M  V30 8399 H 783.613 -0.159875 3.88171 0
M  V30 8400 H 785.285 2.44972 3.90879 0
M  V30 8401 H 783.528 2.3622 3.63844 0
M  V30 8402 H 784.199 1.866 5.19504 0
M  V30 8403 H 786.675 0.244677 4.1538 0
M  V30 8404 H 785.551 -0.121646 5.48765 0
M  V30 8405 H 785.812 -1.31141 4.22202 0
M  V30 8406 N 784.871 -1.49948 0.485112 0
M  V30 8407 C 785.781 -2.32587 -0.306697 0
M  V30 8408 C 786.797 -1.43598 -0.982632 0
M  V30 8409 O 787.973 -1.76638 -0.967519 0
M  V30 8410 C 785.038 -3.18638 -1.3664 0
M  V30 8411 C 784.099 -4.23462 -0.705589 0
M  V30 8412 C 783.332 -5.05401 -1.7148 0
M  V30 8413 O 783.555 -4.88618 -2.94293 0
M  V30 8414 O 782.489 -5.88157 -1.27889 0
M  V30 8415 H 786.315 -3.01447 0.369272 0
M  V30 8416 H 783.9 -1.47349 0.246709 0
M  V30 8417 H 785.782 -3.71992 -1.9799 0
M  V30 8418 H 784.457 -2.52491 -2.02559 0
M  V30 8419 H 783.364 -3.74063 -0.0527733 0
M  V30 8420 H 784.697 -4.92119 -0.0891187 0
M  V30 8421 N 786.349 -0.21828 -1.56081 0
M  V30 8422 C 787.589 0.416193 -2.00118 0
M  V30 8423 C 787.953 1.5718 -1.10265 0
M  V30 8424 O 789.154 2.27206 -1.43635 0
M  V30 8425 C 787.425 0.842781 -3.47321 0
M  V30 8426 S 788.984 1.47182 -4.1338 0
M  V30 8427 H 785.802 0.132219 -0.698598 0
M  V30 8428 H 788.404 -0.326799 -1.92749 0
M  V30 8429 H 787.108 -0.00799925 -4.10399 0
M  V30 8430 H 786.639 1.61867 -3.58556 0
M  V30 8431 H 788.654 2.76087 -4.12299 0
M  V30 8432 N 787.827 1.57504 0.0551401 0
M  V30 8433 C 789.055 1.92294 0.76358 0
M  V30 8434 C 789.47 0.815774 1.70266 0
M  V30 8435 O 788.827 -0.209772 1.8129 0
M  V30 8436 C 788.878 3.26914 1.54302 0
M  V30 8437 O 788.599 4.33375 0.641666 0
M  V30 8438 C 790.1 3.75825 2.35097 0
M  V30 8439 H 787.32 0.635229 0.216159 0
M  V30 8440 H 789.864 2.0449 0.0204385 0
M  V30 8441 H 788.019 3.16196 2.23828 0
M  V30 8442 H 788.433 5.10927 1.1855 0
M  V30 8443 H 789.907 4.72603 2.8522 0
M  V30 8444 H 790.384 3.0568 3.15367 0
M  V30 8445 H 790.99 3.89542 1.70696 0
M  V30 8446 N 789.305 -0.326896 1.54172 0
M  V30 8447 C 790.53 -1.08924 1.76494 0
M  V30 8448 C 790.955 -1.81039 0.510523 0
M  V30 8449 O 790.313 -1.73141 -0.537756 0
M  V30 8450 C 790.361 -2.06558 2.95578 0
M  V30 8451 O 789.465 -3.14394 2.6689 0
M  V30 8452 H 788.806 -0.314216 0.584948 0
M  V30 8453 H 791.336 -0.372207 2.01186 0
M  V30 8454 H 791.346 -2.49487 3.22832 0
M  V30 8455 H 790.021 -1.53469 3.86549 0
M  V30 8456 H 788.598 -2.76164 2.50576 0
M  V30 8457 N 790.784 -1.46188 -0.588786 0
M  V30 8458 C 791.747 -1.55882 -1.68029 0
M  V30 8459 C 792.747 -0.436515 -1.54762 0
M  V30 8460 O 793.937 -0.700626 -1.59489 0
M  V30 8461 C 791.069 -1.47332 -3.07418 0
M  V30 8462 H 792.262 -2.5315 -1.60795 0
M  V30 8463 H 789.815 -1.33908 -0.806116 0
M  V30 8464 H 790.55 -0.513193 -3.20214 0
M  V30 8465 H 790.335 -2.28753 -3.18456 0
M  V30 8466 H 791.825 -1.57187 -3.86887 0
M  V30 8467 N 792.262 0.832906 -1.33792 0
M  V30 8468 C 793.508 1.59089 -1.25772 0
M  V30 8469 C 793.841 1.93414 0.174601 0
M  V30 8470 O 793.116 1.59195 1.11746 0
M  V30 8471 C 793.399 2.89699 -2.13885 0
M  V30 8472 C 793.252 2.62017 -3.65605 0
M  V30 8473 C 794.571 3.91182 -2.01654 0
M  V30 8474 H 791.69 0.577232 -0.458227 0
M  V30 8475 H 794.332 0.960227 -1.6395 0
M  V30 8476 H 792.482 3.4352 -1.81456 0
M  V30 8477 H 794.154 2.14582 -4.08353 0
M  V30 8478 H 792.397 1.95621 -3.87189 0
M  V30 8479 H 793.068 3.55112 -4.2261 0
M  V30 8480 H 795.544 3.46684 -2.30107 0
M  V30 8481 H 794.42 4.80391 -2.65548 0
M  V30 8482 H 794.681 4.30861 -0.990536 0
M  V30 8483 N 793.74 1.17359 1.05189 0
M  V30 8484 C 794.673 0.833768 2.12423 0
M  V30 8485 C 795.651 -0.19945 1.61372 0
M  V30 8486 O 796.835 -0.080979 1.88326 0
M  V30 8487 C 793.962 0.243745 3.37822 0
M  V30 8488 C 793.008 1.25235 4.07699 0
M  V30 8489 S 793.841 2.80368 4.56239 0
M  V30 8490 C 794.997 2.22846 5.84885 0
M  V30 8491 H 795.23 1.74197 2.40921 0
M  V30 8492 H 792.763 0.998242 1.1779 0
M  V30 8493 H 794.721 -0.0901915 4.10401 0
M  V30 8494 H 793.382 -0.642396 3.07461 0
M  V30 8495 H 792.575 0.788168 4.97799 0
M  V30 8496 H 792.177 1.53194 3.41185 0
M  V30 8497 H 794.469 1.60403 6.58238 0
M  V30 8498 H 795.412 3.112 6.3605 0
M  V30 8499 H 795.82 1.66296 5.39449 0
M  V30 8500 N 795.218 -1.23913 0.973828 0
M  V30 8501 C 796.15 -2.24397 0.466763 0
M  V30 8502 C 797.163 -1.57078 -0.427828 0
M  V30 8503 O 798.352 -1.76973 -0.233019 0
M  V30 8504 C 795.452 -3.37141 -0.344798 0
M  V30 8505 C 794.625 -4.34037 0.541349 0
M  V30 8506 C 793.684 -5.2576 -0.215243 0
M  V30 8507 O 792.71 -5.67842 0.39291 0
M  V30 8508 N 793.912 -5.60702 -1.5031 0
M  V30 8509 H 796.677 -2.68536 1.33074 0
M  V30 8510 H 794.238 -1.38017 0.846346 0
M  V30 8511 H 796.23 -3.95476 -0.859133 0
M  V30 8512 H 794.8 -2.92239 -1.10974 0
M  V30 8513 H 794.02 -3.74302 1.23659 0
M  V30 8514 H 795.308 -4.95738 1.1455 0
M  V30 8515 H 794.706 -5.28451 -2.01882 0
M  V30 8516 H 793.263 -6.21538 -1.96301 0
M  V30 8517 N 796.696 -0.74468 -1.38897 0
M  V30 8518 C 797.659 -0.11945 -2.28889 0
M  V30 8519 C 798.659 0.656942 -1.46768 0
M  V30 8520 O 799.849 0.484525 -1.67326 0
M  V30 8521 C 796.981 0.839635 -3.30398 0
M  V30 8522 H 798.174 -0.912414 -2.85683 0
M  V30 8523 H 795.727 -0.511119 -1.47707 0
M  V30 8524 H 796.462 1.6586 -2.78677 0
M  V30 8525 H 796.247 0.285432 -3.9106 0
M  V30 8526 H 797.737 1.27337 -3.97712 0
M  V30 8527 N 798.174 1.49689 -0.493057 0
M  V30 8528 C 799.104 2.31826 0.279073 0
M  V30 8529 C 800.085 1.39733 0.969987 0
M  V30 8530 O 801.27 1.68646 0.962925 0
M  V30 8531 C 798.4 3.20046 1.34862 0
M  V30 8532 C 797.354 4.20869 0.77805 0
M  V30 8533 C 796.68 4.97971 1.94753 0
M  V30 8534 C 797.98 5.21813 -0.225543 0
M  V30 8535 H 799.674 2.96627 -0.406512 0
M  V30 8536 H 797.22 1.42647 -0.196943 0
M  V30 8537 H 799.173 3.76315 1.89645 0
M  V30 8538 H 797.897 2.53172 2.06328 0
M  V30 8539 H 796.556 3.65733 0.252036 0
M  V30 8540 H 796.204 4.27552 2.64969 0
M  V30 8541 H 795.904 5.66186 1.57187 0
M  V30 8542 H 797.428 5.57082 2.49984 0
M  V30 8543 H 798.842 5.72823 0.233864 0
M  V30 8544 H 797.239 5.97872 -0.516622 0
M  V30 8545 H 798.309 4.71209 -1.14412 0
M  V30 8546 N 799.652 0.226554 1.55963 0
M  V30 8547 C 800.599 -0.681504 2.20509 0
M  V30 8548 C 801.569 -1.1866 1.16229 0
M  V30 8549 O 802.754 -1.24478 1.44602 0
M  V30 8550 C 799.894 -1.88183 2.89277 0
M  V30 8551 C 799.007 -1.41517 4.08163 0
M  V30 8552 C 798.142 -2.57346 4.647 0
M  V30 8553 C 797.181 -2.07441 5.75877 0
M  V30 8554 N 796.318 -3.16561 6.26685 0
M  V30 8555 H 801.158 -0.124372 2.9774 0
M  V30 8556 H 798.695 -0.0496333 1.47016 0
M  V30 8557 H 800.653 -2.58666 3.27335 0
M  V30 8558 H 799.283 -2.41177 2.14555 0
M  V30 8559 H 798.335 -0.605099 3.75557 0
M  V30 8560 H 799.647 -1.00928 4.88482 0
M  V30 8561 H 798.801 -3.35903 5.05227 0
M  V30 8562 H 797.54 -3.01227 3.83554 0
M  V30 8563 H 796.545 -1.27347 5.34848 0
M  V30 8564 H 797.77 -1.64554 6.58862 0
M  V30 8565 H 795.716 -3.59914 5.48451 0
M  V30 8566 H 795.633 -2.80239 7.02141 0
M  V30 8567 H 796.901 -3.95238 6.71868 0
M  V30 8568 N 801.13 -1.57531 -0.0467866 0
M  V30 8569 C 802.36 -1.92417 -0.752279 0
M  V30 8570 C 802.768 -0.823134 -1.70356 0
M  V30 8571 O 802.111 0.210598 -1.82489 0
M  V30 8572 C 802.173 -3.22974 -1.57887 0
M  V30 8573 C 801.837 -4.50045 -0.794285 0
M  V30 8574 C 802.834 -5.19799 -0.102368 0
M  V30 8575 C 800.519 -4.96608 -0.754061 0
M  V30 8576 C 802.513 -6.34385 0.619267 0
M  V30 8577 C 800.2 -6.11093 -0.0286682 0
M  V30 8578 C 801.198 -6.79835 0.656772 0
M  V30 8579 O 800.886 -7.92133 1.37042 0
M  V30 8580 H 800.618 -0.640029 -0.217576 0
M  V30 8581 H 803.172 -2.05395 -0.0137438 0
M  V30 8582 H 801.402 -3.06273 -2.3608 0
M  V30 8583 H 803.091 -3.43319 -2.16533 0
M  V30 8584 H 803.857 -4.8484 -0.124589 0
M  V30 8585 H 799.736 -4.42958 -1.27706 0
M  V30 8586 H 803.28 -6.87975 1.15483 0
M  V30 8587 H 799.177 -6.455 -0.00446214 0
M  V30 8588 H 799.945 -8.08394 1.28227 0
M  V30 8589 N 802.608 0.318715 -1.54344 0
M  V30 8590 C 803.855 1.05608 -1.72781 0
M  V30 8591 C 804.183 1.87854 -0.504083 0
M  V30 8592 O 803.438 1.88826 0.51414 0
M  V30 8593 C 803.737 2.00514 -2.95853 0
M  V30 8594 C 803.403 1.34385 -4.30409 0
M  V30 8595 C 802.065 1.16081 -4.66989 0
M  V30 8596 C 804.417 0.869627 -5.13894 0
M  V30 8597 C 801.745 0.490114 -5.84649 0
M  V30 8598 C 804.097 0.212735 -6.32242 0
M  V30 8599 C 802.761 0.0175882 -6.67498 0
M  V30 8600 H 802.031 0.386449 -0.632249 0
M  V30 8601 H 804.678 0.332729 -1.88587 0
M  V30 8602 H 802.983 2.79317 -2.74753 0
M  V30 8603 H 804.68 2.57605 -3.07312 0
M  V30 8604 H 801.27 1.49634 -4.01631 0
M  V30 8605 H 805.454 0.998809 -4.86146 0
M  V30 8606 H 800.71 0.327767 -6.10521 0
M  V30 8607 H 804.884 -0.162699 -6.9621 0
M  V30 8608 H 802.511 -0.504137 -7.58527 0
M  V30 8609 N 804.086 1.46499 0.581025 0
M  V30 8610 C 805.036 1.53606 1.68491 0
M  V30 8611 C 806.02 0.396853 1.55929 0
M  V30 8612 O 807.212 0.645366 1.64815 0
M  V30 8613 C 804.341 1.53089 3.07276 0
M  V30 8614 C 803.427 2.72309 3.25128 0
M  V30 8615 N 803.818 3.97216 3.13134 0
M  V30 8616 C 802.116 2.68568 3.56072 0
M  V30 8617 C 802.817 4.7693 3.33036 0
M  V30 8618 N 801.793 4.08833 3.58269 0
M  V30 8619 H 805.595 2.47976 1.5775 0
M  V30 8620 H 803.109 1.42161 0.785104 0
M  V30 8621 H 805.106 1.56268 3.86505 0
M  V30 8622 H 803.766 0.597969 3.19146 0
M  V30 8623 H 804.777 4.28439 2.90964 0
M  V30 8624 H 801.454 1.84307 3.74616 0
M  V30 8625 H 802.844 5.85879 3.28932 0
M  V30 8626 N 805.565 -0.825799 1.34232 0
M  V30 8627 C 806.512 -1.93651 1.2557 0
M  V30 8628 C 807.482 -1.65578 0.131536 0
M  V30 8629 O 808.667 -1.88231 0.312027 0
M  V30 8630 C 805.807 -3.29862 1.01415 0
M  V30 8631 C 804.92 -3.70247 2.22579 0
M  V30 8632 C 804.055 -4.95392 1.91731 0
M  V30 8633 C 803.094 -5.28349 3.09053 0
M  V30 8634 N 802.231 -6.44671 2.78107 0
M  V30 8635 H 807.071 -2.00392 2.20561 0
M  V30 8636 H 804.608 -0.980441 1.09662 0
M  V30 8637 H 806.566 -4.08356 0.854485 0
M  V30 8638 H 805.196 -3.22642 0.100936 0
M  V30 8639 H 804.248 -2.87169 2.49476 0
M  V30 8640 H 805.56 -3.90575 3.10246 0
M  V30 8641 H 804.714 -5.81665 1.72484 0
M  V30 8642 H 803.453 -4.77059 1.0132 0
M  V30 8643 H 802.458 -4.40574 3.289 0
M  V30 8644 H 803.683 -5.48622 4.00239 0
M  V30 8645 H 801.629 -6.278 1.9027 0
M  V30 8646 H 801.546 -6.65158 3.59306 0
M  V30 8647 H 802.814 -7.34022 2.62358 0
M  V30 8648 N 807.043 -1.17915 -1.04565 0
M  V30 8649 C 808.459 -0.927761 -1.29864 0
M  V30 8650 C 808.659 0.409536 -1.97294 0
M  V30 8651 O 807.715 1.14505 -2.25044 0
M  V30 8652 C 809.028 -2.08967 -2.16225 0
M  V30 8653 C 810.576 -2.12741 -2.29587 0
M  V30 8654 C 811.051 -3.28335 -3.19312 0
M  V30 8655 N 812.542 -3.28164 -3.26898 0
M  V30 8656 C 813.277 -4.14249 -3.96466 0
M  V30 8657 N 812.773 -5.10457 -4.68407 0
M  V30 8658 N 814.566 -4.02179 -3.92694 0
M  V30 8659 H 806.717 -2.03983 -0.592011 0
M  V30 8660 H 808.98 -0.891023 -0.323701 0
M  V30 8661 H 808.686 -3.05654 -1.73979 0
M  V30 8662 H 808.56 -2.04606 -3.16885 0
M  V30 8663 H 810.947 -1.16636 -2.71072 0
M  V30 8664 H 811.028 -2.21162 -1.28535 0
M  V30 8665 H 810.672 -4.2471 -2.78539 0
M  V30 8666 H 810.602 -3.17151 -4.20384 0
M  V30 8667 H 813.093 -2.58511 -2.75646 0
M  V30 8668 H 813.406 -5.72526 -5.1907 0
M  V30 8669 H 811.751 -5.14422 -4.67328 0
M  V30 8670 H 814.942 -3.26308 -3.3562 0
M  V30 8671 H 815.115 -4.69486 -4.4664 0
M  V30 8672 N 808.521 1.23394 -0.980386 0
M  V30 8673 C 809.768 1.91809 -0.649261 0
M  V30 8674 C 810.096 1.765 0.817197 0
M  V30 8675 O 809.351 1.11979 1.60497 0
M  V30 8676 C 809.65 3.43542 -0.985588 0
M  V30 8677 C 809.316 3.79031 -2.44225 0
M  V30 8678 C 807.978 3.88429 -2.84035 0
M  V30 8679 C 810.33 3.96145 -3.38702 0
M  V30 8680 C 807.658 4.12368 -4.17336 0
M  V30 8681 C 810.01 4.21583 -4.71646 0
M  V30 8682 C 808.674 4.29203 -5.11215 0
M  V30 8683 H 807.944 0.70188 -0.237581 0
M  V30 8684 H 810.591 1.4642 -1.23424 0
M  V30 8685 H 808.896 3.90503 -0.318521 0
M  V30 8686 H 810.593 3.94708 -0.707596 0
M  V30 8687 H 807.183 3.7229 -2.12362 0
M  V30 8688 H 811.367 3.88274 -3.09123 0
M  V30 8689 H 806.623 4.1649 -4.47601 0
M  V30 8690 H 810.797 4.33769 -5.4481 0
M  V30 8691 H 808.424 4.47505 -6.14527 0
M  V30 8692 N 809.999 0.752036 1.385 0
M  V30 8693 C 811.41 0.375385 1.82887 0
M  V30 8694 C 811.761 -1.09575 1.62751 0
M  V30 8695 O 810.886 -1.84685 1.12785 0
M  V30 8696 C 811.481 0.674563 3.32017 0
M  V30 8697 C 810.04 0.351208 3.74758 0
M  V30 8698 C 809.187 0.928531 2.61292 0
M  V30 8699 H 812.138 0.948313 1.27251 0
M  V30 8700 H 812.159 -0.0477781 3.8047 0
M  V30 8701 H 811.671 1.74533 3.46641 0
M  V30 8702 H 809.772 -0.713042 3.65714 0
M  V30 8703 H 809.885 0.845675 4.71577 0
M  V30 8704 H 808.249 0.354012 2.52228 0
M  V30 8705 H 809.032 2.0043 2.78716 0
M  V30 8706 N 811.477 -1.49425 0.500989 0
M  V30 8707 C 812.387 -2.32899 -0.282011 0
M  V30 8708 C 813.403 -1.44632 -0.967346 0
M  V30 8709 O 814.579 -1.77654 -0.94873 0
M  V30 8710 C 811.644 -3.20069 -1.33253 0
M  V30 8711 C 810.705 -4.24186 -0.660636 0
M  V30 8712 C 809.938 -5.07191 -1.6611 0
M  V30 8713 O 810.161 -4.91712 -2.89094 0
M  V30 8714 O 809.095 -5.8948 -1.21643 0
M  V30 8715 H 812.921 -3.01038 0.401224 0
M  V30 8716 H 810.506 -1.47079 0.262323 0
M  V30 8717 H 812.388 -3.74071 -1.94033 0
M  V30 8718 H 811.063 -2.54625 -1.9987 0
M  V30 8719 H 809.97 -3.74098 -0.0130959 0
M  V30 8720 H 811.303 -4.92186 -0.0369179 0
M  V30 8721 N 812.955 -0.234822 -1.55841 0
M  V30 8722 C 813.905 0.68346 -2.17515 0
M  V30 8723 C 814.889 1.14798 -1.1274 0
M  V30 8724 O 816.081 1.09976 -1.38688 0
M  V30 8725 C 813.21 1.88551 -2.86886 0
M  V30 8726 C 812.296 1.44006 -3.98903 0
M  V30 8727 N 812.687 0.708034 -5.0082 0
M  V30 8728 C 810.985 1.7263 -4.11236 0
M  V30 8729 C 811.686 0.479036 -5.79724 0
M  V30 8730 N 810.662 1.03968 -5.33565 0
M  V30 8731 H 814.464 0.115897 -2.93671 0
M  V30 8732 H 811.978 -0.0366273 -1.62359 0
M  V30 8733 H 813.975 2.55425 -3.2949 0
M  V30 8734 H 812.635 2.45742 -2.12229 0
M  V30 8735 H 813.646 0.359363 -5.16652 0
M  V30 8736 H 810.323 2.31046 -3.47741 0
M  V30 8737 H 811.713 -0.104514 -6.71819 0
M  V30 8738 N 814.433 1.57553 0.0384317 0
M  V30 8739 C 815.849 1.54663 0.39391 0
M  V30 8740 C 816.049 0.959685 1.77179 0
M  V30 8741 O 815.105 0.576647 2.45827 0
M  V30 8742 C 816.418 2.99156 0.304352 0
M  V30 8743 C 817.966 3.10659 0.382119 0
M  V30 8744 C 818.441 4.56866 0.322111 0
M  V30 8745 N 819.932 4.61629 0.38119 0
M  V30 8746 C 820.667 5.72284 0.357501 0
M  V30 8747 N 820.163 6.92207 0.286654 0
M  V30 8748 N 821.956 5.60628 0.406538 0
M  V30 8749 H 814.107 1.9406 -0.86339 0
M  V30 8750 H 816.37 0.889673 -0.327392 0
M  V30 8751 H 816.076 3.45788 -0.642141 0
M  V30 8752 H 815.95 3.60753 1.10168 0
M  V30 8753 H 818.337 2.6398 1.31904 0
M  V30 8754 H 818.418 2.5191 -0.444391 0
M  V30 8755 H 818.062 5.0421 -0.611104 0
M  V30 8756 H 817.992 5.13515 1.1666 0
M  V30 8757 H 820.483 3.75343 0.438838 0
M  V30 8758 H 820.796 7.72316 0.273421 0
M  V30 8759 H 819.141 6.9454 0.252841 0
M  V30 8760 H 822.332 4.65836 0.459812 0
M  V30 8761 H 822.505 6.46858 0.384608 0
M  V30 8762 N 815.911 -0.310526 1.54511 0
M  V30 8763 C 816.874 -1.3657 1.84068 0
M  V30 8764 C 817.874 -1.44123 0.713097 0
M  V30 8765 O 819.064 -1.43924 0.981399 0
M  V30 8766 C 816.196 -2.75162 2.01243 0
M  V30 8767 H 817.389 -1.1161 2.78358 0
M  V30 8768 H 814.942 -0.546699 1.46427 0
M  V30 8769 H 815.677 -3.05359 1.09208 0
M  V30 8770 H 815.462 -2.71071 2.83307 0
M  V30 8771 H 816.952 -3.51473 2.25514 0
M  V30 8772 N 817.389 -1.46805 -0.573248 0
M  V30 8773 C 818.352 -1.57655 -1.66366 0
M  V30 8774 C 819.352 -0.452905 -1.5429 0
M  V30 8775 O 820.542 -0.717502 -1.58737 0
M  V30 8776 C 817.674 -1.50584 -3.05839 0
M  V30 8777 H 818.867 -2.54842 -1.581 0
M  V30 8778 H 816.42 -1.34756 -0.791868 0
M  V30 8779 H 817.155 -0.547127 -3.19651 0
M  V30 8780 H 816.94 -2.32118 -3.16012 0
M  V30 8781 H 818.43 -1.61282 -3.85199 0
M  V30 8782 N 818.867 0.818669 -1.34668 0
M  V30 8783 C 819.777 1.9616 -1.2868 0
M  V30 8784 C 820.793 1.72918 -0.193742 0
M  V30 8785 O 821.969 1.96951 -0.420975 0
M  V30 8786 C 819.034 3.30534 -1.04633 0
M  V30 8787 C 818.095 3.66755 -2.23136 0
M  V30 8788 C 817.328 4.94717 -2.00227 0
M  V30 8789 O 817.551 5.62218 -0.96264 0
M  V30 8790 O 816.485 5.28915 -2.87286 0
M  V30 8791 H 820.311 2.04157 -2.24842 0
M  V30 8792 H 817.896 0.954691 -1.14917 0
M  V30 8793 H 819.778 4.11005 -0.930216 0
M  V30 8794 H 818.453 3.23495 -0.115139 0
M  V30 8795 H 817.36 2.8671 -2.40308 0
M  V30 8796 H 818.693 3.78484 -3.1466 0
M  V30 8797 N 820.346 1.18468 1.03938 0
M  V30 8798 C 821.595 0.975193 1.76558 0
M  V30 8799 C 821.908 -0.495978 1.89207 0
M  V30 8800 O 823.114 -0.824009 2.58694 0
M  V30 8801 C 821.57 1.69579 3.17444 0
M  V30 8802 C 821.178 3.20636 3.12884 0
M  V30 8803 C 822.922 1.56917 3.94433 0
M  V30 8804 C 820.829 3.8533 4.48636 0
M  V30 8805 H 819.759 0.361244 0.66183 0
M  V30 8806 H 822.41 1.41854 1.16403 0
M  V30 8807 H 820.792 1.18022 3.78004 0
M  V30 8808 H 821.966 3.79228 2.61768 0
M  V30 8809 H 820.281 3.33454 2.49394 0
M  V30 8810 H 822.878 2.02611 4.94826 0
M  V30 8811 H 823.221 0.521638 4.13019 0
M  V30 8812 H 823.754 2.05762 3.40451 0
M  V30 8813 H 820.493 4.90136 4.35255 0
M  V30 8814 H 820.013 3.31526 4.99851 0
M  V30 8815 H 821.692 3.88269 5.17549 0
M  V30 8816 N 821.824 -1.22873 0.986916 0
M  V30 8817 C 823.24 -1.43594 0.696633 0
M  V30 8818 C 823.44 -1.87622 -0.734869 0
M  V30 8819 O 822.496 -2.02633 -1.50652 0
M  V30 8820 C 823.809 -2.48231 1.69711 0
M  V30 8821 C 825.357 -2.62037 1.71188 0
M  V30 8822 C 825.832 -3.6989 2.70084 0
M  V30 8823 N 827.323 -3.77341 2.68641 0
M  V30 8824 C 828.058 -4.6037 3.41829 0
M  V30 8825 N 827.554 -5.47438 4.24598 0
M  V30 8826 N 829.347 -4.54626 3.30563 0
M  V30 8827 H 821.498 -0.925982 1.91153 0
M  V30 8828 H 823.761 -0.46866 0.824052 0
M  V30 8829 H 823.467 -2.22812 2.72117 0
M  V30 8830 H 823.341 -3.46731 1.48516 0
M  V30 8831 H 825.728 -2.86803 0.694837 0
M  V30 8832 H 825.809 -1.63831 1.96451 0
M  V30 8833 H 825.453 -3.45872 3.71934 0
M  V30 8834 H 825.383 -4.67652 2.42093 0
M  V30 8835 H 827.874 -3.15124 2.08578 0
M  V30 8836 H 828.187 -6.078 4.77283 0
M  V30 8837 H 826.532 -5.4704 4.28687 0
M  V30 8838 H 829.723 -3.85627 2.65347 0
M  V30 8839 H 829.896 -5.19103 3.8786 0
M  V30 8840 N 823.302 -0.75937 -1.38099 0
M  V30 8841 C 824.212 -0.13774 -2.34195 0
M  V30 8842 C 825.228 0.693985 -1.59561 0
M  V30 8843 O 826.404 0.616792 -1.91723 0
M  V30 8844 C 823.469 0.740535 -3.38699 0
M  V30 8845 C 822.53 -0.106225 -4.29169 0
M  V30 8846 C 821.763 0.730225 -5.28681 0
M  V30 8847 O 821.986 1.96796 -5.35376 0
M  V30 8848 O 820.92 0.145969 -6.01723 0
M  V30 8849 H 824.746 -0.931512 -2.89061 0
M  V30 8850 H 822.331 -0.520345 -1.40046 0
M  V30 8851 H 824.213 1.24232 -4.02672 0
M  V30 8852 H 822.888 1.51271 -2.8618 0
M  V30 8853 H 821.795 -0.654088 -3.68337 0
M  V30 8854 H 823.128 -0.841186 -4.84959 0
M  V30 8855 N 824.78 1.49157 -0.508906 0
M  V30 8856 C 826.008 2.06879 0.0293734 0
M  V30 8857 C 826.423 1.36823 1.30095 0
M  V30 8858 O 825.78 0.449034 1.7689 0
M  V30 8859 C 825.831 3.60423 0.278791 0
M  V30 8860 O 825.552 4.27844 -0.942389 0
M  V30 8861 C 827.053 4.34881 0.859825 0
M  V30 8862 H 824.273 0.67057 -0.0240184 0
M  V30 8863 H 826.817 1.91834 -0.708526 0
M  V30 8864 H 824.972 3.75145 0.966689 0
M  V30 8865 H 825.386 5.19671 -0.710097 0
M  V30 8866 H 826.86 5.43161 0.983884 0
M  V30 8867 H 827.337 3.9789 1.85958 0
M  V30 8868 H 827.943 4.24785 0.209152 0
M  V30 8869 N 826.258 0.243083 1.55714 0
M  V30 8870 C 827.188 -0.652336 2.24203 0
M  V30 8871 C 828.169 -1.1843 1.221 0
M  V30 8872 O 829.354 -1.22435 1.50743 0
M  V30 8873 C 826.484 -1.85111 2.93856 0
M  V30 8874 C 825.438 -1.45208 4.02615 0
M  V30 8875 C 824.764 -2.73137 4.59674 0
M  V30 8876 C 826.064 -0.625988 5.18535 0
M  V30 8877 H 827.758 -0.0812504 2.9929 0
M  V30 8878 H 825.304 -0.0376388 1.43951 0
M  V30 8879 H 827.257 -2.48314 3.40468 0
M  V30 8880 H 825.981 -2.44751 2.16251 0
M  V30 8881 H 824.64 -0.843406 3.56766 0
M  V30 8882 H 824.288 -3.30967 3.78774 0
M  V30 8883 H 823.988 -2.47163 5.33089 0
M  V30 8884 H 825.512 -3.37245 5.09017 0
M  V30 8885 H 826.926 -1.16223 5.61396 0
M  V30 8886 H 825.323 -0.462465 5.98315 0
M  V30 8887 H 826.393 0.362652 4.83542 0
M  V30 8888 N 827.736 -1.57571 -0.0300757 0
M  V30 8889 C 828.964 -1.93485 -0.732891 0
M  V30 8890 C 829.379 -0.842758 -1.68947 0
M  V30 8891 O 828.736 0.180904 -1.81601 0
M  V30 8892 C 828.787 -3.29328 -1.49082 0
M  V30 8893 O 828.508 -4.34341 -0.572639 0
M  V30 8894 C 830.009 -3.79517 -2.29088 0
M  V30 8895 H 827.229 -0.638588 -0.206026 0
M  V30 8896 H 829.773 -2.04496 0.0120966 0
M  V30 8897 H 827.928 -3.19716 -2.1877 0
M  V30 8898 H 828.342 -5.12748 -1.10406 0
M  V30 8899 H 829.816 -4.77081 -2.77665 0
M  V30 8900 H 830.293 -3.10659 -3.10464 0
M  V30 8901 H 830.899 -3.92208 -1.64477 0
M  V30 8902 N 829.214 0.302327 -1.54673 0
M  V30 8903 C 830.146 1.39443 -1.81902 0
M  V30 8904 C 831.159 1.46891 -0.701914 0
M  V30 8905 O 832.348 1.49233 -0.979369 0
M  V30 8906 C 829.448 2.77824 -1.9408 0
M  V30 8907 C 828.621 2.93324 -3.24468 0
M  V30 8908 C 827.68 4.12196 -3.27079 0
M  V30 8909 O 826.706 4.04344 -4.00617 0
M  V30 8910 N 827.908 5.22768 -2.52376 0
M  V30 8911 H 830.673 1.1644 -2.76155 0
M  V30 8912 H 828.234 0.492392 -1.54231 0
M  V30 8913 H 830.226 3.5559 -1.9323 0
M  V30 8914 H 828.796 2.9378 -1.06828 0
M  V30 8915 H 828.016 2.02682 -3.38103 0
M  V30 8916 H 829.304 3.0059 -4.10516 0
M  V30 8917 H 828.702 5.32027 -1.92259 0
M  V30 8918 H 827.259 5.98874 -2.57281 0
M  V30 8919 N 830.692 1.47107 0.565454 0
M  V30 8920 C 831.94 1.53005 1.32038 0
M  V30 8921 C 832.261 0.190453 1.94068 0
M  V30 8922 O 831.531 -0.784783 1.79494 0
M  V30 8923 H 830.111 0.563578 0.490294 0
M  V30 8924 H 832.773 1.83351 0.660928 0
M  V30 8925 H 831.869 2.29215 2.11818 0
M  V30 8926 N 832.17 -0.811516 1.35101 0
M  V30 8927 C 833.1 -1.9378 1.30275 0
M  V30 8928 C 834.081 -1.69165 0.178075 0
M  V30 8929 O 835.266 -1.90599 0.372256 0
M  V30 8930 C 832.396 -3.30439 1.06899 0
M  V30 8931 C 831.35 -3.69523 2.15955 0
M  V30 8932 C 830.676 -5.0429 1.77751 0
M  V30 8933 C 831.976 -3.80419 3.57881 0
M  V30 8934 H 833.67 -1.98075 2.24514 0
M  V30 8935 H 831.216 -0.951586 1.08078 0
M  V30 8936 H 833.169 -4.08828 1.02164 0
M  V30 8937 H 831.893 -3.26473 0.0910462 0
M  V30 8938 H 830.552 -2.93416 2.19778 0
M  V30 8939 H 830.2 -4.96823 0.785876 0
M  V30 8940 H 829.9 -5.31411 2.5075 0
M  V30 8941 H 831.424 -5.85125 1.74533 0
M  V30 8942 H 832.838 -4.49051 3.56407 0
M  V30 8943 H 831.235 -4.19005 4.29598 0
M  V30 8944 H 832.305 -2.82105 3.94391 0
M  V30 8945 N 833.648 -1.19017 -1.03309 0
M  V30 8946 C 834.558 -0.939303 -2.14975 0
M  V30 8947 C 835.574 0.0992359 -1.73717 0
M  V30 8948 O 836.75 -0.0844362 -2.01223 0
M  V30 8949 C 833.815 -0.476712 -3.43407 0
M  V30 8950 C 832.876 -1.58413 -3.99003 0
M  V30 8951 C 832.109 -1.14352 -5.21305 0
M  V30 8952 O 832.332 -0.00534408 -5.704 0
M  V30 8953 O 831.266 -1.94436 -5.6963 0
M  V30 8954 H 835.092 -1.87386 -2.38998 0
M  V30 8955 H 832.677 -0.972635 -1.13403 0
M  V30 8956 H 834.559 -0.22718 -4.20787 0
M  V30 8957 H 833.234 0.429455 -3.20839 0
M  V30 8958 H 832.141 -1.88777 -3.22977 0
M  V30 8959 H 833.474 -2.4667 -4.25928 0
M  V30 8960 N 835.127 1.22348 -0.993418 0
M  V30 8961 C 836.374 1.9111 -0.669568 0
M  V30 8962 C 836.702 1.77357 0.79843 0
M  V30 8963 O 835.957 1.13675 1.593 0
M  V30 8964 C 836.256 3.42477 -1.02197 0
M  V30 8965 C 835.922 3.7642 -2.48232 0
M  V30 8966 C 834.584 3.85395 -2.88139 0
M  V30 8967 C 836.936 3.9253 -3.42884 0
M  V30 8968 C 834.264 4.07918 -4.21687 0
M  V30 8969 C 836.616 4.16557 -4.76091 0
M  V30 8970 C 835.28 4.23757 -5.15739 0
M  V30 8971 H 834.55 0.699321 -0.245012 0
M  V30 8972 H 837.197 1.45102 -1.2497 0
M  V30 8973 H 835.502 3.90143 -0.359921 0
M  V30 8974 H 837.199 3.93935 -0.74942 0
M  V30 8975 H 833.789 3.70017 -2.16299 0
M  V30 8976 H 837.973 3.84974 -3.13224 0
M  V30 8977 H 833.229 4.11719 -4.51993 0
M  V30 8978 H 837.403 4.27966 -5.4938 0
M  V30 8979 H 835.03 4.40962 -6.19239 0
M  V30 8980 N 836.605 0.766683 1.37694 0
M  V30 8981 C 837.845 0.333815 2.01656 0
M  V30 8982 C 838.209 -1.06813 1.59546 0
M  V30 8983 O 839.41 -1.60084 2.15932 0
M  V30 8984 C 837.681 0.467032 3.54335 0
M  V30 8985 S 839.24 0.118679 4.38639 0
M  V30 8986 H 836.058 0.128723 0.699251 0
M  V30 8987 H 838.66 1.00018 1.67978 0
M  V30 8988 H 837.364 1.48808 3.82471 0
M  V30 8989 H 836.895 -0.216066 3.92806 0
M  V30 8990 H 838.91 -1.08746 4.84137 0
M  V30 8991 N 838.083 -1.48885 0.516809 0
M  V30 8992 C 839.499 -1.58651 0.173788 0
M  V30 8993 C 839.699 -1.52033 -1.32243 0
M  V30 8994 O 838.755 -1.40251 -2.09967 0
M  V30 8995 C 840.068 -2.90816 0.764628 0
M  V30 8996 C 841.616 -3.04316 0.732164 0
M  V30 8997 C 842.091 -4.39123 1.30135 0
M  V30 8998 N 843.582 -4.45656 1.26273 0
M  V30 8999 C 844.317 -5.48446 1.67317 0
M  V30 9000 N 843.813 -6.58258 2.16028 0
M  V30 9001 N 845.606 -5.39251 1.58635 0
M  V30 9002 H 837.757 -1.5143 1.48939 0
M  V30 9003 H 840.02 -0.718243 0.618733 0
M  V30 9004 H 839.726 -3.01275 1.81456 0
M  V30 9005 H 839.6 -3.76473 0.234113 0
M  V30 9006 H 841.987 -2.93478 -0.308975 0
M  V30 9007 H 842.068 -2.20303 1.3 0
M  V30 9008 H 841.712 -4.50714 2.34135 0
M  V30 9009 H 841.642 -5.21801 0.709305 0
M  V30 9010 H 844.133 -3.66879 0.906006 0
M  V30 9011 H 844.446 -7.32811 2.45374 0
M  V30 9012 H 842.791 -6.59257 2.20013 0
M  V30 9013 H 845.982 -4.52354 1.20387 0
M  V30 9014 H 846.155 -6.19229 1.90944 0
M  V30 9015 N 839.561 -0.251338 -1.55583 0
M  V30 9016 C 840.977 0.103409 -1.59265 0
M  V30 9017 C 841.177 1.56559 -1.26852 0
M  V30 9018 O 840.233 2.31071 -1.01796 0
M  V30 9019 C 841.546 -0.249781 -2.99661 0
M  V30 9020 C 843.094 -0.194442 -3.12395 0
M  V30 9021 C 843.569 -0.521728 -4.55019 0
M  V30 9022 N 845.06 -0.472393 -4.60785 0
M  V30 9023 C 845.795 -0.698737 -5.69127 0
M  V30 9024 N 845.291 -0.988443 -6.85713 0
M  V30 9025 N 847.084 -0.629143 -5.58568 0
M  V30 9026 H 839.235 -1.20484 -1.74921 0
M  V30 9027 H 841.498 -0.485092 -0.814488 0
M  V30 9028 H 841.204 -1.26577 -3.28133 0
M  V30 9029 H 841.078 0.420973 -3.74844 0
M  V30 9030 H 843.465 0.812229 -2.83702 0
M  V30 9031 H 843.546 -0.899111 -2.39478 0
M  V30 9032 H 843.19 -1.52597 -4.84434 0
M  V30 9033 H 843.12 0.204468 -5.26203 0
M  V30 9034 H 845.611 -0.257386 -3.77022 0
M  V30 9035 H 845.924 -1.14846 -7.64219 0
M  V30 9036 H 844.269 -1.02596 -6.87386 0
M  V30 9037 H 847.46 -0.402826 -4.66364 0
M  V30 9038 H 847.633 -0.808935 -6.42931 0
M  V30 9039 N 841.039 1.57585 0.0217189 0
M  V30 9040 C 841.971 2.03849 1.04777 0
M  V30 9041 C 842.984 0.952558 1.32023 0
M  V30 9042 O 844.173 1.22974 1.29381 0
M  V30 9043 C 841.273 2.40504 2.3877 0
M  V30 9044 C 840.446 3.71566 2.30775 0
M  V30 9045 C 839.505 3.95329 3.47277 0
M  V30 9046 O 838.531 4.66289 3.26441 0
M  V30 9047 N 839.733 3.41536 4.69397 0
M  V30 9048 H 842.498 2.92491 0.653395 0
M  V30 9049 H 840.059 1.60538 0.209527 0
M  V30 9050 H 842.051 2.53532 3.15442 0
M  V30 9051 H 840.621 1.57494 2.70027 0
M  V30 9052 H 839.841 3.68822 1.39155 0
M  V30 9053 H 841.129 4.5753 2.22584 0
M  V30 9054 H 840.527 2.84033 4.89226 0
M  V30 9055 H 839.084 3.59932 5.43408 0
M  V30 9056 N 842.517 -0.29412 1.54831 0
M  V30 9057 C 843.449 -1.38476 1.82639 0
M  V30 9058 C 844.462 -1.46517 0.709694 0
M  V30 9059 O 845.651 -1.48712 0.987269 0
M  V30 9060 C 842.751 -2.76791 1.95551 0
M  V30 9061 C 841.924 -2.91599 3.26019 0
M  V30 9062 C 840.983 -4.10456 3.29261 0
M  V30 9063 O 840.009 -4.02214 4.02756 0
M  V30 9064 N 841.211 -5.21422 2.55145 0
M  V30 9065 H 843.976 -1.14974 2.76769 0
M  V30 9066 H 841.537 -0.484206 1.5449 0
M  V30 9067 H 843.529 -3.5456 1.95113 0
M  V30 9068 H 842.099 -2.93209 1.08384 0
M  V30 9069 H 841.319 -2.00886 3.39173 0
M  V30 9070 H 842.607 -2.98409 4.12104 0
M  V30 9071 H 842.005 -5.31 1.95078 0
M  V30 9072 H 840.562 -5.97501 2.60454 0
M  V30 9073 N 843.995 -1.47404 -0.557645 0
M  V30 9074 C 845.411 -1.32913 -0.88353 0
M  V30 9075 C 845.611 -0.31929 -1.98954 0
M  V30 9076 O 844.667 0.26934 -2.51059 0
M  V30 9077 C 845.98 -2.72229 -1.27718 0
M  V30 9078 C 847.528 -2.8051 -1.38863 0
M  V30 9079 C 848.003 -4.20466 -1.81583 0
M  V30 9080 N 849.494 -4.23005 -1.88735 0
M  V30 9081 C 850.229 -5.2821 -2.23118 0
M  V30 9082 N 849.725 -6.4372 -2.56117 0
M  V30 9083 N 851.518 -5.15588 -2.23888 0
M  V30 9084 H 843.669 -2.11698 0.172557 0
M  V30 9085 H 845.932 -0.947889 0.0145334 0
M  V30 9086 H 845.638 -3.47556 -0.538329 0
M  V30 9087 H 845.512 -3.03971 -2.23342 0
M  V30 9088 H 847.899 -2.05457 -2.11829 0
M  V30 9089 H 847.98 -2.52423 -0.414274 0
M  V30 9090 H 847.624 -4.96025 -1.09187 0
M  V30 9091 H 847.554 -4.45977 -2.80021 0
M  V30 9092 H 850.045 -3.39674 -1.65621 0
M  V30 9093 H 850.358 -7.19754 -2.81378 0
M  V30 9094 H 848.703 -6.47041 -2.53698 0
M  V30 9095 H 851.894 -4.24374 -1.97546 0
M  V30 9096 H 852.067 -5.97685 -2.50353 0
M  V30 9097 N 845.473 0.80434 -1.35529 0
M  V30 9098 C 846.436 1.89788 -1.28503 0
M  V30 9099 C 847.436 1.59601 -0.195983 0
M  V30 9100 O 848.626 1.68292 -0.449827 0
M  V30 9101 C 845.758 3.26255 -0.98847 0
M  V30 9102 H 846.951 1.97436 -2.25741 0
M  V30 9103 H 844.504 1.00046 -1.20086 0
M  V30 9104 H 845.239 3.24294 -0.0200541 0
M  V30 9105 H 845.024 3.49551 -1.77641 0
M  V30 9106 H 846.514 4.06298 -0.964975 0
M  V30 9107 N 846.951 1.19563 1.02676 0
M  V30 9108 C 848.228 0.908857 1.73203 0
M  V30 9109 C 848.608 -0.584928 2.02834 0
M  V30 9110 O 847.956 -1.54372 1.68469 0
M  V30 9111 C 848.166 1.77105 3.00724 0
M  V30 9112 C 849.514 2.00667 3.7419 0
M  V30 9113 O 850.538 1.74274 3.10656 0
M  V30 9114 O 849.397 2.4518 4.88415 0
M  V30 9115 H 846.491 0.338909 0.754367 0
M  V30 9116 H 849.037 1.30387 1.08616 0
M  V30 9117 H 847.809 2.78303 2.7507 0
M  V30 9118 H 847.432 1.37546 3.73051 0
M  V30 9119 N 848.429 -1.21819 0.999893 0
M  V30 9120 C 849.677 -1.90375 0.678351 0
M  V30 9121 C 849.998 -1.78155 -0.792824 0
M  V30 9122 O 849.268 -1.17319 -1.56885 0
M  V30 9123 H 847.848 -0.704661 0.247915 0
M  V30 9124 H 850.51 -1.48021 1.2679 0
M  V30 9125 H 849.606 -2.97385 0.947023 0
M  V30 9126 N 849.908 -0.773975 -1.37286 0
M  V30 9127 C 851.133 -0.349561 -2.04433 0
M  V30 9128 C 851.558 1.02082 -1.5799 0
M  V30 9129 O 850.916 1.65458 -0.741172 0
M  V30 9130 C 850.964 -0.404292 -3.58326 0
M  V30 9131 O 850.068 0.594447 -4.08093 0
M  V30 9132 H 849.409 -0.150959 -0.646612 0
M  V30 9133 H 851.939 -1.05079 -1.75555 0
M  V30 9134 H 851.949 -0.262378 -4.07155 0
M  V30 9135 H 850.624 -1.40403 -3.91484 0
M  V30 9136 H 849.201 0.415468 -3.70578 0
M  V30 9137 N 851.386 1.48609 -0.524698 0
M  V30 9138 C 852.632 2.034 0.00323579 0
M  V30 9139 C 852.987 1.39513 1.32491 0
M  V30 9140 O 852.28 0.529876 1.84127 0
M  V30 9141 C 852.474 3.56906 0.187873 0
M  V30 9142 C 852.303 4.35674 -1.11436 0
M  V30 9143 C 851.073 4.76809 -1.67276 0
M  V30 9144 C 853.271 4.72814 -2.02365 0
M  V30 9145 N 851.253 5.40093 -2.91843 0
M  V30 9146 C 852.624 5.36062 -3.11508 0
M  V30 9147 C 854.679 4.54747 -2.02755 0
M  V30 9148 C 853.382 5.83154 -4.21099 0
M  V30 9149 C 855.408 5.02815 -3.11337 0
M  V30 9150 C 854.77 5.66084 -4.19199 0
M  V30 9151 H 850.869 0.780967 -0.0401842 0
M  V30 9152 H 853.453 1.81495 -0.704808 0
M  V30 9153 H 851.624 3.78645 0.864996 0
M  V30 9154 H 853.356 3.98335 0.714938 0
M  V30 9155 H 850.111 4.57754 -1.21483 0
M  V30 9156 H 850.535 5.76305 -3.55249 0
M  V30 9157 H 855.177 4.05217 -1.20661 0
M  V30 9158 H 852.895 6.31692 -5.03975 0
M  V30 9159 H 856.481 4.9063 -3.12688 0
M  V30 9160 H 855.361 6.02604 -5.01834 0
M  V30 9161 N 852.864 0.259585 1.55447 0
M  V30 9162 C 853.774 -0.645026 2.25558 0
M  V30 9163 C 854.79 -1.18291 1.27606 0
M  V30 9164 O 855.966 -1.21649 1.6051 0
M  V30 9165 C 853.031 -1.81964 2.9511 0
M  V30 9166 C 852.092 -1.31997 4.08504 0
M  V30 9167 C 851.325 -2.43861 4.74729 0
M  V30 9168 O 851.548 -3.62876 4.40088 0
M  V30 9169 O 850.482 -2.12898 5.6299 0
M  V30 9170 H 854.308 -0.0775399 3.03601 0
M  V30 9171 H 851.893 0.0275859 1.49375 0
M  V30 9172 H 853.775 -2.50485 3.38873 0
M  V30 9173 H 852.45 -2.37451 2.19997 0
M  V30 9174 H 851.357 -0.601676 3.6923 0
M  V30 9175 H 852.69 -0.811045 4.85472 0
M  V30 9176 N 854.342 -1.57594 -0.0133615 0
M  V30 9177 C 855.59 -1.89605 -0.699596 0
M  V30 9178 C 855.911 -0.85926 -1.75048 0
M  V30 9179 O 855.181 0.105112 -1.95618 0
M  V30 9180 H 853.761 -0.699776 -0.261385 0
M  V30 9181 H 856.423 -1.94885 0.0244044 0
M  V30 9182 H 855.519 -2.88962 -1.17928 0
M  V30 9183 N 855.82 0.285905 -1.54985 0
M  V30 9184 C 857.045 1.04207 -1.7932 0
M  V30 9185 C 857.47 1.79622 -0.558343 0
M  V30 9186 O 856.828 1.74506 0.491661 0
M  V30 9187 C 856.876 1.98648 -3.0095 0
M  V30 9188 O 855.98 3.07207 -2.75132 0
M  V30 9189 H 855.321 0.298596 -0.593074 0
M  V30 9190 H 857.851 0.318736 -2.02102 0
M  V30 9191 H 857.861 2.4084 -3.29333 0
M  V30 9192 H 856.536 1.43167 -3.90482 0
M  V30 9193 H 855.113 2.69423 -2.57809 0
M  V30 9194 N 857.298 1.47698 0.54982 0
M  V30 9195 C 858.544 1.55914 1.30624 0
M  V30 9196 C 858.899 0.221596 1.9112 0
M  V30 9197 O 858.192 -0.77351 1.75292 0
M  V30 9198 C 858.386 2.61903 2.4319 0
M  V30 9199 C 858.215 4.05833 1.93725 0
M  V30 9200 C 856.985 4.73199 1.77231 0
M  V30 9201 C 859.183 4.92624 1.47738 0
M  V30 9202 N 857.165 6.01618 1.22183 0
M  V30 9203 C 858.536 6.11129 1.04505 0
M  V30 9204 C 860.591 4.79006 1.35857 0
M  V30 9205 C 859.294 7.1752 0.505722 0
M  V30 9206 C 861.32 5.85501 0.833254 0
M  V30 9207 C 860.682 7.03201 0.410894 0
M  V30 9208 H 856.781 0.625194 0.469741 0
M  V30 9209 H 859.365 1.84485 0.622369 0
M  V30 9210 H 857.536 2.35188 3.09098 0
M  V30 9211 H 859.268 2.59919 3.102 0
M  V30 9212 H 856.023 4.29221 2.00166 0
M  V30 9213 H 856.447 6.70054 0.967263 0
M  V30 9214 H 861.089 3.88369 1.67122 0
M  V30 9215 H 858.807 8.07898 0.180721 0
M  V30 9216 H 862.393 5.77013 0.744781 0
M  V30 9217 H 861.273 7.84199 0.0107086 0
M  V30 9218 N 858.776 -0.797141 1.35954 0
M  V30 9219 C 860.024 -1.55161 1.29497 0
M  V30 9220 C 860.345 -1.94582 -0.127659 0
M  V30 9221 O 859.615 -1.64343 -1.06622 0
M  V30 9222 H 858.195 -0.575413 0.47635 0
M  V30 9223 H 860.857 -0.950282 1.70164 0
M  V30 9224 H 859.953 -2.46272 1.9172 0
M  V30 9225 N 860.254 -1.20106 -1.0204 0
M  V30 9226 C 861.5 -1.01039 -1.75838 0
M  V30 9227 C 861.833 0.456819 -1.88751 0
M  V30 9228 O 861.108 1.33919 -1.41053 0
M  V30 9229 C 861.391 -1.69009 -3.17975 0
M  V30 9230 C 861.244 -3.2315 -3.1288 0
M  V30 9231 C 862.563 -1.42005 -4.16561 0
M  V30 9232 H 859.682 -0.368465 -0.638281 0
M  V30 9233 H 862.324 -1.48066 -1.19064 0
M  V30 9234 H 860.474 -1.29026 -3.66449 0
M  V30 9235 H 862.146 -3.72402 -2.72239 0
M  V30 9236 H 860.389 -3.54253 -2.50374 0
M  V30 9237 H 861.06 -3.65862 -4.13339 0
M  V30 9238 H 863.536 -1.76685 -3.76725 0
M  V30 9239 H 862.412 -1.92101 -5.14187 0
M  V30 9240 H 862.673 -0.346884 -4.40737 0
M  V30 9241 N 861.732 1.21287 -1.00634 0
M  V30 9242 C 862.972 1.92106 -0.698194 0
M  V30 9243 C 863.336 1.76437 0.757222 0
M  V30 9244 O 864.537 2.41641 1.17741 0
M  V30 9245 C 862.808 3.39748 -1.10932 0
M  V30 9246 S 864.367 4.29013 -0.921586 0
M  V30 9247 H 861.185 0.663755 -0.254853 0
M  V30 9248 H 863.787 1.46772 -1.29145 0
M  V30 9249 H 862.491 3.48669 -2.16467 0
M  V30 9250 H 862.022 3.90101 -0.508419 0
M  V30 9251 H 864.037 4.95871 0.180578 0
M  V30 9252 N 863.21 0.781244 1.36873 0
M  V30 9253 C 864.457 0.349889 1.99454 0
M  V30 9254 C 864.785 -1.07621 1.62013 0
M  V30 9255 O 864.04 -1.75665 0.86258 0
M  V30 9256 C 864.339 0.45146 3.54537 0
M  V30 9257 C 864.005 1.83718 4.11775 0
M  V30 9258 C 862.667 2.21634 4.2712 0
M  V30 9259 C 865.019 2.7449 4.43063 0
M  V30 9260 C 862.347 3.49742 4.7106 0
M  V30 9261 C 864.699 4.02017 4.88431 0
M  V30 9262 C 863.363 4.39967 5.01982 0
M  V30 9263 H 862.633 0.128033 0.729855 0
M  V30 9264 H 865.28 0.997117 1.63493 0
M  V30 9265 H 863.585 -0.279288 3.90803 0
M  V30 9266 H 865.282 0.0988609 4.00878 0
M  V30 9267 H 861.872 1.53251 4.00265 0
M  V30 9268 H 866.056 2.46453 4.30783 0
M  V30 9269 H 861.312 3.79026 4.79738 0
M  V30 9270 H 865.486 4.72475 5.11605 0
M  V30 9271 H 863.113 5.39291 5.35788 0
M  V30 9272 N 864.689 -1.48329 0.532571 0
M  V30 9273 C 865.917 -2.069 0.00354299 0
M  V30 9274 C 866.332 -1.38876 -1.27902 0
M  V30 9275 O 865.689 -0.477119 -1.76153 0
M  V30 9276 C 865.74 -3.60821 -0.221416 0
M  V30 9277 O 865.461 -4.26291 1.01034 0
M  V30 9278 C 866.962 -4.36194 -0.790531 0
M  V30 9279 H 864.182 -0.670103 0.0346836 0
M  V30 9280 H 866.726 -1.90682 0.738955 0
M  V30 9281 H 864.881 -3.76636 -0.906884 0
M  V30 9282 H 865.295 -5.18475 0.792683 0
M  V30 9283 H 866.769 -5.44657 -0.897347 0
M  V30 9284 H 867.246 -4.00798 -1.79605 0
M  V30 9285 H 867.852 -4.25064 -0.141546 0
M  V30 9286 N 866.167 -0.267825 -1.55308 0
M  V30 9287 C 867.397 0.354073 -2.03543 0
M  V30 9288 C 867.805 1.50554 -1.14586 0
M  V30 9289 O 867.148 1.83028 -0.156991 0
M  V30 9290 C 867.21 0.904148 -3.47945 0
M  V30 9291 C 866.874 -0.11775 -4.56848 0
M  V30 9292 C 867.871 -0.934707 -5.11429 0
M  V30 9293 C 865.556 -0.249885 -5.01678 0
M  V30 9294 C 867.55 -1.87005 -6.0935 0
M  V30 9295 C 865.237 -1.18872 -5.99427 0
M  V30 9296 C 866.235 -1.99731 -6.53144 0
M  V30 9297 O 865.923 -2.92028 -7.48983 0
M  V30 9298 H 865.655 0.0857765 -0.670536 0
M  V30 9299 H 868.209 -0.395515 -2.01556 0
M  V30 9300 H 866.439 1.70368 -3.47148 0
M  V30 9301 H 868.128 1.43835 -3.79561 0
M  V30 9302 H 868.894 -0.84332 -4.77612 0
M  V30 9303 H 864.773 0.369469 -4.59517 0
M  V30 9304 H 868.317 -2.5016 -6.51203 0
M  V30 9305 H 864.214 -1.28095 -6.32663 0
M  V30 9306 H 864.982 -2.86627 -7.66673 0
M  V30 9307 N 867.645 1.57599 0.00500368 0
M  V30 9308 C 868.893 1.89973 0.68953 0
M  V30 9309 C 869.214 0.868531 1.7459 0
M  V30 9310 O 868.484 -0.0947367 1.95671 0
M  V30 9311 H 867.064 0.701153 0.25767 0
M  V30 9312 H 869.726 1.94869 -0.0347392 0
M  V30 9313 H 868.822 2.89584 1.16394 0
M  V30 9314 N 869.123 -0.277682 1.55134 0
M  V30 9315 C 870.351 -1.02826 1.7954 0
M  V30 9316 C 870.766 -1.80105 0.566373 0
M  V30 9317 O 870.123 -1.76491 -0.464448 0
M  V30 9318 C 870.174 -1.99053 3.01762 0
M  V30 9319 O 869.895 -1.24906 4.19917 0
M  V30 9320 C 871.396 -2.85961 3.38735 0
M  V30 9321 H 868.616 -0.303958 0.598206 0
M  V30 9322 H 871.16 -0.309884 2.02138 0
M  V30 9323 H 869.315 -2.66359 2.81303 0
M  V30 9324 H 869.729 -1.89725 4.88983 0
M  V30 9325 H 871.203 -3.49286 4.27438 0
M  V30 9326 H 871.68 -3.55486 2.57928 0
M  V30 9327 H 872.286 -2.24152 3.61436 0
M  V30 9328 N 870.601 -1.47988 -0.541979 0
M  V30 9329 C 871.847 -1.56604 -1.29795 0
M  V30 9330 C 872.202 -0.231728 -1.90999 0
M  V30 9331 O 871.495 0.764203 -1.757 0
M  V30 9332 C 871.689 -2.63189 -2.41798 0
M  V30 9333 C 871.518 -4.06855 -1.9157 0
M  V30 9334 C 870.288 -4.74132 -1.74719 0
M  V30 9335 C 872.486 -4.934 -1.45123 0
M  V30 9336 N 870.468 -6.02258 -1.18991 0
M  V30 9337 C 871.839 -6.11675 -1.01263 0
M  V30 9338 C 873.894 -4.7972 -1.33315 0
M  V30 9339 C 872.597 -7.17778 -0.467663 0
M  V30 9340 C 874.623 -5.85934 -0.802192 0
M  V30 9341 C 873.985 -7.03409 -0.373595 0
M  V30 9342 H 870.084 -0.627677 -0.466418 0
M  V30 9343 H 872.668 -1.84812 -0.612576 0
M  V30 9344 H 870.839 -2.36823 -3.07846 0
M  V30 9345 H 872.571 -2.6156 -3.08818 0
M  V30 9346 H 869.326 -4.30276 -1.97887 0
M  V30 9347 H 869.75 -6.70558 -0.931715 0
M  V30 9348 H 874.392 -3.89249 -1.6506 0
M  V30 9349 H 872.11 -8.07982 -0.137874 0
M  V30 9350 H 875.696 -5.774 -0.714171 0
M  V30 9351 H 874.576 -7.84194 0.0308796 0
M  V30 9352 N 872.079 0.78992 -1.36375 0
M  V30 9353 C 873.326 1.54777 -1.30576 0
M  V30 9354 C 873.654 1.94159 0.115095 0
M  V30 9355 O 872.909 1.62918 1.08426 0
M  V30 9356 C 873.208 2.83698 -2.17371 0
M  V30 9357 C 872.874 2.63457 -3.65925 0
M  V30 9358 C 871.536 2.57645 -4.06415 0
M  V30 9359 C 873.888 2.44833 -4.60115 0
M  V30 9360 C 871.216 2.31174 -5.39236 0
M  V30 9361 C 873.568 2.19889 -5.93154 0
M  V30 9362 C 872.232 2.1251 -6.32768 0
M  V30 9363 H 871.502 0.566371 -0.477813 0
M  V30 9364 H 874.149 0.91138 -1.68422 0
M  V30 9365 H 872.454 3.51802 -1.72459 0
M  V30 9366 H 874.151 3.41487 -2.10209 0
M  V30 9367 H 870.741 2.68836 -3.33804 0
M  V30 9368 H 874.925 2.48325 -4.29707 0
M  V30 9369 H 870.181 2.23942 -5.68911 0
M  V30 9370 H 874.355 2.04473 -6.65705 0
M  V30 9371 H 871.982 1.91761 -7.35616 0
M  V30 9372 N 873.557 1.20646 1.01402 0
M  V30 9373 C 874.805 1.01618 1.74695 0
M  V30 9374 C 875.126 -0.452438 1.89679 0
M  V30 9375 O 874.396 -1.32693 1.44116 0
M  V30 9376 H 872.976 0.373013 0.647202 0
M  V30 9377 H 875.638 1.518 1.22241 0
M  V30 9378 H 874.734 1.47666 2.74957 0
M  V30 9379 N 875.035 -1.20752 1.01276 0
M  V30 9380 C 875.965 -2.25658 0.600064 0
M  V30 9381 C 876.946 -1.65733 -0.38298 0
M  V30 9382 O 878.131 -1.92324 -0.269256 0
M  V30 9383 C 875.261 -3.47237 -0.0663197 0
M  V30 9384 C 874.215 -4.1973 0.83731 0
M  V30 9385 C 873.541 -5.34687 0.0369102 0
M  V30 9386 C 874.841 -4.76286 2.14357 0
M  V30 9387 H 876.535 -2.60432 1.477 0
M  V30 9388 H 874.081 -1.25187 0.711634 0
M  V30 9389 H 876.034 -4.19803 -0.366563 0
M  V30 9390 H 874.758 -3.11615 -0.977944 0
M  V30 9391 H 873.417 -3.49024 1.1215 0
M  V30 9392 H 873.065 -4.95309 -0.876244 0
M  V30 9393 H 872.765 -5.84119 0.63865 0
M  V30 9394 H 874.289 -6.10059 -0.256968 0
M  V30 9395 H 875.703 -5.40691 1.90595 0
M  V30 9396 H 874.1 -5.36139 2.69583 0
M  V30 9397 H 875.17 -3.9524 2.80916 0
M  V30 9398 N 876.513 -0.788492 -1.36457 0
M  V30 9399 C 877.423 -0.187385 -2.3385 0
M  V30 9400 C 878.439 0.659984 -1.60998 0
M  V30 9401 O 879.615 0.575986 -1.92988 0
M  V30 9402 C 876.68 0.668525 -3.40194 0
M  V30 9403 C 875.741 -0.197234 -4.28847 0
M  V30 9404 C 874.974 0.61792 -5.30111 0
M  V30 9405 O 875.197 1.85396 -5.3943 0
M  V30 9406 O 874.131 0.0183016 -6.01897 0
M  V30 9407 H 877.957 -0.992617 -2.87021 0
M  V30 9408 H 875.542 -0.549934 -1.3891 0
M  V30 9409 H 877.424 1.15663 -4.05216 0
M  V30 9410 H 876.099 1.45166 -2.89324 0
M  V30 9411 H 875.006 -0.73207 -3.66867 0
M  V30 9412 H 876.339 -0.943863 -4.83065 0
M  V30 9413 N 877.991 1.48044 -0.54043 0
M  V30 9414 C 878.954 2.28273 0.205966 0
M  V30 9415 C 879.954 1.35983 0.858209 0
M  V30 9416 O 881.144 1.58776 0.716651 0
M  V30 9417 C 878.276 3.15174 1.29917 0
M  V30 9418 H 879.469 2.95727 -0.498555 0
M  V30 9419 H 877.022 1.53457 -0.296745 0
M  V30 9420 H 877.757 2.52374 2.03661 0
M  V30 9421 H 877.542 3.83074 0.836475 0
M  V30 9422 H 879.032 3.75666 1.82387 0
M  V30 9423 N 879.47 0.276058 1.55163 0
M  V30 9424 C 880.717 -0.340455 1.99618 0
M  V30 9425 C 881.045 -1.5579 1.16446 0
M  V30 9426 O 880.3 -1.94433 0.222359 0
M  V30 9427 C 880.599 -0.765744 3.491 0
M  V30 9428 C 880.265 0.347174 4.49561 0
M  V30 9429 C 878.927 0.65276 4.76752 0
M  V30 9430 C 881.279 1.09705 5.09523 0
M  V30 9431 C 878.607 1.71179 5.61173 0
M  V30 9432 C 880.959 2.14581 5.95095 0
M  V30 9433 C 879.623 2.45773 6.20606 0
M  V30 9434 H 878.893 -0.124581 0.730452 0
M  V30 9435 H 881.54 0.389966 1.87487 0
M  V30 9436 H 879.845 -1.57585 3.58712 0
M  V30 9437 H 881.542 -1.25352 3.80904 0
M  V30 9438 H 878.132 0.0988779 4.28486 0
M  V30 9439 H 882.316 0.874223 4.8854 0
M  V30 9440 H 877.572 1.95846 5.79184 0
M  V30 9441 H 881.746 2.7316 6.40591 0
M  V30 9442 H 879.373 3.27969 6.85813 0
M  V30 9443 N 880.948 -1.576 0.00335426 0
M  V30 9444 C 881.911 -2.07576 -0.971838 0
M  V30 9445 C 882.911 -0.985796 -1.27038 0
M  V30 9446 O 884.101 -1.24833 -1.21501 0
M  V30 9447 C 881.233 -2.52003 -2.29581 0
M  V30 9448 H 882.426 -2.95008 -0.539481 0
M  V30 9449 H 879.979 -1.54381 -0.244186 0
M  V30 9450 H 880.714 -1.67825 -2.77498 0
M  V30 9451 H 880.499 -3.31609 -2.09231 0
M  V30 9452 H 881.989 -2.90983 -2.99531 0
M  V30 9453 N 882.426 0.269451 -1.5528 0
M  V30 9454 C 883.666 1.00819 -1.77806 0
M  V30 9455 C 884.03 1.83369 -0.569198 0
M  V30 9456 O 885.231 2.60244 -0.672783 0
M  V30 9457 C 883.502 1.86447 -3.04913 0
M  V30 9458 S 885.061 2.66538 -3.48573 0
M  V30 9459 H 881.879 0.339508 -0.624704 0
M  V30 9460 H 884.481 0.278256 -1.9351 0
M  V30 9461 H 883.185 1.24733 -3.90986 0
M  V30 9462 H 882.716 2.63755 -2.91885 0
M  V30 9463 H 884.731 3.88938 -3.08126 0
M  V30 9464 N 883.904 1.48273 0.534124 0
M  V30 9465 C 884.837 1.57053 1.65559 0
M  V30 9466 C 885.815 0.421213 1.5705 0
M  V30 9467 O 886.999 0.632242 1.77581 0
M  V30 9468 C 884.126 1.49465 3.03937 0
M  V30 9469 C 883.172 2.69186 3.30819 0
M  V30 9470 S 884.005 4.31192 3.17543 0
M  V30 9471 C 885.161 4.26197 4.58375 0
M  V30 9472 H 885.394 2.51927 1.57861 0
M  V30 9473 H 882.927 1.36755 0.716763 0
M  V30 9474 H 884.885 1.45775 3.83745 0
M  V30 9475 H 883.546 0.559357 3.09079 0
M  V30 9476 H 882.739 2.60005 4.31756 0
M  V30 9477 H 882.341 2.70118 2.58674 0
M  V30 9478 H 884.633 3.95874 5.49809 0
M  V30 9479 H 885.576 5.27299 4.72611 0
M  V30 9480 H 885.984 3.56723 4.37503 0
M  V30 9481 N 885.382 -0.782676 1.36792 0
M  V30 9482 C 886.63 -1.53778 1.31136 0
M  V30 9483 C 886.951 -1.94706 -0.107014 0
M  V30 9484 O 886.221 -1.65465 -1.04872 0
M  V30 9485 H 884.801 -0.570328 0.482426 0
M  V30 9486 H 887.463 -0.932181 1.71162 0
M  V30 9487 H 886.559 -2.44224 1.94321 0
M  V30 9488 N 886.86 -1.21182 -1.00761 0
M  V30 9489 C 887.792 -0.926523 -2.09638 0
M  V30 9490 C 888.805 0.0892511 -1.62555 0
M  V30 9491 O 889.994 -0.142915 -1.77927 0
M  V30 9492 C 887.094 -0.369175 -3.36883 0
M  V30 9493 C 886.267 -1.43866 -4.13063 0
M  V30 9494 C 885.326 -0.891015 -5.18601 0
M  V30 9495 O 884.352 -1.57384 -5.47009 0
M  V30 9496 N 885.554 0.295057 -5.7975 0
M  V30 9497 H 888.319 -1.8638 -2.34697 0
M  V30 9498 H 885.88 -1.11671 -1.17223 0
M  V30 9499 H 887.872 0.011534 -4.04698 0
M  V30 9500 H 886.442 0.472861 -3.09003 0
M  V30 9501 H 885.662 -1.99332 -3.40089 0
M  V30 9502 H 886.95 -2.15866 -4.60738 0
M  V30 9503 H 886.348 0.8669 -5.59018 0
M  V30 9504 H 884.905 0.617306 -6.4887 0
M  V30 9505 N 888.338 1.20213 -1.01915 0
M  V30 9506 C 889.566 1.93622 -0.729255 0
M  V30 9507 C 889.981 1.74923 0.710444 0
M  V30 9508 O 889.338 1.06484 1.48214 0
M  V30 9509 C 889.389 3.45651 -1.05865 0
M  V30 9510 O 889.11 3.63741 -2.44181 0
M  V30 9511 C 890.611 4.36201 -0.790176 0
M  V30 9512 H 887.831 0.615333 -0.267594 0
M  V30 9513 H 890.375 1.52633 -1.36101 0
M  V30 9514 H 888.53 3.84511 -0.47225 0
M  V30 9515 H 888.944 4.57702 -2.56143 0
M  V30 9516 H 890.418 5.41516 -1.07071 0
M  V30 9517 H 890.895 4.38334 0.275609 0
M  V30 9518 H 891.501 4.03008 -1.35885 0
M  V30 9519 N 889.816 0.795718 1.36037 0
M  V30 9520 C 891.046 0.382597 2.03026 0
M  V30 9521 C 891.454 -1.00779 1.60126 0
M  V30 9522 O 890.797 -1.65884 0.78919 0
M  V30 9523 C 890.859 0.374145 3.57548 0
M  V30 9524 C 890.523 1.71318 4.23673 0
M  V30 9525 C 891.52 2.6697 4.4612 0
M  V30 9526 C 889.205 1.99421 4.61017 0
M  V30 9527 C 891.199 3.88916 5.04998 0
M  V30 9528 C 888.886 3.21632 5.19611 0
M  V30 9529 C 889.884 4.16198 5.41542 0
M  V30 9530 O 889.572 5.36254 5.98905 0
M  V30 9531 H 889.304 0.154944 0.658003 0
M  V30 9532 H 891.858 1.07756 1.74865 0
M  V30 9533 H 890.088 -0.377349 3.84854 0
M  V30 9534 H 891.777 -0.01517 4.05897 0
M  V30 9535 H 892.543 2.46548 4.17659 0
M  V30 9536 H 888.422 1.2663 4.43267 0
M  V30 9537 H 891.966 4.6274 5.22032 0
M  V30 9538 H 887.863 3.4193 5.47498 0
M  V30 9539 H 888.631 5.37403 6.17366 0
M  V30 9540 N 891.294 -1.47756 0.548274 0
M  V30 9541 C 892.71 -1.58247 0.207401 0
M  V30 9542 C 892.91 -1.54804 -1.28988 0
M  V30 9543 O 891.966 -1.44673 -2.06944 0
M  V30 9544 C 893.279 -2.89129 0.826142 0
M  V30 9545 C 894.827 -3.02695 0.79655 0
M  V30 9546 C 895.302 -4.36264 1.3942 0
M  V30 9547 N 896.793 -4.42877 1.35698 0
M  V30 9548 C 897.528 -5.44773 1.78913 0
M  V30 9549 N 897.024 -6.53528 2.29942 0
M  V30 9550 N 898.817 -5.35765 1.70038 0
M  V30 9551 H 890.968 -1.48236 1.52117 0
M  V30 9552 H 893.231 -0.704957 0.633829 0
M  V30 9553 H 892.937 -2.97358 1.87806 0
M  V30 9554 H 892.811 -3.75891 0.313916 0
M  V30 9555 H 895.198 -2.94067 -0.246655 0
M  V30 9556 H 895.279 -2.17496 1.34644 0
M  V30 9557 H 894.923 -4.45646 2.43642 0
M  V30 9558 H 894.853 -5.20179 0.819827 0
M  V30 9559 H 897.344 -3.64874 0.983623 0
M  V30 9560 H 897.657 -7.27441 2.60863 0
M  V30 9561 H 896.002 -6.54442 2.33947 0
M  V30 9562 H 899.193 -4.49699 1.29955 0
M  V30 9563 H 899.366 -6.1504 2.04035 0
M  V30 9564 N 892.772 -0.284283 -1.55015 0
M  V30 9565 C 894.049 0.382125 -1.91831 0
M  V30 9566 C 894.429 1.73007 -1.20962 0
M  V30 9567 O 893.777 2.25962 -0.339594 0
M  V30 9568 C 893.987 0.513341 -3.45204 0
M  V30 9569 C 895.335 0.791989 -4.17148 0
M  V30 9570 O 896.359 0.597799 -3.51148 0
M  V30 9571 O 895.218 1.16394 -5.33961 0
M  V30 9572 H 892.312 0.210707 -0.799707 0
M  V30 9573 H 894.858 -0.331111 -1.66438 0
M  V30 9574 H 893.63 -0.434911 -3.88876 0
M  V30 9575 H 893.253 1.27569 -3.76579 0
M  V30 9576 N 894.251 1.57596 -0.0117121 0
M  V30 9577 C 895.499 1.90694 0.669342 0
M  V30 9578 C 895.82 0.886999 1.73659 0
M  V30 9579 O 895.09 -0.0739779 1.9576 0
M  V30 9580 H 893.67 0.703846 0.250219 0
M  V30 9581 H 896.332 1.94821 -0.0554057 0
M  V30 9582 H 895.428 2.90802 1.13316 0
M  V30 9583 N 895.729 -0.261212 1.5542 0
M  V30 9584 C 896.957 -1.00916 1.8062 0
M  V30 9585 C 897.372 -1.79494 0.585444 0
M  V30 9586 O 896.729 -1.76974 -0.445702 0
M  V30 9587 C 896.78 -1.95841 3.03856 0
M  V30 9588 O 896.501 -1.20445 4.21218 0
M  V30 9589 C 898.002 -2.82352 3.41749 0
M  V30 9590 H 895.222 -0.297596 0.601397 0
M  V30 9591 H 897.766 -0.288427 2.02456 0
M  V30 9592 H 895.921 -2.63361 2.84112 0
M  V30 9593 H 896.335 -1.84528 4.90968 0
M  V30 9594 H 897.809 -3.44733 4.31118 0
M  V30 9595 H 898.286 -3.5273 2.61683 0
M  V30 9596 H 898.892 -2.20306 3.63793 0
M  V30 9597 N 897.207 -1.48554 -0.526253 0
M  V30 9598 C 898.17 -1.62868 -1.61266 0
M  V30 9599 C 899.17 -0.501762 -1.52771 0
M  V30 9600 O 900.36 -0.76764 -1.56374 0
M  V30 9601 C 897.492 -1.60238 -3.00893 0
M  V30 9602 H 898.685 -2.59742 -1.49913 0
M  V30 9603 H 896.238 -1.37207 -0.748595 0
M  V30 9604 H 896.973 -0.648545 -3.17749 0
M  V30 9605 H 896.758 -2.42054 -3.08468 0
M  V30 9606 H 898.248 -1.73455 -3.79872 0
M  V30 9607 N 898.685 0.775411 -1.37205 0
M  V30 9608 C 899.925 1.54689 -1.33606 0
M  V30 9609 C 900.289 1.91834 0.0798549 0
M  V30 9610 O 901.49 2.67722 0.240531 0
M  V30 9611 C 899.761 2.7804 -2.24563 0
M  V30 9612 S 901.32 3.68143 -2.38781 0
M  V30 9613 H 898.138 0.529631 -0.474355 0
M  V30 9614 H 900.74 0.912128 -1.72918 0
M  V30 9615 H 899.444 2.48825 -3.26365 0
M  V30 9616 H 898.975 3.46479 -1.86322 0
M  V30 9617 H 900.99 4.69843 -1.59568 0
M  V30 9618 N 900.163 1.21714 1.00117 0
M  V30 9619 C 901.126 0.981338 2.07129 0
M  V30 9620 C 902.126 -0.0491116 1.60725 0
M  V30 9621 O 903.316 0.188555 1.73177 0
M  V30 9622 C 900.448 0.480608 3.37495 0
M  V30 9623 H 901.641 1.93075 2.29482 0
M  V30 9624 H 899.194 1.03467 1.17151 0
M  V30 9625 H 899.929 -0.473552 3.20824 0
M  V30 9626 H 899.714 1.22393 3.72508 0
M  V30 9627 H 901.204 0.33561 4.16249 0
M  V30 9628 N 901.641 -1.19671 1.02551 0
M  V30 9629 C 902.551 -2.26441 0.613329 0
M  V30 9630 C 903.567 -1.70375 -0.353339 0
M  V30 9631 O 904.743 -2.0028 -0.212064 0
M  V30 9632 C 901.808 -3.46684 -0.0329028 0
M  V30 9633 C 900.869 -4.17945 0.980837 0
M  V30 9634 C 900.102 -5.32448 0.36535 0
M  V30 9635 O 900.325 -5.64291 -0.832596 0
M  V30 9636 O 899.259 -5.92012 1.08652 0
M  V30 9637 H 903.085 -2.63932 1.50246 0
M  V30 9638 H 900.67 -1.2646 0.795502 0
M  V30 9639 H 902.552 -4.1956 -0.393395 0
M  V30 9640 H 901.227 -3.1105 -0.896089 0
M  V30 9641 H 900.134 -3.47204 1.39286 0
M  V30 9642 H 901.467 -4.57542 1.81428 0
M  V30 9643 N 903.119 -0.802921 -1.35613 0
M  V30 9644 C 904.365 -0.382141 -1.99167 0
M  V30 9645 C 904.698 1.04704 -1.63556 0
M  V30 9646 O 903.973 1.72578 -0.89706 0
M  V30 9647 C 904.256 -0.561493 -3.55695 0
M  V30 9648 C 904.109 -2.03534 -4.01116 0
M  V30 9649 C 905.428 0.0151135 -4.40097 0
M  V30 9650 H 902.547 -0.140322 -0.723518 0
M  V30 9651 H 905.189 -1.01177 -1.6082 0
M  V30 9652 H 903.339 -0.0255083 -3.88492 0
M  V30 9653 H 905.011 -2.63343 -3.78746 0
M  V30 9654 H 903.254 -2.5331 -3.52159 0
M  V30 9655 H 903.925 -2.11173 -5.1001 0
M  V30 9656 H 906.401 -0.442582 -4.1374 0
M  V30 9657 H 905.277 -0.140316 -5.48721 0
M  V30 9658 H 905.538 1.10848 -4.27978 0
M  V30 9659 N 904.597 1.47463 -0.556102 0
M  V30 9660 C 905.822 2.07371 -0.0344729 0
M  V30 9661 C 906.247 1.40621 1.2493 0
M  V30 9662 O 905.605 0.48082 1.74808 0
M  V30 9663 C 905.653 3.60306 0.145563 0
M  V30 9664 O 904.757 3.94299 1.20839 0
M  V30 9665 H 904.098 0.662052 -0.0508274 0
M  V30 9666 H 906.628 1.89498 -0.771469 0
M  V30 9667 H 906.638 4.06408 0.360112 0
M  V30 9668 H 905.313 4.08288 -0.792089 0
M  V30 9669 H 903.89 3.59944 0.97442 0
M  V30 9670 N 906.075 0.2925 1.54862 0
M  V30 9671 C 907.491 -0.0611461 1.59483 0
M  V30 9672 C 907.691 -1.53141 1.30958 0
M  V30 9673 O 906.747 -2.28291 1.07887 0
M  V30 9674 C 908.06 0.329143 2.98893 0
M  V30 9675 C 909.608 0.2772 3.1177 0
M  V30 9676 C 910.083 0.642185 4.53475 0
M  V30 9677 N 911.574 0.594396 4.5937 0
M  V30 9678 C 912.309 0.849385 5.67074 0
M  V30 9679 N 911.805 1.1699 6.82851 0
M  V30 9680 N 913.598 0.777016 5.56704 0
M  V30 9681 H 905.749 1.25079 1.71665 0
M  V30 9682 H 908.012 0.506516 0.80134 0
M  V30 9683 H 907.718 1.35233 3.24661 0
M  V30 9684 H 907.592 -0.321442 3.75828 0
M  V30 9685 H 909.979 -0.736725 2.85756 0
M  V30 9686 H 910.06 0.962289 2.3701 0
M  V30 9687 H 909.704 1.65388 4.80218 0
M  V30 9688 H 909.634 -0.0648831 5.2656 0
M  V30 9689 H 912.125 0.357256 3.76208 0
M  V30 9690 H 912.438 1.35067 7.60905 0
M  V30 9691 H 910.783 1.20785 6.84424 0
M  V30 9692 H 913.974 0.526333 4.65132 0
M  V30 9693 H 914.147 0.979113 6.4056 0
M  V30 9694 N 907.553 -1.57587 0.0200696 0
M  V30 9695 C 908.516 -2.08595 -0.949767 0
M  V30 9696 C 909.516 -0.999215 -1.25985 0
M  V30 9697 O 910.706 -1.26115 -1.2017 0
M  V30 9698 C 907.838 -2.54424 -2.26895 0
M  V30 9699 H 909.031 -2.95563 -0.508161 0
M  V30 9700 H 906.584 -1.54631 -0.227798 0
M  V30 9701 H 907.319 -1.70758 -2.75703 0
M  V30 9702 H 907.104 -3.3381 -2.05702 0
M  V30 9703 H 908.594 -2.94144 -2.96427 0
M  V30 9704 N 909.032 0.252966 -1.55557 0
M  V30 9705 C 910.272 0.989276 -1.78865 0
M  V30 9706 C 910.636 1.82755 -0.588615 0
M  V30 9707 O 911.837 2.59516 -0.700347 0
M  V30 9708 C 910.108 1.83203 -3.06874 0
M  V30 9709 S 911.667 2.62826 -3.5138 0
M  V30 9710 H 908.485 0.332863 -0.62827 0
M  V30 9711 H 911.087 0.257716 -1.93794 0
M  V30 9712 H 909.791 1.20579 -3.92287 0
M  V30 9713 H 909.322 2.60644 -2.94666 0
M  V30 9714 H 911.337 3.85648 -3.12234 0
M  V30 9715 N 910.51 1.48831 0.518367 0
M  V30 9716 C 911.787 1.47933 1.27966 0
M  V30 9717 C 912.167 0.197393 2.10175 0
M  V30 9718 O 911.515 -0.820656 2.13255 0
M  V30 9719 C 911.725 2.74816 2.15121 0
M  V30 9720 C 913.073 3.23613 2.74881 0
M  V30 9721 O 914.097 2.75814 2.254 0
M  V30 9722 O 912.956 4.06818 3.64913 0
M  V30 9723 H 910.05 0.591316 0.578164 0
M  V30 9724 H 912.596 1.61077 0.534065 0
M  V30 9725 H 911.368 3.59621 1.54234 0
M  V30 9726 H 910.991 2.64449 2.96905 0
M  V30 9727 N 911.988 -0.768124 1.37614 0
M  V30 9728 C 913.235 -1.5268 1.33022 0
M  V30 9729 C 913.563 -1.94318 -0.0841918 0
M  V30 9730 O 912.818 -1.64623 -1.0582 0
M  V30 9731 C 913.117 -2.80204 2.21856 0
M  V30 9732 C 912.783 -2.57602 3.7007 0
M  V30 9733 C 911.445 -2.51146 4.10462 0
M  V30 9734 C 913.797 -2.37482 4.63952 0
M  V30 9735 C 911.125 -2.22566 5.42846 0
M  V30 9736 C 913.477 -2.10425 5.96577 0
M  V30 9737 C 912.141 -2.02416 6.36069 0
M  V30 9738 H 911.411 -0.558697 0.486763 0
M  V30 9739 H 914.058 -0.88447 1.69851 0
M  V30 9740 H 912.363 -3.49014 1.78034 0
M  V30 9741 H 914.06 -3.38099 2.15615 0
M  V30 9742 H 910.65 -2.63491 3.38039 0
M  V30 9743 H 914.834 -2.41457 4.33604 0
M  V30 9744 H 910.09 -2.14863 5.72402 0
M  V30 9745 H 914.264 -1.93857 6.68874 0
M  V30 9746 H 911.891 -1.80034 7.38574 0
M  V30 9747 N 913.466 -1.22244 -0.994698 0
M  V30 9748 C 914.396 -1.01513 -2.10279 0
M  V30 9749 C 915.377 0.0633365 -1.69982 0
M  V30 9750 O 916.562 -0.0985268 -1.9395 0
M  V30 9751 C 913.692 -0.59016 -3.42249 0
M  V30 9752 C 912.646 -1.61436 -3.96387 0
M  V30 9753 C 911.972 -1.04528 -5.24383 0
M  V30 9754 C 913.272 -3.00388 -4.27276 0
M  V30 9755 H 914.966 -1.94194 -2.2788 0
M  V30 9756 H 912.512 -0.935094 -1.09508 0
M  V30 9757 H 914.465 -0.432254 -4.19177 0
M  V30 9758 H 913.189 0.372308 -3.24471 0
M  V30 9759 H 911.848 -1.76001 -3.21589 0
M  V30 9760 H 911.496 -0.0742225 -5.02945 0
M  V30 9761 H 911.196 -1.72949 -5.61571 0
M  V30 9762 H 912.72 -0.898922 -6.03947 0
M  V30 9763 H 914.134 -2.89207 -4.95007 0
M  V30 9764 H 912.531 -3.65916 -4.75631 0
M  V30 9765 H 913.601 -3.50456 -3.35125 0
M  V30 9766 N 914.944 1.19125 -1.03184 0
M  V30 9767 C 915.874 2.24675 -0.635889 0
M  V30 9768 C 916.855 1.66321 0.356565 0
M  V30 9769 O 918.04 1.92728 0.238625 0
M  V30 9770 C 915.17 3.47298 0.011069 0
M  V30 9771 C 914.124 4.18345 -0.903979 0
M  V30 9772 C 913.45 5.34561 -0.12197 0
M  V30 9773 C 914.75 4.72816 -2.21907 0
M  V30 9774 H 916.444 2.5805 -1.51825 0
M  V30 9775 H 913.99 1.24039 -0.73146 0
M  V30 9776 H 915.943 4.20333 0.299729 0
M  V30 9777 H 914.667 3.13131 0.928245 0
M  V30 9778 H 913.326 3.47196 -1.17688 0
M  V30 9779 H 912.974 4.9664 0.797334 0
M  V30 9780 H 912.674 5.83029 -0.731498 0
M  V30 9781 H 914.198 6.10391 0.159881 0
M  V30 9782 H 915.612 5.3759 -1.99173 0
M  V30 9783 H 914.009 5.31782 -2.78078 0
M  V30 9784 H 915.079 3.9072 -2.87168 0
M  V30 9785 N 916.422 0.810101 1.35185 0
M  V30 9786 C 917.647 0.40364 2.03434 0
M  V30 9787 C 918.072 -0.97857 1.60641 0
M  V30 9788 O 917.43 -1.63435 0.784779 0
M  V30 9789 C 917.478 0.499154 3.57129 0
M  V30 9790 O 916.582 -0.486039 4.09526 0
M  V30 9791 H 915.923 0.168049 0.642383 0
M  V30 9792 H 918.453 1.09696 1.72708 0
M  V30 9793 H 918.463 0.370236 4.06317 0
M  V30 9794 H 917.138 1.50733 3.87624 0
M  V30 9795 H 915.715 -0.31707 3.7155 0
M  V30 9796 N 917.9 -1.47166 0.563914 0
M  V30 9797 C 919.316 -1.58018 0.224173 0
M  V30 9798 C 919.516 -1.56163 -1.27339 0
M  V30 9799 O 918.572 -1.4686 -2.05398 0
M  V30 9800 C 919.885 -2.88236 0.856762 0
M  V30 9801 C 921.433 -3.01833 0.82861 0
M  V30 9802 C 921.908 -4.34761 1.44039 0
M  V30 9803 N 923.399 -4.41413 1.40388 0
M  V30 9804 C 924.134 -5.42845 1.84681 0
M  V30 9805 N 923.63 -6.51052 2.3686 0
M  V30 9806 N 925.423 -5.33931 1.75711 0
M  V30 9807 H 917.574 -1.46615 1.53681 0
M  V30 9808 H 919.837 -0.698195 0.64127 0
M  V30 9809 H 919.543 -2.95349 1.90949 0
M  V30 9810 H 919.417 -3.75537 0.353766 0
M  V30 9811 H 921.804 -2.94312 -0.215451 0
M  V30 9812 H 921.885 -2.16056 1.36943 0
M  V30 9813 H 921.529 -4.43037 2.48355 0
M  V30 9814 H 921.459 -5.1928 0.874953 0
M  V30 9815 H 923.95 -3.63811 1.02227 0
M  V30 9816 H 924.263 -7.24633 2.68564 0
M  V30 9817 H 922.608 -6.51924 2.40875 0
M  V30 9818 H 925.799 -4.48295 1.34718 0
M  V30 9819 H 925.972 -6.12841 2.10547 0
M  V30 9820 N 919.378 -0.300708 -1.54705 0
M  V30 9821 C 920.31 0.609179 -2.20956 0
M  V30 9822 C 921.323 1.09776 -1.20221 0
M  V30 9823 O 922.512 1.01527 -1.46815 0
M  V30 9824 C 919.612 1.84595 -2.84214 0
M  V30 9825 C 918.785 1.49991 -4.10879 0
M  V30 9826 C 917.844 2.5918 -4.57943 0
M  V30 9827 O 916.87 2.24285 -5.23149 0
M  V30 9828 N 918.072 3.89714 -4.30236 0
M  V30 9829 H 920.837 0.0420111 -2.99671 0
M  V30 9830 H 918.398 -0.122896 -1.61433 0
M  V30 9831 H 920.39 2.56988 -3.12633 0
M  V30 9832 H 918.96 2.32152 -2.09342 0
M  V30 9833 H 918.18 0.608637 -3.89473 0
M  V30 9834 H 919.468 1.24409 -4.93356 0
M  V30 9835 H 918.866 4.20874 -3.77997 0
M  V30 9836 H 917.423 4.58406 -4.63365 0
M  V30 9837 N 920.856 1.57574 -0.0284266 0
M  V30 9838 C 921.789 2.05684 0.988401 0
M  V30 9839 C 922.767 0.952468 1.31783 0
M  V30 9840 O 923.951 1.22274 1.43462 0
M  V30 9841 C 921.078 2.47832 2.30862 0
M  V30 9842 C 920.124 3.69282 2.13384 0
M  V30 9843 S 920.957 5.15962 1.43331 0
M  V30 9844 C 922.113 5.61404 2.76723 0
M  V30 9845 H 922.346 2.9161 0.578873 0
M  V30 9846 H 919.879 1.53309 0.183244 0
M  V30 9847 H 921.837 2.7278 3.06759 0
M  V30 9848 H 920.498 1.62253 2.68947 0
M  V30 9849 H 919.691 3.96618 3.10983 0
M  V30 9850 H 919.293 3.44482 1.45629 0
M  V30 9851 H 921.585 5.65601 3.72963 0
M  V30 9852 H 922.528 6.60956 2.54053 0
M  V30 9853 H 922.936 4.89051 2.81939 0
M  V30 9854 N 922.334 -0.244713 1.55689 0
M  V30 9855 C 923.297 -1.2864 1.89695 0
M  V30 9856 C 924.297 -1.40969 0.773583 0
M  V30 9857 O 925.487 -1.39632 1.04156 0
M  V30 9858 C 922.619 -2.66379 2.12732 0
M  V30 9859 H 923.812 -0.997033 2.82841 0
M  V30 9860 H 921.365 -0.484103 1.48614 0
M  V30 9861 H 922.1 -3.00452 1.22062 0
M  V30 9862 H 921.885 -2.58812 2.94549 0
M  V30 9863 H 923.375 -3.41592 2.40218 0
M  V30 9864 N 923.813 -1.49104 -0.510467 0
M  V30 9865 C 925.09 -1.48609 -1.27179 0
M  V30 9866 C 925.47 -0.208537 -2.10067 0
M  V30 9867 O 924.818 0.809335 -2.13687 0
M  V30 9868 C 925.028 -2.75953 -2.1366 0
M  V30 9869 C 926.376 -3.25067 -2.73161 0
M  V30 9870 O 927.4 -2.77005 -2.23934 0
M  V30 9871 O 926.259 -4.08747 -3.62751 0
M  V30 9872 H 923.353 -0.594374 -0.57502 0
M  V30 9873 H 925.899 -1.61358 -0.525515 0
M  V30 9874 H 924.671 -3.60434 -1.52325 0
M  V30 9875 H 924.294 -2.66019 -2.95499 0
M  V30 9876 N 925.291 0.760815 -1.38019 0
M  V30 9877 C 926.539 1.51673 -1.33566 0
M  V30 9878 C 926.86 1.94852 0.076024 0
M  V30 9879 O 926.13 1.67112 1.02227 0
M  V30 9880 H 924.71 0.562581 -0.491438 0
M  V30 9881 H 927.372 0.904832 -1.72623 0
M  V30 9882 H 926.468 2.41102 -1.98182 0
M  V30 9883 N 926.769 1.22769 0.988202 0
M  V30 9884 C 928.017 1.05301 1.725 0
M  V30 9885 C 928.338 -0.412103 1.90596 0
M  V30 9886 O 927.608 -1.29606 1.46898 0
M  V30 9887 H 926.188 0.386658 0.639144 0
M  V30 9888 H 928.85 1.54359 1.18993 0
M  V30 9889 H 927.946 1.53465 2.71763 0
M  V30 9890 N 928.247 -1.18576 1.03814 0
M  V30 9891 C 929.493 -1.89032 0.750892 0
M  V30 9892 C 929.848 -1.78683 -0.713444 0
M  V30 9893 O 929.141 -1.1746 -1.51373 0
M  V30 9894 C 929.335 -3.38448 1.14837 0
M  V30 9895 C 929.164 -3.63339 2.64981 0
M  V30 9896 C 927.934 -3.80847 3.3209 0
M  V30 9897 C 930.132 -3.64131 3.63198 0
M  V30 9898 N 928.114 -3.93453 4.71241 0
M  V30 9899 C 929.485 -3.82421 4.88011 0
M  V30 9900 C 931.54 -3.47206 3.56865 0
M  V30 9901 C 930.243 -3.85538 6.0725 0
M  V30 9902 C 932.269 -3.51605 4.75529 0
M  V30 9903 C 931.631 -3.70388 5.99159 0
M  V30 9904 H 927.73 -0.710447 0.326786 0
M  V30 9905 H 930.314 -1.42444 1.32732 0
M  V30 9906 H 928.485 -3.83737 0.600058 0
M  V30 9907 H 930.217 -3.96462 0.812406 0
M  V30 9908 H 926.972 -3.80122 2.82496 0
M  V30 9909 H 927.396 -4.03584 5.43552 0
M  V30 9910 H 932.038 -3.31632 2.6226 0
M  V30 9911 H 929.756 -3.99901 7.02214 0
M  V30 9912 H 933.342 -3.39787 4.72267 0
M  V30 9913 H 932.222 -3.73679 6.89445 0
M  V30 9914 N 929.725 -0.817259 -1.34754 0
M  V30 9915 C 930.973 -0.401852 -1.98065 0
M  V30 9916 C 931.294 1.03718 -1.65129 0
M  V30 9917 O 930.564 1.71921 -0.939141 0
M  V30 9918 H 929.144 -0.145603 -0.732672 0
M  V30 9919 H 931.806 -1.04545 -1.64488 0
M  V30 9920 H 930.902 -0.516241 -3.07801 0
M  V30 9921 N 931.203 1.46865 -0.571711 0
M  V30 9922 C 932.113 2.33979 0.170571 0
M  V30 9923 C 933.129 1.49083 0.897239 0
M  V30 9924 O 934.305 1.81979 0.862888 0
M  V30 9925 C 931.37 3.26063 1.17831 0
M  V30 9926 C 930.431 4.26855 0.457499 0
M  V30 9927 C 929.664 5.14539 1.41722 0
M  V30 9928 O 929.887 5.04945 2.65305 0
M  V30 9929 O 928.821 5.94612 0.9338 0
M  V30 9930 H 932.647 2.98781 -0.544396 0
M  V30 9931 H 930.232 1.4566 -0.332198 0
M  V30 9932 H 932.114 3.82903 1.75965 0
M  V30 9933 H 930.789 2.63871 1.87493 0
M  V30 9934 H 929.696 3.73734 -0.165406 0
M  V30 9935 H 931.029 4.91802 -0.197953 0
M  V30 9936 N 932.681 0.308908 1.54543 0
M  V30 9937 C 933.958 -0.351558 1.92415 0
M  V30 9938 C 934.338 -1.71061 1.23699 0
M  V30 9939 O 933.686 -2.25394 0.3755 0
M  V30 9940 C 933.896 -0.458357 3.45977 0
M  V30 9941 C 935.244 -0.725524 4.18355 0
M  V30 9942 O 936.268 -0.541859 3.52054 0
M  V30 9943 O 935.127 -1.07884 5.35745 0
M  V30 9944 H 932.221 -0.197957 0.802958 0
M  V30 9945 H 934.767 0.357548 1.65891 0
M  V30 9946 H 933.539 0.496723 3.88134 0
M  V30 9947 H 933.162 -1.21562 3.78561 0
M  V30 9948 N 934.159 -1.57557 0.0367827 0
M  V30 9949 C 935.406 -1.92114 -0.640185 0
M  V30 9950 C 935.734 -0.913887 -1.71693 0
M  V30 9951 O 934.989 0.0760343 -1.95552 0
M  V30 9952 C 935.288 -3.33387 -1.28794 0
M  V30 9953 C 934.954 -4.4961 -0.340819 0
M  V30 9954 C 933.616 -4.81133 -0.0801574 0
M  V30 9955 C 935.968 -5.20283 0.309106 0
M  V30 9956 C 933.296 -5.80683 0.838107 0
M  V30 9957 C 935.648 -6.20813 1.21547 0
M  V30 9958 C 934.312 -6.50773 1.48495 0
M  V30 9959 H 933.582 -0.702996 -0.23426 0
M  V30 9960 H 936.229 -1.91238 0.100188 0
M  V30 9961 H 934.534 -3.30561 -2.10324 0
M  V30 9962 H 936.231 -3.57399 -1.81843 0
M  V30 9963 H 932.821 -4.25002 -0.554161 0
M  V30 9964 H 937.005 -4.96153 0.120794 0
M  V30 9965 H 932.261 -6.02238 1.05451 0
M  V30 9966 H 936.435 -6.74692 1.72522 0
M  V30 9967 H 934.062 -7.27727 2.19814 0
M  V30 9968 N 935.637 0.236453 -1.55816 0
M  V30 9969 C 936.547 1.31418 -1.94336 0
M  V30 9970 C 937.563 1.52095 -0.845164 0
M  V30 9971 O 938.739 1.65515 -1.14746 0
M  V30 9972 C 935.804 2.6468 -2.23932 0
M  V30 9973 C 934.865 2.52435 -3.47239 0
M  V30 9974 C 934.098 3.79342 -3.75414 0
M  V30 9975 O 934.321 4.81694 -3.05495 0
M  V30 9976 O 933.255 3.77347 -4.68927 0
M  V30 9977 H 937.081 1.01739 -2.86152 0
M  V30 9978 H 934.666 0.438084 -1.42833 0
M  V30 9979 H 936.548 3.4341 -2.44228 0
M  V30 9980 H 935.223 2.94071 -1.35292 0
M  V30 9981 H 934.13 1.71955 -3.32238 0
M  V30 9982 H 935.463 2.27987 -4.36214 0
M  V30 9983 N 937.115 1.49373 0.502552 0
M  V30 9984 C 938.34 1.62752 1.28556 0
M  V30 9985 C 938.765 0.298285 1.8572 0
M  V30 9986 O 938.123 -0.733885 1.65782 0
M  V30 9987 C 938.171 2.69778 2.39274 0
M  V30 9988 O 937.275 2.28843 3.43081 0
M  V30 9989 H 936.616 0.544799 0.379592 0
M  V30 9990 H 939.146 1.9555 0.601792 0
M  V30 9991 H 939.156 2.91899 2.8506 0
M  V30 9992 H 937.831 3.66266 1.97033 0
M  V30 9993 H 936.408 2.17047 3.03224 0
M  V30 9994 N 938.594 -0.753485 1.38421 0
M  V30 9995 C 939.834 -1.52544 1.3605 0
M  V30 9996 C 940.198 -1.91937 -0.0493257 0
M  V30 9997 O 941.399 -2.6807 -0.197908 0
M  V30 9998 C 939.67 -2.74432 2.28958 0
M  V30 9999 S 941.229 -3.64297 2.44607 0
M  V30 10000 H 938.047 -0.522017 0.48272 0
M  V30 10001 H 940.649 -0.884503 1.74347 0
M  V30 10002 H 939.353 -2.43602 3.30282 0
M  V30 10003 H 938.884 -3.43471 1.91811 0
M  V30 10004 H 940.899 -4.67245 1.67022 0
M  V30 10005 N 940.072 -1.23292 -0.981677 0
M  V30 10006 C 940.982 -1.02964 -2.10798 0
M  V30 10007 C 941.998 0.0254674 -1.73981 0
M  V30 10008 O 943.174 -0.169706 -2.00684 0
M  V30 10009 C 940.239 -0.621934 -3.41076 0
M  V30 10010 C 939.3 -1.75194 -3.91926 0
M  V30 10011 C 938.533 -1.36359 -5.15986 0
M  V30 10012 O 938.756 -0.247265 -5.69864 0
M  V30 10013 O 937.69 -2.18421 -5.60871 0
M  V30 10014 H 941.516 -1.97354 -2.30836 0
M  V30 10015 H 939.101 -1.01986 -1.09175 0
M  V30 10016 H 940.983 -0.405446 -4.19445 0
M  V30 10017 H 939.658 0.29299 -3.22371 0
M  V30 10018 H 938.565 -2.02305 -3.1468 0
M  V30 10019 H 939.898 -2.64513 -4.15083 0
M  V30 10020 N 941.55 1.18024 -1.04442 0
M  V30 10021 C 942.46 2.25436 -0.649276 0
M  V30 10022 C 943.476 1.70915 0.326189 0
M  V30 10023 O 944.652 2.00592 0.180174 0
M  V30 10024 C 941.717 3.46693 -0.0222558 0
M  V30 10025 C 940.778 4.16332 -1.0472 0
M  V30 10026 C 940.011 5.31799 -0.450011 0
M  V30 10027 O 940.234 5.65544 0.742717 0
M  V30 10028 O 939.168 5.90209 -1.18056 0
M  V30 10029 H 942.994 2.61508 -1.54426 0
M  V30 10030 H 940.579 1.25178 -0.81552 0
M  V30 10031 H 942.461 4.20132 0.326597 0
M  V30 10032 H 941.136 3.12436 0.84649 0
M  V30 10033 H 940.043 3.44944 -1.44792 0
M  V30 10034 H 941.376 4.54598 -1.88684 0
M  V30 10035 N 943.028 0.824394 1.34319 0
M  V30 10036 C 944.444 0.510336 1.51221 0
M  V30 10037 C 944.644 -0.965201 1.76879 0
M  V30 10038 O 943.7 -1.74961 1.82057 0
M  V30 10039 C 945.013 1.37114 2.6762 0
M  V30 10040 C 946.561 1.36842 2.81502 0
M  V30 10041 C 947.036 2.21374 4.00946 0
M  V30 10042 N 948.527 2.19005 4.08156 0
M  V30 10043 C 949.262 2.81159 4.99737 0
M  V30 10044 N 948.758 3.52309 5.96532 0
M  V30 10045 N 950.551 2.70706 4.9262 0
M  V30 10046 H 942.702 1.77976 1.15924 0
M  V30 10047 H 944.965 0.758503 0.568663 0
M  V30 10048 H 944.671 2.41905 2.55294 0
M  V30 10049 H 944.545 1.03689 3.62669 0
M  V30 10050 H 946.932 0.328284 2.93268 0
M  V30 10051 H 947.013 1.74265 1.87257 0
M  V30 10052 H 946.657 3.25437 3.8994 0
M  V30 10053 H 946.587 1.813 4.94407 0
M  V30 10054 H 949.078 1.67252 3.38874 0
M  V30 10055 H 949.391 3.96977 6.63045 0
M  V30 10056 H 947.736 3.56415 5.96652 0
M  V30 10057 H 950.927 2.14694 4.15962 0
M  V30 10058 H 951.1 3.19431 5.63798 0
M  V30 10059 N 944.506 -1.46559 0.579492 0
M  V30 10060 C 945.922 -1.57771 0.240921 0
M  V30 10061 C 946.122 -1.57505 -1.25676 0
M  V30 10062 O 945.178 -1.4903 -2.03829 0
M  V30 10063 C 946.491 -2.87311 0.887285 0
M  V30 10064 C 948.039 -3.00937 0.860576 0
M  V30 10065 C 948.514 -4.33208 1.48642 0
M  V30 10066 N 950.005 -4.39899 1.45062 0
M  V30 10067 C 950.74 -5.40856 1.90428 0
M  V30 10068 N 950.236 -6.48503 2.43752 0
M  V30 10069 N 952.029 -5.32037 1.81364 0
M  V30 10070 H 944.18 -1.44976 1.55228 0
M  V30 10071 H 946.443 -0.691354 0.648639 0
M  V30 10072 H 946.149 -2.93307 1.94071 0
M  V30 10073 H 946.023 -3.75141 0.393577 0
M  V30 10074 H 948.41 -2.94524 -0.184223 0
M  V30 10075 H 948.491 -2.14591 1.39227 0
M  V30 10076 H 948.135 -4.40378 2.5304 0
M  V30 10077 H 948.065 -5.18323 0.92998 0
M  V30 10078 H 950.556 -3.62706 1.0608 0
M  V30 10079 H 950.869 -7.21744 2.76234 0
M  V30 10080 H 949.214 -6.49332 2.47776 0
M  V30 10081 H 952.405 -4.46841 1.39465 0
M  V30 10082 H 952.578 -6.10573 2.17035 0
M  V30 10083 N 945.984 -0.3171 -1.54377 0
M  V30 10084 C 947.214 0.289138 -2.04567 0
M  V30 10085 C 947.622 1.46833 -1.19318 0
M  V30 10086 O 946.965 1.82436 -0.215141 0
M  V30 10087 C 947.027 0.792994 -3.50645 0
M  V30 10088 C 946.691 -0.263033 -4.56242 0
M  V30 10089 C 947.688 -1.09694 -5.08196 0
M  V30 10090 C 945.373 -0.409364 -5.00629 0
M  V30 10091 C 947.367 -2.06297 -6.03092 0
M  V30 10092 C 945.054 -1.37882 -5.95342 0
M  V30 10093 C 946.052 -2.20409 -6.46459 0
M  V30 10094 O 945.74 -3.15708 -7.39313 0
M  V30 10095 H 945.472 0.0644005 -0.672925 0
M  V30 10096 H 948.026 -0.459438 -2.00196 0
M  V30 10097 H 946.256 1.59237 -3.52392 0
M  V30 10098 H 947.945 1.31687 -3.83944 0
M  V30 10099 H 948.711 -0.994842 -4.74687 0
M  V30 10100 H 944.59 0.223091 -4.6046 0
M  V30 10101 H 948.134 -2.70751 -6.42915 0
M  V30 10102 H 944.031 -1.48158 -6.28267 0
M  V30 10103 H 944.799 -3.10873 -7.57166 0
M  V30 10104 N 947.462 1.57535 -0.0451378 0
M  V30 10105 C 948.392 2.14208 0.929372 0
M  V30 10106 C 949.373 1.06221 1.32858 0
M  V30 10107 O 950.558 1.34132 1.40436 0
M  V30 10108 C 947.688 2.68217 2.20629 0
M  V30 10109 C 946.642 3.81134 1.94734 0
M  V30 10110 C 945.968 4.21636 3.28828 0
M  V30 10111 C 947.268 5.06531 1.27374 0
M  V30 10112 H 948.962 2.95886 0.457348 0
M  V30 10113 H 946.508 1.42332 0.218544 0
M  V30 10114 H 948.461 3.06502 2.89196 0
M  V30 10115 H 947.185 1.83722 2.70026 0
M  V30 10116 H 945.844 3.43312 1.28579 0
M  V30 10117 H 945.492 3.34099 3.76014 0
M  V30 10118 H 945.192 4.97736 3.12302 0
M  V30 10119 H 946.716 4.62516 3.98637 0
M  V30 10120 H 948.13 5.423 1.85967 0
M  V30 10121 H 946.527 5.87735 1.21194 0
M  V30 10122 H 947.597 4.84261 0.248913 0
M  V30 10123 N 948.94 -0.228186 1.55939 0
M  V30 10124 C 949.872 -1.30605 1.88348 0
M  V30 10125 C 950.885 -1.43375 0.771198 0
M  V30 10126 O 952.074 -1.44391 1.04945 0
M  V30 10127 C 949.174 -2.68248 2.07115 0
M  V30 10128 C 948.347 -2.77509 3.38094 0
M  V30 10129 C 947.406 -3.96121 3.46373 0
M  V30 10130 O 946.432 -3.8477 4.19453 0
M  V30 10131 N 947.634 -5.10132 2.77031 0
M  V30 10132 H 950.399 -1.03132 2.81396 0
M  V30 10133 H 947.96 -0.418245 1.56404 0
M  V30 10134 H 949.952 -3.45966 2.09976 0
M  V30 10135 H 948.522 -2.88348 1.20723 0
M  V30 10136 H 947.742 -1.8632 3.47388 0
M  V30 10137 H 949.03 -2.80662 4.2439 0
M  V30 10138 H 948.428 -5.22249 2.17424 0
M  V30 10139 H 946.985 -5.85916 2.85561 0
M  V30 10140 N 950.418 -1.49637 -0.494624 0
M  V30 10141 C 951.643 -1.63431 -1.27691 0
M  V30 10142 C 952.068 -0.30813 -1.85559 0
M  V30 10143 O 951.426 0.725083 -1.66169 0
M  V30 10144 C 951.474 -2.71043 -2.3784 0
M  V30 10145 O 950.578 -2.3066 -3.41862 0
M  V30 10146 H 949.919 -0.546804 -0.376698 0
M  V30 10147 H 952.449 -1.95866 -0.591413 0
M  V30 10148 H 952.459 -2.93406 -2.83508 0
M  V30 10149 H 951.134 -3.67306 -1.95088 0
M  V30 10150 H 949.711 -2.18652 -3.02069 0
M  V30 10151 N 951.896 0.746133 -1.38819 0
M  V30 10152 C 952.859 1.84167 -1.36437 0
M  V30 10153 C 953.859 1.58626 -0.263499 0
M  V30 10154 O 955.049 1.66233 -0.520801 0
M  V30 10155 C 952.181 3.21769 -1.12596 0
M  V30 10156 H 953.374 1.87684 -2.33912 0
M  V30 10157 H 950.927 0.948625 -1.24221 0
M  V30 10158 H 951.662 3.23917 -0.15758 0
M  V30 10159 H 951.447 3.41702 -1.92307 0
M  V30 10160 H 952.937 4.0184 -1.13643 0
M  V30 10161 N 953.375 1.23811 0.975125 0
M  V30 10162 C 954.307 0.981779 2.07108 0
M  V30 10163 C 955.32 -0.0461211 1.62735 0
M  V30 10164 O 956.509 0.190039 1.77486 0
M  V30 10165 C 953.609 0.458364 3.35786 0
M  V30 10166 C 952.782 1.54767 4.09104 0
M  V30 10167 C 951.841 1.0282 5.16057 0
M  V30 10168 O 950.867 1.71831 5.42644 0
M  V30 10169 N 952.069 -0.141243 5.80328 0
M  V30 10170 H 954.834 1.92537 2.29673 0
M  V30 10171 H 952.395 1.1474 1.14221 0
M  V30 10172 H 954.387 0.0957686 4.04587 0
M  V30 10173 H 952.957 -0.390768 3.10148 0
M  V30 10174 H 952.177 2.08279 3.34684 0
M  V30 10175 H 953.465 2.28006 4.54853 0
M  V30 10176 H 952.863 -0.718382 5.6112 0
M  V30 10177 H 951.42 -0.445052 6.50279 0
M  V30 10178 N 954.853 -1.17469 1.05066 0
M  V30 10179 C 956.078 -1.92162 0.780298 0
M  V30 10180 C 956.503 -1.76222 -0.657832 0
M  V30 10181 O 955.861 -1.0791 -1.45688 0
M  V30 10182 C 955.909 -3.41292 1.16414 0
M  V30 10183 O 955.013 -4.1134 0.295531 0
M  V30 10184 H 954.354 -0.599127 0.286257 0
M  V30 10185 H 956.884 -1.48903 1.40318 0
M  V30 10186 H 956.894 -3.92029 1.13036 0
M  V30 10187 H 955.569 -3.52214 2.21175 0
M  V30 10188 H 954.146 -3.70857 0.389797 0
M  V30 10189 N 956.331 -0.831506 -1.3388 0
M  V30 10190 C 957.263 -0.216908 -2.28171 0
M  V30 10191 C 958.276 0.598141 -1.51414 0
M  V30 10192 O 959.465 0.426416 -1.73332 0
M  V30 10193 C 956.565 0.713831 -3.31297 0
M  V30 10194 C 955.738 -0.0602673 -4.37358 0
M  V30 10195 C 954.797 0.792696 -5.20195 0
M  V30 10196 O 953.823 0.234564 -5.68716 0
M  V30 10197 N 955.025 2.11119 -5.40748 0
M  V30 10198 H 957.79 -1.02704 -2.81553 0
M  V30 10199 H 955.351 -0.689272 -1.46495 0
M  V30 10200 H 957.343 1.28925 -3.83615 0
M  V30 10201 H 955.913 1.42469 -2.78247 0
M  V30 10202 H 955.133 -0.817041 -3.8564 0
M  V30 10203 H 956.421 -0.592822 -5.05335 0
M  V30 10204 H 955.819 2.58828 -5.03016 0
M  V30 10205 H 954.376 2.63527 -5.96151 0
M  V30 10206 N 957.809 1.4625 -0.587256 0
M  V30 10207 C 959.058 2.01571 -0.0722643 0
M  V30 10208 C 959.371 1.46385 1.29733 0
M  V30 10209 O 960.577 1.93554 1.90392 0
M  V30 10210 C 959.033 3.59814 -0.078579 0
M  V30 10211 C 958.641 4.23996 -1.44678 0
M  V30 10212 C 960.385 4.22776 0.382231 0
M  V30 10213 C 958.292 5.74332 -1.41057 0
M  V30 10214 H 957.222 0.753642 -0.0232461 0
M  V30 10215 H 959.873 1.67936 -0.739577 0
M  V30 10216 H 958.255 3.90546 0.654988 0
M  V30 10217 H 959.429 4.04867 -2.20043 0
M  V30 10218 H 957.744 3.73147 -1.84799 0
M  V30 10219 H 960.341 5.32983 0.428182 0
M  V30 10220 H 960.684 3.92027 1.40072 0
M  V30 10221 H 961.217 3.96687 -0.297417 0
M  V30 10222 H 957.956 6.09747 -2.40601 0
M  V30 10223 H 957.476 5.95711 -0.699185 0
M  V30 10224 H 959.155 6.37137 -1.12543 0
M  V30 10225 N 959.287 0.325282 1.54207 0
M  V30 10226 C 960.237 -0.55548 2.2113 0
M  V30 10227 C 961.221 -1.0803 1.19241 0
M  V30 10228 O 962.413 -1.01703 1.44864 0
M  V30 10229 C 959.542 -1.71504 2.97391 0
M  V30 10230 C 958.628 -1.20503 4.0662 0
M  V30 10231 N 959.019 -0.414838 5.04096 0
M  V30 10232 C 957.317 -1.4836 4.20601 0
M  V30 10233 C 958.018 -0.140225 5.81531 0
M  V30 10234 N 956.994 -0.72683 5.38719 0
M  V30 10235 H 960.796 0.0555192 2.93848 0
M  V30 10236 H 958.31 0.131225 1.61869 0
M  V30 10237 H 960.307 -2.35781 3.43821 0
M  V30 10238 H 958.967 -2.3295 2.26195 0
M  V30 10239 H 959.978 -0.0575291 5.17868 0
M  V30 10240 H 956.655 -2.10378 3.60621 0
M  V30 10241 H 958.045 0.496026 6.70067 0
M  V30 10242 N 960.765 -1.57509 0.0534917 0
M  V30 10243 C 961.713 -2.12851 -0.937931 0
M  V30 10244 C 962.707 -1.06088 -1.32067 0
M  V30 10245 O 963.913 -1.24494 -1.30005 0
M  V30 10246 H 960.288 -0.680357 -0.320342 0
M  V30 10247 H 962.259 -2.95047 -0.446077 0
M  V30 10248 C 961.008 -2.69034 -2.20264 0
M  V30 10249 H 960.331 -3.50848 -1.91693 0
M  V30 10250 H 961.771 -3.11375 -2.87788 0
M  V30 10251 C 960.23 -1.62919 -2.94888 0
M  V30 10252 O 960.76 -1.04334 -3.87914 0
M  V30 10253 N 958.966 -1.34385 -2.57661 0
M  V30 10254 H 958.513 -1.82214 -1.82088 0
M  V30 10255 H 958.471 -0.636149 -3.07897 0
M  V30 10256 N 962.243 0.219913 -1.56058 0
M  V30 10257 C 963.471 0.960915 -1.83232 0
M  V30 10258 C 963.886 1.77878 -0.632828 0
M  V30 10259 O 963.243 1.78093 0.398624 0
M  V30 10260 C 963.294 1.87716 -3.08942 0
M  V30 10261 O 963.015 1.09235 -4.24263 0
M  V30 10262 C 964.516 2.73192 -3.49115 0
M  V30 10263 H 961.736 0.281546 -0.609075 0
M  V30 10264 H 964.28 0.234648 -2.03149 0
M  V30 10265 H 962.435 2.55736 -2.90995 0
M  V30 10266 H 962.849 1.71446 -4.95688 0
M  V30 10267 H 964.323 3.33181 -4.40107 0
M  V30 10268 H 964.8 3.45668 -2.70943 0
M  V30 10269 H 965.406 2.10583 -3.69506 0
M  V30 10270 N 963.721 1.49897 0.486681 0
M  V30 10271 C 964.961 1.61732 1.24988 0
M  V30 10272 C 965.325 0.303724 1.89582 0
M  V30 10273 O 966.526 0.297373 2.6715 0
M  V30 10274 C 964.797 2.75429 2.27757 0
M  V30 10275 S 966.356 3.07304 3.13225 0
M  V30 10276 H 963.174 0.570316 0.424571 0
M  V30 10277 H 965.776 1.87617 0.549549 0
M  V30 10278 H 964.48 3.69376 1.78857 0
M  V30 10279 H 964.011 2.51582 3.0244 0
M  V30 10280 H 966.026 2.49928 4.28661 0
M  V30 10281 N 965.199 -0.738761 1.39212 0
M  V30 10282 C 966.445 -1.49942 1.37437 0
M  V30 10283 C 966.8 -1.92375 -0.0309496 0
M  V30 10284 O 966.093 -1.63635 -0.996706 0
M  V30 10285 C 966.287 -2.75435 2.2775 0
M  V30 10286 C 966.116 -2.45273 3.76924 0
M  V30 10287 C 964.886 -2.37755 4.45871 0
M  V30 10288 C 967.084 -2.11064 4.68995 0
M  V30 10289 N 965.066 -2.00023 5.804 0
M  V30 10290 C 966.437 -1.83746 5.92147 0
M  V30 10291 C 968.492 -1.975 4.57054 0
M  V30 10292 C 967.195 -1.4423 7.04692 0
M  V30 10293 C 969.221 -1.59388 5.69517 0
M  V30 10294 C 968.583 -1.32951 6.91739 0
M  V30 10295 H 964.682 -0.547671 0.558194 0
M  V30 10296 H 967.266 -0.858925 1.7473 0
M  V30 10297 H 965.437 -3.3727 1.92622 0
M  V30 10298 H 967.169 -3.41607 2.16995 0
M  V30 10299 H 963.924 -2.54725 3.99264 0
M  V30 10300 H 964.348 -1.83761 6.51583 0
M  V30 10301 H 968.99 -2.16609 3.63099 0
M  V30 10302 H 966.708 -1.23863 7.98551 0
M  V30 10303 H 970.294 -1.49504 5.62263 0
M  V30 10304 H 969.174 -1.039 7.77287 0
M  V30 10305 N 966.677 -1.24326 -0.968545 0
M  V30 10306 C 967.64 -1.03591 -2.04454 0
M  V30 10307 C 968.64 0.0064809 -1.60799 0
M  V30 10308 O 969.83 -0.234404 -1.72616 0
M  V30 10309 C 966.962 -0.56992 -3.36102 0
M  V30 10310 H 968.155 -1.99092 -2.24282 0
M  V30 10311 H 965.708 -1.06537 -1.14366 0
M  V30 10312 H 966.443 0.388325 -3.21967 0
M  V30 10313 H 966.228 -1.32227 -3.69132 0
M  V30 10314 H 967.718 -0.445854 -4.15213 0
M  V30 10315 N 968.156 1.1691 -1.05688 0
M  V30 10316 C 969.089 2.19992 -0.606539 0
M  V30 10317 C 970.067 1.58393 0.367483 0
M  V30 10318 O 971.251 1.8644 0.277914 0
M  V30 10319 C 968.378 3.38516 0.111663 0
M  V30 10320 C 967.424 4.18579 -0.818153 0
M  V30 10321 S 968.257 4.83111 -2.31006 0
M  V30 10322 C 969.413 6.0502 -1.60317 0
M  V30 10323 H 969.646 2.57851 -1.47987 0
M  V30 10324 H 967.179 1.27604 -0.869291 0
M  V30 10325 H 969.137 4.07195 0.519829 0
M  V30 10326 H 967.798 2.99034 0.961103 0
M  V30 10327 H 966.991 5.03318 -0.262092 0
M  V30 10328 H 966.593 3.55362 -1.16592 0
M  V30 10329 H 968.885 6.71424 -0.905309 0
M  V30 10330 H 969.828 6.65164 -2.42823 0
M  V30 10331 H 970.236 5.53908 -1.08842 0
M  V30 10332 N 969.634 0.838594 1.33437 0
M  V30 10333 C 970.567 0.216651 2.27169 0
M  V30 10334 C 971.545 -0.636065 1.49643 0
M  V30 10335 O 972.729 -0.596388 1.78817 0
M  V30 10336 C 969.856 -0.69584 3.31475 0
M  V30 10337 C 968.902 0.0813808 4.26422 0
M  V30 10338 S 969.735 1.43909 5.15801 0
M  V30 10339 C 970.891 0.531887 6.23636 0
M  V30 10340 H 971.124 1.01128 2.79572 0
M  V30 10341 H 968.657 0.635332 1.40723 0
M  V30 10342 H 970.615 -1.21671 3.92054 0
M  V30 10343 H 969.276 -1.46413 2.77888 0
M  V30 10344 H 968.469 -0.612944 5.00259 0
M  V30 10345 H 968.071 0.533304 3.70178 0
M  V30 10346 H 970.363 -0.270371 6.7696 0
M  V30 10347 H 971.306 1.24041 6.97151 0
M  V30 10348 H 971.714 0.113357 5.64386 0
M  V30 10349 N 971.112 -1.45937 0.595003 0
M  V30 10350 C 972.36 -2.01921 0.0851368 0
M  V30 10351 C 972.681 -1.46748 -1.28413 0
M  V30 10352 O 971.951 -0.656873 -1.84559 0
M  V30 10353 H 970.531 -0.746457 0.0284826 0
M  V30 10354 H 973.193 -1.78891 0.773561 0
M  V30 10355 H 972.289 -3.1209 0.0254002 0
M  V30 10356 N 972.59 -0.333456 -1.54032 0
M  V30 10357 C 973.52 0.52051 -2.27625 0
M  V30 10358 C 974.501 1.1111 -1.28797 0
M  V30 10359 O 975.686 1.13438 -1.57625 0
M  V30 10360 C 972.816 1.67663 -3.04149 0
M  V30 10361 C 971.77 1.21487 -4.10396 0
M  V30 10362 C 971.096 2.45872 -4.74817 0
M  V30 10363 C 972.396 0.322603 -5.21303 0
M  V30 10364 H 974.09 -0.0933823 -2.99254 0
M  V30 10365 H 971.636 -0.0463526 -1.43925 0
M  V30 10366 H 973.589 2.28041 -3.54366 0
M  V30 10367 H 972.313 2.31727 -2.30153 0
M  V30 10368 H 970.972 0.633966 -3.61077 0
M  V30 10369 H 970.62 3.0832 -3.97426 0
M  V30 10370 H 970.32 2.15662 -5.46593 0
M  V30 10371 H 971.844 3.06994 -5.27814 0
M  V30 10372 H 973.258 0.832942 -5.67217 0
M  V30 10373 H 971.655 0.112843 -5.99994 0
M  V30 10374 H 972.725 -0.643954 -4.80605 0
M  V30 10375 N 974.068 1.57479 -0.061844 0
M  V30 10376 C 975.001 2.07734 0.94455 0
M  V30 10377 C 975.979 0.980207 1.29733 0
M  V30 10378 O 977.163 1.2529 1.40836 0
M  V30 10379 C 974.29 2.52673 2.25553 0
M  V30 10380 C 973.336 3.73725 2.05503 0
M  V30 10381 S 974.169 5.18886 1.32354 0
M  V30 10382 C 975.325 5.67148 2.64753 0
M  V30 10383 H 975.558 2.92772 0.516888 0
M  V30 10384 H 973.091 1.53663 0.150684 0
M  V30 10385 H 975.049 2.79226 3.00904 0
M  V30 10386 H 973.71 1.67921 2.65445 0
M  V30 10387 H 972.903 4.03125 3.025 0
M  V30 10388 H 972.505 3.47494 1.3829 0
M  V30 10389 H 974.797 5.73385 3.60882 0
M  V30 10390 H 975.74 6.66196 2.39976 0
M  V30 10391 H 976.148 4.94921 2.71502 0
M  V30 10392 N 975.546 -0.211634 1.56173 0
M  V30 10393 C 976.509 -1.24588 1.92381 0
M  V30 10394 C 977.509 -1.39297 0.803311 0
M  V30 10395 O 978.699 -1.37392 1.07094 0
M  V30 10396 C 975.831 -2.61807 2.18335 0
M  V30 10397 H 977.024 -0.936814 2.84893 0
M  V30 10398 H 974.577 -0.452471 1.49607 0
M  V30 10399 H 975.312 -2.97795 1.28407 0
M  V30 10400 H 975.097 -2.52506 2.99972 0
M  V30 10401 H 976.587 -3.3642 2.4741 0
M  V30 10402 N 977.024 -1.50153 -0.478725 0
M  V30 10403 C 978.27 -1.60998 -1.23318 0
M  V30 10404 C 978.603 -0.305868 -1.91776 0
M  V30 10405 O 977.878 0.692158 -1.81767 0
M  V30 10406 C 978.161 -2.78495 -2.28282 0
M  V30 10407 C 978.014 -4.18767 -1.64178 0
M  V30 10408 C 979.333 -2.91569 -3.2966 0
M  V30 10409 H 976.452 -0.585983 -0.446982 0
M  V30 10410 H 979.094 -1.82514 -0.528063 0
M  V30 10411 H 977.244 -2.60281 -2.8842 0
M  V30 10412 H 978.916 -4.48552 -1.07696 0
M  V30 10413 H 977.159 -4.23379 -0.94514 0
M  V30 10414 H 977.83 -4.96894 -2.40417 0
M  V30 10415 H 980.306 -3.08219 -2.79536 0
M  V30 10416 H 979.182 -3.75419 -4.0044 0
M  V30 10417 H 979.443 -2.01859 -3.93326 0
M  V30 10418 N 978.502 0.731368 -1.39602 0
M  V30 10419 C 979.918 1.03739 -1.21286 0
M  V30 10420 C 980.118 2.01353 -0.0769875 0
M  V30 10421 O 979.174 2.45978 0.570193 0
M  V30 10422 C 980.487 1.59621 -2.54837 0
M  V30 10423 C 982.035 1.71683 -2.61713 0
M  V30 10424 C 982.51 2.30973 -3.95494 0
M  V30 10425 N 984.001 2.38378 -3.97153 0
M  V30 10426 C 984.736 2.852 -4.97442 0
M  V30 10427 N 984.232 3.31891 -6.08129 0
M  V30 10428 N 986.025 2.84441 -4.84819 0
M  V30 10429 H 978.176 0.0840456 -2.12234 0
M  V30 10430 H 980.439 0.0999038 -0.942721 0
M  V30 10431 H 980.145 0.953608 -3.38525 0
M  V30 10432 H 980.019 2.58375 -2.74813 0
M  V30 10433 H 982.406 2.35064 -1.78406 0
M  V30 10434 H 982.487 0.715714 -2.45583 0
M  V30 10435 H 982.131 1.68219 -4.79234 0
M  V30 10436 H 982.061 3.31769 -4.08946 0
M  V30 10437 H 984.552 2.05382 -3.17217 0
M  V30 10438 H 984.865 3.66138 -6.8056 0
M  V30 10439 H 983.21 3.2989 -6.11717 0
M  V30 10440 H 986.401 2.4729 -3.97448 0
M  V30 10441 H 986.574 3.20616 -5.63124 0
M  V30 10442 N 979.98 1.24838 0.961938 0
M  V30 10443 C 980.93 1.01276 2.04272 0
M  V30 10444 C 981.914 -0.0478239 1.60829 0
M  V30 10445 O 983.106 0.166616 1.76214 0
M  V30 10446 C 980.235 0.625659 3.37551 0
M  V30 10447 C 979.321 1.72262 3.87539 0
M  V30 10448 N 979.712 2.95644 4.104 0
M  V30 10449 C 978.01 1.60146 4.16256 0
M  V30 10450 C 978.711 3.66796 4.51482 0
M  V30 10451 N 977.687 2.94383 4.56989 0
M  V30 10452 H 981.489 1.94956 2.19931 0
M  V30 10453 H 979.003 1.15049 1.14619 0
M  V30 10454 H 981 0.438072 4.14592 0
M  V30 10455 H 979.66 -0.303887 3.23275 0
M  V30 10456 H 980.671 3.31764 3.97685 0
M  V30 10457 H 977.348 0.740353 4.10883 0
M  V30 10458 H 978.738 4.72664 4.77534 0
M  V30 10459 N 981.458 -1.16348 1.06306 0
M  V30 10460 C 982.869 -1.68491 0.80422 0
M  V30 10461 C 983.22 -1.84327 -0.672159 0
M  V30 10462 O 982.345 -1.53892 -1.52139 0
M  V30 10463 C 982.94 -3.06048 1.45328 0
M  V30 10464 C 981.499 -3.55311 1.24221 0
M  V30 10465 C 980.646 -2.31291 1.5297 0
M  V30 10466 H 983.597 -1.00708 1.22652 0
M  V30 10467 H 983.618 -3.70451 0.868674 0
M  V30 10468 H 983.13 -2.9449 2.52779 0
M  V30 10469 H 981.231 -3.72128 0.187447 0
M  V30 10470 H 981.344 -4.37397 1.95502 0
M  V30 10471 H 979.708 -2.3631 0.950241 0
M  V30 10472 H 980.491 -2.22331 2.6158 0
M  V30 10473 N 982.937 -0.845659 -1.3299 0
M  V30 10474 C 984.214 -0.366306 -1.92139 0
M  V30 10475 C 984.594 1.14912 -1.77083 0
M  V30 10476 O 983.942 1.96667 -1.16338 0
M  V30 10477 C 984.152 -0.820716 -3.39213 0
M  V30 10478 C 985.5 -0.832667 -4.16355 0
M  V30 10479 O 986.524 -0.764764 -3.47893 0
M  V30 10480 O 985.383 -0.926658 -5.38586 0
M  V30 10481 H 982.477 -0.105063 -0.820299 0
M  V30 10482 H 985.023 -0.931962 -1.41819 0
M  V30 10483 H 983.795 -1.86357 -3.44074 0
M  V30 10484 H 983.418 -0.232009 -3.96923 0
M  V30 10485 N 984.415 1.45619 -0.602734 0
M  V30 10486 C 985.664 2.01483 -0.0936395 0
M  V30 10487 C 985.977 1.47753 1.28173 0
M  V30 10488 O 987.183 1.95562 1.88329 0
M  V30 10489 C 985.639 3.59711 -0.116738 0
M  V30 10490 C 985.247 4.22437 -1.49166 0
M  V30 10491 C 986.991 4.23157 0.337368 0
M  V30 10492 C 984.898 5.72803 -1.47141 0
M  V30 10493 H 983.828 0.753353 -0.0312382 0
M  V30 10494 H 986.479 1.67142 -0.757347 0
M  V30 10495 H 984.861 3.91218 0.613529 0
M  V30 10496 H 986.035 4.02511 -2.24325 0
M  V30 10497 H 984.35 3.71166 -1.88746 0
M  V30 10498 H 986.947 5.33407 0.371628 0
M  V30 10499 H 987.29 3.93491 1.35906 0
M  V30 10500 H 987.823 3.96349 -0.339474 0
M  V30 10501 H 984.562 6.07161 -2.47055 0
M  V30 10502 H 984.082 5.94936 -0.762329 0
M  V30 10503 H 985.761 6.35907 -1.19294 0
M  V30 10504 N 985.893 0.34162 1.53853 0
M  V30 10505 C 986.803 -0.524555 2.2866 0
M  V30 10506 C 987.819 -1.1136 1.33697 0
M  V30 10507 O 988.995 -1.1297 1.66732 0
M  V30 10508 C 986.06 -1.66065 3.04341 0
M  V30 10509 C 985.121 -1.10158 4.14926 0
M  V30 10510 C 984.354 -2.18353 4.86988 0
M  V30 10511 O 984.577 -3.39038 4.58704 0
M  V30 10512 O 983.511 -1.82756 5.73484 0
M  V30 10513 H 987.337 0.0835014 3.03585 0
M  V30 10514 H 984.922 0.106727 1.49018 0
M  V30 10515 H 986.804 -2.3217 3.51674 0
M  V30 10516 H 985.479 -2.25456 2.32275 0
M  V30 10517 H 984.386 -0.405109 3.719 0
M  V30 10518 H 985.719 -0.552567 4.89088 0
M  V30 10519 N 987.371 -1.57444 0.0701946 0
M  V30 10520 C 988.334 -2.11511 -0.882923 0
M  V30 10521 C 989.334 -1.03879 -1.22743 0
M  V30 10522 O 990.524 -1.29874 -1.16097 0
M  V30 10523 C 987.656 -2.61514 -2.18686 0
M  V30 10524 H 988.849 -2.9703 -0.413873 0
M  V30 10525 H 986.402 -1.55278 -0.178488 0
M  V30 10526 H 987.137 -1.79443 -2.70131 0
M  V30 10527 H 986.922 -3.40185 -1.94978 0
M  V30 10528 H 988.412 -3.03425 -2.86919 0
M  V30 10529 N 988.849 0.203349 -1.56283 0
M  V30 10530 C 989.781 1.27592 -1.90402 0
M  V30 10531 C 990.794 1.4213 -0.79391 0
M  V30 10532 O 991.983 1.42703 -1.07229 0
M  V30 10533 C 989.083 2.64919 -2.11356 0
M  V30 10534 C 988.256 2.72095 -3.42466 0
M  V30 10535 C 987.315 3.9056 -3.52631 0
M  V30 10536 O 986.341 3.78048 -4.25521 0
M  V30 10537 N 987.543 5.0566 -2.85111 0
M  V30 10538 H 990.308 0.986423 -2.83001 0
M  V30 10539 H 987.869 0.39331 -1.5705 0
M  V30 10540 H 989.861 3.42581 -2.15453 0
M  V30 10541 H 988.431 2.86391 -1.25295 0
M  V30 10542 H 987.651 1.8077 -3.50308 0
M  V30 10543 H 988.939 2.73874 -4.28801 0
M  V30 10544 H 988.337 5.18723 -2.25705 0
M  V30 10545 H 986.894 5.81299 -2.94847 0
M  V30 10546 N 990.327 1.50405 0.470755 0
M  V30 10547 C 991.237 1.7208 1.59454 0
M  V30 10548 C 992.253 0.603932 1.63183 0
M  V30 10549 O 993.429 0.882296 1.81046 0
M  V30 10550 C 990.494 1.81057 2.95667 0
M  V30 10551 C 989.555 3.04792 3.02324 0
M  V30 10552 C 988.788 3.13332 4.3204 0
M  V30 10553 O 989.011 2.28655 5.22564 0
M  V30 10554 O 987.945 4.0606 4.44296 0
M  V30 10555 H 991.771 2.67343 1.44089 0
M  V30 10556 H 989.356 1.34505 0.650286 0
M  V30 10557 H 991.238 1.8914 3.76569 0
M  V30 10558 H 989.913 0.889782 3.11231 0
M  V30 10559 H 988.82 3.0221 2.205 0
M  V30 10560 H 990.153 3.96451 2.91698 0
M  V30 10561 N 991.805 -0.723954 1.39988 0
M  V30 10562 C 993.221 -1.03095 1.21834 0
M  V30 10563 C 993.421 -2.01309 0.0876647 0
M  V30 10564 O 992.477 -2.46277 -0.55714 0
M  V30 10565 C 993.79 -1.58267 2.5568 0
M  V30 10566 C 995.338 -1.70293 2.6262 0
M  V30 10567 C 995.813 -2.28872 3.96713 0
M  V30 10568 N 997.304 -2.36269 3.98411 0
M  V30 10569 C 998.039 -2.82557 4.98948 0
M  V30 10570 N 997.535 -3.28661 6.0988 0
M  V30 10571 N 999.328 -2.81866 4.86321 0
M  V30 10572 H 991.479 -0.0727891 2.12275 0
M  V30 10573 H 993.742 -0.0949029 0.943238 0
M  V30 10574 H 993.448 -0.935642 3.39026 0
M  V30 10575 H 993.322 -2.56914 2.76179 0
M  V30 10576 H 995.709 -2.34115 1.7965 0
M  V30 10577 H 995.79 -0.70268 2.45959 0
M  V30 10578 H 995.434 -1.65675 4.80119 0
M  V30 10579 H 995.364 -3.29595 4.107 0
M  V30 10580 H 997.855 -2.03697 3.18302 0
M  V30 10581 H 998.168 -3.62524 6.82493 0
M  V30 10582 H 996.513 -3.26641 6.13458 0
M  V30 10583 H 999.704 -2.45179 3.98754 0
M  V30 10584 H 999.877 -3.17626 5.64817 0
M  V30 10585 N 993.283 -1.25346 -0.955304 0
M  V30 10586 C 994.531 -1.09837 -1.69647 0
M  V30 10587 C 994.852 0.361425 -1.91621 0
M  V30 10588 O 994.122 1.25666 -1.50283 0
M  V30 10589 H 992.702 -0.403467 -0.628668 0
M  V30 10590 H 995.364 -1.57459 -1.14859 0
M  V30 10591 H 994.46 -1.60616 -2.67598 0
M  V30 10592 N 994.761 1.15782 -1.06922 0
M  V30 10593 C 996.007 1.86741 -0.790922 0
M  V30 10594 C 996.34 1.81863 0.681149 0
M  V30 10595 O 995.615 1.23871 1.49954 0
M  V30 10596 C 995.898 3.36038 -1.29422 0
M  V30 10597 C 995.751 3.49573 -2.83052 0
M  V30 10598 C 997.07 4.30647 -0.907239 0
M  V30 10599 H 994.189 0.678064 -0.288787 0
M  V30 10600 H 996.831 1.36054 -1.32624 0
M  V30 10601 H 994.981 3.79336 -0.838843 0
M  V30 10602 H 996.653 3.1517 -3.36847 0
M  V30 10603 H 994.896 2.91275 -3.21467 0
M  V30 10604 H 995.567 4.5445 -3.13335 0
M  V30 10605 H 998.043 3.95286 -1.29956 0
M  V30 10606 H 996.919 5.33604 -1.28679 0
M  V30 10607 H 997.18 4.41703 0.187251 0
M  V30 10608 N 996.239 0.8527 1.3254 0
M  V30 10609 C 997.655 0.542298 1.50104 0
M  V30 10610 C 997.855 -0.927465 1.78886 0
M  V30 10611 O 996.911 -1.7106 1.85728 0
M  V30 10612 C 998.224 1.4276 2.64651 0
M  V30 10613 C 999.772 1.42782 2.78536 0
M  V30 10614 C 1000.25 2.29828 3.9616 0
M  V30 10615 N 1001.74 2.27613 4.03418 0
M  V30 10616 C 1002.47 2.91696 4.93661 0
M  V30 10617 N 1001.97 3.64883 5.88925 0
M  V30 10618 N 1003.76 2.81094 4.86768 0
M  V30 10619 H 995.913 1.80395 1.12123 0
M  V30 10620 H 998.176 0.770394 0.552446 0
M  V30 10621 H 997.882 2.47266 2.50105 0
M  V30 10622 H 997.756 1.11358 3.60388 0
M  V30 10623 H 1000.14 0.390417 2.92506 0
M  V30 10624 H 1000.22 1.78198 1.83519 0
M  V30 10625 H 999.868 3.33635 3.82949 0
M  V30 10626 H 999.798 1.91746 4.9045 0
M  V30 10627 H 1002.29 1.74402 3.3525 0
M  V30 10628 H 1002.6 4.10952 6.54476 0
M  V30 10629 H 1000.95 3.68991 5.88957 0
M  V30 10630 H 1004.14 2.23469 4.11314 0
M  V30 10631 H 1004.31 3.31318 5.56895 0
M  V30 10632 N 997.718 -1.45297 0.610449 0
M  V30 10633 C 998.958 -2.04105 0.109802 0
M  V30 10634 C 999.322 -1.46818 -1.23727 0
M  V30 10635 O 1000.52 -1.96997 -1.82881 0
M  V30 10636 C 998.794 -3.57323 0.0741377 0
M  V30 10637 S 1000.35 -4.3728 -0.364901 0
M  V30 10638 H 997.171 -0.709171 0.050967 0
M  V30 10639 H 999.773 -1.77967 0.809194 0
M  V30 10640 H 998.477 -3.96528 1.05801 0
M  V30 10641 H 998.008 -3.8804 -0.647158 0
M  V30 10642 H 1000.02 -4.69224 -1.61379 0
M  V30 10643 N 999.196 -0.349774 -1.5367 0
M  V30 10644 C 1000.13 0.496338 -2.28164 0
M  V30 10645 C 1001.11 1.09737 -1.29968 0
M  V30 10646 O 1002.29 1.11759 -1.58819 0
M  V30 10647 C 999.422 1.64428 -3.0591 0
M  V30 10648 C 998.376 1.17127 -4.11661 0
M  V30 10649 C 997.702 2.40822 -4.77398 0
M  V30 10650 C 999.002 0.267293 -5.21616 0
M  V30 10651 H 1000.7 -0.125117 -2.99138 0
M  V30 10652 H 998.242 -0.0616152 -1.43868 0
M  V30 10653 H 1000.19 2.2427 -3.56765 0
M  V30 10654 H 998.919 2.29272 -2.32598 0
M  V30 10655 H 997.578 0.595634 -3.61729 0
M  V30 10656 H 997.226 3.04088 -4.00674 0
M  V30 10657 H 996.926 2.09852 -5.48849 0
M  V30 10658 H 998.45 3.01378 -5.3104 0
M  V30 10659 H 999.864 0.772734 -5.68068 0
M  V30 10660 H 998.261 0.0491991 -6.0008 0
M  V30 10661 H 999.331 -0.694892 -4.79895 0
M  V30 10662 N 1000.67 1.57404 -0.0785433 0
M  V30 10663 C 1001.6 2.16131 0.883726 0
M  V30 10664 C 1002.58 1.09015 1.30575 0
M  V30 10665 O 1003.77 1.3708 1.37559 0
M  V30 10666 C 1000.9 2.72836 2.1489 0
M  V30 10667 C 999.854 3.85178 1.86605 0
M  V30 10668 C 999.18 4.28516 3.1981 0
M  V30 10669 C 1000.48 5.09118 1.16601 0
M  V30 10670 H 1002.17 2.9679 0.394484 0
M  V30 10671 H 999.72 1.42763 0.188304 0
M  V30 10672 H 1001.67 3.12567 2.8263 0
M  V30 10673 H 1000.4 1.89408 2.66068 0
M  V30 10674 H 999.056 3.45962 1.21268 0
M  V30 10675 H 998.704 3.42 3.68843 0
M  V30 10676 H 998.404 5.04249 3.01674 0
M  V30 10677 H 999.928 4.70868 3.88737 0
M  V30 10678 H 1001.34 5.46123 1.74422 0
M  V30 10679 H 999.739 5.90173 1.087 0
M  V30 10680 H 1000.81 4.8468 0.146138 0
M  V30 10681 N 1002.15 -0.195058 1.56388 0
M  V30 10682 C 1003.06 -1.26219 1.97752 0
M  V30 10683 C 1004.08 -1.49801 0.885192 0
M  V30 10684 O 1005.25 -1.62415 1.19094 0
M  V30 10685 C 1002.32 -2.5865 2.3087 0
M  V30 10686 C 1001.38 -2.4314 3.5381 0
M  V30 10687 C 1000.61 -3.69255 3.85339 0
M  V30 10688 O 1000.84 -4.73425 3.18159 0
M  V30 10689 O 999.77 -3.64782 4.78767 0
M  V30 10690 H 1003.6 -0.941161 2.88749 0
M  V30 10691 H 1001.18 -0.40006 1.43944 0
M  V30 10692 H 1003.06 -3.36814 2.53247 0
M  V30 10693 H 1001.74 -2.9038 1.43042 0
M  V30 10694 H 1000.64 -1.63086 3.3668 0
M  V30 10695 H 1001.98 -2.16341 4.42105 0
M  V30 10696 N 1003.63 -1.50653 -0.462772 0
M  V30 10697 C 1004.58 -1.70122 -1.55971 0
M  V30 10698 C 1005.55 -0.542581 -1.56988 0
M  V30 10699 O 1006.73 -0.774114 -1.74391 0
M  V30 10700 C 1003.87 -1.80899 -2.93887 0
M  V30 10701 C 1002.98 -3.08318 -3.02595 0
M  V30 10702 C 1002.12 -3.09841 -4.31477 0
M  V30 10703 C 1001.16 -4.3168 -4.33957 0
M  V30 10704 N 1000.3 -4.30894 -5.54323 0
M  V30 10705 H 1005.14 -2.63768 -1.38674 0
M  V30 10706 H 1002.67 -1.30746 -0.674091 0
M  V30 10707 H 1004.63 -1.85128 -3.73876 0
M  V30 10708 H 1003.26 -0.906854 -3.098 0
M  V30 10709 H 1002.31 -3.13521 -2.15427 0
M  V30 10710 H 1003.62 -3.98282 -3.00288 0
M  V30 10711 H 1002.78 -3.12845 -5.1982 0
M  V30 10712 H 1001.52 -2.17722 -4.36404 0
M  V30 10713 H 1000.52 -4.28879 -3.4401 0
M  V30 10714 H 1001.75 -5.25035 -4.30715 0
M  V30 10715 H 999.694 -3.41633 -5.6002 0
M  V30 10716 H 999.611 -5.14636 -5.53792 0
M  V30 10717 H 1000.88 -4.38056 -6.44769 0
M  V30 10718 N 1005.11 0.71652 -1.4037 0
M  V30 10719 C 1006.04 1.84138 -1.36477 0
M  V30 10720 C 1007.05 1.6054 -0.27033 0
M  V30 10721 O 1008.24 1.70431 -0.530612 0
M  V30 10722 C 1005.34 3.20523 -1.10082 0
M  V30 10723 C 1004.52 3.71326 -2.31162 0
M  V30 10724 C 1003.57 4.86322 -2.00942 0
M  V30 10725 O 1002.6 4.99022 -2.73799 0
M  V30 10726 N 1003.8 5.72051 -0.986812 0
M  V30 10727 H 1006.57 1.87977 -2.3342 0
M  V30 10728 H 1004.13 0.89802 -1.34712 0
M  V30 10729 H 1006.12 3.95049 -0.878526 0
M  V30 10730 H 1004.69 3.11838 -0.21809 0
M  V30 10731 H 1003.91 2.87941 -2.69227 0
M  V30 10732 H 1005.2 4.02003 -3.11883 0
M  V30 10733 H 1004.6 5.64399 -0.383381 0
M  V30 10734 H 1003.15 6.46565 -0.824419 0
M  V30 10735 N 1006.59 1.25851 0.948643 0
M  V30 10736 C 1007.52 1.09248 2.06367 0
M  V30 10737 C 1008.5 -0.000205168 1.701 0
M  V30 10738 O 1009.68 0.170442 1.93451 0
M  V30 10739 C 1006.81 0.716777 3.39823 0
M  V30 10740 C 1005.77 1.76036 3.90122 0
M  V30 10741 C 1005.09 1.23918 5.20143 0
M  V30 10742 C 1006.39 3.16039 4.15833 0
M  V30 10743 H 1008.09 2.02518 2.20515 0
M  V30 10744 H 1005.63 0.975093 1.05962 0
M  V30 10745 H 1007.59 0.587531 4.17284 0
M  V30 10746 H 1006.31 -0.251626 3.25629 0
M  V30 10747 H 1004.97 1.87815 3.14835 0
M  V30 10748 H 1004.62 0.260836 5.02323 0
M  V30 10749 H 1004.32 1.93673 5.54765 0
M  V30 10750 H 1005.84 1.12245 6.00194 0
M  V30 10751 H 1007.25 3.0738 4.83933 0
M  V30 10752 H 1005.65 3.83317 4.61723 0
M  V30 10753 H 1006.72 3.62652 3.21887 0
M  V30 10754 N 1008.06 -1.15214 1.07534 0
M  V30 10755 C 1009.48 -1.67628 0.822045 0
M  V30 10756 C 1009.83 -1.8503 -0.652571 0
M  V30 10757 O 1008.95 -1.55497 -1.50498 0
M  V30 10758 C 1009.55 -3.04489 1.48566 0
M  V30 10759 C 1008.11 -3.53974 1.27983 0
M  V30 10760 C 1007.25 -2.29656 1.55414 0
M  V30 10761 H 1010.2 -0.994016 1.23713 0
M  V30 10762 H 1010.22 -3.69509 0.907916 0
M  V30 10763 H 1009.74 -2.91792 2.55888 0
M  V30 10764 H 1007.84 -3.71908 0.226906 0
M  V30 10765 H 1007.95 -4.35298 2.0013 0
M  V30 10766 H 1006.31 -2.35289 0.975251 0
M  V30 10767 H 1007.1 -2.19544 2.63923 0
M  V30 10768 N 1009.54 -0.859717 -1.32086 0
M  V30 10769 C 1010.49 -0.296897 -2.30697 0
M  V30 10770 C 1011.48 0.582473 -1.59071 0
M  V30 10771 O 1012.69 0.469713 -1.73763 0
M  V30 10772 H 1009.07 -0.0773132 -0.748015 0
M  V30 10773 H 1011.04 -1.14273 -2.75652 0
M  V30 10774 C 1009.79 0.495546 -3.44151 0
M  V30 10775 H 1009.11 -0.171829 -3.99431 0
M  V30 10776 H 1010.55 0.854854 -4.15293 0
M  V30 10777 C 1009.01 1.68278 -2.91863 0
M  V30 10778 O 1009.54 2.78194 -2.89777 0
M  V30 10779 N 1007.74 1.51151 -2.48197 0
M  V30 10780 H 1007.29 0.617345 -2.50093 0
M  V30 10781 H 1007.25 2.3073 -2.13567 0
M  V30 10782 N 1011.02 1.44971 -0.618145 0
M  V30 10783 C 1012.27 2.0176 -0.11725 0
M  V30 10784 C 1012.59 1.48773 1.26062 0
M  V30 10785 O 1011.86 0.686152 1.83491 0
M  V30 10786 H 1010.44 0.745909 -0.0403545 0
M  V30 10787 H 1013.1 1.77638 -0.801923 0
M  V30 10788 H 1012.2 3.1201 -0.0750477 0
M  V30 10789 N 1012.5 0.357919 1.53482 0
M  V30 10790 C 1013.78 -0.290164 1.93436 0
M  V30 10791 C 1014.16 -1.67039 1.29079 0
M  V30 10792 O 1013.5 -2.24085 0.447017 0
M  V30 10793 C 1013.71 -0.348055 3.4726 0
M  V30 10794 C 1015.06 -0.59206 4.20452 0
M  V30 10795 O 1016.09 -0.429581 3.536 0
M  V30 10796 O 1014.94 -0.907855 5.38907 0
M  V30 10797 H 1012.04 -0.172312 0.80885 0
M  V30 10798 H 1014.58 0.410144 1.64669 0
M  V30 10799 H 1013.36 0.619953 3.86358 0
M  V30 10800 H 1012.98 -1.09457 3.82237 0
M  V30 10801 N 1013.98 -1.5736 0.0868897 0
M  V30 10802 C 1015.22 -1.95147 -0.573512 0
M  V30 10803 C 1015.58 -0.967591 -1.66299 0
M  V30 10804 O 1014.87 0.00774571 -1.91598 0
M  V30 10805 C 1015.06 -3.37316 -1.18123 0
M  V30 10806 C 1014.89 -4.49443 -0.152145 0
M  V30 10807 C 1013.66 -5.04586 0.268496 0
M  V30 10808 C 1015.86 -5.10592 0.616502 0
M  V30 10809 N 1013.84 -6.00264 1.28671 0
M  V30 10810 C 1015.21 -6.0191 1.48677 0
M  V30 10811 C 1017.27 -4.93359 0.67092 0
M  V30 10812 C 1015.97 -6.77844 2.40664 0
M  V30 10813 C 1018 -5.69949 1.57837 0
M  V30 10814 C 1017.36 -6.60927 2.43628 0
M  V30 10815 H 1013.46 -0.760898 -0.180439 0
M  V30 10816 H 1016.04 -1.93978 0.167548 0
M  V30 10817 H 1014.21 -3.39194 -1.89214 0
M  V30 10818 H 1015.95 -3.62301 -1.80332 0
M  V30 10819 H 1012.7 -4.73454 -0.117625 0
M  V30 10820 H 1013.13 -6.52804 1.79377 0
M  V30 10821 H 1017.77 -4.22794 0.0218207 0
M  V30 10822 H 1015.49 -7.47677 3.06603 0
M  V30 10823 H 1019.07 -5.58631 1.6255 0
M  V30 10824 H 1017.95 -7.19156 3.12705 0
M  V30 10825 N 1015.45 0.186762 -1.56489 0
M  V30 10826 C 1016.87 0.750675 -1.70944 0
M  V30 10827 C 1017.22 1.83483 -0.694858 0
M  V30 10828 O 1016.34 2.159 0.147009 0
M  V30 10829 C 1016.94 1.36843 -3.09934 0
M  V30 10830 C 1015.5 1.87934 -3.26125 0
M  V30 10831 C 1014.64 0.75242 -2.66897 0
M  V30 10832 H 1017.59 -0.0384292 -1.58653 0
M  V30 10833 H 1017.61 2.23795 -3.07727 0
M  V30 10834 H 1017.13 0.579135 -3.83755 0
M  V30 10835 H 1015.23 2.69556 -2.57235 0
M  V30 10836 H 1015.34 2.0354 -4.33715 0
M  V30 10837 H 1013.7 1.16888 -2.26295 0
M  V30 10838 H 1014.49 -0.0247769 -3.43291 0
M  V30 10839 N 1016.93 1.50896 0.454776 0
M  V30 10840 C 1017.86 1.6712 1.56855 0
M  V30 10841 C 1018.88 0.552223 1.53148 0
M  V30 10842 O 1020.07 0.825969 1.5824 0
M  V30 10843 C 1017.17 1.65464 2.95762 0
M  V30 10844 C 1016.34 2.93662 3.24163 0
M  V30 10845 C 1015.4 2.84428 4.42704 0
M  V30 10846 O 1014.42 3.58382 4.42211 0
M  V30 10847 N 1015.63 1.9909 5.45292 0
M  V30 10848 H 1018.39 2.63194 1.43349 0
M  V30 10849 H 1015.95 1.48564 0.643457 0
M  V30 10850 H 1017.94 1.56878 3.73057 0
M  V30 10851 H 1016.51 0.770568 3.02954 0
M  V30 10852 H 1015.73 3.16251 2.35328 0
M  V30 10853 H 1017.02 3.78558 3.39957 0
M  V30 10854 H 1016.42 1.3835 5.48521 0
M  V30 10855 H 1014.98 1.96396 6.21508 0
M  V30 10856 N 1018.41 -0.709066 1.40748 0
M  V30 10857 C 1019.32 -1.85314 1.43861 0
M  V30 10858 C 1020.34 -1.70832 0.330539 0
M  V30 10859 O 1021.51 -1.92983 0.576152 0
M  V30 10860 C 1018.58 -3.21174 1.30568 0
M  V30 10861 C 1017.64 -3.47863 2.51574 0
M  V30 10862 C 1016.87 -4.77241 2.38906 0
M  V30 10863 O 1017.09 -5.52791 1.40636 0
M  V30 10864 O 1016.03 -5.04413 3.28407 0
M  V30 10865 H 1019.85 -1.85644 2.40354 0
M  V30 10866 H 1017.44 -0.860352 1.2214 0
M  V30 10867 H 1019.32 -4.02313 1.25388 0
M  V30 10868 H 1018 -3.21557 0.371841 0
M  V30 10869 H 1016.9 -2.66708 2.62331 0
M  V30 10870 H 1018.24 -3.52283 3.43741 0
M  V30 10871 N 1019.89 -1.26353 -0.941956 0
M  V30 10872 C 1020.84 -1.07654 -2.06188 0
M  V30 10873 C 1021.83 -0.00369741 -1.694 0
M  V30 10874 O 1023.04 -0.160316 -1.79285 0
M  V30 10875 H 1019.41 -0.331274 -0.675101 0
M  V30 10876 H 1021.38 -2.02566 -2.19111 0
M  V30 10877 C 1020.13 -0.725436 -3.40048 0
M  V30 10878 H 1019.46 -1.54283 -3.68832 0
M  V30 10879 H 1020.9 -0.634383 -4.19227 0
M  V30 10880 C 1019.35 0.569369 -3.32054 0
M  V30 10881 O 1019.88 1.60791 -3.68116 0
M  V30 10882 N 1018.09 0.559714 -2.85159 0
M  V30 10883 H 1017.64 -0.285817 -2.56009 0
M  V30 10884 H 1017.6 1.42617 -2.80193 0
M  V30 10885 N 1021.37 1.14642 -1.08144 0
M  V30 10886 C 1022.62 1.84964 -0.804437 0
M  V30 10887 C 1022.93 1.8369 0.672106 0
M  V30 10888 O 1024.14 2.49775 1.06417 0
M  V30 10889 C 1022.59 3.32015 -1.38904 0
M  V30 10890 C 1022.2 3.41713 -2.89718 0
M  V30 10891 C 1023.94 4.07467 -1.19041 0
M  V30 10892 C 1021.85 4.82958 -3.41329 0
M  V30 10893 H 1020.78 0.692932 -0.297256 0
M  V30 10894 H 1023.43 1.29255 -1.30251 0
M  V30 10895 H 1021.81 3.87445 -0.818679 0
M  V30 10896 H 1022.99 2.96347 -3.52867 0
M  V30 10897 H 1021.3 2.79713 -3.08463 0
M  V30 10898 H 1023.9 5.1172 -1.55069 0
M  V30 10899 H 1024.24 4.16097 -0.130027 0
M  V30 10900 H 1024.78 3.58329 -1.72757 0
M  V30 10901 H 1021.51 4.79515 -4.46929 0
M  V30 10902 H 1021.03 5.28873 -2.82937 0
M  V30 10903 H 1022.71 5.51841 -3.37759 0
M  V30 10904 N 1022.85 0.866709 1.31628 0
M  V30 10905 C 1023.81 0.325041 2.26883 0
M  V30 10906 C 1024.81 -0.522133 1.52087 0
M  V30 10907 O 1026 -0.331908 1.71009 0
M  V30 10908 C 1023.13 -0.538756 3.36616 0
M  V30 10909 H 1024.32 1.16592 2.76308 0
M  V30 10910 H 1021.88 0.642029 1.42505 0
M  V30 10911 H 1022.61 -1.40096 2.92478 0
M  V30 10912 H 1022.4 0.0678115 3.92041 0
M  V30 10913 H 1023.89 -0.910123 4.07562 0
M  V30 10914 N 1024.32 -1.44642 0.625825 0
M  V30 10915 C 1025.57 -2.01695 0.127948 0
M  V30 10916 C 1025.89 -1.49439 -1.25271 0
M  V30 10917 O 1025.16 -0.695873 -1.83124 0
M  V30 10918 H 1023.74 -0.745685 0.0443096 0
M  V30 10919 H 1026.4 -1.7721 0.811332 0
M  V30 10920 H 1025.5 -3.11966 0.0915933 0
M  V30 10921 N 1025.8 -0.366053 -1.5329 0
M  V30 10922 C 1027.05 0.223824 -2.01561 0
M  V30 10923 C 1027.38 1.48382 -1.25286 0
M  V30 10924 O 1026.66 1.91385 -0.34669 0
M  V30 10925 C 1026.94 0.5153 -3.56394 0
M  V30 10926 C 1026.79 -0.758357 -4.43361 0
M  V30 10927 C 1028.11 1.31568 -4.19974 0
M  V30 10928 H 1025.23 0.0798751 -0.732659 0
M  V30 10929 H 1027.87 -0.491038 -1.83545 0
M  V30 10930 H 1026.02 1.12429 -3.71876 0
M  V30 10931 H 1027.69 -1.39584 -4.39675 0
M  V30 10932 H 1025.94 -1.37862 -4.11311 0
M  V30 10933 H 1026.61 -0.509366 -5.49645 0
M  V30 10934 H 1029.08 0.800514 -4.08327 0
M  V30 10935 H 1027.96 1.48837 -5.28336 0
M  V30 10936 H 1028.22 2.32432 -3.76069 0
M  V30 10937 N 1027.28 1.57312 -0.0952337 0
M  V30 10938 C 1028.53 1.94358 0.568442 0
M  V30 10939 C 1028.85 0.97698 1.68182 0
M  V30 10940 O 1028.11 -0.00340398 1.957 0
M  V30 10941 C 1028.41 3.37937 1.16332 0
M  V30 10942 C 1028.07 4.50565 0.173715 0
M  V30 10943 C 1026.74 4.81099 -0.0984673 0
M  V30 10944 C 1029.09 5.18777 -0.501992 0
M  V30 10945 C 1026.42 5.77172 -1.05305 0
M  V30 10946 C 1028.77 6.15874 -1.44505 0
M  V30 10947 C 1027.43 6.44813 -1.72546 0
M  V30 10948 H 1026.7 0.711206 0.208007 0
M  V30 10949 H 1029.35 1.90734 -0.171096 0
M  V30 10950 H 1027.65 3.3814 1.97911 0
M  V30 10951 H 1029.35 3.63902 1.68453 0
M  V30 10952 H 1025.94 4.26766 0.396042 0
M  V30 10953 H 1030.13 4.95363 -0.304855 0
M  V30 10954 H 1025.38 5.97909 -1.2773 0
M  V30 10955 H 1029.56 6.67824 -1.97444 0
M  V30 10956 H 1027.18 7.19067 -2.46671 0
M  V30 10957 N 1028.76 -0.17846 1.56586 0
M  V30 10958 C 1029.71 -1.24042 1.96765 0
M  V30 10959 C 1030.7 -1.46218 0.855375 0
M  V30 10960 O 1031.91 -1.46882 1.04046 0
M  V30 10961 H 1028.28 -0.416807 0.62592 0
M  V30 10962 H 1030.25 -0.874644 2.85294 0
M  V30 10963 C 1029 -2.57394 2.3376 0
M  V30 10964 H 1028.32 -2.41151 3.18883 0
M  V30 10965 H 1029.76 -3.30405 2.65723 0
M  V30 10966 C 1028.22 -3.15621 1.17835 0
M  V30 10967 O 1028.75 -3.99032 0.462202 0
M  V30 10968 N 1026.96 -2.74606 0.950783 0
M  V30 10969 H 1026.51 -2.06878 1.5349 0
M  V30 10970 H 1026.46 -3.13902 0.176967 0
M  V30 10971 N 1030.24 -1.51135 -0.446768 0
M  V30 10972 C 1031.18 -1.71767 -1.54158 0
M  V30 10973 C 1032.15 -0.559201 -1.56404 0
M  V30 10974 O 1033.34 -0.792567 -1.7356 0
M  V30 10975 C 1030.48 -1.84006 -2.91952 0
M  V30 10976 C 1029.59 -3.11511 -2.99308 0
M  V30 10977 C 1028.73 -3.144 -4.28166 0
M  V30 10978 C 1027.76 -4.36258 -4.29355 0
M  V30 10979 N 1026.9 -4.3675 -5.49722 0
M  V30 10980 H 1031.74 -2.65224 -1.35869 0
M  V30 10981 H 1029.28 -1.31453 -0.660186 0
M  V30 10982 H 1031.24 -1.89083 -3.71892 0
M  V30 10983 H 1029.87 -0.939661 -3.08821 0
M  V30 10984 H 1028.92 -3.15788 -2.12089 0
M  V30 10985 H 1030.23 -4.01445 -2.96047 0
M  V30 10986 H 1029.38 -3.18341 -5.16473 0
M  V30 10987 H 1028.12 -2.22338 -4.3407 0
M  V30 10988 H 1027.13 -4.32503 -3.39442 0
M  V30 10989 H 1028.35 -5.29574 -4.25122 0
M  V30 10990 H 1026.3 -3.47554 -5.56365 0
M  V30 10991 H 1026.22 -5.20481 -5.48302 0
M  V30 10992 H 1027.48 -4.4487 -6.40086 0
M  V30 10993 N 1031.71 0.701592 -1.41122 0
M  V30 10994 C 1032.94 1.49553 -1.43696 0
M  V30 10995 C 1033.36 1.88053 -0.0421865 0
M  V30 10996 O 1032.72 1.54223 0.953144 0
M  V30 10997 C 1032.77 2.73834 -2.34622 0
M  V30 10998 O 1031.87 3.71088 -1.7991 0
M  V30 10999 H 1031.21 0.450352 -0.487933 0
M  V30 11000 H 1033.74 0.862886 -1.85514 0
M  V30 11001 H 1033.75 3.22209 -2.5029 0
M  V30 11002 H 1032.43 2.45149 -3.35969 0
M  V30 11003 H 1031.01 3.29994 -1.73661 0
M  V30 11004 N 1033.19 1.2685 0.935242 0
M  V30 11005 C 1034.43 1.13972 1.69675 0
M  V30 11006 C 1034.8 -0.310655 1.8947 0
M  V30 11007 O 1036 -0.561692 2.62866 0
M  V30 11008 C 1034.27 1.89387 3.03096 0
M  V30 11009 S 1035.83 1.92633 3.94256 0
M  V30 11010 H 1032.64 0.407009 0.582979 0
M  V30 11011 H 1035.25 1.60653 1.11404 0
M  V30 11012 H 1033.95 2.9397 2.86374 0
M  V30 11013 H 1033.48 1.43171 3.66423 0
M  V30 11014 H 1035.5 1.01732 4.85659 0
M  V30 11015 N 1034.67 -1.14067 1.0875 0
M  V30 11016 C 1035.63 -2.17453 0.724341 0
M  V30 11017 C 1036.63 -1.58959 -0.242614 0
M  V30 11018 O 1037.82 -1.74186 -0.0217008 0
M  V30 11019 C 1034.96 -3.40828 0.0700236 0
M  V30 11020 H 1036.15 -2.51094 1.63987 0
M  V30 11021 H 1033.7 -1.28775 0.885813 0
M  V30 11022 H 1034.44 -3.1277 -0.857061 0
M  V30 11023 H 1034.22 -3.84551 0.76569 0
M  V30 11024 H 1035.71 -4.17258 -0.168905 0
M  V30 11025 N 1036.15 -0.873678 -1.31166 0
M  V30 11026 C 1037.4 -0.482577 -1.95842 0
M  V30 11027 C 1037.71 0.970881 -1.69804 0
M  V30 11028 O 1038.92 1.4683 -2.28371 0
M  V30 11029 C 1037.37 -0.812074 -3.50619 0
M  V30 11030 C 1036.98 -2.28254 -3.85492 0
M  V30 11031 C 1038.72 -0.489624 -4.21667 0
M  V30 11032 C 1036.63 -2.55426 -5.33396 0
M  V30 11033 H 1035.56 -0.176736 -0.732994 0
M  V30 11034 H 1038.21 -1.06709 -1.49283 0
M  V30 11035 H 1036.59 -0.156769 -3.9569 0
M  V30 11036 H 1037.77 -2.98122 -3.51369 0
M  V30 11037 H 1036.08 -2.5714 -3.27518 0
M  V30 11038 H 1038.68 -0.669811 -5.30488 0
M  V30 11039 H 1039.02 0.570204 -4.12376 0
M  V30 11040 H 1039.56 -1.10163 -3.82242 0
M  V30 11041 H 1036.3 -3.60106 -5.47726 0
M  V30 11042 H 1035.82 -1.90156 -5.68859 0
M  V30 11043 H 1037.49 -2.40345 -6.00702 0
M  V30 11044 N 1037.63 1.44308 -0.633487 0
M  V30 11045 C 1038.85 2.06897 -0.144347 0
M  V30 11046 C 1039.28 1.47045 1.173 0
M  V30 11047 O 1038.63 0.572806 1.72013 0
M  V30 11048 C 1038.68 3.60571 -0.0456324 0
M  V30 11049 O 1037.79 4.0015 0.997682 0
M  V30 11050 H 1037.13 0.658427 -0.0858499 0
M  V30 11051 H 1039.66 1.85142 -0.870833 0
M  V30 11052 H 1039.67 4.07745 0.144178 0
M  V30 11053 H 1038.34 4.03515 -1.0074 0
M  V30 11054 H 1036.92 3.64603 0.782252 0
M  V30 11055 N 1039.1 0.374177 1.53094 0
M  V30 11056 C 1040.33 -0.213015 2.05499 0
M  V30 11057 C 1040.74 -1.42303 1.24686 0
M  V30 11058 O 1040.09 -1.81512 0.282702 0
M  V30 11059 C 1040.15 -0.662308 3.53346 0
M  V30 11060 C 1039.81 0.432183 4.54952 0
M  V30 11061 C 1040.81 1.2848 5.03775 0
M  V30 11062 C 1038.49 0.594887 4.98765 0
M  V30 11063 C 1040.49 2.28538 5.9502 0
M  V30 11064 C 1038.17 1.59882 5.89814 0
M  V30 11065 C 1039.17 2.4425 6.37833 0
M  V30 11066 O 1038.86 3.4293 7.27086 0
M  V30 11067 H 1038.59 -0.0393809 0.674852 0
M  V30 11068 H 1041.15 0.533423 1.98353 0
M  V30 11069 H 1039.38 -1.46049 3.5806 0
M  V30 11070 H 1041.07 -1.17347 3.88567 0
M  V30 11071 H 1041.83 1.17033 4.70668 0
M  V30 11072 H 1037.71 -0.0520401 4.60971 0
M  V30 11073 H 1041.25 2.94426 6.32423 0
M  V30 11074 H 1037.15 1.71373 6.22335 0
M  V30 11075 H 1037.92 3.3876 7.45107 0
M  V30 11076 N 1040.58 -1.57259 0.103575 0
M  V30 11077 C 1041.81 -1.99 -0.566275 0
M  V30 11078 C 1042.23 -0.982909 -1.61197 0
M  V30 11079 O 1041.58 0.026345 -1.82481 0
M  V30 11080 C 1041.63 -3.40778 -1.20635 0
M  V30 11081 O 1041.35 -4.37632 -0.202472 0
M  V30 11082 C 1042.86 -3.97567 -1.961 0
M  V30 11083 H 1040.08 -0.653751 -0.151164 0
M  V30 11084 H 1042.62 -2.03658 0.185365 0
M  V30 11085 H 1040.77 -3.37107 -1.90886 0
M  V30 11086 H 1041.19 -5.2026 -0.665535 0
M  V30 11087 H 1042.66 -4.98897 -2.36233 0
M  V30 11088 H 1043.14 -3.35853 -2.83018 0
M  V30 11089 H 1043.75 -4.04737 -1.30645 0
M  V30 11090 N 1042.06 0.170153 -1.56679 0
M  V30 11091 C 1043.29 0.90618 -1.86556 0
M  V30 11092 C 1043.71 1.74986 -0.690044 0
M  V30 11093 O 1043.07 1.77672 0.360862 0
M  V30 11094 C 1043.12 1.75777 -3.14857 0
M  V30 11095 O 1042.22 2.85952 -2.97162 0
M  V30 11096 H 1041.56 0.253781 -0.613589 0
M  V30 11097 H 1044.09 0.167943 -2.0391 0
M  V30 11098 H 1044.1 2.15747 -3.46291 0
M  V30 11099 H 1042.78 1.13807 -4.00026 0
M  V30 11100 H 1041.35 2.49557 -2.77084 0
M  V30 11101 N 1043.54 1.5137 0.438746 0
M  V30 11102 C 1044.77 1.6753 1.20901 0
M  V30 11103 C 1045.18 0.371573 1.85515 0
M  V30 11104 O 1044.52 -0.659701 1.71446 0
M  V30 11105 C 1044.58 2.73305 2.33548 0
M  V30 11106 C 1044.25 4.15944 1.89313 0
M  V30 11107 C 1045.24 5.00769 1.39736 0
M  V30 11108 C 1042.93 4.62036 1.97047 0
M  V30 11109 C 1044.92 6.29747 0.984773 0
M  V30 11110 C 1042.61 5.91011 1.554 0
M  V30 11111 C 1043.61 6.74693 1.06197 0
M  V30 11112 O 1043.29 8.01256 0.651407 0
M  V30 11113 H 1043.03 0.565404 0.370532 0
M  V30 11114 H 1045.58 1.98543 0.526296 0
M  V30 11115 H 1043.81 2.37604 3.05092 0
M  V30 11116 H 1045.5 2.78359 2.95417 0
M  V30 11117 H 1046.27 4.66363 1.33156 0
M  V30 11118 H 1042.14 3.97025 2.34291 0
M  V30 11119 H 1045.69 6.95015 0.600029 0
M  V30 11120 H 1041.59 6.24932 1.6165 0
M  V30 11121 H 1042.35 8.148 0.777382 0
M  V30 11122 N 1045.02 -0.694098 1.41492 0
M  V30 11123 C 1046.43 -1.00487 1.23994 0
M  V30 11124 C 1046.63 -2.01078 0.130346 0
M  V30 11125 O 1045.69 -2.47403 -0.504775 0
M  V30 11126 C 1047 -1.52808 2.58979 0
M  V30 11127 C 1048.55 -1.64684 2.66173 0
M  V30 11128 C 1049.02 -2.20406 4.01479 0
M  V30 11129 N 1050.52 -2.27765 4.03333 0
M  V30 11130 C 1051.25 -2.7191 5.04829 0
M  V30 11131 N 1050.75 -3.1565 6.16714 0
M  V30 11132 N 1052.54 -2.71487 4.9219 0
M  V30 11133 H 1044.69 -0.027746 2.12382 0
M  V30 11134 H 1046.95 -0.0748741 0.945039 0
M  V30 11135 H 1046.66 -0.863519 3.40934 0
M  V30 11136 H 1046.53 -2.50998 2.81566 0
M  V30 11137 H 1048.92 -2.30251 1.84576 0
M  V30 11138 H 1049 -0.65035 2.47395 0
M  V30 11139 H 1048.65 -1.55454 4.83525 0
M  V30 11140 H 1048.58 -3.2081 4.17599 0
M  V30 11141 H 1051.07 -1.96899 3.22551 0
M  V30 11142 H 1051.38 -3.47966 6.90029 0
M  V30 11143 H 1049.72 -3.13555 6.20248 0
M  V30 11144 H 1052.92 -2.36666 4.03865 0
M  V30 11145 H 1053.09 -3.05573 5.71427 0
M  V30 11146 N 1046.49 -1.27344 -0.928501 0
M  V30 11147 C 1047.44 -1.09835 -2.05034 0
M  V30 11148 C 1048.44 -0.0216643 -1.69386 0
M  V30 11149 O 1049.64 -0.179323 -1.79105 0
M  V30 11150 H 1046.02 -0.338416 -0.671549 0
M  V30 11151 H 1047.99 -2.04879 -2.1695 0
M  V30 11152 C 1046.74 -0.761462 -3.3926 0
M  V30 11153 H 1046.06 -1.58186 -3.67175 0
M  V30 11154 H 1047.5 -0.678812 -4.18531 0
M  V30 11155 C 1045.96 0.534118 -3.32639 0
M  V30 11156 O 1046.49 1.56877 -3.69801 0
M  V30 11157 N 1044.7 0.529437 -2.85736 0
M  V30 11158 H 1044.24 -0.312954 -2.55692 0
M  V30 11159 H 1044.2 1.39637 -2.81689 0
M  V30 11160 N 1047.97 1.13488 -1.09353 0
M  V30 11161 C 1049.22 1.841 -0.82401 0
M  V30 11162 C 1049.53 1.84393 0.652586 0
M  V30 11163 O 1050.74 2.5089 1.03762 0
M  V30 11164 C 1049.2 3.30523 -1.42418 0
M  V30 11165 C 1048.8 3.38621 -2.93326 0
M  V30 11166 C 1050.55 4.06182 -1.23356 0
M  V30 11167 C 1048.46 4.79311 -3.46432 0
M  V30 11168 H 1047.39 0.68974 -0.304589 0
M  V30 11169 H 1050.04 1.27866 -1.31615 0
M  V30 11170 H 1048.42 3.86555 -0.859727 0
M  V30 11171 H 1049.59 2.92587 -3.5599 0
M  V30 11172 H 1047.91 2.76426 -3.11412 0
M  V30 11173 H 1050.5 5.10047 -1.60488 0
M  V30 11174 H 1050.85 4.15936 -0.174152 0
M  V30 11175 H 1051.38 3.56477 -1.76547 0
M  V30 11176 H 1048.12 4.74748 -4.5199 0
M  V30 11177 H 1047.64 5.25842 -2.8853 0
M  V30 11178 H 1049.32 5.48227 -3.43593 0
M  V30 11179 N 1049.45 0.880621 1.30701 0
M  V30 11180 C 1050.7 0.496875 1.96309 0
M  V30 11181 C 1051.03 -0.953064 1.69549 0
M  V30 11182 O 1050.28 -1.68782 0.990507 0
M  V30 11183 C 1050.58 0.713203 3.50212 0
M  V30 11184 C 1050.25 2.13756 3.97013 0
M  V30 11185 C 1048.91 2.52706 4.09503 0
M  V30 11186 C 1051.26 3.066 4.21481 0
M  V30 11187 C 1048.59 3.8372 4.43819 0
M  V30 11188 C 1050.94 4.3714 4.57265 0
M  V30 11189 C 1049.6 4.7599 4.67963 0
M  V30 11190 H 1048.87 0.18182 0.718347 0
M  V30 11191 H 1051.52 1.11564 1.55646 0
M  V30 11192 H 1049.83 0.0113694 3.91798 0
M  V30 11193 H 1051.52 0.39595 3.9904 0
M  V30 11194 H 1048.11 1.8252 3.87794 0
M  V30 11195 H 1052.3 2.77729 4.11315 0
M  V30 11196 H 1047.55 4.13568 4.50301 0
M  V30 11197 H 1051.73 5.09123 4.75149 0
M  V30 11198 H 1049.35 5.77549 4.94309 0
M  V30 11199 N 1050.93 -1.4397 0.641131 0
M  V30 11200 C 1052.34 -1.85267 0.230838 0
M  V30 11201 C 1052.69 -1.53659 -1.21998 0
M  V30 11202 O 1051.82 -0.979572 -1.92959 0
M  V30 11203 C 1052.41 -3.36284 0.412171 0
M  V30 11204 C 1050.97 -3.76358 0.0563004 0
M  V30 11205 C 1050.12 -2.67768 0.720809 0
M  V30 11206 H 1053.07 -1.34294 0.845624 0
M  V30 11207 H 1053.09 -3.78924 -0.345936 0
M  V30 11208 H 1052.6 -3.59258 1.46818 0
M  V30 11209 H 1050.7 -3.58997 -0.997582 0
M  V30 11210 H 1050.82 -4.76756 0.473335 0
M  V30 11211 H 1049.18 -2.54227 0.155164 0
M  V30 11212 H 1049.96 -2.93573 1.77961 0
M  V30 11213 N 1052.41 -0.382291 -1.52893 0
M  V30 11214 C 1053.66 0.203342 -2.00672 0
M  V30 11215 C 1053.97 1.48487 -1.27322 0
M  V30 11216 O 1055.18 2.15013 -1.65776 0
M  V30 11217 C 1053.63 0.412922 -3.57523 0
M  V30 11218 C 1053.24 -0.854949 -4.39767 0
M  V30 11219 C 1054.98 0.955301 -4.13611 0
M  V30 11220 C 1052.89 -0.614033 -5.88204 0
M  V30 11221 H 1051.82 0.0797635 -0.749769 0
M  V30 11222 H 1054.47 -0.50361 -1.76454 0
M  V30 11223 H 1052.85 1.18155 -3.77962 0
M  V30 11224 H 1054.03 -1.62765 -4.31096 0
M  V30 11225 H 1052.34 -1.32176 -3.94865 0
M  V30 11226 H 1054.94 1.15114 -5.22162 0
M  V30 11227 H 1055.28 1.92233 -3.69259 0
M  V30 11228 H 1055.82 0.24642 -3.97036 0
M  V30 11229 H 1052.55 -1.55187 -6.36865 0
M  V30 11230 H 1052.07 0.119865 -5.9968 0
M  V30 11231 H 1053.75 -0.245895 -6.46533 0
M  V30 11232 N 1053.89 1.57202 -0.111913 0
M  V30 11233 C 1055.13 1.96035 0.542393 0
M  V30 11234 C 1055.49 0.993925 1.64739 0
M  V30 11235 O 1054.78 0.0227369 1.91587 0
M  V30 11236 C 1054.97 3.39152 1.12741 0
M  V30 11237 C 1054.8 4.49628 0.0806232 0
M  V30 11238 C 1053.57 5.04095 -0.348737 0
M  V30 11239 C 1055.77 5.09546 -0.697655 0
M  V30 11240 N 1053.75 5.98141 -1.38204 0
M  V30 11241 C 1055.12 5.99468 -1.58234 0
M  V30 11242 C 1057.18 4.92229 -0.749324 0
M  V30 11243 C 1055.88 6.7393 -2.51418 0
M  V30 11244 C 1057.91 5.67366 -1.66884 0
M  V30 11245 C 1057.27 6.56968 -2.54112 0
M  V30 11246 H 1053.37 0.763672 0.168311 0
M  V30 11247 H 1055.95 1.93687 -0.198387 0
M  V30 11248 H 1054.12 3.42161 1.83794 0
M  V30 11249 H 1055.86 3.65125 1.74546 0
M  V30 11250 H 1052.61 4.73581 0.042288 0
M  V30 11251 H 1053.03 6.49868 -1.8974 0
M  V30 11252 H 1057.68 4.22706 -0.0890808 0
M  V30 11253 H 1055.39 7.42704 -3.18459 0
M  V30 11254 H 1058.98 5.55974 -1.71417 0
M  V30 11255 H 1057.86 7.1409 -3.24107 0
M  V30 11256 N 1055.36 -0.161842 1.56767 0
M  V30 11257 C 1056.33 -1.18404 1.96247 0
M  V30 11258 C 1057.33 -1.3667 0.84722 0
M  V30 11259 O 1058.52 -1.33915 1.11411 0
M  V30 11260 C 1055.65 -2.54728 2.26553 0
M  V30 11261 H 1056.84 -0.845703 2.87729 0
M  V30 11262 H 1054.39 -0.404645 1.50971 0
M  V30 11263 H 1055.13 -2.93559 1.37816 0
M  V30 11264 H 1054.91 -2.42834 3.07854 0
M  V30 11265 H 1056.4 -3.28378 2.57987 0
M  V30 11266 N 1056.84 -1.516 -0.430713 0
M  V30 11267 C 1057.77 -1.76342 -1.53054 0
M  V30 11268 C 1058.75 -0.61349 -1.58652 0
M  V30 11269 O 1059.94 -0.856888 -1.74273 0
M  V30 11270 C 1057.07 -1.8945 -2.91077 0
M  V30 11271 C 1056.02 -3.04928 -3.00339 0
M  V30 11272 C 1055.35 -3.03228 -4.40405 0
M  V30 11273 C 1056.65 -4.44777 -2.73808 0
M  V30 11274 H 1058.34 -2.68435 -1.326 0
M  V30 11275 H 1055.89 -1.29171 -0.636466 0
M  V30 11276 H 1057.84 -2.05343 -3.67984 0
M  V30 11277 H 1056.56 -0.940114 -3.12777 0
M  V30 11278 H 1055.22 -2.88751 -2.25872 0
M  V30 11279 H 1054.87 -2.05553 -4.59083 0
M  V30 11280 H 1054.57 -3.80776 -4.47531 0
M  V30 11281 H 1056.1 -3.21222 -5.19277 0
M  V30 11282 H 1057.51 -4.6127 -3.40445 0
M  V30 11283 H 1055.91 -5.2408 -2.92335 0
M  V30 11284 H 1056.98 -4.54358 -1.69372 0
M  V30 11285 N 1058.32 0.686584 -1.41858 0
M  V30 11286 C 1059.57 1.44379 -1.41418 0
M  V30 11287 C 1059.89 1.94981 -0.0273696 0
M  V30 11288 O 1059.16 1.72296 0.932248 0
M  V30 11289 H 1057.74 0.53574 -0.520568 0
M  V30 11290 H 1060.4 0.812056 -1.77177 0
M  V30 11291 H 1059.5 2.30258 -2.10684 0
M  V30 11292 N 1059.8 1.27835 0.921735 0
M  V30 11293 C 1061.21 1.05369 1.19873 0
M  V30 11294 C 1061.41 -0.208997 2.00413 0
M  V30 11295 O 1060.47 -0.912861 2.35421 0
M  V30 11296 C 1061.78 2.29658 1.94108 0
M  V30 11297 C 1063.33 2.34756 2.07023 0
M  V30 11298 C 1063.81 3.5879 2.84664 0
M  V30 11299 N 1065.3 3.59383 2.9223 0
M  V30 11300 C 1066.03 4.52029 3.52785 0
M  V30 11301 N 1065.53 5.54986 4.14683 0
M  V30 11302 N 1067.32 4.39641 3.50246 0
M  V30 11303 H 1059.47 2.08903 0.383819 0
M  V30 11304 H 1061.73 0.919065 0.232429 0
M  V30 11305 H 1061.44 3.21604 1.4235 0
M  V30 11306 H 1061.31 2.35444 2.94696 0
M  V30 11307 H 1063.7 1.43312 2.57965 0
M  V30 11308 H 1063.78 2.32969 1.05636 0
M  V30 11309 H 1063.43 4.50574 2.34404 0
M  V30 11310 H 1063.36 3.57829 3.86349 0
M  V30 11311 H 1065.85 2.84927 2.48244 0
M  V30 11312 H 1066.16 6.21837 4.58845 0
M  V30 11313 H 1064.51 5.58822 4.13211 0
M  V30 11314 H 1067.7 3.58413 3.01094 0
M  V30 11315 H 1067.87 5.12033 3.97148 0
M  V30 11316 N 1061.28 -1.12907 1.09954 0
M  V30 11317 C 1062.52 -1.84306 0.838912 0
M  V30 11318 C 1062.85 -1.83825 -0.635508 0
M  V30 11319 O 1062.11 -1.27556 -1.48418 0
M  V30 11320 C 1062.4 -3.31885 1.32616 0
M  V30 11321 C 1062.07 -3.52542 2.81114 0
M  V30 11322 C 1060.73 -3.57888 3.21667 0
M  V30 11323 C 1063.08 -3.60065 3.76833 0
M  V30 11324 C 1060.41 -3.68296 4.567 0
M  V30 11325 C 1062.76 -3.72001 5.11662 0
M  V30 11326 C 1061.43 -3.75602 5.51797 0
M  V30 11327 H 1060.7 -0.674422 0.30698 0
M  V30 11328 H 1063.35 -1.33261 1.37527 0
M  V30 11329 H 1061.65 -3.85318 0.709719 0
M  V30 11330 H 1063.35 -3.85588 1.10105 0
M  V30 11331 H 1059.94 -3.4904 2.48735 0
M  V30 11332 H 1064.12 -3.55209 3.46612 0
M  V30 11333 H 1059.38 -3.69352 4.87226 0
M  V30 11334 H 1063.55 -3.76765 5.8568 0
M  V30 11335 H 1061.18 -3.83419 6.56425 0
M  V30 11336 N 1062.75 -0.88754 -1.30232 0
M  V30 11337 C 1063.98 -0.521562 -2.00735 0
M  V30 11338 C 1064.4 0.883247 -1.66073 0
M  V30 11339 O 1063.76 1.58581 -0.878731 0
M  V30 11340 C 1063.81 -0.706521 -3.53611 0
M  V30 11341 O 1062.91 0.246447 -4.11663 0
M  V30 11342 H 1062.25 -0.205216 -0.631492 0
M  V30 11343 H 1064.78 -1.19579 -1.66018 0
M  V30 11344 H 1064.79 -0.606501 -4.03467 0
M  V30 11345 H 1063.47 -1.73076 -3.78177 0
M  V30 11346 H 1062.05 0.0999062 -3.72766 0
M  V30 11347 N 1064.23 1.43628 -0.648757 0
M  V30 11348 C 1065.16 2.29045 0.0841858 0
M  V30 11349 C 1066.18 1.42262 0.791537 0
M  V30 11350 O 1067.37 1.66243 0.650039 0
M  V30 11351 C 1064.47 3.19075 1.14212 0
M  V30 11352 C 1063.64 4.34372 0.513799 0
M  V30 11353 C 1062.7 5.05307 1.46803 0
M  V30 11354 O 1061.72 5.60729 0.978346 0
M  V30 11355 N 1062.93 5.08393 2.80209 0
M  V30 11356 H 1065.69 2.9259 -0.648948 0
M  V30 11357 H 1063.25 1.54268 -0.491209 0
M  V30 11358 H 1065.24 3.63395 1.78119 0
M  V30 11359 H 1063.81 2.57161 1.77728 0
M  V30 11360 H 1063.03 3.93024 -0.304262 0
M  V30 11361 H 1064.32 5.08745 0.0749871 0
M  V30 11362 H 1063.72 4.64729 3.22557 0
M  V30 11363 H 1062.28 5.56445 3.3943 0
M  V30 11364 N 1065.71 0.390394 1.52688 0
M  V30 11365 C 1066.64 -0.43567 2.294 0
M  V30 11366 C 1067.62 -1.06253 1.32832 0
M  V30 11367 O 1068.81 -1.07509 1.61726 0
M  V30 11368 C 1065.94 -1.56259 3.10162 0
M  V30 11369 C 1064.89 -1.06172 4.14622 0
M  V30 11370 C 1064.22 -2.2808 4.83615 0
M  V30 11371 C 1065.52 -0.128902 5.22141 0
M  V30 11372 H 1067.21 0.204384 2.98702 0
M  V30 11373 H 1064.76 0.0997377 1.43654 0
M  V30 11374 H 1066.71 -2.14732 3.62585 0
M  V30 11375 H 1065.43 -2.23025 2.38595 0
M  V30 11376 H 1064.09 -0.499518 3.63181 0
M  V30 11377 H 1063.74 -2.93358 4.08595 0
M  V30 11378 H 1063.44 -1.95227 5.5422 0
M  V30 11379 H 1064.96 -2.87193 5.38844 0
M  V30 11380 H 1066.38 -0.621849 5.69917 0
M  V30 11381 H 1064.78 0.109919 5.99999 0
M  V30 11382 H 1065.85 0.821884 4.77884 0
M  V30 11383 N 1067.19 -1.57141 0.120249 0
M  V30 11384 C 1068.42 -1.993 -0.544346 0
M  V30 11385 C 1068.83 -0.998858 -1.60684 0
M  V30 11386 O 1068.17 0.0162197 -1.83693 0
M  V30 11387 C 1068.23 -3.37874 -1.22808 0
M  V30 11388 C 1067.9 -4.55924 -0.313374 0
M  V30 11389 C 1068.89 -5.17962 0.448501 0
M  V30 11390 C 1066.58 -5.018 -0.224082 0
M  V30 11391 C 1068.57 -6.24264 1.28739 0
M  V30 11392 C 1066.26 -6.07963 0.618437 0
M  V30 11393 C 1067.26 -6.69061 1.3728 0
M  V30 11394 O 1066.94 -7.73173 2.20133 0
M  V30 11395 H 1066.68 -0.659466 -0.148596 0
M  V30 11396 H 1069.23 -2.04387 0.203779 0
M  V30 11397 H 1067.46 -3.29545 -2.02329 0
M  V30 11398 H 1069.15 -3.64314 -1.7897 0
M  V30 11399 H 1069.92 -4.83434 0.389395 0
M  V30 11400 H 1065.79 -4.53989 -0.80094 0
M  V30 11401 H 1069.34 -6.71883 1.87667 0
M  V30 11402 H 1065.24 -6.4192 0.678932 0
M  V30 11403 H 1066 -7.90276 2.13088 0
M  V30 11404 N 1068.67 0.153526 -1.5685 0
M  V30 11405 C 1070.08 0.714247 -1.72498 0
M  V30 11406 C 1070.43 1.81968 -0.733621 0
M  V30 11407 O 1069.55 2.16163 0.10118 0
M  V30 11408 C 1070.15 1.30238 -3.12767 0
M  V30 11409 C 1068.71 1.80974 -3.30038 0
M  V30 11410 C 1067.85 0.695638 -2.68433 0
M  V30 11411 H 1070.81 -0.0720733 -1.58536 0
M  V30 11412 H 1070.83 2.17217 -3.12405 0
M  V30 11413 H 1070.34 0.497605 -3.84897 0
M  V30 11414 H 1068.44 2.64039 -2.62895 0
M  V30 11415 H 1068.55 1.94294 -4.37934 0
M  V30 11416 H 1066.92 1.12061 -2.28723 0
M  V30 11417 H 1067.7 -0.0975885 -3.43161 0
M  V30 11418 N 1070.14 1.51827 0.422667 0
M  V30 11419 C 1071.05 1.77066 1.53899 0
M  V30 11420 C 1072.07 0.655541 1.61179 0
M  V30 11421 O 1073.25 0.939448 1.78147 0
M  V30 11422 C 1070.31 1.90372 2.89758 0
M  V30 11423 C 1069.37 3.14256 2.92475 0
M  V30 11424 C 1068.61 3.26918 4.21853 0
M  V30 11425 O 1068.83 2.45164 5.15025 0
M  V30 11426 O 1067.76 4.19989 4.31153 0
M  V30 11427 H 1071.59 2.71791 1.35511 0
M  V30 11428 H 1069.17 1.36506 0.607165 0
M  V30 11429 H 1071.06 2.01024 3.70361 0
M  V30 11430 H 1069.73 0.988347 3.08242 0
M  V30 11431 H 1068.64 3.09072 2.10773 0
M  V30 11432 H 1069.97 4.0553 2.78937 0
M  V30 11433 N 1071.62 -0.679052 1.4222 0
M  V30 11434 C 1073.04 -0.991665 1.25053 0
M  V30 11435 C 1073.24 -2.00928 0.151665 0
M  V30 11436 O 1072.29 -2.47925 -0.478507 0
M  V30 11437 C 1073.61 -1.50053 2.60585 0
M  V30 11438 C 1075.16 -1.61852 2.67905 0
M  V30 11439 C 1075.63 -2.16135 4.03794 0
M  V30 11440 N 1077.12 -2.23474 4.05726 0
M  V30 11441 C 1077.86 -2.66541 5.07685 0
M  V30 11442 N 1077.35 -3.09092 6.20028 0
M  V30 11443 N 1079.15 -2.66252 4.95042 0
M  V30 11444 H 1071.3 -0.00521851 2.12399 0
M  V30 11445 H 1073.56 -0.0648465 0.94578 0
M  V30 11446 H 1073.27 -0.82731 3.41831 0
M  V30 11447 H 1073.14 -2.47998 2.84213 0
M  V30 11448 H 1075.53 -2.28281 1.87008 0
M  V30 11449 H 1075.61 -0.624074 2.4807 0
M  V30 11450 H 1075.25 -1.50316 4.85147 0
M  V30 11451 H 1075.18 -3.16363 4.20978 0
M  V30 11452 H 1077.67 -1.93467 3.24621 0
M  V30 11453 H 1077.99 -3.40627 6.93681 0
M  V30 11454 H 1076.33 -3.06959 6.23539 0
M  V30 11455 H 1079.52 -2.32369 4.06352 0
M  V30 11456 H 1079.69 -2.99496 5.74636 0
M  V30 11457 N 1073.1 -1.28322 -0.914942 0
M  V30 11458 C 1074.06 -1.12169 -1.99877 0
M  V30 11459 C 1075.06 -0.0617252 -1.60681 0
M  V30 11460 O 1076.25 -0.307405 -1.71466 0
M  V30 11461 C 1073.39 -0.711959 -3.33383 0
M  V30 11462 H 1074.58 -2.08425 -2.15636 0
M  V30 11463 H 1072.13 -1.11291 -1.09745 0
M  V30 11464 H 1072.87 0.251418 -3.23324 0
M  V30 11465 H 1072.65 -1.47764 -3.63192 0
M  V30 11466 H 1074.14 -0.621558 -4.12948 0
M  V30 11467 N 1074.58 1.12322 -1.10551 0
M  V30 11468 C 1075.51 2.20176 -0.777486 0
M  V30 11469 C 1076.49 1.68252 0.250069 0
M  V30 11470 O 1077.67 1.93856 0.115574 0
M  V30 11471 C 1074.8 3.46666 -0.209822 0
M  V30 11472 C 1073.76 4.11749 -1.1682 0
M  V30 11473 C 1073.08 5.32703 -0.461684 0
M  V30 11474 C 1074.38 4.57746 -2.51527 0
M  V30 11475 H 1076.08 2.47872 -1.67928 0
M  V30 11476 H 1073.62 1.19136 -0.808863 0
M  V30 11477 H 1075.58 4.21388 0.0318068 0
M  V30 11478 H 1074.3 3.18401 0.727226 0
M  V30 11479 H 1072.96 3.39009 -1.3953 0
M  V30 11480 H 1072.61 5.00706 0.479875 0
M  V30 11481 H 1072.31 5.77197 -1.1008 0
M  V30 11482 H 1073.83 6.10172 -0.228629 0
M  V30 11483 H 1075.25 5.23835 -2.32958 0
M  V30 11484 H 1073.64 5.13021 -3.11335 0
M  V30 11485 H 1074.71 3.71667 -3.11435 0
M  V30 11486 N 1076.06 0.894434 1.2976 0
M  V30 11487 C 1077.02 0.373094 2.26143 0
M  V30 11488 C 1078.02 -0.489756 1.5316 0
M  V30 11489 O 1079.21 -0.29556 1.71674 0
M  V30 11490 C 1076.34 -0.467234 3.37683 0
M  V30 11491 H 1077.53 1.22427 2.73773 0
M  V30 11492 H 1075.09 0.672112 1.41111 0
M  V30 11493 H 1075.82 -1.33861 2.95384 0
M  V30 11494 H 1075.61 0.150954 3.91809 0
M  V30 11495 H 1077.1 -0.823469 4.094 0
M  V30 11496 N 1077.53 -1.43282 0.656365 0
M  V30 11497 C 1078.78 -2.01378 0.170702 0
M  V30 11498 C 1079.1 -1.52063 -1.22073 0
M  V30 11499 O 1078.37 -0.73456 -1.81607 0
M  V30 11500 H 1076.95 -0.744577 0.0601168 0
M  V30 11501 H 1079.62 -1.75449 0.848739 0
M  V30 11502 H 1078.71 -3.11701 0.157745 0
M  V30 11503 N 1079.01 -0.398486 -1.52479 0
M  V30 11504 C 1079.96 0.449343 -2.23528 0
M  V30 11505 C 1080.95 1.02218 -1.24259 0
M  V30 11506 O 1082.14 0.946757 -1.49551 0
M  V30 11507 C 1079.27 1.5712 -3.05235 0
M  V30 11508 C 1078.35 1.00966 -4.11906 0
M  V30 11509 N 1078.75 0.173855 -5.05501 0
M  V30 11510 C 1077.04 1.28124 -4.272 0
M  V30 11511 C 1077.74 -0.137391 -5.81538 0
M  V30 11512 N 1076.72 0.468972 -5.41573 0
M  V30 11513 H 1080.52 -0.195654 -2.93248 0
M  V30 11514 H 1078.04 -0.208305 -1.61059 0
M  V30 11515 H 1080.03 2.19108 -3.54679 0
M  V30 11516 H 1078.69 2.21893 -2.37052 0
M  V30 11517 H 1079.7 -0.189618 -5.17553 0
M  V30 11518 H 1076.38 1.92933 -3.70247 0
M  V30 11519 H 1077.77 -0.815159 -6.66937 0
M  V30 11520 N 1080.49 1.57075 -0.12858 0
M  V30 11521 C 1081.9 1.82468 0.39526 0
M  V30 11522 C 1082.25 1.0463 1.65973 0
M  V30 11523 O 1081.38 0.285835 2.14504 0
M  V30 11524 C 1081.97 3.30976 0.723889 0
M  V30 11525 C 1080.53 3.57016 1.19232 0
M  V30 11526 C 1079.68 2.76534 0.205907 0
M  V30 11527 H 1082.63 1.54711 -0.353571 0
M  V30 11528 H 1082.65 3.46127 1.58039 0
M  V30 11529 H 1082.16 3.87602 -0.196595 0
M  V30 11530 H 1080.26 3.05758 2.12938 0
M  V30 11531 H 1080.38 4.65558 1.13103 0
M  V30 11532 H 1078.74 2.45038 0.694872 0
M  V30 11533 H 1079.52 3.35923 -0.707842 0
M  V30 11534 O 1082.01 -0.0105399 1.61497 0
M  V30 11535 H 1082.7 -0.628636 1.83215 0
M  V30 END ATOM
M  V30 BEGIN BOND
M  V30 END BOND
M  V30 END CTAB
M  END
$$$$
