drugbank_target|Q9X1F8 GTPase Der (DB04315)
 OpenBabel12092120013D

  0  0  0     0  0            999 V3000
M  V30 BEGIN CTAB
M  V30 COUNTS 7189 7253 0 0 0
M  V30 BEGIN ATOM
M  V30 1 H -0.908 1.98254 -0.117106 0
M  V30 2 N 0 1.576 0 0
M  V30 3 C 0.933 2.03868 1.02534 0
M  V30 4 C 1.911 0.928543 1.3348 0
M  V30 5 O 3.095 1.19667 1.45644 0
M  V30 6 C 0.222 2.43627 2.35294 0
M  V30 7 C -0.732 3.65373 2.2001 0
M  V30 8 S 0.101 5.13292 1.52614 0
M  V30 9 C 1.257 5.56322 2.86805 0
M  V30 10 H 1.49 2.90518 0.631377 0
M  V30 11 H -0.977 1.52953 0.210867 0
M  V30 12 H 0.981 2.67203 3.11629 0
M  V30 13 H -0.358 1.57376 2.7183 0
M  V30 14 H -1.165 3.90944 3.18086 0
M  V30 15 H -1.563 3.418 1.51819 0
M  V30 16 H 0.729 5.58782 3.83104 0
M  V30 17 H 1.672 6.56266 2.65933 0
M  V30 18 H 2.08 4.83886 2.90714 0
M  V30 19 N 1.4781 -0.272755 1.55222 0
M  V30 20 C 2.4411 -1.32041 1.87344 0
M  V30 21 C 3.4411 -1.42342 0.74803 0
M  V30 22 O 4.6311 -1.41488 1.0162 0
M  V30 23 C 1.7631 -2.70173 2.07893 0
M  V30 24 H 2.9561 -1.04789 2.80997 0
M  V30 25 H 0.5091 -0.51083 1.47717 0
M  V30 26 H 1.2441 -3.02605 1.16622 0
M  V30 27 H 1.0291 -2.64082 2.89833 0
M  V30 28 H 2.5191 -3.45869 2.34017 0
M  V30 29 N 2.9562 -1.48159 -0.537278 0
M  V30 30 C 4.1842 -1.59454 -1.31841 0
M  V30 31 C 4.5992 -0.252065 -1.8711 0
M  V30 32 O 3.9562 0.757621 -1.66031 0
M  V30 33 C 4.0072 -2.63546 -2.47439 0
M  V30 34 O 3.7282 -3.92583 -1.94449 0
M  V30 35 C 5.2292 -2.85212 -3.39366 0
M  V30 36 H 2.4492 -0.53785 -0.401196 0
M  V30 37 H 4.9932 -1.93932 -0.648891 0
M  V30 38 H 3.1482 -2.31946 -3.1029 0
M  V30 39 H 3.5622 -4.49629 -2.70063 0
M  V30 40 H 5.0362 -3.61863 -4.16844 0
M  V30 41 H 5.5132 -1.93765 -3.94147 0
M  V30 42 H 6.1192 -3.18086 -2.82314 0
M  V30 43 N 4.4343 0.785586 -1.36625 0
M  V30 44 C 5.6803 1.54591 -1.31261 0
M  V30 45 C 6.0133 1.93906 0.106823 0
M  V30 46 O 5.2883 1.63007 1.06108 0
M  V30 47 C 5.5713 2.82038 -2.23889 0
M  V30 48 C 5.4243 2.49066 -3.74548 0
M  V30 49 C 6.7433 3.83887 -2.15217 0
M  V30 50 H 3.8623 0.560846 -0.478143 0
M  V30 51 H 6.5043 0.902278 -1.67209 0
M  V30 52 H 4.6543 3.36961 -1.93363 0
M  V30 53 H 6.3263 2.00164 -4.15611 0
M  V30 54 H 4.5693 1.81954 -3.93796 0
M  V30 55 H 5.2403 3.40109 -4.34776 0
M  V30 56 H 7.7163 3.38421 -2.42096 0
M  V30 57 H 6.5923 4.70806 -2.82193 0
M  V30 58 H 6.8533 4.27131 -1.14068 0
M  V30 59 N 5.9124 1.20967 1.01018 0
M  V30 60 C 6.8424 0.988272 2.11555 0
M  V30 61 C 7.8234 -0.0849778 1.69888 0
M  V30 62 O 9.0084 0.0738202 1.9406 0
M  V30 63 C 6.1384 0.546528 3.42973 0
M  V30 64 C 5.0924 1.56375 3.9841 0
M  V30 65 C 4.4184 0.97842 5.25672 0
M  V30 66 C 5.7184 2.94922 4.31066 0
M  V30 67 H 7.4124 1.91276 2.30334 0
M  V30 68 H 4.9584 0.921073 1.1069 0
M  V30 69 H 6.9114 0.378839 4.19694 0
M  V30 70 H 5.6354 -0.413598 3.23971 0
M  V30 71 H 4.2944 1.71891 3.23804 0
M  V30 72 H 3.9424 0.0101688 5.02999 0
M  V30 73 H 3.6424 1.65784 5.63728 0
M  V30 74 H 5.1664 0.821939 6.05043 0
M  V30 75 H 6.5804 2.8288 4.9865 0
M  V30 76 H 4.9774 3.5983 4.80253 0
M  V30 77 H 6.0474 3.4616 3.39561 0
M  V30 78 N 7.3905 -1.2043 1.01659 0
M  V30 79 C 8.6395 -1.89118 0.701237 0
M  V30 80 C 8.9525 -1.79705 -0.772358 0
M  V30 81 O 10.1585 -2.43528 -1.20026 0
M  V30 82 C 8.6145 -3.39168 1.20388 0
M  V30 83 C 8.2225 -3.57166 2.70438 0
M  V30 84 C 9.9665 -4.1341 0.963953 0
M  V30 85 C 7.8735 -5.01042 3.14183 0
M  V30 86 H 6.8035 -0.708267 0.2586 0
M  V30 87 H 9.4545 -1.36239 1.22927 0
M  V30 88 H 7.8365 -3.91369 0.603824 0
M  V30 89 H 9.0105 -3.15351 3.35992 0
M  V30 90 H 7.3255 -2.96294 2.92572 0
M  V30 91 H 9.9225 -5.19491 1.26621 0
M  V30 92 H 10.2655 -4.16181 -0.099578 0
M  V30 93 H 10.7985 -3.67309 1.52738 0
M  V30 94 H 7.5375 -5.03426 4.19812 0
M  V30 95 H 7.0575 -5.43668 2.53348 0
M  V30 96 H 8.7365 -5.69623 3.0682 0
M  V30 97 N 8.8686 -0.792821 -1.36206 0
M  V30 98 C 10.1146 -0.36733 -1.99446 0
M  V30 99 C 10.4476 1.05917 -1.62774 0
M  V30 100 O 9.7226 1.7324 -0.88421 0
M  V30 101 C 10.0056 -0.535044 -3.56103 0
M  V30 102 C 9.8586 -2.00548 -4.02617 0
M  V30 103 C 11.1776 0.0478191 -4.40074 0
M  V30 104 H 8.2966 -0.134941 -0.724541 0
M  V30 105 H 10.9386 -0.999794 -1.61568 0
M  V30 106 H 9.0886 0.00336329 -3.885 0
M  V30 107 H 10.7606 -2.60521 -3.80692 0
M  V30 108 H 9.0036 -2.50686 -3.54032 0
M  V30 109 H 9.6746 -2.07377 -5.11565 0
M  V30 110 H 12.1506 -0.411822 -4.14057 0
M  V30 111 H 11.0266 -0.0995336 -5.4881 0
M  V30 112 H 11.2876 1.14025 -4.27142 0
M  V30 113 N 10.3467 1.47872 -0.545128 0
M  V30 114 C 11.5947 2.02093 -0.016553 0
M  V30 115 C 11.9157 1.42305 1.3332 0
M  V30 116 O 11.1857 0.593853 1.86682 0
M  V30 117 H 9.7657 0.746993 -0.00313038 0
M  V30 118 H 12.4277 1.81414 -0.712397 0
M  V30 119 H 11.5237 3.11996 0.0805422 0
M  V30 120 N 11.8248 0.280983 1.55075 0
M  V30 121 C 13.2408 -0.0729964 1.59433 0
M  V30 122 C 13.4408 -1.5411 1.29817 0
M  V30 123 O 12.4968 -2.29086 1.06187 0
M  V30 124 C 13.8098 0.306921 2.9913 0
M  V30 125 C 15.3578 0.254023 3.11968 0
M  V30 126 C 15.8328 0.608467 4.5394 0
M  V30 127 N 17.3238 0.560241 4.59799 0
M  V30 128 C 18.0588 0.80722 5.6769 0
M  V30 129 N 17.5548 1.11912 6.83701 0
M  V30 130 N 19.3478 0.735623 5.57266 0
M  V30 131 H 11.4988 1.238 1.7259 0
M  V30 132 H 13.7618 0.500547 0.805082 0
M  V30 133 H 13.4678 1.32816 3.25657 0
M  V30 134 H 13.3418 -0.349363 3.75579 0
M  V30 135 H 15.7288 -0.75794 2.852 0
M  V30 136 H 15.8098 0.944649 2.37718 0
M  V30 137 H 15.4538 1.61814 4.81434 0
M  V30 138 H 15.3838 -0.104013 5.26497 0
M  V30 139 H 17.8748 0.329288 3.76463 0
M  V30 140 H 18.1878 1.29409 7.61888 0
M  V30 141 H 16.5328 1.15695 6.85303 0
M  V30 142 H 19.7238 0.491752 4.6551 0
M  V30 143 H 19.8968 0.931482 6.4127 0
M  V30 144 N 13.3029 -1.57598 0.00835791 0
M  V30 145 C 14.7139 -1.7892 -0.53333 0
M  V30 146 C 15.0649 -0.916609 -1.73473 0
M  V30 147 O 14.1899 -0.121336 -2.1606 0
M  V30 148 C 14.7849 -3.24488 -0.974313 0
M  V30 149 C 13.3439 -3.46878 -1.46125 0
M  V30 150 C 12.4909 -2.74157 -0.416302 0
M  V30 151 H 15.4419 -1.56958 0.234495 0
M  V30 152 H 15.4629 -3.3306 -1.83988 0
M  V30 153 H 14.9749 -3.87972 -0.099718 0
M  V30 154 H 13.0759 -2.8862 -2.35646 0
M  V30 155 H 13.1889 -4.55572 -1.48295 0
M  V30 156 H 11.5529 -2.39022 -0.87981 0
M  V30 157 H 12.3359 -3.40345 0.44947 0
M  V30 158 N 14.781 0.264519 -1.55364 0
M  V30 159 C 15.729 1.34702 -1.89626 0
M  V30 160 C 16.723 1.50712 -0.773459 0
M  V30 161 O 17.929 1.52395 -0.957897 0
M  V30 162 H 14.304 0.450682 -0.601988 0
M  V30 163 H 16.275 1.0306 -2.80038 0
M  V30 164 C 15.024 2.6989 -2.19214 0
M  V30 165 H 14.347 2.58365 -3.05103 0
M  V30 166 H 15.787 3.44553 -2.47102 0
M  V30 167 C 14.246 3.21637 -1.00254 0
M  V30 168 O 14.776 4.00973 -0.241501 0
M  V30 169 N 12.982 2.7943 -0.797938 0
M  V30 170 H 12.529 2.15026 -1.4185 0
M  V30 171 H 12.487 3.144 -0.00363422 0
M  V30 172 N 16.2591 1.48442 0.529413 0
M  V30 173 C 17.5051 1.5672 1.28711 0
M  V30 174 C 17.8381 0.2406 1.92704 0
M  V30 175 O 17.1131 -0.753454 1.79313 0
M  V30 176 C 17.3961 2.70587 2.37603 0
M  V30 177 C 17.2491 4.12953 1.78297 0
M  V30 178 C 18.5681 2.80212 3.39366 0
M  V30 179 H 15.6871 0.570474 0.466613 0
M  V30 180 H 18.3291 1.80617 0.589706 0
M  V30 181 H 16.4791 2.50342 2.97088 0
M  V30 182 H 18.1511 4.44639 1.22858 0
M  V30 183 H 16.3941 4.19927 1.0883 0
M  V30 184 H 17.0651 4.88448 2.57144 0
M  V30 185 H 19.5411 2.98553 2.89836 0
M  V30 186 H 18.4171 3.61611 4.12951 0
M  V30 187 H 18.6781 1.88393 3.99951 0
M  V30 188 N 17.7372 -0.778329 1.37039 0
M  V30 189 C 18.9852 -1.53361 1.31623 0
M  V30 190 C 19.3062 -1.94739 -0.100831 0
M  V30 191 O 18.5762 -1.65797 -1.04347 0
M  V30 192 H 17.1562 -0.568794 0.484234 0
M  V30 193 H 19.8182 -0.926742 1.71457 0
M  V30 194 H 18.9142 -2.43606 1.95096 0
M  V30 195 N 19.2153 -1.21501 -1.00376 0
M  V30 196 C 20.1623 -0.975387 -2.09177 0
M  V30 197 C 21.1323 0.0990615 -1.65804 0
M  V30 198 O 22.3173 -0.0483147 -1.90739 0
M  V30 199 C 19.4573 -0.547507 -3.40729 0
M  V30 200 C 18.5703 -1.69153 -3.97506 0
M  V30 201 C 17.7053 -1.2127 -5.17172 0
M  V30 202 C 16.7443 -2.32897 -5.66061 0
M  V30 203 N 15.8813 -1.86138 -6.76976 0
M  V30 204 H 20.7213 -1.9068 -2.29009 0
M  V30 205 H 18.2583 -0.950257 -1.12288 0
M  V30 206 H 20.2163 -0.280667 -4.16255 0
M  V30 207 H 18.8463 0.346904 -3.20931 0
M  V30 208 H 17.8983 -2.07298 -3.18954 0
M  V30 209 H 19.2103 -2.5316 -4.29781 0
M  V30 210 H 18.3643 -0.902591 -5.99948 0
M  V30 211 H 17.1033 -0.342692 -4.86495 0
M  V30 212 H 16.1083 -2.64709 -4.81881 0
M  V30 213 H 17.3333 -3.20396 -5.98768 0
M  V30 214 H 15.2793 -1.01484 -6.48103 0
M  V30 215 H 15.1963 -2.63717 -7.08512 0
M  V30 216 H 16.4643 -1.58165 -7.63285 0
M  V30 217 N 20.6934 1.19889 -1.02296 0
M  V30 218 C 21.9184 1.9393 -0.735237 0
M  V30 219 C 22.3434 1.74639 0.698782 0
M  V30 220 O 21.7014 1.04481 1.48167 0
M  V30 221 C 21.7494 3.43916 -1.08417 0
M  V30 222 O 20.8534 4.11917 -0.199446 0
M  V30 223 H 20.1944 0.605645 -0.272196 0
M  V30 224 H 22.7244 1.52137 -1.36804 0
M  V30 225 H 22.7344 3.9456 -1.03856 0
M  V30 226 H 21.4094 3.5728 -2.12894 0
M  V30 227 H 19.9864 3.71666 -0.303136 0
M  V30 228 N 22.1715 0.800033 1.35784 0
M  V30 229 C 23.3995 0.389606 2.03199 0
M  V30 230 C 23.8145 -0.997375 1.60306 0
M  V30 231 O 23.1715 -1.64154 0.797481 0
M  V30 232 C 23.2225 0.455855 3.58614 0
M  V30 233 O 22.9435 1.78815 3.99946 0
M  V30 234 C 24.4445 0.0374032 4.43284 0
M  V30 235 H 21.6645 0.159132 0.651857 0
M  V30 236 H 24.2085 1.08183 1.73541 0
M  V30 237 H 22.3635 -0.188057 3.86943 0
M  V30 238 H 22.7775 1.74636 4.94573 0
M  V30 239 H 24.2515 0.134882 5.51835 0
M  V30 240 H 24.7285 -1.01651 4.27275 0
M  V30 241 H 25.3345 0.654215 4.20238 0
M  V30 242 N 23.6496 -1.47581 0.552962 0
M  V30 243 C 24.5796 -2.32762 -0.185451 0
M  V30 244 C 25.5606 -1.43527 -0.912905 0
M  V30 245 O 26.7456 -1.72388 -0.894201 0
M  V30 246 C 23.8756 -3.25219 -1.21859 0
M  V30 247 C 22.8296 -4.23661 -0.607864 0
M  V30 248 C 22.1556 -5.05413 -1.74533 0
M  V30 249 C 23.4556 -5.20481 0.435582 0
M  V30 250 H 25.1496 -2.94749 0.525684 0
M  V30 251 H 22.6956 -1.41738 0.254251 0
M  V30 252 H 24.6486 -3.8365 -1.7433 0
M  V30 253 H 23.3726 -2.61279 -1.95961 0
M  V30 254 H 22.0316 -3.66451 -0.104489 0
M  V30 255 H 21.6796 -4.3788 -2.47529 0
M  V30 256 H 21.3796 -5.72059 -1.34249 0
M  V30 257 H 22.9036 -5.66701 -2.27338 0
M  V30 258 H 24.3176 -5.733 -0.00290157 0
M  V30 259 H 22.7146 -5.95305 0.757067 0
M  V30 260 H 23.7846 -4.66217 1.33303 0
M  V30 261 N 25.1277 -0.289203 -1.54924 0
M  V30 262 C 26.3747 0.323519 -1.99899 0
M  V30 263 C 26.7027 1.54797 -1.17762 0
M  V30 264 O 25.9577 1.94237 -0.238835 0
M  V30 265 C 26.2567 0.736119 -3.49737 0
M  V30 266 C 25.9227 -0.385276 -4.49251 0
M  V30 267 C 24.5847 -0.693156 -4.76181 0
M  V30 268 C 26.9367 -1.14021 -5.08575 0
M  V30 269 C 24.2647 -1.7593 -5.59701 0
M  V30 270 C 26.6167 -2.19619 -5.93254 0
M  V30 271 C 25.2807 -2.51026 -6.185 0
M  V30 272 H 24.5507 0.118384 -0.731482 0
M  V30 273 H 27.1977 -0.405847 -1.8715 0
M  V30 274 H 25.5027 1.54539 -3.60035 0
M  V30 275 H 27.1997 1.22118 -3.81953 0
M  V30 276 H 23.7897 -0.135202 -4.28387 0
M  V30 277 H 27.9737 -0.915611 -4.87781 0
M  V30 278 H 23.2297 -2.0075 -5.77503 0
M  V30 279 H 27.4037 -2.78581 -6.38252 0
M  V30 280 H 25.0307 -3.33772 -6.83008 0
M  V30 281 N 26.6058 1.57591 -0.0167156 0
M  V30 282 C 27.5538 2.10604 0.987353 0
M  V30 283 C 28.5478 1.02977 1.34507 0
M  V30 284 O 29.7538 1.21425 1.32875 0
M  V30 285 H 26.1288 0.672695 0.336134 0
M  V30 286 H 28.0998 2.93925 0.514817 0
M  V30 287 C 26.8488 2.6382 2.26483 0
M  V30 288 H 26.1718 3.46278 1.99829 0
M  V30 289 H 27.6118 3.04573 2.94977 0
M  V30 290 C 26.0708 1.55992 2.9861 0
M  V30 291 O 26.6008 0.952521 3.90243 0
M  V30 292 N 24.8068 1.28335 2.60727 0
M  V30 293 H 24.3538 1.77914 1.86291 0
M  V30 294 H 24.3118 0.564115 3.09298 0
M  V30 295 N 28.0839 -0.256276 1.55502 0
M  V30 296 C 29.0309 -1.31714 1.89526 0
M  V30 297 C 30.0009 -1.4828 0.748479 0
M  V30 298 O 31.1859 -1.62416 1.00128 0
M  V30 299 C 28.3259 -2.66933 2.18725 0
M  V30 300 C 27.4389 -2.58452 3.4616 0
M  V30 301 C 26.5739 -3.85961 3.64976 0
M  V30 302 C 25.6129 -3.72059 4.86044 0
M  V30 303 N 24.7499 -4.9144 5.01429 0
M  V30 304 H 29.5899 -1.01998 2.80001 0
M  V30 305 H 27.1269 -0.492413 1.38613 0
M  V30 306 H 29.0849 -3.4563 2.33657 0
M  V30 307 H 27.7149 -2.94816 1.31466 0
M  V30 308 H 26.7669 -1.71374 3.3961 0
M  V30 309 H 28.0789 -2.44085 4.34999 0
M  V30 310 H 27.2329 -4.73101 3.79816 0
M  V30 311 H 25.9719 -4.03215 2.74353 0
M  V30 312 H 24.9769 -2.83302 4.7119 0
M  V30 313 H 26.2019 -3.56309 5.78118 0
M  V30 314 H 24.1479 -5.09072 4.13741 0
M  V30 315 H 24.0649 -4.79668 5.84341 0
M  V30 316 H 25.3329 -5.80104 5.20672 0
M  V30 317 N 29.562 -1.4872 -0.521534 0
M  V30 318 C 30.492 -1.66771 -1.63431 0
M  V30 319 C 31.473 -0.516499 -1.62069 0
M  V30 320 O 32.658 -0.750013 -1.79132 0
M  V30 321 C 29.788 -1.71515 -3.01993 0
M  V30 322 C 28.742 -2.86222 -3.18216 0
M  V30 323 C 28.068 -2.76061 -4.57924 0
M  V30 324 C 29.368 -4.27419 -3.00184 0
M  V30 325 H 31.062 -2.59932 -1.48579 0
M  V30 326 H 28.608 -1.25089 -0.713358 0
M  V30 327 H 30.561 -1.82731 -3.7972 0
M  V30 328 H 29.285 -0.749393 -3.17886 0
M  V30 329 H 27.944 -2.74575 -2.42908 0
M  V30 330 H 27.592 -1.77437 -4.70665 0
M  V30 331 H 27.292 -3.53037 -4.69722 0
M  V30 332 H 28.816 -2.89256 -5.37739 0
M  V30 333 H 30.23 -4.39855 -3.67697 0
M  V30 334 H 28.627 -5.05458 -3.2347 0
M  V30 335 H 29.697 -4.43293 -1.96518 0
M  V30 336 N 31.0401 0.771051 -1.3745 0
M  V30 337 C 32.2861 1.5319 -1.32894 0
M  V30 338 C 32.6191 1.94008 0.0862511 0
M  V30 339 O 31.8941 1.64124 1.04373 0
M  V30 340 C 32.1771 2.79648 -2.26868 0
M  V30 341 C 32.0301 2.45079 -3.77169 0
M  V30 342 C 33.3491 3.81583 -2.19277 0
M  V30 343 H 30.4681 0.555744 -0.484064 0
M  V30 344 H 33.1101 0.884492 -1.68157 0
M  V30 345 H 31.2601 3.34891 -1.96926 0
M  V30 346 H 32.9321 1.95745 -4.1771 0
M  V30 347 H 31.1751 1.77767 -3.95704 0
M  V30 348 H 31.8461 3.35478 -4.38359 0
M  V30 349 H 34.3221 3.35835 -2.45671 0
M  V30 350 H 33.1981 4.67787 -2.87171 0
M  V30 351 H 33.4591 4.25897 -1.18592 0
M  V30 352 N 32.5182 1.22032 0.997298 0
M  V30 353 C 33.4652 0.986467 2.08656 0
M  V30 354 C 34.4352 -0.0902671 1.65855 0
M  V30 355 O 35.6202 0.0584294 1.90711 0
M  V30 356 C 32.7602 0.565569 3.40434 0
M  V30 357 C 31.8732 1.71259 3.96604 0
M  V30 358 C 31.0082 1.24011 5.16522 0
M  V30 359 C 30.0472 2.35896 5.64818 0
M  V30 360 N 29.1842 1.89726 6.7598 0
M  V30 361 H 34.0242 1.91892 2.27994 0
M  V30 362 H 31.5612 0.956199 1.11782 0
M  V30 363 H 33.5192 0.302738 4.161 0
M  V30 364 H 32.1492 -0.329879 3.2111 0
M  V30 365 H 31.2012 2.08986 3.17851 0
M  V30 366 H 32.5132 2.55436 4.28432 0
M  V30 367 H 31.6672 0.934395 5.99461 0
M  V30 368 H 30.4062 0.368487 4.86306 0
M  V30 369 H 29.4112 2.67261 4.8047 0
M  V30 370 H 30.6362 3.23567 5.97061 0
M  V30 371 H 28.5822 1.0492 6.47555 0
M  V30 372 H 28.4992 2.67471 7.07103 0
M  V30 373 H 29.7672 1.62211 7.62435 0
M  V30 374 N 33.9963 -1.19345 1.0293 0
M  V30 375 C 34.9433 -2.2258 0.610464 0
M  V30 376 C 35.9133 -1.6179 -0.375946 0
M  V30 377 O 37.0983 -1.88844 -0.272511 0
M  V30 378 C 34.2383 -3.45085 -0.0321473 0
M  V30 379 C 33.3513 -4.20258 1.00035 0
M  V30 380 C 32.4863 -5.3019 0.32746 0
M  V30 381 C 31.5253 -5.97121 1.34584 0
M  V30 382 N 30.6623 -6.98615 0.698726 0
M  V30 383 H 35.5023 -2.57764 1.49538 0
M  V30 384 H 33.0393 -1.26644 0.748311 0
M  V30 385 H 34.9973 -4.15061 -0.421966 0
M  V30 386 H 33.6273 -3.10555 -0.88064 0
M  V30 387 H 32.6793 -3.49223 1.50823 0
M  V30 388 H 33.9913 -4.66175 1.77433 0
M  V30 389 H 33.1453 -6.06587 -0.11718 0
M  V30 390 H 31.8843 -4.85345 -0.478713 0
M  V30 391 H 30.8893 -5.19474 1.80074 0
M  V30 392 H 32.1143 -6.4405 2.15352 0
M  V30 393 H 30.0603 -6.55942 -0.0873471 0
M  V30 394 H 29.9773 -7.42724 1.41058 0
M  V30 395 H 31.2453 -7.79004 0.278102 0
M  V30 396 N 35.4744 -0.807222 -1.35358 0
M  V30 397 C 36.4214 -0.216037 -2.29787 0
M  V30 398 C 37.3914 0.650278 -1.52842 0
M  V30 399 O 38.5764 0.595227 -1.81278 0
M  V30 400 C 35.7164 0.628893 -3.39321 0
M  V30 401 C 34.8294 -0.257927 -4.31229 0
M  V30 402 C 33.9644 0.595069 -5.27856 0
M  V30 403 C 33.0034 -0.292111 -6.11403 0
M  V30 404 N 32.1404 0.520895 -7.00165 0
M  V30 405 H 36.9804 -1.02671 -2.79755 0
M  V30 406 H 34.5174 -0.517839 -1.37684 0
M  V30 407 H 36.4754 1.13393 -4.01494 0
M  V30 408 H 35.1054 1.40482 -2.90628 0
M  V30 409 H 34.1574 -0.881076 -3.70056 0
M  V30 410 H 35.4694 -0.940759 -4.89848 0
M  V30 411 H 34.6234 1.16522 -5.95405 0
M  V30 412 H 33.3624 1.31146 -4.69736 0
M  V30 413 H 32.3674 -0.874525 -5.428 0
M  V30 414 H 33.5924 -1.00638 -6.71602 0
M  V30 415 H 31.5384 1.22125 -6.44532 0
M  V30 416 H 31.4554 -0.103877 -7.55929 0
M  V30 417 H 32.7234 1.0743 -7.72062 0
M  V30 418 N 36.9525 1.47285 -0.560781 0
M  V30 419 C 37.8995 2.30058 0.18491 0
M  V30 420 C 38.8695 1.39281 0.904986 0
M  V30 421 O 40.0545 1.68241 0.899979 0
M  V30 422 C 37.1945 3.23317 1.20666 0
M  V30 423 C 36.3075 4.29186 0.492285 0
M  V30 424 C 35.4425 5.09592 1.49964 0
M  V30 425 C 34.4815 6.07232 0.770439 0
M  V30 426 N 33.6185 6.80584 1.72479 0
M  V30 427 H 38.4585 2.93302 -0.527048 0
M  V30 428 H 35.9955 1.44568 -0.271738 0
M  V30 429 H 37.9535 3.75811 1.81168 0
M  V30 430 H 36.5835 2.61929 1.88661 0
M  V30 431 H 35.6355 3.7972 -0.227333 0
M  V30 432 H 36.9475 4.98738 -0.0787929 0
M  V30 433 H 36.1015 5.66254 2.17809 0
M  V30 434 H 34.8405 4.3995 2.10464 0
M  V30 435 H 33.8455 5.49745 0.0780846 0
M  V30 436 H 35.0705 6.78884 0.171134 0
M  V30 437 H 33.0165 6.1367 2.3183 0
M  V30 438 H 32.9335 7.46319 1.20596 0
M  V30 439 H 34.2015 7.41818 2.39428 0
M  V30 440 N 38.4306 0.297415 1.54768 0
M  V30 441 C 39.3936 -0.567375 2.22066 0
M  V30 442 C 40.3936 -1.06409 1.20556 0
M  V30 443 O 41.5836 -0.960691 1.45315 0
M  V30 444 C 38.7156 -1.78517 2.90421 0
M  V30 445 H 39.9086 0.0205534 2.99893 0
M  V30 446 H 37.4616 0.0482163 1.56226 0
M  V30 447 H 38.1966 -2.41303 2.16664 0
M  V30 448 H 37.9816 -1.43669 3.64831 0
M  V30 449 H 39.4716 -2.39964 3.41771 0
M  V30 450 N 39.9087 -1.5758 0.0250728 0
M  V30 451 C 41.1577 -1.90811 -0.653767 0
M  V30 452 C 41.4707 -0.90273 -1.73523 0
M  V30 453 O 42.6767 -1.12614 -2.47043 0
M  V30 454 C 41.1327 -3.38804 -1.21409 0
M  V30 455 C 40.7407 -4.47692 -0.166126 0
M  V30 456 C 42.4847 -3.81108 -1.86967 0
M  V30 457 C 40.3917 -5.86779 -0.737856 0
M  V30 458 H 39.3217 -0.712063 -0.247956 0
M  V30 459 H 41.9727 -1.83281 0.0897137 0
M  V30 460 H 40.3547 -3.41252 -2.00905 0
M  V30 461 H 41.5287 -4.56797 0.606079 0
M  V30 462 H 39.8437 -4.14565 0.390466 0
M  V30 463 H 42.4407 -4.82375 -2.30692 0
M  V30 464 H 42.7837 -3.15953 -2.71071 0
M  V30 465 H 43.3167 -3.81065 -1.14167 0
M  V30 466 H 40.0557 -6.55468 0.0649577 0
M  V30 467 H 39.5757 -5.81288 -1.47864 0
M  V30 468 H 41.2547 -6.35223 -1.22884 0
M  V30 469 N 41.3868 0.248026 -1.55636 0
M  V30 470 C 42.6328 0.97767 -1.77678 0
M  V30 471 C 42.9658 1.85016 -0.590135 0
M  V30 472 O 42.2408 1.90095 0.411611 0
M  V30 473 C 42.5238 1.83914 -3.09593 0
M  V30 474 C 42.3768 0.99491 -4.38659 0
M  V30 475 C 43.6958 2.82183 -3.37729 0
M  V30 476 H 40.8148 0.354005 -0.646413 0
M  V30 477 H 43.4568 0.248253 -1.88371 0
M  V30 478 H 41.6068 2.46104 -3.00608 0
M  V30 479 H 43.2788 0.391789 -4.59633 0
M  V30 480 H 41.5218 0.299231 -4.32767 0
M  V30 481 H 42.1928 1.63145 -5.2734 0
M  V30 482 H 44.6688 2.30129 -3.4667 0
M  V30 483 H 43.5448 3.39582 -4.31249 0
M  V30 484 H 43.8058 3.58588 -2.58586 0
M  V30 485 N 42.8649 1.48995 0.513639 0
M  V30 486 C 43.7749 1.67443 1.64317 0
M  V30 487 C 44.7909 0.556947 1.64846 0
M  V30 488 O 45.9669 0.830082 1.83498 0
M  V30 489 C 43.0319 1.72515 3.00732 0
M  V30 490 C 42.0929 2.96009 3.1093 0
M  V30 491 C 41.3259 3.00829 4.40837 0
M  V30 492 O 41.5489 2.13594 5.28898 0
M  V30 493 O 40.4829 3.93168 4.55744 0
M  V30 494 H 44.3089 2.63106 1.51687 0
M  V30 495 H 41.8939 1.32588 0.688543 0
M  V30 496 H 43.7759 1.78277 3.81831 0
M  V30 497 H 42.4509 0.800278 3.13651 0
M  V30 498 H 41.3579 2.9577 2.29065 0
M  V30 499 H 42.6909 3.87934 3.02933 0
M  V30 500 N 44.343 -0.763751 1.37857 0
M  V30 501 C 45.62 -1.51244 1.24035 0
M  V30 502 C 46 -2.10472 -0.162649 0
M  V30 503 O 45.348 -1.96206 -1.17112 0
M  V30 504 C 45.558 -2.58694 2.34261 0
M  V30 505 C 46.906 -3.25878 2.72193 0
M  V30 506 O 47.93 -2.68993 2.33497 0
M  V30 507 O 46.789 -4.2874 3.38887 0
M  V30 508 H 43.883 -0.670243 0.484462 0
M  V30 509 H 46.429 -0.800031 1.49658 0
M  V30 510 H 45.201 -2.13105 3.2818 0
M  V30 511 H 44.824 -3.37527 2.10146 0
M  V30 512 N 45.8211 -1.22559 -0.990812 0
M  V30 513 C 46.7311 -1.01394 -2.11557 0
M  V30 514 C 47.7471 0.0383962 -1.73958 0
M  V30 515 O 48.9231 -0.154787 -2.00804 0
M  V30 516 C 45.9881 -0.596569 -3.41529 0
M  V30 517 C 45.0491 -1.72276 -3.93217 0
M  V30 518 C 44.2821 -1.32521 -5.16985 0
M  V30 519 O 44.5051 -0.204909 -5.70032 0
M  V30 520 O 43.4391 -2.14247 -5.62478 0
M  V30 521 H 47.2651 -1.95633 -2.32296 0
M  V30 522 H 44.8501 -1.01172 -1.0993 0
M  V30 523 H 46.7321 -0.374263 -4.19735 0
M  V30 524 H 45.4071 0.316939 -3.22145 0
M  V30 525 H 44.3141 -1.99961 -3.16174 0
M  V30 526 H 45.6471 -2.61421 -4.17037 0
M  V30 527 N 47.2992 1.18797 -1.03562 0
M  V30 528 C 48.2092 2.25913 -0.632505 0
M  V30 529 C 49.2252 1.70668 0.338882 0
M  V30 530 O 50.4012 2.00453 0.195076 0
M  V30 531 C 47.4662 3.467 0.00350942 0
M  V30 532 C 46.5272 4.17098 -1.01624 0
M  V30 533 C 45.7602 5.32119 -0.410478 0
M  V30 534 O 45.9832 5.64976 0.784725 0
M  V30 535 O 44.9172 5.9107 -1.13667 0
M  V30 536 H 48.7432 2.62648 -1.52478 0
M  V30 537 H 46.3282 1.25781 -0.806195 0
M  V30 538 H 48.2102 4.19878 0.35781 0
M  V30 539 H 46.8852 3.11798 0.869686 0
M  V30 540 H 45.7922 3.4601 -1.42224 0
M  V30 541 H 47.1252 4.55987 -1.85301 0
M  V30 542 N 48.7773 0.814389 1.34928 0
M  V30 543 C 50.0253 0.397636 1.9815 0
M  V30 544 C 50.3463 -1.04069 1.64908 0
M  V30 545 O 49.6163 -1.72121 0.93548 0
M  V30 546 H 48.1963 0.144043 0.732981 0
M  V30 547 H 50.8583 1.04195 1.6471 0
M  V30 548 H 49.9543 0.509688 3.0791 0
M  V30 549 N 50.2554 -1.46986 0.568584 0
M  V30 550 C 51.5014 -2.02741 0.0488709 0
M  V30 551 C 51.8344 -1.44077 -1.30214 0
M  V30 552 O 51.1094 -0.600552 -1.84996 0
M  V30 553 C 51.3924 -3.60086 -0.032047 0
M  V30 554 C 51.2454 -4.29162 1.34686 0
M  V30 555 C 52.5644 -4.33838 -0.739798 0
M  V30 556 H 49.6834 -0.736749 0.0192338 0
M  V30 557 H 52.3254 -1.75289 0.733065 0
M  V30 558 H 50.4754 -3.83606 -0.61473 0
M  V30 559 H 52.1474 -4.16948 1.97362 0
M  V30 560 H 50.3904 -3.89073 1.91846 0
M  V30 561 H 51.0614 -5.37826 1.24285 0
M  V30 562 H 53.5374 -4.15378 -0.244939 0
M  V30 563 H 52.4134 -5.43537 -0.765406 0
M  V30 564 H 52.6744 -4.03875 -1.79827 0
M  V30 565 N 51.7335 -0.305618 -1.54608 0
M  V30 566 C 52.9615 0.304775 -2.04643 0
M  V30 567 C 53.3765 1.47167 -1.18268 0
M  V30 568 O 52.7335 1.81296 -0.209328 0
M  V30 569 C 52.7845 0.756564 -3.53495 0
M  V30 570 O 52.5055 -0.36389 -4.36586 0
M  V30 571 C 54.0065 1.43163 -4.19546 0
M  V30 572 H 51.2265 0.0655481 -0.667791 0
M  V30 573 H 53.7705 -0.446592 -1.99564 0
M  V30 574 H 51.9255 1.45794 -3.58919 0
M  V30 575 H 52.3395 -0.0113121 -5.24499 0
M  V30 576 H 53.8135 1.69886 -5.25207 0
M  V30 577 H 54.2905 2.37318 -3.69563 0
M  V30 578 H 54.8965 0.773307 -4.18211 0
M  V30 579 N 53.2116 1.57565 -0.0334293 0
M  V30 580 C 54.6276 1.56297 0.322997 0
M  V30 581 C 54.8276 1.03945 1.7262 0
M  V30 582 O 53.8836 0.688109 2.42943 0
M  V30 583 C 55.1966 3.00232 0.167664 0
M  V30 584 C 56.7446 3.12078 0.240107 0
M  V30 585 C 57.2196 4.57859 0.113513 0
M  V30 586 N 58.7106 4.62887 0.170359 0
M  V30 587 C 59.4456 5.73319 0.0962517 0
M  V30 588 N 58.9416 6.92794 -0.0291881 0
M  V30 589 N 60.7346 5.61898 0.150551 0
M  V30 590 H 52.8856 1.89923 -0.950956 0
M  V30 591 H 55.1486 0.873824 -0.367608 0
M  V30 592 H 54.8546 3.42501 -0.799102 0
M  V30 593 H 54.7286 3.654 0.936083 0
M  V30 594 H 57.1156 2.69718 1.19733 0
M  V30 595 H 57.1966 2.49623 -0.558763 0
M  V30 596 H 56.8406 5.009 -0.840314 0
M  V30 597 H 56.7706 5.18299 0.931302 0
M  V30 598 H 59.2616 3.76954 0.26728 0
M  V30 599 H 59.5746 7.7276 -0.0789252 0
M  V30 600 H 57.9196 6.94971 -0.0640299 0
M  V30 601 H 61.1106 4.67448 0.246981 0
M  V30 602 H 61.2836 6.47938 0.0893365 0
M  V30 603 N 54.6897 -0.239769 1.55765 0
M  V30 604 C 55.9667 -0.990056 1.68693 0
M  V30 605 C 56.3467 -2.03107 0.5754 0
M  V30 606 O 55.6947 -2.24604 -0.42017 0
M  V30 607 C 55.9047 -1.61696 3.09282 0
M  V30 608 C 57.2527 -2.11613 3.6811 0
M  V30 609 O 58.2767 -1.71624 3.12127 0
M  V30 610 O 57.1357 -2.85057 4.66267 0
M  V30 611 H 54.2297 -0.461299 0.686391 0
M  V30 612 H 56.7757 -0.232991 1.68093 0
M  V30 613 H 55.5477 -0.864357 3.81634 0
M  V30 614 H 55.1707 -2.44005 3.13923 0
M  V30 615 N 56.1678 -1.49265 -0.50573 0
M  V30 616 C 57.5788 -1.51769 -1.08734 0
M  V30 617 C 57.9298 -0.301192 -1.93874 0
M  V30 618 O 57.0548 0.589456 -2.08217 0
M  V30 619 C 57.6498 -2.75017 -1.97867 0
M  V30 620 C 56.2088 -2.80314 -2.51199 0
M  V30 621 C 55.3558 -2.4562 -1.28709 0
M  V30 622 H 58.3068 -1.56031 -0.289855 0
M  V30 623 H 58.3278 -2.5491 -2.82491 0
M  V30 624 H 57.8398 -3.63539 -1.35873 0
M  V30 625 H 55.9408 -1.96061 -3.16845 0
M  V30 626 H 56.0538 -3.82366 -2.88675 0
M  V30 627 H 54.4178 -1.97297 -1.61078 0
M  V30 628 H 55.2008 -3.36411 -0.6843 0
M  V30 629 N 57.6459 0.756429 -1.3826 0
M  V30 630 C 58.8919 1.51772 -1.34511 0
M  V30 631 C 59.2249 1.94089 0.0656691 0
M  V30 632 O 58.4999 1.65221 1.02626 0
M  V30 633 C 58.7829 2.77226 -2.29821 0
M  V30 634 C 58.6359 2.41065 -3.79747 0
M  V30 635 C 59.9549 3.79236 -2.23312 0
M  V30 636 H 57.0739 0.550578 -0.489931 0
M  V30 637 H 59.7159 0.866607 -1.69086 0
M  V30 638 H 57.8659 3.32784 -2.00467 0
M  V30 639 H 59.5379 1.91303 -4.19763 0
M  V30 640 H 57.7809 1.7356 -3.97567 0
M  V30 641 H 58.4519 3.3081 -4.41892 0
M  V30 642 H 60.9279 3.3321 -2.49219 0
M  V30 643 H 59.8039 4.64714 -2.92116 0
M  V30 644 H 60.0649 4.24615 -1.23102 0
M  V30 645 N 59.124 1.23083 0.984299 0
M  V30 646 C 60.056 0.96636 2.07832 0
M  V30 647 C 61.069 -0.0582135 1.62696 0
M  V30 648 O 62.258 0.176843 1.77622 0
M  V30 649 C 59.358 0.433397 3.36117 0
M  V30 650 C 58.531 1.51722 4.10243 0
M  V30 651 C 57.59 0.989821 5.16807 0
M  V30 652 O 56.616 1.67794 5.43906 0
M  V30 653 N 57.818 -0.184367 5.80207 0
M  V30 654 H 60.583 1.90824 2.31098 0
M  V30 655 H 58.144 1.13888 1.1507 0
M  V30 656 H 60.136 0.065699 4.04647 0
M  V30 657 H 58.706 -0.413806 3.09849 0
M  V30 658 H 57.926 2.05786 3.36223 0
M  V30 659 H 59.214 2.24619 4.56534 0
M  V30 660 H 58.612 -0.760062 5.60571 0
M  V30 661 H 57.169 -0.493366 6.4993 0
M  V30 662 N 60.6021 -1.18246 1.0419 0
M  V30 663 C 61.8791 -1.84121 0.660208 0
M  V30 664 C 62.2591 -1.92778 -0.860221 0
M  V30 665 O 61.6071 -1.45464 -1.76217 0
M  V30 666 C 61.8171 -3.22355 1.33747 0
M  V30 667 C 63.1651 -3.98376 1.46906 0
M  V30 668 O 64.1891 -3.31799 1.29568 0
M  V30 669 O 63.0481 -5.17665 1.75171 0
M  V30 670 H 60.1421 -0.794036 0.231161 0
M  V30 671 H 62.6881 -1.25628 1.14087 0
M  V30 672 H 61.4601 -3.10964 2.37522 0
M  V30 673 H 61.0831 -3.88506 0.845515 0
M  V30 674 N 62.0802 -0.821533 -1.34494 0
M  V30 675 C 63.3082 -0.421884 -2.02553 0
M  V30 676 C 63.7232 0.971745 -1.61872 0
M  V30 677 O 63.0802 1.62864 -0.823496 0
M  V30 678 C 63.1312 -0.51285 -3.57844 0
M  V30 679 O 62.8522 -1.85155 -3.97051 0
M  V30 680 C 64.3532 -0.107921 -4.43169 0
M  V30 681 H 61.5732 -0.169482 -0.649243 0
M  V30 682 H 64.1172 -1.1093 -1.71798 0
M  V30 683 H 62.2722 0.126474 -3.87193 0
M  V30 684 H 62.6862 -1.82482 -4.91732 0
M  V30 685 H 64.1602 -0.222657 -5.51551 0
M  V30 686 H 64.6372 0.948401 -4.28838 0
M  V30 687 H 65.2432 -0.720989 -4.19144 0
M  V30 688 N 63.5583 1.46682 -0.576371 0
M  V30 689 C 64.8043 2.02712 -0.0596221 0
M  V30 690 C 65.1373 1.44765 1.29448 0
M  V30 691 O 64.4123 0.610355 1.84675 0
M  V30 692 C 64.6953 3.60098 0.0129503 0
M  V30 693 C 64.5483 4.28441 -1.3696 0
M  V30 694 C 65.8673 4.34224 0.71678 0
M  V30 695 H 62.9863 0.736637 -0.0231407 0
M  V30 696 H 65.6283 1.74898 -0.742351 0
M  V30 697 H 63.7783 3.83926 0.594378 0
M  V30 698 H 65.4503 4.15896 -1.9957 0
M  V30 699 H 63.6933 3.8805 -1.93907 0
M  V30 700 H 64.3643 5.3716 -1.27135 0
M  V30 701 H 66.8403 4.15503 0.222908 0
M  V30 702 H 65.7163 5.43936 0.73657 0
M  V30 703 H 65.9773 4.04823 1.77682 0
M  V30 704 N 65.0364 0.313813 1.54444 0
M  V30 705 C 65.9464 -0.565714 2.27677 0
M  V30 706 C 66.9624 -1.13754 1.31666 0
M  V30 707 O 68.1384 -1.15959 1.64668 0
M  V30 708 C 65.2034 -1.71528 3.01296 0
M  V30 709 C 64.2644 -1.17624 4.12872 0
M  V30 710 C 63.4974 -2.27102 4.8297 0
M  V30 711 O 63.7204 -3.47256 4.52514 0
M  V30 712 O 62.6544 -1.9307 5.70094 0
M  V30 713 H 66.4804 0.0287296 3.03686 0
M  V30 714 H 64.0654 0.0798312 1.49187 0
M  V30 715 H 65.9474 -2.38476 3.4743 0
M  V30 716 H 64.6224 -2.29608 2.2817 0
M  V30 717 H 63.5294 -0.472124 3.71109 0
M  V30 718 H 64.8624 -0.640695 4.88012 0
M  V30 719 N 66.5145 -1.57545 0.0417849 0
M  V30 720 C 67.7605 -1.93424 -0.629168 0
M  V30 721 C 68.1155 -0.919564 -1.69002 0
M  V30 722 O 67.4085 0.0626178 -1.91498 0
M  V30 723 C 67.6025 -3.33794 -1.27735 0
M  V30 724 C 67.4315 -4.48822 -0.280806 0
M  V30 725 C 66.2015 -5.05148 0.123869 0
M  V30 726 C 68.3995 -5.12148 0.470012 0
M  V30 727 N 66.3815 -6.03703 1.11426 0
M  V30 728 C 67.7525 -6.05921 1.31377 0
M  V30 729 C 69.8075 -4.95078 0.529343 0
M  V30 730 C 68.5105 -6.84459 2.21152 0
M  V30 731 C 70.5365 -5.74235 1.41448 0
M  V30 732 C 69.8985 -6.67634 2.24598 0
M  V30 733 H 65.9975 -0.755418 -0.202158 0
M  V30 734 H 68.5815 -1.94378 0.111923 0
M  V30 735 H 66.7525 -3.33635 -1.98852 0
M  V30 736 H 68.4845 -3.56988 -1.90635 0
M  V30 737 H 65.2395 -4.72923 -0.253178 0
M  V30 738 H 65.6635 -6.57674 1.60607 0
M  V30 739 H 70.3055 -4.22683 -0.0992798 0
M  V30 740 H 68.0235 -7.56151 2.85063 0
M  V30 741 H 71.6095 -5.63057 1.46484 0
M  V30 742 H 70.4895 -7.27817 2.9198 0
M  V30 743 N 67.9926 0.231505 -1.5589 0
M  V30 744 C 69.2226 0.973092 -1.82248 0
M  V30 745 C 69.6306 1.78845 -0.617328 0
M  V30 746 O 68.9736 1.78752 0.423499 0
M  V30 747 C 69.0356 1.94732 -3.02192 0
M  V30 748 C 68.6996 1.31743 -4.37599 0
M  V30 749 C 69.6966 0.712238 -5.14998 0
M  V30 750 C 67.3816 1.33218 -4.84312 0
M  V30 751 C 69.3756 0.130195 -6.37267 0
M  V30 752 C 67.0626 0.746286 -6.06526 0
M  V30 753 C 68.0606 0.146337 -6.82843 0
M  V30 754 O 67.7486 -0.430465 -8.02747 0
M  V30 755 H 67.4806 0.29125 -0.61004 0
M  V30 756 H 70.0346 0.254915 -2.03812 0
M  V30 757 H 68.2646 2.70422 -2.76422 0
M  V30 758 H 69.9536 2.55362 -3.15508 0
M  V30 759 H 70.7196 0.69324 -4.8002 0
M  V30 760 H 66.5986 1.78854 -4.24891 0
M  V30 761 H 70.1426 -0.33871 -6.96777 0
M  V30 762 H 66.0396 0.762663 -6.40979 0
M  V30 763 H 66.8076 -0.323818 -8.17859 0
M  V30 764 N 69.4707 1.49531 0.497807 0
M  V30 765 C 70.7187 1.58865 1.24926 0
M  V30 766 C 71.0397 0.278721 1.92998 0
M  V30 767 O 70.3097 -0.702144 1.82885 0
M  V30 768 H 68.8897 0.585343 0.464094 0
M  V30 769 H 71.5517 1.86174 0.57666 0
M  V30 770 H 70.6477 2.38633 2.01149 0
M  V30 771 N 70.9488 -0.749086 1.3866 0
M  V30 772 C 71.8958 -1.86291 1.36251 0
M  V30 773 C 72.8658 -1.64578 0.224347 0
M  V30 774 O 74.0508 -1.86181 0.417279 0
M  V30 775 C 71.1908 -3.23644 1.19786 0
M  V30 776 C 70.3038 -3.57158 2.43027 0
M  V30 777 C 69.4388 -4.83838 2.19258 0
M  V30 778 C 68.4778 -5.10152 3.38247 0
M  V30 779 N 67.6148 -6.28029 3.13884 0
M  V30 780 H 72.4548 -1.87685 2.3147 0
M  V30 781 H 69.9918 -0.917287 1.14997 0
M  V30 782 H 71.9498 -4.0291 1.08254 0
M  V30 783 H 70.5798 -3.21566 0.282031 0
M  V30 784 H 69.6318 -2.72701 2.65214 0
M  V30 785 H 70.9438 -3.7253 3.31697 0
M  V30 786 H 70.0978 -5.71057 2.04888 0
M  V30 787 H 68.8368 -4.70614 1.2796 0
M  V30 788 H 67.8418 -4.21401 3.53131 0
M  V30 789 H 69.0668 -5.25271 4.30427 0
M  V30 790 H 67.0128 -6.1612 2.25238 0
M  V30 791 H 66.9298 -6.43922 3.96106 0
M  V30 792 H 68.1978 -7.18124 3.03179 0
M  V30 793 N 72.4269 -1.23603 -0.977757 0
M  V30 794 C 73.6549 -1.09646 -1.75458 0
M  V30 795 C 74.0699 0.351859 -1.85492 0
M  V30 796 O 73.4269 1.24327 -1.336 0
M  V30 797 C 73.4779 -1.71895 -3.18016 0
M  V30 798 O 73.1989 -3.11063 -3.08498 0
M  V30 799 C 74.6999 -1.63415 -4.12081 0
M  V30 800 H 71.9199 -0.38359 -0.550545 0
M  V30 801 H 74.4639 -1.63507 -1.22824 0
M  V30 802 H 72.6189 -1.22061 -3.67668 0
M  V30 803 H 73.0329 -3.41305 -3.9826 0
M  V30 804 H 74.5069 -2.11669 -5.09804 0
M  V30 805 H 74.9839 -0.593462 -4.35172 0
M  V30 806 H 75.5899 -2.12628 -3.68334 0
M  V30 807 N 73.905 1.17692 -1.04816 0
M  V30 808 C 75.152 1.87859 -0.75599 0
M  V30 809 C 75.48 1.80812 0.716752 0
M  V30 810 O 74.735 1.20819 1.53952 0
M  V30 811 C 75.034 3.37462 -1.17703 0
M  V30 812 C 74.7 3.64713 -2.65133 0
M  V30 813 C 73.362 3.71859 -3.05408 0
M  V30 814 C 75.714 3.76492 -3.60421 0
M  V30 815 C 73.042 3.88271 -4.39843 0
M  V30 816 C 75.394 3.94421 -4.94585 0
M  V30 817 C 74.058 3.99806 -5.3452 0
M  V30 818 H 73.328 0.687425 -0.276636 0
M  V30 819 H 75.975 1.39255 -1.31455 0
M  V30 820 H 74.28 3.88097 -0.537395 0
M  V30 821 H 75.977 3.90109 -0.928218 0
M  V30 822 H 72.567 3.59772 -2.32942 0
M  V30 823 H 76.751 3.70295 -3.30447 0
M  V30 824 H 72.007 3.90687 -4.70291 0
M  V30 825 H 76.181 4.02477 -5.68318 0
M  V30 826 H 73.808 4.12276 -6.38696 0
M  V30 827 N 75.3831 0.828654 1.34056 0
M  V30 828 C 76.3301 0.252567 2.29414 0
M  V30 829 C 77.3001 -0.62588 1.53857 0
M  V30 830 O 78.4851 -0.566312 1.82202 0
M  V30 831 C 75.6251 -0.574831 3.40279 0
M  V30 832 C 74.7381 0.326499 4.30764 0
M  V30 833 C 73.8731 -0.511016 5.28736 0
M  V30 834 C 72.9121 0.389342 6.1086 0
M  V30 835 N 72.0491 -0.409439 7.00905 0
M  V30 836 H 76.8891 1.07108 2.78086 0
M  V30 837 H 74.4261 0.539677 1.36843 0
M  V30 838 H 76.3841 -1.06992 4.03248 0
M  V30 839 H 75.0141 -1.35841 2.92826 0
M  V30 840 H 74.0661 0.939837 3.68607 0
M  V30 841 H 75.3781 1.01857 4.88289 0
M  V30 842 H 74.5321 -1.07035 5.97184 0
M  V30 843 H 73.2711 -1.23657 4.71763 0
M  V30 844 H 72.2761 0.960769 5.4134 0
M  V30 845 H 73.5011 1.1131 6.69916 0
M  V30 846 H 71.4471 -1.11856 6.46393 0
M  V30 847 H 71.3641 0.224126 7.55668 0
M  V30 848 H 72.6321 -0.951336 7.73673 0
M  V30 849 N 76.8612 -1.46375 0.584142 0
M  V30 850 C 77.7912 -2.33103 -0.136037 0
M  V30 851 C 78.7722 -1.45431 -0.882255 0
M  V30 852 O 79.9572 -1.74246 -0.857434 0
M  V30 853 C 77.0872 -3.27731 -1.14933 0
M  V30 854 C 76.0412 -4.24855 -0.517862 0
M  V30 855 C 75.3672 -5.09001 -1.63773 0
M  V30 856 C 76.6672 -5.19439 0.545886 0
M  V30 857 H 78.3612 -2.93568 0.588086 0
M  V30 858 H 75.9072 -1.41166 0.284259 0
M  V30 859 H 77.8602 -3.87261 -1.66153 0
M  V30 860 H 76.5842 -2.65377 -1.90375 0
M  V30 861 H 75.2432 -3.6659 -0.0267361 0
M  V30 862 H 74.8912 -4.43031 -2.38185 0
M  V30 863 H 74.5912 -5.74777 -1.22085 0
M  V30 864 H 76.1152 -5.71396 -2.15266 0
M  V30 865 H 77.5292 -5.73177 0.118704 0
M  V30 866 H 75.9262 -5.93566 0.88317 0
M  V30 867 H 76.9962 -4.63285 1.43162 0
M  V30 868 N 78.3393 -0.321999 -1.54275 0
M  V30 869 C 79.5853 0.281461 -2.00837 0
M  V30 870 C 79.9183 1.51909 -1.20985 0
M  V30 871 O 79.1933 1.923 -0.291733 0
M  V30 872 C 79.4763 0.617162 -3.54772 0
M  V30 873 C 79.3293 -0.631064 -4.45351 0
M  V30 874 C 80.6483 1.43542 -4.16033 0
M  V30 875 H 77.7673 0.100826 -0.730071 0
M  V30 876 H 80.4093 -0.438268 -1.84876 0
M  V30 877 H 78.5593 1.23034 -3.68504 0
M  V30 878 H 80.2313 -1.26934 -4.43492 0
M  V30 879 H 78.4743 -1.26025 -4.15091 0
M  V30 880 H 79.1453 -0.351735 -5.50878 0
M  V30 881 H 81.6213 0.917134 -4.05867 0
M  V30 882 H 80.4973 1.63907 -5.23856 0
M  V30 883 H 80.7583 2.43108 -3.69257 0
M  V30 884 N 79.8174 1.5752 -0.0501392 0
M  V30 885 C 81.0944 1.83996 0.663685 0
M  V30 886 C 81.4744 0.938339 1.89099 0
M  V30 887 O 80.8224 -0.00087759 2.285 0
M  V30 888 C 81.0324 3.33702 1.02196 0
M  V30 889 C 82.3804 4.00691 1.40469 0
M  V30 890 O 83.4044 3.38321 1.11433 0
M  V30 891 O 82.2634 5.10658 1.94654 0
M  V30 892 H 79.3574 0.759385 0.32751 0
M  V30 893 H 81.9034 1.69514 -0.0794238 0
M  V30 894 H 80.6754 3.91015 0.149364 0
M  V30 895 H 80.2984 3.53368 1.82255 0
M  V30 896 N 81.2955 -0.223234 1.56011 0
M  V30 897 C 82.5235 -0.964812 1.83027 0
M  V30 898 C 82.9385 -1.78013 0.62904 0
M  V30 899 O 82.2955 -1.78008 -0.402414 0
M  V30 900 C 82.3465 -1.88373 3.08542 0
M  V30 901 O 82.0675 -1.10137 4.2403 0
M  V30 902 C 83.5685 -2.73934 3.48533 0
M  V30 903 H 80.7885 -0.282842 0.608475 0
M  V30 904 H 83.3325 -0.238971 2.03099 0
M  V30 905 H 81.4875 -2.56354 2.9045 0
M  V30 906 H 81.9015 -1.72501 4.95322 0
M  V30 907 H 83.3755 -3.34117 4.39397 0
M  V30 908 H 83.8525 -3.46244 2.70207 0
M  V30 909 H 84.4585 -2.11369 3.69057 0
M  V30 910 N 82.7736 -1.49793 -0.48987 0
M  V30 911 C 84.0136 -1.61466 -1.25332 0
M  V30 912 C 84.3776 -0.299688 -1.89647 0
M  V30 913 O 85.5786 -0.291687 -2.67213 0
M  V30 914 C 83.8496 -2.74944 -2.28343 0
M  V30 915 S 85.4086 -3.06637 -3.13878 0
M  V30 916 H 82.2266 -0.569411 -0.425784 0
M  V30 917 H 84.8286 -1.875 -0.553541 0
M  V30 918 H 83.5326 -3.68994 -1.79643 0
M  V30 919 H 83.0636 -2.50938 -3.02975 0
M  V30 920 H 85.0786 -2.49015 -4.29192 0
M  V30 921 N 84.2517 0.741722 -1.39055 0
M  V30 922 C 85.4997 1.49818 -1.35643 0
M  V30 923 C 85.8207 1.94938 0.0491642 0
M  V30 924 O 85.0907 1.68505 0.999141 0
M  V30 925 H 83.6707 0.555755 -0.499144 0
M  V30 926 H 86.3327 0.880957 -1.73854 0
M  V30 927 H 85.4287 2.38348 -2.01486 0
M  V30 928 N 85.7298 1.2412 0.971189 0
M  V30 929 C 86.9758 1.08041 1.71625 0
M  V30 930 C 87.3088 -0.380407 1.90438 0
M  V30 931 O 86.5838 -1.28127 1.46334 0
M  V30 932 C 86.8668 1.81682 3.10908 0
M  V30 933 C 86.7198 3.35493 2.99608 0
M  V30 934 C 88.0388 1.58671 4.10501 0
M  V30 935 H 85.1578 0.39388 0.622919 0
M  V30 936 H 87.7998 1.52743 1.13003 0
M  V30 937 H 85.9498 1.43684 3.60953 0
M  V30 938 H 87.6218 3.83068 2.57015 0
M  V30 939 H 85.8648 3.64052 2.35899 0
M  V30 940 H 86.5358 3.82217 3.98264 0
M  V30 941 H 89.0118 1.91719 3.69301 0
M  V30 942 H 87.8878 2.1266 5.06031 0
M  V30 943 H 88.1488 0.524161 4.38982 0
M  V30 944 N 87.2079 -1.17134 1.05439 0
M  V30 945 C 88.4549 -1.87456 0.765942 0
M  V30 946 C 88.7829 -1.81189 -0.707153 0
M  V30 947 O 88.0379 -1.21633 -1.5331 0
M  V30 948 C 88.3369 -3.36833 1.19491 0
M  V30 949 C 88.0029 -3.63301 2.67063 0
M  V30 950 C 86.6649 -3.70234 3.07376 0
M  V30 951 C 89.0169 -3.74575 3.62413 0
M  V30 952 C 86.3449 -3.85933 4.41896 0
M  V30 953 C 88.6969 -3.91793 4.9667 0
M  V30 954 C 87.3609 -3.96966 5.36633 0
M  V30 955 H 86.6309 -0.685948 0.280278 0
M  V30 956 H 89.2779 -1.38556 1.32192 0
M  V30 957 H 87.5829 -3.87807 0.557969 0
M  V30 958 H 89.2799 -3.89611 0.948893 0
M  V30 959 H 85.8699 -3.58532 2.34846 0
M  V30 960 H 90.0539 -3.68537 3.32406 0
M  V30 961 H 85.3099 -3.88187 4.72357 0
M  V30 962 H 89.4839 -3.99458 5.70444 0
M  V30 963 H 87.1109 -4.08883 6.40874 0
M  V30 964 N 88.686 -0.835752 -1.33615 0
M  V30 965 C 89.963 -0.352017 -1.92406 0
M  V30 966 C 90.343 1.16225 -1.76224 0
M  V30 967 O 89.691 1.97526 -1.14873 0
M  V30 968 C 89.901 -0.795485 -3.39813 0
M  V30 969 C 91.249 -0.801703 -4.16963 0
M  V30 970 O 92.273 -0.738889 -3.48452 0
M  V30 971 O 91.132 -0.886607 -5.3926 0
M  V30 972 H 88.226 -0.0989641 -0.821057 0
M  V30 973 H 90.772 -0.921397 -1.42507 0
M  V30 974 H 89.544 -1.83795 -3.45449 0
M  V30 975 H 89.167 -0.202505 -3.97084 0
M  V30 976 N 90.1641 1.46063 -0.591896 0
M  V30 977 C 91.1121 2.32124 0.148739 0
M  V30 978 C 92.1061 1.45035 0.875286 0
M  V30 979 O 93.3121 1.61609 0.792632 0
M  V30 980 H 89.6871 0.749024 0.066832 0
M  V30 981 H 91.6581 2.92392 -0.595783 0
M  V30 982 C 90.4071 3.28373 1.1431 0
M  V30 983 H 89.7301 3.95371 0.59346 0
M  V30 984 H 91.1701 3.91352 1.63155 0
M  V30 985 C 89.6291 2.54393 2.20875 0
M  V30 986 O 90.1591 2.31373 3.28374 0
M  V30 987 N 88.3651 2.14797 1.95731 0
M  V30 988 H 87.9121 2.33719 1.08319 0
M  V30 989 H 87.8701 1.65619 2.67241 0
M  V30 990 N 91.6422 0.330177 1.54103 0
M  V30 991 C 93.0532 -0.15652 1.86043 0
M  V30 992 C 93.4042 -1.51086 1.2517 0
M  V30 993 O 92.5292 -2.09023 0.560217 0
M  V30 994 C 93.1242 -0.290784 3.3755 0
M  V30 995 C 91.6832 -0.721705 3.69416 0
M  V30 996 C 90.8302 0.152622 2.7688 0
M  V30 997 H 93.7812 0.550237 1.48856 0
M  V30 998 H 93.8022 -1.12058 3.63625 0
M  V30 999 H 93.3142 0.695068 3.81825 0
M  V30 1000 H 91.4152 -1.71706 3.30678 0
M  V30 1001 H 91.5282 -0.520869 4.7626 0
M  V30 1002 H 89.8922 -0.372894 2.51956 0
M  V30 1003 H 90.6752 1.13536 3.23982 0
M  V30 1004 N 93.1203 -1.57491 0.0584922 0
M  V30 1005 C 94.0523 -2.08916 -0.942694 0
M  V30 1006 C 95.0653 -1.0185 -1.27006 0
M  V30 1007 O 96.2543 -1.29398 -1.22957 0
M  V30 1008 C 93.3543 -2.52341 -2.26224 0
M  V30 1009 C 92.5273 -3.82827 -2.1157 0
M  V30 1010 C 91.5863 -4.12487 -3.26712 0
M  V30 1011 O 90.6123 -4.82295 -3.02292 0
M  V30 1012 N 91.8143 -3.64978 -4.5141 0
M  V30 1013 H 94.5793 -2.95437 -0.503722 0
M  V30 1014 H 92.1403 -1.61397 -0.12757 0
M  V30 1015 H 94.1323 -2.69254 -3.02133 0
M  V30 1016 H 92.7023 -1.7103 -2.61663 0
M  V30 1017 H 91.9223 -3.75425 -1.20208 0
M  V30 1018 H 93.2103 -4.68263 -1.99015 0
M  V30 1019 H 92.6083 -3.08558 -4.7414 0
M  V30 1020 H 91.1653 -3.87115 -5.2439 0
M  V30 1021 N 94.5984 0.214957 -1.56127 0
M  V30 1022 C 95.8754 0.963093 -1.70247 0
M  V30 1023 C 96.2554 2.02166 -0.60764 0
M  V30 1024 O 95.6034 2.25244 0.384385 0
M  V30 1025 C 95.8134 1.56756 -3.11815 0
M  V30 1026 C 97.1614 2.0573 -3.7143 0
M  V30 1027 O 98.1854 1.66637 -3.14818 0
M  V30 1028 O 97.0444 2.77603 -4.70743 0
M  V30 1029 H 94.1384 0.450321 -0.693643 0
M  V30 1030 H 96.6844 0.206219 -1.68442 0
M  V30 1031 H 95.4564 0.803533 -3.82961 0
M  V30 1032 H 95.0794 2.3898 -3.17765 0
M  V30 1033 N 96.0765 1.50051 0.48192 0
M  V30 1034 C 97.3255 1.59741 1.23149 0
M  V30 1035 C 97.6385 0.298163 1.93314 0
M  V30 1036 O 98.8445 0.273835 2.70116 0
M  V30 1037 C 97.3005 2.81926 2.23708 0
M  V30 1038 C 96.9085 4.18685 1.59396 0
M  V30 1039 C 98.6525 3.00956 2.99375 0
M  V30 1040 C 96.5595 5.3207 2.58178 0
M  V30 1041 H 95.4895 0.594838 0.46334 0
M  V30 1042 H 98.1405 1.76467 0.503169 0
M  V30 1043 H 96.5225 2.58736 2.99786 0
M  V30 1044 H 97.6965 4.52088 0.891811 0
M  V30 1045 H 96.0115 4.05171 0.960503 0
M  V30 1046 H 98.6085 3.82836 3.73283 0
M  V30 1047 H 98.9515 2.12258 3.58123 0
M  V30 1048 H 99.4845 3.24277 2.30411 0
M  V30 1049 H 96.2235 6.22888 2.04184 0
M  V30 1050 H 95.7435 5.03098 3.26577 0
M  V30 1051 H 97.4225 5.62196 3.20225 0
M  V30 1052 N 97.5546 -0.734337 1.39446 0
M  V30 1053 C 98.8036 -1.48937 1.36017 0
M  V30 1054 C 99.1166 -1.95557 -0.0409005 0
M  V30 1055 O 100.323 -2.70779 -0.19778 0
M  V30 1056 C 98.7786 -2.69125 2.38955 0
M  V30 1057 C 98.3866 -2.29452 3.8478 0
M  V30 1058 C 100.131 -3.46944 2.44603 0
M  V30 1059 C 98.0376 -3.46366 4.79358 0
M  V30 1060 H 96.9676 -0.559296 0.505672 0
M  V30 1061 H 99.6186 -0.800983 1.65095 0
M  V30 1062 H 98.0006 -3.40041 2.02948 0
M  V30 1063 H 99.1746 -1.66077 4.29831 0
M  V30 1064 H 97.4896 -1.64723 3.82433 0
M  V30 1065 H 100.087 -4.33907 3.12456 0
M  V30 1066 H 100.43 -3.89454 1.47076 0
M  V30 1067 H 100.963 -2.83056 2.79507 0
M  V30 1068 H 97.7016 -3.08905 5.78151 0
M  V30 1069 H 97.2216 -4.08719 4.38986 0
M  V30 1070 H 98.9006 -4.12691 4.98292 0
M  V30 1071 N 99.0327 -1.24633 -0.964593 0
M  V30 1072 C 100.258 -1.11596 -1.74818 0
M  V30 1073 C 100.683 0.32723 -1.85232 0
M  V30 1074 O 100.041 1.23695 -1.32549 0
M  V30 1075 C 100.089 -1.76397 -3.1451 0
M  V30 1076 O 99.1927 -1.03685 -3.99153 0
M  V30 1077 H 98.5337 -0.390196 -0.537255 0
M  V30 1078 H 101.064 -1.65002 -1.20977 0
M  V30 1079 H 101.074 -1.8228 -3.65018 0
M  V30 1080 H 99.7487 -2.81401 -3.06246 0
M  V30 1081 H 98.3257 -1.05611 -3.57632 0
M  V30 1082 N 100.511 1.16574 -1.06058 0
M  V30 1083 C 101.443 2.2045 -0.627239 0
M  V30 1084 C 102.456 1.59752 0.313534 0
M  V30 1085 O 103.645 1.78192 0.104896 0
M  V30 1086 C 100.745 3.3875 0.100974 0
M  V30 1087 C 99.9178 4.29008 -0.852687 0
M  V30 1088 C 98.9768 5.25944 -0.164152 0
M  V30 1089 O 98.0028 5.63535 -0.801047 0
M  V30 1090 N 99.2048 5.70075 1.09518 0
M  V30 1091 H 101.97 2.58249 -1.52077 0
M  V30 1092 H 99.5308 1.3156 -0.943594 0
M  V30 1093 H 101.523 4.00638 0.57194 0
M  V30 1094 H 100.093 2.99476 0.89628 0
M  V30 1095 H 99.3128 3.64419 -1.50308 0
M  V30 1096 H 100.601 4.86195 -1.49972 0
M  V30 1097 H 99.9988 5.41624 1.6328 0
M  V30 1098 H 98.5558 6.34067 1.51006 0
M  V30 1099 N 101.989 0.842826 1.3317 0
M  V30 1100 C 102.936 0.276885 2.29133 0
M  V30 1101 C 103.906 -0.609527 1.54512 0
M  V30 1102 O 105.091 -0.546955 1.82792 0
M  V30 1103 C 102.231 -0.538707 3.40869 0
M  V30 1104 C 101.344 0.372169 4.30394 0
M  V30 1105 C 100.479 -0.454908 5.29249 0
M  V30 1106 C 99.5179 0.45411 6.10413 0
M  V30 1107 N 98.6549 -0.335075 7.013 0
M  V30 1108 H 103.495 1.10052 2.76934 0
M  V30 1109 H 101.032 0.554161 1.36262 0
M  V30 1110 H 102.99 -1.02709 4.0436 0
M  V30 1111 H 101.62 -1.32727 2.9425 0
M  V30 1112 H 100.672 0.97888 3.6759 0
M  V30 1113 H 101.984 1.0703 4.87182 0
M  V30 1114 H 101.138 -1.00695 5.98285 0
M  V30 1115 H 99.8769 -1.18646 4.73048 0
M  V30 1116 H 98.8819 1.01813 5.40291 0
M  V30 1117 H 100.107 1.18409 6.68697 0
M  V30 1118 H 98.0529 -1.04994 6.47543 0
M  V30 1119 H 97.9699 0.304262 7.55387 0
M  V30 1120 H 99.2379 -0.869224 7.74638 0
M  V30 1121 N 103.467 -1.45747 0.599634 0
M  V30 1122 C 104.4 -2.27547 -0.172552 0
M  V30 1123 C 105.378 -1.36657 -0.881116 0
M  V30 1124 O 106.562 -1.66081 -0.891595 0
M  V30 1125 C 103.689 -3.14829 -1.24903 0
M  V30 1126 C 102.735 -4.21603 -0.644465 0
M  V30 1127 S 103.568 -5.32754 0.541606 0
M  V30 1128 C 104.724 -6.23604 -0.535656 0
M  V30 1129 H 104.957 -2.92691 0.521468 0
M  V30 1130 H 102.49 -1.49473 0.386947 0
M  V30 1131 H 104.448 -3.65675 -1.86527 0
M  V30 1132 H 103.109 -2.48965 -1.91508 0
M  V30 1133 H 102.302 -4.82566 -1.45417 0
M  V30 1134 H 101.904 -3.73857 -0.103534 0
M  V30 1135 H 104.196 -6.62519 -1.41686 0
M  V30 1136 H 105.139 -7.0809 0.0376246 0
M  V30 1137 H 105.547 -5.58103 -0.84741 0
M  V30 1138 N 104.945 -0.338344 -1.53925 0
M  V30 1139 C 105.892 0.520845 -2.24846 0
M  V30 1140 C 106.862 1.09976 -1.24477 0
M  V30 1141 O 108.047 1.13735 -1.53196 0
M  V30 1142 C 105.187 1.6685 -3.02084 0
M  V30 1143 C 104.3 1.11739 -4.17299 0
M  V30 1144 C 103.435 2.23193 -4.82036 0
M  V30 1145 C 102.474 1.65407 -5.89328 0
M  V30 1146 N 101.611 2.70582 -6.47866 0
M  V30 1147 H 106.451 -0.0904881 -2.97863 0
M  V30 1148 H 103.988 -0.0564282 -1.46992 0
M  V30 1149 H 105.946 2.34407 -3.45122 0
M  V30 1150 H 104.576 2.2509 -2.31375 0
M  V30 1151 H 103.628 0.332919 -3.7894 0
M  V30 1152 H 104.94 0.654677 -4.94485 0
M  V30 1153 H 104.094 2.98626 -5.28117 0
M  V30 1154 H 102.833 2.72807 -4.04262 0
M  V30 1155 H 101.838 0.884779 -5.42634 0
M  V30 1156 H 103.063 1.16652 -6.69006 0
M  V30 1157 H 101.009 3.1946 -5.72959 0
M  V30 1158 H 100.926 2.28917 -7.20509 0
M  V30 1159 H 102.194 3.45799 -6.98601 0
M  V30 1160 N 106.423 1.57458 -0.0668435 0
M  V30 1161 C 107.333 2.15937 0.916975 0
M  V30 1162 C 108.349 1.12123 1.33058 0
M  V30 1163 O 109.525 1.44366 1.40429 0
M  V30 1164 C 106.59 2.70547 2.16807 0
M  V30 1165 C 105.651 3.89215 1.81135 0
M  V30 1166 C 104.884 4.41211 3.0028 0
M  V30 1167 O 105.107 3.92225 4.14144 0
M  V30 1168 O 104.041 5.32605 2.80384 0
M  V30 1169 H 107.867 3.00354 0.449561 0
M  V30 1170 H 105.452 1.48584 0.155949 0
M  V30 1171 H 107.334 3.0557 2.90181 0
M  V30 1172 H 106.009 1.89192 2.62656 0
M  V30 1173 H 104.916 3.59054 1.05028 0
M  V30 1174 H 106.249 4.71848 1.40073 0
M  V30 1175 N 107.901 -0.206675 1.56239 0
M  V30 1176 C 109.147 -0.930218 1.80208 0
M  V30 1177 C 109.48 -1.83387 0.638981 0
M  V30 1178 O 108.755 -1.91119 -0.361066 0
M  V30 1179 C 109.038 -1.75641 3.1436 0
M  V30 1180 C 108.891 -0.878257 4.41142 0
M  V30 1181 C 110.21 -2.73129 3.45092 0
M  V30 1182 H 107.329 -0.336742 0.655571 0
M  V30 1183 H 109.971 -0.198222 1.88963 0
M  V30 1184 H 108.121 -2.38048 3.07027 0
M  V30 1185 H 109.793 -0.269787 4.6051 0
M  V30 1186 H 108.036 -0.184385 4.33408 0
M  V30 1187 H 108.707 -1.49106 5.3148 0
M  V30 1188 H 111.183 -2.20856 3.52649 0
M  V30 1189 H 110.059 -3.28028 4.40101 0
M  V30 1190 H 110.32 -3.51606 2.68003 0
M  V30 1191 N 109.379 -1.50304 -0.473955 0
M  V30 1192 C 110.607 -1.64902 -1.24959 0
M  V30 1193 C 111.022 -0.331198 -1.85872 0
M  V30 1194 O 110.379 0.68652 -1.69095 0
M  V30 1195 C 110.43 -2.73803 -2.36038 0
M  V30 1196 O 110.151 -4.00477 -1.77624 0
M  V30 1197 C 111.652 -2.99349 -3.26964 0
M  V30 1198 H 108.872 -0.554383 -0.378022 0
M  V30 1199 H 111.416 -1.9651 -0.566054 0
M  V30 1200 H 109.571 -2.44898 -3.00173 0
M  V30 1201 H 109.985 -4.60678 -2.5075 0
M  V30 1202 H 111.459 -3.79217 -4.01121 0
M  V30 1203 H 111.936 -2.10307 -3.85574 0
M  V30 1204 H 112.542 -3.29774 -2.68569 0
M  V30 1205 N 110.857 0.726932 -1.39834 0
M  V30 1206 C 111.787 1.85405 -1.41941 0
M  V30 1207 C 112.768 1.67751 -0.281728 0
M  V30 1208 O 113.953 1.8795 -0.488717 0
M  V30 1209 C 111.083 3.23243 -1.2701 0
M  V30 1210 C 110.037 3.55549 -2.38262 0
M  V30 1211 C 109.363 4.9241 -2.08415 0
M  V30 1212 C 110.663 3.577 -3.80589 0
M  V30 1213 H 112.357 1.83899 -2.36266 0
M  V30 1214 H 109.903 0.883349 -1.13723 0
M  V30 1215 H 111.856 4.01775 -1.27103 0
M  V30 1216 H 110.58 3.25296 -0.291564 0
M  V30 1217 H 109.239 2.79351 -2.37399 0
M  V30 1218 H 108.887 4.91052 -1.0898 0
M  V30 1219 H 108.587 5.14992 -2.82943 0
M  V30 1220 H 110.111 5.73289 -2.10171 0
M  V30 1221 H 111.525 4.26293 -3.83337 0
M  V30 1222 H 109.922 3.91804 -4.54543 0
M  V30 1223 H 110.992 2.57328 -4.10987 0
M  V30 1224 N 112.336 1.25143 0.95797 0
M  V30 1225 C 113.284 1.05019 2.07542 0
M  V30 1226 C 114.278 -0.0178751 1.69391 0
M  V30 1227 O 115.484 0.137472 1.79474 0
M  V30 1228 H 111.859 0.32265 0.679265 0
M  V30 1229 H 113.83 1.99759 2.21673 0
M  V30 1230 C 112.579 0.682074 3.40944 0
M  V30 1231 H 111.902 1.49573 3.70767 0
M  V30 1232 H 113.342 0.580945 4.20001 0
M  V30 1233 C 111.801 -0.611608 3.31302 0
M  V30 1234 O 112.331 -1.65465 3.66038 0
M  V30 1235 N 110.537 -0.595982 2.84423 0
M  V30 1236 H 110.084 0.253192 2.56353 0
M  V30 1237 H 110.042 -1.46173 2.78354 0
M  V30 1238 N 113.814 -1.1601 1.06675 0
M  V30 1239 C 114.747 -2.1947 0.625168 0
M  V30 1240 C 115.725 -1.58699 -0.354041 0
M  V30 1241 O 116.909 -1.86669 -0.262098 0
M  V30 1242 C 114.036 -3.38598 -0.0829593 0
M  V30 1243 C 113.082 -4.1787 0.853611 0
M  V30 1244 S 113.915 -4.81135 2.35094 0
M  V30 1245 C 115.071 -6.03639 1.65441 0
M  V30 1246 H 115.304 -2.56587 1.50168 0
M  V30 1247 H 112.837 -1.26862 0.880078 0
M  V30 1248 H 114.795 -4.07621 -0.485288 0
M  V30 1249 H 113.456 -2.99839 -0.935716 0
M  V30 1250 H 112.649 -5.03078 0.304755 0
M  V30 1251 H 112.251 -3.54361 1.196 0
M  V30 1252 H 114.543 -6.70632 0.962201 0
M  V30 1253 H 115.486 -6.63081 2.48454 0
M  V30 1254 H 115.894 -5.52965 1.13534 0
M  V30 1255 N 115.292 -0.849877 -1.32721 0
M  V30 1256 C 116.541 -0.447175 -1.96681 0
M  V30 1257 C 116.854 1.00135 -1.68025 0
M  V30 1258 O 118.06 1.50926 -2.25685 0
M  V30 1259 C 116.516 -0.7487 -3.52026 0
M  V30 1260 C 116.124 -2.21264 -3.89546 0
M  V30 1261 C 117.868 -0.413487 -4.22481 0
M  V30 1262 C 115.775 -2.45763 -5.37917 0
M  V30 1263 H 114.705 -0.163486 -0.736063 0
M  V30 1264 H 117.356 -1.03999 -1.51183 0
M  V30 1265 H 115.738 -0.0853727 -3.95908 0
M  V30 1266 H 116.912 -2.91736 -3.56689 0
M  V30 1267 H 115.227 -2.5119 -3.32103 0
M  V30 1268 H 117.824 -0.574017 -5.3161 0
M  V30 1269 H 118.167 0.644492 -4.11281 0
M  V30 1270 H 118.7 -1.03251 -3.84167 0
M  V30 1271 H 115.439 -3.50168 -5.54132 0
M  V30 1272 H 114.959 -1.79864 -5.72197 0
M  V30 1273 H 116.638 -2.29471 -6.0494 0
M  V30 1274 N 116.77 1.45427 -0.607355 0
M  V30 1275 C 118.186 1.57283 -0.270985 0
M  V30 1276 C 118.386 1.59875 1.22647 0
M  V30 1277 O 117.442 1.52893 2.00948 0
M  V30 1278 C 118.755 2.85566 -0.941952 0
M  V30 1279 C 120.303 2.9924 -0.917849 0
M  V30 1280 C 120.778 4.30293 -1.56882 0
M  V30 1281 N 122.269 4.37051 -1.5343 0
M  V30 1282 C 123.004 5.37123 -2.00715 0
M  V30 1283 N 122.5 6.43734 -2.56084 0
M  V30 1284 N 124.293 5.28479 -1.91484 0
M  V30 1285 H 116.444 1.41988 -1.57966 0
M  V30 1286 H 118.707 0.67885 -0.661715 0
M  V30 1287 H 118.413 2.8955 -1.99633 0
M  V30 1288 H 118.287 3.74322 -0.465096 0
M  V30 1289 H 120.674 2.94822 0.127984 0
M  V30 1290 H 120.755 2.11895 -1.43297 0
M  V30 1291 H 120.399 4.35469 -2.61398 0
M  V30 1292 H 120.329 5.16454 -1.02873 0
M  V30 1293 H 122.82 3.60615 -1.12982 0
M  V30 1294 H 123.133 7.16341 -2.89958 0
M  V30 1295 H 121.478 6.44485 -2.60122 0
M  V30 1296 H 124.669 4.44098 -1.47967 0
M  V30 1297 H 124.842 6.0632 -2.28648 0
M  V30 1298 N 118.248 0.346503 1.53744 0
M  V30 1299 C 119.158 -0.517293 2.28826 0
M  V30 1300 C 120.174 -1.10935 1.3405 0
M  V30 1301 O 121.35 -1.1244 1.6709 0
M  V30 1302 C 118.415 -1.65098 3.04866 0
M  V30 1303 C 117.476 -1.0884 4.15274 0
M  V30 1304 C 116.709 -2.16806 4.87679 0
M  V30 1305 O 116.932 -3.3758 4.59778 0
M  V30 1306 O 115.866 -1.80934 5.74061 0
M  V30 1307 H 119.692 0.0931396 3.03557 0
M  V30 1308 H 117.277 0.111458 1.48984 0
M  V30 1309 H 119.159 -2.31053 3.5241 0
M  V30 1310 H 117.834 -2.24717 2.32989 0
M  V30 1311 H 116.741 -0.3933 3.72027 0
M  V30 1312 H 118.074 -0.537036 4.89261 0
M  V30 1313 N 119.726 -1.57421 0.075193 0
M  V30 1314 C 120.689 -2.11791 -0.876203 0
M  V30 1315 C 121.689 -1.04268 -1.22412 0
M  V30 1316 O 122.879 -1.30242 -1.15684 0
M  V30 1317 C 120.011 -2.62207 -2.17854 0
M  V30 1318 H 121.204 -2.9716 -0.40444 0
M  V30 1319 H 118.757 -1.55333 -0.173557 0
M  V30 1320 H 119.492 -1.803 -2.6956 0
M  V30 1321 H 119.277 -3.40802 -1.93897 0
M  V30 1322 H 120.767 -3.04335 -2.85955 0
M  V30 1323 N 121.204 0.198386 -1.56346 0
M  V30 1324 C 122.481 0.944982 -1.71258 0
M  V30 1325 C 122.861 2.0151 -0.629048 0
M  V30 1326 O 122.209 2.25639 0.360473 0
M  V30 1327 C 122.419 1.5344 -3.1346 0
M  V30 1328 C 123.767 2.01778 -3.73591 0
M  V30 1329 O 124.791 1.63288 -3.16568 0
M  V30 1330 O 123.65 2.72594 -4.73661 0
M  V30 1331 H 120.744 0.442939 -0.69838 0
M  V30 1332 H 123.29 0.188342 -1.68652 0
M  V30 1333 H 122.062 0.762869 -3.83792 0
M  V30 1334 H 121.685 2.35596 -3.20282 0
M  V30 1335 N 122.682 1.50554 0.465978 0
M  V30 1336 C 123.612 1.72722 1.57128 0
M  V30 1337 C 124.593 0.576294 1.6004 0
M  V30 1338 O 125.778 0.81598 1.76225 0
M  V30 1339 C 122.908 1.82605 2.95419 0
M  V30 1340 C 121.862 2.97835 3.07373 0
M  V30 1341 C 121.188 2.92867 4.47363 0
M  V30 1342 C 122.488 4.38265 2.84114 0
M  V30 1343 H 124.182 2.65267 1.38829 0
M  V30 1344 H 121.728 1.2765 0.666441 0
M  V30 1345 H 123.681 1.96698 3.72677 0
M  V30 1346 H 122.405 0.866858 3.14886 0
M  V30 1347 H 121.064 2.83401 2.3255 0
M  V30 1348 H 120.712 1.94783 4.63755 0
M  V30 1349 H 120.412 3.70227 4.56296 0
M  V30 1350 H 121.936 3.09015 5.26633 0
M  V30 1351 H 123.35 4.53198 3.51118 0
M  V30 1352 H 121.747 5.17115 3.04487 0
M  V30 1353 H 122.817 4.50281 1.7993 0
M  V30 1354 N 124.16 -0.719506 1.40217 0
M  V30 1355 C 125.406 -1.48152 1.38488 0
M  V30 1356 C 125.739 -1.94195 -0.0141867 0
M  V30 1357 O 125.014 -1.67884 -0.982096 0
M  V30 1358 C 125.297 -2.71035 2.37091 0
M  V30 1359 C 125.15 -2.30912 3.86005 0
M  V30 1360 C 126.469 -3.73182 2.33288 0
M  V30 1361 H 123.588 -0.537395 0.504357 0
M  V30 1362 H 126.23 -0.821472 1.71324 0
M  V30 1363 H 124.38 -3.27352 2.0922 0
M  V30 1364 H 126.052 -1.80107 4.24687 0
M  V30 1365 H 124.295 -1.62958 4.02029 0
M  V30 1366 H 124.966 -3.18978 4.50508 0
M  V30 1367 H 127.442 -3.26485 2.57966 0
M  V30 1368 H 126.318 -4.56806 3.04334 0
M  V30 1369 H 126.579 -4.21202 1.34317 0
M  V30 1370 N 125.638 -1.25649 -0.95132 0
M  V30 1371 C 126.568 -1.08808 -2.06599 0
M  V30 1372 C 127.549 0.00382547 -1.701 0
M  V30 1373 O 128.734 -0.166325 -1.93486 0
M  V30 1374 C 125.864 -0.709542 -3.39975 0
M  V30 1375 C 124.818 -1.75206 -3.90496 0
M  V30 1376 C 124.144 -1.22811 -5.20405 0
M  V30 1377 C 125.444 -3.15153 -4.16504 0
M  V30 1378 H 127.138 -2.02048 -2.20946 0
M  V30 1379 H 124.684 -0.972835 -1.06169 0
M  V30 1380 H 126.637 -0.578649 -4.17408 0
M  V30 1381 H 125.361 0.258556 -3.25575 0
M  V30 1382 H 124.02 -1.87145 -3.15234 0
M  V30 1383 H 123.668 -0.250145 -5.02378 0
M  V30 1384 H 123.368 -1.92492 -5.55176 0
M  V30 1385 H 124.892 -1.10968 -6.00432 0
M  V30 1386 H 126.306 -3.06349 -4.84586 0
M  V30 1387 H 124.703 -3.82333 -4.62538 0
M  V30 1388 H 125.773 -3.61966 -3.22658 0
M  V30 1389 N 127.117 1.15442 -1.07289 0
M  V30 1390 C 128.364 1.86213 -0.795668 0
M  V30 1391 C 128.692 1.82291 0.678238 0
M  V30 1392 O 127.947 1.24057 1.51355 0
M  V30 1393 C 128.246 3.3489 -1.24834 0
M  V30 1394 C 127.912 3.59007 -2.72809 0
M  V30 1395 C 126.574 3.65298 -3.13227 0
M  V30 1396 C 128.926 3.68762 -3.68326 0
M  V30 1397 C 126.254 3.78854 -4.4798 0
M  V30 1398 C 128.606 3.83842 -5.0284 0
M  V30 1399 C 127.27 3.88378 -5.4288 0
M  V30 1400 H 126.54 0.681403 -0.291155 0
M  V30 1401 H 129.187 1.36435 -1.34379 0
M  V30 1402 H 127.492 3.8687 -0.619595 0
M  V30 1403 H 129.189 3.88052 -1.01076 0
M  V30 1404 H 125.779 3.5475 -2.40521 0
M  V30 1405 H 129.963 3.63202 -3.38227 0
M  V30 1406 H 125.219 3.80623 -4.78472 0
M  V30 1407 H 129.393 3.90332 -5.76727 0
M  V30 1408 H 127.02 3.98635 -6.47298 0
M  V30 1409 N 128.595 0.856903 1.32268 0
M  V30 1410 C 129.841 0.462069 1.97466 0
M  V30 1411 C 130.174 -0.980298 1.67642 0
M  V30 1412 O 129.449 -1.68824 0.965858 0
M  V30 1413 C 129.732 0.704336 3.53145 0
M  V30 1414 C 129.585 2.19529 3.9259 0
M  V30 1415 C 130.904 0.1622 4.39801 0
M  V30 1416 H 128.023 0.169357 0.717278 0
M  V30 1417 H 130.665 1.07574 1.56614 0
M  V30 1418 H 128.815 0.181999 3.88073 0
M  V30 1419 H 130.487 2.78387 3.67829 0
M  V30 1420 H 128.73 2.67292 3.41668 0
M  V30 1421 H 129.401 2.31549 5.01088 0
M  V30 1422 H 131.877 0.608905 4.11621 0
M  V30 1423 H 130.753 0.361265 5.4771 0
M  V30 1424 H 131.014 -0.935158 4.32096 0
M  V30 1425 N 130.073 -1.45103 0.615059 0
M  V30 1426 C 131.319 -2.02483 0.113347 0
M  V30 1427 C 131.652 -1.48146 -1.25564 0
M  V30 1428 O 130.927 -0.659104 -1.82992 0
M  V30 1429 C 131.21 -3.60005 0.0825278 0
M  V30 1430 C 131.063 -4.2466 1.48271 0
M  V30 1431 C 132.382 -4.35972 -0.601401 0
M  V30 1432 H 129.501 -0.735764 0.0426632 0
M  V30 1433 H 132.143 -1.72868 0.788461 0
M  V30 1434 H 130.293 -3.85367 -0.492378 0
M  V30 1435 H 131.965 -4.10458 2.10527 0
M  V30 1436 H 130.208 -3.82772 2.04127 0
M  V30 1437 H 130.879 -5.336 1.41332 0
M  V30 1438 H 133.355 -4.15947 -0.112666 0
M  V30 1439 H 132.231 -5.45697 -0.592097 0
M  V30 1440 H 132.492 -4.09391 -1.66887 0
M  V30 1441 N 131.551 -0.354651 -1.53558 0
M  V30 1442 C 132.828 0.294281 -1.93374 0
M  V30 1443 C 133.208 1.67313 -1.28723 0
M  V30 1444 O 132.556 2.24179 -0.442247 0
M  V30 1445 C 132.766 0.355445 -3.47185 0
M  V30 1446 C 134.114 0.601007 -4.20325 0
M  V30 1447 O 135.138 0.437106 -3.53508 0
M  V30 1448 O 133.997 0.919322 -5.38712 0
M  V30 1449 H 131.091 0.174033 -0.808481 0
M  V30 1450 H 133.637 -0.406638 -1.64756 0
M  V30 1451 H 132.409 -0.611729 -3.86489 0
M  V30 1452 H 132.032 1.1027 -3.82003 0
M  V30 1453 N 133.029 1.57378 -0.0835403 0
M  V30 1454 C 134.277 1.93547 0.581718 0
M  V30 1455 C 134.598 0.96524 1.69435 0
M  V30 1456 O 133.868 0.0153369 1.95894 0
M  V30 1457 H 132.448 0.714521 0.217874 0
M  V30 1458 H 135.11 1.94366 -0.144158 0
M  V30 1459 H 134.206 2.95665 0.999423 0
M  V30 1460 N 134.507 -0.190092 1.56449 0
M  V30 1461 C 135.454 -1.23557 1.94942 0
M  V30 1462 C 136.424 -1.44972 0.810696 0
M  V30 1463 O 137.609 -1.58023 1.06927 0
M  V30 1464 C 134.749 -2.57416 2.2985 0
M  V30 1465 C 133.862 -2.43537 3.5681 0
M  V30 1466 C 132.997 -3.70134 3.81017 0
M  V30 1467 C 132.036 -3.51109 5.01387 0
M  V30 1468 N 131.173 -4.6973 5.21822 0
M  V30 1469 H 136.013 -0.900304 2.84075 0
M  V30 1470 H 133.55 -0.43318 1.40577 0
M  V30 1471 H 135.508 -3.35409 2.48106 0
M  V30 1472 H 134.138 -2.88975 1.43852 0
M  V30 1473 H 133.19 -1.56816 3.46573 0
M  V30 1474 H 134.502 -2.25415 4.4496 0
M  V30 1475 H 133.656 -4.56566 3.9954 0
M  V30 1476 H 132.395 -3.91215 2.91207 0
M  V30 1477 H 131.4 -2.63063 4.82782 0
M  V30 1478 H 132.625 -3.31468 5.9271 0
M  V30 1479 H 130.571 -4.91065 4.34961 0
M  V30 1480 H 130.488 -4.54452 6.0416 0
M  V30 1481 H 131.756 -5.57499 5.44808 0
M  V30 1482 N 135.985 -1.50799 -0.457987 0
M  V30 1483 C 137.401 -1.38515 -0.792819 0
M  V30 1484 C 137.601 -0.451409 -1.96379 0
M  V30 1485 O 136.657 0.10112 -2.52297 0
M  V30 1486 C 137.97 -2.80149 -1.09258 0
M  V30 1487 C 139.518 -2.89156 -1.19825 0
M  V30 1488 C 139.993 -4.31651 -1.53106 0
M  V30 1489 N 141.484 -4.34662 -1.60072 0
M  V30 1490 C 142.219 -5.41928 -1.87354 0
M  V30 1491 N 141.715 -6.59384 -2.12568 0
M  V30 1492 N 143.508 -5.29385 -1.88965 0
M  V30 1493 H 135.659 -2.10073 0.313511 0
M  V30 1494 H 137.922 -0.944803 0.0777862 0
M  V30 1495 H 137.628 -3.50374 -0.305084 0
M  V30 1496 H 137.502 -3.18204 -2.02549 0
M  V30 1497 H 139.889 -2.19141 -1.97639 0
M  V30 1498 H 139.97 -2.54626 -0.244821 0
M  V30 1499 H 139.614 -5.02208 -0.758266 0
M  V30 1500 H 139.544 -4.63678 -2.49621 0
M  V30 1501 H 142.035 -3.49973 -1.42573 0
M  V30 1502 H 142.348 -7.36934 -2.32696 0
M  V30 1503 H 140.693 -6.62535 -2.09933 0
M  V30 1504 H 143.884 -4.36616 -1.68772 0
M  V30 1505 H 144.057 -6.13066 -2.09891 0
M  V30 1506 N 137.463 0.71206 -1.40597 0
M  V30 1507 C 138.711 1.46907 -1.38791 0
M  V30 1508 C 139.032 1.94998 0.00780391 0
M  V30 1509 O 138.302 1.70587 0.963174 0
M  V30 1510 H 136.882 0.545043 -0.51082 0
M  V30 1511 H 139.544 0.843882 -1.75683 0
M  V30 1512 H 138.64 2.34021 -2.06496 0
M  V30 1513 N 138.941 1.26152 0.944643 0
M  V30 1514 C 140.19 1.10883 1.68487 0
M  V30 1515 C 140.503 -0.348153 1.92477 0
M  V30 1516 O 141.709 -0.621459 2.64292 0
M  V30 1517 C 140.165 1.93624 3.03377 0
M  V30 1518 C 139.773 3.43875 2.87148 0
M  V30 1519 C 141.517 1.86954 3.81115 0
M  V30 1520 C 139.424 4.18875 4.1749 0
M  V30 1521 H 138.354 0.41135 0.631907 0
M  V30 1522 H 141.005 1.50433 1.05082 0
M  V30 1523 H 139.387 1.46904 3.67743 0
M  V30 1524 H 140.561 3.98338 2.31653 0
M  V30 1525 H 138.876 3.51744 2.22856 0
M  V30 1526 H 141.473 2.40275 4.77673 0
M  V30 1527 H 141.816 0.839518 4.07747 0
M  V30 1528 H 142.349 2.31477 3.23517 0
M  V30 1529 H 139.088 5.22332 3.96043 0
M  V30 1530 H 138.608 3.69193 4.72712 0
M  V30 1531 H 140.287 4.27134 4.85968 0
M  V30 1532 N 140.419 -1.14872 1.07899 0
M  V30 1533 C 141.647 -1.89661 0.82683 0
M  V30 1534 C 142.062 -1.78312 -0.620519 0
M  V30 1535 O 141.419 -1.13888 -1.42604 0
M  V30 1536 C 141.47 -3.39817 1.23316 0
M  V30 1537 O 141.191 -3.50845 2.62372 0
M  V30 1538 C 142.692 -4.31615 1.0111 0
M  V30 1539 H 139.912 -0.60092 0.298557 0
M  V30 1540 H 142.456 -1.4551 1.43691 0
M  V30 1541 H 140.611 -3.8161 0.667286 0
M  V30 1542 H 141.025 -4.44076 2.79101 0
M  V30 1543 H 142.499 -5.35367 1.34486 0
M  V30 1544 H 142.976 -4.39169 -0.0522168 0
M  V30 1545 H 143.582 -3.95572 1.56215 0
M  V30 1546 N 141.898 -0.863906 -1.31812 0
M  V30 1547 C 142.845 -0.313303 -2.28664 0
M  V30 1548 C 143.815 0.584868 -1.55462 0
M  V30 1549 O 145 0.517805 -1.83639 0
M  V30 1550 C 142.14 0.48441 -3.41683 0
M  V30 1551 C 141.253 -0.440594 -4.29747 0
M  V30 1552 C 140.388 0.370652 -5.29905 0
M  V30 1553 C 139.427 -0.551164 -6.09613 0
M  V30 1554 N 138.564 0.223462 -7.01744 0
M  V30 1555 H 143.404 -1.14444 -2.75148 0
M  V30 1556 H 140.941 -0.575769 -1.35364 0
M  V30 1557 H 142.899 0.962627 -4.05943 0
M  V30 1558 H 141.529 1.28029 -2.96325 0
M  V30 1559 H 140.581 -1.03724 -3.65986 0
M  V30 1560 H 141.893 -1.14767 -4.85417 0
M  V30 1561 H 141.047 0.911638 -5.99812 0
M  V30 1562 H 139.786 1.11105 -4.74876 0
M  V30 1563 H 138.791 -1.10396 -5.38603 0
M  V30 1564 H 140.016 -1.29032 -6.66729 0
M  V30 1565 H 137.962 0.946787 -6.49132 0
M  V30 1566 H 137.879 -0.424399 -7.54808 0
M  V30 1567 H 139.147 0.745876 -7.75923 0
M  V30 1568 N 143.376 1.44774 -0.622745 0
M  V30 1569 C 144.286 2.34433 0.0886031 0
M  V30 1570 C 145.302 1.52131 0.844529 0
M  V30 1571 O 146.478 1.84886 0.798691 0
M  V30 1572 C 143.543 3.29986 1.0635 0
M  V30 1573 C 142.604 4.28195 0.307873 0
M  V30 1574 C 141.837 5.19183 1.23633 0
M  V30 1575 O 142.06 5.13918 2.47476 0
M  V30 1576 O 140.994 5.97515 0.725189 0
M  V30 1577 H 144.82 2.96693 -0.648599 0
M  V30 1578 H 142.405 1.44408 -0.382957 0
M  V30 1579 H 144.287 3.88825 1.6246 0
M  V30 1580 H 142.962 2.70269 1.78146 0
M  V30 1581 H 141.869 3.72927 -0.296064 0
M  V30 1582 H 143.202 4.90808 -0.3699 0
M  V30 1583 N 144.854 0.36279 1.53368 0
M  V30 1584 C 146.131 -0.284021 1.93527 0
M  V30 1585 C 146.511 -1.66628 1.29608 0
M  V30 1586 O 145.859 -2.23942 0.45413 0
M  V30 1587 C 146.069 -0.337028 3.47369 0
M  V30 1588 C 147.417 -0.578708 4.20638 0
M  V30 1589 O 148.441 -0.418352 3.53735 0
M  V30 1590 O 147.3 -0.89074 5.39192 0
M  V30 1591 H 144.394 -0.169743 0.809393 0
M  V30 1592 H 146.94 0.41537 1.64538 0
M  V30 1593 H 145.712 0.632217 3.86159 0
M  V30 1594 H 145.335 -1.08243 3.82582 0
M  V30 1595 N 146.332 -1.57332 0.0918853 0
M  V30 1596 C 147.242 -2.17368 -0.882505 0
M  V30 1597 C 148.258 -1.14226 -1.31257 0
M  V30 1598 O 149.434 -1.46582 -1.38115 0
M  V30 1599 C 146.499 -2.73962 -2.12476 0
M  V30 1600 C 145.56 -3.92048 -1.7492 0
M  V30 1601 C 144.793 -4.45933 -2.93223 0
M  V30 1602 O 145.016 -3.98764 -4.07852 0
M  V30 1603 O 143.95 -5.36999 -2.71875 0
M  V30 1604 H 147.776 -3.01031 -0.40172 0
M  V30 1605 H 145.361 -1.48813 -0.132291 0
M  V30 1606 H 147.243 -3.10147 -2.85283 0
M  V30 1607 H 145.918 -1.93347 -2.59613 0
M  V30 1608 H 144.825 -3.6068 -0.993025 0
M  V30 1609 H 146.158 -4.74017 -1.32548 0
M  V30 1610 N 147.81 0.181792 -1.56548 0
M  V30 1611 C 149.035 0.920019 -1.85877 0
M  V30 1612 C 149.46 1.75494 -0.677021 0
M  V30 1613 O 148.818 1.77399 0.374056 0
M  V30 1614 C 148.866 1.78112 -3.13542 0
M  V30 1615 O 147.97 2.88152 -2.95029 0
M  V30 1616 H 147.311 0.258334 -0.611686 0
M  V30 1617 H 149.841 0.183092 -2.03779 0
M  V30 1618 H 149.851 2.18314 -3.44678 0
M  V30 1619 H 148.526 1.16777 -3.99169 0
M  V30 1620 H 147.103 2.51609 -2.75222 0
M  V30 1621 N 149.288 1.51039 0.449983 0
M  V30 1622 C 150.218 1.74379 1.55288 0
M  V30 1623 C 151.199 0.593236 1.5942 0
M  V30 1624 O 152.384 0.834625 1.7535 0
M  V30 1625 C 149.514 1.85728 2.93466 0
M  V30 1626 C 148.468 3.01078 3.04197 0
M  V30 1627 C 147.794 2.97595 4.44231 0
M  V30 1628 C 149.094 4.41254 2.7945 0
M  V30 1629 H 150.788 2.66725 1.36008 0
M  V30 1630 H 148.334 1.2835 0.652864 0
M  V30 1631 H 150.287 2.0064 3.70569 0
M  V30 1632 H 149.011 0.900207 3.13949 0
M  V30 1633 H 147.67 2.85851 2.29531 0
M  V30 1634 H 147.318 1.99691 4.61663 0
M  V30 1635 H 147.018 3.75046 4.52343 0
M  V30 1636 H 148.542 3.14583 5.23326 0
M  V30 1637 H 149.956 4.56897 3.46292 0
M  V30 1638 H 148.353 5.20315 2.98985 0
M  V30 1639 H 149.423 4.52164 1.75144 0
M  V30 1640 N 150.766 -0.704594 1.40972 0
M  V30 1641 C 151.729 -1.80035 1.41845 0
M  V30 1642 C 152.729 -1.57774 0.310474 0
M  V30 1643 O 153.919 -1.64613 0.56992 0
M  V30 1644 C 151.051 -3.18284 1.22098 0
M  V30 1645 H 152.244 -1.80658 2.3938 0
M  V30 1646 H 149.797 -0.911329 1.26982 0
M  V30 1647 H 150.532 -3.23306 0.253672 0
M  V30 1648 H 150.317 -3.35843 2.02366 0
M  V30 1649 H 151.807 -3.98289 1.25522 0
M  V30 1650 N 152.244 -1.26651 -0.937939 0
M  V30 1651 C 153.521 -1.0313 -1.66204 0
M  V30 1652 C 153.901 0.437256 -2.06522 0
M  V30 1653 O 153.249 1.41831 -1.79154 0
M  V30 1654 C 153.459 -1.98314 -2.87181 0
M  V30 1655 C 154.807 -2.27107 -3.58758 0
M  V30 1656 O 155.831 -1.96205 -2.97291 0
M  V30 1657 O 154.69 -2.79736 -4.69479 0
M  V30 1658 H 151.784 -0.392384 -0.727986 0
M  V30 1659 H 154.33 -1.37874 -0.989382 0
M  V30 1660 H 153.102 -2.97399 -2.54302 0
M  V30 1661 H 152.725 -1.64068 -3.6217 0
M  V30 1662 N 153.722 1.14298 -1.08507 0
M  V30 1663 C 154.969 1.85359 -0.815373 0
M  V30 1664 C 155.297 1.83001 0.658865 0
M  V30 1665 O 154.552 1.25655 1.50031 0
M  V30 1666 C 154.851 3.33547 -1.28379 0
M  V30 1667 C 154.517 3.56093 -2.76602 0
M  V30 1668 C 153.179 3.61955 -3.17084 0
M  V30 1669 C 155.531 3.64834 -3.72217 0
M  V30 1670 C 152.859 3.74082 -4.51973 0
M  V30 1671 C 155.211 3.78487 -5.06883 0
M  V30 1672 C 153.875 3.82598 -5.46969 0
M  V30 1673 H 153.145 0.678276 -0.298366 0
M  V30 1674 H 155.792 1.35002 -1.35819 0
M  V30 1675 H 154.097 3.86191 -0.660593 0
M  V30 1676 H 155.794 3.86959 -1.05186 0
M  V30 1677 H 152.384 3.52179 -2.4427 0
M  V30 1678 H 156.568 3.59595 -3.42061 0
M  V30 1679 H 151.824 3.75527 -4.82483 0
M  V30 1680 H 155.998 3.84193 -5.80834 0
M  V30 1681 H 153.625 3.91747 -6.51489 0
M  V30 1682 N 155.201 0.870884 1.31352 0
M  V30 1683 C 156.131 0.343096 2.30966 0
M  V30 1684 C 157.112 -0.566507 1.60389 0
M  V30 1685 O 158.297 -0.483336 1.88089 0
M  V30 1686 C 155.427 -0.455487 3.443 0
M  V30 1687 C 154.381 0.361103 4.26474 0
M  V30 1688 C 153.707 -0.563221 5.31725 0
M  V30 1689 C 155.007 1.59566 4.97329 0
M  V30 1690 H 156.701 1.17548 2.75359 0
M  V30 1691 H 154.247 0.566686 1.32381 0
M  V30 1692 H 156.2 -0.83525 4.13039 0
M  V30 1693 H 154.924 -1.32139 2.98675 0
M  V30 1694 H 153.583 0.722825 3.59403 0
M  V30 1695 H 153.231 -1.42643 4.82351 0
M  V30 1696 H 152.931 -0.0207409 5.87596 0
M  V30 1697 H 154.455 -0.939808 6.03324 0
M  V30 1698 H 155.869 1.28728 5.58661 0
M  V30 1699 H 154.266 2.07728 5.63 0
M  V30 1700 H 155.336 2.34798 4.24262 0
M  V30 1701 N 156.679 -1.44442 0.630414 0
M  V30 1702 C 158.095 -1.56832 0.295973 0
M  V30 1703 C 158.295 -1.61806 -1.20088 0
M  V30 1704 O 157.351 -1.5607 -1.9849 0
M  V30 1705 C 158.664 -2.84031 0.987264 0
M  V30 1706 C 160.212 -2.97742 0.96534 0
M  V30 1707 C 160.687 -4.27743 1.63708 0
M  V30 1708 N 162.178 -4.34555 1.60364 0
M  V30 1709 C 162.913 -5.33862 2.09234 0
M  V30 1710 N 162.409 -6.39578 2.66292 0
M  V30 1711 N 164.202 -5.25366 1.99867 0
M  V30 1712 H 156.353 -1.39457 1.60205 0
M  V30 1713 H 158.616 -0.668237 0.672431 0
M  V30 1714 H 158.322 -2.86338 2.04215 0
M  V30 1715 H 158.196 -3.73534 0.524588 0
M  V30 1716 H 160.583 -2.94989 -0.0810639 0
M  V30 1717 H 160.664 -2.09589 1.4665 0
M  V30 1718 H 160.308 -4.31255 2.68293 0
M  V30 1719 H 160.238 -5.14752 1.11076 0
M  V30 1720 H 162.729 -3.58772 1.18705 0
M  V30 1721 H 163.042 -7.11637 3.01317 0
M  V30 1722 H 161.387 -6.40265 2.70343 0
M  V30 1723 H 164.578 -4.41688 1.55013 0
M  V30 1724 H 164.751 -6.02606 2.38265 0
M  V30 1725 N 158.157 -0.370918 -1.53173 0
M  V30 1726 C 159.104 0.473035 -2.259 0
M  V30 1727 C 160.074 1.07311 -1.26781 0
M  V30 1728 O 161.259 1.1046 -1.55574 0
M  V30 1729 C 158.399 1.60405 -3.05556 0
M  V30 1730 C 157.512 1.02863 -4.19575 0
M  V30 1731 C 156.647 2.12918 -4.86661 0
M  V30 1732 C 155.686 1.52869 -5.92704 0
M  V30 1733 N 154.823 2.56779 -6.53459 0
M  V30 1734 H 159.663 -0.153649 -2.97604 0
M  V30 1735 H 157.2 -0.0875946 -1.46839 0
M  V30 1736 H 159.158 2.27034 -3.50016 0
M  V30 1737 H 157.788 2.20131 -2.36097 0
M  V30 1738 H 156.84 0.252465 -3.79561 0
M  V30 1739 H 158.152 0.549642 -4.95762 0
M  V30 1740 H 157.306 2.87356 -5.34333 0
M  V30 1741 H 156.045 2.6417 -4.09958 0
M  V30 1742 H 155.05 0.769479 -5.44389 0
M  V30 1743 H 156.275 1.02435 -6.7133 0
M  V30 1744 H 154.221 3.07235 -5.79606 0
M  V30 1745 H 154.138 2.13583 -7.25202 0
M  V30 1746 H 155.406 3.30903 -7.05779 0
M  V30 1747 N 159.635 1.57281 -0.100228 0
M  V30 1748 C 160.86 1.99302 0.573881 0
M  V30 1749 C 161.285 0.979059 1.60611 0
M  V30 1750 O 160.643 -0.0517803 1.81226 0
M  V30 1751 C 160.691 3.40274 1.19358 0
M  V30 1752 O 159.795 3.41676 2.30935 0
M  V30 1753 H 159.136 0.647944 0.145138 0
M  V30 1754 H 161.666 2.03779 -0.183156 0
M  V30 1755 H 161.676 3.78078 1.53365 0
M  V30 1756 H 160.351 4.13594 0.437385 0
M  V30 1757 H 158.928 3.15672 1.98509 0
M  V30 1758 N 161.113 -0.173488 1.56642 0
M  V30 1759 C 162.341 -0.906095 1.86004 0
M  V30 1760 C 162.756 -1.75921 0.685355 0
M  V30 1761 O 162.113 -1.79198 -0.345578 0
M  V30 1762 C 162.164 -1.78462 3.14378 0
M  V30 1763 O 161.885 -0.965914 4.27319 0
M  V30 1764 C 163.386 -2.62707 3.57071 0
M  V30 1765 H 160.606 -0.263341 0.617165 0
M  V30 1766 H 163.15 -0.174236 2.03756 0
M  V30 1767 H 161.305 -2.46984 2.98459 0
M  V30 1768 H 161.719 -1.56655 5.00559 0
M  V30 1769 H 163.193 -3.19969 4.49804 0
M  V30 1770 H 163.67 -3.37472 2.81086 0
M  V30 1771 H 164.276 -1.99521 3.75595 0
M  V30 1772 N 162.591 -1.51276 -0.441967 0
M  V30 1773 C 163.837 -1.63958 -1.19355 0
M  V30 1774 C 164.17 -0.352543 -1.90973 0
M  V30 1775 O 163.445 0.647627 -1.83401 0
M  V30 1776 C 163.728 -2.83979 -2.21422 0
M  V30 1777 C 163.581 -4.22646 -1.53918 0
M  V30 1778 C 164.9 -2.99521 -3.22451 0
M  V30 1779 H 162.019 -0.596709 -0.432559 0
M  V30 1780 H 164.661 -1.83748 -0.483398 0
M  V30 1781 H 162.811 -2.67237 -2.81987 0
M  V30 1782 H 164.483 -4.51045 -0.967256 0
M  V30 1783 H 162.726 -4.25558 -0.841615 0
M  V30 1784 H 163.397 -5.02609 -2.28229 0
M  V30 1785 H 165.873 -3.14944 -2.71937 0
M  V30 1786 H 164.749 -3.85072 -3.91166 0
M  V30 1787 H 165.01 -2.11391 -3.88287 0
M  V30 1788 N 164.069 0.697108 -1.41344 0
M  V30 1789 C 165.346 1.45154 -1.31109 0
M  V30 1790 C 165.726 2.11009 0.0620449 0
M  V30 1791 O 165.074 2.01571 1.07618 0
M  V30 1792 C 165.284 2.47223 -2.46337 0
M  V30 1793 C 166.632 3.1252 -2.87431 0
M  V30 1794 O 167.656 2.57547 -2.46065 0
M  V30 1795 O 166.515 4.12083 -3.58957 0
M  V30 1796 H 163.609 0.646365 -0.515889 0
M  V30 1797 H 166.155 0.727716 -1.53305 0
M  V30 1798 H 164.927 1.97204 -3.37974 0
M  V30 1799 H 164.55 3.27116 -2.2601 0
M  V30 1800 N 165.547 1.27147 0.931209 0
M  V30 1801 C 166.775 1.16082 1.71267 0
M  V30 1802 C 167.19 -0.282772 1.8667 0
M  V30 1803 O 166.547 -1.19283 1.38122 0
M  V30 1804 C 166.598 1.8358 3.11417 0
M  V30 1805 O 166.319 3.22299 2.96741 0
M  V30 1806 C 167.82 1.78597 4.05732 0
M  V30 1807 H 165.04 0.403758 0.535929 0
M  V30 1808 H 167.584 1.67953 1.16671 0
M  V30 1809 H 165.739 1.35623 3.62885 0
M  V30 1810 H 166.153 3.55851 3.85319 0
M  V30 1811 H 167.627 2.30444 5.01597 0
M  V30 1812 H 168.104 0.754564 4.3267 0
M  V30 1813 H 168.71 2.26152 3.60188 0
M  V30 1814 N 167.025 -1.13721 1.09112 0
M  V30 1815 C 168.274 -1.84275 0.82009 0
M  V30 1816 C 168.587 -1.84253 -0.656509 0
M  V30 1817 O 169.793 -2.50668 -1.04296 0
M  V30 1818 C 168.249 -3.30825 1.41714 0
M  V30 1819 C 167.857 -3.39244 2.92605 0
M  V30 1820 C 169.601 -4.06443 1.22492 0
M  V30 1821 C 167.508 -4.80047 3.45411 0
M  V30 1822 H 166.438 -0.690387 0.30312 0
M  V30 1823 H 169.089 -1.28146 1.31343 0
M  V30 1824 H 167.471 -3.86737 0.851498 0
M  V30 1825 H 168.645 -2.93344 3.55367 0
M  V30 1826 H 166.96 -2.77088 3.10823 0
M  V30 1827 H 169.557 -5.10387 1.59402 0
M  V30 1828 H 169.9 -4.15972 0.165299 0
M  V30 1829 H 170.433 -3.56852 1.75788 0
M  V30 1830 H 167.172 -4.75709 4.50978 0
M  V30 1831 H 166.692 -5.26455 2.87411 0
M  V30 1832 H 168.371 -5.48957 3.42425 0
M  V30 1833 N 168.503 -0.877838 -1.30888 0
M  V30 1834 C 169.433 -0.35534 -2.3078 0
M  V30 1835 C 170.414 0.557994 -1.60687 0
M  V30 1836 O 171.599 0.473355 -1.88343 0
M  V30 1837 C 168.729 0.437221 -3.44537 0
M  V30 1838 C 167.683 -0.383715 -4.26276 0
M  V30 1839 C 167.009 0.535014 -5.32017 0
M  V30 1840 C 168.309 -1.62201 -4.96476 0
M  V30 1841 H 170.003 -1.19007 -2.74732 0
M  V30 1842 H 167.549 -0.573698 -1.32078 0
M  V30 1843 H 169.502 0.813334 -4.13477 0
M  V30 1844 H 168.226 1.30553 -2.99372 0
M  V30 1845 H 166.885 -0.741874 -3.59015 0
M  V30 1846 H 166.533 1.40083 -4.831 0
M  V30 1847 H 166.233 -0.0104211 -5.87599 0
M  V30 1848 H 167.757 0.907799 -6.03814 0
M  V30 1849 H 169.171 -1.31689 -5.5797 0
M  V30 1850 H 167.568 -2.10711 -5.61891 0
M  V30 1851 H 168.638 -2.37044 -4.23011 0
M  V30 1852 N 169.982 1.44106 -0.638065 0
M  V30 1853 C 171.228 2.02277 -0.145546 0
M  V30 1854 C 171.561 1.50125 1.23191 0
M  V30 1855 O 170.836 0.688133 1.8192 0
M  V30 1856 C 171.119 3.59829 -0.139791 0
M  V30 1857 C 170.972 4.22247 -1.55008 0
M  V30 1858 C 172.291 4.36873 0.531966 0
M  V30 1859 H 169.41 0.734992 -0.0543632 0
M  V30 1860 H 172.052 1.71592 -0.815863 0
M  V30 1861 H 170.202 3.86102 0.431007 0
M  V30 1862 H 171.874 4.07057 -2.1703 0
M  V30 1863 H 170.117 3.79476 -2.10191 0
M  V30 1864 H 170.788 5.31284 -1.49804 0
M  V30 1865 H 173.264 4.16074 0.0464781 0
M  V30 1866 H 172.14 5.4657 0.505206 0
M  V30 1867 H 172.401 4.11995 1.60352 0
M  V30 1868 N 171.46 0.379036 1.52974 0
M  V30 1869 C 172.423 -0.448865 2.24762 0
M  V30 1870 C 173.423 -0.998689 1.26027 0
M  V30 1871 O 174.613 -0.882313 1.50203 0
M  V30 1872 C 171.745 -1.62872 2.99476 0
M  V30 1873 H 172.938 0.179491 2.99362 0
M  V30 1874 H 170.491 0.13096 1.5575 0
M  V30 1875 H 171.226 -2.29479 2.29151 0
M  V30 1876 H 171.011 -1.24128 3.71934 0
M  V30 1877 H 172.501 -2.2151 3.5401 0
M  V30 1878 N 172.938 -1.57226 0.108567 0
M  V30 1879 C 173.886 -2.16002 -0.862885 0
M  V30 1880 C 174.88 -1.10644 -1.28274 0
M  V30 1881 O 176.086 -1.28966 -1.2557 0
M  V30 1882 H 172.461 -0.691148 -0.296342 0
M  V30 1883 H 174.432 -2.96427 -0.342575 0
M  V30 1884 C 173.181 -2.76576 -2.10716 0
M  V30 1885 H 172.504 -3.5734 -1.793 0
M  V30 1886 H 173.944 -3.21253 -2.76717 0
M  V30 1887 C 172.403 -1.73137 -2.89007 0
M  V30 1888 O 172.933 -1.17842 -3.84026 0
M  V30 1889 N 171.139 -1.43317 -2.52801 0
M  V30 1890 H 170.686 -1.88473 -1.75601 0
M  V30 1891 H 170.644 -0.743485 -3.05483 0
M  V30 1892 N 174.416 0.165178 -1.56732 0
M  V30 1893 C 175.363 1.2044 -1.96883 0
M  V30 1894 C 176.333 1.43664 -0.833657 0
M  V30 1895 O 177.518 1.56302 -1.09427 0
M  V30 1896 C 174.658 2.53727 -2.33916 0
M  V30 1897 C 173.771 2.3783 -3.6064 0
M  V30 1898 C 172.906 3.64026 -3.86857 0
M  V30 1899 C 171.945 3.43088 -5.06909 0
M  V30 1900 N 171.082 4.61369 -5.29229 0
M  V30 1901 H 175.922 0.854996 -2.85471 0
M  V30 1902 H 173.459 0.41076 -1.41249 0
M  V30 1903 H 175.417 3.31419 -2.53411 0
M  V30 1904 H 174.047 2.8665 -1.48431 0
M  V30 1905 H 173.099 1.51282 -3.49024 0
M  V30 1906 H 174.411 2.18308 -4.4849 0
M  V30 1907 H 173.565 4.50152 -4.06753 0
M  V30 1908 H 172.304 3.86533 -2.97394 0
M  V30 1909 H 171.309 2.55349 -4.86906 0
M  V30 1910 H 172.534 3.21997 -5.97909 0
M  V30 1911 H 170.48 4.84084 -4.42718 0
M  V30 1912 H 170.397 4.44783 -6.11313 0
M  V30 1913 H 171.665 5.48761 -5.53608 0
M  V30 1914 N 175.894 1.51508 0.433938 0
M  V30 1915 C 176.857 1.72473 1.50949 0
M  V30 1916 C 177.857 0.594725 1.49398 0
M  V30 1917 O 179.047 0.862315 1.5136 0
M  V30 1918 C 176.179 1.78431 2.90474 0
M  V30 1919 H 177.372 2.68467 1.33662 0
M  V30 1920 H 174.925 1.41549 0.662836 0
M  V30 1921 H 175.66 0.842645 3.13161 0
M  V30 1922 H 175.445 2.60558 2.93005 0
M  V30 1923 H 176.935 1.96479 3.68491 0
M  V30 1924 N 177.372 -0.689602 1.41712 0
M  V30 1925 C 178.282 -1.83314 1.46401 0
M  V30 1926 C 179.298 -1.7036 0.35405 0
M  V30 1927 O 180.474 -1.92171 0.602692 0
M  V30 1928 C 177.539 -3.19344 1.34982 0
M  V30 1929 C 176.6 -3.44363 2.56344 0
M  V30 1930 C 175.833 -4.73904 2.45461 0
M  V30 1931 O 176.056 -5.508 1.48241 0
M  V30 1932 O 174.99 -4.99839 3.35328 0
M  V30 1933 H 178.816 -1.82314 2.42889 0
M  V30 1934 H 176.401 -0.843438 1.23315 0
M  V30 1935 H 178.283 -4.00547 1.3092 0
M  V30 1936 H 176.958 -3.21014 0.41612 0
M  V30 1937 H 175.865 -2.63067 2.65982 0
M  V30 1938 H 177.198 -3.47512 3.48563 0
M  V30 1939 N 178.85 -1.27639 -0.924453 0
M  V30 1940 C 179.798 -1.10485 -2.04685 0
M  V30 1941 C 180.792 -0.0270421 -1.69378 0
M  V30 1942 O 181.998 -0.185008 -1.79047 0
M  V30 1943 H 178.373 -0.340546 -0.670472 0
M  V30 1944 H 180.344 -2.05566 -2.16298 0
M  V30 1945 C 179.093 -0.772229 -3.39016 0
M  V30 1946 H 178.416 -1.59351 -3.66671 0
M  V30 1947 H 179.856 -0.692097 -4.18313 0
M  V30 1948 C 178.315 0.523554 -3.32807 0
M  V30 1949 O 178.845 1.55702 -3.70297 0
M  V30 1950 N 177.051 0.520363 -2.85903 0
M  V30 1951 H 176.598 -0.32107 -2.55591 0
M  V30 1952 H 176.556 1.38742 -2.82131 0
M  V30 1953 N 180.328 1.1314 -1.09713 0
M  V30 1954 C 181.258 2.20748 -0.761102 0
M  V30 1955 C 182.239 1.68061 0.262566 0
M  V30 1956 O 183.424 1.93765 0.129977 0
M  V30 1957 C 180.554 3.46812 -0.184054 0
M  V30 1958 C 179.508 4.12606 -1.13757 0
M  V30 1959 C 178.834 5.33031 -0.422083 0
M  V30 1960 C 180.134 4.59603 -2.48118 0
M  V30 1961 H 181.828 2.49113 -1.66082 0
M  V30 1962 H 179.374 1.19734 -0.799987 0
M  V30 1963 H 181.327 4.21353 0.0631215 0
M  V30 1964 H 180.051 3.17851 0.750868 0
M  V30 1965 H 178.71 3.40036 -1.37007 0
M  V30 1966 H 178.358 5.00335 0.517072 0
M  V30 1967 H 178.058 5.77999 -1.05788 0
M  V30 1968 H 179.582 6.10325 -0.183277 0
M  V30 1969 H 180.996 5.25552 -2.29059 0
M  V30 1970 H 179.393 5.15321 -3.07514 0
M  V30 1971 H 180.463 3.73971 -3.08665 0
M  V30 1972 N 181.806 0.884767 1.30421 0
M  V30 1973 C 183.222 0.57874 1.48737 0
M  V30 1974 C 183.422 -0.883567 1.81095 0
M  V30 1975 O 182.478 -1.6648 1.89844 0
M  V30 1976 C 183.791 1.49171 2.61091 0
M  V30 1977 C 185.339 1.49532 2.74971 0
M  V30 1978 C 185.814 2.39421 3.90438 0
M  V30 1979 N 187.305 2.37383 3.97748 0
M  V30 1980 C 188.04 3.03647 4.86401 0
M  V30 1981 N 187.536 3.79136 5.79852 0
M  V30 1982 N 189.329 2.9288 4.79768 0
M  V30 1983 H 181.48 1.83075 1.0769 0
M  V30 1984 H 183.743 0.783637 0.533495 0
M  V30 1985 H 183.449 2.53291 2.44001 0
M  V30 1986 H 183.323 1.20113 3.57565 0
M  V30 1987 H 185.71 0.46163 2.91467 0
M  V30 1988 H 185.791 1.8262 1.79119 0
M  V30 1989 H 185.435 3.42874 3.74699 0
M  V30 1990 H 185.365 2.03649 4.85628 0
M  V30 1991 H 187.856 1.82525 3.30897 0
M  V30 1992 H 188.169 4.26789 6.4426 0
M  V30 1993 H 186.514 3.83243 5.79784 0
M  V30 1994 H 189.705 2.33433 4.05742 0
M  V30 1995 H 189.878 3.448 5.4865 0
M  V30 1996 N 183.284 -1.43765 0.645699 0
M  V30 1997 C 184.194 -2.34544 -0.0512957 0
M  V30 1998 C 185.21 -1.53455 -0.82022 0
M  V30 1999 O 186.386 -1.86133 -0.769176 0
M  V30 2000 C 183.451 -3.31636 -1.01087 0
M  V30 2001 C 182.512 -4.2863 -0.239712 0
M  V30 2002 C 181.745 -5.21084 -1.15358 0
M  V30 2003 O 181.968 -5.1779 -2.39269 0
M  V30 2004 O 180.902 -5.98593 -0.630038 0
M  V30 2005 H 184.728 -2.95624 0.695718 0
M  V30 2006 H 182.313 -1.43781 0.405882 0
M  V30 2007 H 184.195 -3.9136 -1.56254 0
M  V30 2008 H 182.87 -2.73069 -1.73824 0
M  V30 2009 H 181.777 -3.72408 0.355356 0
M  V30 2010 H 183.11 -4.90157 0.447936 0
M  V30 2011 N 184.763 -0.387143 -1.52771 0
M  V30 2012 C 186.01 0.195735 -2.01552 0
M  V30 2013 C 186.338 1.46995 -1.27369 0
M  V30 2014 O 185.593 1.92325 -0.361879 0
M  V30 2015 C 185.892 0.512209 -3.53711 0
M  V30 2016 C 185.558 -0.670202 -4.45891 0
M  V30 2017 C 184.22 -0.994586 -4.70809 0
M  V30 2018 C 186.572 -1.46134 -5.00294 0
M  V30 2019 C 183.9 -2.11169 -5.4738 0
M  V30 2020 C 186.252 -2.56903 -5.78086 0
M  V30 2021 C 184.916 -2.89852 -6.01284 0
M  V30 2022 H 184.186 0.0716246 -0.73753 0
M  V30 2023 H 186.833 -0.524046 -1.8419 0
M  V30 2024 H 185.138 1.31329 -3.69134 0
M  V30 2025 H 186.835 0.975804 -3.88946 0
M  V30 2026 H 183.425 -0.407366 -4.2666 0
M  V30 2027 H 187.609 -1.22397 -4.80971 0
M  V30 2028 H 182.865 -2.3707 -5.63567 0
M  V30 2029 H 187.039 -3.18608 -6.19243 0
M  V30 2030 H 184.666 -3.76533 -6.60399 0
M  V30 2031 N 186.241 1.57166 -0.116904 0
M  V30 2032 C 187.151 2.18745 0.847812 0
M  V30 2033 C 188.167 1.163 1.29423 0
M  V30 2034 O 189.343 1.48761 1.35765 0
M  V30 2035 C 186.408 2.77307 2.0809 0
M  V30 2036 C 185.469 3.94781 1.68661 0
M  V30 2037 C 184.702 4.50541 2.86091 0
M  V30 2038 O 184.925 4.05202 4.01456 0
M  V30 2039 O 183.859 5.41256 2.63298 0
M  V30 2040 H 187.685 3.01632 0.353778 0
M  V30 2041 H 185.27 1.49005 0.108599 0
M  V30 2042 H 187.152 3.14647 2.80313 0
M  V30 2043 H 185.827 1.97452 2.56504 0
M  V30 2044 H 184.734 3.62214 0.935518 0
M  V30 2045 H 186.067 4.76065 1.24991 0
M  V30 2046 N 187.719 -0.156864 1.56817 0
M  V30 2047 C 189.135 -0.50916 1.5126 0
M  V30 2048 C 189.335 -1.83897 0.823658 0
M  V30 2049 O 188.391 -2.49469 0.390055 0
M  V30 2050 C 189.704 -0.52857 2.96018 0
M  V30 2051 C 191.252 -0.614771 3.06903 0
M  V30 2052 C 191.727 -0.664938 4.53147 0
M  V30 2053 N 193.218 -0.727433 4.57452 0
M  V30 2054 C 193.953 -0.787067 5.67973 0
M  V30 2055 N 193.449 -0.806649 6.88088 0
M  V30 2056 N 195.242 -0.827195 5.5598 0
M  V30 2057 H 187.393 0.714935 2.00006 0
M  V30 2058 H 189.656 0.259526 0.911784 0
M  V30 2059 H 189.362 0.380154 3.49639 0
M  V30 2060 H 189.236 -1.36998 3.51442 0
M  V30 2061 H 191.623 -1.51392 2.53307 0
M  V30 2062 H 191.704 0.253597 2.5454 0
M  V30 2063 H 191.348 0.230011 5.07379 0
M  V30 2064 H 191.278 -1.54966 5.03282 0
M  V30 2065 H 193.769 -0.719998 3.70978 0
M  V30 2066 H 194.082 -0.853727 7.6807 0
M  V30 2067 H 192.427 -0.774687 6.90669 0
M  V30 2068 H 195.618 -0.808998 4.61056 0
M  V30 2069 H 195.791 -0.870206 6.4213 0
M  V30 2070 N 189.197 -1.51736 -0.425897 0
M  V30 2071 C 190.107 -1.76738 -1.54275 0
M  V30 2072 C 191.123 -0.65211 -1.61318 0
M  V30 2073 O 192.299 -0.935654 -1.78346 0
M  V30 2074 C 189.364 -1.89755 -2.90162 0
M  V30 2075 C 188.425 -3.13633 -2.93143 0
M  V30 2076 C 187.658 -3.2602 -4.22548 0
M  V30 2077 O 187.881 -2.44067 -5.15546 0
M  V30 2078 O 186.815 -4.19071 -4.32046 0
M  V30 2079 H 190.641 -2.71502 -1.36089 0
M  V30 2080 H 188.226 -1.36376 -0.610069 0
M  V30 2081 H 190.108 -2.00236 -3.70788 0
M  V30 2082 H 188.783 -0.981785 -3.08452 0
M  V30 2083 H 187.69 -3.08622 -2.11431 0
M  V30 2084 H 189.023 -4.04936 -2.798 0
M  V30 2085 N 190.675 0.682077 -1.42076 0
M  V30 2086 C 191.921 1.44428 -1.42367 0
M  V30 2087 C 192.254 1.94164 -0.0373056 0
M  V30 2088 O 191.529 1.70429 0.937239 0
M  V30 2089 C 191.812 2.64654 -2.44194 0
M  V30 2090 C 191.665 2.20596 -3.91991 0
M  V30 2091 C 192.984 3.66865 -2.431 0
M  V30 2092 H 190.103 0.523834 -0.518428 0
M  V30 2093 H 192.745 0.77576 -1.73442 0
M  V30 2094 H 190.895 3.2169 -2.17826 0
M  V30 2095 H 192.567 1.68783 -4.29313 0
M  V30 2096 H 190.81 1.52242 -4.06208 0
M  V30 2097 H 191.481 3.06921 -4.58807 0
M  V30 2098 H 193.957 3.19531 -2.66532 0
M  V30 2099 H 192.833 4.48577 -3.16339 0
M  V30 2100 H 193.094 4.17493 -1.45437 0
M  V30 2101 N 192.153 1.28127 0.917671 0
M  V30 2102 C 193.1 1.11717 2.0196 0
M  V30 2103 C 194.07 0.0153929 1.66093 0
M  V30 2104 O 195.255 0.179596 1.89953 0
M  V30 2105 C 192.395 0.780927 3.36148 0
M  V30 2106 C 191.508 1.96135 3.84909 0
M  V30 2107 C 190.643 1.56609 5.0759 0
M  V30 2108 C 189.682 2.71339 5.48673 0
M  V30 2109 N 188.819 2.32332 6.62545 0
M  V30 2110 H 193.659 2.06003 2.15329 0
M  V30 2111 H 191.196 1.02535 1.05475 0
M  V30 2112 H 193.154 0.56675 4.13333 0
M  V30 2113 H 191.784 -0.124998 3.22558 0
M  V30 2114 H 190.836 2.28777 3.03916 0
M  V30 2115 H 192.148 2.82165 4.1132 0
M  V30 2116 H 191.302 1.31374 5.92305 0
M  V30 2117 H 190.041 0.677014 4.82978 0
M  V30 2118 H 189.046 2.97276 4.62501 0
M  V30 2119 H 190.271 3.60882 5.75274 0
M  V30 2120 H 188.217 1.45889 6.39572 0
M  V30 2121 H 188.134 3.11899 6.88662 0
M  V30 2122 H 189.402 2.10371 7.50576 0
M  V30 2123 N 193.631 -1.12557 1.10312 0
M  V30 2124 C 195.042 -1.65574 0.862678 0
M  V30 2125 C 195.393 -1.86566 -0.607256 0
M  V30 2126 O 194.518 -1.59121 -1.46662 0
M  V30 2127 C 195.113 -3.00776 1.55947 0
M  V30 2128 C 193.672 -3.50748 1.36576 0
M  V30 2129 C 192.819 -2.25797 1.60968 0
M  V30 2130 H 195.77 -0.963552 1.26101 0
M  V30 2131 H 195.791 -3.67185 0.997753 0
M  V30 2132 H 195.303 -2.85465 2.62928 0
M  V30 2133 H 193.404 -3.71245 0.317531 0
M  V30 2134 H 193.517 -4.30289 2.10686 0
M  V30 2135 H 191.881 -2.32841 1.03234 0
M  V30 2136 H 192.664 -2.13043 2.69198 0
M  V30 2137 N 195.109 -0.891671 -1.2995 0
M  V30 2138 C 196.019 -0.367691 -2.31701 0
M  V30 2139 C 197.035 0.533486 -1.6562 0
M  V30 2140 O 198.211 0.424997 -1.96865 0
M  V30 2141 C 195.276 0.403406 -3.44345 0
M  V30 2142 C 194.337 -0.528328 -4.26037 0
M  V30 2143 C 193.57 0.206063 -5.33302 0
M  V30 2144 O 193.793 1.43119 -5.52153 0
M  V30 2145 O 192.727 -0.447281 -6.00236 0
M  V30 2146 H 196.553 -1.21163 -2.78484 0
M  V30 2147 H 194.138 -0.655725 -1.34241 0
M  V30 2148 H 196.02 0.839753 -4.12948 0
M  V30 2149 H 194.695 1.22354 -2.99685 0
M  V30 2150 H 193.602 -1.01362 -3.60106 0
M  V30 2151 H 194.935 -1.31465 -4.74318 0
M  V30 2152 N 196.587 1.43421 -0.653314 0
M  V30 2153 C 197.517 2.33487 0.0246656 0
M  V30 2154 C 198.498 1.49475 0.811863 0
M  V30 2155 O 199.683 1.78139 0.773322 0
M  V30 2156 C 196.813 3.32841 0.99166 0
M  V30 2157 C 195.767 4.26842 0.314568 0
M  V30 2158 C 195.093 5.16236 1.39302 0
M  V30 2159 C 196.393 5.16243 -0.793095 0
M  V30 2160 H 198.087 2.90427 -0.727481 0
M  V30 2161 H 195.633 1.39649 -0.351287 0
M  V30 2162 H 197.586 3.94747 1.47487 0
M  V30 2163 H 196.31 2.74158 1.77497 0
M  V30 2164 H 194.969 3.663 -0.148199 0
M  V30 2165 H 194.617 4.53891 2.16776 0
M  V30 2166 H 194.317 5.79948 0.945223 0
M  V30 2167 H 195.841 5.81015 1.87759 0
M  V30 2168 H 197.255 5.71958 -0.392039 0
M  V30 2169 H 195.652 5.88676 -1.16536 0
M  V30 2170 H 196.722 4.55927 -1.65103 0
M  V30 2171 N 198.065 0.39524 1.52563 0
M  V30 2172 C 199.295 -0.184675 2.05773 0
M  V30 2173 C 199.703 -1.40571 1.26635 0
M  V30 2174 O 199.046 -1.81105 0.30769 0
M  V30 2175 C 199.108 -0.613551 3.54226 0
M  V30 2176 C 198.772 0.49484 4.54313 0
M  V30 2177 C 199.769 1.3541 5.01956 0
M  V30 2178 C 197.454 0.663565 4.97898 0
M  V30 2179 C 199.448 2.36716 5.91814 0
M  V30 2180 C 197.135 1.67996 5.87555 0
M  V30 2181 C 198.133 2.53017 6.34406 0
M  V30 2182 O 197.821 3.52917 7.22291 0
M  V30 2183 H 197.553 -0.030077 0.675331 0
M  V30 2184 H 200.107 0.560708 1.97599 0
M  V30 2185 H 198.337 -1.411 3.60038 0
M  V30 2186 H 200.026 -1.11981 3.90148 0
M  V30 2187 H 200.792 1.23509 4.6901 0
M  V30 2188 H 196.671 0.0114913 4.60999 0
M  V30 2189 H 200.215 3.03113 6.28306 0
M  V30 2190 H 196.112 1.79933 6.19915 0
M  V30 2191 H 196.88 3.48996 7.40367 0
M  V30 2192 N 199.544 -1.57102 0.125237 0
M  V30 2193 C 200.769 -2.0019 -0.542101 0
M  V30 2194 C 201.194 -1.00449 -1.59034 0
M  V30 2195 O 200.552 0.0229423 -1.81285 0
M  V30 2196 C 200.6 -3.42129 -1.13929 0
M  V30 2197 O 199.704 -3.45307 -2.2547 0
M  V30 2198 H 199.045 -0.650171 -0.134812 0
M  V30 2199 H 201.575 -2.03461 0.215553 0
M  V30 2200 H 201.585 -3.80471 -1.4733 0
M  V30 2201 H 200.26 -4.14237 -0.371531 0
M  V30 2202 H 198.837 -3.1879 -1.93462 0
M  V30 2203 N 201.022 0.148545 -1.56898 0
M  V30 2204 C 201.952 1.18524 -2.01182 0
M  V30 2205 C 202.933 1.4489 -0.891123 0
M  V30 2206 O 204.118 1.55836 -1.15882 0
M  V30 2207 C 201.248 2.51879 -2.39112 0
M  V30 2208 C 200.202 2.40038 -3.54353 0
M  V30 2209 C 199.528 3.78089 -3.78091 0
M  V30 2210 C 200.828 1.88577 -4.87069 0
M  V30 2211 H 202.522 0.817029 -2.88036 0
M  V30 2212 H 200.068 0.391575 -1.38574 0
M  V30 2213 H 202.021 3.24627 -2.68692 0
M  V30 2214 H 200.745 2.90532 -1.49193 0
M  V30 2215 H 199.404 1.69742 -3.24936 0
M  V30 2216 H 199.052 4.14175 -2.85426 0
M  V30 2217 H 198.752 3.71028 -4.55645 0
M  V30 2218 H 200.276 4.52387 -4.10095 0
M  V30 2219 H 201.69 2.51117 -5.15377 0
M  V30 2220 H 200.087 1.9241 -5.68417 0
M  V30 2221 H 201.157 0.84136 -4.77545 0
M  V30 2222 N 202.5 1.5196 0.417844 0
M  V30 2223 C 203.748 1.65263 1.16329 0
M  V30 2224 C 204.069 0.380634 1.91249 0
M  V30 2225 O 203.339 -0.604214 1.86349 0
M  V30 2226 H 201.919 0.60912 0.432414 0
M  V30 2227 H 204.581 1.88969 0.477162 0
M  V30 2228 H 203.677 2.4896 1.88217 0
M  V30 2229 N 203.978 -0.674533 1.42435 0
M  V30 2230 C 205.225 -1.43459 1.42919 0
M  V30 2231 C 205.553 -1.94446 0.0457312 0
M  V30 2232 O 204.808 -1.7132 -0.94593 0
M  V30 2233 C 205.107 -2.64767 2.40069 0
M  V30 2234 C 204.773 -2.3232 3.86443 0
M  V30 2235 C 203.435 -2.23182 4.26314 0
M  V30 2236 C 205.787 -2.05977 4.78773 0
M  V30 2237 C 203.115 -1.85827 5.56494 0
M  V30 2238 C 205.467 -1.70125 6.09295 0
M  V30 2239 C 204.131 -1.59498 6.48164 0
M  V30 2240 H 203.401 -0.524952 0.522978 0
M  V30 2241 H 206.048 -0.769097 1.75377 0
M  V30 2242 H 204.353 -3.36349 2.00939 0
M  V30 2243 H 206.05 -3.22949 2.37707 0
M  V30 2244 H 202.64 -2.40334 3.54877 0
M  V30 2245 H 206.824 -2.11969 4.48757 0
M  V30 2246 H 202.08 -1.76168 5.8547 0
M  V30 2247 H 206.254 -1.48767 6.80324 0
M  V30 2248 H 203.881 -1.30322 7.48946 0
M  V30 2249 N 205.456 -1.28612 -0.910864 0
M  V30 2250 C 206.704 -1.15705 -1.65701 0
M  V30 2251 C 207.025 0.29416 -1.92769 0
M  V30 2252 O 206.295 1.20331 -1.54588 0
M  V30 2253 H 204.875 -0.425216 -0.614167 0
M  V30 2254 H 207.537 -1.61381 -1.0928 0
M  V30 2255 H 206.633 -1.6988 -2.61815 0
M  V30 2256 N 206.934 1.1197 -1.10907 0
M  V30 2257 C 207.844 2.21433 -0.774896 0
M  V30 2258 C 208.86 1.72478 0.229657 0
M  V30 2259 O 210.036 2.01288 0.0672008 0
M  V30 2260 C 207.101 3.4602 -0.216986 0
M  V30 2261 C 206.162 4.09791 -1.27944 0
M  V30 2262 C 205.395 5.28431 -0.748055 0
M  V30 2263 O 205.618 5.68823 0.423833 0
M  V30 2264 O 204.552 5.82644 -1.51027 0
M  V30 2265 H 208.378 2.5242 -1.68873 0
M  V30 2266 H 205.963 1.20399 -0.884555 0
M  V30 2267 H 207.845 4.21304 0.090059 0
M  V30 2268 H 206.52 3.16698 0.669633 0
M  V30 2269 H 205.427 3.36265 -1.63941 0
M  V30 2270 H 206.76 4.4328 -2.13925 0
M  V30 2271 N 208.412 0.89855 1.29475 0
M  V30 2272 C 209.823 0.572537 1.77705 0
M  V30 2273 C 210.174 -0.911778 1.73727 0
M  V30 2274 O 209.299 -1.71288 1.32247 0
M  V30 2275 C 209.894 1.03252 3.22683 0
M  V30 2276 C 208.453 0.757687 3.68695 0
M  V30 2277 C 207.6 1.20787 2.49612 0
M  V30 2278 H 210.551 1.08139 1.16153 0
M  V30 2279 H 210.572 0.367307 3.78723 0
M  V30 2280 H 210.084 2.11285 3.25546 0
M  V30 2281 H 208.185 -0.310079 3.71308 0
M  V30 2282 H 208.298 1.35476 4.59547 0
M  V30 2283 H 206.662 0.626888 2.46865 0
M  V30 2284 H 207.445 2.29622 2.55203 0
M  V30 2285 N 209.89 -1.43072 0.660911 0
M  V30 2286 C 211.139 -2.00942 0.174735 0
M  V30 2287 C 211.452 -1.52797 -1.22117 0
M  V30 2288 O 212.658 -2.02991 -1.80297 0
M  V30 2289 C 211.114 -3.58948 0.261559 0
M  V30 2290 C 210.722 -4.16085 1.66064 0
M  V30 2291 C 212.466 -4.24173 -0.166617 0
M  V30 2292 C 210.373 -5.6641 1.70098 0
M  V30 2293 H 209.303 -0.751483 0.0615631 0
M  V30 2294 H 211.954 -1.63955 0.824069 0
M  V30 2295 H 210.336 -3.93372 -0.455421 0
M  V30 2296 H 211.51 -3.93147 2.40359 0
M  V30 2297 H 209.825 -3.6326 2.03546 0
M  V30 2298 H 212.422 -5.34471 -0.156433 0
M  V30 2299 H 212.765 -3.98647 -1.19943 0
M  V30 2300 H 213.298 -3.94659 0.498875 0
M  V30 2301 H 210.037 -5.96715 2.71315 0
M  V30 2302 H 209.557 -5.91382 1.00139 0
M  V30 2303 H 211.236 -6.30585 1.44816 0
M  V30 2304 N 211.368 -0.403325 -1.52352 0
M  V30 2305 C 212.779 0.0675782 -1.86578 0
M  V30 2306 C 213.13 1.44941 -1.32236 0
M  V30 2307 O 212.255 2.06112 -0.659307 0
M  V30 2308 C 212.85 0.129404 -3.38553 0
M  V30 2309 C 211.409 0.544629 -3.72439 0
M  V30 2310 C 210.556 -0.284551 -2.75836 0
M  V30 2311 H 213.507 -0.620631 -1.46061 0
M  V30 2312 H 213.528 0.94581 -3.68558 0
M  V30 2313 H 213.04 -0.87645 -3.78074 0
M  V30 2314 H 211.141 1.55734 -3.38493 0
M  V30 2315 H 211.254 0.293046 -4.78203 0
M  V30 2316 H 209.618 0.252258 -2.53448 0
M  V30 2317 H 210.401 -1.28865 -3.18196 0
M  V30 2318 N 212.846 1.57033 -0.133567 0
M  V30 2319 C 214.092 1.95976 0.521649 0
M  V30 2320 C 214.425 1.01779 1.65393 0
M  V30 2321 O 213.7 0.0576581 1.94415 0
M  V30 2322 C 213.983 3.44738 1.04057 0
M  V30 2323 C 213.836 4.49711 -0.0892897 0
M  V30 2324 C 215.155 3.95682 1.92675 0
M  V30 2325 H 212.274 0.712579 0.188149 0
M  V30 2326 H 214.916 1.88813 -0.212076 0
M  V30 2327 H 213.066 3.50973 1.66583 0
M  V30 2328 H 214.738 4.55565 -0.725152 0
M  V30 2329 H 212.981 4.27261 -0.750378 0
M  V30 2330 H 213.652 5.51099 0.315284 0
M  V30 2331 H 216.128 3.91841 1.39998 0
M  V30 2332 H 215.004 5.00262 2.25897 0
M  V30 2333 H 215.265 3.37239 2.85872 0
M  V30 2334 N 214.325 -0.140222 1.56975 0
M  V30 2335 C 215.55 -0.870414 1.88251 0
M  V30 2336 C 215.975 -1.73637 0.723312 0
M  V30 2337 O 215.333 -1.78329 -0.32689 0
M  V30 2338 C 215.381 -1.69737 3.18154 0
M  V30 2339 O 214.485 -2.80229 3.02565 0
M  V30 2340 H 213.826 -0.242025 0.61832 0
M  V30 2341 H 216.356 -0.128999 2.04193 0
M  V30 2342 H 216.366 -2.09099 3.50345 0
M  V30 2343 H 215.041 -1.06152 4.02125 0
M  V30 2344 H 213.618 -2.44224 2.81796 0
M  V30 2345 N 215.803 -1.52179 -0.40978 0
M  V30 2346 C 216.766 -1.74853 -1.48186 0
M  V30 2347 C 217.766 -0.618417 -1.48433 0
M  V30 2348 O 218.956 -0.886286 -1.49969 0
M  V30 2349 C 216.088 -1.8303 -2.87598 0
M  V30 2350 H 217.281 -2.70559 -1.29374 0
M  V30 2351 H 214.834 -1.42586 -0.640233 0
M  V30 2352 H 215.569 -0.89236 -3.11781 0
M  V30 2353 H 215.354 -2.65187 -2.88822 0
M  V30 2354 H 216.844 -2.02316 -3.65319 0
M  V30 2355 N 217.281 0.66697 -1.42791 0
M  V30 2356 C 218.191 1.80962 -1.49299 0
M  V30 2357 C 219.207 1.69775 -0.381108 0
M  V30 2358 O 220.383 1.91188 -0.633188 0
M  V30 2359 C 217.448 3.17156 -1.40045 0
M  V30 2360 C 216.509 3.40242 -2.6179 0
M  V30 2361 C 215.742 4.69939 -2.52969 0
M  V30 2362 O 215.965 5.48372 -1.56985 0
M  V30 2363 O 214.899 4.94441 -3.43237 0
M  V30 2364 H 218.725 1.78427 -2.45759 0
M  V30 2365 H 216.31 0.823713 -1.24641 0
M  V30 2366 H 218.192 3.98413 -1.37276 0
M  V30 2367 H 216.867 3.20312 -0.467138 0
M  V30 2368 H 215.774 2.58802 -2.70134 0
M  V30 2369 H 217.107 3.41923 -3.54047 0
M  V30 2370 N 218.759 1.29093 0.90403 0
M  V30 2371 C 219.709 1.10482 1.99443 0
M  V30 2372 C 220.693 0.0255401 1.6088 0
M  V30 2373 O 221.885 0.24677 1.75271 0
M  V30 2374 C 219.014 0.778882 3.34348 0
M  V30 2375 C 218.1 1.89749 3.79284 0
M  V30 2376 N 218.491 3.14045 3.96497 0
M  V30 2377 C 216.789 1.78955 4.08523 0
M  V30 2378 C 217.49 3.86996 4.34292 0
M  V30 2379 N 216.466 3.14909 4.43095 0
M  V30 2380 H 220.268 2.04778 2.10815 0
M  V30 2381 H 217.782 1.20155 1.09255 0
M  V30 2382 H 219.779 0.62661 4.12164 0
M  V30 2383 H 218.439 -0.156205 3.24324 0
M  V30 2384 H 219.45 3.49548 3.82148 0
M  V30 2385 H 216.127 0.926886 4.07081 0
M  V30 2386 H 217.517 4.93941 4.55491 0
M  V30 2387 N 220.237 -1.11381 1.11499 0
M  V30 2388 C 221.185 -2.19522 0.768956 0
M  V30 2389 C 222.179 -1.67693 -0.239857 0
M  V30 2390 O 223.385 -1.79727 -0.0990755 0
M  V30 2391 H 219.76 -0.715711 0.230786 0
M  V30 2392 H 221.731 -2.45954 1.68964 0
M  V30 2393 C 220.48 -3.46945 0.229073 0
M  V30 2394 H 219.803 -3.8718 0.996596 0
M  V30 2395 H 221.243 -4.23993 0.0251441 0
M  V30 2396 C 219.702 -3.2042 -1.04079 0
M  V30 2397 O 220.232 -3.41178 -2.12038 0
M  V30 2398 N 218.438 -2.74151 -0.963823 0
M  V30 2399 H 217.985 -2.57459 -0.0851722 0
M  V30 2400 H 217.943 -2.56781 -1.81414 0
M  V30 2401 N 221.715 -0.905404 -1.28997 0
M  V30 2402 C 222.964 -0.530191 -1.94607 0
M  V30 2403 C 223.277 0.929185 -1.72121 0
M  V30 2404 O 224.483 1.41218 -2.31883 0
M  V30 2405 C 222.939 -0.897333 -3.48534 0
M  V30 2406 C 222.547 -2.37587 -3.79811 0
M  V30 2407 C 224.291 -0.592304 -4.20347 0
M  V30 2408 C 222.198 -2.68357 -5.27009 0
M  V30 2409 H 221.128 -0.194558 -0.728466 0
M  V30 2410 H 223.779 -1.10318 -1.46636 0
M  V30 2411 H 222.161 -0.253214 -3.9519 0
M  V30 2412 H 223.335 -3.06602 -3.43994 0
M  V30 2413 H 221.65 -2.6505 -3.2115 0
M  V30 2414 H 224.247 -0.798975 -5.28697 0
M  V30 2415 H 224.59 0.469474 -4.13644 0
M  V30 2416 H 225.123 -1.19452 -3.79442 0
M  V30 2417 H 221.862 -3.73355 -5.38782 0
M  V30 2418 H 221.382 -2.03971 -5.64053 0
M  V30 2419 H 223.061 -2.54922 -5.94663 0
M  V30 2420 N 223.193 1.4272 -0.668489 0
M  V30 2421 C 224.141 2.32586 0.0254857 0
M  V30 2422 C 225.135 1.49471 0.797176 0
M  V30 2423 O 226.341 1.65583 0.705853 0
M  V30 2424 H 222.716 0.751514 0.0270339 0
M  V30 2425 H 224.687 2.88823 -0.749936 0
M  V30 2426 C 223.436 3.3397 0.967427 0
M  V30 2427 H 222.759 3.97961 0.383048 0
M  V30 2428 H 224.199 3.9945 1.42181 0
M  V30 2429 C 222.658 2.65744 2.0708 0
M  V30 2430 O 223.188 2.48454 3.15648 0
M  V30 2431 N 221.394 2.2487 1.8407 0
M  V30 2432 H 220.941 2.39132 0.95778 0
M  V30 2433 H 220.899 1.79552 2.58086 0
M  V30 2434 N 224.671 0.411399 1.52136 0
M  V30 2435 C 225.601 -0.404015 2.29978 0
M  V30 2436 C 226.582 -1.04412 1.34284 0
M  V30 2437 O 227.767 -1.0527 1.63192 0
M  V30 2438 C 224.897 -1.5197 3.12286 0
M  V30 2439 C 223.851 -1.00448 4.16046 0
M  V30 2440 C 223.177 -2.21393 4.86712 0
M  V30 2441 C 224.477 -0.0569336 5.22269 0
M  V30 2442 H 226.171 0.245529 2.98392 0
M  V30 2443 H 223.717 0.119525 1.43503 0
M  V30 2444 H 225.67 -2.09715 3.6551 0
M  V30 2445 H 224.394 -2.19716 2.41646 0
M  V30 2446 H 223.053 -0.449421 3.63835 0
M  V30 2447 H 222.701 -2.87699 4.12599 0
M  V30 2448 H 222.401 -1.87571 5.56858 0
M  V30 2449 H 223.925 -2.7974 5.4275 0
M  V30 2450 H 225.339 -0.54325 5.7072 0
M  V30 2451 H 223.736 0.192594 5.99791 0
M  V30 2452 H 224.806 0.887663 4.76706 0
M  V30 2453 N 226.149 -1.5696 0.141893 0
M  V30 2454 C 227.426 -1.87553 -0.555281 0
M  V30 2455 C 227.806 -1.04699 -1.83306 0
M  V30 2456 O 227.154 -0.132346 -2.28116 0
M  V30 2457 C 227.364 -3.39093 -0.825664 0
M  V30 2458 C 228.712 -4.08199 -1.16869 0
M  V30 2459 O 229.736 -3.44242 -0.915185 0
M  V30 2460 O 228.595 -5.21139 -1.6455 0
M  V30 2461 H 225.689 -0.777188 -0.282679 0
M  V30 2462 H 228.235 -1.68763 0.17812 0
M  V30 2463 H 227.007 -3.91221 0.0788633 0
M  V30 2464 H 226.63 -3.63393 -1.61343 0
M  V30 2465 N 227.627 0.131896 -1.57047 0
M  V30 2466 C 228.855 0.856461 -1.88341 0
M  V30 2467 C 229.27 1.74042 -0.731757 0
M  V30 2468 O 228.627 1.80051 0.297945 0
M  V30 2469 C 228.678 1.70064 -3.18999 0
M  V30 2470 O 228.399 0.852278 -4.2973 0
M  V30 2471 C 229.9 2.53148 -3.63911 0
M  V30 2472 H 227.12 0.246885 -0.62393 0
M  V30 2473 H 229.664 0.120152 -2.04147 0
M  V30 2474 H 227.819 2.38984 -3.04902 0
M  V30 2475 H 228.233 1.43329 -5.04537 0
M  V30 2476 H 229.707 3.07931 -4.58129 0
M  V30 2477 H 230.184 3.29901 -2.89935 0
M  V30 2478 H 230.79 1.89492 -3.80753 0
M  V30 2479 N 229.106 1.52395 0.401703 0
M  V30 2480 C 230.036 1.79231 1.49661 0
M  V30 2481 C 231.017 0.643654 1.57452 0
M  V30 2482 O 232.202 0.889989 1.72606 0
M  V30 2483 C 229.332 1.94971 2.87409 0
M  V30 2484 C 228.286 3.10604 2.94465 0
M  V30 2485 C 227.612 3.11577 4.34538 0
M  V30 2486 C 228.912 4.49921 2.6527 0
M  V30 2487 H 230.606 2.70917 1.27454 0
M  V30 2488 H 228.152 1.30362 0.6117 0
M  V30 2489 H 230.105 2.12328 3.63999 0
M  V30 2490 H 228.829 0.999632 3.10926 0
M  V30 2491 H 227.488 2.93009 2.20321 0
M  V30 2492 H 227.136 2.14277 4.55076 0
M  V30 2493 H 226.836 3.89247 4.40183 0
M  V30 2494 H 228.36 3.31073 5.13053 0
M  V30 2495 H 229.774 4.67683 3.31581 0
M  V30 2496 H 228.171 5.29564 2.82281 0
M  V30 2497 H 229.241 4.57507 1.60671 0
M  V30 2498 N 230.584 -0.659388 1.43143 0
M  V30 2499 C 231.514 -1.78422 1.50625 0
M  V30 2500 C 232.495 -1.66216 0.361443 0
M  V30 2501 O 233.68 -1.85404 0.577834 0
M  V30 2502 C 230.81 -3.16815 1.42287 0
M  V30 2503 C 229.764 -3.43777 2.54954 0
M  V30 2504 C 229.09 -4.81905 2.31671 0
M  V30 2505 C 230.39 -3.39134 3.97222 0
M  V30 2506 H 232.084 -1.72417 2.44771 0
M  V30 2507 H 229.63 -0.828084 1.17808 0
M  V30 2508 H 231.583 -3.95253 1.46127 0
M  V30 2509 H 230.307 -3.23534 0.446435 0
M  V30 2510 H 228.966 -2.67707 2.50457 0
M  V30 2511 H 228.614 -4.85294 1.32284 0
M  V30 2512 H 228.314 -5.00906 3.07192 0
M  V30 2513 H 229.838 -5.62609 2.37284 0
M  V30 2514 H 231.252 -4.07518 4.03239 0
M  V30 2515 H 229.649 -3.69671 4.72719 0
M  V30 2516 H 230.719 -2.37426 4.22797 0
M  V30 2517 N 232.062 -1.29571 -0.897171 0
M  V30 2518 C 232.972 -1.16808 -2.03453 0
M  V30 2519 C 233.988 -0.0907471 -1.73763 0
M  V30 2520 O 235.164 -0.303312 -1.99103 0
M  V30 2521 C 232.229 -0.848264 -3.36163 0
M  V30 2522 C 231.29 -2.0097 -3.79354 0
M  V30 2523 C 230.523 -1.70505 -5.05731 0
M  V30 2524 O 230.746 -0.62718 -5.66941 0
M  V30 2525 O 229.68 -2.5538 -5.45036 0
M  V30 2526 H 233.506 -2.12325 -2.17144 0
M  V30 2527 H 231.091 -1.09047 -1.02123 0
M  V30 2528 H 232.973 -0.684581 -4.15802 0
M  V30 2529 H 231.648 0.0771071 -3.23608 0
M  V30 2530 H 230.555 -2.22863 -3.00471 0
M  V30 2531 H 231.888 -2.91636 -3.96496 0
M  V30 2532 N 233.54 1.10788 -1.12088 0
M  V30 2533 C 234.768 1.86461 -0.896651 0
M  V30 2534 C 235.183 1.80492 0.553912 0
M  V30 2535 O 234.54 1.19102 1.38278 0
M  V30 2536 C 234.591 3.35006 -1.35843 0
M  V30 2537 O 234.312 3.40866 -2.75213 0
M  V30 2538 C 235.813 4.27565 -1.1706 0
M  V30 2539 H 233.033 0.589425 -0.320654 0
M  V30 2540 H 235.577 1.40076 -1.48993 0
M  V30 2541 H 233.732 3.7887 -0.808458 0
M  V30 2542 H 234.146 4.33411 -2.9539 0
M  V30 2543 H 235.62 5.30007 -1.54263 0
M  V30 2544 H 236.097 4.3906 -0.110814 0
M  V30 2545 H 236.703 3.89501 -1.70789 0
M  V30 2546 N 235.018 0.912232 1.28515 0
M  V30 2547 C 236.267 0.540504 1.94323 0
M  V30 2548 C 236.58 -0.920044 1.72611 0
M  V30 2549 O 237.786 -1.39986 2.32629 0
M  V30 2550 C 236.242 0.915803 3.48053 0
M  V30 2551 C 235.85 2.39598 3.78546 0
M  V30 2552 C 237.594 0.614588 4.20027 0
M  V30 2553 C 235.501 2.71148 5.25578 0
M  V30 2554 H 234.431 0.198418 0.727424 0
M  V30 2555 H 237.082 1.11094 1.46049 0
M  V30 2556 H 235.464 0.274168 3.9505 0
M  V30 2557 H 236.638 3.08422 3.42364 0
M  V30 2558 H 234.953 2.66749 3.1974 0
M  V30 2559 H 237.55 0.827002 5.28266 0
M  V30 2560 H 237.893 -0.447531 4.13887 0
M  V30 2561 H 238.426 1.21462 3.78803 0
M  V30 2562 H 235.165 3.76207 5.36794 0
M  V30 2563 H 234.685 2.0696 5.62963 0
M  V30 2564 H 236.364 2.58072 5.93302 0
M  V30 2565 N 236.496 -1.42363 0.676048 0
M  V30 2566 C 237.745 -2.00745 0.196037 0
M  V30 2567 C 238.058 -1.54083 -1.20489 0
M  V30 2568 O 239.264 -2.04891 -1.78134 0
M  V30 2569 C 237.72 -3.58651 0.299616 0
M  V30 2570 C 237.328 -4.143 1.70468 0
M  V30 2571 C 239.072 -4.24326 -0.121619 0
M  V30 2572 C 236.979 -5.64574 1.76096 0
M  V30 2573 H 235.909 -0.750787 0.0695301 0
M  V30 2574 H 238.56 -1.63072 0.841412 0
M  V30 2575 H 236.942 -3.93833 -0.413673 0
M  V30 2576 H 238.116 -3.90575 2.44515 0
M  V30 2577 H 236.431 -3.61081 2.07387 0
M  V30 2578 H 239.028 -5.34607 -0.0997362 0
M  V30 2579 H 239.371 -3.99897 -1.15708 0
M  V30 2580 H 239.904 -3.94108 0.540706 0
M  V30 2581 H 236.643 -5.93804 2.77628 0
M  V30 2582 H 236.163 -5.90286 1.06406 0
M  V30 2583 H 237.842 -6.29013 1.51496 0
M  V30 2584 N 237.974 -0.419461 -1.51915 0
M  V30 2585 C 238.921 0.400927 -2.27291 0
M  V30 2586 C 239.891 1.03224 -1.30131 0
M  V30 2587 O 241.076 1.05455 -1.59009 0
M  V30 2588 C 238.216 1.50603 -3.10504 0
M  V30 2589 C 237.329 0.89462 -4.22635 0
M  V30 2590 C 236.464 1.97328 -4.93189 0
M  V30 2591 C 235.503 1.33935 -5.97267 0
M  V30 2592 N 234.64 2.3586 -6.61298 0
M  V30 2593 H 239.48 -0.248251 -2.96964 0
M  V30 2594 H 237.017 -0.134266 -1.46486 0
M  V30 2595 H 238.975 2.15783 -3.57062 0
M  V30 2596 H 237.605 2.12509 -2.42981 0
M  V30 2597 H 236.657 0.131583 -3.80172 0
M  V30 2598 H 237.969 0.391641 -4.9726 0
M  V30 2599 H 237.123 2.70211 -5.43204 0
M  V30 2600 H 235.862 2.50994 -4.18155 0
M  V30 2601 H 234.867 0.595896 -5.46561 0
M  V30 2602 H 236.092 0.810252 -6.74249 0
M  V30 2603 H 234.038 2.88639 -5.89087 0
M  V30 2604 H 233.955 1.90403 -7.3163 0
M  V30 2605 H 235.223 3.08282 -7.15949 0
M  V30 2606 N 239.452 1.56882 -0.150215 0
M  V30 2607 C 240.399 2.16922 0.788244 0
M  V30 2608 C 241.369 1.10303 1.24187 0
M  V30 2609 O 242.554 1.38359 1.31383 0
M  V30 2610 C 239.694 2.79754 2.02068 0
M  V30 2611 C 238.807 4.00775 1.61257 0
M  V30 2612 C 237.942 4.51595 2.79705 0
M  V30 2613 C 236.981 5.65074 2.35282 0
M  V30 2614 N 236.118 6.10499 3.4675 0
M  V30 2615 H 240.958 2.96779 0.269444 0
M  V30 2616 H 238.495 1.46599 0.12128 0
M  V30 2617 H 240.453 3.14329 2.74323 0
M  V30 2618 H 239.083 2.02536 2.51354 0
M  V30 2619 H 238.135 3.72158 0.787553 0
M  V30 2620 H 239.447 4.82978 1.24633 0
M  V30 2621 H 238.601 4.88242 3.60145 0
M  V30 2622 H 237.34 3.68406 3.19576 0
M  V30 2623 H 236.345 5.28 1.53283 0
M  V30 2624 H 237.57 6.50052 1.96493 0
M  V30 2625 H 235.516 5.30243 3.86236 0
M  V30 2626 H 235.433 6.87637 3.14152 0
M  V30 2627 H 236.701 6.51791 4.27537 0
M  V30 2628 N 240.93 -0.123565 1.57115 0
M  V30 2629 C 241.86 -1.15309 2.03042 0
M  V30 2630 C 242.841 -1.43454 0.914061 0
M  V30 2631 O 244.026 -1.53973 1.18347 0
M  V30 2632 C 241.156 -2.48043 2.43089 0
M  V30 2633 C 240.11 -2.3437 3.58127 0
M  V30 2634 C 239.436 -3.72026 3.84059 0
M  V30 2635 C 240.736 -1.80804 4.90007 0
M  V30 2636 H 242.43 -0.771102 2.893 0
M  V30 2637 H 239.976 -0.369479 1.39179 0
M  V30 2638 H 241.929 -3.20311 2.73823 0
M  V30 2639 H 240.653 -2.88122 1.53796 0
M  V30 2640 H 239.312 -1.64551 3.27595 0
M  V30 2641 H 238.96 -4.09582 2.91979 0
M  V30 2642 H 238.66 -3.63732 4.6149 0
M  V30 2643 H 240.184 -4.45806 4.1724 0
M  V30 2644 H 241.598 -2.42886 5.19307 0
M  V30 2645 H 239.995 -1.83343 5.71407 0
M  V30 2646 H 241.065 -0.76528 4.78823 0
M  V30 2647 N 242.408 -1.52605 -0.393616 0
M  V30 2648 C 243.318 -1.79971 -1.50492 0
M  V30 2649 C 244.334 -0.686181 -1.59899 0
M  V30 2650 O 245.51 -0.973274 -1.76322 0
M  V30 2651 C 242.575 -1.95867 -2.86072 0
M  V30 2652 C 241.636 -3.19781 -2.86424 0
M  V30 2653 C 240.869 -3.34909 -4.15538 0
M  V30 2654 O 241.092 -2.54948 -5.10253 0
M  V30 2655 O 240.026 -4.28141 -4.23059 0
M  V30 2656 H 243.852 -2.74328 -1.30299 0
M  V30 2657 H 241.437 -1.3764 -0.581005 0
M  V30 2658 H 243.319 -2.08056 -3.66457 0
M  V30 2659 H 241.994 -1.04699 -3.063 0
M  V30 2660 H 240.901 -3.13038 -2.04837 0
M  V30 2661 H 242.234 -4.1078 -2.71147 0
M  V30 2662 N 243.887 0.651787 -1.4349 0
M  V30 2663 C 244.797 1.79368 -1.5121 0
M  V30 2664 C 245.813 1.69361 -0.399093 0
M  V30 2665 O 246.989 1.90505 -0.653431 0
M  V30 2666 C 244.054 3.15653 -1.43401 0
M  V30 2667 C 243.115 3.37446 -2.65384 0
M  V30 2668 C 242.348 4.67229 -2.57939 0
M  V30 2669 O 242.571 5.46676 -1.62792 0
M  V30 2670 O 241.505 4.90773 -3.48462 0
M  V30 2671 H 245.331 1.7581 -2.47638 0
M  V30 2672 H 242.916 0.810447 -1.25507 0
M  V30 2673 H 244.798 3.96935 -1.41494 0
M  V30 2674 H 243.473 3.19798 -0.501085 0
M  V30 2675 H 242.38 2.55923 -2.72863 0
M  V30 2676 H 243.713 3.38148 -3.57654 0
M  V30 2677 N 245.365 1.30045 0.890287 0
M  V30 2678 C 246.312 1.15976 1.99545 0
M  V30 2679 C 247.282 0.0506202 1.66023 0
M  V30 2680 O 248.467 0.219847 1.89529 0
M  V30 2681 C 245.607 0.852054 3.34416 0
M  V30 2682 C 244.72 2.04255 3.80662 0
M  V30 2683 C 243.855 1.6734 5.04154 0
M  V30 2684 C 242.894 2.82916 5.42794 0
M  V30 2685 N 242.031 2.46333 6.57468 0
M  V30 2686 H 246.871 2.10524 2.10911 0
M  V30 2687 H 244.408 1.04749 1.03276 0
M  V30 2688 H 246.366 0.654296 4.12037 0
M  V30 2689 H 244.996 -0.0565502 3.2275 0
M  V30 2690 H 244.048 2.35172 2.98995 0
M  V30 2691 H 245.36 2.90826 4.05242 0
M  V30 2692 H 244.514 1.43908 5.89386 0
M  V30 2693 H 243.253 0.779308 4.81433 0
M  V30 2694 H 242.258 3.0702 4.56091 0
M  V30 2695 H 243.483 3.73004 5.6749 0
M  V30 2696 H 241.429 1.59423 6.36334 0
M  V30 2697 H 241.346 3.26436 6.81891 0
M  V30 2698 H 242.614 2.26244 7.45945 0
M  V30 2699 N 246.843 -1.10192 1.12674 0
M  V30 2700 C 248.091 -1.81845 0.881861 0
M  V30 2701 C 248.412 -1.85737 -0.593867 0
M  V30 2702 O 247.682 -1.33724 -1.4316 0
M  V30 2703 H 246.262 -0.673432 0.323261 0
M  V30 2704 H 248.924 -1.33316 1.42172 0
M  V30 2705 H 248.02 -2.85288 1.2656 0
M  V30 2706 N 248.321 -0.919034 -1.28029 0
M  V30 2707 C 249.251 -0.428581 -2.29533 0
M  V30 2708 C 250.232 0.50659 -1.62381 0
M  V30 2709 O 251.417 0.413195 -1.89753 0
M  V30 2710 C 248.547 0.327388 -3.45753 0
M  V30 2711 C 247.501 -0.519137 -4.2484 0
M  V30 2712 C 246.827 0.365486 -5.33449 0
M  V30 2713 C 248.127 -1.77914 -4.91064 0
M  V30 2714 H 249.821 -1.27687 -2.70807 0
M  V30 2715 H 247.367 -0.615428 -1.30186 0
M  V30 2716 H 249.32 0.681378 -4.15855 0
M  V30 2717 H 248.044 1.20963 -3.03374 0
M  V30 2718 H 246.703 -0.855717 -3.56473 0
M  V30 2719 H 246.351 1.24642 -4.87312 0
M  V30 2720 H 246.051 -0.197356 -5.87268 0
M  V30 2721 H 247.575 0.715241 -6.06396 0
M  V30 2722 H 248.989 -1.49374 -5.53498 0
M  V30 2723 H 247.386 -2.2848 -5.54903 0
M  V30 2724 H 248.456 -2.50382 -4.15255 0
M  V30 2725 N 249.799 1.42003 -0.683588 0
M  V30 2726 C 251.076 1.95112 -0.138075 0
M  V30 2727 C 251.456 1.62359 1.34918 0
M  V30 2728 O 250.804 0.924311 2.08971 0
M  V30 2729 C 251.014 3.46505 -0.416581 0
M  V30 2730 C 252.362 4.23254 -0.337834 0
M  V30 2731 O 253.386 3.54468 -0.35082 0
M  V30 2732 O 252.245 5.45743 -0.287596 0
M  V30 2733 H 249.339 0.826961 -0.00797996 0
M  V30 2734 H 251.885 1.51784 -0.758924 0
M  V30 2735 H 250.657 3.63582 -1.4465 0
M  V30 2736 H 250.28 3.969 0.235839 0
M  V30 2737 N 251.277 0.427512 1.51691 0
M  V30 2738 C 252.207 -0.3796 2.30394 0
M  V30 2739 C 253.188 -1.02982 1.35384 0
M  V30 2740 O 254.373 -1.03534 1.643 0
M  V30 2741 C 251.503 -1.48649 3.1388 0
M  V30 2742 C 250.457 -0.960294 4.17088 0
M  V30 2743 C 249.783 -2.16219 4.89033 0
M  V30 2744 C 251.083 -0.00153679 5.223 0
M  V30 2745 H 252.777 0.277164 2.98114 0
M  V30 2746 H 250.323 0.134739 1.43368 0
M  V30 2747 H 252.276 -2.05826 3.67714 0
M  V30 2748 H 251 -2.1714 2.43962 0
M  V30 2749 H 249.659 -0.410806 3.64291 0
M  V30 2750 H 249.307 -2.83307 4.15628 0
M  V30 2751 H 249.007 -1.81654 5.58816 0
M  V30 2752 H 250.531 -2.73968 5.45687 0
M  V30 2753 H 251.945 -0.482687 5.71264 0
M  V30 2754 H 250.342 0.256199 5.99553 0
M  V30 2755 H 251.412 0.938174 4.75738 0
M  V30 2756 N 252.755 -1.56801 0.158532 0
M  V30 2757 C 253.665 -2.20916 -0.789518 0
M  V30 2758 C 254.681 -1.1969 -1.26294 0
M  V30 2759 O 255.857 -1.52308 -1.31773 0
M  V30 2760 C 252.922 -2.82727 -2.00665 0
M  V30 2761 C 251.983 -3.99114 -1.58134 0
M  V30 2762 C 251.216 -4.57968 -2.74045 0
M  V30 2763 O 251.439 -4.15704 -3.90572 0
M  V30 2764 O 250.373 -5.48047 -2.48855 0
M  V30 2765 H 254.199 -3.02464 -0.273681 0
M  V30 2766 H 251.784 -1.4924 -0.0690548 0
M  V30 2767 H 253.666 -3.21968 -2.71872 0
M  V30 2768 H 252.341 -2.04184 -2.51179 0
M  V30 2769 H 251.248 -3.64567 -0.839155 0
M  V30 2770 H 252.581 -4.79212 -1.12325 0
M  V30 2771 N 254.233 0.115231 -1.57178 0
M  V30 2772 C 255.458 0.840354 -1.89612 0
M  V30 2773 C 255.883 1.72464 -0.750845 0
M  V30 2774 O 255.241 1.78826 0.298478 0
M  V30 2775 C 255.289 1.64654 -3.20814 0
M  V30 2776 O 254.393 2.7538 -3.06985 0
M  V30 2777 H 253.734 0.232158 -0.622092 0
M  V30 2778 H 256.264 0.0964977 -2.04372 0
M  V30 2779 H 256.274 2.03499 -3.53627 0
M  V30 2780 H 254.949 0.997416 -4.03763 0
M  V30 2781 H 253.526 2.3971 -2.85646 0
M  V30 2782 N 255.711 1.52812 0.385517 0
M  V30 2783 C 256.658 1.77838 1.47113 0
M  V30 2784 C 257.628 0.621757 1.54024 0
M  V30 2785 O 258.813 0.861846 1.70226 0
M  V30 2786 C 255.953 1.95618 2.84302 0
M  V30 2787 C 255.066 3.23316 2.86515 0
M  V30 2788 C 254.201 3.31394 4.15152 0
M  V30 2789 C 253.24 4.53201 4.1143 0
M  V30 2790 N 252.377 4.58542 5.3168 0
M  V30 2791 H 257.217 2.70482 1.25073 0
M  V30 2792 H 254.754 1.34006 0.606692 0
M  V30 2793 H 256.712 2.03912 3.63972 0
M  V30 2794 H 255.342 1.06331 3.04784 0
M  V30 2795 H 254.394 3.24076 1.99195 0
M  V30 2796 H 255.706 4.13045 2.79634 0
M  V30 2797 H 254.86 3.3889 5.03228 0
M  V30 2798 H 253.599 2.39645 4.24761 0
M  V30 2799 H 252.604 4.45827 3.21742 0
M  V30 2800 H 253.829 5.46271 4.03442 0
M  V30 2801 H 251.775 3.69686 5.41912 0
M  V30 2802 H 251.692 5.42148 5.26889 0
M  V30 2803 H 252.96 4.70296 6.21644 0
M  V30 2804 N 257.189 -0.644168 1.43834 0
M  V30 2805 C 258.6 -1.22554 1.40845 0
M  V30 2806 C 258.951 -1.9585 0.117115 0
M  V30 2807 O 258.076 -2.01734 -0.783086 0
M  V30 2808 C 258.671 -2.22907 2.55143 0
M  V30 2809 C 257.23 -2.76501 2.5539 0
M  V30 2810 C 256.377 -1.51287 2.32396 0
M  V30 2811 H 259.328 -0.43563 1.52604 0
M  V30 2812 H 259.349 -3.05259 2.2715 0
M  V30 2813 H 258.861 -1.69533 3.49114 0
M  V30 2814 H 256.962 -3.33914 1.65324 0
M  V30 2815 H 257.075 -3.23429 3.53455 0
M  V30 2816 H 255.439 -1.78957 1.81236 0
M  V30 2817 H 256.222 -0.998336 3.28463 0
M  V30 2818 N 258.668 -1.30515 -0.883378 0
M  V30 2819 C 259.578 -1.18959 -2.02203 0
M  V30 2820 C 260.594 -0.109172 -1.73657 0
M  V30 2821 O 261.77 -0.324413 -1.9877 0
M  V30 2822 C 258.835 -0.883871 -3.35244 0
M  V30 2823 C 257.896 -2.04982 -3.77201 0
M  V30 2824 C 257.129 -1.75859 -5.03894 0
M  V30 2825 O 257.352 -0.687276 -5.66244 0
M  V30 2826 O 256.286 -2.61146 -5.42297 0
M  V30 2827 H 260.112 -2.14616 -2.1488 0
M  V30 2828 H 257.697 -1.10124 -1.0096 0
M  V30 2829 H 259.579 -0.728644 -4.15053 0
M  V30 2830 H 258.254 0.0427798 -3.23672 0
M  V30 2831 H 257.161 -2.26038 -2.9809 0
M  V30 2832 H 258.494 -2.95825 -3.93381 0
M  V30 2833 N 260.146 1.09593 -1.13257 0
M  V30 2834 C 261.395 1.81105 -0.887917 0
M  V30 2835 C 261.708 1.86563 0.587672 0
M  V30 2836 O 262.914 2.54367 0.949204 0
M  V30 2837 C 261.37 3.25338 -1.53895 0
M  V30 2838 C 260.978 3.28151 -3.04994 0
M  V30 2839 C 262.722 4.01617 -1.37492 0
M  V30 2840 C 260.629 4.66897 -3.6299 0
M  V30 2841 H 259.559 0.678661 -0.328534 0
M  V30 2842 H 262.21 1.23183 -1.36008 0
M  V30 2843 H 260.592 3.8331 -0.994446 0
M  V30 2844 H 261.766 2.79953 -3.66009 0
M  V30 2845 H 260.081 2.65361 -3.20893 0
M  V30 2846 H 262.678 5.04119 -1.78235 0
M  V30 2847 H 263.021 4.15072 -0.31957 0
M  V30 2848 H 263.554 3.50082 -1.88912 0
M  V30 2849 H 260.293 4.58643 -4.68323 0
M  V30 2850 H 259.813 5.15426 -3.06752 0
M  V30 2851 H 261.492 5.3587 -3.62563 0
M  V30 2852 N 261.624 0.925811 1.2754 0
M  V30 2853 C 262.852 0.581509 1.9856 0
M  V30 2854 C 263.267 -0.840041 1.69082 0
M  V30 2855 O 262.624 -1.55805 0.950312 0
M  V30 2856 C 262.675 0.795589 3.52637 0
M  V30 2857 O 262.396 2.16121 3.81082 0
M  V30 2858 C 263.897 0.459744 4.4091 0
M  V30 2859 H 261.117 0.220538 0.633722 0
M  V30 2860 H 263.661 1.24232 1.6244 0
M  V30 2861 H 261.816 0.18161 3.86974 0
M  V30 2862 H 262.23 2.2098 4.75676 0
M  V30 2863 H 263.704 0.660244 5.48037 0
M  V30 2864 H 264.181 -0.604625 4.35018 0
M  V30 2865 H 264.787 1.05178 4.12089 0
M  V30 2866 N 263.102 -1.41638 0.69111 0
M  V30 2867 C 264.379 -1.95036 0.148421 0
M  V30 2868 C 264.759 -1.63072 -1.34055 0
M  V30 2869 O 264.107 -0.93538 -2.08478 0
M  V30 2870 C 264.317 -3.46279 0.434951 0
M  V30 2871 C 265.665 -4.23069 0.360275 0
M  V30 2872 O 266.689 -3.54277 0.369613 0
M  V30 2873 O 265.548 -5.45583 0.316534 0
M  V30 2874 H 262.642 -0.826908 0.0123654 0
M  V30 2875 H 265.188 -1.5138 0.766963 0
M  V30 2876 H 263.96 -3.6281 1.46576 0
M  V30 2877 H 263.583 -3.97019 -0.214787 0
M  V30 2878 N 264.58 -0.43555 -1.51462 0
M  V30 2879 C 265.543 0.365137 -2.26273 0
M  V30 2880 C 266.543 0.951227 -1.29647 0
M  V30 2881 O 267.733 0.825958 -1.53374 0
M  V30 2882 C 264.865 1.51645 -3.05314 0
M  V30 2883 H 266.058 -0.290474 -2.9849 0
M  V30 2884 H 263.611 -0.188676 -1.55157 0
M  V30 2885 H 264.346 2.20816 -2.3751 0
M  V30 2886 H 264.131 1.10238 -3.76284 0
M  V30 2887 H 265.621 2.08218 -3.61987 0
M  V30 2888 N 266.058 1.56714 -0.166846 0
M  V30 2889 C 267.307 1.95922 0.479318 0
M  V30 2890 C 267.62 1.05529 1.6469 0
M  V30 2891 O 268.826 1.34399 2.35901 0
M  V30 2892 C 267.282 3.48359 0.90412 0
M  V30 2893 C 266.89 4.47369 -0.237621 0
M  V30 2894 C 268.634 3.96394 1.51896 0
M  V30 2895 C 266.541 5.91039 0.206561 0
M  V30 2896 H 265.471 0.731495 0.18284 0
M  V30 2897 H 268.122 1.81728 -0.254363 0
M  V30 2898 H 266.504 3.57955 1.69365 0
M  V30 2899 H 267.678 4.49485 -1.01489 0
M  V30 2900 H 265.993 4.09366 -0.762128 0
M  V30 2901 H 268.59 5.01186 1.86325 0
M  V30 2902 H 268.933 3.39075 2.41524 0
M  V30 2903 H 269.466 3.89796 0.79395 0
M  V30 2904 H 266.205 6.52221 -0.654834 0
M  V30 2905 H 265.725 5.9224 0.949282 0
M  V30 2906 H 267.404 6.43707 0.651939 0
M  V30 2907 N 267.536 -0.106894 1.57237 0
M  V30 2908 C 268.483 -1.13049 2.01217 0
M  V30 2909 C 269.453 -1.40471 0.886403 0
M  V30 2910 O 270.638 -1.52133 1.15153 0
M  V30 2911 C 267.778 -2.4487 2.43172 0
M  V30 2912 C 266.891 -2.24281 3.69218 0
M  V30 2913 C 266.026 -3.49417 4.00101 0
M  V30 2914 C 265.065 -3.24038 5.19294 0
M  V30 2915 N 264.202 -4.41409 5.45988 0
M  V30 2916 H 269.042 -0.748456 2.88448 0
M  V30 2917 H 266.579 -0.358054 1.42676 0
M  V30 2918 H 268.537 -3.21786 2.65537 0
M  V30 2919 H 267.167 -2.80944 1.58967 0
M  V30 2920 H 266.219 -1.38224 3.54398 0
M  V30 2921 H 267.531 -2.01512 4.56283 0
M  V30 2922 H 266.685 -4.34746 4.2318 0
M  V30 2923 H 265.424 -3.75229 3.11535 0
M  V30 2924 H 264.429 -2.37102 4.96047 0
M  V30 2925 H 265.654 -2.99584 6.09447 0
M  V30 2926 H 263.6 -4.67319 4.60379 0
M  V30 2927 H 263.517 -4.21788 6.274 0
M  V30 2928 H 264.785 -5.27836 5.73593 0
M  V30 2929 N 269.014 -1.53014 -0.377408 0
M  V30 2930 C 270.26 -1.68872 -1.12294 0
M  V30 2931 C 270.593 -0.433224 -1.89306 0
M  V30 2932 O 269.868 0.569258 -1.85983 0
M  V30 2933 C 270.151 -2.93115 -2.09179 0
M  V30 2934 C 270.004 -4.28794 -1.35853 0
M  V30 2935 C 271.323 -3.12928 -3.09458 0
M  V30 2936 H 268.442 -0.614518 -0.406862 0
M  V30 2937 H 271.084 -1.85633 -0.40503 0
M  V30 2938 H 269.234 -2.78956 -2.70399 0
M  V30 2939 H 270.906 -4.54742 -0.775082 0
M  V30 2940 H 269.149 -4.28744 -0.660364 0
M  V30 2941 H 269.82 -5.11837 -2.06706 0
M  V30 2942 H 272.296 -3.26194 -2.58334 0
M  V30 2943 H 271.172 -4.01316 -3.74482 0
M  V30 2944 H 271.433 -2.27669 -3.78971 0
M  V30 2945 N 270.492 0.636531 -1.44174 0
M  V30 2946 C 271.455 1.73063 -1.50273 0
M  V30 2947 C 272.455 1.56113 -0.385397 0
M  V30 2948 O 273.645 1.61707 -0.64781 0
M  V30 2949 C 270.777 3.12096 -1.37145 0
M  V30 2950 H 271.97 1.69031 -2.47727 0
M  V30 2951 H 269.523 0.849706 -1.31186 0
M  V30 2952 H 270.258 3.21728 -0.407636 0
M  V30 2953 H 270.043 3.25805 -2.18159 0
M  V30 2954 H 271.533 3.91846 -1.44382 0
M  V30 2955 N 271.97 1.30982 0.876444 0
M  V30 2956 C 273.219 1.19658 1.62373 0
M  V30 2957 C 273.532 -0.245636 1.94052 0
M  V30 2958 O 274.738 -0.48049 2.67214 0
M  V30 2959 C 273.194 2.09433 2.92687 0
M  V30 2960 C 272.802 3.58613 2.68516 0
M  V30 2961 C 274.546 2.06893 3.70669 0
M  V30 2962 C 272.453 4.40416 3.94699 0
M  V30 2963 H 271.383 0.444268 0.609214 0
M  V30 2964 H 274.034 1.55791 0.969605 0
M  V30 2965 H 272.416 1.66191 3.59439 0
M  V30 2966 H 273.59 4.10058 2.10212 0
M  V30 2967 H 271.905 3.63063 2.03898 0
M  V30 2968 H 274.502 2.65258 4.64265 0
M  V30 2969 H 274.845 1.05448 4.02724 0
M  V30 2970 H 275.378 2.48301 3.10792 0
M  V30 2971 H 272.117 5.42591 3.67798 0
M  V30 2972 H 271.637 3.93731 4.52477 0
M  V30 2973 H 273.316 4.52294 4.62644 0
M  V30 2974 N 273.449 -1.08991 1.13837 0
M  V30 2975 C 274.695 -1.81526 0.90422 0
M  V30 2976 C 275.028 -1.85706 -0.568066 0
M  V30 2977 O 274.303 -1.32855 -1.42056 0
M  V30 2978 C 274.586 -3.27447 1.49835 0
M  V30 2979 C 274.439 -3.31512 3.04006 0
M  V30 2980 C 275.758 -4.24256 1.17025 0
M  V30 2981 H 272.877 -0.659029 0.329923 0
M  V30 2982 H 275.519 -1.27644 1.40737 0
M  V30 2983 H 273.669 -3.73462 1.07044 0
M  V30 2984 H 275.341 -2.93867 3.55584 0
M  V30 2985 H 273.584 -2.70963 3.38765 0
M  V30 2986 H 274.255 -4.34329 3.40679 0
M  V30 2987 H 276.731 -3.86549 1.54009 0
M  V30 2988 H 275.607 -5.24684 1.61237 0
M  V30 2989 H 275.868 -4.42019 0.0846274 0
M  V30 2990 N 274.927 -0.932562 -1.27047 0
M  V30 2991 C 276.175 -0.574422 -1.93765 0
M  V30 2992 C 276.496 0.887993 -1.73608 0
M  V30 2993 O 275.766 1.62999 -1.08665 0
M  V30 2994 H 274.346 -0.209451 -0.717035 0
M  V30 2995 H 277.008 -1.18601 -1.5466 0
M  V30 2996 H 276.104 -0.784841 -3.02071 0
M  V30 2997 N 276.405 1.4127 -0.698611 0
M  V30 2998 C 277.821 1.55241 -0.370462 0
M  V30 2999 C 278.021 1.67351 1.12231 0
M  V30 3000 O 277.077 1.65363 1.90818 0
M  V30 3001 C 278.39 2.78997 -1.12165 0
M  V30 3002 C 279.938 2.92797 -1.1063 0
M  V30 3003 C 280.413 4.19445 -1.8393 0
M  V30 3004 N 281.904 4.26409 -1.80914 0
M  V30 3005 C 282.639 5.23271 -2.34467 0
M  V30 3006 N 282.135 6.26145 -2.96504 0
M  V30 3007 N 283.928 5.15232 -2.24706 0
M  V30 3008 H 276.079 1.31654 -1.66676 0
M  V30 3009 H 278.342 0.635393 -0.703548 0
M  V30 3010 H 278.048 2.76268 -2.17644 0
M  V30 3011 H 277.922 3.70606 -0.702209 0
M  V30 3012 H 280.309 2.95039 -0.0597713 0
M  V30 3013 H 280.39 2.02353 -1.56483 0
M  V30 3014 H 280.034 4.17964 -2.88563 0
M  V30 3015 H 279.964 5.08866 -1.35509 0
M  V30 3016 H 282.455 3.527 -1.35687 0
M  V30 3017 H 282.768 6.96451 -3.34927 0
M  V30 3018 H 281.113 6.26638 -3.00583 0
M  V30 3019 H 284.304 4.33789 -1.7591 0
M  V30 3020 H 284.477 5.90552 -2.66745 0
M  V30 3021 N 277.883 0.443576 1.51229 0
M  V30 3022 C 279.294 -0.0180867 1.86691 0
M  V30 3023 C 279.645 -1.41384 1.36033 0
M  V30 3024 O 278.77 -2.04291 0.713722 0
M  V30 3025 C 279.365 -0.039597 3.38777 0
M  V30 3026 C 277.924 -0.445692 3.73752 0
M  V30 3027 C 277.071 0.357584 2.74985 0
M  V30 3028 H 280.022 0.659138 1.44364 0
M  V30 3029 H 280.043 -0.847761 3.70936 0
M  V30 3030 H 279.555 0.976382 3.75617 0
M  V30 3031 H 277.656 -1.46704 3.42503 0
M  V30 3032 H 277.769 -0.166155 4.78812 0
M  V30 3033 H 276.133 -0.184973 2.54027 0
M  V30 3034 H 276.916 1.37256 3.14668 0
M  V30 3035 N 279.361 -1.56624 0.175154 0
M  V30 3036 C 280.309 -2.19468 -0.770495 0
M  V30 3037 C 281.303 -1.15985 -1.23466 0
M  V30 3038 O 282.509 -1.34176 -1.19987 0
M  V30 3039 H 278.884 -0.703095 -0.266761 0
M  V30 3040 H 280.855 -2.97613 -0.216542 0
M  V30 3041 C 279.604 -2.85264 -1.98796 0
M  V30 3042 H 278.927 -3.64623 -1.63983 0
M  V30 3043 H 280.367 -3.327 -2.62843 0
M  V30 3044 C 278.826 -1.85239 -2.81404 0
M  V30 3045 O 279.356 -1.34024 -3.78682 0
M  V30 3046 N 277.562 -1.53911 -2.46495 0
M  V30 3047 H 277.109 -1.95751 -1.67449 0
M  V30 3048 H 277.067 -0.872382 -3.02054 0
M  V30 3049 N 280.839 0.0985539 -1.57292 0
M  V30 3050 C 282.085 0.803867 -1.86188 0
M  V30 3051 C 282.418 1.78549 -0.763794 0
M  V30 3052 O 281.693 1.93153 0.22855 0
M  V30 3053 C 281.976 1.53568 -3.25713 0
M  V30 3054 C 281.829 0.572277 -4.46145 0
M  V30 3055 C 283.148 2.48708 -3.63087 0
M  V30 3056 H 280.267 0.290781 -0.677211 0
M  V30 3057 H 282.909 0.0675783 -1.8988 0
M  V30 3058 H 281.059 2.16332 -3.22696 0
M  V30 3059 H 282.731 -0.0480894 -4.61275 0
M  V30 3060 H 280.974 -0.114618 -4.33649 0
M  V30 3061 H 281.645 1.12139 -5.40489 0
M  V30 3062 H 284.121 1.96039 -3.67026 0
M  V30 3063 H 282.997 2.96932 -4.61652 0
M  V30 3064 H 283.258 3.32309 -2.91588 0
M  V30 3065 N 282.317 1.53212 0.369288 0
M  V30 3066 C 283.565 1.68881 1.11012 0
M  V30 3067 C 283.886 0.441285 1.89941 0
M  V30 3068 O 283.156 -0.544623 1.88177 0
M  V30 3069 H 281.736 0.622569 0.412816 0
M  V30 3070 H 284.398 1.90391 0.416802 0
M  V30 3071 H 283.494 2.54822 1.80201 0
M  V30 3072 N 283.795 -0.628877 1.44509 0
M  V30 3073 C 284.742 -1.74074 1.51549 0
M  V30 3074 C 285.712 -1.62084 0.363021 0
M  V30 3075 O 286.897 -1.81975 0.573567 0
M  V30 3076 C 284.037 -3.12328 1.46784 0
M  V30 3077 C 283.15 -3.35277 2.72422 0
M  V30 3078 C 282.285 -4.63515 2.59475 0
M  V30 3079 C 281.324 -4.7965 3.80266 0
M  V30 3080 N 280.461 -5.99168 3.65981 0
M  V30 3081 H 285.301 -1.67392 2.46544 0
M  V30 3082 H 282.838 -0.816527 1.22357 0
M  V30 3083 H 284.796 -3.92286 1.42012 0
M  V30 3084 H 283.426 -3.18018 0.553544 0
M  V30 3085 H 282.478 -2.49242 2.87372 0
M  V30 3086 H 283.79 -3.43078 3.62076 0
M  V30 3087 H 282.944 -5.51638 2.52548 0
M  V30 3088 H 281.683 -4.58076 1.67384 0
M  V30 3089 H 280.688 -3.89957 3.87574 0
M  V30 3090 H 281.913 -4.86902 4.73395 0
M  V30 3091 H 279.859 -5.94814 2.76644 0
M  V30 3092 H 279.776 -6.08035 4.49254 0
M  V30 3093 H 281.044 -6.89846 3.6295 0
M  V30 3094 N 285.273 -1.31445 -0.869486 0
M  V30 3095 C 286.498 -1.24256 -1.66058 0
M  V30 3096 C 286.923 0.188928 -1.87149 0
M  V30 3097 O 286.281 1.13522 -1.4136 0
M  V30 3098 C 286.329 -1.9924 -3.00559 0
M  V30 3099 O 285.433 -1.33007 -3.90362 0
M  V30 3100 H 284.774 -0.428973 -0.506831 0
M  V30 3101 H 287.304 -1.73521 -1.08404 0
M  V30 3102 H 287.314 -2.08854 -3.50491 0
M  V30 3103 H 285.989 -3.03342 -2.84528 0
M  V30 3104 H 284.566 -1.31848 -3.48813 0
M  V30 3105 N 286.751 1.08385 -1.14413 0
M  V30 3106 C 287.979 1.84517 -0.936001 0
M  V30 3107 C 288.394 1.81626 0.515503 0
M  V30 3108 O 287.751 1.22008 1.35721 0
M  V30 3109 C 287.802 3.32049 -1.42918 0
M  V30 3110 O 287.523 3.34951 -2.82381 0
M  V30 3111 C 289.024 4.24986 -1.26103 0
M  V30 3112 H 286.244 0.582491 -0.333084 0
M  V30 3113 H 288.788 1.36885 -1.5193 0
M  V30 3114 H 286.943 3.7707 -0.888641 0
M  V30 3115 H 287.357 4.27048 -3.04517 0
M  V30 3116 H 288.831 5.26615 -1.6547 0
M  V30 3117 H 289.308 4.38726 -0.20392 0
M  V30 3118 H 289.914 3.85791 -1.79012 0
M  V30 3119 N 288.23 0.939286 1.26551 0
M  V30 3120 C 289.16 0.465044 2.28822 0
M  V30 3121 C 290.141 -0.480692 1.63167 0
M  V30 3122 O 291.326 -0.382955 1.90387 0
M  V30 3123 C 288.456 -0.27234 3.46231 0
M  V30 3124 C 287.41 0.58666 4.2396 0
M  V30 3125 C 286.736 -0.280573 5.33963 0
M  V30 3126 C 288.036 1.85704 4.88171 0
M  V30 3127 H 289.73 1.31979 2.68741 0
M  V30 3128 H 287.276 0.636061 1.29191 0
M  V30 3129 H 289.229 -0.615133 4.16886 0
M  V30 3130 H 287.953 -1.16121 3.0526 0
M  V30 3131 H 286.612 0.91232 3.55067 0
M  V30 3132 H 286.26 -1.16874 4.89234 0
M  V30 3133 H 285.96 0.29076 5.8688 0
M  V30 3134 H 287.484 -0.618678 6.07458 0
M  V30 3135 H 288.898 1.58161 5.51052 0
M  V30 3136 H 287.295 2.37279 5.51197 0
M  V30 3137 H 288.365 2.56957 4.11219 0
M  V30 3138 N 289.708 -1.40897 0.706093 0
M  V30 3139 C 290.955 -2.01054 0.241531 0
M  V30 3140 C 291.283 -1.55956 -1.16223 0
M  V30 3141 O 290.538 -0.766336 -1.80072 0
M  V30 3142 C 290.837 -3.5646 0.259099 0
M  V30 3143 C 290.503 -4.21106 1.61184 0
M  V30 3144 C 289.165 -4.38479 1.98216 0
M  V30 3145 C 291.517 -4.57256 2.50132 0
M  V30 3146 C 288.845 -4.89282 3.2376 0
M  V30 3147 C 291.197 -5.09454 3.7502 0
M  V30 3148 C 289.861 -5.25037 4.12181 0
M  V30 3149 H 289.131 -0.73571 0.0883825 0
M  V30 3150 H 291.778 -1.68645 0.907257 0
M  V30 3151 H 290.083 -3.88721 -0.490189 0
M  V30 3152 H 291.78 -4.00826 -0.11804 0
M  V30 3153 H 288.37 -4.07966 1.31384 0
M  V30 3154 H 292.554 -4.43479 2.228 0
M  V30 3155 H 287.81 -4.99531 3.52532 0
M  V30 3156 H 291.984 -5.36404 4.44121 0
M  V30 3157 H 289.611 -5.64164 5.09532 0
M  V30 3158 N 291.186 -0.45159 -1.50991 0
M  V30 3159 C 292.134 0.366864 -2.29689 0
M  V30 3160 C 293.128 1.00809 -1.36139 0
M  V30 3161 O 294.334 0.941427 -1.53418 0
M  V30 3162 H 290.709 0.137133 -0.739391 0
M  V30 3163 H 292.68 -0.317538 -2.96706 0
M  V30 3164 C 291.429 1.44751 -3.16137 0
M  V30 3165 H 290.752 0.963473 -3.88017 0
M  V30 3166 H 292.192 1.99315 -3.74232 0
M  V30 3167 C 290.651 2.43869 -2.32442 0
M  V30 3168 O 291.181 3.4872 -1.99392 0
M  V30 3169 N 289.387 2.15105 -1.95392 0
M  V30 3170 H 288.934 1.29866 -2.22469 0
M  V30 3171 H 288.892 2.81661 -1.39693 0
M  V30 3172 N 292.664 1.56529 -0.183458 0
M  V30 3173 C 293.627 2.17324 0.728223 0
M  V30 3174 C 294.627 1.12453 1.14939 0
M  V30 3175 O 295.817 1.37902 1.06437 0
M  V30 3176 C 292.949 2.76591 1.99274 0
M  V30 3177 H 294.142 2.99241 0.198772 0
M  V30 3178 H 291.695 1.5616 0.0661391 0
M  V30 3179 H 292.43 1.98441 2.56499 0
M  V30 3180 H 292.215 3.5335 1.69959 0
M  V30 3181 H 293.705 3.23311 2.6431 0
M  V30 3182 N 294.142 -0.090211 1.57342 0
M  V30 3183 C 295.391 -0.791531 1.8552 0
M  V30 3184 C 295.704 -1.79659 0.773441 0
M  V30 3185 O 296.91 -2.54616 0.942497 0
M  V30 3186 C 295.366 -1.45856 3.2902 0
M  V30 3187 C 294.974 -0.493017 4.45279 0
M  V30 3188 C 296.718 -2.14332 3.66418 0
M  V30 3189 C 294.625 -1.16491 5.79814 0
M  V30 3190 H 293.555 -0.299356 0.692027 0
M  V30 3191 H 296.206 -0.0445343 1.83446 0
M  V30 3192 H 294.588 -2.25318 3.2565 0
M  V30 3193 H 295.762 0.270464 4.60006 0
M  V30 3194 H 294.077 0.0863061 4.16311 0
M  V30 3195 H 296.674 -2.65344 4.64216 0
M  V30 3196 H 297.017 -2.93447 2.95287 0
M  V30 3197 H 297.55 -1.41724 3.71698 0
M  V30 3198 H 294.289 -0.41447 6.54188 0
M  V30 3199 H 293.809 -1.8997 5.68921 0
M  V30 3200 H 295.488 -1.69001 6.24538 0
M  V30 3201 N 295.62 -1.53406 -0.361157 0
M  V30 3202 C 296.55 -1.83136 -1.44857 0
M  V30 3203 C 297.531 -0.685174 -1.5569 0
M  V30 3204 O 298.716 -0.93544 -1.70186 0
M  V30 3205 C 295.846 -2.02522 -2.82138 0
M  V30 3206 C 294.8 -3.18302 -2.86126 0
M  V30 3207 C 294.126 -3.22989 -4.26125 0
M  V30 3208 C 295.426 -4.56796 -2.53248 0
M  V30 3209 H 297.12 -2.74201 -1.20226 0
M  V30 3210 H 294.666 -1.31938 -0.576922 0
M  V30 3211 H 296.619 -2.21904 -3.58241 0
M  V30 3212 H 295.343 -1.08172 -3.08166 0
M  V30 3213 H 294.002 -2.98747 -2.12475 0
M  V30 3214 H 293.65 -2.26267 -4.49235 0
M  V30 3215 H 293.35 -4.00781 -4.29708 0
M  V30 3216 H 294.874 -3.44559 -5.04094 0
M  V30 3217 H 296.288 -4.7631 -3.19064 0
M  V30 3218 H 294.685 -5.36862 -2.68141 0
M  V30 3219 H 295.755 -4.61606 -1.48484 0
M  V30 3220 N 297.098 0.621204 -1.44841 0
M  V30 3221 C 298.046 1.75385 -1.52784 0
M  V30 3222 C 299.04 1.64639 -0.398779 0
M  V30 3223 O 300.246 1.70598 -0.574137 0
M  V30 3224 H 296.621 0.579193 -0.479625 0
M  V30 3225 H 298.592 1.6581 -2.48092 0
M  V30 3226 C 297.341 3.13742 -1.4987 0
M  V30 3227 H 296.664 3.22663 -2.36069 0
M  V30 3228 H 298.104 3.92861 -1.59487 0
M  V30 3229 C 296.563 3.36175 -0.220973 0
M  V30 3230 O 297.093 3.95469 0.704782 0
M  V30 3231 N 295.299 2.90348 -0.120963 0
M  V30 3232 H 294.846 2.42278 -0.875162 0
M  V30 3233 H 294.804 3.05732 0.733168 0
M  V30 3234 N 298.576 1.31904 0.862503 0
M  V30 3235 C 299.523 1.20182 1.9704 0
M  V30 3236 C 300.493 0.0858247 1.65878 0
M  V30 3237 O 301.678 0.26 1.8902 0
M  V30 3238 C 298.818 0.922797 3.32533 0
M  V30 3239 C 297.931 2.12284 3.76244 0
M  V30 3240 C 297.066 1.77996 5.00491 0
M  V30 3241 C 296.105 2.94366 5.36671 0
M  V30 3242 N 295.242 2.60223 6.52095 0
M  V30 3243 H 300.082 2.14951 2.06398 0
M  V30 3244 H 297.619 1.06917 1.01031 0
M  V30 3245 H 299.577 0.741548 4.10557 0
M  V30 3246 H 298.207 0.0119227 3.22798 0
M  V30 3247 H 297.259 2.41461 2.9394 0
M  V30 3248 H 298.571 2.99357 3.98982 0
M  V30 3249 H 297.725 1.56377 5.862 0
M  V30 3250 H 296.464 0.881252 4.79672 0
M  V30 3251 H 295.469 3.16625 4.49476 0
M  V30 3252 H 296.694 3.84957 5.59451 0
M  V30 3253 H 294.64 1.72884 6.32809 0
M  V30 3254 H 294.557 3.40827 6.74814 0
M  V30 3255 H 295.825 2.42016 7.40978 0
M  V30 3256 N 300.054 -1.07777 1.14986 0
M  V30 3257 C 300.964 -2.18404 0.856546 0
M  V30 3258 C 301.98 -1.73211 -0.165485 0
M  V30 3259 O 303.156 -2.01399 0.00755219 0
M  V30 3260 C 300.221 -3.44977 0.34526 0
M  V30 3261 C 299.282 -4.0476 1.43065 0
M  V30 3262 C 298.515 -5.25291 0.943663 0
M  V30 3263 O 298.738 -5.70004 -0.212426 0
M  V30 3264 O 297.672 -5.76638 1.72547 0
M  V30 3265 H 301.498 -2.45978 1.78125 0
M  V30 3266 H 299.083 -1.17033 0.928631 0
M  V30 3267 H 300.965 -4.21348 0.0663671 0
M  V30 3268 H 299.64 -3.18965 -0.551631 0
M  V30 3269 H 298.547 -3.29949 1.76309 0
M  V30 3270 H 299.88 -4.35035 2.30229 0
M  V30 3271 N 301.532 -0.945985 -1.26051 0
M  V30 3272 C 302.948 -0.649045 -1.45807 0
M  V30 3273 C 303.148 0.796158 -1.85104 0
M  V30 3274 O 302.204 1.57233 -1.97571 0
M  V30 3275 C 303.517 -1.61458 -2.53677 0
M  V30 3276 C 305.065 -1.62481 -2.67524 0
M  V30 3277 C 305.54 -2.57776 -3.7857 0
M  V30 3278 N 307.031 -2.5609 -3.85969 0
M  V30 3279 C 307.766 -3.26508 -4.7136 0
M  V30 3280 N 307.262 -4.0637 -5.61102 0
M  V30 3281 N 309.055 -3.15437 -4.65248 0
M  V30 3282 H 301.206 -1.88005 -0.988328 0
M  V30 3283 H 303.469 -0.808198 -0.4955 0
M  V30 3284 H 303.175 -2.64644 -2.31638 0
M  V30 3285 H 303.049 -1.37036 -3.51427 0
M  V30 3286 H 305.436 -0.600167 -2.88933 0
M  V30 3287 H 305.517 -1.90958 -1.70202 0
M  V30 3288 H 305.161 -3.60361 -3.57913 0
M  V30 3289 H 305.091 -2.26587 -4.75359 0
M  V30 3290 H 307.582 -1.98105 -3.21812 0
M  V30 3291 H 307.895 -4.57042 -6.23164 0
M  V30 3292 H 306.24 -4.10469 -5.60839 0
M  V30 3293 H 309.431 -2.52525 -3.94143 0
M  V30 3294 H 309.604 -3.70584 -5.31575 0
M  V30 3295 N 303.011 1.40521 -0.713556 0
M  V30 3296 C 303.974 2.29098 -0.0684347 0
M  V30 3297 C 304.974 1.45268 0.689472 0
M  V30 3298 O 306.164 1.66205 0.521677 0
M  V30 3299 C 303.296 3.28446 0.913024 0
M  V30 3300 H 304.489 2.87645 -0.84855 0
M  V30 3301 H 302.042 1.48809 -0.47809 0
M  V30 3302 H 302.777 2.74913 1.72027 0
M  V30 3303 H 302.562 3.90327 0.372472 0
M  V30 3304 H 304.052 3.94777 1.36165 0
M  V30 3305 N 304.489 0.459591 1.5075 0
M  V30 3306 C 305.419 -0.330644 2.31147 0
M  V30 3307 C 306.4 -1.00087 1.37538 0
M  V30 3308 O 307.585 -1.00025 1.66459 0
M  V30 3309 C 304.715 -1.41958 3.16962 0
M  V30 3310 C 303.669 -0.871608 4.19031 0
M  V30 3311 C 302.995 -2.05797 4.9351 0
M  V30 3312 C 304.295 0.109251 5.22186 0
M  V30 3313 H 305.989 0.340336 2.97459 0
M  V30 3314 H 303.535 0.165119 1.4305 0
M  V30 3315 H 305.488 -1.9798 3.71997 0
M  V30 3316 H 304.212 -2.11917 2.48513 0
M  V30 3317 H 302.871 -0.333442 3.6508 0
M  V30 3318 H 302.519 -2.74427 4.21544 0
M  V30 3319 H 302.219 -1.6976 5.62544 0
M  V30 3320 H 303.743 -2.62331 5.51375 0
M  V30 3321 H 305.157 -0.361405 5.7216 0
M  V30 3322 H 303.554 0.383316 5.98875 0
M  V30 3323 H 304.624 1.03887 4.73641 0
M  V30 3324 N 305.967 -1.56429 0.191757 0
M  V30 3325 C 307.213 -1.97777 -0.448554 0
M  V30 3326 C 307.546 -1.07847 -1.61501 0
M  V30 3327 O 306.821 -0.129774 -1.94067 0
M  V30 3328 C 307.104 -3.48362 -0.911906 0
M  V30 3329 C 306.957 -4.4907 0.256136 0
M  V30 3330 C 308.276 -4.02561 -1.77857 0
M  V30 3331 H 305.395 -0.719071 -0.161572 0
M  V30 3332 H 308.037 -1.87896 0.282007 0
M  V30 3333 H 306.187 -3.56914 -1.53442 0
M  V30 3334 H 307.859 -4.5256 0.893733 0
M  V30 3335 H 306.102 -4.24181 0.908436 0
M  V30 3336 H 306.773 -5.51889 -0.11053 0
M  V30 3337 H 309.249 -3.96767 -1.25359 0
M  V30 3338 H 308.125 -5.08301 -2.07174 0
M  V30 3339 H 308.386 -3.47616 -2.73158 0
M  V30 3340 N 307.445 0.0818655 -1.57387 0
M  V30 3341 C 308.67 0.799946 -1.91352 0
M  V30 3342 C 309.095 1.70833 -0.787258 0
M  V30 3343 O 308.453 1.79419 0.26048 0
M  V30 3344 C 308.501 1.57812 -3.24234 0
M  V30 3345 O 307.605 2.68806 -3.12757 0
M  V30 3346 H 306.946 0.21891 -0.626877 0
M  V30 3347 H 309.476 0.0531256 -2.04531 0
M  V30 3348 H 309.486 1.95952 -3.57864 0
M  V30 3349 H 308.161 0.911548 -4.05788 0
M  V30 3350 H 306.738 2.33597 -2.90666 0
M  V30 3351 N 308.923 1.53595 0.353017 0
M  V30 3352 C 310.334 1.61937 0.929153 0
M  V30 3353 C 310.685 0.494686 1.89861 0
M  V30 3354 O 309.81 -0.377017 2.1309 0
M  V30 3355 C 310.405 2.93526 1.69199 0
M  V30 3356 C 308.964 3.04161 2.21727 0
M  V30 3357 C 308.111 2.57322 1.03348 0
M  V30 3358 H 311.062 1.58155 0.131431 0
M  V30 3359 H 311.083 2.82034 2.55416 0
M  V30 3360 H 310.595 3.75362 0.986144 0
M  V30 3361 H 308.696 2.26938 2.95516 0
M  V30 3362 H 308.809 4.09465 2.48748 0
M  V30 3363 H 307.173 2.12499 1.40414 0
M  V30 3364 H 307.956 3.41588 0.342428 0
M  V30 3365 N 310.401 -0.613514 1.45168 0
M  V30 3366 C 311.65 -1.36874 1.4815 0
M  V30 3367 C 311.963 -1.952 0.124982 0
M  V30 3368 O 313.169 -2.71481 0.0324176 0
M  V30 3369 C 311.625 -2.47905 2.60904 0
M  V30 3370 C 311.233 -1.96016 4.02842 0
M  V30 3371 C 312.977 -3.24965 2.73126 0
M  V30 3372 C 310.884 -3.04494 5.06988 0
M  V30 3373 H 309.814 -0.514428 0.551253 0
M  V30 3374 H 312.465 -0.658182 1.7129 0
M  V30 3375 H 310.847 -3.21618 2.31037 0
M  V30 3376 H 312.021 -1.29051 4.4236 0
M  V30 3377 H 310.336 -1.31719 3.95018 0
M  V30 3378 H 312.933 -4.05865 3.48106 0
M  V30 3379 H 313.276 -3.75588 1.79553 0
M  V30 3380 H 313.809 -2.5835 3.0249 0
M  V30 3381 H 310.548 -2.58795 6.0225 0
M  V30 3382 H 310.068 -3.70044 4.72046 0
M  V30 3383 H 311.747 -3.68976 5.31475 0
M  V30 3384 N 311.879 -1.3236 -0.855495 0
M  V30 3385 C 313.29 -1.2056 -1.42556 0
M  V30 3386 C 313.641 0.182209 -1.95352 0
M  V30 3387 O 312.766 1.08088 -1.87472 0
M  V30 3388 C 313.361 -2.1826 -2.59129 0
M  V30 3389 C 311.92 -2.10351 -3.12137 0
M  V30 3390 C 311.067 -2.06674 -1.84882 0
M  V30 3391 H 314.018 -1.442 -0.662727 0
M  V30 3392 H 314.039 -1.78064 -3.36264 0
M  V30 3393 H 313.551 -3.19257 -2.20673 0
M  V30 3394 H 311.652 -1.12599 -3.55179 0
M  V30 3395 H 311.765 -3.00135 -3.73438 0
M  V30 3396 H 310.129 -1.51901 -2.04446 0
M  V30 3397 H 310.912 -3.09451 -1.48643 0
M  V30 3398 N 313.357 1.07166 -1.15556 0
M  V30 3399 C 314.605 1.79443 -0.929764 0
M  V30 3400 C 314.926 1.87246 0.544414 0
M  V30 3401 O 314.196 1.37473 1.39564 0
M  V30 3402 H 312.776 0.664625 -0.341003 0
M  V30 3403 H 315.438 1.29499 -1.45657 0
M  V30 3404 H 314.534 2.81832 -1.34079 0
M  V30 3405 N 314.835 0.952656 1.25548 0
M  V30 3406 C 316.063 0.623496 1.97282 0
M  V30 3407 C 316.478 -0.803987 1.70826 0
M  V30 3408 O 315.835 -1.53755 0.983147 0
M  V30 3409 C 315.886 0.870209 3.5087 0
M  V30 3410 O 315.607 2.24156 3.76412 0
M  V30 3411 C 317.108 0.553164 4.39835 0
M  V30 3412 H 314.328 0.233931 0.628902 0
M  V30 3413 H 316.872 1.27649 1.59768 0
M  V30 3414 H 315.027 0.263652 3.86502 0
M  V30 3415 H 315.441 2.31021 4.70882 0
M  V30 3416 H 316.915 0.776342 5.46513 0
M  V30 3417 H 317.392 -0.512215 4.36203 0
M  V30 3418 H 317.998 1.13896 4.09766 0
M  V30 3419 N 316.313 -1.40141 0.720998 0
M  V30 3420 C 317.541 -2.05096 0.272656 0
M  V30 3421 C 317.956 -1.54334 -1.0875 0
M  V30 3422 O 317.313 -0.702211 -1.6845 0
M  V30 3423 C 317.364 -3.60636 0.249835 0
M  V30 3424 O 317.085 -4.09526 1.55629 0
M  V30 3425 C 318.586 -4.42772 -0.216396 0
M  V30 3426 H 315.806 -0.659897 0.121558 0
M  V30 3427 H 318.35 -1.79449 0.980723 0
M  V30 3428 H 316.505 -3.85232 -0.409237 0
M  V30 3429 H 316.919 -5.03758 1.4604 0
M  V30 3430 H 318.393 -5.51702 -0.181212 0
M  V30 3431 H 318.87 -4.20756 -1.25941 0
M  V30 3432 H 319.476 -4.23294 0.412596 0
M  V30 3433 N 317.792 -0.46758 -1.50504 0
M  V30 3434 C 319.208 -0.121533 -1.59137 0
M  V30 3435 C 319.408 1.3717 -1.47603 0
M  V30 3436 O 318.464 2.14464 -1.33272 0
M  V30 3437 C 319.777 -0.6686 -2.93173 0
M  V30 3438 C 321.325 -0.631716 -3.06559 0
M  V30 3439 C 321.8 -1.15627 -4.43164 0
M  V30 3440 N 323.291 -1.11553 -4.49567 0
M  V30 3441 C 324.026 -1.49195 -5.5365 0
M  V30 3442 N 323.522 -1.94269 -6.65005 0
M  V30 3443 N 325.315 -1.4082 -5.44175 0
M  V30 3444 H 317.466 -1.4388 -1.56245 0
M  V30 3445 H 319.729 -0.594784 -0.738198 0
M  V30 3446 H 319.435 -1.71453 -3.07078 0
M  V30 3447 H 319.309 -0.11021 -3.77039 0
M  V30 3448 H 321.696 0.405297 -2.92304 0
M  V30 3449 H 321.777 -1.22687 -2.24458 0
M  V30 3450 H 321.421 -2.1919 -4.58168 0
M  V30 3451 H 321.351 -0.537365 -5.23851 0
M  V30 3452 H 323.842 -0.784895 -3.69659 0
M  V30 3453 H 324.155 -2.21148 -7.40482 0
M  V30 3454 H 322.5 -1.98219 -6.66134 0
M  V30 3455 H 325.691 -1.0545 -4.56068 0
M  V30 3456 H 325.864 -1.70481 -6.25172 0
M  V30 3457 N 319.27 1.56325 -0.20005 0
M  V30 3458 C 320.547 1.89484 0.48529 0
M  V30 3459 C 320.927 1.1143 1.79294 0
M  V30 3460 O 320.275 0.216919 2.27468 0
M  V30 3461 C 320.485 3.41923 0.699243 0
M  V30 3462 C 321.833 4.12256 1.01638 0
M  V30 3463 O 322.857 3.47402 0.786792 0
M  V30 3464 O 321.716 5.26887 1.45095 0
M  V30 3465 H 318.81 0.787144 0.253639 0
M  V30 3466 H 321.356 1.67985 -0.240633 0
M  V30 3467 H 320.128 3.90658 -0.224008 0
M  V30 3468 H 319.751 3.69131 1.47744 0
M  V30 3469 N 320.748 -0.0735177 1.57428 0
M  V30 3470 C 322.159 -0.625551 1.75908 0
M  V30 3471 C 322.51 -1.78 0.825261 0
M  V30 3472 O 321.635 -2.16398 0.00893964 0
M  V30 3473 C 322.23 -1.14155 3.18989 0
M  V30 3474 C 320.789 -1.63946 3.38819 0
M  V30 3475 C 319.936 -0.558151 2.71625 0
M  V30 3476 H 322.887 0.152647 1.57964 0
M  V30 3477 H 322.908 -2.0104 3.23053 0
M  V30 3478 H 322.42 -0.301116 3.8693 0
M  V30 3479 H 320.521 -2.50321 2.7599 0
M  V30 3480 H 320.634 -1.71759 4.47253 0
M  V30 3481 H 318.998 -1.00278 2.34129 0
M  V30 3482 H 319.781 0.272071 3.4222 0
M  V30 3483 N 322.226 -1.5378 -0.344866 0
M  V30 3484 C 323.472 -1.71216 -1.08687 0
M  V30 3485 C 323.805 -0.473281 -1.88345 0
M  V30 3486 O 323.08 0.52968 -1.87149 0
M  V30 3487 C 323.363 -2.97486 -2.02914 0
M  V30 3488 C 323.216 -4.31579 -1.26727 0
M  V30 3489 C 324.535 -3.19422 -3.0275 0
M  V30 3490 H 321.654 -0.62301 -0.393735 0
M  V30 3491 H 324.296 -1.8645 -0.365563 0
M  V30 3492 H 322.446 -2.84629 -2.64421 0
M  V30 3493 H 324.118 -4.56284 -0.67845 0
M  V30 3494 H 322.361 -4.30049 -0.569273 0
M  V30 3495 H 323.032 -5.16106 -1.95803 0
M  V30 3496 H 325.508 -3.316 -2.51357 0
M  V30 3497 H 324.384 -4.09169 -3.65885 0
M  V30 3498 H 324.645 -2.35656 -3.74057 0
M  V30 3499 N 323.704 0.605807 -1.45491 0
M  V30 3500 C 324.981 1.36522 -1.40075 0
M  V30 3501 C 325.361 2.10976 -0.0722744 0
M  V30 3502 O 324.709 2.08007 0.945808 0
M  V30 3503 C 324.919 2.31056 -2.61561 0
M  V30 3504 C 326.267 2.93608 -3.06724 0
M  V30 3505 O 327.291 2.41376 -2.61946 0
M  V30 3506 O 326.15 3.88421 -3.84437 0
M  V30 3507 H 323.244 0.612248 -0.555951 0
M  V30 3508 H 325.79 0.628747 -1.57623 0
M  V30 3509 H 324.562 1.75311 -3.49831 0
M  V30 3510 H 324.185 3.12081 -2.46356 0
M  V30 3511 N 325.182 1.32811 0.848464 0
M  V30 3512 C 326.459 1.14334 1.58704 0
M  V30 3513 C 326.839 -0.293948 2.09043 0
M  V30 3514 O 326.187 -1.29153 1.88499 0
M  V30 3515 C 326.397 2.17626 2.72837 0
M  V30 3516 C 327.745 2.51282 3.42261 0
M  V30 3517 O 328.769 2.16219 2.83068 0
M  V30 3518 O 327.628 3.11413 4.49093 0
M  V30 3519 H 324.722 0.441601 0.699226 0
M  V30 3520 H 327.268 1.44362 0.892053 0
M  V30 3521 H 326.04 3.14211 2.3321 0
M  V30 3522 H 325.663 1.88628 3.50008 0
M  V30 3523 N 326.66 -1.06551 1.16123 0
M  V30 3524 C 327.57 -2.17484 0.879662 0
M  V30 3525 C 328.586 -1.73377 -0.147104 0
M  V30 3526 O 329.762 -2.01379 0.0289128 0
M  V30 3527 C 326.827 -3.44591 0.381829 0
M  V30 3528 C 325.888 -4.0322 1.4735 0
M  V30 3529 C 325.121 -5.24261 0.999324 0
M  V30 3530 O 325.344 -5.70198 -0.151957 0
M  V30 3531 O 324.278 -5.74775 1.78653 0
M  V30 3532 H 328.104 -2.44075 1.80724 0
M  V30 3533 H 325.689 -1.16042 0.940992 0
M  V30 3534 H 327.571 -4.21254 0.111053 0
M  V30 3535 H 326.246 -3.19532 -0.51777 0
M  V30 3536 H 325.153 -3.2806 1.79798 0
M  V30 3537 H 326.486 -4.32568 2.34831 0
M  V30 3538 N 328.138 -0.959301 -1.25041 0
M  V30 3539 C 329.384 -0.617525 -1.9317 0
M  V30 3540 C 329.717 0.843981 -1.74902 0
M  V30 3541 O 328.992 1.60615 -1.09696 0
M  V30 3542 C 329.275 -0.982736 -3.46431 0
M  V30 3543 C 329.128 -2.50032 -3.73904 0
M  V30 3544 C 330.447 -0.511176 -4.37121 0
M  V30 3545 H 327.566 -0.22582 -0.701552 0
M  V30 3546 H 330.208 -1.19679 -1.4757 0
M  V30 3547 H 328.358 -0.489806 -3.854 0
M  V30 3548 H 330.03 -3.06737 -3.44544 0
M  V30 3549 H 328.273 -2.93598 -3.19348 0
M  V30 3550 H 328.944 -2.70635 -4.81103 0
M  V30 3551 H 331.42 -0.934075 -4.0548 0
M  V30 3552 H 330.296 -0.795361 -5.43107 0
M  V30 3553 H 330.557 0.588834 -4.38161 0
M  V30 3554 N 329.616 1.39756 -0.72842 0
M  V30 3555 C 330.863 2.00645 -0.273487 0
M  V30 3556 C 331.191 1.57786 1.13727 0
M  V30 3557 O 330.446 0.794886 1.7883 0
M  V30 3558 C 330.745 3.56002 -0.315776 0
M  V30 3559 C 330.411 4.18489 -1.67863 0
M  V30 3560 C 329.073 4.3527 -2.05166 0
M  V30 3561 C 331.425 4.53219 -2.57375 0
M  V30 3562 C 328.753 4.84069 -3.31503 0
M  V30 3563 C 331.105 5.03423 -3.83077 0
M  V30 3564 C 329.769 5.18413 -4.20481 0
M  V30 3565 H 329.039 0.734211 -0.100076 0
M  V30 3566 H 331.686 1.6718 -0.933972 0
M  V30 3567 H 329.991 3.89452 0.428285 0
M  V30 3568 H 331.688 4.00963 0.0542575 0
M  V30 3569 H 328.278 4.05824 -1.37858 0
M  V30 3570 H 332.462 4.39878 -2.29827 0
M  V30 3571 H 327.718 4.93859 -3.60435 0
M  V30 3572 H 331.892 5.2927 -4.52599 0
M  V30 3573 H 329.519 5.55987 -5.18443 0
M  V30 3574 N 331.094 0.475555 1.50254 0
M  V30 3575 C 332.343 -0.0795996 2.01543 0
M  V30 3576 C 332.656 -1.4038 1.36209 0
M  V30 3577 O 333.862 -2.04415 1.7868 0
M  V30 3578 C 332.318 -0.192363 3.59386 0
M  V30 3579 C 331.926 1.12367 4.33679 0
M  V30 3580 C 333.67 -0.699238 4.18701 0
M  V30 3581 C 331.577 0.974453 5.83317 0
M  V30 3582 H 330.507 -0.0335228 0.753254 0
M  V30 3583 H 333.158 0.611128 1.73025 0
M  V30 3584 H 331.54 -0.946974 3.84511 0
M  V30 3585 H 332.714 1.88958 4.20276 0
M  V30 3586 H 331.029 1.562 3.85993 0
M  V30 3587 H 333.626 -0.827978 5.28251 0
M  V30 3588 H 333.969 -1.69171 3.80377 0
M  V30 3589 H 334.502 -0.00188807 3.978 0
M  V30 3590 H 331.241 1.94042 6.26121 0
M  V30 3591 H 330.761 0.248998 5.99283 0
M  V30 3592 H 332.44 0.642867 6.43798 0
M  V30 3593 N 332.573 -1.56217 0.208337 0
M  V30 3594 C 333.85 -1.89739 -0.475234 0
M  V30 3595 C 334.23 -1.1238 -1.78701 0
M  V30 3596 O 333.578 -0.228979 -2.2735 0
M  V30 3597 C 333.788 -3.42289 -0.681101 0
M  V30 3598 C 335.136 -4.12789 -0.994507 0
M  V30 3599 O 336.16 -3.47814 -0.768357 0
M  V30 3600 O 335.019 -5.27649 -1.42299 0
M  V30 3601 H 332.113 -0.788478 -0.249461 0
M  V30 3602 H 334.659 -1.67855 0.249538 0
M  V30 3603 H 333.431 -3.90534 0.244722 0
M  V30 3604 H 333.054 -3.69909 -1.45785 0
M  V30 3605 N 334.051 0.0651679 -1.57465 0
M  V30 3606 C 335.299 0.761555 -1.87202 0
M  V30 3607 C 335.62 1.77778 -0.801243 0
M  V30 3608 O 334.89 1.95166 0.16937 0
M  V30 3609 H 333.47 0.284251 -0.690804 0
M  V30 3610 H 336.132 0.0396827 -1.9486 0
M  V30 3611 H 335.228 1.27365 -2.84929 0
M  V30 3612 N 335.529 1.53961 0.336706 0
M  V30 3613 C 336.945 1.44378 0.680241 0
M  V30 3614 C 337.145 0.606034 1.9217 0
M  V30 3615 O 336.201 0.099688 2.52303 0
M  V30 3616 C 337.514 2.87945 0.8665 0
M  V30 3617 C 339.062 2.97763 0.964682 0
M  V30 3618 C 339.537 4.42453 1.18321 0
M  V30 3619 N 341.028 4.46008 1.25025 0
M  V30 3620 C 341.763 5.55102 1.43697 0
M  V30 3621 N 341.259 6.7419 1.59498 0
M  V30 3622 N 343.052 5.42727 1.463 0
M  V30 3623 H 335.203 2.06918 -0.479455 0
M  V30 3624 H 337.466 0.935634 -0.152619 0
M  V30 3625 H 337.172 3.51691 0.0256937 0
M  V30 3626 H 337.046 3.33293 1.76623 0
M  V30 3627 H 339.433 2.34153 1.796 0
M  V30 3628 H 339.514 2.55766 0.041708 0
M  V30 3629 H 339.158 5.06645 0.356788 0
M  V30 3630 H 339.088 4.82048 2.11985 0
M  V30 3631 H 341.579 3.60196 1.14312 0
M  V30 3632 H 341.892 7.53095 1.734 0
M  V30 3633 H 340.237 6.77123 1.56621 0
M  V30 3634 H 343.428 4.48647 1.33543 0
M  V30 3635 H 343.601 6.27806 1.6051 0
M  V30 3636 N 337.007 -0.598083 1.45811 0
M  V30 3637 C 337.954 -1.7082 1.55207 0
M  V30 3638 C 338.924 -1.61278 0.39732 0
M  V30 3639 O 340.109 -1.80717 0.612038 0
M  V30 3640 C 337.249 -3.09144 1.53376 0
M  V30 3641 C 336.362 -3.29423 2.79472 0
M  V30 3642 C 335.497 -4.57907 2.69248 0
M  V30 3643 C 334.536 -4.71476 3.90354 0
M  V30 3644 N 333.673 -5.9127 3.78608 0
M  V30 3645 H 338.513 -1.62125 2.50039 0
M  V30 3646 H 336.05 -0.790389 1.24062 0
M  V30 3647 H 338.008 -3.89186 1.50301 0
M  V30 3648 H 336.638 -3.16773 0.620876 0
M  V30 3649 H 335.69 -2.43091 2.92594 0
M  V30 3650 H 337.002 -3.3532 3.69272 0
M  V30 3651 H 336.156 -5.46157 2.64192 0
M  V30 3652 H 334.895 -4.54423 1.77063 0
M  V30 3653 H 333.9 -3.81648 3.95759 0
M  V30 3654 H 335.125 -4.76751 4.83617 0
M  V30 3655 H 333.071 -5.88813 2.89199 0
M  V30 3656 H 332.988 -5.98369 4.6205 0
M  V30 3657 H 334.256 -6.81992 3.77501 0
M  V30 3658 N 338.485 -1.33259 -0.841409 0
M  V30 3659 C 339.715 -1.2742 -1.62628 0
M  V30 3660 C 340.123 0.157604 -1.88542 0
M  V30 3661 O 339.466 1.10938 -1.46419 0
M  V30 3662 C 339.528 -1.97797 -3.00194 0
M  V30 3663 C 339.192 -3.47109 -2.97261 0
M  V30 3664 C 340.189 -4.42358 -2.73159 0
M  V30 3665 C 337.874 -3.89247 -3.17478 0
M  V30 3666 C 339.868 -5.77718 -2.69296 0
M  V30 3667 C 337.555 -5.24713 -3.13241 0
M  V30 3668 C 338.553 -6.1876 -2.89181 0
M  V30 3669 O 338.241 -7.51745 -2.84843 0
M  V30 3670 H 337.973 -0.440436 -0.512827 0
M  V30 3671 H 340.527 -1.76153 -1.05638 0
M  V30 3672 H 338.757 -1.43652 -3.59028 0
M  V30 3673 H 340.446 -1.8549 -3.61038 0
M  V30 3674 H 341.212 -4.11127 -2.57294 0
M  V30 3675 H 337.091 -3.16456 -3.35226 0
M  V30 3676 H 340.635 -6.51097 -2.50436 0
M  V30 3677 H 336.532 -5.55569 -3.28654 0
M  V30 3678 H 337.3 -7.61262 -3.00702 0
M  V30 3679 N 339.963 1.05934 -1.16686 0
M  V30 3680 C 341.209 1.79065 -0.95203 0
M  V30 3681 C 341.542 1.87147 0.518629 0
M  V30 3682 O 340.817 1.36574 1.38484 0
M  V30 3683 C 341.1 3.23359 -1.58464 0
M  V30 3684 C 340.953 3.23336 -3.12689 0
M  V30 3685 C 342.272 4.21004 -1.28232 0
M  V30 3686 H 339.391 0.65005 -0.34728 0
M  V30 3687 H 342.033 1.23868 -1.44072 0
M  V30 3688 H 340.183 3.70493 -1.16908 0
M  V30 3689 H 341.855 2.84336 -3.6325 0
M  V30 3690 H 340.098 2.61886 -3.4583 0
M  V30 3691 H 340.769 4.25144 -3.52075 0
M  V30 3692 H 343.245 3.8233 -1.64203 0
M  V30 3693 H 342.121 5.20225 -1.75092 0
M  V30 3694 H 342.382 4.41639 -0.201791 0
M  V30 3695 N 341.441 0.965919 1.2453 0
M  V30 3696 C 342.688 0.626831 1.92554 0
M  V30 3697 C 343.016 -0.837739 1.75534 0
M  V30 3698 O 342.271 -1.61793 1.10098 0
M  V30 3699 C 342.57 0.945428 3.44669 0
M  V30 3700 C 342.236 2.39785 3.81856 0
M  V30 3701 C 340.898 2.79483 3.91718 0
M  V30 3702 C 343.25 3.34055 4.00071 0
M  V30 3703 C 340.578 4.12496 4.1721 0
M  V30 3704 C 342.93 4.66694 4.27059 0
M  V30 3705 C 341.594 5.06172 4.3514 0
M  V30 3706 H 340.864 0.229374 0.704605 0
M  V30 3707 H 343.511 1.21707 1.4785 0
M  V30 3708 H 341.816 0.272926 3.90848 0
M  V30 3709 H 343.513 0.661484 3.95507 0
M  V30 3710 H 340.103 2.08003 3.74743 0
M  V30 3711 H 344.287 3.04571 3.91855 0
M  V30 3712 H 339.543 4.42709 4.21685 0
M  V30 3713 H 343.717 5.3971 4.40097 0
M  V30 3714 H 341.344 6.09262 4.54646 0
M  V30 3715 N 342.919 -1.39368 0.735821 0
M  V30 3716 C 344.165 -2.00794 0.284544 0
M  V30 3717 C 344.498 -1.58255 -1.12557 0
M  V30 3718 O 343.773 -0.811819 -1.76748 0
M  V30 3719 C 344.056 -3.58011 0.387337 0
M  V30 3720 C 343.909 -4.10566 1.83728 0
M  V30 3721 C 345.228 -4.395 -0.22975 0
M  V30 3722 H 342.347 -0.729501 0.104866 0
M  V30 3723 H 344.989 -1.65564 0.93213 0
M  V30 3724 H 343.139 -3.88154 -0.164006 0
M  V30 3725 H 344.811 -3.91139 2.44556 0
M  V30 3726 H 343.054 -3.64095 2.35833 0
M  V30 3727 H 343.725 -5.19702 1.86047 0
M  V30 3728 H 346.201 -4.15406 0.240257 0
M  V30 3729 H 345.077 -5.48752 -0.127485 0
M  V30 3730 H 345.338 -4.22062 -1.3159 0
M  V30 3731 N 344.397 -0.483516 -1.5 0
M  V30 3732 C 345.674 0.129337 -1.95172 0
M  V30 3733 C 346.054 1.55802 -1.4244 0
M  V30 3734 O 345.402 2.19625 -0.630649 0
M  V30 3735 C 345.612 0.0599251 -3.48949 0
M  V30 3736 C 346.96 0.242617 -4.23906 0
M  V30 3737 O 347.984 0.135933 -3.55941 0
M  V30 3738 O 346.843 0.459454 -5.44565 0
M  V30 3739 H 343.937 0.104887 -0.820322 0
M  V30 3740 H 346.483 -0.544807 -1.60717 0
M  V30 3741 H 345.255 -0.937079 -3.79914 0
M  V30 3742 H 344.878 0.774984 -3.89974 0
M  V30 3743 N 345.875 1.56104 -0.216619 0
M  V30 3744 C 347.103 2.02563 0.421413 0
M  V30 3745 C 347.518 1.0965 1.53695 0
M  V30 3746 O 346.875 0.10521 1.82196 0
M  V30 3747 C 346.926 3.48584 0.957665 0
M  V30 3748 O 346.647 4.37953 -0.113389 0
M  V30 3749 C 348.148 4.10664 1.66943 0
M  V30 3750 H 345.368 0.662944 0.103665 0
M  V30 3751 H 347.912 2.01793 -0.331629 0
M  V30 3752 H 346.067 3.49985 1.661 0
M  V30 3753 H 346.481 5.23704 0.288932 0
M  V30 3754 H 347.955 5.14622 1.99671 0
M  V30 3755 H 348.432 3.55373 2.58083 0
M  V30 3756 H 349.038 4.13098 1.01142 0
M  V30 3757 N 347.353 -0.0568162 1.57498 0
M  V30 3758 C 348.316 -1.05038 2.03715 0
M  V30 3759 C 349.316 -1.30709 0.936577 0
M  V30 3760 O 350.506 -1.26178 1.20103 0
M  V30 3761 C 347.638 -2.39034 2.43055 0
M  V30 3762 H 348.831 -0.651715 2.92733 0
M  V30 3763 H 346.384 -0.302947 1.53336 0
M  V30 3764 H 347.119 -2.83703 1.57108 0
M  V30 3765 H 346.904 -2.21739 3.2338 0
M  V30 3766 H 348.394 -3.10421 2.79336 0
M  V30 3767 N 348.832 -1.54138 -0.328536 0
M  V30 3768 C 350.08 -1.71765 -1.06496 0
M  V30 3769 C 350.401 -0.49149 -1.88704 0
M  V30 3770 O 349.671 0.494539 -1.89555 0
M  V30 3771 H 348.251 -0.633295 -0.396164 0
M  V30 3772 H 350.913 -1.91429 -0.366176 0
M  V30 3773 H 350.009 -2.5951 -1.73381 0
M  V30 3774 N 350.31 0.590341 -1.46126 0
M  V30 3775 C 351.24 1.71032 -1.58966 0
M  V30 3776 C 352.221 1.64302 -0.440335 0
M  V30 3777 O 353.406 1.82436 -0.665634 0
M  V30 3778 C 350.536 3.09665 -1.57241 0
M  V30 3779 C 349.49 3.31221 -2.71066 0
M  V30 3780 C 348.816 4.70303 -2.54399 0
M  V30 3781 C 350.116 3.19796 -4.1295 0
M  V30 3782 H 351.81 1.60543 -2.52718 0
M  V30 3783 H 349.356 0.770933 -1.21625 0
M  V30 3784 H 351.309 3.87831 -1.64819 0
M  V30 3785 H 350.033 3.21036 -0.600289 0
M  V30 3786 H 348.692 2.55452 -2.62944 0
M  V30 3787 H 348.34 4.78429 -1.55288 0
M  V30 3788 H 348.04 4.85679 -3.30741 0
M  V30 3789 H 349.564 5.50647 -2.63857 0
M  V30 3790 H 350.978 3.87815 -4.22223 0
M  V30 3791 H 349.375 3.46696 -4.89818 0
M  V30 3792 H 350.445 2.16983 -4.33643 0
M  V30 3793 N 351.788 1.33704 0.83433 0
M  V30 3794 C 353.204 1.13137 1.12571 0
M  V30 3795 C 353.404 -0.0747261 2.01361 0
M  V30 3796 O 352.46 -0.753647 2.4099 0
M  V30 3797 C 353.773 2.42105 1.78342 0
M  V30 3798 C 355.321 2.48054 1.90888 0
M  V30 3799 C 355.796 3.76995 2.60075 0
M  V30 3800 N 357.287 3.78092 2.67584 0
M  V30 3801 C 358.022 4.74574 3.21818 0
M  V30 3802 N 357.518 5.81434 3.76705 0
M  V30 3803 N 359.311 4.62044 3.20112 0
M  V30 3804 H 351.462 2.11 0.243489 0
M  V30 3805 H 353.725 0.932532 0.17055 0
M  V30 3806 H 353.431 3.30391 1.20561 0
M  V30 3807 H 353.305 2.54594 2.7832 0
M  V30 3808 H 355.692 1.60215 2.47821 0
M  V30 3809 H 355.773 2.39502 0.898459 0
M  V30 3810 H 355.417 4.65219 2.03799 0
M  V30 3811 H 355.347 3.82825 3.61597 0
M  V30 3812 H 357.838 3.00865 2.28667 0
M  V30 3813 H 358.151 6.51084 4.16305 0
M  V30 3814 H 356.496 5.85163 3.7498 0
M  V30 3815 H 359.687 3.77716 2.76493 0
M  V30 3816 H 359.86 5.37406 3.62076 0
M  V30 3817 N 353.266 -1.05314 1.17247 0
M  V30 3818 C 354.682 -1.30452 0.919473 0
M  V30 3819 C 354.882 -1.9703 -0.42209 0
M  V30 3820 O 353.938 -2.24311 -1.15935 0
M  V30 3821 C 355.251 -2.17551 2.07586 0
M  V30 3822 C 356.799 -2.30937 2.11275 0
M  V30 3823 C 357.274 -3.21396 3.26296 0
M  V30 3824 N 358.765 -3.28981 3.26076 0
M  V30 3825 C 359.5 -3.99095 4.11716 0
M  V30 3826 N 358.996 -4.71648 5.07465 0
M  V30 3827 N 360.789 -3.95247 3.9967 0
M  V30 3828 H 352.94 -0.604988 2.03602 0
M  V30 3829 H 355.203 -0.329368 0.888944 0
M  V30 3830 H 354.909 -1.75921 3.0454 0
M  V30 3831 H 354.783 -3.18182 2.02584 0
M  V30 3832 H 357.17 -2.71809 1.14907 0
M  V30 3833 H 357.251 -1.2994 2.20339 0
M  V30 3834 H 356.895 -2.81238 4.22927 0
M  V30 3835 H 356.825 -4.22395 3.14467 0
M  V30 3836 H 359.316 -2.77286 2.5675 0
M  V30 3837 H 359.629 -5.22705 5.6921 0
M  V30 3838 H 357.974 -4.70594 5.11435 0
M  V30 3839 H 361.165 -3.37691 3.24164 0
M  V30 3840 H 361.338 -4.4962 4.66632 0
M  V30 3841 N 354.744 -0.972509 -1.24016 0
M  V30 3842 C 355.691 -0.505969 -2.25186 0
M  V30 3843 C 356.661 0.451009 -1.5986 0
M  V30 3844 O 357.846 0.360307 -1.87367 0
M  V30 3845 C 354.986 0.193089 -3.44559 0
M  V30 3846 C 354.099 -0.803222 -4.24467 0
M  V30 3847 C 353.234 -0.0797793 -5.3114 0
M  V30 3848 C 352.273 -1.06583 -6.02749 0
M  V30 3849 N 351.41 -0.372074 -7.01113 0
M  V30 3850 H 356.25 -1.37351 -2.64459 0
M  V30 3851 H 353.787 -0.688419 -1.29997 0
M  V30 3852 H 355.745 0.615125 -4.1264 0
M  V30 3853 H 354.375 1.02455 -3.06109 0
M  V30 3854 H 353.427 -1.34368 -3.55878 0
M  V30 3855 H 354.739 -1.55494 -4.73944 0
M  V30 3856 H 353.893 0.400015 -6.0538 0
M  V30 3857 H 352.632 0.704597 -4.82583 0
M  V30 3858 H 351.637 -1.55645 -5.27309 0
M  V30 3859 H 352.862 -1.85074 -6.53395 0
M  V30 3860 H 350.808 0.393238 -6.5482 0
M  V30 3861 H 350.725 -1.06258 -7.48495 0
M  V30 3862 H 351.993 0.0855932 -7.79453 0
M  V30 3863 N 356.222 1.38976 -0.743202 0
M  V30 3864 C 357.447 2.05161 -0.303936 0
M  V30 3865 C 357.872 1.55677 1.05576 0
M  V30 3866 O 357.23 0.704131 1.67068 0
M  V30 3867 C 357.278 3.59138 -0.324373 0
M  V30 3868 O 356.382 4.06668 0.685204 0
M  V30 3869 H 355.723 0.649815 -0.136518 0
M  V30 3870 H 358.253 1.77852 -1.01142 0
M  V30 3871 H 358.263 4.07639 -0.171618 0
M  V30 3872 H 356.938 3.94515 -1.31647 0
M  V30 3873 H 355.515 3.69561 0.497913 0
M  V30 3874 N 357.7 0.491464 1.49741 0
M  V30 3875 C 359.116 0.146835 1.58923 0
M  V30 3876 C 359.316 -1.34804 1.49767 0
M  V30 3877 O 358.372 -2.12317 1.36667 0
M  V30 3878 C 359.685 0.715157 2.92072 0
M  V30 3879 C 361.233 0.680407 3.05515 0
M  V30 3880 C 361.708 1.22663 4.41269 0
M  V30 3881 N 363.199 1.18691 4.47735 0
M  V30 3882 C 363.934 1.57984 5.51207 0
M  V30 3883 N 363.43 2.04824 6.6183 0
M  V30 3884 N 365.223 1.49459 5.41866 0
M  V30 3885 H 357.374 1.46347 1.53936 0
M  V30 3886 H 359.637 0.606453 0.728642 0
M  V30 3887 H 359.343 1.76317 3.04311 0
M  V30 3888 H 359.217 0.17018 3.76816 0
M  V30 3889 H 361.604 -0.358743 2.92911 0
M  V30 3890 H 361.685 1.26242 2.22478 0
M  V30 3891 H 361.329 2.26451 4.54623 0
M  V30 3892 H 361.259 0.620637 5.2293 0
M  V30 3893 H 363.75 0.843605 3.68364 0
M  V30 3894 H 364.063 2.32901 7.3687 0
M  V30 3895 H 362.408 2.08791 6.62896 0
M  V30 3896 H 365.599 1.12692 4.54333 0
M  V30 3897 H 365.772 1.80406 6.22381 0
M  V30 3898 N 359.178 -1.55987 0.224894 0
M  V30 3899 C 360.424 -1.98684 -0.406502 0
M  V30 3900 C 360.757 -1.11248 -1.59177 0
M  V30 3901 O 360.032 -0.170909 -1.93748 0
M  V30 3902 C 360.315 -3.50218 -0.837808 0
M  V30 3903 C 360.168 -4.48426 0.351332 0
M  V30 3904 C 361.487 -4.06243 -1.69278 0
M  V30 3905 H 358.606 -0.722337 -0.146283 0
M  V30 3906 H 361.248 -1.87255 0.321799 0
M  V30 3907 H 359.398 -3.60089 -1.45837 0
M  V30 3908 H 361.07 -4.50562 0.989526 0
M  V30 3909 H 359.313 -4.22159 0.998207 0
M  V30 3910 H 359.984 -5.52 0.00655905 0
M  V30 3911 H 362.46 -3.99337 -1.16914 0
M  V30 3912 H 361.336 -5.12581 -1.96346 0
M  V30 3913 H 361.597 -3.53332 -2.65723 0
M  V30 3914 N 360.656 0.0484629 -1.57525 0
M  V30 3915 C 361.566 1.07241 -2.08654 0
M  V30 3916 C 362.582 1.409 -1.02095 0
M  V30 3917 O 363.758 1.50609 -1.33712 0
M  V30 3918 C 360.823 2.36008 -2.5397 0
M  V30 3919 C 359.884 2.09108 -3.7493 0
M  V30 3920 C 359.117 3.31736 -4.18075 0
M  V30 3921 O 359.34 4.41714 -3.60895 0
M  V30 3922 O 358.274 3.18576 -5.10679 0
M  V30 3923 H 362.1 0.667965 -2.96263 0
M  V30 3924 H 359.685 0.26417 -1.47046 0
M  V30 3925 H 361.567 3.11747 -2.83535 0
M  V30 3926 H 360.242 2.75786 -1.69481 0
M  V30 3927 H 359.149 1.31 -3.50414 0
M  V30 3928 H 360.482 1.74198 -4.60343 0
M  V30 3929 N 362.134 1.5431 0.320358 0
M  V30 3930 C 363.545 1.63872 0.894594 0
M  V30 3931 C 363.896 0.534847 1.88769 0
M  V30 3932 O 363.021 -0.331732 2.13842 0
M  V30 3933 C 363.616 2.97049 1.62934 0
M  V30 3934 C 362.175 3.08796 2.15226 0
M  V30 3935 C 361.322 2.59456 0.978671 0
M  V30 3936 H 364.273 1.58398 0.0978544 0
M  V30 3937 H 364.294 2.87388 2.49376 0
M  V30 3938 H 363.806 3.7737 0.906302 0
M  V30 3939 H 361.907 2.33156 2.90636 0
M  V30 3940 H 362.02 4.14649 2.40006 0
M  V30 3941 H 360.384 2.1543 1.35875 0
M  V30 3942 H 361.167 3.42237 0.269895 0
M  V30 3943 N 363.613 -0.582584 1.46437 0
M  V30 3944 C 365.029 -0.905962 1.31394 0
M  V30 3945 C 365.229 -1.99468 0.285476 0
M  V30 3946 O 364.285 -2.50566 -0.311914 0
M  V30 3947 C 365.598 -1.3232 2.70022 0
M  V30 3948 C 367.146 -1.43604 2.78113 0
M  V30 3949 C 367.621 -1.88694 4.17323 0
M  V30 3950 N 369.112 -1.95887 4.19741 0
M  V30 3951 C 369.847 -2.32051 5.24347 0
M  V30 3952 N 369.343 -2.67006 6.39281 0
M  V30 3953 N 371.136 -2.32606 5.11713 0
M  V30 3954 H 363.287 0.1366 2.1196 0
M  V30 3955 H 365.55 -0.00155736 0.947999 0
M  V30 3956 H 365.256 -0.597242 3.46592 0
M  V30 3957 H 365.13 -2.28469 3.00136 0
M  V30 3958 H 367.517 -2.15286 2.01832 0
M  V30 3959 H 367.598 -0.457059 2.51684 0
M  V30 3960 H 367.242 -1.1759 4.941 0
M  V30 3961 H 367.172 -2.8755 4.4116 0
M  V30 3962 H 369.663 -1.71362 3.36814 0
M  V30 3963 H 369.976 -2.93554 7.14875 0
M  V30 3964 H 368.321 -2.64644 6.42642 0
M  V30 3965 H 371.512 -2.04721 4.2096 0
M  V30 3966 H 371.685 -2.60462 5.93349 0
M  V30 3967 N 365.091 -1.34144 -0.827227 0
M  V30 3968 C 366.319 -1.29325 -1.61501 0
M  V30 3969 C 366.734 0.13354 -1.88327 0
M  V30 3970 O 366.091 1.0793 -1.47164 0
M  V30 3971 C 366.142 -2.07746 -2.95844 0
M  V30 3972 O 365.863 -3.4486 -2.70191 0
M  V30 3973 C 367.364 -2.10273 -3.90256 0
M  V30 3974 H 364.584 -0.445069 -0.50215 0
M  V30 3975 H 367.128 -1.76693 -1.02955 0
M  V30 3976 H 365.283 -1.6403 -3.5096 0
M  V30 3977 H 365.697 -3.85345 -3.55822 0
M  V30 3978 H 367.171 -2.69575 -4.81698 0
M  V30 3979 H 367.648 -1.096 -4.25305 0
M  V30 3980 H 368.254 -2.54059 -3.41078 0
M  V30 3981 N 366.569 1.04691 -1.17803 0
M  V30 3982 C 367.815 1.78045 -0.970969 0
M  V30 3983 C 368.148 1.87686 0.498751 0
M  V30 3984 O 367.423 1.38035 1.37027 0
M  V30 3985 C 367.706 3.2166 -1.61884 0
M  V30 3986 C 367.559 3.20001 -3.161 0
M  V30 3987 C 368.878 4.1962 -1.3269 0
M  V30 3988 H 365.997 0.64633 -0.354155 0
M  V30 3989 H 368.639 1.22333 -1.45378 0
M  V30 3990 H 366.789 3.69232 -1.20831 0
M  V30 3991 H 368.461 2.80467 -3.66246 0
M  V30 3992 H 366.704 2.58203 -3.48588 0
M  V30 3993 H 367.375 4.21386 -3.56564 0
M  V30 3994 H 369.851 3.80567 -1.68249 0
M  V30 3995 H 368.727 5.18339 -1.80599 0
M  V30 3996 H 368.988 4.414 -0.248622 0
M  V30 3997 N 368.047 0.979072 1.23499 0
M  V30 3998 C 368.957 0.526431 2.28617 0
M  V30 3999 C 369.973 -0.418126 1.68901 0
M  V30 4000 O 371.149 -0.288372 1.99325 0
M  V30 4001 C 368.214 -0.165235 3.46306 0
M  V30 4002 C 367.275 0.82056 4.21385 0
M  V30 4003 C 366.508 0.161807 5.33455 0
M  V30 4004 O 366.731 -1.04742 5.60701 0
M  V30 4005 O 365.665 0.859708 5.95729 0
M  V30 4006 H 369.491 1.4006 2.69475 0
M  V30 4007 H 367.076 0.746643 1.29405 0
M  V30 4008 H 368.958 -0.553287 4.17752 0
M  V30 4009 H 367.633 -1.01419 3.07402 0
M  V30 4010 H 366.54 1.25929 3.52268 0
M  V30 4011 H 367.873 1.63828 4.64135 0
M  V30 4012 N 369.525 -1.3858 0.750561 0
M  V30 4013 C 370.472 -2.30483 0.120835 0
M  V30 4014 C 371.442 -1.50022 -0.712923 0
M  V30 4015 O 372.627 -1.78662 -0.669676 0
M  V30 4016 C 369.767 -3.36431 -0.768666 0
M  V30 4017 C 368.88 -4.31927 0.0793922 0
M  V30 4018 C 368.015 -5.24944 -0.81283 0
M  V30 4019 C 367.054 -6.12088 0.0390447 0
M  V30 4020 N 366.191 -6.97412 -0.809969 0
M  V30 4021 H 371.031 -2.83761 0.91015 0
M  V30 4022 H 368.568 -1.39707 0.460463 0
M  V30 4023 H 370.526 -3.96462 -1.29898 0
M  V30 4024 H 369.156 -2.8457 -1.5238 0
M  V30 4025 H 368.208 -3.73382 0.727303 0
M  V30 4026 H 369.52 -4.93319 0.737401 0
M  V30 4027 H 368.674 -5.90078 -1.41042 0
M  V30 4028 H 367.413 -4.63911 -1.50458 0
M  V30 4029 H 366.418 -5.45952 0.649328 0
M  V30 4030 H 367.643 -6.75189 0.727809 0
M  V30 4031 H 365.589 -6.38931 -1.48672 0
M  V30 4032 H 365.506 -7.55712 -0.208789 0
M  V30 4033 H 366.774 -7.66959 -1.39263 0
M  V30 4034 N 371.003 -0.499398 -1.49478 0
M  V30 4035 C 372.233 0.0424839 -2.06556 0
M  V30 4036 C 372.641 1.31514 -1.36018 0
M  V30 4037 O 371.984 1.78555 -0.431718 0
M  V30 4038 C 372.046 0.368074 -3.57611 0
M  V30 4039 C 371.71 -0.806631 -4.49825 0
M  V30 4040 C 372.707 -1.69667 -4.91436 0
M  V30 4041 C 370.392 -1.00498 -4.92144 0
M  V30 4042 C 372.386 -2.76923 -5.74101 0
M  V30 4043 C 370.073 -2.08072 -5.74586 0
M  V30 4044 C 371.071 -2.96119 -6.15469 0
M  V30 4045 O 370.759 -4.01836 -6.96264 0
M  V30 4046 H 370.491 -0.0165165 -0.675798 0
M  V30 4047 H 373.045 -0.695497 -1.93267 0
M  V30 4048 H 371.275 1.15963 -3.68903 0
M  V30 4049 H 372.964 0.848381 -3.96935 0
M  V30 4050 H 373.73 -1.55524 -4.59388 0
M  V30 4051 H 369.609 -0.329036 -4.59824 0
M  V30 4052 H 373.153 -3.45676 -6.05932 0
M  V30 4053 H 369.05 -2.22211 -6.06047 0
M  V30 4054 H 369.818 -3.9917 -7.14567 0
M  V30 4055 N 372.481 1.55866 -0.233164 0
M  V30 4056 C 373.706 2.03449 0.402906 0
M  V30 4057 C 374.131 1.11166 1.51736 0
M  V30 4058 O 373.489 0.101996 1.81013 0
M  V30 4059 C 373.537 3.49165 0.9009 0
M  V30 4060 O 372.641 3.60019 2.01147 0
M  V30 4061 H 371.982 0.657913 0.0897025 0
M  V30 4062 H 374.512 2.01493 -0.355201 0
M  V30 4063 H 374.522 3.89716 1.2077 0
M  V30 4064 H 373.197 4.15813 0.0852889 0
M  V30 4065 H 371.774 3.3136 1.71042 0
M  V30 4066 N 373.959 -0.0401083 1.57549 0
M  V30 4067 C 374.907 -1.06264 2.06908 0
M  V30 4068 C 375.901 -1.38132 0.980608 0
M  V30 4069 O 377.107 -1.37167 1.16556 0
M  V30 4070 H 373.482 -0.360166 0.660139 0
M  V30 4071 H 375.453 -0.620445 2.91878 0
M  V30 4072 C 374.202 -2.35846 2.55483 0
M  V30 4073 H 373.525 -2.12183 3.38849 0
M  V30 4074 H 374.965 -3.05765 2.93741 0
M  V30 4075 C 373.424 -3.0404 1.45126 0
M  V30 4076 O 373.954 -3.93424 0.811216 0
M  V30 4077 N 372.16 -2.65184 1.18852 0
M  V30 4078 H 371.707 -1.92584 1.71083 0
M  V30 4079 H 371.665 -3.1113 0.452244 0
M  V30 4080 N 375.437 -1.54477 -0.31217 0
M  V30 4081 C 376.667 -1.76948 -1.06645 0
M  V30 4082 C 377.075 -0.523593 -1.81811 0
M  V30 4083 O 376.418 0.51578 -1.76311 0
M  V30 4084 C 376.48 -2.91668 -2.10166 0
M  V30 4085 C 376.144 -4.30165 -1.54296 0
M  V30 4086 C 377.141 -5.10603 -0.978793 0
M  V30 4087 C 374.826 -4.76738 -1.58196 0
M  V30 4088 C 376.82 -6.3573 -0.461048 0
M  V30 4089 C 374.507 -6.01831 -1.06034 0
M  V30 4090 C 375.505 -6.81161 -0.500844 0
M  V30 4091 O 375.193 -8.03899 0.0128958 0
M  V30 4092 H 374.925 -0.594088 -0.322546 0
M  V30 4093 H 377.479 -2.02213 -0.360441 0
M  V30 4094 H 375.709 -2.62001 -2.84416 0
M  V30 4095 H 377.398 -3.01817 -2.71406 0
M  V30 4096 H 378.164 -4.75771 -0.941651 0
M  V30 4097 H 374.043 -4.15027 -2.00683 0
M  V30 4098 H 377.587 -6.97596 -0.0236894 0
M  V30 4099 H 373.484 -6.36152 -1.09459 0
M  V30 4100 H 374.252 -8.18437 -0.101457 0
M  V30 4101 N 376.915 0.57481 -1.46744 0
M  V30 4102 C 378.331 0.898981 -1.31873 0
M  V30 4103 C 378.531 1.99313 -0.29605 0
M  V30 4104 O 377.587 2.50728 0.298621 0
M  V30 4105 C 378.9 1.30886 -2.7072 0
M  V30 4106 C 380.448 1.42127 -2.78871 0
M  V30 4107 C 380.923 1.86478 -4.18318 0
M  V30 4108 N 382.414 1.93658 -4.20774 0
M  V30 4109 C 383.149 2.29267 -5.2557 0
M  V30 4110 N 382.645 2.63612 -6.40688 0
M  V30 4111 N 384.438 2.29889 -5.1294 0
M  V30 4112 H 376.589 -0.147839 -2.11885 0
M  V30 4113 H 378.852 -0.00347013 -0.947994 0
M  V30 4114 H 378.558 0.578853 -3.46904 0
M  V30 4115 H 378.432 2.26874 -3.01343 0
M  V30 4116 H 380.819 2.14213 -2.0297 0
M  V30 4117 H 380.9 0.443705 -2.51922 0
M  V30 4118 H 380.544 1.14968 -4.94717 0
M  V30 4119 H 380.474 2.85207 -4.42679 0
M  V30 4120 H 382.965 1.69574 -3.37718 0
M  V30 4121 H 383.278 2.89759 -7.16421 0
M  V30 4122 H 381.623 2.61232 -6.44036 0
M  V30 4123 H 384.814 2.02485 -4.22039 0
M  V30 4124 H 384.987 2.57312 -5.94722 0
M  V30 4125 N 378.394 1.34581 0.820102 0
M  V30 4126 C 379.64 1.27285 1.57881 0
M  V30 4127 C 379.973 -0.156137 1.93571 0
M  V30 4128 O 379.248 -1.10222 1.60254 0
M  V30 4129 C 379.531 2.16639 2.87645 0
M  V30 4130 C 379.384 3.68088 2.58517 0
M  V30 4131 C 380.703 2.05378 3.8924 0
M  V30 4132 H 377.822 0.463714 0.572833 0
M  V30 4133 H 380.464 1.64859 0.944539 0
M  V30 4134 H 378.614 1.84725 3.41773 0
M  V30 4135 H 380.286 4.10382 2.10676 0
M  V30 4136 H 378.529 3.89038 1.91917 0
M  V30 4137 H 379.2 4.2598 3.51063 0
M  V30 4138 H 381.676 2.33404 3.44473 0
M  V30 4139 H 380.552 2.7012 4.77835 0
M  V30 4140 H 380.813 1.0316 4.29896 0
M  V30 4141 N 379.872 -1.04064 1.18357 0
M  V30 4142 C 381.118 -1.77528 0.980397 0
M  V30 4143 C 381.451 -1.87948 -0.48879 0
M  V30 4144 O 380.726 -1.3876 -1.36293 0
M  V30 4145 C 381.009 -3.20797 1.63588 0
M  V30 4146 C 380.862 -3.1832 3.17793 0
M  V30 4147 C 382.181 -4.18911 1.34914 0
M  V30 4148 H 379.3 -0.644443 0.357578 0
M  V30 4149 H 381.942 -1.2156 1.46024 0
M  V30 4150 H 380.092 -3.68586 1.22788 0
M  V30 4151 H 381.764 -2.78521 3.67728 0
M  V30 4152 H 380.007 -2.56351 3.49952 0
M  V30 4153 H 380.678 -4.19489 3.58794 0
M  V30 4154 H 383.154 -3.7967 1.70265 0
M  V30 4155 H 382.03 -5.17374 1.83346 0
M  V30 4156 H 382.291 -4.41262 0.272027 0
M  V30 4157 N 381.35 -0.985608 -1.22978 0
M  V30 4158 C 382.627 -0.573599 -1.87001 0
M  V30 4159 C 383.007 0.949213 -1.88555 0
M  V30 4160 O 382.355 1.82811 -1.37086 0
M  V30 4161 C 382.565 -1.18564 -3.28243 0
M  V30 4162 C 383.913 -1.28163 -4.04796 0
M  V30 4163 O 384.937 -1.13949 -3.37482 0
M  V30 4164 O 383.796 -1.50832 -5.25273 0
M  V30 4165 H 380.89 -0.193868 -0.803955 0
M  V30 4166 H 383.436 -1.08102 -1.30813 0
M  V30 4167 H 382.208 -2.22758 -3.21706 0
M  V30 4168 H 381.831 -0.663363 -3.92027 0
M  V30 4169 N 382.828 1.3818 -0.7579 0
M  V30 4170 C 384.053 2.04827 -0.325679 0
M  V30 4171 C 384.478 1.56788 1.03919 0
M  V30 4172 O 383.836 0.721811 1.66312 0
M  V30 4173 C 383.884 3.58774 -0.362447 0
M  V30 4174 O 382.988 4.07372 0.642033 0
M  V30 4175 H 382.329 0.64833 -0.143402 0
M  V30 4176 H 384.859 1.7677 -1.03023 0
M  V30 4177 H 384.869 4.07434 -0.214844 0
M  V30 4178 H 383.544 3.93096 -1.35824 0
M  V30 4179 H 382.121 3.70068 0.458688 0
M  V30 4180 N 384.306 0.507319 1.49211 0
M  V30 4181 C 385.555 -0.0368315 2.01666 0
M  V30 4182 C 385.868 -1.37459 1.39156 0
M  V30 4183 O 387.074 -2.00579 1.82976 0
M  V30 4184 C 385.53 -0.116089 3.59713 0
M  V30 4185 C 385.138 1.2154 4.31198 0
M  V30 4186 C 386.882 -0.610268 4.2009 0
M  V30 4187 C 384.789 1.09796 5.81119 0
M  V30 4188 H 383.719 -0.0175376 0.753796 0
M  V30 4189 H 386.37 0.647691 1.71689 0
M  V30 4190 H 384.752 -0.8652 3.86433 0
M  V30 4191 H 385.926 1.9783 4.16173 0
M  V30 4192 H 384.241 1.64352 3.82593 0
M  V30 4193 H 386.838 -0.715742 5.29888 0
M  V30 4194 H 387.181 -1.61064 3.8388 0
M  V30 4195 H 387.714 0.0824916 3.97714 0
M  V30 4196 H 384.453 2.0728 6.21864 0
M  V30 4197 H 383.973 0.376058 5.9862 0
M  V30 4198 H 385.652 0.779281 6.4229 0
M  V30 4199 N 385.784 -1.5574 0.241426 0
M  V30 4200 C 386.694 -2.2479 -0.671305 0
M  V30 4201 C 387.71 -1.26217 -1.19772 0
M  V30 4202 O 388.886 -1.59079 -1.23514 0
M  V30 4203 C 385.951 -2.92966 -1.85396 0
M  V30 4204 C 385.012 -4.06935 -1.36756 0
M  V30 4205 C 384.245 -4.71851 -2.49384 0
M  V30 4206 O 384.468 -4.35823 -3.67987 0
M  V30 4207 O 383.402 -5.60467 -2.19454 0
M  V30 4208 H 387.228 -3.0349 -0.112966 0
M  V30 4209 H 384.813 -1.49397 0.0101513 0
M  V30 4210 H 386.695 -3.35927 -2.54423 0
M  V30 4211 H 385.37 -2.17211 -2.40002 0
M  V30 4212 H 384.277 -3.68503 -0.644726 0
M  V30 4213 H 385.61 -4.84492 -0.867647 0
M  V30 4214 N 387.262 0.0317525 -1.57568 0
M  V30 4215 C 388.209 1.0332 -2.06382 0
M  V30 4216 C 389.179 1.36082 -0.952414 0
M  V30 4217 O 390.364 1.46466 -1.2228 0
M  V30 4218 C 387.504 2.32989 -2.54578 0
M  V30 4219 C 386.617 2.0641 -3.79498 0
M  V30 4220 C 385.752 3.2993 -4.16317 0
M  V30 4221 C 384.791 2.98893 -5.34162 0
M  V30 4222 N 383.928 4.14857 -5.66426 0
M  V30 4223 H 388.768 0.609982 -2.9169 0
M  V30 4224 H 386.305 0.289573 -1.44222 0
M  V30 4225 H 388.263 3.0875 -2.80587 0
M  V30 4226 H 386.893 2.73039 -1.7219 0
M  V30 4227 H 385.945 1.21158 -3.6059 0
M  V30 4228 H 387.257 1.79513 -4.65378 0
M  V30 4229 H 386.411 4.1406 -4.4344 0
M  V30 4230 H 385.15 3.59938 -3.29083 0
M  V30 4231 H 384.155 2.13164 -5.06795 0
M  V30 4232 H 385.38 2.70165 -6.23047 0
M  V30 4233 H 383.326 4.44821 -4.82151 0
M  V30 4234 H 383.243 3.91374 -6.4681 0
M  V30 4235 H 384.511 4.99868 -5.98124 0
M  V30 4236 N 388.74 1.54641 0.303973 0
M  V30 4237 C 389.703 1.84646 1.35789 0
M  V30 4238 C 390.703 0.7192 1.4382 0
M  V30 4239 O 391.893 0.987491 1.43507 0
M  V30 4240 C 389.025 2.02407 2.74307 0
M  V30 4241 H 390.218 2.78829 1.10429 0
M  V30 4242 H 387.771 1.46658 0.540487 0
M  V30 4243 H 388.506 1.10502 3.04893 0
M  V30 4244 H 388.291 2.84453 2.69868 0
M  V30 4245 H 389.781 2.27002 3.50514 0
M  V30 4246 N 390.218 -0.567019 1.47046 0
M  V30 4247 C 391.495 -1.3276 1.43646 0
M  V30 4248 C 391.875 -2.1071 0.128186 0
M  V30 4249 O 391.223 -2.10441 -0.890326 0
M  V30 4250 C 391.433 -2.2404 2.67595 0
M  V30 4251 C 392.781 -2.85372 3.14401 0
M  V30 4252 O 393.805 -2.34346 2.68254 0
M  V30 4253 O 392.664 -3.78091 3.946 0
M  V30 4254 H 389.758 -0.597293 0.571988 0
M  V30 4255 H 392.304 -0.586735 1.59234 0
M  V30 4256 H 391.076 -1.65975 3.54356 0
M  V30 4257 H 390.699 -3.05439 2.54544 0
M  V30 4258 N 391.696 -1.35014 -0.812953 0
M  V30 4259 C 392.942 -1.2812 -1.57204 0
M  V30 4260 C 393.275 0.145869 -1.93651 0
M  V30 4261 O 392.55 1.0937 -1.60836 0
M  V30 4262 C 392.833 -2.18162 -2.86492 0
M  V30 4263 C 392.686 -3.69454 -2.56561 0
M  V30 4264 C 394.005 -2.07439 -3.88145 0
M  V30 4265 H 391.124 -0.466746 -0.570366 0
M  V30 4266 H 393.766 -1.65357 -0.935783 0
M  V30 4267 H 391.916 -1.86535 -3.40789 0
M  V30 4268 H 393.588 -4.11493 -2.08497 0
M  V30 4269 H 391.831 -3.9005 -1.89851 0
M  V30 4270 H 392.502 -4.27835 -3.48799 0
M  V30 4271 H 394.978 -2.35228 -3.4323 0
M  V30 4272 H 393.854 -2.7265 -4.76396 0
M  V30 4273 H 394.115 -1.05439 -4.29343 0
M  V30 4274 N 393.175 1.03435 -1.18907 0
M  V30 4275 C 394.421 1.77005 -0.989798 0
M  V30 4276 C 394.754 1.88205 0.478816 0
M  V30 4277 O 394.029 1.39481 1.35556 0
M  V30 4278 C 394.312 3.19925 -1.65287 0
M  V30 4279 C 394.165 3.1663 -3.19477 0
M  V30 4280 C 395.484 4.18189 -1.37134 0
M  V30 4281 H 392.603 0.642538 -0.360991 0
M  V30 4282 H 395.245 1.20784 -1.46667 0
M  V30 4283 H 393.395 3.67929 -1.24741 0
M  V30 4284 H 395.067 2.76567 -3.692 0
M  V30 4285 H 393.31 2.54491 -3.51307 0
M  V30 4286 H 393.981 4.1758 -3.61013 0
M  V30 4287 H 396.457 3.78761 -1.72276 0
M  V30 4288 H 395.333 5.16394 -1.86087 0
M  V30 4289 H 395.594 4.41112 -0.295424 0
M  V30 4290 N 394.653 0.992116 1.22453 0
M  V30 4291 C 395.899 0.668523 1.91464 0
M  V30 4292 C 396.232 -0.797313 1.77078 0
M  V30 4293 O 395.507 -1.5765 1.13916 0
M  V30 4294 C 395.79 1.07424 3.43703 0
M  V30 4295 C 395.643 2.59857 3.67143 0
M  V30 4296 C 396.962 0.626891 4.35612 0
M  V30 4297 H 394.081 0.244341 0.695318 0
M  V30 4298 H 396.723 1.2355 1.44345 0
M  V30 4299 H 394.873 0.591816 3.83966 0
M  V30 4300 H 396.545 3.15764 3.3629 0
M  V30 4301 H 394.788 3.01961 3.11451 0
M  V30 4302 H 395.459 2.83296 4.73759 0
M  V30 4303 H 397.935 1.04125 4.02861 0
M  V30 4304 H 396.811 0.939076 5.40807 0
M  V30 4305 H 397.072 -0.472457 4.39568 0
M  V30 4306 N 396.131 -1.37776 0.765217 0
M  V30 4307 C 397.38 -1.99092 0.323307 0
M  V30 4308 C 397.693 -1.61434 -1.10446 0
M  V30 4309 O 398.899 -2.15805 -1.64743 0
M  V30 4310 C 397.355 -3.56019 0.527098 0
M  V30 4311 C 396.963 -4.0262 1.96471 0
M  V30 4312 C 398.707 -4.2424 0.148483 0
M  V30 4313 C 396.614 -5.52233 2.11644 0
M  V30 4314 H 395.544 -0.744846 0.117137 0
M  V30 4315 H 398.195 -1.57391 0.943417 0
M  V30 4316 H 396.577 -3.95667 -0.162372 0
M  V30 4317 H 397.751 -3.74234 2.68859 0
M  V30 4318 H 396.066 -3.47161 2.29931 0
M  V30 4319 H 398.663 -5.34159 0.240456 0
M  V30 4320 H 399.006 -4.06446 -0.900422 0
M  V30 4321 H 399.539 -3.89872 0.79025 0
M  V30 4322 H 396.278 -5.74945 3.1483 0
M  V30 4323 H 395.798 -5.82324 1.4373 0
M  V30 4324 H 397.477 -6.18106 1.91193 0
M  V30 4325 N 397.609 -0.515225 -1.4894 0
M  V30 4326 C 398.855 0.0242508 -2.02785 0
M  V30 4327 C 399.188 1.35323 -1.39289 0
M  V30 4328 O 398.463 1.87041 -0.533469 0
M  V30 4329 C 398.746 0.16184 -3.59736 0
M  V30 4330 C 398.599 -1.19127 -4.33738 0
M  V30 4331 C 399.918 0.895719 -4.30888 0
M  V30 4332 H 397.037 0.00733914 -0.736963 0
M  V30 4333 H 399.679 -0.669395 -1.77818 0
M  V30 4334 H 397.829 0.752624 -3.8114 0
M  V30 4335 H 399.501 -1.82202 -4.23792 0
M  V30 4336 H 397.744 -1.77695 -3.95736 0
M  V30 4337 H 398.415 -1.04815 -5.41957 0
M  V30 4338 H 400.891 0.394528 -4.14225 0
M  V30 4339 H 399.767 0.960859 -5.40425 0
M  V30 4340 H 400.028 1.9427 -3.97129 0
M  V30 4341 N 399.087 1.5561 -0.249682 0
M  V30 4342 C 400.017 2.24477 0.642826 0
M  V30 4343 C 400.998 1.22601 1.17911 0
M  V30 4344 O 402.183 1.5126 1.21795 0
M  V30 4345 C 399.313 2.94638 1.83863 0
M  V30 4346 C 398.267 4.03227 1.435 0
M  V30 4347 C 397.593 4.60828 2.71186 0
M  V30 4348 C 398.893 5.18796 0.604002 0
M  V30 4349 H 400.587 2.99321 0.0685625 0
M  V30 4350 H 398.133 1.43965 0.0315363 0
M  V30 4351 H 400.086 3.41517 2.46868 0
M  V30 4352 H 398.81 2.17287 2.43832 0
M  V30 4353 H 397.469 3.57121 0.828275 0
M  V30 4354 H 397.117 3.80174 3.29358 0
M  V30 4355 H 396.817 5.34132 2.44901 0
M  V30 4356 H 398.341 5.10442 3.35084 0
M  V30 4357 H 399.755 5.61883 1.13842 0
M  V30 4358 H 398.152 5.98506 0.437097 0
M  V30 4359 H 399.222 4.83384 -0.383147 0
M  V30 4360 N 400.565 -0.0233959 1.57583 0
M  V30 4361 C 401.842 -0.748794 1.807 0
M  V30 4362 C 402.222 -1.9327 0.849106 0
M  V30 4363 O 401.57 -2.28247 -0.107468 0
M  V30 4364 C 401.78 -1.17651 3.28571 0
M  V30 4365 C 403.128 -1.59008 3.93702 0
M  V30 4366 O 404.152 -1.27094 3.32755 0
M  V30 4367 O 403.011 -2.18264 5.01022 0
M  V30 4368 H 400.105 -0.362578 0.743281 0
M  V30 4369 H 402.651 0.000261958 1.697 0
M  V30 4370 H 401.423 -0.331603 3.89892 0
M  V30 4371 H 401.046 -1.98541 3.44481 0
M  V30 4372 N 402.043 -1.548 -0.295768 0
M  V30 4373 C 403.006 -1.85363 -1.34808 0
M  V30 4374 C 404.006 -0.726817 -1.43436 0
M  V30 4375 O 405.196 -0.995088 -1.42981 0
M  V30 4376 C 402.328 -2.03859 -2.73229 0
M  V30 4377 H 403.521 -2.7941 -1.08949 0
M  V30 4378 H 401.074 -1.46942 -0.532702 0
M  V30 4379 H 401.809 -1.12117 -3.04303 0
M  V30 4380 H 401.594 -2.8588 -2.68356 0
M  V30 4381 H 403.084 -2.28857 -3.49305 0
M  V30 4382 N 403.521 0.559213 -1.47345 0
M  V30 4383 C 404.749 1.34194 -1.57479 0
M  V30 4384 C 405.164 1.87463 -0.224261 0
M  V30 4385 O 404.521 1.64888 0.782185 0
M  V30 4386 C 404.572 2.51324 -2.59843 0
M  V30 4387 O 404.293 2.00256 -3.89653 0
M  V30 4388 C 405.794 3.43563 -2.80142 0
M  V30 4389 H 403.014 0.409136 -0.531835 0
M  V30 4390 H 405.558 0.677609 -1.92947 0
M  V30 4391 H 403.713 3.13699 -2.27314 0
M  V30 4392 H 404.127 2.76708 -4.4557 0
M  V30 4393 H 405.601 4.2217 -3.55635 0
M  V30 4394 H 406.078 3.9698 -1.87892 0
M  V30 4395 H 406.684 2.87005 -3.1386 0
M  V30 4396 N 404.999 1.35443 0.805782 0
M  V30 4397 C 405.931 1.24285 1.92577 0
M  V30 4398 C 406.944 0.165962 1.61952 0
M  V30 4399 O 408.133 0.419303 1.73505 0
M  V30 4400 C 405.233 0.891272 3.2697 0
M  V30 4401 C 404.406 2.06669 3.85495 0
M  V30 4402 C 403.465 1.69077 4.98297 0
M  V30 4403 O 402.491 2.4096 5.15681 0
M  V30 4404 N 403.693 0.614869 5.77234 0
M  V30 4405 H 406.458 2.20777 2.02676 0
M  V30 4406 H 404.019 1.28623 0.983243 0
M  V30 4407 H 406.011 0.621256 3.99903 0
M  V30 4408 H 404.581 0.016004 3.12596 0
M  V30 4409 H 403.801 2.50046 3.04747 0
M  V30 4410 H 405.089 2.85237 4.21328 0
M  V30 4411 H 404.487 0.017648 5.65697 0
M  V30 4412 H 403.044 0.404636 6.50543 0
M  V30 4413 N 406.477 -1.02803 1.19454 0
M  V30 4414 C 407.725 -1.75869 0.995722 0
M  V30 4415 C 408.046 -1.89138 -0.474543 0
M  V30 4416 O 407.316 -1.42558 -1.34366 0
M  V30 4417 H 405.896 -0.651511 0.365435 0
M  V30 4418 H 408.558 -1.24004 1.50363 0
M  V30 4419 H 407.654 -2.76661 1.44447 0
M  V30 4420 N 407.956 -0.998596 -1.21925 0
M  V30 4421 C 409.205 -0.673085 -1.90138 0
M  V30 4422 C 409.518 0.79895 -1.78539 0
M  V30 4423 O 410.724 1.23628 -2.4172 0
M  V30 4424 C 409.18 -1.15339 -3.40918 0
M  V30 4425 C 408.788 -2.65106 -3.61141 0
M  V30 4426 C 410.532 -0.902476 -4.14796 0
M  V30 4427 C 408.439 -3.0671 -5.05651 0
M  V30 4428 H 407.369 -0.248057 -0.712028 0
M  V30 4429 H 410.02 -1.20891 -1.38049 0
M  V30 4430 H 408.402 -0.545658 -3.92223 0
M  V30 4431 H 409.576 -3.31274 -3.20304 0
M  V30 4432 H 407.891 -2.88142 -3.00605 0
M  V30 4433 H 410.488 -1.18895 -5.21314 0
M  V30 4434 H 410.831 0.161349 -4.15987 0
M  V30 4435 H 411.364 -1.47269 -3.69536 0
M  V30 4436 H 408.103 -4.12292 -5.09603 0
M  V30 4437 H 407.623 -2.45249 -5.47369 0
M  V30 4438 H 409.302 -2.9833 -5.74115 0
M  V30 4439 N 409.434 1.37368 -0.772513 0
M  V30 4440 C 410.662 2.03942 -0.348588 0
M  V30 4441 C 411.077 1.58264 1.02947 0
M  V30 4442 O 410.434 0.764246 1.65727 0
M  V30 4443 C 410.485 3.5946 -0.38351 0
M  V30 4444 O 410.206 4.03468 -1.70721 0
M  V30 4445 C 411.707 4.4327 0.0519152 0
M  V30 4446 H 408.927 0.654931 -0.145966 0
M  V30 4447 H 411.471 1.75686 -1.04665 0
M  V30 4448 H 409.626 3.86486 0.265978 0
M  V30 4449 H 410.04 4.97991 -1.64636 0
M  V30 4450 H 411.514 5.51995 -0.0236733 0
M  V30 4451 H 411.991 4.2514 1.10238 0
M  V30 4452 H 412.597 4.21471 -0.569415 0
M  V30 4453 N 410.912 0.523116 1.48665 0
M  V30 4454 C 412.328 0.180511 1.58576 0
M  V30 4455 C 412.528 -1.31597 1.52592 0
M  V30 4456 O 411.584 -2.0937 1.4114 0
M  V30 4457 C 412.897 0.776949 2.90489 0
M  V30 4458 C 414.445 0.745058 3.04003 0
M  V30 4459 C 414.92 1.31995 4.38567 0
M  V30 4460 N 416.411 1.28162 4.45117 0
M  V30 4461 C 417.146 1.6964 5.47731 0
M  V30 4462 N 416.642 2.18816 6.57337 0
M  V30 4463 N 418.435 1.6092 5.38573 0
M  V30 4464 H 410.586 1.4958 1.50797 0
M  V30 4465 H 412.849 0.621772 0.715614 0
M  V30 4466 H 412.555 1.82732 3.00503 0
M  V30 4467 H 412.429 0.25007 3.7637 0
M  V30 4468 H 414.816 -0.296532 2.93606 0
M  V30 4469 H 414.897 1.30933 2.1975 0
M  V30 4470 H 414.541 2.36043 4.49718 0
M  V30 4471 H 414.471 0.731418 5.21496 0
M  V30 4472 H 416.962 0.92155 3.66491 0
M  V30 4473 H 417.275 2.48478 7.31764 0
M  V30 4474 H 415.62 2.22805 6.58318 0
M  V30 4475 H 418.811 1.22304 4.5184 0
M  V30 4476 H 418.984 1.93567 6.18414 0
M  V30 4477 N 412.39 -1.55475 0.257931 0
M  V30 4478 C 413.322 -2.19192 -0.669881 0
M  V30 4479 C 414.335 -1.17148 -1.1305 0
M  V30 4480 O 415.524 -1.43959 -1.05537 0
M  V30 4481 C 412.624 -2.79016 -1.92363 0
M  V30 4482 C 411.797 -4.06586 -1.61265 0
M  V30 4483 C 410.856 -4.50622 -2.7171 0
M  V30 4484 O 409.882 -5.16765 -2.38627 0
M  V30 4485 N 411.084 -4.19325 -4.01431 0
M  V30 4486 H 413.849 -2.99441 -0.124635 0
M  V30 4487 H 411.41 -1.6171 0.0783311 0
M  V30 4488 H 413.402 -3.05427 -2.65511 0
M  V30 4489 H 411.972 -2.0286 -2.37837 0
M  V30 4490 H 411.192 -3.87646 -0.715811 0
M  V30 4491 H 412.48 -4.89737 -1.37967 0
M  V30 4492 H 411.878 -3.66247 -4.31138 0
M  V30 4493 H 410.435 -4.50547 -4.7101 0
M  V30 4494 N 413.868 0.0150385 -1.57593 0
M  V30 4495 C 415.145 0.7392 -1.81094 0
M  V30 4496 C 415.525 1.92817 -0.859344 0
M  V30 4497 O 414.873 2.28301 0.095362 0
M  V30 4498 C 415.083 1.15907 -3.29191 0
M  V30 4499 C 416.431 1.56918 -3.9454 0
M  V30 4500 O 417.455 1.25328 -3.33424 0
M  V30 4501 O 416.314 2.15604 -5.02173 0
M  V30 4502 H 413.408 0.358631 -0.745193 0
M  V30 4503 H 415.954 -0.00926156 -1.69697 0
M  V30 4504 H 414.726 0.310921 -3.90063 0
M  V30 4505 H 414.349 1.96711 -3.45529 0
M  V30 4506 N 415.346 1.54954 0.287554 0
M  V30 4507 C 416.278 1.83224 1.37701 0
M  V30 4508 C 417.291 0.715898 1.46215 0
M  V30 4509 O 418.48 0.993565 1.48292 0
M  V30 4510 C 415.58 1.96723 2.75959 0
M  V30 4511 C 414.753 3.27253 2.90215 0
M  V30 4512 C 413.812 3.30998 4.09056 0
M  V30 4513 O 412.838 4.04457 4.00503 0
M  V30 4514 N 414.04 2.57353 5.20336 0
M  V30 4515 H 416.805 2.77254 1.138 0
M  V30 4516 H 414.366 1.54694 0.477652 0
M  V30 4517 H 416.358 1.96615 3.5373 0
M  V30 4518 H 414.928 1.09626 2.92747 0
M  V30 4519 H 414.148 3.40022 1.99447 0
M  V30 4520 H 415.436 4.13365 2.96659 0
M  V30 4521 H 414.834 1.97327 5.30169 0
M  V30 4522 H 413.391 2.62984 5.96391 0
M  V30 4523 N 416.824 -0.551391 1.4764 0
M  V30 4524 C 418.24 -0.877887 1.33287 0
M  V30 4525 C 418.44 -1.98817 0.327721 0
M  V30 4526 O 417.496 -2.51171 -0.258695 0
M  V30 4527 C 418.809 -1.26563 2.72768 0
M  V30 4528 C 420.357 -1.37673 2.81097 0
M  V30 4529 C 420.832 -1.79799 4.21232 0
M  V30 4530 N 422.323 -1.8694 4.23802 0
M  V30 4531 C 423.058 -2.20876 5.29151 0
M  V30 4532 N 422.554 -2.53386 6.448 0
M  V30 4533 N 424.347 -2.217 5.16532 0
M  V30 4534 H 416.498 0.18153 2.11623 0
M  V30 4535 H 418.761 0.0185514 0.947818 0
M  V30 4536 H 418.467 -0.523591 3.47781 0
M  V30 4537 H 418.341 -2.22052 3.04915 0
M  V30 4538 H 420.728 -2.10956 2.06353 0
M  V30 4539 H 420.809 -0.40357 2.52596 0
M  V30 4540 H 420.453 -1.07083 4.96483 0
M  V30 4541 H 420.383 -2.78128 4.4716 0
M  V30 4542 H 422.874 -1.64179 3.40373 0
M  V30 4543 H 423.187 -2.78325 7.20941 0
M  V30 4544 H 421.532 -2.50953 6.48111 0
M  V30 4545 H 424.723 -1.95745 4.25207 0
M  V30 4546 H 424.896 -2.47818 5.98741 0
M  V30 4547 N 418.302 -1.35869 -0.798587 0
M  V30 4548 C 419.551 -1.28921 -1.5512 0
M  V30 4549 C 419.864 0.13208 -1.95154 0
M  V30 4550 O 421.07 0.323879 -2.69561 0
M  V30 4551 C 419.526 -2.26141 -2.79979 0
M  V30 4552 C 419.134 -3.73658 -2.47151 0
M  V30 4553 C 420.878 -2.28152 -3.57976 0
M  V30 4554 C 418.785 -4.62679 -3.6835 0
M  V30 4555 H 417.715 -0.479031 -0.582276 0
M  V30 4556 H 420.366 -1.61179 -0.877125 0
M  V30 4557 H 418.748 -1.86865 -3.49138 0
M  V30 4558 H 419.922 -4.21616 -1.85947 0
M  V30 4559 H 418.237 -3.74333 -1.82383 0
M  V30 4560 H 420.834 -2.91875 -4.4801 0
M  V30 4561 H 421.177 -1.28748 -3.95891 0
M  V30 4562 H 421.71 -2.65998 -2.95787 0
M  V30 4563 H 418.449 -5.63111 -3.35538 0
M  V30 4564 H 417.969 -4.19442 -4.28752 0
M  V30 4565 H 419.648 -4.78498 -4.35487 0
M  V30 4566 N 419.78 1.02168 -1.19998 0
M  V30 4567 C 420.743 2.08765 -0.94604 0
M  V30 4568 C 421.743 1.60618 0.0763846 0
M  V30 4569 O 422.933 1.73472 -0.159135 0
M  V30 4570 C 420.065 3.38262 -0.423255 0
M  V30 4571 H 421.258 2.32726 -1.89153 0
M  V30 4572 H 418.811 1.1889 -1.01464 0
M  V30 4573 H 419.546 3.19974 0.527938 0
M  V30 4574 H 419.331 3.74532 -1.16053 0
M  V30 4575 H 420.821 4.16759 -0.264911 0
M  V30 4576 N 421.258 1.00505 1.21394 0
M  V30 4577 C 422.506 0.686415 1.90086 0
M  V30 4578 C 422.827 -0.785264 1.7849 0
M  V30 4579 O 422.097 -1.56387 1.17983 0
M  V30 4580 H 420.677 0.2509 0.703604 0
M  V30 4581 H 423.339 1.27417 1.47482 0
M  V30 4582 H 422.435 0.959621 2.96981 0
M  V30 4583 N 422.737 -1.36956 0.779787 0
M  V30 4584 C 423.667 -2.32761 0.185651 0
M  V30 4585 C 424.648 -1.56177 -0.673989 0
M  V30 4586 O 425.833 -1.84378 -0.609797 0
M  V30 4587 C 422.963 -3.40418 -0.687964 0
M  V30 4588 C 421.917 -4.27941 0.0710102 0
M  V30 4589 C 421.243 -5.26681 -0.922573 0
M  V30 4590 C 422.543 -5.07006 1.25467 0
M  V30 4591 H 424.237 -2.82698 0.986008 0
M  V30 4592 H 421.783 -1.3592 0.475592 0
M  V30 4593 H 423.736 -4.06423 -1.11348 0
M  V30 4594 H 422.46 -2.89025 -1.52093 0
M  V30 4595 H 421.119 -3.63478 0.47739 0
M  V30 4596 H 420.767 -4.71565 -1.7503 0
M  V30 4597 H 420.467 -5.86103 -0.419237 0
M  V30 4598 H 421.991 -5.9556 -1.34686 0
M  V30 4599 H 423.405 -5.66105 0.905401 0
M  V30 4600 H 421.802 -5.75793 1.69063 0
M  V30 4601 H 422.872 -4.3921 2.05481 0
M  V30 4602 N 424.215 -0.530993 -1.48385 0
M  V30 4603 C 425.461 0.00274135 -2.028 0
M  V30 4604 C 425.794 1.33838 -1.40716 0
M  V30 4605 O 425.069 1.86465 -0.553277 0
M  V30 4606 C 425.352 0.123676 -3.59888 0
M  V30 4607 C 425.205 -1.2372 -4.3245 0
M  V30 4608 C 426.524 0.849967 -4.31814 0
M  V30 4609 H 423.643 -0.000477758 -0.737 0
M  V30 4610 H 426.285 -0.688217 -1.77098 0
M  V30 4611 H 424.435 0.712157 -3.81917 0
M  V30 4612 H 426.107 -1.86687 -4.21836 0
M  V30 4613 H 424.35 -1.81882 -3.93829 0
M  V30 4614 H 425.021 -1.10557 -5.40815 0
M  V30 4615 H 427.497 0.350572 -4.14621 0
M  V30 4616 H 426.373 0.903486 -5.41413 0
M  V30 4617 H 426.634 1.90047 -3.99167 0
M  V30 4618 N 425.693 1.55336 -0.266172 0
M  V30 4619 C 426.603 2.2583 0.635458 0
M  V30 4620 C 427.619 1.28106 1.17749 0
M  V30 4621 O 428.795 1.61024 1.20968 0
M  V30 4622 C 425.86 2.95879 1.80712 0
M  V30 4623 C 424.921 4.09059 1.30265 0
M  V30 4624 C 424.154 4.75759 2.41846 0
M  V30 4625 O 424.377 4.41622 3.61007 0
M  V30 4626 O 423.311 5.63888 2.1051 0
M  V30 4627 H 427.137 3.03631 0.0646693 0
M  V30 4628 H 424.722 1.49361 -0.0339177 0
M  V30 4629 H 426.604 3.39932 2.49047 0
M  V30 4630 H 425.279 2.21002 2.36516 0
M  V30 4631 H 424.186 3.69482 0.586019 0
M  V30 4632 H 425.519 4.85811 0.790458 0
M  V30 4633 N 427.171 -0.0066808 1.57599 0
M  V30 4634 C 428.587 -0.36267 1.55425 0
M  V30 4635 C 428.787 -1.75209 0.995187 0
M  V30 4636 O 427.843 -2.44616 0.626058 0
M  V30 4637 C 429.156 -0.244017 2.99708 0
M  V30 4638 C 430.704 -0.319451 3.11366 0
M  V30 4639 C 431.179 -0.229998 4.57422 0
M  V30 4640 N 432.67 -0.288105 4.62303 0
M  V30 4641 C 433.405 -0.242127 5.72889 0
M  V30 4642 N 432.901 -0.147133 6.92644 0
M  V30 4643 N 434.694 -0.293502 5.61333 0
M  V30 4644 H 426.845 0.902314 1.92281 0
M  V30 4645 H 429.108 0.34525 0.882896 0
M  V30 4646 H 428.814 0.711678 3.44424 0
M  V30 4647 H 428.688 -1.02877 3.629 0
M  V30 4648 H 431.075 -1.26559 2.66584 0
M  V30 4649 H 431.156 0.495055 2.50964 0
M  V30 4650 H 430.8 0.712566 5.02877 0
M  V30 4651 H 430.73 -1.0629 5.15761 0
M  V30 4652 H 433.221 -0.363126 3.76151 0
M  V30 4653 H 433.534 -0.117763 7.7271 0
M  V30 4654 H 431.879 -0.112857 6.94908 0
M  V30 4655 H 435.07 -0.365864 4.66668 0
M  V30 4656 H 435.243 -0.254204 6.47501 0
M  V30 4657 N 428.649 -1.55105 -0.279332 0
M  V30 4658 C 430.065 -1.46803 -0.626187 0
M  V30 4659 C 430.265 -0.676939 -1.89789 0
M  V30 4660 O 429.321 -0.19326 -2.51759 0
M  V30 4661 C 430.634 -2.90962 -0.759034 0
M  V30 4662 C 432.182 -3.01138 -0.853504 0
M  V30 4663 C 432.657 -4.46539 -1.01818 0
M  V30 4664 N 434.148 -4.50341 -1.08386 0
M  V30 4665 C 434.883 -5.60053 -1.22996 0
M  V30 4666 N 434.379 -6.79645 -1.34366 0
M  V30 4667 N 436.172 -5.47783 -1.26056 0
M  V30 4668 H 428.323 -2.04996 0.555921 0
M  V30 4669 H 430.586 -0.929325 0.187239 0
M  V30 4670 H 430.292 -3.51544 0.104852 0
M  V30 4671 H 430.166 -3.39619 -1.64131 0
M  V30 4672 H 432.553 -2.40658 -1.70786 0
M  V30 4673 H 432.634 -2.55745 0.0532466 0
M  V30 4674 H 432.278 -5.0762 -0.168504 0
M  V30 4675 H 432.208 -4.89583 -1.93948 0
M  V30 4676 H 434.699 -3.64191 -1.00864 0
M  V30 4677 H 435.012 -7.59012 -1.4533 0
M  V30 4678 H 433.357 -6.82469 -1.31382 0
M  V30 4679 H 436.548 -4.53294 -1.168 0
M  V30 4680 H 436.721 -6.33331 -1.37098 0
M  V30 4681 N 430.127 0.543554 -1.4793 0
M  V30 4682 C 431.375 1.29752 -1.54948 0
M  V30 4683 C 431.696 1.93764 -0.219242 0
M  V30 4684 O 430.966 1.80639 0.75805 0
M  V30 4685 H 429.546 0.481874 -0.570795 0
M  V30 4686 H 432.208 0.633636 -1.84312 0
M  V30 4687 H 431.304 2.08392 -2.32334 0
M  V30 4688 N 431.605 1.3629 0.791371 0
M  V30 4689 C 433.021 1.16661 1.08914 0
M  V30 4690 C 433.221 -0.0106266 2.01497 0
M  V30 4691 O 432.277 -0.676596 2.43266 0
M  V30 4692 C 433.59 2.47656 1.70549 0
M  V30 4693 C 435.138 2.54002 1.82899 0
M  V30 4694 C 435.613 3.85078 2.47949 0
M  V30 4695 N 437.104 3.86413 2.5542 0
M  V30 4696 C 437.839 4.84572 3.06557 0
M  V30 4697 N 437.335 5.93124 3.58016 0
M  V30 4698 N 439.128 4.71994 3.05251 0
M  V30 4699 H 431.279 2.11668 0.176238 0
M  V30 4700 H 433.542 0.937486 0.140796 0
M  V30 4701 H 433.248 3.34059 1.09989 0
M  V30 4702 H 433.122 2.63319 2.70079 0
M  V30 4703 H 435.509 1.68018 2.42598 0
M  V30 4704 H 435.59 2.42239 0.821808 0
M  V30 4705 H 435.234 4.71467 1.88895 0
M  V30 4706 H 435.164 3.94135 3.49235 0
M  V30 4707 H 437.655 3.07988 2.18979 0
M  V30 4708 H 437.968 6.63999 3.95381 0
M  V30 4709 H 436.313 5.96796 3.56173 0
M  V30 4710 H 439.504 3.86321 2.64336 0
M  V30 4711 H 439.677 5.48653 3.44796 0
M  V30 4712 N 433.083 -1.0153 1.20538 0
M  V30 4713 C 434.046 -2.0826 0.957098 0
M  V30 4714 C 435.046 -1.60657 -0.0678655 0
M  V30 4715 O 436.236 -1.73385 0.168332 0
M  V30 4716 C 433.368 -3.38033 0.441188 0
M  V30 4717 H 434.561 -2.31719 1.90384 0
M  V30 4718 H 432.114 -1.1835 1.02093 0
M  V30 4719 H 432.849 -3.20249 -0.510961 0
M  V30 4720 H 432.634 -3.73911 1.18038 0
M  V30 4721 H 434.124 -4.16613 0.287009 0
M  V30 4722 N 434.561 -1.01147 -1.20859 0
M  V30 4723 C 435.786 -0.716698 -1.94623 0
M  V30 4724 C 436.211 0.715415 -1.73964 0
M  V30 4725 O 435.569 1.49157 -1.03062 0
M  V30 4726 C 435.617 -1.0513 -3.44935 0
M  V30 4727 O 434.721 -0.160131 -4.12089 0
M  V30 4728 H 434.062 -0.266404 -0.608214 0
M  V30 4729 H 436.592 -1.35346 -1.53436 0
M  V30 4730 H 436.602 -1.00086 -3.95533 0
M  V30 4731 H 435.277 -2.09475 -3.59295 0
M  V30 4732 H 433.854 -0.267657 -3.71938 0
M  V30 4733 N 436.039 1.36541 -0.78704 0
M  V30 4734 C 437.285 1.99599 -0.358872 0
M  V30 4735 C 437.618 1.62323 1.06606 0
M  V30 4736 O 436.893 0.876858 1.73613 0
M  V30 4737 C 437.176 3.56327 -0.519944 0
M  V30 4738 C 437.029 4.03464 -1.98839 0
M  V30 4739 C 438.348 4.4005 0.0664737 0
M  V30 4740 H 435.467 0.725107 -0.131869 0
M  V30 4741 H 438.109 1.6199 -0.992936 0
M  V30 4742 H 436.259 3.88495 0.0198321 0
M  V30 4743 H 437.931 3.81793 -2.58905 0
M  V30 4744 H 436.174 3.55092 -2.49183 0
M  V30 4745 H 436.845 5.12439 -2.05207 0
M  V30 4746 H 439.321 4.14228 -0.394267 0
M  V30 4747 H 438.197 5.48847 -0.0762682 0
M  V30 4748 H 438.458 4.26655 1.15835 0
M  V30 4749 N 437.518 0.538854 1.48102 0
M  V30 4750 C 438.764 0.00801365 2.02798 0
M  V30 4751 C 439.097 -1.3309 1.41424 0
M  V30 4752 O 438.372 -1.86169 0.563158 0
M  V30 4753 C 438.655 -0.104589 3.59948 0
M  V30 4754 C 438.508 1.26012 4.31788 0
M  V30 4755 C 439.827 -0.827055 4.32259 0
M  V30 4756 H 436.946 0.00438624 0.736987 0
M  V30 4757 H 439.588 0.6976 1.7673 0
M  V30 4758 H 437.738 -0.691893 3.82289 0
M  V30 4759 H 439.41 1.88922 4.2084 0
M  V30 4760 H 437.653 1.83968 3.92859 0
M  V30 4761 H 438.324 1.13424 5.40221 0
M  V30 4762 H 440.8 -0.328578 4.14801 0
M  V30 4763 H 439.676 -0.87476 5.41885 0
M  V30 4764 H 439.937 -1.87927 4.0017 0
M  V30 4765 N 438.996 -1.55193 0.274407 0
M  V30 4766 C 440.242 -1.99877 -0.343086 0
M  V30 4767 C 440.575 -1.16256 -1.55558 0
M  V30 4768 O 439.85 -0.232462 -1.93106 0
M  V30 4769 C 440.133 -3.52706 -0.725965 0
M  V30 4770 C 439.986 -4.47081 0.493818 0
M  V30 4771 C 441.305 -4.11422 -1.56268 0
M  V30 4772 H 438.424 -0.726625 -0.123229 0
M  V30 4773 H 441.066 -1.86136 0.38121 0
M  V30 4774 H 439.216 -3.64546 -1.34307 0
M  V30 4775 H 440.888 -4.47186 1.13237 0
M  V30 4776 H 439.131 -4.1877 1.13201 0
M  V30 4777 H 439.802 -5.51699 0.18217 0
M  V30 4778 H 442.278 -4.02855 -1.04151 0
M  V30 4779 H 441.154 -5.18568 -1.79939 0
M  V30 4780 H 441.415 -3.61607 -2.54348 0
M  V30 4781 N 440.474 -0.00167713 -1.576 0
M  V30 4782 C 441.721 0.68282 -1.90641 0
M  V30 4783 C 442.049 1.73686 -0.875415 0
M  V30 4784 O 441.304 1.95334 0.119575 0
M  V30 4785 C 441.603 1.36189 -3.30435 0
M  V30 4786 C 441.269 0.440887 -4.48739 0
M  V30 4787 C 439.931 0.187312 -4.80835 0
M  V30 4788 C 442.283 -0.193134 -5.20842 0
M  V30 4789 C 439.611 -0.70855 -5.82406 0
M  V30 4790 C 441.963 -1.07688 -6.23367 0
M  V30 4791 C 440.627 -1.33962 -6.53919 0
M  V30 4792 H 439.897 0.249862 -0.697603 0
M  V30 4793 H 442.544 -0.0575642 -1.91413 0
M  V30 4794 H 440.849 2.17636 -3.25794 0
M  V30 4795 H 442.546 1.89759 -3.5326 0
M  V30 4796 H 439.136 0.648694 -4.23663 0
M  V30 4797 H 443.32 -0.0102445 -4.96299 0
M  V30 4798 H 438.576 -0.920097 -6.04437 0
M  V30 4799 H 442.75 -1.57451 -6.78367 0
M  V30 4800 H 440.377 -2.03549 -7.32442 0
M  V30 4801 N 441.952 1.55251 0.271103 0
M  V30 4802 C 442.9 1.89054 1.35504 0
M  V30 4803 C 443.894 0.767064 1.51038 0
M  V30 4804 O 445.1 0.951429 1.528 0
M  V30 4805 H 441.475 0.600072 0.45323 0
M  V30 4806 H 443.446 2.79598 1.04247 0
M  V30 4807 C 442.195 2.18068 2.70817 0
M  V30 4808 H 441.518 3.04005 2.59656 0
M  V30 4809 H 442.958 2.4564 3.45597 0
M  V30 4810 C 441.417 0.988901 3.2206 0
M  V30 4811 O 441.947 0.224501 4.01072 0
M  V30 4812 N 440.153 0.786085 2.79766 0
M  V30 4813 H 439.7 1.40937 2.15626 0
M  V30 4814 H 439.658 -0.00969349 3.14399 0
M  V30 4815 N 443.43 -0.535701 1.48216 0
M  V30 4816 C 444.377 -1.64083 1.62312 0
M  V30 4817 C 445.347 -1.59448 0.465365 0
M  V30 4818 O 446.532 -1.77959 0.688135 0
M  V30 4819 C 443.672 -3.0236 1.66349 0
M  V30 4820 C 442.785 -3.17273 2.93193 0
M  V30 4821 C 441.92 -4.46075 2.88427 0
M  V30 4822 C 440.959 -4.54496 4.1 0
M  V30 4823 N 440.096 -5.7468 4.03345 0
M  V30 4824 H 444.936 -1.51374 2.5669 0
M  V30 4825 H 442.473 -0.737059 1.27302 0
M  V30 4826 H 444.431 -3.82461 1.66672 0
M  V30 4827 H 443.061 -3.13854 0.754672 0
M  V30 4828 H 442.113 -2.30462 3.02641 0
M  V30 4829 H 443.425 -3.19357 3.83162 0
M  V30 4830 H 442.579 -5.3446 2.87119 0
M  V30 4831 H 441.318 -4.46504 1.96177 0
M  V30 4832 H 440.323 -3.64519 4.11589 0
M  V30 4833 H 441.548 -4.5581 5.03402 0
M  V30 4834 H 439.494 -5.76017 3.13912 0
M  V30 4835 H 439.411 -5.78234 4.87013 0
M  V30 4836 H 440.679 -6.65367 4.06087 0
M  V30 4837 N 444.908 -1.36708 -0.784132 0
M  V30 4838 C 446.154 -1.32433 -1.54379 0
M  V30 4839 C 446.509 0.0941816 -1.92169 0
M  V30 4840 O 445.802 1.04997 -1.60269 0
M  V30 4841 C 445.996 -2.18571 -2.82774 0
M  V30 4842 C 445.825 -3.68656 -2.57533 0
M  V30 4843 C 444.595 -4.37813 -2.52286 0
M  V30 4844 C 446.793 -4.61802 -2.2637 0
M  V30 4845 N 444.775 -5.7351 -2.18997 0
M  V30 4846 C 446.146 -5.85785 -2.03115 0
M  V30 4847 C 448.201 -4.50313 -2.12421 0
M  V30 4848 C 446.904 -6.99569 -1.67321 0
M  V30 4849 C 448.93 -5.63969 -1.78026 0
M  V30 4850 C 448.292 -6.86994 -1.55622 0
M  V30 4851 H 444.391 -0.539886 -0.565727 0
M  V30 4852 H 446.975 -1.71812 -0.915908 0
M  V30 4853 H 445.146 -1.81429 -3.43421 0
M  V30 4854 H 446.878 -2.05646 -3.48557 0
M  V30 4855 H 443.633 -3.90674 -2.67714 0
M  V30 4856 H 444.057 -6.45189 -2.05084 0
M  V30 4857 H 448.699 -3.55781 -2.28429 0
M  V30 4858 H 446.417 -7.94047 -1.5005 0
M  V30 4859 H 450.003 -5.57044 -1.67909 0
M  V30 4860 H 448.883 -7.7345 -1.294 0
M  V30 4861 N 446.386 1.0089 -1.21074 0
M  V30 4862 C 447.663 1.71834 -0.934469 0
M  V30 4863 C 448.043 2.0368 0.554753 0
M  V30 4864 O 447.391 1.70742 1.51854 0
M  V30 4865 C 447.601 2.98061 -1.8155 0
M  V30 4866 C 448.949 3.7117 -2.06199 0
M  V30 4867 O 449.973 3.08034 -1.78867 0
M  V30 4868 O 448.832 4.84721 -2.52404 0
M  V30 4869 H 445.926 0.749253 -0.35007 0
M  V30 4870 H 448.472 1.06668 -1.31985 0
M  V30 4871 H 447.244 2.70908 -2.82355 0
M  V30 4872 H 446.867 3.70968 -1.43068 0
M  V30 4873 N 447.864 1.01787 1.20321 0
M  V30 4874 C 448.794 0.609625 2.25401 0
M  V30 4875 C 449.775 -0.375951 1.65893 0
M  V30 4876 O 450.96 -0.261101 1.92437 0
M  V30 4877 C 448.09 -0.0515995 3.47262 0
M  V30 4878 C 447.044 0.855095 4.19371 0
M  V30 4879 C 446.37 0.0595757 5.34667 0
M  V30 4880 C 447.67 2.16374 4.75373 0
M  V30 4881 H 449.364 1.48803 2.59804 0
M  V30 4882 H 446.91 0.716934 1.24884 0
M  V30 4883 H 448.863 -0.348764 4.19954 0
M  V30 4884 H 447.587 -0.964726 3.12027 0
M  V30 4885 H 446.246 1.13628 3.48546 0
M  V30 4886 H 445.894 -0.85524 4.95676 0
M  V30 4887 H 445.594 0.663406 5.83843 0
M  V30 4888 H 447.118 -0.231105 6.10162 0
M  V30 4889 H 448.532 1.92885 5.39878 0
M  V30 4890 H 446.929 2.71853 5.34991 0
M  V30 4891 H 447.999 2.82589 3.94045 0
M  V30 4892 N 449.342 -1.36122 0.79427 0
M  V30 4893 C 450.588 -1.99406 0.369452 0
M  V30 4894 C 450.921 -1.62886 -1.05743 0
M  V30 4895 O 450.196 -0.886053 -1.73145 0
M  V30 4896 C 450.479 -3.56046 0.538833 0
M  V30 4897 C 450.332 -4.02404 2.00976 0
M  V30 4898 C 451.651 -4.40079 -0.0431359 0
M  V30 4899 H 448.77 -0.724397 0.135712 0
M  V30 4900 H 451.412 -1.61461 1.00151 0
M  V30 4901 H 449.562 -3.885 0.000771004 0
M  V30 4902 H 451.234 -3.80415 2.60926 0
M  V30 4903 H 449.477 -3.53765 2.51063 0
M  V30 4904 H 450.148 -5.11344 2.07922 0
M  V30 4905 H 452.624 -4.14013 0.416228 0
M  V30 4906 H 451.5 -5.48799 0.105374 0
M  V30 4907 H 451.761 -4.27264 -1.13571 0
M  V30 4908 N 450.82 -0.546701 -1.47814 0
M  V30 4909 C 451.73 0.21026 -2.33656 0
M  V30 4910 C 452.746 0.922413 -1.47538 0
M  V30 4911 O 453.922 0.893652 -1.80488 0
M  V30 4912 C 450.987 1.23348 -3.24016 0
M  V30 4913 C 450.048 0.529883 -4.26017 0
M  V30 4914 C 449.281 1.50435 -5.12059 0
M  V30 4915 O 449.504 2.73837 -5.00369 0
M  V30 4916 O 448.438 1.03459 -5.92942 0
M  V30 4917 H 452.264 -0.493605 -2.99662 0
M  V30 4918 H 449.849 -0.307427 -1.46203 0
M  V30 4919 H 451.731 1.82438 -3.79861 0
M  V30 4920 H 450.406 1.91945 -2.60651 0
M  V30 4921 H 449.313 -0.101948 -3.73961 0
M  V30 4922 H 450.646 -0.11445 -4.92067 0
M  V30 4923 N 452.299 1.55045 -0.282633 0
M  V30 4924 C 453.249 2.19514 0.616249 0
M  V30 4925 C 454.233 1.16216 1.11277 0
M  V30 4926 O 455.425 1.42004 1.05659 0
M  V30 4927 C 452.554 2.92548 1.7964 0
M  V30 4928 C 451.64 4.03142 1.31671 0
M  V30 4929 N 452.031 5.0276 0.553695 0
M  V30 4930 C 450.329 4.1635 1.59903 0
M  V30 4931 C 451.03 5.80923 0.30054 0
M  V30 4932 N 450.006 5.3651 0.875116 0
M  V30 4933 H 453.808 2.93889 0.0255363 0
M  V30 4934 H 451.322 1.62169 -0.0865362 0
M  V30 4935 H 453.319 3.37188 2.45173 0
M  V30 4936 H 451.979 2.19685 2.39099 0
M  V30 4937 H 452.99 5.17512 0.20032 0
M  V30 4938 H 449.667 3.54682 2.20243 0
M  V30 4939 H 451.057 6.7118 -0.311053 0
M  V30 4940 N 453.777 0.010035 1.57597 0
M  V30 4941 C 455.193 -0.346164 1.55801 0
M  V30 4942 C 455.393 -1.74144 1.01371 0
M  V30 4943 O 454.449 -2.43938 0.651968 0
M  V30 4944 C 455.762 -0.212216 2.9995 0
M  V30 4945 C 457.31 -0.286409 3.11687 0
M  V30 4946 C 457.785 -0.18147 4.5764 0
M  V30 4947 N 459.276 -0.239056 4.62583 0
M  V30 4948 C 460.011 -0.181351 5.73113 0
M  V30 4949 N 459.507 -0.073661 6.92761 0
M  V30 4950 N 461.3 -0.233949 5.61613 0
M  V30 4951 H 453.451 0.922657 1.91313 0
M  V30 4952 H 455.714 0.354595 0.879185 0
M  V30 4953 H 455.42 0.748169 3.4365 0
M  V30 4954 H 455.294 -0.990224 3.6397 0
M  V30 4955 H 457.681 -1.23724 2.67911 0
M  V30 4956 H 457.762 0.521645 2.50425 0
M  V30 4957 H 457.406 0.765863 5.02093 0
M  V30 4958 H 457.336 -1.00814 5.1686 0
M  V30 4959 H 459.827 -0.32321 3.76515 0
M  V30 4960 H 460.14 -0.0358003 7.72792 0
M  V30 4961 H 458.485 -0.0391461 6.94989 0
M  V30 4962 H 461.676 -0.316347 4.6703 0
M  V30 4963 H 461.849 -0.185514 6.47734 0
M  V30 4964 N 455.255 -1.55392 -0.262866 0
M  V30 4965 C 456.165 -1.92077 -1.34698 0
M  V30 4966 C 457.181 -0.819227 -1.53508 0
M  V30 4967 O 458.357 -1.11921 -1.67439 0
M  V30 4968 C 455.422 -2.19407 -2.68443 0
M  V30 4969 C 454.483 -3.42905 -2.58292 0
M  V30 4970 C 453.716 -3.68921 -3.85659 0
M  V30 4971 O 453.939 -2.97275 -4.8681 0
M  V30 4972 O 452.873 -4.62455 -3.85252 0
M  V30 4973 H 456.699 -2.84384 -1.06581 0
M  V30 4974 H 454.284 -1.42069 -0.462264 0
M  V30 4975 H 456.166 -2.38365 -3.47506 0
M  V30 4976 H 454.841 -1.30282 -2.96325 0
M  V30 4977 H 453.748 -3.29272 -1.7757 0
M  V30 4978 H 455.081 -4.32282 -2.35358 0
M  V30 4979 N 456.733 0.527833 -1.48498 0
M  V30 4980 C 457.68 1.6322 -1.6318 0
M  V30 4981 C 458.65 1.59199 -0.473815 0
M  V30 4982 O 459.835 1.77591 -0.697563 0
M  V30 4983 C 456.975 3.01474 -1.67951 0
M  V30 4984 C 456.088 3.15713 -2.94871 0
M  V30 4985 C 455.223 4.44539 -2.90789 0
M  V30 4986 C 454.262 4.52315 -4.12404 0
M  V30 4987 N 453.399 5.72533 -4.06387 0
M  V30 4988 H 458.239 1.50011 -2.57489 0
M  V30 4989 H 455.776 0.730298 -1.27691 0
M  V30 4990 H 457.734 3.81572 -1.68698 0
M  V30 4991 H 456.364 3.1345 -0.771306 0
M  V30 4992 H 455.416 2.28854 -3.03859 0
M  V30 4993 H 456.728 3.1732 -3.8485 0
M  V30 4994 H 455.882 5.3293 -2.89949 0
M  V30 4995 H 454.621 4.45457 -1.98542 0
M  V30 4996 H 453.626 3.62331 -4.13517 0
M  V30 4997 H 454.851 4.53134 -5.05812 0
M  V30 4998 H 452.797 5.74344 -3.16962 0
M  V30 4999 H 452.714 5.75643 -4.90073 0
M  V30 5000 H 453.982 6.63204 -4.0961 0
M  V30 5001 N 458.211 1.37122 0.776871 0
M  V30 5002 C 459.627 1.1781 1.07671 0
M  V30 5003 C 459.827 0.0107454 2.01497 0
M  V30 5004 O 458.883 -0.650756 2.4397 0
M  V30 5005 C 460.196 2.49451 1.67913 0
M  V30 5006 C 461.744 2.55927 1.80195 0
M  V30 5007 C 462.219 3.87686 2.43851 0
M  V30 5008 N 463.71 3.891 2.51307 0
M  V30 5009 C 464.445 4.87797 3.014 0
M  V30 5010 N 463.941 5.96888 3.51705 0
M  V30 5011 N 465.734 4.75205 3.00227 0
M  V30 5012 H 457.885 2.11843 0.153778 0
M  V30 5013 H 460.148 0.938927 0.130844 0
M  V30 5014 H 459.854 3.35207 1.06439 0
M  V30 5015 H 459.728 2.66169 2.67271 0
M  V30 5016 H 462.115 1.70582 2.40803 0
M  V30 5017 H 462.196 2.43097 0.796069 0
M  V30 5018 H 461.84 4.73444 1.83884 0
M  V30 5019 H 461.77 3.97817 3.45035 0
M  V30 5020 H 464.261 3.10293 2.157 0
M  V30 5021 H 464.574 6.68155 3.88316 0
M  V30 5022 H 462.919 6.0054 3.49824 0
M  V30 5023 H 466.11 3.89103 2.60224 0
M  V30 5024 H 466.283 5.52279 3.38957 0
M  V30 5025 N 459.689 -1.00246 1.21608 0
M  V30 5026 C 460.919 -1.77373 1.05935 0
M  V30 5027 C 461.327 -1.85059 -0.393686 0
M  V30 5028 O 460.67 -1.31289 -1.28487 0
M  V30 5029 C 460.732 -3.22705 1.58435 0
M  V30 5030 C 460.396 -3.38591 3.06929 0
M  V30 5031 C 461.393 -3.2667 4.04454 0
M  V30 5032 C 459.078 -3.6395 3.46187 0
M  V30 5033 C 461.072 -3.39877 5.39224 0
M  V30 5034 C 458.759 -3.768 4.81108 0
M  V30 5035 C 459.757 -3.6477 5.77436 0
M  V30 5036 O 459.445 -3.77206 7.09909 0
M  V30 5037 H 459.177 -0.56419 0.372378 0
M  V30 5038 H 461.731 -1.26971 1.61454 0
M  V30 5039 H 459.961 -3.74255 0.973147 0
M  V30 5040 H 461.65 -3.81515 1.38568 0
M  V30 5041 H 462.416 -3.06999 3.75468 0
M  V30 5042 H 458.295 -3.72395 2.71741 0
M  V30 5043 H 461.839 -3.30404 6.14393 0
M  V30 5044 H 457.736 -3.95975 5.09779 0
M  V30 5045 H 458.504 -3.94138 7.17355 0
M  V30 5046 N 461.167 -1.02423 -1.1978 0
M  V30 5047 C 462.444 -0.632802 -1.85081 0
M  V30 5048 C 462.824 0.888745 -1.9148 0
M  V30 5049 O 462.172 1.78357 -1.42832 0
M  V30 5050 C 462.382 -1.28947 -3.24305 0
M  V30 5051 C 463.73 -1.40976 -4.00513 0
M  V30 5052 O 464.754 -1.24628 -3.33686 0
M  V30 5053 O 463.613 -1.67467 -5.20209 0
M  V30 5054 H 460.707 -0.219348 -0.79738 0
M  V30 5055 H 463.253 -1.12209 -1.27307 0
M  V30 5056 H 462.025 -2.3288 -3.14456 0
M  V30 5057 H 461.648 -0.787748 -3.89718 0
M  V30 5058 N 462.645 1.35699 -0.801477 0
M  V30 5059 C 463.555 2.33661 -0.209691 0
M  V30 5060 C 464.571 1.6162 0.644591 0
M  V30 5061 O 465.747 1.93529 0.557545 0
M  V30 5062 C 462.812 3.40816 0.636033 0
M  V30 5063 C 461.873 4.28639 -0.238147 0
M  V30 5064 C 461.106 5.30676 0.567307 0
M  V30 5065 O 461.329 5.41174 1.8024 0
M  V30 5066 O 460.263 6.01887 -0.0391336 0
M  V30 5067 H 464.089 2.8606 -1.01996 0
M  V30 5068 H 461.674 1.38379 -0.563164 0
M  V30 5069 H 463.556 4.06301 1.11791 0
M  V30 5070 H 462.231 2.90696 1.42399 0
M  V30 5071 H 461.138 3.66152 -0.767044 0
M  V30 5072 H 462.471 4.82143 -0.989915 0
M  V30 5073 N 464.123 0.554532 1.47522 0
M  V30 5074 C 465.37 0.029479 2.02479 0
M  V30 5075 C 465.698 -1.31929 1.42916 0
M  V30 5076 O 464.953 -1.87112 0.573385 0
M  V30 5077 C 465.252 -0.115927 3.57212 0
M  V30 5078 C 464.918 1.16161 4.3568 0
M  V30 5079 C 463.58 1.51168 4.56839 0
M  V30 5080 C 465.932 2.0083 4.80954 0
M  V30 5081 C 463.26 2.70696 5.2052 0
M  V30 5082 C 465.612 3.19559 5.45953 0
M  V30 5083 C 464.276 3.54882 5.65345 0
M  V30 5084 H 463.546 0.0107871 0.740921 0
M  V30 5085 H 466.193 0.725506 1.77225 0
M  V30 5086 H 464.498 -0.894902 3.81443 0
M  V30 5087 H 466.195 -0.53749 3.97381 0
M  V30 5088 H 462.785 0.879026 4.19489 0
M  V30 5089 H 466.969 1.75093 4.64388 0
M  V30 5090 H 462.225 2.98236 5.33728 0
M  V30 5091 H 466.399 3.85456 5.79997 0
M  V30 5092 H 464.026 4.47596 6.1446 0
M  V30 5093 N 465.601 -1.54893 0.290851 0
M  V30 5094 C 466.829 -2.04343 -0.324288 0
M  V30 5095 C 467.244 -1.16859 -1.48289 0
M  V30 5096 O 466.601 -0.192018 -1.81487 0
M  V30 5097 C 466.652 -3.52756 -0.79026 0
M  V30 5098 O 466.373 -4.36913 0.322213 0
M  V30 5099 C 467.874 -4.18161 -1.4716 0
M  V30 5100 H 465.094 -0.667135 -0.0719173 0
M  V30 5101 H 467.638 -1.99981 0.427529 0
M  V30 5102 H 465.793 -3.57511 -1.49213 0
M  V30 5103 H 466.207 -5.24486 -0.0387372 0
M  V30 5104 H 467.681 -5.23562 -1.7489 0
M  V30 5105 H 468.158 -3.67282 -2.40834 0
M  V30 5106 H 468.764 -4.17454 -0.813178 0
M  V30 5107 N 467.08 -0.0183926 -1.57589 0
M  V30 5108 C 468.027 0.967022 -2.09565 0
M  V30 5109 C 468.997 1.32983 -0.995225 0
M  V30 5110 O 470.182 1.42501 -1.26878 0
M  V30 5111 C 467.322 2.24772 -2.61861 0
M  V30 5112 C 466.435 1.94232 -3.85873 0
M  V30 5113 C 465.57 3.16518 -4.26603 0
M  V30 5114 C 464.609 2.81748 -5.43401 0
M  V30 5115 N 463.746 3.96626 -5.79338 0
M  V30 5116 H 468.586 0.516874 -2.93483 0
M  V30 5117 H 466.123 0.243544 -1.4507 0
M  V30 5118 H 468.081 2.99667 -2.90268 0
M  V30 5119 H 466.711 2.67423 -1.8079 0
M  V30 5120 H 465.763 1.09625 -3.64262 0
M  V30 5121 H 467.075 1.64616 -4.70853 0
M  V30 5122 H 466.229 3.99743 -4.56389 0
M  V30 5123 H 464.968 3.49286 -3.40368 0
M  V30 5124 H 463.973 1.96933 -5.1332 0
M  V30 5125 H 465.198 2.50207 -6.31327 0
M  V30 5126 H 463.144 4.29257 -4.96059 0
M  V30 5127 H 463.061 3.70598 -6.58933 0
M  V30 5128 H 464.329 4.80586 -6.13724 0
M  V30 5129 N 468.558 1.5553 0.254621 0
M  V30 5130 C 469.488 1.9268 1.31897 0
M  V30 5131 C 470.469 0.790797 1.506 0
M  V30 5132 O 471.654 1.05045 1.63337 0
M  V30 5133 C 468.784 2.21477 2.67517 0
M  V30 5134 C 467.738 3.37256 2.63519 0
M  V30 5135 C 467.064 3.51576 4.02862 0
M  V30 5136 C 468.364 4.73157 2.21179 0
M  V30 5137 H 470.058 2.81832 1.01051 0
M  V30 5138 H 467.604 1.35599 0.484662 0
M  V30 5139 H 469.557 2.46055 3.42104 0
M  V30 5140 H 468.281 1.29144 2.99982 0
M  V30 5141 H 466.94 3.12675 1.9139 0
M  V30 5142 H 466.588 2.56676 4.32581 0
M  V30 5143 H 466.288 4.2943 4.01078 0
M  V30 5144 H 467.812 3.78467 4.79161 0
M  V30 5145 H 469.226 4.97158 2.85494 0
M  V30 5146 H 467.623 5.54058 2.30521 0
M  V30 5147 H 468.693 4.70739 1.16332 0
M  V30 5148 N 470.036 -0.519951 1.48776 0
M  V30 5149 C 471.283 -1.27522 1.57303 0
M  V30 5150 C 471.611 -1.92869 0.251328 0
M  V30 5151 O 470.866 -1.80372 -0.759243 0
M  V30 5152 C 471.165 -2.37864 2.6675 0
M  V30 5153 C 470.831 -1.90103 4.08867 0
M  V30 5154 C 469.493 -1.76795 4.47546 0
M  V30 5155 C 471.845 -1.54133 4.97888 0
M  V30 5156 C 469.173 -1.25868 5.73039 0
M  V30 5157 C 471.525 -1.04665 6.23881 0
M  V30 5158 C 470.189 -0.899823 6.61407 0
M  V30 5159 H 469.459 -0.466636 0.575614 0
M  V30 5160 H 472.106 -0.579109 1.82534 0
M  V30 5161 H 470.411 -3.13186 2.35418 0
M  V30 5162 H 472.108 -2.95969 2.70561 0
M  V30 5163 H 468.698 -2.01414 3.78326 0
M  V30 5164 H 472.882 -1.6327 4.68675 0
M  V30 5165 H 468.138 -1.13196 6.0083 0
M  V30 5166 H 472.312 -0.759074 6.92251 0
M  V30 5167 H 469.939 -0.503011 7.58534 0
M  V30 5168 N 471.514 -1.37532 -0.769588 0
M  V30 5169 C 472.93 -1.18379 -1.07045 0
M  V30 5170 C 473.13 -0.0214312 -2.01489 0
M  V30 5171 O 472.186 0.637809 -2.44312 0
M  V30 5172 C 473.499 -2.50338 -1.66588 0
M  V30 5173 C 475.047 -2.56879 -1.78835 0
M  V30 5174 C 475.522 -3.88974 -2.41792 0
M  V30 5175 N 477.013 -3.90428 -2.4924 0
M  V30 5176 C 477.748 -4.89388 -2.98809 0
M  V30 5177 N 477.244 -5.98745 -3.48535 0
M  V30 5178 N 479.037 -4.76791 -2.97703 0
M  V30 5179 H 471.188 -2.11921 -0.142541 0
M  V30 5180 H 473.451 -0.939608 -0.125863 0
M  V30 5181 H 473.157 -3.35767 -1.0466 0
M  V30 5182 H 473.031 -2.67583 -2.65856 0
M  V30 5183 H 475.418 -1.71856 -2.39895 0
M  V30 5184 H 475.499 -2.43516 -0.783166 0
M  V30 5185 H 475.143 -4.74412 -1.81371 0
M  V30 5186 H 475.073 -3.99641 -3.4292 0
M  V30 5187 H 477.564 -3.11433 -2.14052 0
M  V30 5188 H 477.877 -6.70205 -3.84767 0
M  V30 5189 H 476.222 -6.02387 -3.46634 0
M  V30 5190 H 479.413 -3.90478 -2.58157 0
M  V30 5191 H 479.586 -5.54069 -3.36024 0
M  V30 5192 N 472.992 0.995999 -1.22138 0
M  V30 5193 C 473.902 2.11985 -1.00496 0
M  V30 5194 C 474.918 1.7394 0.0457701 0
M  V30 5195 O 476.094 2.00868 -0.146273 0
M  V30 5196 C 473.159 3.41779 -0.582086 0
M  V30 5197 C 472.22 3.93943 -1.70608 0
M  V30 5198 C 471.453 5.17542 -1.30328 0
M  V30 5199 O 471.676 5.70114 -0.180743 0
M  V30 5200 O 470.61 5.63382 -2.11861 0
M  V30 5201 H 474.436 2.33123 -1.94647 0
M  V30 5202 H 472.021 1.10358 -1.00705 0
M  V30 5203 H 473.903 4.1989 -0.356467 0
M  V30 5204 H 472.578 3.22007 0.330592 0
M  V30 5205 H 471.485 3.17019 -1.98619 0
M  V30 5206 H 472.818 4.18141 -2.59651 0
M  V30 5207 N 474.47 1.03057 1.19235 0
M  V30 5208 C 475.417 0.612832 2.22515 0
M  V30 5209 C 476.387 -0.374224 1.61829 0
M  V30 5210 O 477.572 -0.270501 1.88873 0
M  V30 5211 C 474.712 -0.028475 3.45088 0
M  V30 5212 C 473.825 1.00483 4.20151 0
M  V30 5213 C 472.96 0.333102 5.30155 0
M  V30 5214 C 471.999 1.3522 5.96977 0
M  V30 5215 N 471.136 0.70616 6.9854 0
M  V30 5216 H 475.976 1.49812 2.57605 0
M  V30 5217 H 473.513 0.749658 1.26564 0
M  V30 5218 H 475.471 -0.417548 4.15105 0
M  V30 5219 H 474.101 -0.877334 3.10649 0
M  V30 5220 H 473.153 1.51194 3.49062 0
M  V30 5221 H 474.465 1.77929 4.65986 0
M  V30 5222 H 473.619 -0.110725 6.06599 0
M  V30 5223 H 472.358 -0.473547 4.85396 0
M  V30 5224 H 471.363 1.80627 5.19282 0
M  V30 5225 H 472.588 2.16037 6.4382 0
M  V30 5226 H 470.534 -0.0803667 6.55951 0
M  V30 5227 H 470.451 1.41848 7.42573 0
M  V30 5228 H 471.719 0.286391 7.78974 0
M  V30 5229 N 475.948 -1.35272 0.808662 0
M  V30 5230 C 476.878 -2.32315 0.234981 0
M  V30 5231 C 477.859 -1.57572 -0.64071 0
M  V30 5232 O 479.044 -1.8563 -0.570551 0
M  V30 5233 C 476.174 -3.41801 -0.615601 0
M  V30 5234 C 475.128 -4.27694 0.161767 0
M  V30 5235 C 474.454 -5.28519 -0.810649 0
M  V30 5236 C 475.754 -5.04231 1.36193 0
M  V30 5237 H 477.448 -2.80543 1.04575 0
M  V30 5238 H 474.994 -1.3488 0.504315 0
M  V30 5239 H 476.947 -4.08693 -1.02702 0
M  V30 5240 H 475.671 -2.92186 -1.45928 0
M  V30 5241 H 474.33 -3.62384 0.554382 0
M  V30 5242 H 473.978 -4.75171 -1.64988 0
M  V30 5243 H 473.678 -5.8686 -0.294822 0
M  V30 5244 H 475.202 -5.98283 -1.22023 0
M  V30 5245 H 476.616 -5.64058 1.02528 0
M  V30 5246 H 475.013 -5.72077 1.81239 0
M  V30 5247 H 476.083 -4.34753 2.14751 0
M  V30 5248 N 477.426 -0.562348 -1.47226 0
M  V30 5249 C 478.656 -0.0451619 -2.06551 0
M  V30 5250 C 479.064 1.25626 -1.41473 0
M  V30 5251 O 478.407 1.76563 -0.507061 0
M  V30 5252 C 478.469 0.216068 -3.5885 0
M  V30 5253 C 478.133 -0.996691 -4.45999 0
M  V30 5254 C 479.13 -1.90358 -4.83797 0
M  V30 5255 C 476.815 -1.21281 -4.87438 0
M  V30 5256 C 478.809 -3.01023 -5.6184 0
M  V30 5257 C 476.496 -2.32255 -5.65244 0
M  V30 5258 C 477.494 -3.21956 -6.02356 0
M  V30 5259 O 477.182 -4.31005 -6.78594 0
M  V30 5260 H 476.914 -0.0451646 -0.67449 0
M  V30 5261 H 479.468 -0.776842 -1.90143 0
M  V30 5262 H 477.698 1.00212 -3.7349 0
M  V30 5263 H 479.387 0.679264 -4.00176 0
M  V30 5264 H 480.153 -1.74868 -4.52378 0
M  V30 5265 H 476.032 -0.523767 -4.58015 0
M  V30 5266 H 479.576 -3.71064 -5.90726 0
M  V30 5267 H 475.473 -2.47715 -5.96077 0
M  V30 5268 H 476.241 -4.29118 -6.96994 0
M  V30 5269 N 478.904 1.54736 -0.299062 0
M  V30 5270 C 480.151 2.00101 0.310784 0
M  V30 5271 C 480.479 1.18746 1.54045 0
M  V30 5272 O 479.734 0.251198 1.94081 0
M  V30 5273 C 480.033 3.50199 0.713835 0
M  V30 5274 C 479.699 4.48997 -0.413873 0
M  V30 5275 C 478.361 4.7573 -0.723462 0
M  V30 5276 C 480.713 5.07839 -1.17257 0
M  V30 5277 C 478.041 5.5857 -1.79491 0
M  V30 5278 C 480.393 5.91844 -2.23392 0
M  V30 5279 C 479.057 6.16889 -2.54959 0
M  V30 5280 H 478.327 0.732221 0.113724 0
M  V30 5281 H 480.974 1.86888 -0.417756 0
M  V30 5282 H 479.279 3.61012 1.52243 0
M  V30 5283 H 480.976 3.82723 1.19684 0
M  V30 5284 H 477.566 4.28292 -0.162476 0
M  V30 5285 H 481.75 4.87188 -0.946651 0
M  V30 5286 H 477.006 5.76213 -2.04423 0
M  V30 5287 H 481.18 6.36465 -2.8264 0
M  V30 5288 H 478.807 6.80869 -3.38114 0
M  V30 5289 N 480.382 0.0267497 1.57577 0
M  V30 5290 C 481.631 -0.651736 1.9088 0
M  V30 5291 C 481.944 -1.73427 0.904576 0
M  V30 5292 O 483.15 -2.46923 1.12877 0
M  V30 5293 C 481.606 -1.21048 3.38933 0
M  V30 5294 C 481.214 -0.161362 4.47709 0
M  V30 5295 C 482.958 -1.86562 3.81307 0
M  V30 5296 C 480.865 -0.731611 5.86857 0
M  V30 5297 H 479.795 -0.247198 0.712326 0
M  V30 5298 H 482.446 0.0916641 1.83271 0
M  V30 5299 H 480.828 -2.00542 3.41466 0
M  V30 5300 H 482.002 0.61094 4.56732 0
M  V30 5301 H 480.317 0.394877 4.14523 0
M  V30 5302 H 482.914 -2.30178 4.8262 0
M  V30 5303 H 483.257 -2.70735 3.16241 0
M  V30 5304 H 483.79 -1.13762 3.81186 0
M  V30 5305 H 480.529 0.0719329 6.55461 0
M  V30 5306 H 480.049 -1.47245 5.81445 0
M  V30 5307 H 481.728 -1.22208 6.35354 0
M  V30 5308 N 481.861 -1.55662 -0.24637 0
M  V30 5309 C 483.138 -1.68272 -0.997198 0
M  V30 5310 C 483.518 -0.566785 -2.03349 0
M  V30 5311 O 482.866 0.429688 -2.24424 0
M  V30 5312 C 483.076 -3.08594 -1.63006 0
M  V30 5313 C 484.424 -3.6721 -2.13171 0
M  V30 5314 O 485.448 -3.11397 -1.72946 0
M  V30 5315 O 484.307 -4.65054 -2.87031 0
M  V30 5316 H 481.401 -0.684429 -0.464205 0
M  V30 5317 H 483.947 -1.67993 -0.240114 0
M  V30 5318 H 482.719 -3.81264 -0.880527 0
M  V30 5319 H 482.342 -3.12886 -2.45333 0
M  V30 5320 N 483.339 0.512053 -1.4905 0
M  V30 5321 C 484.569 1.28928 -1.61434 0
M  V30 5322 C 484.977 1.87107 -0.280647 0
M  V30 5323 O 484.32 1.68024 0.742537 0
M  V30 5324 C 484.382 2.466 -2.61588 0
M  V30 5325 C 484.046 2.09375 -4.06216 0
M  V30 5326 C 485.043 1.63994 -4.93358 0
M  V30 5327 C 482.728 2.19348 -4.51876 0
M  V30 5328 C 484.722 1.29076 -6.24194 0
M  V30 5329 C 482.409 1.84041 -5.82728 0
M  V30 5330 C 483.407 1.38978 -6.68711 0
M  V30 5331 O 483.095 1.04144 -7.97126 0
M  V30 5332 H 482.827 0.397668 -0.546659 0
M  V30 5333 H 485.381 0.622507 -1.9574 0
M  V30 5334 H 483.611 3.16318 -2.22441 0
M  V30 5335 H 485.3 3.08642 -2.63619 0
M  V30 5336 H 486.066 1.55744 -4.59313 0
M  V30 5337 H 481.945 2.53376 -3.85125 0
M  V30 5338 H 485.489 0.938303 -6.91261 0
M  V30 5339 H 481.386 1.91938 -6.16304 0
M  V30 5340 H 482.154 1.17387 -8.10039 0
M  V30 5341 N 484.817 1.37938 0.762283 0
M  V30 5342 C 486.042 1.37059 1.55659 0
M  V30 5343 C 486.467 -0.0396123 1.88058 0
M  V30 5344 O 485.825 -1.01929 1.49934 0
M  V30 5345 C 485.873 2.22494 2.83776 0
M  V30 5346 O 484.977 1.63607 3.78559 0
M  V30 5347 H 484.318 0.467892 0.47114 0
M  V30 5348 H 486.848 1.81587 0.942725 0
M  V30 5349 H 486.858 2.36045 3.32786 0
M  V30 5350 H 485.533 3.24993 2.59524 0
M  V30 5351 H 484.11 1.5915 3.37233 0
M  V30 5352 N 486.295 -0.989507 1.22664 0
M  V30 5353 C 487.706 -1.54406 1.04955 0
M  V30 5354 C 488.057 -1.92366 -0.385951 0
M  V30 5355 O 487.182 -1.75111 -1.27142 0
M  V30 5356 C 487.777 -2.80578 1.89899 0
M  V30 5357 C 486.336 -3.32464 1.76478 0
M  V30 5358 C 485.483 -2.05524 1.86159 0
M  V30 5359 H 488.434 -0.810211 1.3646 0
M  V30 5360 H 488.455 -3.53075 1.4184 0
M  V30 5361 H 487.967 -2.52918 2.94371 0
M  V30 5362 H 486.068 -3.65024 0.747528 0
M  V30 5363 H 486.181 -4.02838 2.59342 0
M  V30 5364 H 484.545 -2.19241 1.29636 0
M  V30 5365 H 485.328 -1.80258 2.92168 0
M  V30 5366 N 487.773 -1.03688 -1.18687 0
M  V30 5367 C 488.703 -0.645407 -2.24403 0
M  V30 5368 C 489.684 0.349511 -1.66471 0
M  V30 5369 O 490.869 0.230453 -1.92828 0
M  V30 5370 C 487.999 -0.00365337 -3.473 0
M  V30 5371 C 486.953 -0.921705 -4.17958 0
M  V30 5372 C 486.279 -0.144629 -5.34504 0
M  V30 5373 C 487.579 -2.23909 -4.71871 0
M  V30 5374 H 489.273 -1.52917 -2.57404 0
M  V30 5375 H 486.819 -0.736711 -1.23728 0
M  V30 5376 H 488.772 0.281908 -4.20456 0
M  V30 5377 H 487.496 0.914963 -3.13522 0
M  V30 5378 H 486.155 -1.19159 -3.46694 0
M  V30 5379 H 485.803 0.776274 -4.96974 0
M  V30 5380 H 485.503 -0.756206 -5.82714 0
M  V30 5381 H 487.027 0.134004 -6.10453 0
M  V30 5382 H 488.441 -2.0145 -5.36741 0
M  V30 5383 H 486.838 -2.8033 -5.30599 0
M  V30 5384 H 487.908 -2.88822 -3.895 0
M  V30 5385 N 489.251 1.34841 -0.815825 0
M  V30 5386 C 490.5 1.97755 -0.396976 0
M  V30 5387 C 490.813 1.65422 1.04379 0
M  V30 5388 O 492.019 2.21771 1.5662 0
M  V30 5389 C 490.475 3.53818 -0.658869 0
M  V30 5390 C 490.083 3.95051 -2.11278 0
M  V30 5391 C 491.827 4.23397 -0.305834 0
M  V30 5392 C 489.734 5.43997 -2.31994 0
M  V30 5393 H 488.664 0.739985 -0.1447 0
M  V30 5394 H 491.315 1.53781 -1.00118 0
M  V30 5395 H 489.697 3.95997 0.0154112 0
M  V30 5396 H 490.871 3.63998 -2.82564 0
M  V30 5397 H 489.186 3.38388 -2.42657 0
M  V30 5398 H 491.783 5.32899 -0.43854 0
M  V30 5399 H 492.126 4.09508 0.748952 0
M  V30 5400 H 492.659 3.8667 -0.934403 0
M  V30 5401 H 489.398 5.62865 -3.35952 0
M  V30 5402 H 488.918 5.76589 -1.65244 0
M  V30 5403 H 490.597 6.10584 -2.14001 0
M  V30 5404 N 490.729 0.570148 1.46925 0
M  V30 5405 C 491.976 0.0509529 2.02436 0
M  V30 5406 C 492.304 -1.30405 1.44308 0
M  V30 5407 O 491.559 -1.86493 0.593198 0
M  V30 5408 C 491.858 -0.0780336 3.57315 0
M  V30 5409 C 491.524 1.20775 4.34424 0
M  V30 5410 C 490.186 1.56004 4.5521 0
M  V30 5411 C 492.538 2.0592 4.78797 0
M  V30 5412 C 489.866 2.76201 5.17619 0
M  V30 5413 C 492.218 3.25332 5.42533 0
M  V30 5414 C 490.882 3.60859 5.61549 0
M  V30 5415 H 490.152 0.018645 0.740765 0
M  V30 5416 H 492.799 0.744262 1.76445 0
M  V30 5417 H 491.104 -0.854394 3.82371 0
M  V30 5418 H 492.801 -0.495312 3.97929 0
M  V30 5419 H 489.391 0.923469 4.18533 0
M  V30 5420 H 493.575 1.80008 4.62505 0
M  V30 5421 H 488.831 3.0388 5.30535 0
M  V30 5422 H 493.005 3.91586 5.75876 0
M  V30 5423 H 490.632 4.54088 6.09678 0
M  V30 5424 N 492.207 -1.54576 0.307264 0
M  V30 5425 C 493.435 -2.04675 -0.302597 0
M  V30 5426 C 493.85 -1.18425 -1.47041 0
M  V30 5427 O 493.207 -0.211257 -1.81273 0
M  V30 5428 C 493.258 -3.53575 -0.752801 0
M  V30 5429 O 492.979 -4.36547 0.368536 0
M  V30 5430 C 494.48 -4.19699 -1.42717 0
M  V30 5431 H 491.7 -0.66786 -0.0648374 0
M  V30 5432 H 494.244 -1.99516 0.448716 0
M  V30 5433 H 492.399 -3.59074 -1.45412 0
M  V30 5434 H 492.813 -5.24497 0.0168937 0
M  V30 5435 H 494.287 -5.25388 -1.69327 0
M  V30 5436 H 494.764 -3.69815 -2.36925 0
M  V30 5437 H 495.37 -4.18293 -0.768856 0
M  V30 5438 N 493.685 -0.035106 -1.57561 0
M  V30 5439 C 494.91 0.655802 -1.96759 0
M  V30 5440 C 495.335 1.64523 -0.911809 0
M  V30 5441 O 494.693 1.80857 0.126673 0
M  V30 5442 C 494.741 1.33326 -3.35047 0
M  V30 5443 O 493.845 2.44866 -3.31835 0
M  V30 5444 H 493.186 0.171807 -0.641388 0
M  V30 5445 H 495.716 -0.0987369 -2.04362 0
M  V30 5446 H 495.726 1.68867 -3.71413 0
M  V30 5447 H 494.401 0.608033 -4.11431 0
M  V30 5448 H 492.978 2.11392 -3.07193 0
M  V30 5449 N 495.163 1.55791 0.238111 0
M  V30 5450 C 496.126 1.90239 1.27835 0
M  V30 5451 C 497.126 0.779552 1.4064 0
M  V30 5452 O 498.316 1.04747 1.3919 0
M  V30 5453 C 495.448 2.13859 2.65475 0
M  V30 5454 H 496.641 2.83262 0.985034 0
M  V30 5455 H 494.194 1.48818 0.477799 0
M  V30 5456 H 494.929 1.23334 2.99932 0
M  V30 5457 H 494.714 2.95643 2.57561 0
M  V30 5458 H 496.204 2.41664 3.40571 0
M  V30 5459 N 496.642 -0.504142 1.49319 0
M  V30 5460 C 497.919 -1.26548 1.49147 0
M  V30 5461 C 498.299 -2.09977 0.21744 0
M  V30 5462 O 497.647 -2.14028 -0.800269 0
M  V30 5463 C 497.857 -2.12489 2.76857 0
M  V30 5464 C 499.205 -2.7178 3.26222 0
M  V30 5465 O 500.229 -2.22758 2.77952 0
M  V30 5466 O 499.088 -3.61015 4.10281 0
M  V30 5467 H 496.182 -0.572495 0.596806 0
M  V30 5468 H 498.728 -0.51867 1.61579 0
M  V30 5469 H 497.5 -1.50796 3.61077 0
M  V30 5470 H 497.123 -2.94368 2.6727 0
M  V30 5471 N 498.12 -1.38341 -0.754957 0
M  V30 5472 C 499.067 -1.3546 -1.86867 0
M  V30 5473 C 500.037 -0.217369 -1.64672 0
M  V30 5474 O 501.222 -0.409383 -1.86356 0
M  V30 5475 C 498.362 -1.18413 -3.24149 0
M  V30 5476 C 497.475 -2.41511 -3.58185 0
M  V30 5477 C 496.61 -2.17205 -4.84763 0
M  V30 5478 C 495.649 -3.36081 -5.11582 0
M  V30 5479 N 494.786 -3.11219 -6.29354 0
M  V30 5480 H 499.626 -2.30672 -1.88664 0
M  V30 5481 H 497.163 -1.14607 -0.922154 0
M  V30 5482 H 499.121 -1.06545 -4.03366 0
M  V30 5483 H 497.751 -0.268397 -3.21682 0
M  V30 5484 H 496.803 -2.64056 -2.73822 0
M  V30 5485 H 498.115 -3.30115 -3.73932 0
M  V30 5486 H 497.269 -2.02465 -5.7192 0
M  V30 5487 H 496.008 -1.25964 -4.71152 0
M  V30 5488 H 495.013 -3.51341 -4.22894 0
M  V30 5489 H 496.238 -4.28196 -5.27091 0
M  V30 5490 H 494.184 -2.22624 -6.17069 0
M  V30 5491 H 494.101 -3.93373 -6.45596 0
M  V30 5492 H 495.369 -3.00132 -7.19403 0
M  V30 5493 N 499.598 0.982988 -1.23187 0
M  V30 5494 C 500.846 1.72052 -1.06031 0
M  V30 5495 C 501.167 1.90769 0.404019 0
M  V30 5496 O 500.437 1.47446 1.28982 0
M  V30 5497 H 499.017 0.637499 -0.389363 0
M  V30 5498 H 501.679 1.18338 -1.54862 0
M  V30 5499 H 500.775 2.7111 -1.54615 0
M  V30 5500 N 501.076 1.04316 1.18135 0
M  V30 5501 C 502.322 0.758899 1.88712 0
M  V30 5502 C 502.677 -0.705863 1.78984 0
M  V30 5503 O 501.97 -1.50874 1.18101 0
M  V30 5504 C 502.164 1.16271 3.37958 0
M  V30 5505 C 501.993 2.66518 3.62213 0
M  V30 5506 C 500.763 3.33702 3.79436 0
M  V30 5507 C 502.961 3.64739 3.62588 0
M  V30 5508 N 500.943 4.72904 3.91452 0
M  V30 5509 C 502.314 4.89627 3.80348 0
M  V30 5510 C 504.369 3.58333 3.4569 0
M  V30 5511 C 503.072 6.08879 3.8296 0
M  V30 5512 C 505.098 4.77016 3.49586 0
M  V30 5513 C 504.46 6.00724 3.67845 0
M  V30 5514 H 500.559 0.329795 0.709055 0
M  V30 5515 H 503.143 1.33334 1.4188 0
M  V30 5516 H 501.314 0.616319 3.83479 0
M  V30 5517 H 503.046 0.829205 3.96114 0
M  V30 5518 H 499.801 2.84105 3.78921 0
M  V30 5519 H 500.225 5.45258 4.01277 0
M  V30 5520 H 504.867 2.63663 3.30517 0
M  V30 5521 H 502.585 7.03903 3.96921 0
M  V30 5522 H 506.171 4.73703 3.37782 0
M  V30 5523 H 505.051 6.91022 3.70753 0
M  V30 5524 N 502.554 -1.34406 0.822964 0
M  V30 5525 C 503.502 -2.31428 0.233165 0
M  V30 5526 C 504.496 -1.57404 -0.626118 0
M  V30 5527 O 505.702 -1.72402 -0.517453 0
M  V30 5528 H 502.077 -0.749863 0.0566557 0
M  V30 5529 H 504.048 -2.78699 1.06628 0
M  V30 5530 C 502.797 -3.42653 -0.590264 0
M  V30 5531 H 502.12 -3.99753 0.0616129 0
M  V30 5532 H 503.56 -4.12778 -0.969054 0
M  V30 5533 C 502.019 -2.87112 -1.76262 0
M  V30 5534 O 502.549 -2.81995 -2.8608 0
M  V30 5535 N 500.755 -2.43934 -1.57938 0
M  V30 5536 H 500.302 -2.48296 -0.686078 0
M  V30 5537 H 500.26 -2.07123 -2.36532 0
M  V30 5538 N 504.032 -0.577932 -1.46621 0
M  V30 5539 C 505.281 -0.0594281 -2.01612 0
M  V30 5540 C 505.594 1.30663 -1.45556 0
M  V30 5541 O 506.8 1.91621 -1.92337 0
M  V30 5542 C 505.256 -0.0556666 -3.59857 0
M  V30 5543 C 504.864 -1.41975 -4.24908 0
M  V30 5544 C 506.608 0.409143 -4.22524 0
M  V30 5545 C 504.515 -1.37397 -5.75218 0
M  V30 5546 H 503.445 -0.0184469 -0.753774 0
M  V30 5547 H 506.096 -0.728869 -1.68404 0
M  V30 5548 H 504.478 0.679843 -3.90121 0
M  V30 5549 H 505.652 -2.17461 -4.0626 0
M  V30 5550 H 503.967 -1.82419 -3.74316 0
M  V30 5551 H 506.564 0.46211 -5.32699 0
M  V30 5552 H 506.907 1.42565 -3.91128 0
M  V30 5553 H 507.44 -0.272152 -3.96868 0
M  V30 5554 H 504.179 -2.36714 -6.11267 0
M  V30 5555 H 503.699 -0.661239 -5.96144 0
M  V30 5556 H 505.378 -1.08484 -6.3784 0
M  V30 5557 N 505.51 1.54411 -0.315457 0
M  V30 5558 C 506.787 1.92562 0.343398 0
M  V30 5559 C 507.167 1.24423 1.70535 0
M  V30 5560 O 506.515 0.385051 2.25232 0
M  V30 5561 C 506.725 3.46168 0.443687 0
M  V30 5562 C 508.073 4.18659 0.707783 0
M  V30 5563 O 509.097 3.52281 0.52693 0
M  V30 5564 O 507.956 5.36198 1.05612 0
M  V30 5565 H 505.05 0.80379 0.194552 0
M  V30 5566 H 507.596 1.65738 -0.364577 0
M  V30 5567 H 506.368 3.8792 -0.513172 0
M  V30 5568 H 505.991 3.79073 1.19956 0
M  V30 5569 N 506.988 0.0434614 1.5754 0
M  V30 5570 C 508.404 -0.313039 1.565 0
M  V30 5571 C 508.604 -1.71954 1.05043 0
M  V30 5572 O 507.66 -2.425 0.703564 0
M  V30 5573 C 508.973 -0.148544 3.00333 0
M  V30 5574 C 510.521 -0.220231 3.12224 0
M  V30 5575 C 510.996 -0.0843565 4.57922 0
M  V30 5576 N 512.487 -0.140881 4.62986 0
M  V30 5577 C 513.222 -0.0597443 5.73369 0
M  V30 5578 N 512.718 0.0733004 6.92761 0
M  V30 5579 N 514.511 -0.11477 5.61983 0
M  V30 5580 H 506.662 0.96303 1.89313 0
M  V30 5581 H 508.925 0.373164 0.871466 0
M  V30 5582 H 508.631 0.820894 3.41986 0
M  V30 5583 H 508.505 -0.912798 3.65989 0
M  V30 5584 H 510.892 -1.18014 2.70475 0
M  V30 5585 H 510.973 0.574646 2.49262 0
M  V30 5586 H 510.617 0.872192 5.00355 0
M  V30 5587 H 510.547 -0.898281 5.18882 0
M  V30 5588 H 513.038 -0.243273 3.77116 0
M  V30 5589 H 513.351 0.128128 7.72694 0
M  V30 5590 H 511.696 0.10828 6.94916 0
M  V30 5591 H 514.887 -0.217212 4.67596 0
M  V30 5592 H 515.06 -0.0480779 6.47982 0
M  V30 5593 N 508.466 -1.55915 -0.229846 0
M  V30 5594 C 509.712 -1.78807 -0.956868 0
M  V30 5595 C 510.045 -0.611687 -1.84315 0
M  V30 5596 O 509.32 0.389398 -1.90562 0
M  V30 5597 C 509.603 -3.11718 -1.80288 0
M  V30 5598 C 509.456 -4.3979 -0.943649 0
M  V30 5599 C 510.775 -3.40999 -2.78222 0
M  V30 5600 H 507.894 -0.6505 -0.346437 0
M  V30 5601 H 510.536 -1.88648 -0.226252 0
M  V30 5602 H 508.686 -3.03459 -2.42579 0
M  V30 5603 H 510.358 -4.60059 -0.338121 0
M  V30 5604 H 508.601 -4.33086 -0.248705 0
M  V30 5605 H 509.272 -5.29208 -1.5698 0
M  V30 5606 H 511.748 -3.49332 -2.26067 0
M  V30 5607 H 510.624 -4.35183 -3.34526 0
M  V30 5608 H 510.885 -2.62754 -3.55546 0
M  V30 5609 N 509.944 0.496216 -1.49584 0
M  V30 5610 C 511.193 1.24668 -1.58558 0
M  V30 5611 C 511.506 1.9359 -0.279703 0
M  V30 5612 O 512.712 2.70365 -0.248048 0
M  V30 5613 C 511.168 2.26388 -2.79779 0
M  V30 5614 C 510.776 1.63384 -4.17145 0
M  V30 5615 C 512.52 3.02233 -2.98086 0
M  V30 5616 C 510.427 2.63243 -5.29582 0
M  V30 5617 H 509.357 0.468995 -0.590389 0
M  V30 5618 H 512.008 0.519985 -1.75978 0
M  V30 5619 H 510.39 3.02241 -2.55863 0
M  V30 5620 H 511.564 0.93491 -4.51216 0
M  V30 5621 H 509.879 0.999121 -4.04236 0
M  V30 5622 H 512.476 3.76919 -3.79257 0
M  V30 5623 H 512.819 3.60132 -2.08831 0
M  V30 5624 H 513.352 2.33495 -3.22063 0
M  V30 5625 H 510.091 2.10119 -6.20911 0
M  V30 5626 H 509.611 3.31363 -4.99959 0
M  V30 5627 H 511.29 3.25575 -5.59115 0
M  V30 5628 N 511.423 1.38739 0.74761 0
M  V30 5629 C 512.7 1.25791 1.49786 0
M  V30 5630 C 513.08 -0.138075 2.10648 0
M  V30 5631 O 512.428 -1.14815 1.9756 0
M  V30 5632 C 512.638 2.37265 2.55942 0
M  V30 5633 C 513.986 2.75978 3.22679 0
M  V30 5634 O 515.01 2.36621 2.6625 0
M  V30 5635 O 513.869 3.43867 4.24756 0
M  V30 5636 H 510.963 0.492251 0.664543 0
M  V30 5637 H 513.509 1.50582 0.782511 0
M  V30 5638 H 512.281 3.30644 2.0926 0
M  V30 5639 H 511.904 2.14071 3.35051 0
M  V30 5640 N 512.901 -0.976442 1.23707 0
M  V30 5641 C 513.864 -2.0511 1.02287 0
M  V30 5642 C 514.864 -1.60791 -0.0167195 0
M  V30 5643 O 516.054 -1.72761 0.223408 0
M  V30 5644 C 513.186 -3.36458 0.548507 0
M  V30 5645 H 514.379 -2.25545 1.9766 0
M  V30 5646 H 511.932 -1.15042 1.05806 0
M  V30 5647 H 512.667 -3.21713 -0.408818 0
M  V30 5648 H 512.452 -3.69967 1.29874 0
M  V30 5649 H 513.942 -4.15489 0.419406 0
M  V30 5650 N 514.379 -1.04941 -1.1758 0
M  V30 5651 C 515.628 -0.753124 -1.87112 0
M  V30 5652 C 515.941 0.722507 -1.81767 0
M  V30 5653 O 517.147 1.13265 -2.46746 0
M  V30 5654 C 515.603 -1.29695 -3.35719 0
M  V30 5655 C 515.211 -2.80184 -3.49572 0
M  V30 5656 C 516.955 -1.07759 -4.10595 0
M  V30 5657 C 514.862 -3.2788 -4.92187 0
M  V30 5658 H 513.792 -0.278034 -0.700866 0
M  V30 5659 H 516.443 -1.26637 -1.32798 0
M  V30 5660 H 514.825 -0.711522 -3.89555 0
M  V30 5661 H 515.999 -3.44561 -3.05965 0
M  V30 5662 H 514.314 -3.00632 -2.88113 0
M  V30 5663 H 516.911 -1.40899 -5.15802 0
M  V30 5664 H 517.254 -0.0152302 -4.16297 0
M  V30 5665 H 517.787 -1.62809 -3.62957 0
M  V30 5666 H 514.526 -4.33535 -4.91658 0
M  V30 5667 H 514.046 -2.68245 -5.36475 0
M  V30 5668 H 515.725 -3.22412 -5.60945 0
M  V30 5669 N 515.857 1.33968 -0.830081 0
M  V30 5670 C 516.805 2.31301 -0.245435 0
M  V30 5671 C 517.799 1.57734 0.617762 0
M  V30 5672 O 519.005 1.72674 0.508303 0
M  V30 5673 H 515.38 0.749552 -0.0606316 0
M  V30 5674 H 517.351 2.78129 -1.08105 0
M  V30 5675 C 516.1 3.42961 0.572084 0
M  V30 5676 H 515.423 3.99714 -0.0828118 0
M  V30 5677 H 516.863 4.13286 0.94715 0
M  V30 5678 C 515.322 2.88043 1.74737 0
M  V30 5679 O 515.852 2.83508 2.8458 0
M  V30 5680 N 514.058 2.44768 1.56642 0
M  V30 5681 H 513.605 2.48656 0.672901 0
M  V30 5682 H 513.563 2.08375 2.3543 0
M  V30 5683 N 517.335 0.585699 1.46312 0
M  V30 5684 C 518.265 -0.133556 2.33118 0
M  V30 5685 C 519.246 -0.880707 1.45525 0
M  V30 5686 O 520.431 -0.855579 1.74337 0
M  V30 5687 C 517.561 -1.14585 3.27853 0
M  V30 5688 C 516.515 -0.513341 4.2491 0
M  V30 5689 C 515.841 -1.63231 5.09175 0
M  V30 5690 C 517.141 0.551413 5.19381 0
M  V30 5691 H 518.835 0.59121 2.93505 0
M  V30 5692 H 516.381 0.285761 1.41136 0
M  V30 5693 H 518.334 -1.65741 3.87438 0
M  V30 5694 H 517.058 -1.90093 2.65579 0
M  V30 5695 H 515.717 -0.0228349 3.66593 0
M  V30 5696 H 515.365 -2.37713 4.43285 0
M  V30 5697 H 515.065 -1.21473 5.74907 0
M  V30 5698 H 516.589 -2.14658 5.71624 0
M  V30 5699 H 518.003 0.124804 5.73164 0
M  V30 5700 H 516.4 0.889486 5.93471 0
M  V30 5701 H 517.47 1.43655 4.63132 0
M  V30 5702 N 518.813 -1.54241 0.323641 0
M  V30 5703 C 519.776 -2.22997 -0.529602 0
M  V30 5704 C 520.776 -1.22345 -1.04347 0
M  V30 5705 O 521.966 -1.46924 -0.935889 0
M  V30 5706 C 519.098 -2.93409 -1.73562 0
M  V30 5707 H 520.291 -2.99815 0.0714518 0
M  V30 5708 H 517.844 -1.56121 0.0747258 0
M  V30 5709 H 518.579 -2.20729 -2.37591 0
M  V30 5710 H 518.364 -3.67217 -1.37456 0
M  V30 5711 H 519.854 -3.45794 -2.34128 0
M  V30 5712 N 520.291 -0.0518155 -1.57515 0
M  V30 5713 C 521.521 0.63048 -1.96745 0
M  V30 5714 C 521.929 1.64875 -0.928054 0
M  V30 5715 O 521.272 1.83449 0.0960678 0
M  V30 5716 C 521.334 1.37381 -3.32215 0
M  V30 5717 C 520.998 0.511298 -4.54131 0
M  V30 5718 C 521.995 -0.222884 -5.19422 0
M  V30 5719 C 519.68 0.442035 -5.00351 0
M  V30 5720 C 521.674 -1.01476 -6.2927 0
M  V30 5721 C 519.361 -0.35353 -6.10077 0
M  V30 5722 C 520.359 -1.08062 -6.74397 0
M  V30 5723 O 520.047 -1.8631 -7.82013 0
M  V30 5724 H 519.779 0.177126 -0.652382 0
M  V30 5725 H 522.333 -0.114726 -2.05079 0
M  V30 5726 H 520.563 2.16466 -3.20436 0
M  V30 5727 H 522.252 1.9464 -3.56188 0
M  V30 5728 H 523.018 -0.178846 -4.8467 0
M  V30 5729 H 518.897 0.997562 -4.50077 0
M  V30 5730 H 522.441 -1.58279 -6.79407 0
M  V30 5731 H 518.338 -0.399205 -6.44264 0
M  V30 5732 H 519.106 -1.78528 -7.98793 0
M  V30 5733 N 521.769 1.56035 0.221574 0
M  V30 5734 C 522.732 1.91584 1.2581 0
M  V30 5735 C 523.732 0.794425 1.39805 0
M  V30 5736 O 524.922 1.06217 1.38071 0
M  V30 5737 C 522.054 2.16663 2.63192 0
M  V30 5738 H 523.247 2.8429 0.954935 0
M  V30 5739 H 520.8 1.49316 0.461988 0
M  V30 5740 H 521.535 1.26508 2.98607 0
M  V30 5741 H 521.32 2.98358 2.5441 0
M  V30 5742 H 522.81 2.45262 3.37988 0
M  V30 5743 N 523.247 -0.488276 1.49845 0
M  V30 5744 C 524.472 -1.26997 1.63971 0
M  V30 5745 C 524.897 -1.85427 0.315994 0
M  V30 5746 O 524.255 -1.66475 -0.718032 0
M  V30 5747 C 524.303 -2.36689 2.72049 0
M  V30 5748 O 523.407 -3.40882 2.32107 0
M  V30 5749 H 522.748 -0.374376 0.548396 0
M  V30 5750 H 525.278 -0.583104 1.96115 0
M  V30 5751 H 525.288 -2.82262 2.94605 0
M  V30 5752 H 523.963 -1.93529 3.68129 0
M  V30 5753 H 522.54 -3.01139 2.19931 0
M  V30 5754 N 524.725 -1.39134 -0.740242 0
M  V30 5755 C 525.955 -1.39132 -1.52728 0
M  V30 5756 C 526.363 0.0173133 -1.89192 0
M  V30 5757 O 525.706 0.997715 -1.54244 0
M  V30 5758 C 525.768 -2.1952 -2.84695 0
M  V30 5759 C 525.432 -3.68203 -2.70695 0
M  V30 5760 C 526.429 -4.61401 -2.39593 0
M  V30 5761 C 524.114 -4.11724 -2.8773 0
M  V30 5762 C 526.108 -5.96102 -2.25701 0
M  V30 5763 C 523.795 -5.46503 -2.73456 0
M  V30 5764 C 524.793 -6.38506 -2.42486 0
M  V30 5765 O 524.481 -7.70803 -2.28295 0
M  V30 5766 H 524.213 -0.477263 -0.478744 0
M  V30 5767 H 526.767 -1.83504 -0.922799 0
M  V30 5768 H 524.997 -1.69888 -3.47383 0
M  V30 5769 H 526.686 -2.1176 -3.46284 0
M  V30 5770 H 527.452 -4.29079 -2.26088 0
M  V30 5771 H 523.331 -3.4045 -3.10829 0
M  V30 5772 H 526.875 -6.6788 -2.0145 0
M  V30 5773 H 522.772 -5.78417 -2.86538 0
M  V30 5774 H 523.54 -7.8147 -2.43405 0
M  V30 5775 N 526.204 0.969867 -1.24223 0
M  V30 5776 C 527.432 1.74756 -1.10761 0
M  V30 5777 C 527.847 1.85713 0.340041 0
M  V30 5778 O 527.204 1.34389 1.23474 0
M  V30 5779 C 527.255 3.16915 -1.73917 0
M  V30 5780 O 526.976 3.06511 -3.13021 0
M  V30 5781 C 528.477 4.11032 -1.66036 0
M  V30 5782 H 525.697 0.548092 -0.387087 0
M  V30 5783 H 528.241 1.2178 -1.64286 0
M  V30 5784 H 526.396 3.66884 -1.244 0
M  V30 5785 H 526.81 3.96079 -3.43834 0
M  V30 5786 H 528.284 5.08446 -2.14911 0
M  V30 5787 H 528.761 4.34785 -0.621159 0
M  V30 5788 H 529.367 3.66972 -2.14969 0
M  V30 5789 N 527.682 1.05563 1.17022 0
M  V30 5790 C 528.91 0.78845 1.91288 0
M  V30 5791 C 529.325 -0.656318 1.77025 0
M  V30 5792 O 528.682 -1.44869 1.10992 0
M  V30 5793 C 528.733 1.16444 3.42232 0
M  V30 5794 O 528.454 2.5525 3.5606 0
M  V30 5795 C 529.955 0.923937 4.33565 0
M  V30 5796 H 527.175 0.286389 0.606813 0
M  V30 5797 H 529.719 1.4073 1.48375 0
M  V30 5798 H 527.874 0.590266 3.82877 0
M  V30 5799 H 528.288 2.70097 4.49609 0
M  V30 5800 H 529.762 1.23672 5.37968 0
M  V30 5801 H 530.239 -0.140688 4.38975 0
M  V30 5802 H 530.845 1.48214 3.98639 0
M  V30 5803 N 529.16 -1.33526 0.837174 0
M  V30 5804 C 530.107 -2.29248 0.267169 0
M  V30 5805 C 531.077 -1.54252 -0.616071 0
M  V30 5806 O 532.262 -1.82559 -0.554699 0
M  V30 5807 C 529.402 -3.40638 -0.553152 0
M  V30 5808 C 528.515 -4.30548 0.353921 0
M  V30 5809 C 527.65 -5.29051 -0.477339 0
M  V30 5810 C 526.689 -6.106 0.42823 0
M  V30 5811 N 525.826 -7.01152 -0.364801 0
M  V30 5812 H 530.666 -2.77398 1.08877 0
M  V30 5813 H 528.203 -1.36496 0.54838 0
M  V30 5814 H 530.161 -4.03921 -1.04422 0
M  V30 5815 H 528.791 -2.93685 -1.33973 0
M  V30 5816 H 527.843 -3.68001 0.963289 0
M  V30 5817 H 529.155 -4.87631 1.04964 0
M  V30 5818 H 528.309 -5.97853 -1.0323 0
M  V30 5819 H 527.048 -4.72541 -1.2065 0
M  V30 5820 H 526.053 -5.40718 0.995219 0
M  V30 5821 H 527.278 -6.69193 1.15573 0
M  V30 5822 H 525.224 -6.47092 -1.07738 0
M  V30 5823 H 525.141 -7.5551 0.272238 0
M  V30 5824 H 526.409 -7.74263 -0.902054 0
M  V30 5825 N 530.638 -0.59345 -1.46 0
M  V30 5826 C 531.884 -0.0832754 -2.02629 0
M  V30 5827 C 532.217 1.27749 -1.46266 0
M  V30 5828 O 531.492 1.8395 -0.631866 0
M  V30 5829 C 531.775 -0.0290756 -3.60088 0
M  V30 5830 C 531.628 -1.41951 -4.26814 0
M  V30 5831 C 532.947 0.666055 -4.35031 0
M  V30 5832 H 530.066 -0.031736 -0.736316 0
M  V30 5833 H 532.708 -0.762711 -1.74019 0
M  V30 5834 H 530.858 0.549532 -3.84594 0
M  V30 5835 H 532.53 -2.04411 -4.13538 0
M  V30 5836 H 530.773 -1.98422 -3.8576 0
M  V30 5837 H 531.444 -1.33395 -5.3564 0
M  V30 5838 H 533.92 0.174401 -4.15734 0
M  V30 5839 H 532.796 0.673041 -5.44758 0
M  V30 5840 H 533.057 1.72946 -4.06869 0
M  V30 5841 N 532.116 1.54067 -0.331816 0
M  V30 5842 C 533.527 1.86059 0.15454 0
M  V30 5843 C 533.878 1.25331 1.50952 0
M  V30 5844 O 533.003 0.562441 2.08963 0
M  V30 5845 C 533.598 3.37581 0.287192 0
M  V30 5846 C 532.157 3.69493 0.717773 0
M  V30 5847 C 531.304 2.76863 -0.155569 0
M  V30 5848 H 534.255 1.48797 -0.55182 0
M  V30 5849 H 534.276 3.63744 1.11671 0
M  V30 5850 H 533.788 3.81751 -0.699131 0
M  V30 5851 H 531.889 3.3086 1.71354 0
M  V30 5852 H 532.002 4.76315 0.5158 0
M  V30 5853 H 530.366 2.51995 0.370213 0
M  V30 5854 H 531.149 3.23861 -1.13881 0
M  V30 5855 N 533.594 0.0601682 1.57485 0
M  V30 5856 C 534.819 -0.624416 1.97777 0
M  V30 5857 C 535.244 -1.63051 0.937867 0
M  V30 5858 O 534.602 -1.81036 -0.0978845 0
M  V30 5859 C 534.65 -1.27979 3.37126 0
M  V30 5860 O 533.754 -2.39556 3.35688 0
M  V30 5861 H 533.095 -0.161581 0.64404 0
M  V30 5862 H 535.625 0.131237 2.04179 0
M  V30 5863 H 535.635 -1.62937 3.74053 0
M  V30 5864 H 534.31 -0.542501 4.12347 0
M  V30 5865 H 532.887 -2.06478 3.10517 0
M  V30 5866 N 535.072 -1.5615 -0.213296 0
M  V30 5867 C 536.297 -1.83986 -0.957282 0
M  V30 5868 C 536.722 -0.641526 -1.76822 0
M  V30 5869 O 536.08 0.409722 -1.7661 0
M  V30 5870 C 536.128 -3.09889 -1.84393 0
M  V30 5871 O 535.232 -2.89163 -2.94038 0
M  V30 5872 H 534.573 -0.606357 -0.270605 0
M  V30 5873 H 537.103 -2.03369 -0.224111 0
M  V30 5874 H 537.113 -3.40209 -2.25215 0
M  V30 5875 H 535.788 -3.96735 -1.24795 0
M  V30 5876 H 534.365 -2.70097 -2.57103 0
M  V30 5877 N 536.55 0.480323 -1.50102 0
M  V30 5878 C 537.513 1.56181 -1.6775 0
M  V30 5879 C 538.513 1.51156 -0.548503 0
M  V30 5880 O 539.703 1.5394 -0.815363 0
M  V30 5881 C 536.835 2.95823 -1.69415 0
M  V30 5882 H 538.028 1.41855 -2.6423 0
M  V30 5883 H 535.581 0.70605 -1.39444 0
M  V30 5884 H 536.316 3.15604 -0.745948 0
M  V30 5885 H 536.101 3.00878 -2.51425 0
M  V30 5886 H 537.591 3.74359 -1.85054 0
M  V30 5887 N 538.028 1.39524 0.732853 0
M  V30 5888 C 539.277 1.36175 1.48792 0
M  V30 5889 C 539.59 -0.0388195 1.95561 0
M  V30 5890 O 540.796 -0.194899 2.708 0
M  V30 5891 C 539.252 2.39242 2.68871 0
M  V30 5892 C 538.86 3.85024 2.29042 0
M  V30 5893 C 540.604 2.44972 3.46683 0
M  V30 5894 C 538.511 4.79727 3.45856 0
M  V30 5895 H 537.441 0.506267 0.558757 0
M  V30 5896 H 540.092 1.65181 0.799226 0
M  V30 5897 H 538.474 2.0331 3.39825 0
M  V30 5898 H 539.648 4.30008 1.6562 0
M  V30 5899 H 537.963 3.82609 1.64316 0
M  V30 5900 H 540.56 3.12918 4.33574 0
M  V30 5901 H 540.903 1.4749 3.89297 0
M  V30 5902 H 541.436 2.79808 2.82759 0
M  V30 5903 H 538.175 5.78479 3.08289 0
M  V30 5904 H 537.695 4.39421 4.08251 0
M  V30 5905 H 539.374 4.98731 4.12161 0
M  V30 5906 N 539.506 -0.963266 1.24736 0
M  V30 5907 C 540.454 -2.07985 1.04139 0
M  V30 5908 C 541.448 -1.69381 -0.0250556 0
M  V30 5909 O 542.654 -1.79531 0.129863 0
M  V30 5910 H 539.029 -0.680627 0.319768 0
M  V30 5911 H 541 -2.22517 1.98818 0
M  V30 5912 C 539.749 -3.4123 0.667615 0
M  V30 5913 H 539.072 -3.71397 1.48 0
M  V30 5914 H 540.512 -4.20244 0.563136 0
M  V30 5915 C 538.971 -3.3104 -0.625647 0
M  V30 5916 O 539.501 -3.65334 -1.67016 0
M  V30 5917 N 537.707 -2.84168 -0.608033 0
M  V30 5918 H 537.254 -2.56458 0.242323 0
M  V30 5919 H 537.212 -2.77732 -1.47352 0
M  V30 5920 N 540.985 -1.06182 -1.16461 0
M  V30 5921 C 542.21 -0.798599 -1.91408 0
M  V30 5922 C 542.635 0.640987 -1.76842 0
M  V30 5923 O 541.993 1.44652 -1.09296 0
M  V30 5924 C 542.041 -1.19665 -3.40165 0
M  V30 5925 O 541.145 -0.334768 -4.11039 0
M  V30 5926 H 540.486 -0.291961 -0.596368 0
M  V30 5927 H 543.016 -1.41732 -1.47557 0
M  V30 5928 H 543.026 -1.16772 -3.90933 0
M  V30 5929 H 541.701 -2.24526 -3.50087 0
M  V30 5930 H 540.278 -0.425168 -3.70468 0
M  V30 5931 N 542.463 1.3308 -0.844243 0
M  V30 5932 C 543.426 2.27403 -0.286485 0
M  V30 5933 C 544.426 1.51179 0.547872 0
M  V30 5934 O 545.616 1.70421 0.360886 0
M  V30 5935 C 542.748 3.35653 0.595813 0
M  V30 5936 H 543.941 2.78248 -1.11885 0
M  V30 5937 H 541.494 1.43574 -0.617749 0
M  V30 5938 H 542.229 2.90058 1.4504 0
M  V30 5939 H 542.014 3.921 -0.00125994 0
M  V30 5940 H 543.504 4.05958 0.979168 0
M  V30 5941 N 543.941 0.601185 1.45683 0
M  V30 5942 C 544.871 -0.108824 2.33246 0
M  V30 5943 C 545.852 -0.865223 1.46451 0
M  V30 5944 O 547.037 -0.83704 1.75235 0
M  V30 5945 C 544.167 -1.11101 3.2905 0
M  V30 5946 C 543.121 -0.468244 4.25431 0
M  V30 5947 C 542.447 -1.57822 5.10878 0
M  V30 5948 C 543.747 0.606469 5.18767 0
M  V30 5949 H 545.441 0.622306 2.92861 0
M  V30 5950 H 542.987 0.300714 1.40825 0
M  V30 5951 H 544.94 -1.61622 3.89174 0
M  V30 5952 H 543.664 -1.87265 2.67581 0
M  V30 5953 H 542.323 0.0160484 3.66596 0
M  V30 5954 H 541.971 -2.32998 4.45781 0
M  V30 5955 H 541.671 -1.15369 5.76163 0
M  V30 5956 H 543.195 -2.08583 5.73869 0
M  V30 5957 H 544.609 0.185589 5.73 0
M  V30 5958 H 543.006 0.952381 5.92494 0
M  V30 5959 H 544.076 1.48559 4.61582 0
M  V30 5960 N 545.419 -1.53889 0.339982 0
M  V30 5961 C 546.351 -2.22435 -0.55275 0
M  V30 5962 C 547.364 -1.22975 -1.06681 0
M  V30 5963 O 548.553 -1.49351 -0.977575 0
M  V30 5964 C 545.653 -2.8882 -1.77302 0
M  V30 5965 C 544.826 -4.14563 -1.39486 0
M  V30 5966 C 543.885 -4.64391 -2.47442 0
M  V30 5967 O 542.911 -5.28687 -2.10899 0
M  V30 5968 N 544.113 -4.40015 -3.78639 0
M  V30 5969 H 546.878 -2.9968 0.0342669 0
M  V30 5970 H 544.439 -1.61068 0.16394 0
M  V30 5971 H 546.431 -3.19072 -2.48948 0
M  V30 5972 H 545.001 -2.15182 -2.26749 0
M  V30 5973 H 544.221 -3.90896 -0.509321 0
M  V30 5974 H 545.509 -4.96362 -1.11813 0
M  V30 5975 H 544.907 -3.88586 -4.11118 0
M  V30 5976 H 543.464 -4.74881 -4.46465 0
M  V30 5977 N 546.897 -0.0685191 -1.57451 0
M  V30 5978 C 547.844 0.899861 -2.12535 0
M  V30 5979 C 548.814 1.29749 -1.03703 0
M  V30 5980 O 549.999 1.38392 -1.31348 0
M  V30 5981 C 547.139 2.16328 -2.6888 0
M  V30 5982 C 546.252 1.81857 -3.91857 0
M  V30 5983 C 545.387 3.02786 -4.36457 0
M  V30 5984 C 544.426 2.64317 -5.5209 0
M  V30 5985 N 543.563 3.77994 -5.91663 0
M  V30 5986 H 548.403 0.423243 -2.94979 0
M  V30 5987 H 545.94 0.197268 -1.45771 0
M  V30 5988 H 547.898 2.90281 -2.99655 0
M  V30 5989 H 546.528 2.61536 -1.89206 0
M  V30 5990 H 545.58 0.979808 -3.67565 0
M  V30 5991 H 546.892 1.49553 -4.75852 0
M  V30 5992 H 546.046 3.85021 -4.68875 0
M  V30 5993 H 544.785 3.38281 -3.51308 0
M  V30 5994 H 543.79 1.80503 -5.19325 0
M  V30 5995 H 545.015 2.29995 -6.38967 0
M  V30 5996 H 542.961 4.13258 -5.09464 0
M  V30 5997 H 542.878 3.49447 -6.7039 0
M  V30 5998 H 544.146 4.60818 -6.28703 0
M  V30 5999 N 548.375 1.56261 0.205012 0
M  V30 6000 C 549.621 1.80306 0.9283 0
M  V30 6001 C 549.954 0.640932 1.83319 0
M  V30 6002 O 549.229 -0.359032 1.91158 0
M  V30 6003 C 549.512 3.14547 1.75306 0
M  V30 6004 C 549.365 4.41236 0.873562 0
M  V30 6005 C 550.684 3.45382 2.72762 0
M  V30 6006 H 547.803 0.655929 0.336044 0
M  V30 6007 H 550.445 1.88984 0.196211 0
M  V30 6008 H 548.595 3.0728 2.37721 0
M  V30 6009 H 550.267 4.60539 0.264887 0
M  V30 6010 H 548.51 4.33427 0.179773 0
M  V30 6011 H 549.181 5.31639 1.48541 0
M  V30 6012 H 551.657 3.52884 2.20481 0
M  V30 6013 H 550.533 4.40449 3.2756 0
M  V30 6014 H 550.794 2.68377 3.51321 0
M  V30 6015 N 549.853 -0.472356 1.50355 0
M  V30 6016 C 550.783 -1.57859 1.72055 0
M  V30 6017 C 551.764 -1.60283 0.569505 0
M  V30 6018 O 552.949 -1.7657 0.808503 0
M  V30 6019 C 550.079 -2.96191 1.81351 0
M  V30 6020 C 549.033 -3.08633 2.96529 0
M  V30 6021 C 548.359 -4.486 2.90968 0
M  V30 6022 C 549.659 -2.85969 4.37057 0
M  V30 6023 H 551.353 -1.39953 2.64676 0
M  V30 6024 H 548.899 -0.671846 1.27367 0
M  V30 6025 H 550.852 -3.73507 1.95117 0
M  V30 6026 H 549.576 -3.15251 0.853502 0
M  V30 6027 H 548.235 -2.33749 2.82413 0
M  V30 6028 H 547.883 -4.64577 1.92815 0
M  V30 6029 H 547.583 -4.57861 3.68289 0
M  V30 6030 H 549.107 -5.27938 3.0678 0
M  V30 6031 H 550.521 -3.53036 4.51706 0
M  V30 6032 H 548.918 -3.06677 5.15819 0
M  V30 6033 H 549.988 -1.81838 4.49514 0
M  V30 6034 N 551.331 -1.39911 -0.725443 0
M  V30 6035 C 552.294 -1.39156 -1.82121 0
M  V30 6036 C 553.294 -0.287018 -1.58218 0
M  V30 6037 O 554.484 -0.545421 -1.65441 0
M  V30 6038 C 551.616 -1.1736 -3.20062 0
M  V30 6039 H 552.809 -2.36672 -1.84191 0
M  V30 6040 H 550.362 -1.25615 -0.930079 0
M  V30 6041 H 551.097 -0.205648 -3.23647 0
M  V30 6042 H 550.882 -1.97358 -3.3881 0
M  V30 6043 H 552.372 -1.19596 -4.00108 0
M  V30 6044 N 552.809 0.956637 -1.25245 0
M  V30 6045 C 554.056 1.701 -1.09874 0
M  V30 6046 C 554.384 1.91128 0.36062 0
M  V30 6047 O 553.639 1.47837 1.28229 0
M  V30 6048 C 553.938 3.08996 -1.79601 0
M  V30 6049 C 553.604 3.07774 -3.29523 0
M  V30 6050 C 552.266 3.07149 -3.70423 0
M  V30 6051 C 554.618 3.01257 -4.25316 0
M  V30 6052 C 551.946 2.97752 -5.0553 0
M  V30 6053 C 554.298 2.93403 -5.60444 0
M  V30 6054 C 552.962 2.91111 -6.00675 0
M  V30 6055 H 552.232 0.62244 -0.402056 0
M  V30 6056 H 554.879 1.1178 -1.55491 0
M  V30 6057 H 553.184 3.70848 -1.26408 0
M  V30 6058 H 554.881 3.65407 -1.65162 0
M  V30 6059 H 551.471 3.09032 -2.9698 0
M  V30 6060 H 555.655 3.00861 -3.9471 0
M  V30 6061 H 550.911 2.94346 -5.35883 0
M  V30 6062 H 555.085 2.87321 -6.34366 0
M  V30 6063 H 552.712 2.83586 -7.05325 0
M  V30 6064 N 554.287 1.06798 1.15896 0
M  V30 6065 C 555.515 0.808694 1.90441 0
M  V30 6066 C 555.93 -0.637506 1.77711 0
M  V30 6067 O 555.287 -1.43684 1.12522 0
M  V30 6068 C 555.338 1.20068 3.40978 0
M  V30 6069 O 555.059 2.59013 3.53333 0
M  V30 6070 C 556.56 0.96987 4.3256 0
M  V30 6071 H 553.78 0.292809 0.603742 0
M  V30 6072 H 556.324 1.42296 1.46874 0
M  V30 6073 H 554.479 0.630842 3.82229 0
M  V30 6074 H 554.893 2.7485 4.46719 0
M  V30 6075 H 556.367 1.29371 5.36626 0
M  V30 6076 H 556.844 -0.0941209 4.39099 0
M  V30 6077 H 557.45 1.52433 3.97044 0
M  V30 6078 N 555.766 -1.3263 0.851289 0
M  V30 6079 C 556.714 -2.30882 0.282202 0
M  V30 6080 C 557.708 -1.58697 -0.592589 0
M  V30 6081 O 558.914 -1.73461 -0.480768 0
M  V30 6082 H 555.289 -0.748492 0.0725487 0
M  V30 6083 H 557.26 -2.76374 1.12516 0
M  V30 6084 C 556.009 -3.43828 -0.517449 0
M  V30 6085 H 555.332 -3.99532 0.146392 0
M  V30 6086 H 556.772 -4.1474 -0.88128 0
M  V30 6087 C 555.231 -2.90786 -1.70133 0
M  V30 6088 O 555.761 -2.88 -2.80034 0
M  V30 6089 N 553.967 -2.4723 -1.52728 0
M  V30 6090 H 553.514 -2.49695 -0.633257 0
M  V30 6091 H 553.472 -2.12094 -2.32085 0
M  V30 6092 N 557.244 -0.608902 -1.45362 0
M  V30 6093 C 558.174 0.0964526 -2.33301 0
M  V30 6094 C 559.155 0.857444 -1.46908 0
M  V30 6095 O 560.34 0.827735 -1.75676 0
M  V30 6096 C 557.47 1.09354 -3.29635 0
M  V30 6097 C 556.424 0.445676 -4.25673 0
M  V30 6098 C 555.75 1.5511 -5.11708 0
M  V30 6099 C 557.05 -0.633972 -5.18438 0
M  V30 6100 H 558.744 -0.637829 -2.92527 0
M  V30 6101 H 556.29 -0.308178 -1.40664 0
M  V30 6102 H 558.243 1.59556 -3.90025 0
M  V30 6103 H 556.967 1.85843 -2.6857 0
M  V30 6104 H 555.626 -0.0354897 -3.66583 0
M  V30 6105 H 555.274 2.30631 -4.4701 0
M  V30 6106 H 554.974 1.12311 -5.76767 0
M  V30 6107 H 556.498 2.05537 -5.74967 0
M  V30 6108 H 557.912 -0.215974 -5.72893 0
M  V30 6109 H 556.309 -0.983789 -5.91981 0
M  V30 6110 H 557.379 -1.51005 -4.60788 0
M  V30 6111 N 558.722 1.53707 -0.348139 0
M  V30 6112 C 560.133 1.86213 0.134797 0
M  V30 6113 C 560.484 1.26925 1.49614 0
M  V30 6114 O 559.609 0.584573 2.08355 0
M  V30 6115 C 560.204 3.37866 0.251371 0
M  V30 6116 C 558.763 3.70233 0.678543 0
M  V30 6117 C 557.91 2.76683 -0.184925 0
M  V30 6118 H 560.861 1.48204 -0.567571 0
M  V30 6119 H 560.882 3.64908 1.07806 0
M  V30 6120 H 560.394 3.80988 -0.739581 0
M  V30 6121 H 558.495 3.32659 1.67835 0
M  V30 6122 H 558.608 4.76836 0.465251 0
M  V30 6123 H 556.972 2.52374 0.343465 0
M  V30 6124 H 557.755 3.22635 -1.1731 0
M  V30 6125 N 560.2 0.0768682 1.57412 0
M  V30 6126 C 561.616 -0.279772 1.57129 0
M  V30 6127 C 561.816 -1.69688 1.08666 0
M  V30 6128 O 560.872 -2.40953 0.754843 0
M  V30 6129 C 562.185 -0.0848055 3.0058 0
M  V30 6130 C 563.733 -0.153954 3.12621 0
M  V30 6131 C 564.208 0.0127946 4.57998 0
M  V30 6132 N 565.699 -0.0426435 4.6318 0
M  V30 6133 C 566.434 0.0618892 5.73367 0
M  V30 6134 N 565.93 0.220229 6.9245 0
M  V30 6135 N 567.723 0.00446072 5.621 0
M  V30 6136 H 559.874 1.00297 1.87228 0
M  V30 6137 H 562.137 0.391565 0.863354 0
M  V30 6138 H 561.843 0.89325 3.40168 0
M  V30 6139 H 561.717 -0.834961 3.67843 0
M  V30 6140 H 564.104 -1.1225 2.72917 0
M  V30 6141 H 564.185 0.627389 2.47987 0
M  V30 6142 H 563.829 0.978128 4.98392 0
M  V30 6143 H 563.759 -0.788016 5.20671 0
M  V30 6144 H 566.25 -0.163226 3.77547 0
M  V30 6145 H 566.563 0.291999 7.72248 0
M  V30 6146 H 564.908 0.255658 6.9453 0
M  V30 6147 H 568.099 -0.117979 4.67951 0
M  V30 6148 H 568.272 0.0893796 6.47938 0
M  V30 6149 N 561.678 -1.56367 -0.196722 0
M  V30 6150 C 562.926 -1.80172 -0.915554 0
M  V30 6151 C 563.247 -0.649649 -1.8386 0
M  V30 6152 O 562.517 0.332111 -1.93064 0
M  V30 6153 H 561.097 -0.664592 -0.341067 0
M  V30 6154 H 563.759 -1.93844 -0.202622 0
M  V30 6155 H 562.855 -2.7327 -1.50764 0
M  V30 6156 N 563.156 0.464375 -1.50603 0
M  V30 6157 C 564.086 1.56944 -1.72889 0
M  V30 6158 C 565.067 1.59979 -0.577997 0
M  V30 6159 O 566.252 1.76138 -0.817855 0
M  V30 6160 C 563.382 2.95225 -1.8292 0
M  V30 6161 C 562.336 3.07056 -2.98162 0
M  V30 6162 C 561.662 4.47051 -2.93343 0
M  V30 6163 C 562.962 2.83648 -4.38567 0
M  V30 6164 H 564.656 1.38547 -2.65415 0
M  V30 6165 H 562.202 0.665082 -1.27721 0
M  V30 6166 H 564.155 3.72467 -1.97095 0
M  V30 6167 H 562.879 3.14793 -0.870209 0
M  V30 6168 H 561.538 2.32248 -2.83648 0
M  V30 6169 H 561.186 4.63547 -1.95276 0
M  V30 6170 H 560.886 4.55902 -3.70712 0
M  V30 6171 H 562.41 5.26304 -3.09575 0
M  V30 6172 H 563.824 3.50636 -4.53572 0
M  V30 6173 H 562.221 3.03937 -5.17438 0
M  V30 6174 H 563.291 1.79451 -4.50472 0
M  V30 6175 N 564.634 1.40294 0.718013 0
M  V30 6176 C 565.581 1.40367 1.8321 0
M  V30 6177 C 566.551 0.260952 1.64037 0
M  V30 6178 O 567.736 0.458648 1.85205 0
M  V30 6179 C 564.876 1.26965 3.20895 0
M  V30 6180 C 563.989 2.50922 3.51656 0
M  V30 6181 C 563.124 2.29981 4.78834 0
M  V30 6182 C 562.163 3.49527 5.02491 0
M  V30 6183 N 561.3 3.27796 6.20882 0
M  V30 6184 H 566.14 2.35593 1.82482 0
M  V30 6185 H 563.677 1.17012 0.891444 0
M  V30 6186 H 565.635 1.17202 4.00399 0
M  V30 6187 H 564.265 0.353591 3.20858 0
M  V30 6188 H 563.317 2.71223 2.66725 0
M  V30 6189 H 564.629 3.39913 3.65048 0
M  V30 6190 H 563.783 2.17558 5.66351 0
M  V30 6191 H 562.522 1.38411 4.67647 0
M  V30 6192 H 561.527 3.6243 4.1343 0
M  V30 6193 H 562.752 4.42021 5.15553 0
M  V30 6194 H 560.698 2.38906 6.1095 0
M  V30 6195 H 560.615 4.10351 6.34939 0
M  V30 6196 H 561.883 3.19101 7.11193 0
M  V30 6197 N 566.112 -0.949982 1.2575 0
M  V30 6198 C 567.361 -1.68956 1.10168 0
M  V30 6199 C 567.674 -1.92327 -0.356309 0
M  V30 6200 O 568.88 -2.64026 -0.632657 0
M  V30 6201 C 567.336 -3.04196 1.92336 0
M  V30 6202 C 566.944 -2.88603 3.42655 0
M  V30 6203 C 568.688 -3.81904 1.85336 0
M  V30 6204 C 566.595 -4.19262 4.17101 0
M  V30 6205 H 565.525 -0.633645 0.408668 0
M  V30 6206 H 568.176 -1.05719 1.49986 0
M  V30 6207 H 566.558 -3.68363 1.45344 0
M  V30 6208 H 567.732 -2.3334 3.97353 0
M  V30 6209 H 566.047 -2.24345 3.50796 0
M  V30 6210 H 568.644 -4.78688 2.38248 0
M  V30 6211 H 568.987 -4.08099 0.822226 0
M  V30 6212 H 569.52 -3.24495 2.30104 0
M  V30 6213 H 566.259 -3.98254 5.20648 0
M  V30 6214 H 565.779 -4.74273 3.67186 0
M  V30 6215 H 567.458 -4.87775 4.25071 0
M  V30 6216 N 567.59 -1.07411 -1.15328 0
M  V30 6217 C 568.837 -0.797649 -1.86128 0
M  V30 6218 C 569.165 0.676298 -1.82364 0
M  V30 6219 O 568.42 1.51223 -1.24218 0
M  V30 6220 C 568.719 -1.25191 -3.34757 0
M  V30 6221 C 568.385 -2.73191 -3.58716 0
M  V30 6222 C 567.047 -3.13616 -3.64964 0
M  V30 6223 C 569.399 -3.68718 -3.6837 0
M  V30 6224 C 566.727 -4.48383 -3.78377 0
M  V30 6225 C 569.079 -5.03248 -3.83306 0
M  V30 6226 C 567.743 -5.43293 -3.878 0
M  V30 6227 H 567.013 -0.29188 -0.681092 0
M  V30 6228 H 569.66 -1.34524 -1.36292 0
M  V30 6229 H 567.965 -0.623712 -3.86804 0
M  V30 6230 H 569.662 -1.01489 -3.87945 0
M  V30 6231 H 566.252 -2.40898 -3.54494 0
M  V30 6232 H 570.436 -3.38614 -3.62842 0
M  V30 6233 H 565.692 -4.78877 -3.80114 0
M  V30 6234 H 569.866 -5.77142 -3.89718 0
M  V30 6235 H 567.493 -6.47721 -3.97946 0
M  V30 6236 N 569.068 1.32177 -0.85831 0
M  V30 6237 C 570.315 1.97125 -0.463484 0
M  V30 6238 C 570.643 1.67907 0.981705 0
M  V30 6239 O 569.898 0.961717 1.70439 0
M  V30 6240 C 570.197 3.51372 -0.653658 0
M  V30 6241 C 569.863 4.00584 -2.06987 0
M  V30 6242 C 568.525 4.13733 -2.4572 0
M  V30 6243 C 570.877 4.26624 -2.99402 0
M  V30 6244 C 568.205 4.50268 -3.76132 0
M  V30 6245 C 570.557 4.64618 -4.29316 0
M  V30 6246 C 569.221 4.75975 -4.67979 0
M  V30 6247 H 568.491 0.72133 -0.169601 0
M  V30 6248 H 571.138 1.57517 -1.08907 0
M  V30 6249 H 569.443 3.91761 0.0551328 0
M  V30 6250 H 571.14 3.99655 -0.328163 0
M  V30 6251 H 567.73 3.90837 -1.75911 0
M  V30 6252 H 571.914 4.1597 -2.70708 0
M  V30 6253 H 567.17 4.57256 -4.05865 0
M  V30 6254 H 571.344 4.83722 -5.00985 0
M  V30 6255 H 568.971 5.04041 -5.69076 0
M  V30 6256 N 570.547 0.616602 1.45037 0
M  V30 6257 C 571.795 0.115103 2.01772 0
M  V30 6258 C 572.116 -1.2622 1.48639 0
M  V30 6259 O 571.386 -1.83563 0.684199 0
M  V30 6260 H 569.966 0.0395607 0.745952 0
M  V30 6261 H 572.628 0.800032 1.77723 0
M  V30 6262 H 571.724 0.0717274 3.12018 0
M  V30 6263 N 572.025 -1.5352 0.356285 0
M  V30 6264 C 572.955 -2.28372 -0.486661 0
M  V30 6265 C 573.936 -1.30432 -1.09185 0
M  V30 6266 O 575.121 -1.59291 -1.11085 0
M  V30 6267 C 572.251 -3.06604 -1.63129 0
M  V30 6268 C 571.205 -4.12154 -1.15381 0
M  V30 6269 C 570.531 -4.78415 -2.38796 0
M  V30 6270 C 571.831 -5.21724 -0.245179 0
M  V30 6271 H 573.525 -2.99083 0.137797 0
M  V30 6272 H 571.071 -1.43841 0.0677134 0
M  V30 6273 H 573.024 -3.57712 -2.22755 0
M  V30 6274 H 571.748 -2.33568 -2.28284 0
M  V30 6275 H 570.407 -3.61978 -0.580294 0
M  V30 6276 H 570.055 -4.01959 -3.02387 0
M  V30 6277 H 569.755 -5.49734 -2.07524 0
M  V30 6278 H 571.279 -5.32313 -2.99125 0
M  V30 6279 H 572.693 -5.68391 -0.748646 0
M  V30 6280 H 571.09 -6.00095 -0.0237608 0
M  V30 6281 H 572.16 -4.79596 0.715229 0
M  V30 6282 N 573.503 -0.0852151 -1.57369 0
M  V30 6283 C 574.435 0.907099 -2.10486 0
M  V30 6284 C 575.448 1.25259 -1.03991 0
M  V30 6285 O 576.637 1.20743 -1.31467 0
M  V30 6286 C 573.737 2.21908 -2.56145 0
M  V30 6287 C 572.91 2.05042 -3.86363 0
M  V30 6288 C 571.969 3.19664 -4.17973 0
M  V30 6289 O 570.995 2.94062 -4.87356 0
M  V30 6290 N 572.197 4.45151 -3.72587 0
M  V30 6291 H 574.962 0.453505 -2.96249 0
M  V30 6292 H 572.523 0.100157 -1.6159 0
M  V30 6293 H 574.515 2.97519 -2.74343 0
M  V30 6294 H 573.085 2.58723 -1.75446 0
M  V30 6295 H 572.305 1.13819 -3.77411 0
M  V30 6296 H 573.593 1.91039 -4.71574 0
M  V30 6297 H 572.991 4.68834 -3.16561 0
M  V30 6298 H 571.548 5.17744 -3.9596 0
M  V30 6299 N 574.981 1.5647 0.188427 0
M  V30 6300 C 576.227 1.81281 0.909124 0
M  V30 6301 C 576.56 0.66034 1.82628 0
M  V30 6302 O 575.835 -0.338737 1.91528 0
M  V30 6303 C 576.118 3.16388 1.7196 0
M  V30 6304 C 575.971 4.42137 0.826714 0
M  V30 6305 C 577.29 3.48256 2.69083 0
M  V30 6306 H 574.409 0.659457 0.329068 0
M  V30 6307 H 577.051 1.89182 0.176156 0
M  V30 6308 H 575.201 3.09784 2.34448 0
M  V30 6309 H 576.873 4.60794 0.216025 0
M  V30 6310 H 575.116 4.33594 0.133792 0
M  V30 6311 H 575.787 5.33184 1.42893 0
M  V30 6312 H 578.263 3.55203 2.16726 0
M  V30 6313 H 577.139 4.43899 3.2287 0
M  V30 6314 H 577.4 2.72088 3.48455 0
M  V30 6315 N 576.459 -0.456382 1.50847 0
M  V30 6316 C 577.736 -1.21739 1.53098 0
M  V30 6317 C 578.116 -2.09179 0.284132 0
M  V30 6318 O 577.464 -2.16466 -0.731773 0
M  V30 6319 C 577.674 -2.03573 2.83477 0
M  V30 6320 C 579.022 -2.61264 3.34703 0
M  V30 6321 O 580.046 -2.13802 2.84898 0
M  V30 6322 O 578.905 -3.47779 4.21559 0
M  V30 6323 H 575.999 -0.553219 0.614718 0
M  V30 6324 H 578.545 -0.467003 1.63148 0
M  V30 6325 H 577.317 -1.39232 3.65691 0
M  V30 6326 H 576.94 -2.85716 2.76499 0
M  V30 6327 N 577.937 -1.40673 -0.710563 0
M  V30 6328 C 579.186 -1.38525 -1.46607 0
M  V30 6329 C 579.499 0.0077024 -1.95598 0
M  V30 6330 O 580.705 0.151792 -2.71075 0
M  V30 6331 C 579.161 -2.43489 -2.6503 0
M  V30 6332 C 578.769 -3.88619 -2.22888 0
M  V30 6333 C 580.513 -2.50456 -3.42742 0
M  V30 6334 C 578.42 -4.85168 -3.3818 0
M  V30 6335 H 577.35 -0.515092 -0.550632 0
M  V30 6336 H 580.001 -1.66431 -0.772846 0
M  V30 6337 H 578.383 -2.0869 -3.36548 0
M  V30 6338 H 579.557 -4.32588 -1.58758 0
M  V30 6339 H 577.872 -3.85174 -1.58208 0
M  V30 6340 H 580.469 -3.19776 -4.28541 0
M  V30 6341 H 580.812 -1.53665 -3.86902 0
M  V30 6342 H 581.345 -2.84271 -2.78271 0
M  V30 6343 H 578.084 -5.8331 -2.99047 0
M  V30 6344 H 577.604 -4.4586 -4.01209 0
M  V30 6345 H 579.283 -5.05225 -4.04174 0
M  V30 6346 N 579.415 0.9433 -1.26252 0
M  V30 6347 C 580.362 2.0417 -1.07625 0
M  V30 6348 C 581.332 1.6609 0.0180738 0
M  V30 6349 O 582.517 1.90276 -0.141289 0
M  V30 6350 C 579.657 3.37653 -0.713043 0
M  V30 6351 C 578.77 3.88783 -1.8834 0
M  V30 6352 C 577.905 5.10642 -1.4635 0
M  V30 6353 C 576.944 5.54028 -2.60229 0
M  V30 6354 N 576.081 6.67092 -2.18936 0
M  V30 6355 H 580.921 2.19436 -2.01623 0
M  V30 6356 H 578.458 1.07519 -1.00389 0
M  V30 6357 H 580.416 4.14391 -0.483358 0
M  V30 6358 H 579.046 3.22241 0.18996 0
M  V30 6359 H 578.098 3.08464 -2.22608 0
M  V30 6360 H 579.41 4.16922 -2.73821 0
M  V30 6361 H 578.564 5.94832 -1.19414 0
M  V30 6362 H 577.303 4.84244 -0.579568 0
M  V30 6363 H 576.308 4.68396 -2.87898 0
M  V30 6364 H 577.533 5.82429 -3.49219 0
M  V30 6365 H 575.479 6.42381 -1.32974 0
M  V30 6366 H 575.396 6.94806 -2.97961 0
M  V30 6367 H 576.664 7.54662 -1.95206 0
M  V30 6368 N 580.893 1.08022 1.14757 0
M  V30 6369 C 582.304 0.829144 1.67279 0
M  V30 6370 C 582.655 -0.644721 1.85305 0
M  V30 6371 O 581.78 -1.49838 1.56133 0
M  V30 6372 C 582.375 1.49855 3.03857 0
M  V30 6373 C 580.934 1.29482 3.53428 0
M  V30 6374 C 580.081 1.56386 2.28995 0
M  V30 6375 H 583.032 1.24134 0.988762 0
M  V30 6376 H 583.053 0.923572 3.69121 0
M  V30 6377 H 582.565 2.57123 2.90705 0
M  V30 6378 H 580.666 0.242669 3.71809 0
M  V30 6379 H 580.779 2.01974 4.34446 0
M  V30 6380 H 579.143 0.985217 2.34874 0
M  V30 6381 H 579.926 2.64851 2.18423 0
M  V30 6382 N 582.371 -1.3172 0.865308 0
M  V30 6383 C 583.782 -1.79104 0.527126 0
M  V30 6384 C 584.133 -1.7135 -0.955695 0
M  V30 6385 O 583.258 -1.27845 -1.74598 0
M  V30 6386 C 583.853 -3.25207 0.950061 0
M  V30 6387 C 582.412 -3.70504 0.663611 0
M  V30 6388 C 581.559 -2.52605 1.14395 0
M  V30 6389 H 584.51 -1.18868 1.05148 0
M  V30 6390 H 584.531 -3.79535 0.270805 0
M  V30 6391 H 584.043 -3.30818 2.02931 0
M  V30 6392 H 582.144 -3.70398 -0.404474 0
M  V30 6393 H 582.257 -4.62845 1.23737 0
M  V30 6394 H 580.621 -2.4838 0.563859 0
M  V30 6395 H 581.404 -2.60964 2.23053 0
M  V30 6396 N 583.85 -0.624285 -1.44708 0
M  V30 6397 C 585.077 -0.132919 -2.06473 0
M  V30 6398 C 585.493 1.18967 -1.46602 0
M  V30 6399 O 584.85 1.72824 -0.586341 0
M  V30 6400 C 584.901 -0.00465418 -3.615 0
M  V30 6401 O 584.622 -1.27494 -4.19138 0
M  V30 6402 C 586.123 0.516213 -4.40284 0
M  V30 6403 H 583.343 -0.0765201 -0.666623 0
M  V30 6404 H 585.887 -0.856751 -1.85688 0
M  V30 6405 H 584.042 0.669583 -3.8157 0
M  V30 6406 H 584.456 -1.11536 -5.12504 0
M  V30 6407 H 585.93 0.554994 -5.49203 0
M  V30 6408 H 586.407 1.5419 -4.11245 0
M  V30 6409 H 587.013 -0.124542 -4.25118 0
M  V30 6410 N 585.328 1.53329 -0.364422 0
M  V30 6411 C 586.575 2.01239 0.225634 0
M  V30 6412 C 586.903 1.25172 1.48869 0
M  V30 6413 O 586.158 0.333289 1.92841 0
M  V30 6414 C 586.457 3.52911 0.564661 0
M  V30 6415 C 586.123 4.46837 -0.603936 0
M  V30 6416 C 584.785 4.72234 -0.924585 0
M  V30 6417 C 587.137 5.02409 -1.38691 0
M  V30 6418 C 584.465 5.50454 -2.0302 0
M  V30 6419 C 586.817 5.81836 -2.48293 0
M  V30 6420 C 585.481 6.0552 -2.80894 0
M  V30 6421 H 584.751 0.736386 0.0825654 0
M  V30 6422 H 587.398 1.84948 -0.496645 0
M  V30 6423 H 585.703 3.67144 1.36794 0
M  V30 6424 H 587.4 3.87455 1.03344 0
M  V30 6425 H 583.99 4.27217 -0.343983 0
M  V30 6426 H 588.174 4.82735 -1.15243 0
M  V30 6427 H 583.43 5.67024 -2.28678 0
M  V30 6428 H 587.604 6.23905 -3.0938 0
M  V30 6429 H 585.231 6.65916 -3.66688 0
M  V30 6430 N 586.806 0.0935595 1.57322 0
M  V30 6431 C 587.736 -0.863062 2.16964 0
M  V30 6432 C 588.717 -1.29528 1.10256 0
M  V30 6433 O 589.902 -1.36245 1.38387 0
M  V30 6434 C 587.032 -2.12276 2.74875 0
M  V30 6435 C 585.986 -1.82921 3.86942 0
M  V30 6436 C 585.312 -3.15707 4.31548 0
M  V30 6437 C 586.612 -1.11737 5.10208 0
M  V30 6438 H 588.306 -0.366145 2.97153 0
M  V30 6439 H 585.852 -0.174673 1.42937 0
M  V30 6440 H 587.805 -2.79634 3.1525 0
M  V30 6441 H 586.529 -2.64248 1.91938 0
M  V30 6442 H 585.188 -1.17961 3.47103 0
M  V30 6443 H 584.836 -3.65563 3.45504 0
M  V30 6444 H 584.536 -2.96849 5.07104 0
M  V30 6445 H 586.06 -3.84226 4.74555 0
M  V30 6446 H 587.474 -1.69203 5.47762 0
M  V30 6447 H 585.871 -1.03064 5.91183 0
M  V30 6448 H 586.941 -0.0998818 4.84797 0
M  V30 6449 N 588.284 -1.56567 -0.180126 0
M  V30 6450 C 589.531 -1.81492 -0.898167 0
M  V30 6451 C 589.859 -0.669225 -1.82624 0
M  V30 6452 O 589.114 0.344096 -1.92651 0
M  V30 6453 C 589.413 -3.1252 -1.73395 0
M  V30 6454 C 589.079 -4.40658 -0.955567 0
M  V30 6455 C 587.741 -4.75465 -0.740707 0
M  V30 6456 C 590.093 -5.19593 -0.408948 0
M  V30 6457 C 587.421 -5.86691 0.0320128 0
M  V30 6458 C 589.773 -6.31627 0.350638 0
M  V30 6459 C 588.437 -6.65007 0.576378 0
M  V30 6460 H 587.707 -0.664125 -0.328662 0
M  V30 6461 H 590.354 -1.908 -0.163616 0
M  V30 6462 H 588.659 -2.98515 -2.53763 0
M  V30 6463 H 590.356 -3.29013 -2.29241 0
M  V30 6464 H 586.946 -4.13352 -1.13306 0
M  V30 6465 H 591.13 -4.93104 -0.562307 0
M  V30 6466 H 586.386 -6.11016 0.216735 0
M  V30 6467 H 590.56 -6.92001 0.781497 0
M  V30 6468 H 588.187 -7.51033 1.17703 0
M  V30 6469 N 589.762 0.448376 -1.51087 0
M  V30 6470 C 591.009 1.19872 -1.63209 0
M  V30 6471 C 591.337 1.91451 -0.343062 0
M  V30 6472 O 590.592 1.83789 0.672321 0
M  V30 6473 C 590.891 2.24866 -2.77795 0
M  V30 6474 C 590.557 1.70378 -4.17471 0
M  V30 6475 C 589.219 1.55241 -4.55471 0
M  V30 6476 C 591.571 1.30203 -5.04675 0
M  V30 6477 C 588.899 0.983844 -5.78392 0
M  V30 6478 C 591.251 0.747798 -6.28165 0
M  V30 6479 C 589.915 0.583233 -6.64947 0
M  V30 6480 H 589.185 0.438642 -0.597222 0
M  V30 6481 H 591.832 0.49136 -1.85089 0
M  V30 6482 H 590.137 3.01598 -2.50092 0
M  V30 6483 H 591.834 2.82723 -2.84374 0
M  V30 6484 H 588.424 1.83134 -3.87505 0
M  V30 6485 H 592.608 1.40723 -4.75932 0
M  V30 6486 H 587.864 0.844007 -6.05546 0
M  V30 6487 H 592.038 0.427927 -6.95084 0
M  V30 6488 H 589.665 0.140532 -7.6007 0
M  V30 6489 N 591.24 1.41047 0.703093 0
M  V30 6490 C 592.486 1.40207 1.46526 0
M  V30 6491 C 592.819 0.00847763 1.94198 0
M  V30 6492 O 592.094 -0.962437 1.69019 0
M  V30 6493 C 592.377 2.40238 2.6825 0
M  V30 6494 C 592.23 3.88674 2.26391 0
M  V30 6495 C 593.549 2.37627 3.70434 0
M  V30 6496 H 590.668 0.510594 0.531472 0
M  V30 6497 H 593.31 1.72271 0.801422 0
M  V30 6498 H 591.46 2.13026 3.24888 0
M  V30 6499 H 593.132 4.2676 1.75138 0
M  V30 6500 H 591.375 4.03903 1.58255 0
M  V30 6501 H 592.046 4.542 3.13698 0
M  V30 6502 H 594.522 2.61759 3.23452 0
M  V30 6503 H 593.398 3.09645 4.53223 0
M  V30 6504 H 593.659 1.39223 4.19606 0
M  V30 6505 N 592.718 -0.936591 1.26751 0
M  V30 6506 C 593.666 -2.0573 1.08527 0
M  V30 6507 C 594.66 -1.69397 0.0108784 0
M  V30 6508 O 595.866 -1.79215 0.167915 0
M  V30 6509 H 592.241 -0.673691 0.334133 0
M  V30 6510 H 594.212 -2.1825 2.03493 0
M  V30 6511 C 592.961 -3.39738 0.739845 0
M  V30 6512 H 592.284 -3.68174 1.55845 0
M  V30 6513 H 593.724 -4.18955 0.652149 0
M  V30 6514 C 592.183 -3.32292 -0.555288 0
M  V30 6515 O 592.713 -3.68794 -1.59229 0
M  V30 6516 N 590.919 -2.85394 -0.54762 0
M  V30 6517 H 590.466 -2.55886 0.296667 0
M  V30 6518 H 590.424 -2.80795 -1.41427 0
M  V30 6519 N 594.196 -1.08629 -1.14182 0
M  V30 6520 C 595.421 -0.83902 -1.89671 0
M  V30 6521 C 595.846 0.603332 -1.78161 0
M  V30 6522 O 595.204 1.42301 -1.12339 0
M  V30 6523 C 595.252 -1.26854 -3.37551 0
M  V30 6524 O 594.356 -0.42188 -4.10236 0
M  V30 6525 H 593.697 -0.304545 -0.590041 0
M  V30 6526 H 596.227 -1.4483 -1.44518 0
M  V30 6527 H 596.237 -1.25038 -3.88368 0
M  V30 6528 H 594.912 -2.31901 -3.45246 0
M  V30 6529 H 593.489 -0.503654 -3.69483 0
M  V30 6530 N 595.674 1.31259 -0.872281 0
M  V30 6531 C 596.923 1.95893 -0.480493 0
M  V30 6532 C 597.236 1.697 0.972688 0
M  V30 6533 O 598.442 2.28214 1.47073 0
M  V30 6534 C 596.898 3.50705 -0.808342 0
M  V30 6535 C 596.506 3.85735 -2.27844 0
M  V30 6536 C 598.25 4.21719 -0.485136 0
M  V30 6537 C 596.157 5.33668 -2.54858 0
M  V30 6538 H 595.087 0.733182 -0.175955 0
M  V30 6539 H 597.738 1.49396 -1.0655 0
M  V30 6540 H 596.12 3.95706 -0.152558 0
M  V30 6541 H 597.294 3.51686 -2.97748 0
M  V30 6542 H 595.609 3.27792 -2.56791 0
M  V30 6543 H 598.206 5.30559 -0.664166 0
M  V30 6544 H 598.549 4.12316 0.574592 0
M  V30 6545 H 599.082 3.82359 -1.09756 0
M  V30 6546 H 595.821 5.48109 -3.59523 0
M  V30 6547 H 595.341 5.69061 -1.8955 0
M  V30 6548 H 597.02 6.00958 -2.39706 0
M  V30 6549 N 597.152 0.631951 1.44375 0
M  V30 6550 C 598.062 -0.073674 2.34484 0
M  V30 6551 C 599.078 -0.834825 1.52665 0
M  V30 6552 O 600.254 -0.786902 1.85391 0
M  V30 6553 C 597.319 -1.04247 3.30656 0
M  V30 6554 C 596.38 -0.280602 4.28382 0
M  V30 6555 C 595.613 -1.20325 5.19959 0
M  V30 6556 O 595.836 -2.44199 5.15484 0
M  V30 6557 O 594.77 -0.687128 5.97965 0
M  V30 6558 H 598.596 0.667477 2.96274 0
M  V30 6559 H 596.181 0.392144 1.44162 0
M  V30 6560 H 598.063 -1.59981 3.89851 0
M  V30 6561 H 596.738 -1.76422 2.71398 0
M  V30 6562 H 595.645 0.319804 3.72731 0
M  V30 6563 H 596.978 0.401144 4.90563 0
M  V30 6564 N 598.631 -1.53133 0.372548 0
M  V30 6565 C 599.578 -2.25951 -0.470631 0
M  V30 6566 C 600.548 -1.26895 -1.07176 0
M  V30 6567 O 601.733 -1.55691 -1.10294 0
M  V30 6568 C 598.873 -3.05726 -1.6008 0
M  V30 6569 C 597.986 -4.19684 -1.02416 0
M  V30 6570 C 597.121 -4.86888 -2.124 0
M  V30 6571 C 596.16 -5.92866 -1.52238 0
M  V30 6572 N 595.297 -6.53732 -2.56084 0
M  V30 6573 H 600.137 -2.97587 0.156816 0
M  V30 6574 H 597.674 -1.4683 0.0891571 0
M  V30 6575 H 599.632 -3.50258 -2.26661 0
M  V30 6576 H 598.262 -2.36331 -2.1988 0
M  V30 6577 H 597.314 -3.79588 -0.248426 0
M  V30 6578 H 598.626 -4.95821 -0.544366 0
M  V30 6579 H 597.78 -5.34638 -2.86787 0
M  V30 6580 H 596.519 -4.10239 -2.63734 0
M  V30 6581 H 595.524 -5.4447 -0.763685 0
M  V30 6582 H 596.749 -6.71439 -1.0172 0
M  V30 6583 H 594.695 -5.79932 -3.06618 0
M  V30 6584 H 594.612 -7.25429 -2.12811 0
M  V30 6585 H 595.88 -7.0613 -3.30152 0
M  V30 6586 N 600.109 -0.101901 -1.5727 0
M  V30 6587 C 601.355 0.561027 -1.94885 0
M  V30 6588 C 601.688 1.6741 -0.984258 0
M  V30 6589 O 600.963 1.94491 -0.0184767 0
M  V30 6590 C 601.246 1.10982 -3.42571 0
M  V30 6591 C 601.099 0.00133418 -4.498 0
M  V30 6592 C 602.418 2.00608 -3.9172 0
M  V30 6593 H 599.537 0.202467 -0.708644 0
M  V30 6594 H 602.179 -0.173992 -1.89202 0
M  V30 6595 H 600.329 1.73621 -3.47546 0
M  V30 6596 H 602.001 -0.63322 -4.56933 0
M  V30 6597 H 600.244 -0.664143 -4.28686 0
M  V30 6598 H 600.915 0.426253 -5.50352 0
M  V30 6599 H 603.391 1.47864 -3.88941 0
M  V30 6600 H 602.267 2.3593 -4.95609 0
M  V30 6601 H 602.528 2.92608 -3.3141 0
M  V30 6602 N 601.587 1.56661 0.17182 0
M  V30 6603 C 602.534 1.96371 1.21273 0
M  V30 6604 C 603.504 0.82756 1.44016 0
M  V30 6605 O 604.689 1.08764 1.56764 0
M  V30 6606 C 601.829 2.32838 2.54716 0
M  V30 6607 C 600.942 3.59628 2.39356 0
M  V30 6608 C 600.077 3.85311 3.65662 0
M  V30 6609 C 599.116 5.0545 3.45234 0
M  V30 6610 N 598.253 5.27268 4.63608 0
M  V30 6611 H 603.093 2.85106 0.86709 0
M  V30 6612 H 600.63 1.41073 0.416744 0
M  V30 6613 H 602.588 2.52004 3.3249 0
M  V30 6614 H 601.218 1.47214 2.87277 0
M  V30 6615 H 600.27 3.4838 1.52761 0
M  V30 6616 H 601.582 4.4756 2.20207 0
M  V30 6617 H 600.736 4.04841 4.51872 0
M  V30 6618 H 599.475 2.95753 3.8779 0
M  V30 6619 H 598.48 4.85819 2.5741 0
M  V30 6620 H 599.705 5.96538 3.24529 0
M  V30 6621 H 597.651 4.40662 4.85956 0
M  V30 6622 H 597.568 6.09422 4.4737 0
M  V30 6623 H 598.836 5.51277 5.51103 0
M  V30 6624 N 603.065 -0.440357 1.51323 0
M  V30 6625 C 604.013 -1.55492 1.72988 0
M  V30 6626 C 605.007 -1.58564 0.596138 0
M  V30 6627 O 606.213 -1.62345 0.777443 0
M  V30 6628 H 602.588 -0.516532 0.546533 0
M  V30 6629 H 604.559 -1.34392 2.66423 0
M  V30 6630 C 603.308 -2.93176 1.86931 0
M  V30 6631 H 602.631 -2.91543 2.73574 0
M  V30 6632 H 604.071 -3.70537 2.06103 0
M  V30 6633 C 602.53 -3.30988 0.628365 0
M  V30 6634 O 603.06 -4.01106 -0.218367 0
M  V30 6635 N 601.266 -2.86719 0.473339 0
M  V30 6636 H 600.813 -2.2983 1.16345 0
M  V30 6637 H 600.771 -3.12381 -0.355727 0
M  V30 6638 N 604.543 -1.41418 -0.695603 0
M  V30 6639 C 605.954 -1.36335 -1.27552 0
M  V30 6640 C 606.305 -0.0464336 -1.96145 0
M  V30 6641 O 605.43 0.855304 -1.9878 0
M  V30 6642 C 606.025 -2.46941 -2.3196 0
M  V30 6643 C 604.584 -2.45256 -2.85529 0
M  V30 6644 C 603.731 -2.2679 -1.59566 0
M  V30 6645 H 606.682 -1.50934 -0.490362 0
M  V30 6646 H 606.703 -2.15997 -3.1325 0
M  V30 6647 H 606.215 -3.42775 -1.82008 0
M  V30 6648 H 604.316 -1.53179 -3.39657 0
M  V30 6649 H 604.429 -3.41565 -3.35961 0
M  V30 6650 H 602.793 -1.74667 -1.85374 0
M  V30 6651 H 603.576 -3.24651 -1.1161 0
M  V30 6652 N 606.021 0.929856 -1.27246 0
M  V30 6653 C 606.953 2.03434 -1.0558 0
M  V30 6654 C 607.966 1.62795 -0.0125762 0
M  V30 6655 O 609.155 1.76685 -0.2539 0
M  V30 6656 C 606.255 3.33915 -0.57912 0
M  V30 6657 C 605.428 4.03259 -1.69415 0
M  V30 6658 C 604.487 5.12014 -1.21357 0
M  V30 6659 O 603.513 5.36097 -1.91282 0
M  V30 6660 N 604.715 5.8046 -0.0680622 0
M  V30 6661 H 607.48 2.22583 -2.00691 0
M  V30 6662 H 605.041 1.1001 -1.18783 0
M  V30 6663 H 607.033 4.03978 -0.241563 0
M  V30 6664 H 605.603 3.11355 0.278703 0
M  V30 6665 H 604.823 3.26958 -2.20209 0
M  V30 6666 H 606.111 4.46337 -2.44255 0
M  V30 6667 H 605.509 5.63345 0.515626 0
M  V30 6668 H 604.066 6.51461 0.210332 0
M  V30 6669 N 607.499 1.09233 1.13605 0
M  V30 6670 C 608.446 0.729921 2.18954 0
M  V30 6671 C 609.416 -0.287916 1.63586 0
M  V30 6672 O 610.601 -0.170003 1.90041 0
M  V30 6673 C 607.741 0.154489 3.44754 0
M  V30 6674 C 606.854 1.22613 4.14234 0
M  V30 6675 C 605.989 0.613657 5.27644 0
M  V30 6676 C 605.028 1.66674 5.8897 0
M  V30 6677 N 604.165 1.07545 6.93814 0
M  V30 6678 H 609.005 1.63257 2.49302 0
M  V30 6679 H 606.542 0.815693 1.22413 0
M  V30 6680 H 608.5 -0.196923 4.16735 0
M  V30 6681 H 607.13 -0.711433 3.14863 0
M  V30 6682 H 606.182 1.69485 3.40557 0
M  V30 6683 H 607.494 2.0238 4.55899 0
M  V30 6684 H 606.648 0.210976 6.06333 0
M  V30 6685 H 605.387 -0.215584 4.87223 0
M  V30 6686 H 604.392 2.07899 5.08978 0
M  V30 6687 H 605.617 2.49861 6.31464 0
M  V30 6688 H 603.563 0.267451 6.55455 0
M  V30 6689 H 603.48 1.81011 7.3401 0
M  V30 6690 H 604.748 0.698906 7.7636 0
M  V30 6691 N 608.977 -1.30795 0.87923 0
M  V30 6692 C 610.226 -1.95636 0.490875 0
M  V30 6693 C 610.539 -1.70214 -0.963674 0
M  V30 6694 O 611.745 -2.28991 -1.45861 0
M  V30 6695 C 610.201 -3.50271 0.826929 0
M  V30 6696 C 609.809 -3.84521 2.29886 0
M  V30 6697 C 611.553 -4.21456 0.507494 0
M  V30 6698 C 609.46 -5.32309 2.57685 0
M  V30 6699 H 608.39 -0.732238 0.179841 0
M  V30 6700 H 611.041 -1.48829 1.07341 0
M  V30 6701 H 609.423 -3.9562 0.173542 0
M  V30 6702 H 610.597 -3.50102 2.99609 0
M  V30 6703 H 608.912 -3.26425 2.58526 0
M  V30 6704 H 611.509 -5.30199 0.692293 0
M  V30 6705 H 611.852 -4.12614 -0.552718 0
M  V30 6706 H 612.385 -3.81772 1.11782 0
M  V30 6707 H 609.124 -5.46195 3.62424 0
M  V30 6708 H 608.644 -5.68048 1.92566 0
M  V30 6709 H 610.323 -5.99678 2.42889 0
M  V30 6710 N 610.455 -0.639598 -1.44038 0
M  V30 6711 C 611.702 -0.14748 -2.01962 0
M  V30 6712 C 612.03 1.23372 -1.50365 0
M  V30 6713 O 611.285 1.8345 -0.681501 0
M  V30 6714 C 611.584 -0.0925348 -3.5728 0
M  V30 6715 C 611.25 -1.41365 -4.28167 0
M  V30 6716 C 609.912 -1.77545 -4.47248 0
M  V30 6717 C 612.264 -2.2853 -4.68427 0
M  V30 6718 C 609.592 -3.00583 -5.03852 0
M  V30 6719 C 611.944 -3.50846 -5.26393 0
M  V30 6720 C 610.608 -3.8724 -5.43692 0
M  V30 6721 H 609.878 -0.0539666 -0.739032 0
M  V30 6722 H 612.525 -0.827599 -1.72694 0
M  V30 6723 H 610.83 0.670987 -3.86012 0
M  V30 6724 H 612.527 0.304891 -3.99839 0
M  V30 6725 H 609.117 -1.1221 -4.13651 0
M  V30 6726 H 613.301 -2.0187 -4.5339 0
M  V30 6727 H 608.557 -3.28846 -5.15432 0
M  V30 6728 H 612.731 -4.18616 -5.56537 0
M  V30 6729 H 610.358 -4.8266 -5.87319 0
M  V30 6730 N 611.933 1.52934 -0.380664 0
M  V30 6731 C 612.863 2.29118 0.450268 0
M  V30 6732 C 613.844 1.32153 1.07096 0
M  V30 6733 O 615.029 1.61038 1.08537 0
M  V30 6734 C 612.159 3.09161 1.58231 0
M  V30 6735 C 611.113 4.13938 1.0881 0
M  V30 6736 C 610.439 4.82153 2.31155 0
M  V30 6737 C 611.739 5.22048 0.162146 0
M  V30 6738 H 613.433 2.98826 -0.185361 0
M  V30 6739 H 610.979 1.43715 -0.0905886 0
M  V30 6740 H 612.932 3.61211 2.17036 0
M  V30 6741 H 611.656 2.3717 2.2454 0
M  V30 6742 H 610.315 3.62855 0.522633 0
M  V30 6743 H 609.963 4.06719 2.95953 0
M  V30 6744 H 609.663 5.52966 1.98752 0
M  V30 6745 H 611.187 5.37004 2.90618 0
M  V30 6746 H 612.601 5.6951 0.658126 0
M  V30 6747 H 610.998 6.00057 -0.0717122 0
M  V30 6748 H 612.068 4.78398 -0.791438 0
M  V30 6749 N 613.412 0.11024 1.57214 0
M  V30 6750 C 614.828 -0.24638 1.57687 0
M  V30 6751 C 615.028 -1.67344 1.12241 0
M  V30 6752 O 614.084 -2.39298 0.805783 0
M  V30 6753 C 615.397 -0.0210288 3.00693 0
M  V30 6754 C 616.945 -0.0876077 3.12877 0
M  V30 6755 C 617.42 0.10994 4.57868 0
M  V30 6756 N 618.911 0.0556135 4.63167 0
M  V30 6757 C 619.646 0.183495 5.73106 0
M  V30 6758 N 619.142 0.367058 6.91827 0
M  V30 6759 N 620.935 0.123689 5.61964 0
M  V30 6760 H 613.086 1.04246 1.85058 0
M  V30 6761 H 615.349 0.40979 0.854854 0
M  V30 6762 H 615.055 0.965203 3.38196 0
M  V30 6763 H 614.929 -0.756748 3.69531 0
M  V30 6764 H 617.316 -1.06436 2.75237 0
M  V30 6765 H 617.397 0.67985 2.466 0
M  V30 6766 H 617.041 1.08362 4.96206 0
M  V30 6767 H 616.971 -0.677397 5.22225 0
M  V30 6768 H 619.462 -0.0831062 3.77809 0
M  V30 6769 H 619.775 0.455739 7.71455 0
M  V30 6770 H 618.12 0.40292 6.93831 0
M  V30 6771 H 621.311 -0.0186928 4.68096 0
M  V30 6772 H 621.484 0.226797 6.47603 0
M  V30 6773 N 614.89 -1.56749 -0.16351 0
M  V30 6774 C 615.837 -1.97011 -1.2023 0
M  V30 6775 C 616.807 -0.835186 -1.43575 0
M  V30 6776 O 617.992 -1.09594 -1.56185 0
M  V30 6777 C 615.132 -2.34186 -2.53478 0
M  V30 6778 C 614.245 -3.60893 -2.37446 0
M  V30 6779 C 613.38 -3.87245 -3.63614 0
M  V30 6780 C 612.419 -5.07274 -3.42548 0
M  V30 6781 N 611.556 -5.29719 -4.60806 0
M  V30 6782 H 616.396 -2.85562 -0.851958 0
M  V30 6783 H 613.933 -1.41292 -0.409257 0
M  V30 6784 H 615.891 -2.53764 -3.31149 0
M  V30 6785 H 614.521 -1.48736 -2.86492 0
M  V30 6786 H 613.573 -3.49185 -1.50911 0
M  V30 6787 H 614.885 -4.48722 -2.1783 0
M  V30 6788 H 614.039 -4.07232 -4.49719 0
M  V30 6789 H 612.778 -2.97806 -3.86216 0
M  V30 6790 H 611.783 -4.87177 -2.5483 0
M  V30 6791 H 613.008 -5.98251 -3.2136 0
M  V30 6792 H 610.954 -4.43233 -4.83612 0
M  V30 6793 H 610.871 -6.11786 -4.44132 0
M  V30 6794 H 612.139 -5.54192 -5.48171 0
M  V30 6795 N 616.368 0.432326 -1.51554 0
M  V30 6796 C 617.298 1.53242 -1.76179 0
M  V30 6797 C 618.279 1.58717 -0.611801 0
M  V30 6798 O 619.464 1.74364 -0.855033 0
M  V30 6799 C 616.594 2.91278 -1.89141 0
M  V30 6800 C 615.548 3.00663 -3.04608 0
M  V30 6801 C 614.874 4.40728 -3.02759 0
M  V30 6802 C 616.174 2.74281 -4.44485 0
M  V30 6803 H 617.868 1.32886 -2.68294 0
M  V30 6804 H 615.414 0.637841 -1.29103 0
M  V30 6805 H 617.367 3.68203 -2.04951 0
M  V30 6806 H 616.091 3.12877 -0.936785 0
M  V30 6807 H 614.75 2.26179 -2.88511 0
M  V30 6808 H 614.398 4.59301 -2.05065 0
M  V30 6809 H 614.098 4.47936 -3.80299 0
M  V30 6810 H 615.622 5.19619 -3.20669 0
M  V30 6811 H 617.036 3.40936 -4.60907 0
M  V30 6812 H 615.433 2.92893 -5.23769 0
M  V30 6813 H 616.503 1.69856 -4.54177 0
M  V30 6814 N 617.846 1.41785 0.688094 0
M  V30 6815 C 619.095 1.4084 1.44385 0
M  V30 6816 C 619.408 0.0234166 1.95586 0
M  V30 6817 O 620.614 -0.108647 2.71283 0
M  V30 6818 C 619.07 2.47675 2.61123 0
M  V30 6819 C 618.678 3.92116 2.16677 0
M  V30 6820 C 620.422 2.55877 3.38714 0
M  V30 6821 C 618.329 4.90487 3.30419 0
M  V30 6822 H 617.259 0.523787 0.542368 0
M  V30 6823 H 619.91 1.6764 0.74627 0
M  V30 6824 H 618.292 2.14018 3.33185 0
M  V30 6825 H 619.466 4.35059 1.51856 0
M  V30 6826 H 617.781 3.87642 1.5206 0
M  V30 6827 H 620.378 3.26553 4.234 0
M  V30 6828 H 620.721 1.59801 3.84408 0
M  V30 6829 H 621.254 2.88662 2.73714 0
M  V30 6830 H 617.993 5.87994 2.89729 0
M  V30 6831 H 617.513 4.52187 3.94065 0
M  V30 6832 H 619.192 5.11591 3.96085 0
M  V30 6833 N 619.324 -0.923095 1.27737 0
M  V30 6834 C 620.74 -1.19985 1.05241 0
M  V30 6835 C 620.94 -2.00391 -0.21113 0
M  V30 6836 O 619.996 -2.35324 -0.915366 0
M  V30 6837 C 621.309 -1.94352 2.29451 0
M  V30 6838 C 622.857 -2.07273 2.34536 0
M  V30 6839 C 623.332 -2.85046 3.58487 0
M  V30 6840 N 624.823 -2.92612 3.59072 0
M  V30 6841 C 625.558 -3.53266 4.51654 0
M  V30 6842 N 625.054 -4.15274 5.54545 0
M  V30 6843 N 626.847 -3.50714 4.39268 0
M  V30 6844 H 618.998 -0.386042 2.08862 0
M  V30 6845 H 621.261 -0.233407 0.918817 0
M  V30 6846 H 620.967 -1.42692 3.21453 0
M  V30 6847 H 620.841 -2.94947 2.3513 0
M  V30 6848 H 623.228 -2.58117 1.43037 0
M  V30 6849 H 623.309 -1.05884 2.32857 0
M  V30 6850 H 622.953 -2.34884 4.50324 0
M  V30 6851 H 622.883 -3.8673 3.57418 0
M  V30 6852 H 625.374 -2.48547 2.84663 0
M  V30 6853 H 625.687 -4.59507 6.21348 0
M  V30 6854 H 624.032 -4.13806 5.58382 0
M  V30 6855 H 627.223 -3.01475 3.58093 0
M  V30 6856 H 627.396 -3.97693 5.1161 0
M  V30 6857 N 620.802 -1.09834 -1.13024 0
M  V30 6858 C 622.079 -0.749225 -1.80682 0
M  V30 6859 C 622.459 0.765171 -1.96744 0
M  V30 6860 O 621.807 1.68912 -1.53886 0
M  V30 6861 C 622.017 -1.49311 -3.15448 0
M  V30 6862 C 623.365 -1.66162 -3.90737 0
M  V30 6863 O 624.389 -1.45597 -3.25085 0
M  V30 6864 O 623.248 -2.00211 -5.08505 0
M  V30 6865 H 620.342 -0.269614 -0.781817 0
M  V30 6866 H 622.888 -1.20078 -1.19914 0
M  V30 6867 H 621.66 -2.52407 -2.99009 0
M  V30 6868 H 621.283 -1.034 -3.8392 0
M  V30 6869 N 622.28 1.30327 -0.886154 0
M  V30 6870 C 623.51 1.99964 -0.519421 0
M  V30 6871 C 623.918 1.66593 0.89686 0
M  V30 6872 O 623.261 0.899886 1.60149 0
M  V30 6873 C 623.323 3.54187 -0.615795 0
M  V30 6874 C 622.987 4.11078 -1.9966 0
M  V30 6875 C 623.984 4.26985 -2.96614 0
M  V30 6876 C 621.669 4.46429 -2.30231 0
M  V30 6877 C 623.663 4.77456 -4.22273 0
M  V30 6878 C 621.35 4.966 -3.56135 0
M  V30 6879 C 622.348 5.12066 -4.5197 0
M  V30 6880 O 622.036 5.61154 -5.7564 0
M  V30 6881 H 621.768 0.645979 -0.199217 0
M  V30 6882 H 624.322 1.67154 -1.19368 0
M  V30 6883 H 622.552 3.86528 0.115448 0
M  V30 6884 H 624.241 4.05065 -0.26017 0
M  V30 6885 H 625.007 3.99975 -2.74308 0
M  V30 6886 H 620.886 4.33658 -1.56404 0
M  V30 6887 H 624.43 4.89444 -4.97082 0
M  V30 6888 H 620.327 5.23045 -3.78277 0
M  V30 6889 H 621.095 5.79494 -5.78039 0
M  V30 6890 N 623.758 0.647228 1.43697 0
M  V30 6891 C 625.004 0.158422 2.0218 0
M  V30 6892 C 625.337 -1.22233 1.50907 0
M  V30 6893 O 624.612 -1.81478 0.699702 0
M  V30 6894 C 624.895 0.1627 3.59732 0
M  V30 6895 C 624.748 1.57694 4.21251 0
M  V30 6896 C 626.067 -0.504138 4.37203 0
M  V30 6897 H 623.186 0.059042 0.734631 0
M  V30 6898 H 625.828 0.826772 1.71069 0
M  V30 6899 H 623.978 -0.406414 3.86368 0
M  V30 6900 H 625.65 2.19618 4.05667 0
M  V30 6901 H 623.893 2.12603 3.7813 0
M  V30 6902 H 624.564 1.53183 5.3032 0
M  V30 6903 H 627.04 -0.0199841 4.16095 0
M  V30 6904 H 625.916 -0.470394 5.46881 0
M  V30 6905 H 626.177 -1.57726 4.13007 0
M  V30 6906 N 625.236 -1.5273 0.388769 0
M  V30 6907 C 626.483 -2.01573 -0.19359 0
M  V30 6908 C 626.811 -1.27525 -1.46859 0
M  V30 6909 O 626.066 -0.363926 -1.92286 0
M  V30 6910 C 626.365 -3.53765 -0.508445 0
M  V30 6911 C 626.031 -4.4582 0.674947 0
M  V30 6912 C 624.693 -4.70703 0.999596 0
M  V30 6913 C 627.045 -5.00138 1.46666 0
M  V30 6914 C 624.373 -5.47155 2.11751 0
M  V30 6915 C 626.725 -5.77812 2.57518 0
M  V30 6916 C 625.389 -6.00975 2.90492 0
M  V30 6917 H 624.659 -0.737606 -0.0708397 0
M  V30 6918 H 627.306 -1.84134 0.526006 0
M  V30 6919 H 625.611 -3.69274 -1.30936 0
M  V30 6920 H 627.308 -3.8905 -0.971664 0
M  V30 6921 H 623.898 -4.26616 0.411906 0
M  V30 6922 H 628.082 -4.8084 1.22909 0
M  V30 6923 H 623.338 -5.63314 2.3767 0
M  V30 6924 H 627.512 -6.18904 3.19267 0
M  V30 6925 H 625.139 -6.59998 3.77236 0
M  V30 6926 N 626.714 -0.118576 -1.57153 0
M  V30 6927 C 628.125 0.40687 -1.82213 0
M  V30 6928 C 628.476 1.66636 -1.03571 0
M  V30 6929 O 627.601 2.14682 -0.272171 0
M  V30 6930 C 628.196 0.744949 -3.30509 0
M  V30 6931 C 626.755 1.21503 -3.5625 0
M  V30 6932 C 625.902 0.223511 -2.76398 0
M  V30 6933 H 628.853 -0.343712 -1.54933 0
M  V30 6934 H 628.874 1.6024 -3.45114 0
M  V30 6935 H 628.386 -0.171911 -3.87719 0
M  V30 6936 H 626.487 2.1488 -3.04396 0
M  V30 6937 H 626.6 1.16065 -4.64829 0
M  V30 6938 H 624.964 0.71046 -2.44591 0
M  V30 6939 H 625.747 -0.686439 -3.36367 0
M  V30 6940 N 628.193 1.56834 0.155195 0
M  V30 6941 C 629.44 1.82898 0.869179 0
M  V30 6942 C 629.768 0.698194 1.81537 0
M  V30 6943 O 629.023 -0.313404 1.93174 0
M  V30 6944 C 629.322 3.15239 1.68402 0
M  V30 6945 C 628.988 4.42123 0.885341 0
M  V30 6946 C 627.65 4.76583 0.664971 0
M  V30 6947 C 630.002 5.20178 0.326234 0
M  V30 6948 C 627.33 5.86566 -0.125346 0
M  V30 6949 C 629.682 6.3099 -0.45108 0
M  V30 6950 C 628.346 6.64006 -0.682102 0
M  V30 6951 H 627.616 0.66927 0.318055 0
M  V30 6952 H 630.263 1.91036 0.133241 0
M  V30 6953 H 628.568 3.02515 2.48982 0
M  V30 6954 H 630.265 3.32618 2.23978 0
M  V30 6955 H 626.855 4.15102 1.06716 0
M  V30 6956 H 631.039 4.93936 0.483787 0
M  V30 6957 H 626.295 6.10594 -0.313915 0
M  V30 6958 H 630.469 6.9067 -0.89149 0
M  V30 6959 H 628.096 7.49065 -1.29636 0
M  V30 6960 N 629.671 -0.424282 1.51781 0
M  V30 6961 C 630.581 -1.54087 1.76902 0
M  V30 6962 C 631.597 -1.61249 0.653826 0
M  V30 6963 O 632.773 -1.78247 0.937552 0
M  V30 6964 C 629.838 -2.8996 1.90063 0
M  V30 6965 C 628.899 -2.92809 3.13945 0
M  V30 6966 C 628.132 -4.22201 3.26469 0
M  V30 6967 O 628.355 -5.15286 2.44616 0
M  V30 6968 O 627.289 -4.31599 4.1953 0
M  V30 6969 H 631.115 -1.358 2.71647 0
M  V30 6970 H 628.7 -0.608618 1.36441 0
M  V30 6971 H 630.582 -3.70575 2.0063 0
M  V30 6972 H 629.257 -3.08347 0.985067 0
M  V30 6973 H 628.164 -2.11102 3.08847 0
M  V30 6974 H 629.497 -2.79369 4.05233 0
M  V30 6975 N 631.149 -1.42148 -0.680565 0
M  V30 6976 C 632.397 -1.42029 -1.43779 0
M  V30 6977 C 632.718 -0.0356347 -1.94967 0
M  V30 6978 O 631.988 0.924936 -1.7269 0
M  V30 6979 H 630.568 -0.522835 -0.533529 0
M  V30 6980 H 633.23 -1.7752 -0.804538 0
M  V30 6981 H 632.326 -2.11658 -2.29363 0
M  V30 6982 N 632.627 0.916307 -1.28225 0
M  V30 6983 C 633.852 1.7043 -1.18188 0
M  V30 6984 C 634.277 1.86346 0.256274 0
M  V30 6985 O 633.635 1.37175 1.18544 0
M  V30 6986 C 633.683 3.07546 -1.88275 0
M  V30 6987 O 632.787 3.94904 -1.18848 0
M  V30 6988 H 632.128 0.521967 -0.410423 0
M  V30 6989 H 634.658 1.14589 -1.69501 0
M  V30 6990 H 634.668 3.57793 -1.96082 0
M  V30 6991 H 633.343 2.95279 -2.92887 0
M  V30 6992 H 631.92 3.53339 -1.19187 0
M  V30 6993 N 634.105 1.10431 1.1244 0
M  V30 6994 C 635.516 0.864439 1.65482 0
M  V30 6995 C 635.867 -0.60527 1.8663 0
M  V30 6996 O 634.992 -1.46492 1.59276 0
M  V30 6997 C 635.587 1.56267 3.0061 0
M  V30 6998 C 634.146 1.3695 3.50602 0
M  V30 6999 C 633.293 1.61209 2.25626 0
M  V30 7000 H 636.244 1.26203 0.962209 0
M  V30 7001 H 636.265 1.00166 3.67079 0
M  V30 7002 H 635.777 2.63231 2.85186 0
M  V30 7003 H 633.878 0.321481 3.71211 0
M  V30 7004 H 633.991 2.11143 4.30064 0
M  V30 7005 H 632.355 1.03482 2.32731 0
M  V30 7006 H 633.138 2.69425 2.12756 0
M  V30 7007 N 635.583 -1.29855 0.893053 0
M  V30 7008 C 636.832 -1.95104 0.511597 0
M  V30 7009 C 637.145 -1.71226 -0.945567 0
M  V30 7010 O 638.351 -2.30525 -1.43424 0
M  V30 7011 C 636.807 -3.49374 0.864034 0
M  V30 7012 C 636.415 -3.82061 2.33952 0
M  V30 7013 C 638.159 -4.20894 0.552167 0
M  V30 7014 C 636.066 -5.29546 2.63316 0
M  V30 7015 H 634.996 -0.73029 0.187597 0
M  V30 7016 H 637.647 -1.47682 1.08914 0
M  V30 7017 H 636.029 -3.95413 0.215493 0
M  V30 7018 H 637.203 -3.46904 3.03305 0
M  V30 7019 H 635.518 -3.23665 2.61973 0
M  V30 7020 H 638.115 -5.29435 0.748489 0
M  V30 7021 H 638.458 -4.13178 -0.508924 0
M  V30 7022 H 638.991 -3.80564 1.15825 0
M  V30 7023 H 635.73 -5.4232 3.68197 0
M  V30 7024 H 635.25 -5.65974 1.9858 0
M  V30 7025 H 636.929 -5.97068 2.49236 0
M  V30 7026 N 637.061 -0.65484 -1.43351 0
M  V30 7027 C 638.308 -0.168892 -2.01794 0
M  V30 7028 C 638.636 1.2177 -1.51665 0
M  V30 7029 O 637.891 1.82717 -0.70092 0
M  V30 7030 C 638.19 -0.130424 -3.57162 0
M  V30 7031 C 637.856 -1.45898 -4.26643 0
M  V30 7032 C 636.518 -1.82279 -4.4534 0
M  V30 7033 C 638.87 -2.33485 -4.65976 0
M  V30 7034 C 636.198 -3.0591 -5.00635 0
M  V30 7035 C 638.55 -3.5641 -5.22642 0
M  V30 7036 C 637.214 -3.92985 -5.39555 0
M  V30 7037 H 636.484 -0.061802 -0.738418 0
M  V30 7038 H 639.131 -0.845869 -1.71806 0
M  V30 7039 H 637.436 0.630008 -3.86702 0
M  V30 7040 H 639.133 0.262465 -4.0014 0
M  V30 7041 H 635.723 -1.16591 -4.12437 0
M  V30 7042 H 639.907 -2.06668 -4.51223 0
M  V30 7043 H 635.163 -3.34295 -5.11915 0
M  V30 7044 H 639.337 -4.24495 -5.52066 0
M  V30 7045 H 636.964 -4.88862 -5.82167 0
M  V30 7046 N 638.539 1.52521 -0.396863 0
M  V30 7047 C 639.469 2.29582 0.425941 0
M  V30 7048 C 640.45 1.33281 1.05689 0
M  V30 7049 O 641.635 1.62181 1.06823 0
M  V30 7050 C 638.765 3.10821 1.54943 0
M  V30 7051 C 637.719 4.15069 1.04413 0
M  V30 7052 C 637.045 4.84578 2.26028 0
M  V30 7053 C 638.345 5.22191 0.106767 0
M  V30 7054 H 640.039 2.98612 -0.217045 0
M  V30 7055 H 637.585 1.43611 -0.105826 0
M  V30 7056 H 639.538 3.63492 2.13193 0
M  V30 7057 H 638.262 2.39538 2.22011 0
M  V30 7058 H 636.921 3.63389 0.484118 0
M  V30 7059 H 636.569 4.09835 2.91623 0
M  V30 7060 H 636.269 5.55043 1.92876 0
M  V30 7061 H 637.793 5.40056 2.84906 0
M  V30 7062 H 639.207 5.70176 0.597685 0
M  V30 7063 H 637.604 5.99947 -0.135352 0
M  V30 7064 H 638.674 4.77531 -0.842134 0
M  V30 7065 N 640.017 0.126909 1.57088 0
M  V30 7066 C 640.964 -0.82036 2.15728 0
M  V30 7067 C 641.934 -1.25811 1.08447 0
M  V30 7068 O 643.119 -1.33422 1.36393 0
M  V30 7069 C 640.259 -2.06199 2.76724 0
M  V30 7070 C 639.372 -1.67188 3.98337 0
M  V30 7071 C 638.507 -2.86378 4.47393 0
M  V30 7072 C 637.546 -2.43644 5.61519 0
M  V30 7073 N 636.683 -3.55775 6.05284 0
M  V30 7074 H 641.523 -0.313472 2.96347 0
M  V30 7075 H 639.06 -0.14303 1.46403 0
M  V30 7076 H 641.018 -2.78959 3.10222 0
M  V30 7077 H 639.648 -2.54333 1.98782 0
M  V30 7078 H 638.7 -0.842714 3.70948 0
M  V30 7079 H 640.012 -1.31789 4.81075 0
M  V30 7080 H 639.166 -3.67353 4.82842 0
M  V30 7081 H 637.905 -3.25009 3.63621 0
M  V30 7082 H 636.91 -1.61104 5.25667 0
M  V30 7083 H 638.135 -2.06122 6.47063 0
M  V30 7084 H 636.081 -3.94065 5.24451 0
M  V30 7085 H 635.998 -3.24325 6.82898 0
M  V30 7086 H 637.266 -4.37166 6.45373 0
M  V30 7087 N 641.495 -1.56914 -0.146875 0
M  V30 7088 C 642.742 -1.83356 -0.859467 0
M  V30 7089 C 643.07 -0.707811 -1.81164 0
M  V30 7090 O 642.325 0.303155 -1.93338 0
M  V30 7091 C 642.624 -3.16128 -1.66727 0
M  V30 7092 C 642.29 -4.42586 -0.861881 0
M  V30 7093 C 640.952 -4.76929 -0.639687 0
M  V30 7094 C 643.304 -5.20344 -0.298643 0
M  V30 7095 C 640.632 -5.86491 0.156451 0
M  V30 7096 C 642.984 -6.30742 0.484536 0
M  V30 7097 C 641.648 -6.63635 0.717306 0
M  V30 7098 H 640.918 -0.670947 -0.314501 0
M  V30 7099 H 643.565 -1.91104 -0.123108 0
M  V30 7100 H 641.87 -3.03831 -2.47374 0
M  V30 7101 H 643.567 -3.33802 -2.2221 0
M  V30 7102 H 640.157 -4.15662 -1.04513 0
M  V30 7103 H 644.341 -4.94186 -0.457585 0
M  V30 7104 H 639.597 -6.10419 0.346292 0
M  V30 7105 H 643.771 -6.90188 0.928105 0
M  V30 7106 H 641.398 -7.48367 1.33607 0
M  V30 7107 N 642.974 0.416227 -1.52004 0
M  V30 7108 C 643.921 1.50666 -1.74838 0
M  V30 7109 C 644.891 1.55245 -0.590599 0
M  V30 7110 O 646.076 1.71928 -0.827374 0
M  V30 7111 C 643.216 2.88185 -1.89851 0
M  V30 7112 C 642.329 2.92971 -3.17478 0
M  V30 7113 C 641.464 4.21745 -3.22962 0
M  V30 7114 C 640.503 4.20478 -4.4482 0
M  V30 7115 N 639.64 5.40811 -4.47736 0
M  V30 7116 H 644.48 1.30498 -2.67907 0
M  V30 7117 H 642.017 0.633568 -1.32757 0
M  V30 7118 H 643.975 3.68007 -1.96537 0
M  V30 7119 H 642.605 3.06865 -1.00169 0
M  V30 7120 H 641.657 2.05684 -3.19997 0
M  V30 7121 H 642.969 2.87899 -4.07328 0
M  V30 7122 H 642.123 5.09954 -3.28682 0
M  V30 7123 H 640.862 4.29503 -2.31038 0
M  V30 7124 H 639.867 3.30659 -4.39254 0
M  V30 7125 H 641.092 4.14366 -5.38031 0
M  V30 7126 H 639.038 5.4925 -3.58692 0
M  V30 7127 H 638.955 5.37705 -5.31422 0
M  V30 7128 H 640.223 6.30993 -4.57676 0
M  V30 7129 N 644.452 1.42507 0.673017 0
M  V30 7130 C 645.868 1.25472 0.986355 0
M  V30 7131 C 646.068 0.160181 2.00862 0
M  V30 7132 O 645.124 -0.467993 2.48125 0
M  V30 7133 C 646.437 2.61219 1.48947 0
M  V30 7134 C 647.985 2.68589 1.60715 0
M  V30 7135 C 648.46 4.04707 2.14422 0
M  V30 7136 N 649.951 4.0667 2.21752 0
M  V30 7137 C 650.686 5.0881 2.64386 0
M  V30 7138 N 650.182 6.21332 3.0646 0
M  V30 7139 N 651.975 4.96166 2.64151 0
M  V30 7140 H 644.126 2.124 -0.00378532 0
M  V30 7141 H 646.389 0.946046 0.0608367 0
M  V30 7142 H 646.095 3.42179 0.812812 0
M  V30 7143 H 645.969 2.85261 2.46791 0
M  V30 7144 H 648.356 1.87974 2.27486 0
M  V30 7145 H 648.437 2.48333 0.613552 0
M  V30 7146 H 648.081 4.8578 1.48258 0
M  V30 7147 H 648.011 4.22315 3.14575 0
M  V30 7148 H 650.502 3.25438 1.92089 0
M  V30 7149 H 650.815 6.95118 3.37684 0
M  V30 7150 H 649.16 6.24835 3.04313 0
M  V30 7151 H 652.351 4.07334 2.30644 0
M  V30 7152 H 652.524 5.759 2.97057 0
M  V30 7153 N 645.93 -0.909495 1.28709 0
M  V30 7154 C 647.155 -1.69801 1.1909 0
M  V30 7155 C 647.58 -1.86479 -0.246388 0
M  V30 7156 O 646.938 -1.37802 -1.17815 0
M  V30 7157 C 646.986 -3.06543 1.89904 0
M  V30 7158 O 646.09 -3.94268 1.2094 0
M  V30 7159 H 645.431 -0.519783 0.413185 0
M  V30 7160 H 647.961 -1.13689 1.70106 0
M  V30 7161 H 647.971 -3.56748 1.97977 0
M  V30 7162 H 646.646 -2.93722 2.94449 0
M  V30 7163 H 645.223 -3.52702 1.2106 0
M  V30 7164 N 647.408 -1.11026 -1.11852 0
M  V30 7165 C 648.824 -0.843294 -1.35502 0
M  V30 7166 C 649.024 0.534179 -1.9429 0
M  V30 7167 O 648.08 1.28585 -2.17307 0
M  V30 7168 C 649.393 -1.94793 -2.29077 0
M  V30 7169 C 650.941 -1.97709 -2.42652 0
M  V30 7170 C 651.416 -3.07364 -3.39546 0
M  V30 7171 N 652.907 -3.0671 -3.47107 0
M  V30 7172 C 653.642 -3.88197 -4.22008 0
M  V30 7173 N 653.138 -4.79635 -4.99922 0
M  V30 7174 N 654.931 -3.76391 -4.17476 0
M  V30 7175 H 647.082 -1.99805 -0.720538 0
M  V30 7176 H 649.345 -0.868633 -0.379711 0
M  V30 7177 H 649.051 -2.93971 -1.93065 0
M  V30 7178 H 648.925 -1.84039 -3.29256 0
M  V30 7179 H 651.312 -0.991604 -2.77941 0
M  V30 7180 H 651.393 -2.1254 -1.4234 0
M  V30 7181 H 651.037 -4.06136 -3.04985 0
M  V30 7182 H 650.967 -2.89774 -4.39703 0
M  V30 7183 H 653.458 -2.40457 -2.91528 0
M  V30 7184 H 653.771 -5.38357 -5.54429 0
M  V30 7185 H 652.116 -4.8366 -4.99097 0
M  V30 7186 H 655.307 -3.04303 -3.55693 0
M  V30 7187 H 655.48 -4.40131 -4.75593 0
M  V30 7188 O 648.925 1.24197 -1.03235 0
M  V30 7189 H 649.616 1.80628 -0.699523 0
M  V30 END ATOM
M  V30 BEGIN BOND
M  V30 END BOND
M  V30 END CTAB
M  END
$$$$
