drugbank_target|O00142 Thymidine kinase 2, mitochondrial (DB02452; DB02594; DB03312; DB04485)
 OpenBabel12092120573D

  0  0  0     0  0            999 V3000
M  V30 BEGIN CTAB
M  V30 COUNTS 4355 4412 0 0 0
M  V30 BEGIN ATOM
M  V30 1 H -0.908 1.98254 -0.117106 0
M  V30 2 N 0 1.576 0 0
M  V30 3 C 0.933 2.03868 1.02534 0
M  V30 4 C 1.911 0.928543 1.3348 0
M  V30 5 O 3.095 1.19667 1.45644 0
M  V30 6 C 0.222 2.43627 2.35294 0
M  V30 7 C -0.732 3.65373 2.2001 0
M  V30 8 S 0.101 5.13292 1.52614 0
M  V30 9 C 1.257 5.56322 2.86805 0
M  V30 10 H 1.49 2.90518 0.631377 0
M  V30 11 H -0.977 1.52953 0.210867 0
M  V30 12 H 0.981 2.67203 3.11629 0
M  V30 13 H -0.358 1.57376 2.7183 0
M  V30 14 H -1.165 3.90944 3.18086 0
M  V30 15 H -1.563 3.418 1.51819 0
M  V30 16 H 0.729 5.58782 3.83104 0
M  V30 17 H 1.672 6.56266 2.65933 0
M  V30 18 H 2.08 4.83886 2.90714 0
M  V30 19 N 1.4781 -0.272755 1.55222 0
M  V30 20 C 2.4081 -1.34136 1.91127 0
M  V30 21 C 3.3891 -1.51513 0.773168 0
M  V30 22 O 4.5741 -1.64552 1.03132 0
M  V30 23 C 1.7041 -2.70083 2.1834 0
M  V30 24 C 0.6581 -2.67437 3.34158 0
M  V30 25 C -0.0159 -4.06938 3.46851 0
M  V30 26 C 1.2841 -2.26686 4.70543 0
M  V30 27 H 2.9781 -1.04333 2.80633 0
M  V30 28 H 0.5241 -0.500454 1.35024 0
M  V30 29 H 2.4771 -3.44952 2.42046 0
M  V30 30 H 1.2011 -3.01469 1.25634 0
M  V30 31 H -0.1399 -1.95026 3.1042 0
M  V30 32 H -0.4919 -4.35547 2.51611 0
M  V30 33 H -0.7919 -4.06062 4.2472 0
M  V30 34 H 0.7321 -4.83545 3.72849 0
M  V30 35 H 2.1461 -2.91277 4.93792 0
M  V30 36 H 0.5431 -2.36971 5.5133 0
M  V30 37 H 1.6131 -1.21818 4.69349 0
M  V30 38 N 2.9562 -1.48159 -0.537278 0
M  V30 39 C 3.8862 -1.65029 -1.6519 0
M  V30 40 C 4.8672 -0.499281 -1.62607 0
M  V30 41 O 6.0522 -0.730972 -1.79918 0
M  V30 42 C 3.1822 -1.68303 -3.03795 0
M  V30 43 C 2.1362 -2.8283 -3.21234 0
M  V30 44 C 1.4622 -2.71189 -4.60826 0
M  V30 45 C 2.7622 -4.24211 -3.04701 0
M  V30 46 H 4.4562 -2.58341 -1.51328 0
M  V30 47 H 2.0022 -1.24325 -0.726585 0
M  V30 48 H 3.9552 -1.78693 -3.81637 0
M  V30 49 H 2.6792 -0.715635 -3.18663 0
M  V30 50 H 1.3382 -2.71983 -2.45807 0
M  V30 51 H 0.9862 -1.72435 -4.7252 0
M  V30 52 H 0.6862 -3.48035 -4.7344 0
M  V30 53 H 2.2102 -2.83537 -5.40777 0
M  V30 54 H 3.6242 -4.3593 -3.72341 0
M  V30 55 H 2.0212 -5.01998 -3.28813 0
M  V30 56 H 3.0912 -4.41184 -2.01209 0
M  V30 57 N 4.4343 0.785586 -1.36625 0
M  V30 58 C 5.6803 1.5452 -1.32269 0
M  V30 59 C 6.0353 1.92159 0.0962266 0
M  V30 60 O 5.3283 1.60158 1.05167 0
M  V30 61 C 5.5223 2.83007 -2.1827 0
M  V30 62 C 5.3513 2.57925 -3.68382 0
M  V30 63 C 4.1213 2.52752 -4.37544 0
M  V30 64 C 6.3193 2.26861 -4.61561 0
M  V30 65 N 4.3013 2.19608 -5.73276 0
M  V30 66 C 5.6723 2.03738 -5.85569 0
M  V30 67 C 7.7273 2.129 -4.50087 0
M  V30 68 C 6.4303 1.68065 -6.9939 0
M  V30 69 C 8.4563 1.78626 -5.63779 0
M  V30 70 C 7.8183 1.56353 -6.86828 0
M  V30 71 H 3.9173 0.566301 -0.539283 0
M  V30 72 H 6.5013 0.917736 -1.71714 0
M  V30 73 H 4.6723 3.43614 -1.81063 0
M  V30 74 H 6.4043 3.48775 -2.05275 0
M  V30 75 H 3.1593 2.6813 -3.90389 0
M  V30 76 H 3.5833 2.05771 -6.44971 0
M  V30 77 H 8.2253 2.28808 -3.55537 0
M  V30 78 H 5.9433 1.50895 -7.93887 0
M  V30 79 H 9.5293 1.68502 -5.56865 0
M  V30 80 H 8.4093 1.30223 -7.73312 0
M  V30 81 N 5.9124 1.20967 1.01018 0
M  V30 82 C 7.3234 1.02319 1.56165 0
M  V30 83 C 7.6744 -0.418546 1.91684 0
M  V30 84 O 6.7994 -1.30096 1.72928 0
M  V30 85 C 7.3944 1.85109 2.8376 0
M  V30 86 C 5.9534 1.70809 3.35412 0
M  V30 87 C 5.1004 1.82643 2.08655 0
M  V30 88 H 8.0514 1.35065 0.833255 0
M  V30 89 H 8.0724 1.35827 3.55431 0
M  V30 90 H 7.5844 2.90035 2.57878 0
M  V30 91 H 5.6854 0.685464 3.66241 0
M  V30 92 H 5.7984 2.52467 4.07182 0
M  V30 93 H 4.1624 1.25896 2.21409 0
M  V30 94 H 4.9454 2.89066 1.85191 0
M  V30 95 N 7.3905 -1.2043 1.01659 0
M  V30 96 C 8.3205 -2.25466 0.607226 0
M  V30 97 C 9.3015 -1.65853 -0.377716 0
M  V30 98 O 10.4865 -1.92409 -0.263149 0
M  V30 99 C 7.6165 -3.47256 -0.0552949 0
M  V30 100 C 6.5705 -4.19462 0.850632 0
M  V30 101 C 5.8965 -5.34673 0.0538859 0
M  V30 102 C 7.1965 -4.75603 2.15868 0
M  V30 103 H 8.8905 -2.59962 1.48526 0
M  V30 104 H 6.4365 -1.2496 0.715605 0
M  V30 105 H 8.3895 -4.19917 -0.353233 0
M  V30 106 H 7.1135 -3.11924 -0.968045 0
M  V30 107 H 5.7725 -3.48667 1.13257 0
M  V30 108 H 5.4205 -4.95585 -0.860514 0
M  V30 109 H 5.1205 -5.83913 0.657192 0
M  V30 110 H 6.6445 -6.10138 -0.237598 0
M  V30 111 H 8.0585 -5.40083 1.92311 0
M  V30 112 H 6.4555 -5.3528 2.71284 0
M  V30 113 H 7.5255 -3.94346 2.82169 0
M  V30 114 N 8.8686 -0.792821 -1.36206 0
M  V30 115 C 10.2846 -0.474903 -1.52371 0
M  V30 116 C 10.4846 1.00622 -1.74578 0
M  V30 117 O 9.5406 1.79162 -1.77924 0
M  V30 118 C 10.8536 -1.3083 -2.70747 0
M  V30 119 C 12.4016 -1.30234 -2.84619 0
M  V30 120 C 12.8766 -2.11956 -4.06004 0
M  V30 121 N 14.3676 -2.09419 -4.13156 0
M  V30 122 C 15.1026 -2.69419 -5.06163 0
M  V30 123 N 14.5986 -3.3829 -6.04592 0
M  V30 124 N 16.3916 -2.59134 -4.98804 0
M  V30 125 H 8.5426 -1.75222 -1.20046 0
M  V30 126 H 10.8056 -0.745024 -0.586211 0
M  V30 127 H 10.5116 -2.35881 -2.6087 0
M  V30 128 H 10.3856 -0.95196 -3.6499 0
M  V30 129 H 12.7726 -0.259748 -2.93955 0
M  V30 130 H 12.8536 -1.69847 -1.91274 0
M  V30 131 H 12.4976 -3.16248 -3.97429 0
M  V30 132 H 12.4276 -1.69711 -4.98503 0
M  V30 133 H 14.9186 -1.59297 -3.42685 0
M  V30 134 H 15.2316 -3.81394 -6.7213 0
M  V30 135 H 13.5766 -3.42393 -6.04807 0
M  V30 136 H 16.7676 -2.04927 -4.20859 0
M  V30 137 H 16.9406 -3.06185 -5.711 0
M  V30 138 N 10.3467 1.47872 -0.545128 0
M  V30 139 C 11.5947 2.02093 -0.016553 0
M  V30 140 C 11.9157 1.42305 1.3332 0
M  V30 141 O 11.1857 0.593853 1.86682 0
M  V30 142 H 9.7657 0.746993 -0.00313038 0
M  V30 143 H 12.4277 1.81414 -0.712397 0
M  V30 144 H 11.5237 3.11996 0.0805422 0
M  V30 145 N 11.8248 0.280983 1.55075 0
M  V30 146 C 13.0708 -0.327573 2.00745 0
M  V30 147 C 13.4258 -1.53045 1.16598 0
M  V30 148 O 12.7188 -1.90221 0.229451 0
M  V30 149 C 12.9128 -0.754656 3.49342 0
M  V30 150 C 12.7418 0.40529 4.4787 0
M  V30 151 C 11.5118 0.890947 4.97383 0
M  V30 152 C 13.7098 1.24371 4.99035 0
M  V30 153 N 11.6918 2.01975 5.79724 0
M  V30 154 C 13.0628 2.22031 5.7888 0
M  V30 155 C 15.1178 1.27638 4.81262 0
M  V30 156 C 13.8208 3.22709 6.42846 0
M  V30 157 C 15.8468 2.27164 5.46031 0
M  V30 158 C 15.2088 3.23556 6.25692 0
M  V30 159 H 11.3078 -0.0848774 0.77738 0
M  V30 160 H 13.8918 0.406342 1.90413 0
M  V30 161 H 12.0628 -1.45778 3.60005 0
M  V30 162 H 13.7948 -1.34105 3.81835 0
M  V30 163 H 10.5498 0.469262 4.71269 0
M  V30 164 H 10.9738 2.58794 6.25584 0
M  V30 165 H 15.6158 0.544936 4.19274 0
M  V30 166 H 13.3338 3.96784 7.0398 0
M  V30 167 H 16.9198 2.30441 5.34217 0
M  V30 168 H 15.7998 3.99309 6.74924 0
M  V30 169 N 13.3029 -1.57598 0.00835791 0
M  V30 170 C 14.2659 -2.07884 -0.965242 0
M  V30 171 C 15.2659 -0.989825 -1.26725 0
M  V30 172 O 16.4559 -1.25218 -1.21104 0
M  V30 173 C 13.5879 -2.52731 -2.28779 0
M  V30 174 H 14.7809 -2.95178 -0.530112 0
M  V30 175 H 12.3339 -1.54458 -0.239283 0
M  V30 176 H 13.0689 -1.68705 -2.76964 0
M  V30 177 H 12.8539 -3.32272 -2.08177 0
M  V30 178 H 14.3439 -2.91933 -2.98605 0
M  V30 179 N 14.781 0.264519 -1.55364 0
M  V30 180 C 15.744 1.31046 -1.88042 0
M  V30 181 C 16.744 1.41943 -0.755569 0
M  V30 182 O 17.934 1.40947 -1.02369 0
M  V30 183 C 15.066 2.69067 -2.09323 0
M  V30 184 H 16.259 1.03297 -2.81549 0
M  V30 185 H 13.812 0.502989 -1.47986 0
M  V30 186 H 14.547 3.01982 -1.18226 0
M  V30 187 H 14.332 2.62542 -2.91229 0
M  V30 188 H 15.822 3.44623 -2.35848 0
M  V30 189 N 16.2591 1.48442 0.529413 0
M  V30 190 C 17.6751 1.34575 0.858004 0
M  V30 191 C 17.8751 0.3572 1.98309 0
M  V30 192 O 16.9311 -0.221379 2.51528 0
M  V30 193 C 18.2441 2.74617 1.22499 0
M  V30 194 C 19.7921 2.83109 1.33484 0
M  V30 195 C 20.2671 4.23854 1.73526 0
M  V30 196 N 21.7581 4.2653 1.80628 0
M  V30 197 C 22.4931 5.32372 2.12997 0
M  V30 198 N 21.9891 6.48491 2.43786 0
M  V30 199 N 23.7821 5.19766 2.14008 0
M  V30 200 H 15.9331 2.1133 -0.212925 0
M  V30 201 H 18.1961 0.947439 -0.0326199 0
M  V30 202 H 17.9021 3.4852 0.471905 0
M  V30 203 H 17.7761 3.08177 2.17501 0
M  V30 204 H 20.1631 2.09462 2.0787 0
M  V30 205 H 20.2441 2.53168 0.366027 0
M  V30 206 H 19.8881 4.98018 0.997013 0
M  V30 207 H 19.8181 4.5124 2.71459 0
M  V30 208 H 22.3091 3.42772 1.59108 0
M  V30 209 H 22.6221 7.24993 2.67592 0
M  V30 210 H 20.9671 6.51765 2.41304 0
M  V30 211 H 24.1581 4.28066 1.89412 0
M  V30 212 H 24.3311 6.02354 2.38902 0
M  V30 213 N 17.7372 -0.778329 1.37039 0
M  V30 214 C 18.7002 -1.87301 1.32102 0
M  V30 215 C 19.7002 -1.59198 0.226405 0
M  V30 216 O 20.8902 -1.67403 0.481861 0
M  V30 217 C 18.0222 -3.24309 1.05055 0
M  V30 218 H 19.2152 -1.93093 2.29467 0
M  V30 219 H 16.7682 -0.977358 1.21973 0
M  V30 220 H 17.5032 -3.24196 0.0819373 0
M  V30 221 H 17.2882 -3.46098 1.84279 0
M  V30 222 H 18.7782 -4.04382 1.04234 0
M  V30 223 N 19.2153 -1.21501 -1.00376 0
M  V30 224 C 20.1453 -0.999478 -2.11028 0
M  V30 225 C 21.1263 0.0759671 -1.6993 0
M  V30 226 O 22.3113 -0.0841106 -1.94018 0
M  V30 227 C 19.4413 -0.564709 -3.42678 0
M  V30 228 C 18.3953 -1.58486 -3.97576 0
M  V30 229 C 17.7213 -1.00628 -5.25146 0
M  V30 230 C 19.0213 -2.97204 -4.29496 0
M  V30 231 H 20.7153 -1.92495 -2.29317 0
M  V30 232 H 18.2613 -0.92693 -1.102 0
M  V30 233 H 20.2143 -0.401091 -4.19487 0
M  V30 234 H 18.9383 0.396411 -3.24185 0
M  V30 235 H 17.5973 -1.73606 -3.22888 0
M  V30 236 H 17.2453 -0.0368439 -5.02987 0
M  V30 237 H 16.9453 -1.68771 -5.62841 0
M  V30 238 H 18.4693 -0.854015 -6.04598 0
M  V30 239 H 19.8833 -2.8552 -4.97143 0
M  V30 240 H 18.2803 -3.62372 -4.78338 0
M  V30 241 H 19.3503 -3.47956 -3.3772 0
M  V30 242 N 20.6934 1.19889 -1.02296 0
M  V30 243 C 22.1094 1.41462 -0.738954 0
M  V30 244 C 22.3094 1.89721 0.678846 0
M  V30 245 O 21.3654 2.07016 1.4457 0
M  V30 246 C 22.6784 2.43083 -1.77005 0
M  V30 247 C 24.2264 2.5684 -1.78892 0
M  V30 248 C 24.7014 3.61709 -2.80945 0
M  V30 249 N 26.1924 3.69199 -2.79725 0
M  V30 250 C 26.9274 4.50019 -3.55345 0
M  V30 251 N 26.4234 5.34592 -4.40662 0
M  V30 252 N 28.2164 4.44612 -3.43914 0
M  V30 253 H 20.3674 0.868827 -1.93817 0
M  V30 254 H 22.6304 0.44399 -0.837602 0
M  V30 255 H 22.3364 2.14636 -2.78612 0
M  V30 256 H 22.2104 3.4217 -1.58744 0
M  V30 257 H 24.5974 2.84614 -0.779674 0
M  V30 258 H 24.6784 1.57927 -2.01228 0
M  V30 259 H 24.3224 3.34678 -3.82038 0
M  V30 260 H 24.2524 4.60259 -2.5587 0
M  V30 261 H 26.7434 3.08794 -2.17842 0
M  V30 262 H 27.0564 5.93363 -4.95116 0
M  V30 263 H 25.4014 5.34073 -4.44737 0
M  V30 264 H 28.5924 3.7758 -2.76679 0
M  V30 265 H 28.7654 5.0736 -4.031 0
M  V30 266 N 22.1715 0.800033 1.35784 0
M  V30 267 C 23.4115 0.382891 2.00782 0
M  V30 268 C 23.7755 -1.02891 1.62103 0
M  V30 269 O 24.9765 -1.54771 2.19771 0
M  V30 270 C 23.2475 0.553299 3.53091 0
M  V30 271 S 24.8065 0.225608 4.3822 0
M  V30 272 H 21.6245 0.145737 0.695904 0
M  V30 273 H 24.2265 1.04085 1.65489 0
M  V30 274 H 22.9305 1.58091 3.78729 0
M  V30 275 H 22.4615 -0.120214 3.93216 0
M  V30 276 H 24.4765 -0.969074 4.86645 0
M  V30 277 N 23.6496 -1.47581 0.552962 0
M  V30 278 C 24.8966 -2.02482 0.0273243 0
M  V30 279 C 25.2246 -1.42776 -1.32081 0
M  V30 280 O 24.4796 -0.571393 -1.87173 0
M  V30 281 C 24.7786 -3.57199 -0.119728 0
M  V30 282 C 24.4446 -4.35804 1.15697 0
M  V30 283 C 23.1066 -4.57 1.50681 0
M  V30 284 C 25.4586 -4.81167 2.00319 0
M  V30 285 C 22.7866 -5.20807 2.70142 0
M  V30 286 C 25.1386 -5.46293 3.18978 0
M  V30 287 C 23.8026 -5.65722 3.54281 0
M  V30 288 H 23.0726 -0.740933 0.00999866 0
M  V30 289 H 25.7196 -1.77302 0.72362 0
M  V30 290 H 24.0246 -3.81348 -0.89896 0
M  V30 291 H 25.7216 -3.97324 -0.541718 0
M  V30 292 H 22.3116 -4.19582 0.874561 0
M  V30 293 H 26.4956 -4.64574 1.74599 0
M  V30 294 H 21.7516 -5.34045 2.97668 0
M  V30 295 H 25.9256 -5.80407 3.84838 0
M  V30 296 H 23.5526 -6.14936 4.46942 0
M  V30 297 N 25.1277 -0.289203 -1.54924 0
M  V30 298 C 26.3757 0.322879 -1.99504 0
M  V30 299 C 26.6967 1.55313 -1.1791 0
M  V30 300 O 25.9667 1.94001 -0.272097 0
M  V30 301 H 24.5467 0.122291 -0.736922 0
M  V30 302 H 27.2087 -0.397802 -1.90797 0
M  V30 303 H 26.3047 0.603061 -3.06218 0
M  V30 304 N 26.6058 1.57591 -0.0167156 0
M  V30 305 C 28.0168 1.79201 0.523834 0
M  V30 306 C 28.3678 0.925796 1.72984 0
M  V30 307 O 27.4928 0.132792 2.15992 0
M  V30 308 C 28.0878 3.25 0.957091 0
M  V30 309 C 26.6468 3.47648 1.44283 0
M  V30 310 C 25.7938 2.74374 0.401757 0
M  V30 311 H 28.7448 1.56831 -0.242816 0
M  V30 312 H 28.7658 3.34031 1.82219 0
M  V30 313 H 28.2778 3.88019 0.0791415 0
M  V30 314 H 26.3788 2.89866 2.34113 0
M  V30 315 H 26.4918 4.56352 1.45877 0
M  V30 316 H 24.8558 2.39485 0.867121 0
M  V30 317 H 25.6388 3.40102 -0.467513 0
M  V30 318 N 28.0839 -0.256276 1.55502 0
M  V30 319 C 29.3319 -0.983672 1.76545 0
M  V30 320 C 29.6529 -1.86206 0.578982 0
M  V30 321 O 28.9229 -1.91656 -0.405577 0
M  V30 322 H 27.5029 -0.366191 0.651086 0
M  V30 323 H 30.1649 -0.276479 1.92929 0
M  V30 324 H 29.2609 -1.61087 2.67315 0
M  V30 325 N 29.562 -1.4872 -0.521534 0
M  V30 326 C 30.787 -1.61101 -1.30618 0
M  V30 327 C 31.212 -0.274611 -1.86085 0
M  V30 328 O 30.57 0.754937 -1.64834 0
M  V30 329 C 30.618 -2.66709 -2.4269 0
M  V30 330 O 29.722 -2.24456 -3.45967 0
M  V30 331 H 29.063 -0.539921 -0.386499 0
M  V30 332 H 31.593 -1.94767 -0.626645 0
M  V30 333 H 31.603 -2.88245 -2.88754 0
M  V30 334 H 30.278 -3.63727 -2.01682 0
M  V30 335 H 28.855 -2.13168 -3.05964 0
M  V30 336 N 31.0401 0.771051 -1.3745 0
M  V30 337 C 32.4561 1.07171 -1.18265 0
M  V30 338 C 32.6561 2.01491 -0.019287 0
M  V30 339 O 31.7121 2.44244 0.640408 0
M  V30 340 C 33.0251 1.66854 -2.50161 0
M  V30 341 C 34.5731 1.79109 -2.56689 0
M  V30 342 C 35.0481 2.42205 -3.88717 0
M  V30 343 N 36.5391 2.49655 -3.90162 0
M  V30 344 C 37.2741 2.9933 -4.8907 0
M  V30 345 N 36.7701 3.49172 -5.98374 0
M  V30 346 N 38.5631 2.9821 -4.76474 0
M  V30 347 H 30.7141 0.144796 -2.11906 0
M  V30 348 H 32.9771 0.126863 -0.939473 0
M  V30 349 H 32.6831 1.05017 -3.35655 0
M  V30 350 H 32.5571 2.6614 -2.673 0
M  V30 351 H 34.9441 2.40077 -1.71601 0
M  V30 352 H 35.0251 0.785757 -2.43433 0
M  V30 353 H 34.6691 1.81875 -4.74219 0
M  V30 354 H 34.5991 3.43345 -3.99276 0
M  V30 355 H 37.0901 2.14383 -3.11205 0
M  V30 356 H 37.4031 3.8548 -6.69795 0
M  V30 357 H 35.7481 3.47275 -6.02018 0
M  V30 358 H 38.9391 2.58572 -3.90203 0
M  V30 359 H 39.1121 3.36613 -5.53711 0
M  V30 360 N 32.5182 1.22032 0.997298 0
M  V30 361 C 33.7662 1.04016 1.73278 0
M  V30 362 C 34.0872 -0.426255 1.90284 0
M  V30 363 O 33.3572 -1.30694 1.45931 0
M  V30 364 H 31.9372 0.381897 0.642 0
M  V30 365 H 34.5992 1.5347 1.20137 0
M  V30 366 H 33.6952 1.51441 2.72896 0
M  V30 367 N 33.9963 -1.19345 1.0293 0
M  V30 368 C 35.2213 -1.93538 0.745511 0
M  V30 369 C 35.6463 -1.75007 -0.689511 0
M  V30 370 O 35.0043 -1.05265 -1.47611 0
M  V30 371 C 35.0523 -3.43336 1.10239 0
M  V30 372 O 34.1563 -4.11806 0.221289 0
M  V30 373 H 33.4973 -0.604193 0.275404 0
M  V30 374 H 36.0273 -1.5141 1.37609 0
M  V30 375 H 36.0373 -3.94004 1.05947 0
M  V30 376 H 34.7123 -3.56146 2.14786 0
M  V30 377 H 33.2893 -3.715 0.322842 0
M  V30 378 N 35.4744 -0.807222 -1.35358 0
M  V30 379 C 36.8854 -0.44876 -1.81226 0
M  V30 380 C 37.2364 1.02929 -1.67033 0
M  V30 381 O 36.3614 1.79991 -1.20133 0
M  V30 382 C 36.9564 -0.807774 -3.2903 0
M  V30 383 C 35.5154 -0.501901 -3.73039 0
M  V30 384 C 34.6624 -1.03304 -2.57339 0
M  V30 385 H 37.6134 -0.998808 -1.23327 0
M  V30 386 H 37.6344 -0.10554 -3.80354 0
M  V30 387 H 37.1464 -1.88357 -3.39328 0
M  V30 388 H 35.2474 0.565128 -3.68289 0
M  V30 389 H 35.3604 -1.03497 -4.67787 0
M  V30 390 H 33.7244 -0.455339 -2.50597 0
M  V30 391 H 34.5074 -2.11496 -2.70415 0
M  V30 392 N 36.9525 1.47285 -0.560781 0
M  V30 393 C 37.9155 2.28535 0.174488 0
M  V30 394 C 38.9155 1.37153 0.839388 0
M  V30 395 O 40.1055 1.59748 0.694702 0
M  V30 396 C 37.2375 3.16934 1.25561 0
M  V30 397 H 38.4305 2.95012 -0.539262 0
M  V30 398 H 35.9835 1.53034 -0.317865 0
M  V30 399 H 36.7185 2.55157 2.00164 0
M  V30 400 H 36.5035 3.8419 0.783604 0
M  V30 401 H 37.9935 3.78143 1.77193 0
M  V30 402 N 38.4306 0.297415 1.54768 0
M  V30 403 C 39.6556 -0.318435 2.04941 0
M  V30 404 C 40.0806 -1.4701 1.17345 0
M  V30 405 O 39.4386 -1.80436 0.176758 0
M  V30 406 C 39.4866 -0.755749 3.52592 0
M  V30 407 O 38.5906 -1.86088 3.68028 0
M  V30 408 H 37.9316 -0.062421 0.661059 0
M  V30 409 H 40.4616 0.438215 1.99852 0
M  V30 410 H 40.4716 -1.04552 3.94376 0
M  V30 411 H 39.1466 0.0867233 4.1581 0
M  V30 412 H 37.7236 -1.57193 3.38149 0
M  V30 413 N 39.9087 -1.5758 0.0250728 0
M  V30 414 C 41.1567 -1.91255 -0.653151 0
M  V30 415 C 41.4777 -0.901691 -1.729 0
M  V30 416 O 40.7477 0.0573785 -1.95816 0
M  V30 417 H 39.3277 -0.705942 -0.244243 0
M  V30 418 H 41.9897 -1.94767 0.0719209 0
M  V30 419 H 41.0857 -2.91752 -1.10847 0
M  V30 420 N 41.3868 0.248026 -1.55636 0
M  V30 421 C 42.7978 0.817177 -1.67866 0
M  V30 422 C 43.1488 1.86069 -0.622322 0
M  V30 423 O 42.2738 2.15157 0.231618 0
M  V30 424 C 42.8688 1.489 -3.04326 0
M  V30 425 C 41.4278 2.00587 -3.185 0
M  V30 426 C 40.5748 0.856573 -2.63739 0
M  V30 427 H 43.5258 0.0238579 -1.58682 0
M  V30 428 H 43.5468 2.35698 -2.98708 0
M  V30 429 H 43.0588 0.729279 -3.81186 0
M  V30 430 H 41.1598 2.79443 -2.4646 0
M  V30 431 H 41.2728 2.20402 -4.25393 0
M  V30 432 H 39.6368 1.25678 -2.21534 0
M  V30 433 H 40.4198 0.109953 -3.43124 0
M  V30 434 N 42.8649 1.48995 0.513639 0
M  V30 435 C 44.1129 1.57531 1.26604 0
M  V30 436 C 44.4339 0.258236 1.93283 0
M  V30 437 O 43.7039 -0.721502 1.8213 0
M  V30 438 H 42.2839 0.580387 0.470276 0
M  V30 439 H 44.9459 1.85552 0.596373 0
M  V30 440 H 44.0419 2.36486 2.03669 0
M  V30 441 N 44.343 -0.763751 1.37857 0
M  V30 442 C 45.754 -1.3405 1.29952 0
M  V30 443 C 46.105 -1.96138 -0.0492898 0
M  V30 444 O 45.23 -1.94372 -0.951239 0
M  V30 445 C 45.825 -2.43729 2.35333 0
M  V30 446 C 44.384 -2.97151 2.31037 0
M  V30 447 C 43.531 -1.70438 2.18738 0
M  V30 448 H 46.482 -0.563396 1.48363 0
M  V30 449 H 46.503 -3.23412 2.00462 0
M  V30 450 H 46.015 -1.9851 3.33489 0
M  V30 451 H 44.116 -3.46724 1.3643 0
M  V30 452 H 44.229 -3.52221 3.24772 0
M  V30 453 H 42.593 -1.93673 1.65418 0
M  V30 454 H 43.376 -1.27312 3.18821 0
M  V30 455 N 45.8211 -1.22559 -0.990812 0
M  V30 456 C 47.2371 -0.985996 -1.255 0
M  V30 457 C 47.4371 0.319173 -1.98956 0
M  V30 458 O 46.4931 1.04127 -2.3003 0
M  V30 459 C 47.8061 -2.18607 -2.06474 0
M  V30 460 C 49.3541 -2.22985 -2.19651 0
M  V30 461 C 49.8291 -3.4255 -3.04012 0
M  V30 462 N 51.3201 -3.42725 -3.11599 0
M  V30 463 C 52.0551 -4.31892 -3.7717 0
M  V30 464 N 51.5511 -5.31279 -4.44651 0
M  V30 465 N 53.3441 -4.19662 -3.73952 0
M  V30 466 H 45.4951 -2.06469 -0.49841 0
M  V30 467 H 47.7581 -0.904853 -0.282747 0
M  V30 468 H 47.4641 -3.13267 -1.59865 0
M  V30 469 H 47.3381 -2.18838 -3.07229 0
M  V30 470 H 49.7251 -1.28871 -2.65474 0
M  V30 471 H 49.8061 -2.26791 -1.18319 0
M  V30 472 H 49.4501 -4.36965 -2.58889 0
M  V30 473 H 49.3801 -3.35984 -4.0549 0
M  V30 474 H 51.8711 -2.70807 -2.63575 0
M  V30 475 H 52.1841 -5.95593 -4.92431 0
M  V30 476 H 50.5291 -5.3519 -4.43392 0
M  V30 477 H 53.7201 -3.41268 -3.20396 0
M  V30 478 H 53.8931 -4.89358 -4.24774 0
M  V30 479 N 47.2992 1.18797 -1.03562 0
M  V30 480 C 48.7152 1.40671 -0.753917 0
M  V30 481 C 48.9152 1.9043 0.658686 0
M  V30 482 O 47.9712 2.08538 1.42366 0
M  V30 483 C 49.2842 2.41192 -1.79574 0
M  V30 484 C 50.8322 2.54928 -1.81606 0
M  V30 485 C 51.3072 3.58709 -2.84766 0
M  V30 486 N 52.7982 3.66212 -2.83625 0
M  V30 487 C 53.5332 4.46225 -3.60098 0
M  V30 488 N 53.0292 5.29888 -4.46308 0
M  V30 489 N 54.8222 4.40939 -3.4861 0
M  V30 490 H 46.9732 0.848221 -1.94728 0
M  V30 491 H 49.2362 0.435081 -0.842264 0
M  V30 492 H 48.9422 2.11669 -2.80872 0
M  V30 493 H 48.8162 3.40467 -1.62365 0
M  V30 494 H 51.2032 2.83771 -0.809817 0
M  V30 495 H 51.2842 1.55784 -2.02891 0
M  V30 496 H 50.9282 3.30607 -3.85566 0
M  V30 497 H 50.8582 4.57519 -2.60737 0
M  V30 498 H 53.3492 3.06466 -2.21105 0
M  V30 499 H 53.6622 5.88078 -5.01382 0
M  V30 500 H 52.0072 5.29326 -4.50377 0
M  V30 501 H 55.1982 3.74624 -2.80668 0
M  V30 502 H 55.3712 5.03056 -4.08459 0
M  V30 503 N 48.7773 0.814389 1.34928 0
M  V30 504 C 50.0233 0.399013 1.98836 0
M  V30 505 C 50.3563 -1.03314 1.64438 0
M  V30 506 O 49.6313 -1.71811 0.911659 0
M  V30 507 C 49.9143 0.591629 3.55207 0
M  V30 508 C 49.7673 2.06928 3.99376 0
M  V30 509 C 51.0863 0.022199 4.40094 0
M  V30 510 H 48.2053 0.146451 0.722303 0
M  V30 511 H 50.8473 1.02537 1.59957 0
M  V30 512 H 48.9973 0.0584441 3.88456 0
M  V30 513 H 50.6693 2.66544 3.76499 0
M  V30 514 H 48.9123 2.56287 3.49999 0
M  V30 515 H 49.5833 2.1549 5.08201 0
M  V30 516 H 52.0593 0.477643 4.13349 0
M  V30 517 H 50.9353 0.186832 5.48582 0
M  V30 518 H 51.1963 -1.07215 4.28902 0
M  V30 519 N 50.2554 -1.46986 0.568584 0
M  V30 520 C 51.1874 -2.28233 -0.210337 0
M  V30 521 C 52.2004 -1.37682 -0.868767 0
M  V30 522 O 53.3894 -1.62406 -0.740705 0
M  V30 523 C 50.4894 -3.12293 -1.3163 0
M  V30 524 C 49.6624 -4.30878 -0.7525 0
M  V30 525 C 48.7214 -4.96445 -1.74439 0
M  V30 526 O 47.7474 -5.54482 -1.286 0
M  V30 527 N 48.9494 -4.92171 -3.07812 0
M  V30 528 H 51.7144 -2.95723 0.486648 0
M  V30 529 H 49.2754 -1.56742 0.405409 0
M  V30 530 H 51.2674 -3.53022 -1.97883 0
M  V30 531 H 49.8374 -2.46971 -1.91636 0
M  V30 532 H 49.0574 -3.94104 0.0871128 0
M  V30 533 H 50.3454 -5.07558 -0.35536 0
M  V30 534 H 49.7434 -4.46239 -3.47688 0
M  V30 535 H 48.3004 -5.36884 -3.69592 0
M  V30 536 N 51.7335 -0.305618 -1.54608 0
M  V30 537 C 53.1495 0.0476228 -1.59529 0
M  V30 538 C 53.3495 1.52025 -1.32252 0
M  V30 539 O 52.4055 2.27368 -1.09818 0
M  V30 540 C 53.7185 -0.354471 -2.98603 0
M  V30 541 C 55.2665 -0.303622 -3.11524 0
M  V30 542 C 55.7415 -0.680608 -4.52915 0
M  V30 543 N 57.2325 -0.63332 -4.5885 0
M  V30 544 C 57.9675 -0.897432 -5.66334 0
M  V30 545 N 57.4635 -1.22775 -6.81834 0
M  V30 546 N 59.2565 -0.824186 -5.56025 0
M  V30 547 H 51.4075 -1.2653 -1.70599 0
M  V30 548 H 53.6705 -0.513291 -0.797017 0
M  V30 549 H 53.3765 -1.3798 -3.23503 0
M  V30 550 H 53.2505 0.289568 -3.76087 0
M  V30 551 H 55.6375 0.712472 -2.8637 0
M  V30 552 H 55.7185 -0.982348 -2.36185 0
M  V30 553 H 55.3625 -1.69453 -4.78799 0
M  V30 554 H 55.2925 0.0202385 -5.26596 0
M  V30 555 H 57.7835 -0.389138 -3.75891 0
M  V30 556 H 58.0965 -1.41513 -7.59733 0
M  V30 557 H 56.4415 -1.26583 -6.83375 0
M  V30 558 H 59.6325 -0.565748 -4.64669 0
M  V30 559 H 59.8055 -1.03338 -6.39707 0
M  V30 560 N 53.2116 1.57565 -0.0334293 0
M  V30 561 C 54.6276 1.56297 0.322997 0
M  V30 562 C 54.8276 1.03945 1.7262 0
M  V30 563 O 53.8836 0.688109 2.42943 0
M  V30 564 C 55.1966 3.00232 0.167664 0
M  V30 565 C 56.7446 3.12078 0.240107 0
M  V30 566 C 57.2196 4.57859 0.113513 0
M  V30 567 N 58.7106 4.62887 0.170359 0
M  V30 568 C 59.4456 5.73319 0.0962517 0
M  V30 569 N 58.9416 6.92794 -0.0291881 0
M  V30 570 N 60.7346 5.61898 0.150551 0
M  V30 571 H 52.8856 1.89923 -0.950956 0
M  V30 572 H 55.1486 0.873824 -0.367608 0
M  V30 573 H 54.8546 3.42501 -0.799102 0
M  V30 574 H 54.7286 3.654 0.936083 0
M  V30 575 H 57.1156 2.69718 1.19733 0
M  V30 576 H 57.1966 2.49623 -0.558763 0
M  V30 577 H 56.8406 5.009 -0.840314 0
M  V30 578 H 56.7706 5.18299 0.931302 0
M  V30 579 H 59.2616 3.76954 0.26728 0
M  V30 580 H 59.5746 7.7276 -0.0789252 0
M  V30 581 H 57.9196 6.94971 -0.0640299 0
M  V30 582 H 61.1106 4.67448 0.246981 0
M  V30 583 H 61.2836 6.47938 0.0893365 0
M  V30 584 N 54.6897 -0.239769 1.55765 0
M  V30 585 C 55.6527 -1.28038 1.90103 0
M  V30 586 C 56.6527 -1.40723 0.778055 0
M  V30 587 O 57.8427 -1.39301 1.04599 0
M  V30 588 C 54.9747 -2.65702 2.13577 0
M  V30 589 H 56.1677 -0.988048 2.83157 0
M  V30 590 H 53.7207 -0.479382 1.48767 0
M  V30 591 H 54.4557 -3.00063 1.23015 0
M  V30 592 H 54.2407 -2.57875 2.95369 0
M  V30 593 H 55.7307 -3.40828 2.41301 0
M  V30 594 N 56.1678 -1.49265 -0.50573 0
M  V30 595 C 57.4138 -1.59723 -1.25937 0
M  V30 596 C 57.7688 -0.278236 -1.90378 0
M  V30 597 O 57.0618 0.72113 -1.77511 0
M  V30 598 C 57.2558 -2.69008 -2.35308 0
M  V30 599 C 57.0848 -4.11405 -1.81592 0
M  V30 600 C 55.8548 -4.78252 -1.63105 0
M  V30 601 C 58.0528 -4.96792 -1.33048 0
M  V30 602 N 56.0348 -6.0498 -1.04269 0
M  V30 603 C 57.4058 -6.13962 -0.863168 0
M  V30 604 C 59.4608 -4.82828 -1.21577 0
M  V30 605 C 58.1638 -7.18705 -0.292489 0
M  V30 606 C 60.1898 -5.87716 -0.65907 0
M  V30 607 C 59.5518 -7.0411 -0.201954 0
M  V30 608 H 55.6508 -0.638864 -0.450973 0
M  V30 609 H 58.2348 -1.86251 -0.567326 0
M  V30 610 H 56.4058 -2.4426 -3.01979 0
M  V30 611 H 58.1378 -2.69013 -3.02348 0
M  V30 612 H 54.8928 -4.34974 -1.87336 0
M  V30 613 H 55.3168 -6.72631 -0.767919 0
M  V30 614 H 59.9588 -3.93159 -1.55518 0
M  V30 615 H 57.6768 -8.08078 0.0591987 0
M  V30 616 H 61.2628 -5.7897 -0.573156 0
M  V30 617 H 60.1428 -7.83885 0.222101 0
M  V30 618 N 57.6459 0.756429 -1.3826 0
M  V30 619 C 59.0569 1.33359 -1.30661 0
M  V30 620 C 59.4079 1.96161 0.0388875 0
M  V30 621 O 58.5329 1.94874 0.940918 0
M  V30 622 C 59.1279 2.42477 -2.36622 0
M  V30 623 C 57.6869 2.95922 -2.3261 0
M  V30 624 C 56.8339 1.69275 -2.19639 0
M  V30 625 H 59.7849 0.55552 -1.4866 0
M  V30 626 H 59.8059 3.22345 -2.02174 0
M  V30 627 H 59.3179 1.96739 -3.34538 0
M  V30 628 H 57.4189 3.45996 -1.38267 0
M  V30 629 H 57.5319 3.50494 -3.26636 0
M  V30 630 H 55.8959 1.92793 -1.66442 0
M  V30 631 H 56.6789 1.25619 -3.19491 0
M  V30 632 N 59.124 1.23083 0.984299 0
M  V30 633 C 60.535 1.05609 1.5396 0
M  V30 634 C 60.886 -0.377793 1.92528 0
M  V30 635 O 60.011 -1.26398 1.75649 0
M  V30 636 C 60.606 1.91087 2.7977 0
M  V30 637 C 59.165 1.77885 3.31713 0
M  V30 638 C 58.312 1.87028 2.04733 0
M  V30 639 H 61.263 1.36802 0.804419 0
M  V30 640 H 61.284 1.43336 3.5247 0
M  V30 641 H 60.796 2.9544 2.51668 0
M  V30 642 H 58.897 0.762995 3.64704 0
M  V30 643 H 59.01 2.61047 4.01735 0
M  V30 644 H 57.374 1.30565 2.18689 0
M  V30 645 H 58.157 2.92929 1.79017 0
M  V30 646 N 60.6021 -1.18246 1.0419 0
M  V30 647 C 61.8791 -1.84121 0.660208 0
M  V30 648 C 62.2591 -1.92778 -0.860221 0
M  V30 649 O 61.6071 -1.45464 -1.76217 0
M  V30 650 C 61.8171 -3.22355 1.33747 0
M  V30 651 C 63.1651 -3.98376 1.46906 0
M  V30 652 O 64.1891 -3.31799 1.29568 0
M  V30 653 O 63.0481 -5.17665 1.75171 0
M  V30 654 H 60.1421 -0.794036 0.231161 0
M  V30 655 H 62.6881 -1.25628 1.14087 0
M  V30 656 H 61.4601 -3.10964 2.37522 0
M  V30 657 H 61.0831 -3.88506 0.845515 0
M  V30 658 N 62.0802 -0.821533 -1.34494 0
M  V30 659 C 63.0272 -0.240397 -2.29545 0
M  V30 660 C 63.9972 0.634031 -1.53523 0
M  V30 661 O 65.1822 0.575966 -1.81899 0
M  V30 662 C 62.3222 0.592869 -3.39969 0
M  V30 663 C 61.4352 -0.30365 -4.30932 0
M  V30 664 C 60.5702 0.539049 -5.28458 0
M  V30 665 C 59.6092 -0.356942 -6.11058 0
M  V30 666 N 58.7462 0.446603 -7.00678 0
M  V30 667 H 63.5862 -1.05632 -2.7865 0
M  V30 668 H 61.1232 -0.532413 -1.37127 0
M  V30 669 H 63.0812 1.09129 -4.02675 0
M  V30 670 H 61.7112 1.37392 -2.92102 0
M  V30 671 H 60.7632 -0.920276 -3.691 0
M  V30 672 H 62.0752 -0.992661 -4.88823 0
M  V30 673 H 61.2292 1.102 -5.96608 0
M  V30 674 H 59.9682 1.26157 -4.71101 0
M  V30 675 H 58.9732 -0.932047 -5.41842 0
M  V30 676 H 60.1982 -1.07755 -6.70497 0
M  V30 677 H 58.1442 1.15282 -6.45791 0
M  V30 678 H 58.0612 -0.184048 -7.55776 0
M  V30 679 H 59.3292 0.992352 -7.73158 0
M  V30 680 N 63.5583 1.46682 -0.576371 0
M  V30 681 C 64.4683 2.34032 0.163141 0
M  V30 682 C 65.4843 1.49367 0.892501 0
M  V30 683 O 66.6603 1.82252 0.857106 0
M  V30 684 C 63.7253 3.26435 1.16795 0
M  V30 685 C 62.7863 4.26998 0.443944 0
M  V30 686 C 62.0193 5.14986 1.40088 0
M  V30 687 O 62.2423 5.05785 2.637 0
M  V30 688 O 61.1763 5.94906 0.914917 0
M  V30 689 H 65.0023 2.98607 -0.55388 0
M  V30 690 H 62.5873 1.45554 -0.336821 0
M  V30 691 H 64.4693 3.83459 1.74748 0
M  V30 692 H 63.1443 2.64465 1.86655 0
M  V30 693 H 62.0513 3.7368 -0.177271 0
M  V30 694 H 63.3843 4.91736 -0.213566 0
M  V30 695 N 65.0364 0.313813 1.54444 0
M  V30 696 C 65.9684 -0.590425 2.21465 0
M  V30 697 C 66.9814 -1.08753 1.21147 0
M  V30 698 O 68.1704 -1.00278 1.4767 0
M  V30 699 C 65.2704 -1.82179 2.85769 0
M  V30 700 C 64.4434 -1.46502 4.12136 0
M  V30 701 C 63.5024 -2.55288 4.60124 0
M  V30 702 O 62.5284 -2.19842 5.25032 0
M  V30 703 N 63.7304 -3.86053 4.33525 0
M  V30 704 H 66.4954 -0.0166033 2.99695 0
M  V30 705 H 64.0564 0.136578 1.61323 0
M  V30 706 H 66.0484 -2.54328 3.14801 0
M  V30 707 H 64.6184 -2.30369 2.11303 0
M  V30 708 H 63.8384 -0.575595 3.89975 0
M  V30 709 H 65.1264 -1.20221 4.94393 0
M  V30 710 H 64.5244 -4.17654 3.81552 0
M  V30 711 H 63.0814 -4.54461 4.67235 0
M  V30 712 N 66.5145 -1.57545 0.0417849 0
M  V30 713 C 67.4245 -2.14451 -0.951213 0
M  V30 714 C 68.4405 -1.09992 -1.34825 0
M  V30 715 O 69.6165 -1.42114 -1.42708 0
M  V30 716 C 66.6815 -2.67063 -2.21084 0
M  V30 717 C 65.7425 -3.86284 -1.87304 0
M  V30 718 C 64.9755 -4.36378 -3.07261 0
M  V30 719 O 65.1985 -3.85587 -4.20332 0
M  V30 720 O 64.1325 -5.28077 -2.88822 0
M  V30 721 H 67.9585 -2.99601 -0.497287 0
M  V30 722 H 65.5435 -1.48317 -0.179567 0
M  V30 723 H 67.4255 -3.00914 -2.95006 0
M  V30 724 H 66.1005 -1.84989 -2.65633 0
M  V30 725 H 65.0075 -3.57338 -1.10727 0
M  V30 726 H 66.3405 -4.6956 -1.47562 0
M  V30 727 N 67.9926 0.231505 -1.5589 0
M  V30 728 C 68.9396 1.28682 -1.91598 0
M  V30 729 C 69.9096 1.47071 -0.771974 0
M  V30 730 O 71.0946 1.60802 -1.027 0
M  V30 731 C 68.2346 2.6342 -2.22944 0
M  V30 732 C 67.3476 2.52912 -3.50228 0
M  V30 733 C 66.4826 3.80106 -3.7107 0
M  V30 734 C 65.5216 3.64279 -4.91902 0
M  V30 735 N 64.6586 4.834 -5.09184 0
M  V30 736 H 69.4986 0.975305 -2.81588 0
M  V30 737 H 67.0356 0.470299 -1.39379 0
M  V30 738 H 68.9936 3.41869 -2.39126 0
M  V30 739 H 67.6236 2.92687 -1.36139 0
M  V30 740 H 66.6756 1.6595 -3.42294 0
M  V30 741 H 67.9876 2.37133 -4.38827 0
M  V30 742 H 67.1416 4.66999 -3.87295 0
M  V30 743 H 65.8806 3.98799 -2.80733 0
M  V30 744 H 64.8856 2.7577 -4.75637 0
M  V30 745 H 66.1106 3.47067 -5.83714 0
M  V30 746 H 64.0566 5.02425 -4.21788 0
M  V30 747 H 63.9736 4.70311 -5.91898 0
M  V30 748 H 65.2416 5.71747 -5.29835 0
M  V30 749 N 69.4707 1.49531 0.497807 0
M  V30 750 C 70.3807 1.69176 1.62532 0
M  V30 751 C 71.3967 0.5744 1.64246 0
M  V30 752 O 72.5727 0.849497 1.82608 0
M  V30 753 C 69.6377 1.75695 2.98885 0
M  V30 754 C 68.6987 2.9929 3.07773 0
M  V30 755 C 67.9317 3.05488 4.37622 0
M  V30 756 O 68.1547 2.19192 5.26603 0
M  V30 757 O 67.0887 3.9798 4.51548 0
M  V30 758 H 70.9147 2.647 1.48887 0
M  V30 759 H 68.4997 1.3331 0.674441 0
M  V30 760 H 70.3817 1.82317 3.79919 0
M  V30 761 H 69.0567 0.8335 3.12785 0
M  V30 762 H 67.9637 2.98183 2.25915 0
M  V30 763 H 69.2967 3.91125 2.98801 0
M  V30 764 N 70.9488 -0.749086 1.3866 0
M  V30 765 C 71.8958 -1.86291 1.36251 0
M  V30 766 C 72.8658 -1.64578 0.224347 0
M  V30 767 O 74.0508 -1.86181 0.417279 0
M  V30 768 C 71.1908 -3.23644 1.19786 0
M  V30 769 C 70.3038 -3.57158 2.43027 0
M  V30 770 C 69.4388 -4.83838 2.19258 0
M  V30 771 C 68.4778 -5.10152 3.38247 0
M  V30 772 N 67.6148 -6.28029 3.13884 0
M  V30 773 H 72.4548 -1.87685 2.3147 0
M  V30 774 H 69.9918 -0.917287 1.14997 0
M  V30 775 H 71.9498 -4.0291 1.08254 0
M  V30 776 H 70.5798 -3.21566 0.282031 0
M  V30 777 H 69.6318 -2.72701 2.65214 0
M  V30 778 H 70.9438 -3.7253 3.31697 0
M  V30 779 H 70.0978 -5.71057 2.04888 0
M  V30 780 H 68.8368 -4.70614 1.2796 0
M  V30 781 H 67.8418 -4.21401 3.53131 0
M  V30 782 H 69.0668 -5.25271 4.30427 0
M  V30 783 H 67.0128 -6.1612 2.25238 0
M  V30 784 H 66.9298 -6.43922 3.96106 0
M  V30 785 H 68.1978 -7.18124 3.03179 0
M  V30 786 N 72.4269 -1.23603 -0.977757 0
M  V30 787 C 73.3739 -1.01954 -2.07061 0
M  V30 788 C 74.3439 0.0638697 -1.65977 0
M  V30 789 O 75.5289 -0.0887624 -1.90593 0
M  V30 790 C 72.6689 -0.619658 -3.39491 0
M  V30 791 C 71.7819 -1.77547 -3.93829 0
M  V30 792 C 70.9169 -1.32212 -5.14484 0
M  V30 793 C 69.9559 -2.44852 -5.60994 0
M  V30 794 N 69.0929 -2.00456 -6.72876 0
M  V30 795 H 73.9329 -1.95495 -2.24913 0
M  V30 796 H 71.4699 -0.973861 -1.10247 0
M  V30 797 H 73.4279 -0.368898 -4.15566 0
M  V30 798 H 72.0579 0.278752 -3.21594 0
M  V30 799 H 71.1099 -2.14016 -3.14486 0
M  V30 800 H 72.4219 -2.62219 -4.24314 0
M  V30 801 H 71.5759 -1.02965 -5.97899 0
M  V30 802 H 70.3149 -0.445808 -4.85658 0
M  V30 803 H 69.3199 -2.74871 -4.76157 0
M  V30 804 H 70.5449 -3.33024 -5.91837 0
M  V30 805 H 68.4909 -1.15208 -6.45804 0
M  V30 806 H 68.4079 -2.78687 -7.02759 0
M  V30 807 H 69.6759 -1.7432 -7.59758 0
M  V30 808 N 73.905 1.17692 -1.04816 0
M  V30 809 C 75.13 1.92327 -0.776207 0
M  V30 810 C 75.555 1.76082 0.661581 0
M  V30 811 O 74.913 1.076 1.45917 0
M  V30 812 C 74.961 3.41539 -1.15687 0
M  V30 813 O 74.065 4.11402 -0.286775 0
M  V30 814 H 73.406 0.599735 -0.284981 0
M  V30 815 H 75.936 1.49201 -1.4 0
M  V30 816 H 75.946 3.92269 -1.12202 0
M  V30 817 H 74.621 3.52684 -2.20425 0
M  V30 818 H 73.198 3.70939 -0.381903 0
M  V30 819 N 75.3831 0.828654 1.34056 0
M  V30 820 C 76.6291 0.42008 1.98402 0
M  V30 821 C 76.9621 -1.01564 1.65525 0
M  V30 822 O 76.2371 -1.70834 0.929831 0
M  V30 823 C 76.5201 0.62927 3.54559 0
M  V30 824 C 76.3731 2.11152 3.97159 0
M  V30 825 C 77.6921 0.0688756 4.40046 0
M  V30 826 H 74.8111 0.154104 0.720709 0
M  V30 827 H 77.4531 1.04228 1.5886 0
M  V30 828 H 75.6031 0.0996418 3.88372 0
M  V30 829 H 77.2751 2.70522 3.73651 0
M  V30 830 H 75.5181 2.59985 3.47261 0
M  V30 831 H 76.1891 2.20868 5.05887 0
M  V30 832 H 78.6651 0.521458 4.1282 0
M  V30 833 H 77.5411 0.245006 5.48353 0
M  V30 834 H 77.8021 -1.0266 4.30015 0
M  V30 835 N 76.8612 -1.46375 0.584142 0
M  V30 836 C 78.1102 -2.01585 0.0679741 0
M  V30 837 C 78.4232 -1.46109 -1.30045 0
M  V30 838 O 79.6292 -1.93148 -1.90804 0
M  V30 839 C 78.0852 -3.5983 0.0709207 0
M  V30 840 C 77.6932 -4.24303 1.43775 0
M  V30 841 C 79.4372 -4.22693 -0.391228 0
M  V30 842 C 77.3442 -5.74631 1.39834 0
M  V30 843 H 76.2742 -0.753689 0.0216421 0
M  V30 844 H 78.9252 -1.68093 0.736001 0
M  V30 845 H 77.3072 -3.90405 -0.663299 0
M  V30 846 H 78.4812 -4.05335 2.19181 0
M  V30 847 H 76.7962 -3.73539 1.84004 0
M  V30 848 H 79.3932 -5.3289 -0.439524 0
M  V30 849 H 79.7362 -3.91728 -1.40906 0
M  V30 850 H 80.2692 -3.96749 0.288974 0
M  V30 851 H 77.0082 -6.10258 2.39303 0
M  V30 852 H 76.5282 -5.95858 0.686505 0
M  V30 853 H 78.2072 -6.37375 1.11187 0
M  V30 854 N 78.3393 -0.321999 -1.54275 0
M  V30 855 C 79.5793 0.281657 -2.0245 0
M  V30 856 C 79.9433 1.49468 -1.20513 0
M  V30 857 O 81.1443 2.17109 -1.58484 0
M  V30 858 C 79.4153 0.609014 -3.52173 0
M  V30 859 S 80.9743 1.19255 -4.22284 0
M  V30 860 H 77.7923 0.0852825 -0.705867 0
M  V30 861 H 80.3943 -0.454758 -1.90137 0
M  V30 862 H 79.0983 -0.281982 -4.0943 0
M  V30 863 H 78.6293 1.37567 -3.68563 0
M  V30 864 H 80.6443 2.47944 -4.29812 0
M  V30 865 N 79.8174 1.5752 -0.0501392 0
M  V30 866 C 81.0634 1.92936 0.624798 0
M  V30 867 C 81.3964 0.928685 1.70555 0
M  V30 868 O 80.6714 -0.0454779 1.94447 0
M  V30 869 C 80.9544 3.38737 1.22185 0
M  V30 870 C 80.8074 4.49552 0.149218 0
M  V30 871 C 82.1264 3.84913 2.13378 0
M  V30 872 H 79.2454 0.701604 0.225657 0
M  V30 873 H 81.8874 1.89671 -0.111693 0
M  V30 874 H 80.0374 3.4165 1.84953 0
M  V30 875 H 81.7094 4.58768 -0.482648 0
M  V30 876 H 79.9524 4.30638 -0.522841 0
M  V30 877 H 80.6234 5.48653 0.606966 0
M  V30 878 H 83.0994 3.8387 1.60572 0
M  V30 879 H 81.9754 4.87584 2.52097 0
M  V30 880 H 82.2364 3.21611 3.03346 0
M  V30 881 N 81.2955 -0.223234 1.56011 0
M  V30 882 C 82.2055 -1.29766 1.95443 0
M  V30 883 C 83.2215 -1.51373 0.858028 0
M  V30 884 O 84.3975 -1.64536 1.16146 0
M  V30 885 C 81.4625 -2.62772 2.26167 0
M  V30 886 C 80.5235 -2.49482 3.49367 0
M  V30 887 C 79.7565 -3.76145 3.78616 0
M  V30 888 O 79.9795 -4.79087 3.09568 0
M  V30 889 O 78.9135 -3.73358 4.72109 0
M  V30 890 H 82.7395 -0.99309 2.87004 0
M  V30 891 H 80.3245 -0.425958 1.43199 0
M  V30 892 H 82.2065 -3.41327 2.47131 0
M  V30 893 H 80.8815 -2.92913 1.37781 0
M  V30 894 H 79.7885 -1.69133 3.33684 0
M  V30 895 H 81.1215 -2.2428 4.38131 0
M  V30 896 N 82.7736 -1.49793 -0.48987 0
M  V30 897 C 84.0216 -1.59525 -1.24081 0
M  V30 898 C 84.3426 -0.288953 -1.92847 0
M  V30 899 O 83.6126 0.692436 -1.83254 0
M  V30 900 H 82.1926 -0.587796 -0.460983 0
M  V30 901 H 84.8546 -1.86477 -0.566778 0
M  V30 902 H 83.9506 -2.39696 -1.99881 0
M  V30 903 N 84.2517 0.741722 -1.39055 0
M  V30 904 C 85.1997 1.87702 -1.3737 0
M  V30 905 C 86.1937 1.67427 -0.257812 0
M  V30 906 O 87.3997 1.7485 -0.427489 0
M  V30 907 H 83.7747 0.617757 -0.428812 0
M  V30 908 H 85.7457 1.86239 -2.33147 0
M  V30 909 C 84.4947 3.25315 -1.22741 0
M  V30 910 H 83.8177 3.41509 -2.07873 0
M  V30 911 H 85.2577 4.04964 -1.25618 0
M  V30 912 C 83.7167 3.36838 0.0647316 0
M  V30 913 O 84.2467 3.88073 1.03741 0
M  V30 914 N 82.4527 2.90329 0.125544 0
M  V30 915 H 81.9997 2.48823 -0.666682 0
M  V30 916 H 81.9577 2.98418 0.989639 0
M  V30 917 N 85.7298 1.2412 0.971189 0
M  V30 918 C 86.9788 1.07284 1.70801 0
M  V30 919 C 87.2918 -0.388902 1.91695 0
M  V30 920 O 88.4978 -0.677379 2.62914 0
M  V30 921 C 86.9538 1.87145 3.07416 0
M  V30 922 C 86.5618 3.37707 2.94377 0
M  V30 923 C 88.3058 1.78828 3.84995 0
M  V30 924 C 86.2128 4.09925 4.26281 0
M  V30 925 H 85.1428 0.397854 0.64049 0
M  V30 926 H 87.7938 1.4817 1.0825 0
M  V30 927 H 86.1758 1.39071 3.70777 0
M  V30 928 H 87.3498 3.93335 2.4005 0
M  V30 929 H 85.6648 3.46938 2.30267 0
M  V30 930 H 88.2618 2.30089 4.82662 0
M  V30 931 H 88.6048 0.75284 4.09436 0
M  V30 932 H 89.1378 2.24563 3.28354 0
M  V30 933 H 85.8768 5.13813 4.07033 0
M  V30 934 H 85.3968 3.59083 4.80437 0
M  V30 935 H 87.0758 4.1673 4.94919 0
M  V30 936 N 87.2079 -1.17134 1.05439 0
M  V30 937 C 88.1709 -2.19439 0.661764 0
M  V30 938 C 89.1709 -1.58199 -0.288042 0
M  V30 939 O 90.3609 -1.74053 -0.0715803 0
M  V30 940 C 87.4929 -3.40889 -0.0276209 0
M  V30 941 H 88.6859 -2.55688 1.56728 0
M  V30 942 H 86.2389 -1.31259 0.848567 0
M  V30 943 H 86.9739 -3.10187 -0.94629 0
M  V30 944 H 86.7589 -3.86586 0.655238 0
M  V30 945 H 88.2489 -4.16603 -0.288342 0
M  V30 946 N 88.686 -0.835752 -1.33615 0
M  V30 947 C 89.911 -0.442389 -2.02627 0
M  V30 948 C 90.336 0.947735 -1.62479 0
M  V30 949 O 89.694 1.61907 -0.815826 0
M  V30 950 C 89.742 -0.567216 -3.56111 0
M  V30 951 O 88.846 0.407799 -4.10379 0
M  V30 952 H 88.187 -0.180278 -0.639059 0
M  V30 953 H 90.717 -1.12972 -1.70583 0
M  V30 954 H 90.727 -0.447708 -4.05536 0
M  V30 955 H 89.402 -1.58103 -3.84677 0
M  V30 956 H 87.979 0.246107 -3.72087 0
M  V30 957 N 90.1641 1.46063 -0.591896 0
M  V30 958 C 91.4121 2.01938 -0.0808391 0
M  V30 959 C 91.7331 1.46475 1.28725 0
M  V30 960 O 91.0031 0.652944 1.84698 0
M  V30 961 H 89.5831 0.746516 -0.0268938 0
M  V30 962 H 92.2451 1.79055 -0.769752 0
M  V30 963 H 91.3411 3.12094 -0.0187578 0
M  V30 964 N 91.6422 0.330177 1.54103 0
M  V30 965 C 92.5892 -0.532762 2.24567 0
M  V30 966 C 93.5592 -1.10635 1.23892 0
M  V30 967 O 94.7442 -1.14546 1.5259 0
M  V30 968 C 91.8842 -1.6845 3.01195 0
M  V30 969 C 90.9972 -1.13951 4.167 0
M  V30 970 C 90.1322 -2.25746 4.80845 0
M  V30 971 C 89.1712 -1.6853 5.88442 0
M  V30 972 N 88.3082 -2.74014 6.46421 0
M  V30 973 H 93.1482 0.0746905 2.97906 0
M  V30 974 H 90.6852 0.048632 1.4702 0
M  V30 975 H 92.6432 -2.36234 3.43874 0
M  V30 976 H 91.2732 -2.26314 2.30178 0
M  V30 977 H 90.3252 -0.35301 3.78758 0
M  V30 978 H 91.6372 -0.680892 4.94131 0
M  V30 979 H 90.7912 -3.01422 5.26526 0
M  V30 980 H 89.5302 -2.74947 4.0281 0
M  V30 981 H 88.5352 -0.913543 5.42157 0
M  V30 982 H 89.7602 -1.20198 6.68378 0
M  V30 983 H 87.7062 -3.22494 5.71256 0
M  V30 984 H 87.6232 -2.32735 7.19285 0
M  V30 985 H 88.8912 -3.49499 6.96757 0
M  V30 986 N 93.1203 -1.57491 0.0584922 0
M  V30 987 C 94.3483 -1.97296 -0.623037 0
M  V30 988 C 94.7633 -0.936338 -1.63946 0
M  V30 989 O 94.1203 0.0785981 -1.82331 0
M  V30 990 C 94.1713 -3.37183 -1.30345 0
M  V30 991 O 93.8923 -4.36872 -0.32773 0
M  V30 992 C 95.3933 -3.91788 -2.07406 0
M  V30 993 H 92.6133 -0.649153 -0.169826 0
M  V30 994 H 95.1573 -2.04106 0.12696 0
M  V30 995 H 93.3123 -3.31502 -2.00463 0
M  V30 996 H 93.7263 -5.18141 -0.814269 0
M  V30 997 H 95.2003 -4.91926 -2.50425 0
M  V30 998 H 95.6773 -3.27609 -2.92521 0
M  V30 999 H 96.2833 -4.00829 -1.42184 0
M  V30 1000 N 94.5984 0.214957 -1.56127 0
M  V30 1001 C 95.8264 0.955092 -1.83536 0
M  V30 1002 C 96.2414 1.77677 -0.638472 0
M  V30 1003 O 95.5984 1.78219 0.392968 0
M  V30 1004 C 95.6494 1.86734 -3.09536 0
M  V30 1005 O 95.3704 1.07887 -4.24608 0
M  V30 1006 C 96.8714 2.72082 -3.4998 0
M  V30 1007 H 94.0914 0.279611 -0.609966 0
M  V30 1008 H 96.6354 0.228197 -2.03223 0
M  V30 1009 H 94.7904 2.5481 -2.91806 0
M  V30 1010 H 95.2044 1.69872 -4.9623 0
M  V30 1011 H 96.6784 3.31782 -4.41163 0
M  V30 1012 H 97.1554 3.44806 -2.7204 0
M  V30 1013 H 97.7614 2.09409 -3.70173 0
M  V30 1014 N 96.0765 1.50051 0.48192 0
M  V30 1015 C 97.3165 1.62128 1.24474 0
M  V30 1016 C 97.6805 0.309742 1.89485 0
M  V30 1017 O 98.8815 0.305854 2.67054 0
M  V30 1018 C 97.1525 2.76151 2.26882 0
M  V30 1019 S 98.7115 3.08297 3.12247 0
M  V30 1020 H 95.5295 0.571661 0.422759 0
M  V30 1021 H 98.1315 1.87791 0.54359 0
M  V30 1022 H 96.8355 3.69942 1.77683 0
M  V30 1023 H 96.3665 2.52541 3.0164 0
M  V30 1024 H 98.3815 2.51287 4.27866 0
M  V30 1025 N 97.5546 -0.734337 1.39446 0
M  V30 1026 C 98.4846 -1.86155 1.40955 0
M  V30 1027 C 99.4656 -1.67898 0.272827 0
M  V30 1028 O 100.651 -1.88207 0.478743 0
M  V30 1029 C 97.7806 -3.23912 1.25294 0
M  V30 1030 C 96.7346 -3.56808 2.36373 0
M  V30 1031 C 96.0606 -4.93508 2.058 0
M  V30 1032 C 97.3606 -3.59713 3.78687 0
M  V30 1033 H 99.0546 -1.8515 2.35287 0
M  V30 1034 H 96.6006 -0.889367 1.13253 0
M  V30 1035 H 98.5536 -4.02443 1.2497 0
M  V30 1036 H 97.2776 -3.25446 0.274308 0
M  V30 1037 H 95.9366 -2.80606 2.35914 0
M  V30 1038 H 95.5846 -4.91623 1.06374 0
M  V30 1039 H 95.2846 -5.16486 2.80208 0
M  V30 1040 H 96.8086 -5.74396 2.07128 0
M  V30 1041 H 98.2226 -4.2832 3.81071 0
M  V30 1042 H 96.6196 -3.94209 4.52459 0
M  V30 1043 H 97.6896 -2.59504 4.09617 0
M  V30 1044 N 99.0327 -1.24633 -0.964593 0
M  V30 1045 C 99.9427 -1.05859 -2.09359 0
M  V30 1046 C 100.959 0.00148855 -1.74 0
M  V30 1047 O 102.135 -0.197346 -2.00431 0
M  V30 1048 C 99.1997 -0.668879 -3.40187 0
M  V30 1049 C 98.2607 -1.80578 -3.89474 0
M  V30 1050 C 97.4937 -1.43457 -5.14058 0
M  V30 1051 O 97.7167 -0.325775 -5.69469 0
M  V30 1052 O 96.6507 -2.2613 -5.57807 0
M  V30 1053 H 100.477 -2.00516 -2.28094 0
M  V30 1054 H 98.0617 -1.03481 -1.0776 0
M  V30 1055 H 99.9437 -0.463211 -4.18846 0
M  V30 1056 H 98.6187 0.248536 -3.22744 0
M  V30 1057 H 97.5257 -2.06623 -3.11862 0
M  V30 1058 H 98.8587 -2.70208 -4.11398 0
M  V30 1059 N 100.511 1.16574 -1.06058 0
M  V30 1060 C 101.758 1.87047 -0.775873 0
M  V30 1061 C 102.086 1.81562 0.697534 0
M  V30 1062 O 101.341 1.22445 1.52662 0
M  V30 1063 C 101.64 3.36195 -1.21275 0
M  V30 1064 C 101.306 3.6188 -2.68986 0
M  V30 1065 C 99.9678 3.68599 -3.09335 0
M  V30 1066 C 102.32 3.72648 -3.64394 0
M  V30 1067 C 99.6478 3.83584 -4.43937 0
M  V30 1068 C 102 3.89154 -4.98741 0
M  V30 1069 C 100.664 3.94114 -5.3873 0
M  V30 1070 H 99.9338 0.684452 -0.283912 0
M  V30 1071 H 102.581 1.37853 -1.32925 0
M  V30 1072 H 100.886 3.87505 -0.578528 0
M  V30 1073 H 102.583 3.89103 -0.969542 0
M  V30 1074 H 99.1728 3.57281 -2.36744 0
M  V30 1075 H 103.357 3.66769 -3.34356 0
M  V30 1076 H 98.6128 3.85677 -4.74409 0
M  V30 1077 H 102.787 3.96427 -5.72554 0
M  V30 1078 H 100.414 4.05478 -6.43033 0
M  V30 1079 N 101.989 0.842826 1.3317 0
M  V30 1080 C 103.236 0.440447 1.97652 0
M  V30 1081 C 103.564 -1.00123 1.6675 0
M  V30 1082 O 102.819 -1.7155 0.941761 0
M  V30 1083 C 103.118 0.612607 3.52111 0
M  V30 1084 C 102.784 2.02297 4.02972 0
M  V30 1085 C 101.446 2.40874 4.16573 0
M  V30 1086 C 103.798 2.94402 4.30089 0
M  V30 1087 C 101.126 3.70852 4.54627 0
M  V30 1088 C 103.478 4.23865 4.69597 0
M  V30 1089 C 102.142 4.62392 4.81404 0
M  V30 1090 H 101.412 0.161171 0.72326 0
M  V30 1091 H 104.059 1.07061 1.58777 0
M  V30 1092 H 102.364 -0.100849 3.9167 0
M  V30 1093 H 104.061 0.2815 4.00011 0
M  V30 1094 H 100.651 1.71338 3.92863 0
M  V30 1095 H 104.835 2.65835 4.19101 0
M  V30 1096 H 100.091 4.00501 4.61962 0
M  V30 1097 H 104.265 4.95306 4.89536 0
M  V30 1098 H 101.892 5.63154 5.10648 0
M  V30 1099 N 103.467 -1.45747 0.599634 0
M  V30 1100 C 104.692 -2.07178 0.0960198 0
M  V30 1101 C 105.117 -1.44268 -1.207 0
M  V30 1102 O 104.475 -0.532503 -1.73303 0
M  V30 1103 C 104.523 -3.60579 -0.0385348 0
M  V30 1104 O 103.627 -3.97713 -1.0908 0
M  V30 1105 H 102.968 -0.660251 0.0704593 0
M  V30 1106 H 105.498 -1.87124 0.827385 0
M  V30 1107 H 105.508 -4.07298 -0.239304 0
M  V30 1108 H 104.183 -4.05756 0.912947 0
M  V30 1109 H 102.76 -3.62678 -0.867135 0
M  V30 1110 N 104.945 -0.338344 -1.53925 0
M  V30 1111 C 105.893 0.536231 -2.26335 0
M  V30 1112 C 106.887 1.1063 -1.28286 0
M  V30 1113 O 108.093 1.05264 -1.46012 0
M  V30 1114 H 104.468 0.191602 -0.727181 0
M  V30 1115 H 106.439 -0.0965747 -2.98244 0
M  V30 1116 C 105.188 1.67803 -3.04528 0
M  V30 1117 H 104.511 1.24864 -3.79801 0
M  V30 1118 H 105.951 2.26526 -3.58416 0
M  V30 1119 C 104.41 2.60439 -2.13712 0
M  V30 1120 O 104.94 3.6255 -1.72975 0
M  V30 1121 N 103.146 2.29006 -1.78898 0
M  V30 1122 H 102.693 1.46011 -2.12223 0
M  V30 1123 H 102.651 2.91248 -1.18416 0
M  V30 1124 N 106.423 1.57458 -0.0668435 0
M  V30 1125 C 107.386 2.11323 0.887422 0
M  V30 1126 C 108.386 1.03618 1.22964 0
M  V30 1127 O 109.576 1.29626 1.16373 0
M  V30 1128 C 106.708 2.61048 2.19242 0
M  V30 1129 H 107.901 2.96942 0.420194 0
M  V30 1130 H 105.454 1.55239 0.181793 0
M  V30 1131 H 106.189 1.78868 2.70512 0
M  V30 1132 H 105.974 3.39769 1.95702 0
M  V30 1133 H 107.464 3.02814 2.87565 0
M  V30 1134 N 107.901 -0.206675 1.56239 0
M  V30 1135 C 109.129 -0.945345 1.8404 0
M  V30 1136 C 109.544 -1.77336 0.647885 0
M  V30 1137 O 108.901 -1.78425 -0.383511 0
M  V30 1138 C 108.952 -1.8509 3.10522 0
M  V30 1139 O 108.673 -1.05634 4.25174 0
M  V30 1140 C 110.174 -2.70222 3.51418 0
M  V30 1141 H 107.394 -0.276372 0.61144 0
M  V30 1142 H 109.938 -0.217417 2.03341 0
M  V30 1143 H 108.093 -2.53259 2.93153 0
M  V30 1144 H 108.507 -1.67238 4.97124 0
M  V30 1145 H 109.981 -3.29438 4.42916 0
M  V30 1146 H 110.458 -3.43358 2.73864 0
M  V30 1147 H 111.064 -2.07443 3.71278 0
M  V30 1148 N 109.379 -1.50304 -0.473955 0
M  V30 1149 C 110.656 -1.51667 -1.23518 0
M  V30 1150 C 111.036 -0.259701 -2.09496 0
M  V30 1151 O 110.384 0.756986 -2.15597 0
M  V30 1152 C 110.594 -2.81082 -2.06868 0
M  V30 1153 C 111.942 -3.31631 -2.65153 0
M  V30 1154 O 112.966 -2.82384 -2.17113 0
M  V30 1155 O 111.825 -4.17471 -3.52675 0
M  V30 1156 H 108.919 -0.60822 -0.560355 0
M  V30 1157 H 111.465 -1.62592 -0.486011 0
M  V30 1158 H 110.237 -3.64041 -1.4349 0
M  V30 1159 H 109.86 -2.73146 -2.88924 0
M  V30 1160 N 110.857 0.726932 -1.39834 0
M  V30 1161 C 112.103 1.48884 -1.377 0
M  V30 1162 C 112.436 1.94185 0.0244852 0
M  V30 1163 O 111.711 1.67361 0.990986 0
M  V30 1164 C 111.994 2.72288 -2.3565 0
M  V30 1165 C 111.847 2.32956 -3.84775 0
M  V30 1166 C 113.166 3.74414 -2.31306 0
M  V30 1167 H 110.285 0.540062 -0.5015 0
M  V30 1168 H 112.927 0.830547 -1.70886 0
M  V30 1169 H 111.077 3.28457 -2.07481 0
M  V30 1170 H 112.749 1.82356 -4.23726 0
M  V30 1171 H 110.992 1.65088 -4.01159 0
M  V30 1172 H 111.663 3.21362 -4.4881 0
M  V30 1173 H 114.139 3.27849 -2.56231 0
M  V30 1174 H 113.015 4.58414 -3.01907 0
M  V30 1175 H 113.276 4.21909 -1.32081 0
M  V30 1176 N 112.336 1.25143 0.95797 0
M  V30 1177 C 113.246 1.06968 2.08794 0
M  V30 1178 C 114.262 0.00773911 1.73998 0
M  V30 1179 O 115.438 0.207972 2.00323 0
M  V30 1180 C 112.503 0.68691 3.39827 0
M  V30 1181 C 111.564 1.82641 3.88511 0
M  V30 1182 C 110.797 1.46181 5.1329 0
M  V30 1183 O 111.02 0.355971 5.69288 0
M  V30 1184 O 109.954 2.29085 5.566 0
M  V30 1185 H 113.78 2.01723 2.27027 0
M  V30 1186 H 111.365 1.04051 1.07209 0
M  V30 1187 H 113.247 0.485417 4.18595 0
M  V30 1188 H 111.922 -0.231417 3.22872 0
M  V30 1189 H 110.829 2.08274 3.10762 0
M  V30 1190 H 112.162 2.72386 4.09959 0
M  V30 1191 N 113.814 -1.1601 1.06675 0
M  V30 1192 C 115.06 -1.86909 0.786945 0
M  V30 1193 C 115.393 -1.81717 -0.685018 0
M  V30 1194 O 114.668 -1.23551 -1.50218 0
M  V30 1195 C 114.951 -3.36313 1.28707 0
M  V30 1196 C 114.804 -3.50175 2.82308 0
M  V30 1197 C 116.123 -4.3084 0.898071 0
M  V30 1198 H 113.242 -0.678677 0.287343 0
M  V30 1199 H 115.884 -1.36336 1.32334 0
M  V30 1200 H 114.034 -3.79513 0.830768 0
M  V30 1201 H 115.706 -3.15886 3.36175 0
M  V30 1202 H 113.949 -2.91959 3.20847 0
M  V30 1203 H 114.62 -4.55116 3.12368 0
M  V30 1204 H 117.096 -3.95561 1.29114 0
M  V30 1205 H 115.972 -5.33876 1.27543 0
M  V30 1206 H 116.233 -4.41662 -0.196651 0
M  V30 1207 N 115.292 -0.849877 -1.32721 0
M  V30 1208 C 116.222 -0.306308 -2.31482 0
M  V30 1209 C 117.203 0.591952 -1.59468 0
M  V30 1210 O 118.388 0.513199 -1.87296 0
M  V30 1211 C 115.518 0.510204 -3.43532 0
M  V30 1212 C 114.472 -0.293209 -4.26994 0
M  V30 1213 C 113.798 0.647743 -5.30762 0
M  V30 1214 C 115.098 -1.51634 -4.99804 0
M  V30 1215 H 116.792 -1.13153 -2.77195 0
M  V30 1216 H 114.338 -0.545553 -1.33266 0
M  V30 1217 H 116.291 0.900856 -4.11658 0
M  V30 1218 H 115.015 1.36874 -2.96535 0
M  V30 1219 H 113.674 -0.665555 -3.60508 0
M  V30 1220 H 113.322 1.50299 -4.8002 0
M  V30 1221 H 113.022 0.11422 -5.87489 0
M  V30 1222 H 114.546 1.03567 -6.01753 0
M  V30 1223 H 115.96 -1.19824 -5.60638 0
M  V30 1224 H 114.357 -1.98745 -5.66234 0
M  V30 1225 H 115.427 -2.28018 -4.27943 0
M  V30 1226 N 116.77 1.45427 -0.607355 0
M  V30 1227 C 117.998 2.06614 -0.108814 0
M  V30 1228 C 118.413 1.45204 1.2067 0
M  V30 1229 O 117.77 0.566132 1.73497 0
M  V30 1230 C 117.821 3.61481 0.0375347 0
M  V30 1231 O 117.542 4.20598 -1.22593 0
M  V30 1232 C 119.043 4.39652 0.567561 0
M  V30 1233 H 116.263 0.66747 -0.0687351 0
M  V30 1234 H 118.807 1.86675 -0.835022 0
M  V30 1235 H 116.962 3.80762 0.714068 0
M  V30 1236 H 117.376 5.1377 -1.05547 0
M  V30 1237 H 118.85 5.48518 0.61905 0
M  V30 1238 H 119.327 4.09417 1.58978 0
M  V30 1239 H 119.933 4.25234 -0.0749202 0
M  V30 1240 N 118.248 0.346503 1.53744 0
M  V30 1241 C 119.158 -0.517293 2.28826 0
M  V30 1242 C 120.174 -1.10935 1.3405 0
M  V30 1243 O 121.35 -1.1244 1.6709 0
M  V30 1244 C 118.415 -1.65098 3.04866 0
M  V30 1245 C 117.476 -1.0884 4.15274 0
M  V30 1246 C 116.709 -2.16806 4.87679 0
M  V30 1247 O 116.932 -3.3758 4.59778 0
M  V30 1248 O 115.866 -1.80934 5.74061 0
M  V30 1249 H 119.692 0.0931396 3.03557 0
M  V30 1250 H 117.277 0.111458 1.48984 0
M  V30 1251 H 119.159 -2.31053 3.5241 0
M  V30 1252 H 117.834 -2.24717 2.32989 0
M  V30 1253 H 116.741 -0.3933 3.72027 0
M  V30 1254 H 118.074 -0.537036 4.89261 0
M  V30 1255 N 119.726 -1.57421 0.075193 0
M  V30 1256 C 121.137 -1.81021 -0.456964 0
M  V30 1257 C 121.488 -0.98936 -1.69429 0
M  V30 1258 O 120.613 -0.212865 -2.15351 0
M  V30 1259 C 121.208 -3.28329 -0.83581 0
M  V30 1260 C 119.767 -3.52764 -1.31281 0
M  V30 1261 C 118.914 -2.75676 -0.299648 0
M  V30 1262 H 121.865 -1.55822 0.300856 0
M  V30 1263 H 121.886 -3.40564 -1.69696 0
M  V30 1264 H 121.398 -3.88046 0.0649238 0
M  V30 1265 H 119.499 -2.98355 -2.23193 0
M  V30 1266 H 119.612 -4.61451 -1.28839 0
M  V30 1267 H 117.976 -2.42538 -0.777641 0
M  V30 1268 H 118.759 -3.38132 0.593417 0
M  V30 1269 N 121.204 0.198386 -1.56346 0
M  V30 1270 C 122.45 0.920648 -1.80698 0
M  V30 1271 C 122.783 1.83045 -0.648697 0
M  V30 1272 O 122.058 1.91308 0.350925 0
M  V30 1273 C 122.341 1.73971 -3.15287 0
M  V30 1274 C 122.194 0.85485 -4.41602 0
M  V30 1275 C 123.513 2.71296 -3.46535 0
M  V30 1276 H 120.632 0.333261 -0.657348 0
M  V30 1277 H 123.274 0.188198 -1.89066 0
M  V30 1278 H 121.424 2.36416 -3.08285 0
M  V30 1279 H 123.096 0.245362 -4.60647 0
M  V30 1280 H 121.339 0.161398 -4.335 0
M  V30 1281 H 122.01 1.46286 -5.32264 0
M  V30 1282 H 124.486 2.18983 -3.53816 0
M  V30 1283 H 123.362 3.2569 -4.41834 0
M  V30 1284 H 123.623 3.5018 -2.69864 0
M  V30 1285 N 122.682 1.50554 0.465978 0
M  V30 1286 C 123.907 1.65838 1.24549 0
M  V30 1287 C 124.332 0.343486 1.84937 0
M  V30 1288 O 123.69 -0.69324 1.67523 0
M  V30 1289 C 123.738 2.75533 2.32624 0
M  V30 1290 O 122.842 2.37142 3.37398 0
M  V30 1291 H 122.183 0.553893 0.366194 0
M  V30 1292 H 124.713 1.96959 0.553927 0
M  V30 1293 H 124.723 2.98763 2.77857 0
M  V30 1294 H 123.398 3.70962 1.88043 0
M  V30 1295 H 121.975 2.24377 2.97841 0
M  V30 1296 N 124.16 -0.719506 1.40217 0
M  V30 1297 C 125.107 -1.83359 1.40172 0
M  V30 1298 C 126.077 -1.64065 0.259206 0
M  V30 1299 O 127.262 -1.85254 0.456677 0
M  V30 1300 C 124.402 -3.2103 1.26624 0
M  V30 1301 C 123.515 -3.51923 2.50548 0
M  V30 1302 C 122.65 -4.79079 2.29471 0
M  V30 1303 C 121.689 -5.02863 3.48992 0
M  V30 1304 N 120.826 -6.2123 3.27135 0
M  V30 1305 H 125.666 -1.82733 2.35399 0
M  V30 1306 H 123.203 -0.892688 1.16917 0
M  V30 1307 H 125.161 -4.00524 1.16776 0
M  V30 1308 H 123.791 -3.20895 0.350176 0
M  V30 1309 H 122.843 -2.67014 2.70939 0
M  V30 1310 H 124.155 -3.6541 3.39525 0
M  V30 1311 H 123.309 -5.66582 2.16955 0
M  V30 1312 H 122.048 -4.67794 1.37913 0
M  V30 1313 H 121.053 -4.13816 3.6199 0
M  V30 1314 H 122.278 -5.16023 4.41472 0
M  V30 1315 H 120.224 -6.11204 2.38256 0
M  V30 1316 H 120.141 -6.35375 4.09675 0
M  V30 1317 H 121.409 -7.11532 3.18344 0
M  V30 1318 N 125.638 -1.25649 -0.95132 0
M  V30 1319 C 126.884 -1.11766 -1.69941 0
M  V30 1320 C 127.239 0.33735 -1.89419 0
M  V30 1321 O 126.532 1.24491 -1.45645 0
M  V30 1322 C 126.726 -1.80909 -3.08231 0
M  V30 1323 C 126.555 -3.32984 -3.02245 0
M  V30 1324 C 125.325 -4.02247 -3.05819 0
M  V30 1325 C 127.523 -4.29332 -2.83157 0
M  V30 1326 N 125.505 -5.41072 -2.90024 0
M  V30 1327 C 126.876 -5.55265 -2.75828 0
M  V30 1328 C 128.931 -4.19707 -2.67863 0
M  V30 1329 C 127.634 -6.72671 -2.54767 0
M  V30 1330 C 129.66 -5.36809 -2.48173 0
M  V30 1331 C 129.022 -6.61683 -2.41567 0
M  V30 1332 H 125.121 -0.463708 -0.629682 0
M  V30 1333 H 127.705 -1.58796 -1.12659 0
M  V30 1334 H 125.876 -1.36369 -3.63673 0
M  V30 1335 H 127.608 -1.59739 -3.71841 0
M  V30 1336 H 124.363 -3.53531 -3.15139 0
M  V30 1337 H 124.787 -6.13938 -2.85323 0
M  V30 1338 H 129.429 -3.23907 -2.71743 0
M  V30 1339 H 127.147 -7.68577 -2.49629 0
M  V30 1340 H 130.733 -5.31224 -2.37259 0
M  V30 1341 H 129.613 -7.50768 -2.26531 0
M  V30 1342 N 127.117 1.15442 -1.07289 0
M  V30 1343 C 128.533 1.38201 -0.798288 0
M  V30 1344 C 128.733 1.92429 0.597769 0
M  V30 1345 O 127.789 2.12962 1.3566 0
M  V30 1346 C 129.102 2.35357 -1.87156 0
M  V30 1347 C 130.65 2.49021 -1.89624 0
M  V30 1348 C 131.125 3.49468 -2.96034 0
M  V30 1349 N 132.616 3.57003 -2.95132 0
M  V30 1350 C 133.351 4.34543 -3.74112 0
M  V30 1351 N 132.847 5.15421 -4.6294 0
M  V30 1352 N 134.64 4.29625 -3.62462 0
M  V30 1353 H 126.791 0.78584 -1.97328 0
M  V30 1354 H 129.054 0.408065 -0.855679 0
M  V30 1355 H 128.76 2.02626 -2.87464 0
M  V30 1356 H 128.634 3.35129 -1.73114 0
M  V30 1357 H 131.021 2.81051 -0.899687 0
M  V30 1358 H 131.102 1.4925 -2.07745 0
M  V30 1359 H 130.746 3.18173 -3.95889 0
M  V30 1360 H 130.676 4.48992 -2.75161 0
M  V30 1361 H 133.167 2.99276 -2.30743 0
M  V30 1362 H 133.48 5.7183 -5.19837 0
M  V30 1363 H 131.825 5.14729 -4.66989 0
M  V30 1364 H 135.016 3.65505 -2.92444 0
M  V30 1365 H 135.189 4.89807 -4.24256 0
M  V30 1366 N 128.595 0.856903 1.32268 0
M  V30 1367 C 129.543 0.291987 2.3076 0
M  V30 1368 C 130.537 -0.585857 1.58947 0
M  V30 1369 O 131.743 -0.47341 1.73663 0
M  V30 1370 H 128.118 0.075721 0.748178 0
M  V30 1371 H 130.089 1.13687 2.75895 0
M  V30 1372 C 128.838 -0.502869 3.44044 0
M  V30 1373 H 128.161 0.163328 3.99466 0
M  V30 1374 H 129.601 -0.863691 4.1511 0
M  V30 1375 C 128.06 -1.68898 2.91505 0
M  V30 1376 O 128.59 -2.78811 2.89184 0
M  V30 1377 N 126.796 -1.51679 2.47875 0
M  V30 1378 H 126.343 -0.622666 2.49961 0
M  V30 1379 H 126.301 -2.31184 2.13076 0
M  V30 1380 N 130.073 -1.45103 0.615059 0
M  V30 1381 C 131.319 -2.02483 0.113347 0
M  V30 1382 C 131.652 -1.48146 -1.25564 0
M  V30 1383 O 130.927 -0.659104 -1.82992 0
M  V30 1384 C 131.21 -3.60005 0.0825278 0
M  V30 1385 C 131.063 -4.2466 1.48271 0
M  V30 1386 C 132.382 -4.35972 -0.601401 0
M  V30 1387 H 129.501 -0.735764 0.0426632 0
M  V30 1388 H 132.143 -1.72868 0.788461 0
M  V30 1389 H 130.293 -3.85367 -0.492378 0
M  V30 1390 H 131.965 -4.10458 2.10527 0
M  V30 1391 H 130.208 -3.82772 2.04127 0
M  V30 1392 H 130.879 -5.336 1.41332 0
M  V30 1393 H 133.355 -4.15947 -0.112666 0
M  V30 1394 H 132.231 -5.45697 -0.592097 0
M  V30 1395 H 132.492 -4.09391 -1.66887 0
M  V30 1396 N 131.551 -0.354651 -1.53558 0
M  V30 1397 C 132.967 -0.00315426 -1.596 0
M  V30 1398 C 133.167 1.47741 -1.37021 0
M  V30 1399 O 132.223 2.23759 -1.16996 0
M  V30 1400 C 133.536 -0.44929 -2.97325 0
M  V30 1401 C 135.084 -0.402578 -3.104 0
M  V30 1402 C 135.559 -0.824355 -4.5052 0
M  V30 1403 N 137.05 -0.778979 -4.56603 0
M  V30 1404 C 137.785 -1.07715 -5.63192 0
M  V30 1405 N 137.281 -1.44405 -6.77583 0
M  V30 1406 N 139.074 -1.00066 -5.53121 0
M  V30 1407 H 131.225 -1.31893 -1.66487 0
M  V30 1408 H 133.488 -0.538388 -0.780284 0
M  V30 1409 H 133.194 -1.48202 -3.1895 0
M  V30 1410 H 133.068 0.169772 -3.76818 0
M  V30 1411 H 135.455 0.621004 -2.88492 0
M  V30 1412 H 135.536 -1.05699 -2.32941 0
M  V30 1413 H 135.18 -1.846 -4.73165 0
M  V30 1414 H 135.11 -0.147304 -5.26394 0
M  V30 1415 H 137.601 -0.508528 -3.74463 0
M  V30 1416 H 137.914 -1.65612 -7.54846 0
M  V30 1417 H 136.259 -1.4826 -6.79002 0
M  V30 1418 H 139.45 -0.713293 -4.62633 0
M  V30 1419 H 139.623 -1.23638 -6.36096 0
M  V30 1420 N 133.029 1.57378 -0.0835403 0
M  V30 1421 C 134.277 1.93547 0.581718 0
M  V30 1422 C 134.598 0.96524 1.69435 0
M  V30 1423 O 133.868 0.0153369 1.95894 0
M  V30 1424 H 132.448 0.714521 0.217874 0
M  V30 1425 H 135.11 1.94366 -0.144158 0
M  V30 1426 H 134.206 2.95665 0.999423 0
M  V30 1427 N 134.507 -0.190092 1.56449 0
M  V30 1428 C 135.457 -1.23977 1.91347 0
M  V30 1429 C 136.441 -1.40747 0.779693 0
M  V30 1430 O 137.633 -1.43033 1.04262 0
M  V30 1431 C 134.762 -2.58347 2.26079 0
M  V30 1432 C 133.848 -2.4535 3.45925 0
M  V30 1433 N 134.239 -2.02039 4.63696 0
M  V30 1434 C 132.537 -2.76229 3.50162 0
M  V30 1435 C 133.238 -2.01053 5.4585 0
M  V30 1436 N 132.214 -2.42747 4.8639 0
M  V30 1437 H 136.016 -0.896318 2.79899 0
M  V30 1438 H 133.53 -0.398496 1.57435 0
M  V30 1439 H 135.527 -3.34173 2.49267 0
M  V30 1440 H 134.187 -2.93512 1.38856 0
M  V30 1441 H 135.198 -1.7267 4.88268 0
M  V30 1442 H 131.875 -3.15556 2.73369 0
M  V30 1443 H 133.265 -1.69426 6.50188 0
M  V30 1444 N 135.985 -1.50799 -0.457987 0
M  V30 1445 C 136.933 -1.71162 -1.575 0
M  V30 1446 C 137.927 -0.577592 -1.59249 0
M  V30 1447 O 139.133 -0.758443 -1.63241 0
M  V30 1448 H 135.508 -0.540468 -0.522875 0
M  V30 1449 H 137.479 -2.64837 -1.37492 0
M  V30 1450 C 136.228 -1.83496 -2.95338 0
M  V30 1451 H 135.551 -2.70153 -2.94716 0
M  V30 1452 H 136.991 -2.01765 -3.72917 0
M  V30 1453 C 135.45 -0.589694 -3.31699 0
M  V30 1454 O 135.98 0.265163 -4.00824 0
M  V30 1455 N 134.186 -0.439845 -2.87252 0
M  V30 1456 H 133.733 -1.13655 -2.31172 0
M  V30 1457 H 133.691 0.392159 -3.11945 0
M  V30 1458 N 137.463 0.71206 -1.40597 0
M  V30 1459 C 138.874 1.29135 -1.34837 0
M  V30 1460 C 139.225 1.96186 -0.0235395 0
M  V30 1461 O 138.35 1.97768 0.878444 0
M  V30 1462 C 138.945 2.34827 -2.44217 0
M  V30 1463 C 137.504 2.88371 -2.41907 0
M  V30 1464 C 136.651 1.62202 -2.24913 0
M  V30 1465 H 139.602 0.507944 -1.50352 0
M  V30 1466 H 139.623 3.15749 -2.12327 0
M  V30 1467 H 139.135 1.85996 -3.40627 0
M  V30 1468 H 137.236 3.41422 -1.49204 0
M  V30 1469 H 137.349 3.39925 -3.37621 0
M  V30 1470 H 135.713 1.874 -1.72492 0
M  V30 1471 H 136.496 1.15391 -3.23326 0
M  V30 1472 N 138.941 1.26152 0.944643 0
M  V30 1473 C 139.871 1.09902 2.06019 0
M  V30 1474 C 140.852 0.00519538 1.70099 0
M  V30 1475 O 142.037 0.176583 1.93396 0
M  V30 1476 C 139.167 0.727562 3.39594 0
M  V30 1477 C 138.121 1.77274 3.89561 0
M  V30 1478 C 137.447 1.25569 5.19747 0
M  V30 1479 C 138.747 3.17357 4.14827 0
M  V30 1480 H 140.441 2.03217 2.19871 0
M  V30 1481 H 137.987 0.978452 1.05652 0
M  V30 1482 H 139.94 0.600777 4.17095 0
M  V30 1483 H 138.664 -0.241287 3.25707 0
M  V30 1484 H 137.323 1.88814 3.14237 0
M  V30 1485 H 136.971 0.276783 5.02238 0
M  V30 1486 H 136.671 1.95433 5.54148 0
M  V30 1487 H 138.195 1.1415 5.99835 0
M  V30 1488 H 139.609 3.08914 4.82954 0
M  V30 1489 H 138.006 3.84781 4.60504 0
M  V30 1490 H 139.076 3.63673 3.20734 0
M  V30 1491 N 140.419 -1.14872 1.07899 0
M  V30 1492 C 141.667 -1.85422 0.803941 0
M  V30 1493 C 141.988 -1.83051 -0.67211 0
M  V30 1494 O 141.258 -1.27532 -1.48703 0
M  V30 1495 H 139.838 -0.686537 0.294408 0
M  V30 1496 H 142.5 -1.39226 1.3639 0
M  V30 1497 H 141.596 -2.90399 1.14346 0
M  V30 1498 N 141.898 -0.863906 -1.31812 0
M  V30 1499 C 142.828 -0.330843 -2.31144 0
M  V30 1500 C 143.809 0.575005 -1.60087 0
M  V30 1501 O 144.994 0.493304 -1.8783 0
M  V30 1502 C 142.124 0.47374 -3.44054 0
M  V30 1503 C 141.078 -0.338481 -4.26659 0
M  V30 1504 C 140.404 0.591412 -5.31419 0
M  V30 1505 C 141.704 -1.56926 -4.98168 0
M  V30 1506 H 143.398 -1.16086 -2.75979 0
M  V30 1507 H 140.944 -0.559657 -1.32679 0
M  V30 1508 H 142.897 0.857143 -4.12591 0
M  V30 1509 H 141.621 1.33721 -2.9797 0
M  V30 1510 H 140.28 -0.703754 -3.59782 0
M  V30 1511 H 139.928 1.45199 -4.81587 0
M  V30 1512 H 139.628 0.0519022 -5.87577 0
M  V30 1513 H 141.152 0.97179 -6.02817 0
M  V30 1514 H 142.566 -1.25764 -5.59336 0
M  V30 1515 H 140.963 -2.04739 -5.64094 0
M  V30 1516 H 142.033 -2.32544 -4.25501 0
M  V30 1517 N 143.376 1.44774 -0.622745 0
M  V30 1518 C 144.309 2.27792 0.136329 0
M  V30 1519 C 145.287 1.38041 0.859264 0
M  V30 1520 O 146.471 1.67478 0.86506 0
M  V30 1521 C 143.598 3.16776 1.19878 0
M  V30 1522 C 142.644 4.22575 0.57731 0
M  V30 1523 S 143.477 5.31825 -0.626294 0
M  V30 1524 C 144.633 6.24377 0.436378 0
M  V30 1525 H 144.866 2.91824 -0.567967 0
M  V30 1526 H 142.399 1.48838 -0.410677 0
M  V30 1527 H 144.357 3.68596 1.80686 0
M  V30 1528 H 143.018 2.5198 1.87523 0
M  V30 1529 H 142.211 4.84818 1.37721 0
M  V30 1530 H 141.813 3.73974 0.0440439 0
M  V30 1531 H 144.105 6.64689 1.31128 0
M  V30 1532 H 145.048 7.07941 -0.150271 0
M  V30 1533 H 145.456 5.59381 0.758513 0
M  V30 1534 N 144.854 0.36279 1.53368 0
M  V30 1535 C 146.084 -0.228281 2.05335 0
M  V30 1536 C 146.492 -1.43226 1.23625 0
M  V30 1537 O 145.835 -1.81717 0.269206 0
M  V30 1538 C 145.897 -0.688549 3.52845 0
M  V30 1539 C 145.561 0.398362 4.5526 0
M  V30 1540 C 146.558 1.24732 5.04716 0
M  V30 1541 C 144.243 0.557805 4.99193 0
M  V30 1542 C 146.237 2.2411 5.96702 0
M  V30 1543 C 143.924 1.55495 5.90986 0
M  V30 1544 C 144.922 2.39503 6.39631 0
M  V30 1545 O 144.61 3.37517 7.29615 0
M  V30 1546 H 144.342 -0.044395 0.674541 0
M  V30 1547 H 146.896 0.518668 1.98744 0
M  V30 1548 H 145.126 -1.48706 3.56964 0
M  V30 1549 H 146.815 -1.20231 3.87685 0
M  V30 1550 H 147.581 1.13532 4.71525 0
M  V30 1551 H 143.46 -0.0862959 4.60919 0
M  V30 1552 H 147.004 2.89718 6.34594 0
M  V30 1553 H 142.901 1.66744 6.23592 0
M  V30 1554 H 143.669 3.33213 7.47604 0
M  V30 1555 N 146.332 -1.57332 0.0918853 0
M  V30 1556 C 147.282 -2.10385 -0.87876 0
M  V30 1557 C 148.266 -1.01814 -1.24591 0
M  V30 1558 O 149.458 -1.28093 -1.22152 0
M  V30 1559 C 146.587 -2.68517 -2.13901 0
M  V30 1560 C 145.673 -3.84126 -1.79744 0
M  V30 1561 N 146.064 -4.92288 -1.1613 0
M  V30 1562 C 144.362 -3.93801 -2.09373 0
M  V30 1563 C 145.063 -5.7295 -1.00513 0
M  V30 1564 N 144.039 -5.21876 -1.5214 0
M  V30 1565 H 147.841 -2.91395 -0.38293 0
M  V30 1566 H 145.355 -1.62017 -0.111423 0
M  V30 1567 H 147.352 -3.04852 -2.84378 0
M  V30 1568 H 146.012 -1.88961 -2.64053 0
M  V30 1569 H 147.023 -5.1123 -0.828504 0
M  V30 1570 H 143.7 -3.25249 -2.61762 0
M  V30 1571 H 145.09 -6.69978 -0.507902 0
M  V30 1572 N 147.81 0.181792 -1.56548 0
M  V30 1573 C 149.087 0.926765 -1.72251 0
M  V30 1574 C 149.467 2.00831 -0.650386 0
M  V30 1575 O 148.815 2.26008 0.336521 0
M  V30 1576 C 149.025 1.50106 -3.1507 0
M  V30 1577 C 150.373 1.97805 -3.75711 0
M  V30 1578 O 151.397 1.59922 -3.18282 0
M  V30 1579 O 150.256 2.67555 -4.76525 0
M  V30 1580 H 147.35 0.435506 -0.703039 0
M  V30 1581 H 149.896 0.170443 -1.68842 0
M  V30 1582 H 148.668 0.72212 -3.84579 0
M  V30 1583 H 148.291 2.32186 -3.22763 0
M  V30 1584 N 149.288 1.51039 0.449983 0
M  V30 1585 C 150.251 1.70863 1.5277 0
M  V30 1586 C 151.251 0.578846 1.5002 0
M  V30 1587 O 152.441 0.846213 1.52266 0
M  V30 1588 C 149.573 1.75341 2.9235 0
M  V30 1589 H 150.766 2.67034 1.36502 0
M  V30 1590 H 148.319 1.40838 0.677812 0
M  V30 1591 H 149.054 0.809383 3.14037 0
M  V30 1592 H 148.839 2.57436 2.95752 0
M  V30 1593 H 150.329 1.92559 3.70555 0
M  V30 1594 N 150.766 -0.704594 1.40972 0
M  V30 1595 C 151.991 -1.49858 1.43378 0
M  V30 1596 C 152.416 -1.88061 0.038184 0
M  V30 1597 O 151.774 -1.5402 -0.956425 0
M  V30 1598 C 151.822 -2.74333 2.34038 0
M  V30 1599 O 150.926 -3.7147 1.7912 0
M  V30 1600 H 150.267 -0.45139 0.486974 0
M  V30 1601 H 152.797 -0.866832 1.8533 0
M  V30 1602 H 152.807 -3.22741 2.49604 0
M  V30 1603 H 151.482 -2.45863 3.35446 0
M  V30 1604 H 150.059 -3.30363 1.72958 0
M  V30 1605 N 152.244 -1.26651 -0.937939 0
M  V30 1606 C 153.66 -1.03834 -1.21205 0
M  V30 1607 C 153.86 0.234502 -2.00131 0
M  V30 1608 O 152.916 0.942767 -2.3424 0
M  V30 1609 C 154.229 -2.27167 -1.97017 0
M  V30 1610 C 155.777 -2.32101 -2.09996 0
M  V30 1611 C 156.252 -3.55136 -2.8921 0
M  V30 1612 N 157.743 -3.55632 -2.96783 0
M  V30 1613 C 158.478 -4.475 -3.58512 0
M  V30 1614 N 157.974 -5.4966 -4.21717 0
M  V30 1615 N 159.767 -4.35145 -3.55816 0
M  V30 1616 H 151.918 -2.08398 -0.410391 0
M  V30 1617 H 154.181 -0.916031 -0.244114 0
M  V30 1618 H 153.887 -3.19765 -1.46434 0
M  V30 1619 H 153.761 -2.31672 -2.97671 0
M  V30 1620 H 156.148 -1.40015 -2.59769 0
M  V30 1621 H 156.229 -2.31605 -1.08594 0
M  V30 1622 H 155.873 -4.47553 -2.40123 0
M  V30 1623 H 155.803 -3.5288 -3.90875 0
M  V30 1624 H 158.294 -2.81743 -2.51852 0
M  V30 1625 H 158.607 -6.15943 -4.66727 0
M  V30 1626 H 156.952 -5.53514 -4.20294 0
M  V30 1627 H 160.143 -3.5455 -3.05634 0
M  V30 1628 H 160.316 -5.06934 -4.03636 0
M  V30 1629 N 153.722 1.14298 -1.08507 0
M  V30 1630 C 154.968 1.85854 -0.826438 0
M  V30 1631 C 155.323 1.81413 0.640878 0
M  V30 1632 O 154.616 1.23463 1.46518 0
M  V30 1633 C 154.81 3.33547 -1.28379 0
M  V30 1634 C 154.639 3.52369 -2.79403 0
M  V30 1635 C 153.409 3.67159 -3.47164 0
M  V30 1636 C 155.607 3.49203 -3.77573 0
M  V30 1637 N 153.589 3.74149 -4.86709 0
M  V30 1638 C 154.96 3.6245 -5.03021 0
M  V30 1639 C 157.015 3.32547 -3.70563 0
M  V30 1640 C 155.718 3.60761 -6.2229 0
M  V30 1641 C 157.744 3.32162 -4.89308 0
M  V30 1642 C 157.106 3.45949 -6.13595 0
M  V30 1643 H 153.205 0.696705 -0.355143 0
M  V30 1644 H 155.789 1.36981 -1.38362 0
M  V30 1645 H 153.96 3.81008 -0.754166 0
M  V30 1646 H 155.692 3.92867 -0.971469 0
M  V30 1647 H 152.447 3.68433 -2.9758 0
M  V30 1648 H 152.871 3.81359 -5.5937 0
M  V30 1649 H 157.513 3.20797 -2.75407 0
M  V30 1650 H 155.231 3.71286 -7.17755 0
M  V30 1651 H 158.817 3.20485 -4.85573 0
M  V30 1652 H 157.697 3.456 -7.03939 0
M  V30 1653 N 155.201 0.870884 1.31352 0
M  V30 1654 C 156.449 0.48132 1.96285 0
M  V30 1655 C 156.77 -0.969813 1.69173 0
M  V30 1656 O 156.04 -1.67998 1.00764 0
M  V30 1657 H 154.62 0.175002 0.726212 0
M  V30 1658 H 157.282 1.11087 1.60143 0
M  V30 1659 H 156.378 0.639825 3.05471 0
M  V30 1660 N 156.679 -1.44442 0.630414 0
M  V30 1661 C 157.609 -2.33418 -0.0618083 0
M  V30 1662 C 158.59 -1.48165 -0.835541 0
M  V30 1663 O 159.775 -1.76886 -0.801564 0
M  V30 1664 C 156.905 -3.31222 -1.04449 0
M  V30 1665 C 155.859 -4.26288 -0.382436 0
M  V30 1666 C 155.185 -5.13954 -1.47497 0
M  V30 1667 C 156.485 -5.1744 0.710865 0
M  V30 1668 H 158.179 -2.91548 0.681184 0
M  V30 1669 H 155.725 -1.40191 0.329026 0
M  V30 1670 H 157.678 -3.92351 -1.53748 0
M  V30 1671 H 156.402 -2.71299 -1.81836 0
M  V30 1672 H 155.061 -3.6649 0.0899054 0
M  V30 1673 H 154.709 -4.50385 -2.2397 0
M  V30 1674 H 154.409 -5.7837 -1.03737 0
M  V30 1675 H 155.933 -5.77955 -1.96979 0
M  V30 1676 H 157.347 -5.72509 0.300996 0
M  V30 1677 H 155.744 -5.90455 1.07156 0
M  V30 1678 H 156.814 -4.58496 1.57829 0
M  V30 1679 N 158.157 -0.370918 -1.53173 0
M  V30 1680 C 159.385 0.217704 -2.05751 0
M  V30 1681 C 159.8 1.42018 -1.24404 0
M  V30 1682 O 159.157 1.80245 -0.286033 0
M  V30 1683 C 159.208 0.605954 -3.56385 0
M  V30 1684 O 158.929 -0.548734 -4.3465 0
M  V30 1685 C 160.43 1.2524 -4.25241 0
M  V30 1686 H 157.65 0.0371659 -0.66997 0
M  V30 1687 H 160.194 -0.530832 -1.9749 0
M  V30 1688 H 158.349 1.3044 -3.6478 0
M  V30 1689 H 158.763 -0.23376 -5.23979 0
M  V30 1690 H 160.237 1.47458 -5.3194 0
M  V30 1691 H 160.714 2.2143 -3.79296 0
M  V30 1692 H 161.32 0.595233 -4.21114 0
M  V30 1693 N 159.635 1.57281 -0.100228 0
M  V30 1694 C 160.565 2.17328 0.853857 0
M  V30 1695 C 161.546 1.10804 1.2906 0
M  V30 1696 O 162.731 1.38963 1.35657 0
M  V30 1697 C 159.861 2.75772 2.11109 0
M  V30 1698 C 158.815 3.87713 1.81279 0
M  V30 1699 C 158.141 4.32882 3.13874 0
M  V30 1700 C 159.441 5.10677 1.09574 0
M  V30 1701 H 161.135 2.97305 0.353545 0
M  V30 1702 H 158.681 1.43009 0.168612 0
M  V30 1703 H 160.634 3.16433 2.78296 0
M  V30 1704 H 159.358 1.93057 2.63432 0
M  V30 1705 H 158.017 3.476 1.16489 0
M  V30 1706 H 157.665 3.47051 3.64095 0
M  V30 1707 H 157.365 5.08358 2.94696 0
M  V30 1708 H 158.889 4.7618 3.82211 0
M  V30 1709 H 160.303 5.48474 1.66879 0
M  V30 1710 H 158.7 5.91615 1.00557 0
M  V30 1711 H 159.77 4.84835 0.0793299 0
M  V30 1712 N 161.113 -0.173488 1.56642 0
M  V30 1713 C 162.045 -1.23935 1.92802 0
M  V30 1714 C 163.058 -1.40589 0.820889 0
M  V30 1715 O 164.247 -1.40631 1.09933 0
M  V30 1716 C 161.347 -2.60837 2.16373 0
M  V30 1717 C 160.52 -2.6551 3.47596 0
M  V30 1718 C 159.579 -3.8376 3.60021 0
M  V30 1719 O 158.605 -3.69859 4.32658 0
M  V30 1720 N 159.807 -5.00127 2.94709 0
M  V30 1721 H 162.572 -0.932236 2.84832 0
M  V30 1722 H 160.133 -0.363268 1.57772 0
M  V30 1723 H 162.125 -3.38407 2.21952 0
M  V30 1724 H 160.695 -2.83948 1.30738 0
M  V30 1725 H 159.915 -1.74052 3.53694 0
M  V30 1726 H 161.203 -2.65641 4.33949 0
M  V30 1727 H 160.601 -5.14322 2.35563 0
M  V30 1728 H 159.158 -5.75567 3.05886 0
M  V30 1729 N 162.591 -1.51276 -0.441967 0
M  V30 1730 C 163.819 -1.67516 -1.21434 0
M  V30 1731 C 164.234 -0.37055 -1.85128 0
M  V30 1732 O 163.591 0.650498 -1.70513 0
M  V30 1733 C 163.642 -2.78748 -2.30177 0
M  V30 1734 O 163.363 -4.04154 -1.69089 0
M  V30 1735 C 164.864 -3.06217 -3.20541 0
M  V30 1736 H 162.084 -0.562276 -0.366178 0
M  V30 1737 H 164.628 -1.97666 -0.524244 0
M  V30 1738 H 162.783 -2.5121 -2.94911 0
M  V30 1739 H 163.197 -4.65894 -2.40922 0
M  V30 1740 H 164.671 -3.8764 -3.92987 0
M  V30 1741 H 165.148 -2.18439 -3.81026 0
M  V30 1742 H 165.754 -3.35397 -2.61513 0
M  V30 1743 N 164.069 0.697108 -1.41344 0
M  V30 1744 C 165.299 1.48377 -1.43763 0
M  V30 1745 C 165.707 1.89156 -0.0408726 0
M  V30 1746 O 165.05 1.57239 0.949812 0
M  V30 1747 C 165.112 2.7781 -2.2817 0
M  V30 1748 C 164.776 2.59244 -3.76353 0
M  V30 1749 C 165.773 2.25292 -4.68551 0
M  V30 1750 C 163.458 2.74933 -4.20378 0
M  V30 1751 C 165.452 2.07264 -6.02761 0
M  V30 1752 C 163.139 2.56521 -5.54653 0
M  V30 1753 C 164.137 2.22737 -6.4566 0
M  V30 1754 O 163.825 2.04485 -7.77458 0
M  V30 1755 H 163.557 0.463842 -0.491759 0
M  V30 1756 H 166.111 0.865934 -1.86255 0
M  V30 1757 H 164.341 3.41995 -1.8049 0
M  V30 1758 H 166.03 3.39608 -2.22309 0
M  V30 1759 H 166.796 2.12787 -4.35829 0
M  V30 1760 H 162.675 3.00213 -3.49848 0
M  V30 1761 H 166.219 1.80817 -6.73759 0
M  V30 1762 H 162.116 2.68616 -5.86955 0
M  V30 1763 H 162.884 2.1926 -7.88586 0
M  V30 1764 N 165.547 1.27147 0.931209 0
M  V30 1765 C 166.793 1.13446 1.68101 0
M  V30 1766 C 167.126 -0.319628 1.91552 0
M  V30 1767 O 166.401 -1.23407 1.50336 0
M  V30 1768 C 166.684 1.91482 3.0497 0
M  V30 1769 C 166.537 3.44855 2.88782 0
M  V30 1770 C 167.856 1.71651 4.05246 0
M  V30 1771 H 164.975 0.413498 0.610072 0
M  V30 1772 H 167.617 1.56261 1.08086 0
M  V30 1773 H 165.767 1.55095 3.56199 0
M  V30 1774 H 167.439 3.9105 2.44698 0
M  V30 1775 H 165.682 3.71373 2.24198 0
M  V30 1776 H 166.353 3.94694 3.85902 0
M  V30 1777 H 168.829 2.0337 3.63015 0
M  V30 1778 H 167.705 2.28651 4.99009 0
M  V30 1779 H 167.966 0.663555 4.37092 0
M  V30 1780 N 167.025 -1.13721 1.09112 0
M  V30 1781 C 167.957 -2.1871 0.685467 0
M  V30 1782 C 168.97 -1.60527 -0.271068 0
M  V30 1783 O 170.159 -1.78407 -0.0576148 0
M  V30 1784 C 167.259 -3.38898 -0.0111255 0
M  V30 1785 C 166.432 -4.26597 0.966131 0
M  V30 1786 C 165.491 -5.25324 0.303539 0
M  V30 1787 O 164.517 -5.61213 0.950177 0
M  V30 1788 N 165.719 -5.72779 -0.943651 0
M  V30 1789 H 168.484 -2.54126 1.58871 0
M  V30 1790 H 166.045 -1.29012 0.978143 0
M  V30 1791 H 168.037 -4.02014 -0.465517 0
M  V30 1792 H 166.607 -3.01747 -0.816565 0
M  V30 1793 H 165.827 -3.60306 1.59917 0
M  V30 1794 H 167.115 -4.82048 1.6281 0
M  V30 1795 H 166.513 -5.45762 -1.48862 0
M  V30 1796 H 165.07 -6.37847 -1.34142 0
M  V30 1797 N 168.503 -0.877838 -1.30888 0
M  V30 1798 C 169.433 -0.35534 -2.3078 0
M  V30 1799 C 170.414 0.557994 -1.60687 0
M  V30 1800 O 171.599 0.473355 -1.88343 0
M  V30 1801 C 168.729 0.437221 -3.44537 0
M  V30 1802 C 167.683 -0.383715 -4.26276 0
M  V30 1803 C 167.009 0.535014 -5.32017 0
M  V30 1804 C 168.309 -1.62201 -4.96476 0
M  V30 1805 H 170.003 -1.19007 -2.74732 0
M  V30 1806 H 167.549 -0.573698 -1.32078 0
M  V30 1807 H 169.502 0.813334 -4.13477 0
M  V30 1808 H 168.226 1.30553 -2.99372 0
M  V30 1809 H 166.885 -0.741874 -3.59015 0
M  V30 1810 H 166.533 1.40083 -4.831 0
M  V30 1811 H 166.233 -0.0104211 -5.87599 0
M  V30 1812 H 167.757 0.907799 -6.03814 0
M  V30 1813 H 169.171 -1.31689 -5.5797 0
M  V30 1814 H 167.568 -2.10711 -5.61891 0
M  V30 1815 H 168.638 -2.37044 -4.23011 0
M  V30 1816 N 169.982 1.44106 -0.638065 0
M  V30 1817 C 171.21 2.06336 -0.152615 0
M  V30 1818 C 171.625 1.47731 1.17563 0
M  V30 1819 O 170.982 0.602806 1.72257 0
M  V30 1820 C 171.033 3.61479 -0.0391491 0
M  V30 1821 O 170.754 4.17903 -1.31487 0
M  V30 1822 C 172.255 4.40757 0.474176 0
M  V30 1823 H 169.475 0.665862 -0.0828776 0
M  V30 1824 H 172.019 1.84862 -0.87443 0
M  V30 1825 H 170.174 3.82191 0.633142 0
M  V30 1826 H 170.588 5.11416 -1.16421 0
M  V30 1827 H 172.062 5.49707 0.502562 0
M  V30 1828 H 172.539 4.12697 1.50258 0
M  V30 1829 H 173.145 4.24979 -0.165102 0
M  V30 1830 N 171.46 0.379036 1.52974 0
M  V30 1831 C 172.393 -0.504932 2.22544 0
M  V30 1832 C 173.371 -1.0723 1.22231 0
M  V30 1833 O 174.555 -1.12589 1.51182 0
M  V30 1834 C 171.682 -1.69794 2.93066 0
M  V30 1835 C 170.728 -1.25678 4.07563 0
M  V30 1836 S 171.561 -0.246852 5.34931 0
M  V30 1837 C 172.717 -1.44588 6.08971 0
M  V30 1838 H 172.95 0.0858666 2.97176 0
M  V30 1839 H 170.483 0.163183 1.53535 0
M  V30 1840 H 172.441 -2.38219 3.34308 0
M  V30 1841 H 171.102 -2.26002 2.18133 0
M  V30 1842 H 170.295 -2.14725 4.5597 0
M  V30 1843 H 169.897 -0.651584 3.6828 0
M  V30 1844 H 172.189 -2.37469 6.34519 0
M  V30 1845 H 173.132 -1.00292 7.00962 0
M  V30 1846 H 173.54 -1.65804 5.39601 0
M  V30 1847 N 172.938 -1.57226 0.108567 0
M  V30 1848 C 173.868 -2.17778 -0.84232 0
M  V30 1849 C 174.849 -1.11487 -1.2847 0
M  V30 1850 O 176.034 -1.39681 -1.34918 0
M  V30 1851 C 173.164 -2.76888 -2.09644 0
M  V30 1852 C 172.118 -3.88669 -1.79221 0
M  V30 1853 C 171.444 -4.34541 -3.11574 0
M  V30 1854 C 172.744 -5.11251 -1.06864 0
M  V30 1855 H 174.438 -2.97489 -0.337774 0
M  V30 1856 H 171.984 -1.43097 -0.161025 0
M  V30 1857 H 173.937 -3.17904 -2.76614 0
M  V30 1858 H 172.661 -1.94451 -2.62405 0
M  V30 1859 H 171.32 -3.48213 -1.14644 0
M  V30 1860 H 170.968 -3.48977 -3.62249 0
M  V30 1861 H 170.668 -5.09914 -2.91996 0
M  V30 1862 H 172.192 -4.782 -3.7968 0
M  V30 1863 H 173.606 -5.49352 -1.63968 0
M  V30 1864 H 172.003 -5.9214 -0.974178 0
M  V30 1865 H 173.073 -4.8487 -0.0536168 0
M  V30 1866 N 174.416 0.165178 -1.56732 0
M  V30 1867 C 175.693 0.908443 -1.73224 0
M  V30 1868 C 176.073 2.0013 -0.67165 0
M  V30 1869 O 175.421 2.26353 0.31253 0
M  V30 1870 C 175.631 1.46756 -3.16644 0
M  V30 1871 C 176.979 1.93809 -3.77787 0
M  V30 1872 O 178.003 1.56537 -3.1996 0
M  V30 1873 O 176.862 2.62486 -4.79336 0
M  V30 1874 H 173.956 0.428025 -0.707618 0
M  V30 1875 H 176.502 0.152526 -1.69013 0
M  V30 1876 H 175.274 0.68129 -3.85323 0
M  V30 1877 H 174.897 2.28749 -3.25207 0
M  V30 1878 N 175.894 1.51508 0.433938 0
M  V30 1879 C 177.31 1.39759 0.770682 0
M  V30 1880 C 177.51 0.482594 1.95636 0
M  V30 1881 O 176.566 -0.0609691 2.52426 0
M  V30 1882 C 177.879 2.81851 1.04787 0
M  V30 1883 C 179.427 2.91025 1.1521 0
M  V30 1884 C 179.902 4.34032 1.46219 0
M  V30 1885 N 181.393 4.37154 1.53136 0
M  V30 1886 C 182.128 5.4484 1.78709 0
M  V30 1887 N 181.624 6.62682 2.02051 0
M  V30 1888 N 183.417 5.32324 1.80519 0
M  V30 1889 H 175.568 2.09548 -0.346892 0
M  V30 1890 H 177.831 0.943446 -0.0928074 0
M  V30 1891 H 177.537 3.50815 0.249304 0
M  V30 1892 H 177.411 3.21386 1.97461 0
M  V30 1893 H 179.798 2.22257 1.94128 0
M  V30 1894 H 179.879 2.54983 0.204281 0
M  V30 1895 H 179.523 5.03351 0.678274 0
M  V30 1896 H 179.453 4.6759 2.42212 0
M  V30 1897 H 181.944 3.52197 1.36987 0
M  V30 1898 H 182.257 7.40543 2.20943 0
M  V30 1899 H 180.602 6.65791 1.99366 0
M  V30 1900 H 183.793 4.39246 1.61805 0
M  V30 1901 H 183.966 6.16328 2.00111 0
M  V30 1902 N 177.372 -0.689602 1.41712 0
M  V30 1903 C 178.322 -1.79571 1.40493 0
M  V30 1904 C 179.306 -1.58473 0.278409 0
M  V30 1905 O 180.498 -1.69204 0.519532 0
M  V30 1906 C 177.627 -3.17923 1.29536 0
M  V30 1907 C 176.713 -3.44695 2.47075 0
M  V30 1908 N 177.104 -3.42132 3.72531 0
M  V30 1909 C 175.402 -3.75269 2.41017 0
M  V30 1910 C 176.103 -3.67976 4.50521 0
M  V30 1911 N 175.079 -3.88014 3.80718 0
M  V30 1912 H 178.881 -1.75961 2.35404 0
M  V30 1913 H 176.395 -0.889839 1.35851 0
M  V30 1914 H 178.392 -3.97167 1.26745 0
M  V30 1915 H 177.052 -3.22741 0.356153 0
M  V30 1916 H 178.063 -3.22375 4.05333 0
M  V30 1917 H 174.74 -3.87421 1.55599 0
M  V30 1918 H 176.13 -3.7208 5.59469 0
M  V30 1919 N 178.85 -1.27639 -0.924453 0
M  V30 1920 C 180.078 -1.16989 -1.70649 0
M  V30 1921 C 180.493 0.272869 -1.86818 0
M  V30 1922 O 179.85 1.18549 -1.38753 0
M  V30 1923 C 179.901 -1.85229 -3.10439 0
M  V30 1924 O 179.622 -3.23868 -2.95028 0
M  V30 1925 C 181.123 -1.80746 -4.04779 0
M  V30 1926 H 178.343 -0.406595 -0.53378 0
M  V30 1927 H 180.887 -1.68569 -1.15778 0
M  V30 1928 H 179.042 -1.37545 -3.6216 0
M  V30 1929 H 179.456 -3.57889 -3.83426 0
M  V30 1930 H 180.93 -2.33101 -5.00368 0
M  V30 1931 H 181.407 -0.777499 -4.32263 0
M  V30 1932 H 182.013 -2.28059 -3.58984 0
M  V30 1933 N 180.328 1.1314 -1.09713 0
M  V30 1934 C 181.744 1.36477 -0.827423 0
M  V30 1935 C 181.944 1.93654 0.556817 0
M  V30 1936 O 181 2.15791 1.31112 0
M  V30 1937 C 182.313 2.31334 -1.92106 0
M  V30 1938 C 183.861 2.44943 -1.94864 0
M  V30 1939 C 184.336 3.4311 -3.0338 0
M  V30 1940 N 185.827 3.50662 -3.02639 0
M  V30 1941 C 186.562 4.2651 -3.83246 0
M  V30 1942 N 186.058 5.05485 -4.73768 0
M  V30 1943 N 187.851 4.2184 -3.71493 0
M  V30 1944 H 180.002 0.743807 -1.9895 0
M  V30 1945 H 182.265 0.389823 -0.864143 0
M  V30 1946 H 181.971 1.96483 -2.91698 0
M  V30 1947 H 181.845 3.31381 -1.80184 0
M  V30 1948 H 184.232 2.79079 -0.959099 0
M  V30 1949 H 184.313 1.4481 -2.10864 0
M  V30 1950 H 183.957 3.09704 -4.02549 0
M  V30 1951 H 183.887 4.43055 -2.84622 0
M  V30 1952 H 186.378 2.94315 -2.37039 0
M  V30 1953 H 186.691 5.60675 -5.3185 0
M  V30 1954 H 185.036 5.04708 -4.77802 0
M  V30 1955 H 188.227 3.5922 -3.00131 0
M  V30 1956 H 188.4 4.80697 -4.3455 0
M  V30 1957 N 181.806 0.884767 1.30421 0
M  V30 1958 C 183.217 0.553656 1.78302 0
M  V30 1959 C 183.568 -0.930153 1.7275 0
M  V30 1960 O 182.693 -1.72681 1.30423 0
M  V30 1961 C 183.288 0.998234 3.2376 0
M  V30 1962 C 181.847 0.71854 3.69478 0
M  V30 1963 C 180.994 1.18132 2.50879 0
M  V30 1964 H 183.945 1.06901 1.17294 0
M  V30 1965 H 183.966 0.327118 3.79091 0
M  V30 1966 H 183.478 2.0782 3.27769 0
M  V30 1967 H 181.579 -0.349444 3.70958 0
M  V30 1968 H 181.692 1.30595 4.60958 0
M  V30 1969 H 180.056 0.600669 2.47516 0
M  V30 1970 H 180.839 2.26902 2.57624 0
M  V30 1971 N 183.284 -1.43765 0.645699 0
M  V30 1972 C 184.216 -2.29027 -0.0890605 0
M  V30 1973 C 185.229 -1.42093 -0.794563 0
M  V30 1974 O 186.418 -1.66104 -0.653575 0
M  V30 1975 C 183.518 -3.18831 -1.14891 0
M  V30 1976 C 182.691 -4.34261 -0.523043 0
M  V30 1977 C 181.75 -5.04994 -1.47878 0
M  V30 1978 O 180.776 -5.6052 -0.990277 0
M  V30 1979 N 181.978 -5.07795 -2.81291 0
M  V30 1980 H 184.743 -2.92727 0.64272 0
M  V30 1981 H 182.304 -1.54373 0.487924 0
M  V30 1982 H 184.296 -3.63015 -1.78892 0
M  V30 1983 H 182.866 -2.56782 -1.78275 0
M  V30 1984 H 182.086 -3.93088 0.295896 0
M  V30 1985 H 183.374 -5.08728 -0.0858147 0
M  V30 1986 H 182.772 -4.64042 -3.23546 0
M  V30 1987 H 181.329 -5.55721 -3.40614 0
M  V30 1988 N 184.763 -0.387143 -1.52771 0
M  V30 1989 C 186.009 0.196025 -2.0185 0
M  V30 1990 C 186.342 1.46641 -1.27319 0
M  V30 1991 O 185.617 1.90889 -0.373032 0
M  V30 1992 C 185.9 0.466136 -3.5707 0
M  V30 1993 C 185.753 -0.819385 -4.42274 0
M  V30 1994 C 187.072 1.25768 -4.21747 0
M  V30 1995 H 184.191 0.0697708 -0.73369 0
M  V30 1996 H 186.833 -0.516286 -1.82851 0
M  V30 1997 H 184.983 1.07293 -3.7339 0
M  V30 1998 H 186.655 -1.4563 -4.37709 0
M  V30 1999 H 184.898 -1.43517 -4.09372 0
M  V30 2000 H 185.569 -0.585065 -5.48891 0
M  V30 2001 H 188.045 0.744167 -4.09391 0
M  V30 2002 H 186.921 1.41541 -5.30337 0
M  V30 2003 H 187.182 2.27228 -3.79236 0
M  V30 2004 N 186.241 1.57166 -0.116904 0
M  V30 2005 C 187.466 1.999 0.55271 0
M  V30 2006 C 187.891 0.996039 1.59564 0
M  V30 2007 O 187.249 -0.032556 1.81271 0
M  V30 2008 C 187.297 3.4152 1.15742 0
M  V30 2009 O 186.401 3.44106 2.27299 0
M  V30 2010 H 185.742 0.649447 0.138258 0
M  V30 2011 H 188.272 2.03573 -0.204759 0
M  V30 2012 H 188.282 3.79684 1.49346 0
M  V30 2013 H 186.957 4.14034 0.393493 0
M  V30 2014 H 185.534 3.17759 1.9515 0
M  V30 2015 N 187.719 -0.156864 1.56817 0
M  V30 2016 C 188.944 -0.890331 1.87318 0
M  V30 2017 C 189.369 -1.74394 0.704855 0
M  V30 2018 O 188.727 -1.77972 -0.345786 0
M  V30 2019 C 188.775 -1.73102 3.16336 0
M  V30 2020 O 187.879 -2.83422 2.99576 0
M  V30 2021 H 187.22 -0.24857 0.615718 0
M  V30 2022 H 189.75 -0.150649 2.04045 0
M  V30 2023 H 189.76 -2.12803 3.48107 0
M  V30 2024 H 188.435 -1.10412 4.00976 0
M  V30 2025 H 187.012 -2.47199 2.7919 0
M  V30 2026 N 189.197 -1.51736 -0.425897 0
M  V30 2027 C 190.443 -1.65214 -1.1761 0
M  V30 2028 C 190.776 -0.372778 -1.90589 0
M  V30 2029 O 190.051 0.628139 -1.84078 0
M  V30 2030 C 190.334 -2.86312 -2.18398 0
M  V30 2031 C 190.187 -4.24254 -1.49426 0
M  V30 2032 C 191.506 -3.02925 -3.19256 0
M  V30 2033 H 188.625 -0.601263 -0.426206 0
M  V30 2034 H 191.267 -1.8425 -0.463882 0
M  V30 2035 H 189.417 -2.70213 -2.79137 0
M  V30 2036 H 191.089 -4.52046 -0.919362 0
M  V30 2037 H 189.332 -4.26426 -0.796432 0
M  V30 2038 H 190.003 -5.05001 -2.22885 0
M  V30 2039 H 192.479 -3.1781 -2.68581 0
M  V30 2040 H 191.355 -3.89199 -3.8706 0
M  V30 2041 H 191.616 -2.15497 -3.86023 0
M  V30 2042 N 190.675 0.682077 -1.42076 0
M  V30 2043 C 192.091 0.994324 -1.24841 0
M  V30 2044 C 192.291 2.0096 -0.147389 0
M  V30 2045 O 191.347 2.47822 0.483782 0
M  V30 2046 C 192.66 1.50607 -2.60265 0
M  V30 2047 C 194.208 1.62421 -2.6756 0
M  V30 2048 C 194.683 2.16994 -4.03333 0
M  V30 2049 N 196.174 2.24337 -4.0525 0
M  V30 2050 C 196.909 2.67621 -5.07116 0
M  V30 2051 N 196.405 3.1041 -6.19368 0
M  V30 2052 N 198.198 2.67305 -4.94474 0
M  V30 2053 H 190.349 0.00973908 -2.12398 0
M  V30 2054 H 192.612 0.0668593 -0.945639 0
M  V30 2055 H 192.318 0.834583 -3.41654 0
M  V30 2056 H 192.192 2.48602 -2.83684 0
M  V30 2057 H 194.579 2.28678 -1.86521 0
M  V30 2058 H 194.66 0.629352 -2.47937 0
M  V30 2059 H 194.304 1.51349 -4.84826 0
M  V30 2060 H 194.234 3.17258 -4.20304 0
M  V30 2061 H 196.725 1.94158 -3.24209 0
M  V30 2062 H 197.038 3.42103 -6.92954 0
M  V30 2063 H 195.383 3.08286 -6.22884 0
M  V30 2064 H 198.574 2.33233 -4.05857 0
M  V30 2065 H 198.747 3.00718 -5.73997 0
M  V30 2066 N 192.153 1.28127 0.917671 0
M  V30 2067 C 193.083 1.14248 2.03641 0
M  V30 2068 C 194.064 0.0412748 1.7005 0
M  V30 2069 O 195.249 0.217566 1.92977 0
M  V30 2070 C 192.379 0.799431 3.37974 0
M  V30 2071 C 191.333 1.85497 3.85713 0
M  V30 2072 C 190.659 1.36565 5.16966 0
M  V30 2073 C 191.959 3.26085 4.08002 0
M  V30 2074 H 193.653 2.07835 2.15511 0
M  V30 2075 H 191.199 1.00064 1.03553 0
M  V30 2076 H 193.152 0.689114 4.15727 0
M  V30 2077 H 191.876 -0.172145 3.26146 0
M  V30 2078 H 190.535 1.95437 3.10161 0
M  V30 2079 H 190.183 0.383253 5.01538 0
M  V30 2080 H 189.883 2.07143 5.49878 0
M  V30 2081 H 191.407 1.26848 5.97279 0
M  V30 2082 H 192.821 3.19089 4.76293 0
M  V30 2083 H 191.218 3.94462 4.52238 0
M  V30 2084 H 192.288 3.70394 3.12948 0
M  V30 2085 N 193.631 -1.12557 1.10312 0
M  V30 2086 C 194.564 -2.1737 0.694674 0
M  V30 2087 C 195.542 -1.59745 -0.303373 0
M  V30 2088 O 196.726 -1.87408 -0.202578 0
M  V30 2089 C 193.853 -3.38691 0.0248052 0
M  V30 2090 C 192.899 -4.14943 0.986121 0
M  V30 2091 S 193.732 -4.73413 2.50281 0
M  V30 2092 C 194.888 -5.9807 1.84562 0
M  V30 2093 H 195.121 -2.5168 1.58255 0
M  V30 2094 H 192.654 -1.23998 0.919992 0
M  V30 2095 H 194.612 -4.08959 -0.355361 0
M  V30 2096 H 193.273 -3.02664 -0.839851 0
M  V30 2097 H 192.466 -5.01854 0.464651 0
M  V30 2098 H 192.068 -3.50377 1.30813 0
M  V30 2099 H 194.36 -6.67232 1.17507 0
M  V30 2100 H 195.303 -6.54841 2.69423 0
M  V30 2101 H 195.711 -5.49073 1.31069 0
M  V30 2102 N 195.109 -0.891671 -1.2995 0
M  V30 2103 C 196.019 -0.367691 -2.31701 0
M  V30 2104 C 197.035 0.533486 -1.6562 0
M  V30 2105 O 198.211 0.424997 -1.96865 0
M  V30 2106 C 195.276 0.403406 -3.44345 0
M  V30 2107 C 194.337 -0.528328 -4.26037 0
M  V30 2108 C 193.57 0.206063 -5.33302 0
M  V30 2109 O 193.793 1.43119 -5.52153 0
M  V30 2110 O 192.727 -0.447281 -6.00236 0
M  V30 2111 H 196.553 -1.21163 -2.78484 0
M  V30 2112 H 194.138 -0.655725 -1.34241 0
M  V30 2113 H 196.02 0.839753 -4.12948 0
M  V30 2114 H 194.695 1.22354 -2.99685 0
M  V30 2115 H 193.602 -1.01362 -3.60106 0
M  V30 2116 H 194.935 -1.31465 -4.74318 0
M  V30 2117 N 196.587 1.43421 -0.653314 0
M  V30 2118 C 198.003 1.56341 -0.320886 0
M  V30 2119 C 198.203 1.63696 1.17499 0
M  V30 2120 O 197.259 1.59208 1.95982 0
M  V30 2121 C 198.572 2.82424 -1.03233 0
M  V30 2122 C 200.12 2.96168 -1.01259 0
M  V30 2123 C 200.595 4.25084 -1.70492 0
M  V30 2124 N 202.086 4.31948 -1.67257 0
M  V30 2125 C 202.821 5.30466 -2.17701 0
M  V30 2126 N 202.317 6.35261 -2.76434 0
M  V30 2127 N 204.11 5.2212 -2.082 0
M  V30 2128 H 196.261 1.3689 -1.62403 0
M  V30 2129 H 198.524 0.657455 -0.682977 0
M  V30 2130 H 198.23 2.83053 -2.08744 0
M  V30 2131 H 198.104 3.72653 -0.583948 0
M  V30 2132 H 200.491 2.9508 0.0341235 0
M  V30 2133 H 200.572 2.07229 -1.49966 0
M  V30 2134 H 200.216 4.26932 -2.7512 0
M  V30 2135 H 200.146 5.1292 -1.19251 0
M  V30 2136 H 202.637 3.56838 -1.24398 0
M  V30 2137 H 202.95 7.06754 -3.12601 0
M  V30 2138 H 201.295 6.35884 -2.80495 0
M  V30 2139 H 204.486 4.39166 -1.62021 0
M  V30 2140 H 204.659 5.98739 -2.47822 0
M  V30 2141 N 198.065 0.39524 1.52563 0
M  V30 2142 C 199.29 -0.187456 2.06551 0
M  V30 2143 C 199.715 -1.39249 1.26457 0
M  V30 2144 O 199.073 -1.78947 0.291151 0
M  V30 2145 C 199.121 -0.529985 3.56684 0
M  V30 2146 O 198.225 -1.62307 3.79118 0
M  V30 2147 H 197.566 -0.0202537 0.663691 0
M  V30 2148 H 200.096 0.564426 1.96661 0
M  V30 2149 H 200.106 -0.792598 4.00227 0
M  V30 2150 H 198.781 0.350987 4.14416 0
M  V30 2151 H 197.358 -1.3537 3.47461 0
M  V30 2152 N 199.544 -1.57102 0.125237 0
M  V30 2153 C 200.793 -1.94582 -0.531095 0
M  V30 2154 C 201.106 -1.01126 -1.6743 0
M  V30 2155 O 202.312 -1.28097 -2.39381 0
M  V30 2156 C 200.768 -3.45839 -0.996164 0
M  V30 2157 C 200.376 -4.47842 0.118926 0
M  V30 2158 C 202.12 -3.92227 -1.62352 0
M  V30 2159 C 200.027 -5.90284 -0.363192 0
M  V30 2160 H 198.957 -0.726391 -0.20217 0
M  V30 2161 H 201.608 -1.82339 0.206092 0
M  V30 2162 H 199.99 -3.53338 -1.78796 0
M  V30 2163 H 201.164 -4.52018 0.895358 0
M  V30 2164 H 199.479 -4.11243 0.653324 0
M  V30 2165 H 202.076 -4.96069 -1.99548 0
M  V30 2166 H 202.419 -3.32552 -2.50429 0
M  V30 2167 H 202.952 -3.87554 -0.897019 0
M  V30 2168 H 199.691 -6.53728 0.481679 0
M  V30 2169 H 199.211 -5.89515 -1.10597 0
M  V30 2170 H 200.89 -6.41752 -0.822377 0
M  V30 2171 N 201.022 0.148545 -1.56898 0
M  V30 2172 C 201.972 1.1886 -1.94567 0
M  V30 2173 C 202.956 1.3863 -0.816735 0
M  V30 2174 O 204.148 1.40218 -1.08018 0
M  V30 2175 C 201.277 2.52262 -2.32849 0
M  V30 2176 C 200.363 2.36092 -3.52309 0
M  V30 2177 N 200.754 1.89674 -4.6889 0
M  V30 2178 C 199.052 2.66848 -3.57363 0
M  V30 2179 C 199.753 1.86511 -5.50989 0
M  V30 2180 N 198.729 2.29766 -4.92655 0
M  V30 2181 H 202.531 0.821793 -2.82177 0
M  V30 2182 H 200.045 0.356615 -1.58436 0
M  V30 2183 H 202.042 3.27447 -2.58039 0
M  V30 2184 H 200.702 2.89727 -1.46589 0
M  V30 2185 H 201.713 1.59663 -4.92674 0
M  V30 2186 H 198.39 3.08198 -2.81639 0
M  V30 2187 H 199.78 1.52128 -6.54452 0
M  V30 2188 N 202.5 1.5196 0.417844 0
M  V30 2189 C 203.725 1.69717 1.1921 0
M  V30 2190 C 204.15 0.402148 1.83751 0
M  V30 2191 O 203.508 -0.639593 1.69643 0
M  V30 2192 C 203.556 2.82794 2.2374 0
M  V30 2193 O 202.66 2.47756 3.29683 0
M  V30 2194 H 202.001 0.565263 0.348387 0
M  V30 2195 H 204.531 1.98621 0.490985 0
M  V30 2196 H 204.541 3.07452 2.68212 0
M  V30 2197 H 203.216 3.76756 1.76146 0
M  V30 2198 H 201.793 2.33739 2.90552 0
M  V30 2199 N 203.978 -0.674533 1.42435 0
M  V30 2200 C 204.941 -1.76986 1.45632 0
M  V30 2201 C 205.941 -1.5708 0.343871 0
M  V30 2202 O 207.131 -1.63367 0.604709 0
M  V30 2203 C 204.263 -3.15623 1.28822 0
M  V30 2204 H 205.456 -1.75539 2.43158 0
M  V30 2205 H 203.009 -0.884189 1.28887 0
M  V30 2206 H 203.744 -3.22696 0.322193 0
M  V30 2207 H 203.529 -3.31475 2.09444 0
M  V30 2208 H 205.019 -3.95537 1.33942 0
M  V30 2209 N 205.456 -1.28612 -0.910864 0
M  V30 2210 C 206.872 -1.06381 -1.18976 0
M  V30 2211 C 207.072 0.191998 -2.00583 0
M  V30 2212 O 206.128 0.892869 -2.36187 0
M  V30 2213 C 207.441 -2.31295 -1.92154 0
M  V30 2214 C 208.989 -2.36503 -2.05025 0
M  V30 2215 C 209.464 -3.61191 -2.81612 0
M  V30 2216 N 210.955 -3.61847 -2.89172 0
M  V30 2217 C 211.69 -4.55004 -3.4894 0
M  V30 2218 N 211.186 -5.58482 -4.09963 0
M  V30 2219 N 212.979 -4.42594 -3.46506 0
M  V30 2220 H 205.13 -2.09221 -0.366094 0
M  V30 2221 H 207.393 -0.921003 -0.224629 0
M  V30 2222 H 207.099 -3.228 -1.39618 0
M  V30 2223 H 206.973 -2.37934 -2.9269 0
M  V30 2224 H 209.36 -1.45494 -2.5674 0
M  V30 2225 H 209.441 -2.33857 -1.03657 0
M  V30 2226 H 209.085 -4.52545 -2.30576 0
M  V30 2227 H 209.015 -3.61092 -3.83302 0
M  V30 2228 H 211.506 -2.87022 -2.45819 0
M  V30 2229 H 211.819 -6.25704 -4.53557 0
M  V30 2230 H 210.164 -5.62305 -4.08459 0
M  V30 2231 H 213.355 -3.60953 -2.98045 0
M  V30 2232 H 213.528 -5.15381 -3.92793 0
M  V30 2233 N 206.934 1.1197 -1.10907 0
M  V30 2234 C 208.164 1.8713 -0.875553 0
M  V30 2235 C 208.572 1.8016 0.577843 0
M  V30 2236 O 207.915 1.17699 1.41042 0
M  V30 2237 C 207.977 3.37005 -1.2517 0
M  V30 2238 C 207.641 3.67748 -2.71313 0
M  V30 2239 C 208.638 3.65698 -3.69542 0
M  V30 2240 C 206.323 3.96928 -3.07821 0
M  V30 2241 C 208.317 3.92395 -5.023 0
M  V30 2242 C 206.004 4.23284 -4.40765 0
M  V30 2243 C 207.002 4.21005 -5.37814 0
M  V30 2244 O 206.69 4.46704 -6.68364 0
M  V30 2245 H 206.422 0.598786 -0.313737 0
M  V30 2246 H 208.976 1.42568 -1.47863 0
M  V30 2247 H 207.206 3.82146 -0.591741 0
M  V30 2248 H 208.895 3.93519 -0.994877 0
M  V30 2249 H 209.661 3.43211 -3.42682 0
M  V30 2250 H 205.54 3.97841 -2.32902 0
M  V30 2251 H 209.084 3.90531 -5.78041 0
M  V30 2252 H 204.981 4.45246 -4.67361 0
M  V30 2253 H 205.749 4.64299 -6.74069 0
M  V30 2254 N 208.412 0.89855 1.29475 0
M  V30 2255 C 209.661 0.519863 1.94885 0
M  V30 2256 C 209.974 -0.9383 1.71625 0
M  V30 2257 O 211.18 -1.42445 2.31131 0
M  V30 2258 C 209.636 0.878836 3.49005 0
M  V30 2259 C 209.244 2.35569 3.81066 0
M  V30 2260 C 210.988 0.570004 4.20656 0
M  V30 2261 C 208.895 2.65558 5.28425 0
M  V30 2262 H 207.825 0.190692 0.729488 0
M  V30 2263 H 210.476 1.09539 1.47219 0
M  V30 2264 H 208.858 0.232253 3.95318 0
M  V30 2265 H 210.032 3.04773 3.45616 0
M  V30 2266 H 208.347 2.63343 3.22552 0
M  V30 2267 H 210.944 0.770925 5.29113 0
M  V30 2268 H 211.287 -0.491404 4.1339 0
M  V30 2269 H 211.82 1.17438 3.8007 0
M  V30 2270 H 208.559 3.70493 5.40754 0
M  V30 2271 H 208.079 2.00977 5.65127 0
M  V30 2272 H 209.758 2.51765 5.96006 0
M  V30 2273 N 209.89 -1.43072 0.660911 0
M  V30 2274 C 211.137 -2.01721 0.177445 0
M  V30 2275 C 211.465 -1.5218 -1.21126 0
M  V30 2276 O 210.72 -0.708659 -1.82419 0
M  V30 2277 C 211.019 -3.57103 0.145563 0
M  V30 2278 C 210.685 -4.26021 1.47705 0
M  V30 2279 C 209.347 -4.44563 1.84165 0
M  V30 2280 C 211.699 -4.64983 2.35458 0
M  V30 2281 C 209.027 -4.99334 3.0803 0
M  V30 2282 C 211.379 -5.21127 3.58622 0
M  V30 2283 C 210.043 -5.37884 3.95268 0
M  V30 2284 H 209.313 -0.73815 0.0649317 0
M  V30 2285 H 211.96 -1.71446 0.853144 0
M  V30 2286 H 210.265 -3.86965 -0.61361 0
M  V30 2287 H 211.962 -4.00248 -0.2455 0
M  V30 2288 H 208.552 -4.11939 1.18339 0
M  V30 2289 H 212.736 -4.50343 2.08579 0
M  V30 2290 H 207.992 -5.10493 3.36462 0
M  V30 2291 H 212.166 -5.50262 4.26831 0
M  V30 2292 H 209.793 -5.80089 4.91325 0
M  V30 2293 N 211.368 -0.403325 -1.52352 0
M  V30 2294 C 212.614 0.174605 -2.02047 0
M  V30 2295 C 212.947 1.45282 -1.28867 0
M  V30 2296 O 212.222 1.90483 -0.393257 0
M  V30 2297 C 212.505 0.428238 -3.57545 0
M  V30 2298 C 212.358 -0.866248 -4.4138 0
M  V30 2299 C 213.677 1.21287 -4.23057 0
M  V30 2300 H 210.796 0.0619851 -0.734389 0
M  V30 2301 H 213.438 -0.53565 -1.82293 0
M  V30 2302 H 211.588 1.03327 -3.74507 0
M  V30 2303 H 213.26 -1.50265 -4.3614 0
M  V30 2304 H 211.503 -1.47851 -4.07827 0
M  V30 2305 H 212.174 -0.643249 -5.48239 0
M  V30 2306 H 214.65 0.700703 -4.10158 0
M  V30 2307 H 213.526 1.35909 -5.31808 0
M  V30 2308 H 213.787 2.23193 -3.81625 0
M  V30 2309 N 212.846 1.57033 -0.133567 0
M  V30 2310 C 213.756 2.19632 0.824564 0
M  V30 2311 C 214.772 1.17666 1.28182 0
M  V30 2312 O 215.948 1.50193 1.3418 0
M  V30 2313 C 213.013 2.79499 2.05137 0
M  V30 2314 C 212.074 3.96548 1.64464 0
M  V30 2315 C 211.307 4.5355 2.81297 0
M  V30 2316 O 211.53 4.09438 3.97136 0
M  V30 2317 O 210.464 5.44018 2.57542 0
M  V30 2318 H 214.29 3.01991 0.321766 0
M  V30 2319 H 211.875 1.49112 0.0927889 0
M  V30 2320 H 213.757 3.17602 2.7696 0
M  V30 2321 H 212.432 2.00162 2.54395 0
M  V30 2322 H 211.339 3.63186 0.897048 0
M  V30 2323 H 212.672 4.77364 1.19934 0
M  V30 2324 N 214.325 -0.140222 1.56975 0
M  V30 2325 C 215.273 -1.19207 1.99731 0
M  V30 2326 C 216.267 -1.44089 0.890777 0
M  V30 2327 O 217.473 -1.44301 1.07597 0
M  V30 2328 H 213.848 -0.40142 0.635898 0
M  V30 2329 H 215.819 -0.804813 2.87342 0
M  V30 2330 C 214.568 -2.51617 2.39967 0
M  V30 2331 H 213.891 -2.33303 3.24669 0
M  V30 2332 H 215.331 -3.23827 2.73701 0
M  V30 2333 C 213.79 -3.12654 1.25496 0
M  V30 2334 O 214.32 -3.97786 0.559371 0
M  V30 2335 N 212.526 -2.72206 1.01746 0
M  V30 2336 H 212.073 -2.03074 1.58489 0
M  V30 2337 H 212.031 -3.13377 0.253461 0
M  V30 2338 N 215.803 -1.52179 -0.40978 0
M  V30 2339 C 216.733 -1.78435 -1.5061 0
M  V30 2340 C 217.714 -0.635295 -1.57791 0
M  V30 2341 O 218.899 -0.880823 -1.73076 0
M  V30 2342 C 216.029 -1.93444 -2.88439 0
M  V30 2343 C 214.983 -3.09038 -2.96108 0
M  V30 2344 C 214.309 -3.09268 -4.36185 0
M  V30 2345 C 215.609 -4.48508 -2.67652 0
M  V30 2346 H 217.303 -2.70237 -1.28889 0
M  V30 2347 H 214.849 -1.30036 -0.618605 0
M  V30 2348 H 216.802 -2.10394 -3.65119 0
M  V30 2349 H 215.526 -0.983129 -3.11452 0
M  V30 2350 H 214.185 -2.91837 -2.21872 0
M  V30 2351 H 213.833 -2.11861 -4.56206 0
M  V30 2352 H 213.533 -3.86907 -4.42241 0
M  V30 2353 H 215.057 -3.28348 -5.14801 0
M  V30 2354 H 216.471 -4.65918 -3.34056 0
M  V30 2355 H 214.868 -5.28059 -2.85085 0
M  V30 2356 H 215.938 -4.56649 -1.63095 0
M  V30 2357 N 217.281 0.66697 -1.42791 0
M  V30 2358 C 218.511 1.45294 -1.46878 0
M  V30 2359 C 218.919 1.89027 -0.0809861 0
M  V30 2360 O 218.262 1.59219 0.916246 0
M  V30 2361 C 218.324 2.72908 -2.34012 0
M  V30 2362 C 217.988 2.51203 -3.81767 0
M  V30 2363 C 218.985 2.15302 -4.73224 0
M  V30 2364 C 216.67 2.65954 -4.26115 0
M  V30 2365 C 218.664 1.94431 -6.07022 0
M  V30 2366 C 216.351 2.44699 -5.59969 0
M  V30 2367 C 217.349 2.08992 -6.5024 0
M  V30 2368 O 217.037 1.87948 -7.81621 0
M  V30 2369 H 216.769 0.453306 -0.501487 0
M  V30 2370 H 219.323 0.826232 -1.88049 0
M  V30 2371 H 217.553 3.38089 -1.87703 0
M  V30 2372 H 219.242 3.34816 -2.29462 0
M  V30 2373 H 220.008 2.03495 -4.40244 0
M  V30 2374 H 215.887 2.92724 -3.56137 0
M  V30 2375 H 219.431 1.66484 -6.77443 0
M  V30 2376 H 215.328 2.56105 -5.9252 0
M  V30 2377 H 216.096 2.02483 -7.93059 0
M  V30 2378 N 218.759 1.29093 0.90403 0
M  V30 2379 C 220.175 1.07011 1.1841 0
M  V30 2380 C 220.375 -0.181358 2.00682 0
M  V30 2381 O 219.431 -0.880331 2.36657 0
M  V30 2382 C 220.744 2.32311 1.90924 0
M  V30 2383 C 222.292 2.37587 2.03768 0
M  V30 2384 C 222.767 3.62679 2.79693 0
M  V30 2385 N 224.258 3.63376 2.87249 0
M  V30 2386 C 224.993 4.56848 3.46522 0
M  V30 2387 N 224.489 5.60648 4.06996 0
M  V30 2388 N 226.282 4.44426 3.44154 0
M  V30 2389 H 218.433 2.09412 0.354993 0
M  V30 2390 H 220.696 0.922181 0.219742 0
M  V30 2391 H 220.402 3.23536 1.37905 0
M  V30 2392 H 220.276 2.39483 2.91424 0
M  V30 2393 H 222.663 1.46853 2.55965 0
M  V30 2394 H 222.744 2.34403 1.02415 0
M  V30 2395 H 222.388 4.53762 2.28173 0
M  V30 2396 H 222.318 3.63119 3.81381 0
M  V30 2397 H 224.809 2.88321 2.44293 0
M  V30 2398 H 225.122 6.28101 4.50232 0
M  V30 2399 H 223.467 5.64463 4.05471 0
M  V30 2400 H 226.658 3.62529 2.96126 0
M  V30 2401 H 226.831 5.17457 3.90054 0
M  V30 2402 N 220.237 -1.11381 1.11499 0
M  V30 2403 C 221.462 -1.87475 0.887019 0
M  V30 2404 C 221.887 -1.79639 -0.557796 0
M  V30 2405 O 221.245 -1.15924 -1.39396 0
M  V30 2406 C 221.293 -3.34213 1.35403 0
M  V30 2407 O 220.397 -4.0903 0.526146 0
M  V30 2408 H 219.738 -0.582099 0.319463 0
M  V30 2409 H 222.268 -1.40785 1.48461 0
M  V30 2410 H 222.278 -3.8506 1.34881 0
M  V30 2411 H 220.953 -3.39232 2.40612 0
M  V30 2412 H 219.53 -3.68082 0.597522 0
M  V30 2413 N 221.715 -0.905404 -1.28997 0
M  V30 2414 C 222.963 -0.533192 -1.9494 0
M  V30 2415 C 223.284 0.924618 -1.71685 0
M  V30 2416 O 222.554 1.65268 -1.05183 0
M  V30 2417 H 221.134 -0.194194 -0.721317 0
M  V30 2418 H 223.796 -1.15294 -1.57141 0
M  V30 2419 H 222.892 -0.72059 -3.03667 0
M  V30 2420 N 223.193 1.4272 -0.668489 0
M  V30 2421 C 224.14 2.30796 0.0137489 0
M  V30 2422 C 225.11 1.4561 0.799177 0
M  V30 2423 O 226.295 1.74453 0.772702 0
M  V30 2424 C 223.435 3.31377 0.963507 0
M  V30 2425 C 222.548 4.31655 0.172569 0
M  V30 2426 C 221.683 5.19312 1.1175 0
M  V30 2427 C 220.722 6.11274 0.317886 0
M  V30 2428 N 219.859 6.91504 1.2152 0
M  V30 2429 H 224.699 2.88585 -0.743161 0
M  V30 2430 H 222.236 1.42154 -0.378226 0
M  V30 2431 H 224.194 3.88214 1.52792 0
M  V30 2432 H 222.824 2.75202 1.68712 0
M  V30 2433 H 221.876 3.76988 -0.508374 0
M  V30 2434 H 223.188 4.96779 -0.448527 0
M  V30 2435 H 222.342 5.80851 1.75206 0
M  V30 2436 H 221.081 4.5435 1.77249 0
M  V30 2437 H 220.086 5.48809 -0.329918 0
M  V30 2438 H 221.311 6.78283 -0.332917 0
M  V30 2439 H 219.257 6.29176 1.85671 0
M  V30 2440 H 219.174 7.53209 0.649036 0
M  V30 2441 H 220.442 7.57535 1.83742 0
M  V30 2442 N 224.671 0.411399 1.52136 0
M  V30 2443 C 225.604 -0.457614 2.23565 0
M  V30 2444 C 226.582 -1.04613 1.24478 0
M  V30 2445 O 227.766 -1.09356 1.53536 0
M  V30 2446 C 224.893 -1.6354 2.96602 0
M  V30 2447 C 223.939 -1.17005 4.10137 0
M  V30 2448 S 224.772 -0.13333 5.35334 0
M  V30 2449 C 225.928 -1.31638 6.119 0
M  V30 2450 H 226.161 0.148883 2.96927 0
M  V30 2451 H 223.694 0.195713 1.53155 0
M  V30 2452 H 225.652 -2.31074 3.39286 0
M  V30 2453 H 224.313 -2.21324 2.22878 0
M  V30 2454 H 223.506 -2.05005 4.60422 0
M  V30 2455 H 223.108 -0.573319 3.6958 0
M  V30 2456 H 225.4 -2.23957 6.39413 0
M  V30 2457 H 226.343 -0.854014 7.02931 0
M  V30 2458 H 226.751 -1.54321 5.42997 0
M  V30 2459 N 226.149 -1.5696 0.141893 0
M  V30 2460 C 227.56 -1.82797 -0.379776 0
M  V30 2461 C 227.911 -1.06033 -1.6508 0
M  V30 2462 O 227.036 -0.304011 -2.14254 0
M  V30 2463 C 227.631 -3.31578 -0.695802 0
M  V30 2464 C 226.19 -3.58014 -1.16201 0
M  V30 2465 C 225.337 -2.76699 -0.182455 0
M  V30 2466 H 228.288 -1.54406 0.366675 0
M  V30 2467 H 228.309 -3.47454 -1.55099 0
M  V30 2468 H 227.821 -3.87421 0.229449 0
M  V30 2469 H 225.922 -3.07553 -2.10338 0
M  V30 2470 H 226.035 -4.66501 -1.09151 0
M  V30 2471 H 224.399 -2.45618 -0.674072 0
M  V30 2472 H 225.182 -3.35311 0.736297 0
M  V30 2473 N 227.627 0.131896 -1.57047 0
M  V30 2474 C 228.537 1.1815 -2.02676 0
M  V30 2475 C 229.553 1.46113 -0.944824 0
M  V30 2476 O 230.729 1.57485 -1.25541 0
M  V30 2477 C 227.794 2.49139 -2.41103 0
M  V30 2478 C 226.855 2.28688 -3.63318 0
M  V30 2479 C 226.088 3.53431 -3.99903 0
M  V30 2480 O 226.311 4.60223 -3.36973 0
M  V30 2481 O 225.245 3.45198 -4.93074 0
M  V30 2482 H 229.071 0.824069 -2.92306 0
M  V30 2483 H 226.656 0.341745 -1.45439 0
M  V30 2484 H 228.538 3.26338 -2.66611 0
M  V30 2485 H 227.213 2.84382 -1.54624 0
M  V30 2486 H 226.12 1.4939 -3.42977 0
M  V30 2487 H 227.453 1.98355 -4.50462 0
M  V30 2488 N 229.106 1.52395 0.401703 0
M  V30 2489 C 230.352 1.67065 1.14966 0
M  V30 2490 C 230.685 0.403052 1.89971 0
M  V30 2491 O 229.96 -0.598774 1.85054 0
M  V30 2492 C 230.243 2.8975 2.13815 0
M  V30 2493 C 230.096 4.26578 1.42658 0
M  V30 2494 C 231.415 3.07965 3.14397 0
M  V30 2495 H 228.534 0.607968 0.416587 0
M  V30 2496 H 231.176 1.84965 0.434511 0
M  V30 2497 H 229.326 2.74619 2.74803 0
M  V30 2498 H 230.998 4.53451 0.847329 0
M  V30 2499 H 229.241 4.27639 0.72849 0
M  V30 2500 H 229.912 5.08483 2.14823 0
M  V30 2501 H 232.388 3.22043 2.63491 0
M  V30 2502 H 231.264 3.95308 3.80819 0
M  V30 2503 H 231.525 2.21611 3.82545 0
M  V30 2504 N 230.584 -0.659388 1.43143 0
M  V30 2505 C 231.861 -1.41627 1.34912 0
M  V30 2506 C 232.241 -2.11099 -0.00607785 0
M  V30 2507 O 231.589 -2.04353 -1.02236 0
M  V30 2508 C 231.799 -2.40604 2.52805 0
M  V30 2509 C 233.147 -3.04789 2.95616 0
M  V30 2510 O 234.171 -2.50932 2.52807 0
M  V30 2511 O 233.03 -4.02421 3.69756 0
M  V30 2512 H 230.124 -0.63246 0.532844 0
M  V30 2513 H 232.67 -0.686814 1.5518 0
M  V30 2514 H 231.442 -1.88174 3.43083 0
M  V30 2515 H 231.065 -3.21009 2.34604 0
M  V30 2516 N 232.062 -1.29571 -0.897171 0
M  V30 2517 C 233.292 -1.20408 -1.67886 0
M  V30 2518 C 233.7 0.237429 -1.87704 0
M  V30 2519 O 233.043 1.17048 -1.41582 0
M  V30 2520 C 233.105 -1.84887 -3.08314 0
M  V30 2521 C 232.769 -3.34189 -3.11716 0
M  V30 2522 C 233.766 -4.30374 -2.91675 0
M  V30 2523 C 231.451 -3.75431 -3.33701 0
M  V30 2524 C 233.445 -5.65776 -2.93557 0
M  V30 2525 C 231.132 -5.10955 -3.35214 0
M  V30 2526 C 232.13 -6.05938 -3.15164 0
M  V30 2527 O 231.818 -7.38987 -3.1647 0
M  V30 2528 H 231.55 -0.418289 -0.531046 0
M  V30 2529 H 234.104 -1.71514 -1.13014 0
M  V30 2530 H 232.334 -1.28295 -3.64798 0
M  V30 2531 H 234.023 -1.70011 -3.6858 0
M  V30 2532 H 234.789 -3.99844 -2.74499 0
M  V30 2533 H 230.668 -3.01953 -3.48347 0
M  V30 2534 H 234.212 -6.39889 -2.77826 0
M  V30 2535 H 230.109 -5.4113 -3.51922 0
M  V30 2536 H 230.877 -7.47823 -3.3272 0
M  V30 2537 N 233.54 1.10788 -1.12088 0
M  V30 2538 C 234.786 1.82942 -0.875226 0
M  V30 2539 C 235.119 1.84779 0.597538 0
M  V30 2540 O 234.394 1.30578 1.44152 0
M  V30 2541 C 234.677 3.29789 -1.44606 0
M  V30 2542 C 234.53 3.36307 -2.98693 0
M  V30 2543 C 235.849 4.26064 -1.10261 0
M  V30 2544 H 232.968 0.664195 -0.319397 0
M  V30 2545 H 235.61 1.29867 -1.38689 0
M  V30 2546 H 233.76 3.75118 -1.01089 0
M  V30 2547 H 235.432 2.99487 -3.50864 0
M  V30 2548 H 233.675 2.76318 -3.34411 0
M  V30 2549 H 234.346 4.39694 -3.33726 0
M  V30 2550 H 236.822 3.88951 -1.4784 0
M  V30 2551 H 235.698 5.27183 -1.52869 0
M  V30 2552 H 235.959 4.42098 -0.0142953 0
M  V30 2553 N 235.018 0.912232 1.28515 0
M  V30 2554 C 236.264 0.545405 1.95328 0
M  V30 2555 C 236.597 -0.908313 1.71649 0
M  V30 2556 O 235.872 -1.64575 1.03659 0
M  V30 2557 C 236.155 0.853483 3.4984 0
M  V30 2558 C 236.008 2.35982 3.82926 0
M  V30 2559 C 237.327 0.348589 4.38717 0
M  V30 2560 H 234.446 0.199626 0.709449 0
M  V30 2561 H 237.088 1.1412 1.5191 0
M  V30 2562 H 235.238 0.34643 3.86952 0
M  V30 2563 H 236.91 2.93738 3.55691 0
M  V30 2564 H 235.153 2.81543 3.30024 0
M  V30 2565 H 235.824 2.52593 4.90816 0
M  V30 2566 H 238.3 0.78294 4.08668 0
M  V30 2567 H 237.176 0.593242 5.45685 0
M  V30 2568 H 237.437 -0.751049 4.35674 0
M  V30 2569 N 236.496 -1.42363 0.676048 0
M  V30 2570 C 237.426 -2.33497 0.0124832 0
M  V30 2571 C 238.407 -1.50748 -0.787981 0
M  V30 2572 O 239.592 -1.79346 -0.744884 0
M  V30 2573 C 236.722 -3.34377 -0.938582 0
M  V30 2574 C 235.676 -4.27289 -0.246622 0
M  V30 2575 C 235.002 -5.18386 -1.31071 0
M  V30 2576 C 236.302 -5.14916 0.875125 0
M  V30 2577 H 237.996 -2.89233 0.773593 0
M  V30 2578 H 235.542 -1.39073 0.37346 0
M  V30 2579 H 237.495 -3.97044 -1.41188 0
M  V30 2580 H 236.219 -2.76947 -1.73113 0
M  V30 2581 H 234.878 -3.66018 0.206456 0
M  V30 2582 H 234.526 -4.57282 -2.09528 0
M  V30 2583 H 234.226 -5.81378 -0.852839 0
M  V30 2584 H 235.75 -5.83929 -1.78492 0
M  V30 2585 H 237.164 -5.71262 0.482983 0
M  V30 2586 H 235.561 -5.86747 1.25887 0
M  V30 2587 H 236.631 -4.53242 1.72335 0
M  V30 2588 N 237.974 -0.419461 -1.51915 0
M  V30 2589 C 239.199 0.154572 -2.06823 0
M  V30 2590 C 239.624 1.3722 -1.28656 0
M  V30 2591 O 238.982 1.78461 -0.319583 0
M  V30 2592 C 239.03 0.473172 -3.57482 0
M  V30 2593 O 238.134 1.56255 -3.81652 0
M  V30 2594 H 237.475 0.0096924 -0.663929 0
M  V30 2595 H 240.005 -0.595642 -1.95738 0
M  V30 2596 H 240.015 0.728825 -4.01438 0
M  V30 2597 H 238.69 -0.416873 -4.13805 0
M  V30 2598 H 237.267 1.29825 -3.49571 0
M  V30 2599 N 239.452 1.56882 -0.150215 0
M  V30 2600 C 240.362 2.20494 0.801222 0
M  V30 2601 C 241.378 1.19019 1.26927 0
M  V30 2602 O 242.554 1.51607 1.32579 0
M  V30 2603 C 239.619 2.81659 2.02161 0
M  V30 2604 C 238.68 3.9827 1.60249 0
M  V30 2605 C 237.913 4.56508 2.7647 0
M  V30 2606 O 238.136 4.13627 3.92771 0
M  V30 2607 O 237.07 5.46719 2.51757 0
M  V30 2608 H 240.896 3.02315 0.289717 0
M  V30 2609 H 238.481 1.49202 0.0769684 0
M  V30 2610 H 240.363 3.20522 2.73576 0
M  V30 2611 H 239.038 2.02849 2.52258 0
M  V30 2612 H 237.945 3.64117 0.858477 0
M  V30 2613 H 239.278 4.78609 1.14864 0
M  V30 2614 N 240.93 -0.123565 1.57115 0
M  V30 2615 C 242.176 -0.828428 1.85765 0
M  V30 2616 C 242.531 -1.77709 0.737371 0
M  V30 2617 O 241.824 -1.89787 -0.262978 0
M  V30 2618 C 242.018 -1.62016 3.18568 0
M  V30 2619 C 241.847 -0.749663 4.43407 0
M  V30 2620 C 240.617 -0.406251 5.03664 0
M  V30 2621 C 242.815 -0.0693505 5.14253 0
M  V30 2622 N 240.797 0.475389 6.12057 0
M  V30 2623 C 242.168 0.671474 6.16353 0
M  V30 2624 C 244.223 0.00754393 4.97899 0
M  V30 2625 C 242.926 1.48197 7.03868 0
M  V30 2626 C 244.952 0.804845 5.85898 0
M  V30 2627 C 244.314 1.53388 6.87497 0
M  V30 2628 H 240.413 -0.280219 0.73007 0
M  V30 2629 H 242.997 -0.0924183 1.94481 0
M  V30 2630 H 241.168 -2.32724 3.10957 0
M  V30 2631 H 242.9 -2.27 3.35042 0
M  V30 2632 H 239.655 -0.747446 4.67665 0
M  V30 2633 H 240.079 0.907924 6.70884 0
M  V30 2634 H 244.721 -0.541741 4.19315 0
M  V30 2635 H 242.439 2.04242 7.81864 0
M  V30 2636 H 246.025 0.866642 5.75309 0
M  V30 2637 H 244.905 2.1409 7.5441 0
M  V30 2638 N 242.408 -1.52605 -0.393616 0
M  V30 2639 C 243.655 -1.67424 -1.1391 0
M  V30 2640 C 243.983 -0.411859 -1.90089 0
M  V30 2641 O 243.238 0.605626 -1.86093 0
M  V30 2642 C 243.537 -2.85721 -2.14705 0
M  V30 2643 C 243.203 -4.23342 -1.55218 0
M  V30 2644 C 241.865 -4.60771 -1.3872 0
M  V30 2645 C 244.217 -5.09041 -1.11924 0
M  V30 2646 C 241.545 -5.81563 -0.774689 0
M  V30 2647 C 243.897 -6.30452 -0.520853 0
M  V30 2648 C 242.561 -6.66617 -0.343134 0
M  V30 2649 H 241.831 -0.612648 -0.416826 0
M  V30 2650 H 244.478 -1.8674 -0.424315 0
M  V30 2651 H 242.783 -2.60803 -2.92385 0
M  V30 2652 H 244.48 -2.94382 -2.72288 0
M  V30 2653 H 241.07 -3.93855 -1.69045 0
M  V30 2654 H 245.254 -4.80695 -1.23473 0
M  V30 2655 H 240.51 -6.08196 -0.625154 0
M  V30 2656 H 244.684 -6.96175 -0.177065 0
M  V30 2657 H 242.311 -7.60083 0.133571 0
M  V30 2658 N 243.887 0.651787 -1.4349 0
M  V30 2659 C 245.164 1.40909 -1.35661 0
M  V30 2660 C 245.544 2.11099 -0.00511733 0
M  V30 2661 O 244.892 2.04892 1.0115 0
M  V30 2662 C 245.102 2.3926 -2.54078 0
M  V30 2663 C 246.45 3.03217 -2.97228 0
M  V30 2664 O 247.474 2.49588 -2.54135 0
M  V30 2665 O 246.333 4.00455 -3.71885 0
M  V30 2666 H 243.427 0.629625 -0.536191 0
M  V30 2667 H 245.973 0.678575 -1.55542 0
M  V30 2668 H 244.745 1.86352 -3.44076 0
M  V30 2669 H 244.368 3.1976 -2.36303 0
M  V30 2670 N 245.365 1.30045 0.890287 0
M  V30 2671 C 246.611 1.19747 1.64415 0
M  V30 2672 C 246.966 -0.246591 1.90813 0
M  V30 2673 O 246.259 -1.174 1.51419 0
M  V30 2674 C 246.453 1.95409 2.99249 0
M  V30 2675 C 246.282 3.47025 2.86013 0
M  V30 2676 C 245.052 4.1638 2.86279 0
M  V30 2677 C 247.25 4.42353 2.62351 0
M  V30 2678 N 245.232 5.54293 2.63879 0
M  V30 2679 C 246.603 5.67792 2.49022 0
M  V30 2680 C 248.658 4.32009 2.47533 0
M  V30 2681 C 247.361 6.8406 2.22383 0
M  V30 2682 C 249.387 5.48038 2.22279 0
M  V30 2683 C 248.749 6.72455 2.09722 0
M  V30 2684 H 244.848 0.493223 0.60684 0
M  V30 2685 H 247.432 1.6399 1.04954 0
M  V30 2686 H 245.603 1.53565 3.56752 0
M  V30 2687 H 247.335 1.77298 3.63796 0
M  V30 2688 H 244.09 3.68164 2.97913 0
M  V30 2689 H 244.514 6.26852 2.55706 0
M  V30 2690 H 249.156 3.36503 2.55979 0
M  V30 2691 H 246.874 7.79612 2.12675 0
M  V30 2692 H 250.46 5.41939 2.11643 0
M  V30 2693 H 249.34 7.60722 1.90453 0
M  V30 2694 N 246.843 -1.10192 1.12674 0
M  V30 2695 C 248.092 -1.81573 0.8783 0
M  V30 2696 C 248.405 -1.86249 -0.597557 0
M  V30 2697 O 249.611 -2.5386 -0.962681 0
M  V30 2698 C 248.067 -3.26149 1.52167 0
M  V30 2699 C 247.675 -3.29763 3.03249 0
M  V30 2700 C 249.419 -4.0234 1.3536 0
M  V30 2701 C 247.326 -4.68815 3.60508 0
M  V30 2702 H 246.256 -0.680394 0.324931 0
M  V30 2703 H 248.907 -1.23902 1.35353 0
M  V30 2704 H 247.289 -3.83832 0.974104 0
M  V30 2705 H 248.463 -2.8189 3.6452 0
M  V30 2706 H 246.778 -2.67059 3.19481 0
M  V30 2707 H 249.375 -5.05058 1.75559 0
M  V30 2708 H 249.718 -4.15235 0.297554 0
M  V30 2709 H 250.251 -3.51079 1.87052 0
M  V30 2710 H 246.99 -4.61121 4.65884 0
M  V30 2711 H 246.51 -5.17045 3.04014 0
M  V30 2712 H 248.189 -5.37785 3.59717 0
M  V30 2713 N 248.321 -0.919034 -1.28029 0
M  V30 2714 C 249.251 -0.428581 -2.29533 0
M  V30 2715 C 250.232 0.50659 -1.62381 0
M  V30 2716 O 251.417 0.413195 -1.89753 0
M  V30 2717 C 248.547 0.327388 -3.45753 0
M  V30 2718 C 247.501 -0.519137 -4.2484 0
M  V30 2719 C 246.827 0.365486 -5.33449 0
M  V30 2720 C 248.127 -1.77914 -4.91064 0
M  V30 2721 H 249.821 -1.27687 -2.70807 0
M  V30 2722 H 247.367 -0.615428 -1.30186 0
M  V30 2723 H 249.32 0.681378 -4.15855 0
M  V30 2724 H 248.044 1.20963 -3.03374 0
M  V30 2725 H 246.703 -0.855717 -3.56473 0
M  V30 2726 H 246.351 1.24642 -4.87312 0
M  V30 2727 H 246.051 -0.197356 -5.87268 0
M  V30 2728 H 247.575 0.715241 -6.06396 0
M  V30 2729 H 248.989 -1.49374 -5.53498 0
M  V30 2730 H 247.386 -2.2848 -5.54903 0
M  V30 2731 H 248.456 -2.50382 -4.15255 0
M  V30 2732 N 249.799 1.42003 -0.683588 0
M  V30 2733 C 251.215 1.55625 -0.353976 0
M  V30 2734 C 251.415 1.66151 1.14 0
M  V30 2735 O 250.471 1.63329 1.92561 0
M  V30 2736 C 251.784 2.80171 -1.092 0
M  V30 2737 C 253.332 2.93954 -1.07518 0
M  V30 2738 C 253.807 4.21372 -1.79471 0
M  V30 2739 N 255.298 4.28303 -1.76381 0
M  V30 2740 C 256.033 5.25729 -2.28904 0
M  V30 2741 N 255.529 6.29254 -2.89846 0
M  V30 2742 N 257.322 5.17586 -2.19228 0
M  V30 2743 H 249.473 1.33415 -1.6527 0
M  V30 2744 H 251.736 0.64282 -0.696769 0
M  V30 2745 H 251.442 2.78561 -2.14701 0
M  V30 2746 H 251.316 3.7133 -0.662862 0
M  V30 2747 H 253.703 2.95086 -0.028475 0
M  V30 2748 H 253.784 2.04002 -1.54328 0
M  V30 2749 H 253.428 4.21001 -2.84114 0
M  V30 2750 H 253.358 5.10275 -1.30104 0
M  V30 2751 H 255.849 3.54119 -1.31939 0
M  V30 2752 H 256.162 6.99964 -3.27522 0
M  V30 2753 H 254.507 6.29791 -2.93919 0
M  V30 2754 H 257.698 4.35631 -1.71299 0
M  V30 2755 H 257.871 5.93348 -2.60466 0
M  V30 2756 N 251.277 0.427512 1.51691 0
M  V30 2757 C 252.225 -0.403359 2.29076 0
M  V30 2758 C 253.219 -1.02962 1.34518 0
M  V30 2759 O 254.425 -0.965715 1.51901 0
M  V30 2760 H 250.8 -0.148879 0.737115 0
M  V30 2761 H 252.771 0.270295 2.97173 0
M  V30 2762 C 251.52 -1.49763 3.13794 0
M  V30 2763 H 250.843 -1.02508 3.86435 0
M  V30 2764 H 252.283 -2.05244 3.71014 0
M  V30 2765 C 250.742 -2.47536 2.28533 0
M  V30 2766 O 251.272 -3.51848 1.93819 0
M  V30 2767 N 249.478 -2.18187 1.91945 0
M  V30 2768 H 249.025 -1.33389 2.20375 0
M  V30 2769 H 248.983 -2.83848 1.35195 0
M  V30 2770 N 252.755 -1.56801 0.158532 0
M  V30 2771 C 253.688 -2.13148 -0.815065 0
M  V30 2772 C 254.666 -1.0581 -1.23462 0
M  V30 2773 O 255.85 -1.3371 -1.32868 0
M  V30 2774 C 252.977 -2.6606 -2.09594 0
M  V30 2775 C 252.023 -3.85651 -1.82141 0
M  V30 2776 S 252.856 -5.26041 -1.00207 0
M  V30 2777 C 254.012 -5.8235 -2.29389 0
M  V30 2778 H 254.245 -2.95396 -0.335937 0
M  V30 2779 H 251.778 -1.54299 -0.0559391 0
M  V30 2780 H 253.736 -2.97195 -2.8317 0
M  V30 2781 H 252.397 -1.83921 -2.54621 0
M  V30 2782 H 251.59 -4.20958 -2.77147 0
M  V30 2783 H 251.192 -3.55338 -1.16667 0
M  V30 2784 H 253.484 -5.94485 -3.24952 0
M  V30 2785 H 254.427 -6.79688 -1.9857 0
M  V30 2786 H 254.835 -5.10675 -2.40564 0
M  V30 2787 N 254.233 0.115231 -1.57178 0
M  V30 2788 C 255.51 0.852873 -1.76027 0
M  V30 2789 C 255.89 1.97892 -0.73498 0
M  V30 2790 O 255.238 2.27232 0.24036 0
M  V30 2791 C 255.448 1.36608 -3.21153 0
M  V30 2792 C 256.796 1.81692 -3.83762 0
M  V30 2793 O 257.82 1.46278 -3.24779 0
M  V30 2794 O 256.679 2.47104 -4.87444 0
M  V30 2795 H 253.773 0.405296 -0.720877 0
M  V30 2796 H 256.319 0.0986785 -1.69413 0
M  V30 2797 H 255.091 0.558357 -3.87296 0
M  V30 2798 H 254.714 2.18287 -3.3232 0
M  V30 2799 N 255.711 1.52812 0.385517 0
M  V30 2800 C 256.957 1.68275 1.13188 0
M  V30 2801 C 257.29 0.423179 1.89533 0
M  V30 2802 O 256.565 -0.579113 1.85679 0
M  V30 2803 C 256.848 2.92001 2.1073 0
M  V30 2804 C 256.701 4.28067 1.38125 0
M  V30 2805 C 258.02 3.11283 3.11113 0
M  V30 2806 H 255.139 0.612352 0.410115 0
M  V30 2807 H 257.781 1.85415 0.414869 0
M  V30 2808 H 255.931 2.77519 2.71874 0
M  V30 2809 H 257.603 4.54324 0.799187 0
M  V30 2810 H 255.846 4.28388 0.683092 0
M  V30 2811 H 256.517 5.10733 2.09417 0
M  V30 2812 H 258.993 3.2482 2.6006 0
M  V30 2813 H 257.869 3.99325 3.76605 0
M  V30 2814 H 258.13 2.25656 3.80173 0
M  V30 2815 N 257.189 -0.644168 1.43834 0
M  V30 2816 C 258.414 -1.43642 1.49605 0
M  V30 2817 C 258.839 -1.8773 0.117913 0
M  V30 2818 O 258.197 -1.57938 -0.890239 0
M  V30 2819 C 258.245 -2.6416 2.45463 0
M  V30 2820 O 257.349 -3.63538 1.94714 0
M  V30 2821 H 256.69 -0.430329 0.50568 0
M  V30 2822 H 259.22 -0.787448 1.8884 0
M  V30 2823 H 259.23 -3.11864 2.63068 0
M  V30 2824 H 257.905 -2.31414 3.45572 0
M  V30 2825 H 256.482 -3.2273 1.86814 0
M  V30 2826 N 258.668 -1.30515 -0.883378 0
M  V30 2827 C 259.914 -1.19607 -1.63774 0
M  V30 2828 C 260.247 0.248314 -1.92606 0
M  V30 2829 O 259.522 1.17742 -1.54813 0
M  V30 2830 C 259.805 -2.02669 -2.97653 0
M  V30 2831 C 259.658 -3.55335 -2.75784 0
M  V30 2832 C 260.977 -1.86573 -3.98596 0
M  V30 2833 H 258.096 -0.435856 -0.594305 0
M  V30 2834 H 260.738 -1.60165 -1.02212 0
M  V30 2835 H 258.888 -1.68208 -3.50197 0
M  V30 2836 H 260.56 -3.99863 -2.30016 0
M  V30 2837 H 258.803 -3.79438 -2.1026 0
M  V30 2838 H 259.474 -4.08745 -3.70988 0
M  V30 2839 H 261.95 -2.16703 -3.55217 0
M  V30 2840 H 260.826 -2.47014 -4.90179 0
M  V30 2841 H 261.087 -0.825321 -4.34328 0
M  V30 2842 N 260.146 1.09593 -1.13257 0
M  V30 2843 C 261.423 1.78293 -0.804432 0
M  V30 2844 C 261.803 1.99004 0.70431 0
M  V30 2845 O 261.151 1.59007 1.641 0
M  V30 2846 C 261.361 3.10707 -1.5894 0
M  V30 2847 C 262.709 3.85443 -1.78099 0
M  V30 2848 O 263.733 3.20454 -1.55525 0
M  V30 2849 O 262.592 5.02108 -2.15753 0
M  V30 2850 H 259.686 0.773156 -0.293528 0
M  V30 2851 H 262.232 1.16164 -1.23709 0
M  V30 2852 H 261.004 2.91106 -2.61482 0
M  V30 2853 H 260.627 3.80558 -1.15157 0
M  V30 2854 N 261.624 0.925811 1.2754 0
M  V30 2855 C 262.554 0.440748 2.29303 0
M  V30 2856 C 263.535 -0.497971 1.62648 0
M  V30 2857 O 264.72 -0.403126 1.8997 0
M  V30 2858 C 261.85 -0.309048 3.45922 0
M  V30 2859 C 260.804 0.54166 4.24559 0
M  V30 2860 C 260.13 -0.337191 5.33636 0
M  V30 2861 C 261.43 1.80516 4.90114 0
M  V30 2862 H 263.124 1.29121 2.70126 0
M  V30 2863 H 260.67 0.622323 1.29858 0
M  V30 2864 H 262.623 -0.659315 4.1621 0
M  V30 2865 H 261.347 -1.19352 3.04011 0
M  V30 2866 H 260.006 0.874609 3.56014 0
M  V30 2867 H 259.654 -1.22056 4.87966 0
M  V30 2868 H 259.354 0.228497 5.87156 0
M  V30 2869 H 260.878 -0.683072 6.06767 0
M  V30 2870 H 262.292 1.52307 5.52698 0
M  V30 2871 H 260.689 2.3142 5.53683 0
M  V30 2872 H 261.759 2.52581 4.13921 0
M  V30 2873 N 263.102 -1.41638 0.69111 0
M  V30 2874 C 264.351 -2.00526 0.217318 0
M  V30 2875 C 264.664 -1.55353 -1.18848 0
M  V30 2876 O 265.87 -2.06769 -1.75951 0
M  V30 2877 C 264.326 -3.58313 0.337639 0
M  V30 2878 C 263.934 -4.12469 1.74852 0
M  V30 2879 C 265.678 -4.24431 -0.0766066 0
M  V30 2880 C 263.585 -5.62675 1.82074 0
M  V30 2881 H 262.515 -0.750008 0.0774893 0
M  V30 2882 H 265.166 -1.6217 0.858661 0
M  V30 2883 H 263.548 -3.9425 -0.371879 0
M  V30 2884 H 264.722 -3.8796 2.48644 0
M  V30 2885 H 263.037 -3.58861 2.11205 0
M  V30 2886 H 265.634 -5.34683 -0.0430284 0
M  V30 2887 H 265.977 -4.01101 -1.1146 0
M  V30 2888 H 266.51 -3.93512 0.582476 0
M  V30 2889 H 263.249 -5.90826 2.83911 0
M  V30 2890 H 262.769 -5.89124 1.12661 0
M  V30 2891 H 264.448 -6.27371 1.58159 0
M  V30 2892 N 264.58 -0.43555 -1.51462 0
M  V30 2893 C 265.826 0.131709 -2.02372 0
M  V30 2894 C 266.159 1.42516 -1.3192 0
M  V30 2895 O 265.434 1.89606 -0.433573 0
M  V30 2896 C 265.717 0.352301 -3.58373 0
M  V30 2897 C 265.57 -0.959676 -4.39443 0
M  V30 2898 C 266.889 1.12286 -4.25535 0
M  V30 2899 H 264.008 0.0463936 -0.735538 0
M  V30 2900 H 266.65 -0.574197 -1.81116 0
M  V30 2901 H 264.8 0.9536 -3.76615 0
M  V30 2902 H 266.472 -1.59482 -4.32855 0
M  V30 2903 H 264.715 -1.56468 -4.04599 0
M  V30 2904 H 265.386 -0.759394 -5.46752 0
M  V30 2905 H 267.862 0.613545 -4.11552 0
M  V30 2906 H 266.738 1.24598 -5.34571 0
M  V30 2907 H 266.999 2.15048 -3.86273 0
M  V30 2908 N 266.058 1.56714 -0.166846 0
M  V30 2909 C 267.288 2.00828 0.48494 0
M  V30 2910 C 267.696 1.04612 1.57648 0
M  V30 2911 O 267.039 0.0383201 1.8366 0
M  V30 2912 C 267.101 3.4137 1.12723 0
M  V30 2913 C 266.765 4.56654 0.177886 0
M  V30 2914 C 267.762 5.16402 -0.60207 0
M  V30 2915 C 265.447 5.02244 0.0750139 0
M  V30 2916 C 267.441 6.20167 -1.47215 0
M  V30 2917 C 265.128 6.05859 -0.798649 0
M  V30 2918 C 266.126 6.64691 -1.57082 0
M  V30 2919 O 265.814 7.66297 -2.42989 0
M  V30 2920 H 265.546 0.663587 0.128953 0
M  V30 2921 H 268.1 2.03692 -0.264365 0
M  V30 2922 H 266.33 3.35406 1.92457 0
M  V30 2923 H 268.019 3.69466 1.68076 0
M  V30 2924 H 268.785 4.82065 -0.53274 0
M  V30 2925 H 264.664 4.56167 0.665812 0
M  V30 2926 H 268.208 6.66016 -2.07531 0
M  V30 2927 H 264.105 6.39621 -0.869199 0
M  V30 2928 H 264.873 7.83601 -2.36455 0
M  V30 2929 N 267.536 -0.106894 1.57237 0
M  V30 2930 C 268.466 -1.13148 2.04254 0
M  V30 2931 C 269.447 -1.42476 0.929224 0
M  V30 2932 O 270.632 -1.52709 1.19973 0
M  V30 2933 C 267.762 -2.4545 2.45706 0
M  V30 2934 C 266.716 -2.30558 3.60592 0
M  V30 2935 C 266.042 -3.67931 3.87983 0
M  V30 2936 C 267.342 -1.75597 4.91897 0
M  V30 2937 H 269.036 -0.740374 2.90101 0
M  V30 2938 H 266.582 -0.354696 1.39563 0
M  V30 2939 H 268.535 -3.17389 2.77205 0
M  V30 2940 H 267.259 -2.86475 1.56843 0
M  V30 2941 H 265.918 -1.61067 3.29322 0
M  V30 2942 H 265.566 -4.06462 2.96306 0
M  V30 2943 H 265.266 -3.58817 4.65322 0
M  V30 2944 H 266.79 -4.41356 4.21945 0
M  V30 2945 H 268.204 -2.37364 5.21854 0
M  V30 2946 H 266.601 -1.77272 5.73319 0
M  V30 2947 H 267.671 -0.714451 4.79608 0
M  V30 2948 N 269.014 -1.53014 -0.377408 0
M  V30 2949 C 270.43 -1.42523 -0.718281 0
M  V30 2950 C 270.63 -0.55487 -1.9371 0
M  V30 2951 O 269.686 -0.0327593 -2.52479 0
M  V30 2952 C 270.999 -2.85546 -0.942539 0
M  V30 2953 C 272.547 -2.95101 -1.04329 0
M  V30 2954 C 273.022 -4.3916 -1.3001 0
M  V30 2955 N 274.513 -4.42536 -1.36806 0
M  V30 2956 C 275.248 -5.51097 -1.58364 0
M  V30 2957 N 274.744 -6.69724 -1.77317 0
M  V30 2958 N 276.537 -5.38657 -1.60638 0
M  V30 2959 H 268.688 -2.08116 0.424426 0
M  V30 2960 H 270.951 -0.939352 0.127759 0
M  V30 2961 H 270.657 -3.51499 -0.118929 0
M  V30 2962 H 270.531 -3.28493 -1.85397 0
M  V30 2963 H 272.918 -2.29309 -1.85745 0
M  V30 2964 H 272.999 -2.55566 -0.109505 0
M  V30 2965 H 272.643 -5.05521 -0.490991 0
M  V30 2966 H 272.573 -4.76258 -2.24691 0
M  V30 2967 H 275.064 -3.57039 -1.23821 0
M  V30 2968 H 275.377 -7.48233 -1.93306 0
M  V30 2969 H 273.722 -6.72732 -1.74518 0
M  V30 2970 H 276.913 -4.44948 -1.45391 0
M  V30 2971 H 277.086 -6.2333 -1.77098 0
M  V30 2972 N 270.492 0.636531 -1.44174 0
M  V30 2973 C 271.72 1.42353 -1.50144 0
M  V30 2974 C 272.135 1.88389 -0.124575 0
M  V30 2975 O 271.492 1.6051 0.868489 0
M  V30 2976 C 271.543 2.64744 -2.46156 0
M  V30 2977 O 271.264 2.20629 -3.7849 0
M  V30 2978 C 272.765 3.57929 -2.61537 0
M  V30 2979 H 269.985 0.436752 -0.5094 0
M  V30 2980 H 272.529 0.778933 -1.89084 0
M  V30 2981 H 270.684 3.25307 -2.10366 0
M  V30 2982 H 271.098 2.99938 -4.30276 0
M  V30 2983 H 272.572 4.40428 -3.32757 0
M  V30 2984 H 273.049 4.06382 -1.66585 0
M  V30 2985 H 273.655 3.03238 -2.98206 0
M  V30 2986 N 271.97 1.30982 0.876444 0
M  V30 2987 C 272.918 1.18006 2.00443 0
M  V30 2988 C 273.912 0.0898871 1.69161 0
M  V30 2989 O 275.118 0.251333 1.78237 0
M  V30 2990 H 271.493 0.365196 0.65737 0
M  V30 2991 H 273.464 2.13453 2.0852 0
M  V30 2992 C 272.213 0.897521 3.35916 0
M  V30 2993 H 271.536 1.7285 3.60504 0
M  V30 2994 H 272.976 0.846874 4.15456 0
M  V30 2995 C 271.435 -0.399674 3.34521 0
M  V30 2996 O 271.965 -1.41852 3.7582 0
M  V30 2997 N 270.171 -0.413893 2.87637 0
M  V30 2998 H 269.718 0.41571 2.54224 0
M  V30 2999 H 269.676 -1.28175 2.87086 0
M  V30 3000 N 273.449 -1.08991 1.13837 0
M  V30 3001 C 274.86 -1.62746 0.914917 0
M  V30 3002 C 275.211 -1.88403 -0.547594 0
M  V30 3003 O 274.336 -1.63706 -1.41525 0
M  V30 3004 C 274.931 -2.95662 1.65437 0
M  V30 3005 C 273.49 -3.46225 1.47666 0
M  V30 3006 C 272.637 -2.20562 1.6807 0
M  V30 3007 H 275.588 -0.922946 1.29102 0
M  V30 3008 H 275.609 -3.63825 1.11407 0
M  V30 3009 H 275.121 -2.76956 2.71877 0
M  V30 3010 H 273.222 -3.70046 0.435478 0
M  V30 3011 H 273.335 -4.23368 2.24268 0
M  V30 3012 H 271.699 -2.29439 1.10589 0
M  V30 3013 H 272.482 -2.0437 2.7584 0
M  V30 3014 N 274.927 -0.932562 -1.27047 0
M  V30 3015 C 275.837 -0.441219 -2.30414 0
M  V30 3016 C 276.853 0.480525 -1.67233 0
M  V30 3017 O 278.029 0.362151 -1.98117 0
M  V30 3018 C 275.094 0.293651 -3.45454 0
M  V30 3019 C 274.155 -0.663601 -4.2414 0
M  V30 3020 C 273.388 0.0362932 -5.33688 0
M  V30 3021 O 273.611 1.2548 -5.56427 0
M  V30 3022 O 272.545 -0.638015 -5.98509 0
M  V30 3023 H 276.371 -1.29962 -2.74488 0
M  V30 3024 H 273.956 -0.6981 -1.32087 0
M  V30 3025 H 275.838 0.707951 -4.15411 0
M  V30 3026 H 274.513 1.12758 -3.03426 0
M  V30 3027 H 273.42 -1.12768 -3.56699 0
M  V30 3028 H 274.753 -1.46489 -4.69896 0
M  V30 3029 N 276.405 1.4127 -0.698611 0
M  V30 3030 C 277.633 2.05503 -0.239992 0
M  V30 3031 C 278.048 1.52584 1.11191 0
M  V30 3032 O 277.405 0.675323 1.69545 0
M  V30 3033 C 277.456 3.60987 -0.192429 0
M  V30 3034 O 277.177 4.1195 -1.49094 0
M  V30 3035 C 278.678 4.42371 0.28681 0
M  V30 3036 H 275.898 0.661748 -0.111045 0
M  V30 3037 H 278.442 1.80987 -0.95205 0
M  V30 3038 H 276.597 3.84533 0.470472 0
M  V30 3039 H 277.011 5.06018 -1.38007 0
M  V30 3040 H 278.485 5.51344 0.26896 0
M  V30 3041 H 278.962 4.18699 1.32619 0
M  V30 3042 H 279.568 4.23897 -0.345201 0
M  V30 3043 N 277.883 0.443576 1.51229 0
M  V30 3044 C 279.123 -0.119889 2.04048 0
M  V30 3045 C 279.487 -1.39418 1.32009 0
M  V30 3046 O 280.688 -2.03829 1.75235 0
M  V30 3047 C 278.959 -0.327233 3.55899 0
M  V30 3048 S 280.518 -0.853208 4.30425 0
M  V30 3049 H 277.336 -0.028921 0.710412 0
M  V30 3050 H 279.938 0.604413 1.85922 0
M  V30 3051 H 278.642 0.606445 4.05895 0
M  V30 3052 H 278.173 -1.07844 3.7833 0
M  V30 3053 H 280.188 -2.13005 4.48155 0
M  V30 3054 N 279.361 -1.56624 0.175154 0
M  V30 3055 C 280.591 -2.01082 -0.474283 0
M  V30 3056 C 280.999 -1.05447 -1.57091 0
M  V30 3057 O 280.342 -0.0480595 -1.83637 0
M  V30 3058 C 280.404 -3.41963 -1.10911 0
M  V30 3059 C 280.068 -4.56742 -0.153666 0
M  V30 3060 C 281.065 -5.16076 0.629448 0
M  V30 3061 C 278.75 -5.02277 -0.0483776 0
M  V30 3062 C 280.744 -6.19377 1.50501 0
M  V30 3063 C 278.431 -6.05427 0.830768 0
M  V30 3064 C 279.429 -6.63849 1.60605 0
M  V30 3065 O 279.117 -7.64998 2.47049 0
M  V30 3066 H 278.849 -0.664261 -0.125432 0
M  V30 3067 H 281.403 -2.03549 0.275163 0
M  V30 3068 H 279.633 -3.36422 -1.90676 0
M  V30 3069 H 281.322 -3.70352 -1.66114 0
M  V30 3070 H 282.088 -4.81776 0.558297 0
M  V30 3071 H 277.967 -4.56513 -0.641611 0
M  V30 3072 H 281.511 -6.64906 2.1106 0
M  V30 3073 H 277.408 -6.39151 0.903107 0
M  V30 3074 H 278.176 -7.82336 2.40607 0
M  V30 3075 N 280.839 0.0985539 -1.57292 0
M  V30 3076 C 281.771 1.14595 -1.98496 0
M  V30 3077 C 282.784 1.36512 -0.887031 0
M  V30 3078 O 283.973 1.35225 -1.16518 0
M  V30 3079 C 281.073 2.50216 -2.28572 0
M  V30 3080 C 280.246 2.48624 -3.59868 0
M  V30 3081 C 279.305 3.66146 -3.7792 0
M  V30 3082 O 278.331 3.48795 -4.49812 0
M  V30 3083 N 279.533 4.85496 -3.18235 0
M  V30 3084 H 282.298 0.795277 -2.88956 0
M  V30 3085 H 279.859 0.287579 -1.59325 0
M  V30 3086 H 281.851 3.27432 -2.37845 0
M  V30 3087 H 280.421 2.77387 -1.44136 0
M  V30 3088 H 279.641 1.56978 -3.61596 0
M  V30 3089 H 280.929 2.44635 -4.46129 0
M  V30 3090 H 280.327 5.02497 -2.59833 0
M  V30 3091 H 278.884 5.60317 -3.32999 0
M  V30 3092 N 282.317 1.53212 0.369288 0
M  V30 3093 C 283.733 1.42902 0.710712 0
M  V30 3094 C 283.933 0.565135 1.93413 0
M  V30 3095 O 282.989 0.0461484 2.52458 0
M  V30 3096 C 284.302 2.86042 0.927382 0
M  V30 3097 C 285.85 2.9565 1.02762 0
M  V30 3098 C 286.325 4.39843 1.27679 0
M  V30 3099 N 287.816 4.43256 1.34457 0
M  V30 3100 C 288.551 5.51929 1.55439 0
M  V30 3101 N 288.047 6.70655 1.73762 0
M  V30 3102 N 289.84 5.39502 1.57779 0
M  V30 3103 H 281.991 2.07888 -0.435457 0
M  V30 3104 H 284.254 0.938661 -0.132739 0
M  V30 3105 H 283.96 3.51557 0.100287 0
M  V30 3106 H 283.834 3.29472 1.83653 0
M  V30 3107 H 286.221 2.30291 1.84527 0
M  V30 3108 H 286.302 2.5562 0.0959504 0
M  V30 3109 H 285.946 5.05774 0.464175 0
M  V30 3110 H 285.876 4.77443 2.22162 0
M  V30 3111 H 288.367 3.5769 1.21926 0
M  V30 3112 H 288.68 7.49248 1.89335 0
M  V30 3113 H 287.025 6.73648 1.70948 0
M  V30 3114 H 290.216 4.45713 1.43029 0
M  V30 3115 H 290.389 6.2426 1.7379 0
M  V30 3116 N 283.795 -0.628877 1.44509 0
M  V30 3117 C 284.725 -1.75187 1.54376 0
M  V30 3118 C 285.706 -1.65411 0.396618 0
M  V30 3119 O 286.891 -1.84137 0.617031 0
M  V30 3120 C 284.021 -3.13725 1.48976 0
M  V30 3121 C 282.975 -3.38291 2.62189 0
M  V30 3122 C 282.301 -4.76883 2.41841 0
M  V30 3123 C 283.601 -3.30632 4.04326 0
M  V30 3124 H 285.295 -1.67187 2.48373 0
M  V30 3125 H 282.841 -0.802909 1.19538 0
M  V30 3126 H 284.794 -3.92064 1.54478 0
M  V30 3127 H 283.518 -3.22515 0.514961 0
M  V30 3128 H 282.177 -2.62334 2.56079 0
M  V30 3129 H 281.825 -4.82378 1.42548 0
M  V30 3130 H 281.525 -4.94278 3.17747 0
M  V30 3131 H 283.049 -5.57449 2.49165 0
M  V30 3132 H 284.463 -3.98873 4.11793 0
M  V30 3133 H 282.86 -3.59561 4.80454 0
M  V30 3134 H 283.93 -2.28404 4.27738 0
M  V30 3135 N 285.273 -1.31445 -0.869486 0
M  V30 3136 C 286.22 -1.19135 -1.97675 0
M  V30 3137 C 287.19 -0.0770266 -1.65921 0
M  V30 3138 O 288.375 -0.249972 -1.89155 0
M  V30 3139 C 285.515 -0.905149 -3.33018 0
M  V30 3140 C 284.628 -2.10285 -3.77365 0
M  V30 3141 C 283.763 -1.75339 -5.01427 0
M  V30 3142 C 282.802 -2.91515 -5.38224 0
M  V30 3143 N 281.939 -2.56762 -6.53466 0
M  V30 3144 H 286.779 -2.13853 -2.07535 0
M  V30 3145 H 284.316 -1.06379 -1.01597 0
M  V30 3146 H 286.274 -0.719765 -4.10944 0
M  V30 3147 H 284.904 0.00519624 -3.228 0
M  V30 3148 H 283.956 -2.39899 -2.95216 0
M  V30 3149 H 285.268 -2.97237 -4.00564 0
M  V30 3150 H 284.422 -1.53266 -5.87022 0
M  V30 3151 H 283.161 -0.855801 -4.80133 0
M  V30 3152 H 282.166 -3.14237 -4.51149 0
M  V30 3153 H 283.391 -3.81985 -5.61484 0
M  V30 3154 H 281.337 -1.69526 -6.33717 0
M  V30 3155 H 281.254 -3.37243 -6.76612 0
M  V30 3156 H 282.522 -2.38083 -7.42251 0
M  V30 3157 N 286.751 1.08385 -1.14413 0
M  V30 3158 C 287.698 2.15311 -0.831265 0
M  V30 3159 C 288.668 1.64751 0.211292 0
M  V30 3160 O 289.853 1.90627 0.0811674 0
M  V30 3161 C 286.993 3.43658 -0.315143 0
M  V30 3162 C 286.106 4.08064 -1.41802 0
M  V30 3163 C 285.241 5.24207 -0.859126 0
M  V30 3164 C 284.28 5.80554 -1.93967 0
M  V30 3165 N 283.417 6.88042 -1.39793 0
M  V30 3166 H 288.257 2.41415 -1.74708 0
M  V30 3167 H 285.794 1.18474 -0.871909 0
M  V30 3168 H 287.752 4.172 0.00230884 0
M  V30 3169 H 286.382 3.17839 0.56378 0
M  V30 3170 H 285.434 3.3228 -1.85187 0
M  V30 3171 H 286.746 4.45962 -2.23427 0
M  V30 3172 H 285.9 6.04689 -0.49359 0
M  V30 3173 H 284.639 4.87699 -0.011932 0
M  V30 3174 H 283.644 4.98725 -2.31415 0
M  V30 3175 H 284.869 6.19121 -2.79046 0
M  V30 3176 H 282.815 6.53493 -0.572919 0
M  V30 3177 H 282.732 7.24767 -2.15054 0
M  V30 3178 H 284 7.72255 -1.0603 0
M  V30 3179 N 288.23 0.939286 1.26551 0
M  V30 3180 C 289.646 0.641304 1.46149 0
M  V30 3181 C 289.846 -0.805964 1.84679 0
M  V30 3182 O 288.902 -1.58278 1.96734 0
M  V30 3183 C 290.215 1.6011 2.54529 0
M  V30 3184 C 291.763 1.6106 2.68382 0
M  V30 3185 C 292.238 2.55765 3.79932 0
M  V30 3186 N 293.729 2.5404 3.87322 0
M  V30 3187 C 294.464 3.24004 4.73085 0
M  V30 3188 N 293.96 4.03388 5.63249 0
M  V30 3189 N 295.753 3.12965 4.66914 0
M  V30 3190 H 287.904 1.87478 0.998285 0
M  V30 3191 H 290.167 0.805559 0.499779 0
M  V30 3192 H 289.873 2.63412 2.33039 0
M  V30 3193 H 289.747 1.35171 3.52149 0
M  V30 3194 H 292.134 0.584835 2.89247 0
M  V30 3195 H 292.215 1.90053 1.71212 0
M  V30 3196 H 291.859 3.58458 3.5982 0
M  V30 3197 H 291.789 2.24063 4.76554 0
M  V30 3198 H 294.28 1.96396 3.22858 0
M  V30 3199 H 294.593 4.5373 6.25579 0
M  V30 3200 H 292.938 4.07489 5.63008 0
M  V30 3201 H 296.129 2.50432 3.95476 0
M  V30 3202 H 296.302 3.67759 5.33533 0
M  V30 3203 N 289.708 -1.40897 0.706093 0
M  V30 3204 C 290.948 -2.02916 0.245827 0
M  V30 3205 C 291.312 -1.54751 -1.13649 0
M  V30 3206 O 292.513 -2.08768 -1.69321 0
M  V30 3207 C 290.784 -3.56031 0.312537 0
M  V30 3208 S 292.343 -4.38741 -0.0721388 0
M  V30 3209 H 289.161 -0.704186 0.0982007 0
M  V30 3210 H 291.763 -1.72168 0.926207 0
M  V30 3211 H 290.467 -3.88579 1.32039 0
M  V30 3212 H 289.998 -3.91495 -0.386641 0
M  V30 3213 H 292.013 -4.78952 -1.29692 0
M  V30 3214 N 291.186 -0.45159 -1.50991 0
M  V30 3215 C 292.602 -0.104647 -1.59257 0
M  V30 3216 C 292.802 1.38728 -1.4614 0
M  V30 3217 O 291.858 2.15866 -1.30989 0
M  V30 3218 C 293.171 -0.637468 -2.93865 0
M  V30 3219 C 294.719 -0.599166 -3.07212 0
M  V30 3220 C 295.194 -1.1092 -4.44366 0
M  V30 3221 N 296.685 -1.06778 -4.50725 0
M  V30 3222 C 297.42 -1.43314 -5.55201 0
M  V30 3223 N 296.916 -1.87204 -6.67028 0
M  V30 3224 N 298.709 -1.3504 -5.45638 0
M  V30 3225 H 290.86 -1.42214 -1.57762 0
M  V30 3226 H 293.123 -0.586921 -0.744465 0
M  V30 3227 H 292.829 -1.68187 -3.08879 0
M  V30 3228 H 292.703 -0.0702139 -3.77135 0
M  V30 3229 H 295.09 0.436277 -2.91857 0
M  V30 3230 H 295.171 -1.20299 -2.25747 0
M  V30 3231 H 294.815 -2.14318 -4.60467 0
M  V30 3232 H 294.745 -0.481773 -5.24392 0
M  V30 3233 H 297.236 -0.745643 -3.70471 0
M  V30 3234 H 297.549 -2.13282 -7.42786 0
M  V30 3235 H 295.894 -1.91142 -6.68199 0
M  V30 3236 H 299.085 -1.00607 -4.57161 0
M  V30 3237 H 299.258 -1.63841 -6.26945 0
M  V30 3238 N 292.664 1.56529 -0.183458 0
M  V30 3239 C 293.574 2.22144 0.754272 0
M  V30 3240 C 294.59 1.21684 1.24374 0
M  V30 3241 O 295.766 1.54385 1.29333 0
M  V30 3242 C 292.831 2.85884 1.96141 0
M  V30 3243 C 291.892 4.01579 1.51765 0
M  V30 3244 C 291.125 4.6227 2.66725 0
M  V30 3245 O 291.348 4.21865 3.83909 0
M  V30 3246 O 290.282 5.51936 2.40104 0
M  V30 3247 H 294.108 3.02861 0.225527 0
M  V30 3248 H 291.693 1.49331 0.0453032 0
M  V30 3249 H 293.575 3.26253 2.66715 0
M  V30 3250 H 292.25 2.08154 2.47899 0
M  V30 3251 H 291.157 3.65856 0.781049 0
M  V30 3252 H 292.49 4.80938 1.04686 0
M  V30 3253 N 294.142 -0.090211 1.57342 0
M  V30 3254 C 295.052 -1.12735 2.05738 0
M  V30 3255 C 296.068 -1.43557 0.983231 0
M  V30 3256 O 297.244 -1.54101 1.29672 0
M  V30 3257 C 294.309 -2.42659 2.47624 0
M  V30 3258 C 293.37 -2.18975 3.69254 0
M  V30 3259 C 292.603 -3.42704 4.09133 0
M  V30 3260 O 292.826 -4.51127 3.49057 0
M  V30 3261 O 291.76 -3.32003 5.02053 0
M  V30 3262 H 295.586 -0.746279 2.94388 0
M  V30 3263 H 293.171 -0.303064 1.46294 0
M  V30 3264 H 295.053 -3.19155 2.7517 0
M  V30 3265 H 293.728 -2.80182 1.62109 0
M  V30 3266 H 292.635 -1.40244 3.46818 0
M  V30 3267 H 293.968 -1.86342 4.55563 0
M  V30 3268 N 295.62 -1.53406 -0.361157 0
M  V30 3269 C 296.53 -1.83122 -1.4664 0
M  V30 3270 C 297.546 -0.719943 -1.58407 0
M  V30 3271 O 298.722 -1.01046 -1.74218 0
M  V30 3272 C 295.787 -2.01891 -2.81853 0
M  V30 3273 C 294.848 -3.25784 -2.79577 0
M  V30 3274 C 294.081 -3.43648 -4.0834 0
M  V30 3275 O 294.304 -2.65714 -5.0473 0
M  V30 3276 O 293.238 -4.37018 -4.13883 0
M  V30 3277 H 297.064 -2.7703 -1.24451 0
M  V30 3278 H 294.649 -1.38841 -0.551678 0
M  V30 3279 H 296.531 -2.15782 -3.61962 0
M  V30 3280 H 295.206 -1.11173 -3.0401 0
M  V30 3281 H 294.113 -3.17312 -1.98151 0
M  V30 3282 H 295.446 -4.16439 -2.62373 0
M  V30 3283 N 297.098 0.621204 -1.44841 0
M  V30 3284 C 298.045 1.73267 -1.5247 0
M  V30 3285 C 299.015 1.6189 -0.371611 0
M  V30 3286 O 300.2 1.81668 -0.58321 0
M  V30 3287 C 297.34 3.11545 -1.48438 0
M  V30 3288 C 296.453 3.33827 -2.74196 0
M  V30 3289 C 295.588 4.62133 -2.61929 0
M  V30 3290 C 294.627 4.77627 -3.82804 0
M  V30 3291 N 293.764 5.97219 -3.69153 0
M  V30 3292 H 298.604 1.66082 -2.47428 0
M  V30 3293 H 296.141 0.810026 -1.22788 0
M  V30 3294 H 298.099 3.91528 -1.4409 0
M  V30 3295 H 296.729 3.1772 -0.570402 0
M  V30 3296 H 295.781 2.47715 -2.88689 0
M  V30 3297 H 297.093 3.41153 -3.6389 0
M  V30 3298 H 296.247 5.50291 -2.5547 0
M  V30 3299 H 294.986 4.57182 -1.69811 0
M  V30 3300 H 293.991 3.87896 -3.89637 0
M  V30 3301 H 295.216 4.84385 -4.75971 0
M  V30 3302 H 293.162 5.93339 -2.79794 0
M  V30 3303 H 293.079 6.05644 -4.52472 0
M  V30 3304 H 294.347 6.87912 -3.66603 0
M  V30 3305 N 298.576 1.31904 0.862503 0
M  V30 3306 C 299.822 1.22197 1.61851 0
M  V30 3307 C 300.155 -0.217641 1.92977 0
M  V30 3308 O 299.43 -1.15264 1.56666 0
M  V30 3309 C 299.713 2.07378 2.94391 0
M  V30 3310 C 299.566 3.59678 2.70096 0
M  V30 3311 C 300.885 1.92891 3.95577 0
M  V30 3312 H 298.004 0.445255 0.587296 0
M  V30 3313 H 300.646 1.6177 0.99651 0
M  V30 3314 H 298.796 1.73758 3.47477 0
M  V30 3315 H 300.468 4.03472 2.23625 0
M  V30 3316 H 298.711 3.82735 2.04197 0
M  V30 3317 H 299.382 4.14595 3.64438 0
M  V30 3318 H 301.858 2.22327 3.51724 0
M  V30 3319 H 300.734 2.54781 4.86187 0
M  V30 3320 H 300.995 0.894315 4.3296 0
M  V30 3321 N 300.054 -1.07777 1.14986 0
M  V30 3322 C 301.303 -1.79669 0.916617 0
M  V30 3323 C 301.616 -1.87474 -0.557917 0
M  V30 3324 O 302.822 -2.55845 -0.908617 0
M  V30 3325 C 301.278 -3.22848 1.59051 0
M  V30 3326 C 300.886 -3.23257 3.10176 0
M  V30 3327 C 302.63 -3.99379 1.43864 0
M  V30 3328 C 300.537 -4.61063 3.70372 0
M  V30 3329 H 299.467 -0.673349 0.33929 0
M  V30 3330 H 302.118 -1.21003 1.37951 0
M  V30 3331 H 300.5 -3.8168 1.0553 0
M  V30 3332 H 301.674 -2.74095 3.70417 0
M  V30 3333 H 299.989 -2.60222 3.25074 0
M  V30 3334 H 302.586 -5.0122 1.86232 0
M  V30 3335 H 302.929 -4.14511 0.385564 0
M  V30 3336 H 303.462 -3.47032 1.94457 0
M  V30 3337 H 300.201 -4.51135 4.7556 0
M  V30 3338 H 299.721 -5.1048 3.14913 0
M  V30 3339 H 301.4 -5.30034 3.71043 0
M  V30 3340 N 301.532 -0.945985 -1.26051 0
M  V30 3341 C 302.943 -0.638096 -1.75457 0
M  V30 3342 C 303.294 0.846672 -1.76991 0
M  V30 3343 O 302.419 1.66262 -1.38513 0
M  V30 3344 C 303.014 -1.15157 -3.18629 0
M  V30 3345 C 301.573 -0.894004 -3.65629 0
M  V30 3346 C 300.72 -1.29967 -2.44957 0
M  V30 3347 H 303.671 -1.12376 -1.1206 0
M  V30 3348 H 303.692 -0.507615 -3.77099 0
M  V30 3349 H 303.204 -2.23222 -3.1748 0
M  V30 3350 H 301.305 0.172057 -3.72203 0
M  V30 3351 H 301.418 -1.52439 -4.54202 0
M  V30 3352 H 299.782 -0.718078 -2.44368 0
M  V30 3353 H 300.565 -2.38935 -2.46505 0
M  V30 3354 N 303.011 1.40521 -0.713556 0
M  V30 3355 C 303.941 2.33381 -0.0743864 0
M  V30 3356 C 304.922 1.52784 0.747735 0
M  V30 3357 O 306.107 1.81258 0.697071 0
M  V30 3358 C 303.237 3.36748 0.849598 0
M  V30 3359 C 302.191 4.27793 0.133247 0
M  V30 3360 C 301.517 5.21679 1.17281 0
M  V30 3361 C 302.817 5.12415 -1.01134 0
M  V30 3362 H 304.511 2.87081 -0.850007 0
M  V30 3363 H 302.057 1.38034 -0.410201 0
M  V30 3364 H 304.01 4.00648 1.30612 0
M  V30 3365 H 302.734 2.81439 1.65709 0
M  V30 3366 H 301.393 3.65342 -0.303426 0
M  V30 3367 H 301.041 4.62677 1.9733 0
M  V30 3368 H 300.741 5.83435 0.698397 0
M  V30 3369 H 302.265 5.88456 1.62947 0
M  V30 3370 H 303.679 5.69781 -0.634274 0
M  V30 3371 H 302.076 5.83203 -1.41399 0
M  V30 3372 H 303.146 4.48514 -1.84292 0
M  V30 3373 N 304.489 0.459591 1.5075 0
M  V30 3374 C 305.399 -0.34613 2.32033 0
M  V30 3375 C 306.415 -1.00686 1.41909 0
M  V30 3376 O 307.591 -0.997361 1.7497 0
M  V30 3377 C 304.656 -1.42029 3.16273 0
M  V30 3378 C 303.717 -0.777362 4.22203 0
M  V30 3379 C 302.95 -1.80034 5.02418 0
M  V30 3380 O 303.173 -3.02544 4.83553 0
M  V30 3381 O 302.107 -1.37853 5.85901 0
M  V30 3382 H 305.933 0.318054 3.0203 0
M  V30 3383 H 303.518 0.221663 1.47746 0
M  V30 3384 H 305.4 -2.04275 3.68578 0
M  V30 3385 H 304.075 -2.06815 2.49016 0
M  V30 3386 H 302.982 -0.116256 3.73919 0
M  V30 3387 H 304.315 -0.172634 4.91897 0
M  V30 3388 N 305.967 -1.56429 0.191757 0
M  V30 3389 C 307.197 -2.01574 -0.452928 0
M  V30 3390 C 307.605 -1.07107 -1.55964 0
M  V30 3391 O 306.948 -0.067534 -1.83576 0
M  V30 3392 C 307.01 -3.43121 -1.07278 0
M  V30 3393 C 306.674 -4.56879 -0.105214 0
M  V30 3394 C 307.671 -5.15379 0.684149 0
M  V30 3395 C 305.356 -5.023 0.00489824 0
M  V30 3396 C 307.35 -6.17746 1.57062 0
M  V30 3397 C 305.037 -6.04511 0.894935 0
M  V30 3398 C 306.035 -6.62108 1.67637 0
M  V30 3399 O 305.723 -7.62335 2.55149 0
M  V30 3400 H 305.455 -0.665554 -0.118379 0
M  V30 3401 H 308.009 -2.03245 0.296737 0
M  V30 3402 H 306.239 -3.38425 -1.87097 0
M  V30 3403 H 307.928 -3.72093 -1.62177 0
M  V30 3404 H 308.694 -4.81157 0.609365 0
M  V30 3405 H 304.573 -4.57168 -0.593156 0
M  V30 3406 H 308.117 -6.6263 2.181 0
M  V30 3407 H 304.014 -6.38157 0.970847 0
M  V30 3408 H 304.782 -7.79741 2.48892 0
M  V30 3409 N 307.445 0.0818655 -1.57387 0
M  V30 3410 C 308.375 1.09885 -2.06028 0
M  V30 3411 C 309.356 1.4098 -0.951774 0
M  V30 3412 O 310.541 1.50781 -1.22387 0
M  V30 3413 C 307.671 2.4151 -2.4958 0
M  V30 3414 C 306.625 2.24792 -3.64215 0
M  V30 3415 C 305.951 3.61712 -3.93787 0
M  V30 3416 C 307.251 1.67749 -4.94629 0
M  V30 3417 H 308.945 0.694128 -2.91243 0
M  V30 3418 H 306.491 0.332448 -1.4011 0
M  V30 3419 H 308.444 3.12939 -2.82219 0
M  V30 3420 H 307.168 2.83943 -1.61381 0
M  V30 3421 H 305.827 1.55807 -3.31843 0
M  V30 3422 H 305.475 4.01697 -3.02735 0
M  V30 3423 H 305.175 3.51368 -4.70971 0
M  V30 3424 H 306.699 4.34587 -4.28913 0
M  V30 3425 H 308.113 2.29032 -5.25564 0
M  V30 3426 H 306.51 1.68128 -5.76067 0
M  V30 3427 H 307.58 0.638059 -4.80684 0
M  V30 3428 N 308.923 1.53595 0.353017 0
M  V30 3429 C 309.833 1.83897 1.45667 0
M  V30 3430 C 310.849 0.728334 1.58023 0
M  V30 3431 O 312.025 1.01968 1.73679 0
M  V30 3432 C 309.09 2.03383 2.80778 0
M  V30 3433 C 308.151 3.27262 2.77845 0
M  V30 3434 C 307.384 3.45809 4.06512 0
M  V30 3435 O 307.607 2.68387 5.03314 0
M  V30 3436 O 306.541 4.39207 4.11559 0
M  V30 3437 H 310.367 2.77686 1.2298 0
M  V30 3438 H 307.952 1.39132 0.544308 0
M  V30 3439 H 309.834 2.17698 3.60812 0
M  V30 3440 H 308.509 1.12783 3.03417 0
M  V30 3441 H 307.416 3.18359 1.96465 0
M  V30 3442 H 308.749 4.17824 2.60161 0
M  V30 3443 N 310.401 -0.613514 1.45168 0
M  V30 3444 C 311.364 -1.7065 1.53007 0
M  V30 3445 C 312.364 -1.5548 0.410184 0
M  V30 3446 O 313.554 -1.60656 0.673455 0
M  V30 3447 C 310.686 -3.09875 1.42093 0
M  V30 3448 H 311.879 -1.65068 2.50385 0
M  V30 3449 H 309.432 -0.828728 1.32521 0
M  V30 3450 H 310.167 -3.21039 0.458769 0
M  V30 3451 H 309.952 -3.22293 2.23315 0
M  V30 3452 H 311.442 -3.895 1.50598 0
M  V30 3453 N 311.879 -1.3236 -0.855495 0
M  V30 3454 C 313.128 -1.22226 -1.60448 0
M  V30 3455 C 313.441 0.214733 -1.94418 0
M  V30 3456 O 314.647 0.437917 -2.67945 0
M  V30 3457 C 313.103 -2.14063 -2.89318 0
M  V30 3458 C 312.711 -3.62839 -2.62777 0
M  V30 3459 C 314.455 -2.12764 -3.67331 0
M  V30 3460 C 312.362 -4.4664 -3.87643 0
M  V30 3461 H 311.292 -0.453904 -0.602069 0
M  V30 3462 H 313.943 -1.57314 -0.944698 0
M  V30 3463 H 312.325 -1.71889 -3.5675 0
M  V30 3464 H 313.499 -4.1335 -2.03662 0
M  V30 3465 H 311.814 -3.66261 -1.98096 0
M  V30 3466 H 314.411 -2.72611 -4.59987 0
M  V30 3467 H 314.754 -1.11841 -4.00995 0
M  V30 3468 H 315.287 -2.53214 -3.06802 0
M  V30 3469 H 312.026 -5.48373 -3.5912 0
M  V30 3470 H 311.546 -4.0088 -4.46156 0
M  V30 3471 H 313.225 -4.59597 -4.55389 0
M  V30 3472 N 313.357 1.07166 -1.15556 0
M  V30 3473 C 314.307 2.12649 -0.82247 0
M  V30 3474 C 315.291 1.59725 0.194129 0
M  V30 3475 O 316.483 1.76999 -0.00540402 0
M  V30 3476 C 313.612 3.41847 -0.315572 0
M  V30 3477 C 312.698 4.0162 -1.36244 0
M  V30 3478 N 313.089 4.35625 -2.5703 0
M  V30 3479 C 311.387 4.29114 -1.21562 0
M  V30 3480 C 312.088 4.83017 -3.24144 0
M  V30 3481 N 311.064 4.81906 -2.51531 0
M  V30 3482 H 314.866 2.36776 -1.74111 0
M  V30 3483 H 312.38 1.24622 -1.0413 0
M  V30 3484 H 314.377 4.16859 -0.0585855 0
M  V30 3485 H 313.037 3.19163 0.597105 0
M  V30 3486 H 314.048 4.26253 -2.94158 0
M  V30 3487 H 310.725 4.15919 -0.362988 0
M  V30 3488 H 312.115 5.18605 -4.27198 0
M  V30 3489 N 314.835 0.952656 1.25548 0
M  V30 3490 C 315.785 0.442033 2.23674 0
M  V30 3491 C 316.769 -0.467632 1.53955 0
M  V30 3492 O 317.961 -0.301006 1.74422 0
M  V30 3493 C 315.09 -0.280816 3.4215 0
M  V30 3494 C 314.176 0.646803 4.19139 0
M  V30 3495 N 314.567 1.77759 4.73535 0
M  V30 3496 C 312.865 0.454617 4.43677 0
M  V30 3497 C 313.566 2.35658 5.31827 0
M  V30 3498 N 312.542 1.64333 5.18166 0
M  V30 3499 H 316.344 1.30505 2.63336 0
M  V30 3500 H 313.858 0.809904 1.40763 0
M  V30 3501 H 315.855 -0.663747 4.11582 0
M  V30 3502 H 314.515 -1.14046 3.04012 0
M  V30 3503 H 315.526 2.15949 4.7073 0
M  V30 3504 H 312.203 -0.362312 4.15925 0
M  V30 3505 H 313.593 3.30998 5.84713 0
M  V30 3506 N 316.313 -1.40141 0.720998 0
M  V30 3507 C 317.243 -2.33339 0.0867621 0
M  V30 3508 C 318.224 -1.53178 -0.739622 0
M  V30 3509 O 319.409 -1.81625 -0.687449 0
M  V30 3510 C 316.539 -3.37194 -0.831728 0
M  V30 3511 C 315.493 -4.27857 -0.110558 0
M  V30 3512 C 314.819 -5.22294 -1.14513 0
M  V30 3513 C 316.119 -5.11872 1.0385 0
M  V30 3514 H 317.813 -2.86626 0.865219 0
M  V30 3515 H 315.359 -1.37814 0.417516 0
M  V30 3516 H 317.312 -4.01335 -1.28485 0
M  V30 3517 H 316.036 -2.82314 -1.64214 0
M  V30 3518 H 314.695 -3.65176 0.322797 0
M  V30 3519 H 314.343 -4.63717 -1.94874 0
M  V30 3520 H 314.043 -5.83797 -0.667446 0
M  V30 3521 H 315.567 -5.89312 -1.59824 0
M  V30 3522 H 316.981 -5.69436 0.664482 0
M  V30 3523 H 315.378 -5.82445 1.4449 0
M  V30 3524 H 316.448 -4.4753 1.86668 0
M  V30 3525 N 317.792 -0.46758 -1.50504 0
M  V30 3526 C 318.742 0.34698 -2.25344 0
M  V30 3527 C 319.726 0.964469 -1.2879 0
M  V30 3528 O 320.918 0.8776 -1.53711 0
M  V30 3529 C 318.047 1.43042 -3.1208 0
M  V30 3530 C 317.133 0.82084 -4.16081 0
M  V30 3531 N 317.524 -0.0567602 -5.05768 0
M  V30 3532 C 315.822 1.08517 -4.32597 0
M  V30 3533 C 316.523 -0.402343 -5.80307 0
M  V30 3534 N 315.499 0.221607 -5.43148 0
M  V30 3535 H 319.301 -0.329129 -2.92051 0
M  V30 3536 H 316.815 -0.281508 -1.59942 0
M  V30 3537 H 318.812 2.02712 -3.64299 0
M  V30 3538 H 317.472 2.10856 -2.46921 0
M  V30 3539 H 318.483 -0.425349 -5.1615 0
M  V30 3540 H 315.16 1.75855 -3.78657 0
M  V30 3541 H 316.55 -1.11834 -6.62528 0
M  V30 3542 N 319.27 1.56325 -0.20005 0
M  V30 3543 C 320.18 2.22931 0.730668 0
M  V30 3544 C 321.196 1.22997 1.23076 0
M  V30 3545 O 322.372 1.55748 1.27689 0
M  V30 3546 C 319.437 2.87948 1.93098 0
M  V30 3547 C 318.498 4.03166 1.47497 0
M  V30 3548 C 317.731 4.65073 2.61807 0
M  V30 3549 O 317.954 4.25913 3.79413 0
M  V30 3550 O 316.888 5.54452 2.34237 0
M  V30 3551 H 320.714 3.03084 0.193391 0
M  V30 3552 H 318.299 1.49371 0.0294621 0
M  V30 3553 H 320.181 3.29063 2.6324 0
M  V30 3554 H 318.856 2.10771 2.45677 0
M  V30 3555 H 317.763 3.66664 0.742201 0
M  V30 3556 H 319.096 4.82022 0.995796 0
M  V30 3557 N 320.748 -0.0735177 1.57428 0
M  V30 3558 C 321.658 -1.10547 2.06922 0
M  V30 3559 C 322.674 -1.42506 0.998402 0
M  V30 3560 O 323.85 -1.52717 1.31299 0
M  V30 3561 C 320.915 -2.40019 2.50184 0
M  V30 3562 C 319.976 -2.15046 3.71556 0
M  V30 3563 C 319.209 -3.38345 4.12745 0
M  V30 3564 O 319.432 -4.47399 3.53822 0
M  V30 3565 O 318.366 -3.2666 5.05546 0
M  V30 3566 H 322.192 -0.715013 2.95163 0
M  V30 3567 H 319.777 -0.287531 1.46607 0
M  V30 3568 H 321.659 -3.16218 2.78539 0
M  V30 3569 H 320.334 -2.78447 1.65072 0
M  V30 3570 H 319.241 -1.36558 3.48285 0
M  V30 3571 H 320.574 -1.81499 4.57514 0
M  V30 3572 N 322.226 -1.5378 -0.344866 0
M  V30 3573 C 323.472 -1.72158 -1.0832 0
M  V30 3574 C 323.827 -0.478218 -1.86362 0
M  V30 3575 O 323.12 0.529152 -1.84148 0
M  V30 3576 C 323.314 -2.92407 -2.05506 0
M  V30 3577 C 323.143 -4.28318 -1.37017 0
M  V30 3578 C 321.913 -4.92832 -1.11558 0
M  V30 3579 C 324.111 -5.08086 -0.797071 0
M  V30 3580 N 322.093 -6.12619 -0.396358 0
M  V30 3581 C 323.464 -6.1965 -0.208336 0
M  V30 3582 C 325.519 -4.92986 -0.697787 0
M  V30 3583 C 324.222 -7.17763 0.470023 0
M  V30 3584 C 326.248 -5.91391 -0.033171 0
M  V30 3585 C 325.61 -7.02292 0.544599 0
M  V30 3586 H 321.709 -0.683017 -0.380805 0
M  V30 3587 H 324.293 -1.91211 -0.366961 0
M  V30 3588 H 322.464 -2.74857 -2.74423 0
M  V30 3589 H 324.196 -2.9951 -2.72169 0
M  V30 3590 H 320.951 -4.52362 -1.40234 0
M  V30 3591 H 321.375 -6.7698 -0.0515119 0
M  V30 3592 H 326.017 -4.07414 -1.13022 0
M  V30 3593 H 323.735 -8.0291 0.914351 0
M  V30 3594 H 327.321 -5.81784 0.0430009 0
M  V30 3595 H 326.201 -7.77129 1.05073 0
M  V30 3596 N 323.704 0.605807 -1.45491 0
M  V30 3597 C 324.634 1.72709 -1.57143 0
M  V30 3598 C 325.615 1.6476 -0.422884 0
M  V30 3599 O 326.8 1.83132 -0.646247 0
M  V30 3600 C 323.93 3.11316 -1.53948 0
M  V30 3601 C 322.884 3.34077 -2.67537 0
M  V30 3602 C 322.21 4.72975 -2.49397 0
M  V30 3603 C 323.51 3.24158 -4.09535 0
M  V30 3604 H 325.204 1.63214 -2.51001 0
M  V30 3605 H 322.75 0.78379 -1.208 0
M  V30 3606 H 324.703 3.89557 -1.60696 0
M  V30 3607 H 323.427 3.21655 -0.566205 0
M  V30 3608 H 322.086 2.58227 -2.6022 0
M  V30 3609 H 321.734 4.8005 -1.50205 0
M  V30 3610 H 321.434 4.8916 -3.25571 0
M  V30 3611 H 322.958 5.53414 -2.58002 0
M  V30 3612 H 324.372 3.92271 -4.18086 0
M  V30 3613 H 322.769 3.51872 -4.86113 0
M  V30 3614 H 323.839 2.2157 -4.31317 0
M  V30 3615 N 325.182 1.32811 0.848464 0
M  V30 3616 C 326.431 1.23075 1.59798 0
M  V30 3617 C 326.744 -0.204419 1.94529 0
M  V30 3618 O 327.95 -0.423701 2.68173 0
M  V30 3619 C 326.406 2.15594 2.88179 0
M  V30 3620 C 326.014 3.64228 2.60849 0
M  V30 3621 C 327.758 2.14709 3.66197 0
M  V30 3622 C 325.665 4.48689 3.85269 0
M  V30 3623 H 324.595 0.457091 0.599653 0
M  V30 3624 H 327.246 1.57813 0.936342 0
M  V30 3625 H 325.628 1.73778 3.55833 0
M  V30 3626 H 326.802 4.14424 2.01467 0
M  V30 3627 H 325.117 3.67306 1.96151 0
M  V30 3628 H 327.714 2.75046 4.58534 0
M  V30 3629 H 328.057 1.13966 4.00397 0
M  V30 3630 H 328.59 2.54837 3.05455 0
M  V30 3631 H 325.329 5.5027 3.56207 0
M  V30 3632 H 324.849 4.03241 4.44024 0
M  V30 3633 H 326.528 4.62006 4.52946 0
M  V30 3634 N 326.66 -1.06551 1.16123 0
M  V30 3635 C 327.607 -2.13961 0.865414 0
M  V30 3636 C 328.577 -1.65066 -0.185055 0
M  V30 3637 O 329.762 -1.90732 -0.05083 0
M  V30 3638 C 326.902 -3.43113 0.369776 0
M  V30 3639 C 326.015 -4.05756 1.48276 0
M  V30 3640 C 325.15 -5.22773 0.942414 0
M  V30 3641 C 324.189 -5.77395 2.03179 0
M  V30 3642 N 323.326 -6.85731 1.50721 0
M  V30 3643 H 328.166 -2.38605 1.78527 0
M  V30 3644 H 325.703 -1.17072 0.890646 0
M  V30 3645 H 327.661 -4.17151 0.0640643 0
M  V30 3646 H 326.291 -3.18695 -0.513143 0
M  V30 3647 H 325.343 -3.29292 1.9045 0
M  V30 3648 H 326.655 -4.42351 2.30493 0
M  V30 3649 H 325.809 -6.03827 0.589729 0
M  V30 3650 H 324.548 -4.87618 0.0895191 0
M  V30 3651 H 323.553 -4.94981 2.3932 0
M  V30 3652 H 324.778 -6.14603 2.8886 0
M  V30 3653 H 322.724 -6.52499 0.676811 0
M  V30 3654 H 322.641 -7.21254 2.26557 0
M  V30 3655 H 323.909 -7.7047 1.18303 0
M  V30 3656 N 328.138 -0.959301 -1.25041 0
M  V30 3657 C 329.386 -0.615393 -1.92503 0
M  V30 3658 C 329.707 0.850969 -1.75452 0
M  V30 3659 O 328.977 1.60658 -1.12098 0
M  V30 3660 H 327.557 -0.224613 -0.712431 0
M  V30 3661 H 330.219 -1.21855 -1.5211 0
M  V30 3662 H 329.315 -0.848738 -3.00338 0
M  V30 3663 N 329.616 1.39756 -0.72842 0
M  V30 3664 C 330.841 2.05472 -0.282159 0
M  V30 3665 C 331.266 1.54549 1.07221 0
M  V30 3666 O 330.624 0.686372 1.67805 0
M  V30 3667 C 330.672 3.59462 -0.286264 0
M  V30 3668 O 329.776 4.05918 0.728298 0
M  V30 3669 H 329.117 0.651226 -0.129618 0
M  V30 3670 H 331.647 1.78915 -0.992499 0
M  V30 3671 H 331.657 4.07798 -0.128373 0
M  V30 3672 H 330.332 3.95889 -1.27456 0
M  V30 3673 H 328.909 3.69012 0.537081 0
M  V30 3674 N 331.094 0.475555 1.50254 0
M  V30 3675 C 332.024 -0.30611 2.31485 0
M  V30 3676 C 333.005 -0.986228 1.38591 0
M  V30 3677 O 334.19 -0.982541 1.67511 0
M  V30 3678 C 331.32 -1.38588 3.1845 0
M  V30 3679 C 330.274 -0.827115 4.19932 0
M  V30 3680 C 329.6 -2.00551 4.95665 0
M  V30 3681 C 330.9 0.16463 5.2204 0
M  V30 3682 H 332.594 0.371866 2.97082 0
M  V30 3683 H 330.14 0.180282 1.42867 0
M  V30 3684 H 332.093 -1.94023 3.74076 0
M  V30 3685 H 330.817 -2.09269 2.50747 0
M  V30 3686 H 329.476 -0.294702 3.65414 0
M  V30 3687 H 329.124 -2.6994 4.2443 0
M  V30 3688 H 328.824 -1.63784 5.64313 0
M  V30 3689 H 330.348 -2.56468 5.54127 0
M  V30 3690 H 331.762 -0.300699 5.72511 0
M  V30 3691 H 330.159 0.446813 5.98434 0
M  V30 3692 H 331.229 1.08905 4.72512 0
M  V30 3693 N 332.573 -1.56217 0.208337 0
M  V30 3694 C 333.82 -1.97949 -0.42692 0
M  V30 3695 C 334.148 -1.09562 -1.60706 0
M  V30 3696 O 333.403 -0.137616 -1.95216 0
M  V30 3697 C 333.702 -3.45441 -0.916797 0
M  V30 3698 C 333.368 -4.50646 0.151391 0
M  V30 3699 C 332.03 -4.79139 0.444867 0
M  V30 3700 C 334.382 -5.13811 0.874492 0
M  V30 3701 C 331.71 -5.68084 1.46619 0
M  V30 3702 C 334.062 -6.03861 1.88506 0
M  V30 3703 C 332.726 -6.30704 2.18559 0
M  V30 3704 H 331.996 -0.724345 -0.156221 0
M  V30 3705 H 334.643 -1.89006 0.308084 0
M  V30 3706 H 332.948 -3.51521 -1.73032 0
M  V30 3707 H 334.645 -3.75094 -1.41794 0
M  V30 3708 H 331.235 -4.28511 -0.0875068 0
M  V30 3709 H 335.419 -4.91879 0.660996 0
M  V30 3710 H 330.675 -5.87151 1.7048 0
M  V30 3711 H 334.849 -6.51861 2.45051 0
M  V30 3712 H 332.476 -6.99424 2.97843 0
M  V30 3713 N 334.051 0.0651679 -1.57465 0
M  V30 3714 C 335.462 0.616213 -1.76238 0
M  V30 3715 C 335.813 1.7756 -0.834689 0
M  V30 3716 O 334.938 2.1639 -0.0204156 0
M  V30 3717 C 335.533 1.12462 -3.1959 0
M  V30 3718 C 334.092 1.62147 -3.39684 0
M  V30 3719 C 333.239 0.543739 -2.71917 0
M  V30 3720 H 336.19 -0.161022 -1.57881 0
M  V30 3721 H 336.211 1.99324 -3.24114 0
M  V30 3722 H 335.723 0.280592 -3.87084 0
M  V30 3723 H 333.824 2.48854 -2.77313 0
M  V30 3724 H 333.937 1.69385 -4.48158 0
M  V30 3725 H 332.301 0.990352 -2.34657 0
M  V30 3726 H 333.084 -0.290216 -3.42071 0
M  V30 3727 N 335.529 1.53961 0.336706 0
M  V30 3728 C 336.462 1.77255 1.43722 0
M  V30 3729 C 337.44 0.62193 1.50236 0
M  V30 3730 O 338.624 0.857874 1.67847 0
M  V30 3731 C 335.751 1.87733 2.81912 0
M  V30 3732 C 334.797 3.09933 2.92991 0
M  V30 3733 S 335.63 4.68836 2.58753 0
M  V30 3734 C 336.786 4.82202 3.99039 0
M  V30 3735 H 337.019 2.70322 1.23748 0
M  V30 3736 H 334.552 1.44917 0.532777 0
M  V30 3737 H 336.51 1.94455 3.61521 0
M  V30 3738 H 335.171 0.956666 2.99177 0
M  V30 3739 H 334.364 3.1396 3.94265 0
M  V30 3740 H 333.966 3.01472 2.21338 0
M  V30 3741 H 336.258 4.64032 4.9364 0
M  V30 3742 H 337.201 5.84298 4.00002 0
M  V30 3743 H 337.609 4.10604 3.87382 0
M  V30 3744 N 337.007 -0.598083 1.45811 0
M  V30 3745 C 337.97 -1.69018 1.54808 0
M  V30 3746 C 338.97 -1.55037 0.426652 0
M  V30 3747 O 340.16 -1.59932 0.690456 0
M  V30 3748 C 337.292 -3.0835 1.45371 0
M  V30 3749 H 338.485 -1.62403 2.52121 0
M  V30 3750 H 336.038 -0.814626 1.33392 0
M  V30 3751 H 336.773 -3.20534 0.492793 0
M  V30 3752 H 336.558 -3.19907 2.26721 0
M  V30 3753 H 338.048 -3.8788 1.54721 0
M  V30 3754 N 338.485 -1.33259 -0.841409 0
M  V30 3755 C 339.448 -1.23221 -1.9326 0
M  V30 3756 C 340.448 -0.151895 -1.60081 0
M  V30 3757 O 341.638 -0.403246 -1.69468 0
M  V30 3758 C 338.77 -0.898123 -3.28856 0
M  V30 3759 H 339.963 -2.2021 -2.03587 0
M  V30 3760 H 337.516 -1.17281 -1.03319 0
M  V30 3761 H 338.251 0.0693841 -3.24226 0
M  V30 3762 H 338.036 -1.67934 -3.54317 0
M  V30 3763 H 339.526 -0.852563 -4.08805 0
M  V30 3764 N 339.963 1.05934 -1.16686 0
M  V30 3765 C 341.374 1.60263 -0.957745 0
M  V30 3766 C 341.725 1.89789 0.49745 0
M  V30 3767 O 340.85 1.67401 1.37135 0
M  V30 3768 C 341.445 2.91172 -1.73218 0
M  V30 3769 C 340.004 3.42188 -1.56794 0
M  V30 3770 C 339.151 2.16028 -1.73859 0
M  V30 3771 H 342.102 0.888392 -1.31504 0
M  V30 3772 H 342.123 3.60744 -1.21014 0
M  V30 3773 H 341.635 2.6965 -2.79124 0
M  V30 3774 H 339.736 3.68762 -0.533437 0
M  V30 3775 H 339.849 4.17273 -2.35414 0
M  V30 3776 H 338.213 2.26426 -1.16633 0
M  V30 3777 H 338.996 1.96985 -2.81161 0
M  V30 3778 N 341.441 0.965919 1.2453 0
M  V30 3779 C 342.687 0.62776 1.92839 0
M  V30 3780 C 343.02 -0.834694 1.75347 0
M  V30 3781 O 342.295 -1.60031 1.10546 0
M  V30 3782 C 342.578 1.00109 3.45905 0
M  V30 3783 C 342.431 2.52011 3.72573 0
M  V30 3784 C 343.75 0.53435 4.36844 0
M  V30 3785 H 340.869 0.229537 0.700344 0
M  V30 3786 H 343.511 1.2046 1.46933 0
M  V30 3787 H 341.661 0.510238 3.85135 0
M  V30 3788 H 343.333 3.08559 3.42912 0
M  V30 3789 H 341.576 2.95287 3.17786 0
M  V30 3790 H 342.247 2.73183 4.79661 0
M  V30 3791 H 344.723 0.955565 4.04979 0
M  V30 3792 H 343.599 0.824152 5.42678 0
M  V30 3793 H 343.86 -0.565589 4.38467 0
M  V30 3794 N 342.919 -1.39368 0.735821 0
M  V30 3795 C 343.849 -2.33234 0.111506 0
M  V30 3796 C 344.83 -1.53954 -0.723334 0
M  V30 3797 O 346.015 -1.82344 -0.668147 0
M  V30 3798 C 343.145 -3.38057 -0.795917 0
M  V30 3799 C 342.099 -4.2795 -0.065172 0
M  V30 3800 C 341.425 -5.23479 -1.08967 0
M  V30 3801 C 342.725 -5.10741 1.09273 0
M  V30 3802 H 344.419 -2.85692 0.895571 0
M  V30 3803 H 341.965 -1.37364 0.432109 0
M  V30 3804 H 343.918 -4.02675 -1.24221 0
M  V30 3805 H 342.642 -2.8404 -1.61211 0
M  V30 3806 H 341.301 -3.64813 0.361511 0
M  V30 3807 H 340.949 -4.65758 -1.89944 0
M  V30 3808 H 340.649 -5.84472 -0.605489 0
M  V30 3809 H 342.173 -5.90974 -1.53565 0
M  V30 3810 H 343.587 -5.68699 0.724841 0
M  V30 3811 H 341.984 -5.8088 1.50659 0
M  V30 3812 H 343.054 -4.45525 1.91404 0
M  V30 3813 N 344.397 -0.483516 -1.5 0
M  V30 3814 C 345.643 0.0672592 -2.02688 0
M  V30 3815 C 345.976 1.38247 -1.36387 0
M  V30 3816 O 345.251 1.88131 -0.493675 0
M  V30 3817 C 345.534 0.238109 -3.59312 0
M  V30 3818 C 345.387 -1.099 -4.36168 0
M  V30 3819 C 346.706 0.986916 -4.28892 0
M  V30 3820 H 343.825 0.0229696 -0.736642 0
M  V30 3821 H 346.467 -0.631527 -1.79197 0
M  V30 3822 H 344.617 0.8333 -3.79458 0
M  V30 3823 H 346.289 -1.73172 -4.27562 0
M  V30 3824 H 344.532 -1.69261 -3.99416 0
M  V30 3825 H 345.203 -0.932954 -5.44059 0
M  V30 3826 H 347.679 0.482302 -4.13295 0
M  V30 3827 H 346.555 1.07527 -5.38265 0
M  V30 3828 H 346.816 2.0265 -3.92919 0
M  V30 3829 N 345.875 1.56104 -0.216619 0
M  V30 3830 C 347.124 1.97348 0.416744 0
M  V30 3831 C 347.437 1.10715 1.6125 0
M  V30 3832 O 348.643 1.41836 2.31506 0
M  V30 3833 C 347.099 3.51059 0.792835 0
M  V30 3834 C 346.707 4.46387 -0.379828 0
M  V30 3835 C 348.451 4.01026 1.39208 0
M  V30 3836 C 346.358 5.91397 0.0184223 0
M  V30 3837 H 345.288 0.736942 0.159475 0
M  V30 3838 H 347.939 1.80827 -0.31205 0
M  V30 3839 H 346.321 3.63162 1.57891 0
M  V30 3840 H 347.495 4.46029 -1.15737 0
M  V30 3841 H 345.81 4.06734 -0.891979 0
M  V30 3842 H 348.407 5.0686 1.70286 0
M  V30 3843 H 348.75 3.46587 2.30614 0
M  V30 3844 H 349.283 3.92125 0.669537 0
M  V30 3845 H 346.022 6.49807 -0.862002 0
M  V30 3846 H 345.542 5.94961 0.760384 0
M  V30 3847 H 347.221 6.45455 0.446818 0
M  V30 3848 N 347.353 -0.0568162 1.57498 0
M  V30 3849 C 348.263 -1.08346 2.08083 0
M  V30 3850 C 349.279 -1.41439 1.01346 0
M  V30 3851 O 350.455 -1.51316 1.32912 0
M  V30 3852 C 347.52 -2.37352 2.52715 0
M  V30 3853 C 346.581 -2.11093 3.73816 0
M  V30 3854 C 345.814 -3.33949 4.1631 0
M  V30 3855 O 346.037 -4.43622 3.58547 0
M  V30 3856 O 344.971 -3.21279 5.08983 0
M  V30 3857 H 348.797 -0.683667 2.95905 0
M  V30 3858 H 346.382 -0.271965 1.46904 0
M  V30 3859 H 348.264 -3.13246 2.81877 0
M  V30 3860 H 346.939 -2.76681 1.68016 0
M  V30 3861 H 345.846 -1.32856 3.49714 0
M  V30 3862 H 347.179 -1.76637 4.59413 0
M  V30 3863 N 348.832 -1.54138 -0.328536 0
M  V30 3864 C 349.795 -1.82462 -1.38709 0
M  V30 3865 C 350.795 -0.696229 -1.44946 0
M  V30 3866 O 351.985 -0.964535 -1.4506 0
M  V30 3867 C 349.117 -1.98018 -2.77492 0
M  V30 3868 H 350.31 -2.77037 -1.14851 0
M  V30 3869 H 347.863 -1.45779 -0.563751 0
M  V30 3870 H 348.598 -1.05637 -3.06613 0
M  V30 3871 H 348.383 -2.80124 -2.74359 0
M  V30 3872 H 349.873 -2.21396 -3.54081 0
M  V30 3873 N 350.31 0.590341 -1.46126 0
M  V30 3874 C 351.587 1.35029 -1.41515 0
M  V30 3875 C 351.967 2.10888 -0.0946472 0
M  V30 3876 O 351.315 2.08998 0.923693 0
M  V30 3877 C 351.525 2.28269 -2.63997 0
M  V30 3878 C 352.873 2.90338 -3.09821 0
M  V30 3879 O 353.897 2.38585 -2.64492 0
M  V30 3880 O 352.756 3.84321 -3.88535 0
M  V30 3881 H 349.85 0.606317 -0.562413 0
M  V30 3882 H 352.396 0.611994 -1.58281 0
M  V30 3883 H 351.168 1.71591 -3.51671 0
M  V30 3884 H 350.791 3.0945 -2.49652 0
M  V30 3885 N 351.788 1.33704 0.83433 0
M  V30 3886 C 352.738 1.20899 1.93306 0
M  V30 3887 C 353.722 0.110783 1.60518 0
M  V30 3888 O 354.914 0.339331 1.73717 0
M  V30 3889 C 352.043 0.955018 3.29749 0
M  V30 3890 C 351.129 2.09587 3.68692 0
M  V30 3891 N 351.52 3.34621 3.79292 0
M  V30 3892 C 349.818 2.00358 3.98463 0
M  V30 3893 C 350.519 4.09472 4.13167 0
M  V30 3894 N 349.495 3.37954 4.25779 0
M  V30 3895 H 353.297 2.15665 1.99664 0
M  V30 3896 H 350.811 1.25777 1.02732 0
M  V30 3897 H 352.808 0.844208 4.08263 0
M  V30 3898 H 351.468 0.0159317 3.24696 0
M  V30 3899 H 352.479 3.69313 3.63082 0
M  V30 3900 H 349.156 1.14137 4.01596 0
M  V30 3901 H 350.546 5.17391 4.28668 0
M  V30 3902 N 353.266 -1.05314 1.17247 0
M  V30 3903 C 354.216 -2.11313 0.856196 0
M  V30 3904 C 355.2 -1.60013 -0.168694 0
M  V30 3905 O 356.392 -1.76968 0.0335624 0
M  V30 3906 C 353.521 -3.41301 0.369917 0
M  V30 3907 C 352.607 -3.99401 1.42616 0
M  V30 3908 N 352.998 -4.31481 2.63928 0
M  V30 3909 C 351.296 -4.27126 1.28373 0
M  V30 3910 C 351.997 -4.77799 3.31787 0
M  V30 3911 N 350.973 -4.77843 2.59166 0
M  V30 3912 H 354.775 -2.33976 1.77856 0
M  V30 3913 H 352.289 -1.2295 1.06099 0
M  V30 3914 H 354.286 -4.16713 0.124897 0
M  V30 3915 H 352.946 -3.20072 -0.546253 0
M  V30 3916 H 353.957 -4.21519 3.00902 0
M  V30 3917 H 350.634 -4.15289 0.429111 0
M  V30 3918 H 352.024 -5.11743 4.35395 0
M  V30 3919 N 354.744 -0.972509 -1.24016 0
M  V30 3920 C 355.677 -0.45117 -2.23696 0
M  V30 3921 C 356.655 0.477378 -1.55434 0
M  V30 3922 O 357.839 0.407647 -1.84039 0
M  V30 3923 C 354.966 0.34818 -3.36906 0
M  V30 3924 C 354.012 -0.523355 -4.23277 0
M  V30 3925 S 354.845 -1.96647 -4.98087 0
M  V30 3926 C 356.001 -1.17604 -6.14752 0
M  V30 3927 H 356.234 -1.29588 -2.67571 0
M  V30 3928 H 353.767 -0.777903 -1.33372 0
M  V30 3929 H 355.725 0.803387 -4.02562 0
M  V30 3930 H 354.386 1.16792 -2.91579 0
M  V30 3931 H 353.579 0.0906181 -5.03919 0
M  V30 3932 H 353.181 -0.914485 -3.62647 0
M  V30 3933 H 355.473 -0.433434 -6.76112 0
M  V30 3934 H 356.416 -1.95701 -6.8052 0
M  V30 3935 H 356.824 -0.698295 -5.60164 0
M  V30 3936 N 356.222 1.38976 -0.743202 0
M  V30 3937 C 357.132 2.3434 -0.110399 0
M  V30 3938 C 358.148 1.58741 0.712559 0
M  V30 3939 O 359.324 1.9099 0.639125 0
M  V30 3940 C 356.389 3.37812 0.780012 0
M  V30 3941 C 355.45 4.29263 -0.0561319 0
M  V30 3942 C 354.683 5.27793 0.791875 0
M  V30 3943 O 354.906 5.33043 2.03031 0
M  V30 3944 O 353.84 6.01512 0.216183 0
M  V30 3945 H 357.666 2.90129 -0.897714 0
M  V30 3946 H 355.251 1.40643 -0.503966 0
M  V30 3947 H 357.133 4.01194 1.28923 0
M  V30 3948 H 355.808 2.84395 1.546 0
M  V30 3949 H 354.715 3.69076 -0.611056 0
M  V30 3950 H 356.048 4.85907 -0.784531 0
M  V30 3951 N 357.7 0.491464 1.49741 0
M  V30 3952 C 359.116 0.146835 1.58923 0
M  V30 3953 C 359.316 -1.34804 1.49767 0
M  V30 3954 O 358.372 -2.12317 1.36667 0
M  V30 3955 C 359.685 0.715157 2.92072 0
M  V30 3956 C 361.233 0.680407 3.05515 0
M  V30 3957 C 361.708 1.22663 4.41269 0
M  V30 3958 N 363.199 1.18691 4.47735 0
M  V30 3959 C 363.934 1.57984 5.51207 0
M  V30 3960 N 363.43 2.04824 6.6183 0
M  V30 3961 N 365.223 1.49459 5.41866 0
M  V30 3962 H 357.374 1.46347 1.53936 0
M  V30 3963 H 359.637 0.606453 0.728642 0
M  V30 3964 H 359.343 1.76317 3.04311 0
M  V30 3965 H 359.217 0.17018 3.76816 0
M  V30 3966 H 361.604 -0.358743 2.92911 0
M  V30 3967 H 361.685 1.26242 2.22478 0
M  V30 3968 H 361.329 2.26451 4.54623 0
M  V30 3969 H 361.259 0.620637 5.2293 0
M  V30 3970 H 363.75 0.843605 3.68364 0
M  V30 3971 H 364.063 2.32901 7.3687 0
M  V30 3972 H 362.408 2.08791 6.62896 0
M  V30 3973 H 365.599 1.12692 4.54333 0
M  V30 3974 H 365.772 1.80406 6.22381 0
M  V30 3975 N 359.178 -1.55987 0.224894 0
M  V30 3976 C 360.111 -2.16413 -0.723929 0
M  V30 3977 C 361.089 -1.10952 -1.18863 0
M  V30 3978 O 362.273 -1.39225 -1.27077 0
M  V30 3979 C 359.4 -2.74711 -1.98121 0
M  V30 3980 C 358.446 -3.9303 -1.6562 0
M  V30 3981 S 359.279 -5.29817 -0.778058 0
M  V30 3982 C 360.435 -5.91555 -2.04483 0
M  V30 3983 H 360.668 -2.96555 -0.210347 0
M  V30 3984 H 358.201 -1.54397 0.00955457 0
M  V30 3985 H 360.159 -3.08938 -2.70311 0
M  V30 3986 H 358.82 -1.94555 -2.46591 0
M  V30 3987 H 358.013 -4.32334 -2.59043 0
M  V30 3988 H 357.615 -3.59966 -1.01491 0
M  V30 3989 H 359.907 -6.07732 -2.99446 0
M  V30 3990 H 360.85 -6.87498 -1.69563 0
M  V30 3991 H 361.258 -5.20419 -2.18688 0
M  V30 3992 N 360.656 0.0484629 -1.57525 0
M  V30 3993 C 361.586 1.0549 -2.08313 0
M  V30 3994 C 362.567 1.38929 -0.981463 0
M  V30 3995 O 363.752 1.48151 -1.25558 0
M  V30 3996 C 360.882 2.36162 -2.54646 0
M  V30 3997 C 359.836 2.17016 -3.68901 0
M  V30 3998 C 359.162 3.53278 -4.01371 0
M  V30 3999 C 360.462 1.57219 -4.98076 0
M  V30 4000 H 362.156 0.632195 -2.92649 0
M  V30 4001 H 359.702 0.302654 -1.40784 0
M  V30 4002 H 361.655 3.06882 -2.88793 0
M  V30 4003 H 360.379 2.80456 -1.67368 0
M  V30 4004 H 359.038 1.48733 -3.35073 0
M  V30 4005 H 358.686 3.95185 -3.11188 0
M  V30 4006 H 358.386 3.41299 -4.78318 0
M  V30 4007 H 359.91 4.25391 -4.38035 0
M  V30 4008 H 361.324 2.17832 -5.30304 0
M  V30 4009 H 359.721 1.55871 -5.79503 0
M  V30 4010 H 360.791 0.535956 -4.81929 0
M  V30 4011 N 362.134 1.5431 0.320358 0
M  V30 4012 C 363.044 1.86946 1.41734 0
M  V30 4013 C 364.06 0.761689 1.56443 0
M  V30 4014 O 365.236 1.05629 1.71477 0
M  V30 4015 C 362.301 2.09293 2.76401 0
M  V30 4016 C 361.362 3.33082 2.70841 0
M  V30 4017 C 360.595 3.54353 3.99086 0
M  V30 4018 O 360.818 2.79002 4.97508 0
M  V30 4019 O 359.752 4.47838 4.0215 0
M  V30 4020 H 363.578 2.80232 1.17062 0
M  V30 4021 H 361.163 1.40255 0.514673 0
M  V30 4022 H 363.045 2.25303 3.56113 0
M  V30 4023 H 361.72 1.19194 3.00956 0
M  V30 4024 H 360.627 3.22454 1.89668 0
M  V30 4025 H 361.96 4.23249 2.5124 0
M  V30 4026 N 363.613 -0.582584 1.46437 0
M  V30 4027 C 364.543 -1.70187 1.59871 0
M  V30 4028 C 365.524 -1.64066 0.449042 0
M  V30 4029 O 366.709 -1.82081 0.6753 0
M  V30 4030 C 363.839 -3.08827 1.58881 0
M  V30 4031 C 362.793 -3.29779 2.72819 0
M  V30 4032 C 362.119 -4.68947 2.5689 0
M  V30 4033 C 363.419 -3.17601 4.1464 0
M  V30 4034 H 365.113 -1.592 2.53566 0
M  V30 4035 H 362.659 -0.764472 1.22032 0
M  V30 4036 H 364.612 -3.86951 1.66873 0
M  V30 4037 H 363.336 -3.20713 0.617306 0
M  V30 4038 H 361.995 -2.54054 2.64296 0
M  V30 4039 H 361.643 -4.77599 1.57823 0
M  V30 4040 H 361.343 -4.83919 3.33312 0
M  V30 4041 H 362.867 -5.4924 2.66773 0
M  V30 4042 H 364.281 -3.8557 4.24274 0
M  V30 4043 H 362.678 -3.44094 4.9165 0
M  V30 4044 H 363.748 -2.14681 4.34788 0
M  V30 4045 N 365.091 -1.34144 -0.827227 0
M  V30 4046 C 366.338 -1.26258 -1.58319 0
M  V30 4047 C 366.666 0.168595 -1.93768 0
M  V30 4048 O 365.921 1.12877 -1.59866 0
M  V30 4049 C 366.22 -2.09464 -2.89585 0
M  V30 4050 C 365.886 -3.58521 -2.73448 0
M  V30 4051 C 364.548 -3.99155 -2.68754 0
M  V30 4052 C 366.9 -4.53189 -2.57428 0
M  V30 4053 C 364.228 -5.32656 -2.45957 0
M  V30 4054 C 366.58 -5.86864 -2.36163 0
M  V30 4055 C 365.244 -6.26667 -2.29879 0
M  V30 4056 H 364.514 -0.462013 -0.579332 0
M  V30 4057 H 367.161 -1.65845 -0.95748 0
M  V30 4058 H 365.466 -1.62692 -3.56425 0
M  V30 4059 H 367.163 -2.00712 -3.47154 0
M  V30 4060 H 363.753 -3.26264 -2.77939 0
M  V30 4061 H 367.937 -4.22696 -2.60081 0
M  V30 4062 H 363.193 -5.62519 -2.39546 0
M  V30 4063 H 367.367 -6.59813 -2.22754 0
M  V30 4064 H 364.994 -7.30049 -2.11975 0
M  V30 4065 N 366.569 1.04691 -1.17803 0
M  V30 4066 C 367.479 2.16057 -0.914151 0
M  V30 4067 C 368.495 1.73589 0.119503 0
M  V30 4068 O 369.671 2.01308 -0.0609468 0
M  V30 4069 C 366.736 3.4394 -0.436603 0
M  V30 4070 C 365.797 4.00825 -1.53746 0
M  V30 4071 C 365.03 5.22604 -1.0826 0
M  V30 4072 O 365.253 5.70367 0.0612244 0
M  V30 4073 O 364.187 5.7186 -1.87775 0
M  V30 4074 H 368.013 2.41169 -1.84584 0
M  V30 4075 H 365.598 1.1453 -0.959334 0
M  V30 4076 H 367.48 4.21024 -0.178057 0
M  V30 4077 H 366.155 3.20316 0.466869 0
M  V30 4078 H 365.062 3.25158 -1.84995 0
M  V30 4079 H 366.395 4.28778 -2.41683 0
M  V30 4080 N 368.047 0.979072 1.23499 0
M  V30 4081 C 368.979 0.476271 2.24197 0
M  V30 4082 C 369.992 -0.421166 1.57258 0
M  V30 4083 O 371.181 -0.225515 1.7707 0
M  V30 4084 C 368.281 -0.330503 3.37285 0
M  V30 4085 C 367.454 0.559744 4.33804 0
M  V30 4086 C 366.513 -0.192954 5.25846 0
M  V30 4087 O 365.539 0.416978 5.67671 0
M  V30 4088 N 366.741 -1.47932 5.61334 0
M  V30 4089 H 369.506 1.34211 2.67969 0
M  V30 4090 H 367.067 0.852189 1.37657 0
M  V30 4091 H 369.059 -0.842361 3.95836 0
M  V30 4092 H 367.629 -1.09734 2.92707 0
M  V30 4093 H 366.849 1.25245 3.73775 0
M  V30 4094 H 368.137 1.1665 4.95248 0
M  V30 4095 H 367.535 -1.9964 5.29302 0
M  V30 4096 H 366.092 -1.93664 6.22364 0
M  V30 4097 N 369.525 -1.3858 0.750561 0
M  V30 4098 C 370.473 -2.32339 0.110162 0
M  V30 4099 C 371.467 -1.53864 -0.708674 0
M  V30 4100 O 372.673 -1.69417 -0.608112 0
M  V30 4101 H 369.048 -0.751812 0.0168275 0
M  V30 4102 H 371.019 -2.83959 0.917053 0
M  V30 4103 C 369.768 -3.39043 -0.771067 0
M  V30 4104 H 369.091 -3.99517 -0.150374 0
M  V30 4105 H 370.531 -4.07061 -1.1865 0
M  V30 4106 C 368.99 -2.77365 -1.91234 0
M  V30 4107 O 369.52 -2.66434 -3.00626 0
M  V30 4108 N 367.726 -2.35219 -1.70646 0
M  V30 4109 H 367.273 -2.4431 -0.81673 0
M  V30 4110 H 367.231 -1.94294 -2.47178 0
M  V30 4111 N 371.003 -0.499398 -1.49478 0
M  V30 4112 C 372.419 -0.155261 -1.58843 0
M  V30 4113 C 372.619 1.34008 -1.50479 0
M  V30 4114 O 371.675 2.11589 -1.37791 0
M  V30 4115 C 372.988 -0.730636 -2.91689 0
M  V30 4116 C 374.536 -0.696599 -3.0515 0
M  V30 4117 C 375.011 -1.25001 -4.40612 0
M  V30 4118 N 376.502 -1.21064 -4.47099 0
M  V30 4119 C 377.237 -1.60905 -5.50361 0
M  V30 4120 N 376.733 -2.08331 -6.60735 0
M  V30 4121 N 378.526 -1.52331 -5.41065 0
M  V30 4122 H 370.677 -1.47162 -1.53158 0
M  V30 4123 H 372.94 -0.610309 -0.725415 0
M  V30 4124 H 372.646 -1.77928 -3.03372 0
M  V30 4125 H 372.52 -0.190161 -3.7672 0
M  V30 4126 H 374.907 0.343204 -2.93097 0
M  V30 4127 H 374.988 -1.2742 -2.21806 0
M  V30 4128 H 374.632 -2.28859 -4.53416 0
M  V30 4129 H 374.562 -0.64836 -5.22593 0
M  V30 4130 H 377.053 -0.863128 -3.67911 0
M  V30 4131 H 377.366 -2.36805 -7.35624 0
M  V30 4132 H 375.711 -2.12304 -6.6178 0
M  V30 4133 H 378.902 -1.151 -4.53729 0
M  V30 4134 H 379.075 -1.83704 -6.21415 0
M  V30 4135 N 372.481 1.55866 -0.233164 0
M  V30 4136 C 373.758 1.90471 0.444988 0
M  V30 4137 C 374.138 1.15209 1.7689 0
M  V30 4138 O 373.486 0.265119 2.26957 0
M  V30 4139 C 373.696 3.4333 0.626559 0
M  V30 4140 C 375.044 4.14319 0.92871 0
M  V30 4141 O 376.068 3.48993 0.712926 0
M  V30 4142 O 374.927 5.29846 1.33887 0
M  V30 4143 H 372.021 0.792347 0.236885 0
M  V30 4144 H 374.567 1.67437 -0.276211 0
M  V30 4145 H 373.339 3.90095 -0.306822 0
M  V30 4146 H 372.962 3.72181 1.39881 0
M  V30 4147 N 373.959 -0.0401083 1.57549 0
M  V30 4148 C 375.375 -0.395556 1.54621 0
M  V30 4149 C 375.575 -1.77281 0.957799 0
M  V30 4150 O 374.631 -2.45888 0.574031 0
M  V30 4151 C 375.944 -0.307535 2.99123 0
M  V30 4152 C 377.492 -0.385425 3.10618 0
M  V30 4153 C 377.967 -0.326973 4.56831 0
M  V30 4154 N 379.458 -0.386102 4.61588 0
M  V30 4155 C 380.193 -0.363591 5.72246 0
M  V30 4156 N 379.689 -0.29402 6.92176 0
M  V30 4157 N 381.482 -0.412503 5.60584 0
M  V30 4158 H 373.633 0.861325 1.94152 0
M  V30 4159 H 375.896 0.326445 0.890021 0
M  V30 4160 H 375.602 0.638461 3.45856 0
M  V30 4161 H 375.476 -1.10552 3.60636 0
M  V30 4162 H 377.863 -1.32185 2.63839 0
M  V30 4163 H 377.944 0.44171 2.51957 0
M  V30 4164 H 377.588 0.605738 5.04275 0
M  V30 4165 H 377.518 -1.17207 5.13391 0
M  V30 4166 H 380.009 -0.442832 3.75296 0
M  V30 4167 H 380.322 -0.28164 7.72287 0
M  V30 4168 H 378.667 -0.260232 6.94513 0
M  V30 4169 H 381.858 -0.464769 4.65787 0
M  V30 4170 H 382.031 -0.391492 6.46816 0
M  V30 4171 N 375.437 -1.54477 -0.31217 0
M  V30 4172 C 376.686 -1.72438 -1.04633 0
M  V30 4173 C 376.999 -0.511163 -1.88803 0
M  V30 4174 O 378.205 -0.572341 -2.65399 0
M  V30 4175 C 376.661 -3.05043 -1.9099 0
M  V30 4176 C 376.269 -4.33806 -1.11877 0
M  V30 4177 C 378.013 -3.32364 -2.64073 0
M  V30 4178 C 375.92 -5.57467 -1.97445 0
M  V30 4179 H 374.85 -0.642647 -0.394361 0
M  V30 4180 H 377.501 -1.80966 -0.303929 0
M  V30 4181 H 375.883 -2.90451 -2.69173 0
M  V30 4182 H 377.057 -4.59199 -0.383843 0
M  V30 4183 H 375.372 -4.13336 -0.504252 0
M  V30 4184 H 377.969 -4.21951 -3.28423 0
M  V30 4185 H 378.312 -2.50745 -3.32314 0
M  V30 4186 H 378.845 -3.47875 -1.92944 0
M  V30 4187 H 375.584 -6.41722 -1.33692 0
M  V30 4188 H 375.104 -5.36277 -2.6864 0
M  V30 4189 H 376.783 -5.94303 -2.5576 0
M  V30 4190 N 376.915 0.57481 -1.46744 0
M  V30 4191 C 377.845 1.69337 -1.60771 0
M  V30 4192 C 378.826 1.63825 -0.457736 0
M  V30 4193 O 380.011 1.8172 -0.684947 0
M  V30 4194 C 377.141 3.0798 -1.60517 0
M  V30 4195 C 376.095 3.28327 -2.74564 0
M  V30 4196 C 375.421 4.67578 -2.59373 0
M  V30 4197 C 376.721 3.15398 -4.16319 0
M  V30 4198 H 378.415 1.57853 -2.54407 0
M  V30 4199 H 375.961 0.75799 -1.22436 0
M  V30 4200 H 377.914 3.86061 -1.68923 0
M  V30 4201 H 376.638 3.20381 -0.634305 0
M  V30 4202 H 375.297 2.52649 -2.65639 0
M  V30 4203 H 374.945 4.76755 -1.60353 0
M  V30 4204 H 374.645 4.82144 -3.35873 0
M  V30 4205 H 376.169 5.47817 -2.69682 0
M  V30 4206 H 377.583 3.83315 -4.26313 0
M  V30 4207 H 375.98 3.41482 -4.93468 0
M  V30 4208 H 377.05 2.12372 -4.3592 0
M  V30 4209 N 378.394 1.34581 0.820102 0
M  V30 4210 C 379.622 1.3018 1.60813 0
M  V30 4211 C 380.037 -0.123551 1.88395 0
M  V30 4212 O 379.394 -1.07148 1.47735 0
M  V30 4213 C 379.445 2.09312 2.94739 0
M  V30 4214 O 379.166 3.46288 2.68358 0
M  V30 4215 C 380.667 2.1234 3.89136 0
M  V30 4216 H 377.887 0.447726 0.499782 0
M  V30 4217 H 380.431 1.77237 1.02017 0
M  V30 4218 H 378.586 1.65889 3.50085 0
M  V30 4219 H 379 3.87227 3.53774 0
M  V30 4220 H 380.474 2.72126 4.80262 0
M  V30 4221 H 380.951 1.11854 4.24718 0
M  V30 4222 H 381.557 2.55864 3.39726 0
M  V30 4223 N 379.872 -1.04064 1.18357 0
M  V30 4224 C 381.283 -1.58719 0.98312 0
M  V30 4225 C 381.634 -1.90556 -0.467193 0
M  V30 4226 O 380.759 -1.69561 -1.34454 0
M  V30 4227 C 381.354 -2.88379 1.77828 0
M  V30 4228 C 379.913 -3.3965 1.62218 0
M  V30 4229 C 379.06 -2.13235 1.77274 0
M  V30 4230 H 382.011 -0.867359 1.32901 0
M  V30 4231 H 382.032 -3.58773 1.26737 0
M  V30 4232 H 381.544 -2.65176 2.83379 0
M  V30 4233 H 379.645 -3.67866 0.592036 0
M  V30 4234 H 379.758 -4.13475 2.42023 0
M  V30 4235 H 378.122 -2.24542 1.20221 0
M  V30 4236 H 378.905 -1.92487 2.8426 0
M  V30 4237 N 381.35 -0.985608 -1.22978 0
M  V30 4238 C 382.26 -0.538548 -2.28335 0
M  V30 4239 C 383.276 0.409163 -1.69121 0
M  V30 4240 O 384.452 0.277797 -1.99475 0
M  V30 4241 C 381.517 0.146867 -3.46389 0
M  V30 4242 C 380.578 -0.842896 -4.20944 0
M  V30 4243 C 379.811 -0.190095 -5.33361 0
M  V30 4244 O 380.034 1.01767 -5.61248 0
M  V30 4245 O 378.968 -0.891289 -5.95264 0
M  V30 4246 H 382.794 -1.41487 -2.68729 0
M  V30 4247 H 380.379 -0.753495 -1.29007 0
M  V30 4248 H 382.261 0.531125 -4.1804 0
M  V30 4249 H 380.936 0.997871 -3.07935 0
M  V30 4250 H 379.843 -1.27795 -3.51595 0
M  V30 4251 H 381.176 -1.66287 -4.6326 0
M  V30 4252 N 382.828 1.3818 -0.7579 0
M  V30 4253 C 383.776 2.32277 -0.122482 0
M  V30 4254 C 384.77 1.54238 0.700505 0
M  V30 4255 O 385.976 1.69737 0.599119 0
M  V30 4256 H 382.351 0.751712 -0.0208143 0
M  V30 4257 H 384.322 2.83469 -0.932099 0
M  V30 4258 C 383.071 3.39447 0.753076 0
M  V30 4259 H 382.394 3.99591 0.129184 0
M  V30 4260 H 383.834 4.07684 1.16489 0
M  V30 4261 C 382.293 2.78375 1.8976 0
M  V30 4262 O 382.823 2.68025 2.99208 0
M  V30 4263 N 381.029 2.36121 1.69397 0
M  V30 4264 H 380.576 2.4474 0.803762 0
M  V30 4265 H 380.534 1.95602 2.46145 0
M  V30 4266 N 384.306 0.507319 1.49211 0
M  V30 4267 C 385.722 0.163682 1.58758 0
M  V30 4268 C 385.922 -1.33208 1.51188 0
M  V30 4269 O 384.978 -2.10855 1.38911 0
M  V30 4270 C 386.291 0.746095 2.91297 0
M  V30 4271 C 387.839 0.712773 3.04776 0
M  V30 4272 C 388.314 1.27336 4.39943 0
M  V30 4273 N 389.805 1.23433 4.46451 0
M  V30 4274 C 390.54 1.63821 5.495 0
M  V30 4275 N 390.036 2.11832 6.5962 0
M  V30 4276 N 391.829 1.55198 5.4025 0
M  V30 4277 H 383.98 1.47972 1.52375 0
M  V30 4278 H 386.243 0.614147 0.722168 0
M  V30 4279 H 385.949 1.79534 3.02424 0
M  V30 4280 H 385.823 0.210137 3.76614 0
M  V30 4281 H 388.21 -0.327656 2.93275 0
M  V30 4282 H 388.291 1.28595 2.21127 0
M  V30 4283 H 387.935 2.3126 4.52196 0
M  V30 4284 H 387.865 0.676066 5.22242 0
M  V30 4285 H 390.356 0.882627 3.67448 0
M  V30 4286 H 390.669 2.40703 7.34358 0
M  V30 4287 H 389.014 2.1581 6.60644 0
M  V30 4288 H 392.205 1.17505 4.53112 0
M  V30 4289 H 392.378 1.86997 6.20432 0
M  V30 4290 N 385.784 -1.5574 0.241426 0
M  V30 4291 C 386.731 -2.21149 -0.660432 0
M  V30 4292 C 387.701 -1.17356 -1.17545 0
M  V30 4293 O 388.886 -1.45784 -1.23093 0
M  V30 4294 C 386.026 -2.91059 -1.85414 0
M  V30 4295 C 385.139 -4.09495 -1.37616 0
M  V30 4296 C 384.274 -4.67135 -2.529 0
M  V30 4297 C 383.313 -5.77831 -2.01936 0
M  V30 4298 N 382.45 -6.29677 -3.10566 0
M  V30 4299 H 387.29 -2.97845 -0.095955 0
M  V30 4300 H 384.827 -1.47057 -0.0356024 0
M  V30 4301 H 386.785 -3.29788 -2.5553 0
M  V30 4302 H 385.415 -2.16846 -2.39118 0
M  V30 4303 H 384.467 -3.76117 -0.569235 0
M  V30 4304 H 385.779 -4.89423 -0.962618 0
M  V30 4305 H 384.933 -5.08409 -3.31067 0
M  V30 4306 H 383.672 -3.86411 -2.97553 0
M  V30 4307 H 382.677 -5.36039 -1.22238 0
M  V30 4308 H 383.902 -6.60402 -1.58259 0
M  V30 4309 H 381.848 -5.5186 -3.54664 0
M  V30 4310 H 381.765 -7.04783 -2.73526 0
M  V30 4311 H 383.033 -6.75609 -3.88809 0
M  V30 4312 N 387.262 0.0317525 -1.57568 0
M  V30 4313 C 388.212 1.04101 -2.02847 0
M  V30 4314 C 389.196 1.3219 -0.917317 0
M  V30 4315 O 390.388 1.31819 -1.18121 0
M  V30 4316 C 387.517 2.34295 -2.5092 0
M  V30 4317 C 386.603 2.09308 -3.68851 0
M  V30 4318 N 386.994 1.5437 -4.81667 0
M  V30 4319 C 385.292 2.39604 -3.76172 0
M  V30 4320 C 385.993 1.45126 -5.63306 0
M  V30 4321 N 384.969 1.92589 -5.08341 0
M  V30 4322 H 388.771 0.610217 -2.87495 0
M  V30 4323 H 386.285 0.238108 -1.60645 0
M  V30 4324 H 388.282 3.07404 -2.81617 0
M  V30 4325 H 386.942 2.78055 -1.67677 0
M  V30 4326 H 387.953 1.22678 -5.03161 0
M  V30 4327 H 384.63 2.86457 -3.03724 0
M  V30 4328 H 386.02 1.03163 -6.63933 0
M  V30 4329 N 388.74 1.54641 0.303973 0
M  V30 4330 C 389.98 1.75516 1.04755 0
M  V30 4331 C 390.344 0.528211 1.84591 0
M  V30 4332 O 391.545 0.614645 2.61678 0
M  V30 4333 C 389.816 3.00685 1.93193 0
M  V30 4334 S 391.375 3.42549 2.74237 0
M  V30 4335 H 388.193 0.616987 0.353339 0
M  V30 4336 H 390.795 1.92842 0.321292 0
M  V30 4337 H 389.499 3.8811 1.33411 0
M  V30 4338 H 389.03 2.85937 2.70191 0
M  V30 4339 H 391.045 2.99386 3.95705 0
M  V30 4340 N 390.218 -0.567019 1.47046 0
M  V30 4341 C 391.629 -1.14916 1.47143 0
M  V30 4342 C 391.98 -1.94954 0.220767 0
M  V30 4343 O 391.105 -2.05602 -0.67505 0
M  V30 4344 C 391.7 -2.09069 2.666 0
M  V30 4345 C 390.259 -2.62575 2.69687 0
M  V30 4346 C 389.406 -1.38755 2.40088 0
M  V30 4347 H 392.357 -0.354126 1.54699 0
M  V30 4348 H 392.378 -2.92789 2.43011 0
M  V30 4349 H 391.89 -1.50789 3.57609 0
M  V30 4350 H 389.991 -3.24681 1.82792 0
M  V30 4351 H 390.104 -3.04239 3.70102 0
M  V30 4352 H 388.468 -1.69098 1.90468 0
M  V30 4353 H 389.251 -0.822822 3.33293 0
M  V30 4354 O 391.735 -1.44981 -0.71153 0
M  V30 4355 H 392.426 -1.37671 -1.36258 0
M  V30 END ATOM
M  V30 BEGIN BOND
M  V30 END BOND
M  V30 END CTAB
M  END
$$$$
