drugbank_target|P48181 Acetylcholine receptor subunit beta-type unc-29 (DB00848)
 OpenBabel12092121013D

  0  0  0     0  0            999 V3000
M  V30 BEGIN CTAB
M  V30 COUNTS 8052 8146 0 0 0
M  V30 BEGIN ATOM
M  V30 1 H -0.908 1.98254 -0.117106 0
M  V30 2 N 0 1.576 0 0
M  V30 3 C 0.933 2.03868 1.02534 0
M  V30 4 C 1.911 0.928543 1.3348 0
M  V30 5 O 3.095 1.19667 1.45644 0
M  V30 6 C 0.222 2.43627 2.35294 0
M  V30 7 C -0.732 3.65373 2.2001 0
M  V30 8 S 0.101 5.13292 1.52614 0
M  V30 9 C 1.257 5.56322 2.86805 0
M  V30 10 H 1.49 2.90518 0.631377 0
M  V30 11 H -0.977 1.52953 0.210867 0
M  V30 12 H 0.981 2.67203 3.11629 0
M  V30 13 H -0.358 1.57376 2.7183 0
M  V30 14 H -1.165 3.90944 3.18086 0
M  V30 15 H -1.563 3.418 1.51819 0
M  V30 16 H 0.729 5.58782 3.83104 0
M  V30 17 H 1.672 6.56266 2.65933 0
M  V30 18 H 2.08 4.83886 2.90714 0
M  V30 19 N 1.4781 -0.272755 1.55222 0
M  V30 20 C 2.8941 -0.619959 1.47067 0
M  V30 21 C 3.0941 -1.895 0.684978 0
M  V30 22 O 2.1501 -2.51675 0.203931 0
M  V30 23 C 3.4631 -0.746693 2.91282 0
M  V30 24 C 5.0111 -0.840731 3.01497 0
M  V30 25 C 5.4861 -0.99924 4.46967 0
M  V30 26 N 6.9771 -1.06476 4.50796 0
M  V30 27 C 7.7121 -1.20621 5.6057 0
M  V30 28 N 7.2081 -1.31483 6.80209 0
M  V30 29 N 9.0011 -1.23733 5.48312 0
M  V30 30 H 1.1521 0.564606 2.04758 0
M  V30 31 H 3.4151 0.191177 0.928523 0
M  V30 32 H 3.1211 0.119753 3.51496 0
M  V30 33 H 2.9951 -1.6269 3.40311 0
M  V30 34 H 5.3821 -1.69764 2.41379 0
M  V30 35 H 5.4631 0.0640874 2.5572 0
M  V30 36 H 5.1071 -0.146984 5.07687 0
M  V30 37 H 5.0371 -1.91871 4.90401 0
M  V30 38 H 7.5281 -0.993196 3.64615 0
M  V30 39 H 7.8411 -1.42111 7.59621 0
M  V30 40 H 6.1861 -1.28487 6.8302 0
M  V30 41 H 9.3771 -1.14877 4.53785 0
M  V30 42 H 9.5501 -1.34412 6.33906 0
M  V30 43 N 2.9562 -1.48159 -0.537278 0
M  V30 44 C 4.1842 -1.59454 -1.31841 0
M  V30 45 C 4.5992 -0.252065 -1.8711 0
M  V30 46 O 3.9562 0.757621 -1.66031 0
M  V30 47 C 4.0072 -2.63546 -2.47439 0
M  V30 48 O 3.7282 -3.92583 -1.94449 0
M  V30 49 C 5.2292 -2.85212 -3.39366 0
M  V30 50 H 2.4492 -0.53785 -0.401196 0
M  V30 51 H 4.9932 -1.93932 -0.648891 0
M  V30 52 H 3.1482 -2.31946 -3.1029 0
M  V30 53 H 3.5622 -4.49629 -2.70063 0
M  V30 54 H 5.0362 -3.61863 -4.16844 0
M  V30 55 H 5.5132 -1.93765 -3.94147 0
M  V30 56 H 6.1192 -3.18086 -2.82314 0
M  V30 57 N 4.4343 0.785586 -1.36625 0
M  V30 58 C 5.3823 1.91978 -1.31329 0
M  V30 59 C 6.3763 1.68162 -0.204416 0
M  V30 60 O 7.5823 1.76122 -0.371645 0
M  V30 61 H 3.9573 0.631087 -0.408942 0
M  V30 62 H 5.9283 1.93562 -2.27104 0
M  V30 63 C 4.6773 3.29055 -1.12329 0
M  V30 64 H 4.0003 3.4795 -1.96903 0
M  V30 65 H 5.4403 4.08756 -1.12671 0
M  V30 66 C 3.8993 3.36461 0.171861 0
M  V30 67 O 4.4293 3.84576 1.16035 0
M  V30 68 N 2.6353 2.89782 0.217846 0
M  V30 69 H 2.1823 2.50819 -0.587183 0
M  V30 70 H 2.1403 2.95119 1.08408 0
M  V30 71 N 5.9124 1.20967 1.01018 0
M  V30 72 C 7.3284 0.965905 1.27053 0
M  V30 73 C 7.5284 -0.350785 1.98423 0
M  V30 74 O 6.5844 -1.07773 2.28344 0
M  V30 75 C 7.8974 2.15294 2.09926 0
M  V30 76 C 9.4454 2.19463 2.23171 0
M  V30 77 C 9.9204 3.3767 3.09424 0
M  V30 78 N 11.4114 3.37724 3.17012 0
M  V30 79 C 12.1464 4.25837 3.83993 0
M  V30 80 N 11.6424 5.24138 4.53047 0
M  V30 81 N 13.4354 4.1366 3.80581 0
M  V30 82 H 5.5864 2.0565 0.531194 0
M  V30 83 H 7.8494 0.90024 0.297106 0
M  V30 84 H 7.5554 3.10684 1.64828 0
M  V30 85 H 7.4294 2.13923 3.10672 0
M  V30 86 H 9.8164 1.24632 2.6749 0
M  V30 87 H 9.8974 2.2488 1.21912 0
M  V30 88 H 9.5414 4.32791 2.65808 0
M  V30 89 H 9.4714 3.29491 4.10784 0
M  V30 90 H 11.9624 2.6658 2.6785 0
M  V30 91 H 12.2754 5.87684 5.01844 0
M  V30 92 H 10.6204 5.28068 4.5185 0
M  V30 93 H 13.8114 3.36127 3.25785 0
M  V30 94 H 13.9844 4.82538 4.32505 0
M  V30 95 N 7.3905 -1.2043 1.01659 0
M  V30 96 C 8.3205 -2.25466 0.607226 0
M  V30 97 C 9.3015 -1.65853 -0.377716 0
M  V30 98 O 10.4865 -1.92409 -0.263149 0
M  V30 99 C 7.6165 -3.47256 -0.0552949 0
M  V30 100 C 6.5705 -4.19462 0.850632 0
M  V30 101 C 5.8965 -5.34673 0.0538859 0
M  V30 102 C 7.1965 -4.75603 2.15868 0
M  V30 103 H 8.8905 -2.59962 1.48526 0
M  V30 104 H 6.4365 -1.2496 0.715605 0
M  V30 105 H 8.3895 -4.19917 -0.353233 0
M  V30 106 H 7.1135 -3.11924 -0.968045 0
M  V30 107 H 5.7725 -3.48667 1.13257 0
M  V30 108 H 5.4205 -4.95585 -0.860514 0
M  V30 109 H 5.1205 -5.83913 0.657192 0
M  V30 110 H 6.6445 -6.10138 -0.237598 0
M  V30 111 H 8.0585 -5.40083 1.92311 0
M  V30 112 H 6.4555 -5.3528 2.71284 0
M  V30 113 H 7.5255 -3.94346 2.82169 0
M  V30 114 N 8.8686 -0.792821 -1.36206 0
M  V30 115 C 10.0936 -0.377701 -2.03932 0
M  V30 116 C 10.5186 0.998947 -1.59382 0
M  V30 117 O 9.8766 1.64421 -0.763903 0
M  V30 118 C 9.9246 -0.453635 -3.57735 0
M  V30 119 O 9.0286 0.538151 -4.08874 0
M  V30 120 H 8.3696 -0.159855 -0.644471 0
M  V30 121 H 10.8996 -1.07488 -1.7409 0
M  V30 122 H 10.9096 -0.318464 -4.06755 0
M  V30 123 H 9.5846 -1.45784 -3.89512 0
M  V30 124 H 8.1616 0.364359 -3.71116 0
M  V30 125 N 10.3467 1.47872 -0.545128 0
M  V30 126 C 11.5927 2.03385 -0.0247951 0
M  V30 127 C 11.9477 1.41325 1.30556 0
M  V30 128 O 11.2407 0.5552 1.8338 0
M  V30 129 C 11.4347 3.57131 0.13867 0
M  V30 130 C 11.2637 4.34097 -1.17429 0
M  V30 131 C 10.0337 4.74458 -1.73831 0
M  V30 132 C 12.2317 4.6998 -2.08861 0
M  V30 133 N 10.2137 5.3602 -2.99258 0
M  V30 134 C 11.5847 5.31719 -3.18866 0
M  V30 135 C 13.6397 4.5191 -2.09003 0
M  V30 136 C 12.3427 5.77295 -4.29096 0
M  V30 137 C 14.3687 4.98477 -3.18237 0
M  V30 138 C 13.7307 5.60253 -4.26961 0
M  V30 139 H 9.8297 0.780339 -0.050943 0
M  V30 140 H 12.4137 1.80507 -0.729753 0
M  V30 141 H 10.5847 3.79802 0.812733 0
M  V30 142 H 12.3167 3.99282 0.659976 0
M  V30 143 H 9.0717 4.56037 -1.2778 0
M  V30 144 H 9.4957 5.71355 -3.63157 0
M  V30 145 H 14.1377 4.03516 -1.26234 0
M  V30 146 H 11.8557 6.24687 -5.12633 0
M  V30 147 H 15.4417 4.86274 -3.1942 0
M  V30 148 H 14.3217 5.95631 -5.10091 0
M  V30 149 N 11.8248 0.280983 1.55075 0
M  V30 150 C 13.0738 -0.334784 1.98902 0
M  V30 151 C 13.3868 -1.56534 1.17288 0
M  V30 152 O 14.5928 -2.25443 1.51287 0
M  V30 153 C 13.0488 -0.646994 3.54037 0
M  V30 154 C 12.6568 0.564085 4.44435 0
M  V30 155 C 14.4008 -1.22506 4.06439 0
M  V30 156 C 12.3078 0.226137 5.90967 0
M  V30 157 H 11.2378 -0.128866 0.742906 0
M  V30 158 H 13.8888 0.386556 1.79382 0
M  V30 159 H 12.2708 -1.42739 3.6938 0
M  V30 160 H 13.4448 1.34082 4.40861 0
M  V30 161 H 11.7598 1.0594 4.02698 0
M  V30 162 H 14.3568 -1.49182 5.13468 0
M  V30 163 H 14.6998 -2.16085 3.55827 0
M  V30 164 H 15.2328 -0.50682 3.94558 0
M  V30 165 H 11.9718 1.12996 6.45687 0
M  V30 166 H 11.4918 -0.513717 5.97596 0
M  V30 167 H 13.1708 -0.179539 6.46751 0
M  V30 168 N 13.3029 -1.57598 0.00835791 0
M  V30 169 C 14.2329 -2.1198 -0.979113 0
M  V30 170 C 15.2139 -1.03091 -1.35301 0
M  V30 171 O 16.3989 -1.30818 -1.43528 0
M  V30 172 C 13.5289 -2.62995 -2.26828 0
M  V30 173 C 12.4829 -3.76485 -2.03576 0
M  V30 174 C 11.8089 -4.13846 -3.38579 0
M  V30 175 C 13.1089 -5.0342 -1.39161 0
M  V30 176 H 14.8029 -2.94738 -0.526281 0
M  V30 177 H 12.3489 -1.41783 -0.251704 0
M  V30 178 H 14.3019 -2.99669 -2.96271 0
M  V30 179 H 13.0259 -1.7737 -2.7424 0
M  V30 180 H 11.6849 -3.40217 -1.36557 0
M  V30 181 H 11.3329 -3.25232 -3.83709 0
M  V30 182 H 11.0329 -4.90312 -3.23834 0
M  V30 183 H 12.5569 -4.53086 -4.09323 0
M  V30 184 H 13.9709 -5.37812 -1.98573 0
M  V30 185 H 12.3679 -5.84746 -1.34878 0
M  V30 186 H 13.4379 -4.83548 -0.361868 0
M  V30 187 N 14.781 0.264519 -1.55364 0
M  V30 188 C 16.027 0.99646 -1.76631 0
M  V30 189 C 16.36 1.85632 -0.570478 0
M  V30 190 O 15.635 1.89647 0.43175 0
M  V30 191 C 15.918 1.87187 -3.07625 0
M  V30 192 C 15.771 1.04138 -4.37579 0
M  V30 193 C 17.09 2.85749 -3.34717 0
M  V30 194 H 14.209 0.360841 -0.642622 0
M  V30 195 H 16.851 0.268218 -1.88097 0
M  V30 196 H 15.001 2.49279 -2.9798 0
M  V30 197 H 16.673 0.440517 -4.59192 0
M  V30 198 H 14.916 0.345115 -4.32425 0
M  V30 199 H 15.587 1.68729 -5.2558 0
M  V30 200 H 18.063 2.33793 -3.4421 0
M  V30 201 H 16.939 3.44136 -4.27623 0
M  V30 202 H 17.2 3.61311 -2.54768 0
M  V30 203 N 16.2591 1.48442 0.529413 0
M  V30 204 C 17.1891 1.65902 1.64313 0
M  V30 205 C 18.1701 0.507897 1.6234 0
M  V30 206 O 19.3551 0.740503 1.79528 0
M  V30 207 C 16.4851 1.69911 3.02898 0
M  V30 208 C 15.4391 2.8453 3.19729 0
M  V30 209 C 14.7651 2.73629 4.59381 0
M  V30 210 C 16.0651 4.25821 3.02447 0
M  V30 211 H 17.7591 2.5914 1.49955 0
M  V30 212 H 15.3051 1.24709 0.719982 0
M  V30 213 H 17.2581 1.80715 3.80684 0
M  V30 214 H 15.9821 0.732524 3.18279 0
M  V30 215 H 14.6411 2.73283 2.44361 0
M  V30 216 H 14.2891 1.74938 4.71599 0
M  V30 217 H 13.9891 3.50541 4.71588 0
M  V30 218 H 15.5131 2.86401 5.39265 0
M  V30 219 H 16.9271 4.37898 3.70024 0
M  V30 220 H 15.3241 5.03735 3.26146 0
M  V30 221 H 16.3941 4.42244 1.98867 0
M  V30 222 N 17.7372 -0.778329 1.37039 0
M  V30 223 C 18.9622 -1.57248 1.35233 0
M  V30 224 C 19.3872 -1.87999 -0.0615568 0
M  V30 225 O 18.7452 -1.48734 -1.03672 0
M  V30 226 C 18.7932 -2.86353 2.19167 0
M  V30 227 O 17.8972 -3.80442 1.59178 0
M  V30 228 H 17.2382 -0.476569 0.462362 0
M  V30 229 H 19.7682 -0.963853 1.80474 0
M  V30 230 H 19.7782 -3.35519 2.32145 0
M  V30 231 H 18.4532 -2.63299 3.21942 0
M  V30 232 H 17.0302 -3.39067 1.55203 0
M  V30 233 N 19.2153 -1.21501 -1.00376 0
M  V30 234 C 20.4613 -1.03452 -1.74429 0
M  V30 235 C 20.7943 0.430764 -1.89362 0
M  V30 236 O 20.0693 1.31962 -1.42886 0
M  V30 237 C 20.3523 -1.73375 -3.15615 0
M  V30 238 C 20.2053 -3.27431 -3.08397 0
M  V30 239 C 21.5243 -1.47732 -4.14564 0
M  V30 240 H 18.6433 -0.377226 -0.633143 0
M  V30 241 H 21.2853 -1.49693 -1.17013 0
M  V30 242 H 19.4353 -1.34064 -3.64636 0
M  V30 243 H 21.1073 -3.76119 -2.67081 0
M  V30 244 H 19.3503 -3.5767 -2.45468 0
M  V30 245 H 20.0213 -3.71524 -4.08258 0
M  V30 246 H 22.4973 -1.8186 -3.74254 0
M  V30 247 H 21.3733 -1.99169 -5.11491 0
M  V30 248 H 21.6343 -0.407589 -4.40217 0
M  V30 249 N 20.6934 1.19889 -1.02296 0
M  V30 250 C 21.9394 1.89701 -0.717033 0
M  V30 251 C 22.2724 1.7905 0.751989 0
M  V30 252 O 21.5474 1.17891 1.547 0
M  V30 253 C 21.8304 3.40858 -1.16136 0
M  V30 254 C 21.6834 3.60411 -2.69117 0
M  V30 255 C 23.0024 4.33876 -0.737549 0
M  V30 256 H 20.1214 0.688874 -0.261957 0
M  V30 257 H 22.7634 1.41154 -1.27183 0
M  V30 258 H 20.9134 3.82335 -0.689342 0
M  V30 259 H 22.5854 3.28145 -3.2422 0
M  V30 260 H 20.8284 3.03665 -3.0979 0
M  V30 261 H 21.4994 4.66396 -2.95261 0
M  V30 262 H 23.9754 4.00081 -1.14344 0
M  V30 263 H 22.8514 5.38242 -1.0764 0
M  V30 264 H 23.1124 4.40628 0.360436 0
M  V30 265 N 22.1715 0.800033 1.35784 0
M  V30 266 C 23.4205 0.37387 1.98205 0
M  V30 267 C 23.7335 -1.06302 1.64193 0
M  V30 268 O 24.9395 -1.59198 2.19928 0
M  V30 269 C 23.3955 0.617532 3.54562 0
M  V30 270 C 23.0035 2.06654 3.9749 0
M  V30 271 C 24.7475 0.256401 4.23725 0
M  V30 272 C 22.6545 2.2563 5.46667 0
M  V30 273 H 21.5845 0.136055 0.741623 0
M  V30 274 H 24.2355 0.983166 1.54939 0
M  V30 275 H 22.6175 -0.0616248 3.95952 0
M  V30 276 H 23.7915 2.78296 3.67271 0
M  V30 277 H 22.1065 2.38691 3.41197 0
M  V30 278 H 24.7035 0.376318 5.33374 0
M  V30 279 H 25.0465 -0.796692 4.08606 0
M  V30 280 H 25.5795 0.889214 3.87734 0
M  V30 281 H 22.3185 3.2936 5.66747 0
M  V30 282 H 21.8385 1.58504 5.78478 0
M  V30 283 H 23.5175 2.06861 6.1304 0
M  V30 284 N 23.6496 -1.47581 0.552962 0
M  V30 285 C 24.8966 -2.02482 0.0273243 0
M  V30 286 C 25.2246 -1.42776 -1.32081 0
M  V30 287 O 24.4796 -0.571393 -1.87173 0
M  V30 288 C 24.7786 -3.57199 -0.119728 0
M  V30 289 C 24.4446 -4.35804 1.15697 0
M  V30 290 C 23.1066 -4.57 1.50681 0
M  V30 291 C 25.4586 -4.81167 2.00319 0
M  V30 292 C 22.7866 -5.20807 2.70142 0
M  V30 293 C 25.1386 -5.46293 3.18978 0
M  V30 294 C 23.8026 -5.65722 3.54281 0
M  V30 295 H 23.0726 -0.740933 0.00999866 0
M  V30 296 H 25.7196 -1.77302 0.72362 0
M  V30 297 H 24.0246 -3.81348 -0.89896 0
M  V30 298 H 25.7216 -3.97324 -0.541718 0
M  V30 299 H 22.3116 -4.19582 0.874561 0
M  V30 300 H 26.4956 -4.64574 1.74599 0
M  V30 301 H 21.7516 -5.34045 2.97668 0
M  V30 302 H 25.9256 -5.80407 3.84838 0
M  V30 303 H 23.5526 -6.14936 4.46942 0
M  V30 304 N 25.1277 -0.289203 -1.54924 0
M  V30 305 C 26.0577 0.58549 -2.2604 0
M  V30 306 C 27.0387 1.14753 -1.25562 0
M  V30 307 O 28.2237 1.17906 -1.54311 0
M  V30 308 C 25.3537 1.76305 -2.99222 0
M  V30 309 C 24.3077 1.33191 -4.06748 0
M  V30 310 C 23.6337 2.5937 -4.6758 0
M  V30 311 C 24.9337 0.471775 -5.20165 0
M  V30 312 H 26.6277 -0.00763532 -2.99399 0
M  V30 313 H 24.1737 -0.00511229 -1.43999 0
M  V30 314 H 26.1267 2.38097 -3.47689 0
M  V30 315 H 24.8507 2.38223 -2.23422 0
M  V30 316 H 23.5097 0.737121 -3.59113 0
M  V30 317 H 23.1577 3.19576 -3.88433 0
M  V30 318 H 22.8577 2.31228 -5.40192 0
M  V30 319 H 24.3817 3.21985 -5.18804 0
M  V30 320 H 25.7957 0.995056 -5.64599 0
M  V30 321 H 24.1927 0.284639 -5.99425 0
M  V30 322 H 25.2627 -0.506041 -4.82252 0
M  V30 323 N 26.6058 1.57591 -0.0167156 0
M  V30 324 C 27.8518 1.91567 0.665582 0
M  V30 325 C 28.1848 0.892298 1.72487 0
M  V30 326 O 27.4598 -0.0867127 1.94307 0
M  V30 327 C 27.7428 3.36069 1.29342 0
M  V30 328 C 27.5958 4.49135 0.244541 0
M  V30 329 C 28.9148 3.803 2.21495 0
M  V30 330 H 26.0338 0.69666 0.240488 0
M  V30 331 H 28.6758 1.89866 -0.0714356 0
M  V30 332 H 26.8258 3.3765 1.92158 0
M  V30 333 H 28.4978 4.59689 -0.385228 0
M  V30 334 H 26.7408 4.3165 -0.431379 0
M  V30 335 H 27.4118 5.47242 0.723207 0
M  V30 336 H 29.8878 3.80377 1.68678 0
M  V30 337 H 28.7638 4.82127 2.62382 0
M  V30 338 H 29.0248 3.15104 3.101 0
M  V30 339 N 28.0839 -0.256276 1.55502 0
M  V30 340 C 29.3329 -0.983486 1.76098 0
M  V30 341 C 29.6459 -1.86837 0.578896 0
M  V30 342 O 30.8519 -2.63163 0.667648 0
M  V30 343 C 29.3079 -1.79868 3.1173 0
M  V30 344 C 28.9159 -0.961648 4.37557 0
M  V30 345 C 30.6599 -2.51919 3.41668 0
M  V30 346 C 28.5669 -1.77219 5.64223 0
M  V30 347 H 27.4969 -0.370936 0.656447 0
M  V30 348 H 30.1479 -0.238492 1.81944 0
M  V30 349 H 28.5299 -2.58527 2.99966 0
M  V30 350 H 29.7039 -0.218048 4.60284 0
M  V30 351 H 28.0189 -0.354913 4.14885 0
M  V30 352 H 30.6159 -3.12998 4.33516 0
M  V30 353 H 30.9589 -3.23059 2.62562 0
M  V30 354 H 31.4919 -1.80278 3.54605 0
M  V30 355 H 28.2309 -1.10471 6.46124 0
M  V30 356 H 27.7509 -2.49132 5.45613 0
M  V30 357 H 29.4299 -2.34169 6.03137 0
M  V30 358 N 29.562 -1.4872 -0.521534 0
M  V30 359 C 30.811 -1.56419 -1.27341 0
M  V30 360 C 31.124 -0.246805 -1.94037 0
M  V30 361 O 32.33 -0.202122 -2.70747 0
M  V30 362 C 30.786 -2.75896 -2.31105 0
M  V30 363 C 30.394 -4.14311 -1.70441 0
M  V30 364 C 32.138 -2.92913 -3.07249 0
M  V30 365 C 30.045 -5.25038 -2.72194 0
M  V30 366 H 28.975 -0.582344 -0.478949 0
M  V30 367 H 31.626 -1.75071 -0.549779 0
M  V30 368 H 30.008 -2.50697 -3.06541 0
M  V30 369 H 31.182 -4.49564 -1.01136 0
M  V30 370 H 29.497 -4.02482 -1.06759 0
M  V30 371 H 32.094 -3.72805 -3.83302 0
M  V30 372 H 32.437 -2.02689 -3.63625 0
M  V30 373 H 32.97 -3.18054 -2.38928 0
M  V30 374 H 29.709 -6.17255 -2.20627 0
M  V30 375 H 29.229 -4.94263 -3.39801 0
M  V30 376 H 30.908 -5.53508 -3.35019 0
M  V30 377 N 31.0401 0.771051 -1.3745 0
M  V30 378 C 31.9881 1.90574 -1.33358 0
M  V30 379 C 32.9821 1.67936 -0.22224 0
M  V30 380 O 34.1881 1.75717 -0.390304 0
M  V30 381 H 30.5631 0.626714 -0.415612 0
M  V30 382 H 32.5341 1.91142 -2.29144 0
M  V30 383 C 31.2831 3.27845 -1.15813 0
M  V30 384 H 30.6061 3.45842 -2.00583 0
M  V30 385 H 32.0461 4.07538 -1.17 0
M  V30 386 C 30.5051 3.36625 0.136165 0
M  V30 387 O 31.0351 3.85785 1.11949 0
M  V30 388 N 29.2411 2.89997 0.187099 0
M  V30 389 H 28.7881 2.50182 -0.613753 0
M  V30 390 H 28.7461 2.96252 1.05272 0
M  V30 391 N 32.5182 1.22032 0.997298 0
M  V30 392 C 33.7462 1.06841 1.7718 0
M  V30 393 C 34.1612 -0.381325 1.84909 0
M  V30 394 O 33.5182 -1.26437 1.31605 0
M  V30 395 C 33.5692 1.66814 3.20711 0
M  V30 396 O 33.2902 3.06116 3.13408 0
M  V30 397 C 34.7912 1.56838 4.14628 0
M  V30 398 H 32.0112 0.374782 0.556578 0
M  V30 399 H 34.5552 1.61532 1.2541 0
M  V30 400 H 32.7102 1.16196 3.69564 0
M  V30 401 H 33.1242 3.34926 4.0364 0
M  V30 402 H 34.5982 2.03532 5.13107 0
M  V30 403 H 35.0752 0.524155 4.36061 0
M  V30 404 H 35.6812 2.06741 3.7167 0
M  V30 405 N 33.9963 -1.19345 1.0293 0
M  V30 406 C 35.2453 -1.88363 0.721256 0
M  V30 407 C 35.5583 -1.80514 -0.753254 0
M  V30 408 O 36.7643 -2.44788 -1.17436 0
M  V30 409 C 35.2203 -3.37872 1.23978 0
M  V30 410 C 34.8283 -3.54278 2.74211 0
M  V30 411 C 36.5723 -4.12365 1.00775 0
M  V30 412 C 34.4793 -4.97682 3.19479 0
M  V30 413 H 33.4093 -0.705484 0.266098 0
M  V30 414 H 36.0603 -1.34928 1.24365 0
M  V30 415 H 34.4423 -3.90707 0.6453 0
M  V30 416 H 35.6163 -3.11769 3.39318 0
M  V30 417 H 33.9313 -2.93174 2.95699 0
M  V30 418 H 36.5283 -5.18119 1.32123 0
M  V30 419 H 36.8713 -4.16263 -0.0554308 0
M  V30 420 H 37.4043 -3.65668 1.56625 0
M  V30 421 H 34.1433 -4.98945 4.25128 0
M  V30 422 H 33.6633 -5.4095 2.591 0
M  V30 423 H 35.3423 -5.66337 3.12845 0
M  V30 424 N 35.4744 -0.807222 -1.35358 0
M  V30 425 C 36.4224 -0.20614 -2.31685 0
M  V30 426 C 37.4164 0.644445 -1.56663 0
M  V30 427 O 38.6224 0.537538 -1.71786 0
M  V30 428 H 34.9974 -0.0479006 -0.750473 0
M  V30 429 H 36.9684 -1.03369 -2.79924 0
M  V30 430 C 35.7174 0.630212 -3.41941 0
M  V30 431 H 35.0404 -0.0149558 -3.99797 0
M  V30 432 H 36.4804 1.01716 -4.11619 0
M  V30 433 C 34.9394 1.79601 -2.85035 0
M  V30 434 O 35.4694 2.89351 -2.78637 0
M  V30 435 N 33.6754 1.60774 -2.42074 0
M  V30 436 H 33.2224 0.715009 -2.47478 0
M  V30 437 H 33.1804 2.38933 -2.04349 0
M  V30 438 N 36.9525 1.47285 -0.560781 0
M  V30 439 C 37.9155 2.28535 0.174488 0
M  V30 440 C 38.9155 1.37153 0.839388 0
M  V30 441 O 40.1055 1.59748 0.694702 0
M  V30 442 C 37.2375 3.16934 1.25561 0
M  V30 443 H 38.4305 2.95012 -0.539262 0
M  V30 444 H 35.9835 1.53034 -0.317865 0
M  V30 445 H 36.7185 2.55157 2.00164 0
M  V30 446 H 36.5035 3.8419 0.783604 0
M  V30 447 H 37.9935 3.78143 1.77193 0
M  V30 448 N 38.4306 0.297415 1.54768 0
M  V30 449 C 39.6556 -0.318435 2.04941 0
M  V30 450 C 40.0806 -1.4701 1.17345 0
M  V30 451 O 39.4386 -1.80436 0.176758 0
M  V30 452 C 39.4866 -0.755749 3.52592 0
M  V30 453 O 38.5906 -1.86088 3.68028 0
M  V30 454 H 37.9316 -0.062421 0.661059 0
M  V30 455 H 40.4616 0.438215 1.99852 0
M  V30 456 H 40.4716 -1.04552 3.94376 0
M  V30 457 H 39.1466 0.0867233 4.1581 0
M  V30 458 H 37.7236 -1.57193 3.38149 0
M  V30 459 N 39.9087 -1.5758 0.0250728 0
M  V30 460 C 41.1857 -1.82917 -0.692873 0
M  V30 461 C 41.5657 -0.908137 -1.90568 0
M  V30 462 O 40.9137 0.0372298 -2.2847 0
M  V30 463 C 41.1237 -3.32034 -1.07492 0
M  V30 464 C 42.4717 -3.98406 -1.46826 0
M  V30 465 O 43.4957 -3.36505 -1.16801 0
M  V30 466 O 42.3547 -5.07497 -2.02754 0
M  V30 467 H 39.4487 -0.754079 -0.33955 0
M  V30 468 H 41.9947 -1.69619 0.0524456 0
M  V30 469 H 40.7667 -3.90728 -0.211552 0
M  V30 470 H 40.3897 -3.50424 -1.87854 0
M  V30 471 N 41.3868 0.248026 -1.55636 0
M  V30 472 C 42.6638 0.998988 -1.68165 0
M  V30 473 C 43.0438 2.03409 -0.564621 0
M  V30 474 O 42.3918 2.24378 0.432076 0
M  V30 475 C 42.6018 1.63334 -3.0842 0
M  V30 476 C 43.9498 2.13562 -3.66983 0
M  V30 477 O 44.9738 1.73277 -3.11213 0
M  V30 478 O 43.8328 2.87526 -4.64749 0
M  V30 479 H 40.9268 0.464933 -0.683935 0
M  V30 480 H 43.4728 0.241902 -1.67967 0
M  V30 481 H 42.2448 0.884583 -3.8117 0
M  V30 482 H 41.8678 2.45666 -3.12624 0
M  V30 483 N 42.8649 1.48995 0.513639 0
M  V30 484 C 43.7749 1.67443 1.64317 0
M  V30 485 C 44.7909 0.556947 1.64846 0
M  V30 486 O 45.9669 0.830082 1.83498 0
M  V30 487 C 43.0319 1.72515 3.00732 0
M  V30 488 C 42.0929 2.96009 3.1093 0
M  V30 489 C 41.3259 3.00829 4.40837 0
M  V30 490 O 41.5489 2.13594 5.28898 0
M  V30 491 O 40.4829 3.93168 4.55744 0
M  V30 492 H 44.3089 2.63106 1.51687 0
M  V30 493 H 41.8939 1.32588 0.688543 0
M  V30 494 H 43.7759 1.78277 3.81831 0
M  V30 495 H 42.4509 0.800278 3.13651 0
M  V30 496 H 41.3579 2.9577 2.29065 0
M  V30 497 H 42.6909 3.87934 3.02933 0
M  V30 498 N 44.343 -0.763751 1.37857 0
M  V30 499 C 45.253 -1.90817 1.36478 0
M  V30 500 C 46.269 -1.71997 0.263248 0
M  V30 501 O 47.445 -1.95095 0.499979 0
M  V30 502 C 44.51 -3.2605 1.17864 0
M  V30 503 C 43.571 -3.57467 2.3773 0
M  V30 504 C 42.804 -4.86249 2.19995 0
M  V30 505 O 43.027 -5.57884 1.18836 0
M  V30 506 O 41.961 -5.16911 3.08361 0
M  V30 507 H 45.787 -1.94933 2.32884 0
M  V30 508 H 43.372 -0.907619 1.1867 0
M  V30 509 H 45.254 -4.06924 1.09504 0
M  V30 510 H 43.929 -3.22769 0.245372 0
M  V30 511 H 42.836 -2.76796 2.51664 0
M  V30 512 H 44.169 -3.655 3.29652 0
M  V30 513 N 45.8211 -1.22559 -0.990812 0
M  V30 514 C 47.2371 -0.985996 -1.255 0
M  V30 515 C 47.4371 0.319173 -1.98956 0
M  V30 516 O 46.4931 1.04127 -2.3003 0
M  V30 517 C 47.8061 -2.18607 -2.06474 0
M  V30 518 C 49.3541 -2.22985 -2.19651 0
M  V30 519 C 49.8291 -3.4255 -3.04012 0
M  V30 520 N 51.3201 -3.42725 -3.11599 0
M  V30 521 C 52.0551 -4.31892 -3.7717 0
M  V30 522 N 51.5511 -5.31279 -4.44651 0
M  V30 523 N 53.3441 -4.19662 -3.73952 0
M  V30 524 H 45.4951 -2.06469 -0.49841 0
M  V30 525 H 47.7581 -0.904853 -0.282747 0
M  V30 526 H 47.4641 -3.13267 -1.59865 0
M  V30 527 H 47.3381 -2.18838 -3.07229 0
M  V30 528 H 49.7251 -1.28871 -2.65474 0
M  V30 529 H 49.8061 -2.26791 -1.18319 0
M  V30 530 H 49.4501 -4.36965 -2.58889 0
M  V30 531 H 49.3801 -3.35984 -4.0549 0
M  V30 532 H 51.8711 -2.70807 -2.63575 0
M  V30 533 H 52.1841 -5.95593 -4.92431 0
M  V30 534 H 50.5291 -5.3519 -4.43392 0
M  V30 535 H 53.7201 -3.41268 -3.20396 0
M  V30 536 H 53.8931 -4.89358 -4.24774 0
M  V30 537 N 47.2992 1.18797 -1.03562 0
M  V30 538 C 48.2292 2.24472 -0.643019 0
M  V30 539 C 49.2102 1.66433 0.351283 0
M  V30 540 O 50.3952 1.92803 0.232505 0
M  V30 541 C 47.5252 3.473 4.24935e-05 0
M  V30 542 C 46.4792 4.18055 -0.917257 0
M  V30 543 C 45.8052 5.34519 -0.138941 0
M  V30 544 C 47.1052 4.72109 -2.23407 0
M  V30 545 H 48.7992 2.57566 -1.52643 0
M  V30 546 H 46.3452 1.23806 -0.735394 0
M  V30 547 H 48.2982 4.20426 0.286383 0
M  V30 548 H 47.0222 3.13424 0.918299 0
M  V30 549 H 45.6812 3.46821 -1.1879 0
M  V30 550 H 45.3292 4.96891 0.781562 0
M  V30 551 H 45.0292 5.82794 -0.750005 0
M  V30 552 H 46.5532 6.10438 0.1405 0
M  V30 553 H 47.9672 5.36955 -2.00879 0
M  V30 554 H 46.3642 5.30897 -2.79765 0
M  V30 555 H 47.4342 3.89807 -2.88407 0
M  V30 556 N 48.7773 0.814389 1.34928 0
M  V30 557 C 49.7103 0.175641 2.27523 0
M  V30 558 C 50.6883 -0.662953 1.48471 0
M  V30 559 O 51.8723 -0.628545 1.77712 0
M  V30 560 C 48.9993 -0.755516 3.30166 0
M  V30 561 C 48.0453 0.00445305 4.265 0
M  V30 562 S 48.8783 1.34582 5.18313 0
M  V30 563 C 50.0343 0.419315 6.24494 0
M  V30 564 H 50.2673 0.960691 2.8135 0
M  V30 565 H 47.8003 0.609846 1.41846 0
M  V30 566 H 49.7583 -1.28723 3.89796 0
M  V30 567 H 48.4193 -1.51402 2.75202 0
M  V30 568 H 47.6123 -0.703077 4.99072 0
M  V30 569 H 47.2143 0.466447 3.7108 0
M  V30 570 H 49.5063 -0.392432 6.76362 0
M  V30 571 H 50.4493 1.11446 6.99275 0
M  V30 572 H 50.8573 0.0115389 5.64499 0
M  V30 573 N 50.2554 -1.46986 0.568584 0
M  V30 574 C 51.5014 -2.02741 0.0488709 0
M  V30 575 C 51.8344 -1.44077 -1.30214 0
M  V30 576 O 51.1094 -0.600552 -1.84996 0
M  V30 577 C 51.3924 -3.60086 -0.032047 0
M  V30 578 C 51.2454 -4.29162 1.34686 0
M  V30 579 C 52.5644 -4.33838 -0.739798 0
M  V30 580 H 49.6834 -0.736749 0.0192338 0
M  V30 581 H 52.3254 -1.75289 0.733065 0
M  V30 582 H 50.4754 -3.83606 -0.61473 0
M  V30 583 H 52.1474 -4.16948 1.97362 0
M  V30 584 H 50.3904 -3.89073 1.91846 0
M  V30 585 H 51.0614 -5.37826 1.24285 0
M  V30 586 H 53.5374 -4.15378 -0.244939 0
M  V30 587 H 52.4134 -5.43537 -0.765406 0
M  V30 588 H 52.6744 -4.03875 -1.79827 0
M  V30 589 N 51.7335 -0.305618 -1.54608 0
M  V30 590 C 53.0105 0.355652 -1.92339 0
M  V30 591 C 53.3905 1.71324 -1.23335 0
M  V30 592 O 52.7385 2.25473 -0.370702 0
M  V30 593 C 52.9485 0.46572 -3.45879 0
M  V30 594 C 54.2965 0.734426 -4.182 0
M  V30 595 O 55.3205 0.54935 -3.51938 0
M  V30 596 O 54.1795 1.09024 -5.35515 0
M  V30 597 H 51.2735 0.199666 -0.802535 0
M  V30 598 H 53.8195 -0.354017 -1.65966 0
M  V30 599 H 52.5915 -0.488461 -3.88239 0
M  V30 600 H 52.2145 1.22367 -3.78301 0
M  V30 601 N 53.2116 1.57565 -0.0334293 0
M  V30 602 C 54.4576 1.92262 0.645226 0
M  V30 603 C 54.7906 0.910543 1.71531 0
M  V30 604 O 54.0656 -0.066099 1.94388 0
M  V30 605 C 54.3486 3.37422 1.2577 0
M  V30 606 C 54.2016 4.49369 0.196891 0
M  V30 607 C 55.5206 3.82628 2.17449 0
M  V30 608 H 52.6396 0.699171 0.233085 0
M  V30 609 H 55.2816 1.89779 -0.0915694 0
M  V30 610 H 53.4316 3.39669 1.88566 0
M  V30 611 H 55.1036 4.59254 -0.433962 0
M  V30 612 H 53.3466 4.31168 -0.477137 0
M  V30 613 H 54.0176 5.47978 0.665124 0
M  V30 614 H 56.4936 3.82145 1.64634 0
M  V30 615 H 55.3696 4.84883 2.57254 0
M  V30 616 H 55.6306 3.18376 3.0674 0
M  V30 617 N 54.6897 -0.239769 1.55765 0
M  V30 618 C 55.9367 -0.966801 1.7793 0
M  V30 619 C 56.2647 -1.85046 0.599015 0
M  V30 620 O 55.5197 -1.91197 -0.417395 0
M  V30 621 C 55.8187 -1.852 3.05672 0
M  V30 622 C 55.4847 -1.1231 4.36689 0
M  V30 623 C 54.1467 -0.921689 4.72291 0
M  V30 624 C 56.4987 -0.607019 5.17653 0
M  V30 625 C 53.8267 -0.191996 5.86386 0
M  V30 626 C 56.1787 0.109241 6.32506 0
M  V30 627 C 54.8427 0.322073 6.66723 0
M  V30 628 H 54.1127 -0.353778 0.651093 0
M  V30 629 H 56.7597 -0.23634 1.90036 0
M  V30 630 H 55.0647 -2.64975 2.8861 0
M  V30 631 H 56.7617 -2.41635 3.20021 0
M  V30 632 H 53.3517 -1.29004 4.08725 0
M  V30 633 H 57.5357 -0.750153 4.90598 0
M  V30 634 H 52.7917 -0.0166949 6.11398 0
M  V30 635 H 56.9657 0.516737 6.9448 0
M  V30 636 H 54.5927 0.88944 7.54979 0
M  V30 637 N 56.1678 -1.49265 -0.50573 0
M  V30 638 C 57.5838 -1.35923 -0.836486 0
M  V30 639 C 57.7838 -0.388704 -1.97715 0
M  V30 640 O 56.8398 0.181336 -2.51848 0
M  V30 641 C 58.1528 -2.76531 -1.18115 0
M  V30 642 C 59.7008 -2.85197 -1.28964 0
M  V30 643 C 60.1758 -4.26561 -1.66761 0
M  V30 644 N 61.6668 -4.2935 -1.73819 0
M  V30 645 C 62.4018 -5.35693 -2.045 0
M  V30 646 N 61.8978 -6.52287 -2.33438 0
M  V30 647 N 63.6908 -5.23105 -2.05711 0
M  V30 648 H 55.8418 -2.10965 0.246519 0
M  V30 649 H 58.1048 -0.9468 0.0476887 0
M  V30 650 H 57.8108 -3.49226 -0.416398 0
M  V30 651 H 57.6848 -3.11599 -2.1257 0
M  V30 652 H 60.0718 -2.12742 -2.04511 0
M  V30 653 H 60.1528 -2.53718 -0.325704 0
M  V30 654 H 59.7968 -4.99541 -0.917656 0
M  V30 655 H 59.7268 -4.55502 -2.64246 0
M  V30 656 H 62.2178 -3.4526 -1.53635 0
M  V30 657 H 62.5308 -7.29158 -2.56024 0
M  V30 658 H 60.8758 -6.55521 -2.30905 0
M  V30 659 H 64.0668 -4.31026 -1.82577 0
M  V30 660 H 64.2398 -6.06078 -2.29289 0
M  V30 661 N 57.6459 0.756429 -1.3826 0
M  V30 662 C 58.8939 1.51248 -1.34047 0
M  V30 663 C 59.2149 1.94875 0.0698372 0
M  V30 664 O 58.4849 1.67436 1.01696 0
M  V30 665 H 57.0649 0.561018 -0.493222 0
M  V30 666 H 59.7269 0.899347 -1.7291 0
M  V30 667 H 58.8229 2.40472 -1.98947 0
M  V30 668 N 59.124 1.23083 0.984299 0
M  V30 669 C 60.354 1.08556 1.75781 0
M  V30 670 C 60.762 -0.366171 1.85623 0
M  V30 671 O 60.105 -1.26524 1.33182 0
M  V30 672 C 60.167 1.63208 3.20318 0
M  V30 673 C 59.831 3.11922 3.33997 0
M  V30 674 C 60.828 4.09259 3.2063 0
M  V30 675 C 58.513 3.51552 3.58771 0
M  V30 676 C 60.507 5.4421 3.31835 0
M  V30 677 C 58.194 4.86649 3.69616 0
M  V30 678 C 59.192 5.82787 3.56157 0
M  V30 679 O 58.88 7.15431 3.66626 0
M  V30 680 H 58.612 0.380713 0.5586 0
M  V30 681 H 61.166 1.63321 1.2456 0
M  V30 682 H 59.396 1.0286 3.72769 0
M  V30 683 H 61.085 1.44216 3.79416 0
M  V30 684 H 61.851 3.79984 3.01392 0
M  V30 685 H 57.73 2.77239 3.6832 0
M  V30 686 H 61.274 6.1923 3.21247 0
M  V30 687 H 57.171 5.15601 3.88363 0
M  V30 688 H 57.939 7.23127 3.83445 0
M  V30 689 N 60.6021 -1.18246 1.0419 0
M  V30 690 C 61.5501 -2.23968 0.627792 0
M  V30 691 C 62.5441 -1.65828 -0.346019 0
M  V30 692 O 63.7501 -1.78733 -0.213175 0
M  V30 693 H 60.1251 -0.728939 0.184802 0
M  V30 694 H 62.0961 -2.56202 1.52981 0
M  V30 695 C 60.8451 -3.47699 0.00796591 0
M  V30 696 H 60.1681 -3.92734 0.748347 0
M  V30 697 H 61.6081 -4.23294 -0.24455 0
M  V30 698 C 60.0671 -3.13153 -1.24246 0
M  V30 699 O 60.5971 -3.27003 -2.33307 0
M  V30 700 N 58.8031 -2.67467 -1.13622 0
M  V30 701 H 58.3501 -2.56396 -0.248734 0
M  V30 702 H 58.3081 -2.44724 -1.97377 0
M  V30 703 N 62.0802 -0.821533 -1.34494 0
M  V30 704 C 63.3052 -0.420873 -2.03085 0
M  V30 705 C 63.7302 0.964915 -1.61465 0
M  V30 706 O 63.0882 1.62763 -0.798607 0
M  V30 707 C 63.1362 -0.529414 -3.56693 0
M  V30 708 O 62.2402 0.451302 -4.09923 0
M  V30 709 H 61.5812 -0.173489 -0.640935 0
M  V30 710 H 64.1112 -1.11157 -1.71771 0
M  V30 711 H 64.1212 -0.404671 -4.05988 0
M  V30 712 H 62.7962 -1.54014 -3.86332 0
M  V30 713 H 61.3732 0.285558 -3.71805 0
M  V30 714 N 63.5583 1.46682 -0.576371 0
M  V30 715 C 64.4883 2.33028 0.148397 0
M  V30 716 C 65.4693 1.44961 0.889956 0
M  V30 717 O 66.6543 1.73789 0.866662 0
M  V30 718 C 63.7843 3.27117 1.1667 0
M  V30 719 C 62.7383 4.24575 0.540386 0
M  V30 720 C 62.0643 5.08126 1.6647 0
M  V30 721 C 63.3643 5.19722 -0.518331 0
M  V30 722 H 65.0583 2.93875 -0.572509 0
M  V30 723 H 62.6043 1.41315 -0.276768 0
M  V30 724 H 64.5573 3.86374 1.68204 0
M  V30 725 H 63.2813 2.64364 1.9178 0
M  V30 726 H 61.9403 3.66571 0.0461769 0
M  V30 727 H 61.5883 4.41762 2.40531 0
M  V30 728 H 61.2883 5.74122 1.25131 0
M  V30 729 H 62.8123 5.70246 2.18293 0
M  V30 730 H 64.2263 5.73232 -0.0883058 0
M  V30 731 H 62.6233 5.94026 -0.851679 0
M  V30 732 H 63.6933 4.64037 -1.40703 0
M  V30 733 N 65.0364 0.313813 1.54444 0
M  V30 734 C 66.2854 -0.292519 1.99568 0
M  V30 735 C 66.5984 -1.54011 1.20582 0
M  V30 736 O 67.8044 -2.22183 1.56035 0
M  V30 737 C 66.2604 -0.571752 3.55329 0
M  V30 738 C 65.8684 0.658229 4.43138 0
M  V30 739 C 67.6124 -1.13857 4.08946 0
M  V30 740 C 65.5194 0.351439 5.90355 0
M  V30 741 H 64.4494 -0.113079 0.745472 0
M  V30 742 H 67.1004 0.424518 1.78522 0
M  V30 743 H 65.4824 -1.34872 3.72325 0
M  V30 744 H 66.6564 1.43403 4.37918 0
M  V30 745 H 64.9714 1.14458 4.0036 0
M  V30 746 H 67.5684 -1.38257 5.16516 0
M  V30 747 H 67.9114 -2.08489 3.6033 0
M  V30 748 H 68.4444 -0.423015 3.95544 0
M  V30 749 H 65.1834 1.26667 6.43145 0
M  V30 750 H 64.7034 -0.386842 5.98551 0
M  V30 751 H 66.3824 -0.0423134 6.46986 0
M  V30 752 N 66.5145 -1.57545 0.0417849 0
M  V30 753 C 67.4465 -2.07904 -0.964799 0
M  V30 754 C 68.4595 -1.00497 -1.28079 0
M  V30 755 O 69.6485 -1.28087 -1.24322 0
M  V30 756 C 66.7485 -2.49928 -2.28887 0
M  V30 757 C 65.9215 -3.80562 -2.15619 0
M  V30 758 C 64.9805 -4.08999 -3.31069 0
M  V30 759 O 64.0065 -4.79061 -3.0739 0
M  V30 760 N 65.2085 -3.6017 -4.55256 0
M  V30 761 H 67.9735 -2.94886 -0.535029 0
M  V30 762 H 65.5345 -1.61252 -0.144681 0
M  V30 763 H 67.5265 -2.66034 -3.04972 0
M  V30 764 H 66.0965 -1.68245 -2.63463 0
M  V30 765 H 65.3165 -3.74129 -1.24183 0
M  V30 766 H 66.6045 -4.66126 -2.03971 0
M  V30 767 H 66.0025 -3.03512 -4.77386 0
M  V30 768 H 64.5595 -3.81532 -5.28466 0
M  V30 769 N 67.9926 0.231505 -1.5589 0
M  V30 770 C 69.4036 0.799327 -1.68724 0
M  V30 771 C 69.7546 1.85398 -0.642022 0
M  V30 772 O 68.8796 2.1539 0.208784 0
M  V30 773 C 69.4746 1.45664 -3.05888 0
M  V30 774 C 68.0336 1.97197 -3.20609 0
M  V30 775 C 67.1806 0.828552 -2.64632 0
M  V30 776 H 70.1316 0.00702616 -1.58698 0
M  V30 777 H 70.1526 2.32517 -3.01191 0
M  V30 778 H 69.6646 0.688808 -3.81939 0
M  V30 779 H 67.7656 2.76813 -2.4941 0
M  V30 780 H 67.8786 2.15878 -4.27707 0
M  V30 781 H 66.2426 1.23321 -2.22854 0
M  V30 782 H 67.0256 0.0735544 -3.43221 0
M  V30 783 N 69.4707 1.49531 0.497807 0
M  V30 784 C 70.7167 1.59415 1.25358 0
M  V30 785 C 71.0497 0.281422 1.9215 0
M  V30 786 O 70.3247 -0.715249 1.80871 0
M  V30 787 C 70.6077 2.75566 2.3181 0
M  V30 788 C 70.4607 4.16642 1.69498 0
M  V30 789 C 71.7797 2.87347 3.33346 0
M  V30 790 H 68.8987 0.580244 0.454408 0
M  V30 791 H 71.5407 1.81827 0.551262 0
M  V30 792 H 69.6907 2.56587 2.91711 0
M  V30 793 H 71.3627 4.47145 1.13399 0
M  V30 794 H 69.6057 4.22141 0.998978 0
M  V30 795 H 70.2767 4.93792 2.46725 0
M  V30 796 H 72.7527 3.04634 2.83438 0
M  V30 797 H 71.6287 3.70289 4.05188 0
M  V30 798 H 71.8897 1.96834 3.95865 0
M  V30 799 N 70.9488 -0.749086 1.3866 0
M  V30 800 C 72.3648 -1.05276 1.19955 0
M  V30 801 C 72.5648 -2.01435 0.05134 0
M  V30 802 O 71.6208 -2.45232 -0.60147 0
M  V30 803 C 72.9338 -1.62853 2.52783 0
M  V30 804 C 74.4818 -1.75002 2.59506 0
M  V30 805 C 74.9568 -2.35991 3.92521 0
M  V30 806 N 76.4478 -2.43416 3.94085 0
M  V30 807 C 77.1828 -2.91511 4.9377 0
M  V30 808 N 76.6788 -3.39608 6.03853 0
M  V30 809 N 78.4718 -2.90592 4.81157 0
M  V30 810 H 70.6228 -0.111066 2.12109 0
M  V30 811 H 72.8858 -0.111901 0.941373 0
M  V30 812 H 72.5918 -0.99664 3.37283 0
M  V30 813 H 72.4658 -2.61854 2.715 0
M  V30 814 H 74.8528 -2.37317 1.75398 0
M  V30 815 H 74.9338 -0.74693 2.44652 0
M  V30 816 H 74.5778 -1.74308 4.77053 0
M  V30 817 H 74.5078 -3.3695 4.04688 0
M  V30 818 H 76.9988 -2.09405 3.14576 0
M  V30 819 H 77.3118 -3.74775 6.75843 0
M  V30 820 H 75.6568 -3.37653 6.07466 0
M  V30 821 H 78.8478 -2.52332 3.94267 0
M  V30 822 H 79.0208 -3.27762 5.58996 0
M  V30 823 N 72.4269 -1.23603 -0.977757 0
M  V30 824 C 73.3749 -1.01704 -2.09187 0
M  V30 825 C 74.3689 0.0448214 -1.69341 0
M  V30 826 O 75.5749 -0.108902 -1.7967 0
M  V30 827 H 71.9499 -0.311803 -0.684312 0
M  V30 828 H 73.9209 -1.96207 -2.24823 0
M  V30 829 C 72.6699 -0.627746 -3.41986 0
M  V30 830 H 71.9929 -1.43656 -3.73099 0
M  V30 831 H 73.4329 -0.514053 -4.20872 0
M  V30 832 C 71.8919 0.664238 -3.30287 0
M  V30 833 O 72.4219 1.71268 -3.6336 0
M  V30 834 N 70.6279 0.641156 -2.83439 0
M  V30 835 H 70.1749 -0.212376 -2.56723 0
M  V30 836 H 70.1329 1.50583 -2.75993 0
M  V30 837 N 73.905 1.17692 -1.04816 0
M  V30 838 C 75.13 1.92327 -0.776207 0
M  V30 839 C 75.555 1.76082 0.661581 0
M  V30 840 O 74.913 1.076 1.45917 0
M  V30 841 C 74.961 3.41539 -1.15687 0
M  V30 842 O 74.065 4.11402 -0.286775 0
M  V30 843 H 73.406 0.599735 -0.284981 0
M  V30 844 H 75.936 1.49201 -1.4 0
M  V30 845 H 75.946 3.92269 -1.12202 0
M  V30 846 H 74.621 3.52684 -2.20425 0
M  V30 847 H 73.198 3.70939 -0.381903 0
M  V30 848 N 75.3831 0.828654 1.34056 0
M  V30 849 C 76.6081 0.431637 2.02859 0
M  V30 850 C 77.0331 -0.956339 1.61975 0
M  V30 851 O 76.3911 -1.62338 0.807228 0
M  V30 852 C 76.4391 0.548323 3.56407 0
M  V30 853 O 75.5431 -0.429556 4.10157 0
M  V30 854 H 74.8841 0.176886 0.640006 0
M  V30 855 H 77.4141 1.12066 1.71179 0
M  V30 856 H 77.4241 0.426196 4.05768 0
M  V30 857 H 76.0991 1.5606 3.8551 0
M  V30 858 H 74.6761 -0.265836 3.71951 0
M  V30 859 N 76.8612 -1.46375 0.584142 0
M  V30 860 C 77.7712 -2.34115 -0.150728 0
M  V30 861 C 78.7872 -1.49838 -0.884567 0
M  V30 862 O 79.9632 -1.82704 -0.847429 0
M  V30 863 C 77.0282 -3.2705 -1.15062 0
M  V30 864 C 76.0892 -4.27228 -0.421293 0
M  V30 865 C 75.3222 -5.15722 -1.37355 0
M  V30 866 O 75.5452 -5.07176 -2.61014 0
M  V30 867 O 74.4792 -5.95383 -0.883355 0
M  V30 868 H 78.3052 -2.98309 0.569708 0
M  V30 869 H 75.8902 -1.45373 0.344535 0
M  V30 870 H 77.7722 -3.84381 -1.72712 0
M  V30 871 H 76.4472 -2.65451 -1.8525 0
M  V30 872 H 75.3542 -3.7358 0.197085 0
M  V30 873 H 76.6872 -4.91616 0.239641 0
M  V30 874 N 78.3393 -0.321999 -1.54275 0
M  V30 875 C 79.2693 0.537411 -2.27231 0
M  V30 876 C 80.2503 1.12064 -1.27968 0
M  V30 877 O 81.4353 1.14606 -1.56777 0
M  V30 878 C 78.5653 1.69919 -3.02894 0
M  V30 879 C 77.5193 1.24534 -4.09482 0
M  V30 880 C 76.8453 2.49394 -4.72977 0
M  V30 881 C 78.1453 0.361335 -5.21049 0
M  V30 882 H 79.8393 -0.0711406 -2.99315 0
M  V30 883 H 77.3853 -0.0356555 -1.43956 0
M  V30 884 H 79.3383 2.30668 -3.52662 0
M  V30 885 H 78.0623 2.33431 -2.28424 0
M  V30 886 H 76.7213 0.660782 -3.60596 0
M  V30 887 H 76.3693 3.11265 -3.95124 0
M  V30 888 H 76.0693 2.19718 -5.44975 0
M  V30 889 H 77.5933 3.10908 -5.25517 0
M  V30 890 H 79.0073 0.875072 -5.66582 0
M  V30 891 H 77.4043 0.157428 -5.99893 0
M  V30 892 H 78.4743 -0.60822 -4.8107 0
M  V30 893 N 79.8174 1.5752 -0.0501392 0
M  V30 894 C 81.2284 1.80271 0.485705 0
M  V30 895 C 81.5794 0.96228 1.70981 0
M  V30 896 O 80.7044 0.178578 2.15662 0
M  V30 897 C 81.2994 3.26957 0.887938 0
M  V30 898 C 79.8584 3.5063 1.36877 0
M  V30 899 C 79.0054 2.75165 0.343468 0
M  V30 900 H 81.9564 1.56281 -0.276028 0
M  V30 901 H 81.9774 3.37821 1.75093 0
M  V30 902 H 81.4894 3.881 -0.0031809 0
M  V30 903 H 79.5904 2.94766 2.27911 0
M  V30 904 H 79.7034 4.59343 1.36164 0
M  V30 905 H 78.0674 2.4127 0.816128 0
M  V30 906 H 78.8504 3.39034 -0.539548 0
M  V30 907 N 81.2955 -0.223234 1.56011 0
M  V30 908 C 82.2255 -1.27988 1.95298 0
M  V30 909 C 83.2065 -1.48976 0.820979 0
M  V30 910 O 84.3915 -1.61188 1.08315 0
M  V30 911 C 81.5215 -2.63 2.26822 0
M  V30 912 C 80.4755 -2.56671 3.42497 0
M  V30 913 C 79.8015 -3.95697 3.59622 0
M  V30 914 C 81.1015 -2.11601 4.77517 0
M  V30 915 H 82.7955 -0.953525 2.8381 0
M  V30 916 H 80.3415 -0.457244 1.36548 0
M  V30 917 H 82.2945 -3.37077 2.52898 0
M  V30 918 H 81.0185 -2.9732 1.35161 0
M  V30 919 H 79.6775 -1.85051 3.16467 0
M  V30 920 H 79.3255 -4.27322 2.6534 0
M  V30 921 H 79.0255 -3.92345 4.37424 0
M  V30 922 H 80.5495 -4.71438 3.88044 0
M  V30 923 H 81.9635 -2.7542 5.02809 0
M  V30 924 H 80.3605 -2.19311 5.5859 0
M  V30 925 H 81.4305 -1.06824 4.72987 0
M  V30 926 N 82.7736 -1.49793 -0.48987 0
M  V30 927 C 84.0226 -1.59085 -1.23995 0
M  V30 928 C 84.3356 -0.287907 -1.9347 0
M  V30 929 O 85.5416 -0.259506 -2.70257 0
M  V30 930 C 83.9976 -2.80736 -2.252 0
M  V30 931 C 83.6056 -4.17833 -1.61614 0
M  V30 932 C 85.3496 -2.99364 -3.00967 0
M  V30 933 C 83.2566 -5.30693 -2.60996 0
M  V30 934 H 82.1866 -0.592372 -0.466488 0
M  V30 935 H 84.8376 -1.76197 -0.51252 0
M  V30 936 H 83.2196 -2.57142 -3.01154 0
M  V30 937 H 84.3936 -4.51608 -0.915774 0
M  V30 938 H 82.7086 -4.04656 -0.981977 0
M  V30 939 H 85.3056 -3.80851 -3.75308 0
M  V30 940 H 85.6486 -2.10356 -3.59244 0
M  V30 941 H 86.1816 -3.2305 -2.32128 0
M  V30 942 H 82.9206 -6.21796 -2.07485 0
M  V30 943 H 82.4406 -5.01359 -3.2924 0
M  V30 944 H 84.1196 -5.6049 -3.23202 0
M  V30 945 N 84.2517 0.741722 -1.39055 0
M  V30 946 C 85.4977 1.50336 -1.36113 0
M  V30 947 C 85.8307 1.94148 0.0450796 0
M  V30 948 O 85.1057 1.66301 1.00868 0
M  V30 949 C 85.3887 2.74773 -2.32749 0
M  V30 950 C 85.2417 2.37023 -3.82283 0
M  V30 951 C 86.5607 3.76846 -2.27322 0
M  V30 952 H 83.6797 0.545351 -0.495743 0
M  V30 953 H 86.3217 0.848624 -1.69995 0
M  V30 954 H 84.4717 3.30639 -2.03986 0
M  V30 955 H 86.1437 1.8684 -4.21768 0
M  V30 956 H 84.3867 1.69334 -3.99385 0
M  V30 957 H 85.0577 3.26104 -4.45376 0
M  V30 958 H 87.5337 3.30548 -2.5274 0
M  V30 959 H 86.4097 4.6159 -2.97028 0
M  V30 960 H 86.6707 4.23286 -1.27599 0
M  V30 961 N 85.7298 1.2412 0.971189 0
M  V30 962 C 86.6768 1.0305 2.06517 0
M  V30 963 C 87.6468 -0.0550666 1.66009 0
M  V30 964 O 88.8318 0.0988688 1.90544 0
M  V30 965 C 85.9718 0.637653 3.39158 0
M  V30 966 C 85.0848 1.79633 3.92882 0
M  V30 967 C 84.2198 1.34939 5.13775 0
M  V30 968 C 83.2588 2.47823 5.59687 0
M  V30 969 N 82.3958 2.04022 6.71803 0
M  V30 970 H 87.2358 1.96685 2.23873 0
M  V30 971 H 84.7728 0.979694 1.09729 0
M  V30 972 H 86.7308 0.390931 4.15364 0
M  V30 973 H 85.3608 -0.261693 3.21737 0
M  V30 974 H 84.4128 2.15681 3.13346 0
M  V30 975 H 85.7248 2.64466 4.22918 0
M  V30 976 H 84.8788 1.06134 5.97345 0
M  V30 977 H 83.6178 0.471557 4.85415 0
M  V30 978 H 82.6228 2.77392 4.74693 0
M  V30 979 H 83.8478 3.36158 5.90063 0
M  V30 980 H 81.7938 1.18632 6.45184 0
M  V30 981 H 81.7108 2.82409 7.01271 0
M  V30 982 H 82.9788 1.78347 7.58823 0
M  V30 983 N 87.2079 -1.17134 1.05439 0
M  V30 984 C 88.1409 -2.2012 0.601855 0
M  V30 985 C 89.1189 -1.58314 -0.370854 0
M  V30 986 O 90.3029 -1.8638 -0.281882 0
M  V30 987 C 87.4299 -3.38491 -0.118868 0
M  V30 988 C 86.4759 -4.18752 0.809242 0
M  V30 989 S 87.3089 -4.83602 2.29977 0
M  V30 990 C 88.4649 -6.0536 1.59029 0
M  V30 991 H 88.6979 -2.58165 1.47438 0
M  V30 992 H 86.2309 -1.27788 0.866573 0
M  V30 993 H 88.1889 -4.07084 -0.528495 0
M  V30 994 H 86.8499 -2.98829 -0.967465 0
M  V30 995 H 86.0429 -5.03373 0.251379 0
M  V30 996 H 85.6449 -3.5561 1.15835 0
M  V30 997 H 87.9369 -6.71615 0.891017 0
M  V30 998 H 88.8799 -6.65679 2.41407 0
M  V30 999 H 89.2879 -5.54138 1.07663 0
M  V30 1000 N 88.686 -0.835752 -1.33615 0
M  V30 1001 C 89.649 -0.272 -2.2758 0
M  V30 1002 C 90.649 0.557487 -1.50827 0
M  V30 1003 O 91.839 0.37173 -1.70188 0
M  V30 1004 C 88.971 0.617173 -3.35267 0
M  V30 1005 H 90.164 -1.10111 -2.78954 0
M  V30 1006 H 87.717 -0.608594 -1.43965 0
M  V30 1007 H 88.452 1.46884 -2.89129 0
M  V30 1008 H 88.237 0.0237066 -3.92093 0
M  V30 1009 H 89.727 1.005 -4.05326 0
M  V30 1010 N 90.1641 1.46063 -0.591896 0
M  V30 1011 C 91.0941 2.33172 0.123673 0
M  V30 1012 C 92.0751 1.45897 0.87453 0
M  V30 1013 O 93.2601 1.74698 0.848181 0
M  V30 1014 C 90.3901 3.28336 1.13194 0
M  V30 1015 C 89.3441 4.25124 0.495324 0
M  V30 1016 C 88.6701 5.09863 1.61071 0
M  V30 1017 C 89.9701 5.19143 -0.573425 0
M  V30 1018 H 91.6641 2.93252 -0.603646 0
M  V30 1019 H 89.2101 1.41014 -0.291741 0
M  V30 1020 H 91.1631 3.88137 1.64097 0
M  V30 1021 H 89.8871 2.66383 1.88965 0
M  V30 1022 H 88.5461 3.66599 0.00729452 0
M  V30 1023 H 88.1941 4.44288 2.35832 0
M  V30 1024 H 87.8941 5.75417 1.19035 0
M  V30 1025 H 89.4181 5.72529 2.12233 0
M  V30 1026 H 90.8321 5.73106 -0.1491 0
M  V30 1027 H 89.2291 5.93089 -0.914636 0
M  V30 1028 H 90.2991 4.62519 -1.45617 0
M  V30 1029 N 91.6422 0.330177 1.54103 0
M  V30 1030 C 92.5742 -0.566902 2.22079 0
M  V30 1031 C 93.5872 -1.07462 1.22294 0
M  V30 1032 O 94.7762 -0.987065 1.48726 0
M  V30 1033 C 91.8762 -1.79138 2.87685 0
M  V30 1034 C 91.0492 -1.42123 4.13666 0
M  V30 1035 C 90.1082 -2.50394 4.62806 0
M  V30 1036 O 89.1342 -2.14261 5.27334 0
M  V30 1037 N 90.3362 -3.81433 4.37595 0
M  V30 1038 H 93.1012 0.0151844 2.99696 0
M  V30 1039 H 90.6622 0.153681 1.61169 0
M  V30 1040 H 92.6542 -2.50975 3.1748 0
M  V30 1041 H 91.2242 -2.28115 2.13734 0
M  V30 1042 H 90.4442 -0.534201 3.90564 0
M  V30 1043 H 91.7322 -1.14971 4.9564 0
M  V30 1044 H 91.1302 -4.13584 3.8596 0
M  V30 1045 H 89.6872 -4.4948 4.72029 0
M  V30 1046 N 93.1203 -1.57491 0.0584922 0
M  V30 1047 C 94.0503 -2.14988 -0.911178 0
M  V30 1048 C 95.0313 -1.07343 -1.31952 0
M  V30 1049 O 96.2163 -1.35318 -1.39294 0
M  V30 1050 C 93.3463 -2.70078 -2.18347 0
M  V30 1051 C 92.3003 -3.82771 -1.91495 0
M  V30 1052 C 91.6263 -4.24408 -3.25241 0
M  V30 1053 C 92.9263 -5.07592 -1.23075 0
M  V30 1054 H 94.6203 -2.96263 -0.432246 0
M  V30 1055 H 92.1663 -1.42512 -0.206469 0
M  V30 1056 H 94.1193 -3.08943 -2.86587 0
M  V30 1057 H 92.8433 -1.86005 -2.68458 0
M  V30 1058 H 91.5023 -3.44389 -1.25664 0
M  V30 1059 H 91.1503 -3.37275 -3.73168 0
M  V30 1060 H 90.8503 -5.00366 -3.08071 0
M  V30 1061 H 92.3743 -4.65879 -3.94701 0
M  V30 1062 H 93.7883 -5.43857 -1.81362 0
M  V30 1063 H 92.1853 -5.88741 -1.16207 0
M  V30 1064 H 93.2553 -4.84454 -0.207847 0
M  V30 1065 N 94.5984 0.214957 -1.56127 0
M  V30 1066 C 95.8444 0.939762 -1.79712 0
M  V30 1067 C 96.1774 1.83723 -0.629247 0
M  V30 1068 O 95.4524 1.90925 0.371197 0
M  V30 1069 C 95.7354 1.77306 -3.13424 0
M  V30 1070 C 95.5884 0.90164 -4.40671 0
M  V30 1071 C 96.9074 2.74956 -3.43638 0
M  V30 1072 H 94.0264 0.340214 -0.653776 0
M  V30 1073 H 96.6684 0.20824 -1.88855 0
M  V30 1074 H 94.8184 2.39673 -3.0576 0
M  V30 1075 H 96.4904 0.294206 -4.60361 0
M  V30 1076 H 94.7334 0.207368 -4.33304 0
M  V30 1077 H 95.4044 1.51923 -5.30682 0
M  V30 1078 H 97.8804 2.22724 -3.51473 0
M  V30 1079 H 96.7564 3.30358 -4.38355 0
M  V30 1080 H 97.0174 3.53023 -2.66134 0
M  V30 1081 N 96.0765 1.50051 0.48192 0
M  V30 1082 C 97.0065 1.71046 1.58951 0
M  V30 1083 C 97.9875 0.559288 1.60642 0
M  V30 1084 O 99.1725 0.797243 1.77081 0
M  V30 1085 C 96.3025 1.79462 2.97339 0
M  V30 1086 C 95.2565 2.94558 3.10515 0
M  V30 1087 C 94.5825 2.88105 4.50444 0
M  V30 1088 C 95.8825 4.35227 2.88747 0
M  V30 1089 H 97.5765 2.6378 1.41635 0
M  V30 1090 H 95.1225 1.26936 0.679942 0
M  V30 1091 H 97.0755 1.92734 3.74742 0
M  V30 1092 H 95.7995 0.833412 3.15788 0
M  V30 1093 H 94.4585 2.80918 2.35543 0
M  V30 1094 H 94.1065 1.89853 4.65795 0
M  V30 1095 H 93.8065 3.65366 4.60197 0
M  V30 1096 H 95.3305 3.03412 5.29881 0
M  V30 1097 H 96.7445 4.49449 3.55905 0
M  V30 1098 H 95.1415 5.13856 3.09955 0
M  V30 1099 H 96.2115 4.48347 1.84696 0
M  V30 1100 N 97.5546 -0.734337 1.39446 0
M  V30 1101 C 98.4846 -1.86155 1.40955 0
M  V30 1102 C 99.4656 -1.67898 0.272827 0
M  V30 1103 O 100.651 -1.88207 0.478743 0
M  V30 1104 C 97.7806 -3.23912 1.25294 0
M  V30 1105 C 96.7346 -3.56808 2.36373 0
M  V30 1106 C 96.0606 -4.93508 2.058 0
M  V30 1107 C 97.3606 -3.59713 3.78687 0
M  V30 1108 H 99.0546 -1.8515 2.35287 0
M  V30 1109 H 96.6006 -0.889367 1.13253 0
M  V30 1110 H 98.5536 -4.02443 1.2497 0
M  V30 1111 H 97.2776 -3.25446 0.274308 0
M  V30 1112 H 95.9366 -2.80606 2.35914 0
M  V30 1113 H 95.5846 -4.91623 1.06374 0
M  V30 1114 H 95.2846 -5.16486 2.80208 0
M  V30 1115 H 96.8086 -5.74396 2.07128 0
M  V30 1116 H 98.2226 -4.2832 3.81071 0
M  V30 1117 H 96.6196 -3.94209 4.52459 0
M  V30 1118 H 97.6896 -2.59504 4.09617 0
M  V30 1119 N 99.0327 -1.24633 -0.964593 0
M  V30 1120 C 100.282 -1.08188 -1.7023 0
M  V30 1121 C 100.595 0.37873 -1.91898 0
M  V30 1122 O 101.801 0.663427 -2.6327 0
M  V30 1123 C 100.257 -1.88773 -3.06419 0
M  V30 1124 C 99.8647 -3.39263 -2.92582 0
M  V30 1125 C 101.609 -1.80867 -3.84041 0
M  V30 1126 C 99.5157 -4.1218 -4.24101 0
M  V30 1127 H 98.4457 -0.401245 -0.638372 0
M  V30 1128 H 101.097 -1.48742 -1.07462 0
M  V30 1129 H 99.4787 -1.41035 -3.70034 0
M  V30 1130 H 100.653 -3.94603 -2.37961 0
M  V30 1131 H 98.9677 -3.48154 -2.28424 0
M  V30 1132 H 101.565 -2.32646 -4.81435 0
M  V30 1133 H 101.908 -0.774543 -4.09031 0
M  V30 1134 H 102.441 -2.26301 -3.27159 0
M  V30 1135 H 99.1797 -5.15965 -4.04303 0
M  V30 1136 H 98.6997 -3.61626 -4.78526 0
M  V30 1137 H 100.379 -4.19349 -4.92702 0
M  V30 1138 N 100.511 1.16574 -1.06058 0
M  V30 1139 C 101.459 2.22941 -0.663343 0
M  V30 1140 C 102.453 1.66358 0.319593 0
M  V30 1141 O 103.659 1.7905 0.184713 0
M  V30 1142 H 100.034 0.725907 -0.196376 0
M  V30 1143 H 102.005 2.53736 -1.57037 0
M  V30 1144 C 100.754 3.47642 -0.0632808 0
M  V30 1145 H 100.077 3.91493 -0.810733 0
M  V30 1146 H 101.517 4.2363 0.177177 0
M  V30 1147 C 99.9758 3.1509 1.19248 0
M  V30 1148 O 100.506 3.30673 2.28075 0
M  V30 1149 N 98.7118 2.6924 1.09353 0
M  V30 1150 H 98.2588 2.5676 0.207912 0
M  V30 1151 H 98.2168 2.47833 1.93458 0
M  V30 1152 N 101.989 0.842826 1.3317 0
M  V30 1153 C 103.235 0.441099 1.97945 0
M  V30 1154 C 103.568 -0.998024 1.66593 0
M  V30 1155 O 102.843 -1.69839 0.947898 0
M  V30 1156 C 103.126 0.666841 3.53872 0
M  V30 1157 C 102.979 2.15352 3.94897 0
M  V30 1158 C 104.298 0.115544 4.39948 0
M  V30 1159 H 101.417 0.161739 0.719034 0
M  V30 1160 H 104.059 1.05907 1.57746 0
M  V30 1161 H 102.209 0.140828 3.88245 0
M  V30 1162 H 103.881 2.7447 3.70761 0
M  V30 1163 H 102.124 2.63653 3.44484 0
M  V30 1164 H 102.795 2.26221 5.03516 0
M  V30 1165 H 105.271 0.565213 4.12243 0
M  V30 1166 H 104.147 0.303152 5.48062 0
M  V30 1167 H 104.408 -0.980935 4.3108 0
M  V30 1168 N 103.467 -1.45747 0.599634 0
M  V30 1169 C 104.744 -1.95585 0.0240846 0
M  V30 1170 C 105.124 -1.54217 -1.44154 0
M  V30 1171 O 104.472 -0.800903 -2.14004 0
M  V30 1172 C 104.682 -3.48344 0.21385 0
M  V30 1173 C 106.03 -4.24504 0.0904902 0
M  V30 1174 O 107.054 -3.55911 0.143558 0
M  V30 1175 O 105.913 -5.46491 -0.0310766 0
M  V30 1176 H 103.007 -0.82602 -0.0402478 0
M  V30 1177 H 105.553 -1.55951 0.669139 0
M  V30 1178 H 104.325 -3.71397 1.23206 0
M  V30 1179 H 103.948 -3.9485 -0.466842 0
M  V30 1180 N 104.945 -0.338344 -1.53925 0
M  V30 1181 C 105.855 0.529421 -2.28548 0
M  V30 1182 C 106.871 1.11645 -1.3346 0
M  V30 1183 O 108.047 1.13325 -1.66492 0
M  V30 1184 C 105.112 1.66713 -3.03987 0
M  V30 1185 C 104.173 1.11041 -4.14691 0
M  V30 1186 C 103.406 2.19389 -4.86522 0
M  V30 1187 O 103.629 3.40013 -4.57982 0
M  V30 1188 O 102.563 1.83976 -5.73094 0
M  V30 1189 H 106.389 -0.0770399 -3.03602 0
M  V30 1190 H 103.974 -0.103555 -1.49041 0
M  V30 1191 H 105.856 2.32918 -3.5118 0
M  V30 1192 H 104.531 2.25949 -2.31794 0
M  V30 1193 H 103.438 0.413024 -3.71813 0
M  V30 1194 H 104.771 0.562975 -4.8897 0
M  V30 1195 N 106.423 1.57458 -0.0668435 0
M  V30 1196 C 107.37 2.12439 0.902122 0
M  V30 1197 C 108.34 1.03565 1.2986 0
M  V30 1198 O 109.525 1.312 1.38532 0
M  V30 1199 C 106.665 2.6865 2.16614 0
M  V30 1200 C 105.778 3.91663 1.82274 0
M  V30 1201 C 104.913 4.36134 3.0325 0
M  V30 1202 C 103.952 5.51808 2.64904 0
M  V30 1203 N 103.089 5.9126 3.78624 0
M  V30 1204 H 107.929 2.94934 0.426382 0
M  V30 1205 H 105.466 1.4575 0.198819 0
M  V30 1206 H 107.424 2.99346 2.90599 0
M  V30 1207 H 106.054 1.88928 2.61737 0
M  V30 1208 H 105.106 3.6746 0.983719 0
M  V30 1209 H 106.418 4.75693 1.50059 0
M  V30 1210 H 105.572 4.68465 3.85519 0
M  V30 1211 H 104.311 3.50948 3.38655 0
M  V30 1212 H 103.316 5.19133 1.81055 0
M  V30 1213 H 104.541 6.38722 2.30675 0
M  V30 1214 H 102.487 5.09024 4.138 0
M  V30 1215 H 102.404 6.70018 3.5016 0
M  V30 1216 H 103.672 6.28212 4.61486 0
M  V30 1217 N 107.901 -0.206675 1.56239 0
M  V30 1218 C 109.178 -0.954051 1.70755 0
M  V30 1219 C 109.558 -2.01841 0.618353 0
M  V30 1220 O 108.906 -2.25444 -0.372434 0
M  V30 1221 C 109.116 -1.551 3.12642 0
M  V30 1222 C 110.464 -2.03757 3.72516 0
M  V30 1223 O 111.488 -1.64965 3.15698 0
M  V30 1224 O 110.347 -2.75103 4.72208 0
M  V30 1225 H 107.441 -0.446636 0.696021 0
M  V30 1226 H 109.987 -0.197283 1.68549 0
M  V30 1227 H 108.759 -0.783212 3.83382 0
M  V30 1228 H 108.382 -2.37291 3.19028 0
M  V30 1229 N 109.379 -1.50304 -0.473955 0
M  V30 1230 C 110.311 -1.65109 -1.58971 0
M  V30 1231 C 111.324 -0.532676 -1.53839 0
M  V30 1232 O 112.513 -0.805751 -1.59279 0
M  V30 1233 C 109.613 -1.61684 -2.97845 0
M  V30 1234 C 108.786 -2.8951 -3.27876 0
M  V30 1235 C 107.845 -2.78768 -4.4629 0
M  V30 1236 O 106.871 -3.52722 -4.46739 0
M  V30 1237 N 108.073 -1.9213 -5.47783 0
M  V30 1238 H 110.838 -2.61347 -1.46689 0
M  V30 1239 H 108.399 -1.47732 -0.662324 0
M  V30 1240 H 110.391 -1.52114 -3.75024 0
M  V30 1241 H 108.961 -0.731925 -3.03911 0
M  V30 1242 H 108.181 -3.13228 -2.39336 0
M  V30 1243 H 109.469 -3.74199 -3.4475 0
M  V30 1244 H 108.867 -1.31353 -5.50239 0
M  V30 1245 H 107.424 -1.88466 -6.23958 0
M  V30 1246 N 110.857 0.726932 -1.39834 0
M  V30 1247 C 112.103 1.48884 -1.377 0
M  V30 1248 C 112.436 1.94185 0.0244852 0
M  V30 1249 O 111.711 1.67361 0.990986 0
M  V30 1250 C 111.994 2.72288 -2.3565 0
M  V30 1251 C 111.847 2.32956 -3.84775 0
M  V30 1252 C 113.166 3.74414 -2.31306 0
M  V30 1253 H 110.285 0.540062 -0.5015 0
M  V30 1254 H 112.927 0.830547 -1.70886 0
M  V30 1255 H 111.077 3.28457 -2.07481 0
M  V30 1256 H 112.749 1.82356 -4.23726 0
M  V30 1257 H 110.992 1.65088 -4.01159 0
M  V30 1258 H 111.663 3.21362 -4.4881 0
M  V30 1259 H 114.139 3.27849 -2.56231 0
M  V30 1260 H 113.015 4.58414 -3.01907 0
M  V30 1261 H 113.276 4.21909 -1.32081 0
M  V30 1262 N 112.336 1.25143 0.95797 0
M  V30 1263 C 113.269 0.995565 2.05338 0
M  V30 1264 C 114.247 -0.0740423 1.62431 0
M  V30 1265 O 115.431 0.0649212 1.88388 0
M  V30 1266 C 112.558 0.504298 3.34925 0
M  V30 1267 C 111.604 1.56393 3.96792 0
M  V30 1268 S 112.437 3.14815 4.33188 0
M  V30 1269 C 113.593 2.67415 5.65898 0
M  V30 1270 H 113.826 1.92309 2.26726 0
M  V30 1271 H 111.359 1.08635 1.09716 0
M  V30 1272 H 113.317 0.227497 4.09869 0
M  V30 1273 H 111.978 -0.402671 3.11508 0
M  V30 1274 H 111.171 1.17082 4.90212 0
M  V30 1275 H 110.773 1.79124 3.28315 0
M  V30 1276 H 113.065 2.10833 6.4386 0
M  V30 1277 H 114.008 3.59463 6.10076 0
M  V30 1278 H 114.416 2.07521 5.24972 0
M  V30 1279 N 113.814 -1.1601 1.06675 0
M  V30 1280 C 114.764 -2.18512 0.650888 0
M  V30 1281 C 115.748 -1.57677 -0.320441 0
M  V30 1282 O 116.94 -1.76482 -0.135266 0
M  V30 1283 C 114.069 -3.43273 0.0429255 0
M  V30 1284 C 113.155 -4.11176 1.03898 0
M  V30 1285 N 113.546 -4.54672 2.216 0
M  V30 1286 C 111.844 -4.37417 0.870779 0
M  V30 1287 C 112.545 -5.07248 2.84736 0
M  V30 1288 N 111.521 -5.0037 2.12441 0
M  V30 1289 H 115.323 -2.49863 1.54745 0
M  V30 1290 H 112.837 -1.32503 0.938975 0
M  V30 1291 H 114.834 -4.16006 -0.272857 0
M  V30 1292 H 113.494 -3.13408 -0.84884 0
M  V30 1293 H 114.505 -4.4828 2.59356 0
M  V30 1294 H 111.182 -4.17488 0.0313293 0
M  V30 1295 H 112.572 -5.50912 3.84636 0
M  V30 1296 N 115.292 -0.849877 -1.32721 0
M  V30 1297 C 116.52 -0.464754 -2.01613 0
M  V30 1298 C 116.935 0.937191 -1.63897 0
M  V30 1299 O 116.292 1.61081 -0.857856 0
M  V30 1300 C 116.343 -0.588638 -3.56675 0
M  V30 1301 O 116.064 -1.93535 -3.93034 0
M  V30 1302 C 117.565 -0.2019 -4.4284 0
M  V30 1303 H 114.785 -0.183215 -0.645502 0
M  V30 1304 H 117.329 -1.1455 -1.69407 0
M  V30 1305 H 115.484 0.0443159 -3.87375 0
M  V30 1306 H 115.898 -1.92871 -4.87751 0
M  V30 1307 H 117.372 -0.339599 -5.50954 0
M  V30 1308 H 117.849 0.857224 -4.30753 0
M  V30 1309 H 118.455 -0.809733 -4.17521 0
M  V30 1310 N 116.77 1.45427 -0.607355 0
M  V30 1311 C 117.718 2.32269 0.12411 0
M  V30 1312 C 118.712 1.45955 0.859854 0
M  V30 1313 O 119.918 1.6244 0.775447 0
M  V30 1314 H 116.293 0.749691 0.0588839 0
M  V30 1315 H 118.264 2.91743 -0.626762 0
M  V30 1316 C 117.013 3.29567 1.1082 0
M  V30 1317 H 116.336 3.95978 0.551492 0
M  V30 1318 H 117.776 3.93061 1.58995 0
M  V30 1319 C 116.235 2.56722 2.18164 0
M  V30 1320 O 116.765 2.34842 3.25902 0
M  V30 1321 N 114.971 2.16861 1.93442 0
M  V30 1322 H 114.518 2.34855 1.05834 0
M  V30 1323 H 114.476 1.68444 2.65469 0
M  V30 1324 N 118.248 0.346503 1.53744 0
M  V30 1325 C 119.494 -0.249473 2.0126 0
M  V30 1326 C 119.827 -1.49965 1.23386 0
M  V30 1327 O 119.102 -1.91811 0.32229 0
M  V30 1328 C 119.385 -0.560643 3.55709 0
M  V30 1329 C 119.238 0.701836 4.44291 0
M  V30 1330 C 120.557 -1.36905 4.18264 0
M  V30 1331 H 117.676 -0.0891987 0.731582 0
M  V30 1332 H 120.318 0.467624 1.84156 0
M  V30 1333 H 118.468 -1.17156 3.70414 0
M  V30 1334 H 120.14 1.33974 4.41417 0
M  V30 1335 H 118.383 1.32612 4.13033 0
M  V30 1336 H 119.054 0.43933 5.50249 0
M  V30 1337 H 121.53 -0.852448 4.07275 0
M  V30 1338 H 120.406 -1.55553 5.26398 0
M  V30 1339 H 120.667 -2.37203 3.73078 0
M  V30 1340 N 119.726 -1.57421 0.075193 0
M  V30 1341 C 120.972 -1.94716 -0.587998 0
M  V30 1342 C 121.327 -0.955205 -1.67014 0
M  V30 1343 O 120.62 0.0219842 -1.91587 0
M  V30 1344 C 120.814 -3.36428 -1.20626 0
M  V30 1345 C 120.643 -4.49317 -0.185541 0
M  V30 1346 C 119.413 -5.04772 0.23099 0
M  V30 1347 C 121.611 -5.11036 0.57854 0
M  V30 1348 N 119.593 -6.01204 1.24206 0
M  V30 1349 C 120.964 -6.02998 1.44199 0
M  V30 1350 C 123.019 -4.93844 0.634237 0
M  V30 1351 C 121.722 -6.79614 2.3562 0
M  V30 1352 C 123.748 -5.71106 1.53597 0
M  V30 1353 C 123.11 -6.6272 2.38709 0
M  V30 1354 H 119.209 -0.759536 -0.186089 0
M  V30 1355 H 121.793 -1.94097 0.153128 0
M  V30 1356 H 119.964 -3.37778 -1.9173 0
M  V30 1357 H 121.696 -3.60951 -1.8302 0
M  V30 1358 H 118.451 -4.73353 -0.152807 0
M  V30 1359 H 118.875 -6.54119 1.74521 0
M  V30 1360 H 123.517 -4.22799 -0.00960004 0
M  V30 1361 H 121.235 -7.49934 3.01038 0
M  V30 1362 H 124.821 -5.59824 1.58394 0
M  V30 1363 H 123.701 -7.2146 3.07352 0
M  V30 1364 N 121.204 0.198386 -1.56346 0
M  V30 1365 C 122.134 1.24865 -1.9731 0
M  V30 1366 C 123.115 1.47651 -0.844576 0
M  V30 1367 O 124.3 1.59444 -1.10866 0
M  V30 1368 C 121.43 2.59358 -2.30977 0
M  V30 1369 C 120.384 2.5119 -3.46537 0
M  V30 1370 C 119.71 3.89926 -3.65871 0
M  V30 1371 C 121.01 2.03977 -4.80823 0
M  V30 1372 H 122.704 0.908252 -2.85291 0
M  V30 1373 H 120.25 0.435462 -1.37258 0
M  V30 1374 H 122.203 3.33011 -2.58228 0
M  V30 1375 H 120.927 2.95132 -1.39874 0
M  V30 1376 H 119.586 1.79993 -3.19371 0
M  V30 1377 H 119.234 4.23046 -2.72105 0
M  V30 1378 H 118.934 3.85336 -4.4361 0
M  V30 1379 H 120.458 4.65205 -3.95495 0
M  V30 1380 H 121.872 2.67386 -5.07127 0
M  V30 1381 H 120.269 2.10397 -5.62008 0
M  V30 1382 H 121.339 0.992861 -4.74626 0
M  V30 1383 N 122.682 1.50554 0.465978 0
M  V30 1384 C 123.91 1.65563 1.24083 0
M  V30 1385 C 124.325 0.341051 1.85694 0
M  V30 1386 O 123.682 -0.677543 1.69457 0
M  V30 1387 C 123.733 2.75051 2.34583 0
M  V30 1388 O 123.454 4.01413 1.75497 0
M  V30 1389 C 124.955 3.01078 3.25372 0
M  V30 1390 H 122.175 0.55638 0.375077 0
M  V30 1391 H 124.719 1.96807 0.555624 0
M  V30 1392 H 122.874 2.46486 2.9887 0
M  V30 1393 H 123.288 4.62002 2.48303 0
M  V30 1394 H 124.762 3.81339 3.99105 0
M  V30 1395 H 125.239 2.12349 3.84453 0
M  V30 1396 H 125.845 3.31194 2.66816 0
M  V30 1397 N 124.16 -0.719506 1.40217 0
M  V30 1398 C 125.09 -1.8465 1.42922 0
M  V30 1399 C 126.071 -1.67599 0.29062 0
M  V30 1400 O 127.256 -1.87688 0.498677 0
M  V30 1401 C 124.386 -3.22565 1.28722 0
M  V30 1402 C 123.34 -3.54281 2.40144 0
M  V30 1403 C 122.666 -4.91298 2.11023 0
M  V30 1404 C 123.966 -3.55676 3.82481 0
M  V30 1405 H 125.66 -1.82644 2.37237 0
M  V30 1406 H 123.206 -0.877305 1.1419 0
M  V30 1407 H 125.159 -4.01095 1.29232 0
M  V30 1408 H 123.883 -3.25137 0.308811 0
M  V30 1409 H 122.542 -2.78088 2.38877 0
M  V30 1410 H 122.19 -4.90468 1.11582 0
M  V30 1411 H 121.89 -5.13485 2.8567 0
M  V30 1412 H 123.414 -5.72166 2.13209 0
M  V30 1413 H 124.828 -4.24254 3.85592 0
M  V30 1414 H 123.225 -3.89388 4.56614 0
M  V30 1415 H 124.295 -2.55144 4.12346 0
M  V30 1416 N 125.638 -1.25649 -0.95132 0
M  V30 1417 C 126.57 -1.02112 -2.05197 0
M  V30 1418 C 127.583 0.0150571 -1.62793 0
M  V30 1419 O 128.772 -0.223874 -1.77091 0
M  V30 1420 C 125.872 -0.522361 -3.3485 0
M  V30 1421 C 125.045 -1.62546 -4.06076 0
M  V30 1422 C 124.104 -1.12649 -5.14001 0
M  V30 1423 O 123.13 -1.82156 -5.39266 0
M  V30 1424 N 124.332 0.03047 -5.80492 0
M  V30 1425 H 127.097 -1.96885 -2.25957 0
M  V30 1426 H 124.658 -1.16899 -1.1201 0
M  V30 1427 H 126.65 -0.172961 -4.0433 0
M  V30 1428 H 125.22 0.33151 -3.10837 0
M  V30 1429 H 124.44 -2.14628 -3.30649 0
M  V30 1430 H 125.728 -2.36644 -4.50419 0
M  V30 1431 H 125.126 0.611169 -5.62389 0
M  V30 1432 H 123.683 0.320875 -6.5101 0
M  V30 1433 N 127.117 1.15442 -1.07289 0
M  V30 1434 C 128.363 1.8672 -0.806679 0
M  V30 1435 C 128.718 1.80723 0.660084 0
M  V30 1436 O 128.011 1.21902 1.47819 0
M  V30 1437 C 128.205 3.3489 -1.24834 0
M  V30 1438 C 128.034 3.55313 -2.7565 0
M  V30 1439 C 126.804 3.7082 -3.4325 0
M  V30 1440 C 129.002 3.53188 -3.73848 0
M  V30 1441 N 126.984 3.7929 -4.82713 0
M  V30 1442 C 128.355 3.67765 -4.99149 0
M  V30 1443 C 130.41 3.36459 -3.67015 0
M  V30 1444 C 129.113 3.6734 -6.18428 0
M  V30 1445 C 131.139 3.37333 -4.85758 0
M  V30 1446 C 130.501 3.52438 -6.09891 0
M  V30 1447 H 126.6 0.700433 -0.347733 0
M  V30 1448 H 129.184 1.38441 -1.36902 0
M  V30 1449 H 127.355 3.81786 -0.713713 0
M  V30 1450 H 129.087 3.93875 -0.929745 0
M  V30 1451 H 125.842 3.71568 -2.93656 0
M  V30 1452 H 126.266 3.8727 -5.55294 0
M  V30 1453 H 130.908 3.237 -2.71989 0
M  V30 1454 H 128.626 3.78878 -7.13777 0
M  V30 1455 H 132.212 3.25617 -4.82146 0
M  V30 1456 H 131.092 3.53047 -7.00234 0
M  V30 1457 N 128.595 0.856903 1.32268 0
M  V30 1458 C 129.545 0.274899 2.26337 0
M  V30 1459 C 130.529 -0.580543 1.50062 0
M  V30 1460 O 131.721 -0.429559 1.71708 0
M  V30 1461 C 128.85 -0.533841 3.39124 0
M  V30 1462 C 127.936 0.334114 4.22782 0
M  V30 1463 N 128.327 1.42143 4.85416 0
M  V30 1464 C 126.625 0.124256 4.45827 0
M  V30 1465 C 127.326 1.95559 5.47843 0
M  V30 1466 N 126.302 1.25444 5.28928 0
M  V30 1467 H 130.104 1.10612 2.72291 0
M  V30 1468 H 127.618 0.703258 1.46383 0
M  V30 1469 H 129.615 -0.96722 4.05525 0
M  V30 1470 H 128.275 -1.36283 2.94715 0
M  V30 1471 H 129.286 1.80436 4.85451 0
M  V30 1472 H 125.963 -0.669837 4.12092 0
M  V30 1473 H 127.353 2.86714 6.07655 0
M  V30 1474 N 130.073 -1.45103 0.615059 0
M  V30 1475 C 131.35 -1.95549 0.0448276 0
M  V30 1476 C 131.73 -1.55737 -1.4251 0
M  V30 1477 O 131.078 -0.823556 -2.13143 0
M  V30 1478 C 131.288 -3.48098 0.250785 0
M  V30 1479 C 132.636 -4.24384 0.135509 0
M  V30 1480 O 133.66 -3.55738 0.181299 0
M  V30 1481 O 132.519 -5.46493 0.0268878 0
M  V30 1482 H 129.613 -0.8264 -0.0314845 0
M  V30 1483 H 132.159 -1.55232 0.685642 0
M  V30 1484 H 130.931 -3.7007 1.27139 0
M  V30 1485 H 130.554 -3.95323 -0.424937 0
M  V30 1486 N 131.551 -0.354651 -1.53558 0
M  V30 1487 C 132.798 0.238443 -2.01091 0
M  V30 1488 C 133.126 1.49663 -1.24222 0
M  V30 1489 O 132.381 1.93049 -0.321003 0
M  V30 1490 C 132.68 0.587121 -3.52545 0
M  V30 1491 C 132.346 -0.575472 -4.47213 0
M  V30 1492 C 131.008 -0.894497 -4.72813 0
M  V30 1493 C 133.36 -1.35489 -5.03281 0
M  V30 1494 C 130.688 -1.99511 -5.51736 0
M  V30 1495 C 133.04 -2.44583 -5.83405 0
M  V30 1496 C 131.704 -2.77033 -6.07296 0
M  V30 1497 H 130.974 0.0872526 -0.735845 0
M  V30 1498 H 133.621 -0.484859 -1.8526 0
M  V30 1499 H 131.926 1.39129 -3.66265 0
M  V30 1500 H 133.623 1.05809 -3.86789 0
M  V30 1501 H 130.213 -0.316774 -4.27428 0
M  V30 1502 H 134.397 -1.12167 -4.83459 0
M  V30 1503 H 129.653 -2.25063 -5.68469 0
M  V30 1504 H 133.827 -3.05401 -6.25862 0
M  V30 1505 H 131.454 -3.6244 -6.68237 0
M  V30 1506 N 133.029 1.57378 -0.0835403 0
M  V30 1507 C 133.961 2.10389 0.909338 0
M  V30 1508 C 134.974 1.03858 1.25369 0
M  V30 1509 O 136.163 1.31338 1.20882 0
M  V30 1510 C 133.263 2.55908 2.2218 0
M  V30 1511 C 132.436 3.86145 2.05453 0
M  V30 1512 C 131.495 4.17633 3.20108 0
M  V30 1513 O 130.521 4.87043 2.94581 0
M  V30 1514 N 131.723 3.72113 4.45547 0
M  V30 1515 H 134.488 2.962 0.456657 0
M  V30 1516 H 132.049 1.61579 0.101877 0
M  V30 1517 H 134.041 2.74027 2.97811 0
M  V30 1518 H 132.611 1.75171 2.58909 0
M  V30 1519 H 131.831 3.7729 1.1422 0
M  V30 1520 H 133.119 4.7137 1.91541 0
M  V30 1521 H 132.517 3.16062 4.69171 0
M  V30 1522 H 131.074 3.95409 5.18165 0
M  V30 1523 N 134.507 -0.190092 1.56449 0
M  V30 1524 C 135.44 -1.26375 1.90012 0
M  V30 1525 C 136.418 -1.43705 0.760765 0
M  V30 1526 O 137.602 -1.59014 1.01226 0
M  V30 1527 C 134.729 -2.62962 2.13468 0
M  V30 1528 C 133.775 -2.62474 3.36169 0
M  V30 1529 S 134.608 -2.13412 4.91137 0
M  V30 1530 C 135.764 -3.51812 5.17667 0
M  V30 1531 H 135.997 -0.977181 2.80782 0
M  V30 1532 H 133.53 -0.393814 1.49293 0
M  V30 1533 H 135.488 -3.41583 2.27664 0
M  V30 1534 H 134.149 -2.88828 1.23439 0
M  V30 1535 H 133.342 -3.62918 3.49723 0
M  V30 1536 H 132.944 -1.91937 3.20992 0
M  V30 1537 H 135.236 -4.47706 5.08494 0
M  V30 1538 H 136.179 -3.43148 6.19399 0
M  V30 1539 H 136.587 -3.46956 4.45288 0
M  V30 1540 N 135.985 -1.50799 -0.457987 0
M  V30 1541 C 136.932 -1.70617 -1.5543 0
M  V30 1542 C 137.902 -0.547562 -1.56815 0
M  V30 1543 O 139.087 -0.779647 -1.74144 0
M  V30 1544 C 136.227 -1.81831 -2.93311 0
M  V30 1545 C 135.34 -3.09278 -3.01615 0
M  V30 1546 C 134.475 -3.11209 -4.30491 0
M  V30 1547 C 133.514 -4.33055 -4.32585 0
M  V30 1548 N 132.651 -4.32652 -5.52952 0
M  V30 1549 H 137.491 -2.64207 -1.37836 0
M  V30 1550 H 135.028 -1.30959 -0.669937 0
M  V30 1551 H 136.986 -1.86314 -3.73287 0
M  V30 1552 H 135.616 -0.916685 -3.0951 0
M  V30 1553 H 134.668 -3.14203 -2.1443 0
M  V30 1554 H 135.98 -3.99233 -2.99022 0
M  V30 1555 H 135.134 -3.14494 -5.18824 0
M  V30 1556 H 133.873 -2.19106 -4.35711 0
M  V30 1557 H 132.878 -4.29969 -3.42647 0
M  V30 1558 H 134.103 -5.264 -4.29046 0
M  V30 1559 H 132.049 -3.43409 -5.58933 0
M  V30 1560 H 131.966 -5.16392 -5.52155 0
M  V30 1561 H 133.234 -4.40101 -6.43375 0
M  V30 1562 N 137.463 0.71206 -1.40597 0
M  V30 1563 C 138.709 1.47292 -1.40274 0
M  V30 1564 C 139.064 1.92399 -0.00576812 0
M  V30 1565 O 138.357 1.65507 0.965297 0
M  V30 1566 C 138.551 2.71039 -2.32965 0
M  V30 1567 C 138.38 2.38035 -3.81536 0
M  V30 1568 C 137.15 2.29203 -4.50327 0
M  V30 1569 C 139.348 2.02076 -4.72938 0
M  V30 1570 N 137.33 1.88911 -5.84111 0
M  V30 1571 C 138.701 1.72412 -5.95545 0
M  V30 1572 C 140.756 1.88742 -4.60739 0
M  V30 1573 C 139.459 1.30756 -7.07316 0
M  V30 1574 C 141.485 1.4849 -5.72455 0
M  V30 1575 C 140.847 1.19726 -6.94151 0
M  V30 1576 H 136.946 0.536919 -0.568544 0
M  V30 1577 H 139.53 0.825424 -1.76337 0
M  V30 1578 H 137.701 3.33533 -1.99023 0
M  V30 1579 H 139.433 3.37404 -2.23474 0
M  V30 1580 H 136.188 2.47059 -4.04053 0
M  V30 1581 H 136.612 1.71293 -6.54972 0
M  V30 1582 H 141.254 2.0964 -3.67166 0
M  V30 1583 H 138.972 1.08601 -8.00769 0
M  V30 1584 H 142.558 1.38747 -5.65014 0
M  V30 1585 H 141.438 0.890482 -7.79128 0
M  V30 1586 N 138.941 1.26152 0.944643 0
M  V30 1587 C 139.889 1.07215 2.06417 0
M  V30 1588 C 140.883 9.2007e-05 1.694 0
M  V30 1589 O 142.089 0.1565 1.79318 0
M  V30 1590 H 138.464 0.329837 0.675805 0
M  V30 1591 H 140.435 2.02099 2.19541 0
M  V30 1592 C 139.184 0.718197 3.40202 0
M  V30 1593 H 138.507 1.53497 3.69159 0
M  V30 1594 H 139.947 0.625459 4.19361 0
M  V30 1595 C 138.406 -0.576435 3.31932 0
M  V30 1596 O 138.936 -1.61574 3.67773 0
M  V30 1597 N 137.142 -0.565781 2.85039 0
M  V30 1598 H 136.689 0.280367 2.5607 0
M  V30 1599 H 136.647 -1.43213 2.79888 0
M  V30 1600 N 140.419 -1.14872 1.07899 0
M  V30 1601 C 141.83 -1.67367 0.827363 0
M  V30 1602 C 142.181 -1.85236 -0.646693 0
M  V30 1603 O 141.306 -1.55974 -1.50004 0
M  V30 1604 C 141.901 -3.04016 1.49532 0
M  V30 1605 C 140.46 -3.53566 1.29106 0
M  V30 1606 C 139.607 -2.29161 1.56143 0
M  V30 1607 H 142.558 -0.990083 1.24028 0
M  V30 1608 H 142.579 -3.69219 0.919643 0
M  V30 1609 H 142.091 -2.90978 2.56814 0
M  V30 1610 H 140.192 -3.71835 0.238713 0
M  V30 1611 H 140.305 -4.34661 2.01511 0
M  V30 1612 H 138.669 -2.34978 0.982717 0
M  V30 1613 H 139.452 -2.18705 2.64619 0
M  V30 1614 N 141.898 -0.863906 -1.31812 0
M  V30 1615 C 143.144 -0.472535 -1.97218 0
M  V30 1616 C 143.477 0.971394 -1.68159 0
M  V30 1617 O 142.752 1.68309 -0.974798 0
M  V30 1618 C 143.035 -0.723054 -3.52766 0
M  V30 1619 C 142.888 -2.21608 -3.91421 0
M  V30 1620 C 144.207 -0.185522 -4.39709 0
M  V30 1621 H 141.326 -0.173158 -0.71637 0
M  V30 1622 H 143.968 -1.08403 -1.56041 0
M  V30 1623 H 142.118 -0.202577 -3.87971 0
M  V30 1624 H 143.79 -2.80334 -3.66347 0
M  V30 1625 H 142.033 -2.691 -3.40246 0
M  V30 1626 H 142.704 -2.34203 -4.99853 0
M  V30 1627 H 145.18 -0.630726 -4.11292 0
M  V30 1628 H 144.056 -0.390306 -5.47511 0
M  V30 1629 H 144.317 0.912229 -4.32586 0
M  V30 1630 N 143.376 1.44774 -0.622745 0
M  V30 1631 C 144.324 2.32387 0.0994683 0
M  V30 1632 C 145.318 1.46859 0.844326 0
M  V30 1633 O 146.524 1.63254 0.758174 0
M  V30 1634 H 142.899 0.750273 0.0509291 0
M  V30 1635 H 144.87 2.91062 -0.65767 0
M  V30 1636 C 143.619 3.30723 1.07319 0
M  V30 1637 H 142.942 3.96541 0.509462 0
M  V30 1638 H 144.382 3.94725 1.54817 0
M  V30 1639 C 142.841 2.59021 2.15429 0
M  V30 1640 O 143.371 2.38286 3.23393 0
M  V30 1641 N 141.577 2.189 1.91131 0
M  V30 1642 H 141.124 2.35964 1.03337 0
M  V30 1643 H 141.082 1.71251 2.63668 0
M  V30 1644 N 144.854 0.36279 1.53368 0
M  V30 1645 C 146.084 -0.228281 2.05335 0
M  V30 1646 C 146.492 -1.43226 1.23625 0
M  V30 1647 O 145.835 -1.81717 0.269206 0
M  V30 1648 C 145.897 -0.688549 3.52845 0
M  V30 1649 C 145.561 0.398362 4.5526 0
M  V30 1650 C 146.558 1.24732 5.04716 0
M  V30 1651 C 144.243 0.557805 4.99193 0
M  V30 1652 C 146.237 2.2411 5.96702 0
M  V30 1653 C 143.924 1.55495 5.90986 0
M  V30 1654 C 144.922 2.39503 6.39631 0
M  V30 1655 O 144.61 3.37517 7.29615 0
M  V30 1656 H 144.342 -0.044395 0.674541 0
M  V30 1657 H 146.896 0.518668 1.98744 0
M  V30 1658 H 145.126 -1.48706 3.56964 0
M  V30 1659 H 146.815 -1.20231 3.87685 0
M  V30 1660 H 147.581 1.13532 4.71525 0
M  V30 1661 H 143.46 -0.0862959 4.60919 0
M  V30 1662 H 147.004 2.89718 6.34594 0
M  V30 1663 H 142.901 1.66744 6.23592 0
M  V30 1664 H 143.669 3.33213 7.47604 0
M  V30 1665 N 146.332 -1.57332 0.0918853 0
M  V30 1666 C 147.58 -1.93853 -0.571446 0
M  V30 1667 C 147.901 -0.974212 -1.6892 0
M  V30 1668 O 147.171 -0.0257254 -1.95883 0
M  V30 1669 H 145.751 -0.715666 -0.214082 0
M  V30 1670 H 148.413 -1.94287 0.154464 0
M  V30 1671 H 147.509 -2.96191 -0.983729 0
M  V30 1672 N 147.81 0.181792 -1.56548 0
M  V30 1673 C 148.72 1.24538 -1.98815 0
M  V30 1674 C 149.736 1.49045 -0.897861 0
M  V30 1675 O 150.912 1.61399 -1.20467 0
M  V30 1676 C 147.977 2.56683 -2.33055 0
M  V30 1677 C 147.038 2.40131 -3.55859 0
M  V30 1678 C 146.271 3.65975 -3.88456 0
M  V30 1679 O 146.494 4.70711 -3.22161 0
M  V30 1680 O 145.428 3.6071 -4.81842 0
M  V30 1681 H 149.254 0.916647 -2.89536 0
M  V30 1682 H 146.839 0.387842 -1.44278 0
M  V30 1683 H 148.721 3.34655 -2.56094 0
M  V30 1684 H 147.396 2.89157 -1.45498 0
M  V30 1685 H 146.303 1.60226 -3.38051 0
M  V30 1686 H 147.636 2.12585 -4.43924 0
M  V30 1687 N 149.288 1.51039 0.449983 0
M  V30 1688 C 150.537 1.62317 1.19733 0
M  V30 1689 C 150.85 0.339101 1.92638 0
M  V30 1690 O 152.056 0.331069 2.69474 0
M  V30 1691 C 150.512 2.86608 2.17678 0
M  V30 1692 C 150.12 4.21972 1.50479 0
M  V30 1693 C 151.864 3.07239 2.92924 0
M  V30 1694 C 149.771 5.37426 2.46834 0
M  V30 1695 H 148.701 0.604532 0.450619 0
M  V30 1696 H 151.352 1.77494 0.465625 0
M  V30 1697 H 149.734 2.65037 2.94231 0
M  V30 1698 H 150.908 4.53878 0.795716 0
M  V30 1699 H 149.223 4.07117 0.874344 0
M  V30 1700 H 151.82 3.90668 3.65079 0
M  V30 1701 H 152.163 2.19807 3.5354 0
M  V30 1702 H 152.696 3.29091 2.23481 0
M  V30 1703 H 149.435 6.27079 1.90926 0
M  V30 1704 H 148.955 5.09912 3.15832 0
M  V30 1705 H 150.634 5.68862 3.08228 0
M  V30 1706 N 150.766 -0.704594 1.40972 0
M  V30 1707 C 151.713 -1.81862 1.42109 0
M  V30 1708 C 152.683 -1.63781 0.276593 0
M  V30 1709 O 153.868 -1.84759 0.4763 0
M  V30 1710 C 151.008 -3.19669 1.30022 0
M  V30 1711 C 150.121 -3.49246 2.54267 0
M  V30 1712 C 149.256 -4.76618 2.3454 0
M  V30 1713 C 148.295 -4.99133 3.54306 0
M  V30 1714 N 147.432 -6.17726 3.33706 0
M  V30 1715 H 152.272 -1.80226 2.37324 0
M  V30 1716 H 149.809 -0.880238 1.17857 0
M  V30 1717 H 151.767 -3.99263 1.21018 0
M  V30 1718 H 150.397 -3.20506 0.384192 0
M  V30 1719 H 149.449 -2.64125 2.73756 0
M  V30 1720 H 150.761 -3.61788 3.43381 0
M  V30 1721 H 149.915 -5.64249 2.22952 0
M  V30 1722 H 148.654 -4.66305 1.42867 0
M  V30 1723 H 147.659 -4.09953 3.66359 0
M  V30 1724 H 148.884 -5.11311 4.4692 0
M  V30 1725 H 146.83 -6.08642 2.44725 0
M  V30 1726 H 146.747 -6.30995 4.16391 0
M  V30 1727 H 148.015 -7.08115 3.25873 0
M  V30 1728 N 152.244 -1.26651 -0.937939 0
M  V30 1729 C 153.176 -1.04283 -2.04102 0
M  V30 1730 C 154.189 -0.00221014 -1.628 0
M  V30 1731 O 155.378 -0.242645 -1.76843 0
M  V30 1732 C 152.478 -0.557846 -3.34277 0
M  V30 1733 C 151.651 -1.66843 -4.04329 0
M  V30 1734 C 150.71 -1.18095 -5.12777 0
M  V30 1735 O 149.736 -1.87865 -5.37304 0
M  V30 1736 N 150.938 -0.0311006 -5.80492 0
M  V30 1737 H 153.703 -1.9927 -2.23856 0
M  V30 1738 H 151.264 -1.1808 -1.10764 0
M  V30 1739 H 153.256 -0.215836 -4.04124 0
M  V30 1740 H 151.826 0.298523 -3.11171 0
M  V30 1741 H 151.046 -2.18123 -3.28353 0
M  V30 1742 H 152.334 -2.41408 -4.47883 0
M  V30 1743 H 151.732 0.551486 -5.63005 0
M  V30 1744 H 150.289 0.251809 -6.51313 0
M  V30 1745 N 153.722 1.14298 -1.08507 0
M  V30 1746 C 154.971 1.84708 -0.810305 0
M  V30 1747 C 155.284 1.83903 0.666271 0
M  V30 1748 O 156.49 2.50112 1.05624 0
M  V30 1749 C 154.946 3.31572 -1.39957 0
M  V30 1750 C 154.554 3.40791 -2.90801 0
M  V30 1751 C 156.298 4.07087 -1.20334 0
M  V30 1752 C 154.205 4.81872 -3.4286 0
M  V30 1753 H 153.135 0.691985 -0.299454 0
M  V30 1754 H 155.786 1.28841 -1.30661 0
M  V30 1755 H 154.168 3.87183 -0.830976 0
M  V30 1756 H 155.342 2.95225 -3.53806 0
M  V30 1757 H 153.657 2.78732 -3.0935 0
M  V30 1758 H 156.254 5.11225 -1.56693 0
M  V30 1759 H 156.597 4.16054 -0.143237 0
M  V30 1760 H 157.13 3.57779 -1.73893 0
M  V30 1761 H 153.869 4.78094 -4.48449 0
M  V30 1762 H 153.389 5.27972 -2.84615 0
M  V30 1763 H 155.068 5.50765 -3.39509 0
M  V30 1764 N 155.201 0.870884 1.31352 0
M  V30 1765 C 156.617 0.562932 1.49343 0
M  V30 1766 C 156.817 -0.902725 1.80148 0
M  V30 1767 O 155.873 -1.68484 1.88067 0
M  V30 1768 C 157.186 1.46393 2.62659 0
M  V30 1769 C 158.734 1.46607 2.76542 0
M  V30 1770 C 159.209 2.35266 3.92955 0
M  V30 1771 N 160.7 2.33151 4.00243 0
M  V30 1772 C 161.435 2.98471 4.89594 0
M  V30 1773 N 160.931 3.72964 5.8384 0
M  V30 1774 N 162.724 2.87775 4.82848 0
M  V30 1775 H 154.875 1.81923 1.09626 0
M  V30 1776 H 157.138 0.777934 0.541777 0
M  V30 1777 H 156.844 2.50689 2.46674 0
M  V30 1778 H 156.718 1.16314 3.58819 0
M  V30 1779 H 159.105 0.43069 2.9194 0
M  V30 1780 H 159.186 1.8071 1.81046 0
M  V30 1781 H 158.83 3.38881 3.78315 0
M  V30 1782 H 158.76 1.98487 4.87761 0
M  V30 1783 H 161.251 1.79006 3.32814 0
M  V30 1784 H 161.564 4.19932 6.4875 0
M  V30 1785 H 159.909 3.77073 5.83816 0
M  V30 1786 H 163.1 2.29116 4.08195 0
M  V30 1787 H 163.273 3.38961 5.52277 0
M  V30 1788 N 156.679 -1.44442 0.630414 0
M  V30 1789 C 157.925 -2.02351 0.134816 0
M  V30 1790 C 158.258 -1.4947 -1.23986 0
M  V30 1791 O 157.533 -0.678475 -1.82283 0
M  V30 1792 C 157.816 -3.59898 0.120707 0
M  V30 1793 C 157.669 -4.23063 1.52767 0
M  V30 1794 C 158.988 -4.36585 -0.555127 0
M  V30 1795 H 156.107 -0.73527 0.0504646 0
M  V30 1796 H 158.749 -1.72022 0.806751 0
M  V30 1797 H 156.899 -3.85868 -0.451477 0
M  V30 1798 H 158.571 -4.08202 2.14869 0
M  V30 1799 H 156.814 -3.80586 2.08175 0
M  V30 1800 H 157.485 -5.32071 1.46984 0
M  V30 1801 H 159.961 -4.16044 -0.0685429 0
M  V30 1802 H 158.837 -5.46294 -0.534185 0
M  V30 1803 H 159.098 -4.11138 -1.62535 0
M  V30 1804 N 158.157 -0.370918 -1.53173 0
M  V30 1805 C 159.382 0.220293 -2.06227 0
M  V30 1806 C 159.807 1.41243 -1.24225 0
M  V30 1807 O 159.165 1.79387 -0.262645 0
M  V30 1808 C 159.213 0.586663 -3.55796 0
M  V30 1809 O 158.317 1.68317 -3.76488 0
M  V30 1810 H 157.658 0.0308099 -0.663285 0
M  V30 1811 H 160.188 -0.533068 -1.97534 0
M  V30 1812 H 160.198 0.85617 -3.98916 0
M  V30 1813 H 158.873 -0.285013 -4.14922 0
M  V30 1814 H 157.45 1.40881 -3.45264 0
M  V30 1815 N 159.635 1.57281 -0.100228 0
M  V30 1816 C 161.046 1.81725 0.428107 0
M  V30 1817 C 161.397 1.01619 1.67833 0
M  V30 1818 O 160.522 0.247098 2.14985 0
M  V30 1819 C 161.117 3.29617 0.78347 0
M  V30 1820 C 159.676 3.54808 1.25653 0
M  V30 1821 C 158.823 2.76118 0.255752 0
M  V30 1822 H 161.774 1.55324 -0.325608 0
M  V30 1823 H 161.795 3.4322 1.64256 0
M  V30 1824 H 161.307 3.87893 -0.12665 0
M  V30 1825 H 159.408 3.01868 2.18418 0
M  V30 1826 H 159.521 4.63443 1.21482 0
M  V30 1827 H 157.885 2.43745 0.738956 0
M  V30 1828 H 158.668 3.37145 -0.647136 0
M  V30 1829 N 161.113 -0.173488 1.56642 0
M  V30 1830 C 162.39 -0.917617 1.7274 0
M  V30 1831 C 162.77 -2.00484 0.661027 0
M  V30 1832 O 162.118 -2.26184 -0.32453 0
M  V30 1833 C 162.328 -1.48433 3.15862 0
M  V30 1834 C 163.676 -1.95809 3.76754 0
M  V30 1835 O 164.7 -1.58231 3.19126 0
M  V30 1836 O 163.559 -2.65024 4.77938 0
M  V30 1837 H 160.653 -0.431772 0.705338 0
M  V30 1838 H 163.199 -0.161487 1.6893 0
M  V30 1839 H 161.971 -0.701715 3.84957 0
M  V30 1840 H 161.594 -2.30471 3.23989 0
M  V30 1841 N 162.591 -1.51276 -0.441967 0
M  V30 1842 C 163.538 -1.72256 -1.53612 0
M  V30 1843 C 164.508 -0.564164 -1.56225 0
M  V30 1844 O 165.693 -0.798074 -1.73307 0
M  V30 1845 C 162.833 -1.84932 -2.91366 0
M  V30 1846 C 161.946 -3.12459 -2.98317 0
M  V30 1847 C 161.081 -3.15758 -4.27166 0
M  V30 1848 C 160.12 -4.37619 -4.27967 0
M  V30 1849 N 159.257 -4.38493 -5.48333 0
M  V30 1850 H 164.097 -2.65654 -1.35026 0
M  V30 1851 H 161.634 -1.31662 -0.656009 0
M  V30 1852 H 163.592 -1.90263 -3.7129 0
M  V30 1853 H 162.222 -0.949461 -3.08521 0
M  V30 1854 H 161.274 -3.1646 -2.11086 0
M  V30 1855 H 162.586 -4.02382 -2.94771 0
M  V30 1856 H 161.74 -3.19979 -5.15459 0
M  V30 1857 H 160.479 -2.23715 -4.33362 0
M  V30 1858 H 159.484 -4.33579 -3.38067 0
M  V30 1859 H 160.709 -5.30921 -4.23438 0
M  V30 1860 H 158.655 -3.49318 -5.55259 0
M  V30 1861 H 158.572 -5.22219 -5.46647 0
M  V30 1862 H 159.84 -4.469 -6.38671 0
M  V30 1863 N 164.069 0.697108 -1.41344 0
M  V30 1864 C 165.315 1.4593 -1.40827 0
M  V30 1865 C 165.648 1.94193 -0.0167098 0
M  V30 1866 O 164.923 1.69425 0.955263 0
M  V30 1867 C 165.206 2.67229 -2.41373 0
M  V30 1868 C 165.059 2.24741 -3.8963 0
M  V30 1869 C 166.378 3.69423 -2.39196 0
M  V30 1870 H 163.497 0.529303 -0.512842 0
M  V30 1871 H 166.139 0.794112 -1.72609 0
M  V30 1872 H 164.289 3.23982 -2.14401 0
M  V30 1873 H 165.961 1.73327 -4.27499 0
M  V30 1874 H 164.204 1.56542 -4.0457 0
M  V30 1875 H 164.875 3.1177 -4.55525 0
M  V30 1876 H 167.351 3.2234 -2.63128 0
M  V30 1877 H 166.227 4.51907 -3.11563 0
M  V30 1878 H 166.488 4.19012 -1.41001 0
M  V30 1879 N 165.547 1.27147 0.931209 0
M  V30 1880 C 166.793 1.14455 1.68141 0
M  V30 1881 C 167.148 -0.307172 1.89932 0
M  V30 1882 O 166.441 -1.22158 1.47607 0
M  V30 1883 C 166.635 1.8579 3.05314 0
M  V30 1884 C 166.464 3.3775 2.96909 0
M  V30 1885 C 165.234 4.07062 2.99381 0
M  V30 1886 C 167.432 4.33783 2.76291 0
M  V30 1887 N 165.414 5.45618 2.8138 0
M  V30 1888 C 166.785 5.59582 2.6696 0
M  V30 1889 C 168.84 4.23915 2.61152 0
M  V30 1890 C 167.543 6.76639 2.44033 0
M  V30 1891 C 169.569 5.40689 2.39602 0
M  V30 1892 C 168.931 6.65443 2.3101 0
M  V30 1893 H 165.03 0.473667 0.622225 0
M  V30 1894 H 167.614 1.60568 1.10118 0
M  V30 1895 H 165.785 1.42138 3.61457 0
M  V30 1896 H 167.517 1.65634 3.69253 0
M  V30 1897 H 164.272 3.585 3.09475 0
M  V30 1898 H 164.696 6.184 2.75519 0
M  V30 1899 H 169.338 3.28189 2.66555 0
M  V30 1900 H 167.056 7.72451 2.3737 0
M  V30 1901 H 170.642 5.34932 2.28778 0
M  V30 1902 H 169.522 7.54277 2.14558 0
M  V30 1903 N 167.025 -1.13721 1.09112 0
M  V30 1904 C 167.955 -2.21148 0.749385 0
M  V30 1905 C 168.936 -1.6792 -0.271475 0
M  V30 1906 O 170.121 -1.93693 -0.140251 0
M  V30 1907 C 167.251 -3.46905 0.165659 0
M  V30 1908 C 166.205 -4.13203 1.11567 0
M  V30 1909 C 165.531 -5.33248 0.393809 0
M  V30 1910 C 166.831 -4.60912 2.45678 0
M  V30 1911 H 168.525 -2.4999 1.64758 0
M  V30 1912 H 166.071 -1.20156 0.793626 0
M  V30 1913 H 168.024 -4.21313 -0.085466 0
M  V30 1914 H 166.748 -3.17449 -0.767714 0
M  V30 1915 H 165.407 -3.40758 1.35202 0
M  V30 1916 H 165.055 -5.00054 -0.543599 0
M  V30 1917 H 164.755 -5.78552 1.02721 0
M  V30 1918 H 166.279 -6.10413 0.150908 0
M  V30 1919 H 167.693 -5.26759 2.26269 0
M  V30 1920 H 166.09 -5.16944 3.04776 0
M  V30 1921 H 167.16 -3.75603 3.06677 0
M  V30 1922 N 168.503 -0.877838 -1.30888 0
M  V30 1923 C 169.914 -0.544193 -1.78593 0
M  V30 1924 C 170.265 0.939301 -1.72254 0
M  V30 1925 O 169.39 1.7337 -1.29505 0
M  V30 1926 C 169.985 -0.98105 -3.24285 0
M  V30 1927 C 168.544 -0.698935 -3.69854 0
M  V30 1928 C 167.691 -1.168 -2.51502 0
M  V30 1929 H 170.642 -1.06278 -1.17859 0
M  V30 1930 H 170.663 -0.307009 -3.79259 0
M  V30 1931 H 170.175 -2.06079 -3.28866 0
M  V30 1932 H 168.276 0.369112 -3.70767 0
M  V30 1933 H 168.389 -1.28148 -4.61644 0
M  V30 1934 H 166.753 -0.587535 -2.47831 0
M  V30 1935 H 167.536 -2.25533 -2.58824 0
M  V30 1936 N 169.982 1.44106 -0.638065 0
M  V30 1937 C 171.259 1.95453 -0.0759321 0
M  V30 1938 C 171.639 1.57984 1.40015 0
M  V30 1939 O 170.987 0.857361 2.11806 0
M  V30 1940 C 171.197 3.47655 -0.306132 0
M  V30 1941 C 172.545 4.24114 -0.203008 0
M  V30 1942 O 173.569 3.55405 -0.237871 0
M  V30 1943 O 172.428 5.46381 -0.113827 0
M  V30 1944 H 169.522 0.826797 0.0183332 0
M  V30 1945 H 172.068 1.54122 -0.710251 0
M  V30 1946 H 170.84 3.68 -1.3301 0
M  V30 1947 H 170.463 3.95949 0.361991 0
M  V30 1948 N 171.46 0.379036 1.52974 0
M  V30 1949 C 172.709 -0.207612 2.00629 0
M  V30 1950 C 173.022 -1.48758 1.27006 0
M  V30 1951 O 174.228 -2.15365 1.65318 0
M  V30 1952 C 172.684 -0.42053 3.57435 0
M  V30 1953 C 172.292 0.845587 4.39948 0
M  V30 1954 C 174.036 -0.964102 4.13407 0
M  V30 1955 C 171.943 0.601513 5.88333 0
M  V30 1956 H 170.873 -0.0813591 0.749598 0
M  V30 1957 H 173.524 0.499853 1.76561 0
M  V30 1958 H 171.906 -1.18959 3.7771 0
M  V30 1959 H 173.08 1.61848 4.31442 0
M  V30 1960 H 171.395 1.31336 3.95145 0
M  V30 1961 H 173.992 -1.16225 5.21916 0
M  V30 1962 H 174.335 -1.93019 3.68849 0
M  V30 1963 H 174.868 -0.25487 3.96983 0
M  V30 1964 H 171.607 1.53831 6.37194 0
M  V30 1965 H 171.127 -0.132628 5.99653 0
M  V30 1966 H 172.806 0.232134 6.46583 0
M  V30 1967 N 172.938 -1.57226 0.108567 0
M  V30 1968 C 174.184 -1.95121 -0.552761 0
M  V30 1969 C 174.517 -0.991345 -1.66991 0
M  V30 1970 O 173.792 -0.0267211 -1.94482 0
M  V30 1971 C 174.075 -3.43039 -1.09528 0
M  V30 1972 C 173.928 -4.49797 0.0177332 0
M  V30 1973 C 175.247 -3.92567 -1.98945 0
M  V30 1974 H 172.366 -0.709496 -0.199461 0
M  V30 1975 H 175.008 -1.89126 0.182011 0
M  V30 1976 H 173.158 -3.48279 -1.72146 0
M  V30 1977 H 174.83 -4.56661 0.652584 0
M  V30 1978 H 173.073 -4.284 0.682309 0
M  V30 1979 H 173.744 -5.50528 -0.402919 0
M  V30 1980 H 176.22 -3.89565 -1.46214 0
M  V30 1981 H 175.096 -4.96605 -2.33827 0
M  V30 1982 H 175.357 -3.32648 -2.91201 0
M  V30 1983 N 174.416 0.165178 -1.56732 0
M  V30 1984 C 175.346 1.20651 -1.99914 0
M  V30 1985 C 176.327 1.45827 -0.875705 0
M  V30 1986 O 177.512 1.57057 -1.14223 0
M  V30 1987 C 174.642 2.54401 -2.36427 0
M  V30 1988 C 173.596 2.43782 -3.51787 0
M  V30 1989 C 172.922 3.82078 -3.7406 0
M  V30 1990 C 174.222 1.93732 -4.85041 0
M  V30 1991 H 175.916 0.847534 -2.87154 0
M  V30 1992 H 173.462 0.40625 -1.38151 0
M  V30 1993 H 175.415 3.27458 -2.65234 0
M  V30 1994 H 174.139 2.92098 -1.46103 0
M  V30 1995 H 172.798 1.73178 -3.23117 0
M  V30 1996 H 172.446 4.17179 -2.81017 0
M  V30 1997 H 172.146 3.7584 -4.51684 0
M  V30 1998 H 173.67 4.56712 -4.05274 0
M  V30 1999 H 175.084 2.56569 -5.12684 0
M  V30 2000 H 173.481 1.98428 -5.66345 0
M  V30 2001 H 174.551 0.891962 -4.76626 0
M  V30 2002 N 175.894 1.51508 0.433938 0
M  V30 2003 C 177.141 1.64345 1.18309 0
M  V30 2004 C 177.469 0.361315 1.91115 0
M  V30 2005 O 176.724 -0.654753 1.84422 0
M  V30 2006 C 177.023 2.79928 2.22205 0
M  V30 2007 C 176.689 4.19078 1.66387 0
M  V30 2008 C 175.351 4.56932 1.50887 0
M  V30 2009 C 177.703 5.05894 1.25381 0
M  V30 2010 C 175.031 5.79305 0.928608 0
M  V30 2011 C 177.383 6.2885 0.687823 0
M  V30 2012 C 176.047 6.65473 0.519755 0
M  V30 2013 H 175.317 0.601381 0.432923 0
M  V30 2014 H 177.964 1.85549 0.473676 0
M  V30 2015 H 176.269 2.52959 2.99197 0
M  V30 2016 H 177.966 2.87059 2.79997 0
M  V30 2017 H 174.556 3.89234 1.79428 0
M  V30 2018 H 178.74 4.77253 1.36175 0
M  V30 2019 H 173.996 6.06324 0.786186 0
M  V30 2020 H 178.17 6.95461 0.361581 0
M  V30 2021 H 175.797 7.6017 0.0679979 0
M  V30 2022 N 177.372 -0.689602 1.41712 0
M  V30 2023 C 178.32 -1.82475 1.44242 0
M  V30 2024 C 179.314 -1.66354 0.319774 0
M  V30 2025 O 180.52 -1.73143 0.492089 0
M  V30 2026 H 176.895 -0.601416 0.451445 0
M  V30 2027 H 178.866 -1.77458 2.39899 0
M  V30 2028 C 177.615 -3.20535 1.3473 0
M  V30 2029 H 176.938 -3.33559 2.20405 0
M  V30 2030 H 178.378 -4.00023 1.40562 0
M  V30 2031 C 176.837 -3.36846 0.0603281 0
M  V30 2032 O 177.367 -3.91656 -0.892663 0
M  V30 2033 N 175.573 -2.90595 -0.0177039 0
M  V30 2034 H 175.12 -2.46178 0.758572 0
M  V30 2035 H 175.078 -3.01886 -0.878201 0
M  V30 2036 N 178.85 -1.27639 -0.924453 0
M  V30 2037 C 179.798 -1.10485 -2.04685 0
M  V30 2038 C 180.792 -0.0270421 -1.69378 0
M  V30 2039 O 181.998 -0.185008 -1.79047 0
M  V30 2040 H 178.373 -0.340546 -0.670472 0
M  V30 2041 H 180.344 -2.05566 -2.16298 0
M  V30 2042 C 179.093 -0.772229 -3.39016 0
M  V30 2043 H 178.416 -1.59351 -3.66671 0
M  V30 2044 H 179.856 -0.692097 -4.18313 0
M  V30 2045 C 178.315 0.523554 -3.32807 0
M  V30 2046 O 178.845 1.55702 -3.70297 0
M  V30 2047 N 177.051 0.520363 -2.85903 0
M  V30 2048 H 176.598 -0.32107 -2.55591 0
M  V30 2049 H 176.556 1.38742 -2.82131 0
M  V30 2050 N 180.328 1.1314 -1.09713 0
M  V30 2051 C 181.291 2.16831 -0.742751 0
M  V30 2052 C 182.291 1.59159 0.229129 0
M  V30 2053 O 183.481 1.74199 0.00693237 0
M  V30 2054 C 180.613 3.40756 -0.0989168 0
M  V30 2055 H 181.806 2.49695 -1.66109 0
M  V30 2056 H 179.359 1.2802 -0.896699 0
M  V30 2057 H 180.094 3.13485 0.830514 0
M  V30 2058 H 179.879 3.83888 -0.798265 0
M  V30 2059 H 181.369 4.17386 0.133524 0
M  V30 2060 N 181.806 0.884767 1.30421 0
M  V30 2061 C 183.083 0.423185 1.90967 0
M  V30 2062 C 183.463 -1.09605 1.80416 0
M  V30 2063 O 182.811 -1.93126 1.22125 0
M  V30 2064 C 183.021 0.921056 3.36627 0
M  V30 2065 C 184.369 0.955903 4.137 0
M  V30 2066 O 185.393 0.867706 3.4547 0
M  V30 2067 O 184.252 1.08614 5.35598 0
M  V30 2068 H 181.346 0.129369 0.816819 0
M  V30 2069 H 183.892 0.973653 1.3899 0
M  V30 2070 H 182.664 1.96489 3.3839 0
M  V30 2071 H 182.287 0.349741 3.96059 0
M  V30 2072 N 183.284 -1.43765 0.645699 0
M  V30 2073 C 184.532 -2.01499 0.155731 0
M  V30 2074 C 184.853 -1.51151 -1.232 0
M  V30 2075 O 184.123 -0.721044 -1.82148 0
M  V30 2076 H 182.703 -0.745003 0.0545817 0
M  V30 2077 H 185.365 -1.76075 0.835677 0
M  V30 2078 H 184.461 -3.1181 0.134577 0
M  V30 2079 N 184.763 -0.387143 -1.52771 0
M  V30 2080 C 185.711 0.463953 -2.27926 0
M  V30 2081 C 186.705 1.06493 -1.31741 0
M  V30 2082 O 187.911 1.00565 -1.49287 0
M  V30 2083 H 184.286 0.16837 -0.732909 0
M  V30 2084 H 186.257 -0.19141 -2.97785 0
M  V30 2085 C 185.006 1.5803 -3.09713 0
M  V30 2086 H 184.329 1.12718 -3.83581 0
M  V30 2087 H 185.769 2.15008 -3.65442 0
M  V30 2088 C 184.228 2.53509 -2.2189 0
M  V30 2089 O 184.758 3.56863 -1.84422 0
M  V30 2090 N 182.964 2.23199 -1.86093 0
M  V30 2091 H 182.511 1.39185 -2.16761 0
M  V30 2092 H 182.469 2.87333 -1.27621 0
M  V30 2093 N 186.241 1.57166 -0.116904 0
M  V30 2094 C 187.471 1.99184 0.548586 0
M  V30 2095 C 187.879 0.995436 1.60897 0
M  V30 2096 O 187.222 -0.0201293 1.83689 0
M  V30 2097 C 187.284 3.37611 1.23526 0
M  V30 2098 C 186.948 4.55857 0.323077 0
M  V30 2099 C 187.945 5.18056 -0.437476 0
M  V30 2100 C 185.63 5.01751 0.234761 0
M  V30 2101 C 187.624 6.24536 -1.2741 0
M  V30 2102 C 185.311 6.08093 -0.605496 0
M  V30 2103 C 186.309 6.69352 -1.35856 0
M  V30 2104 O 185.997 7.7364 -2.18487 0
M  V30 2105 H 185.729 0.659148 0.149999 0
M  V30 2106 H 188.283 2.0443 -0.199428 0
M  V30 2107 H 186.513 3.29113 2.0303 0
M  V30 2108 H 188.202 3.63932 1.79745 0
M  V30 2109 H 188.968 4.83516 -0.379105 0
M  V30 2110 H 184.847 4.53817 0.810601 0
M  V30 2111 H 188.391 6.72281 -1.86237 0
M  V30 2112 H 184.288 6.42063 -0.665268 0
M  V30 2113 H 185.056 7.90727 -2.11406 0
M  V30 2114 N 187.719 -0.156864 1.56817 0
M  V30 2115 C 188.629 -1.2136 2.00771 0
M  V30 2116 C 189.645 -1.47598 0.921459 0
M  V30 2117 O 190.821 -1.59462 1.2302 0
M  V30 2118 C 187.886 -2.52943 2.37109 0
M  V30 2119 C 186.947 -2.34439 3.59634 0
M  V30 2120 C 186.18 -3.59748 3.94229 0
M  V30 2121 O 186.403 -4.65526 3.29609 0
M  V30 2122 O 185.337 -3.52998 4.8752 0
M  V30 2123 H 189.163 -0.870468 2.90958 0
M  V30 2124 H 186.748 -0.36484 1.44877 0
M  V30 2125 H 188.63 -3.30538 2.61386 0
M  V30 2126 H 187.305 -2.86806 1.5008 0
M  V30 2127 H 186.212 -1.54828 3.40557 0
M  V30 2128 H 187.545 -2.05496 4.4725 0
M  V30 2129 N 189.197 -1.51736 -0.425897 0
M  V30 2130 C 190.443 -1.65214 -1.1761 0
M  V30 2131 C 190.776 -0.372778 -1.90589 0
M  V30 2132 O 190.051 0.628139 -1.84078 0
M  V30 2133 C 190.334 -2.86312 -2.18398 0
M  V30 2134 C 190.187 -4.24254 -1.49426 0
M  V30 2135 C 191.506 -3.02925 -3.19256 0
M  V30 2136 H 188.625 -0.601263 -0.426206 0
M  V30 2137 H 191.267 -1.8425 -0.463882 0
M  V30 2138 H 189.417 -2.70213 -2.79137 0
M  V30 2139 H 191.089 -4.52046 -0.919362 0
M  V30 2140 H 189.332 -4.26426 -0.796432 0
M  V30 2141 H 190.003 -5.05001 -2.22885 0
M  V30 2142 H 192.479 -3.1781 -2.68581 0
M  V30 2143 H 191.355 -3.89199 -3.8706 0
M  V30 2144 H 191.616 -2.15497 -3.86023 0
M  V30 2145 N 190.675 0.682077 -1.42076 0
M  V30 2146 C 191.9 1.47558 -1.45744 0
M  V30 2147 C 192.325 1.87977 -0.0680981 0
M  V30 2148 O 191.683 1.55522 0.9318 0
M  V30 2149 C 191.731 2.70575 -2.38373 0
M  V30 2150 O 190.835 3.68573 -1.85007 0
M  V30 2151 H 190.176 0.443585 -0.494093 0
M  V30 2152 H 192.706 0.837238 -1.86686 0
M  V30 2153 H 192.716 3.18729 -2.54707 0
M  V30 2154 H 191.391 2.40495 -3.39315 0
M  V30 2155 H 189.968 3.2757 -1.78192 0
M  V30 2156 N 192.153 1.28127 0.917671 0
M  V30 2157 C 193.4 1.15052 1.66641 0
M  V30 2158 C 193.728 -0.301677 1.92146 0
M  V30 2159 O 192.983 -1.23622 1.51711 0
M  V30 2160 C 193.282 1.89018 3.03327 0
M  V30 2161 C 192.948 3.38832 2.97496 0
M  V30 2162 C 191.61 3.79693 2.95613 0
M  V30 2163 C 193.962 4.34378 2.88036 0
M  V30 2164 C 191.29 5.14447 2.82066 0
M  V30 2165 C 193.642 5.69201 2.7603 0
M  V30 2166 C 192.306 6.09343 2.72502 0
M  V30 2167 H 191.576 0.421006 0.609783 0
M  V30 2168 H 194.223 1.58855 1.06945 0
M  V30 2169 H 192.528 1.37752 3.66785 0
M  V30 2170 H 194.225 1.76321 3.60156 0
M  V30 2171 H 190.815 3.06342 2.99754 0
M  V30 2172 H 194.999 4.03775 2.88581 0
M  V30 2173 H 190.255 5.44681 2.77728 0
M  V30 2174 H 194.429 6.42901 2.67678 0
M  V30 2175 H 192.056 7.13712 2.61762 0
M  V30 2176 N 193.631 -1.12557 1.10312 0
M  V30 2177 C 194.564 -2.1737 0.694674 0
M  V30 2178 C 195.542 -1.59745 -0.303373 0
M  V30 2179 O 196.726 -1.87408 -0.202578 0
M  V30 2180 C 193.853 -3.38691 0.0248052 0
M  V30 2181 C 192.899 -4.14943 0.986121 0
M  V30 2182 S 193.732 -4.73413 2.50281 0
M  V30 2183 C 194.888 -5.9807 1.84562 0
M  V30 2184 H 195.121 -2.5168 1.58255 0
M  V30 2185 H 192.654 -1.23998 0.919992 0
M  V30 2186 H 194.612 -4.08959 -0.355361 0
M  V30 2187 H 193.273 -3.02664 -0.839851 0
M  V30 2188 H 192.466 -5.01854 0.464651 0
M  V30 2189 H 192.068 -3.50377 1.30813 0
M  V30 2190 H 194.36 -6.67232 1.17507 0
M  V30 2191 H 195.303 -6.54841 2.69423 0
M  V30 2192 H 195.711 -5.49073 1.31069 0
M  V30 2193 N 195.109 -0.891671 -1.2995 0
M  V30 2194 C 196.349 -0.520296 -1.97667 0
M  V30 2195 C 196.713 0.914797 -1.68806 0
M  V30 2196 O 197.914 1.39263 -2.29911 0
M  V30 2197 C 196.185 -0.795222 -3.48441 0
M  V30 2198 S 197.744 -0.526953 -4.35624 0
M  V30 2199 H 194.562 -0.19333 -0.684211 0
M  V30 2200 H 197.164 -1.15238 -1.57926 0
M  V30 2201 H 195.868 -1.83805 -3.66938 0
M  V30 2202 H 195.399 -0.15095 -3.9311 0
M  V30 2203 H 197.414 0.631533 -4.92165 0
M  V30 2204 N 196.587 1.43421 -0.653314 0
M  V30 2205 C 197.535 2.32546 0.0501531 0
M  V30 2206 C 198.529 1.48617 0.812985 0
M  V30 2207 O 199.735 1.64825 0.723375 0
M  V30 2208 H 196.11 0.751185 0.0350032 0
M  V30 2209 H 198.081 2.89602 -0.719261 0
M  V30 2210 C 196.83 3.32925 1.00279 0
M  V30 2211 H 196.153 3.97532 0.425236 0
M  V30 2212 H 197.593 3.9792 1.46409 0
M  V30 2213 C 196.052 2.63532 2.09886 0
M  V30 2214 O 196.582 2.45092 3.18265 0
M  V30 2215 N 194.788 2.22905 1.86445 0
M  V30 2216 H 194.335 2.38103 0.98309 0
M  V30 2217 H 194.293 1.76805 2.59976 0
M  V30 2218 N 198.065 0.39524 1.52563 0
M  V30 2219 C 199.311 -0.185318 2.01952 0
M  V30 2220 C 199.644 -1.45964 1.28095 0
M  V30 2221 O 198.919 -1.90689 0.38315 0
M  V30 2222 C 199.202 -0.447193 3.57312 0
M  V30 2223 C 199.055 0.842828 4.41833 0
M  V30 2224 C 200.374 -1.23529 4.22408 0
M  V30 2225 H 197.493 -0.0658788 0.73405 0
M  V30 2226 H 200.135 0.525975 1.82575 0
M  V30 2227 H 198.285 -1.05312 3.73954 0
M  V30 2228 H 199.957 1.4795 4.36931 0
M  V30 2229 H 198.2 1.45686 4.08605 0
M  V30 2230 H 198.871 0.614165 5.48573 0
M  V30 2231 H 201.347 -0.722445 4.0978 0
M  V30 2232 H 200.223 -1.38727 5.3108 0
M  V30 2233 H 200.484 -2.25213 3.80436 0
M  V30 2234 N 199.544 -1.57102 0.125237 0
M  V30 2235 C 200.79 -1.95697 -0.532035 0
M  V30 2236 C 201.123 -1.009 -1.6593 0
M  V30 2237 O 200.398 -0.047347 -1.94442 0
M  V30 2238 C 200.681 -3.44181 -1.05884 0
M  V30 2239 C 200.534 -4.49752 0.0654392 0
M  V30 2240 C 201.853 -3.94655 -1.9477 0
M  V30 2241 H 198.972 -0.711571 -0.191925 0
M  V30 2242 H 201.614 -1.88923 0.20206 0
M  V30 2243 H 199.764 -3.50085 -1.68442 0
M  V30 2244 H 201.436 -4.55943 0.700982 0
M  V30 2245 H 199.679 -4.27653 0.727709 0
M  V30 2246 H 200.35 -5.50924 -0.344505 0
M  V30 2247 H 202.826 -3.91094 -1.42074 0
M  V30 2248 H 201.702 -4.99057 -2.28546 0
M  V30 2249 H 201.963 -3.35718 -2.87656 0
M  V30 2250 N 201.022 0.148545 -1.56898 0
M  V30 2251 C 202.271 0.85984 -1.82454 0
M  V30 2252 C 202.584 1.82406 -0.706229 0
M  V30 2253 O 203.79 2.57938 -0.847349 0
M  V30 2254 C 202.246 1.57967 -3.2338 0
M  V30 2255 C 201.854 0.65794 -4.43142 0
M  V30 2256 C 203.598 2.27784 -3.58211 0
M  V30 2257 C 201.505 1.3793 -5.75091 0
M  V30 2258 H 200.435 0.324834 -0.68044 0
M  V30 2259 H 203.086 0.112588 -1.83154 0
M  V30 2260 H 201.468 2.37249 -3.17063 0
M  V30 2261 H 202.642 -0.0995497 -4.60692 0
M  V30 2262 H 200.957 0.0682643 -4.16344 0
M  V30 2263 H 203.554 2.8239 -4.54048 0
M  V30 2264 H 203.897 3.04204 -2.84193 0
M  V30 2265 H 204.43 1.55421 -3.66182 0
M  V30 2266 H 201.169 0.656982 -6.52199 0
M  V30 2267 H 200.689 2.10954 -5.61479 0
M  V30 2268 H 202.368 1.92063 -6.17835 0
M  V30 2269 N 202.5 1.5196 0.417844 0
M  V30 2270 C 203.448 1.75278 1.52907 0
M  V30 2271 C 204.442 0.619611 1.57662 0
M  V30 2272 O 205.648 0.801457 1.61173 0
M  V30 2273 H 202.023 0.554141 0.508362 0
M  V30 2274 H 203.994 2.68389 1.30422 0
M  V30 2275 C 202.743 1.91262 2.90369 0
M  V30 2276 H 202.066 2.77872 2.8745 0
M  V30 2277 H 203.506 2.11581 3.67436 0
M  V30 2278 C 201.965 0.677431 3.30019 0
M  V30 2279 O 202.495 -0.158799 4.01386 0
M  V30 2280 N 200.701 0.515851 2.85985 0
M  V30 2281 H 200.248 1.19744 2.28077 0
M  V30 2282 H 200.206 -0.309315 3.12875 0
M  V30 2283 N 203.978 -0.674533 1.42435 0
M  V30 2284 C 204.928 -1.7807 1.4239 0
M  V30 2285 C 205.912 -1.58169 0.295202 0
M  V30 2286 O 207.104 -1.68643 0.537449 0
M  V30 2287 C 204.233 -3.16532 1.32901 0
M  V30 2288 C 203.319 -3.42055 2.50717 0
M  V30 2289 N 203.71 -3.38162 3.76139 0
M  V30 2290 C 202.008 -3.72692 2.44983 0
M  V30 2291 C 202.709 -3.63177 4.54398 0
M  V30 2292 N 201.685 -3.83954 3.84812 0
M  V30 2293 H 205.487 -1.73454 2.37257 0
M  V30 2294 H 203.001 -0.875381 1.36788 0
M  V30 2295 H 204.998 -3.958 1.30951 0
M  V30 2296 H 203.658 -3.22345 0.390363 0
M  V30 2297 H 204.669 -3.18057 4.0873 0
M  V30 2298 H 201.346 -3.85749 1.59699 0
M  V30 2299 H 202.736 -3.66125 5.63384 0
M  V30 2300 N 205.456 -1.28612 -0.910864 0
M  V30 2301 C 206.403 -1.12786 -2.01365 0
M  V30 2302 C 207.373 -0.024201 -1.66082 0
M  V30 2303 O 208.558 -0.189667 -1.89855 0
M  V30 2304 C 205.698 -0.798743 -3.35729 0
M  V30 2305 C 204.811 -1.98173 -3.83864 0
M  V30 2306 C 203.946 -1.59298 -5.06752 0
M  V30 2307 C 202.985 -2.74245 -5.47226 0
M  V30 2308 N 202.122 -2.35842 -6.61304 0
M  V30 2309 H 206.962 -2.07142 -2.14234 0
M  V30 2310 H 204.499 -1.03093 -1.0493 0
M  V30 2311 H 206.457 -0.588662 -4.13026 0
M  V30 2312 H 205.087 0.10789 -3.2262 0
M  V30 2313 H 204.139 -2.30386 -3.02699 0
M  V30 2314 H 205.451 -2.84343 -4.09818 0
M  V30 2315 H 204.605 -1.34513 -5.916 0
M  V30 2316 H 203.344 -0.702618 -4.82612 0
M  V30 2317 H 202.349 -2.99725 -4.60918 0
M  V30 2318 H 203.574 -3.63928 -5.73353 0
M  V30 2319 H 201.52 -1.49279 -6.38789 0
M  V30 2320 H 201.437 -3.15546 -6.86998 0
M  V30 2321 H 202.705 -2.14348 -7.4945 0
M  V30 2322 N 206.934 1.1197 -1.10907 0
M  V30 2323 C 208.182 1.83225 -0.852819 0
M  V30 2324 C 208.503 1.84769 0.623341 0
M  V30 2325 O 207.773 1.3143 1.45269 0
M  V30 2326 H 206.353 0.67849 -0.312507 0
M  V30 2327 H 209.015 1.3556 -1.40033 0
M  V30 2328 H 208.111 2.87265 -1.22005 0
M  V30 2329 N 208.412 0.89855 1.29475 0
M  V30 2330 C 209.689 0.443416 1.90508 0
M  V30 2331 C 210.069 -1.07685 1.81569 0
M  V30 2332 O 209.417 -1.9182 1.24166 0
M  V30 2333 C 209.627 0.956708 3.35631 0
M  V30 2334 C 210.975 0.999728 4.12663 0
M  V30 2335 O 211.999 0.904299 3.4453 0
M  V30 2336 O 210.858 1.14289 5.34416 0
M  V30 2337 H 207.952 0.138025 0.815401 0
M  V30 2338 H 210.498 0.98834 1.37949 0
M  V30 2339 H 209.27 2.00067 3.36287 0
M  V30 2340 H 208.893 0.391728 3.95666 0
M  V30 2341 N 209.89 -1.43072 0.660911 0
M  V30 2342 C 210.823 -2.28074 -0.0758862 0
M  V30 2343 C 211.801 -1.40271 -0.822362 0
M  V30 2344 O 212.985 -1.69713 -0.820352 0
M  V30 2345 C 210.112 -3.19843 -1.11437 0
M  V30 2346 C 209.158 -4.23957 -0.465069 0
M  V30 2347 S 209.991 -5.29978 0.767078 0
M  V30 2348 C 211.147 -6.25314 -0.270682 0
M  V30 2349 H 211.38 -2.90216 0.645139 0
M  V30 2350 H 208.913 -1.47697 0.449995 0
M  V30 2351 H 210.871 -3.73257 -1.70849 0
M  V30 2352 H 209.532 -2.56863 -1.80776 0
M  V30 2353 H 208.725 -4.88299 -1.24819 0
M  V30 2354 H 208.327 -3.73959 0.0551242 0
M  V30 2355 H 210.619 -6.67932 -1.13459 0
M  V30 2356 H 211.562 -7.07293 0.337916 0
M  V30 2357 H 211.97 -5.61195 -0.609937 0
M  V30 2358 N 211.368 -0.403325 -1.52352 0
M  V30 2359 C 212.298 0.416205 -2.29761 0
M  V30 2360 C 213.279 1.05123 -1.33728 0
M  V30 2361 O 214.464 1.06134 -1.62632 0
M  V30 2362 C 211.594 1.53624 -3.11475 0
M  V30 2363 C 210.548 1.02653 -4.15507 0
M  V30 2364 C 209.874 2.23971 -4.85532 0
M  V30 2365 C 211.174 0.08463 -5.22231 0
M  V30 2366 H 212.868 -0.229701 -2.98518 0
M  V30 2367 H 210.414 -0.111913 -1.43564 0
M  V30 2368 H 212.367 2.1165 -3.64393 0
M  V30 2369 H 211.091 2.20994 -2.40477 0
M  V30 2370 H 209.75 0.46871 -3.63591 0
M  V30 2371 H 209.398 2.89883 -4.11068 0
M  V30 2372 H 209.098 1.90521 -5.55856 0
M  V30 2373 H 210.622 2.82614 -5.41259 0
M  V30 2374 H 212.036 0.573509 -5.70424 0
M  V30 2375 H 210.433 -0.160783 -5.99885 0
M  V30 2376 H 211.503 -0.86237 -4.7717 0
M  V30 2377 N 212.846 1.57033 -0.133567 0
M  V30 2378 C 214.092 1.96764 0.515326 0
M  V30 2379 C 214.447 1.01653 1.63353 0
M  V30 2380 O 213.74 0.0491374 1.91537 0
M  V30 2381 C 213.934 3.40674 1.08057 0
M  V30 2382 C 213.763 4.49696 0.0186522 0
M  V30 2383 C 212.533 5.03567 -0.418174 0
M  V30 2384 C 214.731 5.08536 -0.767809 0
M  V30 2385 N 212.713 5.9618 -1.46434 0
M  V30 2386 C 214.084 5.97231 -1.6648 0
M  V30 2387 C 216.139 4.9115 -0.817087 0
M  V30 2388 C 214.842 6.70401 -2.60681 0
M  V30 2389 C 216.868 5.65012 -1.74687 0
M  V30 2390 C 216.23 6.53403 -2.63141 0
M  V30 2391 H 212.329 0.765919 0.157771 0
M  V30 2392 H 214.913 1.93395 -0.22506 0
M  V30 2393 H 213.084 3.44662 1.79061 0
M  V30 2394 H 214.816 3.67495 1.69497 0
M  V30 2395 H 211.571 4.73594 -0.0229803 0
M  V30 2396 H 211.995 6.47191 -1.98678 0
M  V30 2397 H 216.637 4.22543 -0.147326 0
M  V30 2398 H 214.355 7.38245 -3.28664 0
M  V30 2399 H 217.941 5.53559 -1.79063 0
M  V30 2400 H 216.821 7.09556 -3.33917 0
M  V30 2401 N 214.325 -0.140222 1.56975 0
M  V30 2402 C 215.571 -0.852949 1.83991 0
M  V30 2403 C 215.904 -1.80512 0.716187 0
M  V30 2404 O 215.179 -1.92479 -0.279681 0
M  V30 2405 C 215.462 -1.6215 3.21527 0
M  V30 2406 C 215.315 -0.690363 4.4447 0
M  V30 2407 C 216.634 -2.58247 3.56366 0
M  V30 2408 H 213.753 -0.308634 0.669264 0
M  V30 2409 H 216.395 -0.117898 1.89634 0
M  V30 2410 H 214.545 -2.24812 3.16847 0
M  V30 2411 H 216.217 -0.0742264 4.6124 0
M  V30 2412 H 214.46 -0.000396433 4.338 0
M  V30 2413 H 215.131 -1.2643 5.37326 0
M  V30 2414 H 217.607 -2.05701 3.61699 0
M  V30 2415 H 216.483 -3.09067 4.53617 0
M  V30 2416 H 216.744 -3.39923 2.82674 0
M  V30 2417 N 215.803 -1.52179 -0.40978 0
M  V30 2418 C 217.214 -1.58377 -0.988615 0
M  V30 2419 C 217.565 -0.423879 -1.91566 0
M  V30 2420 O 216.69 0.455844 -2.11544 0
M  V30 2421 C 217.285 -2.87044 -1.79976 0
M  V30 2422 C 215.844 -2.95722 -2.32863 0
M  V30 2423 C 214.991 -2.53309 -1.12828 0
M  V30 2424 H 217.942 -1.57558 -0.190039 0
M  V30 2425 H 217.963 -2.7236 -2.65707 0
M  V30 2426 H 217.475 -3.71444 -1.12478 0
M  V30 2427 H 215.576 -2.15814 -3.03735 0
M  V30 2428 H 215.689 -3.99951 -2.63773 0
M  V30 2429 H 214.053 -2.07142 -1.48204 0
M  V30 2430 H 214.836 -3.40082 -0.46897 0
M  V30 2431 N 217.281 0.66697 -1.42791 0
M  V30 2432 C 218.692 1.2478 -1.38877 0
M  V30 2433 C 219.043 1.96012 -0.0859426 0
M  V30 2434 O 218.168 2.00463 0.815081 0
M  V30 2435 C 218.763 2.26938 -2.51564 0
M  V30 2436 C 217.322 2.80529 -2.50959 0
M  V30 2437 C 216.469 1.54965 -2.29959 0
M  V30 2438 H 219.42 0.459853 -1.51892 0
M  V30 2439 H 219.441 3.08834 -2.22265 0
M  V30 2440 H 218.953 1.75065 -3.46372 0
M  V30 2441 H 217.054 3.36502 -1.59991 0
M  V30 2442 H 217.167 3.29012 -3.48265 0
M  V30 2443 H 215.531 1.81817 -1.78366 0
M  V30 2444 H 216.314 1.05047 -3.26833 0
M  V30 2445 N 218.759 1.29093 0.90403 0
M  V30 2446 C 219.722 1.1386 1.98919 0
M  V30 2447 C 220.722 0.0753457 1.60623 0
M  V30 2448 O 221.912 0.321931 1.71199 0
M  V30 2449 C 219.044 0.740198 3.32767 0
M  V30 2450 H 220.237 2.10246 2.13861 0
M  V30 2451 H 217.79 1.12218 1.08797 0
M  V30 2452 H 218.525 -0.223997 3.23525 0
M  V30 2453 H 218.31 1.50838 3.61926 0
M  V30 2454 H 219.8 0.656546 4.12407 0
M  V30 2455 N 220.237 -1.11381 1.11499 0
M  V30 2456 C 221.486 -1.82494 0.858993 0
M  V30 2457 C 221.799 -1.85605 -0.617278 0
M  V30 2458 O 223.005 -2.52824 -0.989552 0
M  V30 2459 C 221.461 -3.27745 1.48699 0
M  V30 2460 C 221.069 -3.32961 2.99735 0
M  V30 2461 C 222.813 -4.03754 1.31085 0
M  V30 2462 C 220.72 -4.72612 3.55516 0
M  V30 2463 H 219.65 -0.683802 0.317696 0
M  V30 2464 H 222.301 -1.25331 1.34031 0
M  V30 2465 H 220.683 -3.84844 0.933339 0
M  V30 2466 H 221.857 -2.85741 3.61509 0
M  V30 2467 H 220.172 -2.70433 3.16631 0
M  V30 2468 H 222.769 -5.06891 1.70192 0
M  V30 2469 H 223.112 -4.15527 0.253496 0
M  V30 2470 H 223.645 -3.53043 1.83318 0
M  V30 2471 H 220.384 -4.66036 4.60967 0
M  V30 2472 H 219.904 -5.2024 2.98513 0
M  V30 2473 H 221.583 -5.4157 3.53992 0
M  V30 2474 N 221.715 -0.905404 -1.28997 0
M  V30 2475 C 222.945 -0.549049 -1.99171 0
M  V30 2476 C 223.353 0.87203 -1.67906 0
M  V30 2477 O 222.696 1.58796 -0.923561 0
M  V30 2478 C 222.758 -0.668306 -3.53234 0
M  V30 2479 C 222.422 -2.0574 -4.08069 0
M  V30 2480 C 223.419 -3.0292 -4.22534 0
M  V30 2481 C 221.104 -2.36833 -4.42962 0
M  V30 2482 C 223.098 -4.29314 -4.71135 0
M  V30 2483 C 220.785 -3.63467 -4.91258 0
M  V30 2484 C 221.783 -4.59522 -5.053 0
M  V30 2485 O 221.471 -5.83907 -5.52546 0
M  V30 2486 H 221.203 -0.208784 -0.64295 0
M  V30 2487 H 223.757 -1.21836 -1.65363 0
M  V30 2488 H 221.987 0.0580547 -3.86656 0
M  V30 2489 H 223.676 -0.320273 -4.04634 0
M  V30 2490 H 224.442 -2.80216 -3.95859 0
M  V30 2491 H 220.321 -1.62824 -4.31288 0
M  V30 2492 H 223.865 -5.04293 -4.8201 0
M  V30 2493 H 219.762 -3.86 -5.17372 0
M  V30 2494 H 220.53 -5.86578 -5.70849 0
M  V30 2495 N 223.193 1.4272 -0.668489 0
M  V30 2496 C 224.14 2.30796 0.0137489 0
M  V30 2497 C 225.11 1.4561 0.799177 0
M  V30 2498 O 226.295 1.74453 0.772702 0
M  V30 2499 C 223.435 3.31377 0.963507 0
M  V30 2500 C 222.548 4.31655 0.172569 0
M  V30 2501 C 221.683 5.19312 1.1175 0
M  V30 2502 C 220.722 6.11274 0.317886 0
M  V30 2503 N 219.859 6.91504 1.2152 0
M  V30 2504 H 224.699 2.88585 -0.743161 0
M  V30 2505 H 222.236 1.42154 -0.378226 0
M  V30 2506 H 224.194 3.88214 1.52792 0
M  V30 2507 H 222.824 2.75202 1.68712 0
M  V30 2508 H 221.876 3.76988 -0.508374 0
M  V30 2509 H 223.188 4.96779 -0.448527 0
M  V30 2510 H 222.342 5.80851 1.75206 0
M  V30 2511 H 221.081 4.5435 1.77249 0
M  V30 2512 H 220.086 5.48809 -0.329918 0
M  V30 2513 H 221.311 6.78283 -0.332917 0
M  V30 2514 H 219.257 6.29176 1.85671 0
M  V30 2515 H 219.174 7.53209 0.649036 0
M  V30 2516 H 220.442 7.57535 1.83742 0
M  V30 2517 N 224.671 0.411399 1.52136 0
M  V30 2518 C 225.896 -0.165538 2.06738 0
M  V30 2519 C 226.321 -1.379 1.27926 0
M  V30 2520 O 225.679 -1.78628 0.310114 0
M  V30 2521 C 225.727 -0.492124 3.57226 0
M  V30 2522 O 224.831 -1.58276 3.80818 0
M  V30 2523 H 224.172 -0.0132132 0.663869 0
M  V30 2524 H 226.702 0.585253 1.96051 0
M  V30 2525 H 226.712 -0.750104 4.01045 0
M  V30 2526 H 225.387 0.394922 4.14021 0
M  V30 2527 H 223.964 -1.31677 3.48877 0
M  V30 2528 N 226.149 -1.5696 0.141893 0
M  V30 2529 C 227.374 -2.00754 -0.520838 0
M  V30 2530 C 227.799 -1.0213 -1.57959 0
M  V30 2531 O 227.157 0.00371324 -1.813 0
M  V30 2532 C 227.205 -3.43318 -1.10294 0
M  V30 2533 O 226.309 -3.47679 -2.21795 0
M  V30 2534 H 225.65 -0.651564 -0.127908 0
M  V30 2535 H 228.18 -2.03221 0.23712 0
M  V30 2536 H 228.19 -3.82012 -1.43287 0
M  V30 2537 H 226.865 -4.14608 -0.327574 0
M  V30 2538 H 225.442 -3.20824 -1.9007 0
M  V30 2539 N 227.627 0.131896 -1.57047 0
M  V30 2540 C 228.867 0.847972 -1.85981 0
M  V30 2541 C 229.231 1.77655 -0.7282 0
M  V30 2542 O 230.432 2.53322 -0.898968 0
M  V30 2543 C 228.703 1.58919 -3.20124 0
M  V30 2544 S 230.262 2.34862 -3.70655 0
M  V30 2545 H 227.08 0.283273 -0.652133 0
M  V30 2546 H 229.682 0.107057 -1.95207 0
M  V30 2547 H 228.386 0.898771 -4.00438 0
M  V30 2548 H 227.917 2.37073 -3.13942 0
M  V30 2549 H 229.932 3.60344 -3.41126 0
M  V30 2550 N 229.106 1.52395 0.401703 0
M  V30 2551 C 230.355 1.66044 1.14509 0
M  V30 2552 C 230.668 0.400216 1.91462 0
M  V30 2553 O 231.874 0.416632 2.68284 0
M  V30 2554 C 230.33 2.93388 2.0845 0
M  V30 2555 C 229.938 4.26545 1.36978 0
M  V30 2556 C 231.682 3.16402 2.83001 0
M  V30 2557 C 229.589 5.45007 2.29611 0
M  V30 2558 H 228.519 0.618562 0.431158 0
M  V30 2559 H 231.17 1.78886 0.40892 0
M  V30 2560 H 229.552 2.74263 2.8565 0
M  V30 2561 H 230.726 4.56179 0.650916 0
M  V30 2562 H 229.041 4.09692 0.74438 0
M  V30 2563 H 231.638 4.02085 3.52465 0
M  V30 2564 H 231.981 2.30943 3.46368 0
M  V30 2565 H 232.514 3.36034 2.12898 0
M  V30 2566 H 229.253 6.32835 1.70879 0
M  V30 2567 H 228.773 5.19702 2.9945 0
M  V30 2568 H 230.452 5.7838 2.89974 0
M  V30 2569 N 230.584 -0.659388 1.43143 0
M  V30 2570 C 231.833 -1.41518 1.43721 0
M  V30 2571 C 232.146 -1.95499 0.0628176 0
M  V30 2572 O 233.352 -2.71446 -0.0539683 0
M  V30 2573 C 231.808 -2.5608 2.52885 0
M  V30 2574 C 231.416 -2.08733 3.96402 0
M  V30 2575 C 233.16 -3.3349 2.62649 0
M  V30 2576 C 231.067 -3.20469 4.97045 0
M  V30 2577 H 229.997 -0.531705 0.534608 0
M  V30 2578 H 232.648 -0.712343 1.69109 0
M  V30 2579 H 231.03 -3.28805 2.20688 0
M  V30 2580 H 232.204 -1.43059 4.3803 0
M  V30 2581 H 230.519 -1.44219 3.90627 0
M  V30 2582 H 233.116 -4.16734 3.35017 0
M  V30 2583 H 233.459 -3.8111 1.67513 0
M  V30 2584 H 233.992 -2.67842 2.94118 0
M  V30 2585 H 230.731 -2.77824 5.93712 0
M  V30 2586 H 230.251 -3.84874 4.60034 0
M  V30 2587 H 231.93 -3.85698 5.19467 0
M  V30 2588 N 232.062 -1.29571 -0.897171 0
M  V30 2589 C 233.339 -1.08365 -1.62839 0
M  V30 2590 C 233.719 0.371331 -2.07808 0
M  V30 2591 O 233.067 1.3606 -1.83576 0
M  V30 2592 C 233.277 -2.0735 -2.80726 0
M  V30 2593 C 234.625 -2.38406 -3.51351 0
M  V30 2594 O 235.649 -2.05564 -2.90898 0
M  V30 2595 O 234.508 -2.9453 -4.60341 0
M  V30 2596 H 231.602 -0.415345 -0.715134 0
M  V30 2597 H 234.148 -1.40952 -0.945018 0
M  V30 2598 H 232.92 -3.05339 -2.44711 0
M  V30 2599 H 232.543 -1.75507 -3.56767 0
M  V30 2600 N 233.54 1.10788 -1.12088 0
M  V30 2601 C 234.786 1.82942 -0.875226 0
M  V30 2602 C 235.119 1.84779 0.597538 0
M  V30 2603 O 234.394 1.30578 1.44152 0
M  V30 2604 C 234.677 3.29789 -1.44606 0
M  V30 2605 C 234.53 3.36307 -2.98693 0
M  V30 2606 C 235.849 4.26064 -1.10261 0
M  V30 2607 H 232.968 0.664195 -0.319397 0
M  V30 2608 H 235.61 1.29867 -1.38689 0
M  V30 2609 H 233.76 3.75118 -1.01089 0
M  V30 2610 H 235.432 2.99487 -3.50864 0
M  V30 2611 H 233.675 2.76318 -3.34411 0
M  V30 2612 H 234.346 4.39694 -3.33726 0
M  V30 2613 H 236.822 3.88951 -1.4784 0
M  V30 2614 H 235.698 5.27183 -1.52869 0
M  V30 2615 H 235.959 4.42098 -0.0142953 0
M  V30 2616 N 235.018 0.912232 1.28515 0
M  V30 2617 C 235.928 0.404506 2.31086 0
M  V30 2618 C 236.944 -0.50707 1.66448 0
M  V30 2619 O 238.12 -0.393624 1.97516 0
M  V30 2620 C 235.185 -0.348572 3.44943 0
M  V30 2621 C 234.246 0.59604 4.25142 0
M  V30 2622 C 233.479 -0.121194 5.33562 0
M  V30 2623 O 233.702 -1.34317 5.5436 0
M  V30 2624 O 232.636 0.542716 5.99448 0
M  V30 2625 H 236.462 1.25579 2.76521 0
M  V30 2626 H 234.047 0.676998 1.33181 0
M  V30 2627 H 235.929 -0.77395 4.14232 0
M  V30 2628 H 234.604 -1.17571 3.01594 0
M  V30 2629 H 233.511 1.07079 3.58448 0
M  V30 2630 H 234.844 1.38995 4.72167 0
M  V30 2631 N 236.496 -1.42363 0.676048 0
M  V30 2632 C 237.743 -2.01522 0.19883 0
M  V30 2633 C 238.071 -1.53456 -1.19505 0
M  V30 2634 O 237.326 -0.727967 -1.81657 0
M  V30 2635 C 237.625 -3.56929 0.183431 0
M  V30 2636 C 237.291 -4.24431 1.52215 0
M  V30 2637 C 235.953 -4.42585 1.8887 0
M  V30 2638 C 238.305 -4.62459 2.40377 0
M  V30 2639 C 235.633 -4.96039 3.13309 0
M  V30 2640 C 237.985 -5.17294 3.64129 0
M  V30 2641 C 236.649 -5.33661 4.00951 0
M  V30 2642 H 235.919 -0.737419 0.0727571 0
M  V30 2643 H 238.566 -1.70531 0.871281 0
M  V30 2644 H 236.871 -3.87594 -0.572532 0
M  V30 2645 H 238.568 -4.00486 -0.203035 0
M  V30 2646 H 235.158 -4.10661 1.22701 0
M  V30 2647 H 239.342 -4.48105 2.13343 0
M  V30 2648 H 234.598 -5.06896 3.41857 0
M  V30 2649 H 238.772 -5.45704 4.32644 0
M  V30 2650 H 236.399 -5.74845 4.9745 0
M  V30 2651 N 237.974 -0.419461 -1.51915 0
M  V30 2652 C 239.221 0.152939 -2.01922 0
M  V30 2653 C 239.549 1.4426 -1.30458 0
M  V30 2654 O 238.804 1.91514 -0.402593 0
M  V30 2655 C 239.103 0.437067 -3.54717 0
M  V30 2656 C 238.769 -0.764632 -4.44369 0
M  V30 2657 C 237.431 -1.09423 -4.68594 0
M  V30 2658 C 239.783 -1.56713 -4.97082 0
M  V30 2659 C 237.111 -2.22732 -5.42777 0
M  V30 2660 C 239.463 -2.69107 -5.72507 0
M  V30 2661 C 238.127 -3.02541 -5.95 0
M  V30 2662 H 237.397 0.0559644 -0.738884 0
M  V30 2663 H 240.044 -0.562998 -1.83037 0
M  V30 2664 H 238.349 1.23469 -3.71837 0
M  V30 2665 H 240.046 0.893083 -3.90928 0
M  V30 2666 H 236.636 -0.497775 -4.257 0
M  V30 2667 H 240.82 -1.32571 -4.78266 0
M  V30 2668 H 236.076 -2.48971 -5.58411 0
M  V30 2669 H 240.25 -3.31671 -6.12346 0
M  V30 2670 H 237.877 -3.90457 -6.52264 0
M  V30 2671 N 239.452 1.56882 -0.150215 0
M  V30 2672 C 240.863 1.82995 0.370076 0
M  V30 2673 C 241.214 1.06907 1.64515 0
M  V30 2674 O 240.339 0.315369 2.1409 0
M  V30 2675 C 240.934 3.31942 0.678208 0
M  V30 2676 C 239.493 3.58625 1.14301 0
M  V30 2677 C 238.64 2.76792 0.167778 0
M  V30 2678 H 241.591 1.54209 -0.374858 0
M  V30 2679 H 241.612 3.48272 1.53254 0
M  V30 2680 H 241.124 3.87294 -0.249991 0
M  V30 2681 H 239.225 3.08664 2.08704 0
M  V30 2682 H 239.338 4.67073 1.06676 0
M  V30 2683 H 237.702 2.45972 0.661037 0
M  V30 2684 H 238.485 3.34916 -0.754069 0
M  V30 2685 N 240.93 -0.123565 1.57115 0
M  V30 2686 C 242.177 -0.832153 1.84612 0
M  V30 2687 C 242.505 -1.80093 0.734627 0
M  V30 2688 O 241.76 -1.93766 -0.27442 0
M  V30 2689 C 242.059 -1.62016 3.18568 0
M  V30 2690 C 241.725 -0.796084 4.43817 0
M  V30 2691 C 240.387 -0.568816 4.77826 0
M  V30 2692 C 242.739 -0.221364 5.2073 0
M  V30 2693 C 240.067 0.243499 5.86194 0
M  V30 2694 C 242.419 0.578117 6.29953 0
M  V30 2695 C 241.083 0.815744 6.62497 0
M  V30 2696 H 240.353 -0.304507 0.675542 0
M  V30 2697 H 243 -0.0947248 1.91266 0
M  V30 2698 H 241.305 -2.42837 3.0747 0
M  V30 2699 H 243.002 -2.17231 3.37064 0
M  V30 2700 H 239.592 -0.983307 4.17168 0
M  V30 2701 H 243.776 -0.384173 4.94811 0
M  V30 2702 H 239.032 0.436871 6.09837 0
M  V30 2703 H 243.206 1.03046 6.88734 0
M  V30 2704 H 240.833 1.44701 7.46301 0
M  V30 2705 N 242.408 -1.52605 -0.393616 0
M  V30 2706 C 243.685 -1.58001 -1.15304 0
M  V30 2707 C 244.065 -0.370385 -2.07825 0
M  V30 2708 O 243.413 0.641638 -2.19306 0
M  V30 2709 C 243.623 -2.91652 -1.91677 0
M  V30 2710 C 244.971 -3.4522 -2.47201 0
M  V30 2711 O 245.995 -2.93495 -2.01839 0
M  V30 2712 O 244.854 -4.35579 -3.3005 0
M  V30 2713 H 241.948 -0.637068 -0.527327 0
M  V30 2714 H 244.494 -1.64939 -0.399141 0
M  V30 2715 H 243.266 -3.71136 -1.23992 0
M  V30 2716 H 242.889 -2.88077 -2.74039 0
M  V30 2717 N 243.887 0.651787 -1.4349 0
M  V30 2718 C 244.797 1.79368 -1.5121 0
M  V30 2719 C 245.813 1.69361 -0.399093 0
M  V30 2720 O 246.989 1.90505 -0.653431 0
M  V30 2721 C 244.054 3.15653 -1.43401 0
M  V30 2722 C 243.115 3.37446 -2.65384 0
M  V30 2723 C 242.348 4.67229 -2.57939 0
M  V30 2724 O 242.571 5.46676 -1.62792 0
M  V30 2725 O 241.505 4.90773 -3.48462 0
M  V30 2726 H 245.331 1.7581 -2.47638 0
M  V30 2727 H 242.916 0.810447 -1.25507 0
M  V30 2728 H 244.798 3.96935 -1.41494 0
M  V30 2729 H 243.473 3.19798 -0.501085 0
M  V30 2730 H 242.38 2.55923 -2.72863 0
M  V30 2731 H 243.713 3.38148 -3.57654 0
M  V30 2732 N 245.365 1.30045 0.890287 0
M  V30 2733 C 246.297 1.11786 2.00091 0
M  V30 2734 C 247.31 0.0626307 1.62679 0
M  V30 2735 O 248.499 0.308112 1.75821 0
M  V30 2736 C 245.599 0.681527 3.31977 0
M  V30 2737 C 244.772 1.81735 3.97858 0
M  V30 2738 C 243.831 1.37045 5.08041 0
M  V30 2739 O 242.857 2.07677 5.29961 0
M  V30 2740 N 244.059 0.246525 5.79976 0
M  V30 2741 H 246.824 2.07441 2.16306 0
M  V30 2742 H 244.385 1.2211 1.06305 0
M  V30 2743 H 246.377 0.365675 4.03045 0
M  V30 2744 H 244.947 -0.182828 3.12065 0
M  V30 2745 H 244.167 2.30159 3.20032 0
M  V30 2746 H 245.455 2.57865 4.38615 0
M  V30 2747 H 244.853 -0.34215 5.64664 0
M  V30 2748 H 243.41 -0.00990438 6.51799 0
M  V30 2749 N 246.843 -1.10192 1.12674 0
M  V30 2750 C 248.089 -1.82475 0.884915 0
M  V30 2751 C 248.422 -1.85093 -0.58773 0
M  V30 2752 O 247.697 -1.3134 -1.43457 0
M  V30 2753 C 247.98 -3.29018 1.46353 0
M  V30 2754 C 247.833 -3.34718 3.00473 0
M  V30 2755 C 249.152 -4.25473 1.12519 0
M  V30 2756 H 246.271 -0.662492 0.322915 0
M  V30 2757 H 248.913 -1.2913 1.39375 0
M  V30 2758 H 247.063 -3.74576 1.03077 0
M  V30 2759 H 248.735 -2.97622 3.52447 0
M  V30 2760 H 246.978 -2.74541 3.35872 0
M  V30 2761 H 247.649 -4.37918 3.36053 0
M  V30 2762 H 250.125 -3.88161 1.499 0
M  V30 2763 H 249.001 -5.26365 1.55663 0
M  V30 2764 H 249.262 -4.42084 0.0377407 0
M  V30 2765 N 248.321 -0.919034 -1.28029 0
M  V30 2766 C 249.561 -0.562107 -1.96519 0
M  V30 2767 C 249.925 0.878784 -1.70708 0
M  V30 2768 O 251.126 1.34355 -2.32813 0
M  V30 2769 C 249.397 -0.868953 -3.46676 0
M  V30 2770 S 250.956 -0.619237 -4.34409 0
M  V30 2771 H 247.774 -0.2078 -0.679956 0
M  V30 2772 H 250.376 -1.18562 -1.55446 0
M  V30 2773 H 249.08 -1.91547 -3.62957 0
M  V30 2774 H 248.611 -0.234301 -3.92702 0
M  V30 2775 H 250.626 0.526995 -4.93394 0
M  V30 2776 N 249.799 1.42003 -0.683588 0
M  V30 2777 C 251.027 2.05746 -0.218182 0
M  V30 2778 C 251.442 1.51396 1.12804 0
M  V30 2779 O 250.799 0.657303 1.70252 0
M  V30 2780 C 250.85 3.61171 -0.154131 0
M  V30 2781 O 250.571 4.13508 -1.44716 0
M  V30 2782 C 252.072 4.42042 0.333713 0
M  V30 2783 H 249.292 0.662888 -0.10402 0
M  V30 2784 H 251.836 1.81987 -0.9328 0
M  V30 2785 H 249.991 3.84012 0.511231 0
M  V30 2786 H 250.405 5.07453 -1.32632 0
M  V30 2787 H 251.879 5.51028 0.327423 0
M  V30 2788 H 252.356 4.17269 1.37053 0
M  V30 2789 H 252.962 4.24239 -0.300222 0
M  V30 2790 N 251.277 0.427512 1.51691 0
M  V30 2791 C 252.207 -0.3796 2.30394 0
M  V30 2792 C 253.188 -1.02982 1.35384 0
M  V30 2793 O 254.373 -1.03534 1.643 0
M  V30 2794 C 251.503 -1.48649 3.1388 0
M  V30 2795 C 250.457 -0.960294 4.17088 0
M  V30 2796 C 249.783 -2.16219 4.89033 0
M  V30 2797 C 251.083 -0.00153679 5.223 0
M  V30 2798 H 252.777 0.277164 2.98114 0
M  V30 2799 H 250.323 0.134739 1.43368 0
M  V30 2800 H 252.276 -2.05826 3.67714 0
M  V30 2801 H 251 -2.1714 2.43962 0
M  V30 2802 H 249.659 -0.410806 3.64291 0
M  V30 2803 H 249.307 -2.83307 4.15628 0
M  V30 2804 H 249.007 -1.81654 5.58816 0
M  V30 2805 H 250.531 -2.73968 5.45687 0
M  V30 2806 H 251.945 -0.482687 5.71264 0
M  V30 2807 H 250.342 0.256199 5.99553 0
M  V30 2808 H 251.412 0.938174 4.75738 0
M  V30 2809 N 252.755 -1.56801 0.158532 0
M  V30 2810 C 254.001 -1.96781 -0.490405 0
M  V30 2811 C 254.334 -1.04397 -1.63753 0
M  V30 2812 O 253.609 -0.0885805 -1.94298 0
M  V30 2813 C 253.892 -3.4635 -0.985594 0
M  V30 2814 C 253.745 -4.49512 0.160824 0
M  V30 2815 C 255.064 -3.98697 -1.86355 0
M  V30 2816 H 252.183 -0.715482 -0.176788 0
M  V30 2817 H 254.825 -1.88451 0.242088 0
M  V30 2818 H 252.975 -3.53579 -1.60978 0
M  V30 2819 H 254.647 -4.54353 0.797537 0
M  V30 2820 H 252.89 -4.26013 0.818256 0
M  V30 2821 H 253.561 -5.51531 -0.227569 0
M  V30 2822 H 256.037 -3.94019 -1.33746 0
M  V30 2823 H 254.913 -5.03792 -2.17909 0
M  V30 2824 H 255.174 -3.41744 -2.8047 0
M  V30 2825 N 254.233 0.115231 -1.57178 0
M  V30 2826 C 255.48 0.822351 -1.8505 0
M  V30 2827 C 255.808 1.79701 -0.744168 0
M  V30 2828 O 255.063 1.93909 0.26414 0
M  V30 2829 C 255.362 1.60324 -3.19423 0
M  V30 2830 C 255.028 0.772536 -4.44233 0
M  V30 2831 C 253.69 0.543468 -4.78121 0
M  V30 2832 C 256.042 0.193746 -5.2084 0
M  V30 2833 C 253.37 -0.274583 -5.86057 0
M  V30 2834 C 255.722 -0.611517 -6.29637 0
M  V30 2835 C 254.386 -0.850867 -6.62055 0
M  V30 2836 H 253.656 0.30092 -0.677147 0
M  V30 2837 H 256.303 0.0845802 -1.91313 0
M  V30 2838 H 254.608 2.41203 -3.08753 0
M  V30 2839 H 256.305 2.1544 -3.38211 0
M  V30 2840 H 252.895 0.96117 -4.17683 0
M  V30 2841 H 257.079 0.357926 -4.95008 0
M  V30 2842 H 252.335 -0.469206 -6.09597 0
M  V30 2843 H 256.509 -1.06697 -6.88178 0
M  V30 2844 H 254.136 -1.48657 -7.45523 0
M  V30 2845 N 255.711 1.52812 0.385517 0
M  V30 2846 C 256.959 1.67694 1.12797 0
M  V30 2847 C 257.28 0.421115 1.90399 0
M  V30 2848 O 256.55 -0.564551 1.87589 0
M  V30 2849 H 255.13 0.618155 0.419396 0
M  V30 2850 H 257.792 1.89938 0.436972 0
M  V30 2851 H 256.888 2.52896 1.82894 0
M  V30 2852 N 257.189 -0.644168 1.43834 0
M  V30 2853 C 258.414 -1.43642 1.49605 0
M  V30 2854 C 258.839 -1.8773 0.117913 0
M  V30 2855 O 258.197 -1.57938 -0.890239 0
M  V30 2856 C 258.245 -2.6416 2.45463 0
M  V30 2857 O 257.349 -3.63538 1.94714 0
M  V30 2858 H 256.69 -0.430329 0.50568 0
M  V30 2859 H 259.22 -0.787448 1.8884 0
M  V30 2860 H 259.23 -3.11864 2.63068 0
M  V30 2861 H 257.905 -2.31414 3.45572 0
M  V30 2862 H 256.482 -3.2273 1.86814 0
M  V30 2863 N 258.668 -1.30515 -0.883378 0
M  V30 2864 C 259.914 -1.20617 -1.63778 0
M  V30 2865 C 260.269 0.236469 -1.90941 0
M  V30 2866 O 259.562 1.16596 -1.52039 0
M  V30 2867 C 259.756 -1.96994 -2.98209 0
M  V30 2868 C 259.585 -3.48537 -2.84169 0
M  V30 2869 C 258.355 -4.17893 -2.84067 0
M  V30 2870 C 260.553 -4.43738 -2.60001 0
M  V30 2871 N 258.535 -5.55685 -2.60936 0
M  V30 2872 C 259.906 -5.69105 -2.46007 0
M  V30 2873 C 261.961 -4.33316 -2.45239 0
M  V30 2874 C 260.664 -6.8523 -2.18752 0
M  V30 2875 C 262.69 -5.4921 -2.19369 0
M  V30 2876 C 262.052 -6.73558 -2.06153 0
M  V30 2877 H 258.151 -0.496434 -0.604216 0
M  V30 2878 H 260.735 -1.64544 -1.04083 0
M  V30 2879 H 258.906 -1.55455 -3.55933 0
M  V30 2880 H 260.638 -1.79225 -3.62851 0
M  V30 2881 H 257.393 -3.69739 -2.95956 0
M  V30 2882 H 257.817 -6.28199 -2.52378 0
M  V30 2883 H 262.459 -3.37856 -2.54191 0
M  V30 2884 H 260.177 -7.80729 -2.08537 0
M  V30 2885 H 263.763 -5.43054 -2.08766 0
M  V30 2886 H 262.643 -7.61721 -1.86416 0
M  V30 2887 N 260.146 1.09593 -1.13257 0
M  V30 2888 C 261.374 1.855 -0.916378 0
M  V30 2889 C 261.789 1.81069 0.534738 0
M  V30 2890 O 261.146 1.20562 1.37007 0
M  V30 2891 C 261.197 3.33546 -1.39388 0
M  V30 2892 O 260.918 3.37927 -2.78813 0
M  V30 2893 C 262.419 4.26299 -1.21588 0
M  V30 2894 H 259.639 0.585991 -0.326887 0
M  V30 2895 H 262.183 1.38488 -1.5047 0
M  V30 2896 H 260.338 3.77992 -0.848597 0
M  V30 2897 H 260.752 4.30254 -2.9997 0
M  V30 2898 H 262.226 5.28341 -1.59876 0
M  V30 2899 H 262.703 4.38918 -0.157376 0
M  V30 2900 H 263.309 3.87668 -1.7491 0
M  V30 2901 N 261.624 0.925811 1.2754 0
M  V30 2902 C 262.854 0.580666 1.98272 0
M  V30 2903 C 263.262 -0.845207 1.69272 0
M  V30 2904 O 262.605 -1.57306 0.948707 0
M  V30 2905 C 262.667 0.724418 3.52126 0
M  V30 2906 C 262.331 2.12206 4.04744 0
M  V30 2907 C 263.328 3.09604 4.17662 0
M  V30 2908 C 261.013 2.4385 4.39138 0
M  V30 2909 C 263.007 4.36755 4.64246 0
M  V30 2910 C 260.694 3.71237 4.85414 0
M  V30 2911 C 261.692 4.67503 4.97926 0
M  V30 2912 O 261.38 5.92624 5.43187 0
M  V30 2913 H 261.112 0.218987 0.639547 0
M  V30 2914 H 263.666 1.24452 1.63404 0
M  V30 2915 H 261.896 0.0034663 3.867 0
M  V30 2916 H 263.585 0.384607 4.04074 0
M  V30 2917 H 264.351 2.86478 3.91351 0
M  V30 2918 H 260.23 1.69665 4.28643 0
M  V30 2919 H 263.774 5.11898 4.73927 0
M  V30 2920 H 259.671 3.94182 5.11166 0
M  V30 2921 H 260.439 5.95585 5.61445 0
M  V30 2922 N 263.102 -1.41638 0.69111 0
M  V30 2923 C 264.05 -2.32597 0.0115199 0
M  V30 2924 C 265.044 -1.5072 -0.773296 0
M  V30 2925 O 266.25 -1.66685 -0.67942 0
M  V30 2926 H 262.625 -0.751849 -0.0150746 0
M  V30 2927 H 264.596 -2.87593 0.795791 0
M  V30 2928 C 263.345 -3.35467 -0.914172 0
M  V30 2929 H 262.668 -3.9852 -0.319687 0
M  V30 2930 H 264.108 -4.01662 -1.35808 0
M  V30 2931 C 262.567 -2.69004 -2.02826 0
M  V30 2932 O 263.097 -2.53444 -3.11655 0
M  V30 2933 N 261.303 -2.2777 -1.80469 0
M  V30 2934 H 260.85 -2.40626 -0.919615 0
M  V30 2935 H 260.808 -1.83635 -2.55197 0
M  V30 2936 N 264.58 -0.43555 -1.51462 0
M  V30 2937 C 265.49 0.383001 -2.31453 0
M  V30 2938 C 266.506 1.02931 -1.4029 0
M  V30 2939 O 267.682 1.02507 -1.73362 0
M  V30 2940 C 264.747 1.47043 -3.13973 0
M  V30 2941 C 263.808 0.844433 -4.20913 0
M  V30 2942 C 263.041 1.88004 -4.9949 0
M  V30 2943 O 263.264 3.10199 -4.78678 0
M  V30 2944 O 262.198 1.47157 -5.83634 0
M  V30 2945 H 266.024 -0.269964 -3.02498 0
M  V30 2946 H 263.609 -0.19813 -1.4808 0
M  V30 2947 H 265.491 2.10113 -3.65281 0
M  V30 2948 H 264.166 2.10751 -2.45695 0
M  V30 2949 H 263.073 0.175729 -3.73687 0
M  V30 2950 H 264.406 0.250869 -4.9156 0
M  V30 2951 N 266.058 1.56714 -0.166846 0
M  V30 2952 C 267.006 2.19056 0.782123 0
M  V30 2953 C 268 1.15328 1.24079 0
M  V30 2954 O 269.206 1.33537 1.20697 0
M  V30 2955 H 265.581 0.70167 0.270486 0
M  V30 2956 H 267.552 2.97494 0.232322 0
M  V30 2957 C 266.301 2.84206 2.00306 0
M  V30 2958 H 265.624 3.63748 1.65914 0
M  V30 2959 H 267.064 3.31302 2.64604 0
M  V30 2960 C 265.523 1.83744 2.82382 0
M  V30 2961 O 266.053 1.32014 3.79388 0
M  V30 2962 N 264.259 1.52601 2.47308 0
M  V30 2963 H 263.806 1.9486 1.68485 0
M  V30 2964 H 263.764 0.856351 3.02513 0
M  V30 2965 N 267.536 -0.106894 1.57237 0
M  V30 2966 C 268.446 -1.14911 2.0453 0
M  V30 2967 C 269.462 -1.44592 0.96795 0
M  V30 2968 O 270.638 -1.55468 1.2803 0
M  V30 2969 C 267.703 -2.45272 2.45036 0
M  V30 2970 C 266.764 -2.22879 3.66911 0
M  V30 2971 C 265.997 -3.47024 4.05475 0
M  V30 2972 O 266.22 -4.54804 3.44252 0
M  V30 2973 O 265.154 -3.3731 4.98504 0
M  V30 2974 H 268.98 -0.777461 2.9358 0
M  V30 2975 H 266.565 -0.318563 1.45964 0
M  V30 2976 H 268.447 -3.22055 2.71769 0
M  V30 2977 H 267.122 -2.81886 1.59129 0
M  V30 2978 H 266.029 -1.43915 3.45311 0
M  V30 2979 H 267.362 -1.91163 4.53561 0
M  V30 2980 N 269.014 -1.53014 -0.377408 0
M  V30 2981 C 270.263 -1.67845 -1.11853 0
M  V30 2982 C 270.576 -0.430625 -1.90801 0
M  V30 2983 O 271.782 -0.459261 -2.67587 0
M  V30 2984 C 270.238 -2.96668 -2.03756 0
M  V30 2985 C 269.846 -4.28671 -1.30175 0
M  V30 2986 C 271.59 -3.20865 -2.77932 0
M  V30 2987 C 269.497 -5.48591 -2.20911 0
M  V30 2988 H 268.427 -0.625343 -0.421263 0
M  V30 2989 H 271.078 -1.79514 -0.380409 0
M  V30 2990 H 269.46 -2.78773 -2.8125 0
M  V30 2991 H 270.634 -4.57157 -0.578259 0
M  V30 2992 H 268.949 -4.10825 -0.679108 0
M  V30 2993 H 271.546 -4.07642 -3.46024 0
M  V30 2994 H 271.889 -2.36424 -3.4265 0
M  V30 2995 H 272.422 -3.39379 -2.07525 0
M  V30 2996 H 269.161 -6.35474 -1.6079 0
M  V30 2997 H 268.681 -5.244 -2.91144 0
M  V30 2998 H 270.36 -5.8292 -2.80736 0
M  V30 2999 N 270.492 0.636531 -1.44174 0
M  V30 3000 C 271.439 1.74875 -1.50624 0
M  V30 3001 C 272.409 1.62275 -0.35442 0
M  V30 3002 O 273.594 1.82276 -0.563908 0
M  V30 3003 C 270.734 3.13102 -1.45125 0
M  V30 3004 C 269.847 3.36717 -2.7064 0
M  V30 3005 C 268.982 4.64885 -2.57013 0
M  V30 3006 C 268.021 4.8166 -3.77717 0
M  V30 3007 N 267.158 6.01101 -3.62798 0
M  V30 3008 H 271.998 1.68697 -2.45653 0
M  V30 3009 H 269.535 0.823004 -1.21922 0
M  V30 3010 H 271.493 3.93034 -1.39929 0
M  V30 3011 H 270.123 3.18308 -0.536671 0
M  V30 3012 H 269.175 2.50763 -2.86046 0
M  V30 3013 H 270.487 3.44993 -3.60252 0
M  V30 3014 H 269.641 5.52969 -2.49619 0
M  V30 3015 H 268.38 4.58957 -1.64953 0
M  V30 3016 H 267.385 3.92007 -3.85501 0
M  V30 3017 H 268.61 4.89406 -4.70807 0
M  V30 3018 H 266.556 5.96273 -2.73486 0
M  V30 3019 H 266.473 6.10409 -4.46023 0
M  V30 3020 H 267.741 6.91761 -3.59286 0
M  V30 3021 N 271.97 1.30982 0.876444 0
M  V30 3022 C 272.9 1.20668 1.99903 0
M  V30 3023 C 273.881 0.095354 1.69833 0
M  V30 3024 O 275.066 0.27885 1.92188 0
M  V30 3025 C 272.196 0.90655 3.3526 0
M  V30 3026 C 271.15 1.97675 3.79617 0
M  V30 3027 C 270.476 1.52943 5.1236 0
M  V30 3028 C 271.776 3.389 3.97422 0
M  V30 3029 H 273.47 2.14586 2.0879 0
M  V30 3030 H 271.016 1.03308 1.00317 0
M  V30 3031 H 272.969 0.821025 4.13324 0
M  V30 3032 H 271.693 -0.0682969 3.26529 0
M  V30 3033 H 270.352 2.05205 3.03787 0
M  V30 3034 H 270 0.54262 5.00065 0
M  V30 3035 H 269.7 2.24532 5.43009 0
M  V30 3036 H 271.224 1.45786 5.92941 0
M  V30 3037 H 272.638 3.34081 4.659 0
M  V30 3038 H 271.035 4.0865 4.3946 0
M  V30 3039 H 272.105 3.80163 3.01006 0
M  V30 3040 N 273.449 -1.08991 1.13837 0
M  V30 3041 C 274.359 -2.19301 0.833333 0
M  V30 3042 C 275.375 -1.73026 -0.183847 0
M  V30 3043 O 276.551 -2.01395 -0.0138092 0
M  V30 3044 C 273.616 -3.45323 0.308651 0
M  V30 3045 C 272.677 -4.06255 1.38764 0
M  V30 3046 C 271.91 -5.26262 0.887896 0
M  V30 3047 O 272.133 -5.69747 -0.27287 0
M  V30 3048 O 271.067 -5.78435 1.66421 0
M  V30 3049 H 274.893 -2.47854 1.75506 0
M  V30 3050 H 272.478 -1.18012 0.916166 0
M  V30 3051 H 274.36 -4.21394 0.0216739 0
M  V30 3052 H 273.035 -3.18362 -0.585431 0
M  V30 3053 H 271.942 -3.318 1.72799 0
M  V30 3054 H 273.275 -4.37452 2.25602 0
M  V30 3055 N 274.927 -0.932562 -1.27047 0
M  V30 3056 C 276.174 -0.575559 -1.94148 0
M  V30 3057 C 276.502 0.883984 -1.73251 0
M  V30 3058 O 275.757 1.64655 -1.0577 0
M  V30 3059 C 276.056 -0.853713 -3.47054 0
M  V30 3060 C 275.722 -2.29577 -3.88079 0
M  V30 3061 C 274.384 -2.68999 -3.9899 0
M  V30 3062 C 276.736 -3.23331 -4.08787 0
M  V30 3063 C 274.064 -4.01289 -4.28 0
M  V30 3064 C 276.416 -4.55207 -4.39282 0
M  V30 3065 C 275.08 -4.94457 -4.48407 0
M  V30 3066 H 274.35 -0.210612 -0.710439 0
M  V30 3067 H 276.997 -1.17744 -1.51025 0
M  V30 3068 H 275.302 -0.169204 -3.91434 0
M  V30 3069 H 276.999 -0.55639 -3.97121 0
M  V30 3070 H 273.589 -1.97994 -3.80127 0
M  V30 3071 H 277.773 -2.94074 -3.99793 0
M  V30 3072 H 273.029 -4.31374 -4.33275 0
M  V30 3073 H 277.203 -5.27852 -4.54252 0
M  V30 3074 H 274.83 -5.96994 -4.7064 0
M  V30 3075 N 276.405 1.4127 -0.698611 0
M  V30 3076 C 277.651 2.01478 -0.231207 0
M  V30 3077 C 277.984 1.55215 1.16713 0
M  V30 3078 O 277.259 0.764672 1.78838 0
M  V30 3079 C 277.542 3.58912 -0.292281 0
M  V30 3080 C 277.395 4.15293 -1.72778 0
M  V30 3081 C 278.714 4.38736 0.346194 0
M  V30 3082 H 275.833 0.732025 -0.0854878 0
M  V30 3083 H 278.475 1.67977 -0.887906 0
M  V30 3084 H 276.625 3.87582 0.26686 0
M  V30 3085 H 278.297 3.97486 -2.341 0
M  V30 3086 H 276.54 3.7022 -2.26096 0
M  V30 3087 H 277.211 5.24452 -1.72202 0
M  V30 3088 H 279.687 4.15897 -0.130035 0
M  V30 3089 H 278.563 5.48221 0.272932 0
M  V30 3090 H 278.824 4.18425 1.42734 0
M  V30 3091 N 277.883 0.443576 1.51229 0
M  V30 3092 C 278.815 -0.400608 2.25672 0
M  V30 3093 C 279.828 -0.980945 1.29928 0
M  V30 3094 O 281.017 -0.874024 1.55638 0
M  V30 3095 C 278.117 -1.57304 3.00181 0
M  V30 3096 C 277.29 -1.11046 4.23069 0
M  V30 3097 C 276.349 -2.15374 4.80105 0
M  V30 3098 O 275.375 -1.74554 5.41774 0
M  V30 3099 N 276.577 -3.47922 4.64683 0
M  V30 3100 H 279.342 0.23745 2.98758 0
M  V30 3101 H 276.903 0.272809 1.59585 0
M  V30 3102 H 278.895 -2.26733 3.35223 0
M  V30 3103 H 277.465 -2.11632 2.30066 0
M  V30 3104 H 276.685 -0.243019 3.9345 0
M  V30 3105 H 277.973 -0.778888 5.02803 0
M  V30 3106 H 277.371 -3.83815 4.15575 0
M  V30 3107 H 275.928 -4.13228 5.0407 0
M  V30 3108 N 279.361 -1.56624 0.175154 0
M  V30 3109 C 280.324 -2.16934 -0.739738 0
M  V30 3110 C 281.324 -1.11842 -1.15533 0
M  V30 3111 O 282.514 -1.37335 -1.07167 0
M  V30 3112 C 279.646 -2.75531 -2.00738 0
M  V30 3113 H 280.839 -2.99131 -0.214639 0
M  V30 3114 H 278.392 -1.56123 -0.0744197 0
M  V30 3115 H 279.127 -1.97078 -2.57548 0
M  V30 3116 H 278.912 -3.52444 -1.71831 0
M  V30 3117 H 280.402 -3.21904 -2.66021 0
M  V30 3118 N 280.839 0.0985539 -1.57292 0
M  V30 3119 C 281.749 1.13824 -2.05137 0
M  V30 3120 C 282.765 1.44076 -0.975604 0
M  V30 3121 O 283.941 1.54786 -1.28853 0
M  V30 3122 C 281.006 2.43969 -2.46333 0
M  V30 3123 C 280.067 2.2093 -3.68087 0
M  V30 3124 C 279.3 3.44869 -4.0731 0
M  V30 3125 O 279.523 4.52972 -3.46659 0
M  V30 3126 O 278.457 3.34661 -5.00285 0
M  V30 3127 H 282.283 0.761881 -2.93988 0
M  V30 3128 H 279.868 0.310818 -1.46131 0
M  V30 3129 H 281.75 3.20609 -2.73473 0
M  V30 3130 H 280.425 2.81038 -1.60621 0
M  V30 3131 H 279.332 1.42081 -3.46069 0
M  V30 3132 H 280.665 1.88755 -4.54568 0
M  V30 3133 N 282.317 1.53212 0.369288 0
M  V30 3134 C 283.247 1.82365 1.45826 0
M  V30 3135 C 284.228 0.676907 1.56051 0
M  V30 3136 O 285.413 0.926401 1.70679 0
M  V30 3137 C 282.543 2.01023 2.83208 0
M  V30 3138 C 281.497 3.1678 2.8781 0
M  V30 3139 C 280.823 3.20724 4.27832 0
M  V30 3140 C 282.123 4.55447 2.55667 0
M  V30 3141 H 283.817 2.73559 1.21678 0
M  V30 3142 H 281.363 1.3163 0.583911 0
M  V30 3143 H 283.316 2.20001 3.59413 0
M  V30 3144 H 282.04 1.06536 3.08736 0
M  V30 3145 H 280.699 2.97616 2.14056 0
M  V30 3146 H 280.347 2.23882 4.50429 0
M  V30 3147 H 280.047 3.98496 4.31827 0
M  V30 3148 H 281.571 3.41881 5.05915 0
M  V30 3149 H 282.985 4.74611 3.21586 0
M  V30 3150 H 281.382 5.35432 2.70984 0
M  V30 3151 H 282.452 4.60812 1.5093 0
M  V30 3152 N 283.795 -0.628877 1.44509 0
M  V30 3153 C 285.041 -1.39045 1.47629 0
M  V30 3154 C 285.374 -1.93892 0.109343 0
M  V30 3155 O 284.649 -1.7379 -0.87334 0
M  V30 3156 C 284.932 -2.55408 2.53848 0
M  V30 3157 C 284.785 -2.05896 3.99909 0
M  V30 3158 C 286.104 -3.5759 2.56549 0
M  V30 3159 H 283.223 -0.504232 0.537512 0
M  V30 3160 H 285.865 -0.710854 1.76201 0
M  V30 3161 H 284.015 -3.13384 2.29615 0
M  V30 3162 H 285.687 -1.52734 4.35282 0
M  V30 3163 H 283.93 -1.37061 4.11578 0
M  V30 3164 H 284.601 -2.89681 4.69882 0
M  V30 3165 H 287.077 -3.09419 2.78207 0
M  V30 3166 H 285.953 -4.36527 3.32769 0
M  V30 3167 H 286.214 -4.11808 1.60832 0
M  V30 3168 N 285.273 -1.31445 -0.869486 0
M  V30 3169 C 286.55 -1.11795 -1.60503 0
M  V30 3170 C 286.93 0.327168 -2.08549 0
M  V30 3171 O 286.278 1.32135 -1.8642 0
M  V30 3172 C 286.488 -2.13258 -2.76265 0
M  V30 3173 C 287.836 -2.45805 -3.46215 0
M  V30 3174 O 288.86 -2.11688 -2.86473 0
M  V30 3175 O 287.719 -3.04228 -4.5399 0
M  V30 3176 H 284.813 -0.430421 -0.706163 0
M  V30 3177 H 287.359 -1.42925 -0.914907 0
M  V30 3178 H 286.131 -3.10461 -2.3818 0
M  V30 3179 H 285.754 -1.83035 -3.52964 0
M  V30 3180 N 286.751 1.08385 -1.14413 0
M  V30 3181 C 287.997 1.81044 -0.913834 0
M  V30 3182 C 288.33 1.86004 0.558209 0
M  V30 3183 O 287.605 1.33606 1.4135 0
M  V30 3184 C 287.888 3.26648 -1.51569 0
M  V30 3185 C 287.741 3.29895 -3.0576 0
M  V30 3186 C 289.06 4.23629 -1.19273 0
M  V30 3187 H 286.179 0.65727 -0.333414 0
M  V30 3188 H 288.821 1.26896 -1.41412 0
M  V30 3189 H 286.971 3.72889 -1.09023 0
M  V30 3190 H 288.643 2.91977 -3.57137 0
M  V30 3191 H 286.886 2.69163 -3.40197 0
M  V30 3192 H 287.557 4.32516 -3.42977 0
M  V30 3193 H 290.033 3.85727 -1.56057 0
M  V30 3194 H 288.909 5.23822 -1.64017 0
M  V30 3195 H 289.17 4.41968 -0.108068 0
M  V30 3196 N 288.23 0.939286 1.26551 0
M  V30 3197 C 289.455 0.602008 1.98471 0
M  V30 3198 C 289.88 -0.815624 1.69497 0
M  V30 3199 O 289.238 -1.54912 0.941905 0
M  V30 3200 C 289.286 0.848407 3.50477 0
M  V30 3201 O 288.39 -0.0804009 4.12322 0
M  V30 3202 H 287.731 0.23049 0.622712 0
M  V30 3203 H 290.261 1.2617 1.61066 0
M  V30 3204 H 290.271 0.768553 4.00696 0
M  V30 3205 H 288.946 1.88171 3.70897 0
M  V30 3206 H 287.523 0.0503508 3.72866 0
M  V30 3207 N 289.708 -1.40897 0.706093 0
M  V30 3208 C 290.618 -2.3455 0.0482286 0
M  V30 3209 C 291.634 -1.56796 -0.754396 0
M  V30 3210 O 292.81 -1.89228 -0.689538 0
M  V30 3211 C 289.875 -3.35625 -0.869303 0
M  V30 3212 C 288.936 -4.29261 -0.0576994 0
M  V30 3213 C 288.169 -5.25508 -0.931531 0
M  V30 3214 O 288.392 -5.27472 -2.17092 0
M  V30 3215 O 287.326 -6.00727 -0.375587 0
M  V30 3216 H 291.152 -2.92407 0.820476 0
M  V30 3217 H 288.737 -1.4193 0.4665 0
M  V30 3218 H 290.619 -3.97635 -1.39514 0
M  V30 3219 H 289.294 -2.80196 -1.62086 0
M  V30 3220 H 288.201 -3.70566 0.512988 0
M  V30 3221 H 289.534 -4.87817 0.655426 0
M  V30 3222 N 291.186 -0.45159 -1.50991 0
M  V30 3223 C 292.416 0.108177 -2.06317 0
M  V30 3224 C 292.824 1.35774 -1.31765 0
M  V30 3225 O 292.167 1.79838 -0.374694 0
M  V30 3226 C 292.229 0.481659 -3.56259 0
M  V30 3227 C 291.893 -0.663114 -4.52163 0
M  V30 3228 C 292.89 -1.53947 -4.96585 0
M  V30 3229 C 290.575 -0.8479 -4.95092 0
M  V30 3230 C 292.569 -2.58518 -5.82621 0
M  V30 3231 C 290.256 -1.89686 -5.80915 0
M  V30 3232 C 291.254 -2.76388 -6.24579 0
M  V30 3233 O 290.942 -3.79482 -7.08695 0
M  V30 3234 H 290.674 0.00499183 -0.675982 0
M  V30 3235 H 293.228 -0.633659 -1.95381 0
M  V30 3236 H 291.458 1.27641 -3.65027 0
M  V30 3237 H 293.147 0.974233 -3.94035 0
M  V30 3238 H 293.913 -1.4083 -4.64103 0
M  V30 3239 H 289.792 -0.18258 -4.60638 0
M  V30 3240 H 293.336 -3.26224 -6.16623 0
M  V30 3241 H 289.233 -2.02817 -6.12809 0
M  V30 3242 H 290.001 -3.76234 -7.26905 0
M  V30 3243 N 292.664 1.56529 -0.183458 0
M  V30 3244 C 293.889 2.02064 0.467428 0
M  V30 3245 C 294.314 1.06282 1.55196 0
M  V30 3246 O 293.672 0.0443565 1.81246 0
M  V30 3247 C 293.72 3.46122 1.01153 0
M  V30 3248 O 292.824 3.53437 2.12499 0
M  V30 3249 H 292.165 0.654726 0.110588 0
M  V30 3250 H 294.695 2.02521 -0.290917 0
M  V30 3251 H 294.705 3.85676 1.33108 0
M  V30 3252 H 293.38 4.15331 0.217533 0
M  V30 3253 H 291.957 3.2575 1.81497 0
M  V30 3254 N 294.142 -0.090211 1.57342 0
M  V30 3255 C 295.105 -1.09335 2.01441 0
M  V30 3256 C 296.105 -1.32666 0.908641 0
M  V30 3257 O 297.295 -1.28697 1.174 0
M  V30 3258 C 294.427 -2.44136 2.3793 0
M  V30 3259 H 295.62 -0.713662 2.91285 0
M  V30 3260 H 293.173 -0.335404 1.52659 0
M  V30 3261 H 293.908 -2.86972 1.51055 0
M  V30 3262 H 293.693 -2.28548 3.18603 0
M  V30 3263 H 295.183 -3.16277 2.72688 0
M  V30 3264 N 295.62 -1.53406 -0.361157 0
M  V30 3265 C 296.845 -1.74024 -1.12829 0
M  V30 3266 C 297.27 -0.470069 -1.82132 0
M  V30 3267 O 296.628 0.57619 -1.719 0
M  V30 3268 C 296.676 -2.90903 -2.13091 0
M  V30 3269 O 295.78 -2.59821 -3.20261 0
M  V30 3270 H 295.121 -0.577804 -0.327168 0
M  V30 3271 H 297.651 -2.00307 -0.41693 0
M  V30 3272 H 297.661 -3.17194 -2.56616 0
M  V30 3273 H 296.336 -3.83034 -1.62042 0
M  V30 3274 H 294.913 -2.44362 -2.81677 0
M  V30 3275 N 297.098 0.621204 -1.44841 0
M  V30 3276 C 298.323 1.41244 -1.51871 0
M  V30 3277 C 298.748 1.87519 -0.147764 0
M  V30 3278 O 298.106 1.59334 0.865 0
M  V30 3279 C 298.154 2.60221 -2.49634 0
M  V30 3280 O 297.258 3.60395 -2.00473 0
M  V30 3281 H 296.599 0.42223 -0.512463 0
M  V30 3282 H 299.129 0.757305 -1.90069 0
M  V30 3283 H 299.139 3.0764 -2.67996 0
M  V30 3284 H 297.814 2.25887 -3.4921 0
M  V30 3285 H 296.391 3.19717 -1.91925 0
M  V30 3286 N 298.576 1.31904 0.862503 0
M  V30 3287 C 299.825 1.21373 1.61094 0
M  V30 3288 C 300.138 -0.22504 1.94301 0
M  V30 3289 O 301.344 -0.452121 2.67709 0
M  V30 3290 C 299.8 2.12525 2.9045 0
M  V30 3291 C 299.408 3.61441 2.64697 0
M  V30 3292 C 301.152 2.10813 3.68454 0
M  V30 3293 C 299.059 4.44578 3.90006 0
M  V30 3294 H 297.989 0.450705 0.604468 0
M  V30 3295 H 300.64 1.56811 0.953027 0
M  V30 3296 H 299.022 1.69994 3.57656 0
M  V30 3297 H 300.196 4.12264 2.05851 0
M  V30 3298 H 298.511 3.65205 2.00036 0
M  V30 3299 H 301.108 2.70167 4.61426 0
M  V30 3300 H 301.451 1.09713 4.01583 0
M  V30 3301 H 301.984 2.51583 3.08141 0
M  V30 3302 H 298.723 5.46461 3.62023 0
M  V30 3303 H 298.243 3.98508 4.48276 0
M  V30 3304 H 299.922 4.57176 4.5782 0
M  V30 3305 N 300.054 -1.07777 1.14986 0
M  V30 3306 C 301.3 -1.80719 0.93339 0
M  V30 3307 C 301.655 -1.8484 -0.534019 0
M  V30 3308 O 300.948 -1.31795 -1.3907 0
M  V30 3309 C 301.142 -3.25495 1.47608 0
M  V30 3310 C 300.971 -3.3548 2.99472 0
M  V30 3311 C 299.741 -3.46293 3.6798 0
M  V30 3312 C 301.939 -3.26596 3.97291 0
M  V30 3313 N 299.921 -3.45136 5.07695 0
M  V30 3314 C 301.292 -3.32506 5.23297 0
M  V30 3315 C 303.347 -3.10376 3.89321 0
M  V30 3316 C 302.05 -3.23866 6.42264 0
M  V30 3317 C 304.076 -3.03069 5.07842 0
M  V30 3318 C 303.438 -3.09587 6.32721 0
M  V30 3319 H 299.537 -0.674814 0.395158 0
M  V30 3320 H 302.121 -1.28681 1.46114 0
M  V30 3321 H 300.292 -3.75963 0.975022 0
M  V30 3322 H 302.024 -3.86535 1.19887 0
M  V30 3323 H 298.779 -3.50456 3.18555 0
M  V30 3324 H 299.203 -3.48097 5.80653 0
M  V30 3325 H 303.845 -3.04194 2.93642 0
M  V30 3326 H 301.563 -3.28807 7.38181 0
M  V30 3327 H 305.149 -2.91629 5.03432 0
M  V30 3328 H 304.029 -3.0397 7.22891 0
M  V30 3329 N 301.532 -0.945985 -1.26051 0
M  V30 3330 C 302.809 -0.513816 -1.88731 0
M  V30 3331 C 303.189 1.00872 -1.8544 0
M  V30 3332 O 302.537 1.8708 -1.312 0
M  V30 3333 C 302.747 -1.08062 -3.31849 0
M  V30 3334 C 304.095 -1.1522 -4.08668 0
M  V30 3335 O 305.119 -1.03155 -3.40936 0
M  V30 3336 O 303.978 -1.34044 -5.29806 0
M  V30 3337 H 301.072 -0.168193 -0.809716 0
M  V30 3338 H 303.618 -1.03886 -1.34186 0
M  V30 3339 H 302.39 -2.1241 -3.2863 0
M  V30 3340 H 302.013 -0.538307 -3.93939 0
M  V30 3341 N 303.011 1.40521 -0.713556 0
M  V30 3342 C 304.257 2.01221 -0.252564 0
M  V30 3343 C 304.59 1.56444 1.1506 0
M  V30 3344 O 303.865 0.783597 1.78017 0
M  V30 3345 C 304.148 3.58582 -0.330332 0
M  V30 3346 C 304.001 4.13437 -1.77173 0
M  V30 3347 C 305.32 4.39079 0.299641 0
M  V30 3348 H 302.439 0.731077 -0.0932471 0
M  V30 3349 H 305.081 1.67026 -0.905673 0
M  V30 3350 H 303.231 3.87844 0.225737 0
M  V30 3351 H 304.903 3.9498 -2.38303 0
M  V30 3352 H 303.146 3.67801 -2.3001 0
M  V30 3353 H 303.817 5.22597 -1.77755 0
M  V30 3354 H 306.293 4.15735 -0.174139 0
M  V30 3355 H 305.169 5.4848 0.214771 0
M  V30 3356 H 305.43 4.19915 1.38288 0
M  V30 3357 N 304.489 0.459591 1.5075 0
M  V30 3358 C 305.738 -0.100971 2.01447 0
M  V30 3359 C 306.051 -1.41816 1.34713 0
M  V30 3360 O 307.257 -2.06299 1.76502 0
M  V30 3361 C 305.713 -0.23047 3.59161 0
M  V30 3362 C 305.321 1.0776 4.34847 0
M  V30 3363 C 307.065 -0.743608 4.17936 0
M  V30 3364 C 304.972 0.91253 5.84317 0
M  V30 3365 H 303.902 -0.0415102 0.752856 0
M  V30 3366 H 306.553 0.592742 1.73663 0
M  V30 3367 H 304.935 -0.987703 3.83485 0
M  V30 3368 H 306.109 1.8449 4.22256 0
M  V30 3369 H 304.424 1.52097 3.87628 0
M  V30 3370 H 307.021 -0.883959 5.27343 0
M  V30 3371 H 307.364 -1.73196 3.78562 0
M  V30 3372 H 307.897 -0.04408 3.97776 0
M  V30 3373 H 304.636 1.87391 6.28144 0
M  V30 3374 H 304.156 0.185422 5.99513 0
M  V30 3375 H 305.835 0.574547 6.44444 0
M  V30 3376 N 305.967 -1.56429 0.191757 0
M  V30 3377 C 307.244 -1.89224 -0.495332 0
M  V30 3378 C 307.624 -1.10478 -1.79883 0
M  V30 3379 O 306.972 -0.204852 -2.2758 0
M  V30 3380 C 307.182 -3.41548 -0.717367 0
M  V30 3381 C 308.53 -4.11711 -1.03823 0
M  V30 3382 O 309.554 -3.4698 -0.805204 0
M  V30 3383 O 308.413 -5.2611 -1.47887 0
M  V30 3384 H 305.507 -0.785788 -0.25781 0
M  V30 3385 H 308.053 -1.68111 0.231721 0
M  V30 3386 H 306.825 -3.90772 0.203287 0
M  V30 3387 H 306.448 -3.68342 -1.497 0
M  V30 3388 N 307.445 0.0818655 -1.57387 0
M  V30 3389 C 308.691 0.784074 -1.8703 0
M  V30 3390 C 309.024 1.77729 -0.782689 0
M  V30 3391 O 308.299 1.93384 0.208051 0
M  V30 3392 C 308.582 1.50105 -3.27323 0
M  V30 3393 C 308.435 0.524925 -4.46727 0
M  V30 3394 C 309.754 2.44843 -3.65705 0
M  V30 3395 H 306.873 0.283582 -0.680257 0
M  V30 3396 H 309.515 0.0474352 -1.89941 0
M  V30 3397 H 307.665 2.12897 -3.24972 0
M  V30 3398 H 309.337 -0.0970111 -4.61198 0
M  V30 3399 H 307.58 -0.160606 -4.33503 0
M  V30 3400 H 308.251 1.064 -5.41648 0
M  V30 3401 H 310.727 1.92135 -3.69085 0
M  V30 3402 H 309.603 2.92018 -4.64776 0
M  V30 3403 H 309.864 3.29197 -2.95096 0
M  V30 3404 N 308.923 1.53595 0.353017 0
M  V30 3405 C 310.334 1.61937 0.929153 0
M  V30 3406 C 310.685 0.494686 1.89861 0
M  V30 3407 O 309.81 -0.377017 2.1309 0
M  V30 3408 C 310.405 2.93526 1.69199 0
M  V30 3409 C 308.964 3.04161 2.21727 0
M  V30 3410 C 308.111 2.57322 1.03348 0
M  V30 3411 H 311.062 1.58155 0.131431 0
M  V30 3412 H 311.083 2.82034 2.55416 0
M  V30 3413 H 310.595 3.75362 0.986144 0
M  V30 3414 H 308.696 2.26938 2.95516 0
M  V30 3415 H 308.809 4.09465 2.48748 0
M  V30 3416 H 307.173 2.12499 1.40414 0
M  V30 3417 H 307.956 3.41588 0.342428 0
M  V30 3418 N 310.401 -0.613514 1.45168 0
M  V30 3419 C 311.364 -1.7065 1.53007 0
M  V30 3420 C 312.364 -1.5548 0.410184 0
M  V30 3421 O 313.554 -1.60656 0.673455 0
M  V30 3422 C 310.686 -3.09875 1.42093 0
M  V30 3423 H 311.879 -1.65068 2.50385 0
M  V30 3424 H 309.432 -0.828728 1.32521 0
M  V30 3425 H 310.167 -3.21039 0.458769 0
M  V30 3426 H 309.952 -3.22293 2.23315 0
M  V30 3427 H 311.442 -3.895 1.50598 0
M  V30 3428 N 311.879 -1.3236 -0.855495 0
M  V30 3429 C 313.104 -1.2601 -1.64731 0
M  V30 3430 C 313.529 0.169068 -1.87339 0
M  V30 3431 O 312.887 1.12016 -1.42556 0
M  V30 3432 C 312.935 -2.02417 -2.98429 0
M  V30 3433 O 312.039 -1.3714 -3.8893 0
M  V30 3434 H 311.38 -0.434325 -0.502253 0
M  V30 3435 H 313.91 -1.74661 -1.06558 0
M  V30 3436 H 313.92 -2.12559 -3.48257 0
M  V30 3437 H 312.595 -3.06343 -2.81295 0
M  V30 3438 H 311.172 -1.3554 -3.47395 0
M  V30 3439 N 313.357 1.07166 -1.15556 0
M  V30 3440 C 314.287 2.16403 -0.877046 0
M  V30 3441 C 315.268 1.69217 0.173111 0
M  V30 3442 O 316.453 1.94181 0.027084 0
M  V30 3443 C 313.583 3.45349 -0.367632 0
M  V30 3444 C 312.537 4.05995 -1.35468 0
M  V30 3445 C 311.863 5.30045 -0.704038 0
M  V30 3446 C 313.163 4.45804 -2.72132 0
M  V30 3447 H 314.857 2.39959 -1.79053 0
M  V30 3448 H 312.403 1.15325 -0.862331 0
M  V30 3449 H 314.356 4.21095 -0.160317 0
M  V30 3450 H 313.08 3.21385 0.581326 0
M  V30 3451 H 311.739 3.32296 -1.54839 0
M  V30 3452 H 311.387 5.02373 0.251128 0
M  V30 3453 H 311.087 5.71579 -1.36277 0
M  V30 3454 H 312.611 6.08495 -0.50654 0
M  V30 3455 H 314.025 5.12671 -2.56595 0
M  V30 3456 H 312.422 4.98296 -3.34397 0
M  V30 3457 H 313.492 3.57083 -3.28054 0
M  V30 3458 N 314.835 0.952656 1.25548 0
M  V30 3459 C 316.081 0.607272 1.93494 0
M  V30 3460 C 316.414 -0.853245 1.74452 0
M  V30 3461 O 315.689 -1.61194 1.08843 0
M  V30 3462 C 315.972 0.96435 3.46947 0
M  V30 3463 C 315.825 2.48045 3.75225 0
M  V30 3464 C 317.144 0.487987 4.37386 0
M  V30 3465 H 314.263 0.222096 0.702739 0
M  V30 3466 H 316.905 1.18895 1.48203 0
M  V30 3467 H 315.055 0.469361 3.85654 0
M  V30 3468 H 316.727 3.04905 3.46166 0
M  V30 3469 H 314.97 2.919 3.209 0
M  V30 3470 H 315.641 2.6808 4.82532 0
M  V30 3471 H 318.117 0.912558 4.0597 0
M  V30 3472 H 316.993 0.766547 5.43521 0
M  V30 3473 H 317.254 -0.612063 4.37843 0
M  V30 3474 N 316.313 -1.40141 0.720998 0
M  V30 3475 C 317.261 -2.3252 0.0608547 0
M  V30 3476 C 318.255 -1.52326 -0.741152 0
M  V30 3477 O 319.461 -1.68089 -0.643911 0
M  V30 3478 H 315.836 -0.751999 0.000876664 0
M  V30 3479 H 317.807 -2.8584 0.856614 0
M  V30 3480 C 316.556 -3.37331 -0.842809 0
M  V30 3481 H 315.879 -3.99108 -0.235084 0
M  V30 3482 H 317.319 -4.04452 -1.27257 0
M  V30 3483 C 315.778 -2.73246 -1.97074 0
M  V30 3484 O 316.308 -2.59998 -3.06209 0
M  V30 3485 N 314.514 -2.31547 -1.75597 0
M  V30 3486 H 314.061 -2.42522 -0.868368 0
M  V30 3487 H 314.019 -1.89007 -2.51244 0
M  V30 3488 N 317.792 -0.46758 -1.50504 0
M  V30 3489 C 318.739 0.328413 -2.28452 0
M  V30 3490 C 319.709 0.990313 -1.33349 0
M  V30 3491 O 320.894 1.00343 -1.62284 0
M  V30 3492 C 318.034 1.40648 -3.15138 0
M  V30 3493 C 317.147 0.759709 -4.25267 0
M  V30 3494 C 316.282 1.81537 -4.99217 0
M  V30 3495 C 315.321 1.14866 -6.01226 0
M  V30 3496 N 314.458 2.14702 -6.68467 0
M  V30 3497 H 319.298 -0.342603 -2.96024 0
M  V30 3498 H 316.835 -0.180801 -1.45985 0
M  V30 3499 H 318.793 2.04315 -3.63746 0
M  V30 3500 H 317.423 2.04671 -2.49619 0
M  V30 3501 H 316.475 0.0105671 -3.80399 0
M  V30 3502 H 317.787 0.233243 -4.98254 0
M  V30 3503 H 316.941 2.52793 -5.51526 0
M  V30 3504 H 315.68 2.37564 -4.25928 0
M  V30 3505 H 314.685 0.42171 -5.4818 0
M  V30 3506 H 315.91 0.595334 -6.76485 0
M  V30 3507 H 313.856 2.69752 -5.97972 0
M  V30 3508 H 313.773 1.6703 -7.37317 0
M  V30 3509 H 315.041 2.85348 -7.25394 0
M  V30 3510 N 319.27 1.56325 -0.20005 0
M  V30 3511 C 320.686 1.58839 0.155716 0
M  V30 3512 C 320.886 1.21636 1.60645 0
M  V30 3513 O 319.942 0.941437 2.34293 0
M  V30 3514 C 321.255 3.0032 -0.151124 0
M  V30 3515 C 322.803 3.12866 -0.0916284 0
M  V30 3516 C 323.278 4.56488 -0.371845 0
M  V30 3517 N 324.769 4.62089 -0.320641 0
M  V30 3518 C 325.504 5.71116 -0.511243 0
M  V30 3519 N 325 6.88592 -0.762461 0
M  V30 3520 N 326.793 5.60335 -0.445157 0
M  V30 3521 H 318.944 1.78788 -1.14668 0
M  V30 3522 H 321.207 0.829996 -0.458051 0
M  V30 3523 H 320.913 3.32117 -1.15721 0
M  V30 3524 H 320.787 3.73257 0.543986 0
M  V30 3525 H 323.174 2.80878 0.905065 0
M  V30 3526 H 323.255 2.42304 -0.81989 0
M  V30 3527 H 322.899 4.89189 -1.36588 0
M  V30 3528 H 322.829 5.25246 0.377362 0
M  V30 3529 H 325.32 3.77665 -0.13329 0
M  V30 3530 H 325.633 7.67581 -0.896576 0
M  V30 3531 H 323.978 6.90387 -0.799412 0
M  V30 3532 H 327.169 4.67436 -0.249278 0
M  V30 3533 H 327.342 6.45243 -0.597116 0
M  V30 3534 N 320.748 -0.0735177 1.57428 0
M  V30 3535 C 321.973 -0.789787 1.91774 0
M  V30 3536 C 322.398 -1.70413 0.796306 0
M  V30 3537 O 321.756 -1.79555 -0.250961 0
M  V30 3538 C 321.804 -1.5609 3.25067 0
M  V30 3539 O 320.908 -2.67144 3.14178 0
M  V30 3540 H 320.249 -0.215582 0.628029 0
M  V30 3541 H 322.779 -0.0422781 2.04556 0
M  V30 3542 H 322.789 -1.94052 3.58898 0
M  V30 3543 H 321.464 -0.890015 4.06265 0
M  V30 3544 H 320.041 -2.32052 2.91901 0
M  V30 3545 N 322.226 -1.5378 -0.344866 0
M  V30 3546 C 323.642 -1.44015 -0.687888 0
M  V30 3547 C 323.842 -0.595834 -1.92489 0
M  V30 3548 O 322.898 -0.0863064 -2.52352 0
M  V30 3549 C 324.211 -2.87481 -0.881758 0
M  V30 3550 C 325.759 -2.97247 -0.980459 0
M  V30 3551 C 326.234 -4.41819 -1.20665 0
M  V30 3552 N 327.725 -4.45339 -1.27389 0
M  V30 3553 C 328.46 -5.54333 -1.46639 0
M  V30 3554 N 327.956 -6.73335 -1.63071 0
M  V30 3555 N 329.749 -5.41944 -1.49176 0
M  V30 3556 H 321.9 -2.07169 0.468475 0
M  V30 3557 H 324.163 -0.93643 0.147655 0
M  V30 3558 H 323.869 -3.51672 -0.0443444 0
M  V30 3559 H 323.743 -3.32352 -1.78388 0
M  V30 3560 H 326.13 -2.33197 -1.8084 0
M  V30 3561 H 326.211 -2.5574 -0.0552713 0
M  V30 3562 H 325.855 -5.06449 -0.383652 0
M  V30 3563 H 325.785 -4.80917 -2.14539 0
M  V30 3564 H 328.276 -3.59585 -1.1622 0
M  V30 3565 H 328.589 -7.52165 -1.77391 0
M  V30 3566 H 326.934 -6.76282 -1.60209 0
M  V30 3567 H 330.125 -4.47932 -1.3592 0
M  V30 3568 H 330.298 -6.26946 -1.63837 0
M  V30 3569 N 323.704 0.605807 -1.45491 0
M  V30 3570 C 324.953 1.36086 -1.48874 0
M  V30 3571 C 325.266 1.95131 -0.135333 0
M  V30 3572 O 326.472 2.7146 -0.0468144 0
M  V30 3573 C 324.928 2.46518 -2.62215 0
M  V30 3574 C 324.536 1.93877 -4.03876 0
M  V30 3575 C 326.28 3.23512 -2.74846 0
M  V30 3576 C 324.187 3.01801 -5.08596 0
M  V30 3577 H 323.117 0.511497 -0.553974 0
M  V30 3578 H 325.768 0.649089 -1.71636 0
M  V30 3579 H 324.15 3.20388 -2.32739 0
M  V30 3580 H 325.324 1.26704 -4.43038 0
M  V30 3581 H 323.639 1.29622 -3.95711 0
M  V30 3582 H 326.236 4.04013 -3.50253 0
M  V30 3583 H 326.579 3.74631 -1.81542 0
M  V30 3584 H 327.112 2.56742 -3.03856 0
M  V30 3585 H 323.851 2.55597 -6.03614 0
M  V30 3586 H 323.371 3.67535 -4.74002 0
M  V30 3587 H 325.05 3.66152 -5.33424 0
M  V30 3588 N 325.182 1.32811 0.848464 0
M  V30 3589 C 326.092 1.24278 1.98978 0
M  V30 3590 C 327.108 0.155176 1.73307 0
M  V30 3591 O 328.284 0.376999 1.9784 0
M  V30 3592 C 325.349 0.972444 3.32783 0
M  V30 3593 C 324.41 2.14911 3.71634 0
M  V30 3594 C 323.643 1.89157 4.99054 0
M  V30 3595 O 323.866 0.837165 5.64223 0
M  V30 3596 O 322.8 2.75433 5.35183 0
M  V30 3597 H 326.626 2.20238 2.09115 0
M  V30 3598 H 324.211 1.12762 0.980052 0
M  V30 3599 H 326.093 0.838432 4.12975 0
M  V30 3600 H 324.768 0.043051 3.23671 0
M  V30 3601 H 323.675 2.33862 2.91992 0
M  V30 3602 H 325.008 3.06151 3.85399 0
M  V30 3603 N 326.66 -1.06551 1.16123 0
M  V30 3604 C 327.907 -1.79302 0.941126 0
M  V30 3605 C 328.235 -1.87105 -0.531235 0
M  V30 3606 O 327.49 -1.35692 -1.41018 0
M  V30 3607 C 327.789 -3.23911 1.51052 0
M  V30 3608 C 327.455 -3.36193 3.00475 0
M  V30 3609 C 326.117 -3.39252 3.41265 0
M  V30 3610 C 328.469 -3.38326 3.96465 0
M  V30 3611 C 325.797 -3.42057 4.76669 0
M  V30 3612 C 328.149 -3.4267 5.31752 0
M  V30 3613 C 326.813 -3.4401 5.72026 0
M  V30 3614 H 326.083 -0.656111 0.344382 0
M  V30 3615 H 328.73 -1.25325 1.44796 0
M  V30 3616 H 327.035 -3.80723 0.925063 0
M  V30 3617 H 328.732 -3.78793 1.31593 0
M  V30 3618 H 325.322 -3.34516 2.6795 0
M  V30 3619 H 329.506 -3.35176 3.6602 0
M  V30 3620 H 324.762 -3.41398 5.07206 0
M  V30 3621 H 328.936 -3.43268 6.05921 0
M  V30 3622 H 326.563 -3.45937 6.76928 0
M  V30 3623 N 328.138 -0.959301 -1.25041 0
M  V30 3624 C 329.07 -0.440543 -2.24926 0
M  V30 3625 C 330.083 0.446131 -1.56568 0
M  V30 3626 O 331.272 0.253657 -1.76689 0
M  V30 3627 C 328.372 0.38412 -3.36716 0
M  V30 3628 C 327.545 -0.490658 -4.34639 0
M  V30 3629 C 326.604 0.276587 -5.25473 0
M  V30 3630 O 325.63 -0.326614 -5.68262 0
M  V30 3631 N 326.832 1.56844 -5.5891 0
M  V30 3632 H 329.597 -1.29931 -2.70071 0
M  V30 3633 H 327.158 -0.830181 -1.38995 0
M  V30 3634 H 329.15 0.905228 -3.94446 0
M  V30 3635 H 327.72 1.14377 -2.90924 0
M  V30 3636 H 326.94 -1.19282 -3.7572 0
M  V30 3637 H 328.228 -1.08756 -4.97041 0
M  V30 3638 H 327.626 2.08036 -5.26059 0
M  V30 3639 H 326.183 2.03541 -6.19205 0
M  V30 3640 N 329.616 1.39756 -0.72842 0
M  V30 3641 C 330.862 2.00942 -0.273892 0
M  V30 3642 C 331.195 1.57656 1.13394 0
M  V30 3643 O 330.47 0.802434 1.77176 0
M  V30 3644 C 330.753 3.58211 -0.368346 0
M  V30 3645 C 330.606 4.11534 -1.81548 0
M  V30 3646 C 331.925 4.39372 0.253054 0
M  V30 3647 H 329.044 0.730047 -0.100996 0
M  V30 3648 H 331.686 1.66056 -0.923337 0
M  V30 3649 H 329.836 3.88061 0.184588 0
M  V30 3650 H 331.508 3.92431 -2.42478 0
M  V30 3651 H 329.751 3.65341 -2.33898 0
M  V30 3652 H 330.422 5.20682 -1.83288 0
M  V30 3653 H 332.898 4.15527 -0.218224 0
M  V30 3654 H 331.774 5.48677 0.156585 0
M  V30 3655 H 332.035 4.21358 1.33826 0
M  V30 3656 N 331.094 0.475555 1.50254 0
M  V30 3657 C 332.51 0.12997 1.5907 0
M  V30 3658 C 332.71 -1.36385 1.48328 0
M  V30 3659 O 331.766 -2.13754 1.34407 0
M  V30 3660 C 333.079 0.684139 2.92814 0
M  V30 3661 C 334.627 0.647965 3.0622 0
M  V30 3662 C 335.102 1.17975 4.42545 0
M  V30 3663 N 336.593 1.13936 4.48969 0
M  V30 3664 C 337.328 1.52129 5.52851 0
M  V30 3665 N 336.824 1.97793 6.63965 0
M  V30 3666 N 338.617 1.43704 5.4342 0
M  V30 3667 H 330.768 1.44706 1.55479 0
M  V30 3668 H 333.031 0.598691 0.735033 0
M  V30 3669 H 332.737 1.73079 3.06164 0
M  V30 3670 H 332.611 0.130204 3.76975 0
M  V30 3671 H 334.998 -0.38979 2.92514 0
M  V30 3672 H 335.079 1.23876 2.23805 0
M  V30 3673 H 334.723 2.21616 4.57 0
M  V30 3674 H 334.653 0.565138 5.23559 0
M  V30 3675 H 337.144 0.804488 3.69238 0
M  V30 3676 H 337.457 2.25072 7.39299 0
M  V30 3677 H 335.802 2.01749 6.65073 0
M  V30 3678 H 338.993 1.07867 4.55502 0
M  V30 3679 H 339.166 1.73794 6.24259 0
M  V30 3680 N 332.573 -1.56217 0.208337 0
M  V30 3681 C 333.822 -1.97124 -0.427204 0
M  V30 3682 C 334.135 -1.09859 -1.61835 0
M  V30 3683 O 335.341 -1.40606 -2.32255 0
M  V30 3684 C 333.797 -3.50633 -0.811442 0
M  V30 3685 C 333.405 -4.46582 0.35615 0
M  V30 3686 C 335.149 -4.00282 -1.41332 0
M  V30 3687 C 333.056 -5.91379 -0.0497852 0
M  V30 3688 H 331.986 -0.736086 -0.163381 0
M  V30 3689 H 334.637 -1.8099 0.302456 0
M  V30 3690 H 333.019 -3.62319 -1.59815 0
M  V30 3691 H 334.193 -4.46636 1.1337 0
M  V30 3692 H 332.508 -4.07202 0.870396 0
M  V30 3693 H 335.105 -5.0595 -1.72972 0
M  V30 3694 H 335.448 -3.45359 -2.32449 0
M  V30 3695 H 335.981 -3.91764 -0.690323 0
M  V30 3696 H 332.72 -6.50255 0.827529 0
M  V30 3697 H 332.24 -5.94549 -0.791926 0
M  V30 3698 H 333.919 -6.45209 -0.481042 0
M  V30 3699 N 334.051 0.0651679 -1.57465 0
M  V30 3700 C 335.467 0.420105 -1.53972 0
M  V30 3701 C 335.667 1.78782 -0.929474 0
M  V30 3702 O 334.723 2.46771 -0.534839 0
M  V30 3703 C 336.036 0.355084 -2.98596 0
M  V30 3704 C 337.584 0.434792 -3.09965 0
M  V30 3705 C 338.059 0.399609 -4.56253 0
M  V30 3706 N 339.55 0.459488 -4.60915 0
M  V30 3707 C 340.285 0.454584 -5.71595 0
M  V30 3708 N 339.781 0.404102 -6.9162 0
M  V30 3709 N 341.574 0.501635 -5.59857 0
M  V30 3710 H 333.725 -0.830328 -1.95498 0
M  V30 3711 H 335.988 -0.312244 -0.895102 0
M  V30 3712 H 335.694 -0.583357 -3.46828 0
M  V30 3713 H 335.568 1.16275 -3.58831 0
M  V30 3714 H 337.955 1.36366 -2.61703 0
M  V30 3715 H 338.036 -0.40157 -2.52628 0
M  V30 3716 H 337.68 -0.525436 -5.05175 0
M  V30 3717 H 337.61 1.25359 -5.11461 0
M  V30 3718 H 340.101 0.502482 -3.74544 0
M  V30 3719 H 340.414 0.404468 -7.71741 0
M  V30 3720 H 338.759 0.37069 -6.94011 0
M  V30 3721 H 341.95 0.538812 -4.64989 0
M  V30 3722 H 342.123 0.494345 -6.46112 0
M  V30 3723 N 335.529 1.53961 0.336706 0
M  V30 3724 C 336.945 1.44378 0.680241 0
M  V30 3725 C 337.145 0.606034 1.9217 0
M  V30 3726 O 336.201 0.099688 2.52303 0
M  V30 3727 C 337.514 2.87945 0.8665 0
M  V30 3728 C 339.062 2.97763 0.964682 0
M  V30 3729 C 339.537 4.42453 1.18321 0
M  V30 3730 N 341.028 4.46008 1.25025 0
M  V30 3731 C 341.763 5.55102 1.43697 0
M  V30 3732 N 341.259 6.7419 1.59498 0
M  V30 3733 N 343.052 5.42727 1.463 0
M  V30 3734 H 335.203 2.06918 -0.479455 0
M  V30 3735 H 337.466 0.935634 -0.152619 0
M  V30 3736 H 337.172 3.51691 0.0256937 0
M  V30 3737 H 337.046 3.33293 1.76623 0
M  V30 3738 H 339.433 2.34153 1.796 0
M  V30 3739 H 339.514 2.55766 0.041708 0
M  V30 3740 H 339.158 5.06645 0.356788 0
M  V30 3741 H 339.088 4.82048 2.11985 0
M  V30 3742 H 341.579 3.60196 1.14312 0
M  V30 3743 H 341.892 7.53095 1.734 0
M  V30 3744 H 340.237 6.77123 1.56621 0
M  V30 3745 H 343.428 4.48647 1.33543 0
M  V30 3746 H 343.601 6.27806 1.6051 0
M  V30 3747 N 337.007 -0.598083 1.45811 0
M  V30 3748 C 337.954 -1.7082 1.55207 0
M  V30 3749 C 338.924 -1.61278 0.39732 0
M  V30 3750 O 340.109 -1.80717 0.612038 0
M  V30 3751 C 337.249 -3.09144 1.53376 0
M  V30 3752 C 336.362 -3.29423 2.79472 0
M  V30 3753 C 335.497 -4.57907 2.69248 0
M  V30 3754 C 334.536 -4.71476 3.90354 0
M  V30 3755 N 333.673 -5.9127 3.78608 0
M  V30 3756 H 338.513 -1.62125 2.50039 0
M  V30 3757 H 336.05 -0.790389 1.24062 0
M  V30 3758 H 338.008 -3.89186 1.50301 0
M  V30 3759 H 336.638 -3.16773 0.620876 0
M  V30 3760 H 335.69 -2.43091 2.92594 0
M  V30 3761 H 337.002 -3.3532 3.69272 0
M  V30 3762 H 336.156 -5.46157 2.64192 0
M  V30 3763 H 334.895 -4.54423 1.77063 0
M  V30 3764 H 333.9 -3.81648 3.95759 0
M  V30 3765 H 335.125 -4.76751 4.83617 0
M  V30 3766 H 333.071 -5.88813 2.89199 0
M  V30 3767 H 332.988 -5.98369 4.6205 0
M  V30 3768 H 334.256 -6.81992 3.77501 0
M  V30 3769 N 338.485 -1.33259 -0.841409 0
M  V30 3770 C 339.713 -1.27605 -1.62864 0
M  V30 3771 C 340.128 0.153507 -1.88175 0
M  V30 3772 O 339.485 1.09485 -1.46011 0
M  V30 3773 C 339.536 -2.04596 -2.98031 0
M  V30 3774 O 339.257 -3.41975 -2.73834 0
M  V30 3775 C 340.758 -2.06122 -3.92465 0
M  V30 3776 H 337.978 -0.439718 -0.506842 0
M  V30 3777 H 340.522 -1.75591 -1.04824 0
M  V30 3778 H 338.677 -1.60299 -3.5268 0
M  V30 3779 H 339.091 -3.81549 -3.59889 0
M  V30 3780 H 340.565 -2.64451 -4.84531 0
M  V30 3781 H 341.042 -1.05083 -4.26444 0
M  V30 3782 H 341.648 -2.50427 -3.43753 0
M  V30 3783 N 339.963 1.05934 -1.16686 0
M  V30 3784 C 340.893 2.1546 -0.899949 0
M  V30 3785 C 341.874 1.69391 0.155154 0
M  V30 3786 O 343.059 1.94199 0.00648693 0
M  V30 3787 C 340.189 3.44939 -0.404241 0
M  V30 3788 C 339.143 4.04536 -1.39767 0
M  V30 3789 C 338.469 5.29268 -0.760216 0
M  V30 3790 C 339.769 4.42893 -2.76845 0
M  V30 3791 H 341.463 2.38046 -1.81588 0
M  V30 3792 H 339.009 1.14404 -0.874514 0
M  V30 3793 H 340.962 4.20901 -0.204971 0
M  V30 3794 H 339.686 3.21983 0.547206 0
M  V30 3795 H 338.345 3.30635 -1.58355 0
M  V30 3796 H 337.993 5.02611 0.197831 0
M  V30 3797 H 337.693 5.70101 -1.42332 0
M  V30 3798 H 339.217 6.07924 -0.57105 0
M  V30 3799 H 340.631 5.09921 -2.62019 0
M  V30 3800 H 339.028 4.94721 -3.39663 0
M  V30 3801 H 340.098 3.53584 -3.31823 0
M  V30 3802 N 341.441 0.965919 1.2453 0
M  V30 3803 C 342.688 0.626831 1.92554 0
M  V30 3804 C 343.016 -0.837739 1.75534 0
M  V30 3805 O 342.271 -1.61793 1.10098 0
M  V30 3806 C 342.57 0.945428 3.44669 0
M  V30 3807 C 342.236 2.39785 3.81856 0
M  V30 3808 C 340.898 2.79483 3.91718 0
M  V30 3809 C 343.25 3.34055 4.00071 0
M  V30 3810 C 340.578 4.12496 4.1721 0
M  V30 3811 C 342.93 4.66694 4.27059 0
M  V30 3812 C 341.594 5.06172 4.3514 0
M  V30 3813 H 340.864 0.229374 0.704605 0
M  V30 3814 H 343.511 1.21707 1.4785 0
M  V30 3815 H 341.816 0.272926 3.90848 0
M  V30 3816 H 343.513 0.661484 3.95507 0
M  V30 3817 H 340.103 2.08003 3.74743 0
M  V30 3818 H 344.287 3.04571 3.91855 0
M  V30 3819 H 339.543 4.42709 4.21685 0
M  V30 3820 H 343.717 5.3971 4.40097 0
M  V30 3821 H 341.344 6.09262 4.54646 0
M  V30 3822 N 342.919 -1.39368 0.735821 0
M  V30 3823 C 344.149 -2.04498 0.293967 0
M  V30 3824 C 344.557 -1.55593 -1.07645 0
M  V30 3825 O 343.9 -0.716324 -1.69158 0
M  V30 3826 C 343.962 -3.58836 0.218342 0
M  V30 3827 C 343.626 -4.30721 1.52736 0
M  V30 3828 C 344.623 -4.57305 2.47322 0
M  V30 3829 C 342.308 -4.69251 1.79189 0
M  V30 3830 C 344.302 -5.21429 3.66593 0
M  V30 3831 C 341.989 -5.33104 2.98737 0
M  V30 3832 C 342.987 -5.59125 3.9226 0
M  V30 3833 O 342.675 -6.21653 5.09708 0
M  V30 3834 H 342.407 -0.664118 0.126189 0
M  V30 3835 H 344.961 -1.79385 1.00051 0
M  V30 3836 H 343.191 -3.8285 -0.544314 0
M  V30 3837 H 344.88 -4.05447 -0.191626 0
M  V30 3838 H 345.646 -4.27983 2.28156 0
M  V30 3839 H 341.525 -4.48354 1.07239 0
M  V30 3840 H 345.069 -5.41656 4.39607 0
M  V30 3841 H 340.966 -5.61846 3.17803 0
M  V30 3842 H 341.734 -6.40146 5.10054 0
M  V30 3843 N 344.397 -0.483516 -1.5 0
M  V30 3844 C 345.625 0.0644831 -2.06799 0
M  V30 3845 C 346.04 1.32399 -1.34596 0
M  V30 3846 O 345.397 1.77626 -0.418946 0
M  V30 3847 C 345.448 0.339927 -3.59898 0
M  V30 3848 O 345.169 -0.869635 -4.29382 0
M  V30 3849 C 346.67 0.933515 -4.33359 0
M  V30 3850 H 343.89 -0.0126333 -0.670881 0
M  V30 3851 H 346.434 -0.675864 -1.93009 0
M  V30 3852 H 344.589 1.03022 -3.7345 0
M  V30 3853 H 345.003 -0.62179 -5.20801 0
M  V30 3854 H 346.477 1.07593 -5.41413 0
M  V30 3855 H 346.954 1.92685 -3.94676 0
M  V30 3856 H 347.56 0.281221 -4.24369 0
M  V30 3857 N 345.875 1.56104 -0.216619 0
M  V30 3858 C 347.121 1.98466 0.417033 0
M  V30 3859 C 347.454 1.10403 1.59765 0
M  V30 3860 O 346.729 0.160632 1.93836 0
M  V30 3861 C 347.012 3.49769 0.85637 0
M  V30 3862 C 346.865 4.48606 -0.327546 0
M  V30 3863 C 348.184 4.05339 1.7143 0
M  V30 3864 H 345.303 0.721551 0.150112 0
M  V30 3865 H 347.945 1.87423 -0.311864 0
M  V30 3866 H 346.095 3.5931 1.47745 0
M  V30 3867 H 347.767 4.5108 -0.965618 0
M  V30 3868 H 346.01 4.22682 -0.975805 0
M  V30 3869 H 346.681 5.51995 0.0227149 0
M  V30 3870 H 349.157 3.98712 1.19031 0
M  V30 3871 H 348.033 5.11533 1.99061 0
M  V30 3872 H 348.294 3.51918 2.67593 0
M  V30 3873 N 347.353 -0.0568162 1.57498 0
M  V30 3874 C 348.599 -0.75422 1.88253 0
M  V30 3875 C 348.932 -1.76461 0.810865 0
M  V30 3876 O 348.207 -1.93691 -0.177259 0
M  V30 3877 C 348.49 -1.44878 3.2967 0
M  V30 3878 C 348.343 -0.453789 4.47505 0
M  V30 3879 C 349.662 -2.38994 3.69554 0
M  V30 3880 H 346.781 -0.272724 0.684683 0
M  V30 3881 H 349.423 -0.0172113 1.89992 0
M  V30 3882 H 347.573 -2.077 3.28318 0
M  V30 3883 H 349.245 0.170371 4.60985 0
M  V30 3884 H 347.488 0.229552 4.33192 0
M  V30 3885 H 348.159 -0.977699 5.43273 0
M  V30 3886 H 350.635 -1.86239 3.72095 0
M  V30 3887 H 349.511 -2.84587 4.69363 0
M  V30 3888 H 349.772 -3.24461 3.00296 0
M  V30 3889 N 348.832 -1.54138 -0.328536 0
M  V30 3890 C 349.762 -1.86167 -1.40939 0
M  V30 3891 C 350.743 -0.718044 -1.54202 0
M  V30 3892 O 351.928 -0.971328 -1.68163 0
M  V30 3893 C 349.058 -2.08461 -2.77779 0
M  V30 3894 C 348.012 -3.24299 -2.7931 0
M  V30 3895 C 347.338 -3.31955 -4.19178 0
M  V30 3896 C 348.638 -4.62065 -2.43502 0
M  V30 3897 H 350.332 -2.76689 -1.14383 0
M  V30 3898 H 347.878 -1.33132 -0.548806 0
M  V30 3899 H 349.831 -2.29453 -3.53454 0
M  V30 3900 H 348.555 -1.14684 -3.05802 0
M  V30 3901 H 347.214 -3.03187 -2.0609 0
M  V30 3902 H 346.862 -2.35745 -4.44335 0
M  V30 3903 H 346.562 -4.09805 -4.2111 0
M  V30 3904 H 348.086 -3.55175 -4.96672 0
M  V30 3905 H 349.5 -4.8297 -3.08889 0
M  V30 3906 H 347.897 -5.42429 -2.56693 0
M  V30 3907 H 348.967 -4.64652 -1.38659 0
M  V30 3908 N 350.31 0.590341 -1.46126 0
M  V30 3909 C 351.559 1.34499 -1.50309 0
M  V30 3910 C 351.872 1.94977 -0.156021 0
M  V30 3911 O 353.078 2.71395 -0.0756037 0
M  V30 3912 C 351.534 2.43723 -2.64815 0
M  V30 3913 C 351.142 1.89582 -4.0591 0
M  V30 3914 C 352.886 3.20579 -2.78262 0
M  V30 3915 C 350.793 2.9639 -5.11769 0
M  V30 3916 H 349.723 0.505593 -0.559368 0
M  V30 3917 H 352.374 0.630848 -1.72315 0
M  V30 3918 H 350.756 3.17902 -2.36124 0
M  V30 3919 H 351.93 1.21997 -4.44357 0
M  V30 3920 H 350.245 1.25418 -3.97063 0
M  V30 3921 H 352.842 4.00276 -3.54519 0
M  V30 3922 H 353.185 3.72684 -1.85505 0
M  V30 3923 H 353.718 2.53505 -3.06562 0
M  V30 3924 H 350.457 2.49181 -6.06291 0
M  V30 3925 H 349.977 3.62487 -4.77873 0
M  V30 3926 H 351.656 3.60474 -5.37278 0
M  V30 3927 N 351.788 1.33704 0.83433 0
M  V30 3928 C 353.037 1.24763 1.58484 0
M  V30 3929 C 353.35 -0.183775 1.94735 0
M  V30 3930 O 354.556 -0.395234 2.68608 0
M  V30 3931 C 353.012 2.18638 2.85876 0
M  V30 3932 C 352.62 3.66974 2.56971 0
M  V30 3933 C 354.364 2.18581 3.63899 0
M  V30 3934 C 352.271 4.5275 3.80488 0
M  V30 3935 H 351.201 0.463425 0.594772 0
M  V30 3936 H 353.852 1.58797 0.919551 0
M  V30 3937 H 352.234 1.77542 3.5397 0
M  V30 3938 H 353.408 4.16538 1.9706 0
M  V30 3939 H 351.723 3.69366 1.92244 0
M  V30 3940 H 354.32 2.79894 4.55591 0
M  V30 3941 H 354.663 1.18207 3.99165 0
M  V30 3942 H 355.196 2.58062 3.02735 0
M  V30 3943 H 351.935 5.54017 3.5035 0
M  V30 3944 H 351.455 4.07927 4.39722 0
M  V30 3945 H 353.134 4.66784 4.4802 0
M  V30 3946 N 353.266 -1.05314 1.17247 0
M  V30 3947 C 354.677 -1.59753 0.96623 0
M  V30 3948 C 355.028 -1.9005 -0.487378 0
M  V30 3949 O 354.153 -1.68126 -1.36245 0
M  V30 3950 C 354.748 -2.90249 1.74759 0
M  V30 3951 C 353.307 -3.41352 1.58606 0
M  V30 3952 C 352.454 -2.15103 1.75002 0
M  V30 3953 H 355.405 -0.881406 1.31973 0
M  V30 3954 H 355.426 -3.60097 1.22925 0
M  V30 3955 H 354.938 -2.68166 2.8055 0
M  V30 3956 H 353.039 -3.68474 0.552985 0
M  V30 3957 H 353.152 -4.16019 2.37624 0
M  V30 3958 H 351.516 -2.25804 1.17833 0
M  V30 3959 H 352.299 -1.95491 2.82202 0
M  V30 3960 N 354.744 -0.972509 -1.24016 0
M  V30 3961 C 355.972 -0.654803 -1.96265 0
M  V30 3962 C 356.387 0.776708 -1.72083 0
M  V30 3963 O 355.744 1.52171 -1.00748 0
M  V30 3964 C 355.795 -0.92592 -3.49441 0
M  V30 3965 O 355.516 -2.30116 -3.72798 0
M  V30 3966 C 357.017 -0.623068 -4.38899 0
M  V30 3967 H 354.237 -0.243907 -0.6251 0
M  V30 3968 H 356.781 -1.30175 -1.57717 0
M  V30 3969 H 354.936 -0.325108 -3.86033 0
M  V30 3970 H 355.35 -2.38483 -4.67147 0
M  V30 3971 H 356.824 -0.863189 -5.45209 0
M  V30 3972 H 357.301 0.442754 -4.36963 0
M  V30 3973 H 357.907 -1.204 -4.07902 0
M  V30 3974 N 356.222 1.38976 -0.743202 0
M  V30 3975 C 357.468 2.0064 -0.295189 0
M  V30 3976 C 357.801 1.5885 1.11716 0
M  V30 3977 O 357.076 0.821181 1.76315 0
M  V30 3978 C 357.359 3.578 -0.406318 0
M  V30 3979 C 357.212 4.09586 -1.85903 0
M  V30 3980 C 358.531 4.39616 0.206439 0
M  V30 3981 H 355.65 0.728935 -0.108733 0
M  V30 3982 H 358.292 1.65067 -0.940897 0
M  V30 3983 H 356.442 3.88235 0.143419 0
M  V30 3984 H 358.114 3.89837 -2.46627 0
M  V30 3985 H 356.357 3.6284 -2.3776 0
M  V30 3986 H 357.028 5.18708 -1.888 0
M  V30 3987 H 359.504 4.15273 -0.262283 0
M  V30 3988 H 358.38 5.48812 0.0983819 0
M  V30 3989 H 358.641 4.22754 1.2935 0
M  V30 3990 N 357.7 0.491464 1.49741 0
M  V30 3991 C 358.63 -0.28154 2.31796 0
M  V30 3992 C 359.611 -0.971473 1.3963 0
M  V30 3993 O 360.796 -0.964719 1.68543 0
M  V30 3994 C 357.926 -1.35203 3.19902 0
M  V30 3995 C 356.88 -0.782529 4.20786 0
M  V30 3996 C 356.206 -1.95283 4.97764 0
M  V30 3997 C 357.506 0.21999 5.21837 0
M  V30 3998 H 359.2 0.403355 2.96671 0
M  V30 3999 H 356.746 0.195425 1.42668 0
M  V30 4000 H 358.699 -1.90045 3.76113 0
M  V30 4001 H 357.423 -2.06598 2.52953 0
M  V30 4002 H 356.082 -0.255928 3.65706 0
M  V30 4003 H 355.73 -2.65423 4.2727 0
M  V30 4004 H 355.43 -1.57789 5.66018 0
M  V30 4005 H 356.954 -2.50577 5.56816 0
M  V30 4006 H 358.368 -0.23996 5.72798 0
M  V30 4007 H 356.765 0.51026 5.97927 0
M  V30 4008 H 357.835 1.13911 4.7133 0
M  V30 4009 N 359.178 -1.55987 0.224894 0
M  V30 4010 C 360.111 -2.16413 -0.723929 0
M  V30 4011 C 361.089 -1.10952 -1.18863 0
M  V30 4012 O 362.273 -1.39225 -1.27077 0
M  V30 4013 C 359.4 -2.74711 -1.98121 0
M  V30 4014 C 358.446 -3.9303 -1.6562 0
M  V30 4015 S 359.279 -5.29817 -0.778058 0
M  V30 4016 C 360.435 -5.91555 -2.04483 0
M  V30 4017 H 360.668 -2.96555 -0.210347 0
M  V30 4018 H 358.201 -1.54397 0.00955457 0
M  V30 4019 H 360.159 -3.08938 -2.70311 0
M  V30 4020 H 358.82 -1.94555 -2.46591 0
M  V30 4021 H 358.013 -4.32334 -2.59043 0
M  V30 4022 H 357.615 -3.59966 -1.01491 0
M  V30 4023 H 359.907 -6.07732 -2.99446 0
M  V30 4024 H 360.85 -6.87498 -1.69563 0
M  V30 4025 H 361.258 -5.20419 -2.18688 0
M  V30 4026 N 360.656 0.0484629 -1.57525 0
M  V30 4027 C 361.619 1.03956 -2.04269 0
M  V30 4028 C 362.619 1.30211 -0.943496 0
M  V30 4029 O 363.809 1.25539 -1.20771 0
M  V30 4030 C 360.941 2.37742 -2.44319 0
M  V30 4031 H 362.134 0.636182 -2.93075 0
M  V30 4032 H 359.687 0.294811 -1.53494 0
M  V30 4033 H 360.422 2.82866 -1.5861 0
M  V30 4034 H 360.207 2.20021 -3.24551 0
M  V30 4035 H 361.697 3.08936 -2.80978 0
M  V30 4036 N 362.134 1.5431 0.320358 0
M  V30 4037 C 363.381 1.72668 1.05792 0
M  V30 4038 C 363.709 0.502084 1.87908 0
M  V30 4039 O 362.964 -0.516149 1.88771 0
M  V30 4040 C 363.263 2.95639 2.00828 0
M  V30 4041 C 362.929 4.30265 1.34843 0
M  V30 4042 C 361.591 4.66865 1.16578 0
M  V30 4043 C 363.943 5.13801 0.875095 0
M  V30 4044 C 361.271 5.84597 0.496336 0
M  V30 4045 C 363.623 6.32219 0.219463 0
M  V30 4046 C 362.287 6.67495 0.0246915 0
M  V30 4047 H 361.557 0.631837 0.387121 0
M  V30 4048 H 364.204 1.88552 0.334735 0
M  V30 4049 H 362.509 2.74456 2.79609 0
M  V30 4050 H 364.206 3.07038 2.57932 0
M  V30 4051 H 360.796 4.01472 1.50061 0
M  V30 4052 H 364.98 4.86039 1.00398 0
M  V30 4053 H 360.236 6.10486 0.334264 0
M  V30 4054 H 364.41 6.96227 -0.155291 0
M  V30 4055 H 362.037 7.5858 -0.496065 0
M  V30 4056 N 363.613 -0.582584 1.46437 0
M  V30 4057 C 364.543 -1.70187 1.59871 0
M  V30 4058 C 365.524 -1.64066 0.449042 0
M  V30 4059 O 366.709 -1.82081 0.6753 0
M  V30 4060 C 363.839 -3.08827 1.58881 0
M  V30 4061 C 362.793 -3.29779 2.72819 0
M  V30 4062 C 362.119 -4.68947 2.5689 0
M  V30 4063 C 363.419 -3.17601 4.1464 0
M  V30 4064 H 365.113 -1.592 2.53566 0
M  V30 4065 H 362.659 -0.764472 1.22032 0
M  V30 4066 H 364.612 -3.86951 1.66873 0
M  V30 4067 H 363.336 -3.20713 0.617306 0
M  V30 4068 H 361.995 -2.54054 2.64296 0
M  V30 4069 H 361.643 -4.77599 1.57823 0
M  V30 4070 H 361.343 -4.83919 3.33312 0
M  V30 4071 H 362.867 -5.4924 2.66773 0
M  V30 4072 H 364.281 -3.8557 4.24274 0
M  V30 4073 H 362.678 -3.44094 4.9165 0
M  V30 4074 H 363.748 -2.14681 4.34788 0
M  V30 4075 N 365.091 -1.34144 -0.827227 0
M  V30 4076 C 366.316 -1.29476 -1.62021 0
M  V30 4077 C 366.741 0.129292 -1.87655 0
M  V30 4078 O 366.099 1.08967 -1.449 0
M  V30 4079 C 366.147 -2.08702 -2.94068 0
M  V30 4080 O 365.251 -1.45359 -3.85933 0
M  V30 4081 H 364.592 -0.444881 -0.492927 0
M  V30 4082 H 367.122 -1.76882 -1.02829 0
M  V30 4083 H 367.132 -2.19898 -3.43669 0
M  V30 4084 H 365.807 -3.12241 -2.74734 0
M  V30 4085 H 364.384 -1.42879 -3.44442 0
M  V30 4086 N 366.569 1.04691 -1.17803 0
M  V30 4087 C 367.502 2.12068 -0.842765 0
M  V30 4088 C 368.48 1.61455 0.192608 0
M  V30 4089 O 369.664 1.88359 0.072995 0
M  V30 4090 C 366.791 3.37715 -0.258063 0
M  V30 4091 C 365.837 4.07164 -1.26962 0
M  V30 4092 S 366.67 4.55047 -2.82299 0
M  V30 4093 C 367.826 5.83935 -2.25323 0
M  V30 4094 H 368.059 2.4018 -1.75217 0
M  V30 4095 H 365.592 1.17366 -1.00323 0
M  V30 4096 H 367.55 4.10435 0.0727935 0
M  V30 4097 H 366.211 3.0773 0.629357 0
M  V30 4098 H 365.404 4.9746 -0.809263 0
M  V30 4099 H 365.006 3.40533 -1.54639 0
M  V30 4100 H 367.298 6.57552 -1.63192 0
M  V30 4101 H 368.241 6.34725 -3.13894 0
M  V30 4102 H 368.649 5.3874 -1.68582 0
M  V30 4103 N 368.047 0.979072 1.23499 0
M  V30 4104 C 369.01 0.523244 2.23147 0
M  V30 4105 C 370.01 -0.386406 1.56088 0
M  V30 4106 O 371.2 -0.180283 1.73265 0
M  V30 4107 C 368.332 -0.240739 3.40049 0
M  V30 4108 H 369.525 1.40432 2.64989 0
M  V30 4109 H 367.078 0.764824 1.36309 0
M  V30 4110 H 367.813 -1.13841 3.03662 0
M  V30 4111 H 367.598 0.412207 3.89927 0
M  V30 4112 H 369.088 -0.548297 4.13985 0
M  V30 4113 N 369.525 -1.3858 0.750561 0
M  V30 4114 C 370.771 -2.00481 0.305825 0
M  V30 4115 C 371.104 -1.5944 -1.10872 0
M  V30 4116 O 370.379 -0.83052 -1.75877 0
M  V30 4117 C 370.662 -3.5758 0.425287 0
M  V30 4118 C 370.515 -4.08594 1.88072 0
M  V30 4119 C 371.834 -4.39719 -0.183122 0
M  V30 4120 H 368.953 -0.728348 0.112598 0
M  V30 4121 H 371.595 -1.64566 0.949638 0
M  V30 4122 H 369.745 -3.88306 -0.122828 0
M  V30 4123 H 371.417 -3.88523 2.48691 0
M  V30 4124 H 369.66 -3.61574 2.39681 0
M  V30 4125 H 370.331 -5.177 1.91548 0
M  V30 4126 H 372.807 -4.15128 0.284303 0
M  V30 4127 H 371.683 -5.48856 -0.0692757 0
M  V30 4128 H 371.944 -4.23434 -1.27106 0
M  V30 4129 N 371.003 -0.499398 -1.49478 0
M  V30 4130 C 372.25 0.0456899 -2.02448 0
M  V30 4131 C 372.578 1.37142 -1.37921 0
M  V30 4132 O 371.833 1.89111 -0.503544 0
M  V30 4133 C 372.132 0.248424 -3.56536 0
M  V30 4134 C 371.798 -0.999107 -4.39692 0
M  V30 4135 C 370.46 -1.34108 -4.62135 0
M  V30 4136 C 372.812 -1.82842 -4.88076 0
M  V30 4137 C 370.14 -2.51191 -5.30208 0
M  V30 4138 C 372.492 -2.99076 -5.57437 0
M  V30 4139 C 371.156 -3.33655 -5.78127 0
M  V30 4140 H 370.426 0.0167191 -0.740811 0
M  V30 4141 H 373.073 -0.65923 -1.79795 0
M  V30 4142 H 371.378 1.03586 -3.77859 0
M  V30 4143 H 373.075 0.684605 -3.95113 0
M  V30 4144 H 369.665 -0.722729 -4.22463 0
M  V30 4145 H 373.849 -1.57737 -4.70566 0
M  V30 4146 H 369.105 -2.78221 -5.44429 0
M  V30 4147 H 373.279 -3.63664 -5.93904 0
M  V30 4148 H 370.906 -4.24483 -6.30649 0
M  V30 4149 N 372.481 1.55866 -0.233164 0
M  V30 4150 C 373.728 1.98603 0.395374 0
M  V30 4151 C 374.056 1.12105 1.58942 0
M  V30 4152 O 373.311 0.168656 1.94972 0
M  V30 4153 C 373.61 3.46856 0.861724 0
M  V30 4154 C 373.276 4.50348 -0.223066 0
M  V30 4155 C 371.938 4.78371 -0.521038 0
M  V30 4156 C 374.29 5.12355 -0.956124 0
M  V30 4157 C 371.618 5.6568 -1.55638 0
M  V30 4158 C 373.97 6.00786 -1.98089 0
M  V30 4159 C 372.634 6.27148 -2.28565 0
M  V30 4160 H 371.904 0.726739 0.144677 0
M  V30 4161 H 374.551 1.88491 -0.338114 0
M  V30 4162 H 372.856 3.5423 1.67418 0
M  V30 4163 H 374.553 3.77302 1.35809 0
M  V30 4164 H 371.143 4.28596 0.0193234 0
M  V30 4165 H 375.327 4.90765 -0.739166 0
M  V30 4166 H 370.583 5.84365 -1.798 0
M  V30 4167 H 374.757 6.4788 -2.55391 0
M  V30 4168 H 372.384 6.94597 -3.08932 0
M  V30 4169 N 373.959 -0.0401083 1.57549 0
M  V30 4170 C 374.889 -1.04384 2.08869 0
M  V30 4171 C 375.87 -1.38407 0.988817 0
M  V30 4172 O 377.055 -1.47483 1.26342 0
M  V30 4173 C 374.185 -2.34808 2.55895 0
M  V30 4174 C 373.139 -2.15057 3.70047 0
M  V30 4175 C 372.465 -3.51145 4.03239 0
M  V30 4176 C 373.765 -1.54576 4.98902 0
M  V30 4177 H 375.459 -0.616666 2.92981 0
M  V30 4178 H 373.005 -0.295184 1.40942 0
M  V30 4179 H 374.958 -3.05346 2.90417 0
M  V30 4180 H 373.682 -2.79565 1.68853 0
M  V30 4181 H 372.341 -1.46954 3.35857 0
M  V30 4182 H 371.989 -3.93529 3.13279 0
M  V30 4183 H 371.689 -3.38758 4.80122 0
M  V30 4184 H 373.213 -4.23062 4.40285 0
M  V30 4185 H 374.627 -2.15017 5.31451 0
M  V30 4186 H 373.024 -1.52796 5.80322 0
M  V30 4187 H 374.094 -0.51039 4.82206 0
M  V30 4188 N 375.437 -1.54477 -0.31217 0
M  V30 4189 C 376.848 -1.64344 -0.885891 0
M  V30 4190 C 377.199 -0.54485 -1.88483 0
M  V30 4191 O 376.324 0.320387 -2.14015 0
M  V30 4192 C 376.919 -2.97908 -1.61357 0
M  V30 4193 C 375.478 -3.09933 -2.13585 0
M  V30 4194 C 374.625 -2.59971 -0.964897 0
M  V30 4195 H 377.576 -1.58448 -0.0894528 0
M  V30 4196 H 377.597 -2.88706 -2.47848 0
M  V30 4197 H 377.109 -3.77845 -0.886277 0
M  V30 4198 H 375.21 -2.34694 -2.89395 0
M  V30 4199 H 375.323 -4.15916 -2.37804 0
M  V30 4200 H 373.687 -2.16147 -1.34731 0
M  V30 4201 H 374.47 -3.42376 -0.251742 0
M  V30 4202 N 376.915 0.57481 -1.46744 0
M  V30 4203 C 378.143 1.35856 -1.56047 0
M  V30 4204 C 378.558 1.87691 -0.204365 0
M  V30 4205 O 377.915 1.64049 0.79963 0
M  V30 4206 C 377.966 2.54066 -2.57163 0
M  V30 4207 O 377.687 2.04377 -3.87507 0
M  V30 4208 C 379.188 3.46514 -2.76483 0
M  V30 4209 H 376.408 0.414754 -0.527466 0
M  V30 4210 H 378.952 0.698035 -1.92218 0
M  V30 4211 H 377.107 3.16092 -2.23974 0
M  V30 4212 H 377.521 2.81419 -4.4261 0
M  V30 4213 H 378.995 4.25919 -3.51137 0
M  V30 4214 H 379.472 3.98951 -1.83671 0
M  V30 4215 H 380.078 2.90318 -3.10799 0
M  V30 4216 N 378.394 1.34581 0.820102 0
M  V30 4217 C 379.671 1.17675 1.56244 0
M  V30 4218 C 380.051 -0.249541 2.0962 0
M  V30 4219 O 379.399 -1.25125 1.91196 0
M  V30 4220 C 379.609 2.23364 2.6816 0
M  V30 4221 C 380.957 2.58485 3.36854 0
M  V30 4222 O 381.981 2.22175 2.78418 0
M  V30 4223 O 380.84 3.20868 4.42386 0
M  V30 4224 H 377.934 0.456333 0.689702 0
M  V30 4225 H 380.48 1.46222 0.861231 0
M  V30 4226 H 379.252 3.19087 2.26493 0
M  V30 4227 H 378.875 1.96009 3.45928 0
M  V30 4228 N 379.872 -1.04064 1.18357 0
M  V30 4229 C 381.097 -1.81454 1.00445 0
M  V30 4230 C 381.522 -1.82823 -0.442423 0
M  V30 4231 O 380.88 -1.24555 -1.31741 0
M  V30 4232 C 380.928 -3.24925 1.56384 0
M  V30 4233 O 380.032 -4.04856 0.785209 0
M  V30 4234 H 379.373 -0.560604 0.355835 0
M  V30 4235 H 381.903 -1.31059 1.57114 0
M  V30 4236 H 381.913 -3.75702 1.59097 0
M  V30 4237 H 380.588 -3.23244 2.61699 0
M  V30 4238 H 379.165 -3.63537 0.830399 0
M  V30 4239 N 381.35 -0.985608 -1.22978 0
M  V30 4240 C 382.598 -0.656087 -1.91154 0
M  V30 4241 C 382.919 0.813561 -1.77218 0
M  V30 4242 O 382.189 1.58244 -1.1548 0
M  V30 4243 H 380.769 -0.239674 -0.707506 0
M  V30 4244 H 383.431 -1.25054 -1.49491 0
M  V30 4245 H 382.527 -0.912253 -2.9847 0
M  V30 4246 N 382.828 1.3818 -0.7579 0
M  V30 4247 C 383.738 2.3421 -0.135247 0
M  V30 4248 C 384.754 1.59487 0.695683 0
M  V30 4249 O 385.93 1.91657 0.618832 0
M  V30 4250 C 382.995 3.3862 0.744139 0
M  V30 4251 C 382.056 4.2918 -0.101658 0
M  V30 4252 C 381.289 5.28603 0.735851 0
M  V30 4253 O 381.512 5.35166 1.97366 0
M  V30 4254 O 380.446 6.01707 0.152372 0
M  V30 4255 H 384.272 2.8916 -0.928436 0
M  V30 4256 H 381.857 1.40101 -0.518855 0
M  V30 4257 H 383.739 4.02539 1.2466 0
M  V30 4258 H 382.414 2.86019 1.51575 0
M  V30 4259 H 381.321 3.68407 -0.650167 0
M  V30 4260 H 382.654 4.85048 -0.836024 0
M  V30 4261 N 384.306 0.507319 1.49211 0
M  V30 4262 C 385.253 -0.267728 2.29242 0
M  V30 4263 C 386.223 -0.954609 1.35928 0
M  V30 4264 O 387.408 -0.960046 1.64887 0
M  V30 4265 C 384.548 -1.32243 3.18756 0
M  V30 4266 C 383.661 -0.64669 4.27132 0
M  V30 4267 C 382.796 -1.68238 5.03855 0
M  V30 4268 C 381.835 -0.98885 6.0406 0
M  V30 4269 N 380.972 -1.96903 6.73924 0
M  V30 4270 H 385.812 0.420968 2.95012 0
M  V30 4271 H 383.349 0.219443 1.45454 0
M  V30 4272 H 385.307 -1.94599 3.69036 0
M  V30 4273 H 383.937 -1.97981 2.54958 0
M  V30 4274 H 382.989 0.0902926 3.80293 0
M  V30 4275 H 384.301 -0.101058 4.98698 0
M  V30 4276 H 383.455 -2.38081 5.58034 0
M  V30 4277 H 382.194 -2.26187 4.32077 0
M  V30 4278 H 381.199 -0.276222 5.49106 0
M  V30 4279 H 382.424 -0.415767 6.77826 0
M  V30 4280 H 380.37 -2.53803 6.04913 0
M  V30 4281 H 380.287 -1.47423 7.41487 0
M  V30 4282 H 381.555 -2.66015 7.32705 0
M  V30 4283 N 385.784 -1.5574 0.241426 0
M  V30 4284 C 387.033 -1.97986 -0.385295 0
M  V30 4285 C 387.346 -1.13267 -1.59468 0
M  V30 4286 O 388.552 -1.45501 -2.2922 0
M  V30 4287 C 387.008 -3.52275 -0.736884 0
M  V30 4288 C 386.616 -4.45726 0.450796 0
M  V30 4289 C 388.36 -4.03189 -1.3281 0
M  V30 4290 C 386.267 -5.91352 0.0756662 0
M  V30 4291 H 385.197 -0.739386 -0.147731 0
M  V30 4292 H 387.848 -1.80308 0.340779 0
M  V30 4293 H 386.23 -3.65628 -1.52094 0
M  V30 4294 H 387.404 -4.44131 1.22819 0
M  V30 4295 H 385.719 -4.05264 0.956573 0
M  V30 4296 H 388.316 -5.09505 -1.62201 0
M  V30 4297 H 388.659 -3.50212 -2.25071 0
M  V30 4298 H 389.192 -3.93141 -0.607069 0
M  V30 4299 H 385.931 -6.48354 0.965272 0
M  V30 4300 H 385.451 -5.96095 -0.665635 0
M  V30 4301 H 387.13 -6.46084 -0.344075 0
M  V30 4302 N 387.262 0.0317525 -1.57568 0
M  V30 4303 C 388.49 0.734949 -1.93407 0
M  V30 4304 C 388.905 1.69036 -0.84096 0
M  V30 4305 O 388.262 1.81582 0.182836 0
M  V30 4306 C 388.313 1.49432 -3.29169 0
M  V30 4307 O 388.034 0.577261 -4.3428 0
M  V30 4308 C 389.535 2.29492 -3.79273 0
M  V30 4309 H 386.755 0.206706 -0.638368 0
M  V30 4310 H 389.299 -0.00992046 -2.04498 0
M  V30 4311 H 387.454 2.1911 -3.19483 0
M  V30 4312 H 387.868 1.10952 -5.1263 0
M  V30 4313 H 389.342 2.78172 -4.76785 0
M  V30 4314 H 389.819 3.10794 -3.10328 0
M  V30 4315 H 390.425 1.64894 -3.92033 0
M  V30 4316 N 388.74 1.54641 0.303973 0
M  V30 4317 C 389.67 1.88386 1.3796 0
M  V30 4318 C 390.651 0.742485 1.5304 0
M  V30 4319 O 391.836 0.997959 1.66597 0
M  V30 4320 C 388.966 2.12854 2.74427 0
M  V30 4321 C 387.92 3.28702 2.74115 0
M  V30 4322 C 387.246 3.38582 4.13844 0
M  V30 4323 C 388.546 4.65881 2.3612 0
M  V30 4324 H 390.24 2.78474 1.09966 0
M  V30 4325 H 387.786 1.33988 0.527556 0
M  V30 4326 H 389.739 2.35047 3.49758 0
M  V30 4327 H 388.463 1.19535 3.03939 0
M  V30 4328 H 387.122 3.06428 2.0124 0
M  V30 4329 H 386.77 2.42784 4.40528 0
M  V30 4330 H 386.47 4.16453 4.14537 0
M  V30 4331 H 387.994 3.63031 4.90959 0
M  V30 4332 H 389.408 4.87823 3.01167 0
M  V30 4333 H 387.805 5.46444 2.48031 0
M  V30 4334 H 388.875 4.66799 1.3125 0
M  V30 4335 N 390.218 -0.567019 1.47046 0
M  V30 4336 C 391.446 -1.35027 1.56765 0
M  V30 4337 C 391.861 -1.8758 0.214316 0
M  V30 4338 O 391.218 -1.64471 -0.790919 0
M  V30 4339 C 391.269 -2.52698 2.58507 0
M  V30 4340 O 390.99 -2.0232 3.88585 0
M  V30 4341 C 392.491 -3.45043 2.78316 0
M  V30 4342 H 389.711 -0.41195 0.529658 0
M  V30 4343 H 392.255 -0.687832 1.92585 0
M  V30 4344 H 390.41 -3.149 2.25648 0
M  V30 4345 H 390.824 -2.79068 4.44096 0
M  V30 4346 H 392.298 -4.2405 3.53391 0
M  V30 4347 H 392.775 -3.97971 1.85784 0
M  V30 4348 H 393.381 -2.88665 3.12334 0
M  V30 4349 N 391.696 -1.35014 -0.812953 0
M  V30 4350 C 392.945 -1.27269 -1.56479 0
M  V30 4351 C 393.258 0.152771 -1.95002 0
M  V30 4352 O 394.464 0.352451 -2.69203 0
M  V30 4353 C 392.92 -2.23159 -2.82362 0
M  V30 4354 C 392.528 -3.71016 -2.511 0
M  V30 4355 C 394.272 -2.24342 -3.60376 0
M  V30 4356 C 392.179 -4.58746 -3.73237 0
M  V30 4357 H 391.109 -0.472829 -0.587324 0
M  V30 4358 H 393.76 -1.6024 -0.894171 0
M  V30 4359 H 392.142 -1.83151 -3.51101 0
M  V30 4360 H 393.316 -4.1962 -1.90409 0
M  V30 4361 H 391.631 -3.72378 -1.86343 0
M  V30 4362 H 394.228 -2.87107 -4.51081 0
M  V30 4363 H 394.571 -1.24542 -3.97234 0
M  V30 4364 H 395.104 -2.62846 -2.98591 0
M  V30 4365 H 391.843 -5.59521 -3.41492 0
M  V30 4366 H 391.363 -4.14871 -4.33176 0
M  V30 4367 H 393.042 -4.73852 -4.40537 0
M  V30 4368 N 393.175 1.03435 -1.18907 0
M  V30 4369 C 394.4 1.80919 -1.01406 0
M  V30 4370 C 394.825 1.83055 0.432721 0
M  V30 4371 O 394.183 1.25252 1.31079 0
M  V30 4372 C 394.231 3.24091 -1.58105 0
M  V30 4373 O 393.335 4.04434 -0.806669 0
M  V30 4374 H 392.676 0.558709 -0.358803 0
M  V30 4375 H 395.206 1.30223 -1.57807 0
M  V30 4376 H 395.216 3.74853 -1.61087 0
M  V30 4377 H 393.891 3.21851 -2.6341 0
M  V30 4378 H 392.468 3.63091 -0.849666 0
M  V30 4379 N 394.653 0.992116 1.22453 0
M  V30 4380 C 395.899 0.668523 1.91464 0
M  V30 4381 C 396.232 -0.797313 1.77078 0
M  V30 4382 O 395.507 -1.5765 1.13916 0
M  V30 4383 C 395.79 1.07424 3.43703 0
M  V30 4384 C 395.643 2.59857 3.67143 0
M  V30 4385 C 396.962 0.626891 4.35612 0
M  V30 4386 H 394.081 0.244341 0.695318 0
M  V30 4387 H 396.723 1.2355 1.44345 0
M  V30 4388 H 394.873 0.591816 3.83966 0
M  V30 4389 H 396.545 3.15764 3.3629 0
M  V30 4390 H 394.788 3.01961 3.11451 0
M  V30 4391 H 395.459 2.83296 4.73759 0
M  V30 4392 H 397.935 1.04125 4.02861 0
M  V30 4393 H 396.811 0.939076 5.40807 0
M  V30 4394 H 397.072 -0.472457 4.39568 0
M  V30 4395 N 396.131 -1.37776 0.765217 0
M  V30 4396 C 397.061 -2.32945 0.160953 0
M  V30 4397 C 398.042 -1.55454 -0.690516 0
M  V30 4398 O 399.227 -1.83721 -0.629318 0
M  V30 4399 C 396.357 -3.39669 -0.724031 0
M  V30 4400 C 395.311 -4.27992 0.0256173 0
M  V30 4401 C 394.637 -5.25673 -0.978383 0
M  V30 4402 C 395.937 -5.08309 1.20082 0
M  V30 4403 H 397.631 -2.83728 0.955969 0
M  V30 4404 H 395.177 -1.36416 0.461149 0
M  V30 4405 H 397.13 -4.05219 -1.15652 0
M  V30 4406 H 395.854 -2.87396 -1.5515 0
M  V30 4407 H 394.513 -3.63964 0.438812 0
M  V30 4408 H 394.161 -4.69682 -1.80022 0
M  V30 4409 H 393.861 -5.85625 -0.481378 0
M  V30 4410 H 395.385 -5.94098 -1.40995 0
M  V30 4411 H 396.799 -5.67034 0.845307 0
M  V30 4412 H 395.196 -5.77554 1.62947 0
M  V30 4413 H 396.266 -4.41365 2.00811 0
M  V30 4414 N 397.609 -0.515225 -1.4894 0
M  V30 4415 C 398.539 0.244628 -2.32215 0
M  V30 4416 C 399.52 0.949136 -1.41157 0
M  V30 4417 O 400.705 0.937783 -1.70057 0
M  V30 4418 C 397.835 1.30096 -3.22013 0
M  V30 4419 C 396.789 0.715486 -4.21977 0
M  V30 4420 C 396.115 1.87339 -5.00808 0
M  V30 4421 C 397.415 -0.302982 -5.2142 0
M  V30 4422 H 399.109 -0.450501 -2.95991 0
M  V30 4423 H 396.655 -0.218098 -1.42339 0
M  V30 4424 H 398.608 1.84037 -3.79089 0
M  V30 4425 H 397.332 2.02547 -2.56207 0
M  V30 4426 H 395.991 0.197715 -3.66066 0
M  V30 4427 H 395.639 2.58592 -4.31438 0
M  V30 4428 H 395.339 1.48764 -5.68457 0
M  V30 4429 H 396.863 2.41686 -5.60732 0
M  V30 4430 H 398.277 0.148802 -5.73107 0
M  V30 4431 H 396.674 -0.60532 -5.97039 0
M  V30 4432 H 397.744 -1.21395 -4.69459 0
M  V30 4433 N 399.087 1.5561 -0.249682 0
M  V30 4434 C 400.312 2.03865 0.381305 0
M  V30 4435 C 400.737 1.12769 1.50548 0
M  V30 4436 O 400.095 0.121189 1.80895 0
M  V30 4437 C 400.143 3.50101 0.863816 0
M  V30 4438 O 399.247 3.62132 1.97318 0
M  V30 4439 H 398.588 0.658827 0.0827194 0
M  V30 4440 H 401.118 2.01105 -0.376552 0
M  V30 4441 H 401.128 3.90975 1.1663 0
M  V30 4442 H 399.803 4.1588 0.0411816 0
M  V30 4443 H 398.38 3.33155 1.67517 0
M  V30 4444 N 400.565 -0.0233959 1.57583 0
M  V30 4445 C 401.814 -0.712133 1.8871 0
M  V30 4446 C 402.127 -1.76217 0.848944 0
M  V30 4447 O 403.333 -2.50389 1.04964 0
M  V30 4448 C 401.789 -1.3177 3.3491 0
M  V30 4449 C 401.397 -0.303715 4.46969 0
M  V30 4450 C 403.141 -1.98598 3.75179 0
M  V30 4451 C 401.048 -0.917945 5.84233 0
M  V30 4452 H 399.978 -0.269735 0.704101 0
M  V30 4453 H 402.629 0.0333114 1.8347 0
M  V30 4454 H 401.011 -2.11304 3.34913 0
M  V30 4455 H 402.185 0.465325 4.58445 0
M  V30 4456 H 400.5 0.2628 4.1557 0
M  V30 4457 H 403.097 -2.45416 4.75053 0
M  V30 4458 H 403.44 -2.80659 3.07468 0
M  V30 4459 H 403.973 -1.25831 3.77374 0
M  V30 4460 H 400.712 -0.136633 6.55358 0
M  V30 4461 H 400.232 -1.65669 5.76467 0
M  V30 4462 H 401.911 -1.4236 6.31144 0
M  V30 4463 N 402.043 -1.548 -0.295768 0
M  V30 4464 C 403.289 -1.74588 -1.03184 0
M  V30 4465 C 403.622 -0.532962 -1.86744 0
M  V30 4466 O 402.897 0.469872 -1.88739 0
M  V30 4467 C 403.18 -3.03791 -1.93347 0
M  V30 4468 C 403.033 -4.35392 -1.12933 0
M  V30 4469 C 404.352 -3.28892 -2.92435 0
M  V30 4470 H 401.471 -0.635221 -0.373715 0
M  V30 4471 H 404.113 -1.87519 -0.30606 0
M  V30 4472 H 402.263 -2.92898 -2.55232 0
M  V30 4473 H 403.935 -4.58211 -0.532943 0
M  V30 4474 H 402.178 -4.31642 -0.432168 0
M  V30 4475 H 402.849 -5.22074 -1.79284 0
M  V30 4476 H 405.325 -3.39429 -2.4068 0
M  V30 4477 H 404.201 -4.20603 -3.52682 0
M  V30 4478 H 404.462 -2.47437 -3.6637 0
M  V30 4479 N 403.521 0.559213 -1.47345 0
M  V30 4480 C 404.767 1.31843 -1.54095 0
M  V30 4481 C 405.1 1.93149 -0.201726 0
M  V30 4482 O 404.375 1.77759 0.789428 0
M  V30 4483 C 404.658 2.43006 -2.65744 0
M  V30 4484 C 404.511 1.86581 -4.09277 0
M  V30 4485 C 405.83 3.44943 -2.73318 0
M  V30 4486 H 402.949 0.478012 -0.560957 0
M  V30 4487 H 405.591 0.625977 -1.79392 0
M  V30 4488 H 403.741 3.02072 -2.44305 0
M  V30 4489 H 405.413 1.31792 -4.42073 0
M  V30 4490 H 403.656 1.17268 -4.17649 0
M  V30 4491 H 404.327 2.66933 -4.83168 0
M  V30 4492 H 406.803 2.95793 -2.92653 0
M  V30 4493 H 405.679 4.20153 -3.53218 0
M  V30 4494 H 405.94 4.03665 -1.80296 0
M  V30 4495 N 404.999 1.35443 0.805782 0
M  V30 4496 C 406.246 1.28761 1.56291 0
M  V30 4497 C 406.574 -0.137747 1.94012 0
M  V30 4498 O 405.829 -1.1032 1.61642 0
M  V30 4499 C 406.128 2.14045 2.86216 0
M  V30 4500 C 405.794 3.62826 2.67709 0
M  V30 4501 C 404.456 4.0338 2.6237 0
M  V30 4502 C 406.808 4.57227 2.50186 0
M  V30 4503 C 404.136 5.36501 2.37451 0
M  V30 4504 C 406.488 5.90547 2.26797 0
M  V30 4505 C 405.152 6.30245 2.1988 0
M  V30 4506 H 404.422 0.471171 0.571908 0
M  V30 4507 H 407.069 1.67347 0.930974 0
M  V30 4508 H 405.374 1.68342 3.53791 0
M  V30 4509 H 407.071 2.0621 3.43917 0
M  V30 4510 H 403.661 3.30644 2.72713 0
M  V30 4511 H 407.845 4.2678 2.53323 0
M  V30 4512 H 403.101 5.66259 2.30567 0
M  V30 4513 H 407.275 6.63274 2.12228 0
M  V30 4514 H 404.902 7.33328 2.00333 0
M  V30 4515 N 406.477 -1.02803 1.19454 0
M  V30 4516 C 407.407 -2.12999 0.956758 0
M  V30 4517 C 408.388 -1.69743 -0.110188 0
M  V30 4518 O 409.573 -1.94148 0.0450038 0
M  V30 4519 C 406.703 -3.43746 0.495553 0
M  V30 4520 C 405.657 -4.00688 1.50443 0
M  V30 4521 C 404.983 -5.27067 0.900275 0
M  V30 4522 C 406.283 -4.35397 2.8849 0
M  V30 4523 H 407.977 -2.33148 1.87836 0
M  V30 4524 H 405.523 -1.12045 0.904539 0
M  V30 4525 H 407.476 -4.2021 0.316493 0
M  V30 4526 H 406.2 -3.23321 -0.461646 0
M  V30 4527 H 404.859 -3.2632 1.67065 0
M  V30 4528 H 404.507 -5.02959 -0.064503 0
M  V30 4529 H 404.207 -5.66127 1.57397 0
M  V30 4530 H 405.731 -6.06196 0.73203 0
M  V30 4531 H 407.145 -5.02795 2.75446 0
M  V30 4532 H 405.542 -4.85541 3.52661 0
M  V30 4533 H 406.612 -3.44662 3.41081 0
M  V30 4534 N 407.956 -0.998596 -1.21925 0
M  V30 4535 C 408.886 -0.573688 -2.26343 0
M  V30 4536 C 409.867 0.402296 -1.65274 0
M  V30 4537 O 411.052 0.291683 -1.91997 0
M  V30 4538 C 408.182 0.106839 -3.47136 0
M  V30 4539 C 407.136 -0.788269 -4.20678 0
M  V30 4540 C 406.462 0.0254927 -5.34694 0
M  V30 4541 C 407.762 -2.08784 -4.78755 0
M  V30 4542 H 409.456 -1.44651 -2.62138 0
M  V30 4543 H 407.002 -0.696975 -1.26009 0
M  V30 4544 H 408.955 0.415531 -4.19346 0
M  V30 4545 H 407.679 1.01424 -3.10452 0
M  V30 4546 H 406.338 -1.08069 -3.50309 0
M  V30 4547 H 405.986 0.933989 -4.94253 0
M  V30 4548 H 405.686 -0.570437 -5.84825 0
M  V30 4549 H 407.21 0.328147 -6.09718 0
M  V30 4550 H 408.624 -1.84272 -5.42878 0
M  V30 4551 H 407.021 -2.63307 -5.39249 0
M  V30 4552 H 408.091 -2.76284 -3.98491 0
M  V30 4553 N 409.434 1.37368 -0.772513 0
M  V30 4554 C 410.364 2.32856 -0.173304 0
M  V30 4555 C 411.345 1.55818 0.682262 0
M  V30 4556 O 412.53 1.84052 0.619566 0
M  V30 4557 C 409.66 3.40048 0.706007 0
M  V30 4558 C 408.614 4.27973 -0.0483144 0
M  V30 4559 C 407.94 5.26184 0.950491 0
M  V30 4560 C 409.24 5.07665 -1.22776 0
M  V30 4561 H 410.934 2.83217 -0.971002 0
M  V30 4562 H 408.48 1.3617 -0.468377 0
M  V30 4563 H 410.433 4.05827 1.13501 0
M  V30 4564 H 409.157 2.88214 1.53623 0
M  V30 4565 H 407.816 3.63726 -0.458107 0
M  V30 4566 H 407.464 4.7063 1.77529 0
M  V30 4567 H 407.164 5.85872 0.450314 0
M  V30 4568 H 408.688 5.94838 1.37842 0
M  V30 4569 H 410.102 5.66578 -0.875366 0
M  V30 4570 H 408.499 5.76681 -1.66007 0
M  V30 4571 H 409.569 4.40294 -2.03149 0
M  V30 4572 N 410.912 0.523116 1.48665 0
M  V30 4573 C 412.158 -0.0134963 2.02796 0
M  V30 4574 C 412.491 -1.34582 1.40004 0
M  V30 4575 O 411.766 -1.86756 0.543381 0
M  V30 4576 C 412.049 -0.14276 3.59817 0
M  V30 4577 C 411.902 1.21425 4.331 0
M  V30 4578 C 413.221 -0.872856 4.31357 0
M  V30 4579 H 410.34 -0.00343074 0.736992 0
M  V30 4580 H 412.982 0.678816 1.7746 0
M  V30 4581 H 411.132 -0.732401 3.81534 0
M  V30 4582 H 412.804 1.84447 4.2282 0
M  V30 4583 H 411.047 1.79791 3.94788 0
M  V30 4584 H 411.718 1.07687 5.41394 0
M  V30 4585 H 414.194 -0.372555 4.14429 0
M  V30 4586 H 413.07 -0.932185 5.40927 0
M  V30 4587 H 413.331 -1.92161 3.98154 0
M  V30 4588 N 412.39 -1.55475 0.257931 0
M  V30 4589 C 413.615 -2.04064 -0.370488 0
M  V30 4590 C 414.04 -1.13565 -1.49948 0
M  V30 4591 O 413.398 -0.130781 -1.80828 0
M  V30 4592 C 413.446 -3.50554 -0.845237 0
M  V30 4593 O 412.55 -3.63173 -1.95394 0
M  V30 4594 H 411.891 -0.659257 -0.0792243 0
M  V30 4595 H 414.421 -2.00903 0.387212 0
M  V30 4596 H 414.431 -3.91588 -1.14555 0
M  V30 4597 H 413.106 -4.15896 -0.0191259 0
M  V30 4598 H 411.683 -3.34039 -1.65748 0
M  V30 4599 N 413.868 0.0150385 -1.57593 0
M  V30 4600 C 414.815 1.01126 -2.07466 0
M  V30 4601 C 415.785 1.35064 -0.966794 0
M  V30 4602 O 416.97 1.4516 -1.23827 0
M  V30 4603 C 414.11 2.30276 -2.57035 0
M  V30 4604 C 413.223 2.02373 -3.81666 0
M  V30 4605 C 412.358 3.25496 -4.19793 0
M  V30 4606 C 411.397 2.93211 -5.37303 0
M  V30 4607 N 410.534 4.08826 -5.70794 0
M  V30 4608 H 415.374 0.57901 -2.92321 0
M  V30 4609 H 412.911 0.27426 -1.44521 0
M  V30 4610 H 414.869 3.05757 -2.83846 0
M  V30 4611 H 413.499 2.71197 -1.75077 0
M  V30 4612 H 412.551 1.17327 -3.61854 0
M  V30 4613 H 413.863 1.74567 -4.67256 0
M  V30 4614 H 413.017 4.09333 -4.47807 0
M  V30 4615 H 411.756 3.56428 -3.32882 0
M  V30 4616 H 410.761 2.07777 -5.09027 0
M  V30 4617 H 411.986 2.63542 -6.25877 0
M  V30 4618 H 409.932 4.39682 -4.86842 0
M  V30 4619 H 409.849 3.84491 -6.50924 0
M  V30 4620 H 411.117 4.93496 -6.03392 0
M  V30 4621 N 415.346 1.54954 0.287554 0
M  V30 4622 C 416.595 1.74081 1.01877 0
M  V30 4623 C 416.908 0.541135 1.87966 0
M  V30 4624 O 418.114 0.614491 2.64455 0
M  V30 4625 C 416.57 3.08042 1.86113 0
M  V30 4626 C 416.178 4.35531 1.04961 0
M  V30 4627 C 417.922 3.36523 2.58752 0
M  V30 4628 C 415.829 5.60538 1.88551 0
M  V30 4629 H 414.759 0.64884 0.384087 0
M  V30 4630 H 417.41 1.81426 0.275101 0
M  V30 4631 H 415.792 2.94696 2.64519 0
M  V30 4632 H 416.966 4.59751 0.31074 0
M  V30 4633 H 415.281 4.14085 0.43843 0
M  V30 4634 H 417.878 4.27122 3.21668 0
M  V30 4635 H 418.221 2.56 3.28283 0
M  V30 4636 H 418.754 3.50901 1.87386 0
M  V30 4637 H 415.493 6.43767 1.23466 0
M  V30 4638 H 415.013 5.40483 2.60074 0
M  V30 4639 H 416.692 5.98297 2.46273 0
M  V30 4640 N 416.824 -0.551391 1.4764 0
M  V30 4641 C 417.754 -1.66757 1.63445 0
M  V30 4642 C 418.735 -1.63077 0.483742 0
M  V30 4643 O 419.92 -1.80607 0.71377 0
M  V30 4644 C 417.05 -3.05387 1.65396 0
M  V30 4645 C 416.004 -3.23918 2.79752 0
M  V30 4646 C 415.33 -4.63393 2.66779 0
M  V30 4647 C 416.63 -3.08735 4.21284 0
M  V30 4648 H 418.324 -1.53786 2.56886 0
M  V30 4649 H 415.87 -0.738415 1.23626 0
M  V30 4650 H 417.823 -3.83325 1.75043 0
M  V30 4651 H 416.547 -3.19332 0.685195 0
M  V30 4652 H 415.206 -2.48391 2.69625 0
M  V30 4653 H 414.854 -4.74144 1.67918 0
M  V30 4654 H 414.554 -4.7674 3.43501 0
M  V30 4655 H 416.078 -5.43458 2.78364 0
M  V30 4656 H 417.492 -3.76484 4.32357 0
M  V30 4657 H 415.889 -3.33588 4.98838 0
M  V30 4658 H 416.959 -2.0541 4.39243 0
M  V30 4659 N 418.302 -1.35869 -0.798587 0
M  V30 4660 C 419.713 -1.26498 -1.37314 0
M  V30 4661 C 420.064 0.0991899 -1.95949 0
M  V30 4662 O 419.189 1.0004 -1.91888 0
M  V30 4663 C 419.784 -2.29054 -2.49639 0
M  V30 4664 C 418.343 -2.234 -3.02935 0
M  V30 4665 C 417.49 -2.14329 -1.75949 0
M  V30 4666 H 420.441 -1.46881 -0.600971 0
M  V30 4667 H 420.462 -1.92166 -3.28409 0
M  V30 4668 H 419.974 -3.2833 -2.06933 0
M  V30 4669 H 418.075 -1.27562 -3.50084 0
M  V30 4670 H 418.188 -3.15703 -3.60372 0
M  V30 4671 H 416.552 -1.60435 -1.9782 0
M  V30 4672 H 417.335 -3.15477 -1.35384 0
M  V30 4673 N 419.78 1.02168 -1.19998 0
M  V30 4674 C 421.191 1.57135 -1.00825 0
M  V30 4675 C 421.542 1.91276 0.436818 0
M  V30 4676 O 420.667 1.71679 1.3174 0
M  V30 4677 C 421.262 2.85514 -1.82393 0
M  V30 4678 C 419.821 3.37027 -1.67601 0
M  V30 4679 C 418.968 2.10388 -1.80644 0
M  V30 4680 H 421.919 0.846106 -1.34264 0
M  V30 4681 H 421.94 3.56711 -1.32429 0
M  V30 4682 H 421.452 2.60634 -2.87561 0
M  V30 4683 H 419.553 3.66878 -0.650485 0
M  V30 4684 H 419.666 4.09572 -2.4857 0
M  V30 4685 H 418.03 2.22601 -1.23778 0
M  V30 4686 H 418.813 1.8794 -2.87286 0
M  V30 4687 N 421.258 1.00505 1.21394 0
M  V30 4688 C 422.486 0.706609 1.9446 0
M  V30 4689 C 422.901 -0.73081 1.74082 0
M  V30 4690 O 422.258 -1.49446 1.04747 0
M  V30 4691 C 422.309 1.01824 3.46863 0
M  V30 4692 O 422.03 2.39919 3.66566 0
M  V30 4693 C 423.531 0.739216 4.37093 0
M  V30 4694 H 420.751 0.260394 0.618414 0
M  V30 4695 H 423.295 1.34311 1.54211 0
M  V30 4696 H 421.45 0.427343 3.85036 0
M  V30 4697 H 421.864 2.50784 4.6066 0
M  V30 4698 H 423.338 1.00744 5.42729 0
M  V30 4699 H 423.815 -0.326746 4.37983 0
M  V30 4700 H 424.421 1.31173 4.04566 0
M  V30 4701 N 422.737 -1.36956 0.779787 0
M  V30 4702 C 423.962 -2.04283 0.358224 0
M  V30 4703 C 424.387 -1.58422 -1.01411 0
M  V30 4704 O 423.745 -0.748179 -1.65142 0
M  V30 4705 C 423.793 -3.58152 0.419479 0
M  V30 4706 O 422.897 -4.08342 -0.577142 0
M  V30 4707 H 422.238 -0.645967 0.153698 0
M  V30 4708 H 424.768 -1.75108 1.05822 0
M  V30 4709 H 424.778 -4.07041 0.279636 0
M  V30 4710 H 423.453 -3.90886 1.42061 0
M  V30 4711 H 422.03 -3.70751 -0.399755 0
M  V30 4712 N 424.215 -0.530993 -1.48385 0
M  V30 4713 C 425.44 0.000729535 -2.074 0
M  V30 4714 C 425.865 1.27298 -1.3848 0
M  V30 4715 O 425.223 1.75599 -0.451081 0
M  V30 4716 C 425.271 0.206697 -3.60007 0
M  V30 4717 O 424.375 1.27514 -3.92191 0
M  V30 4718 H 423.716 -0.039583 -0.662819 0
M  V30 4719 H 426.246 -0.739194 -1.9078 0
M  V30 4720 H 426.256 0.42904 -4.05738 0
M  V30 4721 H 424.931 -0.722675 -4.09573 0
M  V30 4722 H 423.508 1.03537 -3.58238 0
M  V30 4723 N 425.693 1.55336 -0.266172 0
M  V30 4724 C 426.921 2.03801 0.356756 0
M  V30 4725 C 427.336 1.14485 1.50129 0
M  V30 4726 O 426.693 0.163121 1.8177 0
M  V30 4727 C 426.744 3.51455 0.846281 0
M  V30 4728 O 426.465 4.37371 -0.252663 0
M  V30 4729 C 427.966 4.15767 1.53794 0
M  V30 4730 H 425.186 0.665906 0.0825218 0
M  V30 4731 H 427.73 2.00636 -0.39566 0
M  V30 4732 H 425.885 3.55092 1.54881 0
M  V30 4733 H 426.299 5.24358 0.122173 0
M  V30 4734 H 427.773 5.20714 1.83198 0
M  V30 4735 H 428.25 3.63404 2.46646 0
M  V30 4736 H 428.856 4.16107 0.879488 0
M  V30 4737 N 427.171 -0.0066808 1.57599 0
M  V30 4738 C 428.42 -0.692078 1.89455 0
M  V30 4739 C 428.733 -1.75306 0.867586 0
M  V30 4740 O 429.939 -2.49262 1.07614 0
M  V30 4741 C 428.395 -1.2821 3.36289 0
M  V30 4742 C 428.003 -0.256291 4.47266 0
M  V30 4743 C 429.747 -1.94608 3.77264 0
M  V30 4744 C 427.654 -0.855927 5.85173 0
M  V30 4745 H 426.584 -0.262252 0.706923 0
M  V30 4746 H 429.235 0.052769 1.83424 0
M  V30 4747 H 427.617 -2.0774 3.37135 0
M  V30 4748 H 428.791 0.513923 4.57925 0
M  V30 4749 H 427.106 0.306862 4.15268 0
M  V30 4750 H 429.703 -2.40364 4.77629 0
M  V30 4751 H 430.046 -2.77382 3.10427 0
M  V30 4752 H 430.579 -1.21822 3.78688 0
M  V30 4753 H 427.318 -0.0671161 6.55466 0
M  V30 4754 H 426.838 -1.59546 5.78191 0
M  V30 4755 H 428.517 -1.35658 6.32618 0
M  V30 4756 N 428.649 -1.55105 -0.279332 0
M  V30 4757 C 430.06 -1.66186 -0.850832 0
M  V30 4758 C 430.411 -0.584707 -1.87285 0
M  V30 4759 O 429.536 0.274919 -2.14647 0
M  V30 4760 C 430.131 -3.01264 -1.55001 0
M  V30 4761 C 428.69 -3.14394 -2.06963 0
M  V30 4762 C 427.837 -2.61959 -0.909536 0
M  V30 4763 H 430.788 -1.58602 -0.0558235 0
M  V30 4764 H 430.809 -2.93899 -2.41669 0
M  V30 4765 H 430.321 -3.7964 -0.805931 0
M  V30 4766 H 428.422 -2.4078 -2.84352 0
M  V30 4767 H 428.535 -4.20867 -2.28928 0
M  V30 4768 H 426.899 -2.18957 -1.30116 0
M  V30 4769 H 427.682 -3.42833 -0.179062 0
M  V30 4770 N 430.127 0.543554 -1.4793 0
M  V30 4771 C 431.057 1.65888 -1.64327 0
M  V30 4772 C 432.038 1.62818 -0.492383 0
M  V30 4773 O 433.223 1.80226 -0.723338 0
M  V30 4774 C 430.353 3.04506 -1.67013 0
M  V30 4775 C 429.307 3.2243 -2.81466 0
M  V30 4776 C 428.633 4.61972 -2.69233 0
M  V30 4777 C 429.933 3.06496 -4.22915 0
M  V30 4778 H 431.627 1.52421 -2.57698 0
M  V30 4779 H 429.173 0.731849 -1.24016 0
M  V30 4780 H 431.126 3.82391 -1.77074 0
M  V30 4781 H 429.85 3.18964 -0.70212 0
M  V30 4782 H 428.509 2.46957 -2.70938 0
M  V30 4783 H 428.157 4.73247 -1.7043 0
M  V30 4784 H 427.857 4.74911 -3.46025 0
M  V30 4785 H 429.381 5.41974 -2.81242 0
M  V30 4786 H 430.795 3.74186 -4.34348 0
M  V30 4787 H 429.192 3.30938 -5.006 0
M  V30 4788 H 430.262 2.03077 -4.40327 0
M  V30 4789 N 431.605 1.3629 0.791371 0
M  V30 4790 C 432.538 1.24816 1.9104 0
M  V30 4791 C 433.516 0.132739 1.62057 0
M  V30 4792 O 434.7 0.303527 1.8604 0
M  V30 4793 C 431.827 0.925355 3.25814 0
M  V30 4794 C 430.873 2.05495 3.7373 0
M  V30 4795 S 431.706 3.67255 3.89723 0
M  V30 4796 C 432.862 3.37084 5.27376 0
M  V30 4797 H 433.095 2.19533 2.00481 0
M  V30 4798 H 430.628 1.21684 0.950393 0
M  V30 4799 H 432.586 0.745924 4.03666 0
M  V30 4800 H 431.247 -0.00400098 3.141 0
M  V30 4801 H 430.44 1.7836 4.71385 0
M  V30 4802 H 430.042 2.1935 3.02922 0
M  V30 4803 H 432.334 2.90856 6.1189 0
M  V30 4804 H 433.277 4.33995 5.59512 0
M  V30 4805 H 433.685 2.7248 4.94383 0
M  V30 4806 N 433.083 -1.0153 1.20538 0
M  V30 4807 C 434.046 -2.0826 0.957098 0
M  V30 4808 C 435.046 -1.60657 -0.0678655 0
M  V30 4809 O 436.236 -1.73385 0.168332 0
M  V30 4810 C 433.368 -3.38033 0.441188 0
M  V30 4811 H 434.561 -2.31719 1.90384 0
M  V30 4812 H 432.114 -1.1835 1.02093 0
M  V30 4813 H 432.849 -3.20249 -0.510961 0
M  V30 4814 H 432.634 -3.73911 1.18038 0
M  V30 4815 H 434.124 -4.16613 0.287009 0
M  V30 4816 N 434.561 -1.01147 -1.20859 0
M  V30 4817 C 435.508 -0.577354 -2.23462 0
M  V30 4818 C 436.478 0.399922 -1.61214 0
M  V30 4819 O 437.663 0.300515 -1.88419 0
M  V30 4820 C 434.803 0.083372 -3.44999 0
M  V30 4821 C 433.916 -0.937856 -4.21697 0
M  V30 4822 C 433.051 -0.248717 -5.30617 0
M  V30 4823 C 432.09 -1.25705 -5.99053 0
M  V30 4824 N 431.227 -0.594939 -6.99575 0
M  V30 4825 H 436.067 -1.45695 -2.59956 0
M  V30 4826 H 433.604 -0.729428 -1.27741 0
M  V30 4827 H 435.562 0.483535 -4.14388 0
M  V30 4828 H 434.192 0.926645 -3.09214 0
M  V30 4829 H 433.244 -1.45622 -3.51423 0
M  V30 4830 H 434.556 -1.70493 -4.68757 0
M  V30 4831 H 433.71 0.207215 -6.06346 0
M  V30 4832 H 432.449 0.55071 -4.84581 0
M  V30 4833 H 431.454 -1.72343 -5.2209 0
M  V30 4834 H 432.679 -2.05767 -6.47176 0
M  V30 4835 H 430.625 0.184713 -6.5574 0
M  V30 4836 H 430.542 -1.30017 -7.44736 0
M  V30 4837 H 431.81 -0.162427 -7.79331 0
M  V30 4838 N 436.039 1.36541 -0.78704 0
M  V30 4839 C 437.269 2.03266 -0.369662 0
M  V30 4840 C 437.677 1.59481 1.01796 0
M  V30 4841 O 437.02 0.778612 1.66383 0
M  V30 4842 C 437.082 3.57779 -0.351371 0
M  V30 4843 C 436.746 4.24756 -1.68617 0
M  V30 4844 C 437.743 4.47811 -2.64124 0
M  V30 4845 C 435.428 4.62277 -1.96481 0
M  V30 4846 C 437.422 5.07464 -3.85693 0
M  V30 4847 C 435.109 5.21649 -3.18317 0
M  V30 4848 C 436.107 5.44182 -4.12741 0
M  V30 4849 O 435.795 6.02307 -5.32429 0
M  V30 4850 H 435.527 0.658977 -0.150751 0
M  V30 4851 H 438.081 1.75548 -1.0664 0
M  V30 4852 H 436.311 3.84606 0.401847 0
M  V30 4853 H 438 4.05879 0.0410147 0
M  V30 4854 H 438.766 4.19221 -2.43883 0
M  V30 4855 H 434.645 4.44065 -1.23805 0
M  V30 4856 H 438.189 5.24968 -4.59407 0
M  V30 4857 H 434.086 5.49664 -3.38437 0
M  V30 4858 H 434.854 6.20775 -5.33461 0
M  V30 4859 N 437.518 0.538854 1.48102 0
M  V30 4860 C 438.448 -0.207654 2.32575 0
M  V30 4861 C 439.429 -0.926559 1.4265 0
M  V30 4862 O 440.614 -0.91061 1.71527 0
M  V30 4863 C 437.744 -1.24957 3.24042 0
M  V30 4864 C 436.698 -0.648263 4.23062 0
M  V30 4865 C 436.024 -1.79348 5.03725 0
M  V30 4866 C 437.324 0.385897 5.20872 0
M  V30 4867 H 439.018 0.497534 2.95237 0
M  V30 4868 H 436.564 0.240715 1.41974 0
M  V30 4869 H 438.517 -1.77983 3.81969 0
M  V30 4870 H 437.241 -1.98446 2.59397 0
M  V30 4871 H 435.9 -0.139452 3.66335 0
M  V30 4872 H 435.548 -2.51696 4.35498 0
M  V30 4873 H 435.248 -1.39702 5.70751 0
M  V30 4874 H 436.772 -2.32735 5.64506 0
M  V30 4875 H 438.186 -0.057607 5.73271 0
M  V30 4876 H 436.583 0.700227 5.96001 0
M  V30 4877 H 437.653 1.28848 4.67468 0
M  V30 4878 N 438.996 -1.55193 0.274407 0
M  V30 4879 C 439.926 -2.25471 -0.607032 0
M  V30 4880 C 440.907 -1.24461 -1.15946 0
M  V30 4881 O 442.092 -1.53179 -1.19373 0
M  V30 4882 C 439.222 -2.97526 -1.79153 0
M  V30 4883 C 438.176 -4.05459 -1.37067 0
M  V30 4884 C 437.502 -4.65084 -2.6382 0
M  V30 4885 C 438.802 -5.19691 -0.521389 0
M  V30 4886 H 440.496 -2.99393 -0.0209343 0
M  V30 4887 H 438.042 -1.43997 -0.00862866 0
M  V30 4888 H 439.995 -3.45402 -2.41404 0
M  V30 4889 H 438.719 -2.21138 -2.40344 0
M  V30 4890 H 437.378 -3.58393 -0.771355 0
M  V30 4891 H 437.026 -3.85365 -3.23268 0
M  V30 4892 H 436.726 -5.37961 -2.36372 0
M  V30 4893 H 438.25 -5.15708 -3.26921 0
M  V30 4894 H 439.664 -5.63623 -1.04889 0
M  V30 4895 H 438.061 -5.99126 -0.341825 0
M  V30 4896 H 439.131 -4.82713 0.46 0
M  V30 4897 N 440.474 -0.00167713 -1.576 0
M  V30 4898 C 441.404 0.988091 -2.11563 0
M  V30 4899 C 442.385 1.35736 -1.02517 0
M  V30 4900 O 443.57 1.44082 -1.30208 0
M  V30 4901 C 440.7 2.27941 -2.62031 0
M  V30 4902 C 439.654 2.0517 -3.75619 0
M  V30 4903 C 438.98 3.4033 -4.12407 0
M  V30 4904 C 440.28 1.41294 -5.02825 0
M  V30 4905 H 441.974 0.538771 -2.94513 0
M  V30 4906 H 439.52 0.257712 -1.41675 0
M  V30 4907 H 441.473 2.97539 -2.9841 0
M  V30 4908 H 440.197 2.74989 -1.76205 0
M  V30 4909 H 438.856 1.37998 -3.39635 0
M  V30 4910 H 438.504 3.85085 -3.23603 0
M  V30 4911 H 438.204 3.25909 -4.88935 0
M  V30 4912 H 439.728 4.1124 -4.51347 0
M  V30 4913 H 441.142 2.00851 -5.36965 0
M  V30 4914 H 439.539 1.37356 -5.84169 0
M  V30 4915 H 440.609 0.382362 -4.8339 0
M  V30 4916 N 441.952 1.55251 0.271103 0
M  V30 4917 C 443.18 1.79974 1.02064 0
M  V30 4918 C 443.595 0.574003 1.79863 0
M  V30 4919 O 442.952 -0.456962 1.76686 0
M  V30 4920 C 443.003 3.02603 1.97772 0
M  V30 4921 O 442.724 4.20443 1.23124 0
M  V30 4922 C 444.225 3.39944 2.84522 0
M  V30 4923 H 441.445 0.599489 0.301419 0
M  V30 4924 H 443.989 2.02268 0.301313 0
M  V30 4925 H 442.144 2.8243 2.65165 0
M  V30 4926 H 442.558 4.89783 1.87651 0
M  V30 4927 H 444.032 4.28915 3.47471 0
M  V30 4928 H 444.509 2.59432 3.54389 0
M  V30 4929 H 445.115 3.62383 2.22618 0
M  V30 4930 N 443.43 -0.535701 1.48216 0
M  V30 4931 C 444.677 -1.29183 1.55942 0
M  V30 4932 C 445.005 -1.93125 0.230857 0
M  V30 4933 O 444.26 -1.79556 -0.778331 0
M  V30 4934 C 444.559 -2.4068 2.64212 0
M  V30 4935 C 444.225 -1.94428 4.06827 0
M  V30 4936 C 442.887 -1.81532 4.45645 0
M  V30 4937 C 445.239 -1.59405 4.96225 0
M  V30 4938 C 442.567 -1.31939 5.71672 0
M  V30 4939 C 444.919 -1.11276 6.22736 0
M  V30 4940 C 443.583 -0.969924 6.60416 0
M  V30 4941 H 442.853 -0.472715 0.570632 0
M  V30 4942 H 445.5 -0.598437 1.81909 0
M  V30 4943 H 443.805 -3.15666 2.32083 0
M  V30 4944 H 445.502 -2.98822 2.67407 0
M  V30 4945 H 442.092 -2.05415 3.76168 0
M  V30 4946 H 446.276 -1.68231 4.66917 0
M  V30 4947 H 441.532 -1.19562 5.99596 0
M  V30 4948 H 445.706 -0.832453 6.91407 0
M  V30 4949 H 443.333 -0.583436 7.57958 0
M  V30 4950 N 444.908 -1.36708 -0.784132 0
M  V30 4951 C 446.154 -1.31426 -1.54451 0
M  V30 4952 C 446.487 0.10476 -1.93917 0
M  V30 4953 O 445.762 1.05934 -1.6312 0
M  V30 4954 C 446.045 -2.24189 -2.818 0
M  V30 4955 C 445.898 -3.74813 -2.48667 0
M  V30 4956 C 447.217 -2.15626 -3.83658 0
M  V30 4957 H 444.336 -0.478739 -0.560337 0
M  V30 4958 H 446.978 -1.67305 -0.900498 0
M  V30 4959 H 445.128 -1.93722 -3.36755 0
M  V30 4960 H 446.8 -4.15823 -1.99722 0
M  V30 4961 H 445.043 -3.93989 -1.81535 0
M  V30 4962 H 445.714 -4.35138 -3.39646 0
M  V30 4963 H 448.19 -2.42456 -3.38163 0
M  V30 4964 H 447.066 -2.82694 -4.70506 0
M  V30 4965 H 447.327 -1.14522 -4.27009 0
M  V30 4966 N 446.386 1.0089 -1.21074 0
M  V30 4967 C 447.316 2.1145 -0.990523 0
M  V30 4968 C 448.297 1.69897 0.0831699 0
M  V30 4969 O 449.482 1.94052 -0.0758853 0
M  V30 4970 C 446.612 3.42914 -0.550177 0
M  V30 4971 C 445.566 3.98244 -1.56799 0
M  V30 4972 C 444.892 5.25568 -0.984013 0
M  V30 4973 C 446.192 4.30752 -2.95381 0
M  V30 4974 H 447.886 2.3013 -1.91521 0
M  V30 4975 H 445.432 1.10592 -0.92225 0
M  V30 4976 H 447.385 4.19653 -0.383305 0
M  V30 4977 H 446.109 3.24014 0.41015 0
M  V30 4978 H 444.768 3.23621 -1.72236 0
M  V30 4979 H 444.416 5.02998 -0.0155216 0
M  V30 4980 H 444.116 5.63551 -1.66384 0
M  V30 4981 H 445.64 6.04955 -0.828378 0
M  V30 4982 H 447.054 4.98349 -2.8341 0
M  V30 4983 H 445.451 4.79869 -3.60341 0
M  V30 4984 H 446.521 3.39192 -3.46521 0
M  V30 4985 N 447.864 1.01787 1.20321 0
M  V30 4986 C 448.812 0.58254 2.25187 0
M  V30 4987 C 449.806 -0.379359 1.65098 0
M  V30 4988 O 451.012 -0.249142 1.78267 0
M  V30 4989 H 447.387 0.170078 0.732514 0
M  V30 4990 H 449.358 1.47788 2.59232 0
M  V30 4991 C 448.107 -0.0620885 3.47645 0
M  V30 4992 H 447.43 0.669069 3.94162 0
M  V30 4993 H 448.87 -0.329784 4.22716 0
M  V30 4994 C 447.329 -1.3053 3.10586 0
M  V30 4995 O 447.859 -2.39848 3.22236 0
M  V30 4996 N 446.065 -1.18988 2.65123 0
M  V30 4997 H 445.612 -0.300341 2.55843 0
M  V30 4998 H 445.57 -2.02267 2.40698 0
M  V30 4999 N 449.342 -1.36122 0.79427 0
M  V30 5000 C 450.588 -1.99406 0.369452 0
M  V30 5001 C 450.921 -1.62886 -1.05743 0
M  V30 5002 O 450.196 -0.886053 -1.73145 0
M  V30 5003 C 450.479 -3.56046 0.538833 0
M  V30 5004 C 450.332 -4.02404 2.00976 0
M  V30 5005 C 451.651 -4.40079 -0.0431359 0
M  V30 5006 H 448.77 -0.724397 0.135712 0
M  V30 5007 H 451.412 -1.61461 1.00151 0
M  V30 5008 H 449.562 -3.885 0.000771004 0
M  V30 5009 H 451.234 -3.80415 2.60926 0
M  V30 5010 H 449.477 -3.53765 2.51063 0
M  V30 5011 H 450.148 -5.11344 2.07922 0
M  V30 5012 H 452.624 -4.14013 0.416228 0
M  V30 5013 H 451.5 -5.48799 0.105374 0
M  V30 5014 H 451.761 -4.27264 -1.13571 0
M  V30 5015 N 450.82 -0.546701 -1.47814 0
M  V30 5016 C 452.069 -0.0166497 -2.01693 0
M  V30 5017 C 452.382 1.33721 -1.42752 0
M  V30 5018 O 453.588 1.95658 -1.8823 0
M  V30 5019 C 452.044 0.0206769 -3.59894 0
M  V30 5020 C 451.652 -1.3293 -4.27824 0
M  V30 5021 C 453.396 0.498674 -4.21561 0
M  V30 5022 C 451.303 -1.25165 -5.78003 0
M  V30 5023 H 450.233 -0.0024541 -0.753996 0
M  V30 5024 H 452.884 -0.692984 -1.69912 0
M  V30 5025 H 451.266 0.76244 -3.88591 0
M  V30 5026 H 452.44 -2.08795 -4.10781 0
M  V30 5027 H 450.755 -1.74438 -3.78101 0
M  V30 5028 H 453.352 0.575 -5.31599 0
M  V30 5029 H 453.695 1.5083 -3.88016 0
M  V30 5030 H 454.228 -0.18791 -3.97356 0
M  V30 5031 H 450.967 -2.23695 -6.1615 0
M  V30 5032 H 450.487 -0.53464 -5.97412 0
M  V30 5033 H 452.166 -0.949299 -6.39998 0
M  V30 5034 N 452.299 1.55045 -0.282633 0
M  V30 5035 C 453.527 2.04168 0.33512 0
M  V30 5036 C 453.942 1.16071 1.48906 0
M  V30 5037 O 453.299 0.182391 1.81586 0
M  V30 5038 C 453.35 3.52332 0.808957 0
M  V30 5039 O 453.071 4.37078 -0.299038 0
M  V30 5040 C 454.572 4.17375 1.49375 0
M  V30 5041 H 451.792 0.666744 0.0754543 0
M  V30 5042 H 454.336 2.00205 -0.416918 0
M  V30 5043 H 452.491 3.56715 1.51106 0
M  V30 5044 H 452.905 5.24458 0.0665514 0
M  V30 5045 H 454.379 5.22627 1.77664 0
M  V30 5046 H 454.856 3.65999 2.42778 0
M  V30 5047 H 455.462 4.17016 0.835305 0
M  V30 5048 N 453.777 0.010035 1.57597 0
M  V30 5049 C 455.026 -0.671945 1.90178 0
M  V30 5050 C 455.339 -1.74376 0.886131 0
M  V30 5051 O 456.545 -2.48107 1.10252 0
M  V30 5052 C 455.001 -1.24636 3.3763 0
M  V30 5053 C 454.609 -0.208838 4.47513 0
M  V30 5054 C 456.353 -1.90595 3.79307 0
M  V30 5055 C 454.26 -0.793814 5.86048 0
M  V30 5056 H 453.19 -0.25474 0.709665 0
M  V30 5057 H 455.841 0.0722206 1.83358 0
M  V30 5058 H 454.223 -2.04152 3.3932 0
M  V30 5059 H 455.397 0.562463 4.57354 0
M  V30 5060 H 453.712 0.350889 4.14919 0
M  V30 5061 H 456.309 -2.35284 4.80151 0
M  V30 5062 H 456.652 -2.74074 3.13352 0
M  V30 5063 H 457.185 -1.17798 3.79958 0
M  V30 5064 H 453.924 0.00240855 6.555 0
M  V30 5065 H 453.444 -1.53404 5.79851 0
M  V30 5066 H 455.123 -1.2894 6.34022 0
M  V30 5067 N 455.255 -1.55392 -0.262866 0
M  V30 5068 C 456.185 -1.91978 -1.32917 0
M  V30 5069 C 457.166 -0.7828 -1.51017 0
M  V30 5070 O 458.351 -1.04178 -1.63892 0
M  V30 5071 C 455.481 -2.20055 -2.68687 0
M  V30 5072 C 454.435 -3.35854 -2.65304 0
M  V30 5073 C 453.761 -3.49435 -4.04721 0
M  V30 5074 C 455.061 -4.71977 -2.23685 0
M  V30 5075 H 456.755 -2.81292 -1.02544 0
M  V30 5076 H 454.301 -1.3534 -0.491846 0
M  V30 5077 H 456.254 -2.44237 -3.43404 0
M  V30 5078 H 454.978 -1.27551 -3.00663 0
M  V30 5079 H 453.637 -3.11655 -1.93045 0
M  V30 5080 H 453.285 -2.54379 -4.33936 0
M  V30 5081 H 452.985 -4.27297 -4.0335 0
M  V30 5082 H 454.509 -3.7592 -4.81161 0
M  V30 5083 H 455.923 -4.95637 -2.88127 0
M  V30 5084 H 454.32 -5.52828 -2.33456 0
M  V30 5085 H 455.39 -4.70115 -1.18827 0
M  V30 5086 N 456.733 0.527833 -1.48498 0
M  V30 5087 C 457.979 1.28545 -1.56857 0
M  V30 5088 C 458.312 1.92678 -0.242651 0
M  V30 5089 O 457.587 1.79394 0.751545 0
M  V30 5090 C 457.87 2.37314 -2.70839 0
M  V30 5091 C 457.723 1.77858 -4.13142 0
M  V30 5092 C 459.042 3.39068 -2.80573 0
M  V30 5093 H 456.161 0.466006 -0.570971 0
M  V30 5094 H 458.803 0.587784 -1.8068 0
M  V30 5095 H 456.953 2.96821 -2.50658 0
M  V30 5096 H 458.625 1.22385 -4.44769 0
M  V30 5097 H 456.868 1.08383 -4.20042 0
M  V30 5098 H 457.539 2.56624 -4.88721 0
M  V30 5099 H 460.015 2.89518 -2.98862 0
M  V30 5100 H 458.891 4.12566 -3.6205 0
M  V30 5101 H 459.152 3.9975 -1.88818 0
M  V30 5102 N 458.211 1.37122 0.776871 0
M  V30 5103 C 459.439 1.3523 1.5659 0
M  V30 5104 C 459.854 -0.0635518 1.88693 0
M  V30 5105 O 459.211 -1.02394 1.51069 0
M  V30 5106 C 459.262 2.18583 2.8793 0
M  V30 5107 O 458.983 3.5465 2.57206 0
M  V30 5108 C 460.484 2.24612 3.82183 0
M  V30 5109 H 457.704 0.4634 0.485285 0
M  V30 5110 H 460.248 1.80392 0.963266 0
M  V30 5111 H 458.403 1.76943 3.4463 0
M  V30 5112 H 458.817 3.98286 3.41275 0
M  V30 5113 H 460.291 2.87267 4.71361 0
M  V30 5114 H 460.768 1.25309 4.20944 0
M  V30 5115 H 461.374 2.66543 3.31414 0
M  V30 5116 N 459.689 -1.00246 1.21608 0
M  V30 5117 C 460.935 -1.74319 1.03638 0
M  V30 5118 C 461.268 -1.89408 -0.428749 0
M  V30 5119 O 460.543 -1.43026 -1.3181 0
M  V30 5120 C 460.826 -3.15431 1.73711 0
M  V30 5121 C 460.679 -3.08049 3.27759 0
M  V30 5122 C 461.998 -4.14407 1.48173 0
M  V30 5123 H 459.117 -0.632741 0.377899 0
M  V30 5124 H 461.759 -1.16853 1.49818 0
M  V30 5125 H 459.909 -3.64493 1.34452 0
M  V30 5126 H 461.581 -2.66681 3.76403 0
M  V30 5127 H 459.824 -2.45088 3.57931 0
M  V30 5128 H 460.495 -4.07862 3.71958 0
M  V30 5129 H 462.971 -3.74061 1.82258 0
M  V30 5130 H 461.847 -5.11279 1.99713 0
M  V30 5131 H 462.108 -4.40174 0.412273 0
M  V30 5132 N 461.167 -1.02423 -1.1978 0
M  V30 5133 C 462.416 -0.713265 -1.88667 0
M  V30 5134 C 462.729 0.7609 -1.80193 0
M  V30 5135 O 463.935 1.18473 -2.44288 0
M  V30 5136 C 462.391 -1.22545 -3.38394 0
M  V30 5137 C 461.999 -2.72706 -3.55437 0
M  V30 5138 C 463.743 -0.990257 -4.12788 0
M  V30 5139 C 461.65 -3.17367 -4.99031 0
M  V30 5140 H 460.58 -0.263105 -0.706606 0
M  V30 5141 H 463.231 -1.23792 -1.35454 0
M  V30 5142 H 461.613 -0.628732 -3.90977 0
M  V30 5143 H 462.787 -3.37993 -3.13205 0
M  V30 5144 H 461.102 -2.94453 -2.94425 0
M  V30 5145 H 463.699 -1.29926 -5.18675 0
M  V30 5146 H 464.042 0.0730761 -4.16236 0
M  V30 5147 H 464.575 -1.55074 -3.66329 0
M  V30 5148 H 461.314 -4.23009 -5.00743 0
M  V30 5149 H 460.834 -2.56805 -5.42044 0
M  V30 5150 H 462.513 -3.10441 -5.67658 0
M  V30 5151 N 462.645 1.35699 -0.801477 0
M  V30 5152 C 463.894 1.98165 -0.375979 0
M  V30 5153 C 464.207 1.64306 1.06127 0
M  V30 5154 O 465.413 2.20097 1.58964 0
M  V30 5155 C 463.869 3.54497 -0.621305 0
M  V30 5156 C 463.477 3.9727 -2.07076 0
M  V30 5157 C 465.221 4.23697 -0.26091 0
M  V30 5158 C 463.128 5.46427 -2.26211 0
M  V30 5159 H 462.058 0.741478 -0.136844 0
M  V30 5160 H 464.709 1.54834 -0.984814 0
M  V30 5161 H 463.091 3.95958 0.0574112 0
M  V30 5162 H 464.265 3.66974 -2.78687 0
M  V30 5163 H 462.58 3.40943 -2.39054 0
M  V30 5164 H 465.177 5.33334 -0.381994 0
M  V30 5165 H 465.52 4.0869 0.792344 0
M  V30 5166 H 466.053 3.87639 -0.893339 0
M  V30 5167 H 462.792 5.66396 -3.29963 0
M  V30 5168 H 462.312 5.78309 -1.59119 0
M  V30 5169 H 463.991 6.12819 -2.07513 0
M  V30 5170 N 464.123 0.554532 1.47522 0
M  V30 5171 C 465.372 0.0273458 2.01681 0
M  V30 5172 C 465.685 -1.32962 1.43459 0
M  V30 5173 O 466.891 -1.94657 1.89265 0
M  V30 5174 C 465.347 -0.00159057 3.599 0
M  V30 5175 C 464.955 1.35197 4.27113 0
M  V30 5176 C 466.699 -0.476311 4.21819 0
M  V30 5177 C 464.606 1.28229 5.77331 0
M  V30 5178 H 463.536 0.00645269 0.753972 0
M  V30 5179 H 466.187 0.701985 1.69542 0
M  V30 5180 H 464.569 -0.741821 3.8899 0
M  V30 5181 H 465.743 2.1097 4.09668 0
M  V30 5182 H 464.058 1.76441 3.77171 0
M  V30 5183 H 466.655 -0.5468 5.31897 0
M  V30 5184 H 466.998 -1.4877 3.8881 0
M  V30 5185 H 467.531 0.20898 3.97251 0
M  V30 5186 H 464.27 2.26959 6.14955 0
M  V30 5187 H 463.79 0.566314 5.97121 0
M  V30 5188 H 465.469 0.983226 6.39485 0
M  V30 5189 N 465.601 -1.54893 0.290851 0
M  V30 5190 C 466.549 -2.24579 -0.605576 0
M  V30 5191 C 467.543 -1.24824 -1.14522 0
M  V30 5192 O 468.749 -1.42706 -1.09704 0
M  V30 5193 H 465.124 -0.720946 -0.213872 0
M  V30 5194 H 467.095 -2.984 0.0048173 0
M  V30 5195 C 465.844 -2.99224 -1.77088 0
M  V30 5196 H 465.167 -3.75782 -1.36484 0
M  V30 5197 H 466.607 -3.51281 -2.3744 0
M  V30 5198 C 465.066 -2.05602 -2.66888 0
M  V30 5199 O 465.596 -1.61745 -3.67698 0
M  V30 5200 N 463.802 -1.71771 -2.34399 0
M  V30 5201 H 463.349 -2.07633 -1.52468 0
M  V30 5202 H 463.307 -1.09403 -2.94751 0
M  V30 5203 N 467.08 -0.0183926 -1.57589 0
M  V30 5204 C 468.326 0.663543 -1.91638 0
M  V30 5205 C 468.659 1.72392 -0.894134 0
M  V30 5206 O 467.934 1.94316 0.0846449 0
M  V30 5207 C 468.217 1.28984 -3.36207 0
M  V30 5208 C 468.07 0.239761 -4.49161 0
M  V30 5209 C 469.389 2.2109 -3.80536 0
M  V30 5210 H 466.508 0.239746 -0.696915 0
M  V30 5211 H 469.15 -0.073456 -1.89858 0
M  V30 5212 H 467.3 1.91799 -3.37854 0
M  V30 5213 H 468.972 -0.390119 -4.59647 0
M  V30 5214 H 467.215 -0.435972 -4.31604 0
M  V30 5215 H 467.886 0.717383 -5.47319 0
M  V30 5216 H 470.362 1.68273 -3.80557 0
M  V30 5217 H 469.238 2.61869 -4.82406 0
M  V30 5218 H 469.499 3.09764 -3.15434 0
M  V30 5219 N 468.558 1.5553 0.254621 0
M  V30 5220 C 469.788 1.80784 1.00004 0
M  V30 5221 C 470.196 0.59071 1.79742 0
M  V30 5222 O 469.539 -0.449988 1.78103 0
M  V30 5223 C 469.601 2.99268 1.99196 0
M  V30 5224 C 469.265 4.35595 1.38224 0
M  V30 5225 C 470.262 5.13884 0.788611 0
M  V30 5226 C 467.947 4.82281 1.40393 0
M  V30 5227 C 469.941 6.37004 0.224783 0
M  V30 5228 C 467.628 6.05351 0.836243 0
M  V30 5229 C 468.626 6.82551 0.24769 0
M  V30 5230 O 468.314 8.03297 -0.311249 0
M  V30 5231 H 468.046 0.60565 0.300274 0
M  V30 5232 H 470.6 2.03411 0.285143 0
M  V30 5233 H 468.83 2.72377 2.74496 0
M  V30 5234 H 470.519 3.11682 2.60018 0
M  V30 5235 H 471.285 4.78938 0.764423 0
M  V30 5236 H 467.164 4.22189 1.85142 0
M  V30 5237 H 470.708 6.97203 -0.235235 0
M  V30 5238 H 466.605 6.39776 0.857733 0
M  V30 5239 H 467.373 8.1825 -0.20237 0
M  V30 5240 N 470.036 -0.519951 1.48776 0
M  V30 5241 C 471.283 -1.27522 1.57303 0
M  V30 5242 C 471.611 -1.92869 0.251328 0
M  V30 5243 O 470.866 -1.80372 -0.759243 0
M  V30 5244 C 471.165 -2.37864 2.6675 0
M  V30 5245 C 470.831 -1.90103 4.08867 0
M  V30 5246 C 469.493 -1.76795 4.47546 0
M  V30 5247 C 471.845 -1.54133 4.97888 0
M  V30 5248 C 469.173 -1.25868 5.73039 0
M  V30 5249 C 471.525 -1.04665 6.23881 0
M  V30 5250 C 470.189 -0.899823 6.61407 0
M  V30 5251 H 469.459 -0.466636 0.575614 0
M  V30 5252 H 472.106 -0.579109 1.82534 0
M  V30 5253 H 470.411 -3.13186 2.35418 0
M  V30 5254 H 472.108 -2.95969 2.70561 0
M  V30 5255 H 468.698 -2.01414 3.78326 0
M  V30 5256 H 472.882 -1.6327 4.68675 0
M  V30 5257 H 468.138 -1.13196 6.0083 0
M  V30 5258 H 472.312 -0.759074 6.92251 0
M  V30 5259 H 469.939 -0.503011 7.58534 0
M  V30 5260 N 471.514 -1.37532 -0.769588 0
M  V30 5261 C 472.93 -1.18379 -1.07045 0
M  V30 5262 C 473.13 -0.0214312 -2.01489 0
M  V30 5263 O 472.186 0.637809 -2.44312 0
M  V30 5264 C 473.499 -2.50338 -1.66588 0
M  V30 5265 C 475.047 -2.56879 -1.78835 0
M  V30 5266 C 475.522 -3.88974 -2.41792 0
M  V30 5267 N 477.013 -3.90428 -2.4924 0
M  V30 5268 C 477.748 -4.89388 -2.98809 0
M  V30 5269 N 477.244 -5.98745 -3.48535 0
M  V30 5270 N 479.037 -4.76791 -2.97703 0
M  V30 5271 H 471.188 -2.11921 -0.142541 0
M  V30 5272 H 473.451 -0.939608 -0.125863 0
M  V30 5273 H 473.157 -3.35767 -1.0466 0
M  V30 5274 H 473.031 -2.67583 -2.65856 0
M  V30 5275 H 475.418 -1.71856 -2.39895 0
M  V30 5276 H 475.499 -2.43516 -0.783166 0
M  V30 5277 H 475.143 -4.74412 -1.81371 0
M  V30 5278 H 475.073 -3.99641 -3.4292 0
M  V30 5279 H 477.564 -3.11433 -2.14052 0
M  V30 5280 H 477.877 -6.70205 -3.84767 0
M  V30 5281 H 476.222 -6.02387 -3.46634 0
M  V30 5282 H 479.413 -3.90478 -2.58157 0
M  V30 5283 H 479.586 -5.54069 -3.36024 0
M  V30 5284 N 472.992 0.995999 -1.22138 0
M  V30 5285 C 474.24 1.73167 -1.042 0
M  V30 5286 C 474.561 1.90329 0.42423 0
M  V30 5287 O 473.831 1.4607 1.30539 0
M  V30 5288 H 472.411 0.641593 -0.38258 0
M  V30 5289 H 475.073 1.19974 -1.53598 0
M  V30 5290 H 474.169 2.72734 -1.51731 0
M  V30 5291 N 474.47 1.03057 1.19235 0
M  V30 5292 C 475.881 0.757449 1.70645 0
M  V30 5293 C 476.232 -0.722735 1.82403 0
M  V30 5294 O 475.357 -1.56325 1.49638 0
M  V30 5295 C 475.952 1.36833 3.09939 0
M  V30 5296 C 474.511 1.14375 3.58602 0
M  V30 5297 C 473.658 1.46533 2.35422 0
M  V30 5298 H 476.609 1.19828 1.04052 0
M  V30 5299 H 476.63 0.766184 3.72706 0
M  V30 5300 H 476.142 2.44562 3.01349 0
M  V30 5301 H 474.243 0.0847542 3.72504 0
M  V30 5302 H 474.356 1.83366 4.42622 0
M  V30 5303 H 472.72 0.884712 2.38841 0
M  V30 5304 H 473.503 2.55349 2.2946 0
M  V30 5305 N 475.948 -1.35272 0.808662 0
M  V30 5306 C 477.364 -1.51806 0.492653 0
M  V30 5307 C 477.564 -1.7574 -0.985778 0
M  V30 5308 O 476.62 -1.80003 -1.77074 0
M  V30 5309 C 477.933 -2.69202 1.33981 0
M  V30 5310 C 479.481 -2.8308 1.33547 0
M  V30 5311 C 479.956 -4.03502 2.16679 0
M  V30 5312 N 481.447 -4.10684 2.14227 0
M  V30 5313 C 482.182 -5.02984 2.75308 0
M  V30 5314 N 481.678 -6.00603 3.45323 0
M  V30 5315 N 483.471 -4.95746 2.64938 0
M  V30 5316 H 475.622 -1.17993 1.76611 0
M  V30 5317 H 477.885 -0.577476 0.751814 0
M  V30 5318 H 477.591 -2.581 2.38909 0
M  V30 5319 H 477.465 -3.63854 0.994491 0
M  V30 5320 H 479.852 -2.93631 0.294036 0
M  V30 5321 H 479.933 -1.89278 1.72068 0
M  V30 5322 H 479.577 -3.93711 3.20864 0
M  V30 5323 H 479.507 -4.96489 1.75517 0
M  V30 5324 H 481.998 -3.40802 1.63285 0
M  V30 5325 H 482.311 -6.67633 3.89212 0
M  V30 5326 H 480.656 -6.0077 3.49428 0
M  V30 5327 H 483.847 -4.18439 2.09825 0
M  V30 5328 H 484.02 -5.67487 3.12829 0
M  V30 5329 N 477.426 -0.562348 -1.47226 0
M  V30 5330 C 478.654 -0.0452275 -2.06851 0
M  V30 5331 C 479.069 1.25078 -1.41424 0
M  V30 5332 O 478.426 1.75156 -0.512513 0
M  V30 5333 C 478.477 0.148674 -3.61194 0
M  V30 5334 O 478.198 -1.09602 -4.24169 0
M  V30 5335 C 479.699 0.702488 -4.37699 0
M  V30 5336 H 476.919 -0.0481775 -0.669268 0
M  V30 5337 H 479.463 -0.777223 -1.89155 0
M  V30 5338 H 477.618 0.830817 -3.78386 0
M  V30 5339 H 478.032 -0.896982 -5.16773 0
M  V30 5340 H 479.506 0.78743 -5.46355 0
M  V30 5341 H 479.983 1.71493 -4.04335 0
M  V30 5342 H 480.589 0.0558772 -4.25263 0
M  V30 5343 N 478.904 1.54736 -0.299062 0
M  V30 5344 C 479.854 2.20155 0.592932 0
M  V30 5345 C 480.838 1.1739 1.10038 0
M  V30 5346 O 482.03 1.43116 1.04147 0
M  V30 5347 C 479.159 2.94437 1.76527 0
M  V30 5348 C 478.245 4.04516 1.27388 0
M  V30 5349 N 478.636 5.03319 0.500339 0
M  V30 5350 C 476.934 4.18022 1.55478 0
M  V30 5351 C 477.635 5.81209 0.238909 0
M  V30 5352 N 476.611 5.37408 0.818163 0
M  V30 5353 H 480.413 2.93899 -0.00563596 0
M  V30 5354 H 477.927 1.62068 -0.103732 0
M  V30 5355 H 479.924 3.3977 2.41582 0
M  V30 5356 H 478.584 2.22209 2.36756 0
M  V30 5357 H 479.595 5.17696 0.145419 0
M  V30 5358 H 476.272 3.56998 2.16469 0
M  V30 5359 H 477.662 6.70812 -0.382223 0
M  V30 5360 N 480.382 0.0267497 1.57577 0
M  V30 5361 C 481.798 -0.32962 1.56159 0
M  V30 5362 C 481.998 -1.73059 1.03213 0
M  V30 5363 O 481.054 -2.43233 0.677804 0
M  V30 5364 C 482.367 -0.18039 3.00158 0
M  V30 5365 C 483.915 -0.253334 3.11973 0
M  V30 5366 C 484.39 -0.132921 4.57807 0
M  V30 5367 N 485.881 -0.189979 4.6281 0
M  V30 5368 C 486.616 -0.120554 5.73273 0
M  V30 5369 N 486.112 -0.000180315 6.928 0
M  V30 5370 N 487.905 -0.174369 5.61829 0
M  V30 5371 H 480.056 0.942896 1.90324 0
M  V30 5372 H 482.319 0.3639 0.875375 0
M  V30 5373 H 482.025 0.784576 3.42837 0
M  V30 5374 H 481.899 -0.951565 3.65 0
M  V30 5375 H 484.286 -1.20876 2.69208 0
M  V30 5376 H 484.367 0.548177 2.49857 0
M  V30 5377 H 484.011 0.819073 5.01252 0
M  V30 5378 H 483.941 -0.953264 5.179 0
M  V30 5379 H 486.432 -0.283257 3.76837 0
M  V30 5380 H 486.745 0.0461666 7.72786 0
M  V30 5381 H 485.09 0.034569 6.94991 0
M  V30 5382 H 488.281 -0.266794 4.67339 0
M  V30 5383 H 488.454 -0.116802 6.47895 0
M  V30 5384 N 481.861 -1.55662 -0.24637 0
M  V30 5385 C 482.794 -1.85332 -1.33143 0
M  V30 5386 C 483.772 -0.708464 -1.46354 0
M  V30 5387 O 484.956 -0.954274 -1.6256 0
M  V30 5388 C 482.083 -2.0385 -2.70487 0
M  V30 5389 C 481.129 -3.26488 -2.74423 0
M  V30 5390 S 481.962 -4.83124 -2.30979 0
M  V30 5391 C 483.118 -5.04647 -3.70246 0
M  V30 5392 H 483.351 -2.77077 -1.07777 0
M  V30 5393 H 480.884 -1.47776 -0.44738 0
M  V30 5394 H 482.842 -2.15202 -3.49569 0
M  V30 5395 H 481.503 -1.12947 -2.9309 0
M  V30 5396 H 480.696 -3.36413 -3.7529 0
M  V30 5397 H 480.298 -3.13864 -2.03385 0
M  V30 5398 H 482.59 -4.92023 -4.65746 0
M  V30 5399 H 483.533 -6.06625 -3.65255 0
M  V30 5400 H 483.941 -4.32491 -3.62784 0
M  V30 5401 N 483.339 0.512053 -1.4905 0
M  V30 5402 C 484.75 1.09376 -1.51307 0
M  V30 5403 C 485.101 1.94 -0.292971 0
M  V30 5404 O 484.226 2.07965 0.598277 0
M  V30 5405 C 484.821 1.99031 -2.74176 0
M  V30 5406 C 483.38 2.52385 -2.79247 0
M  V30 5407 C 482.527 1.29749 -2.45073 0
M  V30 5408 H 485.478 0.296467 -1.55906 0
M  V30 5409 H 485.499 2.83569 -2.53711 0
M  V30 5410 H 485.011 1.37412 -3.62959 0
M  V30 5411 H 483.112 3.17673 -1.94716 0
M  V30 5412 H 483.225 2.90293 -3.81139 0
M  V30 5413 H 481.589 1.61912 -1.96612 0
M  V30 5414 H 482.372 0.698555 -3.36118 0
M  V30 5415 N 484.817 1.37938 0.762283 0
M  V30 5416 C 485.749 1.30349 1.88525 0
M  V30 5417 C 486.762 0.217402 1.61342 0
M  V30 5418 O 487.951 0.474291 1.72084 0
M  V30 5419 C 485.051 0.994844 3.23969 0
M  V30 5420 C 484.224 2.18829 3.78725 0
M  V30 5421 C 483.283 1.84844 4.92665 0
M  V30 5422 O 482.309 2.57244 5.07754 0
M  V30 5423 N 483.511 0.798201 5.74986 0
M  V30 5424 H 486.276 2.27114 1.95549 0
M  V30 5425 H 483.837 1.31686 0.941825 0
M  V30 5426 H 485.829 0.748168 3.97724 0
M  V30 5427 H 484.399 0.115446 3.12387 0
M  V30 5428 H 483.619 2.59615 2.96637 0
M  V30 5429 H 484.907 2.98497 4.1204 0
M  V30 5430 H 484.305 0.197611 5.65355 0
M  V30 5431 H 482.862 0.611396 6.48926 0
M  V30 5432 N 486.295 -0.989507 1.22664 0
M  V30 5433 C 487.541 -1.73298 1.06487 0
M  V30 5434 C 487.896 -1.88292 -0.395438 0
M  V30 5435 O 487.189 -1.41748 -1.28911 0
M  V30 5436 C 487.383 -3.13649 1.71345 0
M  V30 5437 C 487.212 -3.12341 3.23532 0
M  V30 5438 C 485.982 -3.18044 3.92653 0
M  V30 5439 C 488.18 -2.96226 4.20422 0
M  V30 5440 N 486.162 -3.06526 5.31898 0
M  V30 5441 C 487.533 -2.92773 5.4652 0
M  V30 5442 C 489.588 -2.80642 4.11271 0
M  V30 5443 C 488.291 -2.75332 6.64519 0
M  V30 5444 C 490.317 -2.64563 5.28924 0
M  V30 5445 C 489.679 -2.618 6.53942 0
M  V30 5446 H 485.778 -0.643643 0.444126 0
M  V30 5447 H 488.362 -1.17489 1.55256 0
M  V30 5448 H 486.533 -3.67694 1.25122 0
M  V30 5449 H 488.265 -3.76577 1.48229 0
M  V30 5450 H 485.02 -3.25861 3.43673 0
M  V30 5451 H 485.444 -3.04067 6.04874 0
M  V30 5452 H 490.086 -2.81574 3.15398 0
M  V30 5453 H 487.804 -2.73145 7.60538 0
M  V30 5454 H 491.39 -2.53482 5.23677 0
M  V30 5455 H 490.27 -2.49511 7.43447 0
M  V30 5456 N 487.773 -1.03688 -1.18687 0
M  V30 5457 C 489.019 -0.739123 -1.88851 0
M  V30 5458 C 489.352 0.731042 -1.79915 0
M  V30 5459 O 488.627 1.53313 -1.19688 0
M  V30 5460 C 488.91 -1.20106 -3.3948 0
M  V30 5461 C 488.763 -2.73304 -3.57246 0
M  V30 5462 C 490.082 -0.788134 -4.32986 0
M  V30 5463 H 487.201 -0.269978 -0.68577 0
M  V30 5464 H 489.843 -1.28822 -1.3966 0
M  V30 5465 H 487.993 -0.733915 -3.81505 0
M  V30 5466 H 489.665 -3.28027 -3.24339 0
M  V30 5467 H 487.908 -3.13313 -3.00029 0
M  V30 5468 H 488.579 -3.00684 -4.62918 0
M  V30 5469 H 491.055 -1.19005 -3.98719 0
M  V30 5470 H 489.931 -1.13915 -5.36949 0
M  V30 5471 H 490.192 0.308988 -4.41019 0
M  V30 5472 N 489.251 1.34841 -0.815825 0
M  V30 5473 C 490.667 1.51543 -0.500697 0
M  V30 5474 C 490.867 1.76261 0.976444 0
M  V30 5475 O 489.923 1.8094 1.76117 0
M  V30 5476 C 491.236 2.68487 -1.35407 0
M  V30 5477 C 492.784 2.82368 -1.35046 0
M  V30 5478 C 493.259 4.02347 -2.18816 0
M  V30 5479 N 494.75 4.09542 -2.16402 0
M  V30 5480 C 495.485 5.01517 -2.77971 0
M  V30 5481 N 494.981 5.98763 -3.48503 0
M  V30 5482 N 496.774 4.94334 -2.67563 0
M  V30 5483 H 488.925 1.17055 -1.77234 0
M  V30 5484 H 491.188 0.573481 -0.754866 0
M  V30 5485 H 490.894 2.56829 -2.40274 0
M  V30 5486 H 490.768 3.63321 -1.01377 0
M  V30 5487 H 493.155 2.93471 -0.309604 0
M  V30 5488 H 493.236 1.88363 -1.73069 0
M  V30 5489 H 492.88 3.92004 -3.22948 0
M  V30 5490 H 492.81 4.95551 -1.78148 0
M  V30 5491 H 495.301 3.39932 -1.65091 0
M  V30 5492 H 495.614 6.6556 -3.92747 0
M  V30 5493 H 493.959 5.98909 -3.52609 0
M  V30 5494 H 497.15 4.1732 -2.12041 0
M  V30 5495 H 497.323 5.6582 -3.15834 0
M  V30 5496 N 490.729 0.570148 1.46925 0
M  V30 5497 C 491.975 0.0510284 2.02736 0
M  V30 5498 C 492.308 -1.3006 1.44215 0
M  V30 5499 O 491.583 -1.84932 0.602521 0
M  V30 5500 C 491.866 -0.028215 3.60089 0
M  V30 5501 C 491.719 1.35142 4.29018 0
M  V30 5502 C 493.038 -0.735181 4.33916 0
M  V30 5503 H 490.157 0.0200178 0.736728 0
M  V30 5504 H 492.799 0.73493 1.75211 0
M  V30 5505 H 490.949 -0.610648 3.83671 0
M  V30 5506 H 492.621 1.97806 4.16738 0
M  V30 5507 H 490.864 1.9226 3.88868 0
M  V30 5508 H 491.535 1.24857 5.37694 0
M  V30 5509 H 494.011 -0.240519 4.15404 0
M  V30 5510 H 492.887 -0.759622 5.43618 0
M  V30 5511 H 493.148 -1.79397 4.04066 0
M  V30 5512 N 492.207 -1.54576 0.307264 0
M  V30 5513 C 493.453 -2.0056 -0.300612 0
M  V30 5514 C 493.786 -1.1953 -1.53057 0
M  V30 5515 O 493.061 -0.27337 -1.92569 0
M  V30 5516 C 493.344 -3.54167 -0.650987 0
M  V30 5517 C 493.197 -4.45933 0.588539 0
M  V30 5518 C 494.516 -4.14645 -1.47506 0
M  V30 5519 H 491.635 -0.729075 -0.107788 0
M  V30 5520 H 494.277 -1.85286 0.420606 0
M  V30 5521 H 492.427 -3.67313 -1.26544 0
M  V30 5522 H 494.099 -4.44683 1.22697 0
M  V30 5523 H 492.342 -4.16274 1.22058 0
M  V30 5524 H 493.013 -5.51189 0.299153 0
M  V30 5525 H 495.489 -4.04973 -0.955821 0
M  V30 5526 H 494.365 -5.22269 -1.68899 0
M  V30 5527 H 494.626 -3.66921 -2.4662 0
M  V30 5528 N 493.685 -0.035106 -1.57561 0
M  V30 5529 C 494.932 0.642229 -1.92046 0
M  V30 5530 C 495.26 1.7179 -0.91206 0
M  V30 5531 O 494.515 1.95544 0.0781153 0
M  V30 5532 C 494.814 1.29149 -3.3325 0
M  V30 5533 C 494.48 0.345604 -4.49574 0
M  V30 5534 C 493.142 0.0852775 -4.81124 0
M  V30 5535 C 495.494 -0.303569 -5.20315 0
M  V30 5536 C 492.822 -0.831927 -5.80772 0
M  V30 5537 C 495.174 -1.20886 -6.20942 0
M  V30 5538 C 493.838 -1.47802 -6.50931 0
M  V30 5539 H 493.108 0.235008 -0.702746 0
M  V30 5540 H 495.755 -0.0981529 -1.91248 0
M  V30 5541 H 494.06 2.10676 -3.30337 0
M  V30 5542 H 495.757 1.82223 -3.57205 0
M  V30 5543 H 492.347 0.558683 -4.24943 0
M  V30 5544 H 496.531 -0.115515 -4.96166 0
M  V30 5545 H 491.787 -1.0481 -6.02349 0
M  V30 5546 H 495.961 -1.71804 -6.74875 0
M  V30 5547 H 493.588 -2.19039 -7.2796 0
M  V30 5548 N 495.163 1.55791 0.238111 0
M  V30 5549 C 496.093 1.94068 1.29846 0
M  V30 5550 C 497.074 0.806726 1.49753 0
M  V30 5551 O 498.259 1.06772 1.62214 0
M  V30 5552 C 495.389 2.24302 2.65153 0
M  V30 5553 C 494.343 3.40032 2.59927 0
M  V30 5554 C 493.669 3.55829 3.99111 0
M  V30 5555 C 494.969 4.75476 2.16148 0
M  V30 5556 H 496.663 2.82887 0.980563 0
M  V30 5557 H 494.209 1.36105 0.470253 0
M  V30 5558 H 496.162 2.4967 3.39475 0
M  V30 5559 H 494.886 1.32318 2.98596 0
M  V30 5560 H 493.545 3.14687 1.88063 0
M  V30 5561 H 493.193 2.6125 4.29834 0
M  V30 5562 H 492.893 4.3366 3.96501 0
M  V30 5563 H 494.417 3.83528 4.7512 0
M  V30 5564 H 495.831 5.00158 2.80205 0
M  V30 5565 H 494.228 5.56472 2.24631 0
M  V30 5566 H 495.298 4.71946 1.11333 0
M  V30 5567 N 496.642 -0.504142 1.49319 0
M  V30 5568 C 497.574 -1.62265 1.61872 0
M  V30 5569 C 498.587 -1.54881 0.501573 0
M  V30 5570 O 499.776 -1.6087 0.773497 0
M  V30 5571 C 496.876 -3.01042 1.55651 0
M  V30 5572 C 496.049 -3.33642 2.82845 0
M  V30 5573 C 495.108 -4.51816 2.69719 0
M  V30 5574 O 494.134 -4.53755 3.4365 0
M  V30 5575 N 495.336 -5.51543 1.81055 0
M  V30 5576 H 498.101 -1.51924 2.58339 0
M  V30 5577 H 495.662 -0.691954 1.46368 0
M  V30 5578 H 497.654 -3.78013 1.44528 0
M  V30 5579 H 496.224 -3.05323 0.670546 0
M  V30 5580 H 495.444 -2.45598 3.08343 0
M  V30 5581 H 496.732 -3.5222 3.67177 0
M  V30 5582 H 496.13 -5.52774 1.20241 0
M  V30 5583 H 494.687 -6.27629 1.75856 0
M  V30 5584 N 498.12 -1.38341 -0.754957 0
M  V30 5585 C 499.367 -1.34473 -1.51404 0
M  V30 5586 C 499.695 0.0656458 -1.94389 0
M  V30 5587 O 498.95 1.04244 -1.65625 0
M  V30 5588 C 499.249 -2.2452 -2.78075 0
M  V30 5589 C 498.915 -3.72512 -2.54059 0
M  V30 5590 C 497.577 -4.1284 -2.47218 0
M  V30 5591 C 499.929 -4.66197 -2.33044 0
M  V30 5592 C 497.257 -5.44945 -2.17376 0
M  V30 5593 C 499.609 -5.98558 -2.04723 0
M  V30 5594 C 498.273 -6.37972 -1.96337 0
M  V30 5595 H 497.543 -0.492072 -0.554027 0
M  V30 5596 H 500.19 -1.70687 -0.868223 0
M  V30 5597 H 498.495 -1.81357 -3.473 0
M  V30 5598 H 500.192 -2.18832 -3.36026 0
M  V30 5599 H 496.782 -3.40538 -2.60253 0
M  V30 5600 H 500.966 -4.35888 -2.37309 0
M  V30 5601 H 496.222 -5.74426 -2.09391 0
M  V30 5602 H 500.396 -6.70693 -1.87465 0
M  V30 5603 H 498.023 -7.40258 -1.72978 0
M  V30 5604 N 499.598 0.982988 -1.23187 0
M  V30 5605 C 500.528 2.09301 -1.03515 0
M  V30 5606 C 501.509 1.70035 0.0471136 0
M  V30 5607 O 502.694 1.93847 -0.117029 0
M  V30 5608 C 499.824 3.4167 -0.622791 0
M  V30 5609 C 498.778 3.94828 -1.65211 0
M  V30 5610 C 498.104 5.23362 -1.09527 0
M  V30 5611 C 499.404 4.2439 -3.04451 0
M  V30 5612 H 501.098 2.26016 -1.96359 0
M  V30 5613 H 498.644 1.08611 -0.945501 0
M  V30 5614 H 500.597 4.18746 -0.472233 0
M  V30 5615 H 499.321 3.24811 0.341329 0
M  V30 5616 H 497.98 3.19895 -1.79061 0
M  V30 5617 H 497.628 5.02852 -0.122211 0
M  V30 5618 H 497.328 5.59895 -1.783 0
M  V30 5619 H 498.852 6.03062 -0.956511 0
M  V30 5620 H 500.266 4.92225 -2.93917 0
M  V30 5621 H 498.663 4.72118 -3.70438 0
M  V30 5622 H 499.733 3.31765 -3.53638 0
M  V30 5623 N 501.076 1.04316 1.18135 0
M  V30 5624 C 502.487 0.775505 1.69832 0
M  V30 5625 C 502.838 -0.703348 1.8316 0
M  V30 5626 O 501.963 -1.54729 1.51287 0
M  V30 5627 C 502.558 1.40112 3.0847 0
M  V30 5628 C 501.117 1.18172 3.57368 0
M  V30 5629 C 500.264 1.49022 2.33854 0
M  V30 5630 H 503.215 1.20925 1.02775 0
M  V30 5631 H 503.236 0.805672 3.71873 0
M  V30 5632 H 502.748 2.47744 2.98738 0
M  V30 5633 H 500.849 0.124258 3.72393 0
M  V30 5634 H 500.962 1.8805 4.40652 0
M  V30 5635 H 499.326 0.909995 2.37889 0
M  V30 5636 H 500.109 2.57768 2.26738 0
M  V30 5637 N 502.554 -1.34406 0.822964 0
M  V30 5638 C 503.501 -2.29519 0.24284 0
M  V30 5639 C 504.471 -1.5359 -0.632397 0
M  V30 5640 O 505.656 -1.8196 -0.57403 0
M  V30 5641 C 502.796 -3.40032 -0.58925 0
M  V30 5642 C 501.909 -4.30899 0.308236 0
M  V30 5643 C 501.044 -5.28515 -0.533425 0
M  V30 5644 C 500.083 -6.1102 0.363444 0
M  V30 5645 N 499.22 -7.00725 -0.439147 0
M  V30 5646 H 504.06 -2.78537 1.05929 0
M  V30 5647 H 501.597 -1.3707 0.533872 0
M  V30 5648 H 503.555 -4.0279 -1.087 0
M  V30 5649 H 502.185 -2.92248 -1.37081 0
M  V30 5650 H 501.237 -3.69002 0.924203 0
M  V30 5651 H 502.549 -4.88717 0.997862 0
M  V30 5652 H 501.703 -5.96725 -1.09565 0
M  V30 5653 H 500.442 -4.71235 -1.25656 0
M  V30 5654 H 499.447 -5.41743 0.937812 0
M  V30 5655 H 500.672 -6.70381 1.08469 0
M  V30 5656 H 498.618 -6.45913 -1.14595 0
M  V30 5657 H 498.535 -7.55756 0.19209 0
M  V30 5658 H 499.803 -7.73263 -0.984124 0
M  V30 5659 N 504.032 -0.577932 -1.46621 0
M  V30 5660 C 504.962 0.145917 -2.33044 0
M  V30 5661 C 505.943 0.888412 -1.45056 0
M  V30 5662 O 507.128 0.864812 -1.73881 0
M  V30 5663 C 504.258 1.16322 -3.27241 0
M  V30 5664 C 503.212 0.535868 -4.24632 0
M  V30 5665 C 502.538 1.65929 -5.08303 0
M  V30 5666 C 503.838 -0.523861 -5.19666 0
M  V30 5667 H 505.532 -0.575636 -2.93814 0
M  V30 5668 H 503.078 -0.278272 -1.41286 0
M  V30 5669 H 505.031 1.67793 -3.86553 0
M  V30 5670 H 503.755 1.91498 -2.64567 0
M  V30 5671 H 502.414 0.0422759 -3.66576 0
M  V30 5672 H 502.062 2.40061 -4.42018 0
M  V30 5673 H 501.762 1.2452 -5.74255 0
M  V30 5674 H 503.286 2.17686 -5.70478 0
M  V30 5675 H 504.7 -0.0944059 -5.73222 0
M  V30 5676 H 503.097 -0.858 -5.93935 0
M  V30 5677 H 504.167 -1.41197 -4.63887 0
M  V30 5678 N 505.51 1.54411 -0.315457 0
M  V30 5679 C 506.756 2.00716 0.289972 0
M  V30 5680 C 507.089 1.2034 1.5242 0
M  V30 5681 O 506.364 0.283579 1.92422 0
M  V30 5682 C 506.647 3.54507 0.632196 0
M  V30 5683 C 506.5 4.45615 -0.61218 0
M  V30 5684 C 507.819 4.15421 1.45305 0
M  V30 5685 H 504.938 0.729637 0.10392 0
M  V30 5686 H 507.58 1.8506 -0.430427 0
M  V30 5687 H 505.73 3.67979 1.24595 0
M  V30 5688 H 507.402 4.44026 -1.25053 0
M  V30 5689 H 505.645 4.15621 -1.24264 0
M  V30 5690 H 506.316 5.51022 -0.328379 0
M  V30 5691 H 508.792 4.05474 0.934331 0
M  V30 5692 H 507.668 5.23157 1.66127 0
M  V30 5693 H 507.929 3.68223 2.44671 0
M  V30 5694 N 506.988 0.0434614 1.5754 0
M  V30 5695 C 508.228 -0.636023 1.94253 0
M  V30 5696 C 508.592 -1.68461 0.921132 0
M  V30 5697 O 509.793 -2.41762 1.17494 0
M  V30 5698 C 508.064 -1.22357 3.35803 0
M  V30 5699 S 509.623 -1.92213 3.94461 0
M  V30 5700 H 506.441 -0.209041 0.679575 0
M  V30 5701 H 509.043 0.110556 1.95187 0
M  V30 5702 H 507.747 -0.448162 4.07946 0
M  V30 5703 H 507.278 -2.00713 3.38346 0
M  V30 5704 H 509.293 -3.20199 3.79061 0
M  V30 5705 N 508.466 -1.55915 -0.229846 0
M  V30 5706 C 509.399 -1.86734 -1.3117 0
M  V30 5707 C 510.377 -0.723947 -1.45595 0
M  V30 5708 O 511.561 -0.971462 -1.61539 0
M  V30 5709 C 508.688 -2.06707 -2.68309 0
M  V30 5710 C 507.734 -3.2938 -2.70944 0
M  V30 5711 S 508.567 -4.85547 -2.25842 0
M  V30 5712 C 509.723 -5.08546 -3.64873 0
M  V30 5713 H 509.956 -2.78204 -1.04832 0
M  V30 5714 H 507.489 -1.48243 -0.431681 0
M  V30 5715 H 509.447 -2.18898 -3.47267 0
M  V30 5716 H 508.108 -1.16049 -2.91876 0
M  V30 5717 H 507.301 -3.40374 -3.71701 0
M  V30 5718 H 506.903 -3.16004 -2.00044 0
M  V30 5719 H 509.195 -4.96935 -4.60502 0
M  V30 5720 H 510.138 -6.10465 -3.58801 0
M  V30 5721 H 510.546 -4.36314 -3.58176 0
M  V30 5722 N 509.944 0.496216 -1.49584 0
M  V30 5723 C 510.891 1.59722 -1.66606 0
M  V30 5724 C 511.861 1.58158 -0.507477 0
M  V30 5725 O 513.046 1.76072 -0.735076 0
M  V30 5726 C 510.186 2.97844 -1.74308 0
M  V30 5727 C 509.299 3.09388 -3.01502 0
M  V30 5728 C 508.434 4.38271 -3.00153 0
M  V30 5729 C 507.473 4.43466 -4.21906 0
M  V30 5730 N 506.61 5.63784 -4.1844 0
M  V30 5731 H 511.45 1.44515 -2.60613 0
M  V30 5732 H 508.987 0.703048 -1.29212 0
M  V30 5733 H 510.945 3.77907 -1.76754 0
M  V30 5734 H 509.575 3.11743 -0.837619 0
M  V30 5735 H 508.627 2.22357 -3.08645 0
M  V30 5736 H 509.939 3.09085 -3.91494 0
M  V30 5737 H 509.093 5.2666 -3.01188 0
M  V30 5738 H 507.832 4.41146 -2.07947 0
M  V30 5739 H 506.837 3.53478 -4.21109 0
M  V30 5740 H 508.062 4.42303 -5.1531 0
M  V30 5741 H 506.008 5.67491 -3.29074 0
M  V30 5742 H 505.925 5.65118 -5.02173 0
M  V30 5743 H 507.193 6.54367 -4.23585 0
M  V30 5744 N 511.423 1.38739 0.74761 0
M  V30 5745 C 512.839 1.20067 1.05148 0
M  V30 5746 C 513.039 0.0534835 2.01429 0
M  V30 5747 O 512.095 -0.59886 2.45296 0
M  V30 5748 C 513.408 2.52957 1.62584 0
M  V30 5749 C 514.956 2.59692 1.74726 0
M  V30 5750 C 515.431 3.92772 2.35573 0
M  V30 5751 N 516.922 3.94343 2.42997 0
M  V30 5752 C 517.657 4.9408 2.90985 0
M  V30 5753 N 517.153 6.04214 3.38965 0
M  V30 5754 N 518.946 4.81466 2.9008 0
M  V30 5755 H 511.097 2.12121 0.108808 0
M  V30 5756 H 513.36 0.941491 0.110899 0
M  V30 5757 H 513.066 3.37389 0.993051 0
M  V30 5758 H 512.94 2.71779 2.61565 0
M  V30 5759 H 515.327 1.75651 2.3713 0
M  V30 5760 H 515.408 2.44731 0.744326 0
M  V30 5761 H 515.052 4.77238 1.738 0
M  V30 5762 H 514.982 4.05046 3.36519 0
M  V30 5763 H 517.473 3.14799 2.0907 0
M  V30 5764 H 517.786 6.76241 3.74056 0
M  V30 5765 H 516.131 6.07825 3.37007 0
M  V30 5766 H 519.322 3.94535 2.51912 0
M  V30 5767 H 519.495 5.59344 3.27166 0
M  V30 5768 N 512.901 -0.976442 1.23707 0
M  V30 5769 C 514.312 -1.53284 1.06587 0
M  V30 5770 C 514.663 -1.92765 -0.365526 0
M  V30 5771 O 513.788 -1.7645 -1.25277 0
M  V30 5772 C 514.383 -2.78548 1.92864 0
M  V30 5773 C 512.942 -3.30574 1.79994 0
M  V30 5774 C 512.089 -2.03538 1.88328 0
M  V30 5775 H 515.04 -0.795692 1.37311 0
M  V30 5776 H 515.061 -3.5155 1.45577 0
M  V30 5777 H 514.573 -2.49782 2.97037 0
M  V30 5778 H 512.674 -3.64211 0.786202 0
M  V30 5779 H 512.787 -4.00065 2.636 0
M  V30 5780 H 511.151 -2.17853 1.31954 0
M  V30 5781 H 511.934 -1.77149 2.94063 0
M  V30 5782 N 514.379 -1.04941 -1.1758 0
M  V30 5783 C 515.326 -0.648155 -2.21512 0
M  V30 5784 C 516.296 0.348431 -1.62404 0
M  V30 5785 O 517.481 0.240419 -1.89279 0
M  V30 5786 C 514.621 -0.0264291 -3.4509 0
M  V30 5787 C 513.734 -1.07154 -4.185 0
M  V30 5788 C 512.869 -0.417403 -5.29558 0
M  V30 5789 C 511.908 -1.447 -5.94751 0
M  V30 5790 N 511.045 -0.817203 -6.97328 0
M  V30 5791 H 515.885 -1.53891 -2.55189 0
M  V30 5792 H 513.422 -0.769699 -1.25356 0
M  V30 5793 H 515.38 0.351456 -4.15717 0
M  V30 5794 H 514.01 0.827802 -3.12005 0
M  V30 5795 H 513.062 -1.56728 -3.46613 0
M  V30 5796 H 514.374 -1.8532 -4.63096 0
M  V30 5797 H 513.528 0.0142061 -6.06698 0
M  V30 5798 H 512.267 0.396265 -4.86087 0
M  V30 5799 H 511.272 -1.88865 -5.16343 0
M  V30 5800 H 512.497 -2.26252 -6.40302 0
M  V30 5801 H 510.443 -0.0239995 -6.55996 0
M  V30 5802 H 510.36 -1.53644 -7.40223 0
M  V30 5803 H 511.628 -0.410283 -7.7842 0
M  V30 5804 N 515.857 1.33968 -0.830081 0
M  V30 5805 C 517.082 2.02813 -0.433796 0
M  V30 5806 C 517.507 1.62076 0.954614 0
M  V30 5807 O 516.865 0.808955 1.62252 0
M  V30 5808 C 516.913 3.56348 -0.552115 0
M  V30 5809 O 516.017 4.10202 0.425191 0
M  V30 5810 H 515.358 0.639817 -0.177567 0
M  V30 5811 H 517.888 1.7106 -1.12248 0
M  V30 5812 H 517.898 4.05722 -0.430513 0
M  V30 5813 H 516.573 3.85344 -1.56471 0
M  V30 5814 H 515.15 3.71979 0.261878 0
M  V30 5815 N 517.335 0.585699 1.46312 0
M  V30 5816 C 518.298 -0.135673 2.28798 0
M  V30 5817 C 519.298 -0.815988 1.38558 0
M  V30 5818 O 520.488 -0.667487 1.60904 0
M  V30 5819 C 517.62 -1.20163 3.1902 0
M  V30 5820 H 518.813 0.589257 2.94054 0
M  V30 5821 H 516.366 0.343794 1.52472 0
M  V30 5822 H 517.101 -1.95804 2.58517 0
M  V30 5823 H 516.886 -0.718282 3.85465 0
M  V30 5824 H 518.376 -1.70749 3.81096 0
M  V30 5825 N 518.813 -1.54241 0.323641 0
M  V30 5826 C 520.038 -2.05452 -0.283605 0
M  V30 5827 C 520.463 -1.19823 -1.44997 0
M  V30 5828 O 519.821 -0.207358 -1.8011 0
M  V30 5829 C 519.869 -3.53823 -0.695795 0
M  V30 5830 O 518.973 -3.71134 -1.79815 0
M  V30 5831 H 518.314 -0.662024 -0.0511917 0
M  V30 5832 H 520.844 -1.99079 0.472073 0
M  V30 5833 H 520.854 -3.96094 -0.978434 0
M  V30 5834 H 519.529 -4.15602 0.157287 0
M  V30 5835 H 518.106 -3.40768 -1.51431 0
M  V30 5836 N 520.291 -0.0518155 -1.57515 0
M  V30 5837 C 521.201 0.937539 -2.15052 0
M  V30 5838 C 522.217 1.34121 -1.10849 0
M  V30 5839 O 523.393 1.418 -1.4302 0
M  V30 5840 C 520.458 2.19379 -2.68466 0
M  V30 5841 C 519.519 1.84841 -3.87469 0
M  V30 5842 C 518.752 3.04477 -4.38326 0
M  V30 5843 O 518.975 4.17868 -3.88256 0
M  V30 5844 O 517.909 2.85453 -5.29906 0
M  V30 5845 H 521.735 0.478201 -2.99912 0
M  V30 5846 H 519.32 0.17012 -1.48428 0
M  V30 5847 H 521.202 2.93084 -3.02787 0
M  V30 5848 H 519.877 2.64449 -1.86677 0
M  V30 5849 H 518.784 1.08449 -3.58036 0
M  V30 5850 H 520.117 1.44569 -4.7049 0
M  V30 5851 N 521.769 1.56035 0.221574 0
M  V30 5852 C 523.185 1.49026 0.571271 0
M  V30 5853 C 523.385 0.746912 1.87146 0
M  V30 5854 O 522.441 0.286566 2.50869 0
M  V30 5855 C 523.754 2.93579 0.650522 0
M  V30 5856 C 525.302 3.04099 0.741151 0
M  V30 5857 C 525.777 4.5001 0.851747 0
M  V30 5858 N 527.268 4.54053 0.915968 0
M  V30 5859 C 528.003 5.64232 1.02125 0
M  V30 5860 N 527.499 6.84164 1.09049 0
M  V30 5861 N 529.292 5.52084 1.05639 0
M  V30 5862 H 521.443 2.02791 -0.63162 0
M  V30 5863 H 523.706 0.921736 -0.221602 0
M  V30 5864 H 523.412 3.50912 -0.235253 0
M  V30 5865 H 523.286 3.45476 1.51413 0
M  V30 5866 H 525.673 2.4683 1.61737 0
M  V30 5867 H 525.754 2.55371 -0.148128 0
M  V30 5868 H 525.398 5.07896 -0.0200117 0
M  V30 5869 H 525.328 4.96444 1.75644 0
M  V30 5870 H 527.819 3.67683 0.872782 0
M  V30 5871 H 528.132 7.63883 1.1706 0
M  V30 5872 H 526.477 6.86875 1.05962 0
M  V30 5873 H 529.668 4.57317 0.998953 0
M  V30 5874 H 529.841 6.37983 1.13498 0
M  V30 5875 N 523.247 -0.488276 1.49845 0
M  V30 5876 C 524.472 -1.26997 1.63971 0
M  V30 5877 C 524.897 -1.85427 0.315994 0
M  V30 5878 O 524.255 -1.66475 -0.718032 0
M  V30 5879 C 524.303 -2.36689 2.72049 0
M  V30 5880 O 523.407 -3.40882 2.32107 0
M  V30 5881 H 522.748 -0.374376 0.548396 0
M  V30 5882 H 525.278 -0.583104 1.96115 0
M  V30 5883 H 525.288 -2.82262 2.94605 0
M  V30 5884 H 523.963 -1.93529 3.68129 0
M  V30 5885 H 522.54 -3.01139 2.19931 0
M  V30 5886 N 524.725 -1.39134 -0.740242 0
M  V30 5887 C 525.688 -1.37217 -1.83587 0
M  V30 5888 C 526.688 -0.270221 -1.58513 0
M  V30 5889 O 527.878 -0.527843 -1.6601 0
M  V30 5890 C 525.01 -1.13959 -3.21288 0
M  V30 5891 H 526.203 -2.34705 -1.86691 0
M  V30 5892 H 523.756 -1.24622 -0.94335 0
M  V30 5893 H 524.491 -0.17131 -3.23847 0
M  V30 5894 H 524.276 -1.93754 -3.40884 0
M  V30 5895 H 525.766 -1.15346 -4.01354 0
M  V30 5896 N 526.204 0.969867 -1.24223 0
M  V30 5897 C 527.45 1.7151 -1.08223 0
M  V30 5898 C 527.783 1.90478 0.37838 0
M  V30 5899 O 527.058 1.4647 1.27971 0
M  V30 5900 C 527.341 3.10714 -1.82013 0
M  V30 5901 C 527.194 2.9925 -3.35811 0
M  V30 5902 C 528.513 4.10332 -1.59108 0
M  V30 5903 H 525.632 0.622499 -0.394543 0
M  V30 5904 H 528.274 1.1284 -1.52863 0
M  V30 5905 H 526.424 3.608 -1.44068 0
M  V30 5906 H 528.096 2.56608 -3.83341 0
M  V30 5907 H 526.339 2.35512 -3.64303 0
M  V30 5908 H 527.01 3.97857 -3.82641 0
M  V30 5909 H 529.486 3.69097 -1.92111 0
M  V30 5910 H 528.362 5.05804 -2.13198 0
M  V30 5911 H 528.623 4.38926 -0.528832 0
M  V30 5912 N 527.682 1.05563 1.17022 0
M  V30 5913 C 529.098 0.777684 1.39371 0
M  V30 5914 C 529.298 -0.626269 1.91521 0
M  V30 5915 O 528.354 -1.38806 2.10924 0
M  V30 5916 C 529.667 1.83642 2.3811 0
M  V30 5917 C 531.215 1.85907 2.51809 0
M  V30 5918 C 531.69 2.90813 3.53824 0
M  V30 5919 N 533.181 2.898 3.61345 0
M  V30 5920 C 533.916 3.6762 4.40049 0
M  V30 5921 N 533.412 4.55237 5.22237 0
M  V30 5922 N 535.205 3.56044 4.34959 0
M  V30 5923 H 527.356 1.9614 0.815047 0
M  V30 5924 H 529.619 0.849527 0.420722 0
M  V30 5925 H 529.325 2.84425 2.06871 0
M  V30 5926 H 529.199 1.6812 3.37662 0
M  V30 5927 H 531.586 0.857865 2.82356 0
M  V30 5928 H 531.667 2.05506 1.52318 0
M  V30 5929 H 531.311 3.91122 3.24015 0
M  V30 5930 H 531.241 2.68465 4.53028 0
M  V30 5931 H 533.732 2.26274 3.02669 0
M  V30 5932 H 534.045 5.11291 5.79484 0
M  V30 5933 H 532.39 4.59296 5.21605 0
M  V30 5934 H 535.581 2.86986 3.69806 0
M  V30 5935 H 535.754 4.16938 4.96051 0
M  V30 5936 N 529.16 -1.33526 0.837174 0
M  V30 5937 C 530.385 -2.0258 0.444545 0
M  V30 5938 C 530.81 -1.6258 -0.946006 0
M  V30 5939 O 530.168 -0.817548 -1.6182 0
M  V30 5940 C 530.216 -3.5605 0.571006 0
M  V30 5941 O 529.32 -4.10422 -0.403431 0
M  V30 5942 H 528.661 -0.638866 0.180958 0
M  V30 5943 H 531.191 -1.70462 1.13154 0
M  V30 5944 H 531.201 -4.05488 0.452024 0
M  V30 5945 H 529.876 -3.84509 1.58512 0
M  V30 5946 H 528.453 -3.72113 -0.242147 0
M  V30 5947 N 530.638 -0.59345 -1.46 0
M  V30 5948 C 531.886 -0.082988 -2.0193 0
M  V30 5949 C 532.207 1.28569 -1.46612 0
M  V30 5950 O 531.477 1.84629 -0.654909 0
M  V30 5951 H 530.057 -0.0276882 -0.746487 0
M  V30 5952 H 532.719 -0.771657 -1.78973 0
M  V30 5953 H 531.815 -0.022079 -3.12092 0
M  V30 5954 N 532.116 1.54067 -0.331816 0
M  V30 5955 C 533.049 2.20886 0.573127 0
M  V30 5956 C 534.027 1.18876 1.10938 0
M  V30 5957 O 535.211 1.47649 1.17184 0
M  V30 5958 C 532.338 2.87706 1.78726 0
M  V30 5959 C 531.384 4.03505 1.38152 0
M  V30 5960 S 532.217 5.33919 0.41123 0
M  V30 5961 C 533.373 6.04236 1.63246 0
M  V30 5962 H 533.606 2.97299 0.00555737 0
M  V30 5963 H 531.139 1.53964 -0.115893 0
M  V30 5964 H 533.097 3.26825 2.48386 0
M  V30 5965 H 531.758 2.1108 2.32603 0
M  V30 5966 H 530.951 4.49152 2.28645 0
M  V30 5967 H 530.553 3.66102 0.764524 0
M  V30 5968 H 532.845 6.26917 2.56869 0
M  V30 5969 H 533.788 6.97546 1.218 0
M  V30 5970 H 534.196 5.34247 1.82318 0
M  V30 5971 N 533.594 0.0601682 1.57485 0
M  V30 5972 C 534.557 -0.896373 2.10945 0
M  V30 5973 C 535.557 -1.23402 1.03095 0
M  V30 5974 O 536.747 -1.16921 1.29132 0
M  V30 5975 C 533.879 -2.20346 2.60116 0
M  V30 5976 H 535.072 -0.432778 2.96761 0
M  V30 5977 H 532.625 -0.188372 1.55161 0
M  V30 5978 H 533.36 -2.71268 1.7772 0
M  V30 5979 H 533.145 -1.9714 3.38937 0
M  V30 5980 H 534.635 -2.88846 3.01592 0
M  V30 5981 N 535.072 -1.5615 -0.213296 0
M  V30 5982 C 536.004 -1.89586 -1.28802 0
M  V30 5983 C 537.017 -0.784844 -1.42633 0
M  V30 5984 O 538.206 -1.06319 -1.43383 0
M  V30 5985 C 535.306 -2.09665 -2.66259 0
M  V30 5986 C 534.479 -3.40726 -2.7427 0
M  V30 5987 C 533.538 -3.50137 -3.92798 0
M  V30 5988 O 532.564 -4.23105 -3.8075 0
M  V30 5989 N 533.766 -2.81886 -5.07465 0
M  V30 5990 H 536.531 -2.82368 -1.00442 0
M  V30 5991 H 534.092 -1.56796 -0.403302 0
M  V30 5992 H 536.084 -2.13268 -3.43946 0
M  V30 5993 H 534.654 -1.23469 -2.87183 0
M  V30 5994 H 533.874 -3.4915 -1.82997 0
M  V30 5995 H 535.162 -4.27048 -2.76599 0
M  V30 5996 H 534.56 -2.22397 -5.2015 0
M  V30 5997 H 533.117 -2.91139 -5.83165 0
M  V30 5998 N 536.55 0.480323 -1.50102 0
M  V30 5999 C 537.48 1.58769 -1.71215 0
M  V30 6000 C 538.461 1.60583 -0.560997 0
M  V30 6001 O 539.646 1.76996 -0.799127 0
M  V30 6002 C 536.776 2.97148 -1.79778 0
M  V30 6003 C 535.73 3.10201 -2.94888 0
M  V30 6004 C 535.056 4.50137 -2.88584 0
M  V30 6005 C 536.356 2.88283 -4.35534 0
M  V30 6006 H 538.05 1.41354 -2.6393 0
M  V30 6007 H 535.596 0.678591 -1.27008 0
M  V30 6008 H 537.549 3.74536 -1.93133 0
M  V30 6009 H 536.273 3.15699 -0.836772 0
M  V30 6010 H 534.932 2.35244 -2.81169 0
M  V30 6011 H 534.58 4.65593 -1.90349 0
M  V30 6012 H 534.28 4.59808 -3.65856 0
M  V30 6013 H 535.804 5.29558 -3.03976 0
M  V30 6014 H 537.218 3.55427 -4.49827 0
M  V30 6015 H 535.615 3.09408 -5.14186 0
M  V30 6016 H 536.685 1.84219 -4.48544 0
M  V30 6017 N 538.028 1.39524 0.732853 0
M  V30 6018 C 539.439 1.32905 1.31122 0
M  V30 6019 C 539.79 -0.00558708 1.96199 0
M  V30 6020 O 538.915 -0.907706 1.96443 0
M  V30 6021 C 539.51 2.40704 2.38426 0
M  V30 6022 C 538.069 2.37599 2.91931 0
M  V30 6023 C 537.216 2.2248 1.65523 0
M  V30 6024 H 540.167 1.49581 0.530207 0
M  V30 6025 H 540.188 2.07616 3.18867 0
M  V30 6026 H 539.7 3.37829 1.91033 0
M  V30 6027 H 537.801 1.44119 3.43599 0
M  V30 6028 H 537.914 3.32538 3.44899 0
M  V30 6029 H 536.278 1.69691 1.8994 0
M  V30 6030 H 537.061 3.21577 1.20178 0
M  V30 6031 N 539.506 -0.963266 1.24736 0
M  V30 6032 C 540.754 -1.70343 1.08755 0
M  V30 6033 C 541.075 -1.91387 -0.373619 0
M  V30 6034 O 540.345 -1.4948 -1.2662 0
M  V30 6035 H 538.925 -0.631224 0.399456 0
M  V30 6036 H 541.587 -1.15859 1.56725 0
M  V30 6037 H 540.683 -2.68616 1.58909 0
M  V30 6038 N 540.985 -1.06182 -1.16461 0
M  V30 6039 C 542.231 -0.779015 -1.87241 0
M  V30 6040 C 542.564 0.692715 -1.81425 0
M  V30 6041 O 541.839 1.5074 -1.22913 0
M  V30 6042 C 542.122 -1.2728 -3.36856 0
M  V30 6043 C 541.975 -2.80821 -3.51368 0
M  V30 6044 C 543.294 -0.879799 -4.31216 0
M  V30 6045 H 540.413 -0.284464 -0.679889 0
M  V30 6046 H 543.055 -1.31755 -1.36896 0
M  V30 6047 H 541.205 -0.814673 -3.79862 0
M  V30 6048 H 542.877 -3.34833 -3.17308 0
M  V30 6049 H 541.12 -3.19606 -2.93316 0
M  V30 6050 H 541.791 -3.10435 -4.56436 0
M  V30 6051 H 544.267 -1.27436 -3.96105 0
M  V30 6052 H 543.143 -1.25278 -5.34412 0
M  V30 6053 H 543.404 0.215372 -4.41575 0
M  V30 6054 N 542.463 1.3308 -0.844243 0
M  V30 6055 C 543.711 1.97215 -0.441676 0
M  V30 6056 C 544.032 1.67185 1.0037 0
M  V30 6057 O 543.302 0.973588 1.69994 0
M  V30 6058 H 541.882 0.72959 -0.160335 0
M  V30 6059 H 544.544 1.62348 -1.07838 0
M  V30 6060 H 543.64 3.06698 -0.57815 0
M  V30 6061 N 543.941 0.601185 1.45683 0
M  V30 6062 C 544.873 -0.159446 2.28645 0
M  V30 6063 C 545.886 -0.837882 1.39583 0
M  V30 6064 O 547.075 -0.704344 1.64016 0
M  V30 6065 C 544.175 -1.24641 3.15147 0
M  V30 6066 C 543.348 -0.656334 4.32448 0
M  V30 6067 C 542.407 -1.63337 5.00208 0
M  V30 6068 O 541.433 -1.16217 5.57209 0
M  V30 6069 N 542.635 -2.96773 4.98905 0
M  V30 6070 H 545.4 0.5524 2.94565 0
M  V30 6071 H 542.961 0.440223 1.558 0
M  V30 6072 H 544.953 -1.8997 3.57342 0
M  V30 6073 H 543.523 -1.86087 2.51178 0
M  V30 6074 H 542.743 0.174879 3.93812 0
M  V30 6075 H 544.031 -0.242211 5.08223 0
M  V30 6076 H 543.429 -3.37662 4.53873 0
M  V30 6077 H 541.986 -3.57541 5.44984 0
M  V30 6078 N 545.419 -1.53889 0.339982 0
M  V30 6079 C 546.666 -2.00855 -0.257621 0
M  V30 6080 C 546.994 -1.22788 -1.50842 0
M  V30 6081 O 546.249 -0.302567 -1.93347 0
M  V30 6082 C 546.548 -3.51968 -0.620735 0
M  V30 6083 C 546.214 -4.47741 0.532771 0
M  V30 6084 C 544.876 -4.73645 0.849339 0
M  V30 6085 C 547.228 -5.04551 1.3068 0
M  V30 6086 C 544.556 -5.53614 1.94237 0
M  V30 6087 C 546.908 -5.85713 2.39005 0
M  V30 6088 C 545.572 -6.09912 2.71225 0
M  V30 6089 H 544.842 -0.734979 -0.0942703 0
M  V30 6090 H 547.489 -1.85714 0.467159 0
M  V30 6091 H 545.794 -3.64921 -1.42618 0
M  V30 6092 H 547.491 -3.85762 -1.09495 0
M  V30 6093 H 544.081 -4.27711 0.275973 0
M  V30 6094 H 548.265 -4.84507 1.07549 0
M  V30 6095 H 543.521 -5.7059 2.19628 0
M  V30 6096 H 547.695 -6.28748 2.99415 0
M  V30 6097 H 545.322 -6.71665 3.56047 0
M  V30 6098 N 546.897 -0.0685191 -1.57451 0
M  V30 6099 C 548.125 0.610462 -1.97689 0
M  V30 6100 C 548.54 1.63346 -0.946758 0
M  V30 6101 O 547.897 1.82377 0.0669868 0
M  V30 6102 C 547.948 1.28196 -3.38006 0
M  V30 6103 O 547.669 0.299906 -4.37072 0
M  V30 6104 C 549.17 2.04907 -3.931 0
M  V30 6105 H 546.39 0.165689 -0.650222 0
M  V30 6106 H 548.934 -0.139953 -2.04021 0
M  V30 6107 H 547.089 1.98348 -3.32771 0
M  V30 6108 H 547.503 0.78126 -5.18649 0
M  V30 6109 H 548.977 2.47287 -4.93511 0
M  V30 6110 H 549.454 2.9043 -3.29465 0
M  V30 6111 H 550.06 1.39629 -4.01726 0
M  V30 6112 N 548.375 1.56261 0.205012 0
M  V30 6113 C 549.305 1.96779 1.257 0
M  V30 6114 C 550.286 0.838309 1.48008 0
M  V30 6115 O 551.471 1.10189 1.59913 0
M  V30 6116 C 548.601 2.29876 2.60335 0
M  V30 6117 C 547.555 3.45469 2.52656 0
M  V30 6118 C 546.881 3.64215 3.91473 0
M  V30 6119 C 548.181 4.79954 2.06014 0
M  V30 6120 H 549.875 2.84904 0.920338 0
M  V30 6121 H 547.421 1.37072 0.441277 0
M  V30 6122 H 549.374 2.56814 3.34102 0
M  V30 6123 H 548.098 1.38622 2.95722 0
M  V30 6124 H 546.757 3.18605 1.81345 0
M  V30 6125 H 546.405 2.70309 4.24196 0
M  V30 6126 H 546.105 4.41973 3.87213 0
M  V30 6127 H 547.629 3.93519 4.66878 0
M  V30 6128 H 549.043 5.05989 2.69533 0
M  V30 6129 H 547.44 5.61111 2.12777 0
M  V30 6130 H 548.51 4.74201 1.01297 0
M  V30 6131 N 549.853 -0.472356 1.50355 0
M  V30 6132 C 551.078 -1.25251 1.65309 0
M  V30 6133 C 551.503 -1.85081 0.335643 0
M  V30 6134 O 550.861 -1.67227 -0.700335 0
M  V30 6135 C 550.909 -2.3379 2.74544 0
M  V30 6136 O 550.013 -3.38401 2.35709 0
M  V30 6137 H 549.354 -0.368539 0.552336 0
M  V30 6138 H 551.884 -0.562271 1.96722 0
M  V30 6139 H 551.894 -2.79121 2.97583 0
M  V30 6140 H 550.569 -1.89614 3.70161 0
M  V30 6141 H 549.146 -2.9879 2.23112 0
M  V30 6142 N 551.331 -1.39911 -0.725443 0
M  V30 6143 C 552.742 -1.33599 -1.30415 0
M  V30 6144 C 553.093 -0.00481792 -1.96199 0
M  V30 6145 O 552.218 0.897275 -1.96921 0
M  V30 6146 C 552.813 -2.41965 -2.37146 0
M  V30 6147 C 551.372 -2.39144 -2.90667 0
M  V30 6148 C 550.519 -2.23355 -1.64341 0
M  V30 6149 H 553.47 -1.4986 -0.522267 0
M  V30 6150 H 553.491 -2.09304 -3.17761 0
M  V30 6151 H 553.003 -3.38837 -1.89238 0
M  V30 6152 H 551.104 -1.4594 -3.4283 0
M  V30 6153 H 551.217 -3.34362 -3.43131 0
M  V30 6154 H 549.581 -1.70696 -1.89037 0
M  V30 6155 H 550.364 -3.2221 -1.18471 0
M  V30 6156 N 552.809 0.956637 -1.25245 0
M  V30 6157 C 554.034 1.74104 -1.12706 0
M  V30 6158 C 554.459 1.85436 0.315429 0
M  V30 6159 O 553.817 1.33334 1.22848 0
M  V30 6160 C 553.865 3.1338 -1.78396 0
M  V30 6161 O 552.969 3.98485 -1.06224 0
M  V30 6162 H 552.31 0.53476 -0.393609 0
M  V30 6163 H 554.84 1.19924 -1.65769 0
M  V30 6164 H 554.85 3.6385 -1.846 0
M  V30 6165 H 553.525 3.04448 -2.83345 0
M  V30 6166 H 552.102 3.56952 -1.07886 0
M  V30 6167 N 554.287 1.06798 1.15896 0
M  V30 6168 C 555.25 0.687328 2.18651 0
M  V30 6169 C 556.25 -0.269559 1.58524 0
M  V30 6170 O 557.44 -0.0512627 1.74125 0
M  V30 6171 C 554.572 0.0121642 3.40898 0
M  V30 6172 H 555.765 1.59701 2.53842 0
M  V30 6173 H 553.318 0.863828 1.3026 0
M  V30 6174 H 554.053 -0.910025 3.1127 0
M  V30 6175 H 553.838 0.700309 3.85795 0
M  V30 6176 H 555.328 -0.239703 4.16911 0
M  V30 6177 N 555.766 -1.3263 0.851289 0
M  V30 6178 C 556.716 -2.26451 0.265302 0
M  V30 6179 C 557.7 -1.49814 -0.586899 0
M  V30 6180 O 558.892 -1.71525 -0.436834 0
M  V30 6181 C 556.021 -3.38895 -0.548212 0
M  V30 6182 C 555.107 -4.2292 0.316189 0
M  V30 6183 N 555.498 -4.86014 1.40084 0
M  V30 6184 C 553.796 -4.45876 0.105356 0
M  V30 6185 C 554.497 -5.48667 1.93235 0
M  V30 6186 N 553.473 -5.29455 1.232 0
M  V30 6187 H 557.275 -2.72757 1.09457 0
M  V30 6188 H 554.789 -1.4668 0.697047 0
M  V30 6189 H 556.786 -4.05111 -0.984402 0
M  V30 6190 H 555.446 -2.94135 -1.37531 0
M  V30 6191 H 556.457 -4.86212 1.78377 0
M  V30 6192 H 553.134 -4.11804 -0.687299 0
M  V30 6193 H 554.524 -6.08865 2.84135 0
M  V30 6194 N 557.244 -0.608902 -1.45362 0
M  V30 6195 C 558.194 0.130616 -2.27626 0
M  V30 6196 C 559.178 0.837323 -1.37396 0
M  V30 6197 O 560.37 0.727096 -1.61376 0
M  V30 6198 C 557.499 1.12646 -3.24293 0
M  V30 6199 C 556.585 0.42052 -4.2201 0
M  V30 6200 N 556.976 -0.538569 -5.02925 0
M  V30 6201 C 555.274 0.667901 -4.40971 0
M  V30 6202 C 555.975 -0.953625 -5.7383 0
M  V30 6203 N 554.951 -0.297097 -5.42788 0
M  V30 6204 H 558.753 -0.605996 -2.87585 0
M  V30 6205 H 556.267 -0.432672 -1.5653 0
M  V30 6206 H 558.264 1.67066 -3.81961 0
M  V30 6207 H 556.924 1.86361 -2.65894 0
M  V30 6208 H 557.935 -0.915375 -5.09746 0
M  V30 6209 H 554.612 1.38963 -3.93695 0
M  V30 6210 H 556.002 -1.74473 -6.48852 0
M  V30 6211 N 558.722 1.53707 -0.348139 0
M  V30 6212 C 560.133 1.86213 0.134797 0
M  V30 6213 C 560.484 1.26925 1.49614 0
M  V30 6214 O 559.609 0.584573 2.08355 0
M  V30 6215 C 560.204 3.37866 0.251371 0
M  V30 6216 C 558.763 3.70233 0.678543 0
M  V30 6217 C 557.91 2.76683 -0.184925 0
M  V30 6218 H 560.861 1.48204 -0.567571 0
M  V30 6219 H 560.882 3.64908 1.07806 0
M  V30 6220 H 560.394 3.80988 -0.739581 0
M  V30 6221 H 558.495 3.32659 1.67835 0
M  V30 6222 H 558.608 4.76836 0.465251 0
M  V30 6223 H 556.972 2.52374 0.343465 0
M  V30 6224 H 557.755 3.22635 -1.1731 0
M  V30 6225 N 560.2 0.0768682 1.57412 0
M  V30 6226 C 561.13 -0.886026 2.16037 0
M  V30 6227 C 562.111 -1.30691 1.08876 0
M  V30 6228 O 563.296 -1.37705 1.36934 0
M  V30 6229 C 560.426 -2.1518 2.72608 0
M  V30 6230 C 559.38 -1.87015 3.8498 0
M  V30 6231 C 558.706 -3.20266 4.28175 0
M  V30 6232 C 560.006 -1.17143 5.08994 0
M  V30 6233 H 561.7 -0.397642 2.96748 0
M  V30 6234 H 559.246 -0.189823 1.42743 0
M  V30 6235 H 561.199 -2.82962 3.12266 0
M  V30 6236 H 559.923 -2.66269 1.89125 0
M  V30 6237 H 558.582 -1.21636 3.45833 0
M  V30 6238 H 558.23 -3.69207 3.41607 0
M  V30 6239 H 557.93 -3.0221 5.03927 0
M  V30 6240 H 559.454 -3.89237 4.70454 0
M  V30 6241 H 560.868 -1.75003 5.45937 0
M  V30 6242 H 559.265 -1.09328 5.90057 0
M  V30 6243 H 560.335 -0.151295 4.84664 0
M  V30 6244 N 561.678 -1.56367 -0.196722 0
M  V30 6245 C 562.918 -1.82315 -0.92415 0
M  V30 6246 C 563.282 -0.654117 -1.80514 0
M  V30 6247 O 564.483 -0.79345 -2.56823 0
M  V30 6248 C 562.754 -3.13279 -1.72021 0
M  V30 6249 S 564.313 -3.60627 -2.49988 0
M  V30 6250 H 561.131 -0.639862 -0.309997 0
M  V30 6251 H 563.733 -1.94597 -0.187684 0
M  V30 6252 H 562.437 -3.96379 -1.06358 0
M  V30 6253 H 561.968 -3.03871 -2.49852 0
M  V30 6254 H 563.983 -3.25934 -3.74141 0
M  V30 6255 N 563.156 0.464375 -1.50603 0
M  V30 6256 C 564.567 1.04507 -1.5471 0
M  V30 6257 C 564.918 1.9297 -0.354542 0
M  V30 6258 O 564.043 2.09763 0.531812 0
M  V30 6259 C 564.638 1.90207 -2.80369 0
M  V30 6260 C 563.197 2.43373 -2.87135 0
M  V30 6261 C 562.344 1.21886 -2.49076 0
M  V30 6262 H 565.295 0.246716 -1.56771 0
M  V30 6263 H 565.316 2.75353 -2.62604 0
M  V30 6264 H 564.828 1.25796 -3.67147 0
M  V30 6265 H 562.929 3.11318 -2.04724 0
M  V30 6266 H 563.042 2.7802 -3.90181 0
M  V30 6267 H 561.406 1.55575 -2.01664 0
M  V30 6268 H 562.189 0.591268 -3.3817 0
M  V30 6269 N 564.634 1.40294 0.718013 0
M  V30 6270 C 565.859 1.41941 1.5122 0
M  V30 6271 C 566.284 0.0202371 1.88089 0
M  V30 6272 O 565.642 -0.971078 1.53101 0
M  V30 6273 C 565.69 2.3141 2.76554 0
M  V30 6274 O 564.794 1.75567 3.73162 0
M  V30 6275 H 564.135 0.482644 0.456016 0
M  V30 6276 H 566.665 1.84494 0.884478 0
M  V30 6277 H 566.675 2.46513 3.25108 0
M  V30 6278 H 565.35 3.33085 2.49053 0
M  V30 6279 H 563.927 1.69798 3.31999 0
M  V30 6280 N 566.112 -0.949982 1.2575 0
M  V30 6281 C 567.075 -2.02894 1.06615 0
M  V30 6282 C 568.075 -1.60791 0.0173905 0
M  V30 6283 O 569.265 -1.72249 0.260003 0
M  V30 6284 C 566.397 -3.35219 0.619751 0
M  V30 6285 H 567.59 -2.21302 2.02399 0
M  V30 6286 H 565.143 -1.12772 1.08223 0
M  V30 6287 H 565.878 -3.22508 -0.340486 0
M  V30 6288 H 565.663 -3.67129 1.37692 0
M  V30 6289 H 567.153 -4.14505 0.507443 0
M  V30 6290 N 567.59 -1.07411 -1.15328 0
M  V30 6291 C 568.867 -0.710732 -1.82231 0
M  V30 6292 C 569.247 0.806732 -1.95077 0
M  V30 6293 O 568.595 1.72139 -1.50268 0
M  V30 6294 C 568.805 -1.42586 -3.18544 0
M  V30 6295 C 570.153 -1.57836 -3.94174 0
M  V30 6296 O 571.177 -1.38669 -3.281 0
M  V30 6297 O 570.036 -1.8938 -5.12638 0
M  V30 6298 H 567.13 -0.25297 -0.78736 0
M  V30 6299 H 569.676 -1.17508 -1.22434 0
M  V30 6300 H 568.448 -2.46008 -3.04296 0
M  V30 6301 H 568.071 -0.952332 -3.86026 0
M  V30 6302 N 569.068 1.32177 -0.85831 0
M  V30 6303 C 570.345 1.91781 -0.384624 0
M  V30 6304 C 570.725 1.78171 1.13217 0
M  V30 6305 O 570.073 1.18209 1.95548 0
M  V30 6306 C 570.283 3.38414 -0.853047 0
M  V30 6307 C 571.631 4.15542 -0.872359 0
M  V30 6308 O 572.655 3.47148 -0.797926 0
M  V30 6309 O 571.514 5.37678 -0.978009 0
M  V30 6310 H 568.608 0.819259 -0.112886 0
M  V30 6311 H 571.154 1.40923 -0.945453 0
M  V30 6312 H 569.926 3.4228 -1.89632 0
M  V30 6313 H 569.549 3.96683 -0.269874 0
M  V30 6314 N 570.547 0.616602 1.45037 0
M  V30 6315 C 571.963 0.280994 1.57107 0
M  V30 6316 C 572.163 -1.21627 1.60653 0
M  V30 6317 O 571.219 -1.9997 1.54169 0
M  V30 6318 C 572.532 0.960116 2.8496 0
M  V30 6319 C 574.08 0.936884 2.98649 0
M  V30 6320 C 574.555 1.59619 4.29285 0
M  V30 6321 N 576.046 1.5621 4.36065 0
M  V30 6322 C 576.781 2.04131 5.35834 0
M  V30 6323 N 576.277 2.60177 6.4209 0
M  V30 6324 N 578.07 1.94845 5.27249 0
M  V30 6325 H 570.221 1.58867 1.40979 0
M  V30 6326 H 572.484 0.666024 0.674623 0
M  V30 6327 H 572.19 2.01473 2.88273 0
M  V30 6328 H 572.064 0.488921 3.74018 0
M  V30 6329 H 574.451 -0.109209 2.94898 0
M  V30 6330 H 574.532 1.44643 2.10979 0
M  V30 6331 H 574.176 2.64166 4.33796 0
M  V30 6332 H 574.106 1.06159 5.15789 0
M  V30 6333 H 576.597 1.15276 3.59889 0
M  V30 6334 H 576.91 2.94513 7.1448 0
M  V30 6335 H 575.255 2.64221 6.42816 0
M  V30 6336 H 578.446 1.50792 4.43147 0
M  V30 6337 H 578.619 2.32504 6.04852 0
M  V30 6338 N 572.025 -1.5352 0.356285 0
M  V30 6339 C 573.253 -2.05534 -0.237328 0
M  V30 6340 C 573.668 -1.23043 -1.43199 0
M  V30 6341 O 573.025 -0.268821 -1.80509 0
M  V30 6342 C 573.076 -3.55791 -0.639933 0
M  V30 6343 O 572.797 -4.35154 0.507233 0
M  V30 6344 C 574.298 -4.24027 -1.29292 0
M  V30 6345 H 571.518 -0.669585 -0.0435572 0
M  V30 6346 H 574.062 -1.97988 0.511963 0
M  V30 6347 H 572.217 -3.63518 -1.33915 0
M  V30 6348 H 572.631 -5.24178 0.18375 0
M  V30 6349 H 574.105 -5.30509 -1.52527 0
M  V30 6350 H 574.582 -3.77166 -2.25039 0
M  V30 6351 H 575.188 -4.20527 -0.63539 0
M  V30 6352 N 573.503 -0.0852151 -1.57369 0
M  V30 6353 C 574.731 0.58946 -1.98325 0
M  V30 6354 C 575.146 1.62333 -0.96403 0
M  V30 6355 O 574.503 1.82438 0.0476395 0
M  V30 6356 C 574.554 1.24604 -3.39347 0
M  V30 6357 O 574.275 0.253532 -4.37366 0
M  V30 6358 C 575.776 2.00726 -3.95252 0
M  V30 6359 H 572.996 0.158783 -0.651942 0
M  V30 6360 H 575.54 -0.161584 -2.03861 0
M  V30 6361 H 573.695 1.94808 -3.34856 0
M  V30 6362 H 574.109 0.726207 -5.19448 0
M  V30 6363 H 575.583 2.42039 -4.96106 0
M  V30 6364 H 576.06 2.86919 -3.32527 0
M  V30 6365 H 576.666 1.3536 -4.03185 0
M  V30 6366 N 574.981 1.5647 0.188427 0
M  V30 6367 C 576.209 1.85131 0.923803 0
M  V30 6368 C 576.624 0.668537 1.76567 0
M  V30 6369 O 575.981 -0.362662 1.7886 0
M  V30 6370 C 576.032 3.12661 1.81453 0
M  V30 6371 O 575.753 4.26378 1.00665 0
M  V30 6372 C 577.254 3.54548 2.66103 0
M  V30 6373 H 574.474 0.614624 0.269218 0
M  V30 6374 H 577.018 2.03581 0.193671 0
M  V30 6375 H 575.173 2.96088 2.49821 0
M  V30 6376 H 575.587 4.99041 1.61425 0
M  V30 6377 H 577.061 4.4673 3.24247 0
M  V30 6378 H 577.538 2.77853 3.40139 0
M  V30 6379 H 578.144 3.73674 2.03096 0
M  V30 6380 N 576.459 -0.456382 1.50847 0
M  V30 6381 C 577.708 -1.2042 1.61808 0
M  V30 6382 C 578.021 -1.9278 0.330932 0
M  V30 6383 O 579.227 -2.69612 0.319643 0
M  V30 6384 C 577.683 -2.18891 2.85683 0
M  V30 6385 C 577.291 -1.52267 4.2133 0
M  V30 6386 C 579.035 -2.94224 3.05994 0
M  V30 6387 C 576.942 -2.4911 5.36375 0
M  V30 6388 H 575.872 -0.453177 0.602616 0
M  V30 6389 H 578.523 -0.473144 1.77295 0
M  V30 6390 H 576.905 -2.95351 2.63787 0
M  V30 6391 H 578.079 -0.814949 4.53536 0
M  V30 6392 H 576.394 -0.891594 4.06743 0
M  V30 6393 H 578.991 -3.66732 3.89117 0
M  V30 6394 H 579.334 -3.54469 2.18306 0
M  V30 6395 H 579.867 -2.24874 3.28141 0
M  V30 6396 H 576.606 -1.93582 6.26264 0
M  V30 6397 H 576.126 -3.17991 5.08569 0
M  V30 6398 H 577.805 -3.10637 5.67551 0
M  V30 6399 N 577.937 -1.40673 -0.710563 0
M  V30 6400 C 579.353 -1.22813 -1.01928 0
M  V30 6401 C 579.553 -0.10687 -2.01216 0
M  V30 6402 O 578.609 0.533614 -2.46797 0
M  V30 6403 C 579.922 -2.57178 -1.5582 0
M  V30 6404 C 581.47 -2.64233 -1.67779 0
M  V30 6405 C 581.945 -3.98879 -2.25076 0
M  V30 6406 N 583.436 -4.00647 -2.32456 0
M  V30 6407 C 584.171 -5.01621 -2.77784 0
M  V30 6408 N 583.667 -6.12989 -3.22826 0
M  V30 6409 N 585.46 -4.88988 -2.77213 0
M  V30 6410 H 577.611 -2.12335 -0.05253 0
M  V30 6411 H 579.874 -0.9441 -0.085898 0
M  V30 6412 H 579.58 -3.39903 -0.903249 0
M  V30 6413 H 579.454 -2.78618 -2.54267 0
M  V30 6414 H 581.841 -1.81876 -2.3239 0
M  V30 6415 H 581.922 -2.46619 -0.679178 0
M  V30 6416 H 581.566 -4.81678 -1.61086 0
M  V30 6417 H 581.496 -4.13826 -3.25661 0
M  V30 6418 H 583.987 -3.20231 -2.0065 0
M  V30 6419 H 584.3 -6.85921 -3.55995 0
M  V30 6420 H 582.645 -6.16547 -3.20773 0
M  V30 6421 H 585.836 -4.01075 -2.41363 0
M  V30 6422 H 586.009 -5.67822 -3.12221 0
M  V30 6423 N 579.415 0.9433 -1.26252 0
M  V30 6424 C 580.363 2.06302 -1.07434 0
M  V30 6425 C 581.357 1.694 -0.00189471 0
M  V30 6426 O 582.563 1.79302 -0.158408 0
M  V30 6427 H 578.938 0.675453 -0.330556 0
M  V30 6428 H 580.909 2.19326 -2.02333 0
M  V30 6429 C 579.658 3.40125 -0.721817 0
M  V30 6430 H 578.981 3.68996 -1.5389 0
M  V30 6431 H 580.421 4.19295 -0.629922 0
M  V30 6432 C 578.88 3.31993 0.572902 0
M  V30 6433 O 579.41 3.67945 1.61182 0
M  V30 6434 N 577.616 2.85099 0.562748 0
M  V30 6435 H 577.163 2.5604 -0.283092 0
M  V30 6436 H 577.121 2.80041 1.42915 0
M  V30 6437 N 580.893 1.08022 1.14757 0
M  V30 6438 C 582.121 0.828847 1.89572 0
M  V30 6439 C 582.536 -0.618621 1.78377 0
M  V30 6440 O 581.893 -1.42482 1.1404 0
M  V30 6441 C 581.944 1.23677 3.39685 0
M  V30 6442 O 581.665 2.62746 3.50566 0
M  V30 6443 C 583.166 1.01569 4.31507 0
M  V30 6444 H 580.386 0.299196 0.600602 0
M  V30 6445 H 582.93 1.43846 1.45357 0
M  V30 6446 H 581.085 0.671347 3.81539 0
M  V30 6447 H 581.499 2.79573 4.43778 0
M  V30 6448 H 582.973 1.35055 5.35223 0
M  V30 6449 H 583.45 -0.0475433 4.39174 0
M  V30 6450 H 584.056 1.56636 3.95405 0
M  V30 6451 N 582.371 -1.3172 0.865308 0
M  V30 6452 C 583.334 -2.26918 0.322627 0
M  V30 6453 C 584.334 -1.52031 -0.523751 0
M  V30 6454 O 585.524 -1.70973 -0.333727 0
M  V30 6455 C 582.656 -3.36558 -0.542338 0
M  V30 6456 H 583.849 -2.76432 1.16298 0
M  V30 6457 H 581.402 -1.42573 0.640512 0
M  V30 6458 H 582.137 -2.92329 -1.40407 0
M  V30 6459 H 581.922 -3.92048 0.0636395 0
M  V30 6460 H 583.412 -4.07465 -0.91446 0
M  V30 6461 N 583.85 -0.624285 -1.44708 0
M  V30 6462 C 585.075 -0.131171 -2.06985 0
M  V30 6463 C 585.5 1.18234 -1.46295 0
M  V30 6464 O 584.858 1.72375 -0.561842 0
M  V30 6465 C 584.906 -0.0226724 -3.60593 0
M  V30 6466 O 584.01 1.02314 -3.99507 0
M  V30 6467 H 583.351 -0.0816556 -0.65896 0
M  V30 6468 H 585.88 -0.859027 -1.85693 0
M  V30 6469 H 585.891 0.170138 -4.07645 0
M  V30 6470 H 584.566 -0.981685 -4.04148 0
M  V30 6471 H 583.143 0.805452 -3.64097 0
M  V30 6472 N 585.328 1.53329 -0.364422 0
M  V30 6473 C 586.276 2.27212 0.497737 0
M  V30 6474 C 587.27 1.30146 1.08437 0
M  V30 6475 O 588.476 1.47778 1.0277 0
M  V30 6476 H 584.851 0.730329 0.179232 0
M  V30 6477 H 586.822 2.98037 -0.147182 0
M  V30 6478 C 585.571 3.07333 1.6261 0
M  V30 6479 H 584.894 3.81866 1.184 0
M  V30 6480 H 586.334 3.62209 2.20409 0
M  V30 6481 C 584.793 2.18102 2.56775 0
M  V30 6482 O 585.323 1.79104 3.59562 0
M  V30 6483 N 583.529 1.82759 2.25937 0
M  V30 6484 H 583.076 2.14671 1.42387 0
M  V30 6485 H 583.034 1.23342 2.89196 0
M  V30 6486 N 586.806 0.0935595 1.57322 0
M  V30 6487 C 587.716 -0.880192 2.17462 0
M  V30 6488 C 588.732 -1.31135 1.14366 0
M  V30 6489 O 589.908 -1.37958 1.46729 0
M  V30 6490 C 586.973 -2.12184 2.74188 0
M  V30 6491 C 586.034 -1.74503 3.92234 0
M  V30 6492 C 585.267 -2.92748 4.46245 0
M  V30 6493 O 585.49 -4.07427 3.99198 0
M  V30 6494 O 584.424 -2.71303 5.37288 0
M  V30 6495 H 588.25 -0.398516 3.01074 0
M  V30 6496 H 585.835 -0.130707 1.48827 0
M  V30 6497 H 587.717 -2.84953 3.10451 0
M  V30 6498 H 586.392 -2.59407 1.93623 0
M  V30 6499 H 585.299 -0.989186 3.60785 0
M  V30 6500 H 586.632 -1.32044 4.74157 0
M  V30 6501 N 588.284 -1.56567 -0.180126 0
M  V30 6502 C 589.512 -1.85618 -0.913972 0
M  V30 6503 C 589.927 -0.677892 -1.7621 0
M  V30 6504 O 589.284 0.353171 -1.7905 0
M  V30 6505 C 589.335 -3.13619 -1.79793 0
M  V30 6506 O 589.056 -4.26906 -0.98402 0
M  V30 6507 C 590.557 -3.55954 -2.64219 0
M  V30 6508 H 587.777 -0.616043 -0.265954 0
M  V30 6509 H 590.321 -2.03681 -0.182872 0
M  V30 6510 H 588.476 -2.97409 -2.48247 0
M  V30 6511 H 588.89 -4.9989 -1.58776 0
M  V30 6512 H 590.364 -4.48444 -3.21873 0
M  V30 6513 H 590.841 -2.79653 -3.38661 0
M  V30 6514 H 591.447 -3.74746 -2.01111 0
M  V30 6515 N 589.762 0.448376 -1.51087 0
M  V30 6516 C 590.987 1.22605 -1.6728 0
M  V30 6517 C 591.412 1.84524 -0.365045 0
M  V30 6518 O 590.77 1.6832 0.673642 0
M  V30 6519 C 590.818 2.29393 -2.78229 0
M  V30 6520 O 589.922 3.34608 -2.41063 0
M  V30 6521 H 589.263 0.359705 -0.558129 0
M  V30 6522 H 591.793 0.530903 -1.97592 0
M  V30 6523 H 591.803 2.74352 -3.01986 0
M  V30 6524 H 590.478 1.83701 -3.73131 0
M  V30 6525 H 589.055 2.95202 -2.27838 0
M  V30 6526 N 591.24 1.41047 0.703093 0
M  V30 6527 C 592.203 1.42036 1.79884 0
M  V30 6528 C 593.203 0.312153 1.57741 0
M  V30 6529 O 594.393 0.571672 1.64553 0
M  V30 6530 C 591.525 1.22437 3.18154 0
M  V30 6531 H 592.718 2.39572 1.80403 0
M  V30 6532 H 590.271 1.27079 0.909977 0
M  V30 6533 H 591.006 0.257112 3.23279 0
M  V30 6534 H 590.791 2.02723 3.35627 0
M  V30 6535 H 592.281 1.25946 3.98155 0
M  V30 6536 N 592.718 -0.936591 1.26751 0
M  V30 6537 C 593.948 -1.71509 1.15188 0
M  V30 6538 C 594.356 -1.86885 -0.295037 0
M  V30 6539 O 593.699 -1.37915 -1.21347 0
M  V30 6540 C 593.761 -3.13853 1.75318 0
M  V30 6541 C 593.425 -3.21845 3.24445 0
M  V30 6542 C 594.422 -3.04771 4.21201 0
M  V30 6543 C 592.107 -3.45088 3.64992 0
M  V30 6544 C 594.101 -3.10816 5.56482 0
M  V30 6545 C 591.788 -3.50767 5.00405 0
M  V30 6546 C 592.786 -3.33648 5.9596 0
M  V30 6547 O 592.474 -3.39045 7.28906 0
M  V30 6548 H 592.206 -0.543658 0.401761 0
M  V30 6549 H 594.76 -1.18234 1.67958 0
M  V30 6550 H 592.99 -3.6857 1.17016 0
M  V30 6551 H 594.679 -3.73634 1.58596 0
M  V30 6552 H 595.445 -2.86665 3.91214 0
M  V30 6553 H 591.324 -3.57467 2.91098 0
M  V30 6554 H 594.868 -2.97372 6.31043 0
M  V30 6555 H 590.765 -3.68396 5.30052 0
M  V30 6556 H 591.533 -3.55558 7.37238 0
M  V30 6557 N 594.196 -1.08629 -1.14182 0
M  V30 6558 C 595.426 -0.837673 -1.88856 0
M  V30 6559 C 595.834 0.614024 -1.78959 0
M  V30 6560 O 595.177 1.43384 -1.14833 0
M  V30 6561 C 595.239 -1.18355 -3.39459 0
M  V30 6562 C 594.903 -2.63848 -3.73139 0
M  V30 6563 C 595.9 -3.62099 -3.73069 0
M  V30 6564 C 593.585 -2.99761 -4.03049 0
M  V30 6565 C 595.579 -4.94292 -4.02435 0
M  V30 6566 C 593.266 -4.32147 -4.32078 0
M  V30 6567 C 594.264 -5.29223 -4.31755 0
M  V30 6568 O 593.952 -6.59229 -4.60079 0
M  V30 6569 H 593.684 -0.301609 -0.604986 0
M  V30 6570 H 596.238 -1.44961 -1.45518 0
M  V30 6571 H 594.468 -0.514628 -3.8326 0
M  V30 6572 H 596.157 -0.915391 -3.95443 0
M  V30 6573 H 596.923 -3.35698 -3.50046 0
M  V30 6574 H 592.802 -2.2484 -4.02453 0
M  V30 6575 H 596.346 -5.70055 -4.02098 0
M  V30 6576 H 592.243 -4.58296 -4.54571 0
M  V30 6577 H 593.011 -6.64578 -4.77785 0
M  V30 6578 N 595.674 1.31259 -0.872281 0
M  V30 6579 C 597.085 1.78822 -0.536617 0
M  V30 6580 C 597.436 1.71855 0.946594 0
M  V30 6581 O 596.561 1.28769 1.73918 0
M  V30 6582 C 597.156 3.24698 -0.967294 0
M  V30 6583 C 595.715 3.70147 -0.683251 0
M  V30 6584 C 594.862 2.51994 -1.15733 0
M  V30 6585 H 597.813 1.18308 -1.05777 0
M  V30 6586 H 597.834 3.79386 -0.290929 0
M  V30 6587 H 597.346 3.29737 -2.04683 0
M  V30 6588 H 595.447 3.70607 0.384825 0
M  V30 6589 H 595.56 4.62183 -1.2619 0
M  V30 6590 H 593.924 2.48078 -0.577024 0
M  V30 6591 H 594.707 2.59778 -2.24434 0
M  V30 6592 N 597.152 0.631951 1.44375 0
M  V30 6593 C 598.082 -0.0593243 2.33425 0
M  V30 6594 C 599.063 -0.833964 1.48253 0
M  V30 6595 O 600.248 -0.799682 1.76971 0
M  V30 6596 C 597.378 -1.04096 3.31333 0
M  V30 6597 C 596.332 -0.377899 4.26328 0
M  V30 6598 C 595.658 -1.4695 5.14111 0
M  V30 6599 C 596.958 0.716371 5.17364 0
M  V30 6600 H 598.652 0.684287 2.91475 0
M  V30 6601 H 596.198 0.330518 1.40156 0
M  V30 6602 H 598.151 -1.53331 3.92514 0
M  V30 6603 H 596.875 -1.81547 2.71493 0
M  V30 6604 H 595.534 0.0938054 3.6648 0
M  V30 6605 H 595.182 -2.2349 4.50623 0
M  V30 6606 H 594.882 -1.03121 5.78481 0
M  V30 6607 H 596.406 -1.96363 5.78164 0
M  V30 6608 H 597.82 0.307089 5.72477 0
M  V30 6609 H 596.217 1.07784 5.90341 0
M  V30 6610 H 597.287 1.58316 4.58327 0
M  V30 6611 N 598.631 -1.53133 0.372548 0
M  V30 6612 C 599.856 -2.0625 -0.218098 0
M  V30 6613 C 600.281 -1.24375 -1.41111 0
M  V30 6614 O 599.639 -0.264554 -1.79359 0
M  V30 6615 C 599.687 -3.55858 -0.582876 0
M  V30 6616 O 598.791 -3.76667 -1.67917 0
M  V30 6617 H 598.132 -0.663317 -0.030104 0
M  V30 6618 H 600.662 -1.97477 0.535169 0
M  V30 6619 H 600.672 -3.99007 -0.851925 0
M  V30 6620 H 599.347 -4.14892 0.289428 0
M  V30 6621 H 597.924 -3.45413 -1.40513 0
M  V30 6622 N 600.109 -0.101901 -1.5727 0
M  V30 6623 C 601.337 0.568392 -1.98939 0
M  V30 6624 C 601.752 1.61301 -0.981194 0
M  V30 6625 O 601.109 1.82478 0.0282869 0
M  V30 6626 C 601.16 1.20997 -3.40649 0
M  V30 6627 O 600.881 0.207129 -4.3761 0
M  V30 6628 C 602.382 1.96523 -3.97358 0
M  V30 6629 H 599.602 0.15186 -0.65359 0
M  V30 6630 H 602.146 -0.183198 -2.03678 0
M  V30 6631 H 600.301 1.91245 -3.36904 0
M  V30 6632 H 600.715 0.671071 -5.20189 0
M  V30 6633 H 602.189 2.36764 -4.98645 0
M  V30 6634 H 602.666 2.83376 -3.35552 0
M  V30 6635 H 603.272 1.31076 -4.04598 0
M  V30 6636 N 601.587 1.56661 0.17182 0
M  V30 6637 C 602.864 1.72838 0.915778 0
M  V30 6638 C 603.244 0.66316 2.00413 0
M  V30 6639 O 602.592 -0.322123 2.26218 0
M  V30 6640 C 602.802 3.16019 1.48097 0
M  V30 6641 C 604.15 3.76962 1.95408 0
M  V30 6642 O 605.174 3.19294 1.57892 0
M  V30 6643 O 604.033 4.78219 2.64516 0
M  V30 6644 H 601.127 0.705797 0.431021 0
M  V30 6645 H 603.673 1.68947 0.159689 0
M  V30 6646 H 602.445 3.85031 0.697618 0
M  V30 6647 H 602.068 3.24234 2.30126 0
M  V30 6648 N 603.065 -0.440357 1.51323 0
M  V30 6649 C 604.028 -1.51679 1.71832 0
M  V30 6650 C 605.028 -1.49648 0.588386 0
M  V30 6651 O 606.218 -1.51724 0.855891 0
M  V30 6652 C 603.35 -2.91228 1.77199 0
M  V30 6653 H 604.543 -1.34799 2.67898 0
M  V30 6654 H 602.096 -0.66883 1.41267 0
M  V30 6655 H 602.831 -3.13516 0.829363 0
M  V30 6656 H 602.616 -2.94107 2.59314 0
M  V30 6657 H 604.106 -3.69321 1.94915 0
M  V30 6658 N 604.543 -1.41418 -0.695603 0
M  V30 6659 C 605.473 -1.46035 -1.82197 0
M  V30 6660 C 606.454 -0.319025 -1.67082 0
M  V30 6661 O 607.639 -0.530462 -1.86815 0
M  V30 6662 C 604.769 -1.34179 -3.20333 0
M  V30 6663 C 603.723 -2.46123 -3.50154 0
M  V30 6664 C 603.049 -2.19332 -4.87645 0
M  V30 6665 C 604.349 -3.88463 -3.49133 0
M  V30 6666 H 606.043 -2.40303 -1.78591 0
M  V30 6667 H 603.589 -1.15663 -0.857797 0
M  V30 6668 H 605.542 -1.36021 -3.98844 0
M  V30 6669 H 604.266 -0.363952 -3.24566 0
M  V30 6670 H 602.925 -2.43563 -2.73994 0
M  V30 6671 H 602.573 -1.19891 -4.88503 0
M  V30 6672 H 602.273 -2.94344 -5.08562 0
M  V30 6673 H 603.797 -2.22889 -5.68465 0
M  V30 6674 H 605.211 -3.92738 -4.17648 0
M  V30 6675 H 603.608 -4.63158 -3.81582 0
M  V30 6676 H 604.678 -4.16617 -2.48109 0
M  V30 6677 N 606.021 0.929856 -1.27246 0
M  V30 6678 C 607.437 1.20542 -1.04603 0
M  V30 6679 C 607.637 2.00276 0.221754 0
M  V30 6680 O 606.693 2.34835 0.927833 0
M  V30 6681 C 608.006 1.95566 -2.28417 0
M  V30 6682 C 609.554 2.08513 -2.33433 0
M  V30 6683 C 610.029 2.86943 -3.5697 0
M  V30 6684 N 611.52 2.94512 -3.57515 0
M  V30 6685 C 612.255 3.55656 -4.49774 0
M  V30 6686 N 611.751 4.18209 -5.52334 0
M  V30 6687 N 613.544 3.53038 -4.37402 0
M  V30 6688 H 605.695 0.397113 -2.08655 0
M  V30 6689 H 607.958 0.238277 -0.917566 0
M  V30 6690 H 607.664 1.44395 -3.20691 0
M  V30 6691 H 607.538 2.9619 -2.33563 0
M  V30 6692 H 609.925 2.58872 -1.41666 0
M  V30 6693 H 610.006 1.07117 -2.32292 0
M  V30 6694 H 609.65 2.37268 -4.49072 0
M  V30 6695 H 609.58 3.8862 -3.55362 0
M  V30 6696 H 612.071 2.50053 -2.83341 0
M  V30 6697 H 612.384 4.62796 -6.18902 0
M  V30 6698 H 610.729 4.16761 -5.56179 0
M  V30 6699 H 613.92 3.0337 -3.56489 0
M  V30 6700 H 614.093 4.004 -5.09493 0
M  V30 6701 N 607.499 1.09233 1.13605 0
M  V30 6702 C 608.462 0.733553 2.17144 0
M  V30 6703 C 609.462 -0.235873 1.59061 0
M  V30 6704 O 610.652 -0.0143167 1.74194 0
M  V30 6705 C 607.784 0.084471 3.40795 0
M  V30 6706 H 608.977 1.65049 2.50397 0
M  V30 6707 H 606.53 0.891264 1.28399 0
M  V30 6708 H 607.265 -0.843795 3.1313 0
M  V30 6709 H 607.05 0.781985 3.84223 0
M  V30 6710 H 608.54 -0.151216 4.17326 0
M  V30 6711 N 608.977 -1.30795 0.87923 0
M  V30 6712 C 610.226 -1.95636 0.490875 0
M  V30 6713 C 610.539 -1.70214 -0.963674 0
M  V30 6714 O 611.745 -2.28991 -1.45861 0
M  V30 6715 C 610.201 -3.50271 0.826929 0
M  V30 6716 C 609.809 -3.84521 2.29886 0
M  V30 6717 C 611.553 -4.21456 0.507494 0
M  V30 6718 C 609.46 -5.32309 2.57685 0
M  V30 6719 H 608.39 -0.732238 0.179841 0
M  V30 6720 H 611.041 -1.48829 1.07341 0
M  V30 6721 H 609.423 -3.9562 0.173542 0
M  V30 6722 H 610.597 -3.50102 2.99609 0
M  V30 6723 H 608.912 -3.26425 2.58526 0
M  V30 6724 H 611.509 -5.30199 0.692293 0
M  V30 6725 H 611.852 -4.12614 -0.552718 0
M  V30 6726 H 612.385 -3.81772 1.11782 0
M  V30 6727 H 609.124 -5.46195 3.62424 0
M  V30 6728 H 608.644 -5.68048 1.92566 0
M  V30 6729 H 610.323 -5.99678 2.42889 0
M  V30 6730 N 610.455 -0.639598 -1.44038 0
M  V30 6731 C 611.732 -0.078012 -1.95444 0
M  V30 6732 C 612.112 1.39847 -1.58133 0
M  V30 6733 O 611.46 2.11714 -0.859614 0
M  V30 6734 C 611.67 -0.309832 -3.47622 0
M  V30 6735 C 613.018 -0.207521 -4.24093 0
M  V30 6736 O 614.042 -0.241653 -3.55379 0
M  V30 6737 O 612.901 -0.119641 -5.46369 0
M  V30 6738 H 609.995 0.0174534 -0.826816 0
M  V30 6739 H 612.541 -0.711891 -1.54046 0
M  V30 6740 H 611.313 -1.33401 -3.67858 0
M  V30 6741 H 610.936 0.357777 -3.95987 0
M  V30 6742 N 611.933 1.52934 -0.380664 0
M  V30 6743 C 612.896 2.24809 0.446473 0
M  V30 6744 C 613.896 1.26133 0.997347 0
M  V30 6745 O 615.086 1.50297 0.880714 0
M  V30 6746 C 612.218 2.99649 1.62553 0
M  V30 6747 H 613.411 2.99343 -0.182677 0
M  V30 6748 H 610.964 1.55736 -0.132618 0
M  V30 6749 H 611.699 2.29395 2.29235 0
M  V30 6750 H 611.484 3.72066 1.23732 0
M  V30 6751 H 612.974 3.54246 2.21133 0
M  V30 6752 N 613.412 0.11024 1.57214 0
M  V30 6753 C 614.661 -0.549638 1.94067 0
M  V30 6754 C 614.974 -1.68388 0.995234 0
M  V30 6755 O 616.18 -2.40593 1.25807 0
M  V30 6756 C 614.636 -1.02912 3.44873 0
M  V30 6757 C 614.244 0.0761861 4.47935 0
M  V30 6758 C 615.988 -1.66087 3.9066 0
M  V30 6759 C 613.895 -0.419502 5.8991 0
M  V30 6760 H 612.825 -0.209092 0.724428 0
M  V30 6761 H 615.476 0.188683 1.82527 0
M  V30 6762 H 613.858 -1.82159 3.51616 0
M  V30 6763 H 615.032 0.852185 4.52851 0
M  V30 6764 H 613.347 0.614052 4.11847 0
M  V30 6765 H 615.944 -2.04272 4.94143 0
M  V30 6766 H 616.287 -2.53591 3.30148 0
M  V30 6767 H 616.82 -0.933959 3.86681 0
M  V30 6768 H 613.559 0.419277 6.54158 0
M  V30 6769 H 613.079 -1.16217 5.88433 0
M  V30 6770 H 614.758 -0.883577 6.40938 0
M  V30 6771 N 614.89 -1.56749 -0.16351 0
M  V30 6772 C 615.8 -2.00255 -1.2221 0
M  V30 6773 C 616.816 -0.915194 -1.47987 0
M  V30 6774 O 617.992 -1.22342 -1.59982 0
M  V30 6775 C 615.057 -2.36035 -2.53946 0
M  V30 6776 C 614.118 -3.58637 -2.35962 0
M  V30 6777 C 613.351 -3.92701 -3.61416 0
M  V30 6778 O 613.574 -3.27632 -4.66919 0
M  V30 6779 O 612.508 -4.86019 -3.55062 0
M  V30 6780 H 616.334 -2.90586 -0.882794 0
M  V30 6781 H 613.919 -1.44721 -0.370978 0
M  V30 6782 H 615.801 -2.59982 -3.31643 0
M  V30 6783 H 614.476 -1.48863 -2.8744 0
M  V30 6784 H 613.383 -3.39898 -1.5627 0
M  V30 6785 H 614.716 -4.46374 -2.0739 0
M  V30 6786 N 616.368 0.432326 -1.51554 0
M  V30 6787 C 617.598 1.2019 -1.68042 0
M  V30 6788 C 618.006 1.85356 -0.379434 0
M  V30 6789 O 617.349 1.71724 0.652427 0
M  V30 6790 C 617.411 2.32387 -2.74292 0
M  V30 6791 C 617.075 1.87548 -4.16743 0
M  V30 6792 C 618.072 1.37611 -5.01357 0
M  V30 6793 C 615.757 1.95087 -4.62868 0
M  V30 6794 C 617.751 0.958069 -6.30159 0
M  V30 6795 C 615.438 1.52894 -5.91664 0
M  V30 6796 C 616.436 1.03336 -6.75137 0
M  V30 6797 O 616.124 0.617435 -8.01525 0
M  V30 6798 H 615.856 0.368132 -0.56697 0
M  V30 6799 H 618.41 0.517875 -1.98764 0
M  V30 6800 H 616.64 3.04082 -2.38895 0
M  V30 6801 H 618.329 2.94235 -2.79608 0
M  V30 6802 H 619.095 1.31178 -4.66923 0
M  V30 6803 H 614.974 2.32606 -3.98015 0
M  V30 6804 H 618.518 0.570562 -6.95263 0
M  V30 6805 H 614.415 1.58999 -6.25611 0
M  V30 6806 H 615.183 0.742835 -8.15122 0
M  V30 6807 N 617.846 1.41785 0.688094 0
M  V30 6808 C 619.095 1.4084 1.44385 0
M  V30 6809 C 619.408 0.0234166 1.95586 0
M  V30 6810 O 620.614 -0.108647 2.71283 0
M  V30 6811 C 619.07 2.47675 2.61123 0
M  V30 6812 C 618.678 3.92116 2.16677 0
M  V30 6813 C 620.422 2.55877 3.38714 0
M  V30 6814 C 618.329 4.90487 3.30419 0
M  V30 6815 H 617.259 0.523787 0.542368 0
M  V30 6816 H 619.91 1.6764 0.74627 0
M  V30 6817 H 618.292 2.14018 3.33185 0
M  V30 6818 H 619.466 4.35059 1.51856 0
M  V30 6819 H 617.781 3.87642 1.5206 0
M  V30 6820 H 620.378 3.26553 4.234 0
M  V30 6821 H 620.721 1.59801 3.84408 0
M  V30 6822 H 621.254 2.88662 2.73714 0
M  V30 6823 H 617.993 5.87994 2.89729 0
M  V30 6824 H 617.513 4.52187 3.94065 0
M  V30 6825 H 619.192 5.11591 3.96085 0
M  V30 6826 N 619.324 -0.923095 1.27737 0
M  V30 6827 C 620.552 -1.70525 1.17171 0
M  V30 6828 C 620.967 -1.86847 -0.270881 0
M  V30 6829 O 620.324 -1.38879 -1.18401 0
M  V30 6830 C 620.375 -3.10242 1.85559 0
M  V30 6831 O 620.096 -2.94683 3.24182 0
M  V30 6832 C 621.597 -4.04586 1.81176 0
M  V30 6833 H 618.817 -0.533347 0.407163 0
M  V30 6834 H 621.361 -1.15599 1.68692 0
M  V30 6835 H 619.516 -3.62014 1.3793 0
M  V30 6836 H 619.93 -3.83045 3.58297 0
M  V30 6837 H 621.404 -5.00119 2.33633 0
M  V30 6838 H 621.881 -4.3218 0.782099 0
M  V30 6839 H 622.487 -3.58741 2.2844 0
M  V30 6840 N 620.802 -1.09834 -1.13024 0
M  V30 6841 C 621.712 -0.753731 -2.22162 0
M  V30 6842 C 622.728 0.246105 -1.72251 0
M  V30 6843 O 623.904 0.0864051 -2.01215 0
M  V30 6844 C 620.969 -0.183958 -3.46212 0
M  V30 6845 C 620.03 -1.24028 -4.10993 0
M  V30 6846 C 619.263 -0.697597 -5.29121 0
M  V30 6847 O 619.486 0.478092 -5.68393 0
M  V30 6848 O 618.42 -1.4546 -5.84059 0
M  V30 6849 H 622.246 -1.66456 -2.5402 0
M  V30 6850 H 619.831 -0.873026 -1.21238 0
M  V30 6851 H 621.713 0.130257 -4.21199 0
M  V30 6852 H 620.388 0.699823 -3.16045 0
M  V30 6853 H 619.295 -1.60725 -3.37814 0
M  V30 6854 H 620.628 -2.09685 -4.45301 0
M  V30 6855 N 622.28 1.30327 -0.886154 0
M  V30 6856 C 623.23 2.25668 -0.325248 0
M  V30 6857 C 624.214 1.51318 0.546972 0
M  V30 6858 O 625.406 1.72623 0.391203 0
M  V30 6859 C 622.535 3.40229 0.458167 0
M  V30 6860 C 621.621 4.21933 -0.428208 0
M  V30 6861 N 622.012 4.82129 -1.52921 0
M  V30 6862 C 620.31 4.45439 -0.223535 0
M  V30 6863 C 621.011 5.43351 -2.07714 0
M  V30 6864 N 619.987 5.26002 -1.37195 0
M  V30 6865 H 623.789 2.69759 -1.1665 0
M  V30 6866 H 621.303 1.4478 -0.735691 0
M  V30 6867 H 623.3 4.07579 0.876648 0
M  V30 6868 H 621.96 2.97678 1.29684 0
M  V30 6869 H 622.971 4.81312 -1.91205 0
M  V30 6870 H 619.648 4.13481 0.577875 0
M  V30 6871 H 621.038 6.01118 -3.00178 0
M  V30 6872 N 623.758 0.647228 1.43697 0
M  V30 6873 C 624.688 -0.0345631 2.33474 0
M  V30 6874 C 625.669 -0.818193 1.4913 0
M  V30 6875 O 626.854 -0.780867 1.77809 0
M  V30 6876 C 623.984 -1.00576 3.32418 0
M  V30 6877 C 622.938 -0.33266 4.26705 0
M  V30 6878 C 622.264 -1.41489 5.1564 0
M  V30 6879 C 623.564 0.771204 5.16575 0
M  V30 6880 H 625.258 0.715163 2.90733 0
M  V30 6881 H 622.804 0.345364 1.39797 0
M  V30 6882 H 624.757 -1.49159 3.94119 0
M  V30 6883 H 623.481 -1.78657 2.73403 0
M  V30 6884 H 622.14 0.13267 3.6636 0
M  V30 6885 H 621.788 -2.18698 4.52968 0
M  V30 6886 H 621.488 -0.969799 5.79542 0
M  V30 6887 H 623.012 -1.9022 5.80214 0
M  V30 6888 H 624.426 0.36779 5.72119 0
M  V30 6889 H 622.823 1.1404 5.89165 0
M  V30 6890 H 623.893 1.63169 4.56622 0
M  V30 6891 N 625.236 -1.5273 0.388769 0
M  V30 6892 C 626.183 -2.26437 -0.446639 0
M  V30 6893 C 627.153 -1.28025 -1.05824 0
M  V30 6894 O 628.338 -1.56852 -1.08637 0
M  V30 6895 C 625.478 -3.07407 -1.56828 0
M  V30 6896 C 624.591 -4.20747 -0.979589 0
M  V30 6897 C 623.726 -4.89113 -2.07224 0
M  V30 6898 C 622.765 -5.94447 -1.45942 0
M  V30 6899 N 621.902 -6.56411 -2.49135 0
M  V30 6900 H 626.742 -2.97404 0.18837 0
M  V30 6901 H 624.279 -1.46727 0.104725 0
M  V30 6902 H 626.237 -3.52642 -2.22934 0
M  V30 6903 H 624.867 -2.3865 -2.17361 0
M  V30 6904 H 623.919 -3.7983 -0.208151 0
M  V30 6905 H 625.231 -4.9637 -0.491747 0
M  V30 6906 H 624.385 -5.3765 -2.81101 0
M  V30 6907 H 623.124 -4.13013 -2.59368 0
M  V30 6908 H 622.129 -5.4525 -0.705894 0
M  V30 6909 H 623.354 -6.7248 -0.945932 0
M  V30 6910 H 621.3 -5.83152 -3.00449 0
M  V30 6911 H 621.217 -7.27645 -2.05105 0
M  V30 6912 H 622.485 -7.09592 -3.22644 0
M  V30 6913 N 626.714 -0.118576 -1.57153 0
M  V30 6914 C 628.13 0.238014 -1.57815 0
M  V30 6915 C 628.33 1.66747 -1.13127 0
M  V30 6916 O 627.386 2.38867 -0.818462 0
M  V30 6917 C 628.699 0.00508207 -3.007 0
M  V30 6918 C 630.247 0.0710139 -3.12919 0
M  V30 6919 C 630.722 -0.13422 -4.57803 0
M  V30 6920 N 632.213 -0.0801755 -4.63131 0
M  V30 6921 C 632.948 -0.213885 -5.73001 0
M  V30 6922 N 632.444 -0.403742 -6.91623 0
M  V30 6923 N 634.237 -0.15349 -5.6189 0
M  V30 6924 H 626.388 -1.05226 -1.84503 0
M  V30 6925 H 628.651 -0.414318 -0.852669 0
M  V30 6926 H 628.357 -0.983125 -3.3768 0
M  V30 6927 H 628.231 0.73714 -3.69927 0
M  V30 6928 H 630.618 1.04975 -2.75798 0
M  V30 6929 H 630.699 -0.692918 -2.46236 0
M  V30 6930 H 630.343 -1.10992 -4.95624 0
M  V30 6931 H 630.273 0.649692 -5.22577 0
M  V30 6932 H 632.764 0.0630689 -3.77847 0
M  V30 6933 H 633.077 -0.496645 -7.71202 0
M  V30 6934 H 631.422 -0.43971 -6.93608 0
M  V30 6935 H 634.613 -0.00613174 -4.681 0
M  V30 6936 H 634.786 -0.261138 -6.47474 0
M  V30 6937 N 628.193 1.56834 0.155195 0
M  V30 6938 C 629.47 1.73799 0.897395 0
M  V30 6939 C 629.85 0.684379 1.99698 0
M  V30 6940 O 629.198 -0.298111 2.26547 0
M  V30 6941 C 629.408 3.17572 1.44737 0
M  V30 6942 C 630.756 3.79014 1.91399 0
M  V30 6943 O 631.78 3.20951 1.54496 0
M  V30 6944 O 630.639 4.80998 2.59429 0
M  V30 6945 H 627.733 0.710329 0.423511 0
M  V30 6946 H 630.279 1.69107 0.141761 0
M  V30 6947 H 629.051 3.85749 0.656741 0
M  V30 6948 H 628.674 3.26657 2.26674 0
M  V30 6949 N 629.671 -0.424282 1.51781 0
M  V30 6950 C 630.581 -1.54087 1.76902 0
M  V30 6951 C 631.597 -1.61249 0.653826 0
M  V30 6952 O 632.773 -1.78247 0.937552 0
M  V30 6953 C 629.838 -2.8996 1.90063 0
M  V30 6954 C 628.899 -2.92809 3.13945 0
M  V30 6955 C 628.132 -4.22201 3.26469 0
M  V30 6956 O 628.355 -5.15286 2.44616 0
M  V30 6957 O 627.289 -4.31599 4.1953 0
M  V30 6958 H 631.115 -1.358 2.71647 0
M  V30 6959 H 628.7 -0.608618 1.36441 0
M  V30 6960 H 630.582 -3.70575 2.0063 0
M  V30 6961 H 629.257 -3.08347 0.985067 0
M  V30 6962 H 628.164 -2.11102 3.08847 0
M  V30 6963 H 629.497 -2.79369 4.05233 0
M  V30 6964 N 631.149 -1.42148 -0.680565 0
M  V30 6965 C 632.081 -1.41119 -1.80605 0
M  V30 6966 C 633.094 -0.311099 -1.598 0
M  V30 6967 O 634.283 -0.573813 -1.69026 0
M  V30 6968 C 631.383 -1.18204 -3.17618 0
M  V30 6969 C 630.556 -2.40537 -3.65322 0
M  V30 6970 C 629.615 -2.13254 -4.8105 0
M  V30 6971 O 628.641 -2.8641 -4.91892 0
M  V30 6972 N 629.843 -1.13208 -5.69354 0
M  V30 6973 H 632.608 -2.38128 -1.81975 0
M  V30 6974 H 630.169 -1.36953 -0.863446 0
M  V30 6975 H 632.161 -0.97878 -3.92686 0
M  V30 6976 H 630.731 -0.29738 -3.11182 0
M  V30 6977 H 629.951 -2.76468 -2.80996 0
M  V30 6978 H 631.239 -3.22012 -3.93936 0
M  V30 6979 H 630.637 -0.526893 -5.63241 0
M  V30 6980 H 629.194 -0.988699 -6.44258 0
M  V30 6981 N 632.627 0.916307 -1.28225 0
M  V30 6982 C 633.577 2.00488 -1.08574 0
M  V30 6983 C 634.561 1.60897 -0.0101874 0
M  V30 6984 O 635.753 1.75499 -0.230034 0
M  V30 6985 C 632.882 3.35076 -0.746943 0
M  V30 6986 C 631.968 3.81077 -1.86121 0
M  V30 6987 N 632.359 3.99475 -3.10247 0
M  V30 6988 C 630.657 4.10212 -1.75048 0
M  V30 6989 C 631.358 4.37965 -3.82834 0
M  V30 6990 N 630.334 4.4608 -3.10667 0
M  V30 6991 H 634.136 2.1276 -2.02757 0
M  V30 6992 H 631.65 1.10397 -1.19107 0
M  V30 6993 H 633.647 4.12743 -0.587252 0
M  V30 6994 H 632.307 3.2416 0.187146 0
M  V30 6995 H 633.318 3.85466 -3.45885 0
M  V30 6996 H 629.995 4.07947 -0.887999 0
M  V30 6997 H 631.385 4.60183 -4.89572 0
M  V30 6998 N 634.105 1.10431 1.1244 0
M  V30 6999 C 635.052 0.753103 2.18167 0
M  V30 7000 C 636.022 -0.270549 1.63882 0
M  V30 7001 O 637.207 -0.149837 1.90211 0
M  V30 7002 C 634.347 0.191046 3.44571 0
M  V30 7003 C 633.46 1.26999 4.12911 0
M  V30 7004 C 632.595 0.669586 5.26963 0
M  V30 7005 C 631.634 1.72912 5.87169 0
M  V30 7006 N 630.771 1.14898 6.92635 0
M  V30 7007 H 635.611 1.65892 2.47556 0
M  V30 7008 H 633.148 0.828631 1.21541 0
M  V30 7009 H 635.106 -0.152712 4.1692 0
M  V30 7010 H 633.736 -0.677997 3.15599 0
M  V30 7011 H 632.788 1.73087 3.3874 0
M  V30 7012 H 634.1 2.07204 4.53727 0
M  V30 7013 H 633.254 0.275274 6.06075 0
M  V30 7014 H 631.993 -0.163895 4.87425 0
M  V30 7015 H 630.998 2.13286 5.06744 0
M  V30 7016 H 632.223 2.56544 6.28778 0
M  V30 7017 H 630.169 0.336956 6.55134 0
M  V30 7018 H 630.086 1.88786 7.32049 0
M  V30 7019 H 631.354 0.78121 7.75576 0
M  V30 7020 N 635.583 -1.29855 0.893053 0
M  V30 7021 C 636.808 -2.00512 0.530066 0
M  V30 7022 C 637.233 -1.66446 -0.876199 0
M  V30 7023 O 636.591 -0.885446 -1.58207 0
M  V30 7024 C 636.639 -3.53308 0.721505 0
M  V30 7025 O 635.743 -4.11764 -0.228994 0
M  V30 7026 H 635.084 -0.630617 0.207891 0
M  V30 7027 H 637.614 -1.6551 1.20282 0
M  V30 7028 H 637.624 -4.03206 0.623599 0
M  V30 7029 H 636.299 -3.77439 1.74678 0
M  V30 7030 H 634.876 -3.72805 -0.0841034 0
M  V30 7031 N 637.061 -0.65484 -1.43351 0
M  V30 7032 C 638.308 -0.168892 -2.01794 0
M  V30 7033 C 638.636 1.2177 -1.51665 0
M  V30 7034 O 637.891 1.82717 -0.70092 0
M  V30 7035 C 638.19 -0.130424 -3.57162 0
M  V30 7036 C 637.856 -1.45898 -4.26643 0
M  V30 7037 C 636.518 -1.82279 -4.4534 0
M  V30 7038 C 638.87 -2.33485 -4.65976 0
M  V30 7039 C 636.198 -3.0591 -5.00635 0
M  V30 7040 C 638.55 -3.5641 -5.22642 0
M  V30 7041 C 637.214 -3.92985 -5.39555 0
M  V30 7042 H 636.484 -0.061802 -0.738418 0
M  V30 7043 H 639.131 -0.845869 -1.71806 0
M  V30 7044 H 637.436 0.630008 -3.86702 0
M  V30 7045 H 639.133 0.262465 -4.0014 0
M  V30 7046 H 635.723 -1.16591 -4.12437 0
M  V30 7047 H 639.907 -2.06668 -4.51223 0
M  V30 7048 H 635.163 -3.34295 -5.11915 0
M  V30 7049 H 639.337 -4.24495 -5.52066 0
M  V30 7050 H 636.964 -4.88862 -5.82167 0
M  V30 7051 N 638.539 1.52521 -0.396863 0
M  V30 7052 C 639.955 1.5953 -0.0471659 0
M  V30 7053 C 640.155 1.41044 1.43906 0
M  V30 7054 O 639.211 1.23122 2.20448 0
M  V30 7055 C 640.524 2.95972 -0.531113 0
M  V30 7056 C 642.072 3.09172 -0.488024 0
M  V30 7057 C 642.547 4.48075 -0.948281 0
M  V30 7058 N 644.038 4.54281 -0.9046 0
M  V30 7059 C 644.773 5.60007 -1.23205 0
M  V30 7060 N 644.269 6.73343 -1.63036 0
M  V30 7061 N 646.062 5.50151 -1.15282 0
M  V30 7062 H 638.213 1.62786 -1.36435 0
M  V30 7063 H 640.476 0.76514 -0.559701 0
M  V30 7064 H 640.182 3.14741 -1.56942 0
M  V30 7065 H 640.056 3.77143 0.0657922 0
M  V30 7066 H 642.443 2.90095 0.541211 0
M  V30 7067 H 642.524 2.29937 -1.12083 0
M  V30 7068 H 642.168 4.67894 -1.97578 0
M  V30 7069 H 642.098 5.25788 -0.292412 0
M  V30 7070 H 644.589 3.72918 -0.6116 0
M  V30 7071 H 644.902 7.49992 -1.86365 0
M  V30 7072 H 643.247 6.74655 -1.66929 0
M  V30 7073 H 646.438 4.6049 -0.840602 0
M  V30 7074 H 646.611 6.32444 -1.41133 0
M  V30 7075 N 640.017 0.126909 1.57088 0
M  V30 7076 C 641.294 -0.573152 1.87014 0
M  V30 7077 C 641.674 -1.84297 1.02945 0
M  V30 7078 O 641.022 -2.28232 0.110573 0
M  V30 7079 C 641.232 -0.857984 3.38289 0
M  V30 7080 C 642.58 -1.20759 4.07066 0
M  V30 7081 O 643.604 -0.947992 3.43353 0
M  V30 7082 O 642.463 -1.69516 5.19545 0
M  V30 7083 H 639.557 -0.290082 0.774456 0
M  V30 7084 H 642.103 0.162008 1.68925 0
M  V30 7085 H 640.875 0.0415286 3.91278 0
M  V30 7086 H 640.498 -1.64803 3.61837 0
M  V30 7087 N 641.495 -1.56914 -0.146875 0
M  V30 7088 C 642.772 -1.74273 -0.888165 0
M  V30 7089 C 643.152 -0.69496 -1.99333 0
M  V30 7090 O 642.5 0.286093 -2.26702 0
M  V30 7091 C 642.71 -3.18336 -1.43051 0
M  V30 7092 C 644.058 -3.80024 -1.89387 0
M  V30 7093 O 645.082 -3.21765 -1.52792 0
M  V30 7094 O 643.941 -4.82367 -2.56874 0
M  V30 7095 H 641.035 -0.712565 -0.419738 0
M  V30 7096 H 643.581 -1.6918 -0.132791 0
M  V30 7097 H 642.353 -3.86092 -0.636274 0
M  V30 7098 H 641.976 -3.27854 -2.24938 0
M  V30 7099 N 642.974 0.416227 -1.52004 0
M  V30 7100 C 644.22 1.16233 -1.66917 0
M  V30 7101 C 644.575 1.8839 -0.390763 0
M  V30 7102 O 643.868 1.81479 0.614478 0
M  V30 7103 C 644.062 2.18923 -2.82502 0
M  V30 7104 C 643.891 1.56849 -4.2146 0
M  V30 7105 C 642.661 1.34426 -4.87091 0
M  V30 7106 C 644.859 1.03322 -5.03815 0
M  V30 7107 N 642.841 0.681703 -6.10103 0
M  V30 7108 C 644.212 0.497165 -6.18003 0
M  V30 7109 C 646.267 0.926997 -4.89194 0
M  V30 7110 C 644.97 -0.134687 -7.19174 0
M  V30 7111 C 646.996 0.309009 -5.90592 0
M  V30 7112 C 646.358 -0.216399 -7.04068 0
M  V30 7113 H 642.457 0.412252 -0.664509 0
M  V30 7114 H 645.041 0.455758 -1.89291 0
M  V30 7115 H 643.212 2.86946 -2.61756 0
M  V30 7116 H 644.944 2.85844 -2.86488 0
M  V30 7117 H 641.699 1.61183 -4.45328 0
M  V30 7118 H 642.123 0.367256 -6.76003 0
M  V30 7119 H 646.765 1.31904 -4.01698 0
M  V30 7120 H 644.483 -0.538811 -8.06302 0
M  V30 7121 H 648.069 0.228438 -5.81351 0
M  V30 7122 H 646.949 -0.687064 -7.81184 0
M  V30 7123 N 644.452 1.42507 0.673017 0
M  V30 7124 C 645.399 1.46124 1.78651 0
M  V30 7125 C 646.369 0.313007 1.63124 0
M  V30 7126 O 647.554 0.517337 1.83653 0
M  V30 7127 C 644.694 1.3711 3.16694 0
M  V30 7128 C 643.807 2.61983 3.43495 0
M  V30 7129 C 642.942 2.45098 4.71275 0
M  V30 7130 C 641.981 3.65336 4.91117 0
M  V30 7131 N 641.118 3.47383 6.10139 0
M  V30 7132 H 645.958 2.4128 1.74895 0
M  V30 7133 H 643.495 1.19788 0.853766 0
M  V30 7134 H 645.453 1.29881 3.96468 0
M  V30 7135 H 644.083 0.45549 3.1957 0
M  V30 7136 H 643.135 2.79571 2.57961 0
M  V30 7137 H 644.447 3.51355 3.5405 0
M  V30 7138 H 643.601 2.35466 5.59143 0
M  V30 7139 H 642.34 1.53219 4.63007 0
M  V30 7140 H 641.345 3.754 4.0169 0
M  V30 7141 H 642.57 4.58199 5.01229 0
M  V30 7142 H 640.516 2.58222 6.0304 0
M  V30 7143 H 640.433 4.30344 6.21563 0
M  V30 7144 H 641.701 3.41565 7.00681 0
M  V30 7145 N 645.93 -0.909495 1.28709 0
M  V30 7146 C 647.16 -1.69027 1.188 0
M  V30 7147 C 647.568 -1.87469 -0.255329 0
M  V30 7148 O 646.911 -1.40458 -1.18394 0
M  V30 7149 C 646.973 -3.10064 1.81936 0
M  V30 7150 C 646.637 -3.14891 3.31199 0
M  V30 7151 C 647.634 -2.95768 4.27571 0
M  V30 7152 C 645.319 -3.37269 3.7223 0
M  V30 7153 C 647.313 -2.98942 5.6295 0
M  V30 7154 C 645 -3.40074 5.07733 0
M  V30 7155 C 645.998 -3.20932 6.02903 0
M  V30 7156 O 645.686 -3.23507 7.35934 0
M  V30 7157 H 645.418 -0.535014 0.413203 0
M  V30 7158 H 647.972 -1.14645 1.70428 0
M  V30 7159 H 646.202 -3.66005 1.24808 0
M  V30 7160 H 647.891 -3.70185 1.66486 0
M  V30 7161 H 648.657 -2.78302 3.97206 0
M  V30 7162 H 644.536 -3.51212 2.98615 0
M  V30 7163 H 648.08 -2.83919 6.37209 0
M  V30 7164 H 643.977 -3.5707 5.37747 0
M  V30 7165 H 644.745 -3.3984 7.44615 0
M  V30 7166 N 647.408 -1.11026 -1.11852 0
M  V30 7167 C 648.654 -0.857729 -1.83768 0
M  V30 7168 C 648.987 0.615143 -1.842 0
M  V30 7169 O 648.262 1.45391 -1.29196 0
M  V30 7170 C 648.545 -1.41453 -3.31154 0
M  V30 7171 C 648.398 -2.95471 -3.39142 0
M  V30 7172 C 649.717 -1.0619 -4.27097 0
M  V30 7173 H 646.836 -0.313044 -0.667212 0
M  V30 7174 H 649.478 -1.37443 -1.31185 0
M  V30 7175 H 647.628 -0.975052 -3.76065 0
M  V30 7176 H 649.3 -3.4799 -3.02821 0
M  V30 7177 H 647.543 -3.31759 -2.79497 0
M  V30 7178 H 648.214 -3.29515 -4.42859 0
M  V30 7179 H 650.69 -1.44122 -3.90344 0
M  V30 7180 H 649.566 -1.47832 -5.28618 0
M  V30 7181 H 649.827 0.0278912 -4.42091 0
M  V30 7182 N 648.886 1.2938 -0.899927 0
M  V30 7183 C 649.849 2.25983 -0.382677 0
M  V30 7184 C 650.849 1.53366 0.483259 0
M  V30 7185 O 652.039 1.71798 0.28828 0
M  V30 7186 C 649.171 3.37878 0.452915 0
M  V30 7187 H 650.364 2.73252 -1.23586 0
M  V30 7188 H 647.917 1.40825 -0.678088 0
M  V30 7189 H 648.652 2.95949 1.32608 0
M  V30 7190 H 648.437 3.91742 -0.167562 0
M  V30 7191 H 649.927 4.09746 0.806107 0
M  V30 7192 N 650.364 0.662433 1.43002 0
M  V30 7193 C 651.297 -0.073459 2.28082 0
M  V30 7194 C 652.275 -0.820869 1.40358 0
M  V30 7195 O 653.459 -0.818545 1.698 0
M  V30 7196 C 650.586 -1.11097 3.19961 0
M  V30 7197 C 649.632 -0.460557 4.24006 0
M  V30 7198 S 650.465 0.772717 5.29896 0
M  V30 7199 C 651.621 -0.264028 6.25343 0
M  V30 7200 H 651.854 0.648227 2.90147 0
M  V30 7201 H 649.387 0.451566 1.47649 0
M  V30 7202 H 651.345 -1.70452 3.73439 0
M  V30 7203 H 650.006 -1.80503 2.57056 0
M  V30 7204 H 649.199 -1.24299 4.88432 0
M  V30 7205 H 648.801 0.0591038 3.73953 0
M  V30 7206 H 651.093 -1.12748 6.68052 0
M  V30 7207 H 652.036 0.345443 7.07257 0
M  V30 7208 H 652.444 -0.603964 5.6126 0
M  V30 7209 N 651.842 -1.52309 0.404946 0
M  V30 7210 C 653.091 -2.00952 -0.173529 0
M  V30 7211 C 653.404 -1.29512 -1.46581 0
M  V30 7212 O 654.61 -1.6895 -2.12528 0
M  V30 7213 C 653.066 -3.58097 -0.359801 0
M  V30 7214 C 652.674 -4.38449 0.920138 0
M  V30 7215 C 654.418 -4.14984 -0.893794 0
M  V30 7216 C 652.325 -5.87227 0.701285 0
M  V30 7217 H 651.255 -0.750871 -0.0686244 0
M  V30 7218 H 653.906 -1.75687 0.529749 0
M  V30 7219 H 652.288 -3.79675 -1.12531 0
M  V30 7220 H 653.462 -4.28633 1.69147 0
M  V30 7221 H 651.777 -3.92859 1.38024 0
M  V30 7222 H 654.374 -5.23813 -1.0735 0
M  V30 7223 H 654.717 -3.72072 -1.8673 0
M  V30 7224 H 655.25 -3.97358 -0.187453 0
M  V30 7225 H 651.989 -6.34491 1.64624 0
M  V30 7226 H 651.509 -5.99792 -0.0308288 0
M  V30 7227 H 653.188 -6.46096 0.341846 0
M  V30 7228 N 653.32 -0.135238 -1.57019 0
M  V30 7229 C 654.569 0.518694 -1.94917 0
M  V30 7230 C 654.882 1.66783 -1.0219 0
M  V30 7231 O 656.088 2.38561 -1.29619 0
M  V30 7232 C 654.544 0.974123 -3.46466 0
M  V30 7233 C 654.152 -0.147439 -4.47757 0
M  V30 7234 C 655.896 1.59851 -3.93253 0
M  V30 7235 C 653.803 0.325599 -5.90503 0
M  V30 7236 H 652.733 0.19754 -0.727663 0
M  V30 7237 H 655.384 -0.217698 -1.82204 0
M  V30 7238 H 653.766 1.76542 -3.5447 0
M  V30 7239 H 654.94 -0.924122 -4.51438 0
M  V30 7240 H 653.255 -0.679496 -4.10818 0
M  V30 7241 H 655.852 1.96385 -4.9733 0
M  V30 7242 H 656.195 2.48306 -3.3414 0
M  V30 7243 H 656.728 0.872323 -3.88118 0
M  V30 7244 H 653.467 -0.523295 -6.53408 0
M  V30 7245 H 652.987 1.06841 -5.90208 0
M  V30 7246 H 654.666 0.781498 -6.42263 0
M  V30 7247 N 654.798 1.5699 0.138552 0
M  V30 7248 C 656.075 1.74741 0.87891 0
M  V30 7249 C 656.455 0.705522 1.98961 0
M  V30 7250 O 655.803 -0.274066 2.2685 0
M  V30 7251 C 656.013 3.1909 1.4136 0
M  V30 7252 C 657.361 3.81023 1.87368 0
M  V30 7253 O 658.385 3.22571 1.51084 0
M  V30 7254 O 657.244 4.83722 2.54312 0
M  V30 7255 H 654.338 0.714781 0.415953 0
M  V30 7256 H 656.884 1.69248 0.123817 0
M  V30 7257 H 655.656 3.86424 0.61579 0
M  V30 7258 H 655.279 3.29043 2.23196 0
M  V30 7259 N 656.276 -0.40816 1.52223 0
M  V30 7260 C 657.692 -0.74685 1.41047 0
M  V30 7261 C 657.892 -1.94788 0.51573 0
M  V30 7262 O 656.948 -2.52494 -0.0181156 0
M  V30 7263 C 658.261 -0.999878 2.83589 0
M  V30 7264 C 659.809 -1.10253 2.92939 0
M  V30 7265 C 660.284 -1.38832 4.36451 0
M  V30 7266 N 661.775 -1.45694 4.3969 0
M  V30 7267 C 662.51 -1.69435 5.47795 0
M  V30 7268 N 662.006 -1.90774 6.66016 0
M  V30 7269 N 663.799 -1.71458 5.35312 0
M  V30 7270 H 655.95 0.382409 2.08929 0
M  V30 7271 H 658.213 0.108807 0.941735 0
M  V30 7272 H 657.919 -0.189723 3.51188 0
M  V30 7273 H 657.793 -1.91978 3.24691 0
M  V30 7274 H 660.18 -1.90328 2.2552 0
M  V30 7275 H 660.261 -0.160973 2.55293 0
M  V30 7276 H 659.905 -0.592741 5.04429 0
M  V30 7277 H 659.835 -2.34241 4.71634 0
M  V30 7278 H 662.326 -1.3099 3.54472 0
M  V30 7279 H 662.639 -2.08342 7.44186 0
M  V30 7280 H 660.984 -1.88037 6.69079 0
M  V30 7281 H 664.175 -1.54326 4.41929 0
M  V30 7282 H 664.348 -1.89621 6.19635 0
M  V30 7283 N 657.755 -1.42862 -0.66545 0
M  V30 7284 C 658.685 -1.49867 -1.79059 0
M  V30 7285 C 659.666 -0.354394 -1.66367 0
M  V30 7286 O 660.851 -0.569969 -1.85647 0
M  V30 7287 C 657.981 -1.40943 -3.17415 0
M  V30 7288 C 656.935 -2.53495 -3.44854 0
M  V30 7289 C 656.261 -2.29626 -4.82883 0
M  V30 7290 C 657.561 -3.95781 -3.40815 0
M  V30 7291 H 659.255 -2.44037 -1.73453 0
M  V30 7292 H 656.801 -1.17456 -0.833071 0
M  V30 7293 H 658.754 -1.4445 -3.95869 0
M  V30 7294 H 657.478 -0.432716 -3.23721 0
M  V30 7295 H 656.137 -2.4932 -2.68766 0
M  V30 7296 H 655.785 -1.30226 -4.8585 0
M  V30 7297 H 655.485 -3.05065 -5.02204 0
M  V30 7298 H 657.009 -2.34897 -5.63609 0
M  V30 7299 H 658.423 -4.01508 -4.09224 0
M  V30 7300 H 656.82 -4.71148 -3.71672 0
M  V30 7301 H 657.89 -4.21786 -2.39216 0
M  V30 7302 N 659.233 0.902656 -1.29189 0
M  V30 7303 C 660.163 2.02294 -1.16616 0
M  V30 7304 C 661.144 1.6999 -0.0611175 0
M  V30 7305 O 662.329 1.9271 -0.240072 0
M  V30 7306 C 659.459 3.37018 -0.83882 0
M  V30 7307 C 658.413 3.83522 -1.89986 0
M  V30 7308 C 657.739 5.15337 -1.42589 0
M  V30 7309 C 659.039 4.04169 -3.30824 0
M  V30 7310 H 660.733 2.13071 -2.10336 0
M  V30 7311 H 658.279 1.02378 -1.01266 0
M  V30 7312 H 660.232 4.14895 -0.737584 0
M  V30 7313 H 658.956 3.26325 0.134071 0
M  V30 7314 H 657.615 3.07859 -1.99043 0
M  V30 7315 H 657.263 5.01056 -0.441759 0
M  V30 7316 H 656.963 5.47423 -2.13547 0
M  V30 7317 H 658.487 5.95758 -1.3381 0
M  V30 7318 H 659.901 4.72537 -3.24626 0
M  V30 7319 H 658.298 4.47604 -3.99713 0
M  V30 7320 H 659.368 3.08604 -3.74021 0
M  V30 7321 N 660.711 1.11618 1.11262 0
M  V30 7322 C 661.641 0.79846 2.19424 0
M  V30 7323 C 662.622 -0.234003 1.68483 0
M  V30 7324 O 663.807 -0.0970704 1.93957 0
M  V30 7325 C 660.937 0.242892 3.4645 0
M  V30 7326 C 659.891 1.20744 4.10615 0
M  V30 7327 C 659.217 0.512494 5.32238 0
M  V30 7328 C 660.517 2.55884 4.55325 0
M  V30 7329 H 662.211 1.70286 2.46258 0
M  V30 7330 H 659.757 0.820195 1.18359 0
M  V30 7331 H 661.71 0.00840447 4.21399 0
M  V30 7332 H 660.434 -0.696811 3.1908 0
M  V30 7333 H 659.093 1.42759 3.37662 0
M  V30 7334 H 658.741 -0.432075 5.01141 0
M  V30 7335 H 658.441 1.15583 5.7612 0
M  V30 7336 H 659.965 0.286842 6.09926 0
M  V30 7337 H 661.379 2.37946 5.21588 0
M  V30 7338 H 659.776 3.16216 5.10027 0
M  V30 7339 H 660.846 3.14968 3.68678 0
M  V30 7340 N 662.189 -1.289 0.906776 0
M  V30 7341 C 663.419 -1.99112 0.551168 0
M  V30 7342 C 663.827 -1.67998 -0.870243 0
M  V30 7343 O 663.17 -0.92525 -1.58697 0
M  V30 7344 C 663.232 -3.53162 0.672065 0
M  V30 7345 C 662.896 -4.07849 2.06174 0
M  V30 7346 C 663.893 -4.22212 3.0337 0
M  V30 7347 C 661.578 -4.4271 2.37304 0
M  V30 7348 C 663.572 -4.70678 4.29815 0
M  V30 7349 C 661.259 -4.90871 3.6399 0
M  V30 7350 C 662.257 -5.04811 4.6006 0
M  V30 7351 O 661.945 -5.51925 5.84495 0
M  V30 7352 H 661.677 -0.642728 0.209469 0
M  V30 7353 H 664.231 -1.65234 1.22012 0
M  V30 7354 H 662.461 -3.86662 -0.05394 0
M  V30 7355 H 664.15 -4.046 0.324579 0
M  V30 7356 H 664.916 -3.9556 2.80637 0
M  V30 7357 H 660.795 -4.31114 1.63283 0
M  V30 7358 H 664.339 -4.81474 5.04806 0
M  V30 7359 H 660.236 -5.16961 3.86551 0
M  V30 7360 H 661.004 -5.70225 5.87185 0
M  V30 7361 N 663.667 -0.670007 -1.42649 0
M  V30 7362 C 664.913 -0.190568 -2.01903 0
M  V30 7363 C 665.246 1.19817 -1.52832 0
M  V30 7364 O 664.521 1.80342 -0.728485 0
M  V30 7365 C 664.804 -0.21991 -3.59428 0
M  V30 7366 C 664.657 -1.64376 -4.18689 0
M  V30 7367 C 665.976 0.434519 -4.3795 0
M  V30 7368 H 663.095 -0.0707219 -0.733599 0
M  V30 7369 H 665.737 -0.853883 -1.69732 0
M  V30 7370 H 663.887 0.344894 -3.86966 0
M  V30 7371 H 665.559 -2.26044 -4.02122 0
M  V30 7372 H 663.802 -2.18591 -3.747 0
M  V30 7373 H 664.473 -1.61601 -5.27815 0
M  V30 7374 H 666.949 -0.0462156 -4.16074 0
M  V30 7375 H 665.825 0.38333 -5.4756 0
M  V30 7376 H 666.086 1.51135 -4.15464 0
M  V30 7377 N 665.145 1.52092 -0.413018 0
M  V30 7378 C 666.392 2.01855 0.161497 0
M  V30 7379 C 666.72 1.29845 1.44812 0
M  V30 7380 O 665.975 0.394471 1.91683 0
M  V30 7381 C 666.274 3.54529 0.4521 0
M  V30 7382 C 665.94 4.4469 -0.745788 0
M  V30 7383 C 664.602 4.69053 -1.07435 0
M  V30 7384 C 666.954 4.97742 -1.54604 0
M  V30 7385 C 664.282 5.43717 -2.20429 0
M  V30 7386 C 666.634 5.73642 -2.66678 0
M  V30 7387 C 665.298 5.96277 -3.00016 0
M  V30 7388 H 664.568 0.73864 0.0590961 0
M  V30 7389 H 667.215 1.83274 -0.555234 0
M  V30 7390 H 665.52 3.7131 1.25045 0
M  V30 7391 H 667.217 3.90546 0.909647 0
M  V30 7392 H 663.807 4.25907 -0.479725 0
M  V30 7393 H 667.991 4.78824 -1.30543 0
M  V30 7394 H 663.247 5.59462 -2.46602 0
M  V30 7395 H 667.421 6.13746 -3.29072 0
M  V30 7396 H 665.048 6.53913 -3.87688 0
M  V30 7397 N 666.623 0.143563 1.56945 0
M  V30 7398 C 667.87 -0.508407 1.96014 0
M  V30 7399 C 668.198 -1.65099 1.02824 0
M  V30 7400 O 667.453 -1.95618 0.0567764 0
M  V30 7401 C 667.752 -1.05885 3.41355 0
M  V30 7402 C 667.418 -0.0350809 4.50886 0
M  V30 7403 C 666.08 0.246362 4.80569 0
M  V30 7404 C 668.432 0.661282 5.16988 0
M  V30 7405 C 665.76 1.23003 5.73661 0
M  V30 7406 C 668.112 1.63375 6.11139 0
M  V30 7407 C 666.776 1.92292 6.39203 0
M  V30 7408 H 666.046 -0.186039 0.717266 0
M  V30 7409 H 668.693 0.229667 1.90118 0
M  V30 7410 H 666.998 -1.87419 3.44066 0
M  V30 7411 H 668.695 -1.57183 3.6891 0
M  V30 7412 H 665.285 -0.264622 4.27782 0
M  V30 7413 H 669.469 0.457038 4.94191 0
M  V30 7414 H 664.725 1.46056 5.93698 0
M  V30 7415 H 668.899 2.17887 6.61436 0
M  V30 7416 H 666.526 2.68666 7.11142 0
M  V30 7417 N 668.101 -1.57061 -0.130224 0
M  V30 7418 C 669.349 -1.83893 -0.838313 0
M  V30 7419 C 669.67 -0.727046 -1.80939 0
M  V30 7420 O 668.94 0.249927 -1.94299 0
M  V30 7421 H 667.52 -0.67846 -0.312573 0
M  V30 7422 H 670.182 -1.94529 -0.120224 0
M  V30 7423 H 669.278 -2.79419 -1.39038 0
M  V30 7424 N 669.579 0.400081 -1.52437 0
M  V30 7425 C 670.828 1.14332 -1.66166 0
M  V30 7426 C 671.141 1.91419 -0.402253 0
M  V30 7427 O 672.347 2.6824 -0.419487 0
M  V30 7428 C 670.803 2.08137 -2.9361 0
M  V30 7429 C 670.411 1.36524 -4.26691 0
M  V30 7430 C 672.155 2.82664 -3.16703 0
M  V30 7431 C 670.062 2.29031 -5.45251 0
M  V30 7432 H 668.992 0.430499 -0.61902 0
M  V30 7433 H 671.643 0.407017 -1.78929 0
M  V30 7434 H 670.025 2.85358 -2.74567 0
M  V30 7435 H 671.199 0.646061 -4.56249 0
M  V30 7436 H 669.514 0.74002 -4.09771 0
M  V30 7437 H 672.111 3.52037 -4.0246 0
M  V30 7438 H 672.454 3.46122 -2.31312 0
M  V30 7439 H 672.987 2.12541 -3.36261 0
M  V30 7440 H 669.726 1.70206 -6.33017 0
M  V30 7441 H 669.246 2.98896 -5.2002 0
M  V30 7442 H 670.925 2.89359 -5.78689 0
M  V30 7443 N 671.057 1.43213 0.657864 0
M  V30 7444 C 672.285 1.48015 1.44566 0
M  V30 7445 C 672.7 0.0965951 1.88553 0
M  V30 7446 O 672.057 -0.892221 1.59203 0
M  V30 7447 C 672.108 2.42199 2.68369 0
M  V30 7448 O 671.829 3.75173 2.26223 0
M  V30 7449 C 673.33 2.56195 3.61772 0
M  V30 7450 H 670.55 0.502861 0.444266 0
M  V30 7451 H 673.094 1.87907 0.806917 0
M  V30 7452 H 671.249 2.05514 3.28394 0
M  V30 7453 H 671.663 4.25776 3.06293 0
M  V30 7454 H 673.137 3.26182 4.4532 0
M  V30 7455 H 673.614 1.60534 4.0881 0
M  V30 7456 H 674.22 2.93671 3.07632 0
M  V30 7457 N 672.536 -0.895792 1.29666 0
M  V30 7458 C 673.782 -1.64908 1.18039 0
M  V30 7459 C 674.115 -1.9236 -0.266682 0
M  V30 7460 O 673.39 -1.53682 -1.19214 0
M  V30 7461 C 673.673 -2.99574 1.99819 0
M  V30 7462 C 673.526 -2.79163 3.52687 0
M  V30 7463 C 674.845 -4.00358 1.82761 0
M  V30 7464 H 671.964 -0.598437 0.430165 0
M  V30 7465 H 674.606 -1.03736 1.59182 0
M  V30 7466 H 672.756 -3.51786 1.64859 0
M  V30 7467 H 674.428 -2.33821 3.9765 0
M  V30 7468 H 672.671 -2.13871 3.77414 0
M  V30 7469 H 673.342 -3.74871 4.05186 0
M  V30 7470 H 675.818 -3.57268 2.13304 0
M  V30 7471 H 674.694 -4.92514 2.42325 0
M  V30 7472 H 674.955 -4.35096 0.783839 0
M  V30 7473 N 674.014 -1.12206 -1.10668 0
M  V30 7474 C 675.262 -0.874144 -1.82217 0
M  V30 7475 C 675.583 0.601736 -1.85484 0
M  V30 7476 O 674.853 1.43725 -1.33116 0
M  V30 7477 H 673.433 -0.320404 -0.674797 0
M  V30 7478 H 676.095 -1.41606 -1.33917 0
M  V30 7479 H 675.191 -1.25349 -2.85822 0
M  V30 7480 N 675.492 1.28418 -0.913599 0
M  V30 7481 C 676.74 1.94596 -0.545594 0
M  V30 7482 C 677.061 1.7227 0.913668 0
M  V30 7483 O 676.331 1.06233 1.64595 0
M  V30 7484 H 674.911 0.720065 -0.198783 0
M  V30 7485 H 677.573 1.56404 -1.16292 0
M  V30 7486 H 676.669 3.03202 -0.739911 0
M  V30 7487 N 676.97 0.677563 1.42291 0
M  V30 7488 C 678.198 0.209459 2.05837 0
M  V30 7489 C 678.613 -1.13444 1.50917 0
M  V30 7490 O 677.97 -1.70529 0.65008 0
M  V30 7491 C 678.021 0.138819 3.61233 0
M  V30 7492 O 677.742 1.42962 4.14118 0
M  V30 7493 C 679.243 -0.352449 4.41897 0
M  V30 7494 H 676.463 0.101209 0.663323 0
M  V30 7495 H 679.007 0.925077 1.8238 0
M  V30 7496 H 677.162 -0.527505 3.83792 0
M  V30 7497 H 677.576 1.3048 5.08011 0
M  V30 7498 H 679.05 -0.350778 5.50884 0
M  V30 7499 H 679.527 -1.3882 4.16684 0
M  V30 7500 H 680.133 0.282236 4.24362 0
M  V30 7501 N 678.448 -1.51871 0.421078 0
M  V30 7502 C 679.688 -2.03848 -0.150167 0
M  V30 7503 C 680.052 -1.29925 -1.41363 0
M  V30 7504 O 681.253 -1.7219 -2.06408 0
M  V30 7505 C 679.524 -3.55374 -0.38003 0
M  V30 7506 S 681.083 -4.29111 -0.917011 0
M  V30 7507 H 677.901 -0.709904 -0.0394639 0
M  V30 7508 H 680.503 -1.86799 0.576746 0
M  V30 7509 H 679.207 -4.0675 0.546122 0
M  V30 7510 H 678.738 -3.76687 -1.13448 0
M  V30 7511 H 680.753 -4.44944 -2.19635 0
M  V30 7512 N 679.926 -0.151884 -1.56866 0
M  V30 7513 C 681.174 0.497021 -1.95893 0
M  V30 7514 C 681.495 1.65078 -1.03799 0
M  V30 7515 O 680.765 1.95642 -0.10049 0
M  V30 7516 H 679.345 0.186603 -0.723318 0
M  V30 7517 H 682.007 -0.228525 -1.93556 0
M  V30 7518 H 681.103 0.869933 -2.99731 0
M  V30 7519 N 681.404 1.57128 0.121893 0
M  V30 7520 C 682.653 1.83888 0.828748 0
M  V30 7521 C 682.966 0.737087 1.81181 0
M  V30 7522 O 684.172 0.891007 2.56463 0
M  V30 7523 C 682.628 3.26014 1.52455 0
M  V30 7524 C 682.236 4.44195 0.58263 0
M  V30 7525 C 683.98 3.62025 2.21671 0
M  V30 7526 C 681.887 5.77349 1.28149 0
M  V30 7527 H 680.817 0.685856 0.313238 0
M  V30 7528 H 683.468 1.83319 0.0814851 0
M  V30 7529 H 681.85 3.21044 2.31834 0
M  V30 7530 H 683.024 4.60457 -0.177729 0
M  V30 7531 H 681.339 4.164 -0.00241228 0
M  V30 7532 H 683.936 4.58776 2.74643 0
M  V30 7533 H 684.279 2.89315 2.99337 0
M  V30 7534 H 684.812 3.68767 1.49184 0
M  V30 7535 H 681.551 6.53221 0.546189 0
M  V30 7536 H 681.071 5.64978 2.01394 0
M  V30 7537 H 682.75 6.21006 1.81549 0
M  V30 7538 N 682.882 -0.391992 1.52647 0
M  V30 7539 C 683.812 -1.48517 1.8018 0
M  V30 7540 C 684.793 -1.57039 0.653667 0
M  V30 7541 O 685.978 -1.72036 0.900962 0
M  V30 7542 C 683.108 -2.86161 1.96797 0
M  V30 7543 C 682.062 -2.92481 3.12472 0
M  V30 7544 C 681.388 -4.32546 3.14338 0
M  V30 7545 C 682.688 -2.624 4.51601 0
M  V30 7546 H 684.382 -1.25726 2.71723 0
M  V30 7547 H 681.928 -0.603387 1.30749 0
M  V30 7548 H 683.881 -3.62639 2.14641 0
M  V30 7549 H 682.605 -3.10283 1.01941 0
M  V30 7550 H 681.264 -2.18451 2.94406 0
M  V30 7551 H 680.912 -4.53703 2.1717 0
M  V30 7552 H 680.612 -4.37695 3.92042 0
M  V30 7553 H 682.136 -5.10934 3.34333 0
M  V30 7554 H 683.55 -3.28596 4.69785 0
M  V30 7555 H 681.947 -2.78903 5.3135 0
M  V30 7556 H 683.017 -1.57754 4.58521 0
M  V30 7557 N 684.36 -1.4356 -0.65026 0
M  V30 7558 C 685.607 -1.45333 -1.41012 0
M  V30 7559 C 685.935 -0.0787282 -1.94341 0
M  V30 7560 O 685.19 0.916715 -1.72901 0
M  V30 7561 C 685.489 -2.44528 -2.60654 0
M  V30 7562 C 685.155 -3.90331 -2.25727 0
M  V30 7563 C 683.817 -4.3004 -2.15914 0
M  V30 7564 C 686.169 -4.822 -1.97821 0
M  V30 7565 C 683.497 -5.59568 -1.76354 0
M  V30 7566 C 685.849 -6.12095 -1.59759 0
M  V30 7567 C 684.513 -6.50778 -1.48473 0
M  V30 7568 H 683.783 -0.531813 -0.516 0
M  V30 7569 H 686.43 -1.76657 -0.739219 0
M  V30 7570 H 684.735 -2.06619 -3.3289 0
M  V30 7571 H 686.432 -2.43155 -3.18868 0
M  V30 7572 H 683.022 -3.58905 -2.34276 0
M  V30 7573 H 687.206 -4.5229 -2.04322 0
M  V30 7574 H 682.462 -5.88376 -1.66205 0
M  V30 7575 H 686.636 -6.82751 -1.37198 0
M  V30 7576 H 684.263 -7.5105 -1.17591 0
M  V30 7577 N 685.838 0.888903 -1.30139 0
M  V30 7578 C 687.063 1.67884 -1.21777 0
M  V30 7579 C 687.488 1.86848 0.216689 0
M  V30 7580 O 686.846 1.39659 1.15608 0
M  V30 7581 C 686.894 3.03483 -1.94757 0
M  V30 7582 O 685.998 3.92294 -1.27198 0
M  V30 7583 H 685.339 0.513144 -0.421402 0
M  V30 7584 H 687.869 1.10968 -1.71893 0
M  V30 7585 H 687.879 3.53553 -2.03627 0
M  V30 7586 H 686.554 2.89 -2.99085 0
M  V30 7587 H 685.131 3.50732 -1.26655 0
M  V30 7588 N 687.317 1.12792 1.10072 0
M  V30 7589 C 688.28 0.802264 2.14701 0
M  V30 7590 C 689.28 -0.18515 1.59731 0
M  V30 7591 O 690.47 0.041109 1.74151 0
M  V30 7592 C 687.602 0.19285 3.40354 0
M  V30 7593 H 688.795 1.72932 2.45019 0
M  V30 7594 H 686.348 0.931662 1.25498 0
M  V30 7595 H 687.083 -0.743748 3.15656 0
M  V30 7596 H 686.868 0.903827 3.81541 0
M  V30 7597 H 688.358 -0.0183704 4.17596 0
M  V30 7598 N 688.795 -1.27931 0.920396 0
M  V30 7599 C 690.206 -1.76707 0.602616 0
M  V30 7600 C 690.557 -1.75249 -0.882159 0
M  V30 7601 O 689.682 -1.35135 -1.69019 0
M  V30 7602 C 690.277 -3.20884 1.08714 0
M  V30 7603 C 688.836 -3.67356 0.820157 0
M  V30 7604 C 687.983 -2.47525 1.25006 0
M  V30 7605 H 690.934 -1.14301 1.10095 0
M  V30 7606 H 690.955 -3.78045 0.431535 0
M  V30 7607 H 690.467 -3.21913 2.1678 0
M  V30 7608 H 688.568 -3.7178 -0.247012 0
M  V30 7609 H 688.681 -4.57181 1.43257 0
M  V30 7610 H 687.045 -2.45765 0.668698 0
M  V30 7611 H 687.828 -2.51269 2.3392 0
M  V30 7612 N 690.273 -0.685099 -1.4193 0
M  V30 7613 C 691.223 0.00977295 -2.27998 0
M  V30 7614 C 692.207 0.763315 -1.41641 0
M  V30 7615 O 693.399 0.640532 -1.65004 0
M  V30 7616 C 690.528 0.952972 -3.29808 0
M  V30 7617 C 689.614 0.196231 -4.23646 0
M  V30 7618 N 690.005 -0.804401 -4.99363 0
M  V30 7619 C 688.303 0.433213 -4.43891 0
M  V30 7620 C 689.004 -1.25646 -5.67968 0
M  V30 7621 N 687.98 -0.5844 -5.4045 0
M  V30 7622 H 691.782 -0.757586 -2.83968 0
M  V30 7623 H 689.296 -0.515037 -1.54017 0
M  V30 7624 H 691.293 1.46585 -3.9028 0
M  V30 7625 H 689.953 1.72004 -2.75399 0
M  V30 7626 H 690.964 -1.18429 -5.04177 0
M  V30 7627 H 687.641 1.17899 -4.00507 0
M  V30 7628 H 689.031 -2.08622 -6.38691 0
M  V30 7629 N 691.751 1.51645 -0.429126 0
M  V30 7630 C 692.997 2.02314 0.140286 0
M  V30 7631 C 693.33 1.31314 1.43074 0
M  V30 7632 O 692.605 0.425531 1.89788 0
M  V30 7633 C 692.888 3.5822 0.36749 0
M  V30 7634 C 692.741 4.39846 -0.941039 0
M  V30 7635 C 694.06 4.25055 1.14089 0
M  V30 7636 H 691.179 0.735335 0.0495112 0
M  V30 7637 H 693.821 1.81358 -0.566514 0
M  V30 7638 H 691.971 3.76207 0.969556 0
M  V30 7639 H 693.643 4.33527 -1.57646 0
M  V30 7640 H 691.886 4.05259 -1.54751 0
M  V30 7641 H 692.557 5.47069 -0.73621 0
M  V30 7642 H 695.033 4.11288 0.630986 0
M  V30 7643 H 693.909 5.34038 1.26863 0
M  V30 7644 H 694.17 3.85358 2.16683 0
M  V30 7645 N 693.229 0.160201 1.56784 0
M  V30 7646 C 694.476 -0.487588 1.96542 0
M  V30 7647 C 694.804 -1.63999 1.04569 0
M  V30 7648 O 694.059 -1.95546 0.0775211 0
M  V30 7649 C 694.358 -1.02259 3.42459 0
M  V30 7650 C 694.024 0.0127436 4.50898 0
M  V30 7651 C 692.686 0.297318 4.80281 0
M  V30 7652 C 695.038 0.716078 5.16257 0
M  V30 7653 C 692.366 1.29081 5.72324 0
M  V30 7654 C 694.718 1.69847 6.09372 0
M  V30 7655 C 693.382 1.99061 6.37127 0
M  V30 7656 H 692.652 -0.178421 0.719199 0
M  V30 7657 H 695.299 0.249818 1.89864 0
M  V30 7658 H 693.604 -1.8376 3.46034 0
M  V30 7659 H 695.301 -1.53261 3.70556 0
M  V30 7660 H 691.891 -0.219235 4.28039 0
M  V30 7661 H 696.075 0.509428 4.93679 0
M  V30 7662 H 691.331 1.52344 5.92116 0
M  V30 7663 H 695.505 2.2489 6.59088 0
M  V30 7664 H 693.132 2.76194 7.08252 0
M  V30 7665 N 694.707 -1.5719 -0.113559 0
M  V30 7666 C 695.639 -1.97393 -1.16484 0
M  V30 7667 C 696.652 -0.873964 -1.37352 0
M  V30 7668 O 697.841 -1.15222 -1.36331 0
M  V30 7669 C 694.941 -2.26174 -2.52386 0
M  V30 7670 C 694.114 -3.57479 -2.52046 0
M  V30 7671 C 693.173 -3.74409 -3.69735 0
M  V30 7672 O 692.199 -4.46463 -3.53071 0
M  V30 7673 N 693.401 -3.13588 -4.88511 0
M  V30 7674 H 696.166 -2.88184 -0.822814 0
M  V30 7675 H 693.727 -1.59044 -0.302769 0
M  V30 7676 H 695.719 -2.3471 -3.29687 0
M  V30 7677 H 694.289 -1.41483 -2.7875 0
M  V30 7678 H 693.509 -3.60081 -1.60421 0
M  V30 7679 H 694.797 -4.43775 -2.48881 0
M  V30 7680 H 694.195 -2.55026 -5.04953 0
M  V30 7681 H 692.752 -3.27637 -5.63469 0
M  V30 7682 N 696.185 0.383891 -1.52853 0
M  V30 7683 C 697.601 0.724316 -1.42218 0
M  V30 7684 C 697.801 1.93943 -0.546654 0
M  V30 7685 O 696.857 2.5249 -0.0220562 0
M  V30 7686 C 698.17 0.954635 -2.85144 0
M  V30 7687 C 699.718 1.05579 -2.94656 0
M  V30 7688 C 700.193 1.3187 -4.38605 0
M  V30 7689 N 701.684 1.38681 -4.41952 0
M  V30 7690 C 702.419 1.60699 -5.50421 0
M  V30 7691 N 701.915 1.80154 -6.68967 0
M  V30 7692 N 703.708 1.6292 -5.37972 0
M  V30 7693 H 695.859 -0.4156 -2.08294 0
M  V30 7694 H 698.122 -0.123776 -0.939885 0
M  V30 7695 H 697.828 0.133829 -3.51445 0
M  V30 7696 H 697.702 1.86788 -3.27704 0
M  V30 7697 H 700.089 1.86716 -2.2852 0
M  V30 7698 H 700.17 0.120338 -2.55517 0
M  V30 7699 H 699.814 0.512416 -5.05309 0
M  V30 7700 H 699.744 2.26708 -4.75301 0
M  V30 7701 H 702.235 1.25334 -3.56511 0
M  V30 7702 H 702.548 1.96476 -7.47407 0
M  V30 7703 H 700.893 1.77368 -6.71986 0
M  V30 7704 H 704.084 1.47276 -4.44328 0
M  V30 7705 H 704.257 1.79739 -6.22574 0
M  V30 7706 N 697.663 1.43903 0.642637 0
M  V30 7707 C 698.912 1.45362 1.39831 0
M  V30 7708 C 699.225 0.0856289 1.95412 0
M  V30 7709 O 700.431 -0.0222856 2.71491 0
M  V30 7710 C 698.887 2.55857 2.53111 0
M  V30 7711 C 698.495 3.98811 2.04092 0
M  V30 7712 C 700.239 2.66524 3.30402 0
M  V30 7713 C 698.146 5.00751 3.14647 0
M  V30 7714 H 697.076 0.540777 0.52543 0
M  V30 7715 H 699.727 1.69929 0.692559 0
M  V30 7716 H 698.109 2.2451 3.26207 0
M  V30 7717 H 699.283 4.3967 1.37938 0
M  V30 7718 H 697.598 3.92284 1.39651 0
M  V30 7719 H 700.195 3.39858 4.12796 0
M  V30 7720 H 700.538 1.71949 3.79129 0
M  V30 7721 H 701.071 2.97224 2.64392 0
M  V30 7722 H 697.81 5.96914 2.70876 0
M  V30 7723 H 697.33 4.64495 3.79479 0
M  V30 7724 H 699.009 5.23933 3.79609 0
M  V30 7725 N 699.141 -0.881989 1.30609 0
M  V30 7726 C 700.418 -1.61563 1.10258 0
M  V30 7727 C 700.798 -2.08228 -0.347053 0
M  V30 7728 O 700.146 -1.85151 -1.33908 0
M  V30 7729 C 700.356 -2.78287 2.10612 0
M  V30 7730 C 701.704 -3.48545 2.4249 0
M  V30 7731 O 702.728 -2.88479 2.08945 0
M  V30 7732 O 701.587 -4.56873 2.99883 0
M  V30 7733 H 698.681 -0.710238 0.423663 0
M  V30 7734 H 701.227 -0.928503 1.42045 0
M  V30 7735 H 699.999 -2.41131 3.08174 0
M  V30 7736 H 699.622 -3.54695 1.79659 0
M  V30 7737 N 700.619 -1.13374 -1.09472 0
M  V30 7738 C 701.551 -0.768466 -2.15933 0
M  V30 7739 C 702.564 0.209585 -1.61445 0
M  V30 7740 O 703.753 -0.010539 -1.78497 0
M  V30 7741 C 700.853 -0.118266 -3.38694 0
M  V30 7742 C 700.026 -1.12829 -4.22597 0
M  V30 7743 C 699.085 -0.503875 -5.23782 0
M  V30 7744 O 698.111 -1.16374 -5.57177 0
M  V30 7745 N 699.313 0.724288 -5.75964 0
M  V30 7746 H 702.078 -1.68457 -2.47876 0
M  V30 7747 H 699.639 -1.02668 -1.25183 0
M  V30 7748 H 701.631 0.311698 -4.03498 0
M  V30 7749 H 700.201 0.700769 -3.04644 0
M  V30 7750 H 699.421 -1.73556 -3.53938 0
M  V30 7751 H 700.709 -1.81095 -4.75481 0
M  V30 7752 H 700.107 1.27918 -5.51048 0
M  V30 7753 H 698.664 1.09692 -6.42504 0
M  V30 7754 N 702.098 1.27442 -0.927168 0
M  V30 7755 C 703.03 2.25975 -0.383158 0
M  V30 7756 C 704.043 1.55382 0.485832 0
M  V30 7757 O 705.232 1.75986 0.298541 0
M  V30 7758 C 702.332 3.35629 0.469688 0
M  V30 7759 C 701.505 4.35747 -0.379886 0
M  V30 7760 C 700.564 5.24598 0.410227 0
M  V30 7761 O 699.59 5.68909 -0.181888 0
M  V30 7762 N 700.792 5.54737 1.71017 0
M  V30 7763 H 703.557 2.7329 -1.23015 0
M  V30 7764 H 701.118 1.41063 -0.794539 0
M  V30 7765 H 703.11 3.92015 1.00532 0
M  V30 7766 H 701.68 2.87919 1.21744 0
M  V30 7767 H 700.9 3.78634 -1.09682 0
M  V30 7768 H 702.188 4.99648 -0.960717 0
M  V30 7769 H 701.586 5.20594 2.21356 0
M  V30 7770 H 700.143 6.13824 2.19234 0
M  V30 7771 N 703.576 0.692616 1.41565 0
M  V30 7772 C 704.486 0.0258451 2.34586 0
M  V30 7773 C 705.502 -0.769324 1.56069 0
M  V30 7774 O 706.678 -0.707563 1.88562 0
M  V30 7775 C 703.743 -0.901289 3.3478 0
M  V30 7776 C 702.804 -0.0986579 4.29187 0
M  V30 7777 C 702.037 -0.981634 5.24595 0
M  V30 7778 O 702.26 -2.22115 5.25377 0
M  V30 7779 O 701.194 -0.432892 6.00341 0
M  V30 7780 H 705.02 0.792537 2.93177 0
M  V30 7781 H 702.605 0.452935 1.42369 0
M  V30 7782 H 704.487 -1.43302 3.96286 0
M  V30 7783 H 703.162 -1.64752 2.78637 0
M  V30 7784 H 702.069 0.477604 3.71039 0
M  V30 7785 H 703.402 0.608848 4.8842 0
M  V30 7786 N 705.054 -1.51416 0.437162 0
M  V30 7787 C 705.987 -2.24309 -0.419602 0
M  V30 7788 C 706.965 -1.26236 -1.02485 0
M  V30 7789 O 708.149 -1.5537 -1.06735 0
M  V30 7790 C 705.276 -2.99335 -1.58482 0
M  V30 7791 C 704.322 -4.12064 -1.10027 0
M  V30 7792 S 705.155 -5.35483 -0.0424476 0
M  V30 7793 C 706.311 -6.14047 -1.21234 0
M  V30 7794 H 706.544 -2.96632 0.199259 0
M  V30 7795 H 704.077 -1.528 0.22168 0
M  V30 7796 H 706.035 -3.43159 -2.25282 0
M  V30 7797 H 704.696 -2.26602 -2.17509 0
M  V30 7798 H 703.889 -4.63836 -1.97161 0
M  V30 7799 H 703.491 -3.70499 -0.510507 0
M  V30 7800 H 705.783 -6.43123 -2.13072 0
M  V30 7801 H 706.726 -7.04279 -0.734582 0
M  V30 7802 H 707.134 -5.45538 -1.45082 0
M  V30 7803 N 706.532 -0.168513 -1.56696 0
M  V30 7804 C 707.462 0.758563 -2.20835 0
M  V30 7805 C 708.443 1.24121 -1.1631 0
M  V30 7806 O 709.628 1.29487 -1.4473 0
M  V30 7807 C 706.758 1.9892 -2.8469 0
M  V30 7808 C 705.712 1.64252 -3.95228 0
M  V30 7809 C 705.038 2.94757 -4.46119 0
M  V30 7810 C 706.338 0.872675 -5.14958 0
M  V30 7811 H 708.032 0.223953 -2.98561 0
M  V30 7812 H 705.578 0.106277 -1.43607 0
M  V30 7813 H 707.531 2.64275 -3.28233 0
M  V30 7814 H 706.255 2.5479 -2.04327 0
M  V30 7815 H 704.914 1.01266 -3.52336 0
M  V30 7816 H 704.562 3.48662 -3.62552 0
M  V30 7817 H 704.262 2.72316 -5.2069 0
M  V30 7818 H 705.786 3.61147 -4.92347 0
M  V30 7819 H 707.2 1.42875 -5.55211 0
M  V30 7820 H 705.597 0.747402 -5.95428 0
M  V30 7821 H 706.667 -0.131535 -4.84722 0
M  V30 7822 N 708.01 1.57248 0.105221 0
M  V30 7823 C 709.287 1.76566 0.841647 0
M  V30 7824 C 709.667 0.747566 1.9742 0
M  V30 7825 O 709.015 -0.225886 2.27381 0
M  V30 7826 C 709.225 3.22016 1.3456 0
M  V30 7827 C 710.573 3.84911 1.79244 0
M  V30 7828 O 711.597 3.25703 1.44207 0
M  V30 7829 O 710.456 4.89008 2.43995 0
M  V30 7830 H 707.55 0.723443 0.400698 0
M  V30 7831 H 710.096 1.69472 0.0878893 0
M  V30 7832 H 708.868 3.87644 0.533685 0
M  V30 7833 H 708.491 3.33703 2.16167 0
M  V30 7834 N 709.488 -0.375779 1.53054 0
M  V30 7835 C 710.904 -0.716764 1.426 0
M  V30 7836 C 711.104 -1.93651 0.556931 0
M  V30 7837 O 710.16 -2.52475 0.0354461 0
M  V30 7838 C 711.473 -0.939499 2.85646 0
M  V30 7839 C 713.021 -1.04015 2.95212 0
M  V30 7840 C 713.496 -1.29543 4.39298 0
M  V30 7841 N 714.987 -1.36335 4.42682 0
M  V30 7842 C 715.722 -1.57778 5.51266 0
M  V30 7843 N 715.218 -1.76604 6.69913 0
M  V30 7844 N 717.011 -1.60065 5.38828 0
M  V30 7845 H 709.162 0.42664 2.08071 0
M  V30 7846 H 711.425 0.128758 0.939215 0
M  V30 7847 H 711.131 -0.115189 3.51511 0
M  V30 7848 H 711.005 -1.85048 3.2869 0
M  V30 7849 H 713.392 -1.85501 2.29507 0
M  V30 7850 H 713.473 -0.106785 2.55577 0
M  V30 7851 H 713.117 -0.485611 5.05573 0
M  V30 7852 H 713.047 -2.24184 4.76497 0
M  V30 7853 H 715.538 -1.23441 3.5717 0
M  V30 7854 H 715.851 -1.9251 7.48438 0
M  V30 7855 H 714.196 -1.73802 6.72917 0
M  V30 7856 H 717.387 -1.44917 4.45103 0
M  V30 7857 H 717.56 -1.76435 6.23518 0
M  V30 7858 N 710.966 -1.44241 -0.634997 0
M  V30 7859 C 711.896 -1.53632 -1.7584 0
M  V30 7860 C 712.877 -0.389603 -1.65578 0
M  V30 7861 O 714.062 -0.609219 -1.84397 0
M  V30 7862 C 711.192 -1.47644 -3.14354 0
M  V30 7863 C 710.146 -2.60752 -3.394 0
M  V30 7864 C 709.472 -2.39817 -4.77904 0
M  V30 7865 C 710.772 -4.02921 -3.32343 0
M  V30 7866 H 712.466 -2.47662 -1.68238 0
M  V30 7867 H 710.012 -1.19197 -0.807969 0
M  V30 7868 H 711.965 -1.52815 -3.92716 0
M  V30 7869 H 710.689 -0.501284 -3.2273 0
M  V30 7870 H 709.348 -2.54965 -2.63417 0
M  V30 7871 H 708.996 -1.40502 -4.82978 0
M  V30 7872 H 708.696 -3.15649 -4.9562 0
M  V30 7873 H 710.22 -2.46799 -5.585 0
M  V30 7874 H 711.634 -4.10098 -4.00615 0
M  V30 7875 H 710.031 -4.78925 -3.61595 0
M  V30 7876 H 711.101 -4.26766 -2.30215 0
M  V30 7877 N 712.444 0.87505 -1.31075 0
M  V30 7878 C 713.391 1.98178 -1.18296 0
M  V30 7879 C 714.361 1.65952 -0.0699923 0
M  V30 7880 O 715.546 1.8926 -0.241951 0
M  V30 7881 C 712.686 3.33399 -0.891024 0
M  V30 7882 C 711.799 3.78253 -2.08684 0
M  V30 7883 C 710.934 5.02166 -1.73212 0
M  V30 7884 C 709.973 5.39455 -2.89231 0
M  V30 7885 N 709.11 6.54549 -2.53989 0
M  V30 7886 H 713.95 2.0844 -2.12971 0
M  V30 7887 H 711.487 1.02047 -1.05948 0
M  V30 7888 H 713.445 4.11246 -0.702338 0
M  V30 7889 H 712.075 3.22794 0.0188799 0
M  V30 7890 H 711.127 2.9623 -2.38646 0
M  V30 7891 H 712.439 4.01821 -2.95536 0
M  V30 7892 H 711.593 5.87666 -1.50777 0
M  V30 7893 H 710.332 4.80491 -0.83544 0
M  V30 7894 H 709.337 4.52477 -3.12321 0
M  V30 7895 H 710.562 5.63098 -3.79601 0
M  V30 7896 H 708.508 6.3443 -1.66838 0
M  V30 7897 H 708.425 6.78035 -3.34372 0
M  V30 7898 H 709.693 7.43254 -2.34934 0
M  V30 7899 N 713.922 1.13953 1.08869 0
M  V30 7900 C 714.832 0.835666 2.19212 0
M  V30 7901 C 715.848 -0.182005 1.73045 0
M  V30 7902 O 717.024 -0.0116661 2.01397 0
M  V30 7903 C 714.089 0.312325 3.4529 0
M  V30 7904 C 713.15 1.39196 4.06107 0
M  V30 7905 C 712.383 0.893496 5.26168 0
M  V30 7906 O 712.606 -0.266807 5.69776 0
M  V30 7907 O 711.54 1.67037 5.78258 0
M  V30 7908 H 715.366 1.75769 2.47667 0
M  V30 7909 H 712.951 0.917421 1.17914 0
M  V30 7910 H 714.833 0.0261582 4.21392 0
M  V30 7911 H 713.508 -0.582042 3.18424 0
M  V30 7912 H 712.415 1.73152 3.31616 0
M  V30 7913 H 713.748 2.26068 4.37212 0
M  V30 7914 N 715.4 -1.26948 0.933913 0
M  V30 7915 C 716.347 -2.26635 0.436484 0
M  V30 7916 C 717.317 -1.58397 -0.499953 0
M  V30 7917 O 718.502 -1.86171 -0.417753 0
M  V30 7918 C 715.642 -3.43803 -0.298951 0
M  V30 7919 C 714.755 -4.26736 0.672316 0
M  V30 7920 C 713.89 -5.31134 -0.0835872 0
M  V30 7921 C 712.929 -6.05742 0.879979 0
M  V30 7922 N 712.066 -7.01926 0.156301 0
M  V30 7923 H 716.906 -2.68558 1.29154 0
M  V30 7924 H 714.443 -1.32052 0.648118 0
M  V30 7925 H 716.401 -4.10554 -0.741723 0
M  V30 7926 H 715.031 -3.02814 -1.1182 0
M  V30 7927 H 714.083 -3.59842 1.23361 0
M  V30 7928 H 715.395 -4.78502 1.40846 0
M  V30 7929 H 714.549 -6.03863 -0.585984 0
M  V30 7930 H 713.288 -4.80188 -0.852661 0
M  V30 7931 H 712.293 -5.31846 1.39357 0
M  V30 7932 H 713.518 -6.58777 1.64894 0
M  V30 7933 H 711.464 -6.53301 -0.594413 0
M  V30 7934 H 711.381 -7.51409 0.831906 0
M  V30 7935 H 712.649 -7.78821 -0.325239 0
M  V30 7936 N 716.879 -0.700114 -1.41195 0
M  V30 7937 C 718.109 -0.241828 -2.0518 0
M  V30 7938 C 718.517 1.1157 -1.52803 0
M  V30 7939 O 717.86 1.70926 -0.673042 0
M  V30 7940 C 717.922 -0.12695 -3.59276 0
M  V30 7941 C 717.586 -1.41725 -4.34469 0
M  V30 7942 C 718.583 -2.35604 -4.63451 0
M  V30 7943 C 716.268 -1.67189 -4.73659 0
M  V30 7944 C 718.262 -3.53204 -5.3059 0
M  V30 7945 C 715.949 -2.85073 -5.40534 0
M  V30 7946 C 716.947 -3.77904 -5.68927 0
M  V30 7947 O 716.635 -4.93723 -6.34424 0
M  V30 7948 H 716.367 -0.109247 -0.667114 0
M  V30 7949 H 718.921 -0.954538 -1.81873 0
M  V30 7950 H 717.151 0.641571 -3.81341 0
M  V30 7951 H 718.84 0.294748 -4.04828 0
M  V30 7952 H 719.606 -2.1719 -4.33651 0
M  V30 7953 H 715.485 -0.957935 -4.50937 0
M  V30 7954 H 719.029 -4.25679 -5.52669 0
M  V30 7955 H 714.926 -3.03402 -5.69752 0
M  V30 7956 H 715.694 -4.93597 -6.5292 0
M  V30 7957 N 718.357 1.51182 -0.445186 0
M  V30 7958 C 719.634 1.9478 0.178965 0
M  V30 7959 C 720.014 1.38428 1.59376 0
M  V30 7960 O 719.362 0.574552 2.21159 0
M  V30 7961 C 719.572 3.48683 0.148711 0
M  V30 7962 C 720.92 4.23152 0.35042 0
M  V30 7963 O 721.944 3.55479 0.226474 0
M  V30 7964 O 720.803 5.4322 0.597893 0
M  V30 7965 H 717.897 0.817387 0.12573 0
M  V30 7966 H 720.443 1.62051 -0.503729 0
M  V30 7967 H 719.215 3.82176 -0.84009 0
M  V30 7968 H 718.838 3.87875 0.873979 0
M  V30 7969 N 719.835 0.176821 1.56605 0
M  V30 7970 C 721.063 -0.472828 2.01425 0
M  V30 7971 C 721.478 -1.56436 1.05703 0
M  V30 7972 O 720.835 -1.82405 0.058808 0
M  V30 7973 C 720.886 -1.04607 3.46034 0
M  V30 7974 O 720.607 0.00189608 4.381 0
M  V30 7975 C 722.108 -1.7734 4.06282 0
M  V30 7976 H 719.328 -0.120503 0.660091 0
M  V30 7977 H 721.872 0.280166 2.02572 0
M  V30 7978 H 720.027 -1.74953 3.45645 0
M  V30 7979 H 720.441 -0.422118 5.22799 0
M  V30 7980 H 721.915 -2.12703 5.09374 0
M  V30 7981 H 722.392 -2.67043 3.4869 0
M  V30 7982 H 722.998 -1.11623 4.10391 0
M  V30 7983 N 721.313 -1.57302 -0.09688 0
M  V30 7984 C 722.276 -2.00976 -1.10188 0
M  V30 7985 C 723.276 -0.903009 -1.3305 0
M  V30 7986 O 724.466 -1.16853 -1.29194 0
M  V30 7987 C 721.598 -2.36893 -2.45142 0
M  V30 7988 H 722.791 -2.9098 -0.726003 0
M  V30 7989 H 720.344 -1.52515 -0.341872 0
M  V30 7990 H 721.079 -1.49837 -2.8761 0
M  V30 7991 H 720.864 -3.17632 -2.29897 0
M  V30 7992 H 722.354 -2.71345 -3.1743 0
M  V30 7993 N 722.791 0.367657 -1.53252 0
M  V30 7994 C 724.016 1.13566 -1.73544 0
M  V30 7995 C 724.441 1.82329 -0.462344 0
M  V30 7996 O 723.799 1.71655 0.583472 0
M  V30 7997 C 723.847 2.14322 -2.89997 0
M  V30 7998 O 722.951 3.21359 -2.58461 0
M  V30 7999 H 722.292 0.329614 -0.576412 0
M  V30 8000 H 724.822 0.425417 -2.00128 0
M  V30 8001 H 724.832 2.57958 -3.16104 0
M  V30 8002 H 723.507 1.63664 -3.82344 0
M  V30 8003 H 722.084 2.8271 -2.43165 0
M  V30 8004 N 724.269 1.44576 0.627338 0
M  V30 8005 C 725.217 1.52039 1.76031 0
M  V30 8006 C 726.211 0.391796 1.64807 0
M  V30 8007 O 727.417 0.5669 1.7084 0
M  V30 8008 H 723.792 0.477165 0.581221 0
M  V30 8009 H 725.763 2.47387 1.6686 0
M  V30 8010 C 724.512 1.48539 3.14375 0
M  V30 8011 H 723.835 2.34699 3.23661 0
M  V30 8012 H 725.275 1.57821 3.93534 0
M  V30 8013 C 723.734 0.20672 3.36265 0
M  V30 8014 O 724.264 -0.72154 3.95167 0
M  V30 8015 N 722.47 0.108654 2.90397 0
M  V30 8016 H 722.017 0.864884 2.42647 0
M  V30 8017 H 721.975 -0.746121 3.05418 0
M  V30 8018 N 725.747 -0.868086 1.31537 0
M  V30 8019 C 726.996 -1.61607 1.20689 0
M  V30 8020 C 727.309 -1.94204 -0.233275 0
M  V30 8021 O 728.515 -2.67515 -0.463465 0
M  V30 8022 C 726.971 -2.91348 2.11292 0
M  V30 8023 C 726.579 -2.66227 3.60315 0
M  V30 8024 C 728.323 -3.69344 2.09249 0
M  V30 8025 C 726.23 -3.91887 4.42921 0
M  V30 8026 H 725.16 -0.606373 0.448138 0
M  V30 8027 H 727.811 -0.959666 1.56405 0
M  V30 8028 H 726.193 -3.58374 1.68477 0
M  V30 8029 H 727.367 -2.07597 4.11388 0
M  V30 8030 H 725.682 -2.01582 3.64354 0
M  V30 8031 H 728.279 -4.62567 2.68209 0
M  V30 8032 H 728.622 -4.02044 1.0801 0
M  V30 8033 H 729.155 -3.09205 2.50274 0
M  V30 8034 H 725.894 -3.64336 5.44922 0
M  V30 8035 H 725.414 -4.49961 3.96605 0
M  V30 8036 H 727.093 -4.59754 4.55231 0
M  V30 8037 N 727.225 -1.14528 -1.08264 0
M  V30 8038 C 728.636 -0.925261 -1.6216 0
M  V30 8039 C 728.987 0.535587 -1.88748 0
M  V30 8040 O 728.112 1.4048 -1.64604 0
M  V30 8041 C 728.707 -1.67316 -2.94603 0
M  V30 8042 C 727.266 -1.49868 -3.45278 0
M  V30 8043 C 726.413 -1.69471 -2.19487 0
M  V30 8044 H 729.364 -1.29687 -0.914707 0
M  V30 8045 H 729.385 -1.13721 -3.63109 0
M  V30 8046 H 728.897 -2.73635 -2.75219 0
M  V30 8047 H 726.998 -0.459032 -3.69762 0
M  V30 8048 H 727.111 -2.2696 -4.21931 0
M  V30 8049 H 725.475 -1.12048 -2.2873 0
M  V30 8050 H 726.258 -2.77136 -2.0261 0
M  V30 8051 O 728.742 1.2085 -1.07133 0
M  V30 8052 H 729.433 1.78311 -0.756635 0
M  V30 END ATOM
M  V30 BEGIN BOND
M  V30 END BOND
M  V30 END CTAB
M  END
$$$$
