drugbank_target|P0A9B2 Glyceraldehyde-3-phosphate dehydrogenase A (DB02263; DB03814)
 OpenBabel12092120033D

  0  0  0     0  0            999 V3000
M  V30 BEGIN CTAB
M  V30 COUNTS 5011 5050 0 0 0
M  V30 BEGIN ATOM
M  V30 1 H -0.908 1.98254 -0.117106 0
M  V30 2 N 0 1.576 0 0
M  V30 3 C 0.933 2.03868 1.02534 0
M  V30 4 C 1.911 0.928543 1.3348 0
M  V30 5 O 3.095 1.19667 1.45644 0
M  V30 6 C 0.222 2.43627 2.35294 0
M  V30 7 C -0.732 3.65373 2.2001 0
M  V30 8 S 0.101 5.13292 1.52614 0
M  V30 9 C 1.257 5.56322 2.86805 0
M  V30 10 H 1.49 2.90518 0.631377 0
M  V30 11 H -0.977 1.52953 0.210867 0
M  V30 12 H 0.981 2.67203 3.11629 0
M  V30 13 H -0.358 1.57376 2.7183 0
M  V30 14 H -1.165 3.90944 3.18086 0
M  V30 15 H -1.563 3.418 1.51819 0
M  V30 16 H 0.729 5.58782 3.83104 0
M  V30 17 H 1.672 6.56266 2.65933 0
M  V30 18 H 2.08 4.83886 2.90714 0
M  V30 19 N 1.4781 -0.272755 1.55222 0
M  V30 20 C 2.7061 -1.02255 1.79865 0
M  V30 21 C 3.1211 -1.79924 0.572088 0
M  V30 22 O 2.4781 -1.76638 -0.458842 0
M  V30 23 C 2.5291 -1.98094 3.02392 0
M  V30 24 O 2.2501 -1.23572 4.20311 0
M  V30 25 C 3.7511 -2.84884 3.39641 0
M  V30 26 H 0.9711 -0.302057 0.599168 0
M  V30 27 H 3.5151 -0.303465 2.02236 0
M  V30 28 H 1.6701 -2.65465 2.82147 0
M  V30 29 H 2.0841 -1.88172 4.89583 0
M  V30 30 H 3.5581 -3.47927 4.28545 0
M  V30 31 H 4.0351 -3.54665 2.59055 0
M  V30 32 H 4.6411 -2.23003 3.62146 0
M  V30 33 N 2.9562 -1.48159 -0.537278 0
M  V30 34 C 4.2052 -1.5506 -1.28993 0
M  V30 35 C 4.5182 -0.226211 -1.94288 0
M  V30 36 O 5.7242 -0.173395 -2.70946 0
M  V30 37 C 4.1802 -2.73429 -2.34018 0
M  V30 38 C 3.7882 -4.1248 -1.74825 0
M  V30 39 C 5.5322 -2.89638 -3.10339 0
M  V30 40 C 3.4392 -5.22121 -2.77747 0
M  V30 41 H 2.3692 -0.577231 -0.485098 0
M  V30 42 H 5.0202 -1.74478 -0.568317 0
M  V30 43 H 3.4022 -2.47431 -3.09182 0
M  V30 44 H 4.5762 -4.48466 -1.05899 0
M  V30 45 H 2.8912 -4.01327 -1.11022 0
M  V30 46 H 5.4882 -3.68718 -3.87235 0
M  V30 47 H 5.8312 -1.9882 -3.65754 0
M  V30 48 H 6.3642 -3.15502 -2.42288 0
M  V30 49 H 3.1032 -6.1488 -2.27161 0
M  V30 50 H 2.6232 -4.90631 -3.45024 0
M  V30 51 H 4.3022 -5.49924 -3.4087 0
M  V30 52 N 4.4343 0.785586 -1.36625 0
M  V30 53 C 5.3813 1.89838 -1.31264 0
M  V30 54 C 6.3513 1.65115 -0.180633 0
M  V30 55 O 7.5363 1.87222 -0.36777 0
M  V30 56 C 4.6763 3.26706 -1.11163 0
M  V30 57 C 3.7893 3.63476 -2.33472 0
M  V30 58 C 2.9243 4.89481 -2.06353 0
M  V30 59 C 1.9633 5.18941 -3.24602 0
M  V30 60 N 1.1003 6.36131 -2.97123 0
M  V30 61 H 5.9403 1.93756 -2.26413 0
M  V30 62 H 3.4773 0.947454 -1.12524 0
M  V30 63 H 5.4353 4.05639 -0.975337 0
M  V30 64 H 4.0653 3.222 -0.196674 0
M  V30 65 H 3.1173 2.79636 -2.57891 0
M  V30 66 H 4.4293 3.81193 -3.21704 0
M  V30 67 H 3.5833 5.76288 -1.89675 0
M  V30 68 H 2.3223 4.73841 -1.15437 0
M  V30 69 H 1.3273 4.30615 -3.41834 0
M  V30 70 H 2.5523 5.36498 -4.16349 0
M  V30 71 H 0.4983 6.21875 -2.08823 0
M  V30 72 H 0.4153 6.54198 -3.78894 0
M  V30 73 H 1.6833 7.2591 -2.84033 0
M  V30 74 N 5.9124 1.20967 1.01018 0
M  V30 75 C 7.1584 1.02526 1.74975 0
M  V30 76 C 7.4914 -0.4408 1.89131 0
M  V30 77 O 6.7664 -1.32718 1.42184 0
M  V30 78 C 7.0494 1.71699 3.1653 0
M  V30 79 C 6.9024 3.25791 3.10129 0
M  V30 80 C 8.2214 1.45531 4.15342 0
M  V30 81 H 5.3404 0.373863 0.635134 0
M  V30 82 H 7.9824 1.49071 1.17805 0
M  V30 83 H 6.1324 1.32128 3.65341 0
M  V30 84 H 7.8044 3.74697 2.69072 0
M  V30 85 H 6.0474 3.56363 2.47362 0
M  V30 86 H 6.7184 3.69353 4.10222 0
M  V30 87 H 9.1944 1.79872 3.75213 0
M  V30 88 H 8.0704 1.96453 5.1254 0
M  V30 89 H 8.3314 0.384237 4.40427 0
M  V30 90 N 7.3905 -1.2043 1.01659 0
M  V30 91 C 8.6385 -1.89423 0.704522 0
M  V30 92 C 8.9595 -1.79231 -0.768197 0
M  V30 93 O 8.2295 -1.1947 -1.55254 0
M  V30 94 H 6.8095 -0.701178 0.257602 0
M  V30 95 H 9.4715 -1.4626 1.28818 0
M  V30 96 H 8.5675 -2.96052 0.987916 0
M  V30 97 N 8.8686 -0.792821 -1.36206 0
M  V30 98 C 10.1176 -0.363353 -1.984 0
M  V30 99 C 10.4306 1.07172 -1.63626 0
M  V30 100 O 11.6366 1.60362 -2.19081 0
M  V30 101 C 10.0926 -0.59872 -3.54885 0
M  V30 102 C 9.7006 -2.04543 -3.9858 0
M  V30 103 C 11.4446 -0.233926 -4.23855 0
M  V30 104 C 9.3516 -2.22727 -5.47856 0
M  V30 105 H 8.2816 -0.13212 -0.742334 0
M  V30 106 H 10.9326 -0.974935 -1.55458 0
M  V30 107 H 9.3146 0.0826222 -3.95914 0
M  V30 108 H 10.4886 -2.76345 -3.68741 0
M  V30 109 H 8.8036 -2.36879 -3.42458 0
M  V30 110 H 11.4006 -0.348027 -5.33566 0
M  V30 111 H 11.7436 0.818351 -4.08177 0
M  V30 112 H 12.2766 -0.868639 -3.882 0
M  V30 113 H 9.0156 -3.2635 -5.68486 0
M  V30 114 H 8.5356 -1.55434 -5.7931 0
M  V30 115 H 10.2146 -2.03607 -6.14128 0
M  V30 116 N 10.3467 1.47872 -0.545128 0
M  V30 117 C 11.2947 2.31533 0.222512 0
M  V30 118 C 12.2887 1.42177 0.920985 0
M  V30 119 O 13.4947 1.59005 0.843645 0
M  V30 120 H 9.8697 0.746519 0.0906278 0
M  V30 121 H 11.8407 2.94139 -0.50246 0
M  V30 122 C 10.5897 3.2457 1.24699 0
M  V30 123 H 9.9127 3.93283 0.718944 0
M  V30 124 H 11.3527 3.85963 1.75523 0
M  V30 125 C 9.8117 2.47237 2.28856 0
M  V30 126 O 10.3417 2.20808 3.35569 0
M  V30 127 N 8.5477 2.08461 2.02466 0
M  V30 128 H 8.0947 2.30155 1.157 0
M  V30 129 H 8.0527 1.57033 2.72375 0
M  V30 130 N 11.8248 0.280983 1.55075 0
M  V30 131 C 13.0728 -0.333455 1.9933 0
M  V30 132 C 13.3938 -1.55937 1.17085 0
M  V30 133 O 12.6638 -1.94143 0.261805 0
M  V30 134 H 11.2438 -0.126197 0.736263 0
M  V30 135 H 13.9058 0.387678 1.91005 0
M  V30 136 H 13.0018 -0.619292 3.05894 0
M  V30 137 N 13.3029 -1.57598 0.00835791 0
M  V30 138 C 14.5499 -1.90928 -0.674732 0
M  V30 139 C 14.8779 -0.88277 -1.73313 0
M  V30 140 O 14.1329 0.111294 -1.95383 0
M  V30 141 C 14.4319 -3.3101 -1.34787 0
M  V30 142 C 14.0979 -4.48922 -0.421861 0
M  V30 143 C 12.7599 -4.8091 -0.166927 0
M  V30 144 C 15.1119 -5.20755 0.215211 0
M  V30 145 C 12.4399 -5.821 0.733232 0
M  V30 146 C 14.7919 -6.22905 1.1033 0
M  V30 147 C 13.4559 -6.53346 1.36733 0
M  V30 148 H 12.7259 -0.698656 -0.246902 0
M  V30 149 H 15.3729 -1.91387 0.0656779 0
M  V30 150 H 13.6779 -3.26714 -2.16253 0
M  V30 151 H 15.3749 -3.54061 -1.8826 0
M  V30 152 H 11.9649 -4.23934 -0.630729 0
M  V30 153 H 16.1489 -4.9629 0.0312829 0
M  V30 154 H 11.4049 -6.04042 0.945712 0
M  V30 155 H 15.5789 -6.77694 1.60325 0
M  V30 156 H 13.2059 -7.31573 2.06652 0
M  V30 157 N 14.781 0.264519 -1.55364 0
M  V30 158 C 16.029 0.993021 -1.76021 0
M  V30 159 C 16.35 1.86511 -0.569099 0
M  V30 160 O 15.62 1.91438 0.415735 0
M  V30 161 H 14.2 0.369639 -0.649135 0
M  V30 162 H 16.862 0.286707 -1.9278 0
M  V30 163 H 15.958 1.62502 -2.66457 0
M  V30 164 N 16.2591 1.48442 0.529413 0
M  V30 165 C 17.6751 1.34575 0.858004 0
M  V30 166 C 17.8751 0.3572 1.98309 0
M  V30 167 O 16.9311 -0.221379 2.51528 0
M  V30 168 C 18.2441 2.74617 1.22499 0
M  V30 169 C 19.7921 2.83109 1.33484 0
M  V30 170 C 20.2671 4.23854 1.73526 0
M  V30 171 N 21.7581 4.2653 1.80628 0
M  V30 172 C 22.4931 5.32372 2.12997 0
M  V30 173 N 21.9891 6.48491 2.43786 0
M  V30 174 N 23.7821 5.19766 2.14008 0
M  V30 175 H 15.9331 2.1133 -0.212925 0
M  V30 176 H 18.1961 0.947439 -0.0326199 0
M  V30 177 H 17.9021 3.4852 0.471905 0
M  V30 178 H 17.7761 3.08177 2.17501 0
M  V30 179 H 20.1631 2.09462 2.0787 0
M  V30 180 H 20.2441 2.53168 0.366027 0
M  V30 181 H 19.8881 4.98018 0.997013 0
M  V30 182 H 19.8181 4.5124 2.71459 0
M  V30 183 H 22.3091 3.42772 1.59108 0
M  V30 184 H 22.6221 7.24993 2.67592 0
M  V30 185 H 20.9671 6.51765 2.41304 0
M  V30 186 H 24.1581 4.28066 1.89412 0
M  V30 187 H 24.3311 6.02354 2.38902 0
M  V30 188 N 17.7372 -0.778329 1.37039 0
M  V30 189 C 18.9862 -1.53189 1.3121 0
M  V30 190 C 19.2992 -1.95328 -0.103095 0
M  V30 191 O 20.5052 -2.70012 -0.283826 0
M  V30 192 C 18.9612 -2.76591 2.30272 0
M  V30 193 C 18.5692 -2.41577 3.77286 0
M  V30 194 C 20.3132 -3.5455 2.33441 0
M  V30 195 C 18.2202 -3.61441 4.68096 0
M  V30 196 H 17.1502 -0.5751 0.487622 0
M  V30 197 H 19.8012 -0.853101 1.62464 0
M  V30 198 H 18.1832 -3.46326 1.92027 0
M  V30 199 H 19.3572 -1.79668 4.2433 0
M  V30 200 H 17.6722 -1.76806 3.76999 0
M  V30 201 H 20.2692 -4.43628 2.98493 0
M  V30 202 H 20.6122 -3.93936 1.34611 0
M  V30 203 H 21.1452 -2.91805 2.7036 0
M  V30 204 H 17.8842 -3.27142 5.6803 0
M  V30 205 H 17.4042 -4.22478 4.25761 0
M  V30 206 H 19.0832 -4.28335 4.8491 0
M  V30 207 N 19.2153 -1.21501 -1.00376 0
M  V30 208 C 20.4633 -1.03095 -1.73827 0
M  V30 209 C 20.7843 0.436341 -1.90055 0
M  V30 210 O 20.0543 1.31466 -1.45236 0
M  V30 211 H 18.6343 -0.378487 -0.644016 0
M  V30 212 H 21.2963 -1.52831 -1.20949 0
M  V30 213 H 20.3923 -1.49991 -2.73695 0
M  V30 214 N 20.6934 1.19889 -1.02296 0
M  V30 215 C 22.1094 1.41462 -0.738954 0
M  V30 216 C 22.3094 1.89721 0.678846 0
M  V30 217 O 21.3654 2.07016 1.4457 0
M  V30 218 C 22.6784 2.43083 -1.77005 0
M  V30 219 C 24.2264 2.5684 -1.78892 0
M  V30 220 C 24.7014 3.61709 -2.80945 0
M  V30 221 N 26.1924 3.69199 -2.79725 0
M  V30 222 C 26.9274 4.50019 -3.55345 0
M  V30 223 N 26.4234 5.34592 -4.40662 0
M  V30 224 N 28.2164 4.44612 -3.43914 0
M  V30 225 H 20.3674 0.868827 -1.93817 0
M  V30 226 H 22.6304 0.44399 -0.837602 0
M  V30 227 H 22.3364 2.14636 -2.78612 0
M  V30 228 H 22.2104 3.4217 -1.58744 0
M  V30 229 H 24.5974 2.84614 -0.779674 0
M  V30 230 H 24.6784 1.57927 -2.01228 0
M  V30 231 H 24.3224 3.34678 -3.82038 0
M  V30 232 H 24.2524 4.60259 -2.5587 0
M  V30 233 H 26.7434 3.08794 -2.17842 0
M  V30 234 H 27.0564 5.93363 -4.95116 0
M  V30 235 H 25.4014 5.34073 -4.44737 0
M  V30 236 H 28.5924 3.7758 -2.76679 0
M  V30 237 H 28.7654 5.0736 -4.031 0
M  V30 238 N 22.1715 0.800033 1.35784 0
M  V30 239 C 23.4205 0.37387 1.98205 0
M  V30 240 C 23.7335 -1.06302 1.64193 0
M  V30 241 O 24.9395 -1.59198 2.19928 0
M  V30 242 C 23.3955 0.617532 3.54562 0
M  V30 243 C 23.0035 2.06654 3.9749 0
M  V30 244 C 24.7475 0.256401 4.23725 0
M  V30 245 C 22.6545 2.2563 5.46667 0
M  V30 246 H 21.5845 0.136055 0.741623 0
M  V30 247 H 24.2355 0.983166 1.54939 0
M  V30 248 H 22.6175 -0.0616248 3.95952 0
M  V30 249 H 23.7915 2.78296 3.67271 0
M  V30 250 H 22.1065 2.38691 3.41197 0
M  V30 251 H 24.7035 0.376318 5.33374 0
M  V30 252 H 25.0465 -0.796692 4.08606 0
M  V30 253 H 25.5795 0.889214 3.87734 0
M  V30 254 H 22.3185 3.2936 5.66747 0
M  V30 255 H 21.8385 1.58504 5.78478 0
M  V30 256 H 23.5175 2.06861 6.1304 0
M  V30 257 N 23.6496 -1.47581 0.552962 0
M  V30 258 C 24.8956 -2.02782 0.0273648 0
M  V30 259 C 25.2286 -1.42687 -1.31734 0
M  V30 260 O 24.5036 -0.580897 -1.85623 0
M  V30 261 C 24.7866 -3.60031 -0.0702371 0
M  V30 262 C 24.6396 -4.30566 1.30126 0
M  V30 263 C 25.9586 -4.33028 -0.785771 0
M  V30 264 H 23.0776 -0.736912 0.0114185 0
M  V30 265 H 25.7196 -1.76056 0.714432 0
M  V30 266 H 23.8696 -3.82932 -0.655382 0
M  V30 267 H 25.5416 -4.19018 1.92929 0
M  V30 268 H 23.7846 -3.91086 1.87709 0
M  V30 269 H 24.4556 -5.39114 1.18573 0
M  V30 270 H 26.9316 -4.15095 -0.288982 0
M  V30 271 H 25.8076 -5.42695 -0.823013 0
M  V30 272 H 26.0686 -4.01945 -1.841 0
M  V30 273 N 25.1277 -0.289203 -1.54924 0
M  V30 274 C 26.3747 0.323519 -1.99899 0
M  V30 275 C 26.7027 1.54797 -1.17762 0
M  V30 276 O 25.9577 1.94237 -0.238835 0
M  V30 277 C 26.2567 0.736119 -3.49737 0
M  V30 278 C 25.9227 -0.385276 -4.49251 0
M  V30 279 C 24.5847 -0.693156 -4.76181 0
M  V30 280 C 26.9367 -1.14021 -5.08575 0
M  V30 281 C 24.2647 -1.7593 -5.59701 0
M  V30 282 C 26.6167 -2.19619 -5.93254 0
M  V30 283 C 25.2807 -2.51026 -6.185 0
M  V30 284 H 24.5507 0.118384 -0.731482 0
M  V30 285 H 27.1977 -0.405847 -1.8715 0
M  V30 286 H 25.5027 1.54539 -3.60035 0
M  V30 287 H 27.1997 1.22118 -3.81953 0
M  V30 288 H 23.7897 -0.135202 -4.28387 0
M  V30 289 H 27.9737 -0.915611 -4.87781 0
M  V30 290 H 23.2297 -2.0075 -5.77503 0
M  V30 291 H 27.4037 -2.78581 -6.38252 0
M  V30 292 H 25.0307 -3.33772 -6.83008 0
M  V30 293 N 26.6058 1.57591 -0.0167156 0
M  V30 294 C 28.0218 1.55946 0.339557 0
M  V30 295 C 28.2218 1.02109 1.73713 0
M  V30 296 O 27.2778 0.662303 2.43659 0
M  V30 297 C 28.5908 3.00037 0.199499 0
M  V30 298 C 30.1388 3.11805 0.273193 0
M  V30 299 C 30.6138 4.57713 0.162068 0
M  V30 300 N 32.1048 4.6268 0.219444 0
M  V30 301 C 32.8398 5.73185 0.157054 0
M  V30 302 N 32.3358 6.92786 0.0442936 0
M  V30 303 N 34.1288 5.61707 0.21014 0
M  V30 304 H 26.2798 1.90921 -0.930758 0
M  V30 305 H 28.5428 0.877674 -0.358319 0
M  V30 306 H 28.2488 3.4333 -0.76273 0
M  V30 307 H 28.1228 3.64387 0.974786 0
M  V30 308 H 30.5098 2.68433 1.22587 0
M  V30 309 H 30.5908 2.50201 -0.532256 0
M  V30 310 H 30.2348 5.01763 -0.78714 0
M  V30 311 H 30.1648 5.17283 0.986222 0
M  V30 312 H 32.6558 3.76649 0.307246 0
M  V30 313 H 32.9688 7.728 0.00304069 0
M  V30 314 H 31.3138 6.94999 0.00968457 0
M  V30 315 H 34.5048 4.6716 0.296546 0
M  V30 316 H 34.6778 6.47807 0.158054 0
M  V30 317 N 28.0839 -0.256276 1.55502 0
M  V30 318 C 29.0469 -1.30047 1.88734 0
M  V30 319 C 30.0469 -1.4154 0.763086 0
M  V30 320 O 31.2369 -1.40403 1.03115 0
M  V30 321 C 28.3689 -2.67953 2.10747 0
M  V30 322 H 29.5619 -1.01802 2.82093 0
M  V30 323 H 27.1149 -0.495134 1.4825 0
M  V30 324 H 27.8499 -3.01351 1.19825 0
M  V30 325 H 27.6349 -2.60993 2.92617 0
M  V30 326 H 29.1249 -3.43368 2.37673 0
M  V30 327 N 29.562 -1.4872 -0.521534 0
M  V30 328 C 30.525 -1.63379 -1.60748 0
M  V30 329 C 31.525 -0.50661 -1.52611 0
M  V30 330 O 32.715 -0.772601 -1.5613 0
M  V30 331 C 29.847 -1.61192 -3.00383 0
M  V30 332 H 31.04 -2.60217 -1.49087 0
M  V30 333 H 28.593 -1.37444 -0.744235 0
M  V30 334 H 29.328 -0.65863 -3.17541 0
M  V30 335 H 29.113 -2.43032 -3.07698 0
M  V30 336 H 30.603 -1.7466 -3.7932 0
M  V30 337 N 31.0401 0.771051 -1.3745 0
M  V30 338 C 31.9721 1.89352 -1.29146 0
M  V30 339 C 32.9851 1.61477 -0.207124 0
M  V30 340 O 34.1741 1.72382 -0.463324 0
M  V30 341 C 31.2741 3.24596 -0.974195 0
M  V30 342 C 30.4471 3.80111 -2.16413 0
M  V30 343 C 29.5061 4.93832 -1.81703 0
M  V30 344 O 28.5321 5.09382 -2.54006 0
M  V30 345 N 29.7341 5.75483 -0.761573 0
M  V30 346 H 32.4991 1.96991 -2.25864 0
M  V30 347 H 30.0601 0.950191 -1.31084 0
M  V30 348 H 32.0521 3.98193 -0.722828 0
M  V30 349 H 30.6221 3.12454 -0.0955527 0
M  V30 350 H 29.8421 2.98284 -2.57721 0
M  V30 351 H 31.1301 4.13932 -2.95867 0
M  V30 352 H 30.5281 5.65469 -0.161609 0
M  V30 353 H 29.0851 6.49302 -0.570064 0
M  V30 354 N 32.5182 1.22032 0.997298 0
M  V30 355 C 33.4652 0.986467 2.08656 0
M  V30 356 C 34.4352 -0.0902671 1.65855 0
M  V30 357 O 35.6202 0.0584294 1.90711 0
M  V30 358 C 32.7602 0.565569 3.40434 0
M  V30 359 C 31.8732 1.71259 3.96604 0
M  V30 360 C 31.0082 1.24011 5.16522 0
M  V30 361 C 30.0472 2.35896 5.64818 0
M  V30 362 N 29.1842 1.89726 6.7598 0
M  V30 363 H 34.0242 1.91892 2.27994 0
M  V30 364 H 31.5612 0.956199 1.11782 0
M  V30 365 H 33.5192 0.302738 4.161 0
M  V30 366 H 32.1492 -0.329879 3.2111 0
M  V30 367 H 31.2012 2.08986 3.17851 0
M  V30 368 H 32.5132 2.55436 4.28432 0
M  V30 369 H 31.6672 0.934395 5.99461 0
M  V30 370 H 30.4062 0.368487 4.86306 0
M  V30 371 H 29.4112 2.67261 4.8047 0
M  V30 372 H 30.6362 3.23567 5.97061 0
M  V30 373 H 28.5822 1.0492 6.47555 0
M  V30 374 H 28.4992 2.67471 7.07103 0
M  V30 375 H 29.7672 1.62211 7.62435 0
M  V30 376 N 33.9963 -1.19345 1.0293 0
M  V30 377 C 35.4123 -1.41069 0.746446 0
M  V30 378 C 35.6123 -1.90078 -0.668776 0
M  V30 379 O 34.6683 -2.0778 -1.4347 0
M  V30 380 C 35.9813 -2.42141 1.78292 0
M  V30 381 C 37.5293 -2.55887 1.80252 0
M  V30 382 C 38.0043 -3.60214 2.8286 0
M  V30 383 N 39.4953 -3.67711 2.81679 0
M  V30 384 C 40.2303 -4.48128 3.57727 0
M  V30 385 N 39.7263 -5.32248 4.43491 0
M  V30 386 N 41.5193 -4.42782 3.46267 0
M  V30 387 H 33.6703 -0.858536 1.94275 0
M  V30 388 H 35.9333 -0.439541 0.839945 0
M  V30 389 H 35.6393 -2.13155 2.79746 0
M  V30 390 H 35.5133 -3.41323 1.60557 0
M  V30 391 H 37.9003 -2.84196 0.794757 0
M  V30 392 H 37.9813 -1.56858 2.02062 0
M  V30 393 H 37.6253 -3.32647 3.83807 0
M  V30 394 H 37.5553 -4.58895 2.58307 0
M  V30 395 H 40.0463 -3.07634 2.19476 0
M  V30 396 H 40.3593 -5.90729 4.98256 0
M  V30 397 H 38.7043 -5.31707 4.47564 0
M  V30 398 H 41.8953 -3.76107 2.78677 0
M  V30 399 H 42.0683 -5.05215 4.05785 0
M  V30 400 N 35.4744 -0.807222 -1.35358 0
M  V30 401 C 36.6994 -0.399309 -2.0352 0
M  V30 402 C 37.1244 0.981986 -1.60433 0
M  V30 403 O 36.4824 1.63601 -0.781299 0
M  V30 404 C 36.5304 -0.491552 -3.57234 0
M  V30 405 O 35.6344 0.494754 -4.09421 0
M  V30 406 H 34.9754 -0.166682 -0.642739 0
M  V30 407 H 37.5054 -1.09328 -1.72941 0
M  V30 408 H 37.5154 -0.361588 -4.06395 0
M  V30 409 H 36.1904 -1.49907 -3.87944 0
M  V30 410 H 34.7674 0.324977 -3.71481 0
M  V30 411 N 36.9525 1.47285 -0.560781 0
M  V30 412 C 38.2295 1.9558 0.0277798 0
M  V30 413 C 38.6095 1.5034 1.48192 0
M  V30 414 O 37.9575 0.743882 2.16052 0
M  V30 415 C 38.1675 3.48789 -0.121418 0
M  V30 416 C 39.5155 4.24594 0.0220912 0
M  V30 417 O 40.5395 3.56166 -0.0491439 0
M  V30 418 O 39.3985 5.46217 0.175958 0
M  V30 419 H 36.4925 0.824663 0.0621342 0
M  V30 420 H 39.0385 1.5767 -0.627556 0
M  V30 421 H 37.8105 3.74533 -1.13316 0
M  V30 422 H 37.4335 3.93473 0.571366 0
M  V30 423 N 38.4306 0.297415 1.54768 0
M  V30 424 C 39.6796 -0.313669 1.99246 0
M  V30 425 C 39.9926 -1.55281 1.18942 0
M  V30 426 O 41.1986 -2.23825 1.5367 0
M  V30 427 C 39.6546 -0.609407 3.54703 0
M  V30 428 C 39.2626 0.611192 4.43811 0
M  V30 429 C 41.0066 -1.18188 4.07715 0
M  V30 430 C 38.9136 0.288805 5.90694 0
M  V30 431 H 37.8436 -0.120979 0.744231 0
M  V30 432 H 40.4946 0.40556 1.78962 0
M  V30 433 H 38.8766 -1.38813 3.70873 0
M  V30 434 H 40.0506 1.3875 4.39414 0
M  V30 435 H 38.3656 1.10205 4.01552 0
M  V30 436 H 40.9626 -1.43727 5.15021 0
M  V30 437 H 41.3056 -2.12299 3.58099 0
M  V30 438 H 41.8386 -0.464944 3.95074 0
M  V30 439 H 38.5776 1.19838 6.44453 0
M  V30 440 H 38.0976 -0.450305 5.98107 0
M  V30 441 H 39.7766 -0.110933 6.46905 0
M  V30 442 N 39.9087 -1.5758 0.0250728 0
M  V30 443 C 40.8187 -2.1343 -0.973905 0
M  V30 444 C 41.8347 -1.08556 -1.35984 0
M  V30 445 O 43.0107 -1.40592 -1.44207 0
M  V30 446 C 40.0757 -2.64703 -2.23904 0
M  V30 447 C 39.1367 -3.84276 -1.91391 0
M  V30 448 C 38.3697 -4.33095 -3.11873 0
M  V30 449 O 38.5927 -3.81107 -4.24398 0
M  V30 450 O 37.5267 -5.24984 -2.94406 0
M  V30 451 H 41.3527 -2.99057 -0.529036 0
M  V30 452 H 38.9377 -1.48118 -0.195288 0
M  V30 453 H 40.8197 -2.97769 -2.98181 0
M  V30 454 H 39.4947 -1.82161 -2.6758 0
M  V30 455 H 38.4017 -3.56143 -1.14511 0
M  V30 456 H 39.7347 -4.67968 -1.52534 0
M  V30 457 N 41.3868 0.248026 -1.55636 0
M  V30 458 C 42.6358 0.974134 -1.76617 0
M  V30 459 C 42.9488 1.86528 -0.588796 0
M  V30 460 O 44.1548 2.62805 -0.681594 0
M  V30 461 C 42.6108 1.78213 -3.12679 0
M  V30 462 C 42.2188 0.93843 -4.38061 0
M  V30 463 C 43.9628 2.50104 -3.42999 0
M  V30 464 C 41.8698 1.74225 -5.65155 0
M  V30 465 H 40.7998 0.36745 -0.658405 0
M  V30 466 H 43.4508 0.22884 -1.82067 0
M  V30 467 H 41.8328 2.56933 -3.01333 0
M  V30 468 H 43.0068 0.193635 -4.60393 0
M  V30 469 H 41.3218 0.332905 -4.15067 0
M  V30 470 H 43.9188 3.10694 -4.3517 0
M  V30 471 H 44.2618 3.21662 -2.64271 0
M  V30 472 H 44.7948 1.78395 -3.55556 0
M  V30 473 H 41.5338 1.07043 -6.46701 0
M  V30 474 H 41.0538 2.46235 -5.46926 0
M  V30 475 H 42.7328 2.30967 -6.0437 0
M  V30 476 N 42.8649 1.48995 0.513639 0
M  V30 477 C 44.1109 1.58076 1.27042 0
M  V30 478 C 44.4439 0.261026 1.92438 0
M  V30 479 O 43.7189 -0.734393 1.80103 0
M  V30 480 C 44.0019 2.73091 2.34719 0
M  V30 481 C 43.8549 4.14821 1.73907 0
M  V30 482 C 45.1739 2.83796 3.36375 0
M  V30 483 H 42.2929 0.575391 0.460536 0
M  V30 484 H 44.9349 1.81232 0.570516 0
M  V30 485 H 43.0849 2.53479 2.94416 0
M  V30 486 H 44.7569 4.45917 1.18135 0
M  V30 487 H 42.9999 4.21058 1.0437 0
M  V30 488 H 43.6709 4.91147 2.51949 0
M  V30 489 H 46.1469 3.01611 2.86653 0
M  V30 490 H 45.0229 3.65971 4.09093 0
M  V30 491 H 45.2839 1.92624 3.9793 0
M  V30 492 N 44.343 -0.763751 1.37857 0
M  V30 493 C 45.306 -1.85889 1.34081 0
M  V30 494 C 46.306 -1.58949 0.243277 0
M  V30 495 O 47.496 -1.66882 0.499589 0
M  V30 496 C 44.628 -3.23176 1.08489 0
M  V30 497 H 45.821 -1.90648 2.31502 0
M  V30 498 H 43.374 -0.964367 1.23003 0
M  V30 499 H 44.109 -3.24091 0.116318 0
M  V30 500 H 43.894 -3.44124 1.8794 0
M  V30 501 H 45.384 -4.03254 1.08517 0
M  V30 502 N 45.8211 -1.22559 -0.990812 0
M  V30 503 C 47.0701 -1.04553 -1.72486 0
M  V30 504 C 47.3831 0.419349 -1.91052 0
M  V30 505 O 48.5891 0.719121 -2.61803 0
M  V30 506 C 47.0451 -1.82231 -3.10355 0
M  V30 507 C 46.6531 -3.32981 -2.99713 0
M  V30 508 C 48.3971 -1.7268 -3.87791 0
M  V30 509 C 46.3041 -4.03091 -4.32748 0
M  V30 510 H 45.2341 -0.387614 -0.646739 0
M  V30 511 H 47.8851 -1.46429 -1.10593 0
M  V30 512 H 46.2671 -1.33155 -3.72942 0
M  V30 513 H 47.4411 -3.89466 -2.46278 0
M  V30 514 H 45.7561 -3.43231 -2.35758 0
M  V30 515 H 48.3531 -2.22381 -4.86262 0
M  V30 516 H 48.6961 -0.687607 -4.10582 0
M  V30 517 H 49.2291 -2.1931 -3.31885 0
M  V30 518 H 45.9681 -5.07273 -4.15156 0
M  V30 519 H 45.4881 -3.51394 -4.86089 0
M  V30 520 H 47.1671 -4.08804 -5.01486 0
M  V30 521 N 47.2992 1.18797 -1.03562 0
M  V30 522 C 48.2472 2.24297 -0.615905 0
M  V30 523 C 49.2412 1.65643 0.354808 0
M  V30 524 O 50.4472 1.78618 0.22265 0
M  V30 525 H 46.8222 0.729909 -0.180934 0
M  V30 526 H 48.7932 2.5701 -1.5162 0
M  V30 527 C 47.5422 3.47698 0.0104735 0
M  V30 528 H 46.8652 3.93125 -0.727509 0
M  V30 529 H 48.3052 4.23159 0.266995 0
M  V30 530 C 46.7642 3.12489 1.25905 0
M  V30 531 O 47.2942 3.25761 2.35038 0
M  V30 532 N 45.5002 2.6686 1.15039 0
M  V30 533 H 45.0472 2.56261 0.262328 0
M  V30 534 H 45.0052 2.43674 1.98672 0
M  V30 535 N 48.7773 0.814389 1.34928 0
M  V30 536 C 50.0543 0.321363 1.92942 0
M  V30 537 C 50.4343 -1.19014 1.74353 0
M  V30 538 O 49.7823 -1.99328 1.11716 0
M  V30 539 C 49.9923 0.741323 3.41036 0
M  V30 540 C 51.3403 0.735266 4.18185 0
M  V30 541 O 52.3643 0.68336 3.49584 0
M  V30 542 O 51.2233 0.800703 5.40602 0
M  V30 543 H 48.3173 0.0858893 0.822528 0
M  V30 544 H 50.8633 0.898609 1.43955 0
M  V30 545 H 49.6353 1.78276 3.4833 0
M  V30 546 H 49.2583 0.139307 3.97356 0
M  V30 547 N 50.2554 -1.46986 0.568584 0
M  V30 548 C 51.1854 -2.32946 -0.160753 0
M  V30 549 C 52.1664 -1.44487 -0.897631 0
M  V30 550 O 53.3514 -1.73327 -0.875867 0
M  V30 551 C 50.4814 -3.26494 -1.18403 0
M  V30 552 C 49.4354 -4.24282 -0.562895 0
M  V30 553 C 48.7614 -5.07236 -1.69163 0
M  V30 554 C 50.0614 -5.19989 0.490761 0
M  V30 555 H 51.7554 -2.94175 0.556916 0
M  V30 556 H 49.3014 -1.4146 0.26927 0
M  V30 557 H 51.2544 -3.85477 -1.70251 0
M  V30 558 H 49.9784 -2.63343 -1.93179 0
M  V30 559 H 48.6374 -3.66541 -0.0656164 0
M  V30 560 H 48.2854 -4.4048 -2.42871 0
M  V30 561 H 47.9854 -5.7345 -1.28174 0
M  V30 562 H 49.5094 -5.6908 -2.21314 0
M  V30 563 H 50.9234 -5.73271 0.0579047 0
M  V30 564 H 49.3204 -5.94469 0.820165 0
M  V30 565 H 50.3904 -4.64777 1.3824 0
M  V30 566 N 51.7335 -0.305618 -1.54608 0
M  V30 567 C 52.6635 0.561482 -2.26649 0
M  V30 568 C 53.6445 1.13415 -1.26772 0
M  V30 569 O 54.8295 1.16262 -1.55553 0
M  V30 570 C 51.9595 1.73122 -3.01075 0
M  V30 571 C 50.9135 1.2887 -4.08138 0
M  V30 572 C 50.2395 2.54396 -4.70305 0
M  V30 573 C 51.5395 0.416578 -5.20636 0
M  V30 574 H 53.2335 -0.0393902 -2.99374 0
M  V30 575 H 50.7795 -0.020385 -1.43986 0
M  V30 576 H 52.7325 2.34396 -3.50195 0
M  V30 577 H 51.4565 2.3584 -2.25936 0
M  V30 578 H 50.1155 0.698991 -3.59875 0
M  V30 579 H 49.7635 3.15439 -3.918 0
M  V30 580 H 49.4635 2.25486 -5.42614 0
M  V30 581 H 50.9875 3.16464 -5.2219 0
M  V30 582 H 52.4015 0.935116 -5.65622 0
M  V30 583 H 50.7985 0.221046 -5.99693 0
M  V30 584 H 51.8685 -0.557162 -4.81688 0
M  V30 585 N 53.2116 1.57565 -0.0334293 0
M  V30 586 C 54.4886 1.83282 0.683163 0
M  V30 587 C 54.8686 0.91823 1.90084 0
M  V30 588 O 54.2166 -0.025113 2.28486 0
M  V30 589 C 54.4266 3.32599 1.0573 0
M  V30 590 C 55.7746 3.99179 1.44711 0
M  V30 591 O 56.7986 3.3712 1.15015 0
M  V30 592 O 55.6576 5.08565 2.0006 0
M  V30 593 H 52.7516 0.755869 0.335546 0
M  V30 594 H 55.2976 1.69589 -0.0614402 0
M  V30 595 H 54.0696 3.90834 0.190828 0
M  V30 596 H 53.6926 3.51415 1.85993 0
M  V30 597 N 54.6897 -0.239769 1.55765 0
M  V30 598 C 55.6527 -1.28038 1.90103 0
M  V30 599 C 56.6527 -1.40723 0.778055 0
M  V30 600 O 57.8427 -1.39301 1.04599 0
M  V30 601 C 54.9747 -2.65702 2.13577 0
M  V30 602 H 56.1677 -0.988048 2.83157 0
M  V30 603 H 53.7207 -0.479382 1.48767 0
M  V30 604 H 54.4557 -3.00063 1.23015 0
M  V30 605 H 54.2407 -2.57875 2.95369 0
M  V30 606 H 55.7307 -3.40828 2.41301 0
M  V30 607 N 56.1678 -1.49265 -0.50573 0
M  V30 608 C 57.4448 -1.49012 -1.26707 0
M  V30 609 C 57.8248 -0.215205 -2.1 0
M  V30 610 O 57.1728 0.802547 -2.13943 0
M  V30 611 C 57.3828 -2.7663 -2.12783 0
M  V30 612 C 58.7308 -3.25932 -2.72127 0
M  V30 613 O 59.7548 -2.77715 -2.23054 0
M  V30 614 O 58.6138 -4.09897 -3.61451 0
M  V30 615 H 55.7078 -0.596197 -0.57313 0
M  V30 616 H 58.2538 -1.61524 -0.52039 0
M  V30 617 H 57.0258 -3.60916 -1.5118 0
M  V30 618 H 56.6488 -2.66956 -2.94653 0
M  V30 619 N 57.6459 0.756429 -1.3826 0
M  V30 620 C 58.8759 1.54341 -1.3734 0
M  V30 621 C 59.2839 1.89159 0.0393917 0
M  V30 622 O 58.6269 1.5307 1.01565 0
M  V30 623 C 58.6889 2.87238 -2.16182 0
M  V30 624 C 58.3529 2.74973 -3.65019 0
M  V30 625 C 59.3499 2.44962 -4.58574 0
M  V30 626 C 57.0349 2.92515 -4.08338 0
M  V30 627 C 59.0289 2.32642 -5.93428 0
M  V30 628 C 56.7159 2.79815 -5.43274 0
M  V30 629 C 57.7139 2.49921 -6.35632 0
M  V30 630 O 57.4019 2.37275 -7.68086 0
M  V30 631 H 57.1339 0.484281 -0.471643 0
M  V30 632 H 59.6879 0.944152 -1.82414 0
M  V30 633 H 57.9179 3.49342 -1.65822 0
M  V30 634 H 59.6069 3.48731 -2.07705 0
M  V30 635 H 60.3729 2.31081 -4.26412 0
M  V30 636 H 56.2519 3.14781 -3.368 0
M  V30 637 H 59.7959 2.0923 -6.65484 0
M  V30 638 H 55.6929 2.93269 -5.75034 0
M  V30 639 H 56.4609 2.52509 -7.78577 0
M  V30 640 N 59.124 1.23083 0.984299 0
M  V30 641 C 60.057 0.951786 2.07404 0
M  V30 642 C 61.035 -0.10848 1.62238 0
M  V30 643 O 62.219 0.0249467 1.88483 0
M  V30 644 C 59.346 0.433142 3.35919 0
M  V30 645 C 58.392 1.47941 4.0002 0
M  V30 646 S 59.225 3.05556 4.39768 0
M  V30 647 C 60.381 2.55351 5.71442 0
M  V30 648 H 60.614 1.87456 2.30754 0
M  V30 649 H 58.147 1.06284 1.11996 0
M  V30 650 H 60.105 0.140506 4.10259 0
M  V30 651 H 58.766 -0.468656 3.10584 0
M  V30 652 H 57.959 1.06658 4.92585 0
M  V30 653 H 57.561 1.7212 3.3204 0
M  V30 654 H 59.853 1.97128 6.48187 0
M  V30 655 H 60.796 3.46441 6.17563 0
M  V30 656 H 61.204 1.96339 5.29255 0
M  V30 657 N 60.6021 -1.18246 1.0419 0
M  V30 658 C 61.5651 -2.20128 0.638452 0
M  V30 659 C 62.5651 -1.57885 -0.304805 0
M  V30 660 O 63.7551 -1.73967 -0.0900369 0
M  V30 661 C 60.8871 -3.4084 -0.0637751 0
M  V30 662 H 62.0801 -2.57336 1.54007 0
M  V30 663 H 59.6331 -1.32152 0.834598 0
M  V30 664 H 60.3681 -3.09166 -0.979136 0
M  V30 665 H 60.1531 -3.8726 0.614198 0
M  V30 666 H 61.6431 -4.16274 -0.332512 0
M  V30 667 N 62.0802 -0.821533 -1.34494 0
M  V30 668 C 63.3102 -0.421272 -2.02259 0
M  V30 669 C 63.7182 0.977047 -1.6202 0
M  V30 670 O 63.0612 1.64348 -0.820703 0
M  V30 671 C 63.1232 -0.44231 -3.56769 0
M  V30 672 C 62.7872 -1.79372 -4.20327 0
M  V30 673 C 63.7842 -2.75435 -4.40944 0
M  V30 674 C 61.4692 -2.08182 -4.57127 0
M  V30 675 C 63.4632 -3.98482 -4.97484 0
M  V30 676 C 61.1502 -3.31489 -5.13379 0
M  V30 677 C 62.1482 -4.26457 -5.33501 0
M  V30 678 O 61.8362 -5.47585 -5.88562 0
M  V30 679 H 61.5682 -0.167473 -0.654927 0
M  V30 680 H 64.1222 -1.11073 -1.72777 0
M  V30 681 H 62.3522 0.303836 -3.85505 0
M  V30 682 H 64.0412 -0.0622925 -4.05852 0
M  V30 683 H 64.8072 -2.54473 -4.12878 0
M  V30 684 H 60.6862 -1.35066 -4.4077 0
M  V30 685 H 64.2302 -4.72618 -5.13106 0
M  V30 686 H 60.1272 -3.52316 -5.40873 0
M  V30 687 H 60.8952 -5.49086 -6.06998 0
M  V30 688 N 63.5583 1.46682 -0.576371 0
M  V30 689 C 64.4913 2.27243 0.208731 0
M  V30 690 C 65.4693 1.35238 0.902746 0
M  V30 691 O 66.6533 1.64641 0.917904 0
M  V30 692 C 63.7803 3.12802 1.29896 0
M  V30 693 C 62.8263 4.20524 0.711457 0
M  V30 694 S 63.6593 5.33548 -0.456781 0
M  V30 695 C 64.8153 6.22673 0.634798 0
M  V30 696 H 65.0483 2.93484 -0.474838 0
M  V30 697 H 62.5813 1.50069 -0.363118 0
M  V30 698 H 64.5393 3.62661 1.92321 0
M  V30 699 H 63.2003 2.45887 1.95444 0
M  V30 700 H 62.3933 4.80191 1.53076 0
M  V30 701 H 61.9953 3.73645 0.162999 0
M  V30 702 H 64.2873 6.60181 1.52209 0
M  V30 703 H 65.2303 7.0806 0.0750311 0
M  V30 704 H 65.6383 5.56684 0.936092 0
M  V30 705 N 65.0364 0.313813 1.54444 0
M  V30 706 C 65.9664 -0.549454 2.26943 0
M  V30 707 C 66.9474 -1.12741 1.27372 0
M  V30 708 O 68.1324 -1.15436 1.56167 0
M  V30 709 C 65.2624 -1.71523 3.01989 0
M  V30 710 C 64.2164 -1.26703 4.08816 0
M  V30 711 C 63.5424 -2.51898 4.71647 0
M  V30 712 C 64.8424 -0.388962 5.2085 0
M  V30 713 H 66.5364 0.0552661 2.99349 0
M  V30 714 H 64.0824 0.0280207 1.43973 0
M  V30 715 H 66.0354 -2.32535 3.51433 0
M  V30 716 H 64.7594 -2.34639 2.27183 0
M  V30 717 H 63.4184 -0.679896 3.6024 0
M  V30 718 H 63.0664 -3.13356 3.93468 0
M  V30 719 H 62.7664 -2.22605 5.43802 0
M  V30 720 H 64.2904 -3.1369 5.23861 0
M  V30 721 H 65.7044 -0.905107 5.6611 0
M  V30 722 H 64.1014 -0.18924 5.99802 0
M  V30 723 H 65.1714 0.582699 4.81386 0
M  V30 724 N 66.5145 -1.57545 0.0417849 0
M  V30 725 C 67.4615 -2.10977 -0.935805 0
M  V30 726 C 68.4315 -1.01486 -1.31491 0
M  V30 727 O 69.6165 -1.2898 -1.40602 0
M  V30 728 C 66.7565 -2.65169 -2.2086 0
M  V30 729 C 65.8695 -3.88714 -1.88482 0
M  V30 730 C 65.0045 -4.31254 -3.1015 0
M  V30 731 C 64.0435 -5.47524 -2.7365 0
M  V30 732 N 63.1805 -5.85162 -3.87982 0
M  V30 733 H 68.0205 -2.94218 -0.473249 0
M  V30 734 H 65.5575 -1.45415 -0.221981 0
M  V30 735 H 67.5155 -2.94685 -2.95325 0
M  V30 736 H 66.1455 -1.8474 -2.64709 0
M  V30 737 H 65.1975 -3.65849 -1.04205 0
M  V30 738 H 66.5095 -4.73245 -1.57608 0
M  V30 739 H 65.6635 -4.62273 -3.92923 0
M  V30 740 H 64.4025 -3.45516 -3.44195 0
M  V30 741 H 63.4075 -5.16187 -1.89291 0
M  V30 742 H 64.6325 -6.34971 -2.40807 0
M  V30 743 H 62.5785 -5.02377 -4.21846 0
M  V30 744 H 62.4955 -6.64362 -3.60775 0
M  V30 745 H 63.7635 -6.20791 -4.71422 0
M  V30 746 N 67.9926 0.231505 -1.5589 0
M  V30 747 C 69.2226 0.973092 -1.82248 0
M  V30 748 C 69.6306 1.78845 -0.617328 0
M  V30 749 O 68.9736 1.78752 0.423499 0
M  V30 750 C 69.0356 1.94732 -3.02192 0
M  V30 751 C 68.6996 1.31743 -4.37599 0
M  V30 752 C 69.6966 0.712238 -5.14998 0
M  V30 753 C 67.3816 1.33218 -4.84312 0
M  V30 754 C 69.3756 0.130195 -6.37267 0
M  V30 755 C 67.0626 0.746286 -6.06526 0
M  V30 756 C 68.0606 0.146337 -6.82843 0
M  V30 757 O 67.7486 -0.430465 -8.02747 0
M  V30 758 H 67.4806 0.29125 -0.61004 0
M  V30 759 H 70.0346 0.254915 -2.03812 0
M  V30 760 H 68.2646 2.70422 -2.76422 0
M  V30 761 H 69.9536 2.55362 -3.15508 0
M  V30 762 H 70.7196 0.69324 -4.8002 0
M  V30 763 H 66.5986 1.78854 -4.24891 0
M  V30 764 H 70.1426 -0.33871 -6.96777 0
M  V30 765 H 66.0396 0.762663 -6.40979 0
M  V30 766 H 66.8076 -0.323818 -8.17859 0
M  V30 767 N 69.4707 1.49531 0.497807 0
M  V30 768 C 70.7477 1.49682 1.25915 0
M  V30 769 C 71.1277 0.226339 2.09883 0
M  V30 770 O 70.4757 -0.791189 2.14365 0
M  V30 771 C 70.6857 2.77755 2.11313 0
M  V30 772 C 72.0337 3.27371 2.70395 0
M  V30 773 O 73.0577 2.78894 2.21578 0
M  V30 774 O 71.9167 4.11808 3.59272 0
M  V30 775 H 69.0107 0.599228 0.56996 0
M  V30 776 H 71.5567 1.61798 0.511816 0
M  V30 777 H 70.3287 3.61713 1.49264 0
M  V30 778 H 69.9517 2.68515 2.93233 0
M  V30 779 N 70.9488 -0.749086 1.3866 0
M  V30 780 C 72.1738 -1.54344 1.38538 0
M  V30 781 C 72.5988 -1.88088 -0.0216655 0
M  V30 782 O 71.9568 -1.50899 -1.00494 0
M  V30 783 C 72.0048 -2.8164 2.25192 0
M  V30 784 O 71.1088 -3.7698 1.67212 0
M  V30 785 H 70.4498 -0.466654 0.472367 0
M  V30 786 H 72.9798 -0.925355 1.82478 0
M  V30 787 H 72.9898 -3.30519 2.3921 0
M  V30 788 H 71.6648 -2.56411 3.27454 0
M  V30 789 H 70.2418 -3.35699 1.6236 0
M  V30 790 N 72.4269 -1.23603 -0.977757 0
M  V30 791 C 73.6549 -1.09646 -1.75458 0
M  V30 792 C 74.0699 0.351859 -1.85492 0
M  V30 793 O 73.4269 1.24327 -1.336 0
M  V30 794 C 73.4779 -1.71895 -3.18016 0
M  V30 795 O 73.1989 -3.11063 -3.08498 0
M  V30 796 C 74.6999 -1.63415 -4.12081 0
M  V30 797 H 71.9199 -0.38359 -0.550545 0
M  V30 798 H 74.4639 -1.63507 -1.22824 0
M  V30 799 H 72.6189 -1.22061 -3.67668 0
M  V30 800 H 73.0329 -3.41305 -3.9826 0
M  V30 801 H 74.5069 -2.11669 -5.09804 0
M  V30 802 H 74.9839 -0.593462 -4.35172 0
M  V30 803 H 75.5899 -2.12628 -3.68334 0
M  V30 804 N 73.905 1.17692 -1.04816 0
M  V30 805 C 74.855 2.1952 -0.616042 0
M  V30 806 C 75.839 1.57147 0.345485 0
M  V30 807 O 77.031 1.76245 0.163325 0
M  V30 808 C 74.16 3.43298 0.0116917 0
M  V30 809 C 73.246 4.12777 -0.973435 0
M  V30 810 N 73.637 4.5814 -2.14339 0
M  V30 811 C 71.935 4.38747 -0.80108 0
M  V30 812 C 72.636 5.11713 -2.7663 0
M  V30 813 N 71.612 5.03686 -2.04453 0
M  V30 814 H 75.414 2.52293 -1.5075 0
M  V30 815 H 72.928 1.3398 -0.917776 0
M  V30 816 H 74.925 4.15519 0.339006 0
M  V30 817 H 73.585 3.12018 0.898593 0
M  V30 818 H 74.596 4.52349 -2.52191 0
M  V30 819 H 71.273 4.17485 0.0350934 0
M  V30 820 H 72.663 5.56962 -3.75823 0
M  V30 821 N 75.3831 0.828654 1.34056 0
M  V30 822 C 76.6311 0.41863 1.97717 0
M  V30 823 C 76.9521 -1.02314 1.66002 0
M  V30 824 O 76.2221 -1.71119 0.953683 0
M  V30 825 H 74.8021 0.151809 0.731412 0
M  V30 826 H 77.4641 1.05936 1.63596 0
M  V30 827 H 76.5601 0.542318 3.07352 0
M  V30 828 N 76.8612 -1.46375 0.584142 0
M  V30 829 C 78.2772 -1.57694 0.245929 0
M  V30 830 C 78.4772 -1.57903 -1.25175 0
M  V30 831 O 77.5332 -1.49676 -2.03355 0
M  V30 832 C 78.8462 -2.87028 0.896402 0
M  V30 833 C 80.3942 -3.00662 0.870127 0
M  V30 834 C 80.8692 -4.32734 1.50017 0
M  V30 835 N 82.3602 -4.39436 1.46458 0
M  V30 836 C 83.0952 -5.40248 1.92144 0
M  V30 837 N 82.5912 -6.47726 2.4581 0
M  V30 838 N 84.3842 -5.31459 1.83052 0
M  V30 839 H 76.5352 -1.44483 1.55687 0
M  V30 840 H 78.7982 -0.689291 0.650831 0
M  V30 841 H 78.5042 -2.9269 1.95002 0
M  V30 842 H 78.3782 -3.75014 0.405486 0
M  V30 843 H 80.7652 -2.94581 -0.174871 0
M  V30 844 H 80.8462 -2.14148 1.39908 0
M  V30 845 H 80.4902 -4.39573 2.54437 0
M  V30 846 H 80.4202 -5.18025 0.946432 0
M  V30 847 H 82.9112 -3.62367 1.07231 0
M  V30 848 H 83.2242 -7.20863 2.78525 0
M  V30 849 H 81.5692 -6.48542 2.49836 0
M  V30 850 H 84.7602 -4.46396 1.40883 0
M  V30 851 H 84.9332 -6.09881 2.18973 0
M  V30 852 N 78.3393 -0.321999 -1.54275 0
M  V30 853 C 79.5863 0.281044 -2.0054 0
M  V30 854 C 79.9143 1.52265 -1.21019 0
M  V30 855 O 79.1693 1.93687 -0.279982 0
M  V30 856 C 79.4683 0.661769 -3.5122 0
M  V30 857 C 79.1343 -0.480482 -4.48333 0
M  V30 858 C 77.7963 -0.794005 -4.74604 0
M  V30 859 C 80.1483 -1.24783 -5.06042 0
M  V30 860 C 77.4763 -1.87763 -5.55844 0
M  V30 861 C 79.8283 -2.32153 -5.88462 0
M  V30 862 C 78.4923 -2.64089 -6.13036 0
M  V30 863 H 77.7623 0.102841 -0.733829 0
M  V30 864 H 80.4093 -0.445453 -1.86247 0
M  V30 865 H 78.7143 1.46867 -3.63232 0
M  V30 866 H 80.4113 1.13989 -3.84457 0
M  V30 867 H 77.0013 -0.226039 -4.28004 0
M  V30 868 H 81.1853 -1.01887 -4.85729 0
M  V30 869 H 76.4413 -2.12954 -5.73115 0
M  V30 870 H 80.6153 -2.92057 -6.32199 0
M  V30 871 H 78.2423 -3.48185 -6.75775 0
M  V30 872 N 79.8174 1.5752 -0.0501392 0
M  V30 873 C 81.0944 1.83996 0.663685 0
M  V30 874 C 81.4744 0.938339 1.89099 0
M  V30 875 O 80.8224 -0.00087759 2.285 0
M  V30 876 C 81.0324 3.33702 1.02196 0
M  V30 877 C 82.3804 4.00691 1.40469 0
M  V30 878 O 83.4044 3.38321 1.11433 0
M  V30 879 O 82.2634 5.10658 1.94654 0
M  V30 880 H 79.3574 0.759385 0.32751 0
M  V30 881 H 81.9034 1.69514 -0.0794238 0
M  V30 882 H 80.6754 3.91015 0.149364 0
M  V30 883 H 80.2984 3.53368 1.82255 0
M  V30 884 N 81.2955 -0.223234 1.56011 0
M  V30 885 C 82.5435 -0.946003 1.78592 0
M  V30 886 C 82.8645 -1.84936 0.618349 0
M  V30 887 O 82.1345 -1.92473 -0.364833 0
M  V30 888 H 80.7145 -0.352298 0.658707 0
M  V30 889 H 83.3765 -0.235494 1.93472 0
M  V30 890 H 82.4725 -1.55381 2.70672 0
M  V30 891 N 82.7736 -1.49793 -0.48987 0
M  V30 892 C 84.0016 -1.63568 -1.26701 0
M  V30 893 C 84.4166 -0.311465 -1.86213 0
M  V30 894 O 83.7736 0.704416 -1.68357 0
M  V30 895 C 83.8246 -2.71284 -2.38929 0
M  V30 896 O 83.5456 -3.9857 -1.81861 0
M  V30 897 C 85.0466 -2.95864 -3.3012 0
M  V30 898 H 82.2666 -0.550342 -0.383881 0
M  V30 899 H 84.8106 -1.95898 -0.586864 0
M  V30 900 H 82.9656 -2.417 -3.02753 0
M  V30 901 H 83.3796 -4.57993 -2.55622 0
M  V30 902 H 84.8536 -3.74941 -4.05121 0
M  V30 903 H 85.3306 -2.06206 -3.87783 0
M  V30 904 H 85.9366 -3.26907 -2.72051 0
M  V30 905 N 84.2517 0.741722 -1.39055 0
M  V30 906 C 85.4977 1.50336 -1.36113 0
M  V30 907 C 85.8307 1.94148 0.0450796 0
M  V30 908 O 85.1057 1.66301 1.00868 0
M  V30 909 C 85.3887 2.74773 -2.32749 0
M  V30 910 C 85.2417 2.37023 -3.82283 0
M  V30 911 C 86.5607 3.76846 -2.27322 0
M  V30 912 H 83.6797 0.545351 -0.495743 0
M  V30 913 H 86.3217 0.848624 -1.69995 0
M  V30 914 H 84.4717 3.30639 -2.03986 0
M  V30 915 H 86.1437 1.8684 -4.21768 0
M  V30 916 H 84.3867 1.69334 -3.99385 0
M  V30 917 H 85.0577 3.26104 -4.45376 0
M  V30 918 H 87.5337 3.30548 -2.5274 0
M  V30 919 H 86.4097 4.6159 -2.97028 0
M  V30 920 H 86.6707 4.23286 -1.27599 0
M  V30 921 N 85.7298 1.2412 0.971189 0
M  V30 922 C 86.6398 1.04747 2.09917 0
M  V30 923 C 87.6558 -0.0107162 1.73997 0
M  V30 924 O 88.8318 0.186714 2.00533 0
M  V30 925 C 85.8968 0.650828 3.40537 0
M  V30 926 C 84.9578 1.7851 3.90426 0
M  V30 927 C 84.1908 1.40729 5.14812 0
M  V30 928 O 84.4138 0.29557 5.69634 0
M  V30 929 O 83.3478 2.23168 5.58999 0
M  V30 930 H 87.1738 1.99304 2.29154 0
M  V30 931 H 84.7588 1.02908 1.08307 0
M  V30 932 H 86.6408 0.440992 4.19086 0
M  V30 933 H 85.3158 -0.265649 3.22608 0
M  V30 934 H 84.2228 2.04966 3.12953 0
M  V30 935 H 85.5558 2.68023 4.12825 0
M  V30 936 N 87.2079 -1.17134 1.05439 0
M  V30 937 C 88.4539 -1.87733 0.767077 0
M  V30 938 C 88.7869 -1.8098 -0.704253 0
M  V30 939 O 88.0619 -1.21951 -1.5152 0
M  V30 940 C 88.3449 -3.37659 1.25133 0
M  V30 941 C 88.1979 -3.53149 2.78578 0
M  V30 942 C 89.5169 -4.31768 0.852324 0
M  V30 943 H 86.6359 -0.681687 0.280129 0
M  V30 944 H 89.2779 -1.37732 1.30881 0
M  V30 945 H 87.4279 -3.80373 0.790469 0
M  V30 946 H 89.0999 -3.19434 3.32806 0
M  V30 947 H 87.3429 -2.95345 3.17732 0
M  V30 948 H 88.0139 -4.58403 3.07523 0
M  V30 949 H 90.4899 -3.96909 1.24911 0
M  V30 950 H 89.3659 -5.35199 1.21873 0
M  V30 951 H 89.6269 -4.41429 -0.243485 0
M  V30 952 N 88.686 -0.835752 -1.33615 0
M  V30 953 C 89.633 -0.26473 -2.29277 0
M  V30 954 C 90.603 0.617712 -1.54187 0
M  V30 955 O 91.788 0.556641 -1.825 0
M  V30 956 C 88.928 0.556777 -3.40579 0
M  V30 957 C 88.041 -0.349339 -4.30585 0
M  V30 958 C 87.176 0.482969 -5.29 0
M  V30 959 C 86.215 -0.421732 -6.10645 0
M  V30 960 N 85.352 0.372262 -7.01112 0
M  V30 961 H 90.192 -1.08582 -2.77514 0
M  V30 962 H 87.729 -0.546927 -1.36554 0
M  V30 963 H 89.687 1.04852 -4.03809 0
M  V30 964 H 88.317 1.34286 -2.93542 0
M  V30 965 H 87.369 -0.959372 -3.68104 0
M  V30 966 H 88.681 -1.04445 -4.87742 0
M  V30 967 H 87.835 1.03866 -5.97743 0
M  V30 968 H 86.574 1.21153 -4.72412 0
M  V30 969 H 85.579 -0.989464 -5.40823 0
M  V30 970 H 86.804 -1.14861 -6.69316 0
M  V30 971 H 84.75 1.08426 -6.46977 0
M  V30 972 H 84.667 -0.264198 -7.55538 0
M  V30 973 H 85.935 0.910293 -7.74167 0
M  V30 974 N 90.1641 1.46063 -0.591896 0
M  V30 975 C 91.4411 1.95595 -0.0137119 0
M  V30 976 C 91.8211 1.5345 1.4497 0
M  V30 977 O 91.1691 0.789543 2.14426 0
M  V30 978 C 91.3791 3.48453 -0.195373 0
M  V30 979 C 92.7271 4.24546 -0.0679765 0
M  V30 980 O 93.7511 3.55982 -0.124681 0
M  V30 981 O 92.6101 5.46467 0.0600579 0
M  V30 982 H 89.7041 0.825795 0.0446279 0
M  V30 983 H 92.2501 1.56303 -0.660859 0
M  V30 984 H 91.0221 3.72045 -1.21235 0
M  V30 985 H 90.6451 3.94597 0.487775 0
M  V30 986 N 91.6422 0.330177 1.54103 0
M  V30 987 C 92.8902 -0.269871 2.0029 0
M  V30 988 C 93.2112 -1.52133 1.21986 0
M  V30 989 O 92.4812 -1.93212 0.323438 0
M  V30 990 H 91.0612 -0.10271 0.739905 0
M  V30 991 H 93.7232 0.448249 1.89675 0
M  V30 992 H 92.8192 -0.52166 3.07709 0
M  V30 993 N 93.1203 -1.57491 0.0584922 0
M  V30 994 C 94.0703 -2.08474 -0.923188 0
M  V30 995 C 95.0543 -0.991479 -1.26722 0
M  V30 996 O 96.2463 -1.25473 -1.24842 0
M  V30 997 C 93.3753 -2.6392 -2.19548 0
M  V30 998 C 92.4613 -3.80227 -1.87852 0
M  V30 999 N 92.8523 -4.89714 -1.26546 0
M  V30 1000 C 91.1503 -3.89271 -2.17679 0
M  V30 1001 C 91.8513 -5.70689 -1.12644 0
M  V30 1002 N 90.8273 -5.18531 -1.63176 0
M  V30 1003 H 94.6293 -2.90517 -0.444653 0
M  V30 1004 H 92.1433 -1.61745 -0.145764 0
M  V30 1005 H 94.1403 -2.98752 -2.9078 0
M  V30 1006 H 92.8003 -1.83318 -2.68001 0
M  V30 1007 H 93.8113 -5.09358 -0.936757 0
M  V30 1008 H 90.4883 -3.19623 -2.68602 0
M  V30 1009 H 91.8783 -6.6875 -0.6499 0
M  V30 1010 N 94.5984 0.214957 -1.56127 0
M  V30 1011 C 95.5284 1.2695 -1.95974 0
M  V30 1012 C 96.5094 1.48539 -0.828868 0
M  V30 1013 O 97.6944 1.60611 -1.09168 0
M  V30 1014 C 94.8244 2.61794 -2.28214 0
M  V30 1015 C 93.7784 2.54851 -3.43853 0
M  V30 1016 C 93.1044 3.93785 -3.61715 0
M  V30 1017 C 94.4044 2.09065 -4.78632 0
M  V30 1018 H 96.0984 0.93846 -2.84312 0
M  V30 1019 H 93.6444 0.449996 -1.36788 0
M  V30 1020 H 95.5974 3.35731 -2.54682 0
M  V30 1021 H 94.3214 2.96599 -1.36736 0
M  V30 1022 H 92.9804 1.8337 -3.17444 0
M  V30 1023 H 92.6284 4.25908 -2.67602 0
M  V30 1024 H 92.3284 3.90019 -4.39498 0
M  V30 1025 H 93.8524 4.69374 -3.90539 0
M  V30 1026 H 95.2664 2.7275 -5.04262 0
M  V30 1027 H 93.6634 2.16346 -5.59745 0
M  V30 1028 H 94.7334 1.04315 -4.73547 0
M  V30 1029 N 96.0765 1.50051 0.48192 0
M  V30 1030 C 97.3255 1.59741 1.23149 0
M  V30 1031 C 97.6385 0.298163 1.93314 0
M  V30 1032 O 98.8445 0.273835 2.70116 0
M  V30 1033 C 97.3005 2.81926 2.23708 0
M  V30 1034 C 96.9085 4.18685 1.59396 0
M  V30 1035 C 98.6525 3.00956 2.99375 0
M  V30 1036 C 96.5595 5.3207 2.58178 0
M  V30 1037 H 95.4895 0.594838 0.46334 0
M  V30 1038 H 98.1405 1.76467 0.503169 0
M  V30 1039 H 96.5225 2.58736 2.99786 0
M  V30 1040 H 97.6965 4.52088 0.891811 0
M  V30 1041 H 96.0115 4.05171 0.960503 0
M  V30 1042 H 98.6085 3.82836 3.73283 0
M  V30 1043 H 98.9515 2.12258 3.58123 0
M  V30 1044 H 99.4845 3.24277 2.30411 0
M  V30 1045 H 96.2235 6.22888 2.04184 0
M  V30 1046 H 95.7435 5.03098 3.26577 0
M  V30 1047 H 97.4225 5.62196 3.20225 0
M  V30 1048 N 97.5546 -0.734337 1.39446 0
M  V30 1049 C 98.8006 -1.49613 1.36908 0
M  V30 1050 C 99.1336 -1.94169 -0.0347829 0
M  V30 1051 O 98.4086 -1.66833 -0.999847 0
M  V30 1052 C 98.6916 -2.73534 2.34203 0
M  V30 1053 C 98.5446 -2.34993 3.83534 0
M  V30 1054 C 99.8636 -3.75635 2.29317 0
M  V30 1055 H 96.9826 -0.542714 0.498629 0
M  V30 1056 H 99.6246 -0.839597 1.70443 0
M  V30 1057 H 97.7746 -3.29553 2.05736 0
M  V30 1058 H 99.4466 -1.84601 4.22753 0
M  V30 1059 H 97.6896 -1.67213 4.00278 0
M  V30 1060 H 98.3606 -3.23738 4.47099 0
M  V30 1061 H 100.837 -3.29203 2.54489 0
M  V30 1062 H 99.7126 -4.60008 2.99472 0
M  V30 1063 H 99.9736 -4.22603 1.29842 0
M  V30 1064 N 99.0327 -1.24633 -0.964593 0
M  V30 1065 C 99.9807 -1.03917 -2.08096 0
M  V30 1066 C 100.975 0.0268581 -1.69379 0
M  V30 1067 O 102.181 -0.127952 -1.79545 0
M  V30 1068 H 98.5557 -0.319044 -0.680966 0
M  V30 1069 H 100.527 -1.98581 -2.22729 0
M  V30 1070 C 99.2757 -0.663983 -3.41301 0
M  V30 1071 H 98.5987 -1.47605 -3.71555 0
M  V30 1072 H 100.039 -0.558663 -4.20303 0
M  V30 1073 C 98.4977 0.629169 -3.30973 0
M  V30 1074 O 99.0277 1.67404 -3.65156 0
M  V30 1075 N 97.2337 0.611057 -2.84103 0
M  V30 1076 H 96.7807 -0.239593 -2.56483 0
M  V30 1077 H 96.7387 1.47647 -2.77575 0
M  V30 1078 N 100.511 1.16574 -1.06058 0
M  V30 1079 C 101.759 1.86677 -0.77434 0
M  V30 1080 C 102.08 1.81959 0.701147 0
M  V30 1081 O 101.35 1.2515 1.50713 0
M  V30 1082 H 99.9298 0.691134 -0.283449 0
M  V30 1083 H 102.592 1.41378 -1.34158 0
M  V30 1084 H 101.688 2.92181 -1.09711 0
M  V30 1085 N 101.989 0.842826 1.3317 0
M  V30 1086 C 102.936 0.276885 2.29133 0
M  V30 1087 C 103.906 -0.609527 1.54512 0
M  V30 1088 O 105.091 -0.546955 1.82792 0
M  V30 1089 C 102.231 -0.538707 3.40869 0
M  V30 1090 C 101.344 0.372169 4.30394 0
M  V30 1091 C 100.479 -0.454908 5.29249 0
M  V30 1092 C 99.5179 0.45411 6.10413 0
M  V30 1093 N 98.6549 -0.335075 7.013 0
M  V30 1094 H 103.495 1.10052 2.76934 0
M  V30 1095 H 101.032 0.554161 1.36262 0
M  V30 1096 H 102.99 -1.02709 4.0436 0
M  V30 1097 H 101.62 -1.32727 2.9425 0
M  V30 1098 H 100.672 0.97888 3.6759 0
M  V30 1099 H 101.984 1.0703 4.87182 0
M  V30 1100 H 101.138 -1.00695 5.98285 0
M  V30 1101 H 99.8769 -1.18646 4.73048 0
M  V30 1102 H 98.8819 1.01813 5.40291 0
M  V30 1103 H 100.107 1.18409 6.68697 0
M  V30 1104 H 98.0529 -1.04994 6.47543 0
M  V30 1105 H 97.9699 0.304262 7.55387 0
M  V30 1106 H 99.2379 -0.869224 7.74638 0
M  V30 1107 N 103.467 -1.45747 0.599634 0
M  V30 1108 C 104.414 -2.30467 -0.123849 0
M  V30 1109 C 105.384 -1.41632 -0.86774 0
M  V30 1110 O 106.569 -1.70568 -0.855056 0
M  V30 1111 C 103.709 -3.26402 -1.12051 0
M  V30 1112 C 102.822 -4.3034 -0.37832 0
M  V30 1113 C 101.957 -5.13389 -1.364 0
M  V30 1114 C 100.996 -6.09061 -0.609171 0
M  V30 1115 N 100.133 -6.84918 -1.54374 0
M  V30 1116 H 104.973 -2.91802 0.604627 0
M  V30 1117 H 102.51 -1.43797 0.309972 0
M  V30 1118 H 104.468 -3.80482 -1.7114 0
M  V30 1119 H 103.098 -2.66839 -1.8165 0
M  V30 1120 H 102.15 -3.78984 0.327929 0
M  V30 1121 H 103.462 -4.98354 0.210997 0
M  V30 1122 H 102.616 -5.7183 -2.02719 0
M  V30 1123 H 101.355 -4.45376 -1.98725 0
M  V30 1124 H 100.36 -5.49758 0.0676979 0
M  V30 1125 H 101.585 -6.79099 0.00891991 0
M  V30 1126 H 99.531 -6.19601 -2.15478 0
M  V30 1127 H 99.448 -7.49254 -1.00766 0
M  V30 1128 H 100.716 -7.47906 -2.19676 0
M  V30 1129 N 104.945 -0.338344 -1.53925 0
M  V30 1130 C 106.194 0.260732 -2.00008 0
M  V30 1131 C 106.507 1.52073 -1.23017 0
M  V30 1132 O 107.713 2.19672 -1.5955 0
M  V30 1133 C 106.169 0.51515 -3.56194 0
M  V30 1134 C 105.777 -0.728645 -4.42035 0
M  V30 1135 C 107.521 1.07337 -4.10706 0
M  V30 1136 C 105.428 -0.445315 -5.89721 0
M  V30 1137 H 104.358 0.101205 -0.747177 0
M  V30 1138 H 107.009 -0.452866 -1.77824 0
M  V30 1139 H 105.391 1.28932 -3.74423 0
M  V30 1140 H 106.565 -1.50352 -4.35581 0
M  V30 1141 H 104.88 -1.20813 -3.98489 0
M  V30 1142 H 107.477 1.30022 -5.18651 0
M  V30 1143 H 107.82 2.0273 -3.63602 0
M  V30 1144 H 108.353 0.360034 -3.96167 0
M  V30 1145 H 105.092 -1.36883 -6.41049 0
M  V30 1146 H 104.612 0.291569 -5.99091 0
M  V30 1147 H 106.291 -0.0606218 -6.46972 0
M  V30 1148 N 106.423 1.57458 -0.0668435 0
M  V30 1149 C 107.839 1.56947 0.289772 0
M  V30 1150 C 108.039 1.07584 1.70376 0
M  V30 1151 O 107.095 0.739486 2.41429 0
M  V30 1152 C 108.408 3.0052 0.103943 0
M  V30 1153 C 109.956 3.12517 0.173857 0
M  V30 1154 C 110.431 4.57997 0.0163682 0
M  V30 1155 N 111.922 4.63144 0.0721352 0
M  V30 1156 C 112.657 5.73394 -0.0253794 0
M  V30 1157 N 112.153 6.92576 -0.176133 0
M  V30 1158 N 113.946 5.62091 0.0313305 0
M  V30 1159 H 106.097 1.87863 -0.991027 0
M  V30 1160 H 108.36 0.86583 -0.38606 0
M  V30 1161 H 108.066 3.40729 -0.871572 0
M  V30 1162 H 107.94 3.67304 0.858366 0
M  V30 1163 H 110.327 2.72197 1.13985 0
M  V30 1164 H 110.408 2.48381 -0.611586 0
M  V30 1165 H 110.052 4.99005 -0.946374 0
M  V30 1166 H 109.982 5.20158 0.821153 0
M  V30 1167 H 112.473 3.77436 0.187263 0
M  V30 1168 H 112.786 7.72418 -0.242821 0
M  V30 1169 H 111.131 6.94678 -0.211429 0
M  V30 1170 H 114.322 4.67867 0.147773 0
M  V30 1171 H 114.495 6.47982 -0.048121 0
M  V30 1172 N 107.901 -0.206675 1.56239 0
M  V30 1173 C 109.147 -0.930218 1.80208 0
M  V30 1174 C 109.48 -1.83387 0.638981 0
M  V30 1175 O 108.755 -1.91119 -0.361066 0
M  V30 1176 C 109.038 -1.75641 3.1436 0
M  V30 1177 C 108.891 -0.878257 4.41142 0
M  V30 1178 C 110.21 -2.73129 3.45092 0
M  V30 1179 H 107.329 -0.336742 0.655571 0
M  V30 1180 H 109.971 -0.198222 1.88963 0
M  V30 1181 H 108.121 -2.38048 3.07027 0
M  V30 1182 H 109.793 -0.269787 4.6051 0
M  V30 1183 H 108.036 -0.184385 4.33408 0
M  V30 1184 H 108.707 -1.49106 5.3148 0
M  V30 1185 H 111.183 -2.20856 3.52649 0
M  V30 1186 H 110.059 -3.28028 4.40101 0
M  V30 1187 H 110.32 -3.51606 2.68003 0
M  V30 1188 N 109.379 -1.50304 -0.473955 0
M  V30 1189 C 110.607 -1.64902 -1.24959 0
M  V30 1190 C 111.022 -0.331198 -1.85872 0
M  V30 1191 O 110.379 0.68652 -1.69095 0
M  V30 1192 C 110.43 -2.73803 -2.36038 0
M  V30 1193 O 110.151 -4.00477 -1.77624 0
M  V30 1194 C 111.652 -2.99349 -3.26964 0
M  V30 1195 H 108.872 -0.554383 -0.378022 0
M  V30 1196 H 111.416 -1.9651 -0.566054 0
M  V30 1197 H 109.571 -2.44898 -3.00173 0
M  V30 1198 H 109.985 -4.60678 -2.5075 0
M  V30 1199 H 111.459 -3.79217 -4.01121 0
M  V30 1200 H 111.936 -2.10307 -3.85574 0
M  V30 1201 H 112.542 -3.29774 -2.68569 0
M  V30 1202 N 110.857 0.726932 -1.39834 0
M  V30 1203 C 111.82 1.82269 -1.38962 0
M  V30 1204 C 112.82 1.58248 -0.285334 0
M  V30 1205 O 114.01 1.65499 -0.54366 0
M  V30 1206 C 111.142 3.20186 -1.17019 0
M  V30 1207 H 112.335 1.84443 -2.36476 0
M  V30 1208 H 109.888 0.931416 -1.25516 0
M  V30 1209 H 110.623 3.23669 -0.202204 0
M  V30 1210 H 110.408 3.3902 -1.96998 0
M  V30 1211 H 111.898 4.00235 -1.1917 0
M  V30 1212 N 112.336 1.25143 0.95797 0
M  V30 1213 C 113.246 1.06968 2.08794 0
M  V30 1214 C 114.262 0.00773911 1.73998 0
M  V30 1215 O 115.438 0.207972 2.00323 0
M  V30 1216 C 112.503 0.68691 3.39827 0
M  V30 1217 C 111.564 1.82641 3.88511 0
M  V30 1218 C 110.797 1.46181 5.1329 0
M  V30 1219 O 111.02 0.355971 5.69288 0
M  V30 1220 O 109.954 2.29085 5.566 0
M  V30 1221 H 113.78 2.01723 2.27027 0
M  V30 1222 H 111.365 1.04051 1.07209 0
M  V30 1223 H 113.247 0.485417 4.18595 0
M  V30 1224 H 111.922 -0.231417 3.22872 0
M  V30 1225 H 110.829 2.08274 3.10762 0
M  V30 1226 H 112.162 2.72386 4.09959 0
M  V30 1227 N 113.814 -1.1601 1.06675 0
M  V30 1228 C 115.23 -1.38622 0.790948 0
M  V30 1229 C 115.43 -1.92109 -0.607965 0
M  V30 1230 O 114.486 -2.12239 -1.36787 0
M  V30 1231 C 115.799 -2.36347 1.85905 0
M  V30 1232 C 117.347 -2.50023 1.88301 0
M  V30 1233 C 117.822 -3.51033 2.94176 0
M  V30 1234 N 119.313 -3.58563 2.93235 0
M  V30 1235 C 120.048 -4.36521 3.71803 0
M  V30 1236 N 119.544 -5.17869 4.602 0
M  V30 1237 N 121.337 -4.31541 3.60178 0
M  V30 1238 H 113.488 -0.796294 1.96908 0
M  V30 1239 H 115.751 -0.412597 0.853503 0
M  V30 1240 H 115.457 -2.04147 2.86386 0
M  V30 1241 H 115.331 -3.36042 1.71334 0
M  V30 1242 H 117.718 -2.81524 0.884769 0
M  V30 1243 H 117.799 -1.5035 2.06951 0
M  V30 1244 H 117.443 -3.20268 3.94196 0
M  V30 1245 H 117.373 -4.50445 2.72776 0
M  V30 1246 H 119.864 -3.00496 2.29152 0
M  V30 1247 H 120.177 -5.74578 5.16797 0
M  V30 1248 H 118.522 -5.17199 4.64253 0
M  V30 1249 H 121.713 -3.67051 2.90502 0
M  V30 1250 H 121.886 -4.9205 4.21653 0
M  V30 1251 N 115.292 -0.849877 -1.32721 0
M  V30 1252 C 116.569 -0.372405 -1.92022 0
M  V30 1253 C 116.949 1.1435 -1.77447 0
M  V30 1254 O 116.297 1.96296 -1.16962 0
M  V30 1255 C 116.507 -0.831482 -3.3895 0
M  V30 1256 C 117.855 -0.845882 -4.16089 0
M  V30 1257 O 118.879 -0.775806 -3.47649 0
M  V30 1258 O 117.738 -0.943753 -5.38289 0
M  V30 1259 H 114.832 -0.107667 -0.819961 0
M  V30 1260 H 117.378 -0.93646 -1.41522 0
M  V30 1261 H 116.15 -1.87448 -3.4348 0
M  V30 1262 H 115.773 -0.24461 -3.96847 0
M  V30 1263 N 116.77 1.45427 -0.607355 0
M  V30 1264 C 118.181 1.85756 -0.187535 0
M  V30 1265 C 118.532 1.5077 1.25551 0
M  V30 1266 O 117.657 0.93427 1.95193 0
M  V30 1267 C 118.252 3.37154 -0.333572 0
M  V30 1268 C 116.811 3.76387 0.0315542 0
M  V30 1269 C 115.958 2.69377 -0.658117 0
M  V30 1270 H 118.909 1.36231 -0.81405 0
M  V30 1271 H 118.93 3.78014 0.43428 0
M  V30 1272 H 118.442 3.62586 -1.38393 0
M  V30 1273 H 116.543 3.56571 1.0811 0
M  V30 1274 H 116.656 4.77731 -0.361935 0
M  V30 1275 H 115.02 2.5452 -0.0957873 0
M  V30 1276 H 115.803 2.97646 -1.7106 0
M  V30 1277 N 118.248 0.346503 1.53744 0
M  V30 1278 C 119.211 -0.496439 2.23759 0
M  V30 1279 C 120.211 -1.0252 1.2388 0
M  V30 1280 O 121.401 -0.913974 1.48297 0
M  V30 1281 C 118.533 -1.69187 2.95954 0
M  V30 1282 H 119.726 0.115952 2.99676 0
M  V30 1283 H 117.279 0.0978939 1.55993 0
M  V30 1284 H 118.014 -2.34288 2.24231 0
M  V30 1285 H 117.799 -1.31989 3.69217 0
M  V30 1286 H 119.289 -2.28969 3.49232 0
M  V30 1287 N 119.726 -1.57421 0.075193 0
M  V30 1288 C 120.674 -2.14124 -0.908508 0
M  V30 1289 C 121.668 -1.07898 -1.30592 0
M  V30 1290 O 122.874 -1.26273 -1.28277 0
M  V30 1291 H 119.249 -0.684707 -0.310935 0
M  V30 1292 H 121.22 -2.95634 -0.405374 0
M  V30 1293 C 119.969 -2.72044 -2.16535 0
M  V30 1294 H 119.292 -3.53456 -1.86839 0
M  V30 1295 H 120.732 -3.15311 -2.83469 0
M  V30 1296 C 119.191 -1.66968 -2.92615 0
M  V30 1297 O 119.721 -1.0967 -3.86439 0
M  V30 1298 N 117.927 -1.37923 -2.55784 0
M  V30 1299 H 117.474 -1.84706 -1.79559 0
M  V30 1300 H 117.432 -0.67852 -3.06991 0
M  V30 1301 N 121.204 0.198386 -1.56346 0
M  V30 1302 C 122.134 1.24865 -1.9731 0
M  V30 1303 C 123.115 1.47651 -0.844576 0
M  V30 1304 O 124.3 1.59444 -1.10866 0
M  V30 1305 C 121.43 2.59358 -2.30977 0
M  V30 1306 C 120.384 2.5119 -3.46537 0
M  V30 1307 C 119.71 3.89926 -3.65871 0
M  V30 1308 C 121.01 2.03977 -4.80823 0
M  V30 1309 H 122.704 0.908252 -2.85291 0
M  V30 1310 H 120.25 0.435462 -1.37258 0
M  V30 1311 H 122.203 3.33011 -2.58228 0
M  V30 1312 H 120.927 2.95132 -1.39874 0
M  V30 1313 H 119.586 1.79993 -3.19371 0
M  V30 1314 H 119.234 4.23046 -2.72105 0
M  V30 1315 H 118.934 3.85336 -4.4361 0
M  V30 1316 H 120.458 4.65205 -3.95495 0
M  V30 1317 H 121.872 2.67386 -5.07127 0
M  V30 1318 H 120.269 2.10397 -5.62008 0
M  V30 1319 H 121.339 0.992861 -4.74626 0
M  V30 1320 N 122.682 1.50554 0.465978 0
M  V30 1321 C 123.629 1.6979 1.56333 0
M  V30 1322 C 124.599 0.539239 1.57103 0
M  V30 1323 O 125.784 0.770401 1.74555 0
M  V30 1324 C 122.924 1.80273 2.94271 0
M  V30 1325 C 122.037 3.07674 3.0325 0
M  V30 1326 C 121.172 3.08922 4.32135 0
M  V30 1327 C 120.211 4.30755 4.34875 0
M  V30 1328 N 119.348 4.29714 5.55239 0
M  V30 1329 H 124.188 2.63472 1.39235 0
M  V30 1330 H 121.725 1.30602 0.676873 0
M  V30 1331 H 123.683 1.84332 3.74269 0
M  V30 1332 H 122.313 0.900258 3.09992 0
M  V30 1333 H 121.365 3.13062 2.16094 0
M  V30 1334 H 122.677 3.97642 3.01135 0
M  V30 1335 H 121.831 3.11738 5.20485 0
M  V30 1336 H 120.57 2.16792 4.36866 0
M  V30 1337 H 119.575 4.28146 3.44922 0
M  V30 1338 H 120.8 5.24117 4.31831 0
M  V30 1339 H 118.746 3.4044 5.60746 0
M  V30 1340 H 118.663 5.13456 5.54886 0
M  V30 1341 H 119.931 4.36683 6.457 0
M  V30 1342 N 124.16 -0.719506 1.40217 0
M  V30 1343 C 125.406 -1.48034 1.39491 0
M  V30 1344 C 125.761 -1.92399 -0.00443536 0
M  V30 1345 O 125.054 -1.64993 -0.974061 0
M  V30 1346 C 125.248 -2.72271 2.31524 0
M  V30 1347 C 125.077 -2.40055 3.80268 0
M  V30 1348 C 123.847 -2.31588 4.49105 0
M  V30 1349 C 126.045 -2.04581 4.71859 0
M  V30 1350 N 124.027 -1.92006 5.83101 0
M  V30 1351 C 125.398 -1.75568 5.94623 0
M  V30 1352 C 127.453 -1.91183 4.59732 0
M  V30 1353 C 126.156 -1.34505 7.06612 0
M  V30 1354 C 128.182 -1.51524 5.71659 0
M  V30 1355 C 127.544 -1.23406 6.93506 0
M  V30 1356 H 123.643 -0.539927 0.565688 0
M  V30 1357 H 126.227 -0.834764 1.75897 0
M  V30 1358 H 124.398 -3.34584 1.97251 0
M  V30 1359 H 126.13 -3.38584 2.21682 0
M  V30 1360 H 122.885 -2.49199 4.02737 0
M  V30 1361 H 123.309 -1.74764 6.54054 0
M  V30 1362 H 127.951 -2.11584 3.66049 0
M  V30 1363 H 125.669 -1.12846 8.00182 0
M  V30 1364 H 129.255 -1.41741 5.6427 0
M  V30 1365 H 128.135 -0.931788 7.78645 0
M  V30 1366 N 125.638 -1.25649 -0.95132 0
M  V30 1367 C 126.915 -1.01361 -1.67288 0
M  V30 1368 C 127.295 0.459135 -2.06046 0
M  V30 1369 O 126.643 1.43723 -1.7764 0
M  V30 1370 C 126.853 -1.95256 -2.89268 0
M  V30 1371 C 128.201 -2.23289 -3.61147 0
M  V30 1372 O 129.225 -1.93041 -2.99355 0
M  V30 1373 O 128.084 -2.74741 -4.72419 0
M  V30 1374 H 125.178 -0.38464 -0.732107 0
M  V30 1375 H 127.724 -1.36817 -1.00395 0
M  V30 1376 H 126.496 -2.94685 -2.57442 0
M  V30 1377 H 126.119 -1.60218 -3.6389 0
M  V30 1378 N 127.117 1.15442 -1.07289 0
M  V30 1379 C 128.027 2.23786 -0.704057 0
M  V30 1380 C 129.043 1.7166 0.284413 0
M  V30 1381 O 130.219 2.00972 0.131205 0
M  V30 1382 C 127.284 3.46535 -0.106792 0
M  V30 1383 C 126.345 4.13654 -1.14842 0
M  V30 1384 C 125.578 5.30544 -0.57956 0
M  V30 1385 O 125.801 5.67187 0.604585 0
M  V30 1386 O 124.735 5.87154 -1.32414 0
M  V30 1387 H 128.561 2.57664 -1.60757 0
M  V30 1388 H 126.146 1.23152 -0.845803 0
M  V30 1389 H 128.028 4.20804 0.224048 0
M  V30 1390 H 126.703 3.14407 0.770049 0
M  V30 1391 H 125.61 3.4131 -1.5316 0
M  V30 1392 H 126.943 4.49861 -1.99714 0
M  V30 1393 N 128.595 0.856903 1.32268 0
M  V30 1394 C 129.841 0.462069 1.97466 0
M  V30 1395 C 130.174 -0.980298 1.67642 0
M  V30 1396 O 129.449 -1.68824 0.965858 0
M  V30 1397 C 129.732 0.704336 3.53145 0
M  V30 1398 C 129.585 2.19529 3.9259 0
M  V30 1399 C 130.904 0.1622 4.39801 0
M  V30 1400 H 128.023 0.169357 0.717278 0
M  V30 1401 H 130.665 1.07574 1.56614 0
M  V30 1402 H 128.815 0.181999 3.88073 0
M  V30 1403 H 130.487 2.78387 3.67829 0
M  V30 1404 H 128.73 2.67292 3.41668 0
M  V30 1405 H 129.401 2.31549 5.01088 0
M  V30 1406 H 131.877 0.608905 4.11621 0
M  V30 1407 H 130.753 0.361265 5.4771 0
M  V30 1408 H 131.014 -0.935158 4.32096 0
M  V30 1409 N 130.073 -1.45103 0.615059 0
M  V30 1410 C 131.321 -2.01784 0.112955 0
M  V30 1411 C 131.642 -1.48504 -1.26378 0
M  V30 1412 O 130.912 -0.682245 -1.83636 0
M  V30 1413 H 129.492 -0.745993 0.0387668 0
M  V30 1414 H 132.154 -1.77808 0.798141 0
M  V30 1415 H 131.25 -3.12025 0.0684069 0
M  V30 1416 N 131.551 -0.354651 -1.53558 0
M  V30 1417 C 132.797 0.238797 -2.01389 0
M  V30 1418 C 133.13 1.49309 -1.2418 0
M  V30 1419 O 132.405 1.91638 -0.332457 0
M  V30 1420 C 132.688 0.541771 -3.56001 0
M  V30 1421 C 132.541 -0.725388 -4.43912 0
M  V30 1422 C 133.86 1.34685 -4.18984 0
M  V30 1423 H 130.979 0.0853177 -0.732045 0
M  V30 1424 H 133.621 -0.477384 -1.83905 0
M  V30 1425 H 131.771 1.15189 -3.71031 0
M  V30 1426 H 133.443 -1.36313 -4.407 0
M  V30 1427 H 131.686 -1.34801 -4.12324 0
M  V30 1428 H 132.357 -0.468505 -5.50008 0
M  V30 1429 H 134.833 0.830837 -4.07721 0
M  V30 1430 H 133.709 1.52759 -5.27215 0
M  V30 1431 H 133.97 2.35221 -3.74331 0
M  V30 1432 N 133.029 1.57378 -0.0835403 0
M  V30 1433 C 134.306 1.85363 0.624507 0
M  V30 1434 C 134.686 0.978239 1.87066 0
M  V30 1435 O 134.034 0.0475908 2.2845 0
M  V30 1436 C 134.244 3.35795 0.950947 0
M  V30 1437 C 135.592 4.03581 1.31939 0
M  V30 1438 O 136.616 3.40609 1.04232 0
M  V30 1439 O 135.475 5.14672 1.83779 0
M  V30 1440 H 132.569 0.766162 0.311329 0
M  V30 1441 H 135.115 1.69307 -0.115362 0
M  V30 1442 H 133.887 3.91244 0.0663899 0
M  V30 1443 H 133.51 3.57154 1.74719 0
M  V30 1444 N 134.507 -0.190092 1.56449 0
M  V30 1445 C 135.753 -0.911052 1.81184 0
M  V30 1446 C 136.086 -1.82699 0.658396 0
M  V30 1447 O 135.361 -1.91491 -0.340775 0
M  V30 1448 C 135.644 -1.72297 3.16205 0
M  V30 1449 C 135.497 -0.831419 4.42049 0
M  V30 1450 C 136.816 -2.69454 3.47969 0
M  V30 1451 H 133.935 -0.32977 0.659106 0
M  V30 1452 H 136.577 -0.178169 1.89163 0
M  V30 1453 H 134.727 -2.34778 3.09534 0
M  V30 1454 H 136.399 -0.220929 4.60771 0
M  V30 1455 H 134.642 -0.138406 4.33579 0
M  V30 1456 H 135.313 -1.43461 5.33032 0
M  V30 1457 H 137.789 -2.17104 3.54972 0
M  V30 1458 H 136.665 -3.23342 4.43555 0
M  V30 1459 H 136.926 -3.48744 2.71717 0
M  V30 1460 N 135.985 -1.50799 -0.457987 0
M  V30 1461 C 137.231 -1.62683 -1.21088 0
M  V30 1462 C 137.564 -0.332268 -1.91336 0
M  V30 1463 O 136.839 0.667043 -1.82704 0
M  V30 1464 C 137.122 -2.81615 -2.24422 0
M  V30 1465 C 136.975 -4.20989 -1.58392 0
M  V30 1466 C 138.294 -2.96085 -3.2561 0
M  V30 1467 H 135.413 -0.592087 -0.438864 0
M  V30 1468 H 138.055 -1.83225 -0.50286 0
M  V30 1469 H 136.205 -2.64231 -2.84806 0
M  V30 1470 H 137.877 -4.49994 -1.01504 0
M  V30 1471 H 136.12 -4.24641 -0.886704 0
M  V30 1472 H 136.791 -5.0016 -2.33547 0
M  V30 1473 H 139.267 -3.12042 -2.75262 0
M  V30 1474 H 138.143 -3.80902 -3.95228 0
M  V30 1475 H 138.404 -2.0726 -3.90507 0
M  V30 1476 N 137.463 0.71206 -1.40597 0
M  V30 1477 C 138.426 1.80785 -1.40888 0
M  V30 1478 C 139.426 1.57937 -0.302103 0
M  V30 1479 O 140.616 1.64913 -0.561182 0
M  V30 1480 C 137.748 3.18927 -1.20409 0
M  V30 1481 H 138.941 1.81924 -2.38419 0
M  V30 1482 H 136.494 0.91805 -1.26497 0
M  V30 1483 H 137.229 3.23436 -0.236522 0
M  V30 1484 H 137.014 3.36911 -2.00582 0
M  V30 1485 H 138.504 3.98949 -1.23408 0
M  V30 1486 N 138.941 1.26152 0.944643 0
M  V30 1487 C 139.851 1.09176 2.07648 0
M  V30 1488 C 140.867 0.0261935 1.7398 0
M  V30 1489 O 142.043 0.229208 2.00091 0
M  V30 1490 C 139.108 0.722915 3.39079 0
M  V30 1491 C 138.169 1.86752 3.86552 0
M  V30 1492 C 137.402 1.51617 5.11711 0
M  V30 1493 O 137.625 0.416331 5.68879 0
M  V30 1494 O 136.559 2.34975 5.54139 0
M  V30 1495 H 140.385 2.0412 2.24875 0
M  V30 1496 H 137.97 1.05182 1.061 0
M  V30 1497 H 139.852 0.529787 4.18056 0
M  V30 1498 H 138.527 -0.197159 3.23099 0
M  V30 1499 H 137.434 2.11558 3.08535 0
M  V30 1500 H 138.767 2.76719 4.07047 0
M  V30 1501 N 140.419 -1.14872 1.07899 0
M  V30 1502 C 141.382 -2.17986 0.708161 0
M  V30 1503 C 142.382 -1.58775 -0.25442 0
M  V30 1504 O 143.572 -1.74166 -0.034645 0
M  V30 1505 C 140.704 -3.40871 0.0446929 0
M  V30 1506 H 141.897 -2.52306 1.62116 0
M  V30 1507 H 139.45 -1.2943 0.876218 0
M  V30 1508 H 140.185 -3.12124 -0.880281 0
M  V30 1509 H 139.97 -3.8511 0.737091 0
M  V30 1510 H 141.46 -4.17121 -0.19991 0
M  V30 1511 N 141.898 -0.863906 -1.31812 0
M  V30 1512 C 143.126 -0.486111 -2.01108 0
M  V30 1513 C 143.541 0.919755 -1.64882 0
M  V30 1514 O 142.898 1.60162 -0.874893 0
M  V30 1515 C 142.949 -0.626435 -3.56031 0
M  V30 1516 O 142.67 -1.97693 -3.90959 0
M  V30 1517 C 144.171 -0.248857 -4.42601 0
M  V30 1518 H 141.391 -0.190052 -0.643523 0
M  V30 1519 H 143.935 -1.1634 -1.68182 0
M  V30 1520 H 142.09 0.00322717 -3.874 0
M  V30 1521 H 142.504 -1.98034 -4.85678 0
M  V30 1522 H 143.978 -0.398016 -5.50563 0
M  V30 1523 H 144.455 0.811489 -4.31638 0
M  V30 1524 H 145.061 -0.853971 -4.16638 0
M  V30 1525 N 143.376 1.44774 -0.622745 0
M  V30 1526 C 144.624 2.01721 -0.123655 0
M  V30 1527 C 144.945 1.49172 1.25589 0
M  V30 1528 O 144.215 0.691974 1.83272 0
M  V30 1529 H 142.795 0.745777 -0.0427225 0
M  V30 1530 H 145.457 1.77382 -0.807559 0
M  V30 1531 H 144.553 3.11984 -0.0849534 0
M  V30 1532 N 144.854 0.36279 1.53368 0
M  V30 1533 C 145.784 -0.476976 2.28576 0
M  V30 1534 C 146.765 -1.08631 1.30894 0
M  V30 1535 O 147.95 -1.10409 1.59761 0
M  V30 1536 C 145.08 -1.61828 3.07293 0
M  V30 1537 C 144.034 -1.13633 4.1264 0
M  V30 1538 C 143.36 -2.36766 4.79423 0
M  V30 1539 C 144.66 -0.223061 5.21823 0
M  V30 1540 H 146.354 0.150474 2.99022 0
M  V30 1541 H 143.9 0.0738103 1.43811 0
M  V30 1542 H 145.853 -2.21237 3.58653 0
M  V30 1543 H 144.577 -2.27292 2.34533 0
M  V30 1544 H 143.236 -0.564945 3.62221 0
M  V30 1545 H 142.884 -3.0068 4.03238 0
M  V30 1546 H 142.584 -2.05192 5.50609 0
M  V30 1547 H 144.108 -2.96865 5.33576 0
M  V30 1548 H 145.522 -0.724545 5.68703 0
M  V30 1549 H 143.919 0.001678 6.001 0
M  V30 1550 H 144.989 0.735553 4.79289 0
M  V30 1551 N 146.332 -1.57332 0.0918853 0
M  V30 1552 C 147.579 -1.94236 -0.572577 0
M  V30 1553 C 147.907 -0.973398 -1.6839 0
M  V30 1554 O 147.162 0.00756912 -1.95699 0
M  V30 1555 C 147.461 -3.37689 -1.17051 0
M  V30 1556 C 147.127 -4.50527 -0.183304 0
M  V30 1557 C 145.789 -4.81119 0.0882276 0
M  V30 1558 C 148.141 -5.18883 0.49095 0
M  V30 1559 C 145.469 -5.77395 1.04076 0
M  V30 1560 C 147.821 -6.1618 1.43193 0
M  V30 1561 C 146.485 -6.45179 1.71173 0
M  V30 1562 H 145.755 -0.710762 -0.209521 0
M  V30 1563 H 148.402 -1.9077 0.167036 0
M  V30 1564 H 146.707 -3.37718 -1.9863 0
M  V30 1565 H 148.404 -3.63543 -1.69227 0
M  V30 1566 H 144.994 -4.26681 -0.405124 0
M  V30 1567 H 149.178 -4.95427 0.294312 0
M  V30 1568 H 144.434 -5.98179 1.26457 0
M  V30 1569 H 148.608 -6.68243 1.96023 0
M  V30 1570 H 146.235 -7.1959 2.4514 0
M  V30 1571 N 147.81 0.181792 -1.56548 0
M  V30 1572 C 148.74 1.22765 -1.98623 0
M  V30 1573 C 149.721 1.46747 -0.860189 0
M  V30 1574 O 150.906 1.58259 -1.12551 0
M  V30 1575 C 148.036 2.56894 -2.33715 0
M  V30 1576 C 146.99 2.475 -3.49182 0
M  V30 1577 C 146.316 3.86023 -3.69986 0
M  V30 1578 C 147.616 1.98866 -4.82959 0
M  V30 1579 H 149.31 0.877942 -2.86239 0
M  V30 1580 H 146.856 0.42088 -1.37712 0
M  V30 1581 H 148.809 3.30253 -2.61746 0
M  V30 1582 H 147.533 2.93632 -1.42997 0
M  V30 1583 H 146.192 1.76596 -3.21262 0
M  V30 1584 H 145.84 4.20136 -2.76576 0
M  V30 1585 H 145.54 3.80609 -4.47672 0
M  V30 1586 H 147.064 4.60984 -4.00407 0
M  V30 1587 H 148.478 2.61992 -5.09934 0
M  V30 1588 H 146.875 2.04424 -5.64208 0
M  V30 1589 H 147.945 0.942465 -4.75653 0
M  V30 1590 N 149.288 1.51039 0.449983 0
M  V30 1591 C 150.516 1.66869 1.2232 0
M  V30 1592 C 150.931 0.360727 1.85322 0
M  V30 1593 O 150.288 -0.659531 1.70166 0
M  V30 1594 C 150.339 2.77524 2.31652 0
M  V30 1595 O 150.06 4.03252 1.7123 0
M  V30 1596 C 151.561 3.04512 3.2216 0
M  V30 1597 H 148.781 0.560326 0.369155 0
M  V30 1598 H 151.325 1.97385 0.534719 0
M  V30 1599 H 149.48 2.49642 2.96239 0
M  V30 1600 H 149.894 4.64609 2.43389 0
M  V30 1601 H 151.368 3.85551 3.95038 0
M  V30 1602 H 151.845 2.16415 3.8218 0
M  V30 1603 H 152.451 3.34005 2.63288 0
M  V30 1604 N 150.766 -0.704594 1.40972 0
M  V30 1605 C 152.043 -1.45847 1.30338 0
M  V30 1606 C 152.423 -2.10973 -0.0732344 0
M  V30 1607 O 151.771 -2.00997 -1.08685 0
M  V30 1608 C 151.981 -2.48525 2.45023 0
M  V30 1609 C 153.329 -3.1404 2.8577 0
M  V30 1610 O 154.353 -2.58848 2.44696 0
M  V30 1611 O 153.212 -4.13981 3.56766 0
M  V30 1612 H 150.306 -0.649092 0.512454 0
M  V30 1613 H 152.852 -0.735836 1.52917 0
M  V30 1614 H 151.624 -1.98994 3.36923 0
M  V30 1615 H 151.247 -3.2831 2.24272 0
M  V30 1616 N 152.244 -1.26651 -0.937939 0
M  V30 1617 C 153.154 -1.10276 -2.07066 0
M  V30 1618 C 154.17 -0.0354197 -1.73964 0
M  V30 1619 O 155.346 -0.239816 -1.99967 0
M  V30 1620 C 152.411 -0.740887 -3.38691 0
M  V30 1621 C 151.472 -1.88799 -3.85556 0
M  V30 1622 C 150.705 -1.54329 -5.10899 0
M  V30 1623 O 150.928 -0.446494 -5.6865 0
M  V30 1624 O 149.862 -2.37911 -5.52885 0
M  V30 1625 H 153.688 -2.05309 -2.23789 0
M  V30 1626 H 151.273 -1.05743 -1.0554 0
M  V30 1627 H 153.155 -0.55195 -4.1777 0
M  V30 1628 H 151.83 0.180022 -3.23199 0
M  V30 1629 H 150.737 -2.13191 -3.07409 0
M  V30 1630 H 152.07 -2.78874 -4.05574 0
M  V30 1631 N 153.722 1.14298 -1.08507 0
M  V30 1632 C 154.95 1.89219 -0.836876 0
M  V30 1633 C 155.365 1.78638 0.611054 0
M  V30 1634 O 154.722 1.14643 1.41998 0
M  V30 1635 C 154.773 3.39158 -1.25116 0
M  V30 1636 O 154.494 3.49449 -2.64229 0
M  V30 1637 C 155.995 4.31073 -1.03398 0
M  V30 1638 H 153.215 0.599328 -0.301739 0
M  V30 1639 H 155.759 1.44746 -1.44461 0
M  V30 1640 H 153.914 3.81251 -0.687514 0
M  V30 1641 H 154.328 4.42589 -2.81452 0
M  V30 1642 H 155.802 5.34646 -1.37323 0
M  V30 1643 H 156.279 4.3919 0.0289259 0
M  V30 1644 H 156.885 3.94738 -1.58311 0
M  V30 1645 N 155.201 0.870884 1.31352 0
M  V30 1646 C 156.164 0.332243 2.26779 0
M  V30 1647 C 157.164 -0.517302 1.52252 0
M  V30 1648 O 158.354 -0.326477 1.71113 0
M  V30 1649 C 155.486 -0.528066 3.36785 0
M  V30 1650 H 156.679 1.17469 2.75937 0
M  V30 1651 H 154.232 0.64655 1.423 0
M  V30 1652 H 154.967 -1.39167 2.92922 0
M  V30 1653 H 154.752 0.0802582 3.92018 0
M  V30 1654 H 156.242 -0.897179 4.07849 0
M  V30 1655 N 156.679 -1.44442 0.630414 0
M  V30 1656 C 158.095 -1.56832 0.295973 0
M  V30 1657 C 158.295 -1.61806 -1.20088 0
M  V30 1658 O 157.351 -1.5607 -1.9849 0
M  V30 1659 C 158.664 -2.84031 0.987264 0
M  V30 1660 C 160.212 -2.97742 0.96534 0
M  V30 1661 C 160.687 -4.27743 1.63708 0
M  V30 1662 N 162.178 -4.34555 1.60364 0
M  V30 1663 C 162.913 -5.33862 2.09234 0
M  V30 1664 N 162.409 -6.39578 2.66292 0
M  V30 1665 N 164.202 -5.25366 1.99867 0
M  V30 1666 H 156.353 -1.39457 1.60205 0
M  V30 1667 H 158.616 -0.668237 0.672431 0
M  V30 1668 H 158.322 -2.86338 2.04215 0
M  V30 1669 H 158.196 -3.73534 0.524588 0
M  V30 1670 H 160.583 -2.94989 -0.0810639 0
M  V30 1671 H 160.664 -2.09589 1.4665 0
M  V30 1672 H 160.308 -4.31255 2.68293 0
M  V30 1673 H 160.238 -5.14752 1.11076 0
M  V30 1674 H 162.729 -3.58772 1.18705 0
M  V30 1675 H 163.042 -7.11637 3.01317 0
M  V30 1676 H 161.387 -6.40265 2.70343 0
M  V30 1677 H 164.578 -4.41688 1.55013 0
M  V30 1678 H 164.751 -6.02606 2.38265 0
M  V30 1679 N 158.157 -0.370918 -1.53173 0
M  V30 1680 C 159.104 0.473035 -2.259 0
M  V30 1681 C 160.074 1.07311 -1.26781 0
M  V30 1682 O 161.259 1.1046 -1.55574 0
M  V30 1683 C 158.399 1.60405 -3.05556 0
M  V30 1684 C 157.512 1.02863 -4.19575 0
M  V30 1685 C 156.647 2.12918 -4.86661 0
M  V30 1686 C 155.686 1.52869 -5.92704 0
M  V30 1687 N 154.823 2.56779 -6.53459 0
M  V30 1688 H 159.663 -0.153649 -2.97604 0
M  V30 1689 H 157.2 -0.0875946 -1.46839 0
M  V30 1690 H 159.158 2.27034 -3.50016 0
M  V30 1691 H 157.788 2.20131 -2.36097 0
M  V30 1692 H 156.84 0.252465 -3.79561 0
M  V30 1693 H 158.152 0.549642 -4.95762 0
M  V30 1694 H 157.306 2.87356 -5.34333 0
M  V30 1695 H 156.045 2.6417 -4.09958 0
M  V30 1696 H 155.05 0.769479 -5.44389 0
M  V30 1697 H 156.275 1.02435 -6.7133 0
M  V30 1698 H 154.221 3.07235 -5.79606 0
M  V30 1699 H 154.138 2.13583 -7.25202 0
M  V30 1700 H 155.406 3.30903 -7.05779 0
M  V30 1701 N 159.635 1.57281 -0.100228 0
M  V30 1702 C 160.585 2.10848 0.86759 0
M  V30 1703 C 161.569 1.02473 1.24049 0
M  V30 1704 O 162.761 1.28739 1.21471 0
M  V30 1705 C 159.89 2.69648 2.12474 0
M  V30 1706 C 158.976 3.85074 1.77704 0
M  V30 1707 N 159.367 4.92897 1.13518 0
M  V30 1708 C 157.665 3.94905 2.07282 0
M  V30 1709 C 158.366 5.73475 0.974735 0
M  V30 1710 N 157.342 5.22675 1.4937 0
M  V30 1711 H 161.144 2.91594 0.367471 0
M  V30 1712 H 158.658 1.62074 0.102829 0
M  V30 1713 H 160.655 3.06356 2.82757 0
M  V30 1714 H 159.315 1.90359 2.63047 0
M  V30 1715 H 160.326 5.11662 0.801381 0
M  V30 1716 H 157.003 3.26633 2.60033 0
M  V30 1717 H 158.393 6.70238 0.472364 0
M  V30 1718 N 161.113 -0.173488 1.56642 0
M  V30 1719 C 162.362 -0.888758 1.81063 0
M  V30 1720 C 162.675 -1.83506 0.67712 0
M  V30 1721 O 163.881 -2.59254 0.806206 0
M  V30 1722 C 162.337 -1.63091 3.20826 0
M  V30 1723 C 161.945 -0.728357 4.4204 0
M  V30 1724 C 163.689 -2.33454 3.54541 0
M  V30 1725 C 161.596 -1.47062 5.72823 0
M  V30 1726 H 160.526 -0.335618 0.675186 0
M  V30 1727 H 163.177 -0.141712 1.82952 0
M  V30 1728 H 161.559 -2.42263 3.13248 0
M  V30 1729 H 162.733 0.0262449 4.60793 0
M  V30 1730 H 161.048 -0.134492 4.16183 0
M  V30 1731 H 163.645 -2.89578 4.49498 0
M  V30 1732 H 163.988 -3.08687 2.79317 0
M  V30 1733 H 164.521 -1.61227 3.63663 0
M  V30 1734 H 161.26 -0.760658 6.51072 0
M  V30 1735 H 160.78 -2.1986 5.58052 0
M  V30 1736 H 162.459 -2.01868 6.14702 0
M  V30 1737 N 162.591 -1.51276 -0.441967 0
M  V30 1738 C 163.819 -1.67516 -1.21434 0
M  V30 1739 C 164.234 -0.37055 -1.85128 0
M  V30 1740 O 163.591 0.650498 -1.70513 0
M  V30 1741 C 163.642 -2.78748 -2.30177 0
M  V30 1742 O 163.363 -4.04154 -1.69089 0
M  V30 1743 C 164.864 -3.06217 -3.20541 0
M  V30 1744 H 162.084 -0.562276 -0.366178 0
M  V30 1745 H 164.628 -1.97666 -0.524244 0
M  V30 1746 H 162.783 -2.5121 -2.94911 0
M  V30 1747 H 163.197 -4.65894 -2.40922 0
M  V30 1748 H 164.671 -3.8764 -3.92987 0
M  V30 1749 H 165.148 -2.18439 -3.81026 0
M  V30 1750 H 165.754 -3.35397 -2.61513 0
M  V30 1751 N 164.069 0.697108 -1.41344 0
M  V30 1752 C 165.032 1.79281 -1.42797 0
M  V30 1753 C 166.032 1.57607 -0.318837 0
M  V30 1754 O 167.222 1.64309 -0.578642 0
M  V30 1755 C 164.354 3.17632 -1.23785 0
M  V30 1756 H 165.547 1.79385 -2.40335 0
M  V30 1757 H 163.1 0.904582 -1.27464 0
M  V30 1758 H 163.835 3.23167 -0.270814 0
M  V30 1759 H 163.62 3.34765 -2.04144 0
M  V30 1760 H 165.11 3.97617 -1.27633 0
M  V30 1761 N 165.547 1.27147 0.931209 0
M  V30 1762 C 166.795 1.13055 1.6752 0
M  V30 1763 C 167.116 -0.324791 1.92276 0
M  V30 1764 O 166.386 -1.22775 1.52654 0
M  V30 1765 H 164.966 0.415391 0.620854 0
M  V30 1766 H 167.628 1.59623 1.11833 0
M  V30 1767 H 166.724 1.65694 2.64485 0
M  V30 1768 N 167.025 -1.13721 1.09112 0
M  V30 1769 C 167.988 -2.17222 0.731241 0
M  V30 1770 C 168.988 -1.59035 -0.237566 0
M  V30 1771 O 170.178 -1.74192 -0.0161704 0
M  V30 1772 C 167.31 -3.40804 0.0808443 0
M  V30 1773 H 168.503 -2.50573 1.64783 0
M  V30 1774 H 166.056 -1.28493 0.889897 0
M  V30 1775 H 166.791 -3.1304 -0.847127 0
M  V30 1776 H 166.576 -3.84306 0.777896 0
M  V30 1777 H 168.066 -4.1731 -0.155657 0
M  V30 1778 N 168.503 -0.877838 -1.30888 0
M  V30 1779 C 169.45 -0.337538 -2.28318 0
M  V30 1780 C 170.42 0.568346 -1.56074 0
M  V30 1781 O 171.605 0.498298 -1.84178 0
M  V30 1782 C 168.745 0.448142 -3.42178 0
M  V30 1783 C 167.858 -0.48615 -4.29256 0
M  V30 1784 C 166.993 0.314427 -5.30269 0
M  V30 1785 C 166.032 -0.615791 -6.08995 0
M  V30 1786 N 165.169 0.14902 -7.01942 0
M  V30 1787 H 170.009 -1.17356 -2.73919 0
M  V30 1788 H 167.546 -0.590094 -1.34745 0
M  V30 1789 H 169.504 0.919517 -4.06941 0
M  V30 1790 H 168.134 1.24879 -2.97666 0
M  V30 1791 H 167.186 -1.076 -3.64865 0
M  V30 1792 H 168.498 -1.19909 -4.84173 0
M  V30 1793 H 167.652 0.847969 -6.00745 0
M  V30 1794 H 166.391 1.06062 -4.76027 0
M  V30 1795 H 165.396 -1.16102 -5.37401 0
M  V30 1796 H 166.621 -1.36097 -6.65323 0
M  V30 1797 H 164.567 0.877884 -6.50099 0
M  V30 1798 H 164.484 -0.504433 -7.54315 0
M  V30 1799 H 165.752 0.663537 -7.76671 0
M  V30 1800 N 169.982 1.44106 -0.638065 0
M  V30 1801 C 170.929 2.30715 0.062701 0
M  V30 1802 C 171.899 1.43882 0.829883 0
M  V30 1803 O 173.084 1.72775 0.809532 0
M  V30 1804 C 170.224 3.29258 1.03358 0
M  V30 1805 C 169.337 4.31192 0.26409 0
M  V30 1806 C 168.472 5.16825 1.22741 0
M  V30 1807 C 167.511 6.10462 0.447475 0
M  V30 1808 N 166.648 6.8877 1.36161 0
M  V30 1809 H 171.488 2.90096 -0.681781 0
M  V30 1810 H 169.025 1.42925 -0.347988 0
M  V30 1811 H 170.983 3.84886 1.60992 0
M  V30 1812 H 169.613 2.71562 1.74511 0
M  V30 1813 H 168.665 3.77981 -0.428295 0
M  V30 1814 H 169.977 4.97619 -0.343052 0
M  V30 1815 H 169.131 5.77004 1.87487 0
M  V30 1816 H 167.87 4.50488 1.86847 0
M  V30 1817 H 166.875 5.49386 -0.213433 0
M  V30 1818 H 168.1 6.78837 -0.188968 0
M  V30 1819 H 166.046 6.25096 1.98975 0
M  V30 1820 H 165.963 7.51663 0.808656 0
M  V30 1821 H 167.231 7.53467 1.99769 0
M  V30 1822 N 171.46 0.379036 1.52974 0
M  V30 1823 C 172.706 -0.206727 2.01744 0
M  V30 1824 C 173.039 -1.47314 1.26539 0
M  V30 1825 O 172.314 -1.91084 0.362903 0
M  V30 1826 C 172.597 -0.485066 3.56818 0
M  V30 1827 C 172.45 0.795919 4.42702 0
M  V30 1828 C 173.769 -1.28003 4.21074 0
M  V30 1829 H 170.888 -0.0736607 0.73331 0
M  V30 1830 H 173.53 0.506581 1.83122 0
M  V30 1831 H 171.68 -1.09272 3.72816 0
M  V30 1832 H 173.352 1.43307 4.38476 0
M  V30 1833 H 171.595 1.41344 4.10127 0
M  V30 1834 H 172.266 0.555947 5.49193 0
M  V30 1835 H 174.742 -0.765867 4.08991 0
M  V30 1836 H 173.618 -1.44352 5.29579 0
M  V30 1837 H 173.879 -2.29236 3.78026 0
M  V30 1838 N 172.938 -1.57226 0.108567 0
M  V30 1839 C 174.184 -1.95121 -0.552761 0
M  V30 1840 C 174.517 -0.991345 -1.66991 0
M  V30 1841 O 173.792 -0.0267211 -1.94482 0
M  V30 1842 C 174.075 -3.43039 -1.09528 0
M  V30 1843 C 173.928 -4.49797 0.0177332 0
M  V30 1844 C 175.247 -3.92567 -1.98945 0
M  V30 1845 H 172.366 -0.709496 -0.199461 0
M  V30 1846 H 175.008 -1.89126 0.182011 0
M  V30 1847 H 173.158 -3.48279 -1.72146 0
M  V30 1848 H 174.83 -4.56661 0.652584 0
M  V30 1849 H 173.073 -4.284 0.682309 0
M  V30 1850 H 173.744 -5.50528 -0.402919 0
M  V30 1851 H 176.22 -3.89565 -1.46214 0
M  V30 1852 H 175.096 -4.96605 -2.33827 0
M  V30 1853 H 175.357 -3.32648 -2.91201 0
M  V30 1854 N 174.416 0.165178 -1.56732 0
M  V30 1855 C 175.349 1.23336 -1.91998 0
M  V30 1856 C 176.327 1.42476 -0.783531 0
M  V30 1857 O 177.511 1.57384 -1.03743 0
M  V30 1858 C 174.638 2.59533 -2.17625 0
M  V30 1859 C 173.684 2.57093 -3.40302 0
M  V30 1860 S 174.517 2.05571 -4.9447 0
M  V30 1861 C 175.673 3.43532 -5.23198 0
M  V30 1862 H 175.906 0.932387 -2.82301 0
M  V30 1863 H 173.439 0.370013 -1.49901 0
M  V30 1864 H 175.397 3.37918 -2.3307 0
M  V30 1865 H 174.058 2.86827 -1.28019 0
M  V30 1866 H 173.251 3.57308 -3.55453 0
M  V30 1867 H 172.853 1.86806 -3.24005 0
M  V30 1868 H 175.145 4.39559 -5.15552 0
M  V30 1869 H 176.088 3.33251 -6.2478 0
M  V30 1870 H 176.496 3.39828 -4.50752 0
M  V30 1871 N 175.894 1.51508 0.433938 0
M  V30 1872 C 177.122 1.68157 1.20543 0
M  V30 1873 C 177.537 0.380362 1.84929 0
M  V30 1874 O 176.894 -0.641446 1.70856 0
M  V30 1875 C 176.945 2.79965 2.28696 0
M  V30 1876 O 176.666 4.05045 1.66943 0
M  V30 1877 C 178.167 3.07912 3.18912 0
M  V30 1878 H 175.387 0.56421 0.363191 0
M  V30 1879 H 177.931 1.97941 0.513754 0
M  V30 1880 H 176.086 2.5277 2.93574 0
M  V30 1881 H 176.5 4.67165 2.38448 0
M  V30 1882 H 177.974 3.89719 3.90926 0
M  V30 1883 H 178.451 2.20456 3.79863 0
M  V30 1884 H 179.057 3.36779 2.59731 0
M  V30 1885 N 177.372 -0.689602 1.41712 0
M  V30 1886 C 178.62 -1.4468 1.4111 0
M  V30 1887 C 178.941 -1.94986 0.0232196 0
M  V30 1888 O 178.211 -1.72097 -0.935913 0
M  V30 1889 H 176.791 -0.536847 0.519427 0
M  V30 1890 H 179.453 -0.815825 1.77004 0
M  V30 1891 H 178.549 -2.30706 2.10193 0
M  V30 1892 N 178.85 -1.27639 -0.924453 0
M  V30 1893 C 180.261 -1.12834 -1.48746 0
M  V30 1894 C 180.612 0.285505 -1.94112 0
M  V30 1895 O 179.737 1.17874 -1.81479 0
M  V30 1896 C 180.332 -2.04217 -2.70334 0
M  V30 1897 C 178.891 -1.93509 -3.22848 0
M  V30 1898 C 178.038 -1.96583 -1.95577 0
M  V30 1899 H 180.989 -1.40484 -0.738233 0
M  V30 1900 H 181.01 -1.59989 -3.4523 0
M  V30 1901 H 180.522 -3.07111 -2.37285 0
M  V30 1902 H 178.623 -0.936131 -3.60649 0
M  V30 1903 H 178.736 -2.79917 -3.88823 0
M  V30 1904 H 177.1 -1.4085 -2.12211 0
M  V30 1905 H 177.883 -3.01137 -1.64837 0
M  V30 1906 N 180.328 1.1314 -1.09713 0
M  V30 1907 C 181.553 1.88862 -0.857081 0
M  V30 1908 C 181.978 1.78729 0.586304 0
M  V30 1909 O 181.336 1.13692 1.41222 0
M  V30 1910 C 181.384 3.36325 -1.30069 0
M  V30 1911 O 180.488 4.09815 -0.461007 0
M  V30 1912 H 179.829 0.587108 -0.310162 0
M  V30 1913 H 182.359 1.43129 -1.46203 0
M  V30 1914 H 182.369 3.87157 -1.28738 0
M  V30 1915 H 181.044 3.43017 -2.35185 0
M  V30 1916 H 179.621 3.68986 -0.538888 0
M  V30 1917 N 181.806 0.884767 1.30421 0
M  V30 1918 C 182.753 0.349642 2.28136 0
M  V30 1919 C 183.723 -0.560061 1.56373 0
M  V30 1920 O 184.908 -0.488524 1.8444 0
M  V30 1921 C 182.048 -0.42999 3.42411 0
M  V30 1922 C 181.161 0.508907 4.28992 0
M  V30 1923 C 180.296 -0.286301 5.30428 0
M  V30 1924 C 179.335 0.648079 6.08659 0
M  V30 1925 N 178.472 -0.111792 7.02011 0
M  V30 1926 H 183.312 1.18807 2.73293 0
M  V30 1927 H 180.849 0.597231 1.3443 0
M  V30 1928 H 182.807 -0.897923 4.07423 0
M  V30 1929 H 181.437 -1.23299 2.98324 0
M  V30 1930 H 180.489 1.09533 3.64289 0
M  V30 1931 H 181.801 1.22475 4.8353 0
M  V30 1932 H 180.955 -0.816098 6.01186 0
M  V30 1933 H 179.694 -1.03536 4.76583 0
M  V30 1934 H 178.699 1.18951 5.36778 0
M  V30 1935 H 179.924 1.39623 6.64592 0
M  V30 1936 H 177.87 -0.843395 6.50556 0
M  V30 1937 H 177.787 0.544429 7.54037 0
M  V30 1938 H 179.055 -0.622339 7.77012 0
M  V30 1939 N 183.284 -1.43765 0.645699 0
M  V30 1940 C 184.561 -1.9541 0.0862963 0
M  V30 1941 C 184.941 -1.58725 -1.39175 0
M  V30 1942 O 184.289 -0.868581 -2.11348 0
M  V30 1943 C 184.499 -3.47488 0.324565 0
M  V30 1944 C 185.847 -4.24001 0.225497 0
M  V30 1945 O 186.871 -3.55274 0.256715 0
M  V30 1946 O 185.73 -5.46313 0.142801 0
M  V30 1947 H 182.824 -0.826882 -0.0139483 0
M  V30 1948 H 185.37 -1.53743 0.718415 0
M  V30 1949 H 184.142 -3.67289 1.3496 0
M  V30 1950 H 183.765 -3.96135 -0.340987 0
M  V30 1951 N 184.763 -0.387143 -1.52771 0
M  V30 1952 C 185.711 0.463953 -2.27926 0
M  V30 1953 C 186.705 1.06493 -1.31741 0
M  V30 1954 O 187.911 1.00565 -1.49287 0
M  V30 1955 H 184.286 0.16837 -0.732909 0
M  V30 1956 H 186.257 -0.19141 -2.97785 0
M  V30 1957 C 185.006 1.5803 -3.09713 0
M  V30 1958 H 184.329 1.12718 -3.83581 0
M  V30 1959 H 185.769 2.15008 -3.65442 0
M  V30 1960 C 184.228 2.53509 -2.2189 0
M  V30 1961 O 184.758 3.56863 -1.84422 0
M  V30 1962 N 182.964 2.23199 -1.86093 0
M  V30 1963 H 182.511 1.39185 -2.16761 0
M  V30 1964 H 182.469 2.87333 -1.27621 0
M  V30 1965 N 186.241 1.57166 -0.116904 0
M  V30 1966 C 187.469 1.99473 0.549383 0
M  V30 1967 C 187.884 0.996541 1.60357 0
M  V30 1968 O 187.241 -0.0108731 1.82497 0
M  V30 1969 C 187.292 3.41788 1.17741 0
M  V30 1970 O 187.013 4.37788 0.165362 0
M  V30 1971 C 188.514 3.99216 1.92722 0
M  V30 1972 H 185.734 0.655009 0.145616 0
M  V30 1973 H 188.278 2.03494 -0.202625 0
M  V30 1974 H 186.433 3.38713 1.88021 0
M  V30 1975 H 186.847 5.20806 0.621403 0
M  V30 1976 H 188.321 5.00882 2.31995 0
M  V30 1977 H 188.798 3.3824 2.80161 0
M  V30 1978 H 189.404 4.0583 1.27209 0
M  V30 1979 N 187.719 -0.156864 1.56817 0
M  V30 1980 C 189.13 -0.717916 1.72345 0
M  V30 1981 C 189.481 -1.82124 0.729747 0
M  V30 1982 O 188.606 -2.16141 -0.105781 0
M  V30 1983 C 189.201 -1.30904 3.12489 0
M  V30 1984 C 187.76 -1.81676 3.29653 0
M  V30 1985 C 186.907 -0.701349 2.68284 0
M  V30 1986 H 189.858 0.0686989 1.58551 0
M  V30 1987 H 189.879 -2.17882 3.11942 0
M  V30 1988 H 189.391 -0.505796 3.8479 0
M  V30 1989 H 187.492 -2.64598 2.62333 0
M  V30 1990 H 187.605 -1.95226 4.3752 0
M  V30 1991 H 185.969 -1.12548 2.28484 0
M  V30 1992 H 186.752 0.0902846 3.43181 0
M  V30 1993 N 189.197 -1.51736 -0.425897 0
M  V30 1994 C 190.13 -1.68574 -1.53812 0
M  V30 1995 C 191.108 -0.53328 -1.53606 0
M  V30 1996 O 192.292 -0.758555 -1.72564 0
M  V30 1997 C 189.419 -1.70977 -2.92377 0
M  V30 1998 C 188.465 -2.92324 -3.10563 0
M  V30 1999 S 189.298 -4.52952 -2.85648 0
M  V30 2000 C 190.454 -4.58117 -4.26474 0
M  V30 2001 H 190.687 -2.62647 -1.39298 0
M  V30 2002 H 188.22 -1.41564 -0.616361 0
M  V30 2003 H 190.178 -1.73047 -3.72243 0
M  V30 2004 H 188.839 -0.78061 -3.04245 0
M  V30 2005 H 188.032 -2.90439 -4.11899 0
M  V30 2006 H 187.634 -2.88055 -2.38538 0
M  V30 2007 H 189.926 -4.34462 -5.19855 0
M  V30 2008 H 190.869 -5.59983 -4.33388 0
M  V30 2009 H 191.277 -3.8732 -4.10662 0
M  V30 2010 N 190.675 0.682077 -1.42076 0
M  V30 2011 C 191.922 1.44215 -1.42156 0
M  V30 2012 C 192.25 1.94468 -0.0354186 0
M  V30 2013 O 191.505 1.70816 0.955002 0
M  V30 2014 C 191.804 2.66036 -2.38662 0
M  V30 2015 C 191.47 2.34366 -3.85206 0
M  V30 2016 C 190.132 2.25439 -4.25124 0
M  V30 2017 C 192.484 2.08513 -4.77673 0
M  V30 2018 C 189.812 1.88775 -5.55501 0
M  V30 2019 C 192.164 1.73354 -6.08384 0
M  V30 2020 C 190.828 1.62933 -6.47309 0
M  V30 2021 H 190.098 0.527718 -0.520187 0
M  V30 2022 H 192.745 0.778387 -1.74967 0
M  V30 2023 H 191.05 3.3741 -1.99152 0
M  V30 2024 H 192.747 3.24205 -2.35991 0
M  V30 2025 H 189.337 2.42213 -3.53597 0
M  V30 2026 H 193.521 2.14346 -4.47626 0
M  V30 2027 H 188.777 1.7927 -5.84527 0
M  V30 2028 H 192.951 1.52373 -6.79526 0
M  V30 2029 H 190.578 1.34292 -7.48244 0
M  V30 2030 N 192.153 1.28127 0.917671 0
M  V30 2031 C 193.399 1.15223 1.66888 0
M  V30 2032 C 193.732 -0.299293 1.9188 0
M  V30 2033 O 193.007 -1.21805 1.51637 0
M  V30 2034 C 193.29 1.94706 3.02922 0
M  V30 2035 C 193.143 3.47898 2.85109 0
M  V30 2036 C 194.462 1.75939 4.03402 0
M  V30 2037 H 191.581 0.419946 0.605652 0
M  V30 2038 H 194.223 1.57398 1.06423 0
M  V30 2039 H 192.373 1.58864 3.54534 0
M  V30 2040 H 194.045 3.93624 2.40537 0
M  V30 2041 H 192.288 3.7373 2.20246 0
M  V30 2042 H 192.959 3.98765 3.81694 0
M  V30 2043 H 195.435 2.07209 3.60837 0
M  V30 2044 H 194.311 2.33931 4.96556 0
M  V30 2045 H 194.572 0.709877 4.36364 0
M  V30 2046 N 193.631 -1.12557 1.10312 0
M  V30 2047 C 194.578 -2.18247 0.750781 0
M  V30 2048 C 195.548 -1.63853 -0.272293 0
M  V30 2049 O 196.733 -1.90195 -0.151862 0
M  V30 2050 C 193.873 -3.44591 0.187379 0
M  V30 2051 C 192.986 -4.13046 1.2656 0
M  V30 2052 C 192.121 -5.27034 0.663978 0
M  V30 2053 C 191.16 -5.87353 1.72287 0
M  V30 2054 N 190.297 -6.92757 1.1416 0
M  V30 2055 H 195.137 -2.47732 1.65628 0
M  V30 2056 H 192.674 -1.21629 0.827337 0
M  V30 2057 H 194.632 -4.16904 -0.157148 0
M  V30 2058 H 193.262 -3.15527 -0.681355 0
M  V30 2059 H 192.314 -3.38924 1.72727 0
M  V30 2060 H 193.626 -4.53947 2.06721 0
M  V30 2061 H 192.78 -6.06104 0.268824 0
M  V30 2062 H 191.519 -4.87407 -0.169082 0
M  V30 2063 H 190.524 -5.06971 2.12746 0
M  V30 2064 H 191.749 -6.29051 2.55875 0
M  V30 2065 H 189.695 -6.5517 0.329984 0
M  V30 2066 H 189.612 -7.3225 1.88007 0
M  V30 2067 H 190.88 -7.75658 0.772956 0
M  V30 2068 N 195.109 -0.891671 -1.2995 0
M  V30 2069 C 196.357 -0.512486 -1.95494 0
M  V30 2070 C 196.678 0.942776 -1.70695 0
M  V30 2071 O 195.948 1.66374 -1.03424 0
M  V30 2072 H 194.528 -0.186533 -0.723336 0
M  V30 2073 H 197.19 -1.13621 -1.58355 0
M  V30 2074 H 196.286 -0.688342 -3.04415 0
M  V30 2075 N 196.587 1.43421 -0.653314 0
M  V30 2076 C 197.55 2.29182 0.0287951 0
M  V30 2077 C 198.55 1.42213 0.750465 0
M  V30 2078 O 199.74 1.63843 0.591701 0
M  V30 2079 C 196.872 3.24278 1.05151 0
M  V30 2080 H 198.065 2.90985 -0.725786 0
M  V30 2081 H 195.618 1.50702 -0.414545 0
M  V30 2082 H 196.353 2.6737 1.83532 0
M  V30 2083 H 196.138 3.88396 0.537687 0
M  V30 2084 H 197.628 3.88647 1.52786 0
M  V30 2085 N 198.065 0.39524 1.52563 0
M  V30 2086 C 199.013 -0.451859 2.28169 0
M  V30 2087 C 200.007 -1.05792 1.32304 0
M  V30 2088 O 201.213 -0.997718 1.49818 0
M  V30 2089 H 197.588 -0.164481 0.733792 0
M  V30 2090 H 199.559 0.207199 2.9768 0
M  V30 2091 C 198.308 -1.56385 3.10546 0
M  V30 2092 H 197.631 -1.10682 3.84174 0
M  V30 2093 H 199.071 -2.13067 3.66577 0
M  V30 2094 C 197.53 -2.52328 2.23231 0
M  V30 2095 O 198.06 -3.5588 1.86312 0
M  V30 2096 N 196.266 -2.22209 1.87274 0
M  V30 2097 H 195.813 -1.38033 2.17496 0
M  V30 2098 H 195.771 -2.86652 1.29143 0
M  V30 2099 N 199.544 -1.57102 0.125237 0
M  V30 2100 C 200.791 -1.95407 -0.531248 0
M  V30 2101 C 201.119 -1.0089 -1.66287 0
M  V30 2102 O 200.374 -0.0339431 -1.95671 0
M  V30 2103 C 200.673 -3.40096 -1.09862 0
M  V30 2104 C 200.339 -4.50815 -0.0876989 0
M  V30 2105 C 199.001 -4.80824 0.19026 0
M  V30 2106 C 201.353 -5.17724 0.600902 0
M  V30 2107 C 198.681 -5.75058 1.163 0
M  V30 2108 C 201.033 -6.13005 1.56231 0
M  V30 2109 C 199.697 -6.41403 1.8482 0
M  V30 2110 H 198.967 -0.715046 -0.194397 0
M  V30 2111 H 201.614 -1.90373 0.207463 0
M  V30 2112 H 199.919 -3.41855 -1.91422 0
M  V30 2113 H 201.616 -3.6705 -1.61478 0
M  V30 2114 H 198.206 -4.27444 -0.314528 0
M  V30 2115 H 202.39 -4.94691 0.399333 0
M  V30 2116 H 197.646 -5.95362 1.39117 0
M  V30 2117 H 201.82 -6.63934 2.10153 0
M  V30 2118 H 199.447 -7.14229 2.60349 0
M  V30 2119 N 201.022 0.148545 -1.56898 0
M  V30 2120 C 202.299 0.890019 -1.74178 0
M  V30 2121 C 202.679 1.99407 -0.692839 0
M  V30 2122 O 202.027 2.26671 0.288505 0
M  V30 2123 C 202.237 1.43389 -3.18183 0
M  V30 2124 C 203.585 1.89791 -3.79822 0
M  V30 2125 O 204.609 1.53134 -3.21603 0
M  V30 2126 O 203.468 2.57387 -4.82093 0
M  V30 2127 H 200.562 0.420496 -0.712118 0
M  V30 2128 H 203.108 0.134591 -1.69165 0
M  V30 2129 H 201.88 0.640383 -3.86024 0
M  V30 2130 H 201.503 2.25287 -3.27615 0
M  V30 2131 N 202.5 1.5196 0.417844 0
M  V30 2132 C 203.447 1.74678 1.50852 0
M  V30 2133 C 204.417 0.588947 1.55308 0
M  V30 2134 O 205.602 0.825544 1.72016 0
M  V30 2135 C 202.742 1.89544 2.88387 0
M  V30 2136 C 201.855 3.17166 2.93309 0
M  V30 2137 C 200.99 3.22513 4.22088 0
M  V30 2138 C 200.029 4.44372 4.20951 0
M  V30 2139 N 199.166 4.47161 5.41287 0
M  V30 2140 H 204.006 2.67768 1.30783 0
M  V30 2141 H 201.543 1.32689 0.63498 0
M  V30 2142 H 203.501 1.96146 3.68216 0
M  V30 2143 H 202.131 0.998424 3.06971 0
M  V30 2144 H 201.183 3.19778 2.06024 0
M  V30 2145 H 202.495 4.07021 2.88332 0
M  V30 2146 H 201.649 3.28139 5.10303 0
M  V30 2147 H 200.388 2.30581 4.29748 0
M  V30 2148 H 199.393 4.38902 3.31127 0
M  V30 2149 H 200.618 5.3759 4.14938 0
M  V30 2150 H 198.564 3.58108 5.49632 0
M  V30 2151 H 198.481 5.3085 5.3827 0
M  V30 2152 H 199.749 4.57005 6.3148 0
M  V30 2153 N 203.978 -0.674533 1.42435 0
M  V30 2154 C 205.208 -1.46071 1.46105 0
M  V30 2155 C 205.616 -1.89067 0.0709605 0
M  V30 2156 O 204.959 -1.58731 -0.924677 0
M  V30 2157 C 205.021 -2.74145 2.32561 0
M  V30 2158 C 204.685 -2.53224 3.8043 0
M  V30 2159 C 205.682 -2.17809 4.72075 0
M  V30 2160 C 203.367 -2.6821 4.24698 0
M  V30 2161 C 205.361 -1.97648 6.05982 0
M  V30 2162 C 203.048 -2.47665 5.58664 0
M  V30 2163 C 204.046 -2.12437 6.49122 0
M  V30 2164 O 203.734 -1.9209 7.80613 0
M  V30 2165 H 203.466 -0.455959 0.499076 0
M  V30 2166 H 206.02 -0.836193 1.87609 0
M  V30 2167 H 204.25 -3.3908 1.85908 0
M  V30 2168 H 205.939 -3.36028 2.27683 0
M  V30 2169 H 206.705 -2.05826 4.39159 0
M  V30 2170 H 202.584 -2.94609 3.54579 0
M  V30 2171 H 206.128 -1.70075 6.7655 0
M  V30 2172 H 202.025 -2.59244 5.91154 0
M  V30 2173 H 202.793 -2.06686 7.91974 0
M  V30 2174 N 205.456 -1.28612 -0.910864 0
M  V30 2175 C 206.419 -1.12803 -1.9952 0
M  V30 2176 C 207.419 -0.0668264 -1.60661 0
M  V30 2177 O 208.609 -0.312847 -1.71368 0
M  V30 2178 C 205.741 -0.72254 -3.33155 0
M  V30 2179 H 206.934 -2.09109 -2.14973 0
M  V30 2180 H 204.487 -1.11639 -1.09391 0
M  V30 2181 H 205.222 0.241152 -3.23402 0
M  V30 2182 H 205.007 -1.48916 -3.62721 0
M  V30 2183 H 206.497 -0.634666 -4.12749 0
M  V30 2184 N 206.934 1.1197 -1.10907 0
M  V30 2185 C 208.182 1.83225 -0.852819 0
M  V30 2186 C 208.503 1.84769 0.623341 0
M  V30 2187 O 207.773 1.3143 1.45269 0
M  V30 2188 H 206.353 0.67849 -0.312507 0
M  V30 2189 H 209.015 1.3556 -1.40033 0
M  V30 2190 H 208.111 2.87265 -1.22005 0
M  V30 2191 N 208.412 0.89855 1.29475 0
M  V30 2192 C 209.344 0.332726 2.26772 0
M  V30 2193 C 210.357 -0.520323 1.54261 0
M  V30 2194 O 211.546 -0.337668 1.75277 0
M  V30 2195 C 208.646 -0.544334 3.345 0
M  V30 2196 C 207.819 0.282728 4.36485 0
M  V30 2197 C 206.878 -0.526982 5.23555 0
M  V30 2198 O 205.904 0.0551165 5.69173 0
M  V30 2199 N 207.106 -1.83331 5.5079 0
M  V30 2200 H 209.871 1.16897 2.75962 0
M  V30 2201 H 207.432 0.762919 1.42798 0
M  V30 2202 H 209.424 -1.09239 3.89678 0
M  V30 2203 H 207.994 -1.28127 2.85136 0
M  V30 2204 H 207.214 1.01221 3.80983 0
M  V30 2205 H 208.502 0.84918 5.01664 0
M  V30 2206 H 207.9 -2.32898 5.15534 0
M  V30 2207 H 206.457 -2.32852 6.08788 0
M  V30 2208 N 209.89 -1.43072 0.660911 0
M  V30 2209 C 211.167 -1.95307 0.107017 0
M  V30 2210 C 211.547 -1.60192 -1.37484 0
M  V30 2211 O 210.895 -0.890949 -2.10415 0
M  V30 2212 C 211.105 -3.47124 0.361402 0
M  V30 2213 C 212.453 -4.23738 0.270455 0
M  V30 2214 O 213.477 -3.54981 0.294382 0
M  V30 2215 O 212.336 -5.46131 0.200737 0
M  V30 2216 H 209.43 -0.826984 -0.00517729 0
M  V30 2217 H 211.976 -1.52972 0.734681 0
M  V30 2218 H 210.748 -3.65837 1.38848 0
M  V30 2219 H 210.371 -3.96475 -0.298953 0
M  V30 2220 N 211.368 -0.403325 -1.52352 0
M  V30 2221 C 212.617 0.175668 -2.00934 0
M  V30 2222 C 212.93 1.46718 -1.29356 0
M  V30 2223 O 214.136 2.12708 -1.68724 0
M  V30 2224 C 212.592 0.363612 -3.58058 0
M  V30 2225 C 212.2 -0.915472 -4.38547 0
M  V30 2226 C 213.944 0.89821 -4.14888 0
M  V30 2227 C 211.851 -0.695035 -5.87302 0
M  V30 2228 H 210.781 0.0694234 -0.750797 0
M  V30 2229 H 213.432 -0.527879 -1.75743 0
M  V30 2230 H 211.814 1.12935 -3.79555 0
M  V30 2231 H 212.988 -1.68691 -4.28812 0
M  V30 2232 H 211.303 -1.37606 -3.93006 0
M  V30 2233 H 213.9 1.07907 -5.23699 0
M  V30 2234 H 214.243 1.87126 -3.71873 0
M  V30 2235 H 214.776 0.191681 -3.97338 0
M  V30 2236 H 211.515 -1.63948 -6.34666 0
M  V30 2237 H 211.035 0.0372116 -5.99788 0
M  V30 2238 H 212.714 -0.33497 -6.46132 0
M  V30 2239 N 212.846 1.57033 -0.133567 0
M  V30 2240 C 214.092 1.95976 0.521649 0
M  V30 2241 C 214.425 1.01779 1.65393 0
M  V30 2242 O 213.7 0.0576581 1.94415 0
M  V30 2243 C 213.983 3.44738 1.04057 0
M  V30 2244 C 213.836 4.49711 -0.0892897 0
M  V30 2245 C 215.155 3.95682 1.92675 0
M  V30 2246 H 212.274 0.712579 0.188149 0
M  V30 2247 H 214.916 1.88813 -0.212076 0
M  V30 2248 H 213.066 3.50973 1.66583 0
M  V30 2249 H 214.738 4.55565 -0.725152 0
M  V30 2250 H 212.981 4.27261 -0.750378 0
M  V30 2251 H 213.652 5.51099 0.315284 0
M  V30 2252 H 216.128 3.91841 1.39998 0
M  V30 2253 H 215.004 5.00262 2.25897 0
M  V30 2254 H 215.265 3.37239 2.85872 0
M  V30 2255 N 214.325 -0.140222 1.56975 0
M  V30 2256 C 215.55 -0.870414 1.88251 0
M  V30 2257 C 215.975 -1.73637 0.723312 0
M  V30 2258 O 215.333 -1.78329 -0.32689 0
M  V30 2259 C 215.381 -1.69737 3.18154 0
M  V30 2260 O 214.485 -2.80229 3.02565 0
M  V30 2261 H 213.826 -0.242025 0.61832 0
M  V30 2262 H 216.356 -0.128999 2.04193 0
M  V30 2263 H 216.366 -2.09099 3.50345 0
M  V30 2264 H 215.041 -1.06152 4.02125 0
M  V30 2265 H 213.618 -2.44224 2.81796 0
M  V30 2266 N 215.803 -1.52179 -0.40978 0
M  V30 2267 C 216.751 -1.76086 -1.51975 0
M  V30 2268 C 217.745 -0.627964 -1.57331 0
M  V30 2269 O 218.951 -0.809993 -1.60745 0
M  V30 2270 H 215.326 -0.556829 -0.505416 0
M  V30 2271 H 217.297 -2.69077 -1.28996 0
M  V30 2272 C 216.046 -1.92799 -2.8935 0
M  V30 2273 H 215.369 -2.79392 -2.85972 0
M  V30 2274 H 216.809 -2.13527 -3.66309 0
M  V30 2275 C 215.268 -0.694923 -3.29655 0
M  V30 2276 O 215.798 0.13751 -4.01465 0
M  V30 2277 N 214.004 -0.53101 -2.85707 0
M  V30 2278 H 213.551 -1.20952 -2.27439 0
M  V30 2279 H 213.509 0.292718 -3.13034 0
M  V30 2280 N 217.281 0.66697 -1.42791 0
M  V30 2281 C 218.244 1.76211 -1.46568 0
M  V30 2282 C 219.244 1.56896 -0.352196 0
M  V30 2283 O 220.434 1.63044 -0.613364 0
M  V30 2284 C 217.566 3.14935 -1.30494 0
M  V30 2285 H 218.759 1.74247 -2.44086 0
M  V30 2286 H 216.312 0.877342 -1.29354 0
M  V30 2287 H 217.047 3.2252 -0.339301 0
M  V30 2288 H 216.832 3.30359 -2.11199 0
M  V30 2289 H 218.322 3.94821 -1.36038 0
M  V30 2290 N 218.759 1.29093 0.90403 0
M  V30 2291 C 219.984 1.19809 1.69294 0
M  V30 2292 C 220.409 -0.238481 1.86582 0
M  V30 2293 O 219.767 -1.1723 1.383 0
M  V30 2294 C 219.815 1.91202 3.05736 0
M  V30 2295 O 218.919 1.22611 3.93752 0
M  V30 2296 H 218.26 0.415385 0.518027 0
M  V30 2297 H 220.79 1.70586 1.12967 0
M  V30 2298 H 220.8 1.99487 3.55906 0
M  V30 2299 H 219.475 2.95692 2.92471 0
M  V30 2300 H 218.052 1.22554 3.52186 0
M  V30 2301 N 220.237 -1.11381 1.11499 0
M  V30 2302 C 221.477 -1.84763 0.874188 0
M  V30 2303 C 221.841 -1.82726 -0.589496 0
M  V30 2304 O 223.042 -2.51562 -0.947089 0
M  V30 2305 C 221.313 -3.27931 1.42112 0
M  V30 2306 S 222.872 -4.18557 1.31739 0
M  V30 2307 H 219.69 -0.637115 0.315603 0
M  V30 2308 H 222.292 -1.34097 1.42261 0
M  V30 2309 H 220.996 -3.26978 2.48019 0
M  V30 2310 H 220.527 -3.83665 0.869761 0
M  V30 2311 H 222.542 -4.95396 0.282335 0
M  V30 2312 N 221.715 -0.905404 -1.28997 0
M  V30 2313 C 222.943 -0.549846 -1.9946 0
M  V30 2314 C 223.358 0.866834 -1.67724 0
M  V30 2315 O 222.715 1.57298 -0.925404 0
M  V30 2316 C 222.766 -0.739387 -3.53858 0
M  V30 2317 O 222.487 -2.10031 -3.84472 0
M  V30 2318 C 223.988 -0.389541 -4.41585 0
M  V30 2319 H 221.208 -0.210429 -0.637151 0
M  V30 2320 H 223.752 -1.21632 -1.64396 0
M  V30 2321 H 221.907 -0.120023 -3.87214 0
M  V30 2322 H 222.321 -2.13385 -4.79132 0
M  V30 2323 H 223.795 -0.572972 -5.49018 0
M  V30 2324 H 224.272 0.673756 -4.34001 0
M  V30 2325 H 224.878 -0.986089 -4.1371 0
M  V30 2326 N 223.193 1.4272 -0.668489 0
M  V30 2327 C 224.421 2.05966 -0.196348 0
M  V30 2328 C 224.836 1.50191 1.14403 0
M  V30 2329 O 224.193 0.639208 1.7094 0
M  V30 2330 C 224.244 3.61314 -0.115815 0
M  V30 2331 O 223.965 4.1502 -1.40322 0
M  V30 2332 C 225.466 4.41663 0.380579 0
M  V30 2333 H 222.686 0.663954 -0.0969829 0
M  V30 2334 H 225.23 1.82966 -0.913446 0
M  V30 2335 H 223.385 3.83448 0.551931 0
M  V30 2336 H 223.799 5.08832 -1.27243 0
M  V30 2337 H 225.273 5.5065 0.385848 0
M  V30 2338 H 225.75 4.15792 1.41471 0
M  V30 2339 H 226.356 4.24534 -0.255209 0
M  V30 2340 N 224.671 0.411399 1.52136 0
M  V30 2341 C 225.619 -0.427633 2.28635 0
M  V30 2342 C 226.613 -1.04383 1.33419 0
M  V30 2343 O 227.819 -0.981772 1.50868 0
M  V30 2344 H 224.194 -0.156689 0.735495 0
M  V30 2345 H 226.165 0.238761 2.97443 0
M  V30 2346 C 224.914 -1.53082 3.12188 0
M  V30 2347 H 224.237 -1.06601 3.85326 0
M  V30 2348 H 225.677 -2.09167 3.68816 0
M  V30 2349 C 224.136 -2.49946 2.25895 0
M  V30 2350 O 224.666 -3.53884 1.90076 0
M  V30 2351 N 222.872 -2.2021 1.8962 0
M  V30 2352 H 222.419 -1.35719 2.18948 0
M  V30 2353 H 222.377 -2.85266 1.32176 0
M  V30 2354 N 226.149 -1.5696 0.141893 0
M  V30 2355 C 227.389 -1.9785 -0.513304 0
M  V30 2356 C 227.753 -1.02467 -1.62371 0
M  V30 2357 O 228.954 -1.32382 -2.33941 0
M  V30 2358 C 227.225 -3.42797 -1.01118 0
M  V30 2359 S 228.784 -4.05709 -1.67169 0
M  V30 2360 H 225.602 -0.691318 -0.166135 0
M  V30 2361 H 228.204 -1.94114 0.232398 0
M  V30 2362 H 226.908 -4.0995 -0.192179 0
M  V30 2363 H 226.439 -3.50235 -1.79162 0
M  V30 2364 H 228.454 -3.98342 -2.95868 0
M  V30 2365 N 227.627 0.131896 -1.57047 0
M  V30 2366 C 228.557 1.16384 -2.02428 0
M  V30 2367 C 229.538 1.43936 -0.90644 0
M  V30 2368 O 230.723 1.54599 -1.17528 0
M  V30 2369 C 227.853 2.49328 -2.4177 0
M  V30 2370 C 226.807 2.36266 -3.56879 0
M  V30 2371 C 226.133 3.74057 -3.8208 0
M  V30 2372 C 227.433 1.834 -4.89042 0
M  V30 2373 H 229.127 0.786433 -2.88887 0
M  V30 2374 H 226.673 0.376855 -1.38981 0
M  V30 2375 H 228.626 3.21759 -2.7212 0
M  V30 2376 H 227.35 2.88934 -1.52266 0
M  V30 2377 H 226.009 1.66286 -3.26718 0
M  V30 2378 H 225.657 4.11125 -2.89803 0
M  V30 2379 H 225.357 3.66174 -4.59554 0
M  V30 2380 H 226.881 4.48012 -4.1487 0
M  V30 2381 H 228.295 2.45636 -5.18011 0
M  V30 2382 H 226.692 1.8637 -5.70426 0
M  V30 2383 H 227.762 0.790662 -4.7841 0
M  V30 2384 N 229.106 1.52395 0.401703 0
M  V30 2385 C 230.069 1.75636 1.47257 0
M  V30 2386 C 231.069 0.62628 1.48103 0
M  V30 2387 O 232.259 0.894227 1.49497 0
M  V30 2388 C 229.391 1.84553 2.86624 0
M  V30 2389 H 230.584 2.71241 1.27938 0
M  V30 2390 H 228.137 1.42923 0.632662 0
M  V30 2391 H 228.872 0.908882 3.11303 0
M  V30 2392 H 228.657 2.66715 2.87412 0
M  V30 2393 H 230.147 2.04251 3.64241 0
M  V30 2394 N 230.584 -0.659388 1.43143 0
M  V30 2395 C 231.995 -1.24041 1.39537 0
M  V30 2396 C 232.346 -1.95963 0.0963364 0
M  V30 2397 O 231.471 -2.00892 -0.804438 0
M  V30 2398 C 232.066 -2.25601 2.52764 0
M  V30 2399 C 230.625 -2.79195 2.52443 0
M  V30 2400 C 229.772 -1.53743 2.30778 0
M  V30 2401 H 232.723 -0.451792 1.52133 0
M  V30 2402 H 232.744 -3.07651 2.23899 0
M  V30 2403 H 232.256 -1.73226 3.47296 0
M  V30 2404 H 230.357 -3.35649 1.61773 0
M  V30 2405 H 230.47 -3.2716 3.50004 0
M  V30 2406 H 228.834 -1.80869 1.79328 0
M  V30 2407 H 229.617 -1.03312 3.27386 0
M  V30 2408 N 232.062 -1.29571 -0.897171 0
M  V30 2409 C 232.992 -1.17473 -2.01798 0
M  V30 2410 C 233.973 -0.068323 -1.69963 0
M  V30 2411 O 235.158 -0.248239 -1.92607 0
M  V30 2412 C 232.288 -0.853099 -3.36659 0
M  V30 2413 C 231.242 -1.9161 -3.82713 0
M  V30 2414 C 230.568 -1.44773 -5.14728 0
M  V30 2415 C 231.868 -3.32535 -4.02763 0
M  V30 2416 H 233.562 -2.11237 -2.12177 0
M  V30 2417 H 231.108 -1.01699 -1.01948 0
M  V30 2418 H 233.061 -0.755165 -4.14578 0
M  V30 2419 H 231.785 0.120236 -3.26379 0
M  V30 2420 H 230.444 -2.00346 -3.07013 0
M  V30 2421 H 230.092 -0.462995 -5.00865 0
M  V30 2422 H 229.792 -2.15865 -5.46513 0
M  V30 2423 H 231.316 -1.36334 -5.95185 0
M  V30 2424 H 232.73 -3.26626 -4.71156 0
M  V30 2425 H 231.127 -4.01607 -4.45905 0
M  V30 2426 H 232.197 -3.75326 -3.07016 0
M  V30 2427 N 233.54 1.10788 -1.12088 0
M  V30 2428 C 234.503 2.15207 -0.788577 0
M  V30 2429 C 235.503 1.59609 0.195317 0
M  V30 2430 O 236.693 1.74174 -0.0300193 0
M  V30 2431 C 233.825 3.4047 -0.171174 0
M  V30 2432 H 235.018 2.46116 -1.71368 0
M  V30 2433 H 232.571 1.26089 -0.923652 0
M  V30 2434 H 233.306 3.15176 0.763832 0
M  V30 2435 H 233.091 3.82109 -0.879514 0
M  V30 2436 H 234.581 4.17576 0.04496 0
M  V30 2437 N 235.018 0.912232 1.28515 0
M  V30 2438 C 235.965 0.397954 2.27343 0
M  V30 2439 C 236.935 -0.526766 1.57526 0
M  V30 2440 O 238.12 -0.449292 1.85435 0
M  V30 2441 C 235.26 -0.357263 3.43246 0
M  V30 2442 C 234.373 0.599788 4.27816 0
M  V30 2443 C 233.508 -0.173725 5.30916 0
M  V30 2444 C 232.547 0.777039 6.07148 0
M  V30 2445 N 231.684 0.0371398 7.0209 0
M  V30 2446 H 236.524 1.24577 2.70711 0
M  V30 2447 H 234.061 0.625612 1.33133 0
M  V30 2448 H 236.019 -0.8113 4.09236 0
M  V30 2449 H 234.649 -1.16943 3.00872 0
M  V30 2450 H 233.701 1.17235 3.61884 0
M  V30 2451 H 235.013 1.32704 4.80823 0
M  V30 2452 H 234.167 -0.688394 6.02782 0
M  V30 2453 H 232.906 -0.934041 4.78672 0
M  V30 2454 H 231.911 1.3031 5.34134 0
M  V30 2455 H 233.136 1.53689 6.61481 0
M  V30 2456 H 231.082 -0.705213 6.52198 0
M  V30 2457 H 230.999 0.704249 7.52713 0
M  V30 2458 H 232.267 -0.457383 7.78157 0
M  V30 2459 N 236.496 -1.42363 0.676048 0
M  V30 2460 C 237.742 -2.0182 0.199125 0
M  V30 2461 C 238.075 -1.53339 -1.19168 0
M  V30 2462 O 237.35 -0.736124 -1.80032 0
M  V30 2463 C 237.633 -3.59331 0.235144 0
M  V30 2464 C 237.486 -4.17989 1.66149 0
M  V30 2465 C 238.805 -4.3813 -0.41595 0
M  V30 2466 H 235.924 -0.733293 0.0738311 0
M  V30 2467 H 238.566 -1.69368 0.86107 0
M  V30 2468 H 236.716 -3.87109 -0.328487 0
M  V30 2469 H 238.388 -4.0116 2.27747 0
M  V30 2470 H 236.631 -3.7377 2.20178 0
M  V30 2471 H 237.302 -5.27126 1.63837 0
M  V30 2472 H 239.778 -4.16051 0.0638529 0
M  V30 2473 H 238.654 -5.47717 -0.360115 0
M  V30 2474 H 238.915 -4.16101 -1.49373 0
M  V30 2475 N 237.974 -0.419461 -1.51915 0
M  V30 2476 C 239.223 0.154346 -2.01109 0
M  V30 2477 C 239.536 1.45338 -1.30905 0
M  V30 2478 O 240.742 2.10906 -1.7097 0
M  V30 2479 C 239.198 0.325615 -3.58424 0
M  V30 2480 C 238.806 -0.961934 -4.37551 0
M  V30 2481 C 240.55 0.854155 -4.15818 0
M  V30 2482 C 238.457 -0.757287 -5.86531 0
M  V30 2483 H 237.387 0.0614563 -0.751491 0
M  V30 2484 H 240.038 -0.54649 -1.75173 0
M  V30 2485 H 238.42 1.08903 -3.80731 0
M  V30 2486 H 239.594 -1.7323 -4.26999 0
M  V30 2487 H 237.909 -1.41766 -3.91524 0
M  V30 2488 H 240.506 1.02346 -5.24814 0
M  V30 2489 H 240.849 1.83172 -3.73837 0
M  V30 2490 H 241.382 0.149528 -3.97519 0
M  V30 2491 H 238.121 -1.70671 -6.32892 0
M  V30 2492 H 237.641 -0.0264061 -5.99794 0
M  V30 2493 H 239.32 -0.403482 -6.45741 0
M  V30 2494 N 239.452 1.56882 -0.150215 0
M  V30 2495 C 240.4 2.18214 0.805313 0
M  V30 2496 C 241.394 1.14006 1.25296 0
M  V30 2497 O 242.6 1.3225 1.22107 0
M  V30 2498 H 238.975 0.698762 0.277913 0
M  V30 2499 H 240.946 2.97231 0.263862 0
M  V30 2500 C 239.695 2.82065 2.03309 0
M  V30 2501 H 239.018 3.61968 1.69763 0
M  V30 2502 H 240.458 3.28477 2.68103 0
M  V30 2503 C 238.917 1.80739 2.84315 0
M  V30 2504 O 239.447 1.27983 3.80767 0
M  V30 2505 N 237.653 1.4997 2.48913 0
M  V30 2506 H 237.2 1.93062 1.70542 0
M  V30 2507 H 237.158 0.824217 3.03404 0
M  V30 2508 N 240.93 -0.123565 1.57115 0
M  V30 2509 C 242.207 -0.862196 1.75572 0
M  V30 2510 C 242.587 -1.98279 0.724475 0
M  V30 2511 O 241.935 -2.27102 -0.252407 0
M  V30 2512 C 242.145 -1.38309 3.20424 0
M  V30 2513 C 243.493 -1.83724 3.82793 0
M  V30 2514 O 244.517 -1.47999 3.23998 0
M  V30 2515 O 243.376 -2.49685 4.86127 0
M  V30 2516 H 240.47 -0.409113 0.718718 0
M  V30 2517 H 243.016 -0.107661 1.69358 0
M  V30 2518 H 241.788 -0.578889 3.86994 0
M  V30 2519 H 241.411 -2.20046 3.31158 0
M  V30 2520 N 242.408 -1.52605 -0.393616 0
M  V30 2521 C 243.356 -1.77688 -1.50099 0
M  V30 2522 C 244.35 -0.644615 -1.56656 0
M  V30 2523 O 245.556 -0.826997 -1.59877 0
M  V30 2524 H 241.931 -0.562159 -0.499481 0
M  V30 2525 H 243.902 -2.7043 -1.26135 0
M  V30 2526 C 242.651 -1.95858 -2.87289 0
M  V30 2527 H 241.974 -2.8241 -2.82992 0
M  V30 2528 H 243.414 -2.174 -3.64024 0
M  V30 2529 C 241.873 -0.729848 -3.28899 0
M  V30 2530 O 242.403 0.0949217 -4.01588 0
M  V30 2531 N 240.609 -0.561283 -2.85128 0
M  V30 2532 H 240.156 -1.23357 -2.26143 0
M  V30 2533 H 240.114 0.2595 -3.13327 0
M  V30 2534 N 243.887 0.651787 -1.4349 0
M  V30 2535 C 245.134 1.41167 -1.45183 0
M  V30 2536 C 245.462 1.94349 -0.0766601 0
M  V30 2537 O 244.717 1.72804 0.918555 0
M  V30 2538 C 245.016 2.60914 -2.44251 0
M  V30 2539 C 244.682 2.26142 -3.9009 0
M  V30 2540 C 243.344 2.16371 -4.2981 0
M  V30 2541 C 245.696 1.98334 -4.81989 0
M  V30 2542 C 243.024 1.7695 -5.5938 0
M  V30 2543 C 245.376 1.6041 -6.11924 0
M  V30 2544 C 244.04 1.49166 -6.5062 0
M  V30 2545 H 243.31 0.516566 -0.531263 0
M  V30 2546 H 245.957 0.741099 -1.76579 0
M  V30 2547 H 244.262 3.3311 -2.06265 0
M  V30 2548 H 245.959 3.19127 -2.42815 0
M  V30 2549 H 242.549 2.34658 -3.58655 0
M  V30 2550 H 246.733 2.04803 -4.52072 0
M  V30 2551 H 241.989 1.66831 -5.88198 0
M  V30 2552 H 246.163 1.37925 -6.82605 0
M  V30 2553 H 243.79 1.1839 -7.50925 0
M  V30 2554 N 245.365 1.30045 0.890287 0
M  V30 2555 C 246.613 1.18327 1.63839 0
M  V30 2556 C 246.934 -0.263455 1.93212 0
M  V30 2557 O 246.204 -1.17856 1.56482 0
M  V30 2558 H 244.784 0.434933 0.607324 0
M  V30 2559 H 247.446 1.631 1.06698 0
M  V30 2560 H 246.542 1.74024 2.59079 0
M  V30 2561 N 246.843 -1.10192 1.12674 0
M  V30 2562 C 248.092 -1.81573 0.8783 0
M  V30 2563 C 248.405 -1.86249 -0.597557 0
M  V30 2564 O 249.611 -2.5386 -0.962681 0
M  V30 2565 C 248.067 -3.26149 1.52167 0
M  V30 2566 C 247.675 -3.29763 3.03249 0
M  V30 2567 C 249.419 -4.0234 1.3536 0
M  V30 2568 C 247.326 -4.68815 3.60508 0
M  V30 2569 H 246.256 -0.680394 0.324931 0
M  V30 2570 H 248.907 -1.23902 1.35353 0
M  V30 2571 H 247.289 -3.83832 0.974104 0
M  V30 2572 H 248.463 -2.8189 3.6452 0
M  V30 2573 H 246.778 -2.67059 3.19481 0
M  V30 2574 H 249.375 -5.05058 1.75559 0
M  V30 2575 H 249.718 -4.15235 0.297554 0
M  V30 2576 H 250.251 -3.51079 1.87052 0
M  V30 2577 H 246.99 -4.61121 4.65884 0
M  V30 2578 H 246.51 -5.17045 3.04014 0
M  V30 2579 H 248.189 -5.37785 3.59717 0
M  V30 2580 N 248.321 -0.919034 -1.28029 0
M  V30 2581 C 249.57 -0.550802 -1.94034 0
M  V30 2582 C 249.883 0.910877 -1.73096 0
M  V30 2583 O 251.089 1.3875 -2.33368 0
M  V30 2584 C 249.545 -0.934249 -3.47563 0
M  V30 2585 C 249.153 -2.41602 -3.7727 0
M  V30 2586 C 250.897 -0.636854 -4.19696 0
M  V30 2587 C 248.804 -2.73932 -5.24133 0
M  V30 2588 H 247.734 -0.202273 -0.726362 0
M  V30 2589 H 250.385 -1.11867 -1.45458 0
M  V30 2590 H 248.767 -0.295115 -3.94899 0
M  V30 2591 H 249.941 -3.10233 -3.40723 0
M  V30 2592 H 248.256 -2.68441 -3.18321 0
M  V30 2593 H 250.853 -0.855005 -5.2782 0
M  V30 2594 H 251.196 0.425575 -4.14119 0
M  V30 2595 H 251.729 -1.23469 -3.78154 0
M  V30 2596 H 248.468 -3.79049 -5.34792 0
M  V30 2597 H 247.988 -2.09942 -5.61858 0
M  V30 2598 H 249.667 -2.61215 -5.91925 0
M  V30 2599 N 249.799 1.42003 -0.683588 0
M  V30 2600 C 250.709 2.34597 -0.0109075 0
M  V30 2601 C 251.725 1.55576 0.779245 0
M  V30 2602 O 252.901 1.88107 0.719555 0
M  V30 2603 C 249.966 3.34199 0.922588 0
M  V30 2604 C 249.027 4.29115 0.125984 0
M  V30 2605 C 248.26 5.23959 1.01502 0
M  V30 2606 O 248.483 5.23952 2.25456 0
M  V30 2607 O 247.417 6.00053 0.47111 0
M  V30 2608 H 251.243 2.93675 -0.773853 0
M  V30 2609 H 248.828 1.42654 -0.443861 0
M  V30 2610 H 250.71 3.95365 1.45823 0
M  V30 2611 H 249.385 2.77582 1.66523 0
M  V30 2612 H 248.292 3.71335 -0.453969 0
M  V30 2613 H 249.625 4.88798 -0.577736 0
M  V30 2614 N 251.277 0.427512 1.51691 0
M  V30 2615 C 252.525 -0.141948 2.01601 0
M  V30 2616 C 252.846 -1.44067 1.31414 0
M  V30 2617 O 252.116 -1.90763 0.445658 0
M  V30 2618 H 250.696 -0.0554468 0.744939 0
M  V30 2619 H 253.358 0.567968 1.86441 0
M  V30 2620 H 252.454 -0.324913 3.10404 0
M  V30 2621 N 252.755 -1.56801 0.158532 0
M  V30 2622 C 253.685 -2.20347 -0.772609 0
M  V30 2623 C 254.666 -1.15518 -1.24859 0
M  V30 2624 O 255.851 -1.43902 -1.30406 0
M  V30 2625 C 252.981 -2.83417 -2.00729 0
M  V30 2626 C 251.935 -3.94174 -1.66765 0
M  V30 2627 C 251.261 -4.44233 -2.97592 0
M  V30 2628 C 252.561 -5.14392 -0.905447 0
M  V30 2629 H 254.255 -2.98413 -0.242959 0
M  V30 2630 H 251.801 -1.43537 -0.115419 0
M  V30 2631 H 253.754 -3.26543 -2.6636 0
M  V30 2632 H 252.478 -2.02701 -2.56086 0
M  V30 2633 H 251.137 -3.51684 -1.03508 0
M  V30 2634 H 250.785 -3.60325 -3.50963 0
M  V30 2635 H 250.485 -5.18945 -2.75626 0
M  V30 2636 H 252.009 -4.90037 -3.64274 0
M  V30 2637 H 253.423 -5.5429 -1.46408 0
M  V30 2638 H 251.82 -5.9494 -0.7853 0
M  V30 2639 H 252.89 -4.84795 0.100668 0
M  V30 2640 N 254.233 0.115231 -1.57178 0
M  V30 2641 C 255.166 1.17166 -1.95825 0
M  V30 2642 C 256.144 1.39912 -0.828463 0
M  V30 2643 O 257.328 1.54004 -1.08697 0
M  V30 2644 C 254.455 2.52478 -2.25771 0
M  V30 2645 C 253.501 2.46136 -3.48309 0
M  V30 2646 S 254.334 1.89736 -5.0076 0
M  V30 2647 C 255.49 3.26713 -5.33863 0
M  V30 2648 H 255.723 0.842103 -2.85124 0
M  V30 2649 H 253.256 0.322136 -1.51002 0
M  V30 2650 H 255.214 3.30332 -2.43702 0
M  V30 2651 H 253.875 2.82609 -1.37079 0
M  V30 2652 H 253.068 3.45819 -3.66641 0
M  V30 2653 H 252.67 1.76404 -3.29784 0
M  V30 2654 H 254.962 4.22935 -5.29275 0
M  V30 2655 H 255.905 3.13205 -6.35065 0
M  V30 2656 H 256.313 3.25316 -4.61335 0
M  V30 2657 N 255.711 1.52812 0.385517 0
M  V30 2658 C 256.939 1.71907 1.15133 0
M  V30 2659 C 257.354 0.439004 1.83625 0
M  V30 2660 O 256.711 -0.586765 1.7281 0
M  V30 2661 C 256.762 2.87099 2.19673 0
M  V30 2662 O 256.483 4.10151 1.53973 0
M  V30 2663 C 257.984 3.17902 3.08955 0
M  V30 2664 H 255.204 0.575479 0.345057 0
M  V30 2665 H 257.748 1.99476 0.45052 0
M  V30 2666 H 255.903 2.61982 2.85384 0
M  V30 2667 H 256.317 4.74514 2.23465 0
M  V30 2668 H 257.791 4.01959 3.7833 0
M  V30 2669 H 258.268 2.3243 3.72657 0
M  V30 2670 H 258.874 3.44871 2.48885 0
M  V30 2671 N 257.189 -0.644168 1.43834 0
M  V30 2672 C 258.417 -1.43147 1.49387 0
M  V30 2673 C 258.832 -1.88452 0.114583 0
M  V30 2674 O 258.189 -1.60047 -0.876989 0
M  V30 2675 C 258.24 -2.66046 2.44748 0
M  V30 2676 O 257.961 -2.22633 3.77314 0
M  V30 2677 C 259.462 -3.59311 2.59635 0
M  V30 2678 H 256.682 -0.439447 0.507077 0
M  V30 2679 H 259.226 -0.78895 1.88669 0
M  V30 2680 H 257.381 -3.26418 2.08638 0
M  V30 2681 H 257.795 -3.02216 4.28679 0
M  V30 2682 H 259.269 -4.42187 3.30416 0
M  V30 2683 H 259.746 -4.07259 1.64427 0
M  V30 2684 H 260.352 -3.04816 2.96593 0
M  V30 2685 N 258.668 -1.30515 -0.883378 0
M  V30 2686 C 259.914 -1.19607 -1.63774 0
M  V30 2687 C 260.247 0.248314 -1.92606 0
M  V30 2688 O 259.522 1.17742 -1.54813 0
M  V30 2689 C 259.805 -2.02669 -2.97653 0
M  V30 2690 C 259.658 -3.55335 -2.75784 0
M  V30 2691 C 260.977 -1.86573 -3.98596 0
M  V30 2692 H 258.096 -0.435856 -0.594305 0
M  V30 2693 H 260.738 -1.60165 -1.02212 0
M  V30 2694 H 258.888 -1.68208 -3.50197 0
M  V30 2695 H 260.56 -3.99863 -2.30016 0
M  V30 2696 H 258.803 -3.79438 -2.1026 0
M  V30 2697 H 259.474 -4.08745 -3.70988 0
M  V30 2698 H 261.95 -2.16703 -3.55217 0
M  V30 2699 H 260.826 -2.47014 -4.90179 0
M  V30 2700 H 261.087 -0.825321 -4.34328 0
M  V30 2701 N 260.146 1.09593 -1.13257 0
M  V30 2702 C 261.096 2.14345 -0.777179 0
M  V30 2703 C 262.08 1.59277 0.227966 0
M  V30 2704 O 263.272 1.76971 0.0321413 0
M  V30 2705 C 260.401 3.42439 -0.242991 0
M  V30 2706 C 259.487 4.04419 -1.27694 0
M  V30 2707 N 259.878 4.40979 -2.47732 0
M  V30 2708 C 258.176 4.31596 -1.12432 0
M  V30 2709 C 258.877 4.89784 -3.13826 0
M  V30 2710 N 257.853 4.87133 -2.41252 0
M  V30 2711 H 261.655 2.40415 -1.69049 0
M  V30 2712 H 259.169 1.26803 -1.01463 0
M  V30 2713 H 261.166 4.16889 0.0298496 0
M  V30 2714 H 259.826 3.17824 0.66467 0
M  V30 2715 H 260.837 4.32396 -2.85051 0
M  V30 2716 H 257.514 4.16595 -0.274684 0
M  V30 2717 H 258.904 5.2755 -4.16102 0
M  V30 2718 N 261.624 0.925811 1.2754 0
M  V30 2719 C 262.587 0.428129 2.25166 0
M  V30 2720 C 263.587 -0.452261 1.54309 0
M  V30 2721 O 264.777 -0.253608 1.72344 0
M  V30 2722 C 261.909 -0.384749 3.38722 0
M  V30 2723 H 263.102 1.29066 2.70706 0
M  V30 2724 H 260.655 0.706323 1.3943 0
M  V30 2725 H 261.39 -1.26618 2.98561 0
M  V30 2726 H 261.175 0.246454 3.91325 0
M  V30 2727 H 262.665 -0.723389 4.11287 0
M  V30 2728 N 263.102 -1.41638 0.69111 0
M  V30 2729 C 264.33 -2.05628 0.22909 0
M  V30 2730 C 264.745 -1.51992 -1.11999 0
M  V30 2731 O 264.102 -0.666322 -1.69901 0
M  V30 2732 C 264.153 -3.61084 0.173283 0
M  V30 2733 O 263.874 -4.12735 1.46907 0
M  V30 2734 C 265.375 -4.42213 -0.310266 0
M  V30 2735 H 262.595 -0.662327 0.107534 0
M  V30 2736 H 265.139 -1.81489 0.942438 0
M  V30 2737 H 263.294 -3.84278 -0.490858 0
M  V30 2738 H 263.708 -5.06743 1.35322 0
M  V30 2739 H 265.182 -5.51194 -0.298196 0
M  V30 2740 H 265.659 -4.1799 -1.34838 0
M  V30 2741 H 266.265 -4.24074 0.322716 0
M  V30 2742 N 264.58 -0.43555 -1.51462 0
M  V30 2743 C 265.808 0.130242 -2.0649 0
M  V30 2744 C 266.223 1.36614 -1.30315 0
M  V30 2745 O 265.58 1.78869 -0.362223 0
M  V30 2746 C 265.631 0.454253 -3.58635 0
M  V30 2747 O 265.352 -0.73259 -4.31931 0
M  V30 2748 C 266.853 1.07091 -4.3017 0
M  V30 2749 H 264.073 0.00871669 -0.670943 0
M  V30 2750 H 266.617 -0.614117 -1.95061 0
M  V30 2751 H 264.772 1.14851 -3.69984 0
M  V30 2752 H 265.186 -0.455787 -5.22516 0
M  V30 2753 H 266.66 1.24764 -5.37716 0
M  V30 2754 H 267.137 2.05144 -3.88346 0
M  V30 2755 H 267.743 0.416089 -4.2326 0
M  V30 2756 N 266.058 1.56714 -0.166846 0
M  V30 2757 C 267.021 2.16539 0.751232 0
M  V30 2758 C 268.021 1.11228 1.16125 0
M  V30 2759 O 269.211 1.36765 1.07894 0
M  V30 2760 C 266.343 2.74462 2.02196 0
M  V30 2761 H 267.536 2.99013 0.230499 0
M  V30 2762 H 265.089 1.56081 0.0826982 0
M  V30 2763 H 265.824 1.95709 2.58589 0
M  V30 2764 H 265.609 3.51527 1.73698 0
M  V30 2765 H 267.099 3.20489 2.67725 0
M  V30 2766 N 267.536 -0.106894 1.57237 0
M  V30 2767 C 268.764 -0.826389 1.8968 0
M  V30 2768 C 269.179 -1.72856 0.759353 0
M  V30 2769 O 268.536 -1.80503 -0.269263 0
M  V30 2770 C 268.587 -1.64967 3.21665 0
M  V30 2771 O 268.308 -0.783804 4.31031 0
M  V30 2772 C 269.809 -2.47326 3.67892 0
M  V30 2773 H 267.029 -0.236927 0.627779 0
M  V30 2774 H 269.573 -0.0876593 2.04312 0
M  V30 2775 H 267.728 -2.34103 3.08666 0
M  V30 2776 H 268.142 -1.35284 5.06753 0
M  V30 2777 H 269.616 -3.00604 4.6297 0
M  V30 2778 H 270.093 -3.25247 2.95146 0
M  V30 2779 H 270.699 -1.83411 3.83719 0
M  V30 2780 N 269.014 -1.53014 -0.377408 0
M  V30 2781 C 269.946 -1.74884 -1.48149 0
M  V30 2782 C 270.959 -0.629433 -1.5014 0
M  V30 2783 O 272.148 -0.905416 -1.53833 0
M  V30 2784 C 269.248 -1.80299 -2.86959 0
M  V30 2785 C 268.421 -3.09776 -3.08801 0
M  V30 2786 C 267.48 -3.06586 -4.27658 0
M  V30 2787 O 266.506 -3.80419 -4.23403 0
M  V30 2788 N 267.708 -2.26578 -5.34455 0
M  V30 2789 H 270.473 -2.70147 -1.29771 0
M  V30 2790 H 268.034 -1.51646 -0.56703 0
M  V30 2791 H 270.026 -1.75657 -3.64591 0
M  V30 2792 H 268.596 -0.92372 -2.98641 0
M  V30 2793 H 267.816 -3.27815 -2.18931 0
M  V30 2794 H 269.104 -3.95366 -3.20255 0
M  V30 2795 H 268.502 -1.66081 -5.40771 0
M  V30 2796 H 267.059 -2.27766 -6.10709 0
M  V30 2797 N 270.492 0.636531 -1.44174 0
M  V30 2798 C 271.439 1.74875 -1.50624 0
M  V30 2799 C 272.409 1.62275 -0.35442 0
M  V30 2800 O 273.594 1.82276 -0.563908 0
M  V30 2801 C 270.734 3.13102 -1.45125 0
M  V30 2802 C 269.847 3.36717 -2.7064 0
M  V30 2803 C 268.982 4.64885 -2.57013 0
M  V30 2804 C 268.021 4.8166 -3.77717 0
M  V30 2805 N 267.158 6.01101 -3.62798 0
M  V30 2806 H 271.998 1.68697 -2.45653 0
M  V30 2807 H 269.535 0.823004 -1.21922 0
M  V30 2808 H 271.493 3.93034 -1.39929 0
M  V30 2809 H 270.123 3.18308 -0.536671 0
M  V30 2810 H 269.175 2.50763 -2.86046 0
M  V30 2811 H 270.487 3.44993 -3.60252 0
M  V30 2812 H 269.641 5.52969 -2.49619 0
M  V30 2813 H 268.38 4.58957 -1.64953 0
M  V30 2814 H 267.385 3.92007 -3.85501 0
M  V30 2815 H 268.61 4.89406 -4.70807 0
M  V30 2816 H 266.556 5.96273 -2.73486 0
M  V30 2817 H 266.473 6.10409 -4.46023 0
M  V30 2818 H 267.741 6.91761 -3.59286 0
M  V30 2819 N 271.97 1.30982 0.876444 0
M  V30 2820 C 273.198 1.23242 1.6619 0
M  V30 2821 C 273.613 -0.203345 1.87702 0
M  V30 2822 O 272.97 -1.13317 1.43057 0
M  V30 2823 C 273.021 1.96623 3.03351 0
M  V30 2824 O 272.742 3.34594 2.82804 0
M  V30 2825 C 274.243 1.95644 3.97792 0
M  V30 2826 H 271.463 0.426126 0.518322 0
M  V30 2827 H 274.007 1.7275 1.09442 0
M  V30 2828 H 272.162 1.50892 3.56806 0
M  V30 2829 H 272.576 3.71873 3.69879 0
M  V30 2830 H 274.05 2.51511 4.91372 0
M  V30 2831 H 274.527 0.937395 4.2908 0
M  V30 2832 H 275.133 2.41225 3.50272 0
M  V30 2833 N 273.449 -1.08991 1.13837 0
M  V30 2834 C 274.695 -1.81526 0.90422 0
M  V30 2835 C 275.028 -1.85706 -0.568066 0
M  V30 2836 O 274.303 -1.32855 -1.42056 0
M  V30 2837 C 274.586 -3.27447 1.49835 0
M  V30 2838 C 274.439 -3.31512 3.04006 0
M  V30 2839 C 275.758 -4.24256 1.17025 0
M  V30 2840 H 272.877 -0.659029 0.329923 0
M  V30 2841 H 275.519 -1.27644 1.40737 0
M  V30 2842 H 273.669 -3.73462 1.07044 0
M  V30 2843 H 275.341 -2.93867 3.55584 0
M  V30 2844 H 273.584 -2.70963 3.38765 0
M  V30 2845 H 274.255 -4.34329 3.40679 0
M  V30 2846 H 276.731 -3.86549 1.54009 0
M  V30 2847 H 275.607 -5.24684 1.61237 0
M  V30 2848 H 275.868 -4.42019 0.0846274 0
M  V30 2849 N 274.927 -0.932562 -1.27047 0
M  V30 2850 C 276.204 -0.49377 -1.89265 0
M  V30 2851 C 276.584 1.02833 -1.8436 0
M  V30 2852 O 275.932 1.88461 -1.29209 0
M  V30 2853 C 276.142 -1.04536 -3.32976 0
M  V30 2854 C 277.49 -1.10879 -4.09867 0
M  V30 2855 O 278.514 -0.995327 -3.42011 0
M  V30 2856 O 277.373 -1.28417 -5.31198 0
M  V30 2857 H 274.467 -0.159596 -0.811454 0
M  V30 2858 H 277.013 -1.02457 -1.3528 0
M  V30 2859 H 275.785 -2.08913 -3.30864 0
M  V30 2860 H 275.408 -0.496494 -3.94488 0
M  V30 2861 N 276.405 1.4127 -0.698611 0
M  V30 2862 C 277.653 2.00782 -0.230409 0
M  V30 2863 C 277.974 1.5562 1.17505 0
M  V30 2864 O 277.244 0.78815 1.79346 0
M  V30 2865 H 275.824 0.742464 -0.0821944 0
M  V30 2866 H 278.486 1.72852 -0.90045 0
M  V30 2867 H 277.582 3.11095 -0.25021 0
M  V30 2868 N 277.883 0.443576 1.51229 0
M  V30 2869 C 279.294 -0.0180867 1.86691 0
M  V30 2870 C 279.645 -1.41384 1.36033 0
M  V30 2871 O 278.77 -2.04291 0.713722 0
M  V30 2872 C 279.365 -0.039597 3.38777 0
M  V30 2873 C 277.924 -0.445692 3.73752 0
M  V30 2874 C 277.071 0.357584 2.74985 0
M  V30 2875 H 280.022 0.659138 1.44364 0
M  V30 2876 H 280.043 -0.847761 3.70936 0
M  V30 2877 H 279.555 0.976382 3.75617 0
M  V30 2878 H 277.656 -1.46704 3.42503 0
M  V30 2879 H 277.769 -0.166155 4.78812 0
M  V30 2880 H 276.133 -0.184973 2.54027 0
M  V30 2881 H 276.916 1.37256 3.14668 0
M  V30 2882 N 279.361 -1.56624 0.175154 0
M  V30 2883 C 280.586 -2.01813 -0.478137 0
M  V30 2884 C 281.011 -1.05457 -1.55757 0
M  V30 2885 O 280.369 -0.0347439 -1.81267 0
M  V30 2886 C 280.417 -3.45581 -1.02987 0
M  V30 2887 O 279.521 -3.52305 -2.14371 0
M  V30 2888 H 278.862 -0.65413 -0.114059 0
M  V30 2889 H 281.392 -2.02673 0.280173 0
M  V30 2890 H 281.402 -3.84965 -1.35151 0
M  V30 2891 H 280.077 -4.1521 -0.239556 0
M  V30 2892 H 278.654 -3.24783 -1.83222 0
M  V30 2893 N 280.839 0.0985539 -1.57292 0
M  V30 2894 C 281.789 1.1261 -1.9825 0
M  V30 2895 C 282.773 1.35961 -0.860426 0
M  V30 2896 O 283.965 1.36711 -1.12424 0
M  V30 2897 C 281.094 2.44727 -2.40757 0
M  V30 2898 C 280.18 2.24764 -3.59642 0
M  V30 2899 N 280.571 1.74661 -4.74687 0
M  V30 2900 C 278.869 2.55344 -3.65672 0
M  V30 2901 C 279.57 1.68887 -5.56644 0
M  V30 2902 N 278.546 2.13976 -4.99715 0
M  V30 2903 H 282.348 0.731604 -2.84648 0
M  V30 2904 H 279.862 0.306029 -1.59491 0
M  V30 2905 H 281.859 3.19072 -2.68326 0
M  V30 2906 H 280.519 2.84917 -1.55733 0
M  V30 2907 H 281.53 1.43908 -4.97505 0
M  V30 2908 H 278.207 2.99081 -2.91302 0
M  V30 2909 H 279.597 1.3123 -6.5896 0
M  V30 2910 N 282.317 1.53212 0.369288 0
M  V30 2911 C 283.264 1.79388 1.45219 0
M  V30 2912 C 284.234 0.638059 1.53356 0
M  V30 2913 O 285.419 0.879852 1.69302 0
M  V30 2914 C 282.559 1.98623 2.82211 0
M  V30 2915 C 281.672 3.26337 2.8307 0
M  V30 2916 C 280.807 3.35779 4.11614 0
M  V30 2917 C 279.846 4.5754 4.06601 0
M  V30 2918 N 278.983 4.64155 5.26787 0
M  V30 2919 H 283.823 2.71794 1.22198 0
M  V30 2920 H 281.36 1.34642 0.592444 0
M  V30 2921 H 283.318 2.07761 3.61789 0
M  V30 2922 H 281.948 1.09558 3.03639 0
M  V30 2923 H 281 3.26171 1.95747 0
M  V30 2924 H 282.312 4.15988 2.75237 0
M  V30 2925 H 281.466 3.44208 4.99606 0
M  V30 2926 H 280.205 2.44137 4.22195 0
M  V30 2927 H 279.21 4.49215 3.16996 0
M  V30 2928 H 280.435 5.50519 3.97625 0
M  V30 2929 H 278.381 3.75413 5.3796 0
M  V30 2930 H 278.298 5.47706 5.21109 0
M  V30 2931 H 279.566 4.76863 6.16621 0
M  V30 2932 N 283.795 -0.628877 1.44509 0
M  V30 2933 C 285.072 -1.38733 1.37886 0
M  V30 2934 C 285.452 -2.11065 0.0387008 0
M  V30 2935 O 284.8 -2.06476 -0.97878 0
M  V30 2936 C 285.01 -2.35188 2.57852 0
M  V30 2937 C 286.358 -2.9845 3.02014 0
M  V30 2938 O 287.382 -2.45513 2.58073 0
M  V30 2939 O 286.241 -3.94487 3.78209 0
M  V30 2940 H 283.335 -0.621015 0.54614 0
M  V30 2941 H 285.881 -0.653744 1.56602 0
M  V30 2942 H 284.653 -1.80855 3.46998 0
M  V30 2943 H 284.276 -3.1596 2.4136 0
M  V30 2944 N 285.273 -1.31445 -0.869486 0
M  V30 2945 C 286.519 -1.22347 -1.62489 0
M  V30 2946 C 286.874 0.216204 -1.91181 0
M  V30 2947 O 286.167 1.14977 -1.53268 0
M  V30 2948 C 286.361 -2.00145 -2.96102 0
M  V30 2949 C 286.19 -3.51531 -2.80456 0
M  V30 2950 C 284.96 -4.20882 -2.79618 0
M  V30 2951 C 287.158 -4.46471 -2.5528 0
M  V30 2952 N 285.14 -5.58421 -2.55027 0
M  V30 2953 C 286.511 -5.71682 -2.39957 0
M  V30 2954 C 288.566 -4.35892 -2.40629 0
M  V30 2955 C 287.269 -6.87511 -2.11472 0
M  V30 2956 C 289.295 -5.51505 -2.13532 0
M  V30 2957 C 288.657 -6.75707 -1.98998 0
M  V30 2958 H 284.756 -0.502815 -0.598917 0
M  V30 2959 H 287.34 -1.65639 -1.02332 0
M  V30 2960 H 285.511 -1.59221 -3.54264 0
M  V30 2961 H 287.243 -1.83063 -3.60929 0
M  V30 2962 H 283.998 -3.72857 -2.92018 0
M  V30 2963 H 284.422 -6.30841 -2.45701 0
M  V30 2964 H 289.064 -3.40533 -2.50593 0
M  V30 2965 H 286.782 -7.82897 -2.00245 0
M  V30 2966 H 290.368 -5.45238 -2.02995 0
M  V30 2967 H 289.248 -7.63655 -1.78326 0
M  V30 2968 N 286.751 1.08385 -1.14413 0
M  V30 2969 C 288.167 1.32844 -0.884563 0
M  V30 2970 C 288.367 1.95841 0.474181 0
M  V30 2971 O 287.423 2.21158 1.21842 0
M  V30 2972 C 288.736 2.22978 -2.01745 0
M  V30 2973 C 290.284 2.36458 -2.05077 0
M  V30 2974 C 290.759 3.29934 -3.1766 0
M  V30 2975 N 292.25 3.37511 -3.17239 0
M  V30 2976 C 292.985 4.09871 -4.0099 0
M  V30 2977 N 292.481 4.84936 -4.94781 0
M  V30 2978 N 294.274 4.05704 -3.89051 0
M  V30 2979 H 286.425 0.658756 -2.01926 0
M  V30 2980 H 288.688 0.352821 -0.879899 0
M  V30 2981 H 288.394 1.83934 -2.99769 0
M  V30 2982 H 288.268 3.23441 -1.94077 0
M  V30 2983 H 290.655 2.7476 -1.0766 0
M  V30 2984 H 290.736 1.35736 -2.16816 0
M  V30 2985 H 290.38 2.92352 -4.15322 0
M  V30 2986 H 290.31 4.30584 -3.03158 0
M  V30 2987 H 292.801 2.83996 -2.49308 0
M  V30 2988 H 293.114 5.37612 -5.55151 0
M  V30 2989 H 291.459 4.83988 -4.98779 0
M  V30 2990 H 294.65 3.46167 -3.15097 0
M  V30 2991 H 294.823 4.61834 -4.54547 0
M  V30 2992 N 288.23 0.939286 1.26551 0
M  V30 2993 C 289.478 0.58469 1.93457 0
M  V30 2994 C 289.799 -0.878774 1.74076 0
M  V30 2995 O 289.069 -1.62421 1.09528 0
M  V30 2996 H 287.649 0.21325 0.715914 0
M  V30 2997 H 290.311 1.1942 1.54029 0
M  V30 2998 H 289.407 0.800849 3.0165 0
M  V30 2999 N 289.708 -1.40897 0.706093 0
M  V30 3000 C 290.956 -2.00657 0.241054 0
M  V30 3001 C 291.277 -1.56241 -1.16678 0
M  V30 3002 O 290.547 -0.79765 -1.78926 0
M  V30 3003 H 289.127 -0.742018 0.0861308 0
M  V30 3004 H 291.789 -1.72372 0.909604 0
M  V30 3005 H 290.885 -3.10958 0.266705 0
M  V30 3006 N 291.186 -0.45159 -1.50991 0
M  V30 3007 C 292.602 -0.104647 -1.59257 0
M  V30 3008 C 292.802 1.38728 -1.4614 0
M  V30 3009 O 291.858 2.15866 -1.30989 0
M  V30 3010 C 293.171 -0.637468 -2.93865 0
M  V30 3011 C 294.719 -0.599166 -3.07212 0
M  V30 3012 C 295.194 -1.1092 -4.44366 0
M  V30 3013 N 296.685 -1.06778 -4.50725 0
M  V30 3014 C 297.42 -1.43314 -5.55201 0
M  V30 3015 N 296.916 -1.87204 -6.67028 0
M  V30 3016 N 298.709 -1.3504 -5.45638 0
M  V30 3017 H 290.86 -1.42214 -1.57762 0
M  V30 3018 H 293.123 -0.586921 -0.744465 0
M  V30 3019 H 292.829 -1.68187 -3.08879 0
M  V30 3020 H 292.703 -0.0702139 -3.77135 0
M  V30 3021 H 295.09 0.436277 -2.91857 0
M  V30 3022 H 295.171 -1.20299 -2.25747 0
M  V30 3023 H 294.815 -2.14318 -4.60467 0
M  V30 3024 H 294.745 -0.481773 -5.24392 0
M  V30 3025 H 297.236 -0.745643 -3.70471 0
M  V30 3026 H 297.549 -2.13282 -7.42786 0
M  V30 3027 H 295.894 -1.91142 -6.68199 0
M  V30 3028 H 299.085 -1.00607 -4.57161 0
M  V30 3029 H 299.258 -1.63841 -6.26945 0
M  V30 3030 N 292.664 1.56529 -0.183458 0
M  V30 3031 C 293.912 1.96855 0.457452 0
M  V30 3032 C 294.233 1.07104 1.62953 0
M  V30 3033 O 293.503 0.139887 1.954 0
M  V30 3034 H 292.083 0.72693 0.171992 0
M  V30 3035 H 294.745 1.93056 -0.267476 0
M  V30 3036 H 293.841 3.01423 0.809368 0
M  V30 3037 N 294.142 -0.090211 1.57342 0
M  V30 3038 C 295.105 -1.09335 2.01441 0
M  V30 3039 C 296.105 -1.32666 0.908641 0
M  V30 3040 O 297.295 -1.28697 1.174 0
M  V30 3041 C 294.427 -2.44136 2.3793 0
M  V30 3042 H 295.62 -0.713662 2.91285 0
M  V30 3043 H 293.173 -0.335404 1.52659 0
M  V30 3044 H 293.908 -2.86972 1.51055 0
M  V30 3045 H 293.693 -2.28548 3.18603 0
M  V30 3046 H 295.183 -3.16277 2.72688 0
M  V30 3047 N 295.62 -1.53406 -0.361157 0
M  V30 3048 C 296.845 -1.74024 -1.12829 0
M  V30 3049 C 297.27 -0.470069 -1.82132 0
M  V30 3050 O 296.628 0.57619 -1.719 0
M  V30 3051 C 296.676 -2.90903 -2.13091 0
M  V30 3052 O 295.78 -2.59821 -3.20261 0
M  V30 3053 H 295.121 -0.577804 -0.327168 0
M  V30 3054 H 297.651 -2.00307 -0.41693 0
M  V30 3055 H 297.661 -3.17194 -2.56616 0
M  V30 3056 H 296.336 -3.83034 -1.62042 0
M  V30 3057 H 294.913 -2.44362 -2.81677 0
M  V30 3058 N 297.098 0.621204 -1.44841 0
M  V30 3059 C 298.03 1.74615 -1.48466 0
M  V30 3060 C 299.043 1.58377 -0.37691 0
M  V30 3061 O 300.232 1.66508 -0.643215 0
M  V30 3062 C 297.332 3.12459 -1.31236 0
M  V30 3063 C 296.505 3.55064 -2.55438 0
M  V30 3064 C 295.564 4.71821 -2.32963 0
M  V30 3065 O 294.59 4.79628 -3.06505 0
M  V30 3066 N 295.792 5.64186 -1.36654 0
M  V30 3067 H 298.557 1.71973 -2.45449 0
M  V30 3068 H 296.118 0.806077 -1.40407 0
M  V30 3069 H 298.11 3.88302 -1.14032 0
M  V30 3070 H 296.68 3.09686 -0.4258 0
M  V30 3071 H 295.9 2.69324 -2.87851 0
M  V30 3072 H 297.188 3.80284 -3.38026 0
M  V30 3073 H 296.586 5.6058 -0.759344 0
M  V30 3074 H 295.143 6.39618 -1.25425 0
M  V30 3075 N 298.576 1.31904 0.862503 0
M  V30 3076 C 299.524 1.20125 1.9918 0
M  V30 3077 C 300.518 0.107824 1.69056 0
M  V30 3078 O 301.724 0.270223 1.7796 0
M  V30 3079 H 298.099 0.372148 0.65346 0
M  V30 3080 H 300.07 2.15652 2.06244 0
M  V30 3081 C 298.819 0.933099 3.34946 0
M  V30 3082 H 298.142 1.76664 3.5865 0
M  V30 3083 H 299.582 0.890892 4.14535 0
M  V30 3084 C 298.041 -0.364172 3.34926 0
M  V30 3085 O 298.571 -1.37858 3.77304 0
M  V30 3086 N 296.777 -0.383362 2.8806 0
M  V30 3087 H 296.324 0.442651 2.53768 0
M  V30 3088 H 296.282 -1.25123 2.8843 0
M  V30 3089 N 300.054 -1.07777 1.14986 0
M  V30 3090 C 301.303 -1.79669 0.916617 0
M  V30 3091 C 301.616 -1.87474 -0.557917 0
M  V30 3092 O 302.822 -2.55845 -0.908617 0
M  V30 3093 C 301.278 -3.22848 1.59051 0
M  V30 3094 C 300.886 -3.23257 3.10176 0
M  V30 3095 C 302.63 -3.99379 1.43864 0
M  V30 3096 C 300.537 -4.61063 3.70372 0
M  V30 3097 H 299.467 -0.673349 0.33929 0
M  V30 3098 H 302.118 -1.21003 1.37951 0
M  V30 3099 H 300.5 -3.8168 1.0553 0
M  V30 3100 H 301.674 -2.74095 3.70417 0
M  V30 3101 H 299.989 -2.60222 3.25074 0
M  V30 3102 H 302.586 -5.0122 1.86232 0
M  V30 3103 H 302.929 -4.14511 0.385564 0
M  V30 3104 H 303.462 -3.47032 1.94457 0
M  V30 3105 H 300.201 -4.51135 4.7556 0
M  V30 3106 H 299.721 -5.1048 3.14913 0
M  V30 3107 H 301.4 -5.30034 3.71043 0
M  V30 3108 N 301.532 -0.945985 -1.26051 0
M  V30 3109 C 302.781 -0.591836 -1.92822 0
M  V30 3110 C 303.094 0.873956 -1.7499 0
M  V30 3111 O 304.3 1.33769 -2.36259 0
M  V30 3112 C 302.756 -1.00776 -3.45503 0
M  V30 3113 C 302.364 -2.4955 -3.7206 0
M  V30 3114 C 304.108 -0.725735 -4.1825 0
M  V30 3115 C 302.015 -2.84988 -5.18205 0
M  V30 3116 H 300.945 -0.217635 -0.721908 0
M  V30 3117 H 303.596 -1.14927 -1.43052 0
M  V30 3118 H 301.978 -0.378812 -3.94184 0
M  V30 3119 H 303.152 -3.1739 -3.34066 0
M  V30 3120 H 301.467 -2.75133 -3.12555 0
M  V30 3121 H 304.064 -0.966771 -5.25887 0
M  V30 3122 H 304.407 0.337639 -4.14929 0
M  V30 3123 H 304.94 -1.31463 -3.7545 0
M  V30 3124 H 301.679 -3.90307 -5.26631 0
M  V30 3125 H 301.199 -2.21813 -5.57278 0
M  V30 3126 H 302.878 -2.73712 -5.86252 0
M  V30 3127 N 303.011 1.40521 -0.713556 0
M  V30 3128 C 304.422 1.83853 -0.324807 0
M  V30 3129 C 304.773 1.59667 1.14021 0
M  V30 3130 O 303.898 1.07649 1.87725 0
M  V30 3131 C 304.493 3.33751 -0.582746 0
M  V30 3132 C 303.052 3.75584 -0.247727 0
M  V30 3133 C 302.199 2.63753 -0.856121 0
M  V30 3134 H 305.15 1.29817 -0.91286 0
M  V30 3135 H 305.171 3.80194 0.152682 0
M  V30 3136 H 304.683 3.51322 -1.64908 0
M  V30 3137 H 302.784 3.63608 0.813624 0
M  V30 3138 H 302.897 4.7373 -0.715307 0
M  V30 3139 H 301.261 2.53108 -0.28432 0
M  V30 3140 H 302.044 2.84137 -1.92668 0
M  V30 3141 N 304.489 0.459591 1.5075 0
M  V30 3142 C 305.714 -0.0996819 2.0716 0
M  V30 3143 C 306.139 -1.33761 1.32249 0
M  V30 3144 O 305.497 -1.77551 0.366786 0
M  V30 3145 C 305.545 -0.378226 3.58611 0
M  V30 3146 O 304.649 -1.46081 3.85661 0
M  V30 3147 H 303.99 0.00791392 0.663953 0
M  V30 3148 H 306.52 0.647329 1.9409 0
M  V30 3149 H 306.53 -0.622135 4.03229 0
M  V30 3150 H 305.205 0.526439 4.12555 0
M  V30 3151 H 303.782 -1.20511 3.5289 0
M  V30 3152 N 305.967 -1.56429 0.191757 0
M  V30 3153 C 307.192 -2.02309 -0.456706 0
M  V30 3154 C 307.617 -1.07103 -1.5463 0
M  V30 3155 O 306.975 -0.0539677 -1.8122 0
M  V30 3156 C 307.023 -3.46654 -0.993159 0
M  V30 3157 O 306.127 -3.54559 -2.10622 0
M  V30 3158 H 305.468 -0.655303 -0.107114 0
M  V30 3159 H 307.998 -2.02364 0.301653 0
M  V30 3160 H 308.008 -3.86377 -1.31061 0
M  V30 3161 H 306.683 -4.1544 -0.195504 0
M  V30 3162 H 305.26 -3.26708 -1.79767 0
M  V30 3163 N 307.445 0.0818655 -1.57387 0
M  V30 3164 C 308.673 0.796108 -1.9097 0
M  V30 3165 C 309.088 1.71626 -0.786757 0
M  V30 3166 O 308.445 1.80908 0.240513 0
M  V30 3167 C 308.496 1.59829 -3.24248 0
M  V30 3168 O 308.217 0.715131 -4.32224 0
M  V30 3169 C 309.718 2.41442 -3.7178 0
M  V30 3170 H 306.938 0.22691 -0.631469 0
M  V30 3171 H 309.482 0.0551439 -2.04426 0
M  V30 3172 H 307.637 2.29163 -3.12351 0
M  V30 3173 H 308.051 1.27205 -5.08841 0
M  V30 3174 H 309.525 2.932 -4.67694 0
M  V30 3175 H 310.002 3.2051 -3.00283 0
M  V30 3176 H 310.608 1.77283 -3.86589 0
M  V30 3177 N 308.923 1.53595 0.353017 0
M  V30 3178 C 310.171 1.70049 1.09215 0
M  V30 3179 C 310.492 0.461406 1.89463 0
M  V30 3180 O 309.762 -0.524633 1.88744 0
M  V30 3181 H 308.342 0.626912 0.40619 0
M  V30 3182 H 311.004 1.90822 0.396585 0
M  V30 3183 H 310.1 2.56718 1.77488 0
M  V30 3184 N 310.401 -0.613514 1.45168 0
M  V30 3185 C 311.364 -1.7065 1.53007 0
M  V30 3186 C 312.364 -1.5548 0.410184 0
M  V30 3187 O 313.554 -1.60656 0.673455 0
M  V30 3188 C 310.686 -3.09875 1.42093 0
M  V30 3189 H 311.879 -1.65068 2.50385 0
M  V30 3190 H 309.432 -0.828728 1.32521 0
M  V30 3191 H 310.167 -3.21039 0.458769 0
M  V30 3192 H 309.952 -3.22293 2.23315 0
M  V30 3193 H 311.442 -3.895 1.50598 0
M  V30 3194 N 311.879 -1.3236 -0.855495 0
M  V30 3195 C 312.842 -1.21164 -1.94556 0
M  V30 3196 C 313.842 -0.134908 -1.60233 0
M  V30 3197 O 315.032 -0.385249 -1.69887 0
M  V30 3198 C 312.164 -0.863192 -3.29791 0
M  V30 3199 H 313.357 -2.18038 -2.05911 0
M  V30 3200 H 310.91 -1.16179 -1.04557 0
M  V30 3201 H 311.645 0.103769 -3.24134 0
M  V30 3202 H 311.43 -1.64166 -3.56078 0
M  V30 3203 H 312.92 -0.809156 -4.09686 0
M  V30 3204 N 313.357 1.07166 -1.15556 0
M  V30 3205 C 314.304 2.14417 -0.854055 0
M  V30 3206 C 315.274 1.64965 0.193806 0
M  V30 3207 O 316.459 1.90703 0.0609443 0
M  V30 3208 C 313.599 3.43304 -0.351574 0
M  V30 3209 C 312.712 4.06537 -1.46123 0
M  V30 3210 C 311.847 5.23266 -0.914677 0
M  V30 3211 C 310.886 5.78464 -2.00114 0
M  V30 3212 N 310.023 6.86521 -1.47083 0
M  V30 3213 H 314.863 2.39548 -1.77259 0
M  V30 3214 H 312.4 1.17543 -0.884425 0
M  V30 3215 H 314.358 4.17179 -0.0419409 0
M  V30 3216 H 312.988 3.18419 0.530037 0
M  V30 3217 H 312.04 3.30297 -1.88701 0
M  V30 3218 H 313.352 4.43567 -2.28144 0
M  V30 3219 H 312.506 6.04131 -0.557698 0
M  V30 3220 H 311.245 4.87658 -0.0636583 0
M  V30 3221 H 310.25 4.96243 -2.36692 0
M  V30 3222 H 311.475 6.16126 -2.85597 0
M  V30 3223 H 309.421 6.52849 -0.642198 0
M  V30 3224 H 309.338 7.22446 -2.22729 0
M  V30 3225 H 310.606 7.71087 -1.14215 0
M  V30 3226 N 314.835 0.952656 1.25548 0
M  V30 3227 C 315.798 0.475794 2.24207 0
M  V30 3228 C 316.798 -0.419428 1.55234 0
M  V30 3229 O 317.988 -0.216994 1.72843 0
M  V30 3230 C 315.12 -0.312814 3.39462 0
M  V30 3231 H 316.313 1.34779 2.67908 0
M  V30 3232 H 313.866 0.735739 1.37901 0
M  V30 3233 H 314.601 -1.20257 3.01179 0
M  V30 3234 H 314.386 0.329404 3.90714 0
M  V30 3235 H 315.876 -0.635986 4.12729 0
M  V30 3236 N 316.313 -1.40141 0.720998 0
M  V30 3237 C 317.559 -2.01084 0.263231 0
M  V30 3238 C 317.892 -1.57052 -1.14229 0
M  V30 3239 O 317.167 -0.793027 -1.77599 0
M  V30 3240 C 317.45 -3.58401 0.349344 0
M  V30 3241 C 317.303 -4.12491 1.79363 0
M  V30 3242 C 318.622 -4.39231 -0.276351 0
M  V30 3243 H 315.741 -0.730572 0.0971228 0
M  V30 3244 H 318.383 -1.66543 0.914518 0
M  V30 3245 H 316.533 -3.87958 -0.205165 0
M  V30 3246 H 318.205 -3.93711 2.40394 0
M  V30 3247 H 316.448 -3.66576 2.31958 0
M  V30 3248 H 317.119 -5.21646 1.80524 0
M  V30 3249 H 319.595 -4.15637 0.196184 0
M  V30 3250 H 318.471 -5.48586 -0.185681 0
M  V30 3251 H 318.732 -4.20643 -1.36059 0
M  V30 3252 N 317.792 -0.46758 -1.50504 0
M  V30 3253 C 319.04 0.0884469 -2.01906 0
M  V30 3254 C 319.361 1.40532 -1.35188 0
M  V30 3255 O 318.631 1.89515 -0.496079 0
M  V30 3256 H 317.211 0.0356765 -0.746148 0
M  V30 3257 H 319.873 -0.6172 -1.84869 0
M  V30 3258 H 318.969 0.2425 -3.11156 0
M  V30 3259 N 319.27 1.56325 -0.20005 0
M  V30 3260 C 320.217 2.1932 0.718833 0
M  V30 3261 C 321.187 1.14198 1.20615 0
M  V30 3262 O 322.372 1.42469 1.26914 0
M  V30 3263 C 319.512 2.86041 1.93066 0
M  V30 3264 C 318.625 4.05702 1.48425 0
M  V30 3265 C 317.76 4.60266 2.65196 0
M  V30 3266 C 316.799 5.72273 2.17185 0
M  V30 3267 N 315.936 6.21221 3.27152 0
M  V30 3268 H 320.776 2.97486 0.17489 0
M  V30 3269 H 318.313 1.46911 0.0745794 0
M  V30 3270 H 320.271 3.22897 2.64184 0
M  V30 3271 H 318.901 2.1043 2.44783 0
M  V30 3272 H 317.953 3.74475 0.668755 0
M  V30 3273 H 319.265 4.86699 1.09204 0
M  V30 3274 H 318.419 4.99453 3.4443 0
M  V30 3275 H 317.158 3.78386 3.07693 0
M  V30 3276 H 316.163 5.3261 1.36407 0
M  V30 3277 H 317.388 6.55974 1.75713 0
M  V30 3278 H 315.334 5.42263 3.69171 0
M  V30 3279 H 315.251 6.97284 2.92116 0
M  V30 3280 H 316.519 6.65063 4.06585 0
M  V30 3281 N 320.748 -0.0735177 1.57428 0
M  V30 3282 C 321.994 -0.774145 1.87443 0
M  V30 3283 C 322.327 -1.77311 0.792103 0
M  V30 3284 O 321.602 -1.93492 -0.197793 0
M  V30 3285 C 321.885 -1.48367 3.28115 0
M  V30 3286 C 321.738 -0.501227 4.46999 0
M  V30 3287 C 323.057 -2.429 3.66998 0
M  V30 3288 H 320.176 -0.279971 0.681752 0
M  V30 3289 H 322.818 -0.0373616 1.89963 0
M  V30 3290 H 320.968 -2.11171 3.26097 0
M  V30 3291 H 322.64 0.121468 4.6114 0
M  V30 3292 H 320.883 0.183593 4.33411 0
M  V30 3293 H 321.554 -1.03526 5.42205 0
M  V30 3294 H 324.03 -1.90175 3.70098 0
M  V30 3295 H 322.906 -2.89549 4.66318 0
M  V30 3296 H 323.167 -3.27628 2.96837 0
M  V30 3297 N 322.226 -1.5378 -0.344866 0
M  V30 3298 C 323.156 -1.84662 -1.42906 0
M  V30 3299 C 324.137 -0.701648 -1.54955 0
M  V30 3300 O 325.322 -0.953438 -1.69184 0
M  V30 3301 C 322.452 -2.05503 -2.79974 0
M  V30 3302 C 321.406 -3.21318 -2.82734 0
M  V30 3303 C 320.732 -3.2749 -4.22675 0
M  V30 3304 C 322.032 -4.59456 -2.48389 0
M  V30 3305 H 323.726 -2.75461 -1.17311 0
M  V30 3306 H 321.272 -1.32542 -0.562896 0
M  V30 3307 H 323.225 -2.25691 -3.55867 0
M  V30 3308 H 321.949 -1.11434 -3.07002 0
M  V30 3309 H 320.608 -3.00984 -2.09294 0
M  V30 3310 H 320.256 -2.31019 -4.4681 0
M  V30 3311 H 319.956 -4.05316 -4.25433 0
M  V30 3312 H 321.48 -3.49887 -5.00412 0
M  V30 3313 H 322.894 -4.79667 -3.13995 0
M  V30 3314 H 321.291 -5.39675 -2.62432 0
M  V30 3315 H 322.361 -4.63155 -1.4358 0
M  V30 3316 N 323.704 0.605807 -1.45491 0
M  V30 3317 C 325.115 1.18777 -1.44045 0
M  V30 3318 C 325.466 1.95471 -0.169001 0
M  V30 3319 O 324.591 2.0374 0.729324 0
M  V30 3320 C 325.186 2.16064 -2.60963 0
M  V30 3321 C 323.745 2.69633 -2.62631 0
M  V30 3322 C 322.892 1.45072 -2.36325 0
M  V30 3323 H 325.843 0.395017 -1.53705 0
M  V30 3324 H 325.864 2.9913 -2.35163 0
M  V30 3325 H 325.376 1.60217 -3.53486 0
M  V30 3326 H 323.477 3.29414 -1.74119 0
M  V30 3327 H 323.59 3.13944 -3.61906 0
M  V30 3328 H 321.954 1.74089 -1.85917 0
M  V30 3329 H 322.737 0.910899 -3.30995 0
M  V30 3330 N 325.182 1.32811 0.848464 0
M  V30 3331 C 326.092 1.24278 1.98978 0
M  V30 3332 C 327.108 0.155176 1.73307 0
M  V30 3333 O 328.284 0.376999 1.9784 0
M  V30 3334 C 325.349 0.972444 3.32783 0
M  V30 3335 C 324.41 2.14911 3.71634 0
M  V30 3336 C 323.643 1.89157 4.99054 0
M  V30 3337 O 323.866 0.837165 5.64223 0
M  V30 3338 O 322.8 2.75433 5.35183 0
M  V30 3339 H 326.626 2.20238 2.09115 0
M  V30 3340 H 324.211 1.12762 0.980052 0
M  V30 3341 H 326.093 0.838432 4.12975 0
M  V30 3342 H 324.768 0.043051 3.23671 0
M  V30 3343 H 323.675 2.33862 2.91992 0
M  V30 3344 H 325.008 3.06151 3.85399 0
M  V30 3345 N 326.66 -1.06551 1.16123 0
M  V30 3346 C 327.59 -2.15935 0.88851 0
M  V30 3347 C 328.571 -1.69306 -0.164135 0
M  V30 3348 O 329.756 -1.94193 -0.0167857 0
M  V30 3349 C 326.886 -3.45149 0.385942 0
M  V30 3350 C 325.84 -4.05271 1.3762 0
M  V30 3351 C 325.166 -5.29664 0.732137 0
M  V30 3352 C 326.466 -4.44355 2.74493 0
M  V30 3353 H 328.16 -2.39006 1.80323 0
M  V30 3354 H 325.706 -1.14866 0.868435 0
M  V30 3355 H 327.659 -4.21004 0.182647 0
M  V30 3356 H 326.383 -3.21689 -0.564274 0
M  V30 3357 H 325.042 -3.3147 1.56599 0
M  V30 3358 H 324.69 -5.02499 -0.224483 0
M  V30 3359 H 324.39 -5.70848 1.39307 0
M  V30 3360 H 325.914 -6.08218 0.538802 0
M  V30 3361 H 327.328 -5.11303 2.59311 0
M  V30 3362 H 325.725 -4.96515 3.37035 0
M  V30 3363 H 326.795 -3.55339 3.29943 0
M  V30 3364 N 328.138 -0.959301 -1.25041 0
M  V30 3365 C 329.086 -0.474437 -2.2771 0
M  V30 3366 C 330.08 0.457697 -1.631 0
M  V30 3367 O 331.286 0.333912 -1.76876 0
M  V30 3368 H 327.661 -0.134936 -0.739795 0
M  V30 3369 H 329.632 -1.35251 -2.65988 0
M  V30 3370 C 328.381 0.227884 -3.46952 0
M  V30 3371 H 327.704 -0.480248 -3.96905 0
M  V30 3372 H 329.144 0.531091 -4.20661 0
M  V30 3373 C 327.603 1.452 -3.04004 0
M  V30 3374 O 328.133 2.54949 -3.10426 0
M  V30 3375 N 326.339 1.31502 -2.59144 0
M  V30 3376 H 325.886 0.422065 -2.54119 0
M  V30 3377 H 325.844 2.13521 -2.30773 0
M  V30 3378 N 329.616 1.39756 -0.72842 0
M  V30 3379 C 330.864 2.00248 -0.272946 0
M  V30 3380 C 331.185 1.58077 1.14178 0
M  V30 3381 O 330.455 0.826014 1.77634 0
M  V30 3382 H 329.035 0.740554 -0.0979247 0
M  V30 3383 H 331.697 1.70903 -0.936912 0
M  V30 3384 H 330.793 3.10495 -0.316142 0
M  V30 3385 N 331.094 0.475555 1.50254 0
M  V30 3386 C 332.041 -0.316293 2.28622 0
M  V30 3387 C 333.011 -0.983227 1.33873 0
M  V30 3388 O 334.196 -0.994805 1.62814 0
M  V30 3389 C 331.336 -1.38975 3.1588 0
M  V30 3390 C 330.449 -0.737146 4.25664 0
M  V30 3391 C 329.584 -1.78887 5.00173 0
M  V30 3392 C 328.623 -1.11676 6.01826 0
M  V30 3393 N 327.76 -2.11154 6.69596 0
M  V30 3394 H 332.6 0.358297 2.95838 0
M  V30 3395 H 330.137 0.188541 1.45887 0
M  V30 3396 H 332.095 -2.02383 3.64825 0
M  V30 3397 H 330.725 -2.03344 2.50701 0
M  V30 3398 H 329.777 0.0096065 3.80399 0
M  V30 3399 H 331.089 -0.206816 4.98371 0
M  V30 3400 H 330.243 -2.49865 5.52859 0
M  V30 3401 H 328.982 -2.35302 4.27182 0
M  V30 3402 H 327.987 -0.392633 5.48396 0
M  V30 3403 H 329.212 -0.55945 6.76792 0
M  V30 3404 H 327.158 -2.66577 5.99394 0
M  V30 3405 H 327.075 -1.63118 7.38193 0
M  V30 3406 H 328.343 -2.81497 7.26897 0
M  V30 3407 N 332.573 -1.56217 0.208337 0
M  V30 3408 C 333.503 -2.22694 -0.702116 0
M  V30 3409 C 334.484 -1.19432 -1.2112 0
M  V30 3410 O 335.669 -1.47978 -1.25762 0
M  V30 3411 C 332.799 -2.8966 -1.9161 0
M  V30 3412 C 331.753 -3.9928 -1.5414 0
M  V30 3413 C 331.079 -4.53476 -2.83308 0
M  V30 3414 C 332.379 -5.17012 -0.741339 0
M  V30 3415 H 334.073 -2.99034 -0.147898 0
M  V30 3416 H 331.619 -1.43831 -0.0696951 0
M  V30 3417 H 333.572 -3.34852 -2.55836 0
M  V30 3418 H 332.296 -2.10746 -2.49507 0
M  V30 3419 H 330.955 -3.54799 -0.922668 0
M  V30 3420 H 330.603 -3.71308 -3.39322 0
M  V30 3421 H 330.303 -5.27451 -2.58976 0
M  V30 3422 H 331.827 -5.01378 -3.485 0
M  V30 3423 H 333.241 -5.58667 -1.28699 0
M  V30 3424 H 331.638 -5.97137 -0.595627 0
M  V30 3425 H 332.708 -4.8423 0.254851 0
M  V30 3426 N 334.051 0.0651679 -1.57465 0
M  V30 3427 C 335.279 0.775808 -1.91804 0
M  V30 3428 C 335.694 1.70782 -0.804916 0
M  V30 3429 O 335.051 1.81153 0.221311 0
M  V30 3430 C 335.102 1.56381 -3.25925 0
M  V30 3431 O 334.823 0.669248 -4.32958 0
M  V30 3432 C 336.324 2.37485 -3.7432 0
M  V30 3433 H 333.544 0.2202 -0.63384 0
M  V30 3434 H 336.088 0.0334587 -2.04473 0
M  V30 3435 H 334.243 2.25837 -3.14764 0
M  V30 3436 H 334.657 1.21801 -5.10162 0
M  V30 3437 H 336.131 2.88223 -4.70778 0
M  V30 3438 H 336.608 3.17307 -3.03666 0
M  V30 3439 H 337.214 1.73173 -3.88447 0
M  V30 3440 N 335.529 1.53961 0.336706 0
M  V30 3441 C 336.777 1.71197 1.07405 0
M  V30 3442 C 337.098 0.481475 1.88962 0
M  V30 3443 O 336.368 -0.504585 1.8929 0
M  V30 3444 H 334.948 0.631185 0.399517 0
M  V30 3445 H 337.61 1.91232 0.376323 0
M  V30 3446 H 336.706 2.58587 1.74755 0
M  V30 3447 N 337.007 -0.598083 1.45811 0
M  V30 3448 C 337.94 -1.7223 1.49706 0
M  V30 3449 C 338.918 -1.58732 0.352535 0
M  V30 3450 O 340.102 -1.80162 0.554438 0
M  V30 3451 C 337.229 -3.10148 1.3611 0
M  V30 3452 C 336.275 -3.42209 2.54549 0
M  V30 3453 S 337.108 -3.35989 4.16979 0
M  V30 3454 C 338.264 -4.76471 4.05865 0
M  V30 3455 H 338.497 -1.68665 2.44826 0
M  V30 3456 H 336.03 -0.775541 1.33509 0
M  V30 3457 H 337.988 -3.8972 1.28953 0
M  V30 3458 H 336.649 -3.11219 0.424451 0
M  V30 3459 H 335.842 -4.42652 2.40988 0
M  V30 3460 H 335.444 -2.70173 2.58617 0
M  V30 3461 H 337.736 -5.665 3.71596 0
M  V30 3462 H 338.679 -4.95089 5.06253 0
M  V30 3463 H 339.087 -4.52599 3.37364 0
M  V30 3464 N 338.485 -1.33259 -0.841409 0
M  V30 3465 C 339.448 -1.23221 -1.9326 0
M  V30 3466 C 340.448 -0.151895 -1.60081 0
M  V30 3467 O 341.638 -0.403246 -1.69468 0
M  V30 3468 C 338.77 -0.898123 -3.28856 0
M  V30 3469 H 339.963 -2.2021 -2.03587 0
M  V30 3470 H 337.516 -1.17281 -1.03319 0
M  V30 3471 H 338.251 0.0693841 -3.24226 0
M  V30 3472 H 338.036 -1.67934 -3.54317 0
M  V30 3473 H 339.526 -0.852563 -4.08805 0
M  V30 3474 N 339.963 1.05934 -1.16686 0
M  V30 3475 C 341.21 1.788 -0.950622 0
M  V30 3476 C 341.538 1.87384 0.521305 0
M  V30 3477 O 340.793 1.36438 1.40297 0
M  V30 3478 C 341.092 3.23105 -1.52767 0
M  V30 3479 C 340.758 3.34594 -3.02254 0
M  V30 3480 C 339.42 3.37437 -3.43059 0
M  V30 3481 C 341.772 3.36219 -3.98254 0
M  V30 3482 C 339.1 3.39525 -4.78477 0
M  V30 3483 C 341.452 3.39845 -5.33562 0
M  V30 3484 C 340.116 3.40971 -5.73842 0
M  V30 3485 H 339.386 0.654275 -0.347857 0
M  V30 3486 H 342.033 1.24555 -1.45459 0
M  V30 3487 H 340.338 3.80227 -0.94524 0
M  V30 3488 H 342.035 3.7809 -1.336 0
M  V30 3489 H 338.625 3.3309 -2.6972 0
M  V30 3490 H 342.809 3.33231 -3.67792 0
M  V30 3491 H 338.065 3.38703 -5.09009 0
M  V30 3492 H 342.239 3.4005 -6.07733 0
M  V30 3493 H 339.866 3.42342 -6.78753 0
M  V30 3494 N 341.441 0.965919 1.2453 0
M  V30 3495 C 342.857 0.67216 1.44756 0
M  V30 3496 C 343.057 -0.766609 1.86347 0
M  V30 3497 O 342.113 -1.5407 2.00047 0
M  V30 3498 C 343.426 1.65473 2.51076 0
M  V30 3499 C 344.974 1.66716 2.64905 0
M  V30 3500 C 345.449 2.63766 3.74421 0
M  V30 3501 N 346.94 2.62198 3.81846 0
M  V30 3502 C 347.675 3.33966 4.66106 0
M  V30 3503 N 347.171 4.15245 5.54566 0
M  V30 3504 N 348.964 3.22799 4.60171 0
M  V30 3505 H 341.115 1.89553 0.958293 0
M  V30 3506 H 343.378 0.815979 0.482579 0
M  V30 3507 H 343.084 2.68296 2.27399 0
M  V30 3508 H 342.958 1.4261 3.49202 0
M  V30 3509 H 345.345 0.646057 2.87941 0
M  V30 3510 H 345.426 1.93642 1.67142 0
M  V30 3511 H 345.07 3.6601 3.52135 0
M  V30 3512 H 345 2.34121 4.71694 0
M  V30 3513 H 347.491 2.032 3.18619 0
M  V30 3514 H 347.804 4.66898 6.15814 0
M  V30 3515 H 346.149 4.1934 5.54237 0
M  V30 3516 H 349.34 2.58764 3.90075 0
M  V30 3517 H 349.513 3.78994 5.25612 0
M  V30 3518 N 342.919 -1.39368 0.735821 0
M  V30 3519 C 344.165 -2.00794 0.284544 0
M  V30 3520 C 344.498 -1.58255 -1.12557 0
M  V30 3521 O 343.773 -0.811819 -1.76748 0
M  V30 3522 C 344.056 -3.58011 0.387337 0
M  V30 3523 C 343.909 -4.10566 1.83728 0
M  V30 3524 C 345.228 -4.395 -0.22975 0
M  V30 3525 H 342.347 -0.729501 0.104866 0
M  V30 3526 H 344.989 -1.65564 0.93213 0
M  V30 3527 H 343.139 -3.88154 -0.164006 0
M  V30 3528 H 344.811 -3.91139 2.44556 0
M  V30 3529 H 343.054 -3.64095 2.35833 0
M  V30 3530 H 343.725 -5.19702 1.86047 0
M  V30 3531 H 346.201 -4.15406 0.240257 0
M  V30 3532 H 345.077 -5.48752 -0.127485 0
M  V30 3533 H 345.338 -4.22062 -1.3159 0
M  V30 3534 N 344.397 -0.483516 -1.5 0
M  V30 3535 C 345.808 -0.0314176 -1.86674 0
M  V30 3536 C 346.159 1.37728 -1.39733 0
M  V30 3537 O 345.284 2.02327 -0.767635 0
M  V30 3538 C 345.879 -0.0502376 -3.38763 0
M  V30 3539 C 344.438 0.346442 -3.74802 0
M  V30 3540 C 343.585 -0.430366 -2.7394 0
M  V30 3541 H 346.536 -0.697182 -1.42566 0
M  V30 3542 H 346.557 0.749116 -3.73053 0
M  V30 3543 H 346.069 -1.07563 -3.72897 0
M  V30 3544 H 344.17 1.37572 -3.46273 0
M  V30 3545 H 344.283 0.0391486 -4.79084 0
M  V30 3546 H 342.647 0.117557 -2.54429 0
M  V30 3547 H 343.43 -1.4555 -3.10918 0
M  V30 3548 N 345.875 1.56104 -0.216619 0
M  V30 3549 C 347.103 2.02563 0.421413 0
M  V30 3550 C 347.518 1.0965 1.53695 0
M  V30 3551 O 346.875 0.10521 1.82196 0
M  V30 3552 C 346.926 3.48584 0.957665 0
M  V30 3553 O 346.647 4.37953 -0.113389 0
M  V30 3554 C 348.148 4.10664 1.66943 0
M  V30 3555 H 345.368 0.662944 0.103665 0
M  V30 3556 H 347.912 2.01793 -0.331629 0
M  V30 3557 H 346.067 3.49985 1.661 0
M  V30 3558 H 346.481 5.23704 0.288932 0
M  V30 3559 H 347.955 5.14622 1.99671 0
M  V30 3560 H 348.432 3.55373 2.58083 0
M  V30 3561 H 349.038 4.13098 1.01142 0
M  V30 3562 N 347.353 -0.0568162 1.57498 0
M  V30 3563 C 348.764 -0.606858 1.76562 0
M  V30 3564 C 349.115 -1.77114 0.844094 0
M  V30 3565 O 348.24 -2.16376 0.0318911 0
M  V30 3566 C 348.835 -1.10766 3.20182 0
M  V30 3567 C 347.394 -1.60344 3.40539 0
M  V30 3568 C 346.541 -0.529311 2.72201 0
M  V30 3569 H 349.492 0.169393 1.57793 0
M  V30 3570 H 349.513 -1.97602 3.25167 0
M  V30 3571 H 349.025 -0.26006 3.87228 0
M  V30 3572 H 347.126 -2.47379 2.78629 0
M  V30 3573 H 347.239 -1.67006 4.4905 0
M  V30 3574 H 345.603 -0.977893 2.35179 0
M  V30 3575 H 346.386 0.308352 3.41912 0
M  V30 3576 N 348.832 -1.54138 -0.328536 0
M  V30 3577 C 349.78 -1.83894 -1.42428 0
M  V30 3578 C 350.774 -0.710478 -1.53781 0
M  V30 3579 O 351.98 -0.894062 -1.56226 0
M  V30 3580 H 348.355 -0.582837 -0.475189 0
M  V30 3581 H 350.326 -2.75537 -1.14552 0
M  V30 3582 C 349.075 -2.07866 -2.78724 0
M  V30 3583 H 348.398 -2.94158 -2.7076 0
M  V30 3584 H 349.838 -2.32644 -3.54476 0
M  V30 3585 C 348.297 -0.868689 -3.25508 0
M  V30 3586 O 348.827 -0.0754908 -4.01629 0
M  V30 3587 N 347.033 -0.681711 -2.82491 0
M  V30 3588 H 346.58 -1.32838 -2.20708 0
M  V30 3589 H 346.538 0.126374 -3.14146 0
M  V30 3590 N 350.31 0.590341 -1.46126 0
M  V30 3591 C 351.556 1.35082 -1.51264 0
M  V30 3592 C 351.889 1.93534 -0.160711 0
M  V30 3593 O 351.164 1.76045 0.826956 0
M  V30 3594 C 351.447 2.48588 -2.6053 0
M  V30 3595 C 351.3 1.95221 -4.05227 0
M  V30 3596 C 352.619 3.50662 -2.6594 0
M  V30 3597 H 349.738 0.489803 -0.550692 0
M  V30 3598 H 352.38 0.663887 -1.78024 0
M  V30 3599 H 350.53 3.07186 -2.37843 0
M  V30 3600 H 352.202 1.41139 -4.39178 0
M  V30 3601 H 350.445 1.26101 -4.15068 0
M  V30 3602 H 351.116 2.77121 -4.77397 0
M  V30 3603 H 353.592 3.01934 -2.86313 0
M  V30 3604 H 352.468 4.27551 -3.44226 0
M  V30 3605 H 352.729 4.07399 -1.71694 0
M  V30 3606 N 351.788 1.33704 0.83433 0
M  V30 3607 C 353.013 1.28615 1.62705 0
M  V30 3608 C 353.438 -0.139242 1.87584 0
M  V30 3609 O 352.796 -1.09734 1.4432 0
M  V30 3610 C 352.844 2.07139 2.95171 0
M  V30 3611 O 351.948 1.4331 3.86699 0
M  V30 3612 H 351.289 0.44226 0.49528 0
M  V30 3613 H 353.819 1.76335 1.03766 0
M  V30 3614 H 353.829 2.18073 3.44831 0
M  V30 3615 H 352.504 3.10779 2.76386 0
M  V30 3616 H 351.081 1.4105 3.45195 0
M  V30 3617 N 353.266 -1.05314 1.17247 0
M  V30 3618 C 354.512 -1.78557 0.961513 0
M  V30 3619 C 354.845 -1.87419 -0.508697 0
M  V30 3620 O 354.12 -1.37307 -1.37757 0
M  V30 3621 C 354.403 -3.22514 1.60176 0
M  V30 3622 C 354.256 -3.21673 3.14399 0
M  V30 3623 C 355.575 -4.20318 1.30463 0
M  V30 3624 H 352.694 -0.6482 0.350723 0
M  V30 3625 H 355.336 -1.23102 1.44727 0
M  V30 3626 H 353.486 -3.69867 1.18871 0
M  V30 3627 H 355.158 -2.82405 3.64753 0
M  V30 3628 H 353.401 -2.60048 3.47214 0
M  V30 3629 H 354.072 -4.23271 3.54324 0
M  V30 3630 H 356.548 -3.81454 1.66229 0
M  V30 3631 H 355.424 -5.19289 1.77848 0
M  V30 3632 H 355.685 -4.41526 0.22521 0
M  V30 3633 N 354.744 -0.972509 -1.24016 0
M  V30 3634 C 355.99 -0.637978 -1.92504 0
M  V30 3635 C 356.323 0.825383 -1.75787 0
M  V30 3636 O 355.598 1.59442 -1.11393 0
M  V30 3637 C 355.881 -1.01942 -3.45369 0
M  V30 3638 C 355.734 -2.53983 -3.71231 0
M  V30 3639 C 357.053 -0.55751 -4.36555 0
M  V30 3640 H 354.172 -0.233248 -0.699117 0
M  V30 3641 H 356.814 -1.21238 -1.46292 0
M  V30 3642 H 354.964 -0.530656 -3.84859 0
M  V30 3643 H 356.636 -3.10374 -3.41271 0
M  V30 3644 H 354.879 -2.96968 -3.16216 0
M  V30 3645 H 355.55 -2.75723 -4.78206 0
M  V30 3646 H 358.026 -0.977029 -4.04467 0
M  V30 3647 H 356.902 -0.85292 -5.42233 0
M  V30 3648 H 357.163 0.542328 -4.38761 0
M  V30 3649 N 356.222 1.38976 -0.743202 0
M  V30 3650 C 357.499 1.94351 -0.220705 0
M  V30 3651 C 357.879 1.67935 1.2791 0
M  V30 3652 O 357.227 1.01211 2.04862 0
M  V30 3653 C 357.437 3.44426 -0.563171 0
M  V30 3654 C 358.785 4.2144 -0.517046 0
M  V30 3655 O 359.809 3.52661 -0.500846 0
M  V30 3656 O 358.668 5.44032 -0.518806 0
M  V30 3657 H 355.762 0.825879 -0.043047 0
M  V30 3658 H 358.308 1.48429 -0.822618 0
M  V30 3659 H 357.08 3.5712 -1.59941 0
M  V30 3660 H 356.703 3.97543 0.0672883 0
M  V30 3661 N 357.7 0.491464 1.49741 0
M  V30 3662 C 358.63 -0.28154 2.31796 0
M  V30 3663 C 359.611 -0.971473 1.3963 0
M  V30 3664 O 360.796 -0.964719 1.68543 0
M  V30 3665 C 357.926 -1.35203 3.19902 0
M  V30 3666 C 356.88 -0.782529 4.20786 0
M  V30 3667 C 356.206 -1.95283 4.97764 0
M  V30 3668 C 357.506 0.21999 5.21837 0
M  V30 3669 H 359.2 0.403355 2.96671 0
M  V30 3670 H 356.746 0.195425 1.42668 0
M  V30 3671 H 358.699 -1.90045 3.76113 0
M  V30 3672 H 357.423 -2.06598 2.52953 0
M  V30 3673 H 356.082 -0.255928 3.65706 0
M  V30 3674 H 355.73 -2.65423 4.2727 0
M  V30 3675 H 355.43 -1.57789 5.66018 0
M  V30 3676 H 356.954 -2.50577 5.56816 0
M  V30 3677 H 358.368 -0.23996 5.72798 0
M  V30 3678 H 356.765 0.51026 5.97927 0
M  V30 3679 H 357.835 1.13911 4.7133 0
M  V30 3680 N 359.178 -1.55987 0.224894 0
M  V30 3681 C 360.406 -2.02784 -0.410665 0
M  V30 3682 C 360.821 -1.10464 -1.53112 0
M  V30 3683 O 360.178 -0.114871 -1.82138 0
M  V30 3684 C 360.229 -3.49087 -0.939165 0
M  V30 3685 O 359.95 -4.37887 0.136614 0
M  V30 3686 C 361.451 -4.11543 -1.64763 0
M  V30 3687 H 358.671 -0.663484 -0.100148 0
M  V30 3688 H 361.215 -2.01614 0.342326 0
M  V30 3689 H 359.37 -3.50861 -1.64242 0
M  V30 3690 H 359.784 -5.23849 -0.261155 0
M  V30 3691 H 361.258 -5.15673 -1.96939 0
M  V30 3692 H 361.735 -3.56736 -2.56195 0
M  V30 3693 H 362.341 -4.13629 -0.989503 0
M  V30 3694 N 360.656 0.0484629 -1.57525 0
M  V30 3695 C 361.902 0.744226 -1.88651 0
M  V30 3696 C 362.235 1.76029 -0.820212 0
M  V30 3697 O 361.51 1.93782 0.166985 0
M  V30 3698 C 361.793 1.43128 -3.30434 0
M  V30 3699 C 361.646 0.43005 -4.47739 0
M  V30 3700 C 362.965 2.37031 -3.70816 0
M  V30 3701 H 360.084 0.269089 -0.68612 0
M  V30 3702 H 362.726 0.00713532 -1.89999 0
M  V30 3703 H 360.876 2.05956 -3.29415 0
M  V30 3704 H 362.548 -0.194816 -4.60888 0
M  V30 3705 H 360.791 -0.252522 -4.33064 0
M  V30 3706 H 361.462 0.948874 -5.43783 0
M  V30 3707 H 363.938 1.84263 -3.73077 0
M  V30 3708 H 362.814 2.82094 -4.70865 0
M  V30 3709 H 363.075 3.22864 -3.02012 0
M  V30 3710 N 362.134 1.5431 0.320358 0
M  V30 3711 C 363.55 1.45091 0.664889 0
M  V30 3712 C 363.75 0.626382 1.91517 0
M  V30 3713 O 362.806 0.126443 2.52183 0
M  V30 3714 C 364.119 2.88848 0.83591 0
M  V30 3715 C 365.667 2.9877 0.933046 0
M  V30 3716 C 366.142 4.43683 1.13621 0
M  V30 3717 N 367.633 4.47309 1.20287 0
M  V30 3718 C 368.368 5.56595 1.37801 0
M  V30 3719 N 367.864 6.75844 1.52338 0
M  V30 3720 N 369.657 5.44248 1.40535 0
M  V30 3721 H 361.808 2.06398 -0.501374 0
M  V30 3722 H 364.071 0.933963 -0.162534 0
M  V30 3723 H 363.777 3.51698 -0.0116092 0
M  V30 3724 H 363.651 3.35148 1.73078 0
M  V30 3725 H 366.038 2.36045 1.77107 0
M  V30 3726 H 366.119 2.55796 0.0145782 0
M  V30 3727 H 365.763 5.06995 0.303032 0
M  V30 3728 H 365.693 4.84269 2.0686 0
M  V30 3729 H 368.184 3.61388 1.10485 0
M  V30 3730 H 368.497 7.54892 1.65403 0
M  V30 3731 H 366.842 6.78746 1.4943 0
M  V30 3732 H 370.033 4.50038 1.28777 0
M  V30 3733 H 370.206 6.29473 1.53842 0
M  V30 3734 N 363.613 -0.582584 1.46437 0
M  V30 3735 C 364.543 -1.70187 1.59871 0
M  V30 3736 C 365.524 -1.64066 0.449042 0
M  V30 3737 O 366.709 -1.82081 0.6753 0
M  V30 3738 C 363.839 -3.08827 1.58881 0
M  V30 3739 C 362.793 -3.29779 2.72819 0
M  V30 3740 C 362.119 -4.68947 2.5689 0
M  V30 3741 C 363.419 -3.17601 4.1464 0
M  V30 3742 H 365.113 -1.592 2.53566 0
M  V30 3743 H 362.659 -0.764472 1.22032 0
M  V30 3744 H 364.612 -3.86951 1.66873 0
M  V30 3745 H 363.336 -3.20713 0.617306 0
M  V30 3746 H 361.995 -2.54054 2.64296 0
M  V30 3747 H 361.643 -4.77599 1.57823 0
M  V30 3748 H 361.343 -4.83919 3.33312 0
M  V30 3749 H 362.867 -5.4924 2.66773 0
M  V30 3750 H 364.281 -3.8557 4.24274 0
M  V30 3751 H 362.678 -3.44094 4.9165 0
M  V30 3752 H 363.748 -2.14681 4.34788 0
M  V30 3753 N 365.091 -1.34144 -0.827227 0
M  V30 3754 C 366.001 -1.27428 -1.96975 0
M  V30 3755 C 367.017 -0.182728 -1.73038 0
M  V30 3756 O 368.193 -0.408426 -1.97215 0
M  V30 3757 C 365.258 -1.02526 -3.31194 0
M  V30 3758 C 364.319 -2.20796 -3.68168 0
M  V30 3759 C 363.552 -1.97073 -4.95982 0
M  V30 3760 O 363.775 -0.926822 -5.6282 0
M  V30 3761 O 362.709 -2.83912 -5.30733 0
M  V30 3762 H 366.535 -2.23537 -2.05584 0
M  V30 3763 H 364.12 -1.14307 -0.961989 0
M  V30 3764 H 366.002 -0.904026 -4.11589 0
M  V30 3765 H 364.677 -0.0945389 -3.23562 0
M  V30 3766 H 363.584 -2.38477 -2.88235 0
M  V30 3767 H 364.917 -3.12243 -3.8048 0
M  V30 3768 N 366.569 1.04691 -1.17803 0
M  V30 3769 C 367.516 2.12557 -0.899343 0
M  V30 3770 C 368.486 1.65339 0.158771 0
M  V30 3771 O 369.671 1.90789 0.0204797 0
M  V30 3772 C 366.811 3.42481 -0.424315 0
M  V30 3773 C 365.924 4.03346 -1.54713 0
M  V30 3774 C 365.059 5.21208 -1.02546 0
M  V30 3775 C 364.098 5.74089 -2.12339 0
M  V30 3776 N 363.235 6.83247 -1.61612 0
M  V30 3777 H 368.075 2.35734 -1.823 0
M  V30 3778 H 365.612 1.1564 -0.909159 0
M  V30 3779 H 367.57 4.16996 -0.130421 0
M  V30 3780 H 366.2 3.19471 0.462377 0
M  V30 3781 H 365.252 3.2622 -1.95664 0
M  V30 3782 H 366.564 4.38628 -2.37501 0
M  V30 3783 H 365.718 6.02812 -0.685718 0
M  V30 3784 H 364.457 4.87414 -0.167084 0
M  V30 3785 H 363.462 4.91111 -2.47165 0
M  V30 3786 H 364.687 6.0993 -2.98601 0
M  V30 3787 H 362.633 6.5134 -0.780533 0
M  V30 3788 H 362.55 7.17559 -2.38003 0
M  V30 3789 H 363.818 7.68491 -1.30545 0
M  V30 3790 N 368.047 0.979072 1.23499 0
M  V30 3791 C 369.01 0.523244 2.23147 0
M  V30 3792 C 370.01 -0.386406 1.56088 0
M  V30 3793 O 371.2 -0.180283 1.73265 0
M  V30 3794 C 368.332 -0.240739 3.40049 0
M  V30 3795 H 369.525 1.40432 2.64989 0
M  V30 3796 H 367.078 0.764824 1.36309 0
M  V30 3797 H 367.813 -1.13841 3.03662 0
M  V30 3798 H 367.598 0.412207 3.89927 0
M  V30 3799 H 369.088 -0.548297 4.13985 0
M  V30 3800 N 369.525 -1.3858 0.750561 0
M  V30 3801 C 370.488 -2.28836 0.129152 0
M  V30 3802 C 371.488 -1.47045 -0.650714 0
M  V30 3803 O 372.678 -1.6753 -0.477428 0
M  V30 3804 C 369.81 -3.30751 -0.825622 0
M  V30 3805 H 371.003 -2.85294 0.924516 0
M  V30 3806 H 368.556 -1.47489 0.517376 0
M  V30 3807 H 369.291 -2.79378 -1.64677 0
M  V30 3808 H 369.076 -3.91177 -0.268852 0
M  V30 3809 H 370.566 -3.98249 -1.2565 0
M  V30 3810 N 371.003 -0.499398 -1.49478 0
M  V30 3811 C 372.231 0.0425456 -2.06856 0
M  V30 3812 C 372.646 1.30964 -1.35992 0
M  V30 3813 O 372.003 1.77172 -0.437762 0
M  V30 3814 C 372.054 0.301735 -3.60239 0
M  V30 3815 O 371.775 -0.915127 -4.28436 0
M  V30 3816 C 373.276 0.887499 -4.34325 0
M  V30 3817 H 370.496 -0.0197482 -0.670709 0
M  V30 3818 H 373.04 -0.696297 -1.92281 0
M  V30 3819 H 371.195 0.990556 -3.74522 0
M  V30 3820 H 371.609 -0.676993 -5.20113 0
M  V30 3821 H 373.083 1.01845 -5.42523 0
M  V30 3822 H 373.56 1.88488 -3.96698 0
M  V30 3823 H 374.166 0.236196 -4.24644 0
M  V30 3824 N 372.481 1.55866 -0.233164 0
M  V30 3825 C 373.711 2.02704 0.399325 0
M  V30 3826 C 374.119 1.11204 1.53069 0
M  V30 3827 O 373.462 0.116182 1.83332 0
M  V30 3828 C 373.524 3.45844 0.981429 0
M  V30 3829 C 373.188 4.56997 -0.0159561 0
M  V30 3830 C 374.185 5.13384 -0.820552 0
M  V30 3831 C 371.87 5.0211 -0.138072 0
M  V30 3832 C 373.864 6.13365 -1.73386 0
M  V30 3833 C 371.551 6.01926 -1.0549 0
M  V30 3834 C 372.549 6.57431 -1.85132 0
M  V30 3835 O 372.237 7.55302 -2.75272 0
M  V30 3836 H 371.969 0.668459 0.100692 0
M  V30 3837 H 374.523 2.02387 -0.35052 0
M  V30 3838 H 372.753 3.43267 1.78058 0
M  V30 3839 H 374.442 3.76262 1.52255 0
M  V30 3840 H 375.208 4.79372 -0.736721 0
M  V30 3841 H 371.087 4.5858 0.471737 0
M  V30 3842 H 374.631 6.56614 -2.35592 0
M  V30 3843 H 370.528 6.35359 -1.1397 0
M  V30 3844 H 371.296 7.72867 -2.69477 0
M  V30 3845 N 373.959 -0.0401083 1.57549 0
M  V30 3846 C 374.869 -1.06133 2.0922 0
M  V30 3847 C 375.885 -1.40356 1.0284 0
M  V30 3848 O 377.061 -1.49897 1.34509 0
M  V30 3849 C 374.126 -2.34658 2.55218 0
M  V30 3850 C 373.187 -2.07117 3.76033 0
M  V30 3851 C 372.42 -3.29514 4.19829 0
M  V30 3852 O 372.643 -4.39794 3.63232 0
M  V30 3853 O 371.577 -3.15863 5.12362 0
M  V30 3854 H 375.403 -0.652244 2.96613 0
M  V30 3855 H 372.988 -0.256368 1.47184 0
M  V30 3856 H 374.87 -3.10239 2.85184 0
M  V30 3857 H 373.545 -2.74883 1.70941 0
M  V30 3858 H 372.452 -1.29139 3.51104 0
M  V30 3859 H 373.785 -1.71754 4.61261 0
M  V30 3860 N 375.437 -1.54477 -0.31217 0
M  V30 3861 C 376.369 -1.81011 -1.40598 0
M  V30 3862 C 377.382 -0.692546 -1.47335 0
M  V30 3863 O 378.571 -0.969847 -1.49854 0
M  V30 3864 C 375.671 -1.92307 -2.79054 0
M  V30 3865 C 374.844 -3.22594 -2.95384 0
M  V30 3866 C 373.903 -3.24448 -4.1427 0
M  V30 3867 O 372.929 -3.98035 -4.06887 0
M  V30 3868 N 374.131 -2.49042 -5.24365 0
M  V30 3869 H 376.896 -2.75408 -1.18196 0
M  V30 3870 H 374.457 -1.53914 -0.502202 0
M  V30 3871 H 376.449 -1.90962 -3.56813 0
M  V30 3872 H 375.019 -1.04955 -2.94454 0
M  V30 3873 H 374.239 -3.36806 -2.04831 0
M  V30 3874 H 375.527 -4.08593 -3.03198 0
M  V30 3875 H 374.925 -1.88867 -5.33241 0
M  V30 3876 H 373.482 -2.53463 -6.005 0
M  V30 3877 N 376.915 0.57481 -1.46744 0
M  V30 3878 C 378.164 1.32898 -1.51727 0
M  V30 3879 C 378.477 1.948 -0.176692 0
M  V30 3880 O 379.683 2.71299 -0.104385 0
M  V30 3881 C 378.139 2.40901 -2.67385 0
M  V30 3882 C 377.747 1.85266 -4.07898 0
M  V30 3883 C 379.491 3.17609 -2.81646 0
M  V30 3884 C 377.398 2.90945 -5.14883 0
M  V30 3885 H 376.328 0.499631 -0.564699 0
M  V30 3886 H 378.979 0.612536 -1.72975 0
M  V30 3887 H 377.361 3.15379 -2.39483 0
M  V30 3888 H 378.535 1.17278 -4.45626 0
M  V30 3889 H 376.85 1.21199 -3.98371 0
M  V30 3890 H 379.447 3.96493 -3.58744 0
M  V30 3891 H 379.79 3.70696 -1.89448 0
M  V30 3892 H 380.323 2.50239 -3.09233 0
M  V30 3893 H 377.062 2.42736 -6.089 0
M  V30 3894 H 376.582 3.57398 -4.81691 0
M  V30 3895 H 378.261 3.54755 -5.41071 0
M  V30 3896 N 378.394 1.34581 0.820102 0
M  V30 3897 C 379.341 1.2639 1.93117 0
M  V30 3898 C 380.311 0.138554 1.65521 0
M  V30 3899 O 381.496 0.320004 1.88097 0
M  V30 3900 C 378.636 1.02812 3.29429 0
M  V30 3901 C 377.749 2.24146 3.693 0
M  V30 3902 C 376.884 1.93829 4.94574 0
M  V30 3903 C 375.923 3.1129 5.27034 0
M  V30 3904 N 375.06 2.80838 6.43486 0
M  V30 3905 H 379.9 2.21408 1.99455 0
M  V30 3906 H 377.437 1.10077 0.975784 0
M  V30 3907 H 379.395 0.871788 4.0799 0
M  V30 3908 H 378.025 0.114612 3.22596 0
M  V30 3909 H 377.077 2.50691 2.86109 0
M  V30 3910 H 378.389 3.11899 3.89257 0
M  V30 3911 H 377.543 1.74948 5.80929 0
M  V30 3912 H 376.282 1.03341 4.76626 0
M  V30 3913 H 375.287 3.30764 4.39175 0
M  V30 3914 H 376.512 4.02561 5.4692 0
M  V30 3915 H 374.458 1.92929 6.26988 0
M  V30 3916 H 374.375 3.62123 6.63629 0
M  V30 3917 H 375.643 2.65467 7.32903 0
M  V30 3918 N 379.872 -1.04064 1.18357 0
M  V30 3919 C 380.835 -2.10243 0.912707 0
M  V30 3920 C 381.835 -1.60477 -0.101928 0
M  V30 3921 O 383.025 -1.73703 0.131517 0
M  V30 3922 C 380.157 -3.38893 0.369387 0
M  V30 3923 H 381.35 -2.35706 1.85426 0
M  V30 3924 H 378.903 -1.20489 0.995594 0
M  V30 3925 H 379.638 -3.19094 -0.578776 0
M  V30 3926 H 379.423 -3.76331 1.1008 0
M  V30 3927 H 380.913 -4.17128 0.198575 0
M  V30 3928 N 381.35 -0.985608 -1.22978 0
M  V30 3929 C 382.313 -0.535071 -2.22867 0
M  V30 3930 C 383.313 0.378123 -1.56291 0
M  V30 3931 O 384.503 0.171092 -1.73358 0
M  V30 3932 C 381.635 0.222702 -3.40172 0
M  V30 3933 H 382.828 -1.41835 -2.6424 0
M  V30 3934 H 380.381 -0.772042 -1.35901 0
M  V30 3935 H 381.116 1.12229 -3.04262 0
M  V30 3936 H 380.901 -0.43288 -3.89703 0
M  V30 3937 H 382.391 0.526335 -4.1427 0
M  V30 3938 N 382.828 1.3818 -0.7579 0
M  V30 3939 C 384.074 2.00316 -0.316453 0
M  V30 3940 C 384.407 1.60026 1.10025 0
M  V30 3941 O 383.682 0.839835 1.75434 0
M  V30 3942 C 383.965 3.57349 -0.444245 0
M  V30 3943 C 383.818 4.07591 -1.90236 0
M  V30 3944 C 385.137 4.3981 0.1598 0
M  V30 3945 H 382.256 0.727741 -0.116459 0
M  V30 3946 H 384.898 1.6406 -0.958352 0
M  V30 3947 H 383.048 3.88365 0.102233 0
M  V30 3948 H 384.72 3.87199 -2.50748 0
M  V30 3949 H 382.963 3.60297 -2.41595 0
M  V30 3950 H 383.634 5.16677 -1.94291 0
M  V30 3951 H 386.11 4.14971 -0.306314 0
M  V30 3952 H 384.986 5.48885 0.0401675 0
M  V30 3953 H 385.247 4.24102 1.24859 0
M  V30 3954 N 384.306 0.507319 1.49211 0
M  V30 3955 C 385.253 -0.267728 2.29242 0
M  V30 3956 C 386.223 -0.954609 1.35928 0
M  V30 3957 O 387.408 -0.960046 1.64887 0
M  V30 3958 C 384.548 -1.32243 3.18756 0
M  V30 3959 C 383.661 -0.64669 4.27132 0
M  V30 3960 C 382.796 -1.68238 5.03855 0
M  V30 3961 C 381.835 -0.98885 6.0406 0
M  V30 3962 N 380.972 -1.96903 6.73924 0
M  V30 3963 H 385.812 0.420968 2.95012 0
M  V30 3964 H 383.349 0.219443 1.45454 0
M  V30 3965 H 385.307 -1.94599 3.69036 0
M  V30 3966 H 383.937 -1.97981 2.54958 0
M  V30 3967 H 382.989 0.0902926 3.80293 0
M  V30 3968 H 384.301 -0.101058 4.98698 0
M  V30 3969 H 383.455 -2.38081 5.58034 0
M  V30 3970 H 382.194 -2.26187 4.32077 0
M  V30 3971 H 381.199 -0.276222 5.49106 0
M  V30 3972 H 382.424 -0.415767 6.77826 0
M  V30 3973 H 380.37 -2.53803 6.04913 0
M  V30 3974 H 380.287 -1.47423 7.41487 0
M  V30 3975 H 381.555 -2.66015 7.32705 0
M  V30 3976 N 385.784 -1.5574 0.241426 0
M  V30 3977 C 386.747 -2.19877 -0.647063 0
M  V30 3978 C 387.747 -1.16642 -1.10686 0
M  V30 3979 O 388.937 -1.41757 -1.01245 0
M  V30 3980 C 386.069 -2.83797 -1.88871 0
M  V30 3981 H 387.262 -2.99772 -0.087574 0
M  V30 3982 H 384.815 -1.56298 -0.00813574 0
M  V30 3983 H 385.55 -2.07824 -2.48957 0
M  V30 3984 H 385.335 -3.59414 -1.56728 0
M  V30 3985 H 386.825 -3.32898 -2.52129 0
M  V30 3986 N 387.262 0.0317525 -1.57568 0
M  V30 3987 C 388.225 1.01783 -2.0536 0
M  V30 3988 C 389.225 1.29203 -0.957253 0
M  V30 3989 O 390.415 1.24251 -1.22095 0
M  V30 3990 C 387.547 2.35137 -2.46827 0
M  V30 3991 H 388.74 0.605062 -2.93733 0
M  V30 3992 H 386.293 0.278514 -1.53799 0
M  V30 3993 H 387.028 2.81168 -1.61602 0
M  V30 3994 H 386.813 2.16566 -3.26866 0
M  V30 3995 H 388.303 3.05938 -2.84239 0
M  V30 3996 N 388.74 1.54641 0.303973 0
M  V30 3997 C 389.703 1.84646 1.35789 0
M  V30 3998 C 390.703 0.7192 1.4382 0
M  V30 3999 O 391.893 0.987491 1.43507 0
M  V30 4000 C 389.025 2.02407 2.74307 0
M  V30 4001 H 390.218 2.78829 1.10429 0
M  V30 4002 H 387.771 1.46658 0.540487 0
M  V30 4003 H 388.506 1.10502 3.04893 0
M  V30 4004 H 388.291 2.84453 2.69868 0
M  V30 4005 H 389.781 2.27002 3.50514 0
M  V30 4006 N 390.218 -0.567019 1.47046 0
M  V30 4007 C 391.128 -1.70247 1.6141 0
M  V30 4008 C 392.144 -1.66746 0.497157 0
M  V30 4009 O 393.32 -1.86371 0.763389 0
M  V30 4010 C 390.385 -3.06756 1.61561 0
M  V30 4011 C 389.446 -3.21399 2.84607 0
M  V30 4012 C 388.679 -4.51396 2.84741 0
M  V30 4013 O 388.902 -5.36255 1.94388 0
M  V30 4014 O 387.836 -4.69621 3.76483 0
M  V30 4015 H 391.662 -1.61073 2.57467 0
M  V30 4016 H 389.247 -0.735894 1.30019 0
M  V30 4017 H 391.129 -3.8801 1.64396 0
M  V30 4018 H 389.804 -3.16333 0.686684 0
M  V30 4019 H 388.711 -2.39579 2.8732 0
M  V30 4020 H 390.044 -3.16721 3.76761 0
M  V30 4021 N 391.696 -1.35014 -0.812953 0
M  V30 4022 C 392.944 -1.27678 -1.56661 0
M  V30 4023 C 393.265 0.150359 -1.94419 0
M  V30 4024 O 392.535 1.08532 -1.63088 0
M  V30 4025 H 391.115 -0.469602 -0.580933 0
M  V30 4026 H 393.777 -1.69043 -0.970076 0
M  V30 4027 H 392.873 -1.88833 -2.48492 0
M  V30 4028 N 393.175 1.03435 -1.18907 0
M  V30 4029 C 394.085 2.15075 -0.937015 0
M  V30 4030 C 395.101 1.73706 0.101085 0
M  V30 4031 O 396.277 2.01232 -0.0822948 0
M  V30 4032 C 393.342 3.43458 -0.473057 0
M  V30 4033 C 392.403 3.99172 -1.57989 0
M  V30 4034 C 391.636 5.21427 -1.13797 0
M  V30 4035 O 391.859 5.704 0.000725941 0
M  V30 4036 O 390.793 5.69837 -1.9383 0
M  V30 4037 H 394.619 2.39198 -1.87131 0
M  V30 4038 H 392.204 1.13506 -0.971427 0
M  V30 4039 H 394.086 4.20811 -0.222702 0
M  V30 4040 H 392.761 3.20793 0.432869 0
M  V30 4041 H 391.668 3.23178 -1.88433 0
M  V30 4042 H 393.001 4.2619 -2.46217 0
M  V30 4043 N 394.653 0.992116 1.22453 0
M  V30 4044 C 395.586 0.486701 2.22949 0
M  V30 4045 C 396.564 -0.45259 1.56174 0
M  V30 4046 O 397.748 -0.378317 1.84665 0
M  V30 4047 C 394.875 -0.294537 3.37417 0
M  V30 4048 C 393.921 0.590628 4.22391 0
M  V30 4049 S 394.754 2.04546 4.94895 0
M  V30 4050 C 395.91 1.27369 6.12803 0
M  V30 4051 H 396.143 1.33828 2.65475 0
M  V30 4052 H 393.676 0.799023 1.32117 0
M  V30 4053 H 395.634 -0.739241 4.03789 0
M  V30 4054 H 394.295 -1.12139 2.934 0
M  V30 4055 H 393.488 -0.0104375 5.03999 0
M  V30 4056 H 393.09 0.972064 3.61147 0
M  V30 4057 H 395.382 0.540943 6.75337 0
M  V30 4058 H 396.325 2.06502 6.7732 0
M  V30 4059 H 396.733 0.787324 5.58983 0
M  V30 4060 N 396.131 -1.37776 0.765217 0
M  V30 4061 C 397.078 -2.30342 0.145274 0
M  V30 4062 C 398.048 -1.5077 -0.696971 0
M  V30 4063 O 399.233 -1.79362 -0.650689 0
M  V30 4064 C 396.373 -3.37227 -0.732939 0
M  V30 4065 C 395.486 -4.31819 0.125199 0
M  V30 4066 C 394.621 -5.25777 -0.757107 0
M  V30 4067 C 393.66 -6.12012 0.103963 0
M  V30 4068 N 392.797 -6.98232 -0.735953 0
M  V30 4069 H 397.637 -2.8278 0.940195 0
M  V30 4070 H 395.174 -1.39211 0.475255 0
M  V30 4071 H 397.132 -3.97818 -1.25686 0
M  V30 4072 H 395.762 -2.86171 -1.49353 0
M  V30 4073 H 394.814 -3.7259 0.766865 0
M  V30 4074 H 396.126 -4.92509 0.789683 0
M  V30 4075 H 395.28 -5.91541 -1.34776 0
M  V30 4076 H 394.019 -4.65481 -1.45529 0
M  V30 4077 H 393.024 -5.45233 0.707197 0
M  V30 4078 H 394.249 -6.74379 0.799381 0
M  V30 4079 H 392.195 -6.40472 -1.41887 0
M  V30 4080 H 392.112 -7.55891 -0.128624 0
M  V30 4081 H 393.38 -7.68393 -1.31121 0
M  V30 4082 N 397.609 -0.515225 -1.4894 0
M  V30 4083 C 398.857 0.0241671 -2.02086 0
M  V30 4084 C 399.178 1.3616 -1.3959 0
M  V30 4085 O 398.448 1.87841 -0.556121 0
M  V30 4086 H 397.028 0.0119203 -0.746905 0
M  V30 4087 H 399.69 -0.675702 -1.82812 0
M  V30 4088 H 398.786 0.143385 -3.1177 0
M  V30 4089 N 399.087 1.5561 -0.249682 0
M  V30 4090 C 400.333 1.99306 0.374841 0
M  V30 4091 C 400.666 1.13767 1.57387 0
M  V30 4092 O 399.941 0.201711 1.93451 0
M  V30 4093 C 400.224 3.51507 0.781986 0
M  V30 4094 C 400.077 4.4781 -0.422629 0
M  V30 4095 C 401.396 4.08884 1.62793 0
M  V30 4096 H 398.515 0.724572 0.134773 0
M  V30 4097 H 401.157 1.86719 -0.351549 0
M  V30 4098 H 399.307 3.62363 1.4009 0
M  V30 4099 H 400.979 4.48931 -1.06108 0
M  V30 4100 H 399.222 4.20518 -1.06524 0
M  V30 4101 H 399.893 5.51919 -0.0943766 0
M  V30 4102 H 402.369 4.01147 1.10547 0
M  V30 4103 H 401.245 5.1564 1.88166 0
M  V30 4104 H 401.506 3.57515 2.60068 0
M  V30 4105 N 400.565 -0.0233959 1.57583 0
M  V30 4106 C 401.495 -1.02162 2.09965 0
M  V30 4107 C 402.476 -1.3735 1.00344 0
M  V30 4108 O 403.661 -1.46135 1.27899 0
M  V30 4109 C 400.791 -2.32081 2.58371 0
M  V30 4110 C 399.745 -2.1112 3.72307 0
M  V30 4111 C 399.071 -3.46848 4.06941 0
M  V30 4112 C 400.371 -1.49276 5.00514 0
M  V30 4113 H 402.065 -0.585557 2.93618 0
M  V30 4114 H 399.611 -0.280218 1.41247 0
M  V30 4115 H 401.564 -3.02249 2.93639 0
M  V30 4116 H 400.288 -2.77758 1.71808 0
M  V30 4117 H 398.947 -1.43384 3.37397 0
M  V30 4118 H 398.595 -3.90184 3.17436 0
M  V30 4119 H 398.295 -3.33646 4.83688 0
M  V30 4120 H 399.819 -4.18369 4.44747 0
M  V30 4121 H 401.233 -2.09368 5.33702 0
M  V30 4122 H 399.63 -1.46632 5.8191 0
M  V30 4123 H 400.7 -0.459217 4.82721 0
M  V30 4124 N 402.043 -1.548 -0.295768 0
M  V30 4125 C 403.291 -1.73985 -1.02828 0
M  V30 4126 C 403.612 -0.531406 -1.87619 0
M  V30 4127 O 402.882 0.454221 -1.90561 0
M  V30 4128 H 401.462 -0.641556 -0.382642 0
M  V30 4129 H 404.124 -1.92163 -0.325489 0
M  V30 4130 H 403.22 -2.63129 -1.67838 0
M  V30 4131 N 403.521 0.559213 -1.47345 0
M  V30 4132 C 404.751 1.33999 -1.57251 0
M  V30 4133 C 405.159 1.87905 -0.220978 0
M  V30 4134 O 404.502 1.65577 0.795617 0
M  V30 4135 C 404.564 2.54798 -2.53611 0
M  V30 4136 C 404.228 2.22192 -3.99349 0
M  V30 4137 C 405.225 1.79607 -4.87891 0
M  V30 4138 C 402.91 2.33613 -4.44669 0
M  V30 4139 C 404.904 1.48868 -6.19772 0
M  V30 4140 C 402.591 2.02487 -5.76578 0
M  V30 4141 C 403.589 1.60183 -6.63951 0
M  V30 4142 O 403.277 1.29451 -7.93409 0
M  V30 4143 H 403.009 0.414858 -0.533731 0
M  V30 4144 H 405.563 0.684465 -1.9366 0
M  V30 4145 H 403.793 3.23235 -2.12265 0
M  V30 4146 H 405.482 3.16873 -2.53666 0
M  V30 4147 H 406.248 1.70278 -4.54126 0
M  V30 4148 H 402.127 2.65501 -3.76869 0
M  V30 4149 H 405.671 1.15775 -6.87926 0
M  V30 4150 H 401.568 2.11448 -6.09885 0
M  V30 4151 H 402.336 1.43098 -8.05894 0
M  V30 4152 N 404.999 1.35443 0.805782 0
M  V30 4153 C 406.227 1.31878 1.59423 0
M  V30 4154 C 406.642 -0.103562 1.88516 0
M  V30 4155 O 405.999 -1.05575 1.48863 0
M  V30 4156 C 406.05 2.12426 2.92502 0
M  V30 4157 O 405.771 3.49115 2.6467 0
M  V30 4158 C 407.272 2.16455 3.86862 0
M  V30 4159 H 404.492 0.453002 0.495005 0
M  V30 4160 H 407.036 1.78309 1.00131 0
M  V30 4161 H 405.191 1.69593 3.48306 0
M  V30 4162 H 405.605 3.90957 3.49647 0
M  V30 4163 H 407.079 2.77204 4.77349 0
M  V30 4164 H 407.556 1.16352 4.23508 0
M  V30 4165 H 408.162 2.59453 3.36993 0
M  V30 4166 N 406.477 -1.02803 1.19454 0
M  V30 4167 C 407.387 -2.14575 0.948408 0
M  V30 4168 C 408.403 -1.73757 -0.091871 0
M  V30 4169 O 409.579 -2.01185 0.0929654 0
M  V30 4170 C 406.644 -3.43202 0.491265 0
M  V30 4171 C 405.705 -3.98328 1.60103 0
M  V30 4172 C 404.938 -5.20816 1.16561 0
M  V30 4173 O 405.161 -5.70392 0.0295238 0
M  V30 4174 O 404.095 -5.68801 1.96849 0
M  V30 4175 H 407.921 -2.38202 1.88397 0
M  V30 4176 H 405.506 -1.12989 0.977433 0
M  V30 4177 H 407.388 -4.20687 0.245015 0
M  V30 4178 H 406.063 -3.21018 -0.415851 0
M  V30 4179 H 404.97 -3.22174 1.90144 0
M  V30 4180 H 406.303 -4.24879 2.48473 0
M  V30 4181 N 407.956 -0.998596 -1.21925 0
M  V30 4182 C 409.233 -0.593401 -1.86382 0
M  V30 4183 C 409.613 0.92916 -1.89552 0
M  V30 4184 O 408.961 1.81347 -1.39017 0
M  V30 4185 C 409.171 -1.22039 -3.26967 0
M  V30 4186 C 410.519 -1.32449 -4.03413 0
M  V30 4187 O 411.543 -1.17522 -3.36254 0
M  V30 4188 O 410.402 -1.56395 -5.23644 0
M  V30 4189 H 407.496 -0.202385 -0.801854 0
M  V30 4190 H 410.042 -1.09484 -1.29659 0
M  V30 4191 H 408.814 -2.26158 -3.19325 0
M  V30 4192 H 408.437 -0.704906 -3.91301 0
M  V30 4193 N 409.434 1.37368 -0.772513 0
M  V30 4194 C 410.711 1.93839 -0.26188 0
M  V30 4195 C 411.091 1.7061 1.24319 0
M  V30 4196 O 410.439 1.05534 2.02669 0
M  V30 4197 C 410.649 3.43154 -0.636102 0
M  V30 4198 C 411.997 4.20249 -0.606324 0
M  V30 4199 O 413.021 3.5152 -0.575538 0
M  V30 4200 O 411.88 5.42809 -0.634086 0
M  V30 4201 H 408.974 0.82478 -0.0605555 0
M  V30 4202 H 411.52 1.4665 -0.853917 0
M  V30 4203 H 410.292 3.53647 -1.6748 0
M  V30 4204 H 409.915 3.97596 -0.0170516 0
M  V30 4205 N 410.912 0.523116 1.48665 0
M  V30 4206 C 412.158 -0.0134963 2.02796 0
M  V30 4207 C 412.491 -1.34582 1.40004 0
M  V30 4208 O 411.766 -1.86756 0.543381 0
M  V30 4209 C 412.049 -0.14276 3.59817 0
M  V30 4210 C 411.902 1.21425 4.331 0
M  V30 4211 C 413.221 -0.872856 4.31357 0
M  V30 4212 H 410.34 -0.00343074 0.736992 0
M  V30 4213 H 412.982 0.678816 1.7746 0
M  V30 4214 H 411.132 -0.732401 3.81534 0
M  V30 4215 H 412.804 1.84447 4.2282 0
M  V30 4216 H 411.047 1.79791 3.94788 0
M  V30 4217 H 411.718 1.07687 5.41394 0
M  V30 4218 H 414.194 -0.372555 4.14429 0
M  V30 4219 H 413.07 -0.932185 5.40927 0
M  V30 4220 H 413.331 -1.92161 3.98154 0
M  V30 4221 N 412.39 -1.55475 0.257931 0
M  V30 4222 C 413.636 -1.99502 -0.364266 0
M  V30 4223 C 413.969 -1.146 -1.56782 0
M  V30 4224 O 413.244 -0.211968 -1.93342 0
M  V30 4225 C 413.527 -3.51917 -0.763333 0
M  V30 4226 C 413.38 -4.4758 0.446371 0
M  V30 4227 C 414.699 -4.09742 -1.60623 0
M  V30 4228 H 411.818 -0.725277 -0.130929 0
M  V30 4229 H 414.46 -1.8653 0.361446 0
M  V30 4230 H 412.61 -3.63101 -1.38166 0
M  V30 4231 H 414.282 -4.48362 1.08487 0
M  V30 4232 H 412.525 -4.19947 1.08753 0
M  V30 4233 H 413.196 -5.51862 0.123645 0
M  V30 4234 H 415.672 -4.01727 -1.08418 0
M  V30 4235 H 414.548 -5.16631 -1.85429 0
M  V30 4236 H 414.809 -3.58889 -2.58169 0
M  V30 4237 N 413.868 0.0150385 -1.57593 0
M  V30 4238 C 415.093 0.718067 -1.94573 0
M  V30 4239 C 415.518 1.6734 -0.859005 0
M  V30 4240 O 414.876 1.80362 0.184147 0
M  V30 4241 C 414.924 1.43918 -3.30636 0
M  V30 4242 O 414.028 2.55299 -3.23876 0
M  V30 4243 H 413.369 0.192125 -0.635597 0
M  V30 4244 H 415.899 -0.0336708 -2.04572 0
M  V30 4245 H 415.909 1.80598 -3.65853 0
M  V30 4246 H 414.584 0.738619 -4.09289 0
M  V30 4247 H 413.161 2.21058 -3.00312 0
M  V30 4248 N 415.346 1.54954 0.287554 0
M  V30 4249 C 416.574 1.78881 1.03967 0
M  V30 4250 C 416.989 0.554894 1.80462 0
M  V30 4251 O 416.346 -0.475676 1.76192 0
M  V30 4252 C 416.397 3.00488 2.0097 0
M  V30 4253 O 416.118 4.19113 1.27577 0
M  V30 4254 C 417.619 3.36907 2.88112 0
M  V30 4255 H 414.839 0.596259 0.307761 0
M  V30 4256 H 417.383 2.01937 0.322749 0
M  V30 4257 H 415.538 2.79601 2.68145 0
M  V30 4258 H 415.952 4.87765 1.92835 0
M  V30 4259 H 417.426 4.25205 3.52001 0
M  V30 4260 H 417.903 2.55659 3.57121 0
M  V30 4261 H 418.509 3.60001 2.26449 0
M  V30 4262 N 416.824 -0.551391 1.4764 0
M  V30 4263 C 418.101 -1.31229 1.45046 0
M  V30 4264 C 418.481 -2.10563 0.150527 0
M  V30 4265 O 417.829 -2.11374 -0.867956 0
M  V30 4266 C 418.039 -2.21189 2.69956 0
M  V30 4267 C 419.387 -2.82021 3.1741 0
M  V30 4268 O 420.411 -2.31488 2.70724 0
M  V30 4269 O 419.27 -3.73885 3.98588 0
M  V30 4270 H 416.364 -0.591193 0.578291 0
M  V30 4271 H 418.91 -0.569813 1.59847 0
M  V30 4272 H 417.682 -1.62207 3.56096 0
M  V30 4273 H 417.305 -3.02722 2.57769 0
M  V30 4274 N 418.302 -1.35869 -0.798587 0
M  V30 4275 C 419.549 -1.29588 -1.55606 0
M  V30 4276 C 419.877 0.127456 -1.94082 0
M  V30 4277 O 419.132 1.09461 -1.62225 0
M  V30 4278 C 419.431 -2.1556 -2.85077 0
M  V30 4279 C 419.097 -3.6424 -2.65781 0
M  V30 4280 C 417.759 -4.04766 -2.60227 0
M  V30 4281 C 420.111 -4.58547 -2.47758 0
M  V30 4282 C 417.439 -5.37753 -2.34603 0
M  V30 4283 C 419.791 -5.91742 -2.23662 0
M  V30 4284 C 418.455 -6.31402 -2.16534 0
M  V30 4285 H 417.725 -0.474197 -0.569402 0
M  V30 4286 H 420.372 -1.67839 -0.922086 0
M  V30 4287 H 418.677 -1.70216 -3.52893 0
M  V30 4288 H 420.374 -2.08031 -3.42818 0
M  V30 4289 H 416.964 -3.32086 -2.70956 0
M  V30 4290 H 421.148 -4.28117 -2.51056 0
M  V30 4291 H 416.404 -5.67474 -2.2756 0
M  V30 4292 H 420.578 -6.6439 -2.08708 0
M  V30 4293 H 418.205 -7.34381 -1.96441 0
M  V30 4294 N 419.78 1.02168 -1.19998 0
M  V30 4295 C 420.728 2.12717 -0.940967 0
M  V30 4296 C 421.722 1.69069 0.105841 0
M  V30 4297 O 422.928 1.79946 -0.0440583 0
M  V30 4298 H 419.303 0.695108 -0.28693 0
M  V30 4299 H 421.274 2.3175 -1.87975 0
M  V30 4300 C 420.023 3.44027 -0.504049 0
M  V30 4301 H 419.346 3.78036 -1.30112 0
M  V30 4302 H 420.786 4.22452 -0.361991 0
M  V30 4303 C 419.245 3.27678 0.782878 0
M  V30 4304 O 419.775 3.56949 1.84256 0
M  V30 4305 N 417.981 2.80943 0.742921 0
M  V30 4306 H 417.528 2.57322 -0.119687 0
M  V30 4307 H 417.486 2.70385 1.60435 0
M  V30 4308 N 421.258 1.00505 1.21394 0
M  V30 4309 C 422.506 0.686415 1.90086 0
M  V30 4310 C 422.827 -0.785264 1.7849 0
M  V30 4311 O 422.097 -1.56387 1.17983 0
M  V30 4312 H 420.677 0.2509 0.703604 0
M  V30 4313 H 423.339 1.27417 1.47482 0
M  V30 4314 H 422.435 0.959621 2.96981 0
M  V30 4315 N 422.737 -1.36956 0.779787 0
M  V30 4316 C 423.647 -2.33965 0.172491 0
M  V30 4317 C 424.663 -1.60574 -0.670222 0
M  V30 4318 O 425.839 -1.92617 -0.588263 0
M  V30 4319 C 422.904 -3.39761 -0.690173 0
M  V30 4320 C 421.965 -4.28964 0.169924 0
M  V30 4321 C 421.198 -5.29707 -0.651662 0
M  V30 4322 O 421.421 -5.38238 -1.88827 0
M  V30 4323 O 420.355 -6.01873 -0.0566264 0
M  V30 4324 H 424.181 -2.87647 0.974321 0
M  V30 4325 H 421.766 -1.39258 0.541078 0
M  V30 4326 H 423.648 -4.04471 -1.1824 0
M  V30 4327 H 422.323 -2.88394 -1.47006 0
M  V30 4328 H 421.23 -3.67326 0.708696 0
M  V30 4329 H 422.563 -4.83656 0.913085 0
M  V30 4330 N 424.215 -0.530993 -1.48385 0
M  V30 4331 C 425.461 0.00274135 -2.028 0
M  V30 4332 C 425.794 1.33838 -1.40716 0
M  V30 4333 O 425.069 1.86465 -0.553277 0
M  V30 4334 C 425.352 0.123676 -3.59888 0
M  V30 4335 C 425.205 -1.2372 -4.3245 0
M  V30 4336 C 426.524 0.849967 -4.31814 0
M  V30 4337 H 423.643 -0.000477758 -0.737 0
M  V30 4338 H 426.285 -0.688217 -1.77098 0
M  V30 4339 H 424.435 0.712157 -3.81917 0
M  V30 4340 H 426.107 -1.86687 -4.21836 0
M  V30 4341 H 424.35 -1.81882 -3.93829 0
M  V30 4342 H 425.021 -1.10557 -5.40815 0
M  V30 4343 H 427.497 0.350572 -4.14621 0
M  V30 4344 H 426.373 0.903486 -5.41413 0
M  V30 4345 H 426.634 1.90047 -3.99167 0
M  V30 4346 N 425.693 1.55336 -0.266172 0
M  V30 4347 C 426.933 2.01303 0.354459 0
M  V30 4348 C 427.297 1.15046 1.53715 0
M  V30 4349 O 428.498 1.50554 2.22681 0
M  V30 4350 C 426.769 3.49748 0.735579 0
M  V30 4351 S 428.328 4.1771 1.34401 0
M  V30 4352 H 425.146 0.702333 0.110674 0
M  V30 4353 H 427.748 1.91653 -0.385916 0
M  V30 4354 H 426.452 4.10181 -0.134196 0
M  V30 4355 H 425.983 3.63364 1.50764 0
M  V30 4356 H 427.998 4.20594 2.63278 0
M  V30 4357 N 427.171 -0.0066808 1.57599 0
M  V30 4358 C 428.399 -0.704087 1.94551 0
M  V30 4359 C 428.814 -1.67677 0.867746 0
M  V30 4360 O 428.171 -1.8185 -0.153925 0
M  V30 4361 C 428.222 -1.44177 3.31505 0
M  V30 4362 O 427.943 -0.508097 4.35144 0
M  V30 4363 C 429.444 -2.23429 3.82876 0
M  V30 4364 H 426.664 -0.196523 0.641576 0
M  V30 4365 H 429.208 0.042453 2.04456 0
M  V30 4366 H 427.363 -2.13999 3.22929 0
M  V30 4367 H 427.777 -1.02782 5.14331 0
M  V30 4368 H 429.251 -2.70552 4.8115 0
M  V30 4369 H 429.728 -3.05818 3.15233 0
M  V30 4370 H 430.334 -1.58636 3.94607 0
M  V30 4371 N 428.649 -1.55105 -0.279332 0
M  V30 4372 C 429.874 -1.7976 -1.03446 0
M  V30 4373 C 430.299 -0.565952 -1.79384 0
M  V30 4374 O 429.657 0.484259 -1.74713 0
M  V30 4375 C 429.705 -3.0179 -1.97371 0
M  V30 4376 O 428.809 -2.76432 -3.06038 0
M  V30 4377 H 428.15 -0.594334 -0.29608 0
M  V30 4378 H 430.68 -2.02235 -0.310165 0
M  V30 4379 H 430.69 -3.30351 -2.39441 0
M  V30 4380 H 429.365 -3.91085 -1.4151 0
M  V30 4381 H 427.942 -2.58949 -2.68328 0
M  V30 4382 N 430.127 0.543554 -1.4793 0
M  V30 4383 C 431.373 1.30201 -1.55485 0
M  V30 4384 C 431.706 1.92925 -0.222201 0
M  V30 4385 O 430.981 1.78586 0.77053 0
M  V30 4386 C 431.264 2.40174 -2.68307 0
M  V30 4387 C 431.117 1.8223 -4.11233 0
M  V30 4388 C 432.436 3.42024 -2.76961 0
M  V30 4389 H 429.555 0.472036 -0.565996 0
M  V30 4390 H 432.197 0.606914 -1.80046 0
M  V30 4391 H 430.347 2.99463 -2.47495 0
M  V30 4392 H 432.019 1.27096 -4.43446 0
M  V30 4393 H 430.262 1.12832 -4.18869 0
M  V30 4394 H 430.933 2.61793 -4.85972 0
M  V30 4395 H 433.409 2.92672 -2.95774 0
M  V30 4396 H 432.285 4.16383 -3.57654 0
M  V30 4397 H 432.546 4.0173 -1.84568 0
M  V30 4398 N 431.605 1.3629 0.791371 0
M  V30 4399 C 432.852 1.30412 1.54916 0
M  V30 4400 C 433.18 -0.117162 1.94147 0
M  V30 4401 O 432.435 -1.08599 1.62803 0
M  V30 4402 C 432.734 2.17068 2.8393 0
M  V30 4403 C 432.4 3.65645 2.63846 0
M  V30 4404 C 431.062 4.0614 2.58077 0
M  V30 4405 C 433.414 4.59855 2.45322 0
M  V30 4406 C 430.742 5.3899 2.31748 0
M  V30 4407 C 433.094 5.9292 2.2052 0
M  V30 4408 C 431.758 6.32542 2.13183 0
M  V30 4409 H 431.028 0.47721 0.566879 0
M  V30 4410 H 433.675 1.68325 0.913172 0
M  V30 4411 H 431.98 1.72085 3.51986 0
M  V30 4412 H 433.677 2.09846 3.4171 0
M  V30 4413 H 430.267 3.33518 2.69191 0
M  V30 4414 H 434.451 4.29443 2.48782 0
M  V30 4415 H 429.707 5.68672 2.24548 0
M  V30 4416 H 433.881 6.65487 2.05182 0
M  V30 4417 H 431.508 7.35412 1.92544 0
M  V30 4418 N 433.083 -1.0153 1.20538 0
M  V30 4419 C 434.36 -1.72327 0.925343 0
M  V30 4420 C 434.74 -2.03383 -0.565547 0
M  V30 4421 O 434.088 -1.69934 -1.52757 0
M  V30 4422 C 434.298 -2.9902 1.79967 0
M  V30 4423 C 435.646 -3.72258 2.04228 0
M  V30 4424 O 436.67 -3.08979 1.77231 0
M  V30 4425 O 435.529 -4.86053 2.4983 0
M  V30 4426 H 432.623 -0.751099 0.346092 0
M  V30 4427 H 435.169 -1.07366 1.31417 0
M  V30 4428 H 433.941 -2.72402 2.80915 0
M  V30 4429 H 433.564 -3.71721 1.41099 0
M  V30 4430 N 434.561 -1.01147 -1.20859 0
M  V30 4431 C 435.524 -0.582224 -2.21682 0
M  V30 4432 C 436.524 0.344887 -1.57058 0
M  V30 4433 O 437.714 0.134281 -1.73682 0
M  V30 4434 C 434.846 0.150496 -3.40568 0
M  V30 4435 H 436.039 -1.47408 -2.61172 0
M  V30 4436 H 433.592 -0.800695 -1.34233 0
M  V30 4437 H 434.327 1.0575 -3.06574 0
M  V30 4438 H 434.112 -0.515444 -3.88697 0
M  V30 4439 H 435.602 0.438344 -4.15293 0
M  V30 4440 N 436.039 1.36541 -0.78704 0
M  V30 4441 C 436.986 2.30082 -0.181901 0
M  V30 4442 C 437.956 1.5186 0.672896 0
M  V30 4443 O 439.141 1.80374 0.622072 0
M  V30 4444 C 436.281 3.3835 0.679197 0
M  V30 4445 C 435.394 4.31565 -0.193882 0
M  V30 4446 C 434.529 5.26915 0.673364 0
M  V30 4447 C 433.568 6.11769 -0.201315 0
M  V30 4448 N 432.705 6.99315 0.624777 0
M  V30 4449 H 437.545 2.81248 -0.985064 0
M  V30 4450 H 435.082 1.38437 -0.497342 0
M  V30 4451 H 437.04 3.99767 1.19341 0
M  V30 4452 H 435.67 2.8851 1.44781 0
M  V30 4453 H 434.722 3.71323 -0.826044 0
M  V30 4454 H 436.034 4.91191 -0.867937 0
M  V30 4455 H 435.188 5.9361 1.25348 0
M  V30 4456 H 433.927 4.67737 1.38105 0
M  V30 4457 H 432.932 5.44039 -0.793849 0
M  V30 4458 H 434.157 6.73022 -0.906568 0
M  V30 4459 H 432.103 6.42648 1.3168 0
M  V30 4460 H 432.02 7.56 0.00835237 0
M  V30 4461 H 433.288 7.70382 1.18879 0
M  V30 4462 N 437.518 0.538854 1.48102 0
M  V30 4463 C 438.481 -0.208395 2.28251 0
M  V30 4464 C 439.481 -0.859656 1.35892 0
M  V30 4465 O 440.671 -0.71834 1.58699 0
M  V30 4466 C 437.803 -1.30252 3.15035 0
M  V30 4467 H 438.996 0.495407 2.9578 0
M  V30 4468 H 436.549 0.295112 1.53489 0
M  V30 4469 H 437.284 -2.0393 2.52157 0
M  V30 4470 H 437.069 -0.840551 3.82985 0
M  V30 4471 H 438.559 -1.82787 3.75471 0
M  V30 4472 N 438.996 -1.55193 0.274407 0
M  V30 4473 C 440.244 -1.99187 -0.341902 0
M  V30 4474 C 440.565 -1.16422 -1.56431 0
M  V30 4475 O 439.835 -0.253573 -1.94252 0
M  V30 4476 H 438.415 -0.735721 -0.129317 0
M  V30 4477 H 441.077 -1.91168 0.379578 0
M  V30 4478 H 440.173 -3.05629 -0.632253 0
M  V30 4479 N 440.474 -0.00167713 -1.576 0
M  V30 4480 C 441.723 0.682021 -1.89819 0
M  V30 4481 C 442.036 1.74844 -0.876871 0
M  V30 4482 O 443.242 2.48688 -1.08934 0
M  V30 4483 C 441.698 1.26425 -3.36964 0
M  V30 4484 C 441.306 0.232568 -4.47396 0
M  V30 4485 C 443.05 1.92604 -3.78291 0
M  V30 4486 C 440.957 0.824882 -5.85619 0
M  V30 4487 H 439.887 0.258499 -0.708304 0
M  V30 4488 H 442.538 -0.0624957 -1.83394 0
M  V30 4489 H 440.92 2.05949 -3.38232 0
M  V30 4490 H 442.094 -0.5382 -4.57646 0
M  V30 4491 H 440.409 -0.32888 -4.15099 0
M  V30 4492 H 443.006 2.37827 -4.78897 0
M  V30 4493 H 443.349 2.75732 -3.11894 0
M  V30 4494 H 443.882 1.19812 -3.79328 0
M  V30 4495 H 440.621 0.0323542 -6.55492 0
M  V30 4496 H 440.141 1.56477 -5.79029 0
M  V30 4497 H 441.82 1.32301 -6.33329 0
M  V30 4498 N 441.952 1.55251 0.271103 0
M  V30 4499 C 442.915 1.87484 1.31842 0
M  V30 4500 C 443.915 0.749545 1.42262 0
M  V30 4501 O 445.105 1.01771 1.4138 0
M  V30 4502 C 442.237 2.0818 2.69951 0
M  V30 4503 H 443.43 2.81108 1.0449 0
M  V30 4504 H 440.983 1.47771 0.509258 0
M  V30 4505 H 441.718 1.16944 3.02481 0
M  V30 4506 H 441.503 2.90114 2.63774 0
M  V30 4507 H 442.993 2.34385 3.4562 0
M  V30 4508 N 443.43 -0.535701 1.48216 0
M  V30 4509 C 444.36 -1.65014 1.65204 0
M  V30 4510 C 445.341 -1.62554 0.501011 0
M  V30 4511 O 446.526 -1.7984 0.732886 0
M  V30 4512 C 443.656 -3.03616 1.68626 0
M  V30 4513 C 442.61 -3.20932 2.83172 0
M  V30 4514 C 441.936 -4.60537 2.71679 0
M  V30 4515 C 443.236 -3.04249 4.24535 0
M  V30 4516 H 444.93 -1.51053 2.58502 0
M  V30 4517 H 442.476 -0.725262 1.24402 0
M  V30 4518 H 444.429 -3.81446 1.79099 0
M  V30 4519 H 443.153 -3.18587 0.719026 0
M  V30 4520 H 441.812 -2.45517 2.72244 0
M  V30 4521 H 441.46 -4.72336 1.72937 0
M  V30 4522 H 441.16 -4.73069 3.48538 0
M  V30 4523 H 442.684 -5.40475 2.84112 0
M  V30 4524 H 444.098 -3.71877 4.36326 0
M  V30 4525 H 442.495 -3.28278 5.02348 0
M  V30 4526 H 443.565 -2.00739 4.41397 0
M  V30 4527 N 444.908 -1.36708 -0.784132 0
M  V30 4528 C 445.856 -1.31533 -1.91838 0
M  V30 4529 C 446.85 -0.206205 -1.6814 0
M  V30 4530 O 448.056 -0.373519 -1.76082 0
M  V30 4531 H 444.431 -0.409613 -0.630651 0
M  V30 4532 H 446.402 -2.2731 -1.9332 0
M  V30 4533 C 445.151 -1.12679 -3.28936 0
M  V30 4534 H 444.474 -1.97274 -3.4774 0
M  V30 4535 H 445.914 -1.13106 -4.08636 0
M  V30 4536 C 444.373 0.168281 -3.36479 0
M  V30 4537 O 444.903 1.15625 -3.84699 0
M  V30 4538 N 443.109 0.214762 -2.89805 0
M  V30 4539 H 442.656 -0.589852 -2.50756 0
M  V30 4540 H 442.614 1.08094 -2.95234 0
M  V30 4541 N 446.386 1.0089 -1.21074 0
M  V30 4542 C 447.663 1.71834 -0.934469 0
M  V30 4543 C 448.043 2.0368 0.554753 0
M  V30 4544 O 447.391 1.70742 1.51854 0
M  V30 4545 C 447.601 2.98061 -1.8155 0
M  V30 4546 C 448.949 3.7117 -2.06199 0
M  V30 4547 O 449.973 3.08034 -1.78867 0
M  V30 4548 O 448.832 4.84721 -2.52404 0
M  V30 4549 H 445.926 0.749253 -0.35007 0
M  V30 4550 H 448.472 1.06668 -1.31985 0
M  V30 4551 H 447.244 2.70908 -2.82355 0
M  V30 4552 H 446.867 3.70968 -1.43068 0
M  V30 4553 N 447.864 1.01787 1.20321 0
M  V30 4554 C 448.812 0.58254 2.25187 0
M  V30 4555 C 449.806 -0.379359 1.65098 0
M  V30 4556 O 451.012 -0.249142 1.78267 0
M  V30 4557 H 447.387 0.170078 0.732514 0
M  V30 4558 H 449.358 1.47788 2.59232 0
M  V30 4559 C 448.107 -0.0620885 3.47645 0
M  V30 4560 H 447.43 0.669069 3.94162 0
M  V30 4561 H 448.87 -0.329784 4.22716 0
M  V30 4562 C 447.329 -1.3053 3.10586 0
M  V30 4563 O 447.859 -2.39848 3.22236 0
M  V30 4564 N 446.065 -1.18988 2.65123 0
M  V30 4565 H 445.612 -0.300341 2.55843 0
M  V30 4566 H 445.57 -2.02267 2.40698 0
M  V30 4567 N 449.342 -1.36122 0.79427 0
M  V30 4568 C 450.589 -1.99111 0.368905 0
M  V30 4569 C 450.917 -1.63032 -1.0607 0
M  V30 4570 O 450.172 -0.879303 -1.74833 0
M  V30 4571 C 450.471 -3.5409 0.48527 0
M  V30 4572 C 450.137 -4.10003 1.87638 0
M  V30 4573 C 448.799 -4.24986 2.257 0
M  V30 4574 C 451.151 -4.40423 2.78706 0
M  V30 4575 C 448.479 -4.67701 3.54221 0
M  V30 4576 C 450.831 -4.84573 4.0666 0
M  V30 4577 C 449.495 -4.97761 4.44737 0
M  V30 4578 H 448.765 -0.7286 0.134992 0
M  V30 4579 H 451.412 -1.62534 1.01267 0
M  V30 4580 H 449.717 -3.91052 -0.241984 0
M  V30 4581 H 451.414 -4.00766 0.137109 0
M  V30 4582 H 448.004 -3.98784 1.57064 0
M  V30 4583 H 452.188 -4.28412 2.50553 0
M  V30 4584 H 447.444 -4.761 3.83587 0
M  V30 4585 H 451.618 -5.07074 4.77336 0
M  V30 4586 H 449.245 -5.30618 5.44379 0
M  V30 4587 N 450.82 -0.546701 -1.47814 0
M  V30 4588 C 452.066 -0.0187684 -2.02791 0
M  V30 4589 C 452.399 1.32338 -1.42128 0
M  V30 4590 O 451.674 1.85867 -0.573023 0
M  V30 4591 C 451.957 0.0854985 -3.59998 0
M  V30 4592 C 451.81 -1.283 -4.31114 0
M  V30 4593 C 453.129 0.80412 -4.32691 0
M  V30 4594 H 450.248 -0.0082946 -0.736953 0
M  V30 4595 H 452.89 -0.706962 -1.76358 0
M  V30 4596 H 451.04 0.671609 -3.82651 0
M  V30 4597 H 452.712 -1.91151 -4.19832 0
M  V30 4598 H 450.955 -1.86049 -3.91878 0
M  V30 4599 H 451.626 -1.16287 -5.39612 0
M  V30 4600 H 454.102 0.306576 -4.14969 0
M  V30 4601 H 452.978 0.846011 -5.42341 0
M  V30 4602 H 453.239 1.85802 -4.01161 0
M  V30 4603 N 452.299 1.55045 -0.282633 0
M  V30 4604 C 453.246 2.22822 0.601566 0
M  V30 4605 C 454.216 1.20431 1.14392 0
M  V30 4606 O 455.401 1.48996 1.19184 0
M  V30 4607 C 452.541 2.95873 1.77632 0
M  V30 4608 C 451.654 4.12999 1.26711 0
M  V30 4609 C 450.789 4.73676 2.40426 0
M  V30 4610 C 449.828 5.82981 1.86545 0
M  V30 4611 N 448.965 6.3769 2.93762 0
M  V30 4612 H 453.805 2.97995 0.0169528 0
M  V30 4613 H 451.342 1.471 -0.00339964 0
M  V30 4614 H 453.3 3.36447 2.46697 0
M  V30 4615 H 451.93 2.2311 2.33285 0
M  V30 4616 H 450.982 3.77494 0.469314 0
M  V30 4617 H 452.294 4.91803 0.832518 0
M  V30 4618 H 451.448 5.17008 3.17471 0
M  V30 4619 H 450.187 3.94164 2.87203 0
M  V30 4620 H 449.192 5.39092 1.07983 0
M  V30 4621 H 450.417 6.64366 1.40694 0
M  V30 4622 H 448.363 5.61069 3.39908 0
M  V30 4623 H 448.28 7.11788 2.54744 0
M  V30 4624 H 449.548 6.8568 3.7076 0
M  V30 4625 N 453.777 0.010035 1.57597 0
M  V30 4626 C 454.707 -0.976857 2.12084 0
M  V30 4627 C 455.688 -1.35191 1.03235 0
M  V30 4628 O 456.873 -1.43389 1.3097 0
M  V30 4629 C 454.003 -2.26548 2.63236 0
M  V30 4630 C 452.957 -2.03175 3.76701 0
M  V30 4631 C 452.283 -3.38138 4.14206 0
M  V30 4632 C 453.583 -1.38625 5.03568 0
M  V30 4633 H 455.277 -0.523145 2.94794 0
M  V30 4634 H 452.823 -0.250195 1.4181 0
M  V30 4635 H 454.776 -2.95952 2.99984 0
M  V30 4636 H 453.5 -2.74051 1.77661 0
M  V30 4637 H 452.159 -1.36195 3.40362 0
M  V30 4638 H 451.807 -3.83363 3.25641 0
M  V30 4639 H 451.507 -3.23312 4.90656 0
M  V30 4640 H 453.031 -4.08841 4.53521 0
M  V30 4641 H 454.445 -1.98 5.38023 0
M  V30 4642 H 452.842 -1.34256 5.84889 0
M  V30 4643 H 453.912 -0.356722 4.83586 0
M  V30 4644 N 455.255 -1.55392 -0.262866 0
M  V30 4645 C 456.501 -1.76737 -0.99458 0
M  V30 4646 C 456.834 -0.572453 -1.85571 0
M  V30 4647 O 456.109 0.429732 -1.89693 0
M  V30 4648 C 456.392 -3.07824 -1.8686 0
M  V30 4649 C 456.245 -4.3769 -1.03672 0
M  V30 4650 C 457.564 -3.35021 -2.85393 0
M  V30 4651 H 454.683 -0.643005 -0.360157 0
M  V30 4652 H 457.325 -1.88126 -0.266216 0
M  V30 4653 H 455.475 -2.98245 -2.48962 0
M  V30 4654 H 457.147 -4.59238 -0.43563 0
M  V30 4655 H 455.39 -4.32461 -0.340513 0
M  V30 4656 H 456.061 -5.25759 -1.6817 0
M  V30 4657 H 458.537 -3.44458 -2.33426 0
M  V30 4658 H 457.413 -4.27989 -3.43681 0
M  V30 4659 H 457.674 -2.55153 -3.61039 0
M  V30 4660 N 456.733 0.527833 -1.48498 0
M  V30 4661 C 457.958 1.313 -1.60546 0
M  V30 4662 C 458.383 1.86199 -0.26672 0
M  V30 4663 O 457.741 1.64513 0.761918 0
M  V30 4664 C 457.789 2.43818 -2.65678 0
M  V30 4665 O 456.893 3.46916 -2.22987 0
M  V30 4666 H 456.234 0.388784 -0.538277 0
M  V30 4667 H 458.764 0.634896 -1.945 0
M  V30 4668 H 458.774 2.89973 -2.87018 0
M  V30 4669 H 457.449 2.03222 -3.62869 0
M  V30 4670 H 456.026 3.06864 -2.11869 0
M  V30 4671 N 458.211 1.37122 0.776871 0
M  V30 4672 C 459.457 1.3325 1.53675 0
M  V30 4673 C 459.812 -0.0839891 1.92217 0
M  V30 4674 O 459.105 -1.04145 1.60824 0
M  V30 4675 C 459.299 2.20068 2.81611 0
M  V30 4676 C 459.128 3.70016 2.55574 0
M  V30 4677 C 457.898 4.39144 2.4996 0
M  V30 4678 C 460.096 4.62996 2.23917 0
M  V30 4679 N 458.078 5.74663 2.15953 0
M  V30 4680 C 459.449 5.86854 2.00005 0
M  V30 4681 C 461.504 4.51433 2.1003 0
M  V30 4682 C 460.207 7.00446 1.63609 0
M  V30 4683 C 462.233 5.64905 1.75033 0
M  V30 4684 C 461.595 6.8781 1.51977 0
M  V30 4685 H 457.694 0.542878 0.562856 0
M  V30 4686 H 460.278 1.72295 0.906784 0
M  V30 4687 H 458.449 1.83248 3.42454 0
M  V30 4688 H 460.181 2.07492 3.47461 0
M  V30 4689 H 456.936 3.92088 2.65639 0
M  V30 4690 H 457.36 6.46268 2.0166 0
M  V30 4691 H 462.002 3.56987 2.26539 0
M  V30 4692 H 459.72 7.94831 1.45837 0
M  V30 4693 H 463.306 5.57926 1.64952 0
M  V30 4694 H 462.186 7.74126 1.25296 0
M  V30 4695 N 459.689 -1.00246 1.21608 0
M  V30 4696 C 460.919 -1.77373 1.05935 0
M  V30 4697 C 461.327 -1.85059 -0.393686 0
M  V30 4698 O 460.67 -1.31289 -1.28487 0
M  V30 4699 C 460.732 -3.22705 1.58435 0
M  V30 4700 C 460.396 -3.38591 3.06929 0
M  V30 4701 C 461.393 -3.2667 4.04454 0
M  V30 4702 C 459.078 -3.6395 3.46187 0
M  V30 4703 C 461.072 -3.39877 5.39224 0
M  V30 4704 C 458.759 -3.768 4.81108 0
M  V30 4705 C 459.757 -3.6477 5.77436 0
M  V30 4706 O 459.445 -3.77206 7.09909 0
M  V30 4707 H 459.177 -0.56419 0.372378 0
M  V30 4708 H 461.731 -1.26971 1.61454 0
M  V30 4709 H 459.961 -3.74255 0.973147 0
M  V30 4710 H 461.65 -3.81515 1.38568 0
M  V30 4711 H 462.416 -3.06999 3.75468 0
M  V30 4712 H 458.295 -3.72395 2.71741 0
M  V30 4713 H 461.839 -3.30404 6.14393 0
M  V30 4714 H 457.736 -3.95975 5.09779 0
M  V30 4715 H 458.504 -3.94138 7.17355 0
M  V30 4716 N 461.167 -1.02423 -1.1978 0
M  V30 4717 C 462.444 -0.632802 -1.85081 0
M  V30 4718 C 462.824 0.888745 -1.9148 0
M  V30 4719 O 462.172 1.78357 -1.42832 0
M  V30 4720 C 462.382 -1.28947 -3.24305 0
M  V30 4721 C 463.73 -1.40976 -4.00513 0
M  V30 4722 O 464.754 -1.24628 -3.33686 0
M  V30 4723 O 463.613 -1.67467 -5.20209 0
M  V30 4724 H 460.707 -0.219348 -0.79738 0
M  V30 4725 H 463.253 -1.12209 -1.27307 0
M  V30 4726 H 462.025 -2.3288 -3.14456 0
M  V30 4727 H 461.648 -0.787748 -3.89718 0
M  V30 4728 N 462.645 1.35699 -0.801477 0
M  V30 4729 C 463.593 2.3177 -0.196317 0
M  V30 4730 C 464.587 1.56388 0.651081 0
M  V30 4731 O 465.793 1.71557 0.544815 0
M  V30 4732 H 462.168 0.750669 -0.0447189 0
M  V30 4733 H 464.139 2.8036 -1.02181 0
M  V30 4734 C 462.888 3.41671 0.644702 0
M  V30 4735 H 462.211 3.998 0.0019921 0
M  V30 4736 H 463.651 4.11184 1.0346 0
M  V30 4737 C 462.11 2.84271 1.80808 0
M  V30 4738 O 462.64 2.77408 2.9053 0
M  V30 4739 N 460.846 2.41391 1.61799 0
M  V30 4740 H 460.393 2.47173 0.725493 0
M  V30 4741 H 460.351 2.03334 2.39797 0
M  V30 4742 N 464.123 0.554532 1.47522 0
M  V30 4743 C 465.033 -0.197865 2.33764 0
M  V30 4744 C 466.049 -0.914576 1.48025 0
M  V30 4745 O 467.225 -0.884067 1.80959 0
M  V30 4746 C 464.29 -1.21628 3.24665 0
M  V30 4747 C 463.351 -0.507283 4.26292 0
M  V30 4748 C 462.584 -1.47718 5.1285 0
M  V30 4749 O 462.807 -2.7118 5.01814 0
M  V30 4750 O 461.741 -1.00313 5.93482 0
M  V30 4751 H 465.567 0.50949 2.99396 0
M  V30 4752 H 463.152 0.315176 1.46038 0
M  V30 4753 H 465.034 -1.80421 3.80823 0
M  V30 4754 H 463.709 -1.9056 2.61665 0
M  V30 4755 H 462.616 0.121778 3.73902 0
M  V30 4756 H 463.949 0.140544 4.91999 0
M  V30 4757 N 465.601 -1.54893 0.290851 0
M  V30 4758 C 466.829 -2.04343 -0.324288 0
M  V30 4759 C 467.244 -1.16859 -1.48289 0
M  V30 4760 O 466.601 -0.192018 -1.81487 0
M  V30 4761 C 466.652 -3.52756 -0.79026 0
M  V30 4762 O 466.373 -4.36913 0.322213 0
M  V30 4763 C 467.874 -4.18161 -1.4716 0
M  V30 4764 H 465.094 -0.667135 -0.0719173 0
M  V30 4765 H 467.638 -1.99981 0.427529 0
M  V30 4766 H 465.793 -3.57511 -1.49213 0
M  V30 4767 H 466.207 -5.24486 -0.0387372 0
M  V30 4768 H 467.681 -5.23562 -1.7489 0
M  V30 4769 H 468.158 -3.67282 -2.40834 0
M  V30 4770 H 468.764 -4.17454 -0.813178 0
M  V30 4771 N 467.08 -0.0183926 -1.57589 0
M  V30 4772 C 468.328 0.661253 -1.90976 0
M  V30 4773 C 468.649 1.73281 -0.894353 0
M  V30 4774 O 467.919 1.9579 0.0656788 0
M  V30 4775 H 466.499 0.247233 -0.704901 0
M  V30 4776 H 469.161 -0.0636639 -1.94796 0
M  V30 4777 H 468.257 1.12083 -2.9128 0
M  V30 4778 N 468.558 1.5553 0.254621 0
M  V30 4779 C 469.788 1.80784 1.00004 0
M  V30 4780 C 470.196 0.59071 1.79742 0
M  V30 4781 O 469.539 -0.449988 1.78103 0
M  V30 4782 C 469.601 2.99268 1.99196 0
M  V30 4783 C 469.265 4.35595 1.38224 0
M  V30 4784 C 470.262 5.13884 0.788611 0
M  V30 4785 C 467.947 4.82281 1.40393 0
M  V30 4786 C 469.941 6.37004 0.224783 0
M  V30 4787 C 467.628 6.05351 0.836243 0
M  V30 4788 C 468.626 6.82551 0.24769 0
M  V30 4789 O 468.314 8.03297 -0.311249 0
M  V30 4790 H 468.046 0.60565 0.300274 0
M  V30 4791 H 470.6 2.03411 0.285143 0
M  V30 4792 H 468.83 2.72377 2.74496 0
M  V30 4793 H 470.519 3.11682 2.60018 0
M  V30 4794 H 471.285 4.78938 0.764423 0
M  V30 4795 H 467.164 4.22189 1.85142 0
M  V30 4796 H 470.708 6.97203 -0.235235 0
M  V30 4797 H 466.605 6.39776 0.857733 0
M  V30 4798 H 467.373 8.1825 -0.20237 0
M  V30 4799 N 470.036 -0.519951 1.48776 0
M  V30 4800 C 471.261 -1.30447 1.6124 0
M  V30 4801 C 471.686 -1.86055 0.276591 0
M  V30 4802 O 471.044 -1.64915 -0.753183 0
M  V30 4803 C 471.092 -2.42406 2.66967 0
M  V30 4804 O 470.196 -3.45728 2.24824 0
M  V30 4805 H 469.537 -0.385924 0.540332 0
M  V30 4806 H 472.067 -0.624572 1.94834 0
M  V30 4807 H 472.077 -2.88447 2.88552 0
M  V30 4808 H 470.752 -2.01294 3.63941 0
M  V30 4809 H 469.329 -3.05737 2.13494 0
M  V30 4810 N 471.514 -1.37532 -0.769588 0
M  V30 4811 C 472.462 -1.33561 -1.90432 0
M  V30 4812 C 473.456 -0.224027 -1.67912 0
M  V30 4813 O 474.662 -0.392174 -1.75676 0
M  V30 4814 H 471.037 -0.416279 -0.626271 0
M  V30 4815 H 473.008 -2.29348 -1.90899 0
M  V30 4816 C 471.757 -1.16162 -3.27722 0
M  V30 4817 H 471.08 -2.00951 -3.45628 0
M  V30 4818 H 472.52 -1.17434 -4.07413 0
M  V30 4819 C 470.979 0.132583 -3.36639 0
M  V30 4820 O 471.509 1.11539 -3.85904 0
M  V30 4821 N 469.715 0.184013 -2.90017 0
M  V30 4822 H 469.262 -0.616415 -2.50116 0
M  V30 4823 H 469.22 1.04956 -2.96364 0
M  V30 4824 N 472.992 0.995999 -1.22138 0
M  V30 4825 C 473.939 2.08551 -0.988687 0
M  V30 4826 C 474.909 1.65864 0.0885021 0
M  V30 4827 O 476.094 1.90704 -0.0604589 0
M  V30 4828 C 473.234 3.40374 -0.569191 0
M  V30 4829 C 472.347 3.96421 -1.71681 0
M  V30 4830 C 471.482 5.1639 -1.2456 0
M  V30 4831 C 470.521 5.64567 -2.36497 0
M  V30 4832 N 469.658 6.75777 -1.90445 0
M  V30 4833 H 474.498 2.2779 -1.92135 0
M  V30 4834 H 472.035 1.1168 -0.957388 0
M  V30 4835 H 473.993 4.16068 -0.307166 0
M  V30 4836 H 472.623 3.21145 0.326462 0
M  V30 4837 H 471.675 3.17628 -2.09324 0
M  V30 4838 H 472.987 4.2816 -2.55891 0
M  V30 4839 H 472.141 5.99362 -0.940774 0
M  V30 4840 H 470.88 4.86266 -0.373662 0
M  V30 4841 H 469.885 4.80185 -2.67772 0
M  V30 4842 H 471.11 5.96716 -3.24202 0
M  V30 4843 H 469.056 6.47443 -1.05609 0
M  V30 4844 H 468.973 7.06818 -2.68223 0
M  V30 4845 H 470.241 7.62262 -1.63022 0
M  V30 4846 N 474.47 1.03057 1.19235 0
M  V30 4847 C 475.716 0.729098 1.89241 0
M  V30 4848 C 476.049 -0.740573 1.79525 0
M  V30 4849 O 475.324 -1.53946 1.18874 0
M  V30 4850 C 475.607 1.18304 3.40112 0
M  V30 4851 C 475.46 2.71406 3.5869 0
M  V30 4852 C 476.779 0.765161 4.33397 0
M  V30 4853 H 473.898 0.266338 0.687192 0
M  V30 4854 H 476.54 1.28079 1.40341 0
M  V30 4855 H 474.69 0.713672 3.81889 0
M  V30 4856 H 476.362 3.26303 3.26074 0
M  V30 4857 H 474.605 3.11717 3.01687 0
M  V30 4858 H 475.276 2.98225 4.64506 0
M  V30 4859 H 477.752 1.16889 3.99345 0
M  V30 4860 H 476.628 1.11065 5.37546 0
M  V30 4861 H 476.889 -0.332372 4.40849 0
M  V30 4862 N 475.948 -1.35272 0.808662 0
M  V30 4863 C 476.878 -2.32315 0.234981 0
M  V30 4864 C 477.859 -1.57572 -0.64071 0
M  V30 4865 O 479.044 -1.8563 -0.570551 0
M  V30 4866 C 476.174 -3.41801 -0.615601 0
M  V30 4867 C 475.128 -4.27694 0.161767 0
M  V30 4868 C 474.454 -5.28519 -0.810649 0
M  V30 4869 C 475.754 -5.04231 1.36193 0
M  V30 4870 H 477.448 -2.80543 1.04575 0
M  V30 4871 H 474.994 -1.3488 0.504315 0
M  V30 4872 H 476.947 -4.08693 -1.02702 0
M  V30 4873 H 475.671 -2.92186 -1.45928 0
M  V30 4874 H 474.33 -3.62384 0.554382 0
M  V30 4875 H 473.978 -4.75171 -1.64988 0
M  V30 4876 H 473.678 -5.8686 -0.294822 0
M  V30 4877 H 475.202 -5.98283 -1.22023 0
M  V30 4878 H 476.616 -5.64058 1.02528 0
M  V30 4879 H 475.013 -5.72077 1.81239 0
M  V30 4880 H 476.083 -4.34753 2.14751 0
M  V30 4881 N 477.426 -0.562348 -1.47226 0
M  V30 4882 C 478.703 0.0256985 -1.95583 0
M  V30 4883 C 479.083 1.48032 -1.50498 0
M  V30 4884 O 478.431 2.15973 -0.746181 0
M  V30 4885 C 478.641 -0.125129 -3.48776 0
M  V30 4886 C 479.989 0.0175728 -4.24596 0
M  V30 4887 O 481.013 -0.0529341 -3.56161 0
M  V30 4888 O 479.872 0.170145 -5.46235 0
M  V30 4889 H 476.966 0.0612565 -0.824728 0
M  V30 4890 H 479.512 -0.629233 -1.57603 0
M  V30 4891 H 478.284 -1.13715 -3.74412 0
M  V30 4892 H 477.907 0.567178 -3.93534 0
M  V30 4893 N 478.904 1.54736 -0.299062 0
M  V30 4894 C 479.834 2.26409 0.571085 0
M  V30 4895 C 480.815 1.2629 1.13951 0
M  V30 4896 O 482 1.55059 1.16921 0
M  V30 4897 C 479.13 3.00338 1.74396 0
M  V30 4898 C 478.084 4.07588 1.30599 0
M  V30 4899 C 477.41 4.69222 2.56387 0
M  V30 4900 C 478.71 5.20455 0.438645 0
M  V30 4901 H 480.404 2.99388 -0.0266991 0
M  V30 4902 H 477.95 1.43993 -0.0142812 0
M  V30 4903 H 479.903 3.49198 2.35878 0
M  V30 4904 H 478.627 2.24934 2.36796 0
M  V30 4905 H 477.286 3.59575 0.71424 0
M  V30 4906 H 476.934 3.9046 3.17097 0
M  V30 4907 H 476.634 5.41653 2.27784 0
M  V30 4908 H 478.158 5.20844 3.18675 0
M  V30 4909 H 479.572 5.65221 0.959085 0
M  V30 4910 H 477.969 5.99594 0.246466 0
M  V30 4911 H 479.039 4.8192 -0.536738 0
M  V30 4912 N 480.382 0.0267497 1.57577 0
M  V30 4913 C 481.631 -0.651736 1.9088 0
M  V30 4914 C 481.944 -1.73427 0.904576 0
M  V30 4915 O 483.15 -2.46923 1.12877 0
M  V30 4916 C 481.606 -1.21048 3.38933 0
M  V30 4917 C 481.214 -0.161362 4.47709 0
M  V30 4918 C 482.958 -1.86562 3.81307 0
M  V30 4919 C 480.865 -0.731611 5.86857 0
M  V30 4920 H 479.795 -0.247198 0.712326 0
M  V30 4921 H 482.446 0.0916641 1.83271 0
M  V30 4922 H 480.828 -2.00542 3.41466 0
M  V30 4923 H 482.002 0.61094 4.56732 0
M  V30 4924 H 480.317 0.394877 4.14523 0
M  V30 4925 H 482.914 -2.30178 4.8262 0
M  V30 4926 H 483.257 -2.70735 3.16241 0
M  V30 4927 H 483.79 -1.13762 3.81186 0
M  V30 4928 H 480.529 0.0719329 6.55461 0
M  V30 4929 H 480.049 -1.47245 5.81445 0
M  V30 4930 H 481.728 -1.22208 6.35354 0
M  V30 4931 N 481.861 -1.55662 -0.24637 0
M  V30 4932 C 482.824 -1.89558 -1.28842 0
M  V30 4933 C 483.824 -0.772082 -1.41052 0
M  V30 4934 O 485.014 -1.04007 -1.39743 0
M  V30 4935 C 482.146 -2.12449 -2.66605 0
M  V30 4936 H 483.339 -2.82735 -1.00004 0
M  V30 4937 H 480.892 -1.48562 -0.485684 0
M  V30 4938 H 481.627 -1.21742 -3.00582 0
M  V30 4939 H 481.412 -2.94273 -2.59125 0
M  V30 4940 H 482.902 -2.39854 -3.41847 0
M  V30 4941 N 483.339 0.512053 -1.4905 0
M  V30 4942 C 484.289 1.61142 -1.61298 0
M  V30 4943 C 485.273 1.53908 -0.46916 0
M  V30 4944 O 486.465 1.61625 -0.721547 0
M  V30 4945 C 483.594 2.998 -1.67256 0
M  V30 4946 C 482.68 3.12072 -2.87179 0
M  V30 4947 N 483.071 2.94263 -4.11391 0
M  V30 4948 C 481.369 3.43156 -2.84886 0
M  V30 4949 C 482.07 3.10426 -4.91946 0
M  V30 4950 N 481.046 3.38808 -4.251 0
M  V30 4951 H 484.848 1.46011 -2.55065 0
M  V30 4952 H 482.362 0.717934 -1.45669 0
M  V30 4953 H 484.359 3.78794 -1.74128 0
M  V30 4954 H 483.019 3.1601 -0.746195 0
M  V30 4955 H 484.03 2.70661 -4.41546 0
M  V30 4956 H 480.707 3.65611 -2.01581 0
M  V30 4957 H 482.097 3.01243 -6.00585 0
M  V30 4958 N 484.817 1.37938 0.762283 0
M  V30 4959 C 486.066 1.32989 1.51647 0
M  V30 4960 C 486.379 -0.0802922 1.95435 0
M  V30 4961 O 487.585 -0.252295 2.70325 0
M  V30 4962 C 486.041 2.33485 2.73885 0
M  V30 4963 C 485.649 3.80079 2.37157 0
M  V30 4964 C 487.393 2.37563 3.51801 0
M  V30 4965 C 485.3 4.72283 3.55954 0
M  V30 4966 H 484.23 0.494301 0.56937 0
M  V30 4967 H 486.881 1.63448 0.834083 0
M  V30 4968 H 485.263 1.96056 3.44061 0
M  V30 4969 H 486.437 4.26398 1.74704 0
M  V30 4970 H 484.752 3.79037 1.72395 0
M  V30 4971 H 487.349 3.0365 4.40114 0
M  V30 4972 H 487.692 1.39199 3.92338 0
M  V30 4973 H 488.225 2.73747 2.8863 0
M  V30 4974 H 484.964 5.7181 3.2049 0
M  V30 4975 H 484.484 4.30663 4.1748 0
M  V30 4976 H 486.163 4.89876 4.22647 0
M  V30 4977 N 486.295 -0.989507 1.22664 0
M  V30 4978 C 487.52 -1.77031 1.08051 0
M  V30 4979 C 487.945 -1.84535 -0.364483 0
M  V30 4980 O 487.303 -1.3003 -1.2634 0
M  V30 4981 C 487.351 -3.18 1.70024 0
M  V30 4982 O 486.455 -4.01161 0.956216 0
M  V30 4983 H 485.796 -0.545008 0.379292 0
M  V30 4984 H 488.326 -1.24277 1.62531 0
M  V30 4985 H 488.336 -3.68616 1.74888 0
M  V30 4986 H 487.011 -3.11853 2.75174 0
M  V30 4987 H 485.588 -3.59687 0.98384 0
M  V30 4988 N 487.773 -1.03688 -1.18687 0
M  V30 4989 C 488.72 -0.624624 -2.22187 0
M  V30 4990 C 489.69 0.365636 -1.62026 0
M  V30 4991 O 490.875 0.260481 -1.89014 0
M  V30 4992 C 488.015 0.0101738 -3.45099 0
M  V30 4993 C 487.128 -1.02709 -4.19613 0
M  V30 4994 C 486.263 -0.361213 -5.2997 0
M  V30 4995 C 485.302 -1.38384 -5.96252 0
M  V30 4996 N 484.439 -0.743196 -6.98155 0
M  V30 4997 H 489.279 -1.51176 -2.56807 0
M  V30 4998 H 486.816 -0.75636 -1.26165 0
M  V30 4999 H 488.774 0.395528 -4.15321 0
M  V30 5000 H 487.404 0.860848 -3.1111 0
M  V30 5001 H 486.456 -1.53043 -3.48256 0
M  V30 5002 H 487.768 -1.80398 -4.65036 0
M  V30 5003 H 486.922 0.0785537 -6.06649 0
M  V30 5004 H 485.661 0.447799 -4.8564 0
M  V30 5005 H 484.666 -1.83378 -5.18317 0
M  V30 5006 H 485.891 -2.19448 -6.42666 0
M  V30 5007 H 483.837 0.0455789 -6.55984 0
M  V30 5008 H 483.754 -1.45784 -7.41811 0
M  V30 5009 H 485.022 -0.327698 -7.78811 0
M  V30 5010 O 489.29 1.30511 -0.951271 0
M  V30 5011 H 489.981 1.84711 -0.583235 0
M  V30 END ATOM
M  V30 BEGIN BOND
M  V30 END BOND
M  V30 END CTAB
M  END
$$$$
