drugbank_target|Q8IU85 Calcium/calmodulin-dependent protein kinase type 1D (DB08454; DB12010)
 OpenBabel12092120513D

  0  0  0     0  0            999 V3000
M  V30 BEGIN CTAB
M  V30 COUNTS 6019 6080 0 0 0
M  V30 BEGIN ATOM
M  V30 1 H -0.908 1.98254 -0.117106 0
M  V30 2 N 0 1.576 0 0
M  V30 3 C 0.933 2.03868 1.02534 0
M  V30 4 C 1.911 0.928543 1.3348 0
M  V30 5 O 3.095 1.19667 1.45644 0
M  V30 6 C 0.222 2.43627 2.35294 0
M  V30 7 C -0.732 3.65373 2.2001 0
M  V30 8 S 0.101 5.13292 1.52614 0
M  V30 9 C 1.257 5.56322 2.86805 0
M  V30 10 H 1.49 2.90518 0.631377 0
M  V30 11 H -0.977 1.52953 0.210867 0
M  V30 12 H 0.981 2.67203 3.11629 0
M  V30 13 H -0.358 1.57376 2.7183 0
M  V30 14 H -1.165 3.90944 3.18086 0
M  V30 15 H -1.563 3.418 1.51819 0
M  V30 16 H 0.729 5.58782 3.83104 0
M  V30 17 H 1.672 6.56266 2.65933 0
M  V30 18 H 2.08 4.83886 2.90714 0
M  V30 19 N 1.4781 -0.272755 1.55222 0
M  V30 20 C 2.4411 -1.32041 1.87344 0
M  V30 21 C 3.4411 -1.42342 0.74803 0
M  V30 22 O 4.6311 -1.41488 1.0162 0
M  V30 23 C 1.7631 -2.70173 2.07893 0
M  V30 24 H 2.9561 -1.04789 2.80997 0
M  V30 25 H 0.5091 -0.51083 1.47717 0
M  V30 26 H 1.2441 -3.02605 1.16622 0
M  V30 27 H 1.0291 -2.64082 2.89833 0
M  V30 28 H 2.5191 -3.45869 2.34017 0
M  V30 29 N 2.9562 -1.48159 -0.537278 0
M  V30 30 C 4.3722 -1.34118 -0.865129 0
M  V30 31 C 4.5722 -0.346678 -1.98495 0
M  V30 32 O 3.6282 0.234715 -2.51407 0
M  V30 33 C 4.9412 -2.73963 -1.23954 0
M  V30 34 C 6.4892 -2.82397 -1.34984 0
M  V30 35 C 6.9642 -4.22928 -1.75772 0
M  V30 36 N 8.4552 -4.25566 -1.82887 0
M  V30 37 C 9.1902 -5.31235 -2.15817 0
M  V30 38 N 8.6862 -6.47189 -2.47222 0
M  V30 39 N 10.4792 -5.18624 -2.16761 0
M  V30 40 H 2.6302 -2.1144 0.201715 0
M  V30 41 H 4.8932 -0.947598 0.0275949 0
M  V30 42 H 4.5992 -3.48264 -0.490381 0
M  V30 43 H 4.4732 -3.0702 -2.19132 0
M  V30 44 H 6.8602 -2.08356 -2.08978 0
M  V30 45 H 6.9412 -2.5297 -0.379448 0
M  V30 46 H 6.5852 -4.97482 -1.02341 0
M  V30 47 H 6.5152 -4.49794 -2.73848 0
M  V30 48 H 9.0062 -3.41924 -1.60924 0
M  V30 49 H 9.3192 -7.23564 -2.71433 0
M  V30 50 H 7.6642 -6.50476 -2.44757 0
M  V30 51 H 10.8552 -4.27056 -1.91679 0
M  V30 52 H 11.0282 -6.01078 -2.42093 0
M  V30 53 N 4.4343 0.785586 -1.36625 0
M  V30 54 C 5.3443 1.92964 -1.33425 0
M  V30 55 C 6.3603 1.72394 -0.235851 0
M  V30 56 O 7.5363 1.95866 -0.468878 0
M  V30 57 C 4.6013 3.27884 -1.12662 0
M  V30 58 C 3.6623 3.61204 -2.32013 0
M  V30 59 C 2.8953 4.89687 -2.12231 0
M  V30 60 O 3.1183 5.59704 -1.09945 0
M  V30 61 O 2.0523 5.21752 -3.00098 0
M  V30 62 H 5.8783 1.98613 -2.29753 0
M  V30 63 H 3.4633 0.926384 -1.17211 0
M  V30 64 H 5.3453 4.08614 -1.03016 0
M  V30 65 H 4.0203 3.23118 -0.193991 0
M  V30 66 H 2.9273 2.80765 -2.47228 0
M  V30 67 H 4.2603 3.70698 -3.23796 0
M  V30 68 N 5.9124 1.20967 1.01018 0
M  V30 69 C 6.8604 0.961223 2.1181 0
M  V30 70 C 7.8544 -0.0897034 1.69162 0
M  V30 71 O 9.0604 0.0612271 1.79896 0
M  V30 72 H 5.4354 0.29355 0.692338 0
M  V30 73 H 7.4064 1.90178 2.29946 0
M  V30 74 C 6.1554 0.536854 3.4353 0
M  V30 75 H 5.4784 1.33713 3.76777 0
M  V30 76 H 6.9184 0.402286 4.22087 0
M  V30 77 C 5.3774 -0.751574 3.2841 0
M  V30 78 O 5.9074 -1.80841 3.58691 0
M  V30 79 N 4.1134 -0.716079 2.81639 0
M  V30 80 H 3.6604 0.144236 2.57196 0
M  V30 81 H 3.6184 -1.57847 2.71904 0
M  V30 82 N 7.3905 -1.2043 1.01659 0
M  V30 83 C 8.6385 -1.89423 0.704522 0
M  V30 84 C 8.9595 -1.79231 -0.768197 0
M  V30 85 O 8.2295 -1.1947 -1.55254 0
M  V30 86 H 6.8095 -0.701178 0.257602 0
M  V30 87 H 9.4715 -1.4626 1.28818 0
M  V30 88 H 8.5675 -2.96052 0.987916 0
M  V30 89 N 8.8686 -0.792821 -1.36206 0
M  V30 90 C 9.7786 -0.194808 -2.3379 0
M  V30 91 C 10.7946 0.654869 -1.61206 0
M  V30 92 O 11.9706 0.569856 -1.9317 0
M  V30 93 C 9.0356 0.657721 -3.40404 0
M  V30 94 C 8.0966 -0.210849 -4.28782 0
M  V30 95 C 7.3296 0.601086 -5.30304 0
M  V30 96 O 7.5526 1.83682 -5.40016 0
M  V30 97 O 6.4866 -0.000808277 -6.019 0
M  V30 98 H 10.3126 -1.00172 -2.86704 0
M  V30 99 H 7.8976 -0.554341 -1.38735 0
M  V30 100 H 9.7796 1.14375 -4.05581 0
M  V30 101 H 8.4546 1.44247 -2.89784 0
M  V30 102 H 7.3616 -0.743714 -3.66633 0
M  V30 103 H 8.6946 -0.959195 -4.82763 0
M  V30 104 N 10.3467 1.47872 -0.545128 0
M  V30 105 C 11.5717 2.07391 -0.0190611 0
M  V30 106 C 11.9967 1.39688 1.25971 0
M  V30 107 O 11.3547 0.467816 1.7516 0
M  V30 108 C 11.4027 3.60188 0.172335 0
M  V30 109 O 10.5067 3.9339 1.23766 0
M  V30 110 H 9.8477 0.662411 -0.0459059 0
M  V30 111 H 12.3777 1.90066 -0.757365 0
M  V30 112 H 12.3877 4.06129 0.390305 0
M  V30 113 H 11.0627 4.08865 -0.761725 0
M  V30 114 H 9.6397 3.5921 1.00114 0
M  V30 115 N 11.8248 0.280983 1.55075 0
M  V30 116 C 13.0498 -0.340154 2.04592 0
M  V30 117 C 13.4748 -1.48246 1.15779 0
M  V30 118 O 12.8328 -1.80614 0.15761 0
M  V30 119 C 12.8808 -0.793104 3.5177 0
M  V30 120 O 11.9848 -1.89981 3.66034 0
M  V30 121 H 11.3258 -0.0694289 0.66036 0
M  V30 122 H 13.8558 0.416993 2.00306 0
M  V30 123 H 13.8658 -1.08729 3.93245 0
M  V30 124 H 12.5408 0.0426163 4.15878 0
M  V30 125 H 11.1178 -1.60771 3.36463 0
M  V30 126 N 13.3029 -1.57598 0.00835791 0
M  V30 127 C 14.5279 -1.95617 -0.689103 0
M  V30 128 C 14.9529 -0.883753 -1.66046 0
M  V30 129 O 14.3109 0.157352 -1.80616 0
M  V30 130 C 14.3589 -3.32736 -1.38994 0
M  V30 131 O 13.4629 -3.27631 -2.50463 0
M  V30 132 H 12.8039 -0.638379 -0.182668 0
M  V30 133 H 15.3339 -2.045 0.064036 0
M  V30 134 H 15.3439 -3.68494 -1.75147 0
M  V30 135 H 14.0189 -4.1034 -0.677778 0
M  V30 136 H 12.5959 -3.03561 -2.16576 0
M  V30 137 N 14.781 0.264519 -1.55364 0
M  V30 138 C 16.006 1.01726 -1.80739 0
M  V30 139 C 16.431 1.78836 -0.583044 0
M  V30 140 O 15.789 1.75167 0.467566 0
M  V30 141 C 15.837 1.94482 -3.03659 0
M  V30 142 O 14.941 3.03386 -2.7934 0
M  V30 143 H 14.282 0.290395 -0.597132 0
M  V30 144 H 16.812 0.290854 -2.02522 0
M  V30 145 H 16.822 2.36278 -3.32621 0
M  V30 146 H 15.497 1.37772 -3.92418 0
M  V30 147 H 14.074 2.65844 -2.61498 0
M  V30 148 N 16.2591 1.48442 0.529413 0
M  V30 149 C 17.5051 1.57699 1.28463 0
M  V30 150 C 17.8601 0.247913 1.90796 0
M  V30 151 O 17.1531 -0.749279 1.76342 0
M  V30 152 C 17.3471 2.6523 2.39558 0
M  V30 153 C 17.1761 4.08464 1.88114 0
M  V30 154 C 15.9461 4.75596 1.70693 0
M  V30 155 C 18.1441 4.94613 1.40935 0
M  V30 156 N 16.1261 6.03245 1.13881 0
M  V30 157 C 17.4971 6.12511 0.960734 0
M  V30 158 C 19.5521 4.80833 1.29243 0
M  V30 159 C 18.2551 7.18149 0.406792 0
M  V30 160 C 20.2811 5.86593 0.752487 0
M  V30 161 C 19.6431 7.037 0.313946 0
M  V30 162 H 15.7421 0.631608 0.46108 0
M  V30 163 H 18.3261 1.85325 0.596886 0
M  V30 164 H 16.4971 2.39425 3.05827 0
M  V30 165 H 18.2291 2.64169 3.06589 0
M  V30 166 H 14.9841 4.31938 1.94232 0
M  V30 167 H 15.4081 6.71324 0.874831 0
M  V30 168 H 20.0501 3.90635 1.61754 0
M  V30 169 H 17.7681 8.0807 0.0693671 0
M  V30 170 H 21.3541 5.77985 0.665192 0
M  V30 171 H 20.2341 7.8414 -0.0973632 0
M  V30 172 N 17.7372 -0.778329 1.37039 0
M  V30 173 C 18.6842 -1.89139 1.32269 0
M  V30 174 C 19.6542 -1.65017 0.189387 0
M  V30 175 O 20.8392 -1.87024 0.377693 0
M  V30 176 C 17.9792 -3.26112 1.12894 0
M  V30 177 C 17.0922 -3.62233 2.35396 0
M  V30 178 C 16.2272 -4.8838 2.08946 0
M  V30 179 C 15.2662 -5.17212 3.2735 0
M  V30 180 N 14.4032 -6.34546 3.00492 0
M  V30 181 H 19.2432 -1.92552 2.27437 0
M  V30 182 H 16.7802 -0.941473 1.13025 0
M  V30 183 H 18.7382 -4.05116 0.996835 0
M  V30 184 H 17.3682 -3.22091 0.213758 0
M  V30 185 H 16.4202 -2.78265 2.5937 0
M  V30 186 H 17.7322 -3.79481 3.23721 0
M  V30 187 H 16.8862 -5.75274 1.92729 0
M  V30 188 H 15.6252 -4.73222 1.17949 0
M  V30 189 H 14.6302 -4.28796 3.44113 0
M  V30 190 H 15.8552 -5.34283 4.19188 0
M  V30 191 H 13.8012 -6.20759 2.12118 0
M  V30 192 H 13.7182 -6.52179 3.82358 0
M  V30 193 H 14.9862 -7.24394 2.87879 0
M  V30 194 N 19.2153 -1.21501 -1.00376 0
M  V30 195 C 20.1623 -0.975387 -2.09177 0
M  V30 196 C 21.1323 0.0990615 -1.65804 0
M  V30 197 O 22.3173 -0.0483147 -1.90739 0
M  V30 198 C 19.4573 -0.547507 -3.40729 0
M  V30 199 C 18.5703 -1.69153 -3.97506 0
M  V30 200 C 17.7053 -1.2127 -5.17172 0
M  V30 201 C 16.7443 -2.32897 -5.66061 0
M  V30 202 N 15.8813 -1.86138 -6.76976 0
M  V30 203 H 20.7213 -1.9068 -2.29009 0
M  V30 204 H 18.2583 -0.950257 -1.12288 0
M  V30 205 H 20.2163 -0.280667 -4.16255 0
M  V30 206 H 18.8463 0.346904 -3.20931 0
M  V30 207 H 17.8983 -2.07298 -3.18954 0
M  V30 208 H 19.2103 -2.5316 -4.29781 0
M  V30 209 H 18.3643 -0.902591 -5.99948 0
M  V30 210 H 17.1033 -0.342692 -4.86495 0
M  V30 211 H 16.1083 -2.64709 -4.81881 0
M  V30 212 H 17.3333 -3.20396 -5.98768 0
M  V30 213 H 15.2793 -1.01484 -6.48103 0
M  V30 214 H 15.1963 -2.63717 -7.08512 0
M  V30 215 H 16.4643 -1.58165 -7.63285 0
M  V30 216 N 20.6934 1.19889 -1.02296 0
M  V30 217 C 21.6254 2.22334 -0.556787 0
M  V30 218 C 22.6384 1.58674 0.364199 0
M  V30 219 O 23.8274 1.77768 0.161533 0
M  V30 220 C 20.9274 3.38257 0.208694 0
M  V30 221 C 20.1004 4.31504 -0.71577 0
M  V30 222 C 19.1594 5.262 0.00325597 0
M  V30 223 O 18.1854 5.65798 -0.621357 0
M  V30 224 N 19.3874 5.66303 1.27599 0
M  V30 225 H 22.1524 2.62957 -1.43784 0
M  V30 226 H 19.7134 1.34495 -0.901261 0
M  V30 227 H 21.7054 3.98616 0.699111 0
M  V30 228 H 20.2754 2.96472 0.991102 0
M  V30 229 H 19.4954 3.69016 -1.38638 0
M  V30 230 H 20.7834 4.9072 -1.34428 0
M  V30 231 H 20.1814 5.36155 1.80429 0
M  V30 232 H 18.7384 6.28942 1.71102 0
M  V30 233 N 22.1715 0.800033 1.35784 0
M  V30 234 C 23.1345 0.211565 2.28221 0
M  V30 235 C 24.1345 -0.59728 1.49296 0
M  V30 236 O 25.3245 -0.416721 1.69142 0
M  V30 237 C 22.4565 -0.705846 3.33513 0
M  V30 238 H 23.6495 1.02677 2.81776 0
M  V30 239 H 21.2025 0.570211 1.45528 0
M  V30 240 H 21.9375 -1.54498 2.85133 0
M  V30 241 H 21.7225 -0.127655 3.91892 0
M  V30 242 H 23.2125 -1.11211 4.02519 0
M  V30 243 N 23.6496 -1.47581 0.552962 0
M  V30 244 C 24.5596 -2.33743 -0.200353 0
M  V30 245 C 25.5756 -1.47928 -0.916151 0
M  V30 246 O 26.7516 -1.80865 -0.885993 0
M  V30 247 C 23.8166 -3.24536 -1.21973 0
M  V30 248 C 22.8776 -4.26238 -0.511819 0
M  V30 249 C 22.1106 -5.12693 -1.48263 0
M  V30 250 O 22.3336 -5.01525 -2.71714 0
M  V30 251 O 21.2676 -5.93375 -1.00945 0
M  V30 252 H 25.0936 -2.9945 0.506304 0
M  V30 253 H 22.6786 -1.46071 0.313622 0
M  V30 254 H 24.5606 -3.80631 -1.80827 0
M  V30 255 H 23.2356 -2.61462 -1.90839 0
M  V30 256 H 22.1426 -3.73914 0.117799 0
M  V30 257 H 23.4756 -4.92014 0.135308 0
M  V30 258 N 25.1277 -0.289203 -1.54924 0
M  V30 259 C 26.4047 0.376032 -1.91951 0
M  V30 260 C 26.7847 1.72622 -1.21511 0
M  V30 261 O 26.1327 2.25853 -0.346767 0
M  V30 262 C 26.3427 0.502378 -3.45365 0
M  V30 263 C 27.6907 0.778741 -4.17398 0
M  V30 264 O 28.7147 0.586647 -3.51336 0
M  V30 265 O 27.5737 1.14698 -5.34328 0
M  V30 266 H 24.6677 0.208167 -0.800372 0
M  V30 267 H 27.2137 -0.336394 -1.66332 0
M  V30 268 H 25.9857 -0.447255 -3.88736 0
M  V30 269 H 25.6087 1.26373 -3.76982 0
M  V30 270 N 26.6058 1.57591 -0.0167156 0
M  V30 271 C 27.8548 1.90461 0.663877 0
M  V30 272 C 28.1678 0.893515 1.73999 0
M  V30 273 O 29.3738 1.11302 2.47637 0
M  V30 274 C 27.8298 3.38155 1.23204 0
M  V30 275 C 27.4378 4.47597 0.189866 0
M  V30 276 C 29.1818 3.80111 1.88986 0
M  V30 277 C 27.0888 5.86379 0.768964 0
M  V30 278 H 26.0188 0.710738 0.251729 0
M  V30 279 H 28.6698 1.83326 -0.0799926 0
M  V30 280 H 27.0518 3.40182 2.02712 0
M  V30 281 H 28.2258 4.57112 -0.581846 0
M  V30 282 H 26.5408 4.14766 -0.368475 0
M  V30 283 H 29.1378 4.81145 2.33247 0
M  V30 284 H 29.4808 3.14511 2.72743 0
M  V30 285 H 30.0138 3.80454 1.16187 0
M  V30 286 H 26.7528 6.55493 -0.0301957 0
M  V30 287 H 26.2728 5.80496 1.50945 0
M  V30 288 H 27.9518 6.34563 1.26251 0
M  V30 289 N 28.0839 -0.256276 1.55502 0
M  V30 290 C 29.0309 -1.31714 1.89526 0
M  V30 291 C 30.0009 -1.4828 0.748479 0
M  V30 292 O 31.1859 -1.62416 1.00128 0
M  V30 293 C 28.3259 -2.66933 2.18725 0
M  V30 294 C 27.4389 -2.58452 3.4616 0
M  V30 295 C 26.5739 -3.85961 3.64976 0
M  V30 296 C 25.6129 -3.72059 4.86044 0
M  V30 297 N 24.7499 -4.9144 5.01429 0
M  V30 298 H 29.5899 -1.01998 2.80001 0
M  V30 299 H 27.1269 -0.492413 1.38613 0
M  V30 300 H 29.0849 -3.4563 2.33657 0
M  V30 301 H 27.7149 -2.94816 1.31466 0
M  V30 302 H 26.7669 -1.71374 3.3961 0
M  V30 303 H 28.0789 -2.44085 4.34999 0
M  V30 304 H 27.2329 -4.73101 3.79816 0
M  V30 305 H 25.9719 -4.03215 2.74353 0
M  V30 306 H 24.9769 -2.83302 4.7119 0
M  V30 307 H 26.2019 -3.56309 5.78118 0
M  V30 308 H 24.1479 -5.09072 4.13741 0
M  V30 309 H 24.0649 -4.79668 5.84341 0
M  V30 310 H 25.3329 -5.80104 5.20672 0
M  V30 311 N 29.562 -1.4872 -0.521534 0
M  V30 312 C 30.509 -1.63871 -1.62527 0
M  V30 313 C 31.479 -0.480559 -1.58996 0
M  V30 314 O 32.664 -0.705085 -1.77294 0
M  V30 315 C 29.804 -1.69227 -3.00759 0
M  V30 316 C 28.917 -2.96207 -3.14461 0
M  V30 317 C 28.052 -2.92671 -4.43303 0
M  V30 318 C 27.091 -4.14318 -4.50563 0
M  V30 319 N 26.228 -4.0881 -5.70805 0
M  V30 320 H 31.068 -2.58123 -1.48918 0
M  V30 321 H 28.605 -1.28 -0.724878 0
M  V30 322 H 30.563 -1.70314 -3.80853 0
M  V30 323 H 29.193 -0.784586 -3.1312 0
M  V30 324 H 28.245 -3.04826 -2.27564 0
M  V30 325 H 29.557 -3.86192 -3.15686 0
M  V30 326 H 28.711 -2.92206 -5.31696 0
M  V30 327 H 27.45 -2.00429 -4.44612 0
M  V30 328 H 26.455 -4.15049 -3.60575 0
M  V30 329 H 27.68 -5.07729 -4.50986 0
M  V30 330 H 25.626 -3.19394 -5.72995 0
M  V30 331 H 25.543 -4.92509 -5.7356 0
M  V30 332 H 26.811 -4.12418 -6.61462 0
M  V30 333 N 31.0401 0.771051 -1.3745 0
M  V30 334 C 32.2891 1.52491 -1.3202 0
M  V30 335 C 32.6021 1.9538 0.0927347 0
M  V30 336 O 33.8081 2.70159 0.269503 0
M  V30 337 C 32.2641 2.75366 -2.31736 0
M  V30 338 C 31.8721 2.39573 -3.78562 0
M  V30 339 C 33.6161 3.53307 -2.35318 0
M  V30 340 C 31.5231 3.58954 -4.70007 0
M  V30 341 H 30.4531 0.572506 -0.490666 0
M  V30 342 H 33.1041 0.844474 -1.62914 0
M  V30 343 H 31.4861 3.45303 -1.93861 0
M  V30 344 H 32.6601 1.77415 -4.25277 0
M  V30 345 H 30.9751 1.74805 -3.77932 0
M  V30 346 H 33.5721 4.42039 -3.00842 0
M  V30 347 H 33.9151 3.93217 -1.36698 0
M  V30 348 H 34.4481 2.90367 -2.71904 0
M  V30 349 H 31.1871 3.24125 -5.69757 0
M  V30 350 H 30.7071 4.20214 -4.27996 0
M  V30 351 H 32.3861 4.25758 -4.87175 0
M  V30 352 N 32.5182 1.22032 0.997298 0
M  V30 353 C 33.7652 1.04222 1.73621 0
M  V30 354 C 34.0932 -0.423264 1.89839 0
M  V30 355 O 33.3482 -1.3302 1.43542 0
M  V30 356 C 33.6472 1.69345 3.14733 0
M  V30 357 C 33.3132 3.19226 3.18442 0
M  V30 358 C 31.9752 3.60124 3.19161 0
M  V30 359 C 34.3272 4.15181 3.15078 0
M  V30 360 C 31.6552 4.95467 3.14212 0
M  V30 361 C 34.0072 5.50495 3.1167 0
M  V30 362 C 32.6712 5.90779 3.10703 0
M  V30 363 H 31.9412 0.381374 0.635323 0
M  V30 364 H 34.5882 1.51732 1.16831 0
M  V30 365 H 32.8932 1.14147 3.74803 0
M  V30 366 H 34.5902 1.53059 3.7064 0
M  V30 367 H 31.1802 2.86659 3.18629 0
M  V30 368 H 35.3642 3.84605 3.13676 0
M  V30 369 H 30.6202 5.25916 3.11805 0
M  V30 370 H 34.7942 6.24576 3.08022 0
M  V30 371 H 32.4212 6.9562 3.06622 0
M  V30 372 N 33.9963 -1.19345 1.0293 0
M  V30 373 C 34.9063 -2.26245 0.620515 0
M  V30 374 C 35.9223 -1.70486 -0.347928 0
M  V30 375 O 37.0983 -2.00347 -0.205704 0
M  V30 376 C 34.1633 -3.46693 -0.0218957 0
M  V30 377 C 33.2243 -4.17632 0.994102 0
M  V30 378 C 32.4573 -5.32329 0.382253 0
M  V30 379 O 32.6803 -5.64552 -0.814676 0
M  V30 380 O 31.6143 -5.91664 1.10531 0
M  V30 381 H 35.4403 -2.63453 1.51083 0
M  V30 382 H 33.0253 -1.26207 0.799513 0
M  V30 383 H 34.9073 -4.19683 -0.380072 0
M  V30 384 H 33.5823 -3.11333 -0.886209 0
M  V30 385 H 32.4893 -3.4676 1.40387 0
M  V30 386 H 33.8223 -4.56964 1.8288 0
M  V30 387 N 35.4744 -0.807222 -1.35358 0
M  V30 388 C 36.7214 -0.387888 -1.9875 0
M  V30 389 C 37.0494 1.04509 -1.64037 0
M  V30 390 O 36.3044 1.73986 -0.895946 0
M  V30 391 C 36.6034 -0.519036 -3.53611 0
M  V30 392 C 36.2694 -1.91542 -4.08194 0
M  V30 393 C 34.9314 -2.29745 -4.22813 0
M  V30 394 C 37.2834 -2.82896 -4.37744 0
M  V30 395 C 34.6114 -3.58668 -4.643 0
M  V30 396 C 36.9634 -4.11265 -4.8067 0
M  V30 397 C 35.6274 -4.49466 -4.93494 0
M  V30 398 H 34.8974 -0.141938 -0.727279 0
M  V30 399 H 37.5444 -1.02814 -1.6156 0
M  V30 400 H 35.8494 0.204658 -3.91265 0
M  V30 401 H 37.5464 -0.175345 -4.00616 0
M  V30 402 H 34.1364 -1.60862 -3.97268 0
M  V30 403 H 38.3204 -2.54629 -4.26002 0
M  V30 404 H 33.5764 -3.88113 -4.72418 0
M  V30 405 H 37.7504 -4.82153 -5.02496 0
M  V30 406 H 35.3774 -5.49418 -5.25399 0
M  V30 407 N 36.9525 1.47285 -0.560781 0
M  V30 408 C 37.8995 2.30058 0.18491 0
M  V30 409 C 38.8695 1.39281 0.904986 0
M  V30 410 O 40.0545 1.68241 0.899979 0
M  V30 411 C 37.1945 3.23317 1.20666 0
M  V30 412 C 36.3075 4.29186 0.492285 0
M  V30 413 C 35.4425 5.09592 1.49964 0
M  V30 414 C 34.4815 6.07232 0.770439 0
M  V30 415 N 33.6185 6.80584 1.72479 0
M  V30 416 H 38.4585 2.93302 -0.527048 0
M  V30 417 H 35.9955 1.44568 -0.271738 0
M  V30 418 H 37.9535 3.75811 1.81168 0
M  V30 419 H 36.5835 2.61929 1.88661 0
M  V30 420 H 35.6355 3.7972 -0.227333 0
M  V30 421 H 36.9475 4.98738 -0.0787929 0
M  V30 422 H 36.1015 5.66254 2.17809 0
M  V30 423 H 34.8405 4.3995 2.10464 0
M  V30 424 H 33.8455 5.49745 0.0780846 0
M  V30 425 H 35.0705 6.78884 0.171134 0
M  V30 426 H 33.0165 6.1367 2.3183 0
M  V30 427 H 32.9335 7.46319 1.20596 0
M  V30 428 H 34.2015 7.41818 2.39428 0
M  V30 429 N 38.4306 0.297415 1.54768 0
M  V30 430 C 39.3406 -0.58983 2.27064 0
M  V30 431 C 40.3566 -1.15144 1.30453 0
M  V30 432 O 41.5326 -1.17699 1.63428 0
M  V30 433 C 38.5976 -1.74714 2.9946 0
M  V30 434 C 37.6586 -1.21997 4.11601 0
M  V30 435 C 36.8916 -2.32212 4.80535 0
M  V30 436 O 37.1146 -3.52036 4.48806 0
M  V30 437 O 36.0486 -1.99106 5.68014 0
M  V30 438 H 39.8746 -0.00348199 3.037 0
M  V30 439 H 37.4596 0.0640035 1.49263 0
M  V30 440 H 39.3416 -2.42147 3.44881 0
M  V30 441 H 38.0166 -2.32016 2.25722 0
M  V30 442 H 36.9236 -0.511458 3.70587 0
M  V30 443 H 38.2566 -0.692419 4.87305 0
M  V30 444 N 39.9087 -1.5758 0.0250728 0
M  V30 445 C 41.1367 -1.9593 -0.664747 0
M  V30 446 C 41.5517 -0.901352 -1.65895 0
M  V30 447 O 40.9087 0.117255 -1.82123 0
M  V30 448 C 40.9597 -3.34342 -1.37468 0
M  V30 449 O 40.6807 -4.36079 -0.420324 0
M  V30 450 C 42.1817 -3.873 -2.1567 0
M  V30 451 H 39.4017 -0.645405 -0.183557 0
M  V30 452 H 41.9457 -2.04329 0.0836372 0
M  V30 453 H 40.1007 -3.27175 -2.0745 0
M  V30 454 H 40.5147 -5.16297 -0.923991 0
M  V30 455 H 41.9887 -4.86504 -2.60803 0
M  V30 456 H 42.4657 -3.21331 -2.99405 0
M  V30 457 H 43.0717 -3.97723 -1.50654 0
M  V30 458 N 41.3868 0.248026 -1.55636 0
M  V30 459 C 42.3168 1.31079 -1.93237 0
M  V30 460 C 43.2978 1.50264 -0.797174 0
M  V30 461 O 44.4828 1.62891 -1.05737 0
M  V30 462 C 41.6128 2.66575 -2.22609 0
M  V30 463 C 40.5668 2.62087 -3.3837 0
M  V30 464 C 39.8928 4.01369 -3.53281 0
M  V30 465 C 41.1928 2.19171 -4.7409 0
M  V30 466 H 42.8868 0.998556 -2.82257 0
M  V30 467 H 40.4328 0.47891 -1.35803 0
M  V30 468 H 42.3858 3.41057 -2.47503 0
M  V30 469 H 41.1098 2.99432 -1.30414 0
M  V30 470 H 39.7688 1.90063 -3.13483 0
M  V30 471 H 39.4168 4.31489 -2.58508 0
M  V30 472 H 39.1168 3.99254 -4.31127 0
M  V30 473 H 40.6408 4.77552 -3.80495 0
M  V30 474 H 42.0548 2.83384 -4.98363 0
M  V30 475 H 40.4518 2.2817 -5.5503 0
M  V30 476 H 41.5218 1.14336 -4.71227 0
M  V30 477 N 42.8649 1.48995 0.513639 0
M  V30 478 C 44.1129 1.57531 1.26604 0
M  V30 479 C 44.4339 0.258236 1.93283 0
M  V30 480 O 43.7039 -0.721502 1.8213 0
M  V30 481 H 42.2839 0.580387 0.470276 0
M  V30 482 H 44.9459 1.85552 0.596373 0
M  V30 483 H 44.0419 2.36486 2.03669 0
M  V30 484 N 44.343 -0.763751 1.37857 0
M  V30 485 C 45.571 -1.55293 1.36718 0
M  V30 486 C 45.986 -1.88745 -0.0455434 0
M  V30 487 O 45.343 -1.52039 -1.00947 0
M  V30 488 C 45.394 -2.85831 2.2132 0
M  V30 489 O 45.115 -2.5381 3.57089 0
M  V30 490 C 46.616 -3.80023 2.28249 0
M  V30 491 H 43.836 -0.480841 0.468009 0
M  V30 492 H 46.38 -0.946009 1.81303 0
M  V30 493 H 44.535 -3.42926 1.80223 0
M  V30 494 H 44.949 -3.37459 4.01524 0
M  V30 495 H 46.423 -4.68599 2.91752 0
M  V30 496 H 46.9 -4.1973 1.2932 0
M  V30 497 H 47.506 -3.28855 2.69693 0
M  V30 498 N 45.8211 -1.22559 -0.990812 0
M  V30 499 C 47.0691 -1.04933 -1.72724 0
M  V30 500 C 47.3901 0.416158 -1.90508 0
M  V30 501 O 46.6601 1.29918 -1.46622 0
M  V30 502 H 45.2401 -0.385296 -0.639965 0
M  V30 503 H 47.9021 -1.54105 -1.19322 0
M  V30 504 H 46.9981 -1.52886 -2.72089 0
M  V30 505 N 47.2992 1.18797 -1.03562 0
M  V30 506 C 48.2622 2.20464 -0.626769 0
M  V30 507 C 49.2622 1.57721 0.313173 0
M  V30 508 O 50.4522 1.73917 0.0992615 0
M  V30 509 C 47.5842 3.40802 0.0818498 0
M  V30 510 H 48.7772 2.58149 -1.5264 0
M  V30 511 H 46.3302 1.32593 -0.827578 0
M  V30 512 H 47.0652 3.08642 0.995518 0
M  V30 513 H 46.8502 3.8758 -0.593652 0
M  V30 514 H 48.3402 4.16092 0.354584 0
M  V30 515 N 48.7773 0.814389 1.34928 0
M  V30 516 C 50.0243 0.398423 1.98542 0
M  V30 517 C 50.3523 -1.03638 1.64589 0
M  V30 518 O 49.6073 -1.73509 0.90516 0
M  V30 519 C 49.9063 0.537781 3.53331 0
M  V30 520 C 49.5723 1.93704 4.07172 0
M  V30 521 C 48.2343 2.31984 4.21589 0
M  V30 522 C 50.5863 2.85213 4.36237 0
M  V30 523 C 47.9143 3.61125 4.62391 0
M  V30 524 C 50.2663 4.13809 4.78482 0
M  V30 525 C 48.9303 4.52077 4.91104 0
M  V30 526 H 48.2003 0.145793 0.726516 0
M  V30 527 H 50.8473 1.03669 1.61012 0
M  V30 528 H 49.1523 -0.183906 3.91368 0
M  V30 529 H 50.8493 0.196588 4.00518 0
M  V30 530 H 47.4393 1.62966 3.96409 0
M  V30 531 H 51.6233 2.56885 4.24645 0
M  V30 532 H 46.8793 3.90612 4.70353 0
M  V30 533 H 51.0533 4.84811 4.99932 0
M  V30 534 H 48.6803 5.52196 5.22478 0
M  V30 535 N 50.2554 -1.46986 0.568584 0
M  V30 536 C 51.4804 -2.07335 0.0520528 0
M  V30 537 C 51.9054 -1.41675 -1.23733 0
M  V30 538 O 51.2634 -0.495623 -1.74394 0
M  V30 539 C 51.3114 -3.60417 -0.11501 0
M  V30 540 O 50.4154 -3.95309 -1.17492 0
M  V30 541 H 49.7564 -0.661597 0.0564385 0
M  V30 542 H 52.2864 -1.88837 0.787507 0
M  V30 543 H 52.2964 -4.06698 -0.325644 0
M  V30 544 H 50.9714 -4.07601 0.826675 0
M  V30 545 H 49.5484 -3.60757 -0.943869 0
M  V30 546 N 51.7335 -0.305618 -1.54608 0
M  V30 547 C 52.6435 0.57778 -2.27374 0
M  V30 548 C 53.6595 1.14451 -1.31061 0
M  V30 549 O 54.8355 1.16831 -1.6405 0
M  V30 550 C 51.9005 1.73123 -3.00382 0
M  V30 551 C 50.9615 1.19812 -4.12242 0
M  V30 552 C 50.1945 2.2966 -4.81759 0
M  V30 553 O 50.4175 3.49651 -4.50666 0
M  V30 554 O 49.3515 1.96091 -5.69062 0
M  V30 555 H 53.1775 -0.012624 -3.03697 0
M  V30 556 H 50.7625 -0.0719184 -1.49227 0
M  V30 557 H 52.6445 2.40315 -3.4616 0
M  V30 558 H 51.3195 2.30815 -2.26949 0
M  V30 559 H 50.2265 0.491798 -3.70853 0
M  V30 560 H 51.5595 0.666566 -4.87666 0
M  V30 561 N 53.2116 1.57565 -0.0334293 0
M  V30 562 C 54.4576 1.92262 0.645226 0
M  V30 563 C 54.7906 0.910543 1.71531 0
M  V30 564 O 54.0656 -0.066099 1.94388 0
M  V30 565 C 54.3486 3.37422 1.2577 0
M  V30 566 C 54.2016 4.49369 0.196891 0
M  V30 567 C 55.5206 3.82628 2.17449 0
M  V30 568 H 52.6396 0.699171 0.233085 0
M  V30 569 H 55.2816 1.89779 -0.0915694 0
M  V30 570 H 53.4316 3.39669 1.88566 0
M  V30 571 H 55.1036 4.59254 -0.433962 0
M  V30 572 H 53.3466 4.31168 -0.477137 0
M  V30 573 H 54.0176 5.47978 0.665124 0
M  V30 574 H 56.4936 3.82145 1.64634 0
M  V30 575 H 55.3696 4.84883 2.57254 0
M  V30 576 H 55.6306 3.18376 3.0674 0
M  V30 577 N 54.6897 -0.239769 1.55765 0
M  V30 578 C 55.9357 -0.968234 1.78194 0
M  V30 579 C 56.2687 -1.84701 0.599938 0
M  V30 580 O 55.5437 -1.9031 -0.401524 0
M  V30 581 C 55.8267 -1.8227 3.10564 0
M  V30 582 C 55.6797 -0.971633 4.3918 0
M  V30 583 C 56.9987 -2.80388 3.39221 0
M  V30 584 H 54.1177 -0.350572 0.648281 0
M  V30 585 H 56.7597 -0.238259 1.885 0
M  V30 586 H 54.9097 -2.44507 3.01908 0
M  V30 587 H 56.5817 -0.367408 4.59835 0
M  V30 588 H 54.8247 -0.276276 4.32919 0
M  V30 589 H 55.4957 -1.60346 5.28198 0
M  V30 590 H 57.9717 -2.28287 3.47885 0
M  V30 591 H 56.8477 -3.3729 4.33044 0
M  V30 592 H 57.1087 -3.57212 2.60484 0
M  V30 593 N 56.1678 -1.49265 -0.50573 0
M  V30 594 C 57.0978 -1.68495 -1.61653 0
M  V30 595 C 58.0788 -0.53366 -1.61512 0
M  V30 596 O 59.2638 -0.76897 -1.78327 0
M  V30 597 C 56.3938 -1.74709 -3.00157 0
M  V30 598 C 55.3478 -2.89581 -3.15162 0
M  V30 599 C 54.6738 -2.80903 -4.5497 0
M  V30 600 C 55.9738 -4.30578 -2.95634 0
M  V30 601 H 57.6678 -2.61493 -1.45814 0
M  V30 602 H 55.2138 -1.25838 -0.70005 0
M  V30 603 H 57.1668 -1.86748 -3.77761 0
M  V30 604 H 55.8908 -0.783067 -3.17074 0
M  V30 605 H 54.5498 -2.77136 -2.39982 0
M  V30 606 H 54.1978 -1.82419 -4.68756 0
M  V30 607 H 53.8978 -3.57999 -4.65951 0
M  V30 608 H 55.4218 -2.94944 -5.34641 0
M  V30 609 H 56.8358 -4.4373 -3.63011 0
M  V30 610 H 55.2328 -5.0886 -3.18091 0
M  V30 611 H 56.3028 -4.45352 -1.91806 0
M  V30 612 N 57.6459 0.756429 -1.3826 0
M  V30 613 C 58.6089 1.85176 -1.35065 0
M  V30 614 C 59.6089 1.58818 -0.251703 0
M  V30 615 O 60.7989 1.66615 -0.508433 0
M  V30 616 C 57.9309 3.22596 -1.10201 0
M  V30 617 H 59.1239 1.89417 -2.3251 0
M  V30 618 H 56.6769 0.95783 -1.23512 0
M  V30 619 H 57.4119 3.24025 -0.133504 0
M  V30 620 H 57.1969 3.43122 -1.89762 0
M  V30 621 H 58.6869 4.02673 -1.10654 0
M  V30 622 N 59.124 1.23083 0.984299 0
M  V30 623 C 60.034 1.02515 2.11016 0
M  V30 624 C 61.05 -0.0291702 1.73976 0
M  V30 625 O 62.226 0.165434 2.00719 0
M  V30 626 C 59.291 0.614673 3.41208 0
M  V30 627 C 58.352 1.74359 3.92297 0
M  V30 628 C 57.585 1.35261 5.16275 0
M  V30 629 O 57.808 0.235136 5.69915 0
M  V30 630 O 56.742 2.17227 5.61334 0
M  V30 631 H 60.568 1.96862 2.31255 0
M  V30 632 H 58.153 1.01753 1.09392 0
M  V30 633 H 60.035 0.396518 4.1953 0
M  V30 634 H 58.71 -0.299851 3.22308 0
M  V30 635 H 57.617 2.01635 3.1511 0
M  V30 636 H 58.95 2.63629 4.15645 0
M  V30 637 N 60.6021 -1.18246 1.0419 0
M  V30 638 C 61.5121 -2.25574 0.644476 0
M  V30 639 C 62.5281 -1.70845 -0.329826 0
M  V30 640 O 63.7041 -2.00554 -0.184443 0
M  V30 641 C 60.7691 -3.46697 0.014877 0
M  V30 642 C 59.8301 -4.16554 1.03834 0
M  V30 643 C 59.0631 -5.31894 0.438692 0
M  V30 644 O 59.2861 -5.65385 -0.754752 0
M  V30 645 O 58.2201 -5.90459 1.168 0
M  V30 646 H 62.0461 -2.61836 1.53869 0
M  V30 647 H 59.6311 -1.25352 0.812854 0
M  V30 648 H 61.5131 -4.20062 -0.335538 0
M  V30 649 H 60.1881 -3.12255 -0.853138 0
M  V30 650 H 59.0951 -3.45251 1.44057 0
M  V30 651 H 60.4281 -4.54998 1.87716 0
M  V30 652 N 62.0802 -0.821533 -1.34494 0
M  V30 653 C 63.0272 -0.240397 -2.29545 0
M  V30 654 C 63.9972 0.634031 -1.53523 0
M  V30 655 O 65.1822 0.575966 -1.81899 0
M  V30 656 C 62.3222 0.592869 -3.39969 0
M  V30 657 C 61.4352 -0.30365 -4.30932 0
M  V30 658 C 60.5702 0.539049 -5.28458 0
M  V30 659 C 59.6092 -0.356942 -6.11058 0
M  V30 660 N 58.7462 0.446603 -7.00678 0
M  V30 661 H 63.5862 -1.05632 -2.7865 0
M  V30 662 H 61.1232 -0.532413 -1.37127 0
M  V30 663 H 63.0812 1.09129 -4.02675 0
M  V30 664 H 61.7112 1.37392 -2.92102 0
M  V30 665 H 60.7632 -0.920276 -3.691 0
M  V30 666 H 62.0752 -0.992661 -4.88823 0
M  V30 667 H 61.2292 1.102 -5.96608 0
M  V30 668 H 59.9682 1.26157 -4.71101 0
M  V30 669 H 58.9732 -0.932047 -5.41842 0
M  V30 670 H 60.1982 -1.07755 -6.70497 0
M  V30 671 H 58.1442 1.15282 -6.45791 0
M  V30 672 H 58.0612 -0.184048 -7.55776 0
M  V30 673 H 59.3292 0.992352 -7.73158 0
M  V30 674 N 63.5583 1.46682 -0.576371 0
M  V30 675 C 64.5213 2.28707 0.150239 0
M  V30 676 C 65.5213 1.38035 0.824794 0
M  V30 677 O 66.7113 1.60476 0.677719 0
M  V30 678 C 63.8433 3.18248 1.22192 0
M  V30 679 H 65.0363 2.94423 -0.570521 0
M  V30 680 H 62.5893 1.52688 -0.334078 0
M  V30 681 H 63.3243 2.57265 1.97447 0
M  V30 682 H 63.1093 3.85 0.742812 0
M  V30 683 H 64.5993 3.80001 1.73172 0
M  V30 684 N 65.0364 0.313813 1.54444 0
M  V30 685 C 66.2644 -0.293918 2.04802 0
M  V30 686 C 66.6794 -1.46537 1.19047 0
M  V30 687 O 66.0364 -1.81182 0.218939 0
M  V30 688 C 66.0874 -0.737806 3.53891 0
M  V30 689 O 65.8084 0.387038 4.36387 0
M  V30 690 C 67.3094 -1.40936 4.203 0
M  V30 691 H 64.5294 -0.0620057 0.668129 0
M  V30 692 H 67.0734 0.457169 1.99324 0
M  V30 693 H 65.2284 -1.43889 3.59687 0
M  V30 694 H 65.6424 0.0391274 5.24485 0
M  V30 695 H 67.1164 -1.67099 5.26101 0
M  V30 696 H 67.5934 -2.35355 3.70816 0
M  V30 697 H 68.1994 -0.751117 4.18615 0
M  V30 698 N 66.5145 -1.57545 0.0417849 0
M  V30 699 C 67.7625 -1.91937 -0.632829 0
M  V30 700 C 68.0835 -0.919978 -1.71934 0
M  V30 701 O 67.3535 0.0366064 -1.95866 0
M  V30 702 H 65.9335 -0.708493 -0.236742 0
M  V30 703 H 68.5955 -1.9468 0.0925745 0
M  V30 704 H 67.6915 -2.92912 -1.07746 0
M  V30 705 N 67.9926 0.231505 -1.5589 0
M  V30 706 C 68.9396 1.28682 -1.91598 0
M  V30 707 C 69.9096 1.47071 -0.771974 0
M  V30 708 O 71.0946 1.60802 -1.027 0
M  V30 709 C 68.2346 2.6342 -2.22944 0
M  V30 710 C 67.3476 2.52912 -3.50228 0
M  V30 711 C 66.4826 3.80106 -3.7107 0
M  V30 712 C 65.5216 3.64279 -4.91902 0
M  V30 713 N 64.6586 4.834 -5.09184 0
M  V30 714 H 69.4986 0.975305 -2.81588 0
M  V30 715 H 67.0356 0.470299 -1.39379 0
M  V30 716 H 68.9936 3.41869 -2.39126 0
M  V30 717 H 67.6236 2.92687 -1.36139 0
M  V30 718 H 66.6756 1.6595 -3.42294 0
M  V30 719 H 67.9876 2.37133 -4.38827 0
M  V30 720 H 67.1416 4.66999 -3.87295 0
M  V30 721 H 65.8806 3.98799 -2.80733 0
M  V30 722 H 64.8856 2.7577 -4.75637 0
M  V30 723 H 66.1106 3.47067 -5.83714 0
M  V30 724 H 64.0566 5.02425 -4.21788 0
M  V30 725 H 63.9736 4.70311 -5.91898 0
M  V30 726 H 65.2416 5.71747 -5.29835 0
M  V30 727 N 69.4707 1.49531 0.497807 0
M  V30 728 C 70.4007 1.6935 1.60757 0
M  V30 729 C 71.3817 0.542218 1.61227 0
M  V30 730 O 72.5667 0.778417 1.77917 0
M  V30 731 C 69.6967 1.76298 2.99226 0
M  V30 732 C 68.6507 2.91248 3.13622 0
M  V30 733 C 67.9767 2.83312 4.53474 0
M  V30 734 C 69.2767 4.3214 2.93346 0
M  V30 735 H 70.9707 2.62263 1.44425 0
M  V30 736 H 68.5167 1.26208 0.693367 0
M  V30 737 H 70.4697 1.88749 3.76765 0
M  V30 738 H 69.1937 0.799871 3.16654 0
M  V30 739 H 67.8527 2.78404 2.38509 0
M  V30 740 H 67.5007 1.84902 4.67782 0
M  V30 741 H 67.2007 3.60465 4.64046 0
M  V30 742 H 68.7247 2.97775 5.33069 0
M  V30 743 H 70.1387 4.45649 3.60652 0
M  V30 744 H 68.5357 5.1054 3.15387 0
M  V30 745 H 69.6057 4.46363 1.89441 0
M  V30 746 N 70.9488 -0.749086 1.3866 0
M  V30 747 C 72.1958 -1.50833 1.35114 0
M  V30 748 C 72.5238 -1.94415 -0.0574049 0
M  V30 749 O 71.7788 -1.66065 -1.03541 0
M  V30 750 C 72.0778 -2.7712 2.25697 0
M  V30 751 C 71.7438 -2.52477 3.73585 0
M  V30 752 C 70.4058 -2.45466 4.13884 0
M  V30 753 C 72.7578 -2.31066 4.67181 0
M  V30 754 C 70.0858 -2.15064 5.45861 0
M  V30 755 C 72.4378 -2.02183 5.9942 0
M  V30 756 C 71.1018 -1.93631 6.38798 0
M  V30 757 H 70.3718 -0.551936 0.494416 0
M  V30 758 H 73.0188 -0.860979 1.71054 0
M  V30 759 H 71.3238 -3.46528 1.82827 0
M  V30 760 H 73.0208 -3.35096 2.20254 0
M  V30 761 H 69.6108 -2.58807 3.41638 0
M  V30 762 H 73.7948 -2.35459 4.3689 0
M  V30 763 H 69.0508 -2.06954 5.75308 0
M  V30 764 H 73.2248 -1.8462 6.71482 0
M  V30 765 H 70.8518 -1.69839 7.40985 0
M  V30 766 N 72.4269 -1.23603 -0.977757 0
M  V30 767 C 73.3899 -1.02069 -2.05218 0
M  V30 768 C 74.3899 0.0184305 -1.60789 0
M  V30 769 O 75.5799 -0.221569 -1.72785 0
M  V30 770 C 72.7119 -0.544926 -3.36517 0
M  V30 771 H 73.9049 -1.9742 -2.25755 0
M  V30 772 H 71.4579 -1.05684 -1.15155 0
M  V30 773 H 72.1929 0.412241 -3.21669 0
M  V30 774 H 71.9779 -1.2948 -3.70105 0
M  V30 775 H 73.4679 -0.414985 -4.15533 0
M  V30 776 N 73.905 1.17692 -1.04816 0
M  V30 777 C 75.151 1.88137 -0.75711 0
M  V30 778 C 75.484 1.80604 0.713841 0
M  V30 779 O 74.759 1.21146 1.52164 0
M  V30 780 C 75.042 3.38318 -1.2334 0
M  V30 781 C 74.895 3.54622 -2.76701 0
M  V30 782 C 76.214 4.32214 -0.829415 0
M  V30 783 H 73.333 0.683163 -0.27651 0
M  V30 784 H 75.975 1.38424 -1.30149 0
M  V30 785 H 74.125 3.80787 -0.770286 0
M  V30 786 H 75.797 3.21194 -3.31107 0
M  V30 787 H 74.04 2.97026 -3.16161 0
M  V30 788 H 74.711 4.60028 -3.05088 0
M  V30 789 H 77.187 3.97565 -1.22805 0
M  V30 790 H 76.063 5.35838 -1.19033 0
M  V30 791 H 76.324 4.41294 0.266891 0
M  V30 792 N 75.3831 0.828654 1.34056 0
M  V30 793 C 76.3301 0.252567 2.29414 0
M  V30 794 C 77.3001 -0.62588 1.53857 0
M  V30 795 O 78.4851 -0.566312 1.82202 0
M  V30 796 C 75.6251 -0.574831 3.40279 0
M  V30 797 C 74.7381 0.326499 4.30764 0
M  V30 798 C 73.8731 -0.511016 5.28736 0
M  V30 799 C 72.9121 0.389342 6.1086 0
M  V30 800 N 72.0491 -0.409439 7.00905 0
M  V30 801 H 76.8891 1.07108 2.78086 0
M  V30 802 H 74.4261 0.539677 1.36843 0
M  V30 803 H 76.3841 -1.06992 4.03248 0
M  V30 804 H 75.0141 -1.35841 2.92826 0
M  V30 805 H 74.0661 0.939837 3.68607 0
M  V30 806 H 75.3781 1.01857 4.88289 0
M  V30 807 H 74.5321 -1.07035 5.97184 0
M  V30 808 H 73.2711 -1.23657 4.71763 0
M  V30 809 H 72.2761 0.960769 5.4134 0
M  V30 810 H 73.5011 1.1131 6.69916 0
M  V30 811 H 71.4471 -1.11856 6.46393 0
M  V30 812 H 71.3641 0.224126 7.55668 0
M  V30 813 H 72.6321 -0.951336 7.73673 0
M  V30 814 N 76.8612 -1.46375 0.584142 0
M  V30 815 C 78.1012 -2.0427 0.0729695 0
M  V30 816 C 78.4652 -1.44563 -1.26355 0
M  V30 817 O 79.6662 -1.93667 -1.86405 0
M  V30 818 C 77.9372 -3.57399 0.00967464 0
M  V30 819 S 79.4962 -4.36551 -0.443714 0
M  V30 820 H 76.3142 -0.709975 0.0381673 0
M  V30 821 H 78.9162 -1.79398 0.776962 0
M  V30 822 H 77.6202 -3.98372 0.986319 0
M  V30 823 H 77.1512 -3.8681 -0.717044 0
M  V30 824 H 79.1662 -4.66237 -1.69816 0
M  V30 825 N 78.3393 -0.321999 -1.54275 0
M  V30 826 C 79.5883 0.281931 -1.9972 0
M  V30 827 C 79.9013 1.53369 -1.21397 0
M  V30 828 O 81.1073 2.21352 -1.57211 0
M  V30 829 C 79.5633 0.5529 -3.55628 0
M  V30 830 C 79.1713 -0.681721 -4.42783 0
M  V30 831 C 80.9153 1.11687 -4.09544 0
M  V30 832 C 78.8223 -0.382742 -5.9016 0
M  V30 833 H 77.7523 0.109124 -0.746062 0
M  V30 834 H 80.4033 -0.43398 -1.78294 0
M  V30 835 H 78.7853 1.32896 -3.73035 0
M  V30 836 H 79.9593 -1.45723 -4.37151 0
M  V30 837 H 78.2743 -1.1658 -3.99748 0
M  V30 838 H 80.8713 1.35515 -5.17242 0
M  V30 839 H 81.2143 2.06575 -3.61431 0
M  V30 840 H 81.7473 0.402032 -3.95763 0
M  V30 841 H 78.4863 -1.30076 -6.42464 0
M  V30 842 H 78.0063 0.355094 -5.98748 0
M  V30 843 H 79.6853 0.00800157 -6.47 0
M  V30 844 N 79.8174 1.5752 -0.0501392 0
M  V30 845 C 81.2284 1.80271 0.485705 0
M  V30 846 C 81.5794 0.96228 1.70981 0
M  V30 847 O 80.7044 0.178578 2.15662 0
M  V30 848 C 81.2994 3.26957 0.887938 0
M  V30 849 C 79.8584 3.5063 1.36877 0
M  V30 850 C 79.0054 2.75165 0.343468 0
M  V30 851 H 81.9564 1.56281 -0.276028 0
M  V30 852 H 81.9774 3.37821 1.75093 0
M  V30 853 H 81.4894 3.881 -0.0031809 0
M  V30 854 H 79.5904 2.94766 2.27911 0
M  V30 855 H 79.7034 4.59343 1.36164 0
M  V30 856 H 78.0674 2.4127 0.816128 0
M  V30 857 H 78.8504 3.39034 -0.539548 0
M  V30 858 N 81.2955 -0.223234 1.56011 0
M  V30 859 C 82.2425 -1.27664 1.92277 0
M  V30 860 C 83.2125 -1.46659 0.779763 0
M  V30 861 O 84.3975 -1.60256 1.03551 0
M  V30 862 C 81.5375 -2.62234 2.24338 0
M  V30 863 C 80.6505 -2.51051 3.51564 0
M  V30 864 C 79.7855 -3.78133 3.7308 0
M  V30 865 C 78.8245 -3.61665 4.93827 0
M  V30 866 N 77.9615 -4.80693 5.11741 0
M  V30 867 H 82.8015 -0.960358 2.82101 0
M  V30 868 H 80.3385 -0.462901 1.39627 0
M  V30 869 H 82.2965 -3.40596 2.40936 0
M  V30 870 H 80.9265 -2.91961 1.3769 0
M  V30 871 H 79.9785 -1.64132 3.43169 0
M  V30 872 H 81.2905 -2.34803 4.40079 0
M  V30 873 H 80.4445 -4.64938 3.89766 0
M  V30 874 H 79.1835 -3.97304 2.82844 0
M  V30 875 H 78.1885 -2.73244 4.77093 0
M  V30 876 H 79.4135 -3.43966 5.85546 0
M  V30 877 H 77.3595 -5.00181 4.24446 0
M  V30 878 H 77.2765 -4.67165 5.94384 0
M  V30 879 H 78.5445 -5.6893 5.3286 0
M  V30 880 N 82.7736 -1.49793 -0.48987 0
M  V30 881 C 83.7206 -1.67281 -1.59014 0
M  V30 882 C 84.6906 -0.514177 -1.57941 0
M  V30 883 O 85.8756 -0.742533 -1.75759 0
M  V30 884 C 83.0156 -1.75569 -2.97102 0
M  V30 885 C 82.1286 -3.0281 -3.08107 0
M  V30 886 C 81.2636 -3.02008 -4.36995 0
M  V30 887 C 80.3026 -4.23782 -4.41673 0
M  V30 888 N 79.4396 -4.20826 -5.62005 0
M  V30 889 H 84.2796 -2.61224 -1.43409 0
M  V30 890 H 81.8166 -1.29508 -0.697565 0
M  V30 891 H 83.7746 -1.78354 -3.77155 0
M  V30 892 H 82.4046 -0.850827 -3.11385 0
M  V30 893 H 81.4566 -3.09584 -2.21047 0
M  V30 894 H 82.7686 -3.92801 -3.07423 0
M  V30 895 H 81.9226 -3.03418 -5.25378 0
M  V30 896 H 80.6616 -2.09815 -4.4026 0
M  V30 897 H 79.6666 -4.22604 -3.5169 0
M  V30 898 H 80.8916 -5.17181 -4.40115 0
M  V30 899 H 78.8376 -3.31476 -5.66091 0
M  V30 900 H 78.7546 -5.04564 -5.62984 0
M  V30 901 H 80.0226 -4.26355 -6.52565 0
M  V30 902 N 84.2517 0.741722 -1.39055 0
M  V30 903 C 85.2147 1.83733 -1.37021 0
M  V30 904 C 86.2147 1.58542 -0.268534 0
M  V30 905 O 87.4047 1.66067 -0.526076 0
M  V30 906 C 84.5367 3.2141 -1.13617 0
M  V30 907 H 85.7297 1.86941 -2.34506 0
M  V30 908 H 83.2827 0.944676 -1.24521 0
M  V30 909 H 84.0177 3.23865 -0.167863 0
M  V30 910 H 83.8027 3.4109 -1.93391 0
M  V30 911 H 85.2927 4.01477 -1.14918 0
M  V30 912 N 85.7298 1.2412 0.971189 0
M  V30 913 C 86.6598 1.05508 2.08304 0
M  V30 914 C 87.6408 -0.0308864 1.70072 0
M  V30 915 O 88.8258 0.135521 1.93727 0
M  V30 916 C 85.9558 0.655365 3.4106 0
M  V30 917 C 84.9098 1.68971 3.93234 0
M  V30 918 C 84.2358 1.14516 5.22293 0
M  V30 919 C 85.5358 3.08487 4.21465 0
M  V30 920 H 87.2298 1.98507 2.24132 0
M  V30 921 H 84.7758 0.955821 1.07704 0
M  V30 922 H 86.7288 0.51217 4.18276 0
M  V30 923 H 85.4528 -0.31032 3.25122 0
M  V30 924 H 84.1118 1.82106 3.18171 0
M  V30 925 H 83.7598 0.170189 5.02712 0
M  V30 926 H 83.4598 1.83635 5.58168 0
M  V30 927 H 84.9838 1.01401 6.02121 0
M  V30 928 H 86.3978 2.98601 4.89398 0
M  V30 929 H 84.7948 3.74926 4.68562 0
M  V30 930 H 85.8648 3.56787 3.28376 0
M  V30 931 N 87.2079 -1.17134 1.05439 0
M  V30 932 C 88.1549 -2.21235 0.657539 0
M  V30 933 C 89.1249 -1.62551 -0.341543 0
M  V30 934 O 90.3099 -1.89379 -0.232393 0
M  V30 935 C 87.4499 -3.45076 0.0410575 0
M  V30 936 C 86.5629 -4.18042 1.08927 0
M  V30 937 C 85.6979 -5.29376 0.439848 0
M  V30 938 C 84.7369 -5.94132 1.4722 0
M  V30 939 N 83.8739 -6.96975 0.846756 0
M  V30 940 H 88.7139 -2.54534 1.54972 0
M  V30 941 H 86.2509 -1.25028 0.775006 0
M  V30 942 H 88.2089 -4.15862 -0.33383 0
M  V30 943 H 86.8389 -3.12353 -0.814568 0
M  V30 944 H 85.8909 -3.45945 1.58196 0
M  V30 945 H 87.2029 -4.62306 1.87282 0
M  V30 946 H 86.3569 -6.06699 0.0115125 0
M  V30 947 H 85.0959 -4.86251 -0.375656 0
M  V30 948 H 84.1009 -5.15538 1.91052 0
M  V30 949 H 85.3259 -6.39337 2.28965 0
M  V30 950 H 83.2719 -6.5598 0.0518075 0
M  V30 951 H 83.1889 -7.39565 1.5678 0
M  V30 952 H 84.4569 -7.78239 0.443277 0
M  V30 953 N 88.686 -0.835752 -1.33615 0
M  V30 954 C 89.934 -0.429109 -1.97492 0
M  V30 955 C 90.255 1.01433 -1.66543 0
M  V30 956 O 89.525 1.70611 -0.962744 0
M  V30 957 H 88.105 -0.155686 -0.730596 0
M  V30 958 H 90.767 -1.06802 -1.63031 0
M  V30 959 H 89.863 -0.55861 -3.0706 0
M  V30 960 N 90.1641 1.46063 -0.591896 0
M  V30 961 C 91.1111 2.30399 0.136069 0
M  V30 962 C 92.0811 1.41169 0.875238 0
M  V30 963 O 93.2661 1.70112 0.86409 0
M  V30 964 C 90.4061 3.25804 1.13781 0
M  V30 965 C 89.5191 4.30134 0.401137 0
M  V30 966 C 88.6541 5.12659 1.39121 0
M  V30 967 C 87.6931 6.0873 0.641462 0
M  V30 968 N 86.8301 6.8409 1.58004 0
M  V30 969 H 91.6701 2.92118 -0.589144 0
M  V30 970 H 89.2071 1.43959 -0.302342 0
M  V30 971 H 91.1651 3.79569 1.73156 0
M  V30 972 H 89.7951 2.65872 1.83062 0
M  V30 973 H 88.8471 3.79152 -0.307826 0
M  V30 974 H 90.1591 4.98458 -0.184565 0
M  V30 975 H 89.3131 5.70747 2.05749 0
M  V30 976 H 88.0521 4.44316 2.01084 0
M  V30 977 H 87.0571 5.49786 -0.0385419 0
M  V30 978 H 88.2821 6.79095 0.0270945 0
M  V30 979 H 86.2281 6.18449 2.18761 0
M  V30 980 H 86.1451 7.48709 1.04738 0
M  V30 981 H 87.4131 7.4673 2.23639 0
M  V30 982 N 91.6422 0.330177 1.54103 0
M  V30 983 C 92.5522 -0.541534 2.28264 0
M  V30 984 C 93.5682 -1.12351 1.32866 0
M  V30 985 O 94.7442 -1.14206 1.65888 0
M  V30 986 C 91.8092 -1.68322 3.03098 0
M  V30 987 C 90.8702 -1.13238 4.14096 0
M  V30 988 C 90.1032 -2.21966 4.85352 0
M  V30 989 O 90.3262 -3.42437 4.56172 0
M  V30 990 O 89.2602 -1.87013 5.7211 0
M  V30 991 H 93.0862 0.060938 3.03639 0
M  V30 992 H 90.6712 0.09565 1.49093 0
M  V30 993 H 92.5532 -2.34777 3.49939 0
M  V30 994 H 91.2282 -2.27176 2.30593 0
M  V30 995 H 90.1352 -0.432736 3.71589 0
M  V30 996 H 91.4682 -0.588898 4.88664 0
M  V30 997 N 93.1203 -1.57491 0.0584922 0
M  V30 998 C 94.3453 -1.97711 -0.62652 0
M  V30 999 C 94.7703 -0.936132 -1.63151 0
M  V30 1000 O 94.1283 0.099811 -1.81025 0
M  V30 1001 C 94.1763 -3.36989 -1.28338 0
M  V30 1002 O 93.2803 -3.35433 -2.39913 0
M  V30 1003 H 92.6213 -0.643868 -0.162266 0
M  V30 1004 H 95.1513 -2.04193 0.129064 0
M  V30 1005 H 95.1613 -3.73879 -1.63335 0
M  V30 1006 H 93.8363 -4.12289 -0.546889 0
M  V30 1007 H 92.4133 -3.10298 -2.06809 0
M  V30 1008 N 94.5984 0.214957 -1.56127 0
M  V30 1009 C 95.8234 0.95924 -1.83884 0
M  V30 1010 C 96.2484 1.7689 -0.639644 0
M  V30 1011 O 95.6064 1.76566 0.411601 0
M  V30 1012 C 95.6544 1.84723 -3.09693 0
M  V30 1013 O 94.7584 2.94346 -2.8885 0
M  V30 1014 H 94.0994 0.27125 -0.606069 0
M  V30 1015 H 96.6294 0.226276 -2.03345 0
M  V30 1016 H 96.6394 2.25576 -3.39969 0
M  V30 1017 H 95.3144 1.25218 -3.96602 0
M  V30 1018 H 93.8914 2.57391 -2.69823 0
M  V30 1019 N 96.0765 1.50051 0.48192 0
M  V30 1020 C 97.3255 1.59741 1.23149 0
M  V30 1021 C 97.6385 0.298163 1.93314 0
M  V30 1022 O 98.8445 0.273835 2.70116 0
M  V30 1023 C 97.3005 2.81926 2.23708 0
M  V30 1024 C 96.9085 4.18685 1.59396 0
M  V30 1025 C 98.6525 3.00956 2.99375 0
M  V30 1026 C 96.5595 5.3207 2.58178 0
M  V30 1027 H 95.4895 0.594838 0.46334 0
M  V30 1028 H 98.1405 1.76467 0.503169 0
M  V30 1029 H 96.5225 2.58736 2.99786 0
M  V30 1030 H 97.6965 4.52088 0.891811 0
M  V30 1031 H 96.0115 4.05171 0.960503 0
M  V30 1032 H 98.6085 3.82836 3.73283 0
M  V30 1033 H 98.9515 2.12258 3.58123 0
M  V30 1034 H 99.4845 3.24277 2.30411 0
M  V30 1035 H 96.2235 6.22888 2.04184 0
M  V30 1036 H 95.7435 5.03098 3.26577 0
M  V30 1037 H 97.4225 5.62196 3.20225 0
M  V30 1038 N 97.5546 -0.734337 1.39446 0
M  V30 1039 C 98.4646 -1.87879 1.40495 0
M  V30 1040 C 99.4806 -1.714 0.299672 0
M  V30 1041 O 100.657 -1.93991 0.541249 0
M  V30 1042 C 97.7216 -3.23477 1.24754 0
M  V30 1043 C 96.7826 -3.52344 2.45259 0
M  V30 1044 C 96.0156 -4.81473 2.30259 0
M  V30 1045 O 96.2386 -5.55237 1.30643 0
M  V30 1046 O 95.1726 -5.10254 3.19256 0
M  V30 1047 H 98.9986 -1.89949 2.36966 0
M  V30 1048 H 96.5836 -0.882243 1.20569 0
M  V30 1049 H 98.4656 -4.04509 1.18111 0
M  V30 1050 H 97.1406 -3.22176 0.313781 0
M  V30 1051 H 96.0476 -2.71396 2.57478 0
M  V30 1052 H 97.3806 -3.58426 3.37331 0
M  V30 1053 N 99.0327 -1.24633 -0.964593 0
M  V30 1054 C 99.9807 -1.03917 -2.08096 0
M  V30 1055 C 100.975 0.0268581 -1.69379 0
M  V30 1056 O 102.181 -0.127952 -1.79545 0
M  V30 1057 H 98.5557 -0.319044 -0.680966 0
M  V30 1058 H 100.527 -1.98581 -2.22729 0
M  V30 1059 C 99.2757 -0.663983 -3.41301 0
M  V30 1060 H 98.5987 -1.47605 -3.71555 0
M  V30 1061 H 100.039 -0.558663 -4.20303 0
M  V30 1062 C 98.4977 0.629169 -3.30973 0
M  V30 1063 O 99.0277 1.67404 -3.65156 0
M  V30 1064 N 97.2337 0.611057 -2.84103 0
M  V30 1065 H 96.7807 -0.239593 -2.56483 0
M  V30 1066 H 96.7387 1.47647 -2.77575 0
M  V30 1067 N 100.511 1.16574 -1.06058 0
M  V30 1068 C 101.421 2.2452 -0.680282 0
M  V30 1069 C 102.437 1.71348 0.302604 0
M  V30 1070 O 103.613 2.00822 0.152513 0
M  V30 1071 C 100.678 3.46629 -0.0700315 0
M  V30 1072 C 99.7388 4.14849 -1.10448 0
M  V30 1073 C 98.9718 5.31129 -0.523256 0
M  V30 1074 O 99.1948 5.66514 0.664709 0
M  V30 1075 O 98.1288 5.88526 -1.26179 0
M  V30 1076 H 101.955 2.59355 -1.58015 0
M  V30 1077 H 99.5398 1.24043 -0.832694 0
M  V30 1078 H 101.422 4.20543 0.268667 0
M  V30 1079 H 100.097 3.13573 0.803353 0
M  V30 1080 H 99.0038 3.42916 -1.49532 0
M  V30 1081 H 100.337 4.51954 -1.94931 0
M  V30 1082 N 101.989 0.842826 1.3317 0
M  V30 1083 C 103.238 0.436738 1.96915 0
M  V30 1084 C 103.551 -1.01025 1.67491 0
M  V30 1085 O 104.757 -1.5212 2.24881 0
M  V30 1086 C 103.213 0.730021 3.52418 0
M  V30 1087 C 102.821 2.19195 3.90714 0
M  V30 1088 C 104.565 0.391076 4.22695 0
M  V30 1089 C 102.472 2.42907 5.39212 0
M  V30 1090 H 101.402 0.15958 0.736919 0
M  V30 1091 H 104.053 1.03196 1.51733 0
M  V30 1092 H 102.435 0.0643755 3.95948 0
M  V30 1093 H 103.609 2.8984 3.58231 0
M  V30 1094 H 101.924 2.49425 3.33431 0
M  V30 1095 H 104.521 0.545817 5.31907 0
M  V30 1096 H 104.864 -0.666294 4.10933 0
M  V30 1097 H 105.397 1.01212 3.84709 0
M  V30 1098 H 102.136 3.47224 5.55982 0
M  V30 1099 H 101.656 1.76827 5.73142 0
M  V30 1100 H 103.335 2.2626 6.06148 0
M  V30 1101 N 103.467 -1.45747 0.599634 0
M  V30 1102 C 104.43 -2.28917 -0.113835 0
M  V30 1103 C 105.43 -1.3933 -0.802729 0
M  V30 1104 O 106.62 -1.61534 -0.652103 0
M  V30 1105 C 103.752 -3.20152 -1.17114 0
M  V30 1106 H 104.945 -2.93478 0.617289 0
M  V30 1107 H 102.498 -1.52137 0.358327 0
M  V30 1108 H 103.233 -2.60374 -1.93329 0
M  V30 1109 H 103.018 -3.86133 -0.681468 0
M  V30 1110 H 104.508 -3.82708 -1.67105 0
M  V30 1111 N 104.945 -0.338344 -1.53925 0
M  V30 1112 C 106.191 0.260143 -2.01125 0
M  V30 1113 C 106.524 1.50617 -1.22589 0
M  V30 1114 O 105.799 1.91979 -0.312113 0
M  V30 1115 C 106.082 0.579499 -3.55407 0
M  V30 1116 C 105.935 -0.678264 -4.44657 0
M  V30 1117 C 107.254 1.39122 -4.17532 0
M  V30 1118 H 104.373 0.0930772 -0.731099 0
M  V30 1119 H 107.015 -0.457852 -1.84401 0
M  V30 1120 H 105.165 1.19118 -3.69788 0
M  V30 1121 H 106.837 -1.31631 -4.42121 0
M  V30 1122 H 105.08 -1.3042 -4.13731 0
M  V30 1123 H 105.751 -0.410143 -5.50474 0
M  V30 1124 H 108.227 0.874035 -4.06817 0
M  V30 1125 H 107.103 1.58342 -5.25565 0
M  V30 1126 H 107.364 2.39178 -3.71815 0
M  V30 1127 N 106.423 1.57458 -0.0668435 0
M  V30 1128 C 107.353 2.15468 0.899764 0
M  V30 1129 C 108.334 1.08042 1.31381 0
M  V30 1130 O 109.519 1.36054 1.38574 0
M  V30 1131 C 106.649 2.71232 2.16911 0
M  V30 1132 C 105.603 3.83781 1.89463 0
M  V30 1133 C 104.929 4.26127 3.22986 0
M  V30 1134 C 106.229 5.08238 1.20381 0
M  V30 1135 H 107.923 2.96488 0.416529 0
M  V30 1136 H 105.469 1.4262 0.198908 0
M  V30 1137 H 107.422 3.10458 2.84945 0
M  V30 1138 H 106.146 1.87426 2.67468 0
M  V30 1139 H 104.805 3.45051 1.23836 0
M  V30 1140 H 104.453 3.39249 3.71374 0
M  V30 1141 H 104.153 5.01993 3.05413 0
M  V30 1142 H 105.677 4.67966 3.92225 0
M  V30 1143 H 107.091 5.44811 1.78475 0
M  V30 1144 H 105.488 5.89349 1.13083 0
M  V30 1145 H 106.558 4.84558 0.182153 0
M  V30 1146 N 107.901 -0.206675 1.56239 0
M  V30 1147 C 109.317 -0.557025 1.49564 0
M  V30 1148 C 109.517 -1.86424 0.764735 0
M  V30 1149 O 108.573 -2.50584 0.310491 0
M  V30 1150 C 109.886 -0.622478 2.94186 0
M  V30 1151 C 111.434 -0.712099 3.04792 0
M  V30 1152 C 111.909 -0.808767 4.50803 0
M  V30 1153 N 113.4 -0.8726 4.54907 0
M  V30 1154 C 114.135 -0.967365 5.65181 0
M  V30 1155 N 113.631 -1.02515 6.85173 0
M  V30 1156 N 115.424 -1.00366 5.53067 0
M  V30 1157 H 107.575 0.650943 2.02179 0
M  V30 1158 H 109.838 0.230387 0.919579 0
M  V30 1159 H 109.544 0.268727 3.50672 0
M  V30 1160 H 109.418 -1.4811 3.46905 0
M  V30 1161 H 111.805 -1.59374 2.48363 0
M  V30 1162 H 111.886 0.172489 2.55218 0
M  V30 1163 H 111.53 0.0684754 5.07854 0
M  V30 1164 H 111.46 -1.70899 4.98098 0
M  V30 1165 H 113.951 -0.837657 3.68499 0
M  V30 1166 H 114.264 -1.09765 7.64965 0
M  V30 1167 H 112.609 -0.994026 6.87855 0
M  V30 1168 H 115.8 -0.95527 4.58249 0
M  V30 1169 H 115.973 -1.07405 6.39037 0
M  V30 1170 N 109.379 -1.50304 -0.473955 0
M  V30 1171 C 110.326 -1.68959 -1.57231 0
M  V30 1172 C 111.296 -0.530899 -1.57387 0
M  V30 1173 O 112.481 -0.761133 -1.74961 0
M  V30 1174 C 109.621 -1.7871 -2.95223 0
M  V30 1175 C 108.734 -3.06061 -3.04878 0
M  V30 1176 C 107.869 -3.06626 -4.33767 0
M  V30 1177 C 106.908 -4.28443 -4.37154 0
M  V30 1178 N 106.045 -4.26763 -5.5751 0
M  V30 1179 H 110.885 -2.6273 -1.40631 0
M  V30 1180 H 108.422 -1.30241 -0.683789 0
M  V30 1181 H 110.38 -1.82344 -3.75242 0
M  V30 1182 H 109.01 -0.883806 -3.10465 0
M  V30 1183 H 108.062 -3.11911 -2.17751 0
M  V30 1184 H 109.374 -3.96039 -3.0324 0
M  V30 1185 H 108.528 -3.08973 -5.22131 0
M  V30 1186 H 107.267 -2.14473 -4.3801 0
M  V30 1187 H 106.272 -4.2631 -3.47188 0
M  V30 1188 H 107.497 -5.2182 -4.34605 0
M  V30 1189 H 105.443 -3.37462 -5.62544 0
M  V30 1190 H 105.36 -5.10507 -5.57601 0
M  V30 1191 H 106.628 -4.33253 -6.48006 0
M  V30 1192 N 110.857 0.726932 -1.39834 0
M  V30 1193 C 112.106 1.48214 -1.36805 0
M  V30 1194 C 112.419 1.95576 0.0305291 0
M  V30 1195 O 113.625 2.7088 0.183417 0
M  V30 1196 C 112.081 2.67854 -2.40379 0
M  V30 1197 C 111.689 2.27408 -3.85992 0
M  V30 1198 C 113.433 3.45641 -2.46439 0
M  V30 1199 C 111.34 3.43819 -4.81189 0
M  V30 1200 H 110.27 0.556606 -0.508631 0
M  V30 1201 H 112.921 0.792216 -1.65518 0
M  V30 1202 H 111.303 3.3896 -2.04749 0
M  V30 1203 H 112.477 1.63795 -4.30706 0
M  V30 1204 H 110.792 1.62692 -3.83302 0
M  V30 1205 H 113.389 4.32244 -3.14753 0
M  V30 1206 H 113.732 3.88669 -1.49139 0
M  V30 1207 H 114.265 2.8157 -2.81004 0
M  V30 1208 H 111.004 3.05834 -5.79781 0
M  V30 1209 H 110.524 4.06385 -4.41148 0
M  V30 1210 H 112.203 4.10043 -5.00474 0
M  V30 1211 N 112.336 1.25143 0.95797 0
M  V30 1212 C 113.283 1.05235 2.05412 0
M  V30 1213 C 114.253 -0.0374561 1.66058 0
M  V30 1214 O 115.438 0.119073 1.90428 0
M  V30 1215 C 112.578 0.673589 3.38462 0
M  V30 1216 C 111.691 1.8379 3.90954 0
M  V30 1217 C 110.826 1.40381 5.12315 0
M  V30 1218 C 109.865 2.53746 5.57027 0
M  V30 1219 N 109.002 2.11136 6.69601 0
M  V30 1220 H 113.842 1.99048 2.21774 0
M  V30 1221 H 111.379 0.991277 1.08683 0
M  V30 1222 H 113.337 0.434964 4.14926 0
M  V30 1223 H 111.967 -0.227554 3.21997 0
M  V30 1224 H 111.019 2.18992 3.11041 0
M  V30 1225 H 112.331 2.68937 4.20089 0
M  V30 1226 H 111.485 1.12464 5.96185 0
M  V30 1227 H 110.224 0.523015 4.84887 0
M  V30 1228 H 109.229 2.82412 4.71724 0
M  V30 1229 H 110.454 3.42398 5.86464 0
M  V30 1230 H 108.4 1.25468 6.4389 0
M  V30 1231 H 108.317 2.89832 6.98236 0
M  V30 1232 H 109.585 1.86385 7.56889 0
M  V30 1233 N 113.814 -1.1601 1.06675 0
M  V30 1234 C 114.764 -2.18512 0.650888 0
M  V30 1235 C 115.748 -1.57677 -0.320441 0
M  V30 1236 O 116.94 -1.76482 -0.135266 0
M  V30 1237 C 114.069 -3.43273 0.0429255 0
M  V30 1238 C 113.155 -4.11176 1.03898 0
M  V30 1239 N 113.546 -4.54672 2.216 0
M  V30 1240 C 111.844 -4.37417 0.870779 0
M  V30 1241 C 112.545 -5.07248 2.84736 0
M  V30 1242 N 111.521 -5.0037 2.12441 0
M  V30 1243 H 115.323 -2.49863 1.54745 0
M  V30 1244 H 112.837 -1.32503 0.938975 0
M  V30 1245 H 114.834 -4.16006 -0.272857 0
M  V30 1246 H 113.494 -3.13408 -0.84884 0
M  V30 1247 H 114.505 -4.4828 2.59356 0
M  V30 1248 H 111.182 -4.17488 0.0313293 0
M  V30 1249 H 112.572 -5.50912 3.84636 0
M  V30 1250 N 115.292 -0.849877 -1.32721 0
M  V30 1251 C 116.202 -0.293791 -2.32753 0
M  V30 1252 C 117.218 0.585906 -1.63839 0
M  V30 1253 O 118.394 0.487413 -1.95413 0
M  V30 1254 C 115.459 0.512752 -3.42887 0
M  V30 1255 C 114.52 -0.39252 -4.27502 0
M  V30 1256 C 113.753 0.375625 -5.32377 0
M  V30 1257 O 113.976 1.60613 -5.4732 0
M  V30 1258 O 112.91 -0.256094 -6.01355 0
M  V30 1259 H 116.736 -1.12242 -2.82197 0
M  V30 1260 H 114.321 -0.612685 -1.36259 0
M  V30 1261 H 116.203 0.970704 -4.10067 0
M  V30 1262 H 114.878 1.31826 -2.95641 0
M  V30 1263 H 113.785 -0.898547 -3.63149 0
M  V30 1264 H 115.118 -1.16309 -4.7826 0
M  V30 1265 N 116.77 1.45427 -0.607355 0
M  V30 1266 C 117.718 2.32269 0.12411 0
M  V30 1267 C 118.712 1.45955 0.859854 0
M  V30 1268 O 119.918 1.6244 0.775447 0
M  V30 1269 H 116.293 0.749691 0.0588839 0
M  V30 1270 H 118.264 2.91743 -0.626762 0
M  V30 1271 C 117.013 3.29567 1.1082 0
M  V30 1272 H 116.336 3.95978 0.551492 0
M  V30 1273 H 117.776 3.93061 1.58995 0
M  V30 1274 C 116.235 2.56722 2.18164 0
M  V30 1275 O 116.765 2.34842 3.25902 0
M  V30 1276 N 114.971 2.16861 1.93442 0
M  V30 1277 H 114.518 2.34855 1.05834 0
M  V30 1278 H 114.476 1.68444 2.65469 0
M  V30 1279 N 118.248 0.346503 1.53744 0
M  V30 1280 C 119.497 -0.250122 2.00143 0
M  V30 1281 C 119.81 -1.51418 1.23822 0
M  V30 1282 O 121.016 -2.18823 1.60713 0
M  V30 1283 C 119.472 -0.496252 3.56462 0
M  V30 1284 C 119.08 0.752077 4.41642 0
M  V30 1285 C 120.824 -1.05157 4.11269 0
M  V30 1286 C 118.731 0.476583 5.89477 0
M  V30 1287 H 117.661 -0.0972409 0.747703 0
M  V30 1288 H 120.312 0.46229 1.77581 0
M  V30 1289 H 118.694 -1.26944 3.75102 0
M  V30 1290 H 119.868 1.5266 4.34778 0
M  V30 1291 H 118.183 1.22925 3.97842 0
M  V30 1292 H 120.78 -1.27269 5.19333 0
M  V30 1293 H 121.123 -2.00799 3.64672 0
M  V30 1294 H 121.656 -0.339019 3.96353 0
M  V30 1295 H 118.395 1.4028 6.40314 0
M  V30 1296 H 117.915 -0.259794 5.99237 0
M  V30 1297 H 119.594 0.0949315 6.4693 0
M  V30 1298 N 119.726 -1.57421 0.075193 0
M  V30 1299 C 120.972 -1.93905 -0.594025 0
M  V30 1300 C 121.305 -0.955701 -1.69056 0
M  V30 1301 O 120.58 0.0145373 -1.94495 0
M  V30 1302 C 120.863 -3.40638 -1.1678 0
M  V30 1303 C 120.716 -4.49733 -0.0776792 0
M  V30 1304 C 122.035 -3.88259 -2.07228 0
M  V30 1305 H 119.154 -0.705105 -0.214466 0
M  V30 1306 H 121.796 -1.8947 0.141854 0
M  V30 1307 H 119.946 -3.44549 -1.79494 0
M  V30 1308 H 121.618 -4.57942 0.555573 0
M  V30 1309 H 119.861 -4.29751 0.591286 0
M  V30 1310 H 120.532 -5.49549 -0.519603 0
M  V30 1311 H 123.008 -3.86376 -1.54445 0
M  V30 1312 H 121.884 -4.91533 -2.44308 0
M  V30 1313 H 122.145 -3.26396 -2.98191 0
M  V30 1314 N 121.204 0.198386 -1.56346 0
M  V30 1315 C 122.167 1.22952 -1.93431 0
M  V30 1316 C 123.167 1.38611 -0.815092 0
M  V30 1317 O 124.357 1.36479 -1.08255 0
M  V30 1318 C 121.489 2.59946 -2.20546 0
M  V30 1319 H 122.682 0.912626 -2.85677 0
M  V30 1320 H 120.235 0.43977 -1.49986 0
M  V30 1321 H 120.97 2.96696 -1.30927 0
M  V30 1322 H 120.755 2.49953 -3.02102 0
M  V30 1323 H 122.245 3.3431 -2.50253 0
M  V30 1324 N 122.682 1.50554 0.465978 0
M  V30 1325 C 123.612 1.72722 1.57128 0
M  V30 1326 C 124.593 0.576294 1.6004 0
M  V30 1327 O 125.778 0.81598 1.76225 0
M  V30 1328 C 122.908 1.82605 2.95419 0
M  V30 1329 C 121.862 2.97835 3.07373 0
M  V30 1330 C 121.188 2.92867 4.47363 0
M  V30 1331 C 122.488 4.38265 2.84114 0
M  V30 1332 H 124.182 2.65267 1.38829 0
M  V30 1333 H 121.728 1.2765 0.666441 0
M  V30 1334 H 123.681 1.96698 3.72677 0
M  V30 1335 H 122.405 0.866858 3.14886 0
M  V30 1336 H 121.064 2.83401 2.3255 0
M  V30 1337 H 120.712 1.94783 4.63755 0
M  V30 1338 H 120.412 3.70227 4.56296 0
M  V30 1339 H 121.936 3.09015 5.26633 0
M  V30 1340 H 123.35 4.53198 3.51118 0
M  V30 1341 H 121.747 5.17115 3.04487 0
M  V30 1342 H 122.817 4.50281 1.7993 0
M  V30 1343 N 124.16 -0.719506 1.40217 0
M  V30 1344 C 125.07 -1.86378 1.42479 0
M  V30 1345 C 126.086 -1.71073 0.317834 0
M  V30 1346 O 127.262 -1.93406 0.561794 0
M  V30 1347 C 124.327 -3.22136 1.28178 0
M  V30 1348 C 123.388 -3.49723 2.48982 0
M  V30 1349 C 122.621 -4.79004 2.35353 0
M  V30 1350 O 122.844 -5.53821 1.36524 0
M  V30 1351 O 121.778 -5.06839 3.2465 0
M  V30 1352 H 125.604 -1.87425 2.38968 0
M  V30 1353 H 123.189 -0.869405 1.21498 0
M  V30 1354 H 125.071 -4.03234 1.22395 0
M  V30 1355 H 123.746 -3.21825 0.347934 0
M  V30 1356 H 122.653 -2.6865 2.60342 0
M  V30 1357 H 123.986 -3.54828 3.41113 0
M  V30 1358 N 125.638 -1.25649 -0.95132 0
M  V30 1359 C 126.915 -1.01361 -1.67288 0
M  V30 1360 C 127.295 0.459135 -2.06046 0
M  V30 1361 O 126.643 1.43723 -1.7764 0
M  V30 1362 C 126.853 -1.95256 -2.89268 0
M  V30 1363 C 128.201 -2.23289 -3.61147 0
M  V30 1364 O 129.225 -1.93041 -2.99355 0
M  V30 1365 O 128.084 -2.74741 -4.72419 0
M  V30 1366 H 125.178 -0.38464 -0.732107 0
M  V30 1367 H 127.724 -1.36817 -1.00395 0
M  V30 1368 H 126.496 -2.94685 -2.57442 0
M  V30 1369 H 126.119 -1.60218 -3.6389 0
M  V30 1370 N 127.117 1.15442 -1.07289 0
M  V30 1371 C 128.366 1.85557 -0.790669 0
M  V30 1372 C 128.679 1.83186 0.685739 0
M  V30 1373 O 129.885 2.48977 1.0827 0
M  V30 1374 C 128.341 3.33038 -1.36433 0
M  V30 1375 C 127.949 3.43856 -2.8717 0
M  V30 1376 C 129.693 4.0834 -1.1601 0
M  V30 1377 C 127.6 4.85482 -3.3773 0
M  V30 1378 H 126.53 0.695122 -0.292098 0
M  V30 1379 H 129.181 1.30219 -1.29287 0
M  V30 1380 H 127.563 3.88043 -0.789864 0
M  V30 1381 H 128.737 2.98961 -3.50655 0
M  V30 1382 H 127.052 2.81998 -3.06376 0
M  V30 1383 H 129.649 5.12859 -1.51262 0
M  V30 1384 H 129.992 4.16182 -0.0991007 0
M  V30 1385 H 130.525 3.59603 -1.70089 0
M  V30 1386 H 127.264 4.82823 -4.43353 0
M  V30 1387 H 126.784 5.30961 -2.78999 0
M  V30 1388 H 128.463 5.54335 -3.33648 0
M  V30 1389 N 128.595 0.856903 1.32268 0
M  V30 1390 C 129.825 0.47475 2.01071 0
M  V30 1391 C 130.233 -0.933746 1.64553 0
M  V30 1392 O 129.576 -1.62114 0.863989 0
M  V30 1393 C 129.638 0.536746 3.55471 0
M  V30 1394 C 129.302 1.90453 4.15423 0
M  V30 1395 C 130.299 2.87029 4.33486 0
M  V30 1396 C 127.984 2.20229 4.51447 0
M  V30 1397 C 129.978 4.11532 4.86744 0
M  V30 1398 C 127.665 3.44984 5.0441 0
M  V30 1399 C 128.663 4.40452 5.22007 0
M  V30 1400 O 128.351 5.62998 5.73837 0
M  V30 1401 H 128.083 0.184778 0.650256 0
M  V30 1402 H 130.637 1.15615 1.69771 0
M  V30 1403 H 128.867 -0.20152 3.86175 0
M  V30 1404 H 130.556 0.169875 4.05544 0
M  V30 1405 H 131.322 2.6533 4.05986 0
M  V30 1406 H 127.201 1.46705 4.37034 0
M  V30 1407 H 130.745 4.86056 5.00395 0
M  V30 1408 H 126.642 3.66532 5.31342 0
M  V30 1409 H 127.41 5.64987 5.92226 0
M  V30 1410 N 130.073 -1.45103 0.615059 0
M  V30 1411 C 130.983 -2.34382 -0.101034 0
M  V30 1412 C 131.999 -1.51681 -0.852585 0
M  V30 1413 O 133.175 -1.8446 -0.808484 0
M  V30 1414 C 130.24 -3.29417 -1.08099 0
M  V30 1415 C 129.301 -4.28025 -0.330577 0
M  V30 1416 C 128.534 -5.1852 -1.26385 0
M  V30 1417 O 128.757 -5.12598 -2.50198 0
M  V30 1418 O 127.691 -5.97122 -0.756866 0
M  V30 1419 H 131.517 -2.97033 0.632855 0
M  V30 1420 H 129.102 -1.4461 0.375293 0
M  V30 1421 H 130.984 -3.87958 -1.6452 0
M  V30 1422 H 129.659 -2.69321 -1.79577 0
M  V30 1423 H 128.566 -3.73078 0.276283 0
M  V30 1424 H 129.899 -4.90997 0.343866 0
M  V30 1425 N 131.551 -0.354651 -1.53558 0
M  V30 1426 C 132.776 0.242153 -2.05981 0
M  V30 1427 C 133.201 1.42553 -1.2272 0
M  V30 1428 O 132.559 1.79656 -0.243604 0
M  V30 1429 C 132.607 0.624367 -3.55154 0
M  V30 1430 O 131.711 1.72301 -3.74681 0
M  V30 1431 H 131.052 0.0378432 -0.662921 0
M  V30 1432 H 133.582 -0.512087 -1.98088 0
M  V30 1433 H 133.592 0.898433 -3.97985 0
M  V30 1434 H 132.267 -0.240989 -4.15201 0
M  V30 1435 H 130.844 1.44535 -3.4375 0
M  V30 1436 N 133.029 1.57378 -0.0835403 0
M  V30 1437 C 134.44 1.81261 0.447358 0
M  V30 1438 C 134.791 0.998331 1.68902 0
M  V30 1439 O 133.916 0.224282 2.15235 0
M  V30 1440 C 134.511 3.28767 0.818386 0
M  V30 1441 C 133.07 3.53455 1.29409 0
M  V30 1442 C 132.217 2.75831 0.285024 0
M  V30 1443 H 135.168 1.5566 -0.309115 0
M  V30 1444 H 135.189 3.41459 1.67887 0
M  V30 1445 H 134.701 3.88006 -0.0855019 0
M  V30 1446 H 132.802 2.99534 2.21608 0
M  V30 1447 H 132.915 4.62128 1.2639 0
M  V30 1448 H 131.279 2.42947 0.764767 0
M  V30 1449 H 132.062 3.37813 -0.611341 0
M  V30 1450 N 134.507 -0.190092 1.56449 0
M  V30 1451 C 135.455 -1.25501 1.95837 0
M  V30 1452 C 136.449 -1.4685 0.844485 0
M  V30 1453 O 137.655 -1.47651 1.02952 0
M  V30 1454 H 134.03 -0.421447 0.622805 0
M  V30 1455 H 136.001 -0.895821 2.84636 0
M  V30 1456 C 134.75 -2.59124 2.31841 0
M  V30 1457 H 134.073 -2.43514 3.17082 0
M  V30 1458 H 135.513 -3.32371 2.6326 0
M  V30 1459 C 133.972 -3.16488 1.15486 0
M  V30 1460 O 134.502 -3.99365 0.432535 0
M  V30 1461 N 132.708 -2.75305 0.930349 0
M  V30 1462 H 132.255 -2.08013 1.51948 0
M  V30 1463 H 132.213 -3.14024 0.153634 0
M  V30 1464 N 135.985 -1.50799 -0.457987 0
M  V30 1465 C 136.935 -1.67003 -1.55222 0
M  V30 1466 C 137.919 -0.52434 -1.52117 0
M  V30 1467 O 139.111 -0.779345 -1.58919 0
M  V30 1468 C 136.24 -1.77956 -2.93576 0
M  V30 1469 C 135.326 -2.98243 -3.01516 0
M  V30 1470 N 135.717 -4.21732 -2.79241 0
M  V30 1471 C 134.015 -2.97072 -3.32662 0
M  V30 1472 C 134.716 -5.02817 -2.92489 0
M  V30 1473 N 133.692 -4.37038 -3.23262 0
M  V30 1474 H 137.494 -2.60163 -1.36721 0
M  V30 1475 H 135.008 -1.48163 -0.664952 0
M  V30 1476 H 137.005 -1.87671 -3.72271 0
M  V30 1477 H 135.665 -0.859634 -3.13114 0
M  V30 1478 H 136.676 -4.51016 -2.54567 0
M  V30 1479 H 133.353 -2.14631 -3.58106 0
M  V30 1480 H 134.743 -6.11054 -2.79396 0
M  V30 1481 N 137.463 0.71206 -1.40597 0
M  V30 1482 C 138.393 1.83889 -1.43899 0
M  V30 1483 C 139.374 1.67442 -0.299504 0
M  V30 1484 O 140.559 1.87421 -0.508624 0
M  V30 1485 C 137.689 3.21877 -1.30431 0
M  V30 1486 C 136.643 3.53002 -2.42019 0
M  V30 1487 C 135.969 4.90172 -2.13626 0
M  V30 1488 C 137.269 3.53643 -3.84362 0
M  V30 1489 H 138.963 1.81383 -2.38203 0
M  V30 1490 H 136.509 0.871237 -1.14654 0
M  V30 1491 H 138.462 4.00404 -1.31357 0
M  V30 1492 H 137.186 3.24968 -0.326049 0
M  V30 1493 H 135.845 2.76818 -2.40349 0
M  V30 1494 H 135.493 4.89869 -1.14182 0
M  V30 1495 H 135.193 5.11962 -2.88389 0
M  V30 1496 H 136.717 5.71028 -2.1624 0
M  V30 1497 H 138.131 4.22203 -3.87837 0
M  V30 1498 H 136.528 3.86961 -4.58673 0
M  V30 1499 H 137.598 2.52954 -4.13693 0
M  V30 1500 N 138.941 1.26152 0.944643 0
M  V30 1501 C 140.171 1.14094 1.72239 0
M  V30 1502 C 140.579 -0.306931 1.86694 0
M  V30 1503 O 139.922 -1.22222 1.3714 0
M  V30 1504 C 139.984 1.73316 3.14963 0
M  V30 1505 C 139.648 3.2239 3.23904 0
M  V30 1506 C 140.645 4.19252 3.07447 0
M  V30 1507 C 138.33 3.62788 3.47405 0
M  V30 1508 C 140.324 5.54491 3.14353 0
M  V30 1509 C 138.011 4.98162 3.53947 0
M  V30 1510 C 139.009 5.93823 3.37436 0
M  V30 1511 O 138.697 7.26732 3.43679 0
M  V30 1512 H 138.429 0.398292 0.546205 0
M  V30 1513 H 140.983 1.67201 1.19301 0
M  V30 1514 H 139.213 1.14667 3.69308 0
M  V30 1515 H 140.902 1.56214 3.74636 0
M  V30 1516 H 141.668 3.8938 2.8915 0
M  V30 1517 H 137.547 2.88816 3.59313 0
M  V30 1518 H 141.091 6.29137 3.01384 0
M  V30 1519 H 136.988 5.27695 3.71763 0
M  V30 1520 H 137.756 7.3496 3.60245 0
M  V30 1521 N 140.419 -1.14872 1.07899 0
M  V30 1522 C 141.349 -2.2193 0.725887 0
M  V30 1523 C 142.33 -1.67622 -0.28927 0
M  V30 1524 O 143.515 -1.93533 -0.160787 0
M  V30 1525 C 140.645 -3.47061 0.128856 0
M  V30 1526 C 139.599 -4.14363 1.07178 0
M  V30 1527 C 138.925 -5.33636 0.337229 0
M  V30 1528 C 140.225 -4.63492 2.40775 0
M  V30 1529 H 141.919 -2.51724 1.62097 0
M  V30 1530 H 139.465 -1.20991 0.780838 0
M  V30 1531 H 141.418 -4.21199 -0.130147 0
M  V30 1532 H 140.142 -3.16617 -0.80134 0
M  V30 1533 H 138.801 -3.42173 1.3158 0
M  V30 1534 H 138.449 -4.99449 -0.596606 0
M  V30 1535 H 138.149 -5.79609 0.965788 0
M  V30 1536 H 139.673 -6.10539 0.0861567 0
M  V30 1537 H 141.087 -5.2913 2.20669 0
M  V30 1538 H 139.484 -5.20148 2.99276 0
M  V30 1539 H 140.554 -3.78834 3.02676 0
M  V30 1540 N 141.898 -0.863906 -1.31812 0
M  V30 1541 C 143.144 -0.472535 -1.97218 0
M  V30 1542 C 143.477 0.971394 -1.68159 0
M  V30 1543 O 142.752 1.68309 -0.974798 0
M  V30 1544 C 143.035 -0.723054 -3.52766 0
M  V30 1545 C 142.888 -2.21608 -3.91421 0
M  V30 1546 C 144.207 -0.185522 -4.39709 0
M  V30 1547 H 141.326 -0.173158 -0.71637 0
M  V30 1548 H 143.968 -1.08403 -1.56041 0
M  V30 1549 H 142.118 -0.202577 -3.87971 0
M  V30 1550 H 143.79 -2.80334 -3.66347 0
M  V30 1551 H 142.033 -2.691 -3.40246 0
M  V30 1552 H 142.704 -2.34203 -4.99853 0
M  V30 1553 H 145.18 -0.630726 -4.11292 0
M  V30 1554 H 144.056 -0.390306 -5.47511 0
M  V30 1555 H 144.317 0.912229 -4.32586 0
M  V30 1556 N 143.376 1.44774 -0.622745 0
M  V30 1557 C 144.309 2.27792 0.136329 0
M  V30 1558 C 145.287 1.38041 0.859264 0
M  V30 1559 O 146.471 1.67478 0.86506 0
M  V30 1560 C 143.598 3.16776 1.19878 0
M  V30 1561 C 142.644 4.22575 0.57731 0
M  V30 1562 S 143.477 5.31825 -0.626294 0
M  V30 1563 C 144.633 6.24377 0.436378 0
M  V30 1564 H 144.866 2.91824 -0.567967 0
M  V30 1565 H 142.399 1.48838 -0.410677 0
M  V30 1566 H 144.357 3.68596 1.80686 0
M  V30 1567 H 143.018 2.5198 1.87523 0
M  V30 1568 H 142.211 4.84818 1.37721 0
M  V30 1569 H 141.813 3.73974 0.0440439 0
M  V30 1570 H 144.105 6.64689 1.31128 0
M  V30 1571 H 145.048 7.07941 -0.150271 0
M  V30 1572 H 145.456 5.59381 0.758513 0
M  V30 1573 N 144.854 0.36279 1.53368 0
M  V30 1574 C 145.786 -0.519668 2.23231 0
M  V30 1575 C 146.799 -1.04844 1.24546 0
M  V30 1576 O 147.988 -0.955296 1.50786 0
M  V30 1577 C 145.088 -1.72995 2.9142 0
M  V30 1578 C 144.261 -1.33316 4.16588 0
M  V30 1579 C 143.32 -2.40521 4.68013 0
M  V30 1580 O 142.346 -2.03027 5.3176 0
M  V30 1581 N 143.548 -3.72065 4.45587 0
M  V30 1582 H 146.313 0.078751 2.99597 0
M  V30 1583 H 143.874 0.187833 1.60807 0
M  V30 1584 H 145.866 -2.44184 3.22733 0
M  V30 1585 H 144.436 -2.2353 2.18525 0
M  V30 1586 H 143.656 -0.451236 3.91609 0
M  V30 1587 H 144.944 -1.04432 4.97967 0
M  V30 1588 H 144.342 -4.05304 3.94646 0
M  V30 1589 H 142.899 -4.39366 4.81457 0
M  V30 1590 N 146.332 -1.57332 0.0918853 0
M  V30 1591 C 147.262 -2.16872 -0.865371 0
M  V30 1592 C 148.243 -1.10118 -1.29646 0
M  V30 1593 O 149.428 -1.38242 -1.36392 0
M  V30 1594 C 146.558 -2.74649 -2.12569 0
M  V30 1595 C 145.512 -3.86747 -1.83333 0
M  V30 1596 C 144.838 -4.31212 -3.16166 0
M  V30 1597 C 146.138 -5.10089 -1.1228 0
M  V30 1598 H 147.832 -2.97114 -0.369307 0
M  V30 1599 H 145.378 -1.42918 -0.176194 0
M  V30 1600 H 147.331 -3.14952 -2.7997 0
M  V30 1601 H 146.055 -1.91657 -2.64452 0
M  V30 1602 H 144.714 -3.46978 -1.18331 0
M  V30 1603 H 144.362 -3.45115 -3.6593 0
M  V30 1604 H 144.062 -5.06788 -2.97388 0
M  V30 1605 H 145.586 -4.74146 -3.84731 0
M  V30 1606 H 147 -5.47582 -1.69785 0
M  V30 1607 H 145.397 -5.91073 -1.03693 0
M  V30 1608 H 146.467 -4.84786 -0.105041 0
M  V30 1609 N 147.81 0.181792 -1.56548 0
M  V30 1610 C 149.056 0.901431 -1.81665 0
M  V30 1611 C 149.389 1.82347 -0.668075 0
M  V30 1612 O 148.664 1.91669 0.330615 0
M  V30 1613 C 148.947 1.70618 -3.17115 0
M  V30 1614 C 148.8 0.807964 -4.42484 0
M  V30 1615 C 150.119 2.67605 -3.49393 0
M  V30 1616 H 147.238 0.32627 -0.660846 0
M  V30 1617 H 149.88 0.168134 -1.89255 0
M  V30 1618 H 148.03 2.33133 -3.10775 0
M  V30 1619 H 149.702 0.19649 -4.60881 0
M  V30 1620 H 147.945 0.115411 -4.33646 0
M  V30 1621 H 148.616 1.40632 -5.33785 0
M  V30 1622 H 151.092 2.15218 -3.56118 0
M  V30 1623 H 149.968 3.20985 -4.45264 0
M  V30 1624 H 150.229 3.47298 -2.73563 0
M  V30 1625 N 149.288 1.51039 0.449983 0
M  V30 1626 C 150.513 1.6715 1.22783 0
M  V30 1627 C 150.938 0.363081 1.84563 0
M  V30 1628 O 150.296 -0.675433 1.68249 0
M  V30 1629 C 150.344 2.77985 2.29689 0
M  V30 1630 O 149.448 2.40707 3.34864 0
M  V30 1631 H 148.789 0.557746 0.360299 0
M  V30 1632 H 151.319 1.97535 0.533005 0
M  V30 1633 H 151.329 3.01693 2.74673 0
M  V30 1634 H 150.004 3.72935 1.84098 0
M  V30 1635 H 148.581 2.27523 2.95445 0
M  V30 1636 N 150.766 -0.704594 1.40972 0
M  V30 1637 C 152.014 -1.46169 1.39568 0
M  V30 1638 C 152.335 -1.95 0.00253745 0
M  V30 1639 O 151.605 -1.71095 -0.954114 0
M  V30 1640 H 150.185 -0.542326 0.513704 0
M  V30 1641 H 152.847 -0.834553 1.76128 0
M  V30 1642 H 151.943 -2.32922 2.07735 0
M  V30 1643 N 152.244 -1.26651 -0.937939 0
M  V30 1644 C 153.492 -1.12165 -1.68118 0
M  V30 1645 C 153.813 0.334983 -1.92101 0
M  V30 1646 O 153.083 1.23583 -1.52 0
M  V30 1647 H 151.663 -0.412093 -0.623048 0
M  V30 1648 H 154.325 -1.59027 -1.12678 0
M  V30 1649 H 153.421 -1.64289 -2.6536 0
M  V30 1650 N 153.722 1.14298 -1.08507 0
M  V30 1651 C 154.632 2.23027 -0.727753 0
M  V30 1652 C 155.648 1.71952 0.26619 0
M  V30 1653 O 156.824 2.011 0.109882 0
M  V30 1654 C 153.889 3.46403 -0.143541 0
M  V30 1655 C 152.95 4.12413 -1.19223 0
M  V30 1656 C 152.183 5.29899 -0.635798 0
M  V30 1657 O 152.406 5.67796 0.544393 0
M  V30 1658 O 151.34 5.85717 -1.38634 0
M  V30 1659 H 155.166 2.55945 -1.63481 0
M  V30 1660 H 152.751 1.22248 -0.858817 0
M  V30 1661 H 154.633 4.21018 0.179404 0
M  V30 1662 H 153.308 3.15206 0.736659 0
M  V30 1663 H 152.215 3.39667 -1.56772 0
M  V30 1664 H 153.548 4.47718 -2.04474 0
M  V30 1665 N 155.201 0.870884 1.31352 0
M  V30 1666 C 156.131 0.343096 2.30966 0
M  V30 1667 C 157.112 -0.566507 1.60389 0
M  V30 1668 O 158.297 -0.483336 1.88089 0
M  V30 1669 C 155.427 -0.455487 3.443 0
M  V30 1670 C 154.381 0.361103 4.26474 0
M  V30 1671 C 153.707 -0.563221 5.31725 0
M  V30 1672 C 155.007 1.59566 4.97329 0
M  V30 1673 H 156.701 1.17548 2.75359 0
M  V30 1674 H 154.247 0.566686 1.32381 0
M  V30 1675 H 156.2 -0.83525 4.13039 0
M  V30 1676 H 154.924 -1.32139 2.98675 0
M  V30 1677 H 153.583 0.722825 3.59403 0
M  V30 1678 H 153.231 -1.42643 4.82351 0
M  V30 1679 H 152.931 -0.0207409 5.87596 0
M  V30 1680 H 154.455 -0.939808 6.03324 0
M  V30 1681 H 155.869 1.28728 5.58661 0
M  V30 1682 H 154.266 2.07728 5.63 0
M  V30 1683 H 155.336 2.34798 4.24262 0
M  V30 1684 N 156.679 -1.44442 0.630414 0
M  V30 1685 C 157.926 -2.02052 0.134617 0
M  V30 1686 C 158.254 -1.49576 -1.24327 0
M  V30 1687 O 157.509 -0.669806 -1.83881 0
M  V30 1688 C 157.808 -3.57332 0.0697835 0
M  V30 1689 C 157.474 -4.29058 1.38635 0
M  V30 1690 C 156.136 -4.4837 1.74694 0
M  V30 1691 C 158.488 -4.69872 2.25543 0
M  V30 1692 C 155.816 -5.05756 2.97369 0
M  V30 1693 C 158.168 -5.28616 3.47487 0
M  V30 1694 C 156.832 -5.46147 3.8377 0
M  V30 1695 H 156.102 -0.739361 0.0492598 0
M  V30 1696 H 158.749 -1.73217 0.816586 0
M  V30 1697 H 157.054 -3.85577 -0.695553 0
M  V30 1698 H 158.751 -3.99637 -0.330344 0
M  V30 1699 H 155.341 -4.14357 1.09574 0
M  V30 1700 H 159.525 -4.54666 1.98979 0
M  V30 1701 H 154.781 -5.17515 3.25558 0
M  V30 1702 H 158.955 -5.59192 4.15063 0
M  V30 1703 H 156.582 -5.9038 4.7891 0
M  V30 1704 N 158.157 -0.370918 -1.53173 0
M  V30 1705 C 159.434 0.273754 -1.93675 0
M  V30 1706 C 159.814 1.65938 -1.3049 0
M  V30 1707 O 159.162 2.23698 -0.465999 0
M  V30 1708 C 159.372 0.318602 -3.47543 0
M  V30 1709 C 160.72 0.556392 -4.20939 0
M  V30 1710 O 161.744 0.399587 -3.53952 0
M  V30 1711 O 160.603 0.862133 -5.39657 0
M  V30 1712 H 157.697 0.165448 -0.810281 0
M  V30 1713 H 160.243 -0.42409 -1.64315 0
M  V30 1714 H 159.015 -0.652687 -3.85818 0
M  V30 1715 H 158.638 1.06212 -3.83151 0
M  V30 1716 N 159.635 1.57281 -0.100228 0
M  V30 1717 C 161.051 1.57527 0.256416 0
M  V30 1718 C 161.251 1.11173 1.68056 0
M  V30 1719 O 160.307 0.79053 2.39806 0
M  V30 1720 C 161.62 3.00673 0.0401747 0
M  V30 1721 C 163.168 3.12815 0.107528 0
M  V30 1722 C 163.643 4.57929 -0.0807834 0
M  V30 1723 N 165.134 4.63193 -0.0261207 0
M  V30 1724 C 165.869 5.73212 -0.146999 0
M  V30 1725 N 165.365 6.92047 -0.322999 0
M  V30 1726 N 167.158 5.62031 -0.0879044 0
M  V30 1727 H 159.309 1.85718 -1.03065 0
M  V30 1728 H 161.572 0.857446 -0.404339 0
M  V30 1729 H 161.278 3.38804 -0.943649 0
M  V30 1730 H 161.152 3.69042 0.780262 0
M  V30 1731 H 163.539 2.74554 1.08186 0
M  V30 1732 H 163.62 2.47028 -0.664134 0
M  V30 1733 H 163.264 4.96886 -1.05201 0
M  V30 1734 H 163.194 5.21783 0.710635 0
M  V30 1735 H 165.685 3.77748 0.107161 0
M  V30 1736 H 165.998 7.7173 -0.406608 0
M  V30 1737 H 164.343 6.94074 -0.358733 0
M  V30 1738 H 167.534 4.68075 0.048498 0
M  V30 1739 H 167.707 6.47734 -0.185557 0
M  V30 1740 N 161.113 -0.173488 1.56642 0
M  V30 1741 C 162.362 -0.888758 1.81063 0
M  V30 1742 C 162.675 -1.83506 0.67712 0
M  V30 1743 O 163.881 -2.59254 0.806206 0
M  V30 1744 C 162.337 -1.63091 3.20826 0
M  V30 1745 C 161.945 -0.728357 4.4204 0
M  V30 1746 C 163.689 -2.33454 3.54541 0
M  V30 1747 C 161.596 -1.47062 5.72823 0
M  V30 1748 H 160.526 -0.335618 0.675186 0
M  V30 1749 H 163.177 -0.141712 1.82952 0
M  V30 1750 H 161.559 -2.42263 3.13248 0
M  V30 1751 H 162.733 0.0262449 4.60793 0
M  V30 1752 H 161.048 -0.134492 4.16183 0
M  V30 1753 H 163.645 -2.89578 4.49498 0
M  V30 1754 H 163.988 -3.08687 2.79317 0
M  V30 1755 H 164.521 -1.61227 3.63663 0
M  V30 1756 H 161.26 -0.760658 6.51072 0
M  V30 1757 H 160.78 -2.1986 5.58052 0
M  V30 1758 H 162.459 -2.01868 6.14702 0
M  V30 1759 N 162.591 -1.51276 -0.441967 0
M  V30 1760 C 163.837 -1.63958 -1.19355 0
M  V30 1761 C 164.17 -0.352543 -1.90973 0
M  V30 1762 O 163.445 0.647627 -1.83401 0
M  V30 1763 C 163.728 -2.83979 -2.21422 0
M  V30 1764 C 163.581 -4.22646 -1.53918 0
M  V30 1765 C 164.9 -2.99521 -3.22451 0
M  V30 1766 H 162.019 -0.596709 -0.432559 0
M  V30 1767 H 164.661 -1.83748 -0.483398 0
M  V30 1768 H 162.811 -2.67237 -2.81987 0
M  V30 1769 H 164.483 -4.51045 -0.967256 0
M  V30 1770 H 162.726 -4.25558 -0.841615 0
M  V30 1771 H 163.397 -5.02609 -2.28229 0
M  V30 1772 H 165.873 -3.14944 -2.71937 0
M  V30 1773 H 164.749 -3.85072 -3.91166 0
M  V30 1774 H 165.01 -2.11391 -3.88287 0
M  V30 1775 N 164.069 0.697108 -1.41344 0
M  V30 1776 C 164.979 1.84088 -1.45427 0
M  V30 1777 C 165.995 1.70545 -0.34501 0
M  V30 1778 O 167.171 1.92488 -0.592492 0
M  V30 1779 C 164.236 3.20056 -1.33286 0
M  V30 1780 C 163.297 3.45718 -2.54514 0
M  V30 1781 C 162.53 4.75199 -2.42944 0
M  V30 1782 O 162.753 5.51579 -1.45318 0
M  V30 1783 O 161.687 5.0161 -3.32672 0
M  V30 1784 H 165.513 1.836 -2.41919 0
M  V30 1785 H 163.098 0.849966 -1.22866 0
M  V30 1786 H 164.98 4.01236 -1.28794 0
M  V30 1787 H 163.655 3.2123 -0.39909 0
M  V30 1788 H 162.562 2.64474 -2.64583 0
M  V30 1789 H 163.895 3.49356 -3.46715 0
M  V30 1790 N 165.547 1.27147 0.931209 0
M  V30 1791 C 166.494 1.09568 2.03134 0
M  V30 1792 C 167.464 -0.00222433 1.661 0
M  V30 1793 O 168.649 0.159439 1.90133 0
M  V30 1794 C 165.789 0.745231 3.36957 0
M  V30 1795 C 164.902 1.92041 3.86968 0
M  V30 1796 C 164.037 1.51216 5.09222 0
M  V30 1797 C 163.076 2.65504 5.5152 0
M  V30 1798 N 162.213 2.25291 6.64972 0
M  V30 1799 H 167.053 2.03708 2.17502 0
M  V30 1800 H 164.59 1.01411 1.06556 0
M  V30 1801 H 166.548 0.522878 4.1391 0
M  V30 1802 H 165.178 -0.159202 3.22407 0
M  V30 1803 H 164.23 2.25541 3.06326 0
M  V30 1804 H 165.542 2.77787 4.1429 0
M  V30 1805 H 164.696 1.25084 5.93666 0
M  V30 1806 H 163.435 0.625749 4.83669 0
M  V30 1807 H 162.44 2.92354 4.65628 0
M  V30 1808 H 163.665 3.54761 5.7907 0
M  V30 1809 H 161.611 1.39098 6.41083 0
M  V30 1810 H 161.528 3.04577 6.91931 0
M  V30 1811 H 162.796 2.02398 7.52765 0
M  V30 1812 N 167.025 -1.13721 1.09112 0
M  V30 1813 C 168.273 -1.84559 0.823562 0
M  V30 1814 C 168.594 -1.83754 -0.652658 0
M  V30 1815 O 167.864 -1.29102 -1.47342 0
M  V30 1816 H 166.444 -0.683376 0.301673 0
M  V30 1817 H 169.106 -1.37771 1.37859 0
M  V30 1818 H 168.202 -2.8917 1.17419 0
M  V30 1819 N 168.503 -0.877838 -1.30888 0
M  V30 1820 C 169.75 -0.492696 -1.96415 0
M  V30 1821 C 170.078 0.956671 -1.69346 0
M  V30 1822 O 169.333 1.68993 -0.986913 0
M  V30 1823 C 169.632 -0.705748 -3.50363 0
M  V30 1824 C 169.298 -2.1291 -3.97467 0
M  V30 1825 C 167.96 -2.51834 -4.1004 0
M  V30 1826 C 170.312 -3.05702 -4.22132 0
M  V30 1827 C 167.64 -3.82775 -4.44635 0
M  V30 1828 C 169.992 -4.36166 -4.58194 0
M  V30 1829 C 168.656 -4.74993 -4.68975 0
M  V30 1830 H 167.926 -0.18029 -0.718733 0
M  V30 1831 H 170.573 -1.11233 -1.55883 0
M  V30 1832 H 168.878 -0.00303058 -3.918 0
M  V30 1833 H 170.575 -0.387456 -3.99124 0
M  V30 1834 H 167.165 -1.81694 -3.88182 0
M  V30 1835 H 171.349 -2.76853 -4.11906 0
M  V30 1836 H 166.605 -4.12609 -4.51181 0
M  V30 1837 H 170.779 -5.08111 -4.76231 0
M  V30 1838 H 168.406 -5.76495 -4.95537 0
M  V30 1839 N 169.982 1.44106 -0.638065 0
M  V30 1840 C 171.212 2.06037 -0.152394 0
M  V30 1841 C 171.62 1.47808 1.18108 0
M  V30 1842 O 170.963 0.598092 1.73691 0
M  V30 1843 C 171.025 3.59488 0.0293714 0
M  V30 1844 C 170.689 4.4022 -1.22702 0
M  V30 1845 C 171.686 4.73256 -2.15232 0
M  V30 1846 C 169.371 4.8048 -1.46437 0
M  V30 1847 C 171.365 5.45444 -3.29802 0
M  V30 1848 C 169.052 5.52417 -2.61303 0
M  V30 1849 C 170.05 5.84819 -3.52811 0
M  V30 1850 O 169.738 6.55289 -4.65673 0
M  V30 1851 H 169.47 0.671233 -0.0801401 0
M  V30 1852 H 172.024 1.85851 -0.874563 0
M  V30 1853 H 170.254 3.78191 0.806758 0
M  V30 1854 H 171.943 4.03164 0.470475 0
M  V30 1855 H 172.709 4.42684 -1.98131 0
M  V30 1856 H 168.588 4.54676 -0.760977 0
M  V30 1857 H 172.132 5.70653 -4.01249 0
M  V30 1858 H 168.029 5.82404 -2.78344 0
M  V30 1859 H 168.797 6.73762 -4.64744 0
M  V30 1860 N 171.46 0.379036 1.52974 0
M  V30 1861 C 172.688 -0.20679 2.05864 0
M  V30 1862 C 173.103 -1.41356 1.25155 0
M  V30 1863 O 172.46 -1.8009 0.295588 0
M  V30 1864 C 172.511 -0.587045 3.56702 0
M  V30 1865 O 172.232 0.571776 4.34353 0
M  V30 1866 C 173.733 -1.22983 4.25899 0
M  V30 1867 H 170.953 -0.0336123 0.670158 0
M  V30 1868 H 173.497 0.541298 1.97206 0
M  V30 1869 H 171.652 -1.28504 3.65466 0
M  V30 1870 H 172.066 0.261544 5.23847 0
M  V30 1871 H 173.54 -1.44635 5.32715 0
M  V30 1872 H 174.017 -2.19416 3.80465 0
M  V30 1873 H 174.623 -0.572892 4.21424 0
M  V30 1874 N 172.938 -1.57226 0.108567 0
M  V30 1875 C 173.848 -2.18292 -0.859401 0
M  V30 1876 C 174.864 -1.15612 -1.30038 0
M  V30 1877 O 176.04 -1.48039 -1.36552 0
M  V30 1878 C 173.105 -2.762 -2.09558 0
M  V30 1879 C 172.166 -3.93881 -1.70752 0
M  V30 1880 C 171.399 -4.49018 -2.88477 0
M  V30 1881 O 171.622 -4.03068 -4.036 0
M  V30 1882 O 170.556 -5.39852 -2.66164 0
M  V30 1883 H 174.382 -3.01441 -0.369769 0
M  V30 1884 H 171.967 -1.48945 -0.1165 0
M  V30 1885 H 173.849 -3.13156 -2.81978 0
M  V30 1886 H 172.524 -1.96089 -2.57548 0
M  V30 1887 H 171.431 -3.61713 -0.954714 0
M  V30 1888 H 172.764 -4.75396 -1.27513 0
M  V30 1889 N 174.416 0.165178 -1.56732 0
M  V30 1890 C 175.363 1.2044 -1.96883 0
M  V30 1891 C 176.333 1.43664 -0.833657 0
M  V30 1892 O 177.518 1.56302 -1.09427 0
M  V30 1893 C 174.658 2.53727 -2.33916 0
M  V30 1894 C 173.771 2.3783 -3.6064 0
M  V30 1895 C 172.906 3.64026 -3.86857 0
M  V30 1896 C 171.945 3.43088 -5.06909 0
M  V30 1897 N 171.082 4.61369 -5.29229 0
M  V30 1898 H 175.922 0.854996 -2.85471 0
M  V30 1899 H 173.459 0.41076 -1.41249 0
M  V30 1900 H 175.417 3.31419 -2.53411 0
M  V30 1901 H 174.047 2.8665 -1.48431 0
M  V30 1902 H 173.099 1.51282 -3.49024 0
M  V30 1903 H 174.411 2.18308 -4.4849 0
M  V30 1904 H 173.565 4.50152 -4.06753 0
M  V30 1905 H 172.304 3.86533 -2.97394 0
M  V30 1906 H 171.309 2.55349 -4.86906 0
M  V30 1907 H 172.534 3.21997 -5.97909 0
M  V30 1908 H 170.48 4.84084 -4.42718 0
M  V30 1909 H 170.397 4.44783 -6.11313 0
M  V30 1910 H 171.665 5.48761 -5.53608 0
M  V30 1911 N 175.894 1.51508 0.433938 0
M  V30 1912 C 177.171 1.54888 1.19453 0
M  V30 1913 C 177.551 0.315154 2.08734 0
M  V30 1914 O 176.899 -0.699558 2.17528 0
M  V30 1915 C 177.109 2.86467 1.99342 0
M  V30 1916 C 178.457 3.38545 2.56267 0
M  V30 1917 O 179.481 2.88041 2.0955 0
M  V30 1918 O 178.34 4.26675 3.41483 0
M  V30 1919 H 175.434 0.622863 0.544032 0
M  V30 1920 H 177.98 1.63823 0.442732 0
M  V30 1921 H 176.752 3.67718 1.33788 0
M  V30 1922 H 176.375 2.8071 2.8158 0
M  V30 1923 N 177.372 -0.689602 1.41712 0
M  V30 1924 C 178.335 -1.78521 1.43746 0
M  V30 1925 C 179.335 -1.57436 0.327191 0
M  V30 1926 O 180.525 -1.64 0.587348 0
M  V30 1927 C 177.657 -3.16971 1.25467 0
M  V30 1928 H 178.85 -1.78108 2.41283 0
M  V30 1929 H 176.403 -0.89781 1.27942 0
M  V30 1930 H 177.138 -3.23019 0.287948 0
M  V30 1931 H 176.923 -3.33678 2.05917 0
M  V30 1932 H 178.413 -3.96935 1.2974 0
M  V30 1933 N 178.85 -1.27639 -0.924453 0
M  V30 1934 C 180.075 -1.17101 -1.71179 0
M  V30 1935 C 180.5 0.268134 -1.86179 0
M  V30 1936 O 179.858 1.19415 -1.36418 0
M  V30 1937 C 179.906 -1.86313 -3.08739 0
M  V30 1938 O 179.01 -1.16331 -3.95652 0
M  V30 1939 H 178.351 -0.407091 -0.524569 0
M  V30 1940 H 180.881 -1.68767 -1.15666 0
M  V30 1941 H 180.891 -1.938 -3.59034 0
M  V30 1942 H 179.566 -2.91001 -2.97138 0
M  V30 1943 H 178.143 -1.16935 -3.54091 0
M  V30 1944 N 180.328 1.1314 -1.09713 0
M  V30 1945 C 181.556 1.88321 -0.856898 0
M  V30 1946 C 181.971 1.79276 0.592073 0
M  V30 1947 O 181.328 1.16142 1.40774 0
M  V30 1948 C 181.379 3.37812 -1.28706 0
M  V30 1949 O 181.1 3.46627 -2.67921 0
M  V30 1950 C 182.601 4.29952 -1.07964 0
M  V30 1951 H 179.821 0.596094 -0.308079 0
M  V30 1952 H 182.365 1.43205 -1.45988 0
M  V30 1953 H 180.52 3.805 -0.727912 0
M  V30 1954 H 180.934 4.39579 -2.8613 0
M  V30 1955 H 182.408 5.33159 -1.42986 0
M  V30 1956 H 182.885 4.39196 -0.0176577 0
M  V30 1957 H 183.491 3.93036 -1.62489 0
M  V30 1958 N 181.806 0.884767 1.30421 0
M  V30 1959 C 182.736 0.367574 2.30589 0
M  V30 1960 C 183.717 -0.549464 1.60981 0
M  V30 1961 O 184.902 -0.46336 1.88591 0
M  V30 1962 C 182.032 -0.418944 3.44764 0
M  V30 1963 C 180.986 0.406316 4.26067 0
M  V30 1964 C 180.312 -0.506793 5.32293 0
M  V30 1965 C 181.612 1.64832 4.95608 0
M  V30 1966 H 183.306 1.20462 2.74097 0
M  V30 1967 H 180.852 0.580695 1.31772 0
M  V30 1968 H 182.805 -0.791395 4.13902 0
M  V30 1969 H 181.529 -1.28964 3.0006 0
M  V30 1970 H 180.188 0.760903 3.58617 0
M  V30 1971 H 179.836 -1.37519 4.83836 0
M  V30 1972 H 179.536 0.0415828 5.87585 0
M  V30 1973 H 181.06 -0.875764 6.04287 0
M  V30 1974 H 182.474 1.34646 5.57264 0
M  V30 1975 H 180.871 2.13688 5.60765 0
M  V30 1976 H 181.941 2.39284 4.21748 0
M  V30 1977 N 183.284 -1.43765 0.645699 0
M  V30 1978 C 184.533 -2.01116 0.153412 0
M  V30 1979 C 184.846 -1.51493 -1.23731 0
M  V30 1980 O 186.052 -2.01067 -1.8244 0
M  V30 1981 C 184.508 -3.59206 0.223473 0
M  V30 1982 C 184.116 -4.17823 1.61642 0
M  V30 1983 C 185.86 -4.23972 -0.211597 0
M  V30 1984 C 183.767 -5.68183 1.64081 0
M  V30 1985 H 182.697 -0.752093 0.0535891 0
M  V30 1986 H 185.348 -1.6482 0.806633 0
M  V30 1987 H 183.73 -3.92867 -0.497118 0
M  V30 1988 H 184.904 -3.95674 2.36176 0
M  V30 1989 H 183.219 -3.65399 1.99681 0
M  V30 1990 H 185.816 -5.34275 -0.213112 0
M  V30 1991 H 186.159 -3.97352 -1.24165 0
M  V30 1992 H 186.692 -3.95166 0.456988 0
M  V30 1993 H 183.431 -5.99559 2.64971 0
M  V30 1994 H 182.951 -5.9241 0.938611 0
M  V30 1995 H 184.63 -6.32085 1.3812 0
M  V30 1996 N 184.763 -0.387143 -1.52771 0
M  V30 1997 C 186.179 -0.037007 -1.59557 0
M  V30 1998 C 186.379 1.44801 -1.40124 0
M  V30 1999 O 185.435 2.21227 -1.21716 0
M  V30 2000 C 186.748 -0.512256 -2.96305 0
M  V30 2001 C 188.296 -0.468328 -3.09476 0
M  V30 2002 C 188.771 -0.919731 -4.4867 0
M  V30 2003 N 190.262 -0.875656 -4.54848 0
M  V30 2004 C 190.997 -1.19637 -5.6078 0
M  V30 2005 N 190.493 -1.58745 -6.74368 0
M  V30 2006 N 192.286 -1.11776 -5.50874 0
M  V30 2007 H 184.437 -1.35395 -1.63652 0
M  V30 2008 H 186.7 -0.554818 -0.768688 0
M  V30 2009 H 186.406 -1.54935 -3.15734 0
M  V30 2010 H 186.28 0.089805 -3.77093 0
M  V30 2011 H 188.667 0.559671 -2.89744 0
M  V30 2012 H 188.748 -1.10616 -2.30646 0
M  V30 2013 H 188.392 -1.94595 -4.69143 0
M  V30 2014 H 188.322 -0.258927 -5.25963 0
M  V30 2015 H 190.813 -0.587843 -3.733 0
M  V30 2016 H 191.126 -1.81586 -7.51163 0
M  V30 2017 H 189.471 -1.6263 -6.75705 0
M  V30 2018 H 192.662 -0.811264 -4.61016 0
M  V30 2019 H 192.835 -1.37103 -6.3333 0
M  V30 2020 N 186.241 1.57166 -0.116904 0
M  V30 2021 C 187.173 2.12271 0.864507 0
M  V30 2022 C 188.186 1.06494 1.23138 0
M  V30 2023 O 189.375 1.33873 1.18069 0
M  V30 2024 C 186.475 2.60564 2.16702 0
M  V30 2025 C 185.648 3.90416 1.97216 0
M  V30 2026 C 184.707 4.24329 3.11178 0
M  V30 2027 O 183.733 4.93182 2.84184 0
M  V30 2028 N 184.935 3.8148 4.37554 0
M  V30 2029 H 187.7 2.97102 0.393726 0
M  V30 2030 H 185.261 1.61759 0.0675805 0
M  V30 2031 H 187.253 2.80282 2.91932 0
M  V30 2032 H 185.823 1.80623 2.55135 0
M  V30 2033 H 185.043 3.79627 1.06192 0
M  V30 2034 H 186.331 4.75327 1.81499 0
M  V30 2035 H 185.729 3.25943 4.62361 0
M  V30 2036 H 184.286 4.06311 5.09661 0
M  V30 2037 N 187.719 -0.156864 1.56817 0
M  V30 2038 C 188.965 -0.872416 1.83076 0
M  V30 2039 C 189.298 -1.81261 0.697001 0
M  V30 2040 O 188.573 -1.92171 -0.30008 0
M  V30 2041 C 188.856 -1.65551 3.19789 0
M  V30 2042 C 188.709 -0.737467 4.43713 0
M  V30 2043 C 190.028 -2.62012 3.53606 0
M  V30 2044 H 187.147 -0.315715 0.665953 0
M  V30 2045 H 189.789 -0.138004 1.89498 0
M  V30 2046 H 187.939 -2.28159 3.14445 0
M  V30 2047 H 189.611 -0.123143 4.61136 0
M  V30 2048 H 187.854 -0.0464067 4.33775 0
M  V30 2049 H 188.525 -1.32122 5.35955 0
M  V30 2050 H 191.001 -2.09525 3.59497 0
M  V30 2051 H 189.877 -3.13861 4.50314 0
M  V30 2052 H 190.138 -3.42902 2.79053 0
M  V30 2053 N 189.197 -1.51736 -0.425897 0
M  V30 2054 C 190.127 -1.76827 -1.52494 0
M  V30 2055 C 191.108 -0.618524 -1.58456 0
M  V30 2056 O 192.293 -0.862416 -1.74 0
M  V30 2057 C 189.423 -1.90374 -2.90474 0
M  V30 2058 C 188.377 -3.0588 -2.99369 0
M  V30 2059 C 187.703 -3.04625 -4.3944 0
M  V30 2060 C 189.003 -4.45644 -2.72394 0
M  V30 2061 H 190.697 -2.68855 -1.31748 0
M  V30 2062 H 188.243 -1.29372 -0.632362 0
M  V30 2063 H 190.196 -2.0651 -3.6733 0
M  V30 2064 H 188.92 -0.95004 -3.12477 0
M  V30 2065 H 187.579 -2.89467 -2.24954 0
M  V30 2066 H 187.227 -2.0701 -4.58428 0
M  V30 2067 H 186.927 -3.82195 -4.46319 0
M  V30 2068 H 188.451 -3.22869 -5.18255 0
M  V30 2069 H 189.865 -4.62348 -3.38979 0
M  V30 2070 H 188.262 -5.25006 -2.9067 0
M  V30 2071 H 189.332 -4.54893 -1.67929 0
M  V30 2072 N 190.675 0.682077 -1.42076 0
M  V30 2073 C 191.952 1.43755 -1.32642 0
M  V30 2074 C 192.332 2.11063 0.0396611 0
M  V30 2075 O 191.68 2.02701 1.05474 0
M  V30 2076 C 191.89 2.44596 -2.48946 0
M  V30 2077 C 193.238 3.09454 -2.9073 0
M  V30 2078 O 194.262 2.54922 -2.48783 0
M  V30 2079 O 193.121 4.08253 -3.63307 0
M  V30 2080 H 190.215 0.640857 -0.522715 0
M  V30 2081 H 192.761 0.711415 -1.54068 0
M  V30 2082 H 191.533 1.93609 -3.40046 0
M  V30 2083 H 191.156 3.24701 -2.29467 0
M  V30 2084 N 192.153 1.28127 0.917671 0
M  V30 2085 C 193.116 1.11744 2.00115 0
M  V30 2086 C 194.116 0.0583052 1.60694 0
M  V30 2087 O 195.306 0.303755 1.71531 0
M  V30 2088 C 192.438 0.704862 3.33533 0
M  V30 2089 H 193.631 2.07966 2.16079 0
M  V30 2090 H 191.184 1.11058 1.09981 0
M  V30 2091 H 191.919 -0.258299 3.2327 0
M  V30 2092 H 191.704 1.4699 3.63505 0
M  V30 2093 H 193.194 0.612768 4.1308 0
M  V30 2094 N 193.631 -1.12557 1.10312 0
M  V30 2095 C 194.877 -1.84311 0.846011 0
M  V30 2096 C 195.21 -1.83805 -0.626859 0
M  V30 2097 O 194.485 -1.28268 -1.46211 0
M  V30 2098 C 194.768 -3.32048 1.39341 0
M  V30 2099 C 194.621 -3.41016 2.93305 0
M  V30 2100 C 195.94 -4.27764 1.03468 0
M  V30 2101 H 193.059 -0.669192 0.30879 0
M  V30 2102 H 195.701 -1.32057 1.36605 0
M  V30 2103 H 193.851 -3.76678 0.951087 0
M  V30 2104 H 195.523 -3.05031 3.46055 0
M  V30 2105 H 193.766 -2.81603 3.29973 0
M  V30 2106 H 194.437 -4.44948 3.26689 0
M  V30 2107 H 196.913 -3.91253 1.41633 0
M  V30 2108 H 195.789 -5.29549 1.44463 0
M  V30 2109 H 196.05 -4.42064 -0.0560404 0
M  V30 2110 N 195.109 -0.891671 -1.2995 0
M  V30 2111 C 196.339 -0.527893 -1.99742 0
M  V30 2112 C 196.747 0.88979 -1.66971 0
M  V30 2113 O 196.09 1.59766 -0.906667 0
M  V30 2114 C 196.152 -0.630804 -3.53922 0
M  V30 2115 C 195.816 -2.01401 -4.10228 0
M  V30 2116 C 196.813 -2.98422 -4.25724 0
M  V30 2117 C 194.498 -2.32121 -4.45449 0
M  V30 2118 C 196.492 -4.24293 -4.75662 0
M  V30 2119 C 194.179 -3.58237 -4.95086 0
M  V30 2120 C 195.177 -4.54137 -5.10146 0
M  V30 2121 O 194.865 -5.78014 -5.58708 0
M  V30 2122 H 194.597 -0.201953 -0.645129 0
M  V30 2123 H 197.151 -1.20076 -1.66646 0
M  V30 2124 H 195.381 0.0990616 -3.86573 0
M  V30 2125 H 197.07 -0.277338 -4.04951 0
M  V30 2126 H 197.836 -2.76001 -3.98809 0
M  V30 2127 H 193.715 -1.5824 -4.32991 0
M  V30 2128 H 197.259 -4.99153 -4.87332 0
M  V30 2129 H 193.156 -3.80491 -5.21437 0
M  V30 2130 H 193.924 -5.8049 -5.77039 0
M  V30 2131 N 196.587 1.43421 -0.653314 0
M  V30 2132 C 197.817 2.05864 -0.174238 0
M  V30 2133 C 198.225 1.49052 1.16534 0
M  V30 2134 O 197.568 0.616481 1.73047 0
M  V30 2135 C 197.63 3.59499 -0.00875873 0
M  V30 2136 C 197.294 4.38893 -1.27364 0
M  V30 2137 C 198.291 4.70947 -2.20239 0
M  V30 2138 C 195.976 4.789 -1.51525 0
M  V30 2139 C 197.97 5.41916 -3.35568 0
M  V30 2140 C 195.657 5.49614 -2.67147 0
M  V30 2141 C 196.655 5.81044 -3.58994 0
M  V30 2142 O 196.343 6.50313 -4.72597 0
M  V30 2143 H 196.075 0.670345 -0.0872549 0
M  V30 2144 H 198.629 1.84913 -0.894226 0
M  V30 2145 H 196.859 3.79025 0.7666 0
M  V30 2146 H 198.548 4.0364 0.427687 0
M  V30 2147 H 199.314 4.40558 -2.02815 0
M  V30 2148 H 195.193 4.53843 -0.809158 0
M  V30 2149 H 198.737 5.66365 -4.07279 0
M  V30 2150 H 194.634 5.79419 -2.84505 0
M  V30 2151 H 195.402 6.68795 -4.71864 0
M  V30 2152 N 198.065 0.39524 1.52563 0
M  V30 2153 C 198.995 -0.428384 2.29537 0
M  V30 2154 C 199.976 -1.05831 1.33169 0
M  V30 2155 O 201.161 -1.06995 1.62067 0
M  V30 2156 C 198.291 -1.55274 3.10656 0
M  V30 2157 C 197.245 -1.04855 4.14957 0
M  V30 2158 C 196.571 -2.26543 4.84337 0
M  V30 2159 C 197.871 -0.112324 5.22179 0
M  V30 2160 H 199.565 0.213867 2.98635 0
M  V30 2161 H 197.111 0.104298 1.43622 0
M  V30 2162 H 199.064 -2.1358 3.63265 0
M  V30 2163 H 197.788 -2.22266 2.39302 0
M  V30 2164 H 196.447 -0.487985 3.63338 0
M  V30 2165 H 196.095 -2.92059 4.09525 0
M  V30 2166 H 195.795 -1.93466 5.54837 0
M  V30 2167 H 197.319 -2.85481 5.39753 0
M  V30 2168 H 198.733 -0.603752 5.70112 0
M  V30 2169 H 197.13 0.128968 5.99961 0
M  V30 2170 H 198.2 0.837052 4.77621 0
M  V30 2171 N 199.544 -1.57102 0.125237 0
M  V30 2172 C 200.494 -2.12202 -0.833936 0
M  V30 2173 C 201.478 -1.04433 -1.22403 0
M  V30 2174 O 202.67 -1.30655 -1.19408 0
M  V30 2175 C 199.799 -2.72994 -2.08157 0
M  V30 2176 C 198.885 -3.87852 -1.71556 0
M  V30 2177 N 199.276 -4.9464 -1.05662 0
M  V30 2178 C 197.574 -3.98153 -2.00973 0
M  V30 2179 C 198.275 -5.74953 -0.883376 0
M  V30 2180 N 197.251 -5.24985 -1.41036 0
M  V30 2181 H 201.053 -2.92141 -0.321035 0
M  V30 2182 H 198.567 -1.62217 -0.0770315 0
M  V30 2183 H 200.564 -3.10816 -2.77847 0
M  V30 2184 H 199.224 -1.9452 -2.59985 0
M  V30 2185 H 200.235 -5.12872 -0.719878 0
M  V30 2186 H 196.912 -3.30728 -2.54804 0
M  V30 2187 H 198.302 -6.70904 -0.365675 0
M  V30 2188 N 201.022 0.148545 -1.56898 0
M  V30 2189 C 202.438 0.501131 -1.51528 0
M  V30 2190 C 202.638 1.83458 -0.833399 0
M  V30 2191 O 201.694 2.49259 -0.40328 0
M  V30 2192 C 203.007 0.512864 -2.96294 0
M  V30 2193 C 204.555 0.598487 -3.07225 0
M  V30 2194 C 205.03 0.640897 -4.53494 0
M  V30 2195 N 206.521 0.703163 -4.57832 0
M  V30 2196 C 207.256 0.756935 -5.68382 0
M  V30 2197 N 206.752 0.770147 -6.88506 0
M  V30 2198 N 208.545 0.797698 -5.56411 0
M  V30 2199 H 200.696 -0.725532 -1.99624 0
M  V30 2200 H 202.959 -0.264358 -0.910395 0
M  V30 2201 H 202.665 -0.398691 -3.49433 0
M  V30 2202 H 202.539 1.35133 -3.52163 0
M  V30 2203 H 204.926 1.50046 -2.54106 0
M  V30 2204 H 205.007 -0.267093 -2.54402 0
M  V30 2205 H 204.651 -0.256915 -5.0725 0
M  V30 2206 H 204.581 1.52295 -5.04097 0
M  V30 2207 H 207.072 0.700314 -3.71354 0
M  V30 2208 H 207.385 0.812983 -7.68512 0
M  V30 2209 H 205.73 0.738049 -6.9107 0
M  V30 2210 H 208.921 0.784535 -4.61479 0
M  V30 2211 H 209.094 0.83614 -6.42583 0
M  V30 2212 N 202.5 1.5196 0.417844 0
M  V30 2213 C 203.433 1.69387 1.52916 0
M  V30 2214 C 204.411 0.541419 1.53321 0
M  V30 2215 O 205.595 0.767695 1.72159 0
M  V30 2216 C 202.722 1.72525 2.91467 0
M  V30 2217 C 201.768 2.93967 3.09008 0
M  V30 2218 S 202.601 4.54461 2.83242 0
M  V30 2219 C 203.757 4.60372 4.24038 0
M  V30 2220 H 203.99 2.63382 1.37903 0
M  V30 2221 H 201.523 1.41889 0.608845 0
M  V30 2222 H 203.481 1.75018 3.7132 0
M  V30 2223 H 202.142 0.796733 3.03827 0
M  V30 2224 H 201.335 2.92619 4.10353 0
M  V30 2225 H 200.937 2.89316 2.37007 0
M  V30 2226 H 203.229 4.37213 5.17544 0
M  V30 2227 H 204.172 5.62273 4.30412 0
M  V30 2228 H 204.58 3.89492 4.08602 0
M  V30 2229 N 203.978 -0.674533 1.42435 0
M  V30 2230 C 205.226 -1.43175 1.42637 0
M  V30 2231 C 205.547 -1.94951 0.0438992 0
M  V30 2232 O 204.817 -1.7308 -0.917607 0
M  V30 2233 H 203.397 -0.531307 0.525092 0
M  V30 2234 H 206.059 -0.797006 1.77859 0
M  V30 2235 H 205.155 -2.28463 2.12629 0
M  V30 2236 N 205.456 -1.28612 -0.910864 0
M  V30 2237 C 206.705 -1.15311 -1.65488 0
M  V30 2238 C 207.018 0.296999 -1.93332 0
M  V30 2239 O 208.224 0.551168 -2.65847 0
M  V30 2240 C 206.68 -2.01599 -2.98137 0
M  V30 2241 C 206.288 -3.51367 -2.7793 0
M  V30 2242 C 208.032 -1.96993 -3.76024 0
M  V30 2243 C 205.939 -4.29797 -4.06237 0
M  V30 2244 H 204.869 -0.42796 -0.620779 0
M  V30 2245 H 207.52 -1.53166 -1.01057 0
M  V30 2246 H 205.902 -1.56603 -3.63719 0
M  V30 2247 H 207.076 -4.0434 -2.21011 0
M  V30 2248 H 205.391 -3.57529 -2.13452 0
M  V30 2249 H 207.988 -2.52856 -4.71135 0
M  V30 2250 H 208.331 -0.94733 -4.05378 0
M  V30 2251 H 208.864 -2.39973 -3.17266 0
M  V30 2252 H 205.603 -5.32648 -3.82055 0
M  V30 2253 H 205.123 -3.81596 -4.62757 0
M  V30 2254 H 206.802 -4.39869 -4.74473 0
M  V30 2255 N 206.934 1.1197 -1.10907 0
M  V30 2256 C 208.18 1.8386 -0.855773 0
M  V30 2257 C 208.513 1.84134 0.617103 0
M  V30 2258 O 207.788 1.29041 1.45529 0
M  V30 2259 C 208.071 3.31305 -1.411 0
M  V30 2260 C 207.924 3.39456 -2.9511 0
M  V30 2261 C 209.243 4.2721 -1.05736 0
M  V30 2262 H 206.362 0.667545 -0.312334 0
M  V30 2263 H 209.004 1.31331 -1.37303 0
M  V30 2264 H 207.154 3.76169 -0.97105 0
M  V30 2265 H 208.826 3.03191 -3.47668 0
M  V30 2266 H 207.069 2.79849 -3.31462 0
M  V30 2267 H 207.74 4.43209 -3.29044 0
M  V30 2268 H 210.216 3.90497 -1.43706 0
M  V30 2269 H 209.092 5.28775 -1.47269 0
M  V30 2270 H 209.353 4.42088 0.0325958 0
M  V30 2271 N 208.412 0.89855 1.29475 0
M  V30 2272 C 209.362 0.346767 2.25348 0
M  V30 2273 C 210.346 -0.532509 1.51833 0
M  V30 2274 O 211.538 -0.374714 1.72988 0
M  V30 2275 C 208.667 -0.425681 3.40651 0
M  V30 2276 C 207.753 0.46845 4.21505 0
M  V30 2277 N 208.144 1.57514 4.80648 0
M  V30 2278 C 206.442 0.26603 4.45206 0
M  V30 2279 C 207.143 2.12889 5.41344 0
M  V30 2280 N 206.119 1.42208 5.24669 0
M  V30 2281 H 209.921 1.19219 2.68634 0
M  V30 2282 H 207.435 0.749473 1.44072 0
M  V30 2283 H 209.432 -0.837716 4.08397 0
M  V30 2284 H 208.092 -1.26838 2.98902 0
M  V30 2285 H 209.103 1.95789 4.79465 0
M  V30 2286 H 205.78 -0.538394 4.14014 0
M  V30 2287 H 207.17 3.05901 5.98226 0
M  V30 2288 N 209.89 -1.43072 0.660911 0
M  V30 2289 C 211.306 -1.56169 0.329173 0
M  V30 2290 C 211.506 -1.64317 -1.16629 0
M  V30 2291 O 210.562 -1.60245 -1.95135 0
M  V30 2292 C 211.875 -2.81873 1.04729 0
M  V30 2293 C 213.423 -2.95627 1.02828 0
M  V30 2294 C 213.898 -4.24174 1.72744 0
M  V30 2295 N 215.389 -4.31055 1.69545 0
M  V30 2296 C 216.124 -5.29304 2.20511 0
M  V30 2297 N 215.62 -6.33786 2.79799 0
M  V30 2298 N 217.413 -5.21008 2.10966 0
M  V30 2299 H 209.564 -1.36027 1.63127 0
M  V30 2300 H 211.827 -0.653823 0.686454 0
M  V30 2301 H 211.533 -2.81942 2.10242 0
M  V30 2302 H 211.407 -3.72338 0.603702 0
M  V30 2303 H 213.794 -2.95094 -0.0184742 0
M  V30 2304 H 213.875 -2.06431 1.51063 0
M  V30 2305 H 213.519 -4.25467 2.7738 0
M  V30 2306 H 213.449 -5.1228 1.2197 0
M  V30 2307 H 215.94 -3.56174 1.26288 0
M  V30 2308 H 216.253 -7.05086 3.16344 0
M  V30 2309 H 214.598 -6.34387 2.83863 0
M  V30 2310 H 217.789 -4.38301 1.64347 0
M  V30 2311 H 217.962 -5.97416 2.50993 0
M  V30 2312 N 211.368 -0.403325 -1.52352 0
M  V30 2313 C 212.645 0.232611 -1.94212 0
M  V30 2314 C 213.025 1.63133 -1.33981 0
M  V30 2315 O 212.373 2.22659 -0.513344 0
M  V30 2316 C 212.583 0.244811 -3.4814 0
M  V30 2317 C 213.931 0.46698 -4.22024 0
M  V30 2318 O 214.955 0.324419 -3.5472 0
M  V30 2319 O 213.814 0.74747 -5.41364 0
M  V30 2320 H 210.908 0.148223 -0.813609 0
M  V30 2321 H 213.454 -0.458848 -1.63379 0
M  V30 2322 H 212.226 -0.734378 -3.84347 0
M  V30 2323 H 211.849 0.980611 -3.85318 0
M  V30 2324 N 212.846 1.57033 -0.133567 0
M  V30 2325 C 213.776 2.1909 0.807567 0
M  V30 2326 C 214.757 1.13517 1.26681 0
M  V30 2327 O 215.942 1.41809 1.32679 0
M  V30 2328 C 213.072 2.80188 2.05212 0
M  V30 2329 C 212.026 3.91471 1.73015 0
M  V30 2330 C 211.352 4.39443 3.04622 0
M  V30 2331 C 212.652 5.12886 0.987168 0
M  V30 2332 H 214.346 2.97988 0.290403 0
M  V30 2333 H 211.892 1.43335 0.138239 0
M  V30 2334 H 213.845 3.22264 2.71521 0
M  V30 2335 H 212.569 1.98601 2.59278 0
M  V30 2336 H 211.228 3.49993 1.0909 0
M  V30 2337 H 210.876 3.54695 3.56651 0
M  V30 2338 H 210.576 5.14495 2.83847 0
M  V30 2339 H 212.1 4.8418 3.72024 0
M  V30 2340 H 213.514 5.51891 1.55208 0
M  V30 2341 H 211.911 5.93615 0.87985 0
M  V30 2342 H 212.981 4.84894 -0.0235286 0
M  V30 2343 N 214.325 -0.140222 1.56975 0
M  V30 2344 C 215.272 -1.17292 1.98774 0
M  V30 2345 C 216.242 -1.4232 0.856408 0
M  V30 2346 O 217.427 -1.54541 1.119 0
M  V30 2347 C 214.567 -2.49973 2.37923 0
M  V30 2348 C 213.68 -2.32062 3.64378 0
M  V30 2349 C 212.815 -3.57825 3.926 0
M  V30 2350 C 211.854 -3.3498 5.12303 0
M  V30 2351 N 210.991 -4.52891 5.36502 0
M  V30 2352 H 215.831 -0.809472 2.86795 0
M  V30 2353 H 213.368 -0.388237 1.41884 0
M  V30 2354 H 215.326 -3.27346 2.58652 0
M  V30 2355 H 213.956 -2.84252 1.52972 0
M  V30 2356 H 213.008 -1.45711 3.51387 0
M  V30 2357 H 214.32 -2.11145 4.51906 0
M  V30 2358 H 213.474 -4.43624 4.13863 0
M  V30 2359 H 212.213 -3.81753 3.03506 0
M  V30 2360 H 211.218 -2.4757 4.90906 0
M  V30 2361 H 212.443 -3.12444 6.02956 0
M  V30 2362 H 210.389 -4.76979 4.50363 0
M  V30 2363 H 210.306 -4.35001 6.18312 0
M  V30 2364 H 211.574 -5.39884 5.62268 0
M  V30 2365 N 215.803 -1.52179 -0.40978 0
M  V30 2366 C 217.214 -1.58377 -0.988615 0
M  V30 2367 C 217.565 -0.423879 -1.91566 0
M  V30 2368 O 216.69 0.455844 -2.11544 0
M  V30 2369 C 217.285 -2.87044 -1.79976 0
M  V30 2370 C 215.844 -2.95722 -2.32863 0
M  V30 2371 C 214.991 -2.53309 -1.12828 0
M  V30 2372 H 217.942 -1.57558 -0.190039 0
M  V30 2373 H 217.963 -2.7236 -2.65707 0
M  V30 2374 H 217.475 -3.71444 -1.12478 0
M  V30 2375 H 215.576 -2.15814 -3.03735 0
M  V30 2376 H 215.689 -3.99951 -2.63773 0
M  V30 2377 H 214.053 -2.07142 -1.48204 0
M  V30 2378 H 214.836 -3.40082 -0.46897 0
M  V30 2379 N 217.281 0.66697 -1.42791 0
M  V30 2380 C 218.191 1.80962 -1.49299 0
M  V30 2381 C 219.207 1.69775 -0.381108 0
M  V30 2382 O 220.383 1.91188 -0.633188 0
M  V30 2383 C 217.448 3.17156 -1.40045 0
M  V30 2384 C 216.509 3.40242 -2.6179 0
M  V30 2385 C 215.742 4.69939 -2.52969 0
M  V30 2386 O 215.965 5.48372 -1.56985 0
M  V30 2387 O 214.899 4.94441 -3.43237 0
M  V30 2388 H 218.725 1.78427 -2.45759 0
M  V30 2389 H 216.31 0.823713 -1.24641 0
M  V30 2390 H 218.192 3.98413 -1.37276 0
M  V30 2391 H 216.867 3.20312 -0.467138 0
M  V30 2392 H 215.774 2.58802 -2.70134 0
M  V30 2393 H 217.107 3.41923 -3.54047 0
M  V30 2394 N 218.759 1.29093 0.90403 0
M  V30 2395 C 219.707 1.13727 2.02901 0
M  V30 2396 C 220.701 0.0539853 1.69314 0
M  V30 2397 O 221.907 0.213469 1.7873 0
M  V30 2398 H 218.282 0.35117 0.664969 0
M  V30 2399 H 220.253 2.08982 2.13001 0
M  V30 2400 C 219.002 0.826066 3.37745 0
M  V30 2401 H 218.325 1.65164 3.64089 0
M  V30 2402 H 219.765 0.758559 4.17159 0
M  V30 2403 C 218.224 -0.470541 3.33598 0
M  V30 2404 O 218.754 -1.49792 3.72727 0
M  V30 2405 N 216.96 -0.474812 2.86695 0
M  V30 2406 H 216.507 0.361692 2.55048 0
M  V30 2407 H 216.465 -1.34236 2.84303 0
M  V30 2408 N 220.237 -1.11381 1.11499 0
M  V30 2409 C 221.167 -2.19509 0.796125 0
M  V30 2410 C 222.148 -1.68458 -0.235796 0
M  V30 2411 O 223.333 -1.93947 -0.0991344 0
M  V30 2412 C 220.463 -3.46475 0.239205 0
M  V30 2413 C 219.417 -4.10744 1.20307 0
M  V30 2414 C 218.743 -5.32293 0.50683 0
M  V30 2415 C 220.043 -4.55597 2.55399 0
M  V30 2416 H 221.737 -2.46439 1.70024 0
M  V30 2417 H 219.283 -1.18446 0.818935 0
M  V30 2418 H 221.236 -4.214 0.00392006 0
M  V30 2419 H 219.96 -3.19006 -0.700206 0
M  V30 2420 H 218.619 -3.37813 1.42399 0
M  V30 2421 H 218.267 -5.01095 -0.437408 0
M  V30 2422 H 217.967 -5.76243 1.1497 0
M  V30 2423 H 219.491 -6.09956 0.280351 0
M  V30 2424 H 220.905 -5.21841 2.37391 0
M  V30 2425 H 219.302 -5.10363 3.15673 0
M  V30 2426 H 220.372 -3.69013 3.14575 0
M  V30 2427 N 221.715 -0.905404 -1.28997 0
M  V30 2428 C 222.645 -0.404212 -2.29975 0
M  V30 2429 C 223.626 0.523784 -1.61835 0
M  V30 2430 O 224.811 0.433298 -1.89304 0
M  V30 2431 C 221.941 0.364042 -3.45387 0
M  V30 2432 C 220.895 -0.474048 -4.25367 0
M  V30 2433 C 220.221 0.422045 -5.33032 0
M  V30 2434 C 221.521 -1.72696 -4.92923 0
M  V30 2435 H 223.215 -1.24807 -2.72146 0
M  V30 2436 H 220.761 -0.601585 -1.30832 0
M  V30 2437 H 222.714 0.725447 -4.15109 0
M  V30 2438 H 221.438 1.24174 -3.02074 0
M  V30 2439 H 220.097 -0.81786 -3.57361 0
M  V30 2440 H 219.745 1.29804 -4.85963 0
M  V30 2441 H 219.445 -0.135057 -5.87445 0
M  V30 2442 H 220.969 0.779517 -6.05604 0
M  V30 2443 H 222.383 -1.43495 -5.55051 0
M  V30 2444 H 220.78 -2.22582 -5.57295 0
M  V30 2445 H 221.85 -2.45964 -4.17887 0
M  V30 2446 N 223.193 1.4272 -0.668489 0
M  V30 2447 C 224.423 2.05668 -0.196063 0
M  V30 2448 C 224.831 1.5028 1.14946 0
M  V30 2449 O 224.174 0.6348 1.72383 0
M  V30 2450 C 224.236 3.59469 -0.0468879 0
M  V30 2451 C 223.9 4.37518 -1.32012 0
M  V30 2452 C 224.897 4.68584 -2.25222 0
M  V30 2453 C 222.582 4.77266 -1.56596 0
M  V30 2454 C 224.576 5.38326 -3.41297 0
M  V30 2455 C 222.263 5.4675 -2.72962 0
M  V30 2456 C 223.261 5.77204 -3.65137 0
M  V30 2457 O 222.949 6.45264 -4.79468 0
M  V30 2458 H 222.681 0.669382 -0.0943599 0
M  V30 2459 H 225.235 1.83954 -0.913788 0
M  V30 2460 H 223.465 3.79817 0.726357 0
M  V30 2461 H 225.154 4.04071 0.384852 0
M  V30 2462 H 225.92 4.38382 -2.07477 0
M  V30 2463 H 221.799 4.52959 -0.857249 0
M  V30 2464 H 225.343 5.62014 -4.13263 0
M  V30 2465 H 221.24 5.76369 -2.90635 0
M  V30 2466 H 222.008 6.63753 -4.78931 0
M  V30 2467 N 224.671 0.411399 1.52136 0
M  V30 2468 C 225.901 -0.16284 2.05957 0
M  V30 2469 C 226.309 -1.3922 1.28119 0
M  V30 2470 O 225.652 -1.80768 0.326881 0
M  V30 2471 C 225.714 -0.575946 3.54856 0
M  V30 2472 C 225.378 0.542998 4.53763 0
M  V30 2473 C 226.375 1.40726 5.00492 0
M  V30 2474 C 224.06 0.716337 4.97166 0
M  V30 2475 C 226.054 2.4298 5.8927 0
M  V30 2476 C 223.741 1.74218 5.8574 0
M  V30 2477 C 224.739 2.59731 6.31687 0
M  V30 2478 O 224.427 3.60558 7.18507 0
M  V30 2479 H 224.159 -0.0229125 0.675612 0
M  V30 2480 H 226.713 0.581634 1.96993 0
M  V30 2481 H 224.943 -1.37274 3.61515 0
M  V30 2482 H 226.632 -1.07836 3.91313 0
M  V30 2483 H 227.398 1.28476 4.67674 0
M  V30 2484 H 223.277 0.0603857 4.6096 0
M  V30 2485 H 226.821 3.0976 6.25055 0
M  V30 2486 H 222.718 1.86498 6.17971 0
M  V30 2487 H 223.486 3.56829 7.36624 0
M  V30 2488 N 226.149 -1.5696 0.141893 0
M  V30 2489 C 227.374 -2.00754 -0.520838 0
M  V30 2490 C 227.799 -1.0213 -1.57959 0
M  V30 2491 O 227.157 0.00371324 -1.813 0
M  V30 2492 C 227.205 -3.43318 -1.10294 0
M  V30 2493 O 226.309 -3.47679 -2.21795 0
M  V30 2494 H 225.65 -0.651564 -0.127908 0
M  V30 2495 H 228.18 -2.03221 0.23712 0
M  V30 2496 H 228.19 -3.82012 -1.43287 0
M  V30 2497 H 226.865 -4.14608 -0.327574 0
M  V30 2498 H 225.442 -3.20824 -1.9007 0
M  V30 2499 N 227.627 0.131896 -1.57047 0
M  V30 2500 C 228.559 1.1878 -1.9602 0
M  V30 2501 C 229.572 1.38363 -0.857875 0
M  V30 2502 O 230.761 1.37666 -1.13623 0
M  V30 2503 C 227.861 2.55008 -2.23213 0
M  V30 2504 C 227.034 2.56201 -3.54513 0
M  V30 2505 C 226.093 3.7408 -3.70069 0
M  V30 2506 O 225.119 3.58258 -4.42312 0
M  V30 2507 N 226.321 4.92137 -3.07866 0
M  V30 2508 H 229.086 0.85639 -2.87204 0
M  V30 2509 H 226.647 0.321309 -1.5868 0
M  V30 2510 H 228.639 3.32404 -2.30846 0
M  V30 2511 H 227.209 2.80382 -1.3822 0
M  V30 2512 H 226.429 1.64613 -3.58185 0
M  V30 2513 H 227.717 2.54043 -4.4084 0
M  V30 2514 H 227.115 5.07895 -2.49116 0
M  V30 2515 H 225.672 5.67254 -3.21039 0
M  V30 2516 N 229.106 1.52395 0.401703 0
M  V30 2517 C 230.383 1.57387 1.16141 0
M  V30 2518 C 230.763 0.359359 2.08019 0
M  V30 2519 O 230.111 -0.65326 2.18963 0
M  V30 2520 C 230.321 2.90631 1.93221 0
M  V30 2521 C 231.669 3.43904 2.49028 0
M  V30 2522 O 232.693 2.92421 2.03393 0
M  V30 2523 O 231.552 4.33823 3.32356 0
M  V30 2524 H 228.646 0.634262 0.530698 0
M  V30 2525 H 231.192 1.64725 0.407883 0
M  V30 2526 H 229.964 3.70473 1.25958 0
M  V30 2527 H 229.587 2.8662 2.75563 0
M  V30 2528 N 230.584 -0.659388 1.43143 0
M  V30 2529 C 231.494 -1.80167 1.50256 0
M  V30 2530 C 232.51 -1.69571 0.390106 0
M  V30 2531 O 233.686 -1.90849 0.643319 0
M  V30 2532 C 230.751 -3.16409 1.41725 0
M  V30 2533 C 229.812 -3.38848 2.63591 0
M  V30 2534 C 229.045 -4.68591 2.55458 0
M  V30 2535 O 229.268 -5.47532 1.59891 0
M  V30 2536 O 228.202 -4.92614 3.45854 0
M  V30 2537 H 232.028 -1.77121 2.46702 0
M  V30 2538 H 229.613 -0.817092 1.25076 0
M  V30 2539 H 231.495 -3.9768 1.39387 0
M  V30 2540 H 230.17 -3.20059 0.484118 0
M  V30 2541 H 229.077 -2.57366 2.71502 0
M  V30 2542 H 230.41 -3.4004 3.55856 0
M  V30 2543 N 232.062 -1.29571 -0.897171 0
M  V30 2544 C 232.972 -1.16808 -2.03453 0
M  V30 2545 C 233.988 -0.0907471 -1.73763 0
M  V30 2546 O 235.164 -0.303312 -1.99103 0
M  V30 2547 C 232.229 -0.848264 -3.36163 0
M  V30 2548 C 231.29 -2.0097 -3.79354 0
M  V30 2549 C 230.523 -1.70505 -5.05731 0
M  V30 2550 O 230.746 -0.62718 -5.66941 0
M  V30 2551 O 229.68 -2.5538 -5.45036 0
M  V30 2552 H 233.506 -2.12325 -2.17144 0
M  V30 2553 H 231.091 -1.09047 -1.02123 0
M  V30 2554 H 232.973 -0.684581 -4.15802 0
M  V30 2555 H 231.648 0.0771071 -3.23608 0
M  V30 2556 H 230.555 -2.22863 -3.00471 0
M  V30 2557 H 231.888 -2.91636 -3.96496 0
M  V30 2558 N 233.54 1.10788 -1.12088 0
M  V30 2559 C 234.765 1.87002 -0.896949 0
M  V30 2560 C 235.19 1.79933 0.548261 0
M  V30 2561 O 234.548 1.16662 1.38779 0
M  V30 2562 C 234.596 3.3349 -1.37174 0
M  V30 2563 O 233.7 4.08745 -0.547831 0
M  V30 2564 H 233.041 0.580397 -0.322545 0
M  V30 2565 H 235.571 1.39996 -1.49206 0
M  V30 2566 H 235.581 3.84339 -1.36922 0
M  V30 2567 H 234.256 3.37951 -2.42408 0
M  V30 2568 H 232.833 3.6776 -0.617034 0
M  V30 2569 N 235.018 0.912232 1.28515 0
M  V30 2570 C 235.965 0.397954 2.27343 0
M  V30 2571 C 236.935 -0.526766 1.57526 0
M  V30 2572 O 238.12 -0.449292 1.85435 0
M  V30 2573 C 235.26 -0.357263 3.43246 0
M  V30 2574 C 234.373 0.599788 4.27816 0
M  V30 2575 C 233.508 -0.173725 5.30916 0
M  V30 2576 C 232.547 0.777039 6.07148 0
M  V30 2577 N 231.684 0.0371398 7.0209 0
M  V30 2578 H 236.524 1.24577 2.70711 0
M  V30 2579 H 234.061 0.625612 1.33133 0
M  V30 2580 H 236.019 -0.8113 4.09236 0
M  V30 2581 H 234.649 -1.16943 3.00872 0
M  V30 2582 H 233.701 1.17235 3.61884 0
M  V30 2583 H 235.013 1.32704 4.80823 0
M  V30 2584 H 234.167 -0.688394 6.02782 0
M  V30 2585 H 232.906 -0.934041 4.78672 0
M  V30 2586 H 231.911 1.3031 5.34134 0
M  V30 2587 H 233.136 1.53689 6.61481 0
M  V30 2588 H 231.082 -0.705213 6.52198 0
M  V30 2589 H 230.999 0.704249 7.52713 0
M  V30 2590 H 232.267 -0.457383 7.78157 0
M  V30 2591 N 236.496 -1.42363 0.676048 0
M  V30 2592 C 237.745 -2.00745 0.196037 0
M  V30 2593 C 238.058 -1.54083 -1.20489 0
M  V30 2594 O 239.264 -2.04891 -1.78134 0
M  V30 2595 C 237.72 -3.58651 0.299616 0
M  V30 2596 C 237.328 -4.143 1.70468 0
M  V30 2597 C 239.072 -4.24326 -0.121619 0
M  V30 2598 C 236.979 -5.64574 1.76096 0
M  V30 2599 H 235.909 -0.750787 0.0695301 0
M  V30 2600 H 238.56 -1.63072 0.841412 0
M  V30 2601 H 236.942 -3.93833 -0.413673 0
M  V30 2602 H 238.116 -3.90575 2.44515 0
M  V30 2603 H 236.431 -3.61081 2.07387 0
M  V30 2604 H 239.028 -5.34607 -0.0997362 0
M  V30 2605 H 239.371 -3.99897 -1.15708 0
M  V30 2606 H 239.904 -3.94108 0.540706 0
M  V30 2607 H 236.643 -5.93804 2.77628 0
M  V30 2608 H 236.163 -5.90286 1.06406 0
M  V30 2609 H 237.842 -6.29013 1.51496 0
M  V30 2610 N 237.974 -0.419461 -1.51915 0
M  V30 2611 C 238.907 0.445751 -2.23804 0
M  V30 2612 C 239.885 1.03951 -1.25031 0
M  V30 2613 O 241.069 1.08541 -1.54114 0
M  V30 2614 C 238.196 1.61964 -2.97465 0
M  V30 2615 C 237.242 1.14828 -4.10751 0
M  V30 2616 S 238.075 0.104938 -5.35397 0
M  V30 2617 C 239.231 1.28391 -6.1259 0
M  V30 2618 H 239.464 -0.164627 -2.96844 0
M  V30 2619 H 236.997 -0.203833 -1.53049 0
M  V30 2620 H 238.955 2.29271 -3.40507 0
M  V30 2621 H 237.616 2.20139 -2.24048 0
M  V30 2622 H 236.809 2.02561 -4.61503 0
M  V30 2623 H 236.411 0.553712 -3.69878 0
M  V30 2624 H 238.703 2.20563 -6.40592 0
M  V30 2625 H 239.646 0.816724 -7.03374 0
M  V30 2626 H 240.054 1.51439 -5.43807 0
M  V30 2627 N 239.452 1.56882 -0.150215 0
M  V30 2628 C 240.701 1.95403 0.500071 0
M  V30 2629 C 241.014 1.03777 1.658 0
M  V30 2630 O 242.22 1.31889 2.37313 0
M  V30 2631 C 240.676 3.4738 0.941018 0
M  V30 2632 C 240.284 4.47596 -0.190158 0
M  V30 2633 C 242.028 3.9476 1.56091 0
M  V30 2634 C 239.935 5.90787 0.269237 0
M  V30 2635 H 238.865 0.729515 0.190588 0
M  V30 2636 H 241.516 1.81988 -0.235074 0
M  V30 2637 H 239.898 3.56138 1.73152 0
M  V30 2638 H 241.072 4.50536 -0.967157 0
M  V30 2639 H 239.387 4.10151 -0.718666 0
M  V30 2640 H 241.984 4.99181 1.9163 0
M  V30 2641 H 242.327 3.36494 2.45107 0
M  V30 2642 H 242.86 3.88932 0.835249 0
M  V30 2643 H 239.599 6.52879 -0.585621 0
M  V30 2644 H 239.119 5.912 1.01204 0
M  V30 2645 H 240.798 6.42979 0.720176 0
M  V30 2646 N 240.93 -0.123565 1.57115 0
M  V30 2647 C 242.155 -0.850398 1.89164 0
M  V30 2648 C 242.58 -1.7286 0.741688 0
M  V30 2649 O 241.938 -1.78665 -0.307958 0
M  V30 2650 C 241.986 -1.66353 3.19936 0
M  V30 2651 O 241.09 -2.77004 3.0552 0
M  V30 2652 H 240.431 -0.235454 0.620852 0
M  V30 2653 H 242.961 -0.107335 2.04318 0
M  V30 2654 H 242.971 -2.05372 3.52543 0
M  V30 2655 H 241.646 -1.01881 4.03228 0
M  V30 2656 H 240.223 -2.41221 2.84371 0
M  V30 2657 N 242.408 -1.52605 -0.393616 0
M  V30 2658 C 243.685 -1.58001 -1.15304 0
M  V30 2659 C 244.065 -0.370385 -2.07825 0
M  V30 2660 O 243.413 0.641638 -2.19306 0
M  V30 2661 C 243.623 -2.91652 -1.91677 0
M  V30 2662 C 244.971 -3.4522 -2.47201 0
M  V30 2663 O 245.995 -2.93495 -2.01839 0
M  V30 2664 O 244.854 -4.35579 -3.3005 0
M  V30 2665 H 241.948 -0.637068 -0.527327 0
M  V30 2666 H 244.494 -1.64939 -0.399141 0
M  V30 2667 H 243.266 -3.71136 -1.23992 0
M  V30 2668 H 242.889 -2.88077 -2.74039 0
M  V30 2669 N 243.887 0.651787 -1.4349 0
M  V30 2670 C 245.134 1.41167 -1.45183 0
M  V30 2671 C 245.462 1.94349 -0.0766601 0
M  V30 2672 O 244.717 1.72804 0.918555 0
M  V30 2673 C 245.016 2.60914 -2.44251 0
M  V30 2674 C 244.682 2.26142 -3.9009 0
M  V30 2675 C 243.344 2.16371 -4.2981 0
M  V30 2676 C 245.696 1.98334 -4.81989 0
M  V30 2677 C 243.024 1.7695 -5.5938 0
M  V30 2678 C 245.376 1.6041 -6.11924 0
M  V30 2679 C 244.04 1.49166 -6.5062 0
M  V30 2680 H 243.31 0.516566 -0.531263 0
M  V30 2681 H 245.957 0.741099 -1.76579 0
M  V30 2682 H 244.262 3.3311 -2.06265 0
M  V30 2683 H 245.959 3.19127 -2.42815 0
M  V30 2684 H 242.549 2.34658 -3.58655 0
M  V30 2685 H 246.733 2.04803 -4.52072 0
M  V30 2686 H 241.989 1.66831 -5.88198 0
M  V30 2687 H 246.163 1.37925 -6.82605 0
M  V30 2688 H 243.79 1.1839 -7.50925 0
M  V30 2689 N 245.365 1.30045 0.890287 0
M  V30 2690 C 246.613 1.18327 1.63839 0
M  V30 2691 C 246.934 -0.263455 1.93212 0
M  V30 2692 O 246.204 -1.17856 1.56482 0
M  V30 2693 H 244.784 0.434933 0.607324 0
M  V30 2694 H 247.446 1.631 1.06698 0
M  V30 2695 H 246.542 1.74024 2.59079 0
M  V30 2696 N 246.843 -1.10192 1.12674 0
M  V30 2697 C 247.773 -2.18652 0.819362 0
M  V30 2698 C 248.754 -1.68698 -0.217915 0
M  V30 2699 O 249.939 -1.94041 -0.0785581 0
M  V30 2700 C 247.069 -3.46202 0.27594 0
M  V30 2701 C 246.023 -4.09444 1.24656 0
M  V30 2702 C 245.349 -5.31725 0.563258 0
M  V30 2703 C 246.649 -4.52863 2.60217 0
M  V30 2704 H 248.343 -2.44622 1.72628 0
M  V30 2705 H 245.889 -1.17571 0.831451 0
M  V30 2706 H 247.842 -4.21372 0.0486149 0
M  V30 2707 H 246.566 -3.1973 -0.666331 0
M  V30 2708 H 245.225 -3.36284 1.45974 0
M  V30 2709 H 244.873 -5.0153 -0.384235 0
M  V30 2710 H 244.573 -5.74991 1.21075 0
M  V30 2711 H 246.097 -6.09624 0.34503 0
M  V30 2712 H 247.511 -5.19294 2.42913 0
M  V30 2713 H 245.908 -5.06986 3.21068 0
M  V30 2714 H 246.978 -3.65656 3.18471 0
M  V30 2715 N 248.321 -0.919034 -1.28029 0
M  V30 2716 C 249.546 -0.570357 -1.99403 0
M  V30 2717 C 249.971 0.842486 -1.68178 0
M  V30 2718 O 249.329 1.56391 -0.917141 0
M  V30 2719 C 249.377 -0.792541 -3.51783 0
M  V30 2720 O 248.481 0.145988 -4.12142 0
M  V30 2721 H 247.822 -0.220555 -0.6263 0
M  V30 2722 H 250.352 -1.23592 -1.63053 0
M  V30 2723 H 250.362 -0.704708 -4.01868 0
M  V30 2724 H 249.037 -1.82247 -3.73844 0
M  V30 2725 H 247.614 0.00897528 -3.72899 0
M  V30 2726 N 249.799 1.42003 -0.683588 0
M  V30 2727 C 250.746 2.30798 -0.0107309 0
M  V30 2728 C 251.716 1.4645 0.783688 0
M  V30 2729 O 252.901 1.75263 0.754156 0
M  V30 2730 C 250.041 3.3238 0.928306 0
M  V30 2731 C 249.154 4.31814 0.126776 0
M  V30 2732 C 248.289 5.20468 1.06236 0
M  V30 2733 C 247.328 6.11577 0.253035 0
M  V30 2734 N 246.465 6.92754 1.14179 0
M  V30 2735 H 251.305 2.8778 -0.773727 0
M  V30 2736 H 248.842 1.41745 -0.393283 0
M  V30 2737 H 250.8 3.89813 1.48666 0
M  V30 2738 H 249.43 2.76976 1.65783 0
M  V30 2739 H 248.482 3.76427 -0.54833 0
M  V30 2740 H 249.794 4.96276 -0.501192 0
M  V30 2741 H 248.948 5.82677 1.69035 0
M  V30 2742 H 247.687 4.56204 1.7242 0
M  V30 2743 H 246.692 5.48428 -0.388108 0
M  V30 2744 H 247.917 6.77892 -0.404839 0
M  V30 2745 H 245.863 6.3111 1.78987 0
M  V30 2746 H 245.78 7.53855 0.569111 0
M  V30 2747 H 247.048 7.59441 1.75697 0
M  V30 2748 N 251.277 0.427512 1.51691 0
M  V30 2749 C 252.21 -0.433876 2.24037 0
M  V30 2750 C 253.188 -1.03287 1.25581 0
M  V30 2751 O 254.372 -1.07722 1.54688 0
M  V30 2752 C 251.499 -1.60385 2.98319 0
M  V30 2753 C 250.545 -1.12648 4.11355 0
M  V30 2754 S 251.378 -0.076543 5.35445 0
M  V30 2755 C 252.534 -1.25141 6.13262 0
M  V30 2756 H 252.767 0.180367 2.96752 0
M  V30 2757 H 250.3 0.211946 1.52938 0
M  V30 2758 H 252.258 -2.27462 3.41718 0
M  V30 2759 H 250.919 -2.18948 2.25213 0
M  V30 2760 H 250.112 -2.0011 4.62571 0
M  V30 2761 H 249.714 -0.534088 3.70167 0
M  V30 2762 H 252.006 -2.17162 6.41753 0
M  V30 2763 H 252.949 -0.779411 7.03797 0
M  V30 2764 H 253.357 -1.48553 5.44603 0
M  V30 2765 N 252.755 -1.56801 0.158532 0
M  V30 2766 C 253.665 -2.20916 -0.789518 0
M  V30 2767 C 254.681 -1.1969 -1.26294 0
M  V30 2768 O 255.857 -1.52308 -1.31773 0
M  V30 2769 C 252.922 -2.82727 -2.00665 0
M  V30 2770 C 251.983 -3.99114 -1.58134 0
M  V30 2771 C 251.216 -4.57968 -2.74045 0
M  V30 2772 O 251.439 -4.15704 -3.90572 0
M  V30 2773 O 250.373 -5.48047 -2.48855 0
M  V30 2774 H 254.199 -3.02464 -0.273681 0
M  V30 2775 H 251.784 -1.4924 -0.0690548 0
M  V30 2776 H 253.666 -3.21968 -2.71872 0
M  V30 2777 H 252.341 -2.04184 -2.51179 0
M  V30 2778 H 251.248 -3.64567 -0.839155 0
M  V30 2779 H 252.581 -4.79212 -1.12325 0
M  V30 2780 N 254.233 0.115231 -1.57178 0
M  V30 2781 C 255.481 0.820727 -1.84685 0
M  V30 2782 C 255.802 1.80237 -0.744279 0
M  V30 2783 O 255.072 1.94529 0.231375 0
M  V30 2784 H 253.652 0.306084 -0.681411 0
M  V30 2785 H 256.314 0.101656 -1.94635 0
M  V30 2786 H 255.41 1.36366 -2.80733 0
M  V30 2787 N 255.711 1.52812 0.385517 0
M  V30 2788 C 256.658 1.77838 1.47113 0
M  V30 2789 C 257.628 0.621757 1.54024 0
M  V30 2790 O 258.813 0.861846 1.70226 0
M  V30 2791 C 255.953 1.95618 2.84302 0
M  V30 2792 C 255.066 3.23316 2.86515 0
M  V30 2793 C 254.201 3.31394 4.15152 0
M  V30 2794 C 253.24 4.53201 4.1143 0
M  V30 2795 N 252.377 4.58542 5.3168 0
M  V30 2796 H 257.217 2.70482 1.25073 0
M  V30 2797 H 254.754 1.34006 0.606692 0
M  V30 2798 H 256.712 2.03912 3.63972 0
M  V30 2799 H 255.342 1.06331 3.04784 0
M  V30 2800 H 254.394 3.24076 1.99195 0
M  V30 2801 H 255.706 4.13045 2.79634 0
M  V30 2802 H 254.86 3.3889 5.03228 0
M  V30 2803 H 253.599 2.39645 4.24761 0
M  V30 2804 H 252.604 4.45827 3.21742 0
M  V30 2805 H 253.829 5.46271 4.03442 0
M  V30 2806 H 251.775 3.69686 5.41912 0
M  V30 2807 H 251.692 5.42148 5.26889 0
M  V30 2808 H 252.96 4.70296 6.21644 0
M  V30 2809 N 257.189 -0.644168 1.43834 0
M  V30 2810 C 258.437 -1.40117 1.45642 0
M  V30 2811 C 258.758 -1.94814 0.0852413 0
M  V30 2812 O 258.028 -1.74988 -0.880688 0
M  V30 2813 H 256.608 -0.52005 0.536243 0
M  V30 2814 H 259.27 -0.7591 1.7951 0
M  V30 2815 H 258.366 -2.23902 2.17427 0
M  V30 2816 N 258.668 -1.30515 -0.883378 0
M  V30 2817 C 259.945 -1.10086 -1.6168 0
M  V30 2818 C 260.325 0.349269 -2.08191 0
M  V30 2819 O 259.673 1.34105 -1.85008 0
M  V30 2820 C 259.883 -2.10315 -2.78511 0
M  V30 2821 C 261.231 -2.42119 -3.48803 0
M  V30 2822 O 262.255 -2.08638 -2.88702 0
M  V30 2823 O 261.114 -2.99396 -4.57192 0
M  V30 2824 H 258.208 -0.422907 -0.710689 0
M  V30 2825 H 260.754 -1.41947 -0.930015 0
M  V30 2826 H 259.526 -3.07917 -2.41459 0
M  V30 2827 H 259.149 -1.79282 -3.54886 0
M  V30 2828 N 260.146 1.09593 -1.13257 0
M  V30 2829 C 261.392 1.82003 -0.89458 0
M  V30 2830 C 261.725 1.85402 0.577906 0
M  V30 2831 O 261 1.32099 1.42759 0
M  V30 2832 C 261.283 3.28237 -1.48096 0
M  V30 2833 C 261.136 3.3312 -3.02244 0
M  V30 2834 C 262.455 4.24871 -1.14774 0
M  V30 2835 H 259.574 0.66077 -0.326424 0
M  V30 2836 H 262.216 1.28389 -1.40058 0
M  V30 2837 H 260.366 3.74024 -1.05062 0
M  V30 2838 H 262.038 2.95748 -3.54021 0
M  V30 2839 H 260.281 2.72756 -3.37323 0
M  V30 2840 H 260.952 4.3613 -3.38371 0
M  V30 2841 H 263.428 3.87361 -1.51957 0
M  V30 2842 H 262.304 5.25532 -1.58452 0
M  V30 2843 H 262.565 4.42058 -0.0611849 0
M  V30 2844 N 261.624 0.925811 1.2754 0
M  V30 2845 C 262.557 0.367836 2.25216 0
M  V30 2846 C 263.535 -0.534738 1.53556 0
M  V30 2847 O 264.719 -0.475672 1.824 0
M  V30 2848 C 261.846 -0.47298 3.35381 0
M  V30 2849 C 260.892 0.365898 4.24928 0
M  V30 2850 S 261.725 1.78025 5.05042 0
M  V30 2851 C 262.881 0.947068 6.18693 0
M  V30 2852 H 263.114 1.19568 2.72196 0
M  V30 2853 H 260.647 0.727867 1.36167 0
M  V30 2854 H 262.605 -0.952242 3.99303 0
M  V30 2855 H 261.266 -1.27533 2.87044 0
M  V30 2856 H 260.459 -0.277582 5.03235 0
M  V30 2857 H 260.061 0.779261 3.65792 0
M  V30 2858 H 262.353 0.182201 6.77255 0
M  V30 2859 H 263.296 1.70309 6.87314 0
M  V30 2860 H 263.704 0.489913 5.6237 0
M  V30 2861 N 263.102 -1.41638 0.69111 0
M  V30 2862 C 264.327 -2.06148 0.227583 0
M  V30 2863 C 264.752 -1.51652 -1.11281 0
M  V30 2864 O 264.11 -0.64164 -1.69566 0
M  V30 2865 C 264.158 -3.60095 0.190858 0
M  V30 2866 O 263.262 -4.03845 -0.835664 0
M  V30 2867 H 262.603 -0.654434 0.112306 0
M  V30 2868 H 265.133 -1.81484 0.944714 0
M  V30 2869 H 265.143 -4.07995 0.020207 0
M  V30 2870 H 263.818 -3.99129 1.16915 0
M  V30 2871 H 262.395 -3.67458 -0.63473 0
M  V30 2872 N 264.58 -0.43555 -1.51462 0
M  V30 2873 C 265.808 0.130242 -2.0649 0
M  V30 2874 C 266.223 1.36614 -1.30315 0
M  V30 2875 O 265.58 1.78869 -0.362223 0
M  V30 2876 C 265.631 0.454253 -3.58635 0
M  V30 2877 O 265.352 -0.73259 -4.31931 0
M  V30 2878 C 266.853 1.07091 -4.3017 0
M  V30 2879 H 264.073 0.00871669 -0.670943 0
M  V30 2880 H 266.617 -0.614117 -1.95061 0
M  V30 2881 H 264.772 1.14851 -3.69984 0
M  V30 2882 H 265.186 -0.455787 -5.22516 0
M  V30 2883 H 266.66 1.24764 -5.37716 0
M  V30 2884 H 267.137 2.05144 -3.88346 0
M  V30 2885 H 267.743 0.416089 -4.2326 0
M  V30 2886 N 266.058 1.56714 -0.166846 0
M  V30 2887 C 267.021 2.16539 0.751232 0
M  V30 2888 C 268.021 1.11228 1.16125 0
M  V30 2889 O 269.211 1.36765 1.07894 0
M  V30 2890 C 266.343 2.74462 2.02196 0
M  V30 2891 H 267.536 2.99013 0.230499 0
M  V30 2892 H 265.089 1.56081 0.0826982 0
M  V30 2893 H 265.824 1.95709 2.58589 0
M  V30 2894 H 265.609 3.51527 1.73698 0
M  V30 2895 H 267.099 3.20489 2.67725 0
M  V30 2896 N 267.536 -0.106894 1.57237 0
M  V30 2897 C 268.776 -0.818277 1.87306 0
M  V30 2898 C 269.14 -1.76474 0.756371 0
M  V30 2899 O 270.341 -2.5186 0.939155 0
M  V30 2900 C 268.612 -1.53806 3.22612 0
M  V30 2901 S 270.171 -2.28935 3.74345 0
M  V30 2902 H 266.989 -0.272862 0.656557 0
M  V30 2903 H 269.591 -0.075988 1.95352 0
M  V30 2904 H 268.295 -0.834951 4.01817 0
M  V30 2905 H 267.826 -2.32049 3.17674 0
M  V30 2906 H 269.841 -3.54871 3.46815 0
M  V30 2907 N 269.014 -1.53014 -0.377408 0
M  V30 2908 C 270.262 -1.6829 -1.11906 0
M  V30 2909 C 270.583 -0.431206 -1.90173 0
M  V30 2910 O 269.853 0.554595 -1.87886 0
M  V30 2911 H 268.433 -0.620371 -0.416112 0
M  V30 2912 H 271.095 -1.90167 -0.426893 0
M  V30 2913 H 270.191 -2.53862 -1.8155 0
M  V30 2914 N 270.492 0.636531 -1.44174 0
M  V30 2915 C 271.72 1.42353 -1.50144 0
M  V30 2916 C 272.135 1.88389 -0.124575 0
M  V30 2917 O 271.492 1.6051 0.868489 0
M  V30 2918 C 271.543 2.64744 -2.46156 0
M  V30 2919 O 271.264 2.20629 -3.7849 0
M  V30 2920 C 272.765 3.57929 -2.61537 0
M  V30 2921 H 269.985 0.436752 -0.5094 0
M  V30 2922 H 272.529 0.778933 -1.89084 0
M  V30 2923 H 270.684 3.25307 -2.10366 0
M  V30 2924 H 271.098 2.99938 -4.30276 0
M  V30 2925 H 272.572 4.40428 -3.32757 0
M  V30 2926 H 273.049 4.06382 -1.66585 0
M  V30 2927 H 273.655 3.03238 -2.98206 0
M  V30 2928 N 271.97 1.30982 0.876444 0
M  V30 2929 C 273.381 1.18277 1.44456 0
M  V30 2930 C 273.732 -0.213265 1.95037 0
M  V30 2931 O 272.857 -1.11057 1.85729 0
M  V30 2932 C 273.452 2.1411 2.62569 0
M  V30 2933 C 272.011 2.05358 3.15444 0
M  V30 2934 C 271.158 2.03706 1.88146 0
M  V30 2935 H 274.109 1.43127 0.685584 0
M  V30 2936 H 274.13 1.72692 3.39054 0
M  V30 2937 H 273.642 3.15706 2.25724 0
M  V30 2938 H 271.743 1.06934 3.56926 0
M  V30 2939 H 271.856 2.94156 3.78166 0
M  V30 2940 H 270.22 1.48629 2.06837 0
M  V30 2941 H 271.003 3.07047 1.53547 0
M  V30 2942 N 273.449 -1.08991 1.13837 0
M  V30 2943 C 274.697 -1.80899 0.901098 0
M  V30 2944 C 275.018 -1.86356 -0.574134 0
M  V30 2945 O 274.288 -1.35235 -1.41733 0
M  V30 2946 H 272.868 -0.669966 0.330386 0
M  V30 2947 H 275.53 -1.318 1.43578 0
M  V30 2948 H 274.626 -2.83929 1.29578 0
M  V30 2949 N 274.927 -0.932562 -1.27047 0
M  V30 2950 C 276.157 -0.591173 -1.97961 0
M  V30 2951 C 276.565 0.836219 -1.69717 0
M  V30 2952 O 275.908 1.56801 -0.957036 0
M  V30 2953 C 275.97 -0.743082 -3.51736 0
M  V30 2954 C 275.634 -2.1435 -4.03613 0
M  V30 2955 C 276.631 -3.11815 -4.16014 0
M  V30 2956 C 274.316 -2.46175 -4.37839 0
M  V30 2957 C 276.31 -4.39211 -4.61923 0
M  V30 2958 C 273.997 -3.73806 -4.83438 0
M  V30 2959 C 274.995 -4.70137 -4.95439 0
M  V30 2960 O 274.683 -5.95496 -5.40037 0
M  V30 2961 H 274.415 -0.222375 -0.638377 0
M  V30 2962 H 276.969 -1.25317 -1.62742 0
M  V30 2963 H 275.199 -0.0239739 -3.86693 0
M  V30 2964 H 276.888 -0.40603 -4.03864 0
M  V30 2965 H 277.654 -2.88549 -3.89826 0
M  V30 2966 H 273.533 -1.71936 -4.27737 0
M  V30 2967 H 277.077 -5.14404 -4.71205 0
M  V30 2968 H 272.974 -3.96888 -5.09068 0
M  V30 2969 H 273.742 -5.98554 -5.58279 0
M  V30 2970 N 276.405 1.4127 -0.698611 0
M  V30 2971 C 277.651 2.01478 -0.231207 0
M  V30 2972 C 277.984 1.55215 1.16713 0
M  V30 2973 O 277.259 0.764672 1.78838 0
M  V30 2974 C 277.542 3.58912 -0.292281 0
M  V30 2975 C 277.395 4.15293 -1.72778 0
M  V30 2976 C 278.714 4.38736 0.346194 0
M  V30 2977 H 275.833 0.732025 -0.0854878 0
M  V30 2978 H 278.475 1.67977 -0.887906 0
M  V30 2979 H 276.625 3.87582 0.26686 0
M  V30 2980 H 278.297 3.97486 -2.341 0
M  V30 2981 H 276.54 3.7022 -2.26096 0
M  V30 2982 H 277.211 5.24452 -1.72202 0
M  V30 2983 H 279.687 4.15897 -0.130035 0
M  V30 2984 H 278.563 5.48221 0.272932 0
M  V30 2985 H 278.824 4.18425 1.42734 0
M  V30 2986 N 277.883 0.443576 1.51229 0
M  V30 2987 C 278.846 -0.353132 2.26463 0
M  V30 2988 C 279.846 -0.944338 1.3015 0
M  V30 2989 O 281.036 -0.817813 1.5381 0
M  V30 2990 C 278.168 -1.50023 3.06114 0
M  V30 2991 H 279.361 0.3063 2.98332 0
M  V30 2992 H 276.914 0.196902 1.55055 0
M  V30 2993 H 277.649 -2.19553 2.38677 0
M  V30 2994 H 277.434 -1.08241 3.76864 0
M  V30 2995 H 278.924 -2.06296 3.63087 0
M  V30 2996 N 279.361 -1.56624 0.175154 0
M  V30 2997 C 280.772 -1.83561 -0.340916 0
M  V30 2998 C 281.123 -1.09511 -1.62794 0
M  V30 2999 O 280.248 -0.349389 -2.13561 0
M  V30 3000 C 280.843 -3.32979 -0.625313 0
M  V30 3001 C 279.402 -3.60399 -1.08581 0
M  V30 3002 C 278.549 -2.77024 -0.123722 0
M  V30 3003 H 281.5 -1.53593 0.399344 0
M  V30 3004 H 281.521 -3.50666 -1.47694 0
M  V30 3005 H 281.033 -3.86847 0.311575 0
M  V30 3006 H 279.134 -3.11945 -2.03767 0
M  V30 3007 H 279.247 -4.68711 -0.992317 0
M  V30 3008 H 277.611 -2.46993 -0.621821 0
M  V30 3009 H 278.394 -3.33674 0.807256 0
M  V30 3010 N 280.839 0.0985539 -1.57292 0
M  V30 3011 C 281.749 1.13824 -2.05137 0
M  V30 3012 C 282.765 1.44076 -0.975604 0
M  V30 3013 O 283.941 1.54786 -1.28853 0
M  V30 3014 C 281.006 2.43969 -2.46333 0
M  V30 3015 C 280.067 2.2093 -3.68087 0
M  V30 3016 C 279.3 3.44869 -4.0731 0
M  V30 3017 O 279.523 4.52972 -3.46659 0
M  V30 3018 O 278.457 3.34661 -5.00285 0
M  V30 3019 H 282.283 0.761881 -2.93988 0
M  V30 3020 H 279.868 0.310818 -1.46131 0
M  V30 3021 H 281.75 3.20609 -2.73473 0
M  V30 3022 H 280.425 2.81038 -1.60621 0
M  V30 3023 H 279.332 1.42081 -3.46069 0
M  V30 3024 H 280.665 1.88755 -4.54568 0
M  V30 3025 N 282.317 1.53212 0.369288 0
M  V30 3026 C 283.563 1.69466 1.11397 0
M  V30 3027 C 283.896 0.443257 1.89074 0
M  V30 3028 O 283.171 -0.559386 1.86282 0
M  V30 3029 C 283.454 2.9422 2.07621 0
M  V30 3030 C 283.307 4.29508 1.33577 0
M  V30 3031 C 284.626 3.14565 3.07794 0
M  V30 3032 H 281.745 0.616667 0.403597 0
M  V30 3033 H 284.387 1.85845 0.395179 0
M  V30 3034 H 282.537 2.80387 2.68916 0
M  V30 3035 H 284.209 4.55147 0.750955 0
M  V30 3036 H 282.452 4.29088 0.637618 0
M  V30 3037 H 283.123 5.12926 2.03989 0
M  V30 3038 H 285.599 3.2756 2.56601 0
M  V30 3039 H 284.475 4.03297 3.72348 0
M  V30 3040 H 284.736 2.29675 3.77759 0
M  V30 3041 N 283.795 -0.628877 1.44509 0
M  V30 3042 C 284.725 -1.75187 1.54376 0
M  V30 3043 C 285.706 -1.65411 0.396618 0
M  V30 3044 O 286.891 -1.84137 0.617031 0
M  V30 3045 C 284.021 -3.13725 1.48976 0
M  V30 3046 C 282.975 -3.38291 2.62189 0
M  V30 3047 C 282.301 -4.76883 2.41841 0
M  V30 3048 C 283.601 -3.30632 4.04326 0
M  V30 3049 H 285.295 -1.67187 2.48373 0
M  V30 3050 H 282.841 -0.802909 1.19538 0
M  V30 3051 H 284.794 -3.92064 1.54478 0
M  V30 3052 H 283.518 -3.22515 0.514961 0
M  V30 3053 H 282.177 -2.62334 2.56079 0
M  V30 3054 H 281.825 -4.82378 1.42548 0
M  V30 3055 H 281.525 -4.94278 3.17747 0
M  V30 3056 H 283.049 -5.57449 2.49165 0
M  V30 3057 H 284.463 -3.98873 4.11793 0
M  V30 3058 H 282.86 -3.59561 4.80454 0
M  V30 3059 H 283.93 -2.28404 4.27738 0
M  V30 3060 N 285.273 -1.31445 -0.869486 0
M  V30 3061 C 286.236 -1.19094 -1.9583 0
M  V30 3062 C 287.236 -0.117906 -1.60367 0
M  V30 3063 O 288.426 -0.367208 -1.70286 0
M  V30 3064 C 285.558 -0.828165 -3.30688 0
M  V30 3065 H 286.751 -2.15842 -2.08212 0
M  V30 3066 H 284.304 -1.15063 -1.05784 0
M  V30 3067 H 285.039 0.138142 -3.24006 0
M  V30 3068 H 284.824 -1.6038 -3.578 0
M  V30 3069 H 286.314 -0.765658 -4.10521 0
M  V30 3070 N 286.751 1.08385 -1.14413 0
M  V30 3071 C 287.683 2.1519 -0.789036 0
M  V30 3072 C 288.696 1.61638 0.19417 0
M  V30 3073 O 289.885 1.78479 -0.0275711 0
M  V30 3074 C 286.985 3.38565 -0.15058 0
M  V30 3075 C 286.158 4.21501 -1.16857 0
M  V30 3076 C 285.217 5.23277 -0.553832 0
M  V30 3077 O 284.243 5.56041 -1.21686 0
M  V30 3078 N 285.445 5.76629 0.669296 0
M  V30 3079 H 288.21 2.46257 -1.70814 0
M  V30 3080 H 285.771 1.24198 -1.03858 0
M  V30 3081 H 287.763 4.03777 0.273181 0
M  V30 3082 H 286.333 3.05299 0.671667 0
M  V30 3083 H 285.553 3.52265 -1.76926 0
M  V30 3084 H 286.841 4.73731 -1.85624 0
M  V30 3085 H 286.239 5.52243 1.22654 0
M  V30 3086 H 284.796 6.43521 1.03556 0
M  V30 3087 N 288.23 0.939286 1.26551 0
M  V30 3088 C 289.177 0.446088 2.26448 0
M  V30 3089 C 290.147 -0.493234 1.58608 0
M  V30 3090 O 291.332 -0.409857 1.86346 0
M  V30 3091 C 288.472 -0.284375 3.43926 0
M  V30 3092 C 287.585 0.690399 4.26448 0
M  V30 3093 C 286.72 -0.0610712 5.31165 0
M  V30 3094 C 285.759 0.905649 6.05363 0
M  V30 3095 N 284.896 0.186055 7.01853 0
M  V30 3096 H 289.736 1.30291 2.68008 0
M  V30 3097 H 287.273 0.65371 1.31776 0
M  V30 3098 H 289.231 -0.724313 4.10864 0
M  V30 3099 H 287.861 -1.10535 3.03285 0
M  V30 3100 H 286.913 1.24885 3.59316 0
M  V30 3101 H 288.225 1.42873 4.779 0
M  V30 3102 H 287.379 -0.56038 6.04106 0
M  V30 3103 H 286.118 -0.832297 4.80546 0
M  V30 3104 H 285.123 1.4161 5.3125 0
M  V30 3105 H 286.348 1.67685 6.58072 0
M  V30 3106 H 284.294 -0.566714 6.53548 0
M  V30 3107 H 284.211 0.863752 7.51049 0
M  V30 3108 H 285.479 -0.292221 7.78952 0
M  V30 3109 N 289.708 -1.40897 0.706093 0
M  V30 3110 C 291.119 -1.84023 0.315052 0
M  V30 3111 C 291.47 -1.5906 -1.14866 0
M  V30 3112 O 290.595 -1.06651 -1.88293 0
M  V30 3113 C 291.19 -3.34055 0.565038 0
M  V30 3114 C 289.749 -3.7571 0.227806 0
M  V30 3115 C 288.896 -2.64204 0.842122 0
M  V30 3116 H 291.847 -1.303 0.905963 0
M  V30 3117 H 291.868 -3.80107 -0.172843 0
M  V30 3118 H 291.38 -3.52192 1.63042 0
M  V30 3119 H 289.481 -3.63172 -0.832895 0
M  V30 3120 H 289.594 -4.74103 0.690174 0
M  V30 3121 H 287.958 -2.53255 0.270893 0
M  V30 3122 H 288.741 -2.85155 1.91158 0
M  V30 3123 N 291.186 -0.45159 -1.50991 0
M  V30 3124 C 292.416 0.108177 -2.06317 0
M  V30 3125 C 292.824 1.35774 -1.31765 0
M  V30 3126 O 292.167 1.79838 -0.374694 0
M  V30 3127 C 292.229 0.481659 -3.56259 0
M  V30 3128 C 291.893 -0.663114 -4.52163 0
M  V30 3129 C 292.89 -1.53947 -4.96585 0
M  V30 3130 C 290.575 -0.8479 -4.95092 0
M  V30 3131 C 292.569 -2.58518 -5.82621 0
M  V30 3132 C 290.256 -1.89686 -5.80915 0
M  V30 3133 C 291.254 -2.76388 -6.24579 0
M  V30 3134 O 290.942 -3.79482 -7.08695 0
M  V30 3135 H 290.674 0.00499183 -0.675982 0
M  V30 3136 H 293.228 -0.633659 -1.95381 0
M  V30 3137 H 291.458 1.27641 -3.65027 0
M  V30 3138 H 293.147 0.974233 -3.94035 0
M  V30 3139 H 293.913 -1.4083 -4.64103 0
M  V30 3140 H 289.792 -0.18258 -4.60638 0
M  V30 3141 H 293.336 -3.26224 -6.16623 0
M  V30 3142 H 289.233 -2.02817 -6.12809 0
M  V30 3143 H 290.001 -3.76234 -7.26905 0
M  V30 3144 N 292.664 1.56529 -0.183458 0
M  V30 3145 C 293.889 2.02064 0.467428 0
M  V30 3146 C 294.314 1.06282 1.55196 0
M  V30 3147 O 293.672 0.0443565 1.81246 0
M  V30 3148 C 293.72 3.46122 1.01153 0
M  V30 3149 O 292.824 3.53437 2.12499 0
M  V30 3150 H 292.165 0.654726 0.110588 0
M  V30 3151 H 294.695 2.02521 -0.290917 0
M  V30 3152 H 294.705 3.85676 1.33108 0
M  V30 3153 H 293.38 4.15331 0.217533 0
M  V30 3154 H 291.957 3.2575 1.81497 0
M  V30 3155 N 294.142 -0.090211 1.57342 0
M  V30 3156 C 295.089 -1.10909 2.02405 0
M  V30 3157 C 296.059 -1.39523 0.901252 0
M  V30 3158 O 297.244 -1.50903 1.1676 0
M  V30 3159 C 294.384 -2.42277 2.45755 0
M  V30 3160 C 293.497 -2.20352 3.71576 0
M  V30 3161 C 292.632 -3.45154 4.03785 0
M  V30 3162 C 291.671 -3.18512 5.22701 0
M  V30 3163 N 290.808 -4.35593 5.50639 0
M  V30 3164 H 295.648 -0.71782 2.89225 0
M  V30 3165 H 293.185 -0.342901 1.43048 0
M  V30 3166 H 295.143 -3.18951 2.68935 0
M  V30 3167 H 293.773 -2.79242 1.61938 0
M  V30 3168 H 292.825 -1.34458 3.55844 0
M  V30 3169 H 294.137 -1.96661 4.58395 0
M  V30 3170 H 293.291 -4.30233 4.27767 0
M  V30 3171 H 292.03 -3.71904 3.15498 0
M  V30 3172 H 291.035 -2.31827 4.98534 0
M  V30 3173 H 292.26 -2.93103 6.12591 0
M  V30 3174 H 290.206 -4.6241 4.6531 0
M  V30 3175 H 290.123 -4.1511 6.31838 0
M  V30 3176 H 291.391 -5.21723 5.7916 0
M  V30 3177 N 295.62 -1.53406 -0.361157 0
M  V30 3178 C 296.583 -1.79479 -1.42548 0
M  V30 3179 C 297.583 -0.665327 -1.4639 0
M  V30 3180 O 298.773 -0.933549 -1.47073 0
M  V30 3181 C 295.905 -1.92087 -2.8163 0
M  V30 3182 H 297.098 -2.74538 -1.20701 0
M  V30 3183 H 294.651 -1.4455 -0.594546 0
M  V30 3184 H 295.386 -0.991099 -3.08784 0
M  V30 3185 H 295.171 -2.74241 -2.80239 0
M  V30 3186 H 296.661 -2.13836 -3.58697 0
M  V30 3187 N 297.098 0.621204 -1.44841 0
M  V30 3188 C 298.344 1.3826 -1.48365 0
M  V30 3189 C 298.677 1.93831 -0.119624 0
M  V30 3190 O 297.952 1.74251 0.864111 0
M  V30 3191 C 298.235 2.54058 -2.55199 0
M  V30 3192 C 298.088 2.03772 -4.00995 0
M  V30 3193 C 299.407 3.56225 -2.58442 0
M  V30 3194 H 296.526 0.501374 -0.540179 0
M  V30 3195 H 299.168 0.7015 -1.76576 0
M  V30 3196 H 297.318 3.12162 -2.31274 0
M  V30 3197 H 298.99 1.50423 -4.36086 0
M  V30 3198 H 297.233 1.34876 -4.12299 0
M  V30 3199 H 297.904 2.87185 -4.71411 0
M  V30 3200 H 300.38 3.07939 -2.79844 0
M  V30 3201 H 299.256 4.34756 -3.3508 0
M  V30 3202 H 299.517 4.10949 -1.63013 0
M  V30 3203 N 298.576 1.31904 0.862503 0
M  V30 3204 C 299.853 1.12644 1.59908 0
M  V30 3205 C 300.233 -0.316104 2.0872 0
M  V30 3206 O 299.581 -1.31145 1.87118 0
M  V30 3207 C 299.791 2.1472 2.7513 0
M  V30 3208 C 301.139 2.47637 3.44907 0
M  V30 3209 O 302.163 2.13205 2.85346 0
M  V30 3210 O 301.022 3.06632 4.52371 0
M  V30 3211 H 298.116 0.43416 0.703871 0
M  V30 3212 H 300.662 1.43408 0.907314 0
M  V30 3213 H 299.434 3.1172 2.3653 0
M  V30 3214 H 299.057 1.84905 3.51989 0
M  V30 3215 N 300.054 -1.07777 1.14986 0
M  V30 3216 C 301.294 -1.81888 0.932527 0
M  V30 3217 C 301.658 -1.84509 -0.531064 0
M  V30 3218 O 302.859 -2.54448 -0.866577 0
M  V30 3219 C 301.13 -3.23244 1.52473 0
M  V30 3220 S 302.689 -4.14154 1.44989 0
M  V30 3221 H 299.507 -0.626752 0.335712 0
M  V30 3222 H 302.109 -1.29503 1.46455 0
M  V30 3223 H 300.813 -3.18922 2.58296 0
M  V30 3224 H 300.344 -3.80704 0.991381 0
M  V30 3225 H 302.359 -4.94247 0.439799 0
M  V30 3226 N 301.532 -0.945985 -1.26051 0
M  V30 3227 C 302.778 -0.606539 -1.94146 0
M  V30 3228 C 303.133 0.84586 -1.72809 0
M  V30 3229 O 302.426 1.59781 -1.05738 0
M  V30 3230 C 302.62 -0.890475 -3.46129 0
M  V30 3231 C 302.449 -2.36892 -3.82246 0
M  V30 3232 C 301.219 -3.02494 -4.04753 0
M  V30 3233 C 303.417 -3.34772 -3.90425 0
M  V30 3234 N 301.399 -4.40302 -4.27794 0
M  V30 3235 C 302.77 -4.57855 -4.18054 0
M  V30 3236 C 304.825 -3.2973 -3.73072 0
M  V30 3237 C 303.528 -5.76522 -4.30134 0
M  V30 3238 C 305.554 -4.47727 -3.86386 0
M  V30 3239 C 304.916 -5.69593 -4.14419 0
M  V30 3240 H 301.015 -0.272407 -0.73302 0
M  V30 3241 H 303.599 -1.21638 -1.52027 0
M  V30 3242 H 301.77 -0.309638 -3.87164 0
M  V30 3243 H 303.502 -0.51181 -4.01451 0
M  V30 3244 H 300.257 -2.53095 -4.003 0
M  V30 3245 H 300.681 -5.11646 -4.43337 0
M  V30 3246 H 305.323 -2.36565 -3.50424 0
M  V30 3247 H 303.041 -6.70136 -4.51601 0
M  V30 3248 H 306.627 -4.45363 -3.74356 0
M  V30 3249 H 305.507 -6.59375 -4.24493 0
M  V30 3250 N 303.011 1.40521 -0.713556 0
M  V30 3251 C 304.236 2.05759 -0.26035 0
M  V30 3252 C 304.661 1.53403 1.08854 0
M  V30 3253 O 304.019 0.668535 1.68524 0
M  V30 3254 C 304.067 3.59745 -0.248122 0
M  V30 3255 O 303.171 4.05123 0.77131 0
M  V30 3256 H 302.512 0.652564 -0.122703 0
M  V30 3257 H 305.042 1.79958 -0.973467 0
M  V30 3258 H 305.052 4.07911 -0.0851129 0
M  V30 3259 H 303.727 3.97218 -1.2325 0
M  V30 3260 H 302.304 3.68422 0.57619 0
M  V30 3261 N 304.489 0.459591 1.5075 0
M  V30 3262 C 305.738 -0.100971 2.01447 0
M  V30 3263 C 306.051 -1.41816 1.34713 0
M  V30 3264 O 307.257 -2.06299 1.76502 0
M  V30 3265 C 305.713 -0.23047 3.59161 0
M  V30 3266 C 305.321 1.0776 4.34847 0
M  V30 3267 C 307.065 -0.743608 4.17936 0
M  V30 3268 C 304.972 0.91253 5.84317 0
M  V30 3269 H 303.902 -0.0415102 0.752856 0
M  V30 3270 H 306.553 0.592742 1.73663 0
M  V30 3271 H 304.935 -0.987703 3.83485 0
M  V30 3272 H 306.109 1.8449 4.22256 0
M  V30 3273 H 304.424 1.52097 3.87628 0
M  V30 3274 H 307.021 -0.883959 5.27343 0
M  V30 3275 H 307.364 -1.73196 3.78562 0
M  V30 3276 H 307.897 -0.04408 3.97776 0
M  V30 3277 H 304.636 1.87391 6.28144 0
M  V30 3278 H 304.156 0.185422 5.99513 0
M  V30 3279 H 305.835 0.574547 6.44444 0
M  V30 3280 N 305.967 -1.56429 0.191757 0
M  V30 3281 C 307.215 -1.97095 -0.447006 0
M  V30 3282 C 307.536 -1.07967 -1.62383 0
M  V30 3283 O 306.806 -0.150248 -1.95323 0
M  V30 3284 H 305.386 -0.727832 -0.168135 0
M  V30 3285 H 308.048 -1.92911 0.27771 0
M  V30 3286 H 307.144 -3.01848 -0.793371 0
M  V30 3287 N 307.445 0.0818655 -1.57387 0
M  V30 3288 C 308.691 0.784074 -1.8703 0
M  V30 3289 C 309.024 1.77729 -0.782689 0
M  V30 3290 O 308.299 1.93384 0.208051 0
M  V30 3291 C 308.582 1.50105 -3.27323 0
M  V30 3292 C 308.435 0.524925 -4.46727 0
M  V30 3293 C 309.754 2.44843 -3.65705 0
M  V30 3294 H 306.873 0.283582 -0.680257 0
M  V30 3295 H 309.515 0.0474352 -1.89941 0
M  V30 3296 H 307.665 2.12897 -3.24972 0
M  V30 3297 H 309.337 -0.0970111 -4.61198 0
M  V30 3298 H 307.58 -0.160606 -4.33503 0
M  V30 3299 H 308.251 1.064 -5.41648 0
M  V30 3300 H 310.727 1.92135 -3.69085 0
M  V30 3301 H 309.603 2.92018 -4.64776 0
M  V30 3302 H 309.864 3.29197 -2.95096 0
M  V30 3303 N 308.923 1.53595 0.353017 0
M  V30 3304 C 310.172 1.69603 1.09168 0
M  V30 3305 C 310.485 0.460925 1.90092 0
M  V30 3306 O 311.691 0.501774 2.66823 0
M  V30 3307 C 310.147 2.99872 1.9901 0
M  V30 3308 C 309.755 4.30687 1.23339 0
M  V30 3309 C 311.499 3.25246 2.72792 0
M  V30 3310 C 309.406 5.52036 2.12156 0
M  V30 3311 H 308.336 0.631966 0.411261 0
M  V30 3312 H 310.987 1.80096 0.351802 0
M  V30 3313 H 309.369 2.83212 2.7678 0
M  V30 3314 H 310.543 4.58019 0.505456 0
M  V30 3315 H 308.858 4.11853 0.613663 0
M  V30 3316 H 311.455 4.13095 3.39495 0
M  V30 3317 H 311.798 2.41846 3.38846 0
M  V30 3318 H 312.331 3.42638 2.021 0
M  V30 3319 H 309.07 6.37951 1.50659 0
M  V30 3320 H 308.59 5.28966 2.82764 0
M  V30 3321 H 310.269 5.87313 2.71427 0
M  V30 3322 N 310.401 -0.613514 1.45168 0
M  V30 3323 C 311.364 -1.7065 1.53007 0
M  V30 3324 C 312.364 -1.5548 0.410184 0
M  V30 3325 O 313.554 -1.60656 0.673455 0
M  V30 3326 C 310.686 -3.09875 1.42093 0
M  V30 3327 H 311.879 -1.65068 2.50385 0
M  V30 3328 H 309.432 -0.828728 1.32521 0
M  V30 3329 H 310.167 -3.21039 0.458769 0
M  V30 3330 H 309.952 -3.22293 2.23315 0
M  V30 3331 H 311.442 -3.895 1.50598 0
M  V30 3332 N 311.879 -1.3236 -0.855495 0
M  V30 3333 C 313.109 -1.25688 -1.6397 0
M  V30 3334 C 313.517 0.177592 -1.88365 0
M  V30 3335 O 312.86 1.12485 -1.45234 0
M  V30 3336 C 312.922 -1.94602 -3.02275 0
M  V30 3337 C 312.586 -3.43937 -3.00926 0
M  V30 3338 C 313.583 -4.39435 -2.77835 0
M  V30 3339 C 311.268 -3.85858 -3.21588 0
M  V30 3340 C 313.262 -5.74829 -2.75409 0
M  V30 3341 C 310.949 -5.21361 -3.18789 0
M  V30 3342 C 311.947 -6.15658 -2.95727 0
M  V30 3343 O 311.635 -7.48681 -2.928 0
M  V30 3344 H 311.367 -0.434972 -0.51747 0
M  V30 3345 H 313.921 -1.75023 -1.075 0
M  V30 3346 H 312.151 -1.39836 -3.60531 0
M  V30 3347 H 313.84 -1.81651 -3.62985 0
M  V30 3348 H 314.606 -4.08374 -2.6164 0
M  V30 3349 H 310.485 -3.12883 -3.38564 0
M  V30 3350 H 314.029 -6.48404 -2.57328 0
M  V30 3351 H 309.926 -5.52052 -3.34528 0
M  V30 3352 H 310.694 -7.5803 -3.0876 0
M  V30 3353 N 313.357 1.07166 -1.15556 0
M  V30 3354 C 314.606 1.79181 -0.926132 0
M  V30 3355 C 314.919 1.87768 0.547967 0
M  V30 3356 O 316.125 2.56323 0.895036 0
M  V30 3357 C 314.581 3.22 -1.60761 0
M  V30 3358 C 314.189 3.21607 -3.11886 0
M  V30 3359 C 315.933 3.9861 -1.4598 0
M  V30 3360 C 313.84 4.59092 -3.72812 0
M  V30 3361 H 312.77 0.67154 -0.342856 0
M  V30 3362 H 315.421 1.2027 -1.3859 0
M  V30 3363 H 313.803 3.81115 -1.07553 0
M  V30 3364 H 314.977 2.72127 -3.71865 0
M  V30 3365 H 313.292 2.58495 -3.2645 0
M  V30 3366 H 315.889 5.00225 -1.88888 0
M  V30 3367 H 316.232 4.143 -0.407541 0
M  V30 3368 H 316.765 3.45996 -1.96295 0
M  V30 3369 H 313.504 4.48606 -4.77946 0
M  V30 3370 H 313.024 5.08803 -3.17616 0
M  V30 3371 H 314.703 5.28059 -3.73848 0
M  V30 3372 N 314.835 0.952656 1.25548 0
M  V30 3373 C 315.765 0.489287 2.28316 0
M  V30 3374 C 316.746 -0.463359 1.63667 0
M  V30 3375 O 317.931 -0.36274 1.90782 0
M  V30 3376 C 315.061 -0.235603 3.465 0
M  V30 3377 C 314.015 0.631593 4.23314 0
M  V30 3378 C 313.341 -0.223923 5.34231 0
M  V30 3379 C 314.641 1.90871 4.86174 0
M  V30 3380 H 316.335 1.34822 2.67326 0
M  V30 3381 H 313.881 0.649728 1.28509 0
M  V30 3382 H 315.834 -0.570882 4.17515 0
M  V30 3383 H 314.558 -1.12877 3.06474 0
M  V30 3384 H 313.217 0.949929 3.54079 0
M  V30 3385 H 312.865 -1.11678 4.90446 0
M  V30 3386 H 312.565 0.35299 5.86539 0
M  V30 3387 H 314.089 -0.554214 6.0808 0
M  V30 3388 H 315.503 1.63997 5.49343 0
M  V30 3389 H 313.9 2.43112 5.4865 0
M  V30 3390 H 314.97 2.61304 4.08471 0
M  V30 3391 N 316.313 -1.40141 0.720998 0
M  V30 3392 C 317.243 -2.33339 0.0867621 0
M  V30 3393 C 318.224 -1.53178 -0.739622 0
M  V30 3394 O 319.409 -1.81625 -0.687449 0
M  V30 3395 C 316.539 -3.37194 -0.831728 0
M  V30 3396 C 315.493 -4.27857 -0.110558 0
M  V30 3397 C 314.819 -5.22294 -1.14513 0
M  V30 3398 C 316.119 -5.11872 1.0385 0
M  V30 3399 H 317.813 -2.86626 0.865219 0
M  V30 3400 H 315.359 -1.37814 0.417516 0
M  V30 3401 H 317.312 -4.01335 -1.28485 0
M  V30 3402 H 316.036 -2.82314 -1.64214 0
M  V30 3403 H 314.695 -3.65176 0.322797 0
M  V30 3404 H 314.343 -4.63717 -1.94874 0
M  V30 3405 H 314.043 -5.83797 -0.667446 0
M  V30 3406 H 315.567 -5.89312 -1.59824 0
M  V30 3407 H 316.981 -5.69436 0.664482 0
M  V30 3408 H 315.378 -5.82445 1.4449 0
M  V30 3409 H 316.448 -4.4753 1.86668 0
M  V30 3410 N 317.792 -0.46758 -1.50504 0
M  V30 3411 C 319.032 0.0874114 -2.04213 0
M  V30 3412 C 319.396 1.37301 -1.34211 0
M  V30 3413 O 320.597 2.01015 -1.78456 0
M  V30 3414 C 318.868 0.270571 -3.56374 0
M  V30 3415 S 320.427 0.784623 -4.31728 0
M  V30 3416 H 317.245 0.0176153 -0.710782 0
M  V30 3417 H 319.847 -0.633915 -1.84937 0
M  V30 3418 H 318.551 -0.670942 -4.04878 0
M  V30 3419 H 318.082 1.01811 -3.79997 0
M  V30 3420 H 320.097 2.05849 -4.51487 0
M  V30 3421 N 319.27 1.56325 -0.20005 0
M  V30 3422 C 320.518 1.97329 0.436547 0
M  V30 3423 C 320.839 1.08826 1.61808 0
M  V30 3424 O 320.109 0.160604 1.95241 0
M  V30 3425 H 318.689 0.728714 0.164272 0
M  V30 3426 H 321.351 1.92761 -0.287937 0
M  V30 3427 H 320.447 3.02264 0.777353 0
M  V30 3428 N 320.748 -0.0735177 1.57428 0
M  V30 3429 C 321.978 -0.78483 1.91112 0
M  V30 3430 C 322.386 -1.71729 0.7941 0
M  V30 3431 O 321.729 -1.82105 -0.241542 0
M  V30 3432 C 321.791 -1.63346 3.20247 0
M  V30 3433 C 321.455 -0.870557 4.48632 0
M  V30 3434 C 322.452 -0.19058 5.19551 0
M  V30 3435 C 320.137 -0.838242 4.95256 0
M  V30 3436 C 322.131 0.511503 6.35344 0
M  V30 3437 C 319.818 -0.132386 6.10957 0
M  V30 3438 C 320.816 0.541288 6.80852 0
M  V30 3439 O 320.504 1.23578 7.94345 0
M  V30 3440 H 320.236 -0.228408 0.636244 0
M  V30 3441 H 322.79 -0.0486039 2.05342 0
M  V30 3442 H 321.02 -2.41245 3.02222 0
M  V30 3443 H 322.709 -2.22329 3.39595 0
M  V30 3444 H 323.475 -0.206864 4.84559 0
M  V30 3445 H 319.354 -1.35206 4.40727 0
M  V30 3446 H 322.898 1.03789 6.89836 0
M  V30 3447 H 318.795 -0.114023 6.45399 0
M  V30 3448 H 319.563 1.14487 8.10454 0
M  V30 3449 N 322.226 -1.5378 -0.344866 0
M  V30 3450 C 323.637 -1.62428 -0.920552 0
M  V30 3451 C 323.988 -0.504747 -1.89596 0
M  V30 3452 O 323.113 0.365711 -2.13287 0
M  V30 3453 C 323.708 -2.94419 -1.67639 0
M  V30 3454 C 322.267 -3.05333 -2.20111 0
M  V30 3455 C 321.414 -2.57866 -1.01982 0
M  V30 3456 H 324.365 -1.58222 -0.123042 0
M  V30 3457 H 324.386 -2.83384 -2.53917 0
M  V30 3458 H 323.898 -3.7588 -0.966224 0
M  V30 3459 H 321.999 -2.28502 -2.94308 0
M  V30 3460 H 322.112 -4.10778 -2.46573 0
M  V30 3461 H 320.476 -2.13241 -1.39285 0
M  V30 3462 H 321.259 -3.41765 -0.324308 0
M  V30 3463 N 323.704 0.605807 -1.45491 0
M  V30 3464 C 325.115 1.18777 -1.44045 0
M  V30 3465 C 325.466 1.95471 -0.169001 0
M  V30 3466 O 324.591 2.0374 0.729324 0
M  V30 3467 C 325.186 2.16064 -2.60963 0
M  V30 3468 C 323.745 2.69633 -2.62631 0
M  V30 3469 C 322.892 1.45072 -2.36325 0
M  V30 3470 H 325.843 0.395017 -1.53705 0
M  V30 3471 H 325.864 2.9913 -2.35163 0
M  V30 3472 H 325.376 1.60217 -3.53486 0
M  V30 3473 H 323.477 3.29414 -1.74119 0
M  V30 3474 H 323.59 3.13944 -3.61906 0
M  V30 3475 H 321.954 1.74089 -1.85917 0
M  V30 3476 H 322.737 0.910899 -3.30995 0
M  V30 3477 N 325.182 1.32811 0.848464 0
M  V30 3478 C 326.429 1.23724 1.60308 0
M  V30 3479 C 326.757 -0.1994 1.93475 0
M  V30 3480 O 326.012 -1.15406 1.5805 0
M  V30 3481 C 326.311 2.04831 2.92881 0
M  V30 3482 C 325.977 3.54125 2.79117 0
M  V30 3483 C 324.639 3.94829 2.7507 0
M  V30 3484 C 326.991 4.49036 2.64606 0
M  V30 3485 C 324.319 5.28675 2.544 0
M  V30 3486 C 326.671 5.83033 2.4547 0
M  V30 3487 C 325.335 6.22931 2.39819 0
M  V30 3488 H 324.605 0.452737 0.586609 0
M  V30 3489 H 327.252 1.64301 0.983743 0
M  V30 3490 H 325.557 1.57001 3.58968 0
M  V30 3491 H 327.254 1.95164 3.50303 0
M  V30 3492 H 323.844 3.21801 2.83094 0
M  V30 3493 H 328.028 4.18505 2.66772 0
M  V30 3494 H 323.284 5.58637 2.48465 0
M  V30 3495 H 327.458 6.56186 2.33222 0
M  V30 3496 H 325.085 7.26584 2.23562 0
M  V30 3497 N 326.66 -1.06551 1.16123 0
M  V30 3498 C 327.89 -1.8274 0.963838 0
M  V30 3499 C 328.298 -1.82712 -0.491228 0
M  V30 3500 O 327.641 -1.24294 -1.35265 0
M  V30 3501 C 327.703 -3.3065 1.41106 0
M  V30 3502 C 327.367 -3.54384 2.88549 0
M  V30 3503 C 328.364 -3.4765 3.86569 0
M  V30 3504 C 326.049 -3.81789 3.26408 0
M  V30 3505 C 328.043 -3.67982 5.2045 0
M  V30 3506 C 325.73 -4.01772 4.60459 0
M  V30 3507 C 326.728 -3.94866 5.57288 0
M  V30 3508 O 326.416 -4.14306 6.88916 0
M  V30 3509 H 326.148 -0.583136 0.341948 0
M  V30 3510 H 328.702 -1.35351 1.54497 0
M  V30 3511 H 326.932 -3.78887 0.773394 0
M  V30 3512 H 328.621 -3.88324 1.1815 0
M  V30 3513 H 329.387 -3.2647 3.58667 0
M  V30 3514 H 325.266 -3.86276 2.51619 0
M  V30 3515 H 328.81 -3.62507 5.96015 0
M  V30 3516 H 324.707 -4.2244 4.88072 0
M  V30 3517 H 325.475 -4.31609 6.95454 0
M  V30 3518 N 328.138 -0.959301 -1.25041 0
M  V30 3519 C 329.415 -0.533805 -1.88175 0
M  V30 3520 C 329.795 0.988994 -1.865 0
M  V30 3521 O 329.143 1.85677 -1.33177 0
M  V30 3522 C 329.353 -1.11575 -3.30684 0
M  V30 3523 C 330.701 -1.19548 -4.07423 0
M  V30 3524 O 331.725 -1.06765 -3.39823 0
M  V30 3525 O 330.584 -1.39656 -5.28354 0
M  V30 3526 H 327.678 -0.176772 -0.807887 0
M  V30 3527 H 330.224 -1.05303 -1.33076 0
M  V30 3528 H 328.996 -2.15884 -3.26358 0
M  V30 3529 H 328.619 -0.580059 -3.93346 0
M  V30 3530 N 329.616 1.39756 -0.72842 0
M  V30 3531 C 330.526 2.34444 -0.0855374 0
M  V30 3532 C 331.542 1.57976 0.729356 0
M  V30 3533 O 332.718 1.90301 0.659346 0
M  V30 3534 C 329.783 3.36965 0.815798 0
M  V30 3535 C 328.844 4.29299 -0.0105996 0
M  V30 3536 C 328.077 5.26923 0.84781 0
M  V30 3537 O 328.3 5.30859 2.08673 0
M  V30 3538 O 327.234 6.01249 0.279969 0
M  V30 3539 H 331.06 2.91065 -0.866892 0
M  V30 3540 H 328.645 1.4117 -0.48902 0
M  V30 3541 H 330.527 3.99804 1.33171 0
M  V30 3542 H 329.202 2.82739 1.57608 0
M  V30 3543 H 328.109 3.69703 -0.571877 0
M  V30 3544 H 329.442 4.86712 -0.73295 0
M  V30 3545 N 331.094 0.475555 1.50254 0
M  V30 3546 C 332.042 -0.330276 2.30243 0
M  V30 3547 C 333.036 -0.986306 1.37726 0
M  V30 3548 O 334.242 -0.9169 1.54897 0
M  V30 3549 H 330.617 -0.125353 0.741479 0
M  V30 3550 H 332.588 0.364702 2.96163 0
M  V30 3551 C 331.337 -1.39704 3.18399 0
M  V30 3552 H 330.66 -0.901621 3.89501 0
M  V30 3553 H 332.1 -1.93336 3.77355 0
M  V30 3554 C 330.559 -2.4014 2.36293 0
M  V30 3555 O 331.089 -3.45504 2.04914 0
M  V30 3556 N 329.295 -2.1197 1.98789 0
M  V30 3557 H 328.842 -1.2631 2.24507 0
M  V30 3558 H 328.8 -2.79403 1.44157 0
M  V30 3559 N 332.573 -1.56217 0.208337 0
M  V30 3560 C 333.85 -1.89739 -0.475234 0
M  V30 3561 C 334.23 -1.1238 -1.78701 0
M  V30 3562 O 333.578 -0.228979 -2.2735 0
M  V30 3563 C 333.788 -3.42289 -0.681101 0
M  V30 3564 C 335.136 -4.12789 -0.994507 0
M  V30 3565 O 336.16 -3.47814 -0.768357 0
M  V30 3566 O 335.019 -5.27649 -1.42299 0
M  V30 3567 H 332.113 -0.788478 -0.249461 0
M  V30 3568 H 334.659 -1.67855 0.249538 0
M  V30 3569 H 333.431 -3.90534 0.244722 0
M  V30 3570 H 333.054 -3.69909 -1.45785 0
M  V30 3571 N 334.051 0.0651679 -1.57465 0
M  V30 3572 C 335.276 0.779605 -1.9219 0
M  V30 3573 C 335.701 1.69988 -0.805333 0
M  V30 3574 O 335.059 1.79685 0.241435 0
M  V30 3575 C 335.107 1.54364 -3.2589 0
M  V30 3576 O 334.211 2.65474 -3.1559 0
M  V30 3577 H 333.552 0.212249 -0.629163 0
M  V30 3578 H 336.082 0.0314294 -2.04576 0
M  V30 3579 H 336.092 1.92146 -3.59922 0
M  V30 3580 H 334.767 0.868457 -4.06732 0
M  V30 3581 H 333.344 2.30501 -2.93128 0
M  V30 3582 N 335.529 1.53961 0.336706 0
M  V30 3583 C 336.476 1.82428 1.41381 0
M  V30 3584 C 337.446 0.670444 1.51968 0
M  V30 3585 O 338.631 0.915565 1.67398 0
M  V30 3586 C 335.771 2.04564 2.77934 0
M  V30 3587 C 334.884 3.32267 2.76084 0
M  V30 3588 C 334.019 3.44434 4.04399 0
M  V30 3589 C 333.058 4.66061 3.96804 0
M  V30 3590 N 332.195 4.75224 5.16823 0
M  V30 3591 H 337.035 2.74324 1.16405 0
M  V30 3592 H 334.572 1.35869 0.563752 0
M  V30 3593 H 336.53 2.15388 3.57301 0
M  V30 3594 H 335.16 1.15974 3.01247 0
M  V30 3595 H 334.212 3.3025 1.88784 0
M  V30 3596 H 335.524 4.21733 2.66351 0
M  V30 3597 H 334.678 3.54728 4.92192 0
M  V30 3598 H 333.417 2.53037 4.16921 0
M  V30 3599 H 332.422 4.55838 3.07396 0
M  V30 3600 H 333.647 5.58829 3.85858 0
M  V30 3601 H 331.593 3.86739 5.29876 0
M  V30 3602 H 331.51 5.58636 5.09374 0
M  V30 3603 H 332.778 4.89835 6.06367 0
M  V30 3604 N 337.007 -0.598083 1.45811 0
M  V30 3605 C 337.937 -1.71873 1.58057 0
M  V30 3606 C 338.918 -1.64533 0.431615 0
M  V30 3607 O 340.103 -1.82787 0.65595 0
M  V30 3608 C 337.233 -3.10495 1.55597 0
M  V30 3609 C 336.187 -3.32654 2.69305 0
M  V30 3610 C 335.513 -4.71646 2.51902 0
M  V30 3611 C 336.813 -3.21981 4.11248 0
M  V30 3612 H 338.507 -1.61881 2.51863 0
M  V30 3613 H 336.053 -0.777372 1.21214 0
M  V30 3614 H 338.006 -3.88699 1.6276 0
M  V30 3615 H 336.73 -3.2135 0.583255 0
M  V30 3616 H 335.389 -2.56843 2.61586 0
M  V30 3617 H 335.037 -4.79246 1.52748 0
M  V30 3618 H 334.737 -4.87426 3.2816 0
M  V30 3619 H 336.261 -5.52038 2.60933 0
M  V30 3620 H 337.675 -3.90049 4.20161 0
M  V30 3621 H 336.072 -3.49289 4.87972 0
M  V30 3622 H 337.142 -2.1928 4.32486 0
M  V30 3623 N 338.485 -1.33259 -0.841409 0
M  V30 3624 C 339.732 -1.24572 -1.5965 0
M  V30 3625 C 340.06 0.189137 -1.93578 0
M  V30 3626 O 339.315 1.14566 -1.5866 0
M  V30 3627 C 339.614 -2.06381 -2.9179 0
M  V30 3628 C 339.28 -3.556 -2.77235 0
M  V30 3629 C 337.942 -3.96282 -2.72973 0
M  V30 3630 C 340.294 -4.50433 -2.62221 0
M  V30 3631 C 337.622 -5.30017 -2.51592 0
M  V30 3632 C 339.974 -5.84327 -2.42374 0
M  V30 3633 C 338.638 -6.24194 -2.36512 0
M  V30 3634 H 337.908 -0.455842 -0.5842 0
M  V30 3635 H 340.555 -1.6482 -0.975016 0
M  V30 3636 H 338.86 -1.58903 -3.5813 0
M  V30 3637 H 340.557 -1.97019 -3.49263 0
M  V30 3638 H 337.147 -3.23298 -2.81384 0
M  V30 3639 H 341.331 -4.19914 -2.64549 0
M  V30 3640 H 336.587 -5.59947 -2.45499 0
M  V30 3641 H 340.761 -6.57414 -2.29739 0
M  V30 3642 H 338.388 -7.27759 -2.19706 0
M  V30 3643 N 339.963 1.05934 -1.16686 0
M  V30 3644 C 340.873 2.17014 -0.891183 0
M  V30 3645 C 341.889 1.73453 0.137907 0
M  V30 3646 O 343.065 2.01361 -0.039592 0
M  V30 3647 C 340.13 3.44384 -0.400099 0
M  V30 3648 C 339.191 4.02433 -1.49486 0
M  V30 3649 C 338.424 5.23723 -1.02711 0
M  V30 3650 O 338.647 5.7027 0.121716 0
M  V30 3651 O 337.581 5.7382 -1.81699 0
M  V30 3652 H 341.407 2.43113 -1.82015 0
M  V30 3653 H 338.992 1.15541 -0.947132 0
M  V30 3654 H 340.874 4.21189 -0.133392 0
M  V30 3655 H 339.549 3.19802 0.500817 0
M  V30 3656 H 338.456 3.27102 -1.81535 0
M  V30 3657 H 339.789 4.31317 -2.37121 0
M  V30 3658 N 341.441 0.965919 1.2453 0
M  V30 3659 C 342.373 0.452465 2.2469 0
M  V30 3660 C 343.386 -0.437821 1.56802 0
M  V30 3661 O 344.575 -0.244283 1.76821 0
M  V30 3662 C 341.675 -0.366258 3.36915 0
M  V30 3663 C 340.848 0.513701 4.34373 0
M  V30 3664 C 339.907 -0.248716 5.25612 0
M  V30 3665 O 338.933 0.356745 5.68081 0
M  V30 3666 N 340.135 -1.53877 5.59734 0
M  V30 3667 H 342.9 1.31361 2.69378 0
M  V30 3668 H 340.461 0.837541 1.38553 0
M  V30 3669 H 342.453 -0.884297 3.94921 0
M  V30 3670 H 341.023 -1.12832 2.91526 0
M  V30 3671 H 340.243 1.21273 3.75082 0
M  V30 3672 H 341.531 1.11391 4.96457 0
M  V30 3673 H 340.929 -2.05243 5.27154 0
M  V30 3674 H 339.486 -2.00254 6.20275 0
M  V30 3675 N 342.919 -1.39368 0.735821 0
M  V30 3676 C 344.168 -1.99733 0.281004 0
M  V30 3677 C 344.481 -1.59055 -1.13846 0
M  V30 3678 O 345.687 -2.12262 -1.69284 0
M  V30 3679 C 344.143 -3.57057 0.451462 0
M  V30 3680 C 343.751 -4.06697 1.87886 0
M  V30 3681 C 345.495 -4.2446 0.0584616 0
M  V30 3682 C 343.402 -5.56598 1.99883 0
M  V30 3683 H 342.332 -0.747163 0.101311 0
M  V30 3684 H 344.983 -1.59357 0.909819 0
M  V30 3685 H 343.365 -3.95234 -0.246263 0
M  V30 3686 H 344.539 -3.79853 2.60861 0
M  V30 3687 H 342.854 -3.5196 2.22515 0
M  V30 3688 H 345.451 -5.34549 0.127099 0
M  V30 3689 H 345.794 -4.04444 -0.986433 0
M  V30 3690 H 346.327 -3.9146 0.707374 0
M  V30 3691 H 343.066 -5.81494 3.02564 0
M  V30 3692 H 342.586 -5.85242 1.31346 0
M  V30 3693 H 344.265 -6.22022 1.78039 0
M  V30 3694 N 344.397 -0.483516 -1.5 0
M  V30 3695 C 345.327 0.293829 -2.31644 0
M  V30 3696 C 346.308 0.978864 -1.39112 0
M  V30 3697 O 347.493 0.973644 -1.68029 0
M  V30 3698 C 344.623 1.36897 -3.19181 0
M  V30 3699 C 343.577 0.804833 -4.20365 0
M  V30 3700 C 342.903 1.9792 -4.96721 0
M  V30 3701 C 344.203 -0.192313 -5.21946 0
M  V30 3702 H 345.897 -0.387616 -2.9688 0
M  V30 3703 H 343.443 -0.187856 -1.42769 0
M  V30 3704 H 345.396 1.92037 -3.751 0
M  V30 3705 H 344.12 2.07936 -2.51853 0
M  V30 3706 H 342.779 0.275319 -3.65565 0
M  V30 3707 H 342.427 2.67686 -4.25856 0
M  V30 3708 H 342.127 1.60789 -5.65173 0
M  V30 3709 H 343.651 2.53526 -5.55479 0
M  V30 3710 H 345.065 0.270333 -5.72662 0
M  V30 3711 H 343.462 -0.478543 -5.98189 0
M  V30 3712 H 344.532 -1.11409 -4.71928 0
M  V30 3713 N 345.875 1.56104 -0.216619 0
M  V30 3714 C 346.822 2.2007 0.695531 0
M  V30 3715 C 347.792 1.15471 1.19397 0
M  V30 3716 O 348.977 1.43807 1.25396 0
M  V30 3717 C 346.117 2.88073 1.90021 0
M  V30 3718 C 345.23 4.07253 1.44113 0
M  V30 3719 C 344.365 4.63052 2.603 0
M  V30 3720 C 343.404 5.74545 2.11103 0
M  V30 3721 N 342.541 6.24656 3.20545 0
M  V30 3722 H 347.381 2.97655 0.143327 0
M  V30 3723 H 344.918 1.46982 0.0589934 0
M  V30 3724 H 346.876 3.25681 2.60745 0
M  V30 3725 H 345.506 2.13015 2.42538 0
M  V30 3726 H 344.558 3.75164 0.628999 0
M  V30 3727 H 345.87 4.8783 1.04036 0
M  V30 3728 H 345.024 5.03078 3.39113 0
M  V30 3729 H 343.763 3.81628 3.03663 0
M  V30 3730 H 342.768 5.34027 1.3075 0
M  V30 3731 H 343.993 6.57801 1.68746 0
M  V30 3732 H 341.939 5.46148 3.63399 0
M  V30 3733 H 341.856 7.00343 2.84704 0
M  V30 3734 H 343.124 6.69338 3.99508 0
M  V30 3735 N 347.353 -0.0568162 1.57498 0
M  V30 3736 C 348.316 -1.05038 2.03715 0
M  V30 3737 C 349.316 -1.30709 0.936577 0
M  V30 3738 O 350.506 -1.26178 1.20103 0
M  V30 3739 C 347.638 -2.39034 2.43055 0
M  V30 3740 H 348.831 -0.651715 2.92733 0
M  V30 3741 H 346.384 -0.302947 1.53336 0
M  V30 3742 H 347.119 -2.83703 1.57108 0
M  V30 3743 H 346.904 -2.21739 3.2338 0
M  V30 3744 H 348.394 -3.10421 2.79336 0
M  V30 3745 N 348.832 -1.54138 -0.328536 0
M  V30 3746 C 349.742 -1.86192 -1.42723 0
M  V30 3747 C 350.758 -0.753382 -1.56844 0
M  V30 3748 O 351.934 -1.04718 -1.72035 0
M  V30 3749 C 348.999 -2.07824 -2.77507 0
M  V30 3750 C 348.06 -3.31641 -2.72603 0
M  V30 3751 C 347.293 -3.52232 -4.00959 0
M  V30 3752 O 347.516 -2.7636 -4.9898 0
M  V30 3753 O 346.45 -4.45699 -4.0452 0
M  V30 3754 H 350.276 -2.79608 -1.18547 0
M  V30 3755 H 347.861 -1.3998 -0.522104 0
M  V30 3756 H 349.743 -2.23411 -3.57303 0
M  V30 3757 H 348.418 -1.17596 -3.01584 0
M  V30 3758 H 347.325 -3.21444 -1.91376 0
M  V30 3759 H 348.658 -4.2191 -2.53481 0
M  V30 3760 N 350.31 0.590341 -1.46126 0
M  V30 3761 C 351.54 1.37304 -1.54373 0
M  V30 3762 C 351.948 1.88332 -0.181071 0
M  V30 3763 O 351.291 1.63852 0.830559 0
M  V30 3764 C 351.353 2.6012 -2.48149 0
M  V30 3765 C 351.017 2.30613 -3.94546 0
M  V30 3766 C 352.014 1.89915 -4.83971 0
M  V30 3767 C 349.699 2.42993 -4.39613 0
M  V30 3768 C 351.693 1.61981 -6.16475 0
M  V30 3769 C 349.38 2.14672 -5.72153 0
M  V30 3770 C 350.378 1.7423 -6.60404 0
M  V30 3771 O 350.066 1.46251 -7.90485 0
M  V30 3772 H 349.798 0.426086 -0.524811 0
M  V30 3773 H 352.352 0.72539 -1.92165 0
M  V30 3774 H 350.582 3.27664 -2.05361 0
M  V30 3775 H 352.271 3.22182 -2.46887 0
M  V30 3776 H 353.037 1.79872 -4.50412 0
M  V30 3777 H 348.916 2.73435 -3.71153 0
M  V30 3778 H 352.46 1.30341 -6.85315 0
M  V30 3779 H 348.357 2.24337 -6.05263 0
M  V30 3780 H 349.125 1.6016 -8.02677 0
M  V30 3781 N 351.788 1.33704 0.83433 0
M  V30 3782 C 352.698 1.26382 1.97648 0
M  V30 3783 C 353.714 0.173548 1.73132 0
M  V30 3784 O 354.89 0.397962 1.97429 0
M  V30 3785 C 351.955 1.00769 3.31733 0
M  V30 3786 C 351.016 2.1884 3.69334 0
M  V30 3787 C 350.249 1.9444 4.9702 0
M  V30 3788 O 350.472 0.896961 5.63303 0
M  V30 3789 O 349.406 2.81093 5.32231 0
M  V30 3790 H 353.232 2.22444 2.06767 0
M  V30 3791 H 350.817 1.13795 0.968037 0
M  V30 3792 H 352.699 0.882186 4.12062 0
M  V30 3793 H 351.374 0.0773783 3.23608 0
M  V30 3794 H 350.281 2.36946 2.89495 0
M  V30 3795 H 351.614 3.10221 3.82131 0
M  V30 3796 N 353.266 -1.05314 1.17247 0
M  V30 3797 C 354.513 -1.78293 0.960091 0
M  V30 3798 C 354.841 -1.87658 -0.51136 0
M  V30 3799 O 354.096 -1.3718 -1.39571 0
M  V30 3800 C 354.395 -3.2229 1.54479 0
M  V30 3801 C 354.061 -3.32987 3.04024 0
M  V30 3802 C 352.723 -3.35613 3.44844 0
M  V30 3803 C 355.075 -3.34102 4.00031 0
M  V30 3804 C 352.403 -3.36982 4.8027 0
M  V30 3805 C 354.755 -3.3701 5.35357 0
M  V30 3806 C 353.419 -3.37923 5.75642 0
M  V30 3807 H 352.689 -0.652422 0.351322 0
M  V30 3808 H 355.336 -1.23782 1.46117 0
M  V30 3809 H 353.641 -3.7972 0.965391 0
M  V30 3810 H 355.338 -3.77376 1.35603 0
M  V30 3811 H 351.928 -3.31655 2.71483 0
M  V30 3812 H 356.112 -3.31276 3.69554 0
M  V30 3813 H 351.368 -3.35999 5.10798 0
M  V30 3814 H 355.542 -3.36822 6.09528 0
M  V30 3815 H 353.169 -3.38738 6.80559 0
M  V30 3816 N 354.744 -0.972509 -1.24016 0
M  V30 3817 C 356.021 -0.553733 -1.87598 0
M  V30 3818 C 356.401 0.969158 -1.87538 0
M  V30 3819 O 355.749 1.84255 -1.35139 0
M  V30 3820 C 355.959 -1.15076 -3.29482 0
M  V30 3821 C 357.307 -1.23862 -4.06132 0
M  V30 3822 O 358.331 -1.10363 -3.38672 0
M  V30 3823 O 357.19 -1.45252 -5.26844 0
M  V30 3824 H 354.284 -0.185331 -0.805966 0
M  V30 3825 H 356.83 -1.06709 -1.31952 0
M  V30 3826 H 355.602 -2.19333 -3.2405 0
M  V30 3827 H 355.225 -0.621746 -3.92709 0
M  V30 3828 N 356.222 1.38976 -0.743202 0
M  V30 3829 C 357.447 2.05161 -0.303936 0
M  V30 3830 C 357.872 1.55677 1.05576 0
M  V30 3831 O 357.23 0.704131 1.67068 0
M  V30 3832 C 357.278 3.59138 -0.324373 0
M  V30 3833 O 356.382 4.06668 0.685204 0
M  V30 3834 H 355.723 0.649815 -0.136518 0
M  V30 3835 H 358.253 1.77852 -1.01142 0
M  V30 3836 H 358.263 4.07639 -0.171618 0
M  V30 3837 H 356.938 3.94515 -1.31647 0
M  V30 3838 H 355.515 3.69561 0.497913 0
M  V30 3839 N 357.7 0.491464 1.49741 0
M  V30 3840 C 359.111 0.0413169 1.86654 0
M  V30 3841 C 359.462 -1.36985 1.40462 0
M  V30 3842 O 358.587 -2.01917 0.778354 0
M  V30 3843 C 359.182 0.0682023 3.38731 0
M  V30 3844 C 357.741 -0.32656 3.74981 0
M  V30 3845 C 356.888 0.444888 2.73708 0
M  V30 3846 H 359.839 0.704733 1.42194 0
M  V30 3847 H 359.86 -0.729322 3.73445 0
M  V30 3848 H 359.372 1.09539 3.72321 0
M  V30 3849 H 357.473 -1.35734 3.46997 0
M  V30 3850 H 357.586 -0.013741 4.79098 0
M  V30 3851 H 355.95 -0.104062 2.54487 0
M  V30 3852 H 356.733 1.47197 3.10142 0
M  V30 3853 N 359.178 -1.55987 0.224894 0
M  V30 3854 C 360.408 -2.02489 -0.41007 0
M  V30 3855 C 360.816 -1.10391 -1.53657 0
M  V30 3856 O 360.159 -0.106458 -1.83391 0
M  V30 3857 C 360.221 -3.45319 -0.999757 0
M  V30 3858 C 359.885 -4.56999 -0.00827976 0
M  V30 3859 C 360.882 -5.13812 0.793314 0
M  V30 3860 C 358.567 -5.02176 0.111442 0
M  V30 3861 C 360.561 -6.14276 1.7013 0
M  V30 3862 C 358.248 -6.02477 1.02296 0
M  V30 3863 C 359.246 -6.58403 1.81643 0
M  V30 3864 O 358.934 -7.56751 2.71262 0
M  V30 3865 H 358.666 -0.667915 -0.104235 0
M  V30 3866 H 361.22 -2.0257 0.339782 0
M  V30 3867 H 359.45 -3.42318 -1.79876 0
M  V30 3868 H 361.139 -3.7545 -1.54248 0
M  V30 3869 H 361.905 -4.79756 0.711288 0
M  V30 3870 H 357.784 -4.58323 -0.49605 0
M  V30 3871 H 361.328 -6.57854 2.32107 0
M  V30 3872 H 357.225 -6.35954 1.10599 0
M  V30 3873 H 357.993 -7.74286 2.65375 0
M  V30 3874 N 360.656 0.0484629 -1.57525 0
M  V30 3875 C 361.902 0.738854 -1.89506 0
M  V30 3876 C 362.257 1.73989 -0.821319 0
M  V30 3877 O 361.55 1.90825 0.172129 0
M  V30 3878 C 361.744 1.46632 -3.25935 0
M  V30 3879 C 361.573 0.537254 -4.46479 0
M  V30 3880 C 360.343 0.165484 -5.05029 0
M  V30 3881 C 362.541 -0.176085 -5.13998 0
M  V30 3882 N 360.523 -0.766868 -6.09091 0
M  V30 3883 C 361.894 -0.96478 -6.12448 0
M  V30 3884 C 363.949 -0.24509 -4.97296 0
M  V30 3885 C 362.652 -1.8161 -6.95996 0
M  V30 3886 C 364.678 -1.08347 -5.81391 0
M  V30 3887 C 364.04 -1.86014 -6.79395 0
M  V30 3888 H 360.139 0.245067 -0.742608 0
M  V30 3889 H 362.723 -0.000476161 -1.947 0
M  V30 3890 H 360.894 2.17623 -3.21706 0
M  V30 3891 H 362.626 2.10757 -3.45491 0
M  V30 3892 H 359.381 0.523466 -4.70698 0
M  V30 3893 H 359.805 -1.22698 -6.65788 0
M  V30 3894 H 364.447 0.341063 -4.21422 0
M  V30 3895 H 362.165 -2.41313 -7.71229 0
M  V30 3896 H 365.751 -1.14014 -5.70519 0
M  V30 3897 H 364.631 -2.4984 -7.43337 0
M  V30 3898 N 362.134 1.5431 0.320358 0
M  V30 3899 C 363.411 1.63322 1.07635 0
M  V30 3900 C 363.791 0.46912 2.05821 0
M  V30 3901 O 363.139 -0.536274 2.22118 0
M  V30 3902 C 363.349 3.00465 1.77544 0
M  V30 3903 C 364.697 3.56621 2.30449 0
M  V30 3904 O 365.721 3.02791 1.87606 0
M  V30 3905 O 364.58 4.5083 3.08892 0
M  V30 3906 H 361.674 0.661502 0.496331 0
M  V30 3907 H 364.22 1.66656 0.319992 0
M  V30 3908 H 362.992 3.76629 1.06143 0
M  V30 3909 H 362.615 3.00824 2.59982 0
M  V30 3910 N 363.613 -0.582584 1.46437 0
M  V30 3911 C 364.89 -1.34276 1.4223 0
M  V30 3912 C 365.27 -2.10835 0.10583 0
M  V30 3913 O 364.618 -2.09485 -0.912596 0
M  V30 3914 C 364.828 -2.26865 2.65204 0
M  V30 3915 C 366.176 -2.88691 3.11356 0
M  V30 3916 O 367.2 -2.37178 2.65753 0
M  V30 3917 O 366.059 -3.82255 3.90568 0
M  V30 3918 H 363.153 -0.603326 0.565621 0
M  V30 3919 H 365.699 -0.603591 1.58603 0
M  V30 3920 H 364.471 -1.69724 3.52576 0
M  V30 3921 H 364.094 -3.08122 2.5129 0
M  V30 3922 N 365.091 -1.34144 -0.827227 0
M  V30 3923 C 366.34 -1.25602 -1.5782 0
M  V30 3924 C 366.653 0.173445 -1.94829 0
M  V30 3925 O 367.859 0.380984 -2.68814 0
M  V30 3926 C 366.315 -2.20151 -2.84713 0
M  V30 3927 C 365.923 -3.68331 -2.55021 0
M  V30 3928 C 367.667 -2.20508 -3.62735 0
M  V30 3929 C 365.574 -4.54762 -3.78082 0
M  V30 3930 H 364.504 -0.466573 -0.592306 0
M  V30 3931 H 367.155 -1.59283 -0.911116 0
M  V30 3932 H 365.537 -1.79417 -3.53023 0
M  V30 3933 H 366.711 -4.17577 -1.94849 0
M  V30 3934 H 365.026 -3.7038 -1.90283 0
M  V30 3935 H 367.623 -2.82306 -4.54101 0
M  V30 3936 H 367.966 -1.20322 -3.98533 0
M  V30 3937 H 368.499 -2.59664 -3.01362 0
M  V30 3938 H 365.238 -5.55867 -3.47407 0
M  V30 3939 H 364.758 -4.10254 -4.37552 0
M  V30 3940 H 366.437 -4.69153 -4.45538 0
M  V30 3941 N 366.569 1.04691 -1.17803 0
M  V30 3942 C 367.794 1.81984 -0.994813 0
M  V30 3943 C 368.219 1.82586 0.452112 0
M  V30 3944 O 367.577 1.23854 1.324 0
M  V30 3945 C 367.625 3.2575 -1.54659 0
M  V30 3946 O 366.729 4.05267 -0.763728 0
M  V30 3947 H 366.07 0.562483 -0.352857 0
M  V30 3948 H 368.6 1.3189 -1.56417 0
M  V30 3949 H 368.61 3.76541 -1.57102 0
M  V30 3950 H 367.285 3.24627 -2.59981 0
M  V30 3951 H 365.862 3.63972 -0.811108 0
M  V30 3952 N 368.047 0.979072 1.23499 0
M  V30 3953 C 369.324 0.563674 1.87302 0
M  V30 3954 C 369.704 -0.959199 1.88049 0
M  V30 3955 O 369.052 -1.83535 1.36114 0
M  V30 3956 C 369.262 1.16822 3.28867 0
M  V30 3957 C 370.61 1.26014 4.0547 0
M  V30 3958 O 371.634 1.12158 3.38082 0
M  V30 3959 O 370.493 1.48044 5.26066 0
M  V30 3960 H 367.587 0.189602 0.804972 0
M  V30 3961 H 370.133 1.07407 1.31384 0
M  V30 3962 H 368.905 2.21049 3.22883 0
M  V30 3963 H 368.528 0.642564 3.92373 0
M  V30 3964 N 369.525 -1.3858 0.750561 0
M  V30 3965 C 370.75 -2.04997 0.314812 0
M  V30 3966 C 371.175 -1.56235 -1.04749 0
M  V30 3967 O 370.533 -0.712981 -1.66692 0
M  V30 3968 C 370.581 -3.58961 0.343415 0
M  V30 3969 O 369.685 -4.07025 -0.663628 0
M  V30 3970 H 369.026 -0.649081 0.139962 0
M  V30 3971 H 371.556 -1.77313 1.02084 0
M  V30 3972 H 371.566 -4.07542 0.193233 0
M  V30 3973 H 370.241 -3.93811 1.33738 0
M  V30 3974 H 368.818 -3.6982 -0.478307 0
M  V30 3975 N 371.003 -0.499398 -1.49478 0
M  V30 3976 C 371.966 0.268838 -2.27618 0
M  V30 3977 C 372.966 0.895383 -1.33565 0
M  V30 3978 O 374.156 0.760164 -1.56739 0
M  V30 3979 C 371.288 1.38559 -3.11471 0
M  V30 3980 H 372.481 -0.416812 -2.96989 0
M  V30 3981 H 370.034 -0.254313 -1.54217 0
M  V30 3982 H 370.769 2.10544 -2.46661 0
M  V30 3983 H 370.554 0.941797 -3.80621 0
M  V30 3984 H 372.044 1.92678 -3.70493 0
M  V30 3985 N 372.481 1.55866 -0.233164 0
M  V30 3986 C 373.428 2.20796 0.67215 0
M  V30 3987 C 374.398 1.16731 1.18166 0
M  V30 3988 O 375.583 1.45129 1.23864 0
M  V30 3989 C 372.723 2.90072 1.86955 0
M  V30 3990 C 371.836 4.08759 1.39786 0
M  V30 3991 C 370.971 4.65787 2.55374 0
M  V30 3992 C 370.01 5.76752 2.04998 0
M  V30 3993 N 369.147 6.28021 3.13901 0
M  V30 3994 H 373.987 2.9779 0.111749 0
M  V30 3995 H 371.524 1.47036 0.0434007 0
M  V30 3996 H 373.482 3.28428 2.57276 0
M  V30 3997 H 372.112 2.15575 2.40265 0
M  V30 3998 H 371.164 3.7581 0.589173 0
M  V30 3999 H 372.476 4.88906 0.98856 0
M  V30 4000 H 371.63 5.06646 3.33758 0
M  V30 4001 H 370.369 3.84828 2.99598 0
M  V30 4002 H 369.374 5.35383 1.25079 0
M  V30 4003 H 370.599 6.59553 1.61759 0
M  V30 4004 H 368.545 5.49971 3.57586 0
M  V30 4005 H 368.462 7.03323 2.7726 0
M  V30 4006 H 369.73 6.73538 3.92386 0
M  V30 4007 N 373.959 -0.0401083 1.57549 0
M  V30 4008 C 375.236 -0.767917 1.79896 0
M  V30 4009 C 375.616 -1.9416 0.82856 0
M  V30 4010 O 374.964 -2.2812 -0.131671 0
M  V30 4011 C 375.174 -1.2113 3.27305 0
M  V30 4012 C 376.522 -1.63175 3.91994 0
M  V30 4013 O 377.546 -1.30616 3.31388 0
M  V30 4014 O 376.405 -2.23565 4.98679 0
M  V30 4015 H 373.499 -0.370441 0.739393 0
M  V30 4016 H 376.045 -0.017737 1.69691 0
M  V30 4017 H 374.817 -0.372937 3.89519 0
M  V30 4018 H 374.44 -2.02183 3.42356 0
M  V30 4019 N 375.437 -1.54477 -0.31217 0
M  V30 4020 C 376.684 -1.73227 -1.04875 0
M  V30 4021 C 377.012 -0.512042 -1.87639 0
M  V30 4022 O 376.267 0.506131 -1.89042 0
M  V30 4023 C 376.566 -2.967 -1.99258 0
M  V30 4024 C 376.232 -4.30974 -1.32559 0
M  V30 4025 C 374.894 -4.67477 -1.141 0
M  V30 4026 C 377.246 -5.14258 -0.847835 0
M  V30 4027 C 374.574 -5.84852 -0.465326 0
M  V30 4028 C 376.926 -6.32327 -0.185931 0
M  V30 4029 C 375.59 -6.67499 0.0107077 0
M  V30 4030 H 374.86 -0.633881 -0.383765 0
M  V30 4031 H 377.507 -1.88727 -0.324731 0
M  V30 4032 H 375.812 -2.75935 -2.7815 0
M  V30 4033 H 377.509 -3.08401 -2.563 0
M  V30 4034 H 374.099 -4.02262 -1.4793 0
M  V30 4035 H 378.283 -4.86565 -0.978192 0
M  V30 4036 H 373.539 -6.10654 -0.301883 0
M  V30 4037 H 377.713 -6.96135 0.192211 0
M  V30 4038 H 375.34 -7.58306 0.536287 0
M  V30 4039 N 376.915 0.57481 -1.46744 0
M  V30 4040 C 378.164 1.32898 -1.51727 0
M  V30 4041 C 378.477 1.948 -0.176692 0
M  V30 4042 O 379.683 2.71299 -0.104385 0
M  V30 4043 C 378.139 2.40901 -2.67385 0
M  V30 4044 C 377.747 1.85266 -4.07898 0
M  V30 4045 C 379.491 3.17609 -2.81646 0
M  V30 4046 C 377.398 2.90945 -5.14883 0
M  V30 4047 H 376.328 0.499631 -0.564699 0
M  V30 4048 H 378.979 0.612536 -1.72975 0
M  V30 4049 H 377.361 3.15379 -2.39483 0
M  V30 4050 H 378.535 1.17278 -4.45626 0
M  V30 4051 H 376.85 1.21199 -3.98371 0
M  V30 4052 H 379.447 3.96493 -3.58744 0
M  V30 4053 H 379.79 3.70696 -1.89448 0
M  V30 4054 H 380.323 2.50239 -3.09233 0
M  V30 4055 H 377.062 2.42736 -6.089 0
M  V30 4056 H 376.582 3.57398 -4.81691 0
M  V30 4057 H 378.261 3.54755 -5.41071 0
M  V30 4058 N 378.394 1.34581 0.820102 0
M  V30 4059 C 379.81 1.14325 1.11364 0
M  V30 4060 C 380.01 -0.0533648 2.01429 0
M  V30 4061 O 379.066 -0.728044 2.41776 0
M  V30 4062 C 380.379 2.43983 1.75764 0
M  V30 4063 C 381.927 2.50065 1.88246 0
M  V30 4064 C 382.402 3.79732 2.56061 0
M  V30 4065 N 383.893 3.80908 2.63558 0
M  V30 4066 C 384.628 4.77961 3.16766 0
M  V30 4067 N 384.124 5.85397 3.70517 0
M  V30 4068 N 385.917 4.65413 3.15194 0
M  V30 4069 H 378.068 2.11246 0.221096 0
M  V30 4070 H 380.331 0.934289 0.160649 0
M  V30 4071 H 380.037 3.31651 1.1705 0
M  V30 4072 H 379.911 2.57531 2.75604 0
M  V30 4073 H 382.298 1.62834 2.46108 0
M  V30 4074 H 382.379 2.40442 0.873006 0
M  V30 4075 H 382.023 4.67354 1.98853 0
M  V30 4076 H 381.953 3.86639 3.57516 0
M  V30 4077 H 384.444 3.03274 2.25463 0
M  V30 4078 H 384.757 6.55463 4.09376 0
M  V30 4079 H 383.102 5.89107 3.68752 0
M  V30 4080 H 386.293 3.80627 2.72471 0
M  V30 4081 H 386.466 5.41216 3.56356 0
M  V30 4082 N 379.872 -1.04064 1.18357 0
M  V30 4083 C 380.82 -2.14187 0.907007 0
M  V30 4084 C 381.814 -1.68879 -0.132725 0
M  V30 4085 O 383.02 -1.79993 0.0154248 0
M  V30 4086 H 379.395 -0.699585 0.275835 0
M  V30 4087 H 381.366 -2.34711 1.84264 0
M  V30 4088 C 380.115 -3.44785 0.449254 0
M  V30 4089 H 379.438 -3.80058 1.24081 0
M  V30 4090 H 380.878 -4.22974 0.294737 0
M  V30 4091 C 379.337 -3.26391 -0.834909 0
M  V30 4092 O 379.867 -3.53973 -1.89911 0
M  V30 4093 N 378.073 -2.79726 -0.787523 0
M  V30 4094 H 377.62 -2.5748 0.0787347 0
M  V30 4095 H 377.578 -2.67798 -1.64716 0
M  V30 4096 N 381.35 -0.985608 -1.22978 0
M  V30 4097 C 382.28 -0.549649 -2.26939 0
M  V30 4098 C 383.261 0.419803 -1.64838 0
M  V30 4099 O 384.446 0.31203 -1.91677 0
M  V30 4100 C 381.576 0.143652 -3.47003 0
M  V30 4101 C 380.53 -0.743606 -4.21491 0
M  V30 4102 C 379.856 0.0822027 -5.34637 0
M  V30 4103 C 381.156 -2.03694 -4.80943 0
M  V30 4104 H 382.85 -1.41862 -2.63658 0
M  V30 4105 H 380.396 -0.683571 -1.26741 0
M  V30 4106 H 382.349 0.459985 -4.18882 0
M  V30 4107 H 381.073 1.04711 -3.09359 0
M  V30 4108 H 379.732 -1.04347 -3.51436 0
M  V30 4109 H 379.38 0.986359 -4.93234 0
M  V30 4110 H 379.08 -0.508377 -5.85397 0
M  V30 4111 H 380.604 0.392797 -6.09335 0
M  V30 4112 H 382.018 -1.78504 -5.44802 0
M  V30 4113 H 380.415 -2.57573 -5.42011 0
M  V30 4114 H 381.485 -2.72042 -4.01399 0
M  V30 4115 N 382.828 1.3818 -0.7579 0
M  V30 4116 C 383.761 2.28055 -0.0814093 0
M  V30 4117 C 384.739 1.45603 0.723779 0
M  V30 4118 O 385.923 1.74961 0.701491 0
M  V30 4119 C 383.05 3.2676 0.891394 0
M  V30 4120 C 382.096 4.26153 0.171909 0
M  V30 4121 S 382.929 5.23434 -1.13035 0
M  V30 4122 C 384.085 6.25694 -0.160727 0
M  V30 4123 H 384.318 2.85082 -0.84353 0
M  V30 4124 H 381.851 1.44246 -0.550671 0
M  V30 4125 H 383.809 3.8414 1.44731 0
M  V30 4126 H 382.47 2.68706 1.62652 0
M  V30 4127 H 381.663 4.95738 0.908843 0
M  V30 4128 H 381.265 3.72691 -0.312606 0
M  V30 4129 H 383.557 6.74161 0.671773 0
M  V30 4130 H 384.5 7.03285 -0.824353 0
M  V30 4131 H 384.908 5.64064 0.221892 0
M  V30 4132 N 384.306 0.507319 1.49211 0
M  V30 4133 C 385.216 -0.272136 2.33016 0
M  V30 4134 C 386.232 -0.961206 1.45041 0
M  V30 4135 O 387.408 -0.941191 1.78055 0
M  V30 4136 C 384.473 -1.31895 3.20631 0
M  V30 4137 C 383.534 -0.642648 4.24463 0
M  V30 4138 C 382.767 -1.63959 5.07891 0
M  V30 4139 O 382.99 -2.87007 4.92933 0
M  V30 4140 O 381.924 -1.19143 5.8999 0
M  V30 4141 H 385.75 0.413982 3.00865 0
M  V30 4142 H 383.335 0.268556 1.46966 0
M  V30 4143 H 385.217 -1.92446 3.7489 0
M  V30 4144 H 383.892 -1.98788 2.5547 0
M  V30 4145 H 382.799 0.00276252 3.741 0
M  V30 4146 H 384.132 -0.0160534 4.92197 0
M  V30 4147 N 385.784 -1.5574 0.241426 0
M  V30 4148 C 386.731 -2.21149 -0.660432 0
M  V30 4149 C 387.701 -1.17356 -1.17545 0
M  V30 4150 O 388.886 -1.45784 -1.23093 0
M  V30 4151 C 386.026 -2.91059 -1.85414 0
M  V30 4152 C 385.139 -4.09495 -1.37616 0
M  V30 4153 C 384.274 -4.67135 -2.529 0
M  V30 4154 C 383.313 -5.77831 -2.01936 0
M  V30 4155 N 382.45 -6.29677 -3.10566 0
M  V30 4156 H 387.29 -2.97845 -0.095955 0
M  V30 4157 H 384.827 -1.47057 -0.0356024 0
M  V30 4158 H 386.785 -3.29788 -2.5553 0
M  V30 4159 H 385.415 -2.16846 -2.39118 0
M  V30 4160 H 384.467 -3.76117 -0.569235 0
M  V30 4161 H 385.779 -4.89423 -0.962618 0
M  V30 4162 H 384.933 -5.08409 -3.31067 0
M  V30 4163 H 383.672 -3.86411 -2.97553 0
M  V30 4164 H 382.677 -5.36039 -1.22238 0
M  V30 4165 H 383.902 -6.60402 -1.58259 0
M  V30 4166 H 381.848 -5.5186 -3.54664 0
M  V30 4167 H 381.765 -7.04783 -2.73526 0
M  V30 4168 H 383.033 -6.75609 -3.88809 0
M  V30 4169 N 387.262 0.0317525 -1.57568 0
M  V30 4170 C 388.539 0.758366 -1.803 0
M  V30 4171 C 388.919 1.93718 -0.838845 0
M  V30 4172 O 388.267 2.28187 0.119571 0
M  V30 4173 C 388.477 1.19392 -3.27943 0
M  V30 4174 C 389.825 1.61094 -3.92854 0
M  V30 4175 O 390.849 1.28857 -3.32076 0
M  V30 4176 O 389.708 2.20918 -4.99858 0
M  V30 4177 H 386.802 0.366514 -0.741348 0
M  V30 4178 H 389.348 0.00873765 -1.69698 0
M  V30 4179 H 388.12 0.352275 -3.89711 0
M  V30 4180 H 387.743 2.00365 -3.43424 0
M  V30 4181 N 388.74 1.54641 0.303973 0
M  V30 4182 C 390.151 1.64811 0.877163 0
M  V30 4183 C 390.502 0.554838 1.88191 0
M  V30 4184 O 389.627 -0.309033 2.14182 0
M  V30 4185 C 390.222 2.9876 1.59775 0
M  V30 4186 C 388.781 3.11061 2.11938 0
M  V30 4187 C 387.928 2.60479 0.951097 0
M  V30 4188 H 390.879 1.58493 0.0810486 0
M  V30 4189 H 390.9 2.90017 2.46314 0
M  V30 4190 H 390.412 3.7831 0.866226 0
M  V30 4191 H 388.513 2.36225 2.88146 0
M  V30 4192 H 388.626 4.17171 2.35595 0
M  V30 4193 H 386.99 2.16859 1.33583 0
M  V30 4194 H 387.773 3.42504 0.233581 0
M  V30 4195 N 390.218 -0.567019 1.47046 0
M  V30 4196 C 391.166 -1.69593 1.59188 0
M  V30 4197 C 392.16 -1.63046 0.459609 0
M  V30 4198 O 393.366 -1.6835 0.637058 0
M  V30 4199 H 389.741 -0.560993 0.500791 0
M  V30 4200 H 391.712 -1.56488 2.54075 0
M  V30 4201 C 390.461 -3.07964 1.61411 0
M  V30 4202 H 389.784 -3.13679 2.47881 0
M  V30 4203 H 391.224 -3.86671 1.73958 0
M  V30 4204 C 389.683 -3.35123 0.34559 0
M  V30 4205 O 390.213 -3.97812 -0.557521 0
M  V30 4206 N 388.419 -2.89699 0.22864 0
M  V30 4207 H 387.966 -2.38863 0.964479 0
M  V30 4208 H 387.924 -3.08242 -0.619192 0
M  V30 4209 N 391.696 -1.35014 -0.812953 0
M  V30 4210 C 392.643 -1.27412 -1.92444 0
M  V30 4211 C 393.613 -0.14733 -1.65445 0
M  V30 4212 O 394.798 -0.329974 -1.87925 0
M  V30 4213 C 391.938 -1.04558 -3.28879 0
M  V30 4214 C 391.051 -2.26101 -3.68106 0
M  V30 4215 C 390.186 -1.96449 -4.9354 0
M  V30 4216 C 389.225 -3.14081 -5.25376 0
M  V30 4217 N 388.362 -2.84246 -6.41988 0
M  V30 4218 H 393.202 -2.22463 -1.98278 0
M  V30 4219 H 390.739 -1.10593 -0.969933 0
M  V30 4220 H 392.697 -0.893413 -4.07522 0
M  V30 4221 H 391.327 -0.131719 -3.22531 0
M  V30 4222 H 390.379 -2.52204 -2.84775 0
M  V30 4223 H 391.691 -3.13959 -3.87597 0
M  V30 4224 H 390.845 -1.78026 -5.79993 0
M  V30 4225 H 389.584 -1.05867 -4.76071 0
M  V30 4226 H 388.589 -3.33089 -4.37415 0
M  V30 4227 H 389.814 -4.05455 -5.44778 0
M  V30 4228 H 387.76 -1.96252 -6.25956 0
M  V30 4229 H 387.677 -3.65637 -6.61699 0
M  V30 4230 H 388.945 -2.6935 -7.31485 0
M  V30 4231 N 393.175 1.03435 -1.18907 0
M  V30 4232 C 394.591 1.28973 -0.940111 0
M  V30 4233 C 394.791 1.97676 0.390691 0
M  V30 4234 O 393.847 2.26127 1.12352 0
M  V30 4235 C 395.16 2.14221 -2.11021 0
M  V30 4236 C 396.708 2.27547 -2.14922 0
M  V30 4237 C 397.183 3.16164 -3.31367 0
M  V30 4238 N 398.674 3.23752 -3.31269 0
M  V30 4239 C 399.409 3.92495 -4.18014 0
M  V30 4240 N 398.905 4.63515 -5.14904 0
M  V30 4241 N 400.698 3.88838 -4.05908 0
M  V30 4242 H 392.849 0.57252 -2.04538 0
M  V30 4243 H 395.112 0.315184 -0.894071 0
M  V30 4244 H 394.818 1.71054 -3.073 0
M  V30 4245 H 394.692 3.14919 -2.0762 0
M  V30 4246 H 397.079 2.69947 -1.19217 0
M  V30 4247 H 397.16 1.26418 -2.22378 0
M  V30 4248 H 396.804 2.74474 -4.27348 0
M  V30 4249 H 396.734 4.17339 -3.21148 0
M  V30 4250 H 399.225 2.73167 -2.61129 0
M  V30 4251 H 399.538 5.13583 -5.77453 0
M  V30 4252 H 397.883 4.62398 -5.18857 0
M  V30 4253 H 401.074 3.32491 -3.29495 0
M  V30 4254 H 401.247 4.4214 -4.73726 0
M  V30 4255 N 394.653 0.992116 1.22453 0
M  V30 4256 C 395.883 0.684949 1.94915 0
M  V30 4257 C 396.291 -0.754292 1.73514 0
M  V30 4258 O 395.634 -1.52056 1.03076 0
M  V30 4259 C 395.696 0.910054 3.47791 0
M  V30 4260 C 395.36 2.33363 3.92926 0
M  V30 4261 C 396.357 3.31308 4.00663 0
M  V30 4262 C 394.042 2.66785 4.25595 0
M  V30 4263 C 396.036 4.6075 4.40441 0
M  V30 4264 C 393.723 3.96446 4.65053 0
M  V30 4265 C 394.721 4.9324 4.72444 0
M  V30 4266 O 394.409 6.20584 5.1101 0
M  V30 4267 H 394.141 0.25258 0.62704 0
M  V30 4268 H 396.695 1.32939 1.56577 0
M  V30 4269 H 394.925 0.208443 3.86138 0
M  V30 4270 H 396.614 0.598257 4.01467 0
M  V30 4271 H 397.38 3.0682 3.75615 0
M  V30 4272 H 393.259 1.92148 4.19047 0
M  V30 4273 H 396.803 5.363 4.46126 0
M  V30 4274 H 392.7 4.20724 4.89552 0
M  V30 4275 H 393.468 6.24509 5.29085 0
M  V30 4276 N 396.131 -1.37776 0.765217 0
M  V30 4277 C 397.359 -2.04124 0.337767 0
M  V30 4278 C 397.774 -1.57715 -1.03785 0
M  V30 4279 O 397.131 -0.755447 -1.6613 0
M  V30 4280 C 397.182 -3.59658 0.364442 0
M  V30 4281 O 396.903 -4.04367 1.68579 0
M  V30 4282 C 398.404 -4.43236 -0.0754221 0
M  V30 4283 H 395.624 -0.655696 0.142491 0
M  V30 4284 H 398.168 -1.76238 1.03732 0
M  V30 4285 H 396.323 -3.86339 -0.286471 0
M  V30 4286 H 396.737 -4.98857 1.61993 0
M  V30 4287 H 398.211 -5.52 -0.00560067 0
M  V30 4288 H 398.688 -4.2455 -1.12491 0
M  V30 4289 H 399.294 -4.21767 0.547055 0
M  V30 4290 N 397.609 -0.515225 -1.4894 0
M  V30 4291 C 398.849 0.0223983 -2.04388 0
M  V30 4292 C 399.213 1.32961 -1.38511 0
M  V30 4293 O 400.414 1.95236 -1.8476 0
M  V30 4294 C 398.685 0.157056 -3.57055 0
M  V30 4295 S 400.244 0.646875 -4.34006 0
M  V30 4296 H 397.062 -0.00500662 -0.710982 0
M  V30 4297 H 399.664 -0.69243 -1.82827 0
M  V30 4298 H 398.368 -0.799412 -4.02539 0
M  V30 4299 H 397.899 0.896704 -3.83044 0
M  V30 4300 H 399.914 1.91381 -4.57808 0
M  V30 4301 N 399.087 1.5561 -0.249682 0
M  V30 4302 C 399.997 2.25143 0.659375 0
M  V30 4303 C 401.013 1.2685 1.19101 0
M  V30 4304 O 402.189 1.59732 1.22669 0
M  V30 4305 C 399.254 2.93945 1.8384 0
M  V30 4306 C 398.315 4.07655 1.34596 0
M  V30 4307 C 397.548 4.73167 2.46878 0
M  V30 4308 O 397.771 4.37768 3.65671 0
M  V30 4309 O 396.705 5.61623 2.16478 0
M  V30 4310 H 400.531 3.03545 0.0968698 0
M  V30 4311 H 398.116 1.49389 -0.018074 0
M  V30 4312 H 399.998 3.37271 2.52638 0
M  V30 4313 H 398.673 2.18481 2.38847 0
M  V30 4314 H 397.58 3.68839 0.625174 0
M  V30 4315 H 398.913 4.84946 0.841941 0
M  V30 4316 N 400.565 -0.0233959 1.57583 0
M  V30 4317 C 401.497 -1.04994 2.03737 0
M  V30 4318 C 402.51 -1.32125 0.951152 0
M  V30 4319 O 403.699 -1.29512 1.22837 0
M  V30 4320 C 400.799 -2.39026 2.40249 0
M  V30 4321 C 399.972 -2.31171 3.7132 0
M  V30 4322 C 399.031 -3.47698 3.94959 0
M  V30 4323 O 398.057 -3.26937 4.65941 0
M  V30 4324 N 399.259 -4.6976 3.41037 0
M  V30 4325 H 402.024 -0.656507 2.92421 0
M  V30 4326 H 399.585 -0.211235 1.60516 0
M  V30 4327 H 401.577 -3.15712 2.53196 0
M  V30 4328 H 400.147 -2.70194 1.57207 0
M  V30 4329 H 399.367 -1.39547 3.68674 0
M  V30 4330 H 400.655 -2.23071 4.57293 0
M  V30 4331 H 400.053 -4.89528 2.83512 0
M  V30 4332 H 398.61 -5.43791 3.59353 0
M  V30 4333 N 402.043 -1.548 -0.295768 0
M  V30 4334 C 403.006 -1.85363 -1.34808 0
M  V30 4335 C 404.006 -0.726817 -1.43436 0
M  V30 4336 O 405.196 -0.995088 -1.42981 0
M  V30 4337 C 402.328 -2.03859 -2.73229 0
M  V30 4338 H 403.521 -2.7941 -1.08949 0
M  V30 4339 H 401.074 -1.46942 -0.532702 0
M  V30 4340 H 401.809 -1.12117 -3.04303 0
M  V30 4341 H 401.594 -2.8588 -2.68356 0
M  V30 4342 H 403.084 -2.28857 -3.49305 0
M  V30 4343 N 403.521 0.559213 -1.47345 0
M  V30 4344 C 404.484 1.64854 -1.59235 0
M  V30 4345 C 405.484 1.53851 -0.467607 0
M  V30 4346 O 406.674 1.58045 -0.732617 0
M  V30 4347 C 403.806 3.04388 -1.53496 0
M  V30 4348 H 404.999 1.55662 -2.56339 0
M  V30 4349 H 402.552 0.778973 -1.35505 0
M  V30 4350 H 403.287 3.19115 -0.577604 0
M  V30 4351 H 403.072 3.13783 -2.35123 0
M  V30 4352 H 404.562 3.83642 -1.6495 0
M  V30 4353 N 404.999 1.35443 0.805782 0
M  V30 4354 C 406.415 1.15499 1.10146 0
M  V30 4355 C 406.615 -0.0319975 2.01475 0
M  V30 4356 O 405.671 -0.70236 2.42535 0
M  V30 4357 C 406.984 2.45833 1.73166 0
M  V30 4358 C 408.532 2.52047 1.85583 0
M  V30 4359 C 409.007 3.82427 2.52019 0
M  V30 4360 N 410.498 3.83682 2.59504 0
M  V30 4361 C 411.233 4.81294 3.11679 0
M  V30 4362 N 410.729 5.89294 3.64287 0
M  V30 4363 N 412.522 4.6873 3.1024 0
M  V30 4364 H 404.673 2.11469 0.198678 0
M  V30 4365 H 406.936 0.93594 0.150731 0
M  V30 4366 H 406.642 3.32874 1.13526 0
M  V30 4367 H 406.516 2.6044 2.72857 0
M  V30 4368 H 408.903 1.65435 2.44367 0
M  V30 4369 H 408.984 2.41354 0.847455 0
M  V30 4370 H 408.628 4.69437 1.93885 0
M  V30 4371 H 408.558 3.90409 3.53395 0
M  V30 4372 H 411.049 3.05648 2.22234 0
M  V30 4373 H 411.362 6.59768 4.02401 0
M  V30 4374 H 409.707 5.92985 3.62483 0
M  V30 4375 H 412.898 3.83496 2.68419 0
M  V30 4376 H 413.071 5.44965 3.50596 0
M  V30 4377 N 406.477 -1.02803 1.19454 0
M  V30 4378 C 407.427 -2.0945 0.900827 0
M  V30 4379 C 408.411 -1.60335 -0.134715 0
M  V30 4380 O 409.603 -1.76857 0.0710924 0
M  V30 4381 C 406.732 -3.4044 0.442229 0
M  V30 4382 C 405.818 -3.96286 1.51056 0
M  V30 4383 N 406.209 -4.25785 2.73021 0
M  V30 4384 C 404.507 -4.24307 1.37404 0
M  V30 4385 C 405.208 -4.70654 3.41848 0
M  V30 4386 N 404.184 -4.72238 2.69243 0
M  V30 4387 H 407.986 -2.3015 1.82779 0
M  V30 4388 H 405.5 -1.20672 1.08683 0
M  V30 4389 H 407.497 -4.16354 0.21326 0
M  V30 4390 H 406.157 -3.21159 -0.478238 0
M  V30 4391 H 407.168 -4.15041 3.09776 0
M  V30 4392 H 403.845 -4.14285 0.517103 0
M  V30 4393 H 405.235 -5.02392 4.46152 0
M  V30 4394 N 407.956 -0.998596 -1.21925 0
M  V30 4395 C 409.367 -0.711939 -1.72593 0
M  V30 4396 C 409.718 0.770842 -1.80423 0
M  V30 4397 O 408.843 1.60237 -1.4544 0
M  V30 4398 C 409.438 -1.28567 -3.13458 0
M  V30 4399 C 407.997 -1.04828 -3.61508 0
M  V30 4400 C 407.144 -1.4024 -2.39224 0
M  V30 4401 H 410.095 -1.17027 -1.07193 0
M  V30 4402 H 410.116 -0.667098 -3.74607 0
M  V30 4403 H 409.628 -2.36486 -3.07727 0
M  V30 4404 H 407.729 0.0140383 -3.72597 0
M  V30 4405 H 407.842 -1.71566 -4.47328 0
M  V30 4406 H 406.206 -0.821077 -2.41103 0
M  V30 4407 H 406.989 -2.49176 -2.36149 0
M  V30 4408 N 409.434 1.37368 -0.772513 0
M  V30 4409 C 410.68 2.00423 -0.3467 0
M  V30 4410 C 411.035 1.60224 1.06518 0
M  V30 4411 O 410.328 0.838712 1.72268 0
M  V30 4412 C 410.522 3.54817 -0.428876 0
M  V30 4413 C 410.351 4.10011 -1.84719 0
M  V30 4414 C 409.121 4.40927 -2.46803 0
M  V30 4415 C 411.319 4.30955 -2.80681 0
M  V30 4416 N 409.301 4.8184 -3.80399 0
M  V30 4417 C 410.672 4.74486 -3.99078 0
M  V30 4418 C 412.727 4.1309 -2.77958 0
M  V30 4419 C 411.43 5.02023 -5.15136 0
M  V30 4420 C 413.456 4.41764 -3.9319 0
M  V30 4421 C 412.818 4.85535 -5.10328 0
M  V30 4422 H 408.917 0.762413 -0.173927 0
M  V30 4423 H 411.501 1.66666 -1.00651 0
M  V30 4424 H 409.672 3.87881 0.200757 0
M  V30 4425 H 411.404 4.04696 0.0190668 0
M  V30 4426 H 408.159 4.30033 -1.98415 0
M  V30 4427 H 408.583 5.06604 -4.49089 0
M  V30 4428 H 413.225 3.7842 -1.88568 0
M  V30 4429 H 410.943 5.35582 -6.05126 0
M  V30 4430 H 414.529 4.29528 -3.92425 0
M  V30 4431 H 413.409 5.07296 -5.98013 0
M  V30 4432 N 410.912 0.523116 1.48665 0
M  V30 4433 C 412.161 -0.01544 2.01694 0
M  V30 4434 C 412.474 -1.35975 1.40606 0
M  V30 4435 O 413.68 -1.98627 1.85093 0
M  V30 4436 C 412.136 -0.0779303 3.59816 0
M  V30 4437 C 411.744 1.26107 4.29885 0
M  V30 4438 C 413.488 -0.565678 4.20714 0
M  V30 4439 C 411.395 1.15954 5.79921 0
M  V30 4440 H 410.325 -0.00954163 0.75394 0
M  V30 4441 H 412.976 0.665865 1.70993 0
M  V30 4442 H 411.358 -0.824165 3.87329 0
M  V30 4443 H 412.532 2.02233 4.14051 0
M  V30 4444 H 410.847 1.68401 3.80828 0
M  V30 4445 H 413.444 -0.6595 5.30617 0
M  V30 4446 H 413.787 -1.56984 3.85567 0
M  V30 4447 H 414.32 0.12467 3.97605 0
M  V30 4448 H 411.059 2.13864 6.19631 0
M  V30 4449 H 410.579 0.439529 5.98187 0
M  V30 4450 H 412.258 0.847361 6.41427 0
M  V30 4451 N 412.39 -1.55475 0.257931 0
M  V30 4452 C 413.353 -2.20551 -0.623706 0
M  V30 4453 C 414.353 -1.17809 -1.09443 0
M  V30 4454 O 415.543 -1.42823 -0.997362 0
M  V30 4455 C 412.675 -2.85784 -1.8585 0
M  V30 4456 H 413.868 -2.99848 -0.0557743 0
M  V30 4457 H 411.421 -1.56298 0.0084422 0
M  V30 4458 H 412.156 -2.10453 -2.46739 0
M  V30 4459 H 411.941 -3.61057 -1.52907 0
M  V30 4460 H 413.431 -3.35553 -2.48584 0
M  V30 4461 N 413.868 0.0150385 -1.57593 0
M  V30 4462 C 415.116 0.701613 -1.8953 0
M  V30 4463 C 415.437 1.75139 -0.857396 0
M  V30 4464 O 414.707 1.95607 0.107194 0
M  V30 4465 H 413.287 0.26213 -0.699498 0
M  V30 4466 H 415.949 -0.0223304 -1.94887 0
M  V30 4467 H 415.045 1.18236 -2.88837 0
M  V30 4468 N 415.346 1.54954 0.287554 0
M  V30 4469 C 416.623 1.65569 1.04146 0
M  V30 4470 C 417.003 0.512672 2.0478 0
M  V30 4471 O 416.351 -0.489038 2.23205 0
M  V30 4472 C 416.561 3.04163 1.71131 0
M  V30 4473 C 417.909 3.61429 2.22832 0
M  V30 4474 O 418.933 3.06702 1.81141 0
M  V30 4475 O 417.792 4.57281 2.9926 0
M  V30 4476 H 414.886 0.671881 0.482188 0
M  V30 4477 H 417.432 1.67297 0.28457 0
M  V30 4478 H 416.204 3.78796 0.981303 0
M  V30 4479 H 415.827 3.06271 2.53543 0
M  V30 4480 N 416.824 -0.551391 1.4764 0
M  V30 4481 C 418.052 -1.33357 1.58189 0
M  V30 4482 C 418.467 -1.87342 0.234199 0
M  V30 4483 O 417.824 -1.65301 -0.77343 0
M  V30 4484 C 417.875 -2.49942 2.61173 0
M  V30 4485 O 417.596 -1.98187 3.90709 0
M  V30 4486 C 419.097 -3.42072 2.8196 0
M  V30 4487 H 416.317 -0.40631 0.533998 0
M  V30 4488 H 418.861 -0.667367 1.93304 0
M  V30 4489 H 417.016 -3.12489 2.28975 0
M  V30 4490 H 417.43 -2.74342 4.47031 0
M  V30 4491 H 418.904 -4.20278 3.57869 0
M  V30 4492 H 419.381 -3.95978 1.89995 0
M  V30 4493 H 419.987 -2.85336 3.15378 0
M  V30 4494 N 418.302 -1.35869 -0.798587 0
M  V30 4495 C 419.265 -1.29307 -1.89242 0
M  V30 4496 C 420.265 -0.202747 -1.59517 0
M  V30 4497 O 421.455 -0.456957 -1.681 0
M  V30 4498 C 418.587 -1.00229 -3.25833 0
M  V30 4499 H 419.78 -2.26576 -1.96478 0
M  V30 4500 H 417.333 -1.20509 -0.995358 0
M  V30 4501 H 418.068 -0.033801 -3.24282 0
M  V30 4502 H 417.853 -1.79121 -3.48795 0
M  V30 4503 H 419.343 -0.98219 -4.05885 0
M  V30 4504 N 419.78 1.02168 -1.19998 0
M  V30 4505 C 420.71 2.12488 -0.96804 0
M  V30 4506 C 421.691 1.69799 0.101185 0
M  V30 4507 O 422.876 1.94121 -0.0552993 0
M  V30 4508 C 420.006 3.43479 -0.513776 0
M  V30 4509 C 418.96 3.99884 -1.52566 0
M  V30 4510 C 418.286 5.26582 -0.928214 0
M  V30 4511 C 419.586 4.33861 -2.90795 0
M  V30 4512 H 421.28 2.32149 -1.89069 0
M  V30 4513 H 418.826 1.11564 -0.910468 0
M  V30 4514 H 420.779 4.20036 -0.338774 0
M  V30 4515 H 419.503 3.23561 0.444493 0
M  V30 4516 H 418.162 3.25429 -1.68794 0
M  V30 4517 H 417.81 5.02986 0.0378289 0
M  V30 4518 H 417.51 5.65284 -1.60397 0
M  V30 4519 H 419.034 6.05799 -0.764167 0
M  V30 4520 H 420.448 5.01327 -2.78109 0
M  V30 4521 H 418.845 4.83664 -3.55231 0
M  V30 4522 H 419.915 3.42848 -3.42904 0
M  V30 4523 N 421.258 1.00505 1.21394 0
M  V30 4524 C 422.206 0.558623 2.25792 0
M  V30 4525 C 423.2 -0.396848 1.64686 0
M  V30 4526 O 424.406 -0.268035 1.77993 0
M  V30 4527 H 420.781 0.1623 0.734277 0
M  V30 4528 H 422.752 1.4503 2.60785 0
M  V30 4529 C 421.501 -0.0989574 3.47559 0
M  V30 4530 H 420.824 0.627225 3.94849 0
M  V30 4531 H 422.264 -0.3746 4.22342 0
M  V30 4532 C 420.723 -1.33817 3.09184 0
M  V30 4533 O 421.253 -2.43252 3.19674 0
M  V30 4534 N 419.459 -1.21793 2.63846 0
M  V30 4535 H 419.006 -0.32746 2.5551 0
M  V30 4536 H 418.964 -2.04809 2.38539 0
M  V30 4537 N 422.737 -1.36956 0.779787 0
M  V30 4538 C 423.684 -2.30175 0.169697 0
M  V30 4539 C 424.654 -1.51501 -0.68094 0
M  V30 4540 O 425.839 -1.80042 -0.631629 0
M  V30 4541 C 422.979 -3.37985 -0.697131 0
M  V30 4542 C 422.092 -4.31661 0.170992 0
M  V30 4543 C 421.227 -5.2655 -0.701298 0
M  V30 4544 C 420.266 -6.11867 0.168869 0
M  V30 4545 N 419.403 -6.98973 -0.661855 0
M  V30 4546 H 424.243 -2.81767 0.970135 0
M  V30 4547 H 421.78 -1.38699 0.489994 0
M  V30 4548 H 423.738 -3.99128 -1.2146 0
M  V30 4549 H 422.368 -2.87739 -1.46309 0
M  V30 4550 H 421.42 -3.71756 0.80634 0
M  V30 4551 H 422.732 -4.91644 0.841875 0
M  V30 4552 H 421.886 -5.92937 -1.28494 0
M  V30 4553 H 420.625 -4.66998 -1.40584 0
M  V30 4554 H 419.63 -5.44452 0.764986 0
M  V30 4555 H 420.855 -6.73493 0.870863 0
M  V30 4556 H 418.801 -6.41941 -1.35086 0
M  V30 4557 H 418.718 -7.55984 -0.0484447 0
M  V30 4558 H 419.986 -7.6974 -1.22963 0
M  V30 4559 N 424.215 -0.530993 -1.48385 0
M  V30 4560 C 425.163 0.244595 -2.3131 0
M  V30 4561 C 426.157 0.93451 -1.41291 0
M  V30 4562 O 427.363 0.85878 -1.58193 0
M  V30 4563 H 423.738 0.0977472 -0.74562 0
M  V30 4564 H 425.709 -0.474369 -2.94605 0
M  V30 4565 C 424.458 1.2779 -3.23365 0
M  V30 4566 H 423.781 0.756439 -3.92579 0
M  V30 4567 H 425.221 1.79198 -3.84271 0
M  V30 4568 C 423.68 2.31205 -2.45042 0
M  V30 4569 O 424.21 3.37661 -2.17596 0
M  V30 4570 N 422.416 2.04446 -2.0652 0
M  V30 4571 H 421.963 1.17891 -2.2904 0
M  V30 4572 H 421.921 2.73861 -1.54427 0
M  V30 4573 N 425.693 1.55336 -0.266172 0
M  V30 4574 C 426.942 1.98574 0.353749 0
M  V30 4575 C 427.255 1.15789 1.57646 0
M  V30 4576 O 428.461 1.49129 2.26876 0
M  V30 4577 C 426.917 3.53403 0.680747 0
M  V30 4578 C 426.525 4.44953 -0.52165 0
M  V30 4579 C 428.269 4.05251 1.26379 0
M  V30 4580 C 426.176 5.91156 -0.169736 0
M  V30 4581 H 425.106 0.741643 0.135949 0
M  V30 4582 H 427.757 1.79743 -0.369421 0
M  V30 4583 H 426.139 3.68001 1.46257 0
M  V30 4584 H 427.313 4.42121 -1.29869 0
M  V30 4585 H 425.628 4.03691 -1.02093 0
M  V30 4586 H 428.225 5.12021 1.54074 0
M  V30 4587 H 428.568 3.53749 2.19471 0
M  V30 4588 H 429.101 3.94057 0.544447 0
M  V30 4589 H 425.84 6.46736 -1.0683 0
M  V30 4590 H 425.36 5.97079 0.570717 0
M  V30 4591 H 427.039 6.4655 0.241245 0
M  V30 4592 N 427.171 -0.0066808 1.57599 0
M  V30 4593 C 428.121 -1.0086 2.04478 0
M  V30 4594 C 429.105 -1.30714 0.938231 0
M  V30 4595 O 430.297 -1.29924 1.20203 0
M  V30 4596 C 427.426 -2.30273 2.54615 0
M  V30 4597 C 426.512 -2.03413 3.72134 0
M  V30 4598 N 426.903 -1.46688 4.84062 0
M  V30 4599 C 425.201 -2.33589 3.79937 0
M  V30 4600 C 425.902 -1.36146 5.65543 0
M  V30 4601 N 424.878 -1.84477 5.1134 0
M  V30 4602 H 428.68 -0.564402 2.8843 0
M  V30 4603 H 426.194 -0.212521 1.61003 0
M  V30 4604 H 428.191 -3.02885 2.86472 0
M  V30 4605 H 426.851 -2.75352 1.72079 0
M  V30 4606 H 427.862 -1.14658 5.05049 0
M  V30 4607 H 424.539 -2.81589 3.08243 0
M  V30 4608 H 425.929 -0.925873 6.6549 0
M  V30 4609 N 428.649 -1.55105 -0.279332 0
M  V30 4610 C 429.559 -1.90638 -1.36727 0
M  V30 4611 C 430.575 -0.802899 -1.54368 0
M  V30 4612 O 431.751 -1.10138 -1.68616 0
M  V30 4613 C 428.816 -2.16547 -2.70755 0
M  V30 4614 C 427.877 -3.40146 -2.61915 0
M  V30 4615 C 427.11 -3.6481 -3.8955 0
M  V30 4616 O 427.333 -2.92095 -4.89935 0
M  V30 4617 O 426.267 -4.58343 -3.90135 0
M  V30 4618 H 430.093 -2.83237 -1.09591 0
M  V30 4619 H 427.678 -1.4157 -0.477306 0
M  V30 4620 H 429.56 -2.34665 -3.50014 0
M  V30 4621 H 428.235 -1.27131 -2.9769 0
M  V30 4622 H 427.142 -3.2737 -1.81052 0
M  V30 4623 H 428.475 -4.29761 -2.3993 0
M  V30 4624 N 430.127 0.543554 -1.4793 0
M  V30 4625 C 431.352 1.32995 -1.59145 0
M  V30 4626 C 431.777 1.86472 -0.246956 0
M  V30 4627 O 431.135 1.63696 0.779324 0
M  V30 4628 C 431.183 2.46623 -2.63077 0
M  V30 4629 O 430.287 3.49261 -2.19295 0
M  V30 4630 H 429.628 0.394472 -0.534124 0
M  V30 4631 H 432.158 0.655489 -1.93816 0
M  V30 4632 H 432.168 2.93001 -2.83926 0
M  V30 4633 H 430.843 2.07059 -3.60693 0
M  V30 4634 H 429.42 3.09094 -2.08603 0
M  V30 4635 N 431.605 1.3629 0.791371 0
M  V30 4636 C 432.851 1.30605 1.55146 0
M  V30 4637 C 433.184 -0.115042 1.93859 0
M  V30 4638 O 432.459 -1.06798 1.62556 0
M  V30 4639 C 432.742 2.22692 2.82985 0
M  V30 4640 C 432.595 3.73489 2.50651 0
M  V30 4641 C 433.914 2.13588 3.84796 0
M  V30 4642 H 431.033 0.475761 0.562868 0
M  V30 4643 H 433.675 1.66825 0.909358 0
M  V30 4644 H 431.825 1.91933 3.37778 0
M  V30 4645 H 433.497 4.14758 2.01924 0
M  V30 4646 H 431.74 3.93021 1.83622 0
M  V30 4647 H 432.411 4.3333 3.41949 0
M  V30 4648 H 434.887 2.40659 3.39445 0
M  V30 4649 H 433.763 2.80195 4.71998 0
M  V30 4650 H 434.024 1.12256 4.27611 0
M  V30 4651 N 433.083 -1.0153 1.20538 0
M  V30 4652 C 434.308 -1.79283 1.04271 0
M  V30 4653 C 434.733 -1.8372 -0.403544 0
M  V30 4654 O 434.091 -1.27321 -1.2907 0
M  V30 4655 C 434.139 -3.21535 1.63241 0
M  V30 4656 O 433.243 -4.03099 0.870908 0
M  V30 4657 H 432.584 -0.55293 0.367647 0
M  V30 4658 H 435.114 -1.27696 1.59859 0
M  V30 4659 H 435.124 -3.72243 1.6703 0
M  V30 4660 H 433.799 -3.1762 2.68497 0
M  V30 4661 H 432.376 -3.61693 0.907323 0
M  V30 4662 N 434.561 -1.01147 -1.20859 0
M  V30 4663 C 435.524 -0.582224 -2.21682 0
M  V30 4664 C 436.524 0.344887 -1.57058 0
M  V30 4665 O 437.714 0.134281 -1.73682 0
M  V30 4666 C 434.846 0.150496 -3.40568 0
M  V30 4667 H 436.039 -1.47408 -2.61172 0
M  V30 4668 H 433.592 -0.800695 -1.34233 0
M  V30 4669 H 434.327 1.0575 -3.06574 0
M  V30 4670 H 434.112 -0.515444 -3.88697 0
M  V30 4671 H 435.602 0.438344 -4.15293 0
M  V30 4672 N 436.039 1.36541 -0.78704 0
M  V30 4673 C 436.971 2.28761 -0.141773 0
M  V30 4674 C 437.984 1.49365 0.647599 0
M  V30 4675 O 439.173 1.71836 0.483173 0
M  V30 4676 C 436.273 3.28771 0.822368 0
M  V30 4677 C 435.446 4.3732 0.0835594 0
M  V30 4678 C 434.505 5.17307 0.963296 0
M  V30 4679 O 433.531 5.67638 0.421419 0
M  V30 4680 N 434.733 5.33515 2.28784 0
M  V30 4681 H 437.498 2.84777 -0.933919 0
M  V30 4682 H 435.059 1.48682 -0.640735 0
M  V30 4683 H 437.051 3.79169 1.41468 0
M  V30 4684 H 435.621 2.73412 1.5154 0
M  V30 4685 H 434.841 3.88118 -0.689809 0
M  V30 4686 H 436.129 5.0701 -0.426358 0
M  V30 4687 H 435.527 4.94234 2.75226 0
M  V30 4688 H 434.084 5.87165 2.82985 0
M  V30 4689 N 437.518 0.538854 1.48102 0
M  V30 4690 C 438.767 0.0059532 2.01699 0
M  V30 4691 C 439.08 -1.34476 1.42041 0
M  V30 4692 O 440.286 -1.96653 1.87189 0
M  V30 4693 C 438.742 -0.0397627 3.59878 0
M  V30 4694 C 438.35 1.30659 4.28523 0
M  V30 4695 C 440.094 -0.521024 4.2129 0
M  V30 4696 C 438.001 1.22098 5.78659 0
M  V30 4697 H 436.931 -0.00154456 0.753998 0
M  V30 4698 H 439.582 0.683963 1.70277 0
M  V30 4699 H 437.964 -0.783037 3.88181 0
M  V30 4700 H 439.138 2.06613 4.11883 0
M  V30 4701 H 437.453 1.7243 3.79021 0
M  V30 4702 H 440.05 -0.603184 5.31287 0
M  V30 4703 H 440.393 -1.52885 3.8721 0
M  V30 4704 H 440.926 0.166834 3.9745 0
M  V30 4705 H 437.665 2.20424 6.17328 0
M  V30 4706 H 437.185 0.50295 5.97688 0
M  V30 4707 H 438.864 0.915345 6.40492 0
M  V30 4708 N 438.996 -1.55193 0.274407 0
M  V30 4709 C 440.412 -1.59401 -0.0797543 0
M  V30 4710 C 440.612 -1.29162 -1.54659 0
M  V30 4711 O 439.668 -1.05215 -2.29534 0
M  V30 4712 C 440.981 -2.99257 0.294238 0
M  V30 4713 C 442.529 -3.12072 0.240796 0
M  V30 4714 C 443.004 -4.54194 0.589218 0
M  V30 4715 N 444.495 -4.60033 0.540744 0
M  V30 4716 C 445.23 -5.68027 0.783147 0
M  V30 4717 N 444.726 -6.8417 1.09013 0
M  V30 4718 N 446.519 -5.57572 0.711993 0
M  V30 4719 H 438.67 -1.73113 1.23067 0
M  V30 4720 H 440.933 -0.807197 0.497129 0
M  V30 4721 H 440.639 -3.26217 1.31435 0
M  V30 4722 H 440.513 -3.75427 -0.365281 0
M  V30 4723 H 442.9 -2.84877 -0.770024 0
M  V30 4724 H 442.981 -2.38117 0.934563 0
M  V30 4725 H 442.625 -4.82115 1.59772 0
M  V30 4726 H 442.555 -5.26448 -0.126331 0
M  V30 4727 H 445.046 -3.76599 0.313327 0
M  V30 4728 H 445.359 -7.6243 1.26178 0
M  V30 4729 H 443.704 -6.85787 1.12789 0
M  V30 4730 H 446.895 -4.65714 0.472014 0
M  V30 4731 H 447.068 -6.41659 0.90429 0
M  V30 4732 N 440.474 -0.00167713 -1.576 0
M  V30 4733 C 441.421 0.989195 -2.08527 0
M  V30 4734 C 442.391 1.34031 -0.981065 0
M  V30 4735 O 443.576 1.43839 -1.2536 0
M  V30 4736 C 440.716 2.27537 -2.59463 0
M  V30 4737 C 439.829 1.98314 -3.83791 0
M  V30 4738 C 438.964 3.21025 -4.23222 0
M  V30 4739 C 438.003 2.87495 -5.40382 0
M  V30 4740 N 437.14 4.02749 -5.75098 0
M  V30 4741 H 441.98 0.547973 -2.92919 0
M  V30 4742 H 439.517 0.258917 -1.44803 0
M  V30 4743 H 441.475 3.02729 -2.87073 0
M  V30 4744 H 440.105 2.69325 -1.77943 0
M  V30 4745 H 439.157 1.13482 -3.63078 0
M  V30 4746 H 440.469 1.69601 -4.69081 0
M  V30 4747 H 439.623 4.04561 -4.52123 0
M  V30 4748 H 438.362 3.52877 -3.36644 0
M  V30 4749 H 437.367 2.02367 -5.11202 0
M  V30 4750 H 438.592 2.56889 -6.28637 0
M  V30 4751 H 436.538 4.34494 -4.91478 0
M  V30 4752 H 436.455 3.77566 -6.54966 0
M  V30 4753 H 437.723 4.87068 -6.08592 0
M  V30 4754 N 441.952 1.55251 0.271103 0
M  V30 4755 C 442.9 1.89054 1.35504 0
M  V30 4756 C 443.894 0.767064 1.51038 0
M  V30 4757 O 445.1 0.951429 1.528 0
M  V30 4758 H 441.475 0.600072 0.45323 0
M  V30 4759 H 443.446 2.79598 1.04247 0
M  V30 4760 C 442.195 2.18068 2.70817 0
M  V30 4761 H 441.518 3.04005 2.59656 0
M  V30 4762 H 442.958 2.4564 3.45597 0
M  V30 4763 C 441.417 0.988901 3.2206 0
M  V30 4764 O 441.947 0.224501 4.01072 0
M  V30 4765 N 440.153 0.786085 2.79766 0
M  V30 4766 H 439.7 1.40937 2.15626 0
M  V30 4767 H 439.658 -0.00969349 3.14399 0
M  V30 4768 N 443.43 -0.535701 1.48216 0
M  V30 4769 C 444.677 -1.29183 1.55942 0
M  V30 4770 C 445.005 -1.93125 0.230857 0
M  V30 4771 O 444.26 -1.79556 -0.778331 0
M  V30 4772 C 444.559 -2.4068 2.64212 0
M  V30 4773 C 444.225 -1.94428 4.06827 0
M  V30 4774 C 442.887 -1.81532 4.45645 0
M  V30 4775 C 445.239 -1.59405 4.96225 0
M  V30 4776 C 442.567 -1.31939 5.71672 0
M  V30 4777 C 444.919 -1.11276 6.22736 0
M  V30 4778 C 443.583 -0.969924 6.60416 0
M  V30 4779 H 442.853 -0.472715 0.570632 0
M  V30 4780 H 445.5 -0.598437 1.81909 0
M  V30 4781 H 443.805 -3.15666 2.32083 0
M  V30 4782 H 445.502 -2.98822 2.67407 0
M  V30 4783 H 442.092 -2.05415 3.76168 0
M  V30 4784 H 446.276 -1.68231 4.66917 0
M  V30 4785 H 441.532 -1.19562 5.99596 0
M  V30 4786 H 445.706 -0.832453 6.91407 0
M  V30 4787 H 443.333 -0.583436 7.57958 0
M  V30 4788 N 444.908 -1.36708 -0.784132 0
M  V30 4789 C 445.871 -1.31307 -1.87859 0
M  V30 4790 C 446.871 -0.219654 -1.59293 0
M  V30 4791 O 448.061 -0.47476 -1.67606 0
M  V30 4792 C 445.193 -1.03679 -3.24751 0
M  V30 4793 H 446.386 -2.28647 -1.94064 0
M  V30 4794 H 443.939 -1.21558 -0.98252 0
M  V30 4795 H 444.674 -0.0681936 -3.24228 0
M  V30 4796 H 444.459 -1.82811 -3.46876 0
M  V30 4797 H 445.949 -1.02518 -4.04821 0
M  V30 4798 N 446.386 1.0089 -1.21074 0
M  V30 4799 C 447.333 2.09588 -0.966512 0
M  V30 4800 C 448.303 1.65761 0.106089 0
M  V30 4801 O 449.488 1.90758 -0.0402287 0
M  V30 4802 C 446.628 3.40958 -0.533058 0
M  V30 4803 C 445.741 3.9822 -1.67467 0
M  V30 4804 C 444.876 5.17682 -1.19076 0
M  V30 4805 C 443.915 5.67043 -2.30496 0
M  V30 4806 N 443.052 6.77759 -1.83267 0
M  V30 4807 H 447.892 2.29815 -1.89708 0
M  V30 4808 H 445.429 1.12689 -0.945489 0
M  V30 4809 H 447.387 4.1637 -0.263019 0
M  V30 4810 H 446.017 3.20781 0.360505 0
M  V30 4811 H 445.069 3.1983 -2.05944 0
M  V30 4812 H 446.381 4.3085 -2.51336 0
M  V30 4813 H 445.535 6.00326 -0.877151 0
M  V30 4814 H 444.274 4.86635 -0.322066 0
M  V30 4815 H 443.279 4.82999 -2.62664 0
M  V30 4816 H 444.504 6.00121 -3.17855 0
M  V30 4817 H 442.45 6.48527 -0.987356 0
M  V30 4818 H 442.367 7.09624 -2.60711 0
M  V30 4819 H 443.635 7.63949 -1.54928 0
M  V30 4820 N 447.864 1.01787 1.20321 0
M  V30 4821 C 449.089 0.727009 1.9424 0
M  V30 4822 C 449.514 -0.706179 1.74341 0
M  V30 4823 O 448.872 -1.48609 1.03852 0
M  V30 4824 C 448.92 1.06958 3.44372 0
M  V30 4825 O 448.024 0.181983 4.11998 0
M  V30 4826 H 447.365 0.269626 0.606793 0
M  V30 4827 H 449.895 1.36158 1.52716 0
M  V30 4828 H 449.905 1.02182 3.94997 0
M  V30 4829 H 448.58 2.11378 3.58179 0
M  V30 4830 H 447.157 0.287378 3.71791 0
M  V30 4831 N 449.342 -1.36122 0.79427 0
M  V30 4832 C 450.289 -2.29982 0.194101 0
M  V30 4833 C 451.259 -1.52214 -0.664833 0
M  V30 4834 O 452.444 -1.80702 -0.612498 0
M  V30 4835 C 449.584 -3.38706 -0.661244 0
M  V30 4836 C 448.697 -4.31456 0.216766 0
M  V30 4837 C 447.832 -5.27265 -0.645411 0
M  V30 4838 C 446.871 -6.11653 0.233756 0
M  V30 4839 N 446.008 -6.99636 -0.587682 0
M  V30 4840 H 450.848 -2.80722 0.999965 0
M  V30 4841 H 448.385 -1.38172 0.504677 0
M  V30 4842 H 450.343 -4.00394 -1.17219 0
M  V30 4843 H 448.973 -2.89274 -1.43249 0
M  V30 4844 H 448.025 -3.7088 0.845724 0
M  V30 4845 H 449.337 -4.90724 0.893973 0
M  V30 4846 H 448.491 -5.94266 -1.22198 0
M  V30 4847 H 447.23 -4.68463 -1.35623 0
M  V30 4848 H 446.235 -5.4361 0.82269 0
M  V30 4849 H 447.46 -6.72531 0.942247 0
M  V30 4850 H 445.406 -6.43337 -1.2827 0
M  V30 4851 H 445.323 -7.55993 0.0317402 0
M  V30 4852 H 446.591 -7.71001 -1.14792 0
M  V30 4853 N 450.82 -0.546701 -1.47814 0
M  V30 4854 C 452.066 -0.0269594 -2.03382 0
M  V30 4855 C 452.421 1.30406 -1.41464 0
M  V30 4856 O 451.714 1.8332 -0.557151 0
M  V30 4857 C 451.908 0.134869 -3.57145 0
M  V30 4858 C 451.737 -1.17891 -4.33972 0
M  V30 4859 C 450.507 -1.74336 -4.74273 0
M  V30 4860 C 452.705 -2.09361 -4.69758 0
M  V30 4861 N 450.687 -2.99829 -5.35701 0
M  V30 4862 C 452.058 -3.19431 -5.31379 0
M  V30 4863 C 454.113 -2.09484 -4.51687 0
M  V30 4864 C 452.816 -4.2971 -5.76838 0
M  V30 4865 C 454.842 -3.18767 -4.98138 0
M  V30 4866 C 454.204 -4.27557 -5.59799 0
M  V30 4867 H 450.303 -0.0517733 -0.780284 0
M  V30 4868 H 452.887 -0.731673 -1.80429 0
M  V30 4869 H 451.058 0.80869 -3.79888 0
M  V30 4870 H 452.79 0.655726 -3.99352 0
M  V30 4871 H 449.545 -1.28265 -4.559 0
M  V30 4872 H 449.969 -3.63765 -5.70968 0
M  V30 4873 H 454.611 -1.26663 -4.03381 0
M  V30 4874 H 452.329 -5.13297 -6.24141 0
M  V30 4875 H 455.915 -3.19937 -4.85934 0
M  V30 4876 H 454.795 -5.10725 -5.95088 0
M  V30 4877 N 452.299 1.55045 -0.282633 0
M  V30 4878 C 453.715 1.59441 0.0712997 0
M  V30 4879 C 453.915 1.2998 1.53972 0
M  V30 4880 O 452.971 1.06431 2.28973 0
M  V30 4881 C 454.284 2.99097 -0.310104 0
M  V30 4882 C 455.832 3.1194 -0.257343 0
M  V30 4883 C 456.307 4.53875 -0.613297 0
M  V30 4884 N 457.798 4.5974 -0.565134 0
M  V30 4885 C 458.533 5.67603 -0.81326 0
M  V30 4886 N 458.029 6.83582 -1.1264 0
M  V30 4887 N 459.822 5.57187 -0.741553 0
M  V30 4888 H 451.973 1.72458 -1.23984 0
M  V30 4889 H 454.236 0.804549 -0.501403 0
M  V30 4890 H 453.942 3.25516 -1.33163 0
M  V30 4891 H 453.816 3.75616 0.345366 0
M  V30 4892 H 456.203 2.85281 0.754905 0
M  V30 4893 H 456.284 2.37618 -0.947178 0
M  V30 4894 H 455.928 4.81261 -1.62327 0
M  V30 4895 H 455.858 5.26508 0.09841 0
M  V30 4896 H 458.349 3.76427 -0.333294 0
M  V30 4897 H 458.662 7.6175 -1.30219 0
M  V30 4898 H 457.007 6.85179 -1.16425 0
M  V30 4899 H 460.198 4.65457 -0.496705 0
M  V30 4900 H 460.371 6.41171 -0.938306 0
M  V30 4901 N 453.777 0.010035 1.57597 0
M  V30 4902 C 454.709 -1.00649 2.05918 0
M  V30 4903 C 455.722 -1.30077 0.978964 0
M  V30 4904 O 456.911 -1.26878 1.25556 0
M  V30 4905 C 454.011 -2.33876 2.45265 0
M  V30 4906 C 453.184 -2.23242 3.7614 0
M  V30 4907 C 452.243 -3.39242 4.02245 0
M  V30 4908 O 451.269 -3.1698 4.72771 0
M  V30 4909 N 452.471 -4.6242 3.50924 0
M  V30 4910 H 455.236 -0.594333 2.93748 0
M  V30 4911 H 452.797 -0.17714 1.60928 0
M  V30 4912 H 454.789 -3.1027 2.59836 0
M  V30 4913 H 453.359 -2.66799 1.62902 0
M  V30 4914 H 452.579 -1.31696 3.71551 0
M  V30 4915 H 453.867 -2.13321 4.61922 0
M  V30 4916 H 453.265 -4.83404 2.93832 0
M  V30 4917 H 451.822 -5.36046 3.70807 0
M  V30 4918 N 455.255 -1.55392 -0.262866 0
M  V30 4919 C 456.218 -1.88181 -1.30846 0
M  V30 4920 C 457.218 -0.757079 -1.41862 0
M  V30 4921 O 458.408 -1.02519 -1.40838 0
M  V30 4922 C 455.54 -2.09609 -2.68844 0
M  V30 4923 H 456.733 -2.81659 -1.02997 0
M  V30 4924 H 454.286 -1.48039 -0.501414 0
M  V30 4925 H 455.021 -1.18547 -3.01856 0
M  V30 4926 H 454.806 -2.91508 -2.62231 0
M  V30 4927 H 456.296 -2.36215 -3.44372 0
M  V30 4928 N 456.733 0.527833 -1.48498 0
M  V30 4929 C 457.98 1.28354 -1.56625 0
M  V30 4930 C 458.308 1.93 -0.241096 0
M  V30 4931 O 457.563 1.79967 0.768798 0
M  V30 4932 C 457.862 2.39275 -2.65485 0
M  V30 4933 C 457.528 1.92268 -4.07853 0
M  V30 4934 C 456.19 1.79166 -4.46602 0
M  V30 4935 C 458.542 1.56771 -4.97064 0
M  V30 4936 C 455.87 1.28905 -5.72364 0
M  V30 4937 C 458.222 1.07972 -6.23318 0
M  V30 4938 C 456.886 0.934887 -6.60921 0
M  V30 4939 H 456.156 0.469682 -0.573131 0
M  V30 4940 H 458.803 0.588781 -1.82224 0
M  V30 4941 H 457.108 3.1443 -2.33754 0
M  V30 4942 H 458.805 2.974 -2.68988 0
M  V30 4943 H 455.395 2.03417 -3.77252 0
M  V30 4944 H 459.579 1.65753 -4.67803 0
M  V30 4945 H 454.835 1.16381 -6.00221 0
M  V30 4946 H 459.009 0.795775 -6.91838 0
M  V30 4947 H 456.636 0.543231 -7.58257 0
M  V30 4948 N 458.211 1.37122 0.776871 0
M  V30 4949 C 459.159 1.32549 1.91138 0
M  V30 4950 C 460.153 0.215119 1.68029 0
M  V30 4951 O 461.359 0.382852 1.75881 0
M  V30 4952 H 457.734 0.412952 0.62847 0
M  V30 4953 H 459.705 2.28332 1.92112 0
M  V30 4954 C 458.454 1.14422 3.28333 0
M  V30 4955 H 457.777 1.99115 3.46689 0
M  V30 4956 H 459.217 1.15272 4.0803 0
M  V30 4957 C 457.676 -0.150434 3.36564 0
M  V30 4958 O 458.206 -1.13584 3.85307 0
M  V30 4959 N 456.412 -0.19939 2.89915 0
M  V30 4960 H 455.959 0.603142 2.5044 0
M  V30 4961 H 455.917 -1.06526 2.95803 0
M  V30 4962 N 459.689 -1.00246 1.21608 0
M  V30 4963 C 460.652 -2.07233 0.979133 0
M  V30 4964 C 461.652 -1.6072 -0.0508219 0
M  V30 4965 O 462.842 -1.73196 0.186712 0
M  V30 4966 C 459.974 -3.37546 0.477016 0
M  V30 4967 H 461.167 -2.29687 1.92831 0
M  V30 4968 H 458.72 -1.17261 1.03342 0
M  V30 4969 H 459.455 -3.20773 -0.476966 0
M  V30 4970 H 459.24 -3.72638 1.21997 0
M  V30 4971 H 460.73 -4.16285 0.331181 0
M  V30 4972 N 461.167 -1.02423 -1.1978 0
M  V30 4973 C 462.395 -0.737456 -1.93311 0
M  V30 4974 C 462.81 0.703023 -1.75223 0
M  V30 4975 O 462.167 1.47761 -1.07112 0
M  V30 4976 C 462.218 -1.0733 -3.45199 0
M  V30 4977 O 461.939 -2.4572 -3.62702 0
M  V30 4978 C 463.44 -0.80866 -4.35862 0
M  V30 4979 H 460.66 -0.2702 -0.614193 0
M  V30 4980 H 463.204 -1.36747 -1.52054 0
M  V30 4981 H 461.359 -0.488545 -3.84307 0
M  V30 4982 H 461.773 -2.58081 -4.56612 0
M  V30 4983 H 463.247 -1.09365 -5.41057 0
M  V30 4984 H 463.724 0.257025 -4.38447 0
M  V30 4985 H 464.33 -1.37592 -4.02428 0
M  V30 4986 N 462.645 1.35699 -0.801477 0
M  V30 4987 C 463.608 2.28199 -0.213994 0
M  V30 4988 C 464.608 1.49359 0.595691 0
M  V30 4989 O 465.798 1.69186 0.414921 0
M  V30 4990 C 462.93 3.33587 0.702297 0
M  V30 4991 H 464.123 2.81666 -1.02976 0
M  V30 4992 H 461.676 1.45467 -0.571759 0
M  V30 4993 H 462.411 2.85297 1.54195 0
M  V30 4994 H 462.196 3.91906 0.123484 0
M  V30 4995 H 463.686 4.02638 1.10783 0
M  V30 4996 N 464.123 0.554532 1.47522 0
M  V30 4997 C 465.369 0.0295227 2.02779 0
M  V30 4998 C 465.702 -1.31582 1.42828 0
M  V30 4999 O 464.977 -1.85561 0.582872 0
M  V30 5000 C 465.26 -0.0664057 3.60039 0
M  V30 5001 C 465.113 1.30585 4.30427 0
M  V30 5002 C 466.432 -0.781162 4.33112 0
M  V30 5003 H 463.551 0.0122027 0.736899 0
M  V30 5004 H 466.193 0.716305 1.7598 0
M  V30 5005 H 464.343 -0.651307 3.83002 0
M  V30 5006 H 466.015 1.93374 4.18813 0
M  V30 5007 H 464.258 1.88125 3.90886 0
M  V30 5008 H 464.929 1.19147 5.38988 0
M  V30 5009 H 467.405 -0.284565 4.15126 0
M  V30 5010 H 466.281 -0.817237 5.42782 0
M  V30 5011 H 466.542 -1.83672 4.0214 0
M  V30 5012 N 465.601 -1.54893 0.290851 0
M  V30 5013 C 466.847 -2.0023 -0.321867 0
M  V30 5014 C 467.18 -1.179 -1.54316 0
M  V30 5015 O 466.455 -0.25293 -1.92848 0
M  V30 5016 C 466.738 -3.53456 -0.688515 0
M  V30 5017 C 466.591 -4.46532 0.541209 0
M  V30 5018 C 467.91 -4.13057 -1.51895 0
M  V30 5019 H 465.029 -0.727891 -0.115515 0
M  V30 5020 H 467.671 -1.85722 0.400931 0
M  V30 5021 H 465.821 -3.6595 -1.30433 0
M  V30 5022 H 467.493 -4.4596 1.17973 0
M  V30 5023 H 465.736 -4.17545 1.17636 0
M  V30 5024 H 466.407 -5.51475 0.240675 0
M  V30 5025 H 468.883 -4.03937 -0.99872 0
M  V30 5026 H 467.759 -5.20448 -1.74429 0
M  V30 5027 H 468.02 -3.64284 -2.50498 0
M  V30 5028 N 467.08 -0.0183926 -1.57589 0
M  V30 5029 C 468.496 0.337897 -1.55982 0
M  V30 5030 C 468.696 1.73604 -1.02294 0
M  V30 5031 O 467.752 2.43589 -0.664895 0
M  V30 5032 C 469.065 0.196305 -3.00059 0
M  V30 5033 C 470.613 0.269875 -3.11834 0
M  V30 5034 C 471.088 0.157197 -4.5773 0
M  V30 5035 N 472.579 0.214521 -4.62703 0
M  V30 5036 C 473.314 0.150955 -5.73201 0
M  V30 5037 N 472.81 0.0369212 -6.9279 0
M  V30 5038 N 474.603 0.204162 -5.61729 0
M  V30 5039 H 466.754 -0.93279 -1.90821 0
M  V30 5040 H 469.017 -0.359253 -0.877292 0
M  V30 5041 H 468.723 -0.766383 -3.43248 0
M  V30 5042 H 468.597 0.970908 -3.6449 0
M  V30 5043 H 470.984 1.22302 -2.68563 0
M  V30 5044 H 471.065 -0.534918 -2.50144 0
M  V30 5045 H 470.709 -0.792479 -5.01679 0
M  V30 5046 H 470.639 0.980717 -5.17387 0
M  V30 5047 H 473.13 0.303238 -3.76681 0
M  V30 5048 H 473.443 -0.00518321 -7.728 0
M  V30 5049 H 471.788 0.0022886 -6.95 0
M  V30 5050 H 474.979 0.291575 -4.67191 0
M  V30 5051 H 475.152 0.15116 -6.47824 0
M  V30 5052 N 468.558 1.5553 0.254621 0
M  V30 5053 C 469.508 1.86057 1.31783 0
M  V30 5054 C 470.492 0.720827 1.4385 0
M  V30 5055 O 471.684 0.982586 1.47222 0
M  V30 5056 C 468.813 2.15203 2.67475 0
M  V30 5057 C 467.899 3.35484 2.59444 0
M  V30 5058 N 468.29 4.54945 2.2104 0
M  V30 5059 C 466.588 3.38441 2.90472 0
M  V30 5060 C 467.289 5.3707 2.23453 0
M  V30 5061 N 466.265 4.75936 2.62652 0
M  V30 5062 H 470.067 2.75953 1.01129 0
M  V30 5063 H 467.581 1.55653 0.463255 0
M  V30 5064 H 469.578 2.35235 3.44195 0
M  V30 5065 H 468.238 1.26601 2.99002 0
M  V30 5066 H 469.249 4.8071 1.92712 0
M  V30 5067 H 465.926 2.60087 3.2659 0
M  V30 5068 H 467.316 6.42626 1.96166 0
M  V30 5069 N 470.036 -0.519951 1.48776 0
M  V30 5070 C 470.969 -1.64053 1.58625 0
M  V30 5071 C 471.947 -1.5664 0.43618 0
M  V30 5072 O 473.131 -1.76969 0.649159 0
M  V30 5073 C 470.258 -3.02497 1.52359 0
M  V30 5074 C 469.304 -3.28235 2.72331 0
M  V30 5075 S 470.137 -3.13414 4.34203 0
M  V30 5076 C 471.293 -4.54287 4.30551 0
M  V30 5077 H 471.526 -1.5545 2.53422 0
M  V30 5078 H 469.059 -0.703681 1.37433 0
M  V30 5079 H 471.017 -3.82336 1.4943 0
M  V30 5080 H 469.678 -3.08531 0.588824 0
M  V30 5081 H 468.871 -4.29256 2.64113 0
M  V30 5082 H 468.473 -2.56085 2.72574 0
M  V30 5083 H 470.765 -5.46006 4.01103 0
M  V30 5084 H 471.708 -4.67558 5.31785 0
M  V30 5085 H 472.116 -4.34079 3.60881 0
M  V30 5086 N 471.514 -1.37532 -0.769588 0
M  V30 5087 C 472.93 -1.18379 -1.07045 0
M  V30 5088 C 473.13 -0.0214312 -2.01489 0
M  V30 5089 O 472.186 0.637809 -2.44312 0
M  V30 5090 C 473.499 -2.50338 -1.66588 0
M  V30 5091 C 475.047 -2.56879 -1.78835 0
M  V30 5092 C 475.522 -3.88974 -2.41792 0
M  V30 5093 N 477.013 -3.90428 -2.4924 0
M  V30 5094 C 477.748 -4.89388 -2.98809 0
M  V30 5095 N 477.244 -5.98745 -3.48535 0
M  V30 5096 N 479.037 -4.76791 -2.97703 0
M  V30 5097 H 471.188 -2.11921 -0.142541 0
M  V30 5098 H 473.451 -0.939608 -0.125863 0
M  V30 5099 H 473.157 -3.35767 -1.0466 0
M  V30 5100 H 473.031 -2.67583 -2.65856 0
M  V30 5101 H 475.418 -1.71856 -2.39895 0
M  V30 5102 H 475.499 -2.43516 -0.783166 0
M  V30 5103 H 475.143 -4.74412 -1.81371 0
M  V30 5104 H 475.073 -3.99641 -3.4292 0
M  V30 5105 H 477.564 -3.11433 -2.14052 0
M  V30 5106 H 477.877 -6.70205 -3.84767 0
M  V30 5107 H 476.222 -6.02387 -3.46634 0
M  V30 5108 H 479.413 -3.90478 -2.58157 0
M  V30 5109 H 479.586 -5.54069 -3.36024 0
M  V30 5110 N 472.992 0.995999 -1.22138 0
M  V30 5111 C 473.939 2.08551 -0.988687 0
M  V30 5112 C 474.909 1.65864 0.0885021 0
M  V30 5113 O 476.094 1.90704 -0.0604589 0
M  V30 5114 C 473.234 3.40374 -0.569191 0
M  V30 5115 C 472.347 3.96421 -1.71681 0
M  V30 5116 C 471.482 5.1639 -1.2456 0
M  V30 5117 C 470.521 5.64567 -2.36497 0
M  V30 5118 N 469.658 6.75777 -1.90445 0
M  V30 5119 H 474.498 2.2779 -1.92135 0
M  V30 5120 H 472.035 1.1168 -0.957388 0
M  V30 5121 H 473.993 4.16068 -0.307166 0
M  V30 5122 H 472.623 3.21145 0.326462 0
M  V30 5123 H 471.675 3.17628 -2.09324 0
M  V30 5124 H 472.987 4.2816 -2.55891 0
M  V30 5125 H 472.141 5.99362 -0.940774 0
M  V30 5126 H 470.88 4.86266 -0.373662 0
M  V30 5127 H 469.885 4.80185 -2.67772 0
M  V30 5128 H 471.11 5.96716 -3.24202 0
M  V30 5129 H 469.056 6.47443 -1.05609 0
M  V30 5130 H 468.973 7.06818 -2.68223 0
M  V30 5131 H 470.241 7.62262 -1.63022 0
M  V30 5132 N 474.47 1.03057 1.19235 0
M  V30 5133 C 475.4 0.633497 2.24742 0
M  V30 5134 C 476.381 -0.358335 1.66283 0
M  V30 5135 O 477.566 -0.240676 1.92703 0
M  V30 5136 C 474.696 -0.0147648 3.47297 0
M  V30 5137 C 473.65 0.899527 4.18441 0
M  V30 5138 C 472.976 0.116281 5.34574 0
M  V30 5139 C 474.276 2.21404 4.73051 0
M  V30 5140 H 475.97 1.5155 2.58211 0
M  V30 5141 H 473.516 0.73014 1.24117 0
M  V30 5142 H 475.469 -0.304202 4.20301 0
M  V30 5143 H 474.193 -0.931577 3.13032 0
M  V30 5144 H 472.852 1.17319 3.47321 0
M  V30 5145 H 472.5 -0.802619 4.96555 0
M  V30 5146 H 472.2 0.725293 5.83107 0
M  V30 5147 H 473.724 -0.166376 6.10373 0
M  V30 5148 H 475.138 1.98601 5.37802 0
M  V30 5149 H 473.535 2.77512 5.32078 0
M  V30 5150 H 474.605 2.86752 3.91026 0
M  V30 5151 N 475.948 -1.35272 0.808662 0
M  V30 5152 C 476.898 -2.27181 0.193124 0
M  V30 5153 C 477.882 -1.47871 -0.634265 0
M  V30 5154 O 479.074 -1.70048 -0.491182 0
M  V30 5155 C 476.203 -3.36979 -0.655751 0
M  V30 5156 C 475.289 -4.23712 0.181481 0
M  V30 5157 N 475.68 -4.90225 1.24551 0
M  V30 5158 C 473.978 -4.45985 -0.0365493 0
M  V30 5159 C 474.679 -5.54537 1.75682 0
M  V30 5160 N 473.655 -5.33107 1.06294 0
M  V30 5161 H 477.457 -2.76101 1.00724 0
M  V30 5162 H 474.971 -1.48823 0.650029 0
M  V30 5163 H 476.968 -4.01774 -1.11279 0
M  V30 5164 H 475.628 -2.89611 -1.46819 0
M  V30 5165 H 476.639 -4.91641 1.62818 0
M  V30 5166 H 473.316 -4.09409 -0.817964 0
M  V30 5167 H 474.706 -6.17597 2.64621 0
M  V30 5168 N 477.426 -0.562348 -1.47226 0
M  V30 5169 C 478.356 0.170627 -2.32876 0
M  V30 5170 C 479.337 0.903748 -1.44106 0
M  V30 5171 O 480.522 0.883206 -1.72954 0
M  V30 5172 C 477.652 1.19786 -3.25989 0
M  V30 5173 C 476.606 0.580875 -4.2404 0
M  V30 5174 C 475.932 1.71311 -5.06514 0
M  V30 5175 C 477.232 -0.468714 -5.20193 0
M  V30 5176 H 478.926 -0.544441 -2.94408 0
M  V30 5177 H 476.472 -0.263271 -1.41573 0
M  V30 5178 H 478.425 1.71884 -3.84752 0
M  V30 5179 H 477.149 1.94294 -2.62521 0
M  V30 5180 H 475.808 0.0811538 -3.6651 0
M  V30 5181 H 475.456 2.44736 -4.39447 0
M  V30 5182 H 475.156 1.30604 -5.72902 0
M  V30 5183 H 476.68 2.23725 -5.68137 0
M  V30 5184 H 478.094 -0.0336028 -5.7329 0
M  V30 5185 H 476.491 -0.794957 -5.94811 0
M  V30 5186 H 477.561 -1.36269 -4.65359 0
M  V30 5187 N 478.904 1.54736 -0.299062 0
M  V30 5188 C 480.152 1.99706 0.31017 0
M  V30 5189 C 480.473 1.18896 1.54559 0
M  V30 5190 O 479.743 0.284445 1.93824 0
M  V30 5191 H 478.323 0.737686 0.117596 0
M  V30 5192 H 480.985 1.9054 -0.409943 0
M  V30 5193 H 480.081 3.06596 0.58355 0
M  V30 5194 N 480.382 0.0267497 1.57577 0
M  V30 5195 C 481.607 -0.666227 1.96408 0
M  V30 5196 C 482.032 -1.65004 0.903071 0
M  V30 5197 O 481.39 -1.80787 -0.136263 0
M  V30 5198 C 481.438 -1.35101 3.34335 0
M  V30 5199 O 480.542 -2.46623 3.30531 0
M  V30 5200 H 479.883 -0.175206 0.640468 0
M  V30 5201 H 482.413 0.0878977 2.04411 0
M  V30 5202 H 482.423 -1.70834 3.70513 0
M  V30 5203 H 481.098 -0.629844 4.11103 0
M  V30 5204 H 479.675 -2.13019 3.06068 0
M  V30 5205 N 481.861 -1.55662 -0.24637 0
M  V30 5206 C 483.086 -1.81914 -0.996093 0
M  V30 5207 C 483.511 -0.603875 -1.78143 0
M  V30 5208 O 482.869 0.447091 -1.75701 0
M  V30 5209 C 482.917 -3.05908 -1.90925 0
M  V30 5210 O 482.021 -2.82861 -3.00105 0
M  V30 5211 H 481.362 -0.600481 -0.283406 0
M  V30 5212 H 483.892 -2.02848 -0.267199 0
M  V30 5213 H 483.902 -3.35356 -2.3238 0
M  V30 5214 H 482.577 -3.93999 -1.33183 0
M  V30 5215 H 481.154 -2.64583 -2.62775 0
M  V30 5216 N 483.339 0.512053 -1.4905 0
M  V30 5217 C 484.269 1.62365 -1.67809 0
M  V30 5218 C 485.25 1.61737 -0.526809 0
M  V30 5219 O 486.435 1.78651 -0.761404 0
M  V30 5220 C 483.565 3.00895 -1.73435 0
M  V30 5221 C 482.519 3.16387 -2.88242 0
M  V30 5222 C 481.845 4.56157 -2.78971 0
M  V30 5223 C 483.145 2.97457 -4.29321 0
M  V30 5224 H 484.839 1.46921 -2.60873 0
M  V30 5225 H 482.385 0.705379 -1.2554 0
M  V30 5226 H 484.338 3.78549 -1.85145 0
M  V30 5227 H 483.062 3.17403 -0.769619 0
M  V30 5228 H 481.721 2.41155 -2.76116 0
M  V30 5229 H 481.369 4.69525 -1.8043 0
M  V30 5230 H 481.069 4.67465 -3.5602 0
M  V30 5231 H 482.593 5.35886 -2.92675 0
M  V30 5232 H 484.007 3.64888 -4.42187 0
M  V30 5233 H 482.404 3.20245 -5.07507 0
M  V30 5234 H 483.474 1.93692 -4.44535 0
M  V30 5235 N 484.817 1.37938 0.762283 0
M  V30 5236 C 486.094 1.24196 1.51112 0
M  V30 5237 C 486.474 -0.160409 2.1049 0
M  V30 5238 O 485.822 -1.16904 1.96331 0
M  V30 5239 C 486.032 2.34537 2.58445 0
M  V30 5240 C 487.38 2.7254 3.25588 0
M  V30 5241 O 488.404 2.33783 2.68745 0
M  V30 5242 O 487.263 3.39343 4.28379 0
M  V30 5243 H 484.357 0.485175 0.669727 0
M  V30 5244 H 486.903 1.49743 0.798438 0
M  V30 5245 H 485.675 3.28406 2.12756 0
M  V30 5246 H 485.298 2.10505 3.37303 0
M  V30 5247 N 486.295 -0.989507 1.22664 0
M  V30 5248 C 487.52 -1.77031 1.08051 0
M  V30 5249 C 487.945 -1.84535 -0.364483 0
M  V30 5250 O 487.303 -1.3003 -1.2634 0
M  V30 5251 C 487.351 -3.18 1.70024 0
M  V30 5252 O 486.455 -4.01161 0.956216 0
M  V30 5253 H 485.796 -0.545008 0.379292 0
M  V30 5254 H 488.326 -1.24277 1.62531 0
M  V30 5255 H 488.336 -3.68616 1.74888 0
M  V30 5256 H 487.011 -3.11853 2.75174 0
M  V30 5257 H 485.588 -3.59687 0.98384 0
M  V30 5258 N 487.773 -1.03688 -1.18687 0
M  V30 5259 C 488.998 -0.757819 -1.93059 0
M  V30 5260 C 489.423 0.678353 -1.75442 0
M  V30 5261 O 488.781 1.46938 -1.06203 0
M  V30 5262 C 488.829 -1.12423 -3.42627 0
M  V30 5263 O 487.933 -0.247505 -4.11657 0
M  V30 5264 H 487.274 -0.279245 -0.602427 0
M  V30 5265 H 489.804 -1.3857 -1.5053 0
M  V30 5266 H 489.814 -1.08454 -3.93322 0
M  V30 5267 H 488.489 -2.17049 -3.54771 0
M  V30 5268 H 487.066 -0.34649 -3.71287 0
M  V30 5269 N 489.251 1.34841 -0.815825 0
M  V30 5270 C 490.199 2.31549 -0.220888 0
M  V30 5271 C 491.193 1.5707 0.634457 0
M  V30 5272 O 492.399 1.72125 0.526589 0
M  V30 5273 H 488.774 0.750153 -0.0526782 0
M  V30 5274 H 490.745 2.7926 -1.05149 0
M  V30 5275 C 489.494 3.42335 0.608427 0
M  V30 5276 H 488.817 3.9978 -0.0404121 0
M  V30 5277 H 490.257 4.12258 0.990931 0
M  V30 5278 C 488.716 2.86173 1.77782 0
M  V30 5279 O 489.246 2.80474 2.87571 0
M  V30 5280 N 487.452 2.43093 1.59229 0
M  V30 5281 H 486.999 2.47928 0.699237 0
M  V30 5282 H 486.957 2.05866 2.37627 0
M  V30 5283 N 490.729 0.570148 1.46925 0
M  V30 5284 C 491.692 -0.159933 2.28641 0
M  V30 5285 C 492.692 -0.830638 1.37685 0
M  V30 5286 O 493.882 -0.684516 1.60187 0
M  V30 5287 C 491.014 -1.2354 3.17727 0
M  V30 5288 H 492.207 0.558035 2.94662 0
M  V30 5289 H 489.76 0.327603 1.52828 0
M  V30 5290 H 490.495 -1.98535 2.56426 0
M  V30 5291 H 490.28 -0.759125 3.84681 0
M  V30 5292 H 491.77 -1.74782 3.79264 0
M  V30 5293 N 492.207 -1.54576 0.307264 0
M  V30 5294 C 493.432 -2.05139 -0.305379 0
M  V30 5295 C 493.857 -1.18278 -1.46259 0
M  V30 5296 O 493.215 -0.188243 -1.8032 0
M  V30 5297 C 493.263 -3.53066 -0.733283 0
M  V30 5298 O 492.367 -3.69206 -1.83741 0
M  V30 5299 H 491.708 -0.661444 -0.0582105 0
M  V30 5300 H 494.238 -1.99569 0.450931 0
M  V30 5301 H 494.248 -3.95034 -1.02039 0
M  V30 5302 H 492.923 -4.15746 0.113198 0
M  V30 5303 H 491.5 -3.39143 -1.55037 0
M  V30 5304 N 493.685 -0.035106 -1.57561 0
M  V30 5305 C 494.931 0.64318 -1.92331 0
M  V30 5306 C 495.264 1.71434 -0.912368 0
M  V30 5307 O 494.539 1.94395 0.0640303 0
M  V30 5308 C 494.822 1.25411 -3.37556 0
M  V30 5309 C 494.675 0.192109 -4.4939 0
M  V30 5310 C 495.994 2.17041 -3.82859 0
M  V30 5311 H 493.113 0.232341 -0.699419 0
M  V30 5312 H 495.755 -0.0935889 -1.89769 0
M  V30 5313 H 493.905 1.88205 -3.39869 0
M  V30 5314 H 495.577 -0.438849 -4.59208 0
M  V30 5315 H 493.82 -0.481725 -4.31117 0
M  V30 5316 H 494.491 0.659292 -5.48049 0
M  V30 5317 H 496.967 1.64228 -3.8232 0
M  V30 5318 H 495.843 2.56738 -4.85157 0
M  V30 5319 H 496.104 3.06401 -3.18702 0
M  V30 5320 N 495.163 1.55791 0.238111 0
M  V30 5321 C 496.388 1.8244 0.986432 0
M  V30 5322 C 496.813 0.613314 1.7782 0
M  V30 5323 O 496.171 -0.437767 1.75935 0
M  V30 5324 C 496.219 3.06917 1.893 0
M  V30 5325 O 495.323 2.84449 2.98601 0
M  V30 5326 H 494.664 0.601975 0.280218 0
M  V30 5327 H 497.194 2.02987 0.256437 0
M  V30 5328 H 497.204 3.36583 2.30598 0
M  V30 5329 H 495.879 3.947 1.31091 0
M  V30 5330 H 494.456 2.65972 2.61368 0
M  V30 5331 N 496.642 -0.504142 1.49319 0
M  V30 5332 C 497.867 -1.28729 1.62615 0
M  V30 5333 C 498.292 -1.85752 0.296309 0
M  V30 5334 O 497.65 -1.65704 -0.735649 0
M  V30 5335 C 497.698 -2.39561 2.69524 0
M  V30 5336 O 496.802 -3.43324 2.28478 0
M  V30 5337 H 496.143 -0.380172 0.544395 0
M  V30 5338 H 498.673 -0.603872 1.95485 0
M  V30 5339 H 498.683 -2.8537 2.91595 0
M  V30 5340 H 497.358 -1.97423 3.66056 0
M  V30 5341 H 495.935 -3.03455 2.16725 0
M  V30 5342 N 498.12 -1.38341 -0.754957 0
M  V30 5343 C 499.345 -1.37882 -1.5493 0
M  V30 5344 C 499.77 0.0296385 -1.88077 0
M  V30 5345 O 499.128 1.01133 -1.50472 0
M  V30 5346 C 499.176 -2.23996 -2.82592 0
M  V30 5347 O 498.28 -1.65612 -3.77686 0
M  V30 5348 H 497.621 -0.470384 -0.468652 0
M  V30 5349 H 500.151 -1.82084 -0.933082 0
M  V30 5350 H 500.161 -2.37806 -3.3153 0
M  V30 5351 H 498.836 -3.26365 -2.57796 0
M  V30 5352 H 497.413 -1.60936 -3.36384 0
M  V30 5353 N 499.598 0.982988 -1.23187 0
M  V30 5354 C 500.528 2.09301 -1.03515 0
M  V30 5355 C 501.509 1.70035 0.0471136 0
M  V30 5356 O 502.694 1.93847 -0.117029 0
M  V30 5357 C 499.824 3.4167 -0.622791 0
M  V30 5358 C 498.778 3.94828 -1.65211 0
M  V30 5359 C 498.104 5.23362 -1.09527 0
M  V30 5360 C 499.404 4.2439 -3.04451 0
M  V30 5361 H 501.098 2.26016 -1.96359 0
M  V30 5362 H 498.644 1.08611 -0.945501 0
M  V30 5363 H 500.597 4.18746 -0.472233 0
M  V30 5364 H 499.321 3.24811 0.341329 0
M  V30 5365 H 497.98 3.19895 -1.79061 0
M  V30 5366 H 497.628 5.02852 -0.122211 0
M  V30 5367 H 497.328 5.59895 -1.783 0
M  V30 5368 H 498.852 6.03062 -0.956511 0
M  V30 5369 H 500.266 4.92225 -2.93917 0
M  V30 5370 H 498.663 4.72118 -3.70438 0
M  V30 5371 H 499.733 3.31765 -3.53638 0
M  V30 5372 N 501.076 1.04316 1.18135 0
M  V30 5373 C 502.301 0.768047 1.92655 0
M  V30 5374 C 502.726 -0.66904 1.758 0
M  V30 5375 O 502.084 -1.46372 1.06981 0
M  V30 5376 C 502.132 1.14239 3.42026 0
M  V30 5377 O 501.236 0.269333 4.1152 0
M  V30 5378 H 500.577 0.282436 0.600937 0
M  V30 5379 H 503.107 1.39367 1.49793 0
M  V30 5380 H 503.117 1.10538 3.92741 0
M  V30 5381 H 501.792 2.18928 3.53615 0
M  V30 5382 H 500.369 0.366175 3.71098 0
M  V30 5383 N 502.554 -1.34406 0.822964 0
M  V30 5384 C 503.484 -2.32052 0.259608 0
M  V30 5385 C 504.465 -1.58243 -0.623961 0
M  V30 5386 O 505.65 -1.86224 -0.55083 0
M  V30 5387 C 502.78 -3.42434 -0.579314 0
M  V30 5388 C 501.734 -4.27499 0.20712 0
M  V30 5389 C 501.06 -5.29349 -0.754547 0
M  V30 5390 C 502.36 -5.02758 1.41533 0
M  V30 5391 H 504.054 -2.79418 1.07545 0
M  V30 5392 H 501.6 -1.34338 0.518593 0
M  V30 5393 H 503.553 -4.0976 -0.983612 0
M  V30 5394 H 502.277 -2.93717 -1.4282 0
M  V30 5395 H 500.936 -3.61776 0.592787 0
M  V30 5396 H 500.584 -4.76895 -1.59939 0
M  V30 5397 H 500.284 -5.8714 -0.232561 0
M  V30 5398 H 501.808 -5.99544 -1.1567 0
M  V30 5399 H 503.222 -5.62938 1.08504 0
M  V30 5400 H 501.619 -5.70123 1.87296 0
M  V30 5401 H 502.689 -4.32451 2.1935 0
M  V30 5402 N 504.032 -0.577932 -1.46621 0
M  V30 5403 C 504.995 0.147805 -2.28723 0
M  V30 5404 C 505.995 0.823325 -1.38123 0
M  V30 5405 O 507.185 0.676011 -1.60548 0
M  V30 5406 C 504.317 1.21853 -3.18378 0
M  V30 5407 H 505.51 -0.573654 -2.94362 0
M  V30 5408 H 503.063 -0.335703 -1.52652 0
M  V30 5409 H 503.798 1.97173 -2.57475 0
M  V30 5410 H 503.583 0.738714 -3.85078 0
M  V30 5411 H 505.073 1.72768 -3.80186 0
M  V30 5412 N 505.51 1.54411 -0.315457 0
M  V30 5413 C 506.735 2.05299 0.294496 0
M  V30 5414 C 507.16 1.19052 1.4563 0
M  V30 5415 O 506.518 0.197804 1.80218 0
M  V30 5416 C 506.566 3.5345 0.714549 0
M  V30 5417 O 505.67 3.70175 1.81781 0
M  V30 5418 H 505.011 0.661743 0.0547019 0
M  V30 5419 H 507.541 1.99327 -0.461508 0
M  V30 5420 H 507.551 3.9557 0.999426 0
M  V30 5421 H 506.226 4.1568 -0.135244 0
M  V30 5422 H 504.803 3.3996 1.53236 0
M  V30 5423 N 506.988 0.0434614 1.5754 0
M  V30 5424 C 507.92 -0.962586 2.08007 0
M  V30 5425 C 508.933 -1.27972 1.00634 0
M  V30 5426 O 510.122 -1.24186 1.28219 0
M  V30 5427 C 507.222 -2.28621 2.50171 0
M  V30 5428 C 506.395 -2.15214 3.80791 0
M  V30 5429 C 505.454 -3.30633 4.09351 0
M  V30 5430 O 504.48 -3.0688 4.79388 0
M  V30 5431 N 505.682 -4.54873 3.60654 0
M  V30 5432 H 508.447 -0.531891 2.94942 0
M  V30 5433 H 506.008 -0.142965 1.61268 0
M  V30 5434 H 508 -3.04689 2.66359 0
M  V30 5435 H 506.57 -2.63283 1.68525 0
M  V30 5436 H 505.79 -1.23785 3.74261 0
M  V30 5437 H 507.078 -2.03475 4.66343 0
M  V30 5438 H 506.476 -4.77063 3.04019 0
M  V30 5439 H 505.033 -5.2806 3.82094 0
M  V30 5440 N 508.466 -1.55915 -0.229846 0
M  V30 5441 C 509.413 -1.91734 -1.28478 0
M  V30 5442 C 510.383 -0.773539 -1.46988 0
M  V30 5443 O 511.568 -1.02871 -1.60693 0
M  V30 5444 C 508.708 -2.23224 -2.63182 0
M  V30 5445 C 507.821 -3.50497 -2.52539 0
M  V30 5446 C 506.956 -3.71474 -3.79711 0
M  V30 5447 C 505.995 -4.92289 -3.63755 0
M  V30 5448 N 505.132 -5.09698 -4.82858 0
M  V30 5449 H 509.972 -2.81692 -0.972308 0
M  V30 5450 H 507.509 -1.39429 -0.468815 0
M  V30 5451 H 509.467 -2.3949 -3.41614 0
M  V30 5452 H 508.097 -1.36451 -2.92542 0
M  V30 5453 H 507.149 -3.4247 -1.65585 0
M  V30 5454 H 508.461 -4.39079 -2.36666 0
M  V30 5455 H 507.615 -3.87791 -4.66586 0
M  V30 5456 H 506.354 -2.81157 -3.985 0
M  V30 5457 H 505.359 -4.7593 -2.75264 0
M  V30 5458 H 506.584 -5.84083 -3.46445 0
M  V30 5459 H 504.53 -4.22322 -5.01976 0
M  V30 5460 H 504.447 -5.92399 -4.69681 0
M  V30 5461 H 505.715 -5.30443 -5.71183 0
M  V30 5462 N 509.944 0.496216 -1.49584 0
M  V30 5463 C 511.221 1.25755 -1.49816 0
M  V30 5464 C 511.601 2.09859 -0.228572 0
M  V30 5465 O 510.949 2.14449 0.788908 0
M  V30 5466 C 511.159 2.11017 -2.7798 0
M  V30 5467 C 512.507 2.70047 -3.27658 0
M  V30 5468 O 513.531 2.21281 -2.79129 0
M  V30 5469 O 512.39 3.58834 -4.1219 0
M  V30 5470 H 509.484 0.569322 -0.599834 0
M  V30 5471 H 512.03 0.510094 -1.61852 0
M  V30 5472 H 510.802 1.48879 -3.61871 0
M  V30 5473 H 510.425 2.92947 -2.68827 0
M  V30 5474 N 511.423 1.38739 0.74761 0
M  V30 5475 C 512.663 1.36695 1.51966 0
M  V30 5476 C 513.027 -0.0411889 1.91956 0
M  V30 5477 O 514.228 -0.186543 2.68152 0
M  V30 5478 C 512.499 2.30119 2.73459 0
M  V30 5479 S 514.058 2.4615 3.63257 0
M  V30 5480 H 510.876 0.484929 0.519966 0
M  V30 5481 H 513.478 1.7472 0.877104 0
M  V30 5482 H 512.182 3.31312 2.422 0
M  V30 5483 H 511.713 1.93265 3.42655 0
M  V30 5484 H 513.728 1.69001 4.66533 0
M  V30 5485 N 512.901 -0.976442 1.23707 0
M  V30 5486 C 513.831 -2.08749 1.04624 0
M  V30 5487 C 514.812 -1.70057 -0.0380956 0
M  V30 5488 O 515.997 -1.93782 0.127308 0
M  V30 5489 C 513.127 -3.41335 0.640902 0
M  V30 5490 C 512.081 -3.93947 1.67302 0
M  V30 5491 C 511.407 -5.22774 1.12301 0
M  V30 5492 C 512.707 -4.22769 3.06697 0
M  V30 5493 H 514.401 -2.24972 1.97555 0
M  V30 5494 H 511.947 -1.08108 0.951247 0
M  V30 5495 H 513.9 -4.18489 0.494434 0
M  V30 5496 H 512.624 -3.24988 -0.324099 0
M  V30 5497 H 511.283 -3.18941 1.80755 0
M  V30 5498 H 510.931 -5.0278 0.148877 0
M  V30 5499 H 510.631 -5.58942 1.81267 0
M  V30 5500 H 512.155 -6.02546 0.988479 0
M  V30 5501 H 513.569 -4.90659 2.96524 0
M  V30 5502 H 511.966 -4.70147 3.72937 0
M  V30 5503 H 513.036 -3.29885 3.55392 0
M  V30 5504 N 514.379 -1.04941 -1.1758 0
M  V30 5505 C 515.342 -0.652456 -2.19717 0
M  V30 5506 C 516.342 0.294745 -1.58076 0
M  V30 5507 O 517.532 0.0789579 -1.74021 0
M  V30 5508 C 514.664 0.0420712 -3.40874 0
M  V30 5509 H 515.857 -1.55642 -2.5635 0
M  V30 5510 H 513.41 -0.842995 -1.31618 0
M  V30 5511 H 514.145 0.95943 -3.09783 0
M  V30 5512 H 513.93 -0.638844 -3.86861 0
M  V30 5513 H 515.42 0.306 -4.16477 0
M  V30 5514 N 515.857 1.33968 -0.830081 0
M  V30 5515 C 517.268 1.80439 -0.479455 0
M  V30 5516 C 517.619 1.68756 1.00079 0
M  V30 5517 O 516.744 1.23171 1.77927 0
M  V30 5518 C 517.339 3.27611 -0.863505 0
M  V30 5519 C 515.898 3.72133 -0.565145 0
M  V30 5520 C 515.045 2.55549 -1.07657 0
M  V30 5521 H 517.996 1.21614 -1.0196 0
M  V30 5522 H 518.017 3.8012 -0.170083 0
M  V30 5523 H 517.529 3.36082 -1.94089 0
M  V30 5524 H 515.63 3.69196 0.502536 0
M  V30 5525 H 515.743 4.65963 -1.11422 0
M  V30 5526 H 514.107 2.49788 -0.497807 0
M  V30 5527 H 514.89 2.66786 -2.16055 0
M  V30 5528 N 517.335 0.585699 1.46312 0
M  V30 5529 C 518.56 0.0762461 2.0726 0
M  V30 5530 C 518.985 -1.22071 1.43109 0
M  V30 5531 O 518.343 -1.73804 0.515942 0
M  V30 5532 C 518.391 -0.0729404 3.60526 0
M  V30 5533 O 517.495 -1.1287 3.96654 0
M  V30 5534 H 516.836 0.0641558 0.660893 0
M  V30 5535 H 519.366 0.809492 1.87905 0
M  V30 5536 H 519.376 -0.278158 4.07051 0
M  V30 5537 H 518.051 0.874188 4.06609 0
M  V30 5538 H 516.628 -0.901703 3.61834 0
M  V30 5539 N 518.813 -1.54241 0.323641 0
M  V30 5540 C 520.041 -2.04985 -0.280871 0
M  V30 5541 C 520.456 -1.19978 -1.45777 0
M  V30 5542 O 519.813 -0.230471 -1.81039 0
M  V30 5543 C 519.864 -3.54353 -0.715258 0
M  V30 5544 O 519.585 -4.36132 0.414817 0
M  V30 5545 C 521.086 -4.21189 -1.38257 0
M  V30 5546 H 518.306 -0.66851 -0.0577502 0
M  V30 5547 H 520.85 -1.99029 0.469852 0
M  V30 5548 H 519.005 -3.60596 -1.41596 0
M  V30 5549 H 519.419 -5.2445 0.0725227 0
M  V30 5550 H 520.893 -5.27154 -1.63745 0
M  V30 5551 H 521.37 -3.72307 -2.32989 0
M  V30 5552 H 521.976 -4.19085 -0.724447 0
M  V30 5553 N 520.291 -0.0518155 -1.57515 0
M  V30 5554 C 521.221 0.920283 -2.146 0
M  V30 5555 C 522.202 1.32406 -1.06783 0
M  V30 5556 O 523.387 1.39866 -1.34726 0
M  V30 5557 C 520.517 2.1949 -2.6915 0
M  V30 5558 C 519.471 1.93116 -3.81956 0
M  V30 5559 C 518.797 3.27037 -4.23026 0
M  V30 5560 C 520.097 1.25225 -5.07066 0
M  V30 5561 H 521.791 0.444801 -2.96077 0
M  V30 5562 H 519.337 0.212508 -1.42423 0
M  V30 5563 H 521.29 2.87894 -3.07725 0
M  V30 5564 H 520.014 2.69244 -1.84865 0
M  V30 5565 H 518.673 1.27123 -3.43854 0
M  V30 5566 H 518.321 3.74595 -3.3569 0
M  V30 5567 H 518.021 3.10189 -4.99056 0
M  V30 5568 H 519.545 3.96673 -4.64202 0
M  V30 5569 H 520.959 1.83666 -5.43083 0
M  V30 5570 H 519.356 1.18702 -5.88243 0
M  V30 5571 H 520.426 0.228382 -4.84362 0
M  V30 5572 N 521.769 1.56035 0.221574 0
M  V30 5573 C 523.009 1.80822 0.953038 0
M  V30 5574 C 523.373 0.625316 1.81532 0
M  V30 5575 O 524.574 0.752491 2.58052 0
M  V30 5576 C 522.845 3.10503 1.76983 0
M  V30 5577 S 524.404 3.56604 2.55693 0
M  V30 5578 H 521.222 0.634849 0.320137 0
M  V30 5579 H 523.824 1.94274 0.218619 0
M  V30 5580 H 522.528 3.94636 1.12651 0
M  V30 5581 H 522.059 2.99858 2.54655 0
M  V30 5582 H 524.074 3.1994 3.79279 0
M  V30 5583 N 523.247 -0.488276 1.49845 0
M  V30 5584 C 524.472 -1.26997 1.63971 0
M  V30 5585 C 524.897 -1.85427 0.315994 0
M  V30 5586 O 524.255 -1.66475 -0.718032 0
M  V30 5587 C 524.303 -2.36689 2.72049 0
M  V30 5588 O 523.407 -3.40882 2.32107 0
M  V30 5589 H 522.748 -0.374376 0.548396 0
M  V30 5590 H 525.278 -0.583104 1.96115 0
M  V30 5591 H 525.288 -2.82262 2.94605 0
M  V30 5592 H 523.963 -1.93529 3.68129 0
M  V30 5593 H 522.54 -3.01139 2.19931 0
M  V30 5594 N 524.725 -1.39134 -0.740242 0
M  V30 5595 C 525.972 -1.36071 -1.49969 0
M  V30 5596 C 526.3 0.0450245 -1.94448 0
M  V30 5597 O 525.555 1.02482 -1.66721 0
M  V30 5598 C 525.854 -2.27457 -2.75678 0
M  V30 5599 C 525.52 -3.75185 -2.50094 0
M  V30 5600 C 524.182 -4.15439 -2.42825 0
M  V30 5601 C 526.534 -4.68643 -2.28086 0
M  V30 5602 C 523.862 -5.4722 -2.11584 0
M  V30 5603 C 526.214 -6.00695 -1.98363 0
M  V30 5604 C 524.878 -6.40018 -1.8956 0
M  V30 5605 H 524.148 -0.497921 -0.548777 0
M  V30 5606 H 526.795 -1.71599 -0.85007 0
M  V30 5607 H 525.1 -1.8503 -3.45356 0
M  V30 5608 H 526.797 -2.22384 -3.33686 0
M  V30 5609 H 523.387 -3.43279 -2.56627 0
M  V30 5610 H 527.571 -4.3838 -2.32672 0
M  V30 5611 H 522.827 -5.76615 -2.03287 0
M  V30 5612 H 527.001 -6.72644 -1.80341 0
M  V30 5613 H 524.628 -7.42051 -1.65117 0
M  V30 5614 N 526.204 0.969867 -1.24223 0
M  V30 5615 C 527.453 1.70687 -1.07466 0
M  V30 5616 C 527.766 1.91736 0.386861 0
M  V30 5617 O 528.972 2.62986 0.674581 0
M  V30 5618 C 527.428 3.07217 -1.87472 0
M  V30 5619 C 527.036 2.94018 -3.3802 0
M  V30 5620 C 528.78 3.84804 -1.79237 0
M  V30 5621 C 526.687 4.25844 -4.10379 0
M  V30 5622 H 525.617 0.640067 -0.398536 0
M  V30 5623 H 528.268 1.08092 -1.48285 0
M  V30 5624 H 526.65 3.70628 -1.39466 0
M  V30 5625 H 527.824 2.39632 -3.9359 0
M  V30 5626 H 526.139 2.29898 -3.47183 0
M  V30 5627 H 528.736 4.82417 -2.30603 0
M  V30 5628 H 529.079 4.09356 -0.757197 0
M  V30 5629 H 529.612 3.28115 -2.24912 0
M  V30 5630 H 526.351 4.06486 -5.14246 0
M  V30 5631 H 525.871 4.80054 -3.59594 0
M  V30 5632 H 527.55 4.94475 -4.17257 0
M  V30 5633 N 527.682 1.05563 1.17022 0
M  V30 5634 C 528.907 0.788437 1.91829 0
M  V30 5635 C 529.332 -0.650356 1.76499 0
M  V30 5636 O 528.69 -1.45229 1.08527 0
M  V30 5637 C 528.738 1.1786 3.40795 0
M  V30 5638 O 527.842 0.312965 4.11211 0
M  V30 5639 H 527.183 0.288794 0.597908 0
M  V30 5640 H 529.713 1.40948 1.48307 0
M  V30 5641 H 529.723 1.14697 3.91546 0
M  V30 5642 H 528.398 2.22666 3.51273 0
M  V30 5643 H 526.975 0.405515 3.70689 0
M  V30 5644 N 529.16 -1.33526 0.837174 0
M  V30 5645 C 530.385 -2.0258 0.444545 0
M  V30 5646 C 530.81 -1.6258 -0.946006 0
M  V30 5647 O 530.168 -0.817548 -1.6182 0
M  V30 5648 C 530.216 -3.5605 0.571006 0
M  V30 5649 O 529.32 -4.10422 -0.403431 0
M  V30 5650 H 528.661 -0.638866 0.180958 0
M  V30 5651 H 531.191 -1.70462 1.13154 0
M  V30 5652 H 531.201 -4.05488 0.452024 0
M  V30 5653 H 529.876 -3.84509 1.58512 0
M  V30 5654 H 528.453 -3.72113 -0.242147 0
M  V30 5655 N 530.638 -0.59345 -1.46 0
M  V30 5656 C 531.863 -0.0872365 -2.07216 0
M  V30 5657 C 532.288 1.2131 -1.43755 0
M  V30 5658 O 531.646 1.73528 -0.525152 0
M  V30 5659 C 531.694 0.0538197 -3.6056 0
M  V30 5660 O 530.798 1.10765 -3.97247 0
M  V30 5661 H 530.139 -0.0676598 -0.660544 0
M  V30 5662 H 532.669 -0.819445 -1.87473 0
M  V30 5663 H 532.679 0.256567 -4.07193 0
M  V30 5664 H 531.354 -0.895739 -4.0614 0
M  V30 5665 H 529.931 0.882501 -3.62307 0
M  V30 5666 N 532.116 1.54067 -0.331816 0
M  V30 5667 C 533.341 2.05599 0.272705 0
M  V30 5668 C 533.766 1.2059 1.44359 0
M  V30 5669 O 533.124 0.216907 1.79998 0
M  V30 5670 C 533.172 3.54188 0.677021 0
M  V30 5671 O 532.276 3.72082 1.77844 0
M  V30 5672 H 531.617 0.662286 0.0476801 0
M  V30 5673 H 534.147 1.98826 -0.482624 0
M  V30 5674 H 534.157 3.96608 0.957415 0
M  V30 5675 H 532.832 4.15513 -0.179325 0
M  V30 5676 H 531.409 3.41566 1.49622 0
M  V30 5677 N 533.594 0.0601682 1.57485 0
M  V30 5678 C 534.842 -0.610386 1.92662 0
M  V30 5679 C 535.163 -1.70849 0.939981 0
M  V30 5680 O 534.433 -1.95895 -0.0137455 0
M  V30 5681 H 533.013 -0.228457 0.711208 0
M  V30 5682 H 535.675 0.115288 1.94559 0
M  V30 5683 H 534.771 -1.0432 2.94149 0
M  V30 5684 N 535.072 -1.5615 -0.213296 0
M  V30 5685 C 536.318 -1.79812 -0.937849 0
M  V30 5686 C 536.651 -0.631201 -1.83656 0
M  V30 5687 O 535.926 0.369165 -1.90964 0
M  V30 5688 C 536.209 -3.13613 -1.76972 0
M  V30 5689 C 536.062 -4.40766 -0.89695 0
M  V30 5690 C 537.381 -3.43931 -2.7459 0
M  V30 5691 H 534.5 -0.654138 -0.339518 0
M  V30 5692 H 537.142 -1.88877 -0.20623 0
M  V30 5693 H 535.292 -3.06015 -2.39347 0
M  V30 5694 H 536.964 -4.60392 -0.289306 0
M  V30 5695 H 535.207 -4.33326 -0.202756 0
M  V30 5696 H 535.878 -5.30843 -1.51358 0
M  V30 5697 H 538.354 -3.5171 -2.22349 0
M  V30 5698 H 537.23 -4.38706 -3.29891 0
M  V30 5699 H 537.491 -2.6651 -3.52739 0
M  V30 5700 N 536.55 0.480323 -1.50102 0
M  V30 5701 C 537.775 1.26126 -1.64642 0
M  V30 5702 C 538.2 1.85257 -0.325823 0
M  V30 5703 O 537.558 1.66854 0.709194 0
M  V30 5704 C 537.606 2.35243 -2.73301 0
M  V30 5705 O 536.71 3.39646 -2.33911 0
M  V30 5706 H 536.051 0.371463 -0.550374 0
M  V30 5707 H 538.581 0.572696 -1.96421 0
M  V30 5708 H 538.591 2.80695 -2.96098 0
M  V30 5709 H 537.266 1.91574 -3.6915 0
M  V30 5710 H 535.843 2.99969 -2.21525 0
M  V30 5711 N 538.028 1.39524 0.732853 0
M  V30 5712 C 539.276 1.36594 1.48951 0
M  V30 5713 C 539.597 -0.0367507 1.94965 0
M  V30 5714 O 538.867 -0.988391 1.69138 0
M  V30 5715 H 537.447 0.502673 0.552566 0
M  V30 5716 H 540.109 1.74411 0.869869 0
M  V30 5717 H 539.205 2.03 2.3706 0
M  V30 5718 N 539.506 -0.963266 1.24736 0
M  V30 5719 C 540.752 -1.70933 1.09131 0
M  V30 5720 C 541.085 -1.90676 -0.368273 0
M  V30 5721 O 540.36 -1.47147 -1.27193 0
M  V30 5722 C 540.643 -3.09744 1.83658 0
M  V30 5723 C 540.496 -2.97465 3.37394 0
M  V30 5724 C 541.815 -4.09483 1.61282 0
M  V30 5725 H 538.934 -0.620398 0.397838 0
M  V30 5726 H 541.576 -1.12028 1.53459 0
M  V30 5727 H 539.726 -3.60031 1.4598 0
M  V30 5728 H 541.398 -2.54571 3.84696 0
M  V30 5729 H 539.641 -2.33576 3.65547 0
M  V30 5730 H 540.312 -3.95822 3.84745 0
M  V30 5731 H 542.788 -3.68073 1.94066 0
M  V30 5732 H 541.664 -5.04666 2.15878 0
M  V30 5733 H 541.925 -4.38639 0.552102 0
M  V30 5734 N 540.985 -1.06182 -1.16461 0
M  V30 5735 C 542.233 -0.776326 -1.86595 0
M  V30 5736 C 542.554 0.69921 -1.82033 0
M  V30 5737 O 541.824 1.50579 -1.2531 0
M  V30 5738 H 540.404 -0.284184 -0.690832 0
M  V30 5739 H 543.066 -1.34308 -1.41235 0
M  V30 5740 H 542.162 -1.10022 -2.92064 0
M  V30 5741 N 542.463 1.3308 -0.844243 0
M  V30 5742 C 543.426 2.27403 -0.286485 0
M  V30 5743 C 544.426 1.51179 0.547872 0
M  V30 5744 O 545.616 1.70421 0.360886 0
M  V30 5745 C 542.748 3.35653 0.595813 0
M  V30 5746 H 543.941 2.78248 -1.11885 0
M  V30 5747 H 541.494 1.43574 -0.617749 0
M  V30 5748 H 542.229 2.90058 1.4504 0
M  V30 5749 H 542.014 3.921 -0.00125994 0
M  V30 5750 H 543.504 4.05958 0.979168 0
M  V30 5751 N 543.941 0.601185 1.45683 0
M  V30 5752 C 544.851 -0.123395 2.34275 0
M  V30 5753 C 545.867 -0.86702 1.5086 0
M  V30 5754 O 547.043 -0.826049 1.8368 0
M  V30 5755 C 544.108 -1.11237 3.2837 0
M  V30 5756 C 543.169 -0.371405 4.2769 0
M  V30 5757 C 542.402 -1.31327 5.1729 0
M  V30 5758 O 542.625 -2.55078 5.10188 0
M  V30 5759 O 541.559 -0.813811 5.96373 0
M  V30 5760 H 545.385 0.604483 2.97623 0
M  V30 5761 H 542.97 0.361477 1.44961 0
M  V30 5762 H 544.852 -1.68214 3.8637 0
M  V30 5763 H 543.527 -1.82139 2.67595 0
M  V30 5764 H 542.434 0.24067 3.73325 0
M  V30 5765 H 543.767 0.296998 4.91303 0
M  V30 5766 N 545.419 -1.53889 0.339982 0
M  V30 5767 C 546.835 -1.59595 -0.0120752 0
M  V30 5768 C 547.035 -1.35605 -1.49042 0
M  V30 5769 O 546.091 -1.14856 -2.24865 0
M  V30 5770 C 547.404 -2.9774 0.420898 0
M  V30 5771 C 548.952 -3.1077 0.37294 0
M  V30 5772 C 549.427 -4.51286 0.781327 0
M  V30 5773 N 550.918 -4.57325 0.735374 0
M  V30 5774 C 551.653 -5.64194 1.02336 0
M  V30 5775 N 551.149 -6.7893 1.37933 0
M  V30 5776 N 552.942 -5.54051 0.947838 0
M  V30 5777 H 545.093 -1.67738 1.30299 0
M  V30 5778 H 547.356 -0.785385 0.530918 0
M  V30 5779 H 547.062 -3.20349 1.45152 0
M  V30 5780 H 546.936 -3.76639 -0.205721 0
M  V30 5781 H 549.323 -2.87886 -0.648505 0
M  V30 5782 H 549.404 -2.33939 1.03472 0
M  V30 5783 H 549.048 -4.74905 1.80077 0
M  V30 5784 H 548.978 -5.26511 0.0970679 0
M  V30 5785 H 551.469 -3.74931 0.472773 0
M  V30 5786 H 551.782 -7.56392 1.58402 0
M  V30 5787 H 550.127 -6.80386 1.41774 0
M  V30 5788 H 553.318 -4.63293 0.669115 0
M  V30 5789 H 553.491 -6.37246 1.17563 0
M  V30 5790 N 546.897 -0.0685191 -1.57451 0
M  V30 5791 C 548.313 0.288101 -1.56978 0
M  V30 5792 C 548.513 1.70262 -1.07765 0
M  V30 5793 O 547.569 2.4135 -0.742054 0
M  V30 5794 C 548.882 0.100745 -3.00531 0
M  V30 5795 C 550.43 0.170531 -3.12535 0
M  V30 5796 C 550.905 0.0114944 -4.57999 0
M  V30 5797 N 552.396 0.0672065 -4.63151 0
M  V30 5798 C 553.131 -0.0314813 -5.73391 0
M  V30 5799 N 552.627 -0.183503 -6.92557 0
M  V30 5800 N 554.42 0.0253489 -5.62094 0
M  V30 5801 H 546.571 -0.993026 -1.87757 0
M  V30 5802 H 548.834 -0.386981 -0.865419 0
M  V30 5803 H 548.54 -0.875197 -3.40636 0
M  V30 5804 H 548.414 0.854457 -3.67395 0
M  V30 5805 H 550.801 1.13696 -2.72318 0
M  V30 5806 H 550.882 -0.614229 -2.48316 0
M  V30 5807 H 550.526 -0.951684 -4.98904 0
M  V30 5808 H 550.456 0.815617 -5.20245 0
M  V30 5809 H 552.947 0.183246 -3.77455 0
M  V30 5810 H 553.26 -0.251041 -7.72392 0
M  V30 5811 H 551.605 -0.218822 -6.94655 0
M  V30 5812 H 554.796 0.142794 -4.67882 0
M  V30 5813 H 554.969 -0.0550166 -6.47977 0
M  V30 5814 N 548.375 1.56261 0.205012 0
M  V30 5815 C 549.786 1.70056 0.770574 0
M  V30 5816 C 550.137 0.673398 1.84282 0
M  V30 5817 O 549.262 -0.172196 2.15714 0
M  V30 5818 C 549.857 3.08316 1.40451 0
M  V30 5819 C 548.416 3.2391 1.91727 0
M  V30 5820 C 547.563 2.66001 0.783516 0
M  V30 5821 H 550.514 1.58688 -0.019911 0
M  V30 5822 H 550.535 3.05094 2.27371 0
M  V30 5823 H 550.047 3.83053 0.623882 0
M  V30 5824 H 548.148 2.54072 2.7254 0
M  V30 5825 H 548.261 4.3131 2.08588 0
M  V30 5826 H 546.625 2.24915 1.19521 0
M  V30 5827 H 547.408 3.43297 0.0152883 0
M  V30 5828 N 549.853 -0.472356 1.50355 0
M  V30 5829 C 551.269 -0.806001 1.37753 0
M  V30 5830 C 551.469 -1.968 0.432649 0
M  V30 5831 O 550.525 -2.52189 -0.12519 0
M  V30 5832 C 551.838 -1.11926 2.79093 0
M  V30 5833 C 553.386 -1.22579 2.87999 0
M  V30 5834 C 553.861 -1.57218 4.3017 0
M  V30 5835 N 555.352 -1.64212 4.33115 0
M  V30 5836 C 556.087 -1.92517 5.40116 0
M  V30 5837 N 555.583 -2.1885 6.57325 0
M  V30 5838 N 557.376 -1.94008 5.27558 0
M  V30 5839 H 549.527 0.293451 2.10363 0
M  V30 5840 H 551.79 0.0687672 0.945503 0
M  V30 5841 H 551.496 -0.338504 3.50067 0
M  V30 5842 H 551.37 -2.05577 3.16256 0
M  V30 5843 H 553.757 -1.99722 2.17245 0
M  V30 5844 H 553.838 -0.269107 2.54381 0
M  V30 5845 H 553.482 -0.806154 5.01461 0
M  V30 5846 H 553.412 -2.54034 4.61275 0
M  V30 5847 H 555.903 -1.45906 3.48597 0
M  V30 5848 H 556.216 -2.39718 7.3468 0
M  V30 5849 H 554.561 -2.16245 6.60502 0
M  V30 5850 H 557.752 -1.72931 4.34986 0
M  V30 5851 H 557.925 -2.15731 6.11035 0
M  V30 5852 N 551.331 -1.39911 -0.725443 0
M  V30 5853 C 552.742 -1.33599 -1.30415 0
M  V30 5854 C 553.093 -0.00481792 -1.96199 0
M  V30 5855 O 552.218 0.897275 -1.96921 0
M  V30 5856 C 552.813 -2.41965 -2.37146 0
M  V30 5857 C 551.372 -2.39144 -2.90667 0
M  V30 5858 C 550.519 -2.23355 -1.64341 0
M  V30 5859 H 553.47 -1.4986 -0.522267 0
M  V30 5860 H 553.491 -2.09304 -3.17761 0
M  V30 5861 H 553.003 -3.38837 -1.89238 0
M  V30 5862 H 551.104 -1.4594 -3.4283 0
M  V30 5863 H 551.217 -3.34362 -3.43131 0
M  V30 5864 H 549.581 -1.70696 -1.89037 0
M  V30 5865 H 550.364 -3.2221 -1.18471 0
M  V30 5866 N 552.809 0.956637 -1.25245 0
M  V30 5867 C 554.037 1.73571 -1.12608 0
M  V30 5868 C 554.452 1.86063 0.320324 0
M  V30 5869 O 553.809 1.35691 1.22042 0
M  V30 5870 C 553.86 3.15053 -1.77268 0
M  V30 5871 O 553.581 3.03174 -3.16255 0
M  V30 5872 C 555.082 4.09248 -1.70386 0
M  V30 5873 H 552.302 0.543955 -0.392879 0
M  V30 5874 H 554.846 1.20031 -1.65568 0
M  V30 5875 H 553.001 3.65543 -1.28284 0
M  V30 5876 H 553.415 3.9241 -3.48015 0
M  V30 5877 H 554.889 5.06138 -2.20291 0
M  V30 5878 H 555.366 4.34102 -0.667239 0
M  V30 5879 H 555.972 3.64672 -2.18849 0
M  V30 5880 N 554.287 1.06798 1.15896 0
M  V30 5881 C 555.515 0.808694 1.90441 0
M  V30 5882 C 555.93 -0.637506 1.77711 0
M  V30 5883 O 555.287 -1.43684 1.12522 0
M  V30 5884 C 555.338 1.20068 3.40978 0
M  V30 5885 O 555.059 2.59013 3.53333 0
M  V30 5886 C 556.56 0.96987 4.3256 0
M  V30 5887 H 553.78 0.292809 0.603742 0
M  V30 5888 H 556.324 1.42296 1.46874 0
M  V30 5889 H 554.479 0.630842 3.82229 0
M  V30 5890 H 554.893 2.7485 4.46719 0
M  V30 5891 H 556.367 1.29371 5.36626 0
M  V30 5892 H 556.844 -0.0941209 4.39099 0
M  V30 5893 H 557.45 1.52433 3.97044 0
M  V30 5894 N 555.766 -1.3263 0.851289 0
M  V30 5895 C 557.012 -1.9766 0.453694 0
M  V30 5896 C 557.345 -1.67225 -0.987396 0
M  V30 5897 O 556.62 -0.958693 -1.69232 0
M  V30 5898 C 556.903 -3.5344 0.68936 0
M  V30 5899 C 556.756 -3.93517 2.17862 0
M  V30 5900 C 558.075 -4.39866 0.143555 0
M  V30 5901 H 555.194 -0.717989 0.166314 0
M  V30 5902 H 557.836 -1.57068 1.06909 0
M  V30 5903 H 555.986 -3.88147 0.165546 0
M  V30 5904 H 557.658 -3.69006 2.76826 0
M  V30 5905 H 555.901 -3.42798 2.65841 0
M  V30 5906 H 556.572 -5.02065 2.29422 0
M  V30 5907 H 559.048 -4.11875 0.591451 0
M  V30 5908 H 557.924 -5.47858 0.338043 0
M  V30 5909 H 558.185 -4.31696 -0.953466 0
M  V30 5910 N 557.244 -0.608902 -1.45362 0
M  V30 5911 C 558.472 -0.111013 -2.06602 0
M  V30 5912 C 558.887 1.20516 -1.45332 0
M  V30 5913 O 558.244 1.73437 -0.567978 0
M  V30 5914 C 558.295 0.033688 -3.61484 0
M  V30 5915 O 558.016 -1.23041 -4.20467 0
M  V30 5916 C 559.517 0.562882 -4.39712 0
M  V30 5917 H 556.737 -0.0694453 -0.667397 0
M  V30 5918 H 559.281 -0.837008 -1.86586 0
M  V30 5919 H 557.436 0.710016 -3.80838 0
M  V30 5920 H 557.85 -1.06094 -5.13658 0
M  V30 5921 H 559.324 0.613213 -5.48583 0
M  V30 5922 H 559.801 1.58543 -4.09586 0
M  V30 5923 H 560.407 -0.0794454 -4.25226 0
M  V30 5924 N 558.722 1.53707 -0.348139 0
M  V30 5925 C 559.685 2.23812 0.494058 0
M  V30 5926 C 560.685 1.23989 1.02388 0
M  V30 5927 O 561.875 1.48395 0.912396 0
M  V30 5928 C 559.007 2.96133 1.68872 0
M  V30 5929 H 560.2 2.99663 -0.119141 0
M  V30 5930 H 557.753 1.55983 -0.0995539 0
M  V30 5931 H 558.488 2.24481 2.34049 0
M  V30 5932 H 558.273 3.69357 1.31596 0
M  V30 5933 H 559.763 3.49475 2.28597 0
M  V30 5934 N 560.2 0.0768682 1.57412 0
M  V30 5935 C 561.446 -0.591961 1.93968 0
M  V30 5936 C 561.779 -1.68954 0.9575 0
M  V30 5937 O 561.054 -1.94496 -0.0124675 0
M  V30 5938 C 561.337 -1.16418 3.40762 0
M  V30 5939 C 561.19 -0.0728933 4.49741 0
M  V30 5940 C 562.509 -2.06814 3.88479 0
M  V30 5941 H 559.628 -0.213716 0.705333 0
M  V30 5942 H 562.27 0.14387 1.89455 0
M  V30 5943 H 560.42 -1.79128 3.4474 0
M  V30 5944 H 562.092 0.560446 4.57883 0
M  V30 5945 H 560.335 0.595859 4.29688 0
M  V30 5946 H 561.006 -0.513755 5.49604 0
M  V30 5947 H 563.482 -1.54033 3.8654 0
M  V30 5948 H 562.358 -2.43785 4.91793 0
M  V30 5949 H 562.619 -2.97844 3.26713 0
M  V30 5950 N 561.678 -1.56367 -0.196722 0
M  V30 5951 C 562.628 -1.9082 -1.24787 0
M  V30 5952 C 563.612 -0.773719 -1.41076 0
M  V30 5953 O 564.804 -1.03655 -1.43474 0
M  V30 5954 C 561.933 -2.24982 -2.59303 0
M  V30 5955 C 561.019 -3.44882 -2.46814 0
M  V30 5956 N 561.41 -4.62835 -2.04003 0
M  V30 5957 C 559.708 -3.48988 -2.77711 0
M  V30 5958 C 560.409 -5.44993 -2.03366 0
M  V30 5959 N 559.385 -4.85356 -2.44807 0
M  V30 5960 H 563.187 -2.79516 -0.908175 0
M  V30 5961 H 560.701 -1.57265 -0.405166 0
M  V30 5962 H 562.698 -2.47848 -3.35227 0
M  V30 5963 H 561.358 -1.37611 -2.94098 0
M  V30 5964 H 562.369 -4.87532 -1.74738 0
M  V30 5965 H 559.046 -2.72029 -3.16712 0
M  V30 5966 H 560.436 -6.49464 -1.72181 0
M  V30 5967 N 563.156 0.464375 -1.50603 0
M  V30 5968 C 564.381 1.24372 -1.65971 0
M  V30 5969 C 564.806 1.84901 -0.345453 0
M  V30 5970 O 564.164 1.67596 0.691457 0
M  V30 5971 C 564.212 2.32331 -2.7578 0
M  V30 5972 O 563.316 3.37146 -2.375 0
M  V30 5973 H 562.657 0.365604 -0.554283 0
M  V30 5974 H 565.187 0.55183 -1.97018 0
M  V30 5975 H 565.197 2.77539 -2.99059 0
M  V30 5976 H 563.872 1.87648 -3.71162 0
M  V30 5977 H 562.449 2.97602 -2.24694 0
M  V30 5978 N 564.634 1.40294 0.718013 0
M  V30 5979 C 565.882 1.38167 1.47494 0
M  V30 5980 C 566.203 -0.01607 1.94993 0
M  V30 5981 O 565.473 -0.970396 1.70177 0
M  V30 5982 H 564.053 0.508505 0.547203 0
M  V30 5983 H 566.715 1.75324 0.851322 0
M  V30 5984 H 565.811 2.05503 2.34894 0
M  V30 5985 N 566.112 -0.949982 1.2575 0
M  V30 5986 C 567.337 -1.73503 1.13628 0
M  V30 5987 C 567.762 -1.85601 -0.30559 0
M  V30 5988 O 567.12 -1.33984 -1.22139 0
M  V30 5989 C 567.168 -3.1243 1.80055 0
M  V30 5990 O 566.272 -3.97916 1.08336 0
M  V30 5991 H 565.613 -0.532665 0.396439 0
M  V30 5992 H 568.143 -1.19043 1.66403 0
M  V30 5993 H 568.153 -3.62866 1.86527 0
M  V30 5994 H 566.828 -3.02941 2.84956 0
M  V30 5995 H 565.405 -3.56375 1.09777 0
M  V30 5996 N 567.59 -1.07411 -1.15328 0
M  V30 5997 C 568.537 -0.694995 -2.20087 0
M  V30 5998 C 569.507 0.313904 -1.63107 0
M  V30 5999 O 570.692 0.200216 -1.89747 0
M  V30 6000 C 567.832 -0.0996218 -3.44956 0
M  V30 6001 C 566.945 -1.16007 -4.16133 0
M  V30 6002 C 566.08 -0.529636 -5.28553 0
M  V30 6003 C 565.119 -1.57283 -5.91548 0
M  V30 6004 N 564.256 -0.964932 -6.95438 0
M  V30 6005 H 569.096 -1.5927 -2.51867 0
M  V30 6006 H 566.633 -0.796115 -1.23695 0
M  V30 6007 H 568.591 0.263197 -4.16369 0
M  V30 6008 H 567.221 0.761435 -3.13691 0
M  V30 6009 H 566.273 -1.64045 -3.4321 0
M  V30 6010 H 567.585 -1.95101 -4.59061 0
M  V30 6011 H 566.739 -0.114487 -6.06592 0
M  V30 6012 H 565.478 0.29307 -4.86819 0
M  V30 6013 H 564.483 -1.99775 -5.12221 0
M  V30 6014 H 565.708 -2.39783 -6.35359 0
M  V30 6015 H 563.654 -0.16314 -6.55797 0
M  V30 6016 H 563.571 -1.69311 -7.36797 0
M  V30 6017 H 564.839 -0.575305 -7.77374 0
M  V30 6018 O 569.107 1.27418 -0.99231 0
M  V30 6019 H 569.798 1.82762 -0.641704 0
M  V30 END ATOM
M  V30 BEGIN BOND
M  V30 END BOND
M  V30 END CTAB
M  END
$$$$
