drugbank_target|Q8WY07 Cationic amino acid transporter 3 (DB00123; DB00125; DB13146)
 OpenBabel12092119253D

  0  0  0     0  0            999 V3000
M  V30 BEGIN CTAB
M  V30 COUNTS 9598 9713 0 0 0
M  V30 BEGIN ATOM
M  V30 1 H -0.908 1.98254 -0.117106 0
M  V30 2 N 0 1.576 0 0
M  V30 3 C 0.933 2.03868 1.02534 0
M  V30 4 C 1.911 0.928543 1.3348 0
M  V30 5 O 3.095 1.19667 1.45644 0
M  V30 6 C 0.222 2.43627 2.35294 0
M  V30 7 C -0.732 3.65373 2.2001 0
M  V30 8 S 0.101 5.13292 1.52614 0
M  V30 9 C 1.257 5.56322 2.86805 0
M  V30 10 H 1.49 2.90518 0.631377 0
M  V30 11 H -0.977 1.52953 0.210867 0
M  V30 12 H 0.981 2.67203 3.11629 0
M  V30 13 H -0.358 1.57376 2.7183 0
M  V30 14 H -1.165 3.90944 3.18086 0
M  V30 15 H -1.563 3.418 1.51819 0
M  V30 16 H 0.729 5.58782 3.83104 0
M  V30 17 H 1.672 6.56266 2.65933 0
M  V30 18 H 2.08 4.83886 2.90714 0
M  V30 19 N 1.4781 -0.272755 1.55222 0
M  V30 20 C 2.8891 -0.84378 1.66545 0
M  V30 21 C 3.2401 -1.87035 0.592641 0
M  V30 22 O 2.3651 -2.14761 -0.265818 0
M  V30 23 C 2.9601 -1.53723 3.01918 0
M  V30 24 C 1.5191 -2.05628 3.15268 0
M  V30 25 C 0.6661 -0.898424 2.62343 0
M  V30 26 H 3.6171 -0.0490998 1.58624 0
M  V30 27 H 3.6381 -2.40421 2.94921 0
M  V30 28 H 3.1501 -0.78983 3.79978 0
M  V30 29 H 1.2511 -2.83329 2.41983 0
M  V30 30 H 1.3641 -2.27142 4.21833 0
M  V30 31 H -0.2719 -1.29186 2.19506 0
M  V30 32 H 0.5111 -0.164528 3.42906 0
M  V30 33 N 2.9562 -1.48159 -0.537278 0
M  V30 34 C 4.2022 -1.57015 -1.29297 0
M  V30 35 C 4.5572 -0.237791 -1.90925 0
M  V30 36 O 3.8502 0.758621 -1.75942 0
M  V30 37 C 4.0442 -2.63956 -2.40961 0
M  V30 38 C 3.8732 -4.07461 -1.90278 0
M  V30 39 C 2.6432 -4.74685 -1.73213 0
M  V30 40 C 4.8412 -4.93858 -1.43556 0
M  V30 41 N 2.8232 -6.02633 -1.17078 0
M  V30 42 C 4.1942 -6.11993 -0.993204 0
M  V30 43 C 6.2492 -4.80141 -1.31792 0
M  V30 44 C 4.9522 -7.17923 -0.444872 0
M  V30 45 C 6.9782 -5.86186 -0.783585 0
M  V30 46 C 6.3402 -7.03524 -0.351261 0
M  V30 47 H 2.4392 -0.629154 -0.464423 0
M  V30 48 H 5.0232 -1.85006 -0.606705 0
M  V30 49 H 3.1942 -2.378 -3.07093 0
M  V30 50 H 4.9262 -2.62539 -3.07986 0
M  V30 51 H 1.6812 -4.30902 -1.9652 0
M  V30 52 H 2.1052 -6.7085 -0.910421 0
M  V30 53 H 6.7472 -3.89772 -1.63823 0
M  V30 54 H 4.4652 -8.08022 -0.11222 0
M  V30 55 H 8.0512 -5.77624 -0.695835 0
M  V30 56 H 6.9312 -7.8418 0.055777 0
M  V30 57 N 4.4343 0.785586 -1.36625 0
M  V30 58 C 5.3663 1.90711 -1.2713 0
M  V30 59 C 6.3793 1.61688 -0.189986 0
M  V30 60 O 7.5683 1.72864 -0.445014 0
M  V30 61 C 4.6683 3.25611 -0.939713 0
M  V30 62 C 3.8413 3.82385 -2.12369 0
M  V30 63 C 2.9003 4.95732 -1.76456 0
M  V30 64 O 1.9263 5.12047 -2.48589 0
M  V30 65 N 3.1283 5.76258 -0.700492 0
M  V30 66 H 5.8933 1.99376 -2.23762 0
M  V30 67 H 3.4543 0.964041 -1.30069 0
M  V30 68 H 5.4463 3.98937 -0.680554 0
M  V30 69 H 4.0163 3.12538 -0.0624074 0
M  V30 70 H 3.2363 3.01001 -2.54543 0
M  V30 71 H 4.5243 4.17047 -2.9146 0
M  V30 72 H 3.9223 5.65609 -0.101624 0
M  V30 73 H 2.4793 6.4987 -0.501165 0
M  V30 74 N 5.9124 1.20967 1.01018 0
M  V30 75 C 6.8754 0.965918 2.07853 0
M  V30 76 C 7.8754 -0.0610545 1.60684 0
M  V30 77 O 9.0654 0.175681 1.73312 0
M  V30 78 C 6.1974 0.455513 3.37843 0
M  V30 79 H 7.3904 1.91365 2.3091 0
M  V30 80 H 4.9434 1.02594 1.17916 0
M  V30 81 H 5.6784 -0.497381 3.20463 0
M  V30 82 H 5.4634 1.19622 3.73407 0
M  V30 83 H 6.9534 0.304667 4.16487 0
M  V30 84 N 7.3905 -1.2043 1.01659 0
M  V30 85 C 8.6375 -1.89797 0.705917 0
M  V30 86 C 8.9655 -1.78848 -0.764439 0
M  V30 87 O 8.2205 -1.16694 -1.57102 0
M  V30 88 C 8.5195 -3.40464 1.08714 0
M  V30 89 C 8.1855 -3.71614 2.5537 0
M  V30 90 C 6.8475 -3.79826 2.95441 0
M  V30 91 C 9.1995 -3.85915 3.50313 0
M  V30 92 C 6.5275 -3.99797 4.29394 0
M  V30 93 C 8.8795 -4.07396 4.83954 0
M  V30 94 C 7.5435 -4.13837 5.23732 0
M  V30 95 H 6.8135 -0.694518 0.258313 0
M  V30 96 H 9.4605 -1.42691 1.27717 0
M  V30 97 H 7.7655 -3.89385 0.434309 0
M  V30 98 H 9.4625 -3.92433 0.824461 0
M  V30 99 H 6.0525 -3.65822 2.23321 0
M  V30 100 H 10.2365 -3.78926 3.20513 0
M  V30 101 H 5.4925 -4.03018 4.59768 0
M  V30 102 H 9.6665 -4.17404 5.57447 0
M  V30 103 H 7.2935 -4.29064 6.27541 0
M  V30 104 N 8.8686 -0.792821 -1.36206 0
M  V30 105 C 10.2846 -0.474903 -1.52371 0
M  V30 106 C 10.4846 1.00622 -1.74578 0
M  V30 107 O 9.5406 1.79162 -1.77924 0
M  V30 108 C 10.8536 -1.3083 -2.70747 0
M  V30 109 C 12.4016 -1.30234 -2.84619 0
M  V30 110 C 12.8766 -2.11956 -4.06004 0
M  V30 111 N 14.3676 -2.09419 -4.13156 0
M  V30 112 C 15.1026 -2.69419 -5.06163 0
M  V30 113 N 14.5986 -3.3829 -6.04592 0
M  V30 114 N 16.3916 -2.59134 -4.98804 0
M  V30 115 H 8.5426 -1.75222 -1.20046 0
M  V30 116 H 10.8056 -0.745024 -0.586211 0
M  V30 117 H 10.5116 -2.35881 -2.6087 0
M  V30 118 H 10.3856 -0.95196 -3.6499 0
M  V30 119 H 12.7726 -0.259748 -2.93955 0
M  V30 120 H 12.8536 -1.69847 -1.91274 0
M  V30 121 H 12.4976 -3.16248 -3.97429 0
M  V30 122 H 12.4276 -1.69711 -4.98503 0
M  V30 123 H 14.9186 -1.59297 -3.42685 0
M  V30 124 H 15.2316 -3.81394 -6.7213 0
M  V30 125 H 13.5766 -3.42393 -6.04807 0
M  V30 126 H 16.7676 -2.04927 -4.20859 0
M  V30 127 H 16.9406 -3.06185 -5.711 0
M  V30 128 N 10.3467 1.47872 -0.545128 0
M  V30 129 C 11.7627 1.5829 -0.204032 0
M  V30 130 C 11.9627 1.54529 1.29317 0
M  V30 131 O 11.0187 1.44232 2.07252 0
M  V30 132 C 12.3317 2.89304 -0.819987 0
M  V30 133 C 13.8797 3.02864 -0.790105 0
M  V30 134 C 14.3547 4.3656 -1.38491 0
M  V30 135 N 15.8457 4.43165 -1.34755 0
M  V30 136 C 16.5807 5.45153 -1.77753 0
M  V30 137 N 16.0767 6.54016 -2.2855 0
M  V30 138 N 17.8697 5.36125 -1.68897 0
M  V30 139 H 10.0207 1.4856 -1.51802 0
M  V30 140 H 12.2837 0.706305 -0.632327 0
M  V30 141 H 11.9897 2.97757 -1.87173 0
M  V30 142 H 11.8637 3.75957 -0.305915 0
M  V30 143 H 14.2507 2.94014 0.252913 0
M  V30 144 H 14.3317 2.17782 -1.34181 0
M  V30 145 H 13.9757 4.46164 -2.42693 0
M  V30 146 H 13.9057 5.20353 -0.808754 0
M  V30 147 H 16.3967 3.65083 -0.975855 0
M  V30 148 H 16.7097 7.27994 -2.59314 0
M  V30 149 H 15.0547 6.54938 -2.32553 0
M  V30 150 H 18.2457 4.49975 -1.28998 0
M  V30 151 H 18.4187 6.15472 -2.02726 0
M  V30 152 N 11.8248 0.280983 1.55075 0
M  V30 153 C 13.0718 -0.334115 1.99725 0
M  V30 154 C 13.3998 -1.5542 1.1694 0
M  V30 155 O 12.6548 -1.94361 0.228531 0
M  V30 156 C 12.9538 -0.754656 3.49342 0
M  V30 157 C 12.6198 0.361445 4.49449 0
M  V30 158 C 11.2818 0.667893 4.76542 0
M  V30 159 C 13.6338 1.11322 5.09173 0
M  V30 160 C 10.9618 1.7296 5.60626 0
M  V30 161 C 13.3138 2.1647 5.9441 0
M  V30 162 C 11.9778 2.47742 6.19822 0
M  V30 163 H 11.2478 -0.122261 0.730844 0
M  V30 164 H 13.8948 0.395917 1.87363 0
M  V30 165 H 12.1998 -1.56446 3.5921 0
M  V30 166 H 13.8968 -1.24142 3.813 0
M  V30 167 H 10.4868 0.112481 4.28452 0
M  V30 168 H 14.6708 0.88973 4.8826 0
M  V30 169 H 9.9268 1.97684 5.78559 0
M  V30 170 H 14.1008 2.75193 6.3972 0
M  V30 171 H 11.7278 3.30145 6.84769 0
M  V30 172 N 13.3029 -1.57598 0.00835791 0
M  V30 173 C 14.5509 -1.90551 -0.6734 0
M  V30 174 C 14.8719 -0.883301 -1.73847 0
M  V30 175 O 14.1419 0.0781442 -1.95744 0
M  V30 176 H 12.7219 -0.703312 -0.251717 0
M  V30 177 H 15.3839 -1.94833 0.0512592 0
M  V30 178 H 14.4799 -2.9056 -1.13935 0
M  V30 179 N 14.781 0.264519 -1.55364 0
M  V30 180 C 15.713 1.34965 -1.85248 0
M  V30 181 C 16.726 1.45136 -0.737525 0
M  V30 182 O 17.915 1.46801 -1.01547 0
M  V30 183 C 15.015 2.73008 -2.00797 0
M  V30 184 C 14.188 2.85324 -3.31525 0
M  V30 185 C 13.247 4.04097 -3.37034 0
M  V30 186 O 12.273 3.94455 -4.10358 0
M  V30 187 N 13.475 5.16458 -2.65049 0
M  V30 188 H 16.24 1.09672 -2.78913 0
M  V30 189 H 13.801 0.454635 -1.55386 0
M  V30 190 H 15.793 3.50772 -2.01844 0
M  V30 191 H 14.363 2.91087 -1.1396 0
M  V30 192 H 13.583 1.94377 -3.42945 0
M  V30 193 H 14.871 2.9049 -4.17724 0
M  V30 194 H 14.269 5.27181 -2.05175 0
M  V30 195 H 12.826 5.92422 -2.71809 0
M  V30 196 N 16.2591 1.48442 0.529413 0
M  V30 197 C 17.2061 1.63007 1.63394 0
M  V30 198 C 18.1761 0.47212 1.59249 0
M  V30 199 O 19.3611 0.695673 1.77666 0
M  V30 200 C 16.5011 1.6763 3.01653 0
M  V30 201 C 15.6141 2.94535 3.16027 0
M  V30 202 C 14.7491 2.90316 4.44849 0
M  V30 203 C 13.7881 4.11923 4.52754 0
M  V30 204 N 12.9251 4.05777 5.72965 0
M  V30 205 H 17.7651 2.5733 1.50285 0
M  V30 206 H 15.3021 1.27613 0.731656 0
M  V30 207 H 17.2601 1.68292 3.81751 0
M  V30 208 H 15.8901 0.76797 3.13532 0
M  V30 209 H 14.9421 3.03615 2.29177 0
M  V30 210 H 16.2541 3.84512 3.17729 0
M  V30 211 H 15.4081 2.89382 5.33238 0
M  V30 212 H 14.1471 1.98068 4.45668 0
M  V30 213 H 13.1521 4.13131 3.62771 0
M  V30 214 H 14.3771 5.0533 4.53672 0
M  V30 215 H 12.3231 3.16351 5.74681 0
M  V30 216 H 12.2401 4.8946 5.76164 0
M  V30 217 H 13.5081 4.08904 6.6364 0
M  V30 218 N 17.7372 -0.778329 1.37039 0
M  V30 219 C 18.6672 -1.90546 1.34962 0
M  V30 220 C 19.6482 -1.68681 0.219274 0
M  V30 221 O 20.8332 -1.89634 0.418624 0
M  V30 222 C 17.9632 -3.27734 1.14925 0
M  V30 223 C 16.9172 -3.64147 2.24902 0
M  V30 224 C 16.2432 -4.99806 1.89996 0
M  V30 225 C 17.5432 -3.71579 3.67051 0
M  V30 226 H 19.2372 -1.92541 2.29277 0
M  V30 227 H 16.7832 -0.924948 1.10366 0
M  V30 228 H 18.7362 -4.06215 1.12104 0
M  V30 229 H 17.4602 -3.26154 0.170631 0
M  V30 230 H 16.1192 -2.8797 2.26868 0
M  V30 231 H 15.7672 -4.94759 0.906796 0
M  V30 232 H 15.4672 -5.25139 2.63634 0
M  V30 233 H 16.9912 -5.80694 1.88749 0
M  V30 234 H 18.4052 -4.40227 3.67251 0
M  V30 235 H 16.8022 -4.08405 4.39688 0
M  V30 236 H 17.8722 -2.72404 4.01154 0
M  V30 237 N 19.2153 -1.21501 -1.00376 0
M  V30 238 C 20.4613 -1.03452 -1.74429 0
M  V30 239 C 20.7943 0.430764 -1.89362 0
M  V30 240 O 20.0693 1.31962 -1.42886 0
M  V30 241 C 20.3523 -1.73375 -3.15615 0
M  V30 242 C 20.2053 -3.27431 -3.08397 0
M  V30 243 C 21.5243 -1.47732 -4.14564 0
M  V30 244 H 18.6433 -0.377226 -0.633143 0
M  V30 245 H 21.2853 -1.49693 -1.17013 0
M  V30 246 H 19.4353 -1.34064 -3.64636 0
M  V30 247 H 21.1073 -3.76119 -2.67081 0
M  V30 248 H 19.3503 -3.5767 -2.45468 0
M  V30 249 H 20.0213 -3.71524 -4.08258 0
M  V30 250 H 22.4973 -1.8186 -3.74254 0
M  V30 251 H 21.3733 -1.99169 -5.11491 0
M  V30 252 H 21.6343 -0.407589 -4.40217 0
M  V30 253 N 20.6934 1.19889 -1.02296 0
M  V30 254 C 22.1094 1.41462 -0.738954 0
M  V30 255 C 22.3094 1.89721 0.678846 0
M  V30 256 O 21.3654 2.07016 1.4457 0
M  V30 257 C 22.6784 2.43083 -1.77005 0
M  V30 258 C 24.2264 2.5684 -1.78892 0
M  V30 259 C 24.7014 3.61709 -2.80945 0
M  V30 260 N 26.1924 3.69199 -2.79725 0
M  V30 261 C 26.9274 4.50019 -3.55345 0
M  V30 262 N 26.4234 5.34592 -4.40662 0
M  V30 263 N 28.2164 4.44612 -3.43914 0
M  V30 264 H 20.3674 0.868827 -1.93817 0
M  V30 265 H 22.6304 0.44399 -0.837602 0
M  V30 266 H 22.3364 2.14636 -2.78612 0
M  V30 267 H 22.2104 3.4217 -1.58744 0
M  V30 268 H 24.5974 2.84614 -0.779674 0
M  V30 269 H 24.6784 1.57927 -2.01228 0
M  V30 270 H 24.3224 3.34678 -3.82038 0
M  V30 271 H 24.2524 4.60259 -2.5587 0
M  V30 272 H 26.7434 3.08794 -2.17842 0
M  V30 273 H 27.0564 5.93363 -4.95116 0
M  V30 274 H 25.4014 5.34073 -4.44737 0
M  V30 275 H 28.5924 3.7758 -2.76679 0
M  V30 276 H 28.7654 5.0736 -4.031 0
M  V30 277 N 22.1715 0.800033 1.35784 0
M  V30 278 C 23.5875 0.482977 1.52117 0
M  V30 279 C 23.7875 -0.996948 1.75109 0
M  V30 280 O 22.8435 -1.78216 1.78872 0
M  V30 281 C 24.1565 1.32264 2.70049 0
M  V30 282 C 25.7045 1.31742 2.83924 0
M  V30 283 C 26.1795 2.14106 4.04874 0
M  V30 284 N 27.6705 2.11607 4.12039 0
M  V30 285 C 28.4055 2.72099 5.04727 0
M  V30 286 N 27.9015 3.41492 6.02789 0
M  V30 287 N 29.6945 2.61776 4.97423 0
M  V30 288 H 21.8455 1.75856 1.19115 0
M  V30 289 H 24.1085 0.748122 0.582252 0
M  V30 290 H 23.8145 2.37261 2.59616 0
M  V30 291 H 23.6885 0.971303 3.6448 0
M  V30 292 H 26.0755 0.275333 2.93813 0
M  V30 293 H 26.1565 1.70859 1.9037 0
M  V30 294 H 25.8005 3.18351 3.95746 0
M  V30 295 H 25.7305 1.72353 4.97596 0
M  V30 296 H 28.2215 1.61112 3.41835 0
M  V30 297 H 28.5345 3.84953 6.70098 0
M  V30 298 H 26.8795 3.45596 6.02983 0
M  V30 299 H 30.0705 2.07157 4.19766 0
M  V30 300 H 30.2435 3.0921 5.69468 0
M  V30 301 N 23.6496 -1.47581 0.552962 0
M  V30 302 C 25.0656 -1.5818 0.212424 0
M  V30 303 C 25.2656 -1.55213 -1.28496 0
M  V30 304 O 24.3216 -1.45329 -2.06484 0
M  V30 305 C 25.6346 -2.88865 0.835318 0
M  V30 306 C 27.1826 -3.0244 0.806156 0
M  V30 307 C 27.6576 -4.35819 1.40804 0
M  V30 308 N 29.1486 -4.42444 1.37103 0
M  V30 309 C 29.8836 -5.44202 1.80641 0
M  V30 310 N 29.3796 -6.52795 2.32015 0
M  V30 311 N 31.1726 -5.35222 1.71738 0
M  V30 312 H 23.3236 -1.47753 1.52587 0
M  V30 313 H 25.5866 -0.702941 0.636064 0
M  V30 314 H 25.2926 -2.9676 1.88749 0
M  V30 315 H 25.1666 -3.7579 0.325848 0
M  V30 316 H 27.5536 -2.94144 -0.237317 0
M  V30 317 H 27.6346 -2.17068 1.35334 0
M  V30 318 H 27.2786 -4.44871 2.45056 0
M  V30 319 H 27.2086 -5.19916 0.836338 0
M  V30 320 H 29.6996 -3.6456 0.995202 0
M  V30 321 H 30.0126 -7.26609 2.63171 0
M  V30 322 H 28.3576 -6.53696 2.36023 0
M  V30 323 H 31.5486 -4.49284 1.31382 0
M  V30 324 H 31.7216 -6.14389 2.05987 0
M  V30 325 N 25.1277 -0.289203 -1.54924 0
M  V30 326 C 26.3557 0.326463 -2.04308 0
M  V30 327 C 26.7707 1.48413 -1.16701 0
M  V30 328 O 26.1277 1.81507 -0.190087 0
M  V30 329 C 26.1787 0.794014 -3.52672 0
M  V30 330 O 25.8997 -0.317564 -4.36948 0
M  V30 331 C 27.4007 1.47605 -4.18004 0
M  V30 332 H 24.6207 0.0726272 -0.667058 0
M  V30 333 H 27.1647 -0.425401 -2.00026 0
M  V30 334 H 25.3197 1.49593 -3.57352 0
M  V30 335 H 25.7337 0.0443186 -5.24481 0
M  V30 336 H 27.2077 1.75447 -5.23376 0
M  V30 337 H 27.6847 2.41224 -3.67025 0
M  V30 338 H 28.2907 0.81762 -4.17367 0
M  V30 339 N 26.6058 1.57591 -0.0167156 0
M  V30 340 C 27.5358 2.12496 0.967858 0
M  V30 341 C 28.5168 1.03807 1.34752 0
M  V30 342 O 29.7018 1.31577 1.42833 0
M  V30 343 C 26.8318 2.64194 2.25431 0
M  V30 344 C 25.7858 3.77559 2.01576 0
M  V30 345 C 25.1118 4.15636 3.36379 0
M  V30 346 C 26.4118 5.04151 1.36489 0
M  V30 347 H 28.1058 2.95013 0.510643 0
M  V30 348 H 25.6518 1.41915 0.244181 0
M  V30 349 H 27.6048 3.01236 2.94678 0
M  V30 350 H 26.3288 1.78821 2.73296 0
M  V30 351 H 24.9878 3.40937 1.34751 0
M  V30 352 H 24.6358 3.27263 3.81979 0
M  V30 353 H 24.3358 4.92022 3.21229 0
M  V30 354 H 25.8598 4.5525 4.06915 0
M  V30 355 H 27.2738 5.38857 1.95718 0
M  V30 356 H 25.6708 5.85453 1.31776 0
M  V30 357 H 26.7408 4.83733 0.336219 0
M  V30 358 N 28.0839 -0.256276 1.55502 0
M  V30 359 C 28.9939 -1.33882 1.92647 0
M  V30 360 C 30.0099 -1.53159 0.825727 0
M  V30 361 O 31.1859 -1.66963 1.12629 0
M  V30 362 C 28.2509 -2.6751 2.20543 0
M  V30 363 C 27.3119 -2.56836 3.43997 0
M  V30 364 C 26.5449 -3.84092 3.70553 0
M  V30 365 O 26.7679 -4.85545 2.99336 0
M  V30 366 O 25.7019 -3.83288 4.64084 0
M  V30 367 H 29.5279 -1.05374 2.84833 0
M  V30 368 H 27.1129 -0.456237 1.42263 0
M  V30 369 H 28.9949 -3.46492 2.39835 0
M  V30 370 H 27.6699 -2.9577 1.31536 0
M  V30 371 H 26.5769 -1.76172 3.30021 0
M  V30 372 H 27.9099 -2.33523 4.33275 0
M  V30 373 N 29.562 -1.4872 -0.521534 0
M  V30 374 C 30.787 -1.61101 -1.30618 0
M  V30 375 C 31.212 -0.274611 -1.86085 0
M  V30 376 O 30.57 0.754937 -1.64834 0
M  V30 377 C 30.618 -2.66709 -2.4269 0
M  V30 378 O 29.722 -2.24456 -3.45967 0
M  V30 379 H 29.063 -0.539921 -0.386499 0
M  V30 380 H 31.593 -1.94767 -0.626645 0
M  V30 381 H 31.603 -2.88245 -2.88754 0
M  V30 382 H 30.278 -3.63727 -2.01682 0
M  V30 383 H 28.855 -2.13168 -3.05964 0
M  V30 384 N 31.0401 0.771051 -1.3745 0
M  V30 385 C 32.2881 1.52661 -1.32435 0
M  V30 386 C 32.6091 1.9479 0.0905024 0
M  V30 387 O 31.8791 1.66348 1.03466 0
M  V30 388 H 30.4591 0.566218 -0.487244 0
M  V30 389 H 33.1211 0.917636 -1.71946 0
M  V30 390 H 32.2171 2.42568 -1.96385 0
M  V30 391 N 32.5182 1.22032 0.997298 0
M  V30 392 C 33.4512 0.929735 2.08401 0
M  V30 393 C 34.4292 -0.125681 1.62114 0
M  V30 394 O 35.6132 0.00495409 1.88499 0
M  V30 395 C 32.7402 0.397488 3.3636 0
M  V30 396 C 31.7862 1.4369 4.01566 0
M  V30 397 S 32.6192 3.00874 4.42984 0
M  V30 398 C 33.7752 2.49276 5.74119 0
M  V30 399 H 34.0082 1.84998 2.32729 0
M  V30 400 H 31.5412 1.0509 1.13117 0
M  V30 401 H 33.4992 0.0969846 4.10385 0
M  V30 402 H 32.1602 -0.501571 3.10069 0
M  V30 403 H 31.3532 1.01427 4.93689 0
M  V30 404 H 30.9552 1.68588 3.33847 0
M  V30 405 H 33.2472 1.90242 6.50242 0
M  V30 406 H 34.1902 3.39872 6.21203 0
M  V30 407 H 34.5982 1.90714 5.31308 0
M  V30 408 N 33.9963 -1.19345 1.0293 0
M  V30 409 C 34.9593 -2.20793 0.615069 0
M  V30 410 C 35.9593 -1.57553 -0.321533 0
M  V30 411 O 37.1493 -1.73862 -0.108483 0
M  V30 412 C 34.2813 -3.40754 -0.0999222 0
M  V30 413 H 35.4743 -2.58955 1.51269 0
M  V30 414 H 33.0273 -1.3303 0.820534 0
M  V30 415 H 33.7623 -3.0811 -1.01187 0
M  V30 416 H 33.5473 -3.87889 0.57309 0
M  V30 417 H 35.0373 -4.15898 -0.376645 0
M  V30 418 N 35.4744 -0.807222 -1.35358 0
M  V30 419 C 36.3844 -0.219594 -2.3357 0
M  V30 420 C 37.4004 0.637734 -1.61892 0
M  V30 421 O 38.5764 0.549336 -1.93763 0
M  V30 422 C 35.6414 0.62158 -3.41083 0
M  V30 423 C 34.7024 -0.256315 -4.28534 0
M  V30 424 C 33.9354 0.544807 -5.30912 0
M  V30 425 O 34.1584 1.77944 -5.41934 0
M  V30 426 O 33.0924 -0.0646478 -6.01865 0
M  V30 427 H 36.9184 -1.03208 -2.85625 0
M  V30 428 H 34.5034 -0.569025 -1.38139 0
M  V30 429 H 36.3854 1.10067 -4.06772 0
M  V30 430 H 35.0604 1.41165 -2.91297 0
M  V30 431 H 33.9674 -0.782559 -3.65823 0
M  V30 432 H 35.3004 -1.01034 -4.81719 0
M  V30 433 N 36.9525 1.47285 -0.560781 0
M  V30 434 C 38.1805 2.06855 -0.0430262 0
M  V30 435 C 38.5955 1.41291 1.25229 0
M  V30 436 O 37.9525 0.510648 1.7521 0
M  V30 437 C 38.0035 3.61178 0.152518 0
M  V30 438 O 37.7245 4.24285 -1.0915 0
M  V30 439 C 39.2255 4.37624 0.707145 0
M  V30 440 H 36.4455 0.669319 -0.0474652 0
M  V30 441 H 38.9895 1.89237 -0.77521 0
M  V30 442 H 37.1445 3.78298 0.834843 0
M  V30 443 H 37.5585 5.16868 -0.891482 0
M  V30 444 H 39.0325 5.46271 0.793244 0
M  V30 445 H 39.5095 4.04152 1.71923 0
M  V30 446 H 40.1155 4.25257 0.0604027 0
M  V30 447 N 38.4306 0.297415 1.54768 0
M  V30 448 C 39.8466 -0.0560823 1.59501 0
M  V30 449 C 40.0466 -1.52725 1.31444 0
M  V30 450 O 39.1026 -2.27947 1.08611 0
M  V30 451 C 40.4156 0.338631 2.98787 0
M  V30 452 C 41.9636 0.287097 3.11681 0
M  V30 453 C 42.4386 0.656579 4.53269 0
M  V30 454 N 43.9296 0.608977 4.59179 0
M  V30 455 C 44.6646 0.867385 5.66802 0
M  V30 456 N 44.1606 1.19157 6.82476 0
M  V30 457 N 45.9536 0.794687 5.56454 0
M  V30 458 H 38.1046 1.25624 1.71267 0
M  V30 459 H 40.3676 0.509057 0.799728 0
M  V30 460 H 40.0736 1.36263 3.2423 0
M  V30 461 H 39.9476 -0.309508 3.75928 0
M  V30 462 H 42.3346 -0.727649 2.85988 0
M  V30 463 H 42.4156 0.969809 2.36703 0
M  V30 464 H 42.0596 1.66912 4.7969 0
M  V30 465 H 41.9896 -0.0481649 5.26578 0
M  V30 466 H 44.4806 0.369198 3.76092 0
M  V30 467 H 44.7936 1.37482 7.60473 0
M  V30 468 H 43.1386 1.22958 6.84037 0
M  V30 469 H 46.3296 0.541098 4.64962 0
M  V30 470 H 46.5026 0.999445 6.40246 0
M  V30 471 N 39.9087 -1.5758 0.0250728 0
M  V30 472 C 40.8387 -2.13007 -0.956575 0
M  V30 473 C 41.8197 -1.0452 -1.342 0
M  V30 474 O 43.0047 -1.32332 -1.42133 0
M  V30 475 C 40.1347 -2.65386 -2.24026 0
M  V30 476 C 39.0887 -3.78623 -1.99571 0
M  V30 477 C 38.4147 -4.17414 -3.3417 0
M  V30 478 C 39.7147 -5.04867 -1.33814 0
M  V30 479 H 41.4087 -2.9528 -0.494991 0
M  V30 480 H 38.9547 -1.42042 -0.236651 0
M  V30 481 H 40.9077 -3.02794 -2.93076 0
M  V30 482 H 39.6317 -1.80268 -2.72343 0
M  V30 483 H 38.2907 -3.41646 -1.32941 0
M  V30 484 H 37.9387 -3.29284 -3.80238 0
M  V30 485 H 37.6387 -4.93719 -3.18615 0
M  V30 486 H 39.1627 -4.57402 -4.04495 0
M  V30 487 H 40.5767 -5.39888 -1.92857 0
M  V30 488 H 38.9737 -5.86144 -1.28669 0
M  V30 489 H 40.0437 -4.83904 -0.310561 0
M  V30 490 N 41.3868 0.248026 -1.55636 0
M  V30 491 C 42.3498 1.29044 -1.89421 0
M  V30 492 C 43.3498 1.41134 -0.770581 0
M  V30 493 O 44.5398 1.39854 -1.03858 0
M  V30 494 C 41.6718 2.66831 -2.12165 0
M  V30 495 H 42.8648 1.00305 -2.82629 0
M  V30 496 H 40.4178 0.487265 -1.48511 0
M  V30 497 H 41.1528 3.00711 -1.21422 0
M  V30 498 H 40.9378 2.59438 -2.93997 0
M  V30 499 H 42.4278 3.42103 -2.3949 0
M  V30 500 N 42.8649 1.48995 0.513639 0
M  V30 501 C 44.2809 1.35478 0.843682 0
M  V30 502 C 44.4809 0.378213 1.97919 0
M  V30 503 O 43.5369 -0.194689 2.51748 0
M  V30 504 C 44.8499 2.75901 1.1958 0
M  V30 505 C 46.3979 2.84509 1.30474 0
M  V30 506 C 46.8729 4.25671 1.69021 0
M  V30 507 N 48.3639 4.28422 1.76094 0
M  V30 508 C 49.0989 5.34601 2.07338 0
M  V30 509 N 48.5949 6.5104 2.36894 0
M  V30 510 N 50.3879 5.22007 2.08483 0
M  V30 511 H 42.5389 2.11092 -0.235328 0
M  V30 512 H 44.8019 0.947039 -0.0426669 0
M  V30 513 H 44.5079 3.49001 0.434913 0
M  V30 514 H 44.3819 3.10467 2.1422 0
M  V30 515 H 46.7689 2.11655 2.05637 0
M  V30 516 H 46.8499 2.53542 0.339155 0
M  V30 517 H 46.4939 4.99048 0.944135 0
M  V30 518 H 46.4239 4.54094 2.66658 0
M  V30 519 H 48.9149 3.44441 1.55464 0
M  V30 520 H 49.2279 7.2779 2.59887 0
M  V30 521 H 47.5729 6.54287 2.34378 0
M  V30 522 H 50.7639 4.30051 1.84861 0
M  V30 523 H 50.9369 6.04854 2.325 0
M  V30 524 N 44.343 -0.763751 1.37857 0
M  V30 525 C 45.583 -1.53551 1.34913 0
M  V30 526 C 45.947 -1.91895 -0.0635882 0
M  V30 527 O 47.148 -2.67916 -0.217825 0
M  V30 528 C 45.419 -2.76126 2.26912 0
M  V30 529 S 46.978 -3.66105 2.41893 0
M  V30 530 H 43.796 -0.52559 0.478828 0
M  V30 531 H 46.398 -0.897435 1.73685 0
M  V30 532 H 45.102 -2.4605 3.28463 0
M  V30 533 H 44.633 -3.44887 1.89253 0
M  V30 534 H 46.648 -4.68473 1.63545 0
M  V30 535 N 45.8211 -1.22559 -0.990812 0
M  V30 536 C 46.7511 -1.0218 -2.09956 0
M  V30 537 C 47.7321 0.0579394 -1.70001 0
M  V30 538 O 48.9171 -0.104684 -1.93918 0
M  V30 539 C 46.0471 -0.601023 -3.4206 0
M  V30 540 C 45.0011 -1.62694 -3.95872 0
M  V30 541 C 44.3271 -1.06193 -5.24049 0
M  V30 542 C 45.6271 -3.01743 -4.2632 0
M  V30 543 H 47.3211 -1.94916 -2.27262 0
M  V30 544 H 44.8671 -0.938566 -1.09211 0
M  V30 545 H 46.8201 -0.445561 -4.19038 0
M  V30 546 H 45.5441 0.362005 -3.24588 0
M  V30 547 H 44.2031 -1.77021 -3.21028 0
M  V30 548 H 43.8511 -0.0901903 -5.02919 0
M  V30 549 H 43.5511 -1.74732 -5.61019 0
M  V30 550 H 45.0751 -0.918092 -6.03658 0
M  V30 551 H 46.4891 -2.90777 -4.94087 0
M  V30 552 H 44.8861 -3.67425 -4.74467 0
M  V30 553 H 45.9561 -3.51518 -3.34011 0
M  V30 554 N 47.2992 1.18797 -1.03562 0
M  V30 555 C 48.5242 1.9314 -0.755764 0
M  V30 556 C 48.9492 1.7537 0.68022 0
M  V30 557 O 48.3072 1.06046 1.47051 0
M  V30 558 C 48.3552 3.42747 -1.12058 0
M  V30 559 O 47.4592 4.11683 -0.243124 0
M  V30 560 H 46.8002 0.602724 -0.278604 0
M  V30 561 H 49.3302 1.50678 -1.3841 0
M  V30 562 H 49.3402 3.93437 -1.08035 0
M  V30 563 H 48.0152 3.55002 -2.16672 0
M  V30 564 H 46.5922 3.71323 -0.342539 0
M  V30 565 N 48.7773 0.814389 1.34928 0
M  V30 566 C 50.0053 0.411136 2.02774 0
M  V30 567 C 50.4203 -0.980316 1.61354 0
M  V30 568 O 49.7773 -1.63299 0.814847 0
M  V30 569 C 49.8283 0.493865 3.58111 0
M  V30 570 O 49.5493 1.83047 3.98027 0
M  V30 571 C 51.0503 0.0844174 4.4322 0
M  V30 572 H 48.2703 0.166037 0.650133 0
M  V30 573 H 50.8143 1.10018 1.72384 0
M  V30 574 H 48.9693 -0.147006 3.87121 0
M  V30 575 H 49.3833 1.79872 4.92693 0
M  V30 576 H 50.8573 0.193404 5.51661 0
M  V30 577 H 51.3343 -0.97113 4.28329 0
M  V30 578 H 51.9403 0.69875 4.19521 0
M  V30 579 N 50.2554 -1.46986 0.568584 0
M  V30 580 C 51.1854 -2.32946 -0.160753 0
M  V30 581 C 52.1664 -1.44487 -0.897631 0
M  V30 582 O 53.3514 -1.73327 -0.875867 0
M  V30 583 C 50.4814 -3.26494 -1.18403 0
M  V30 584 C 49.4354 -4.24282 -0.562895 0
M  V30 585 C 48.7614 -5.07236 -1.69163 0
M  V30 586 C 50.0614 -5.19989 0.490761 0
M  V30 587 H 51.7554 -2.94175 0.556916 0
M  V30 588 H 49.3014 -1.4146 0.26927 0
M  V30 589 H 51.2544 -3.85477 -1.70251 0
M  V30 590 H 49.9784 -2.63343 -1.93179 0
M  V30 591 H 48.6374 -3.66541 -0.0656164 0
M  V30 592 H 48.2854 -4.4048 -2.42871 0
M  V30 593 H 47.9854 -5.7345 -1.28174 0
M  V30 594 H 49.5094 -5.6908 -2.21314 0
M  V30 595 H 50.9234 -5.73271 0.0579047 0
M  V30 596 H 49.3204 -5.94469 0.820165 0
M  V30 597 H 50.3904 -4.64777 1.3824 0
M  V30 598 N 51.7335 -0.305618 -1.54608 0
M  V30 599 C 53.0105 0.355652 -1.92339 0
M  V30 600 C 53.3905 1.71324 -1.23335 0
M  V30 601 O 52.7385 2.25473 -0.370702 0
M  V30 602 C 52.9485 0.46572 -3.45879 0
M  V30 603 C 54.2965 0.734426 -4.182 0
M  V30 604 O 55.3205 0.54935 -3.51938 0
M  V30 605 O 54.1795 1.09024 -5.35515 0
M  V30 606 H 51.2735 0.199666 -0.802535 0
M  V30 607 H 53.8195 -0.354017 -1.65966 0
M  V30 608 H 52.5915 -0.488461 -3.88239 0
M  V30 609 H 52.2145 1.22367 -3.78301 0
M  V30 610 N 53.2116 1.57565 -0.0334293 0
M  V30 611 C 54.1416 2.13511 0.945265 0
M  V30 612 C 55.1226 1.05231 1.33643 0
M  V30 613 O 56.3076 1.33084 1.41429 0
M  V30 614 C 53.4376 2.6657 2.22616 0
M  V30 615 C 52.3916 3.79676 1.97561 0
M  V30 616 C 51.7176 4.1918 3.31952 0
M  V30 617 C 53.0176 5.0557 1.31135 0
M  V30 618 H 54.7116 2.95538 0.479325 0
M  V30 619 H 52.2576 1.42166 0.229115 0
M  V30 620 H 54.2106 3.04344 2.91466 0
M  V30 621 H 52.9346 1.8171 2.71384 0
M  V30 622 H 51.5936 3.42347 1.31127 0
M  V30 623 H 51.2416 3.31296 3.78487 0
M  V30 624 H 50.9416 4.95402 3.15992 0
M  V30 625 H 52.4656 4.59541 4.02063 0
M  V30 626 H 53.8796 5.40903 1.89992 0
M  V30 627 H 52.2766 5.86818 1.25559 0
M  V30 628 H 53.3466 4.84062 0.284894 0
M  V30 629 N 54.6897 -0.239769 1.55765 0
M  V30 630 C 55.9357 -0.968234 1.78194 0
M  V30 631 C 56.2687 -1.84701 0.599938 0
M  V30 632 O 55.5437 -1.9031 -0.401524 0
M  V30 633 C 55.8267 -1.8227 3.10564 0
M  V30 634 C 55.6797 -0.971633 4.3918 0
M  V30 635 C 56.9987 -2.80388 3.39221 0
M  V30 636 H 54.1177 -0.350572 0.648281 0
M  V30 637 H 56.7597 -0.238259 1.885 0
M  V30 638 H 54.9097 -2.44507 3.01908 0
M  V30 639 H 56.5817 -0.367408 4.59835 0
M  V30 640 H 54.8247 -0.276276 4.32919 0
M  V30 641 H 55.4957 -1.60346 5.28198 0
M  V30 642 H 57.9717 -2.28287 3.47885 0
M  V30 643 H 56.8477 -3.3729 4.33044 0
M  V30 644 H 57.1087 -3.57212 2.60484 0
M  V30 645 N 56.1678 -1.49265 -0.50573 0
M  V30 646 C 57.1308 -1.65075 -1.59006 0
M  V30 647 C 58.1308 -0.522768 -1.52065 0
M  V30 648 O 59.3208 -0.789117 -1.55302 0
M  V30 649 C 56.4528 -1.64369 -2.98656 0
M  V30 650 H 57.6458 -2.61784 -1.46319 0
M  V30 651 H 55.1988 -1.38226 -0.729616 0
M  V30 652 H 55.9338 -0.692272 -3.16825 0
M  V30 653 H 55.7188 -2.46282 -3.05103 0
M  V30 654 H 57.2088 -1.78674 -3.77446 0
M  V30 655 N 57.6459 0.756429 -1.3826 0
M  V30 656 C 58.5759 1.88374 -1.37976 0
M  V30 657 C 59.5569 1.68311 -0.246082 0
M  V30 658 O 60.7419 1.88944 -0.44874 0
M  V30 659 C 57.8719 3.25864 -1.20125 0
M  V30 660 C 56.8259 3.60523 -2.30666 0
M  V30 661 C 56.1519 4.9672 -1.97923 0
M  V30 662 C 57.4519 3.65692 -3.72916 0
M  V30 663 H 59.1459 1.88869 -2.32312 0
M  V30 664 H 56.6919 0.907272 -1.11824 0
M  V30 665 H 58.6449 4.0438 -1.18552 0
M  V30 666 H 57.3689 3.25841 -0.222498 0
M  V30 667 H 56.0279 2.84324 -2.3142 0
M  V30 668 H 55.6759 4.93253 -0.985393 0
M  V30 669 H 55.3759 5.20878 -2.71955 0
M  V30 670 H 56.8999 5.77618 -1.97964 0
M  V30 671 H 58.3139 4.34328 -3.74208 0
M  V30 672 H 56.7109 4.01358 -4.4613 0
M  V30 673 H 57.7809 2.65987 -4.05436 0
M  V30 674 N 59.124 1.23083 0.984299 0
M  V30 675 C 60.372 1.05848 1.72165 0
M  V30 676 C 60.693 -0.406049 1.90726 0
M  V30 677 O 59.963 -1.29139 1.47309 0
M  V30 678 H 58.543 0.388685 0.637913 0
M  V30 679 H 61.205 1.54736 1.18503 0
M  V30 680 H 60.301 1.54327 2.71274 0
M  V30 681 N 60.6021 -1.18246 1.0419 0
M  V30 682 C 61.8481 -1.88536 0.747122 0
M  V30 683 C 62.1811 -1.80223 -0.723409 0
M  V30 684 O 61.4561 -1.20337 -1.52804 0
M  V30 685 C 61.7391 -3.38968 1.21544 0
M  V30 686 C 61.5921 -3.56084 2.74816 0
M  V30 687 C 62.9111 -4.32648 0.806482 0
M  V30 688 H 60.0301 -0.684619 0.272883 0
M  V30 689 H 62.6721 -1.39113 1.29413 0
M  V30 690 H 60.8221 -3.8119 0.750081 0
M  V30 691 H 62.4941 -3.22946 3.29399 0
M  V30 692 H 60.7371 -2.98699 3.14582 0
M  V30 693 H 61.4081 -4.61639 3.02644 0
M  V30 694 H 63.8841 -3.98211 1.20695 0
M  V30 695 H 62.7601 -5.36462 1.1619 0
M  V30 696 H 63.0211 -4.41146 -0.29029 0
M  V30 697 N 62.0802 -0.821533 -1.34494 0
M  V30 698 C 63.3282 -0.408139 -1.97936 0
M  V30 699 C 63.6492 1.03193 -1.65457 0
M  V30 700 O 62.9192 1.71622 -0.944595 0
M  V30 701 H 61.4992 -0.147928 -0.732206 0
M  V30 702 H 64.1612 -1.05067 -1.64155 0
M  V30 703 H 63.2572 -0.52601 -3.07635 0
M  V30 704 N 63.5583 1.46682 -0.576371 0
M  V30 705 C 64.7833 2.07304 -0.0630475 0
M  V30 706 C 65.2083 1.42329 1.2298 0
M  V30 707 O 64.5663 0.504865 1.74129 0
M  V30 708 C 64.6143 3.60472 0.095895 0
M  V30 709 O 63.7183 3.95927 1.15394 0
M  V30 710 H 63.0593 0.661288 -0.0599463 0
M  V30 711 H 65.5893 1.88417 -0.797511 0
M  V30 712 H 65.5993 4.06865 0.304071 0
M  V30 713 H 64.2743 4.07157 -0.84828 0
M  V30 714 H 62.8513 3.61252 0.924724 0
M  V30 715 N 65.0364 0.313813 1.54444 0
M  V30 716 C 66.2644 -0.293918 2.04802 0
M  V30 717 C 66.6794 -1.46537 1.19047 0
M  V30 718 O 66.0364 -1.81182 0.218939 0
M  V30 719 C 66.0874 -0.737806 3.53891 0
M  V30 720 O 65.8084 0.387038 4.36387 0
M  V30 721 C 67.3094 -1.40936 4.203 0
M  V30 722 H 64.5294 -0.0620057 0.668129 0
M  V30 723 H 67.0734 0.457169 1.99324 0
M  V30 724 H 65.2284 -1.43889 3.59687 0
M  V30 725 H 65.6424 0.0391274 5.24485 0
M  V30 726 H 67.1164 -1.67099 5.26101 0
M  V30 727 H 67.5934 -2.35355 3.70816 0
M  V30 728 H 68.1994 -0.751117 4.18615 0
M  V30 729 N 66.5145 -1.57545 0.0417849 0
M  V30 730 C 67.4445 -2.14009 -0.933929 0
M  V30 731 C 68.4255 -1.05938 -1.33083 0
M  V30 732 O 69.6105 -1.33833 -1.40721 0
M  V30 733 C 66.7405 -2.67747 -2.21199 0
M  V30 734 C 65.6945 -3.80718 -1.95544 0
M  V30 735 C 65.0205 -4.20935 -3.29724 0
M  V30 736 C 66.3205 -5.06258 -1.28452 0
M  V30 737 H 68.0145 -2.95788 -0.463645 0
M  V30 738 H 65.5605 -1.42285 -0.221573 0
M  V30 739 H 67.5135 -3.05886 -2.89848 0
M  V30 740 H 66.2375 -1.83147 -2.70416 0
M  V30 741 H 64.8965 -3.43037 -1.2931 0
M  V30 742 H 64.5445 -3.33298 -3.76724 0
M  V30 743 H 64.2445 -4.9707 -3.13361 0
M  V30 744 H 65.7685 -4.61666 -3.9962 0
M  V30 745 H 67.1825 -5.41903 -1.8712 0
M  V30 746 H 65.5795 -5.87475 -1.22445 0
M  V30 747 H 66.6495 -4.84207 -0.259219 0
M  V30 748 N 67.9926 0.231505 -1.5589 0
M  V30 749 C 69.2406 0.955461 -1.78088 0
M  V30 750 C 69.5616 1.85262 -0.608533 0
M  V30 751 O 68.8316 1.92277 0.375035 0
M  V30 752 H 67.4116 0.355787 -0.656829 0
M  V30 753 H 70.0736 0.245751 -1.93344 0
M  V30 754 H 69.1696 1.56814 -2.69844 0
M  V30 755 N 69.4707 1.49531 0.497807 0
M  V30 756 C 70.4337 1.65916 1.58128 0
M  V30 757 C 71.4337 0.530825 1.51786 0
M  V30 758 O 72.6237 0.797342 1.54881 0
M  V30 759 C 69.7557 1.65951 2.9778 0
M  V30 760 H 70.9487 2.62556 1.44929 0
M  V30 761 H 68.5017 1.38611 0.722275 0
M  V30 762 H 69.2367 0.709065 3.16453 0
M  V30 763 H 69.0217 2.47897 3.03792 0
M  V30 764 H 70.5117 1.80673 3.76493 0
M  V30 765 N 70.9488 -0.749086 1.3866 0
M  V30 766 C 72.1968 -1.50535 1.34847 0
M  V30 767 C 72.5178 -1.94909 -0.0595016 0
M  V30 768 O 71.7878 -1.67973 -1.00806 0
M  V30 769 H 70.3678 -0.558395 0.49619 0
M  V30 770 H 73.0298 -0.890165 1.73384 0
M  V30 771 H 72.1258 -2.39413 2.00219 0
M  V30 772 N 72.4269 -1.23603 -0.977757 0
M  V30 773 C 73.6729 -1.07129 -1.72195 0
M  V30 774 C 74.0059 0.390501 -1.90233 0
M  V30 775 O 73.2809 1.28902 -1.45653 0
M  V30 776 C 73.5639 -1.80031 -3.11867 0
M  V30 777 C 73.4169 -3.33899 -3.01383 0
M  V30 778 C 74.7359 -1.56492 -4.11337 0
M  V30 779 H 71.8549 -0.390571 -0.624999 0
M  V30 780 H 74.4969 -1.52142 -1.13811 0
M  V30 781 H 72.6469 -1.41768 -3.6171 0
M  V30 782 H 74.3189 -3.81699 -2.59043 0
M  V30 783 H 72.5619 -3.62796 -2.37827 0
M  V30 784 H 73.2329 -3.801 -4.00285 0
M  V30 785 H 75.7089 -1.89757 -3.70313 0
M  V30 786 H 74.5849 -2.09973 -5.07151 0
M  V30 787 H 74.8459 -0.500874 -4.39254 0
M  V30 788 N 73.905 1.17692 -1.04816 0
M  V30 789 C 75.135 1.91508 -0.775128 0
M  V30 790 C 75.543 1.76844 0.67253 0
M  V30 791 O 74.886 1.10057 1.47082 0
M  V30 792 C 74.948 3.43167 -1.0713 0
M  V30 793 C 74.612 3.81612 -2.51438 0
M  V30 794 C 75.609 3.84772 -3.49638 0
M  V30 795 C 73.294 4.12687 -2.86348 0
M  V30 796 C 75.288 4.18469 -4.80794 0
M  V30 797 C 72.975 4.46053 -4.17708 0
M  V30 798 C 73.973 4.48921 -5.14741 0
M  V30 799 O 73.661 4.81504 -6.43746 0
M  V30 800 H 73.393 0.614575 -0.281555 0
M  V30 801 H 75.947 1.50206 -1.40098 0
M  V30 802 H 74.177 3.84745 -0.388342 0
M  V30 803 H 75.866 3.98239 -0.784883 0
M  V30 804 H 76.632 3.60893 -3.24008 0
M  V30 805 H 72.511 4.09627 -2.11486 0
M  V30 806 H 76.055 4.20623 -5.56527 0
M  V30 807 H 71.952 4.69393 -4.43103 0
M  V30 808 H 72.72 4.99377 -6.4851 0
M  V30 809 N 75.3831 0.828654 1.34056 0
M  V30 810 C 76.6291 0.42008 1.98402 0
M  V30 811 C 76.9621 -1.01564 1.65525 0
M  V30 812 O 76.2371 -1.70834 0.929831 0
M  V30 813 C 76.5201 0.62927 3.54559 0
M  V30 814 C 76.3731 2.11152 3.97159 0
M  V30 815 C 77.6921 0.0688756 4.40046 0
M  V30 816 H 74.8111 0.154104 0.720709 0
M  V30 817 H 77.4531 1.04228 1.5886 0
M  V30 818 H 75.6031 0.0996418 3.88372 0
M  V30 819 H 77.2751 2.70522 3.73651 0
M  V30 820 H 75.5181 2.59985 3.47261 0
M  V30 821 H 76.1891 2.20868 5.05887 0
M  V30 822 H 78.6651 0.521458 4.1282 0
M  V30 823 H 77.5411 0.245006 5.48353 0
M  V30 824 H 77.8021 -1.0266 4.30015 0
M  V30 825 N 76.8612 -1.46375 0.584142 0
M  V30 826 C 77.7912 -2.33103 -0.136037 0
M  V30 827 C 78.7722 -1.45431 -0.882255 0
M  V30 828 O 79.9572 -1.74246 -0.857434 0
M  V30 829 C 77.0872 -3.27731 -1.14933 0
M  V30 830 C 76.0412 -4.24855 -0.517862 0
M  V30 831 C 75.3672 -5.09001 -1.63773 0
M  V30 832 C 76.6672 -5.19439 0.545886 0
M  V30 833 H 78.3612 -2.93568 0.588086 0
M  V30 834 H 75.9072 -1.41166 0.284259 0
M  V30 835 H 77.8602 -3.87261 -1.66153 0
M  V30 836 H 76.5842 -2.65377 -1.90375 0
M  V30 837 H 75.2432 -3.6659 -0.0267361 0
M  V30 838 H 74.8912 -4.43031 -2.38185 0
M  V30 839 H 74.5912 -5.74777 -1.22085 0
M  V30 840 H 76.1152 -5.71396 -2.15266 0
M  V30 841 H 77.5292 -5.73177 0.118704 0
M  V30 842 H 75.9262 -5.93566 0.88317 0
M  V30 843 H 76.9962 -4.63285 1.43162 0
M  V30 844 N 78.3393 -0.321999 -1.54275 0
M  V30 845 C 79.3023 0.531975 -2.22941 0
M  V30 846 C 80.3023 1.04478 -1.22234 0
M  V30 847 O 81.4923 0.937452 -1.46825 0
M  V30 848 C 78.6243 1.73874 -2.93224 0
M  V30 849 H 79.8173 -0.0682612 -2.99822 0
M  V30 850 H 77.3703 -0.0730644 -1.56129 0
M  V30 851 H 78.1053 2.37825 -2.20476 0
M  V30 852 H 77.8903 1.37847 -3.6707 0
M  V30 853 H 79.3803 2.34496 -3.45545 0
M  V30 854 N 79.8174 1.5752 -0.0501392 0
M  V30 855 C 81.0654 1.9227 0.622642 0
M  V30 856 C 81.3864 0.929083 1.71444 0
M  V30 857 O 80.6564 -0.0262186 1.95882 0
M  V30 858 H 79.2364 0.709739 0.232981 0
M  V30 859 H 81.8984 1.94628 -0.102898 0
M  V30 860 H 80.9944 2.93479 1.06191 0
M  V30 861 N 81.2955 -0.223234 1.56011 0
M  V30 862 C 82.2055 -1.29766 1.95443 0
M  V30 863 C 83.2215 -1.51373 0.858028 0
M  V30 864 O 84.3975 -1.64536 1.16146 0
M  V30 865 C 81.4625 -2.62772 2.26167 0
M  V30 866 C 80.5235 -2.49482 3.49367 0
M  V30 867 C 79.7565 -3.76145 3.78616 0
M  V30 868 O 79.9795 -4.79087 3.09568 0
M  V30 869 O 78.9135 -3.73358 4.72109 0
M  V30 870 H 82.7395 -0.99309 2.87004 0
M  V30 871 H 80.3245 -0.425958 1.43199 0
M  V30 872 H 82.2065 -3.41327 2.47131 0
M  V30 873 H 80.8815 -2.92913 1.37781 0
M  V30 874 H 79.7885 -1.69133 3.33684 0
M  V30 875 H 81.1215 -2.2428 4.38131 0
M  V30 876 N 82.7736 -1.49793 -0.48987 0
M  V30 877 C 84.0196 -1.60078 -1.24511 0
M  V30 878 C 84.3526 -0.291608 -1.91998 0
M  V30 879 O 83.6276 0.705647 -1.81248 0
M  V30 880 C 83.9106 -2.76791 -2.30345 0
M  V30 881 C 83.7636 -4.17535 -1.67286 0
M  V30 882 C 85.0826 -2.89111 -3.31817 0
M  V30 883 H 82.2016 -0.582645 -0.451324 0
M  V30 884 H 84.8436 -1.82117 -0.541612 0
M  V30 885 H 82.9936 -2.5813 -2.90346 0
M  V30 886 H 84.6656 -4.4774 -1.11026 0
M  V30 887 H 82.9086 -4.22665 -0.976577 0
M  V30 888 H 83.5796 -4.95094 -2.44103 0
M  V30 889 H 86.0556 -3.06133 -2.81819 0
M  V30 890 H 84.9316 -3.72433 -4.03219 0
M  V30 891 H 85.1926 -1.9893 -3.94815 0
M  V30 892 N 84.2517 0.741722 -1.39055 0
M  V30 893 C 85.2147 1.83733 -1.37021 0
M  V30 894 C 86.2147 1.58542 -0.268534 0
M  V30 895 O 87.4047 1.66067 -0.526076 0
M  V30 896 C 84.5367 3.2141 -1.13617 0
M  V30 897 H 85.7297 1.86941 -2.34506 0
M  V30 898 H 83.2827 0.944676 -1.24521 0
M  V30 899 H 84.0177 3.23865 -0.167863 0
M  V30 900 H 83.8027 3.4109 -1.93391 0
M  V30 901 H 85.2927 4.01477 -1.14918 0
M  V30 902 N 85.7298 1.2412 0.971189 0
M  V30 903 C 86.6768 1.0305 2.06517 0
M  V30 904 C 87.6468 -0.0550666 1.66009 0
M  V30 905 O 88.8318 0.0988688 1.90544 0
M  V30 906 C 85.9718 0.637653 3.39158 0
M  V30 907 C 85.0848 1.79633 3.92882 0
M  V30 908 C 84.2198 1.34939 5.13775 0
M  V30 909 C 83.2588 2.47823 5.59687 0
M  V30 910 N 82.3958 2.04022 6.71803 0
M  V30 911 H 87.2358 1.96685 2.23873 0
M  V30 912 H 84.7728 0.979694 1.09729 0
M  V30 913 H 86.7308 0.390931 4.15364 0
M  V30 914 H 85.3608 -0.261693 3.21737 0
M  V30 915 H 84.4128 2.15681 3.13346 0
M  V30 916 H 85.7248 2.64466 4.22918 0
M  V30 917 H 84.8788 1.06134 5.97345 0
M  V30 918 H 83.6178 0.471557 4.85415 0
M  V30 919 H 82.6228 2.77392 4.74693 0
M  V30 920 H 83.8478 3.36158 5.90063 0
M  V30 921 H 81.7938 1.18632 6.45184 0
M  V30 922 H 81.7108 2.82409 7.01271 0
M  V30 923 H 82.9788 1.78347 7.58823 0
M  V30 924 N 87.2079 -1.17134 1.05439 0
M  V30 925 C 88.4849 -1.83411 0.679699 0
M  V30 926 C 88.8649 -1.9368 -0.839726 0
M  V30 927 O 88.2129 -1.47325 -1.74664 0
M  V30 928 C 88.4229 -3.20918 1.37159 0
M  V30 929 C 89.7709 -3.96796 1.51123 0
M  V30 930 O 90.7949 -3.30406 1.3308 0
M  V30 931 O 89.6539 -5.15778 1.80651 0
M  V30 932 H 86.7479 -0.79154 0.239569 0
M  V30 933 H 89.2939 -1.24411 1.15413 0
M  V30 934 H 88.0659 -3.08428 2.40807 0
M  V30 935 H 87.6889 -3.87587 0.886674 0
M  V30 936 N 88.686 -0.835752 -1.33615 0
M  V30 937 C 89.633 -0.26473 -2.29277 0
M  V30 938 C 90.603 0.617712 -1.54187 0
M  V30 939 O 91.788 0.556641 -1.825 0
M  V30 940 C 88.928 0.556777 -3.40579 0
M  V30 941 C 88.041 -0.349339 -4.30585 0
M  V30 942 C 87.176 0.482969 -5.29 0
M  V30 943 C 86.215 -0.421732 -6.10645 0
M  V30 944 N 85.352 0.372262 -7.01112 0
M  V30 945 H 90.192 -1.08582 -2.77514 0
M  V30 946 H 87.729 -0.546927 -1.36554 0
M  V30 947 H 89.687 1.04852 -4.03809 0
M  V30 948 H 88.317 1.34286 -2.93542 0
M  V30 949 H 87.369 -0.959372 -3.68104 0
M  V30 950 H 88.681 -1.04445 -4.87742 0
M  V30 951 H 87.835 1.03866 -5.97743 0
M  V30 952 H 86.574 1.21153 -4.72412 0
M  V30 953 H 85.579 -0.989464 -5.40823 0
M  V30 954 H 86.804 -1.14861 -6.69316 0
M  V30 955 H 84.75 1.08426 -6.46977 0
M  V30 956 H 84.667 -0.264198 -7.55538 0
M  V30 957 H 85.935 0.910293 -7.74167 0
M  V30 958 N 90.1641 1.46063 -0.591896 0
M  V30 959 C 91.1271 2.28854 0.125973 0
M  V30 960 C 92.1271 1.38903 0.810107 0
M  V30 961 O 93.3171 1.61186 0.66066 0
M  V30 962 C 90.4491 3.19526 1.1881 0
M  V30 963 H 91.6421 2.93802 -0.601717 0
M  V30 964 H 89.1951 1.52325 -0.350254 0
M  V30 965 H 89.9301 2.59345 1.94707 0
M  V30 966 H 89.7151 3.85766 0.701936 0
M  V30 967 H 91.2051 3.81817 1.69132 0
M  V30 968 N 91.6422 0.330177 1.54103 0
M  V30 969 C 92.8902 -0.269871 2.0029 0
M  V30 970 C 93.2112 -1.52133 1.21986 0
M  V30 971 O 92.4812 -1.93212 0.323438 0
M  V30 972 H 91.0612 -0.10271 0.739905 0
M  V30 973 H 93.7232 0.448249 1.89675 0
M  V30 974 H 92.8192 -0.52166 3.07709 0
M  V30 975 N 93.1203 -1.57491 0.0584922 0
M  V30 976 C 94.5313 -1.80526 -0.476138 0
M  V30 977 C 94.8823 -0.971334 -1.70469 0
M  V30 978 O 94.0073 -0.190012 -2.15564 0
M  V30 979 C 94.6023 -3.27424 -0.870587 0
M  V30 980 C 93.1613 -3.51351 -1.35015 0
M  V30 981 C 92.3083 -2.75343 -0.32887 0
M  V30 982 H 95.2593 -1.56133 0.284312 0
M  V30 983 H 95.2803 -3.38745 -1.73299 0
M  V30 984 H 94.7923 -3.88093 0.0237627 0
M  V30 985 H 92.8933 -2.95971 -2.26345 0
M  V30 986 H 93.0063 -4.60059 -1.33726 0
M  V30 987 H 91.3703 -2.417 -0.803321 0
M  V30 988 H 92.1533 -3.38743 0.557521 0
M  V30 989 N 94.5984 0.214957 -1.56127 0
M  V30 990 C 95.8234 0.95924 -1.83884 0
M  V30 991 C 96.2484 1.7689 -0.639644 0
M  V30 992 O 95.6064 1.76566 0.411601 0
M  V30 993 C 95.6544 1.84723 -3.09693 0
M  V30 994 O 94.7584 2.94346 -2.8885 0
M  V30 995 H 94.0994 0.27125 -0.606069 0
M  V30 996 H 96.6294 0.226276 -2.03345 0
M  V30 997 H 96.6394 2.25576 -3.39969 0
M  V30 998 H 95.3144 1.25218 -3.96602 0
M  V30 999 H 93.8914 2.57391 -2.69823 0
M  V30 1000 N 96.0765 1.50051 0.48192 0
M  V30 1001 C 97.3255 1.59741 1.23149 0
M  V30 1002 C 97.6385 0.298163 1.93314 0
M  V30 1003 O 98.8445 0.273835 2.70116 0
M  V30 1004 C 97.3005 2.81926 2.23708 0
M  V30 1005 C 96.9085 4.18685 1.59396 0
M  V30 1006 C 98.6525 3.00956 2.99375 0
M  V30 1007 C 96.5595 5.3207 2.58178 0
M  V30 1008 H 95.4895 0.594838 0.46334 0
M  V30 1009 H 98.1405 1.76467 0.503169 0
M  V30 1010 H 96.5225 2.58736 2.99786 0
M  V30 1011 H 97.6965 4.52088 0.891811 0
M  V30 1012 H 96.0115 4.05171 0.960503 0
M  V30 1013 H 98.6085 3.82836 3.73283 0
M  V30 1014 H 98.9515 2.12258 3.58123 0
M  V30 1015 H 99.4845 3.24277 2.30411 0
M  V30 1016 H 96.2235 6.22888 2.04184 0
M  V30 1017 H 95.7435 5.03098 3.26577 0
M  V30 1018 H 97.4225 5.62196 3.20225 0
M  V30 1019 N 97.5546 -0.734337 1.39446 0
M  V30 1020 C 98.8006 -1.49613 1.36908 0
M  V30 1021 C 99.1336 -1.94169 -0.0347829 0
M  V30 1022 O 98.4086 -1.66833 -0.999847 0
M  V30 1023 C 98.6916 -2.73534 2.34203 0
M  V30 1024 C 98.5446 -2.34993 3.83534 0
M  V30 1025 C 99.8636 -3.75635 2.29317 0
M  V30 1026 H 96.9826 -0.542714 0.498629 0
M  V30 1027 H 99.6246 -0.839597 1.70443 0
M  V30 1028 H 97.7746 -3.29553 2.05736 0
M  V30 1029 H 99.4466 -1.84601 4.22753 0
M  V30 1030 H 97.6896 -1.67213 4.00278 0
M  V30 1031 H 98.3606 -3.23738 4.47099 0
M  V30 1032 H 100.837 -3.29203 2.54489 0
M  V30 1033 H 99.7126 -4.60008 2.99472 0
M  V30 1034 H 99.9736 -4.22603 1.29842 0
M  V30 1035 N 99.0327 -1.24633 -0.964593 0
M  V30 1036 C 100.282 -1.08188 -1.7023 0
M  V30 1037 C 100.595 0.37873 -1.91898 0
M  V30 1038 O 101.801 0.663427 -2.6327 0
M  V30 1039 C 100.257 -1.88773 -3.06419 0
M  V30 1040 C 99.8647 -3.39263 -2.92582 0
M  V30 1041 C 101.609 -1.80867 -3.84041 0
M  V30 1042 C 99.5157 -4.1218 -4.24101 0
M  V30 1043 H 98.4457 -0.401245 -0.638372 0
M  V30 1044 H 101.097 -1.48742 -1.07462 0
M  V30 1045 H 99.4787 -1.41035 -3.70034 0
M  V30 1046 H 100.653 -3.94603 -2.37961 0
M  V30 1047 H 98.9677 -3.48154 -2.28424 0
M  V30 1048 H 101.565 -2.32646 -4.81435 0
M  V30 1049 H 101.908 -0.774543 -4.09031 0
M  V30 1050 H 102.441 -2.26301 -3.27159 0
M  V30 1051 H 99.1797 -5.15965 -4.04303 0
M  V30 1052 H 98.6997 -3.61626 -4.78526 0
M  V30 1053 H 100.379 -4.19349 -4.92702 0
M  V30 1054 N 100.511 1.16574 -1.06058 0
M  V30 1055 C 101.751 1.88723 -0.78504 0
M  V30 1056 C 102.115 1.79706 0.676006 0
M  V30 1057 O 103.316 2.46757 1.06603 0
M  V30 1058 C 101.587 3.34338 -1.26304 0
M  V30 1059 S 103.146 4.24366 -1.1162 0
M  V30 1060 H 99.9638 0.651448 -0.284846 0
M  V30 1061 H 102.566 1.40732 -1.35701 0
M  V30 1062 H 101.27 3.38439 -2.32136 0
M  V30 1063 H 100.801 3.87378 -0.685719 0
M  V30 1064 H 102.816 4.96179 -0.0456539 0
M  V30 1065 N 101.989 0.842826 1.3317 0
M  V30 1066 C 103.236 0.440447 1.97652 0
M  V30 1067 C 103.564 -1.00123 1.6675 0
M  V30 1068 O 102.819 -1.7155 0.941761 0
M  V30 1069 C 103.118 0.612607 3.52111 0
M  V30 1070 C 102.784 2.02297 4.02972 0
M  V30 1071 C 101.446 2.40874 4.16573 0
M  V30 1072 C 103.798 2.94402 4.30089 0
M  V30 1073 C 101.126 3.70852 4.54627 0
M  V30 1074 C 103.478 4.23865 4.69597 0
M  V30 1075 C 102.142 4.62392 4.81404 0
M  V30 1076 H 101.412 0.161171 0.72326 0
M  V30 1077 H 104.059 1.07061 1.58777 0
M  V30 1078 H 102.364 -0.100849 3.9167 0
M  V30 1079 H 104.061 0.2815 4.00011 0
M  V30 1080 H 100.651 1.71338 3.92863 0
M  V30 1081 H 104.835 2.65835 4.19101 0
M  V30 1082 H 100.091 4.00501 4.61962 0
M  V30 1083 H 104.265 4.95306 4.89536 0
M  V30 1084 H 101.892 5.63154 5.10648 0
M  V30 1085 N 103.467 -1.45747 0.599634 0
M  V30 1086 C 104.397 -2.33235 -0.111306 0
M  V30 1087 C 105.378 -1.46359 -0.866781 0
M  V30 1088 O 106.563 -1.75146 -0.838904 0
M  V30 1089 C 103.693 -3.28932 -1.11451 0
M  V30 1090 C 102.647 -4.25381 -0.472772 0
M  V30 1091 C 101.973 -5.1071 -1.58365 0
M  V30 1092 C 103.273 -5.18831 0.600948 0
M  V30 1093 H 104.967 -2.92927 0.61919 0
M  V30 1094 H 102.513 -1.40857 0.299215 0
M  V30 1095 H 104.466 -3.89002 -1.62036 0
M  V30 1096 H 103.19 -2.67381 -1.8755 0
M  V30 1097 H 101.849 -3.66598 0.0121472 0
M  V30 1098 H 101.497 -4.45533 -2.33473 0
M  V30 1099 H 101.197 -5.7604 -1.15982 0
M  V30 1100 H 102.721 -5.73647 -2.09194 0
M  V30 1101 H 104.135 -5.73019 0.179491 0
M  V30 1102 H 102.532 -5.92595 0.946076 0
M  V30 1103 H 103.602 -4.6174 1.48068 0
M  V30 1104 N 104.945 -0.338344 -1.53925 0
M  V30 1105 C 106.191 0.260143 -2.01125 0
M  V30 1106 C 106.524 1.50617 -1.22589 0
M  V30 1107 O 105.799 1.91979 -0.312113 0
M  V30 1108 C 106.082 0.579499 -3.55407 0
M  V30 1109 C 105.935 -0.678264 -4.44657 0
M  V30 1110 C 107.254 1.39122 -4.17532 0
M  V30 1111 H 104.373 0.0930772 -0.731099 0
M  V30 1112 H 107.015 -0.457852 -1.84401 0
M  V30 1113 H 105.165 1.19118 -3.69788 0
M  V30 1114 H 106.837 -1.31631 -4.42121 0
M  V30 1115 H 105.08 -1.3042 -4.13731 0
M  V30 1116 H 105.751 -0.410143 -5.50474 0
M  V30 1117 H 108.227 0.874035 -4.06817 0
M  V30 1118 H 107.103 1.58342 -5.25565 0
M  V30 1119 H 107.364 2.39178 -3.71815 0
M  V30 1120 N 106.423 1.57458 -0.0668435 0
M  V30 1121 C 107.386 2.11323 0.887422 0
M  V30 1122 C 108.386 1.03618 1.22964 0
M  V30 1123 O 109.576 1.29626 1.16373 0
M  V30 1124 C 106.708 2.61048 2.19242 0
M  V30 1125 H 107.901 2.96942 0.420194 0
M  V30 1126 H 105.454 1.55239 0.181793 0
M  V30 1127 H 106.189 1.78868 2.70512 0
M  V30 1128 H 105.974 3.39769 1.95702 0
M  V30 1129 H 107.464 3.02814 2.87565 0
M  V30 1130 N 107.901 -0.206675 1.56239 0
M  V30 1131 C 108.864 -1.23976 1.92776 0
M  V30 1132 C 109.864 -1.39041 0.807729 0
M  V30 1133 O 111.054 -1.37051 1.0753 0
M  V30 1134 C 108.186 -2.61112 2.19165 0
M  V30 1135 H 109.379 -0.927764 2.85189 0
M  V30 1136 H 106.932 -0.447718 1.4975 0
M  V30 1137 H 107.667 -2.97386 1.29352 0
M  V30 1138 H 107.452 -2.51552 3.00772 0
M  V30 1139 H 108.942 -3.35633 2.48476 0
M  V30 1140 N 109.379 -1.50304 -0.473955 0
M  V30 1141 C 110.309 -1.71886 -1.58042 0
M  V30 1142 C 111.29 -0.567799 -1.60344 0
M  V30 1143 O 112.475 -0.806623 -1.76656 0
M  V30 1144 C 109.605 -1.81036 -2.96384 0
M  V30 1145 C 108.559 -2.962 -3.08949 0
M  V30 1146 C 107.885 -2.9049 -4.48909 0
M  V30 1147 C 109.185 -4.36752 -2.86434 0
M  V30 1148 H 110.879 -2.64527 -1.40234 0
M  V30 1149 H 108.425 -1.27295 -0.673201 0
M  V30 1150 H 110.378 -1.94719 -3.73714 0
M  V30 1151 H 109.102 -0.850147 -3.15341 0
M  V30 1152 H 107.761 -2.82164 -2.3405 0
M  V30 1153 H 107.409 -1.92321 -4.64781 0
M  V30 1154 H 107.109 -3.67802 -4.58253 0
M  V30 1155 H 108.633 -3.06218 -5.28264 0
M  V30 1156 H 110.047 -4.5133 -3.53517 0
M  V30 1157 H 108.444 -5.15493 -3.07225 0
M  V30 1158 H 109.514 -4.49321 -1.82316 0
M  V30 1159 N 110.857 0.726932 -1.39834 0
M  V30 1160 C 112.082 1.52121 -1.40976 0
M  V30 1161 C 112.507 1.88098 -0.00826029 0
M  V30 1162 O 111.865 1.52479 0.980807 0
M  V30 1163 C 111.913 2.78021 -2.29644 0
M  V30 1164 O 111.017 3.74272 -1.73188 0
M  V30 1165 H 110.358 0.45908 -0.479731 0
M  V30 1166 H 112.888 0.896207 -1.83927 0
M  V30 1167 H 112.898 3.26671 -2.44438 0
M  V30 1168 H 111.573 2.51169 -3.31492 0
M  V30 1169 H 110.15 3.33073 -1.6768 0
M  V30 1170 N 112.336 1.25143 0.95797 0
M  V30 1171 C 113.561 1.12521 1.74223 0
M  V30 1172 C 113.986 -0.317402 1.85403 0
M  V30 1173 O 113.344 -1.2299 1.33204 0
M  V30 1174 C 113.392 1.78062 3.1357 0
M  V30 1175 O 112.496 1.058 3.98598 0
M  V30 1176 H 111.837 0.39304 0.535178 0
M  V30 1177 H 114.367 1.65641 1.201 0
M  V30 1178 H 114.377 1.84213 3.64046 0
M  V30 1179 H 113.052 2.83021 3.04749 0
M  V30 1180 H 111.629 1.07506 3.57067 0
M  V30 1181 N 113.814 -1.1601 1.06675 0
M  V30 1182 C 115.06 -1.86909 0.786945 0
M  V30 1183 C 115.393 -1.81717 -0.685018 0
M  V30 1184 O 114.668 -1.23551 -1.50218 0
M  V30 1185 C 114.951 -3.36313 1.28707 0
M  V30 1186 C 114.804 -3.50175 2.82308 0
M  V30 1187 C 116.123 -4.3084 0.898071 0
M  V30 1188 H 113.242 -0.678677 0.287343 0
M  V30 1189 H 115.884 -1.36336 1.32334 0
M  V30 1190 H 114.034 -3.79513 0.830768 0
M  V30 1191 H 115.706 -3.15886 3.36175 0
M  V30 1192 H 113.949 -2.91959 3.20847 0
M  V30 1193 H 114.62 -4.55116 3.12368 0
M  V30 1194 H 117.096 -3.95561 1.29114 0
M  V30 1195 H 115.972 -5.33876 1.27543 0
M  V30 1196 H 116.233 -4.41662 -0.196651 0
M  V30 1197 N 115.292 -0.849877 -1.32721 0
M  V30 1198 C 116.222 -0.306308 -2.31482 0
M  V30 1199 C 117.203 0.591952 -1.59468 0
M  V30 1200 O 118.388 0.513199 -1.87296 0
M  V30 1201 C 115.518 0.510204 -3.43532 0
M  V30 1202 C 114.472 -0.293209 -4.26994 0
M  V30 1203 C 113.798 0.647743 -5.30762 0
M  V30 1204 C 115.098 -1.51634 -4.99804 0
M  V30 1205 H 116.792 -1.13153 -2.77195 0
M  V30 1206 H 114.338 -0.545553 -1.33266 0
M  V30 1207 H 116.291 0.900856 -4.11658 0
M  V30 1208 H 115.015 1.36874 -2.96535 0
M  V30 1209 H 113.674 -0.665555 -3.60508 0
M  V30 1210 H 113.322 1.50299 -4.8002 0
M  V30 1211 H 113.022 0.11422 -5.87489 0
M  V30 1212 H 114.546 1.03567 -6.01753 0
M  V30 1213 H 115.96 -1.19824 -5.60638 0
M  V30 1214 H 114.357 -1.98745 -5.66234 0
M  V30 1215 H 115.427 -2.28018 -4.27943 0
M  V30 1216 N 116.77 1.45427 -0.607355 0
M  V30 1217 C 117.733 2.28974 0.101693 0
M  V30 1218 C 118.733 1.39754 0.795329 0
M  V30 1219 O 119.923 1.61878 0.643527 0
M  V30 1220 C 117.055 3.20768 1.15414 0
M  V30 1221 H 118.248 2.93147 -0.632844 0
M  V30 1222 H 115.801 1.51945 -0.366391 0
M  V30 1223 H 116.536 2.61395 1.91945 0
M  V30 1224 H 116.321 3.86489 0.66098 0
M  V30 1225 H 117.811 3.83589 1.65073 0
M  V30 1226 N 118.248 0.346503 1.53744 0
M  V30 1227 C 119.496 -0.248612 2.00565 0
M  V30 1228 C 119.817 -1.5083 1.23593 0
M  V30 1229 O 119.087 -1.92858 0.343912 0
M  V30 1230 H 117.667 -0.0948564 0.740953 0
M  V30 1231 H 120.329 0.468341 1.89189 0
M  V30 1232 H 119.425 -0.488994 3.08245 0
M  V30 1233 N 119.726 -1.57421 0.075193 0
M  V30 1234 C 120.656 -2.15942 -0.888324 0
M  V30 1235 C 121.637 -1.08737 -1.30806 0
M  V30 1236 O 122.822 -1.36787 -1.37851 0
M  V30 1237 C 119.952 -2.72379 -2.1547 0
M  V30 1238 C 118.906 -3.8478 -1.87425 0
M  V30 1239 C 118.232 -4.27834 -3.20721 0
M  V30 1240 C 119.532 -5.08869 -1.17684 0
M  V30 1241 H 121.226 -2.96705 -0.400799 0
M  V30 1242 H 118.772 -1.42723 -0.191342 0
M  V30 1243 H 120.725 -3.11965 -2.83295 0
M  V30 1244 H 119.449 -1.88841 -2.6647 0
M  V30 1245 H 118.108 -3.45703 -1.22004 0
M  V30 1246 H 117.756 -3.41214 -3.6957 0
M  V30 1247 H 117.456 -5.03605 -3.02746 0
M  V30 1248 H 118.98 -4.70039 -3.89738 0
M  V30 1249 H 120.394 -5.4575 -1.75584 0
M  V30 1250 H 118.791 -5.8994 -1.09956 0
M  V30 1251 H 119.861 -4.84648 -0.156453 0
M  V30 1252 N 121.204 0.198386 -1.56346 0
M  V30 1253 C 122.444 0.92609 -1.82217 0
M  V30 1254 C 122.808 1.80584 -0.652195 0
M  V30 1255 O 124.009 2.56907 -0.790716 0
M  V30 1256 C 122.28 1.72354 -3.13096 0
M  V30 1257 S 123.839 2.50371 -3.6036 0
M  V30 1258 H 120.657 0.310677 -0.639532 0
M  V30 1259 H 123.259 0.189755 -1.94577 0
M  V30 1260 H 121.963 1.0678 -3.96265 0
M  V30 1261 H 121.494 2.50175 -3.03605 0
M  V30 1262 H 123.509 3.74488 -3.25535 0
M  V30 1263 N 122.682 1.50554 0.465978 0
M  V30 1264 C 123.912 1.65323 1.23903 0
M  V30 1265 C 124.32 0.338051 1.86155 0
M  V30 1266 O 123.663 -0.690518 1.70228 0
M  V30 1267 C 123.725 2.69048 2.3844 0
M  V30 1268 C 123.389 4.12462 1.96784 0
M  V30 1269 C 124.386 4.98168 1.48745 0
M  V30 1270 C 122.071 4.58407 2.05349 0
M  V30 1271 C 124.065 6.27868 1.0982 0
M  V30 1272 C 121.752 5.88112 1.66035 0
M  V30 1273 C 122.75 6.72668 1.18349 0
M  V30 1274 O 122.438 7.99951 0.795825 0
M  V30 1275 H 122.17 0.558629 0.38067 0
M  V30 1276 H 124.724 1.97561 0.562022 0
M  V30 1277 H 122.954 2.32062 3.09328 0
M  V30 1278 H 124.643 2.72985 3.0039 0
M  V30 1279 H 125.409 4.63885 1.41546 0
M  V30 1280 H 121.288 3.92735 2.41414 0
M  V30 1281 H 124.832 6.93819 0.725293 0
M  V30 1282 H 120.729 6.21914 1.72895 0
M  V30 1283 H 121.497 8.13265 0.924222 0
M  V30 1284 N 124.16 -0.719506 1.40217 0
M  V30 1285 C 125.123 -1.8153 1.39927 0
M  V30 1286 C 126.123 -1.58095 0.293723 0
M  V30 1287 O 127.313 -1.65209 0.552429 0
M  V30 1288 C 124.445 -3.19561 1.18716 0
M  V30 1289 H 125.638 -1.83186 2.37451 0
M  V30 1290 H 123.191 -0.924746 1.26008 0
M  V30 1291 H 123.926 -3.23557 0.219366 0
M  V30 1292 H 123.711 -3.3797 1.98793 0
M  V30 1293 H 125.201 -3.99598 1.21291 0
M  V30 1294 N 125.638 -1.25649 -0.95132 0
M  V30 1295 C 126.548 -1.08073 -2.08224 0
M  V30 1296 C 127.564 -0.0169666 -1.73992 0
M  V30 1297 O 128.74 -0.218593 -2.0021 0
M  V30 1298 C 125.805 -0.704922 -3.39458 0
M  V30 1299 C 124.866 -1.84699 -3.87537 0
M  V30 1300 C 124.099 -1.48902 -5.12508 0
M  V30 1301 O 124.322 -0.386156 -5.69091 0
M  V30 1302 O 123.256 -2.32033 -5.55378 0
M  V30 1303 H 127.082 -2.02924 -2.25954 0
M  V30 1304 H 124.667 -1.04618 -1.06656 0
M  V30 1305 H 126.549 -0.507609 -4.18332 0
M  V30 1306 H 125.224 0.214291 -3.2299 0
M  V30 1307 H 124.131 -2.09919 -3.09653 0
M  V30 1308 H 125.464 -2.74557 -4.08509 0
M  V30 1309 N 127.117 1.15442 -1.07289 0
M  V30 1310 C 128.364 1.86213 -0.795668 0
M  V30 1311 C 128.692 1.82291 0.678238 0
M  V30 1312 O 127.947 1.24057 1.51355 0
M  V30 1313 C 128.246 3.3489 -1.24834 0
M  V30 1314 C 127.912 3.59007 -2.72809 0
M  V30 1315 C 126.574 3.65298 -3.13227 0
M  V30 1316 C 128.926 3.68762 -3.68326 0
M  V30 1317 C 126.254 3.78854 -4.4798 0
M  V30 1318 C 128.606 3.83842 -5.0284 0
M  V30 1319 C 127.27 3.88378 -5.4288 0
M  V30 1320 H 126.54 0.681403 -0.291155 0
M  V30 1321 H 129.187 1.36435 -1.34379 0
M  V30 1322 H 127.492 3.8687 -0.619595 0
M  V30 1323 H 129.189 3.88052 -1.01076 0
M  V30 1324 H 125.779 3.5475 -2.40521 0
M  V30 1325 H 129.963 3.63202 -3.38227 0
M  V30 1326 H 125.219 3.80623 -4.78472 0
M  V30 1327 H 129.393 3.90332 -5.76727 0
M  V30 1328 H 127.02 3.98635 -6.47298 0
M  V30 1329 N 128.595 0.856903 1.32268 0
M  V30 1330 C 129.843 0.460474 1.96784 0
M  V30 1331 C 130.164 -0.987701 1.68135 0
M  V30 1332 O 129.434 -1.69058 0.989765 0
M  V30 1333 H 128.014 0.167289 0.728027 0
M  V30 1334 H 130.676 1.09383 1.61312 0
M  V30 1335 H 129.772 0.60739 3.06133 0
M  V30 1336 N 130.073 -1.45103 0.615059 0
M  V30 1337 C 131.036 -2.29025 -0.0895485 0
M  V30 1338 C 132.036 -1.40174 -0.787906 0
M  V30 1339 O 133.226 -1.62217 -0.634933 0
M  V30 1340 C 130.358 -3.21376 -1.13711 0
M  V30 1341 H 131.551 -2.92807 0.648382 0
M  V30 1342 H 129.104 -1.51749 0.374444 0
M  V30 1343 H 129.839 -2.6241 -1.90556 0
M  V30 1344 H 129.624 -3.86834 -0.640475 0
M  V30 1345 H 131.114 -3.84459 -1.63036 0
M  V30 1346 N 131.551 -0.354651 -1.53558 0
M  V30 1347 C 132.967 -0.00315426 -1.596 0
M  V30 1348 C 133.167 1.47741 -1.37021 0
M  V30 1349 O 132.223 2.23759 -1.16996 0
M  V30 1350 C 133.536 -0.44929 -2.97325 0
M  V30 1351 C 135.084 -0.402578 -3.104 0
M  V30 1352 C 135.559 -0.824355 -4.5052 0
M  V30 1353 N 137.05 -0.778979 -4.56603 0
M  V30 1354 C 137.785 -1.07715 -5.63192 0
M  V30 1355 N 137.281 -1.44405 -6.77583 0
M  V30 1356 N 139.074 -1.00066 -5.53121 0
M  V30 1357 H 131.225 -1.31893 -1.66487 0
M  V30 1358 H 133.488 -0.538388 -0.780284 0
M  V30 1359 H 133.194 -1.48202 -3.1895 0
M  V30 1360 H 133.068 0.169772 -3.76818 0
M  V30 1361 H 135.455 0.621004 -2.88492 0
M  V30 1362 H 135.536 -1.05699 -2.32941 0
M  V30 1363 H 135.18 -1.846 -4.73165 0
M  V30 1364 H 135.11 -0.147304 -5.26394 0
M  V30 1365 H 137.601 -0.508528 -3.74463 0
M  V30 1366 H 137.914 -1.65612 -7.54846 0
M  V30 1367 H 136.259 -1.4826 -6.79002 0
M  V30 1368 H 139.45 -0.713293 -4.62633 0
M  V30 1369 H 139.623 -1.23638 -6.36096 0
M  V30 1370 N 133.029 1.57378 -0.0835403 0
M  V30 1371 C 134.275 1.94217 0.583733 0
M  V30 1372 C 134.608 0.964653 1.68547 0
M  V30 1373 O 133.883 -0.00422258 1.945 0
M  V30 1374 C 134.166 3.41253 1.14972 0
M  V30 1375 C 134.019 4.49768 0.0538277 0
M  V30 1376 C 135.338 3.89352 2.05166 0
M  V30 1377 H 132.457 0.706233 0.210724 0
M  V30 1378 H 135.099 1.89392 -0.1519 0
M  V30 1379 H 133.249 3.45496 1.77665 0
M  V30 1380 H 134.921 4.57641 -0.579851 0
M  V30 1381 H 133.164 4.29432 -0.614068 0
M  V30 1382 H 133.835 5.49817 0.490452 0
M  V30 1383 H 136.311 3.87189 1.52393 0
M  V30 1384 H 135.187 4.92822 2.41698 0
M  V30 1385 H 135.448 3.27973 2.96456 0
M  V30 1386 N 134.507 -0.190092 1.56449 0
M  V30 1387 C 135.918 -0.754312 1.70784 0
M  V30 1388 C 136.269 -1.83631 0.690951 0
M  V30 1389 O 135.394 -2.15868 -0.151604 0
M  V30 1390 C 135.989 -1.37503 3.09642 0
M  V30 1391 C 134.548 -1.88628 3.25725 0
M  V30 1392 C 133.695 -0.758098 2.66736 0
M  V30 1393 H 136.646 0.0350524 1.58661 0
M  V30 1394 H 136.667 -2.2445 3.0725 0
M  V30 1395 H 136.179 -0.587302 3.83631 0
M  V30 1396 H 134.28 -2.70103 2.56661 0
M  V30 1397 H 134.393 -2.04462 4.3328 0
M  V30 1398 H 132.757 -1.17369 2.26046 0
M  V30 1399 H 133.54 0.0174705 3.43296 0
M  V30 1400 N 135.985 -1.50799 -0.457987 0
M  V30 1401 C 137.401 -1.38515 -0.792819 0
M  V30 1402 C 137.601 -0.451409 -1.96379 0
M  V30 1403 O 136.657 0.10112 -2.52297 0
M  V30 1404 C 137.97 -2.80149 -1.09258 0
M  V30 1405 C 139.518 -2.89156 -1.19825 0
M  V30 1406 C 139.993 -4.31651 -1.53106 0
M  V30 1407 N 141.484 -4.34662 -1.60072 0
M  V30 1408 C 142.219 -5.41928 -1.87354 0
M  V30 1409 N 141.715 -6.59384 -2.12568 0
M  V30 1410 N 143.508 -5.29385 -1.88965 0
M  V30 1411 H 135.659 -2.10073 0.313511 0
M  V30 1412 H 137.922 -0.944803 0.0777862 0
M  V30 1413 H 137.628 -3.50374 -0.305084 0
M  V30 1414 H 137.502 -3.18204 -2.02549 0
M  V30 1415 H 139.889 -2.19141 -1.97639 0
M  V30 1416 H 139.97 -2.54626 -0.244821 0
M  V30 1417 H 139.614 -5.02208 -0.758266 0
M  V30 1418 H 139.544 -4.63678 -2.49621 0
M  V30 1419 H 142.035 -3.49973 -1.42573 0
M  V30 1420 H 142.348 -7.36934 -2.32696 0
M  V30 1421 H 140.693 -6.62535 -2.09933 0
M  V30 1422 H 143.884 -4.36616 -1.68772 0
M  V30 1423 H 144.057 -6.13066 -2.09891 0
M  V30 1424 N 137.463 0.71206 -1.40597 0
M  V30 1425 C 138.688 1.50617 -1.42581 0
M  V30 1426 C 139.113 1.88079 -0.0282102 0
M  V30 1427 O 138.471 1.53511 0.964579 0
M  V30 1428 C 138.519 2.7557 -2.3258 0
M  V30 1429 O 137.623 3.72414 -1.77148 0
M  V30 1430 H 136.964 0.453966 -0.484573 0
M  V30 1431 H 139.494 0.876649 -1.84868 0
M  V30 1432 H 139.504 3.2406 -2.47889 0
M  V30 1433 H 138.179 2.47639 -3.34138 0
M  V30 1434 H 136.756 3.31276 -1.71204 0
M  V30 1435 N 138.941 1.26152 0.944643 0
M  V30 1436 C 140.189 1.11271 1.6871 0
M  V30 1437 C 140.51 -0.345166 1.91921 0
M  V30 1438 O 139.78 -1.24387 1.51343 0
M  V30 1439 H 138.36 0.408783 0.625224 0
M  V30 1440 H 141.022 1.58427 1.1352 0
M  V30 1441 H 140.118 1.62879 2.66227 0
M  V30 1442 N 140.419 -1.14872 1.07899 0
M  V30 1443 C 141.644 -1.90202 0.826926 0
M  V30 1444 C 142.069 -1.77774 -0.614664 0
M  V30 1445 O 141.427 -1.11431 -1.43013 0
M  V30 1446 C 141.475 -3.38352 1.24702 0
M  V30 1447 O 140.579 -4.10497 0.39575 0
M  V30 1448 H 139.92 -0.591968 0.300782 0
M  V30 1449 H 142.45 -1.45437 1.43907 0
M  V30 1450 H 142.46 -3.89156 1.22563 0
M  V30 1451 H 141.135 -3.46715 2.29698 0
M  V30 1452 H 139.712 -3.69796 0.480117 0
M  V30 1453 N 141.898 -0.863906 -1.31812 0
M  V30 1454 C 142.861 -0.320212 -2.26952 0
M  V30 1455 C 143.861 0.525369 -1.51975 0
M  V30 1456 O 145.051 0.335547 -1.70938 0
M  V30 1457 C 142.183 0.545919 -3.365 0
M  V30 1458 H 143.376 -1.16004 -2.76556 0
M  V30 1459 H 140.929 -0.638995 -1.42641 0
M  V30 1460 H 141.664 1.40718 -2.92179 0
M  V30 1461 H 141.449 -0.0594674 -3.92055 0
M  V30 1462 H 142.939 0.918796 -4.07367 0
M  V30 1463 N 143.376 1.44774 -0.622745 0
M  V30 1464 C 144.606 2.06187 -0.130532 0
M  V30 1465 C 145.014 1.46547 1.19669 0
M  V30 1466 O 144.357 0.579636 1.74316 0
M  V30 1467 C 144.419 3.59437 0.0674983 0
M  V30 1468 C 144.083 4.41496 -1.18026 0
M  V30 1469 C 145.08 4.75512 -2.102 0
M  V30 1470 C 142.765 4.82007 -1.41333 0
M  V30 1471 C 144.759 5.48912 -3.23998 0
M  V30 1472 C 142.446 5.55157 -2.55429 0
M  V30 1473 C 143.444 5.88528 -3.46589 0
M  V30 1474 O 143.132 6.60191 -4.58697 0
M  V30 1475 H 142.864 0.672045 -0.0730162 0
M  V30 1476 H 145.418 1.86768 -0.854802 0
M  V30 1477 H 143.648 3.77314 0.846825 0
M  V30 1478 H 145.337 4.02642 0.513209 0
M  V30 1479 H 146.103 4.4476 -1.93425 0
M  V30 1480 H 141.982 4.55457 -0.712709 0
M  V30 1481 H 145.526 5.74877 -3.95174 0
M  V30 1482 H 141.423 5.85324 -2.72151 0
M  V30 1483 H 142.191 6.78654 -4.57571 0
M  V30 1484 N 144.854 0.36279 1.53368 0
M  V30 1485 C 145.784 -0.476976 2.28576 0
M  V30 1486 C 146.765 -1.08631 1.30894 0
M  V30 1487 O 147.95 -1.10409 1.59761 0
M  V30 1488 C 145.08 -1.61828 3.07293 0
M  V30 1489 C 144.034 -1.13633 4.1264 0
M  V30 1490 C 143.36 -2.36766 4.79423 0
M  V30 1491 C 144.66 -0.223061 5.21823 0
M  V30 1492 H 146.354 0.150474 2.99022 0
M  V30 1493 H 143.9 0.0738103 1.43811 0
M  V30 1494 H 145.853 -2.21237 3.58653 0
M  V30 1495 H 144.577 -2.27292 2.34533 0
M  V30 1496 H 143.236 -0.564945 3.62221 0
M  V30 1497 H 142.884 -3.0068 4.03238 0
M  V30 1498 H 142.584 -2.05192 5.50609 0
M  V30 1499 H 144.108 -2.96865 5.33576 0
M  V30 1500 H 145.522 -0.724545 5.68703 0
M  V30 1501 H 143.919 0.001678 6.001 0
M  V30 1502 H 144.989 0.735553 4.79289 0
M  V30 1503 N 146.332 -1.57332 0.0918853 0
M  V30 1504 C 147.562 -1.98286 -0.580205 0
M  V30 1505 C 147.97 -0.969713 -1.6246 0
M  V30 1506 O 147.313 0.0493501 -1.83634 0
M  V30 1507 C 147.375 -3.35603 -1.28882 0
M  V30 1508 C 147.039 -4.55285 -0.395559 0
M  V30 1509 C 148.036 -5.18687 0.355002 0
M  V30 1510 C 145.721 -5.01314 -0.314556 0
M  V30 1511 C 147.715 -6.26484 1.17458 0
M  V30 1512 C 145.402 -6.08979 0.508677 0
M  V30 1513 C 146.4 -6.71429 1.2519 0
M  V30 1514 O 146.088 -7.77018 2.06151 0
M  V30 1515 H 145.82 -0.656678 -0.160466 0
M  V30 1516 H 148.374 -2.04721 0.16688 0
M  V30 1517 H 146.604 -3.25842 -2.08241 0
M  V30 1518 H 148.293 -3.61026 -1.85512 0
M  V30 1519 H 149.059 -4.84058 0.302134 0
M  V30 1520 H 144.938 -4.5247 -0.882697 0
M  V30 1521 H 148.482 -6.75159 1.75518 0
M  V30 1522 H 144.379 -6.4304 0.563037 0
M  V30 1523 H 145.147 -7.93991 1.98799 0
M  V30 1524 N 147.81 0.181792 -1.56548 0
M  V30 1525 C 149.035 0.920019 -1.85877 0
M  V30 1526 C 149.46 1.75494 -0.677021 0
M  V30 1527 O 148.818 1.77399 0.374056 0
M  V30 1528 C 148.866 1.78112 -3.13542 0
M  V30 1529 O 147.97 2.88152 -2.95029 0
M  V30 1530 H 147.311 0.258334 -0.611686 0
M  V30 1531 H 149.841 0.183092 -2.03779 0
M  V30 1532 H 149.851 2.18314 -3.44678 0
M  V30 1533 H 148.526 1.16777 -3.99169 0
M  V30 1534 H 147.103 2.51609 -2.75222 0
M  V30 1535 N 149.288 1.51039 0.449983 0
M  V30 1536 C 150.518 1.66627 1.22143 0
M  V30 1537 C 150.926 0.357776 1.85786 0
M  V30 1538 O 150.269 -0.672424 1.70951 0
M  V30 1539 C 150.331 2.71562 2.35573 0
M  V30 1540 C 149.995 4.14526 1.92399 0
M  V30 1541 C 150.992 4.99717 1.43453 0
M  V30 1542 C 148.677 4.60559 2.00475 0
M  V30 1543 C 150.671 6.28998 1.03155 0
M  V30 1544 C 148.358 5.8984 1.59788 0
M  V30 1545 C 149.356 6.73886 1.11208 0
M  V30 1546 O 149.044 8.0075 0.710935 0
M  V30 1547 H 148.776 0.562635 0.374724 0
M  V30 1548 H 151.33 1.98146 0.541036 0
M  V30 1549 H 149.56 2.3533 3.06849 0
M  V30 1550 H 151.249 2.76156 2.97478 0
M  V30 1551 H 152.015 4.65361 1.36618 0
M  V30 1552 H 147.894 3.95273 2.37235 0
M  V30 1553 H 151.438 6.9455 0.651663 0
M  V30 1554 H 147.335 6.23713 1.66289 0
M  V30 1555 H 148.103 8.142 0.837913 0
M  V30 1556 N 150.766 -0.704594 1.40972 0
M  V30 1557 C 152.012 -1.46675 1.40051 0
M  V30 1558 C 152.345 -1.94199 0.00641102 0
M  V30 1559 O 151.62 -1.68916 -0.964235 0
M  V30 1560 C 151.903 -2.68505 2.39952 0
M  V30 1561 C 151.756 -2.26805 3.88432 0
M  V30 1562 C 153.075 -3.70686 2.37233 0
M  V30 1563 H 150.194 -0.532015 0.510028 0
M  V30 1564 H 152.836 -0.803255 1.72185 0
M  V30 1565 H 150.986 -3.25114 2.1268 0
M  V30 1566 H 152.658 -1.75592 4.26574 0
M  V30 1567 H 150.901 -1.58685 4.03734 0
M  V30 1568 H 151.572 -3.14181 4.53866 0
M  V30 1569 H 154.048 -3.23731 2.61415 0
M  V30 1570 H 152.924 -4.53553 3.09162 0
M  V30 1571 H 153.185 -4.19754 1.38777 0
M  V30 1572 N 152.244 -1.26651 -0.937939 0
M  V30 1573 C 153.472 -1.15173 -1.7188 0
M  V30 1574 C 153.887 0.292668 -1.86518 0
M  V30 1575 O 153.244 1.20014 -1.37488 0
M  V30 1576 C 153.295 -1.81925 -3.12387 0
M  V30 1577 O 153.016 -3.2072 -2.98446 0
M  V30 1578 C 154.517 -1.76442 -4.06673 0
M  V30 1579 H 151.737 -0.400911 -0.538063 0
M  V30 1580 H 154.281 -1.67332 -1.1756 0
M  V30 1581 H 152.436 -1.33696 -3.63599 0
M  V30 1582 H 152.85 -3.53802 -3.872 0
M  V30 1583 H 154.324 -2.27781 -5.02812 0
M  V30 1584 H 154.801 -0.731608 -4.33064 0
M  V30 1585 H 155.407 -2.24238 -3.61382 0
M  V30 1586 N 153.722 1.14298 -1.08507 0
M  V30 1587 C 154.968 1.85633 -0.816581 0
M  V30 1588 C 155.301 1.82784 0.656021 0
M  V30 1589 O 154.576 1.25926 1.48233 0
M  V30 1590 C 154.859 3.34223 -1.34041 0
M  V30 1591 C 154.712 3.45639 -2.87843 0
M  V30 1592 C 156.031 4.29356 -0.9665 0
M  V30 1593 H 153.15 0.67402 -0.298104 0
M  V30 1594 H 155.792 1.34214 -1.34487 0
M  V30 1595 H 153.942 3.78144 -0.89104 0
M  V30 1596 H 155.614 3.10498 -3.41158 0
M  V30 1597 H 153.857 2.86817 -3.25451 0
M  V30 1598 H 154.528 4.50089 -3.19569 0
M  V30 1599 H 157.004 3.93457 -1.35391 0
M  V30 1600 H 155.88 5.3178 -1.3602 0
M  V30 1601 H 156.141 4.41919 0.126362 0
M  V30 1602 N 155.201 0.870884 1.31352 0
M  V30 1603 C 156.449 0.48132 1.96285 0
M  V30 1604 C 156.77 -0.969813 1.69173 0
M  V30 1605 O 156.04 -1.67998 1.00764 0
M  V30 1606 H 154.62 0.175002 0.726212 0
M  V30 1607 H 157.282 1.11087 1.60143 0
M  V30 1608 H 156.378 0.639825 3.05471 0
M  V30 1609 N 156.679 -1.44442 0.630414 0
M  V30 1610 C 157.589 -2.34476 -0.0761693 0
M  V30 1611 C 158.605 -1.52576 -0.836449 0
M  V30 1612 O 159.781 -1.85307 -0.788874 0
M  V30 1613 C 156.846 -3.30545 -1.04599 0
M  V30 1614 C 155.907 -4.28352 -0.28516 0
M  V30 1615 C 155.14 -5.19831 -1.20878 0
M  V30 1616 O 155.363 -5.15223 -2.44747 0
M  V30 1617 O 154.297 -5.97892 -0.693491 0
M  V30 1618 H 158.123 -2.96345 0.664324 0
M  V30 1619 H 155.708 -1.44203 0.39061 0
M  V30 1620 H 157.59 -3.89681 -1.60396 0
M  V30 1621 H 156.265 -2.7121 -1.76711 0
M  V30 1622 H 155.172 -3.72764 0.315837 0
M  V30 1623 H 156.505 -4.90605 0.395924 0
M  V30 1624 N 158.157 -0.370918 -1.53173 0
M  V30 1625 C 159.087 0.464847 -2.28826 0
M  V30 1626 C 160.068 1.07936 -1.31468 0
M  V30 1627 O 161.253 1.0956 -1.60344 0
M  V30 1628 C 158.383 1.60196 -3.08147 0
M  V30 1629 C 157.337 1.11443 -4.13237 0
M  V30 1630 C 156.663 2.3422 -4.80672 0
M  V30 1631 C 157.963 0.195384 -5.21934 0
M  V30 1632 H 159.657 -0.166329 -2.98938 0
M  V30 1633 H 157.203 -0.0814359 -1.4377 0
M  V30 1634 H 159.156 2.19332 -3.59822 0
M  V30 1635 H 157.88 2.26045 -2.35735 0
M  V30 1636 H 156.539 0.545727 -3.62515 0
M  V30 1637 H 156.187 2.98537 -4.04827 0
M  V30 1638 H 155.887 2.02269 -5.51689 0
M  V30 1639 H 157.411 2.94032 -5.35143 0
M  V30 1640 H 158.825 0.694375 -5.69079 0
M  V30 1641 H 157.222 -0.0335027 -6.00091 0
M  V30 1642 H 158.292 -0.760961 -4.78892 0
M  V30 1643 N 159.635 1.57281 -0.100228 0
M  V30 1644 C 160.881 1.95626 0.556946 0
M  V30 1645 C 161.236 0.981655 1.65473 0
M  V30 1646 O 160.529 0.00849847 1.91598 0
M  V30 1647 C 160.723 3.38305 1.15259 0
M  V30 1648 C 160.552 4.49555 0.114035 0
M  V30 1649 C 159.322 5.0434 -0.311266 0
M  V30 1650 C 161.52 5.10051 -0.659768 0
M  V30 1651 N 159.502 5.99152 -1.33755 0
M  V30 1652 C 160.873 6.00628 -1.53774 0
M  V30 1653 C 162.928 4.92772 -0.712723 0
M  V30 1654 C 161.631 6.7578 -2.46403 0
M  V30 1655 C 163.657 5.6859 -1.62663 0
M  V30 1656 C 163.019 6.58838 -2.49222 0
M  V30 1657 H 159.118 0.7624 0.173982 0
M  V30 1658 H 161.702 1.93829 -0.183988 0
M  V30 1659 H 159.873 3.40786 1.86332 0
M  V30 1660 H 161.605 3.63817 1.77254 0
M  V30 1661 H 158.36 4.73537 0.0774812 0
M  V30 1662 H 158.784 6.5126 -1.84905 0
M  V30 1663 H 163.426 4.22761 -0.0576648 0
M  V30 1664 H 161.144 7.4505 -3.12931 0
M  V30 1665 H 164.73 5.57233 -1.67281 0
M  V30 1666 H 163.61 7.16479 -3.18791 0
M  V30 1667 N 161.113 -0.173488 1.56642 0
M  V30 1668 C 162.076 -1.19859 1.95362 0
M  V30 1669 C 163.076 -1.37296 0.83704 0
M  V30 1670 O 164.266 -1.34739 1.10413 0
M  V30 1671 C 161.398 -2.56405 2.24654 0
M  V30 1672 H 162.591 -0.867062 2.87092 0
M  V30 1673 H 160.144 -0.415853 1.50666 0
M  V30 1674 H 160.879 -2.94576 1.35631 0
M  V30 1675 H 160.664 -2.45115 3.06041 0
M  V30 1676 H 162.154 -3.30287 2.5554 0
M  V30 1677 N 162.591 -1.51276 -0.441967 0
M  V30 1678 C 163.838 -1.63715 -1.19179 0
M  V30 1679 C 164.166 -0.351175 -1.91303 0
M  V30 1680 O 163.421 0.664524 -1.84072 0
M  V30 1681 C 163.72 -2.78746 -2.23686 0
M  V30 1682 C 163.386 -4.18189 -1.68607 0
M  V30 1683 C 162.048 -4.56125 -1.53308 0
M  V30 1684 C 164.4 -5.05222 -1.28062 0
M  V30 1685 C 161.728 -5.78804 -0.959317 0
M  V30 1686 C 164.08 -6.28476 -0.721162 0
M  V30 1687 C 162.744 -6.65188 -0.55504 0
M  V30 1688 H 162.014 -0.599076 -0.436106 0
M  V30 1689 H 164.661 -1.85296 -0.48351 0
M  V30 1690 H 162.966 -2.51369 -3.00535 0
M  V30 1691 H 164.663 -2.8557 -2.81515 0
M  V30 1692 H 161.253 -3.88277 -1.8149 0
M  V30 1693 H 165.437 -4.76524 -1.38704 0
M  V30 1694 H 160.693 -6.05899 -0.81833 0
M  V30 1695 H 164.867 -6.95259 -0.398458 0
M  V30 1696 H 162.494 -7.60123 -0.108311 0
M  V30 1697 N 164.069 0.697108 -1.41344 0
M  V30 1698 C 165.297 1.48593 -1.43972 0
M  V30 1699 C 165.712 1.88747 -0.0445612 0
M  V30 1700 O 165.069 1.56682 0.935785 0
M  V30 1701 C 165.12 2.74946 -2.34706 0
M  V30 1702 O 164.841 2.36484 -3.68791 0
M  V30 1703 C 166.342 3.687 -2.46121 0
M  V30 1704 H 163.562 0.457964 -0.490418 0
M  V30 1705 H 166.106 0.858429 -1.8561 0
M  V30 1706 H 164.261 3.33937 -1.9638 0
M  V30 1707 H 164.675 3.17918 -4.17167 0
M  V30 1708 H 166.149 4.54145 -3.13777 0
M  V30 1709 H 166.626 4.13081 -1.49199 0
M  V30 1710 H 167.232 3.15613 -2.85076 0
M  V30 1711 N 165.547 1.27147 0.931209 0
M  V30 1712 C 166.775 1.16082 1.71267 0
M  V30 1713 C 167.19 -0.282772 1.8667 0
M  V30 1714 O 166.547 -1.19283 1.38122 0
M  V30 1715 C 166.598 1.8358 3.11417 0
M  V30 1716 O 166.319 3.22299 2.96741 0
M  V30 1717 C 167.82 1.78597 4.05732 0
M  V30 1718 H 165.04 0.403758 0.535929 0
M  V30 1719 H 167.584 1.67953 1.16671 0
M  V30 1720 H 165.739 1.35623 3.62885 0
M  V30 1721 H 166.153 3.55851 3.85319 0
M  V30 1722 H 167.627 2.30444 5.01597 0
M  V30 1723 H 168.104 0.754564 4.3267 0
M  V30 1724 H 168.71 2.26152 3.60188 0
M  V30 1725 N 167.025 -1.13721 1.09112 0
M  V30 1726 C 168.273 -1.84559 0.823562 0
M  V30 1727 C 168.594 -1.83754 -0.652658 0
M  V30 1728 O 167.864 -1.29102 -1.47342 0
M  V30 1729 H 166.444 -0.683376 0.301673 0
M  V30 1730 H 169.106 -1.37771 1.37859 0
M  V30 1731 H 168.202 -2.8917 1.17419 0
M  V30 1732 N 168.503 -0.877838 -1.30888 0
M  V30 1733 C 169.749 -0.502773 -1.97088 0
M  V30 1734 C 170.104 0.936274 -1.68082 0
M  V30 1735 O 169.397 1.65162 -0.971196 0
M  V30 1736 C 169.591 -0.705748 -3.50363 0
M  V30 1737 C 169.42 -2.16297 -3.94266 0
M  V30 1738 C 168.19 -2.80614 -4.20219 0
M  V30 1739 C 170.388 -3.13606 -4.07622 0
M  V30 1740 N 168.37 -4.17007 -4.50532 0
M  V30 1741 C 169.741 -4.35051 -4.41736 0
M  V30 1742 C 171.796 -3.09491 -3.90026 0
M  V30 1743 C 170.499 -5.52911 -4.60089 0
M  V30 1744 C 172.525 -4.26616 -4.09576 0
M  V30 1745 C 171.887 -5.46825 -4.44029 0
M  V30 1746 H 167.986 -0.233168 -0.746429 0
M  V30 1747 H 170.57 -1.13408 -1.58261 0
M  V30 1748 H 168.741 -0.103976 -3.88261 0
M  V30 1749 H 170.473 -0.298291 -4.03599 0
M  V30 1750 H 167.228 -2.3152 -4.13153 0
M  V30 1751 H 167.652 -4.87426 -4.69834 0
M  V30 1752 H 172.294 -2.17657 -3.62471 0
M  V30 1753 H 170.012 -6.45255 -4.86489 0
M  V30 1754 H 173.598 -4.24894 -3.97438 0
M  V30 1755 H 172.478 -6.35947 -4.58848 0
M  V30 1756 N 169.982 1.44106 -0.638065 0
M  V30 1757 C 170.93 2.3248 0.0748149 0
M  V30 1758 C 171.924 1.47746 0.828702 0
M  V30 1759 O 173.13 1.64049 0.740816 0
M  V30 1760 H 169.505 0.750771 0.0429686 0
M  V30 1761 H 171.476 2.90348 -0.688504 0
M  V30 1762 C 170.225 3.31843 1.03805 0
M  V30 1763 H 169.548 3.97059 0.467375 0
M  V30 1764 H 170.988 3.96345 1.50622 0
M  V30 1765 C 169.447 2.61291 2.1267 0
M  V30 1766 O 169.977 2.41702 3.20847 0
M  V30 1767 N 168.183 2.20915 1.88798 0
M  V30 1768 H 167.73 2.37047 1.00829 0
M  V30 1769 H 167.688 1.74038 2.61836 0
M  V30 1770 N 171.46 0.379036 1.52974 0
M  V30 1771 C 172.39 -0.452706 2.29069 0
M  V30 1772 C 173.371 -1.07237 1.32039 0
M  V30 1773 O 174.556 -1.08708 1.60923 0
M  V30 1774 C 171.686 -1.5856 3.08992 0
M  V30 1775 C 170.64 -1.0925 4.13822 0
M  V30 1776 C 169.966 -2.31668 4.81907 0
M  V30 1777 C 171.266 -0.167702 5.22031 0
M  V30 1778 H 172.96 0.182181 2.98845 0
M  V30 1779 H 170.506 0.0890592 1.43724 0
M  V30 1780 H 172.459 -2.1742 3.6098 0
M  V30 1781 H 171.183 -2.24792 2.36931 0
M  V30 1782 H 169.842 -0.526494 3.628 0
M  V30 1783 H 169.49 -2.96386 4.06404 0
M  V30 1784 H 169.19 -1.9934 5.52754 0
M  V30 1785 H 170.714 -2.91189 5.36695 0
M  V30 1786 H 172.128 -0.664186 5.6944 0
M  V30 1787 H 170.525 0.0653265 6.00064 0
M  V30 1788 H 171.595 0.786347 4.78482 0
M  V30 1789 N 172.938 -1.57226 0.108567 0
M  V30 1790 C 174.187 -1.94008 -0.551703 0
M  V30 1791 C 174.5 -0.993442 -1.68494 0
M  V30 1792 O 175.706 -1.25551 -2.40726 0
M  V30 1793 C 174.162 -3.44763 -1.03279 0
M  V30 1794 C 173.77 -4.47943 0.0714193 0
M  V30 1795 C 175.514 -3.90483 -1.66503 0
M  V30 1796 C 173.421 -5.89865 -0.425779 0
M  V30 1797 H 172.351 -0.724206 -0.209863 0
M  V30 1798 H 175.002 -1.82547 0.186741 0
M  V30 1799 H 173.384 -3.51422 -1.82533 0
M  V30 1800 H 174.558 -4.52942 0.847365 0
M  V30 1801 H 172.873 -4.11913 0.609669 0
M  V30 1802 H 175.47 -4.93925 -2.04798 0
M  V30 1803 H 175.813 -3.29877 -2.53942 0
M  V30 1804 H 176.346 -3.86581 -0.938074 0
M  V30 1805 H 173.085 -6.54202 0.412316 0
M  V30 1806 H 172.605 -5.88309 -1.16843 0
M  V30 1807 H 174.284 -6.40844 -0.890397 0
M  V30 1808 N 174.416 0.165178 -1.56732 0
M  V30 1809 C 175.346 1.20651 -1.99914 0
M  V30 1810 C 176.327 1.45827 -0.875705 0
M  V30 1811 O 177.512 1.57057 -1.14223 0
M  V30 1812 C 174.642 2.54401 -2.36427 0
M  V30 1813 C 173.596 2.43782 -3.51787 0
M  V30 1814 C 172.922 3.82078 -3.7406 0
M  V30 1815 C 174.222 1.93732 -4.85041 0
M  V30 1816 H 175.916 0.847534 -2.87154 0
M  V30 1817 H 173.462 0.40625 -1.38151 0
M  V30 1818 H 175.415 3.27458 -2.65234 0
M  V30 1819 H 174.139 2.92098 -1.46103 0
M  V30 1820 H 172.798 1.73178 -3.23117 0
M  V30 1821 H 172.446 4.17179 -2.81017 0
M  V30 1822 H 172.146 3.7584 -4.51684 0
M  V30 1823 H 173.67 4.56712 -4.05274 0
M  V30 1824 H 175.084 2.56569 -5.12684 0
M  V30 1825 H 173.481 1.98428 -5.66345 0
M  V30 1826 H 174.551 0.891962 -4.76626 0
M  V30 1827 N 175.894 1.51508 0.433938 0
M  V30 1828 C 177.119 1.68443 1.21003 0
M  V30 1829 C 177.544 0.382636 1.84167 0
M  V30 1830 O 176.902 -0.65755 1.68956 0
M  V30 1831 C 176.95 2.80405 2.26727 0
M  V30 1832 O 176.054 2.44245 3.32292 0
M  V30 1833 H 175.395 0.561536 0.354363 0
M  V30 1834 H 177.925 1.9809 0.512024 0
M  V30 1835 H 177.935 3.0459 2.71457 0
M  V30 1836 H 176.61 3.74867 1.80132 0
M  V30 1837 H 175.187 2.30644 2.93015 0
M  V30 1838 N 177.372 -0.689602 1.41712 0
M  V30 1839 C 178.602 -1.47613 1.44548 0
M  V30 1840 C 179.01 -1.89132 0.0509034 0
M  V30 1841 O 178.353 -1.57741 -0.94146 0
M  V30 1842 C 178.415 -2.76596 2.2964 0
M  V30 1843 C 178.079 -2.57245 3.77722 0
M  V30 1844 C 179.076 -2.22804 4.69739 0
M  V30 1845 C 176.761 -2.727 4.2183 0
M  V30 1846 C 178.755 -2.04064 6.03851 0
M  V30 1847 C 176.442 -2.53576 5.56006 0
M  V30 1848 C 177.44 -2.1931 6.46832 0
M  V30 1849 O 177.128 -2.00359 7.78532 0
M  V30 1850 H 176.86 -0.461227 0.494212 0
M  V30 1851 H 179.414 -0.856045 1.86711 0
M  V30 1852 H 177.644 -3.41033 1.82301 0
M  V30 1853 H 179.333 -3.38424 2.24107 0
M  V30 1854 H 180.099 -2.10473 4.36951 0
M  V30 1855 H 175.978 -2.98353 3.51435 0
M  V30 1856 H 179.522 -1.77241 6.74708 0
M  V30 1857 H 175.419 -2.65499 5.88371 0
M  V30 1858 H 176.187 -2.15075 7.89737 0
M  V30 1859 N 178.85 -1.27639 -0.924453 0
M  V30 1860 C 180.096 -1.14336 -1.67497 0
M  V30 1861 C 180.429 0.309465 -1.91718 0
M  V30 1862 O 179.704 1.22608 -1.50989 0
M  V30 1863 C 179.987 -1.93096 -3.0395 0
M  V30 1864 C 179.84 -3.46381 -2.8695 0
M  V30 1865 C 181.159 -1.73798 -4.0433 0
M  V30 1866 H 178.278 -0.416728 -0.607871 0
M  V30 1867 H 180.92 -1.56832 -1.07256 0
M  V30 1868 H 179.07 -1.56982 -3.55372 0
M  V30 1869 H 180.742 -3.92343 -2.42621 0
M  V30 1870 H 178.985 -3.72557 -2.22225 0
M  V30 1871 H 179.656 -3.96735 -3.83804 0
M  V30 1872 H 182.132 -2.05293 -3.61931 0
M  V30 1873 H 181.008 -2.31294 -4.97789 0
M  V30 1874 H 181.269 -0.686725 -4.36734 0
M  V30 1875 N 180.328 1.1314 -1.09713 0
M  V30 1876 C 181.577 1.83838 -0.829851 0
M  V30 1877 C 181.89 1.84599 0.646728 0
M  V30 1878 O 183.096 2.51218 1.02965 0
M  V30 1879 C 181.552 3.30069 -1.43466 0
M  V30 1880 C 181.16 3.37688 -2.94399 0
M  V30 1881 C 182.904 4.05788 -1.24645 0
M  V30 1882 C 180.811 4.78209 -3.47952 0
M  V30 1883 H 179.741 0.68877 -0.306777 0
M  V30 1884 H 182.392 1.27448 -1.3202 0
M  V30 1885 H 180.774 3.8628 -0.871996 0
M  V30 1886 H 181.948 2.91456 -3.56918 0
M  V30 1887 H 180.263 2.75436 -3.12289 0
M  V30 1888 H 182.86 5.09535 -1.62107 0
M  V30 1889 H 183.203 4.15878 -0.187357 0
M  V30 1890 H 183.736 3.55915 -1.77678 0
M  V30 1891 H 180.475 4.73311 -4.53495 0
M  V30 1892 H 179.995 5.24924 -2.90198 0
M  V30 1893 H 181.674 5.47133 -3.45332 0
M  V30 1894 N 181.806 0.884767 1.30421 0
M  V30 1895 C 183.054 0.502112 1.95763 0
M  V30 1896 C 183.375 -0.951815 1.70192 0
M  V30 1897 O 182.645 -1.6692 1.0254 0
M  V30 1898 H 181.225 0.182694 0.724315 0
M  V30 1899 H 183.887 1.1278 1.58955 0
M  V30 1900 H 182.983 0.672188 3.04775 0
M  V30 1901 N 183.284 -1.43765 0.645699 0
M  V30 1902 C 184.512 -2.06253 0.163556 0
M  V30 1903 C 184.927 -1.48352 -1.16778 0
M  V30 1904 O 184.284 -0.611932 -1.71935 0
M  V30 1905 C 184.335 -3.61453 0.0583186 0
M  V30 1906 O 184.056 -4.172 1.33702 0
M  V30 1907 C 185.557 -4.41002 -0.450795 0
M  V30 1908 H 182.777 -0.665413 0.0864077 0
M  V30 1909 H 185.321 -1.84396 0.884222 0
M  V30 1910 H 183.476 -3.82522 -0.612865 0
M  V30 1911 H 183.89 -5.10791 1.19131 0
M  V30 1912 H 185.364 -5.49966 -0.473403 0
M  V30 1913 H 185.841 -4.13488 -1.48068 0
M  V30 1914 H 186.447 -4.24886 0.187637 0
M  V30 1915 N 184.763 -0.387143 -1.52771 0
M  V30 1916 C 185.726 0.436939 -2.24997 0
M  V30 1917 C 186.726 0.991991 -1.26555 0
M  V30 1918 O 187.916 0.874335 -1.50669 0
M  V30 1919 C 185.048 1.61281 -3.00335 0
M  V30 1920 H 186.241 -0.195365 -2.99263 0
M  V30 1921 H 183.794 -0.139218 -1.55679 0
M  V30 1922 H 184.529 2.2826 -2.30364 0
M  V30 1923 H 184.314 1.22154 -3.72587 0
M  V30 1924 H 185.804 2.19629 -3.5518 0
M  V30 1925 N 186.241 1.57166 -0.116904 0
M  V30 1926 C 187.466 1.999 0.55271 0
M  V30 1927 C 187.891 0.996039 1.59564 0
M  V30 1928 O 187.249 -0.032556 1.81271 0
M  V30 1929 C 187.297 3.4152 1.15742 0
M  V30 1930 O 186.401 3.44106 2.27299 0
M  V30 1931 H 185.742 0.649447 0.138258 0
M  V30 1932 H 188.272 2.03573 -0.204759 0
M  V30 1933 H 188.282 3.79684 1.49346 0
M  V30 1934 H 186.957 4.14034 0.393493 0
M  V30 1935 H 185.534 3.17759 1.9515 0
M  V30 1936 N 187.719 -0.156864 1.56817 0
M  V30 1937 C 188.965 -0.872416 1.83076 0
M  V30 1938 C 189.298 -1.81261 0.697001 0
M  V30 1939 O 188.573 -1.92171 -0.30008 0
M  V30 1940 C 188.856 -1.65551 3.19789 0
M  V30 1941 C 188.709 -0.737467 4.43713 0
M  V30 1942 C 190.028 -2.62012 3.53606 0
M  V30 1943 H 187.147 -0.315715 0.665953 0
M  V30 1944 H 189.789 -0.138004 1.89498 0
M  V30 1945 H 187.939 -2.28159 3.14445 0
M  V30 1946 H 189.611 -0.123143 4.61136 0
M  V30 1947 H 187.854 -0.0464067 4.33775 0
M  V30 1948 H 188.525 -1.32122 5.35955 0
M  V30 1949 H 191.001 -2.09525 3.59497 0
M  V30 1950 H 189.877 -3.13861 4.50314 0
M  V30 1951 H 190.138 -3.42902 2.79053 0
M  V30 1952 N 189.197 -1.51736 -0.425897 0
M  V30 1953 C 190.16 -1.73271 -1.50032 0
M  V30 1954 C 191.16 -0.602639 -1.4908 0
M  V30 1955 O 192.35 -0.87033 -1.509 0
M  V30 1956 C 189.482 -1.79969 -2.89523 0
M  V30 1957 H 190.675 -2.69172 -1.32237 0
M  V30 1958 H 188.228 -1.41899 -0.65532 0
M  V30 1959 H 188.963 -0.859241 -3.1271 0
M  V30 1960 H 188.748 -2.62109 -2.91619 0
M  V30 1961 H 190.238 -1.9843 -3.67444 0
M  V30 1962 N 190.675 0.682077 -1.42076 0
M  V30 1963 C 192.091 0.994324 -1.24841 0
M  V30 1964 C 192.291 2.0096 -0.147389 0
M  V30 1965 O 191.347 2.47822 0.483782 0
M  V30 1966 C 192.66 1.50607 -2.60265 0
M  V30 1967 C 194.208 1.62421 -2.6756 0
M  V30 1968 C 194.683 2.16994 -4.03333 0
M  V30 1969 N 196.174 2.24337 -4.0525 0
M  V30 1970 C 196.909 2.67621 -5.07116 0
M  V30 1971 N 196.405 3.1041 -6.19368 0
M  V30 1972 N 198.198 2.67305 -4.94474 0
M  V30 1973 H 190.349 0.00973908 -2.12398 0
M  V30 1974 H 192.612 0.0668593 -0.945639 0
M  V30 1975 H 192.318 0.834583 -3.41654 0
M  V30 1976 H 192.192 2.48602 -2.83684 0
M  V30 1977 H 194.579 2.28678 -1.86521 0
M  V30 1978 H 194.66 0.629352 -2.47937 0
M  V30 1979 H 194.304 1.51349 -4.84826 0
M  V30 1980 H 194.234 3.17258 -4.20304 0
M  V30 1981 H 196.725 1.94158 -3.24209 0
M  V30 1982 H 197.038 3.42103 -6.92954 0
M  V30 1983 H 195.383 3.08286 -6.22884 0
M  V30 1984 H 198.574 2.33233 -4.05857 0
M  V30 1985 H 198.747 3.00718 -5.73997 0
M  V30 1986 N 192.153 1.28127 0.917671 0
M  V30 1987 C 193.116 1.11744 2.00115 0
M  V30 1988 C 194.116 0.0583052 1.60694 0
M  V30 1989 O 195.306 0.303755 1.71531 0
M  V30 1990 C 192.438 0.704862 3.33533 0
M  V30 1991 H 193.631 2.07966 2.16079 0
M  V30 1992 H 191.184 1.11058 1.09981 0
M  V30 1993 H 191.919 -0.258299 3.2327 0
M  V30 1994 H 191.704 1.4699 3.63505 0
M  V30 1995 H 193.194 0.612768 4.1308 0
M  V30 1996 N 193.631 -1.12557 1.10312 0
M  V30 1997 C 194.877 -1.84515 0.855901 0
M  V30 1998 C 195.232 -1.82409 -0.611936 0
M  V30 1999 O 194.525 -1.25778 -1.44535 0
M  V30 2000 C 194.719 -3.31462 1.33669 0
M  V30 2001 C 194.548 -3.47879 2.84974 0
M  V30 2002 C 193.318 -3.61589 3.52961 0
M  V30 2003 C 195.516 -3.43152 3.83081 0
M  V30 2004 N 193.498 -3.66359 4.926 0
M  V30 2005 C 194.869 -3.54401 5.08724 0
M  V30 2006 C 196.924 -3.2661 3.75807 0
M  V30 2007 C 195.627 -3.50815 6.2795 0
M  V30 2008 C 197.653 -3.24335 4.94531 0
M  V30 2009 C 197.015 -3.36144 6.19021 0
M  V30 2010 H 193.114 -0.690967 0.366182 0
M  V30 2011 H 195.698 -1.34763 1.40524 0
M  V30 2012 H 193.869 -3.7976 0.814686 0
M  V30 2013 H 195.601 -3.91272 1.03385 0
M  V30 2014 H 192.356 -3.63652 3.03404 0
M  V30 2015 H 192.78 -3.72411 5.65366 0
M  V30 2016 H 197.422 -3.16375 2.80476 0
M  V30 2017 H 195.14 -3.5982 7.23571 0
M  V30 2018 H 198.726 -3.12719 4.9061 0
M  V30 2019 H 197.606 -3.34357 7.09348 0
M  V30 2020 N 195.109 -0.891671 -1.2995 0
M  V30 2021 C 196.334 -0.527932 -2.00568 0
M  V30 2022 C 196.759 0.877969 -1.66353 0
M  V30 2023 O 196.117 1.58301 -0.883762 0
M  V30 2024 C 196.165 -0.717745 -3.53385 0
M  V30 2025 O 195.269 0.233376 -4.11739 0
M  V30 2026 H 194.61 -0.20722 -0.630837 0
M  V30 2027 H 197.14 -1.20105 -1.65638 0
M  V30 2028 H 197.15 -0.619307 -4.03272 0
M  V30 2029 H 195.825 -1.74276 -3.77625 0
M  V30 2030 H 194.402 0.0880706 -3.72796 0
M  V30 2031 N 196.587 1.43421 -0.653314 0
M  V30 2032 C 197.812 2.06678 -0.172846 0
M  V30 2033 C 198.237 1.48648 1.15262 0
M  V30 2034 O 197.595 0.596457 1.71208 0
M  V30 2035 C 197.643 3.60474 -0.0953184 0
M  V30 2036 O 196.747 4.01487 0.942442 0
M  V30 2037 H 196.088 0.657181 -0.0949155 0
M  V30 2038 H 198.618 1.83925 -0.896265 0
M  V30 2039 H 198.628 4.07905 0.0879728 0
M  V30 2040 H 197.303 4.02088 -1.06291 0
M  V30 2041 H 195.88 3.65646 0.731932 0
M  V30 2042 N 198.065 0.39524 1.52563 0
M  V30 2043 C 199.028 -0.425001 2.25225 0
M  V30 2044 C 200.028 -0.985266 1.27079 0
M  V30 2045 O 201.218 -0.866332 1.5113 0
M  V30 2046 C 198.35 -1.59686 3.01186 0
M  V30 2047 H 199.543 0.211233 2.99155 0
M  V30 2048 H 197.096 0.147472 1.55603 0
M  V30 2049 H 197.831 -2.27035 2.31572 0
M  V30 2050 H 197.616 -1.20176 3.73229 0
M  V30 2051 H 199.106 -2.17743 3.5634 0
M  V30 2052 N 199.544 -1.57102 0.125237 0
M  V30 2053 C 200.791 -1.95407 -0.531248 0
M  V30 2054 C 201.119 -1.0089 -1.66287 0
M  V30 2055 O 200.374 -0.0339431 -1.95671 0
M  V30 2056 C 200.673 -3.40096 -1.09862 0
M  V30 2057 C 200.339 -4.50815 -0.0876989 0
M  V30 2058 C 199.001 -4.80824 0.19026 0
M  V30 2059 C 201.353 -5.17724 0.600902 0
M  V30 2060 C 198.681 -5.75058 1.163 0
M  V30 2061 C 201.033 -6.13005 1.56231 0
M  V30 2062 C 199.697 -6.41403 1.8482 0
M  V30 2063 H 198.967 -0.715046 -0.194397 0
M  V30 2064 H 201.614 -1.90373 0.207463 0
M  V30 2065 H 199.919 -3.41855 -1.91422 0
M  V30 2066 H 201.616 -3.6705 -1.61478 0
M  V30 2067 H 198.206 -4.27444 -0.314528 0
M  V30 2068 H 202.39 -4.94691 0.399333 0
M  V30 2069 H 197.646 -5.95362 1.39117 0
M  V30 2070 H 201.82 -6.63934 2.10153 0
M  V30 2071 H 199.447 -7.14229 2.60349 0
M  V30 2072 N 201.022 0.148545 -1.56898 0
M  V30 2073 C 202.299 0.890019 -1.74178 0
M  V30 2074 C 202.679 1.99407 -0.692839 0
M  V30 2075 O 202.027 2.26671 0.288505 0
M  V30 2076 C 202.237 1.43389 -3.18183 0
M  V30 2077 C 203.585 1.89791 -3.79822 0
M  V30 2078 O 204.609 1.53134 -3.21603 0
M  V30 2079 O 203.468 2.57387 -4.82093 0
M  V30 2080 H 200.562 0.420496 -0.712118 0
M  V30 2081 H 203.108 0.134591 -1.69165 0
M  V30 2082 H 201.88 0.640383 -3.86024 0
M  V30 2083 H 201.503 2.25287 -3.27615 0
M  V30 2084 N 202.5 1.5196 0.417844 0
M  V30 2085 C 203.448 1.75278 1.52907 0
M  V30 2086 C 204.442 0.619611 1.57662 0
M  V30 2087 O 205.648 0.801457 1.61173 0
M  V30 2088 H 202.023 0.554141 0.508362 0
M  V30 2089 H 203.994 2.68389 1.30422 0
M  V30 2090 C 202.743 1.91262 2.90369 0
M  V30 2091 H 202.066 2.77872 2.8745 0
M  V30 2092 H 203.506 2.11581 3.67436 0
M  V30 2093 C 201.965 0.677431 3.30019 0
M  V30 2094 O 202.495 -0.158799 4.01386 0
M  V30 2095 N 200.701 0.515851 2.85985 0
M  V30 2096 H 200.248 1.19744 2.28077 0
M  V30 2097 H 200.206 -0.309315 3.12875 0
M  V30 2098 N 203.978 -0.674533 1.42435 0
M  V30 2099 C 204.908 -1.80009 1.48724 0
M  V30 2100 C 205.889 -1.6659 0.343793 0
M  V30 2101 O 207.074 -1.86007 0.558137 0
M  V30 2102 C 204.204 -3.18306 1.38919 0
M  V30 2103 C 203.158 -3.46461 2.51294 0
M  V30 2104 C 202.484 -4.84335 2.26547 0
M  V30 2105 C 203.784 -3.43328 3.93603 0
M  V30 2106 H 205.478 -1.75004 2.42928 0
M  V30 2107 H 203.024 -0.840533 1.16923 0
M  V30 2108 H 204.977 -3.9678 1.41927 0
M  V30 2109 H 203.701 -3.2399 0.412094 0
M  V30 2110 H 202.36 -2.70348 2.47604 0
M  V30 2111 H 202.008 -4.86669 1.2713 0
M  V30 2112 H 201.708 -5.04136 3.01861 0
M  V30 2113 H 203.232 -5.65094 2.31304 0
M  V30 2114 H 204.646 -4.11772 3.98894 0
M  V30 2115 H 203.043 -3.74664 4.68771 0
M  V30 2116 H 204.113 -2.41897 4.20255 0
M  V30 2117 N 205.456 -1.28612 -0.910864 0
M  V30 2118 C 206.705 -1.15311 -1.65488 0
M  V30 2119 C 207.018 0.296999 -1.93332 0
M  V30 2120 O 208.224 0.551168 -2.65847 0
M  V30 2121 C 206.68 -2.01599 -2.98137 0
M  V30 2122 C 206.288 -3.51367 -2.7793 0
M  V30 2123 C 208.032 -1.96993 -3.76024 0
M  V30 2124 C 205.939 -4.29797 -4.06237 0
M  V30 2125 H 204.869 -0.42796 -0.620779 0
M  V30 2126 H 207.52 -1.53166 -1.01057 0
M  V30 2127 H 205.902 -1.56603 -3.63719 0
M  V30 2128 H 207.076 -4.0434 -2.21011 0
M  V30 2129 H 205.391 -3.57529 -2.13452 0
M  V30 2130 H 207.988 -2.52856 -4.71135 0
M  V30 2131 H 208.331 -0.94733 -4.05378 0
M  V30 2132 H 208.864 -2.39973 -3.17266 0
M  V30 2133 H 205.603 -5.32648 -3.82055 0
M  V30 2134 H 205.123 -3.81596 -4.62757 0
M  V30 2135 H 206.802 -4.39869 -4.74473 0
M  V30 2136 N 206.934 1.1197 -1.10907 0
M  V30 2137 C 208.182 1.83225 -0.852819 0
M  V30 2138 C 208.503 1.84769 0.623341 0
M  V30 2139 O 207.773 1.3143 1.45269 0
M  V30 2140 H 206.353 0.67849 -0.312507 0
M  V30 2141 H 209.015 1.3556 -1.40033 0
M  V30 2142 H 208.111 2.87265 -1.22005 0
M  V30 2143 N 208.412 0.89855 1.29475 0
M  V30 2144 C 209.36 0.365253 2.29714 0
M  V30 2145 C 210.354 -0.534993 1.6073 0
M  V30 2146 O 211.56 -0.417921 1.75081 0
M  V30 2147 H 207.935 0.0994853 0.74539 0
M  V30 2148 H 209.906 1.22406 2.72138 0
M  V30 2149 C 208.655 -0.393159 3.4547 0
M  V30 2150 H 207.978 0.290332 3.98744 0
M  V30 2151 H 209.418 -0.731189 4.17648 0
M  V30 2152 C 207.877 -1.59539 2.9673 0
M  V30 2153 O 208.407 -2.69469 2.97908 0
M  V30 2154 N 206.613 -1.43716 2.52575 0
M  V30 2155 H 206.16 -0.542828 2.51816 0
M  V30 2156 H 206.118 -2.24288 2.20323 0
M  V30 2157 N 209.89 -1.43072 0.660911 0
M  V30 2158 C 210.84 -2.27948 -0.04847 0
M  V30 2159 C 211.824 -1.40325 -0.787246 0
M  V30 2160 O 213.016 -1.63893 -0.668446 0
M  V30 2161 C 210.145 -3.28143 -1.00881 0
M  V30 2162 C 209.231 -4.23252 -0.268108 0
M  V30 2163 N 209.622 -5.00656 0.719528 0
M  V30 2164 C 207.92 -4.43092 -0.508493 0
M  V30 2165 C 208.621 -5.70019 1.15988 0
M  V30 2166 N 207.597 -5.41364 0.492584 0
M  V30 2167 H 211.399 -2.85213 0.709279 0
M  V30 2168 H 208.913 -1.54869 0.488822 0
M  V30 2169 H 210.91 -3.87736 -1.53188 0
M  V30 2170 H 209.57 -2.7244 -1.76654 0
M  V30 2171 H 210.581 -5.06115 1.09855 0
M  V30 2172 H 207.258 -3.98449 -1.24679 0
M  V30 2173 H 208.648 -6.4214 1.97751 0
M  V30 2174 N 211.368 -0.403325 -1.52352 0
M  V30 2175 C 212.617 0.175668 -2.00934 0
M  V30 2176 C 212.93 1.46718 -1.29356 0
M  V30 2177 O 214.136 2.12708 -1.68724 0
M  V30 2178 C 212.592 0.363612 -3.58058 0
M  V30 2179 C 212.2 -0.915472 -4.38547 0
M  V30 2180 C 213.944 0.89821 -4.14888 0
M  V30 2181 C 211.851 -0.695035 -5.87302 0
M  V30 2182 H 210.781 0.0694234 -0.750797 0
M  V30 2183 H 213.432 -0.527879 -1.75743 0
M  V30 2184 H 211.814 1.12935 -3.79555 0
M  V30 2185 H 212.988 -1.68691 -4.28812 0
M  V30 2186 H 211.303 -1.37606 -3.93006 0
M  V30 2187 H 213.9 1.07907 -5.23699 0
M  V30 2188 H 214.243 1.87126 -3.71873 0
M  V30 2189 H 214.776 0.191681 -3.97338 0
M  V30 2190 H 211.515 -1.63948 -6.34666 0
M  V30 2191 H 211.035 0.0372116 -5.99788 0
M  V30 2192 H 212.714 -0.33497 -6.46132 0
M  V30 2193 N 212.846 1.57033 -0.133567 0
M  V30 2194 C 214.071 2.00475 0.531477 0
M  V30 2195 C 214.496 1.01291 1.58499 0
M  V30 2196 O 213.854 -0.0133279 1.81295 0
M  V30 2197 C 213.902 3.42729 1.12113 0
M  V30 2198 O 213.006 3.46498 2.23636 0
M  V30 2199 H 212.347 0.650876 0.131362 0
M  V30 2200 H 214.877 2.03344 -0.22634 0
M  V30 2201 H 214.887 3.81246 1.4531 0
M  V30 2202 H 213.562 4.14428 0.349557 0
M  V30 2203 H 212.139 3.19811 1.91769 0
M  V30 2204 N 214.325 -0.140222 1.56975 0
M  V30 2205 C 215.272 -1.17292 1.98774 0
M  V30 2206 C 216.242 -1.4232 0.856408 0
M  V30 2207 O 217.427 -1.54541 1.119 0
M  V30 2208 C 214.567 -2.49973 2.37923 0
M  V30 2209 C 213.68 -2.32062 3.64378 0
M  V30 2210 C 212.815 -3.57825 3.926 0
M  V30 2211 C 211.854 -3.3498 5.12303 0
M  V30 2212 N 210.991 -4.52891 5.36502 0
M  V30 2213 H 215.831 -0.809472 2.86795 0
M  V30 2214 H 213.368 -0.388237 1.41884 0
M  V30 2215 H 215.326 -3.27346 2.58652 0
M  V30 2216 H 213.956 -2.84252 1.52972 0
M  V30 2217 H 213.008 -1.45711 3.51387 0
M  V30 2218 H 214.32 -2.11145 4.51906 0
M  V30 2219 H 213.474 -4.43624 4.13863 0
M  V30 2220 H 212.213 -3.81753 3.03506 0
M  V30 2221 H 211.218 -2.4757 4.90906 0
M  V30 2222 H 212.443 -3.12444 6.02956 0
M  V30 2223 H 210.389 -4.76979 4.50363 0
M  V30 2224 H 210.306 -4.35001 6.18312 0
M  V30 2225 H 211.574 -5.39884 5.62268 0
M  V30 2226 N 215.803 -1.52179 -0.40978 0
M  V30 2227 C 217.031 -1.70054 -1.17853 0
M  V30 2228 C 217.446 -0.409735 -1.843 0
M  V30 2229 O 216.803 0.614183 -1.71855 0
M  V30 2230 C 216.854 -2.83568 -2.24213 0
M  V30 2231 O 216.575 -4.0765 -1.60478 0
M  V30 2232 C 218.076 -3.12947 -3.13973 0
M  V30 2233 H 215.296 -0.569917 -0.354169 0
M  V30 2234 H 217.84 -1.98734 -0.482198 0
M  V30 2235 H 215.995 -2.57409 -2.89516 0
M  V30 2236 H 216.409 -4.70899 -2.30986 0
M  V30 2237 H 217.883 -3.95889 -3.84677 0
M  V30 2238 H 218.36 -2.26472 -3.76307 0
M  V30 2239 H 218.966 -3.40868 -2.5434 0
M  V30 2240 N 217.281 0.66697 -1.42791 0
M  V30 2241 C 218.211 1.79218 -1.49677 0
M  V30 2242 C 219.192 1.66405 -0.352623 0
M  V30 2243 O 220.377 1.85708 -0.567993 0
M  V30 2244 C 217.507 3.17565 -1.40605 0
M  V30 2245 C 216.461 3.45124 -2.53127 0
M  V30 2246 C 215.787 4.83127 -2.29112 0
M  V30 2247 C 217.087 3.41236 -3.95418 0
M  V30 2248 H 218.781 1.73713 -2.43853 0
M  V30 2249 H 216.327 0.83432 -1.17367 0
M  V30 2250 H 218.28 3.96022 -1.44029 0
M  V30 2251 H 217.004 3.23767 -0.429271 0
M  V30 2252 H 215.663 2.69031 -2.49034 0
M  V30 2253 H 215.311 4.85988 -1.29709 0
M  V30 2254 H 215.011 5.02528 -3.04531 0
M  V30 2255 H 216.535 5.63859 -2.34297 0
M  V30 2256 H 217.949 4.09651 -4.01073 0
M  V30 2257 H 216.346 3.72173 -4.70752 0
M  V30 2258 H 217.416 2.39665 -4.21532 0
M  V30 2259 N 218.759 1.29093 0.90403 0
M  V30 2260 C 219.691 1.09658 2.01266 0
M  V30 2261 C 220.704 0.0453729 1.62737 0
M  V30 2262 O 221.893 0.289446 1.76138 0
M  V30 2263 C 218.993 0.646278 3.32681 0
M  V30 2264 C 218.166 1.77505 3.99763 0
M  V30 2265 C 217.225 1.31649 5.09465 0
M  V30 2266 O 216.251 2.02045 5.32134 0
M  V30 2267 N 217.453 0.184997 5.80205 0
M  V30 2268 H 220.218 2.05135 2.18494 0
M  V30 2269 H 217.779 1.20975 1.07594 0
M  V30 2270 H 219.771 0.322906 4.0341 0
M  V30 2271 H 218.341 -0.215916 3.11853 0
M  V30 2272 H 217.561 2.26752 3.22455 0
M  V30 2273 H 218.849 2.53198 4.41325 0
M  V30 2274 H 218.247 -0.402021 5.6427 0
M  V30 2275 H 216.804 -0.0790358 6.51752 0
M  V30 2276 N 220.237 -1.11381 1.11499 0
M  V30 2277 C 221.485 -1.8277 0.862524 0
M  V30 2278 C 221.806 -1.85097 -0.613534 0
M  V30 2279 O 221.076 -1.32198 -1.4457 0
M  V30 2280 H 219.656 -0.676823 0.316101 0
M  V30 2281 H 222.318 -1.34816 1.4075 0
M  V30 2282 H 221.414 -2.86614 1.23527 0
M  V30 2283 N 221.715 -0.905404 -1.28997 0
M  V30 2284 C 222.94 -0.549175 -1.99997 0
M  V30 2285 C 223.365 0.860276 -1.67275 0
M  V30 2286 O 222.723 1.57355 -0.900502 0
M  V30 2287 C 222.771 -0.755185 -3.52604 0
M  V30 2288 O 221.875 0.189692 -4.11964 0
M  V30 2289 H 221.216 -0.213899 -0.628604 0
M  V30 2290 H 223.746 -1.21856 -1.64354 0
M  V30 2291 H 223.756 -0.662045 -4.02593 0
M  V30 2292 H 222.431 -1.78271 -3.75755 0
M  V30 2293 H 221.008 0.0485257 -3.72868 0
M  V30 2294 N 223.193 1.4272 -0.668489 0
M  V30 2295 C 224.442 2.00846 -0.185389 0
M  V30 2296 C 224.755 1.53442 1.21305 0
M  V30 2297 O 225.961 2.03944 1.79218 0
M  V30 2298 C 224.417 3.58805 -0.280591 0
M  V30 2299 C 224.025 4.15198 -1.68268 0
M  V30 2300 C 225.769 4.24255 0.14412 0
M  V30 2301 C 223.676 5.655 -1.73099 0
M  V30 2302 H 222.606 0.751145 -0.0655475 0
M  V30 2303 H 225.257 1.63516 -0.832752 0
M  V30 2304 H 223.639 3.93608 0.434553 0
M  V30 2305 H 224.813 3.91866 -2.42441 0
M  V30 2306 H 223.128 3.62176 -2.05469 0
M  V30 2307 H 225.725 5.34547 0.128086 0
M  V30 2308 H 226.068 3.99277 1.17827 0
M  V30 2309 H 226.601 3.94389 -0.519798 0
M  V30 2310 H 223.34 5.95268 -2.74475 0
M  V30 2311 H 222.86 5.90842 -1.03274 0
M  V30 2312 H 224.539 6.29808 -1.48158 0
M  V30 2313 N 224.671 0.411399 1.52136 0
M  V30 2314 C 225.634 -0.401089 2.25663 0
M  V30 2315 C 226.634 -0.971732 1.28117 0
M  V30 2316 O 227.824 -0.850254 1.52041 0
M  V30 2317 C 224.956 -1.56483 3.02863 0
M  V30 2318 H 226.149 0.24295 2.98914 0
M  V30 2319 H 223.702 0.163968 1.55438 0
M  V30 2320 H 224.437 -2.24567 2.33967 0
M  V30 2321 H 224.222 -1.16211 3.74483 0
M  V30 2322 H 225.712 -2.13951 3.58629 0
M  V30 2323 N 226.149 -1.5696 0.141893 0
M  V30 2324 C 227.079 -2.19516 -0.795936 0
M  V30 2325 C 228.06 -1.14187 -1.26077 0
M  V30 2326 O 229.245 -1.42511 -1.31925 0
M  V30 2327 C 226.375 -2.81272 -2.03723 0
M  V30 2328 C 225.329 -3.92384 -1.70936 0
M  V30 2329 C 224.655 -4.41052 -3.02287 0
M  V30 2330 C 225.955 -5.13403 -0.959954 0
M  V30 2331 H 227.649 -2.98138 -0.274596 0
M  V30 2332 H 225.195 -1.43406 -0.130636 0
M  V30 2333 H 227.148 -3.237 -2.69808 0
M  V30 2334 H 225.872 -1.99973 -2.58221 0
M  V30 2335 H 224.531 -3.50566 -1.07232 0
M  V30 2336 H 224.179 -3.56582 -3.54765 0
M  V30 2337 H 223.879 -5.15993 -2.81114 0
M  V30 2338 H 225.403 -4.86146 -3.69451 0
M  V30 2339 H 226.817 -5.52706 -1.52279 0
M  V30 2340 H 225.214 -5.94073 -0.848357 0
M  V30 2341 H 226.284 -4.84875 0.0492434 0
M  V30 2342 N 227.627 0.131896 -1.57047 0
M  V30 2343 C 228.577 1.1679 -1.95816 0
M  V30 2344 C 229.561 1.37756 -0.831393 0
M  V30 2345 O 230.753 1.39065 -1.09499 0
M  V30 2346 C 227.882 2.49778 -2.35512 0
M  V30 2347 C 226.968 2.32342 -3.54793 0
M  V30 2348 N 227.359 1.8469 -4.70875 0
M  V30 2349 C 225.657 2.63043 -3.60173 0
M  V30 2350 C 226.358 1.80656 -5.52936 0
M  V30 2351 N 225.334 2.24528 -4.95064 0
M  V30 2352 H 229.136 0.791818 -2.83033 0
M  V30 2353 H 226.65 0.339791 -1.58805 0
M  V30 2354 H 228.647 3.24692 -2.61498 0
M  V30 2355 H 227.307 2.88156 -1.49654 0
M  V30 2356 H 228.318 1.54429 -4.9434 0
M  V30 2357 H 224.995 3.05193 -2.84892 0
M  V30 2358 H 226.385 1.45178 -6.56028 0
M  V30 2359 N 229.106 1.52395 0.401703 0
M  V30 2360 C 230.352 1.67065 1.14966 0
M  V30 2361 C 230.685 0.403052 1.89971 0
M  V30 2362 O 229.96 -0.598774 1.85054 0
M  V30 2363 C 230.243 2.8975 2.13815 0
M  V30 2364 C 230.096 4.26578 1.42658 0
M  V30 2365 C 231.415 3.07965 3.14397 0
M  V30 2366 H 228.534 0.607968 0.416587 0
M  V30 2367 H 231.176 1.84965 0.434511 0
M  V30 2368 H 229.326 2.74619 2.74803 0
M  V30 2369 H 230.998 4.53451 0.847329 0
M  V30 2370 H 229.241 4.27639 0.72849 0
M  V30 2371 H 229.912 5.08483 2.14823 0
M  V30 2372 H 232.388 3.22043 2.63491 0
M  V30 2373 H 231.264 3.95308 3.80819 0
M  V30 2374 H 231.525 2.21611 3.82545 0
M  V30 2375 N 230.584 -0.659388 1.43143 0
M  V30 2376 C 231.995 -1.24041 1.39537 0
M  V30 2377 C 232.346 -1.95963 0.0963364 0
M  V30 2378 O 231.471 -2.00892 -0.804438 0
M  V30 2379 C 232.066 -2.25601 2.52764 0
M  V30 2380 C 230.625 -2.79195 2.52443 0
M  V30 2381 C 229.772 -1.53743 2.30778 0
M  V30 2382 H 232.723 -0.451792 1.52133 0
M  V30 2383 H 232.744 -3.07651 2.23899 0
M  V30 2384 H 232.256 -1.73226 3.47296 0
M  V30 2385 H 230.357 -3.35649 1.61773 0
M  V30 2386 H 230.47 -3.2716 3.50004 0
M  V30 2387 H 228.834 -1.80869 1.79328 0
M  V30 2388 H 229.617 -1.03312 3.27386 0
M  V30 2389 N 232.062 -1.29571 -0.897171 0
M  V30 2390 C 233.012 -1.11539 -1.98855 0
M  V30 2391 C 233.996 -0.0340716 -1.60864 0
M  V30 2392 O 235.188 -0.256062 -1.75138 0
M  V30 2393 C 232.317 -0.796603 -3.3393 0
M  V30 2394 C 231.403 -1.91758 -3.78272 0
M  V30 2395 N 231.794 -3.16143 -3.94826 0
M  V30 2396 C 230.092 -1.81119 -4.07568 0
M  V30 2397 C 230.793 -3.89293 -4.32233 0
M  V30 2398 N 229.769 -3.17255 -4.41419 0
M  V30 2399 H 233.571 -2.05894 -2.09726 0
M  V30 2400 H 231.085 -1.20732 -1.08616 0
M  V30 2401 H 233.082 -0.648459 -4.11826 0
M  V30 2402 H 231.742 0.139003 -3.24402 0
M  V30 2403 H 232.753 -3.5157 -3.80288 0
M  V30 2404 H 229.43 -0.948461 -4.06584 0
M  V30 2405 H 230.82 -4.9635 -4.52865 0
M  V30 2406 N 233.54 1.10788 -1.12088 0
M  V30 2407 C 234.786 1.82942 -0.875226 0
M  V30 2408 C 235.119 1.84779 0.597538 0
M  V30 2409 O 234.394 1.30578 1.44152 0
M  V30 2410 C 234.677 3.29789 -1.44606 0
M  V30 2411 C 234.53 3.36307 -2.98693 0
M  V30 2412 C 235.849 4.26064 -1.10261 0
M  V30 2413 H 232.968 0.664195 -0.319397 0
M  V30 2414 H 235.61 1.29867 -1.38689 0
M  V30 2415 H 233.76 3.75118 -1.01089 0
M  V30 2416 H 235.432 2.99487 -3.50864 0
M  V30 2417 H 233.675 2.76318 -3.34411 0
M  V30 2418 H 234.346 4.39694 -3.33726 0
M  V30 2419 H 236.822 3.88951 -1.4784 0
M  V30 2420 H 235.698 5.27183 -1.52869 0
M  V30 2421 H 235.959 4.42098 -0.0142953 0
M  V30 2422 N 235.018 0.912232 1.28515 0
M  V30 2423 C 235.948 0.416403 2.29757 0
M  V30 2424 C 236.929 -0.515194 1.6211 0
M  V30 2425 O 238.114 -0.423253 1.89532 0
M  V30 2426 C 235.244 -0.34572 3.45575 0
M  V30 2427 C 234.198 0.496599 4.25109 0
M  V30 2428 C 233.524 -0.393771 5.33248 0
M  V30 2429 C 234.824 1.75307 4.92001 0
M  V30 2430 H 236.518 1.26249 2.7148 0
M  V30 2431 H 234.064 0.608515 1.30511 0
M  V30 2432 H 236.017 -0.703422 4.15488 0
M  V30 2433 H 234.741 -1.2257 3.02728 0
M  V30 2434 H 233.4 0.8368 3.56922 0
M  V30 2435 H 233.048 -1.27225 4.86644 0
M  V30 2436 H 232.748 0.166209 5.87365 0
M  V30 2437 H 234.272 -0.747389 6.06009 0
M  V30 2438 H 235.686 1.46437 5.54283 0
M  V30 2439 H 234.083 2.25534 5.56106 0
M  V30 2440 H 235.153 2.48176 4.16577 0
M  V30 2441 N 236.496 -1.42363 0.676048 0
M  V30 2442 C 237.459 -2.29199 0.00766941 0
M  V30 2443 C 238.459 -1.43389 -0.727745 0
M  V30 2444 O 239.649 -1.64764 -0.56556 0
M  V30 2445 C 236.781 -3.2591 -0.999785 0
M  V30 2446 H 237.974 -2.89794 0.771988 0
M  V30 2447 H 235.527 -1.50024 0.438468 0
M  V30 2448 H 236.262 -2.70256 -1.79255 0
M  V30 2449 H 236.047 -3.89202 -0.475829 0
M  V30 2450 H 237.537 -3.91028 -1.46583 0
M  V30 2451 N 237.974 -0.419461 -1.51915 0
M  V30 2452 C 238.884 0.407528 -2.31033 0
M  V30 2453 C 239.9 1.04413 -1.3919 0
M  V30 2454 O 241.076 1.0434 -1.72265 0
M  V30 2455 C 238.141 1.50365 -3.12396 0
M  V30 2456 C 237.202 0.889029 -4.19994 0
M  V30 2457 C 236.435 1.93291 -4.97468 0
M  V30 2458 O 236.658 3.15259 -4.75361 0
M  V30 2459 O 235.592 1.53339 -5.8204 0
M  V30 2460 H 239.418 -0.237865 -3.02767 0
M  V30 2461 H 237.003 -0.182413 -1.48282 0
M  V30 2462 H 238.885 2.13975 -3.63032 0
M  V30 2463 H 237.56 2.13345 -2.43445 0
M  V30 2464 H 236.467 0.215353 -3.7348 0
M  V30 2465 H 237.8 0.302991 -4.91267 0
M  V30 2466 N 239.452 1.56882 -0.150215 0
M  V30 2467 C 240.682 2.00302 0.506213 0
M  V30 2468 C 241.09 1.02934 1.58749 0
M  V30 2469 O 240.433 0.0188384 1.8369 0
M  V30 2470 C 240.495 3.40156 1.16337 0
M  V30 2471 C 240.159 4.56439 0.226311 0
M  V30 2472 C 241.156 5.17012 -0.547265 0
M  V30 2473 C 238.841 5.02136 0.128279 0
M  V30 2474 C 240.835 6.21693 -1.40629 0
M  V30 2475 C 238.522 6.06672 -0.734345 0
M  V30 2476 C 239.52 6.6632 -1.50023 0
M  V30 2477 O 239.208 7.68831 -2.34848 0
M  V30 2478 H 238.94 0.662182 0.135984 0
M  V30 2479 H 241.494 2.03961 -0.242746 0
M  V30 2480 H 239.724 3.33346 1.96004 0
M  V30 2481 H 241.413 3.67663 1.71985 0
M  V30 2482 H 242.179 4.82603 -0.48158 0
M  V30 2483 H 238.058 4.55435 0.714157 0
M  V30 2484 H 241.602 6.68179 -2.00455 0
M  V30 2485 H 237.499 6.40507 -0.801309 0
M  V30 2486 H 238.267 7.86065 -2.28131 0
M  V30 2487 N 240.93 -0.123565 1.57115 0
M  V30 2488 C 242.341 -0.681198 1.73829 0
M  V30 2489 C 242.692 -1.80535 0.768214 0
M  V30 2490 O 241.817 -2.16317 -0.0599103 0
M  V30 2491 C 242.412 -1.24246 3.15196 0
M  V30 2492 C 240.971 -1.74643 3.33432 0
M  V30 2493 C 240.118 -0.644284 2.69711 0
M  V30 2494 H 243.069 0.102315 1.5837 0
M  V30 2495 H 243.09 -2.11216 3.16493 0
M  V30 2496 H 242.602 -0.424062 3.85776 0
M  V30 2497 H 240.703 -2.58974 2.67886 0
M  V30 2498 H 240.816 -1.85902 4.41562 0
M  V30 2499 H 239.18 -1.07676 2.3082 0
M  V30 2500 H 239.963 0.163058 3.42913 0
M  V30 2501 N 242.408 -1.52605 -0.393616 0
M  V30 2502 C 243.685 -1.58001 -1.15304 0
M  V30 2503 C 244.065 -0.370385 -2.07825 0
M  V30 2504 O 243.413 0.641638 -2.19306 0
M  V30 2505 C 243.623 -2.91652 -1.91677 0
M  V30 2506 C 244.971 -3.4522 -2.47201 0
M  V30 2507 O 245.995 -2.93495 -2.01839 0
M  V30 2508 O 244.854 -4.35579 -3.3005 0
M  V30 2509 H 241.948 -0.637068 -0.527327 0
M  V30 2510 H 244.494 -1.64939 -0.399141 0
M  V30 2511 H 243.266 -3.71136 -1.23992 0
M  V30 2512 H 242.889 -2.88077 -2.74039 0
M  V30 2513 N 243.887 0.651787 -1.4349 0
M  V30 2514 C 245.134 1.41167 -1.45183 0
M  V30 2515 C 245.462 1.94349 -0.0766601 0
M  V30 2516 O 244.717 1.72804 0.918555 0
M  V30 2517 C 245.016 2.60914 -2.44251 0
M  V30 2518 C 244.682 2.26142 -3.9009 0
M  V30 2519 C 243.344 2.16371 -4.2981 0
M  V30 2520 C 245.696 1.98334 -4.81989 0
M  V30 2521 C 243.024 1.7695 -5.5938 0
M  V30 2522 C 245.376 1.6041 -6.11924 0
M  V30 2523 C 244.04 1.49166 -6.5062 0
M  V30 2524 H 243.31 0.516566 -0.531263 0
M  V30 2525 H 245.957 0.741099 -1.76579 0
M  V30 2526 H 244.262 3.3311 -2.06265 0
M  V30 2527 H 245.959 3.19127 -2.42815 0
M  V30 2528 H 242.549 2.34658 -3.58655 0
M  V30 2529 H 246.733 2.04803 -4.52072 0
M  V30 2530 H 241.989 1.66831 -5.88198 0
M  V30 2531 H 246.163 1.37925 -6.82605 0
M  V30 2532 H 243.79 1.1839 -7.50925 0
M  V30 2533 N 245.365 1.30045 0.890287 0
M  V30 2534 C 246.612 1.18561 1.64163 0
M  V30 2535 C 246.94 -0.260852 1.92743 0
M  V30 2536 O 246.195 -1.20376 1.54299 0
M  V30 2537 C 246.494 1.95409 2.99249 0
M  V30 2538 C 246.16 3.45066 2.90242 0
M  V30 2539 C 244.822 3.85878 2.87492 0
M  V30 2540 C 247.174 4.4039 2.78758 0
M  V30 2541 C 244.502 5.20314 2.7109 0
M  V30 2542 C 246.854 5.74928 2.63894 0
M  V30 2543 C 245.518 6.14986 2.59516 0
M  V30 2544 H 244.788 0.433846 0.600715 0
M  V30 2545 H 247.435 1.61088 1.03552 0
M  V30 2546 H 245.74 1.45501 3.63781 0
M  V30 2547 H 247.437 1.8392 3.56334 0
M  V30 2548 H 244.027 3.12631 2.93189 0
M  V30 2549 H 248.211 4.09806 2.79952 0
M  V30 2550 H 243.467 5.50449 2.66112 0
M  V30 2551 H 247.641 6.48434 2.53981 0
M  V30 2552 H 245.268 7.19104 2.46565 0
M  V30 2553 N 246.843 -1.10192 1.12674 0
M  V30 2554 C 247.806 -2.14786 0.799979 0
M  V30 2555 C 248.806 -1.59711 -0.18685 0
M  V30 2556 O 249.996 -1.74156 0.0392558 0
M  V30 2557 C 247.128 -3.40374 0.189228 0
M  V30 2558 H 248.321 -2.45203 1.72671 0
M  V30 2559 H 245.874 -1.25597 0.930326 0
M  V30 2560 H 246.609 -3.15577 -0.747107 0
M  V30 2561 H 246.394 -3.81637 0.899766 0
M  V30 2562 H 247.884 -4.17594 -0.0228143 0
M  V30 2563 N 248.321 -0.919034 -1.28029 0
M  V30 2564 C 249.251 -0.428581 -2.29533 0
M  V30 2565 C 250.232 0.50659 -1.62381 0
M  V30 2566 O 251.417 0.413195 -1.89753 0
M  V30 2567 C 248.547 0.327388 -3.45753 0
M  V30 2568 C 247.501 -0.519137 -4.2484 0
M  V30 2569 C 246.827 0.365486 -5.33449 0
M  V30 2570 C 248.127 -1.77914 -4.91064 0
M  V30 2571 H 249.821 -1.27687 -2.70807 0
M  V30 2572 H 247.367 -0.615428 -1.30186 0
M  V30 2573 H 249.32 0.681378 -4.15855 0
M  V30 2574 H 248.044 1.20963 -3.03374 0
M  V30 2575 H 246.703 -0.855717 -3.56473 0
M  V30 2576 H 246.351 1.24642 -4.87312 0
M  V30 2577 H 246.051 -0.197356 -5.87268 0
M  V30 2578 H 247.575 0.715241 -6.06396 0
M  V30 2579 H 248.989 -1.49374 -5.53498 0
M  V30 2580 H 247.386 -2.2848 -5.54903 0
M  V30 2581 H 248.456 -2.50382 -4.15255 0
M  V30 2582 N 249.799 1.42003 -0.683588 0
M  V30 2583 C 251.047 2.01015 -0.209101 0
M  V30 2584 C 251.368 1.54365 1.19149 0
M  V30 2585 O 250.638 0.769083 1.80172 0
M  V30 2586 H 249.218 0.743294 -0.074315 0
M  V30 2587 H 251.88 1.73798 -0.882066 0
M  V30 2588 H 250.976 3.11343 -0.2172 0
M  V30 2589 N 251.277 0.427512 1.51691 0
M  V30 2590 C 252.207 -0.3796 2.30394 0
M  V30 2591 C 253.188 -1.02982 1.35384 0
M  V30 2592 O 254.373 -1.03534 1.643 0
M  V30 2593 C 251.503 -1.48649 3.1388 0
M  V30 2594 C 250.457 -0.960294 4.17088 0
M  V30 2595 C 249.783 -2.16219 4.89033 0
M  V30 2596 C 251.083 -0.00153679 5.223 0
M  V30 2597 H 252.777 0.277164 2.98114 0
M  V30 2598 H 250.323 0.134739 1.43368 0
M  V30 2599 H 252.276 -2.05826 3.67714 0
M  V30 2600 H 251 -2.1714 2.43962 0
M  V30 2601 H 249.659 -0.410806 3.64291 0
M  V30 2602 H 249.307 -2.83307 4.15628 0
M  V30 2603 H 249.007 -1.81654 5.58816 0
M  V30 2604 H 250.531 -2.73968 5.45687 0
M  V30 2605 H 251.945 -0.482687 5.71264 0
M  V30 2606 H 250.342 0.256199 5.99553 0
M  V30 2607 H 251.412 0.938174 4.75738 0
M  V30 2608 N 252.755 -1.56801 0.158532 0
M  V30 2609 C 254.001 -1.96781 -0.490405 0
M  V30 2610 C 254.334 -1.04397 -1.63753 0
M  V30 2611 O 253.609 -0.0885805 -1.94298 0
M  V30 2612 C 253.892 -3.4635 -0.985594 0
M  V30 2613 C 253.745 -4.49512 0.160824 0
M  V30 2614 C 255.064 -3.98697 -1.86355 0
M  V30 2615 H 252.183 -0.715482 -0.176788 0
M  V30 2616 H 254.825 -1.88451 0.242088 0
M  V30 2617 H 252.975 -3.53579 -1.60978 0
M  V30 2618 H 254.647 -4.54353 0.797537 0
M  V30 2619 H 252.89 -4.26013 0.818256 0
M  V30 2620 H 253.561 -5.51531 -0.227569 0
M  V30 2621 H 256.037 -3.94019 -1.33746 0
M  V30 2622 H 254.913 -5.03792 -2.17909 0
M  V30 2623 H 255.174 -3.41744 -2.8047 0
M  V30 2624 N 254.233 0.115231 -1.57178 0
M  V30 2625 C 255.163 1.1423 -2.03651 0
M  V30 2626 C 256.144 1.42967 -0.921655 0
M  V30 2627 O 257.329 1.53343 -1.19162 0
M  V30 2628 C 254.459 2.4675 -2.44401 0
M  V30 2629 C 253.413 2.32467 -3.59365 0
M  V30 2630 C 252.739 3.69984 -3.86026 0
M  V30 2631 C 254.039 1.78203 -4.90959 0
M  V30 2632 H 255.733 0.755749 -2.89705 0
M  V30 2633 H 253.279 0.362093 -1.39373 0
M  V30 2634 H 255.232 3.18854 -2.75517 0
M  V30 2635 H 253.956 2.87302 -1.55322 0
M  V30 2636 H 252.615 1.62811 -3.28463 0
M  V30 2637 H 252.263 4.08028 -2.94147 0
M  V30 2638 H 251.963 3.61279 -4.63412 0
M  V30 2639 H 253.487 4.43587 -4.19599 0
M  V30 2640 H 254.901 2.40128 -5.20587 0
M  V30 2641 H 253.298 1.8031 -5.72371 0
M  V30 2642 H 254.368 0.739876 -4.79222 0
M  V30 2643 N 255.711 1.52812 0.385517 0
M  V30 2644 C 256.641 1.80808 1.47752 0
M  V30 2645 C 257.622 0.660318 1.5676 0
M  V30 2646 O 258.807 0.908246 1.71652 0
M  V30 2647 C 255.937 1.98008 2.85324 0
M  V30 2648 C 254.891 3.13709 2.91154 0
M  V30 2649 C 254.217 3.16169 4.31209 0
M  V30 2650 C 255.517 4.52709 2.60483 0
M  V30 2651 H 257.211 2.72253 1.24573 0
M  V30 2652 H 254.757 1.31003 0.597839 0
M  V30 2653 H 256.71 2.16176 3.61726 0
M  V30 2654 H 255.434 1.03255 3.09848 0
M  V30 2655 H 254.093 2.95329 2.17201 0
M  V30 2656 H 253.741 2.19092 4.52778 0
M  V30 2657 H 253.441 3.93894 4.36029 0
M  V30 2658 H 254.965 3.36496 5.09512 0
M  V30 2659 H 256.379 4.71173 3.26602 0
M  V30 2660 H 254.776 5.32528 2.76648 0
M  V30 2661 H 255.846 4.59186 1.55809 0
M  V30 2662 N 257.189 -0.644168 1.43834 0
M  V30 2663 C 258.119 -1.76814 1.52509 0
M  V30 2664 C 259.1 -1.65823 0.379052 0
M  V30 2665 O 260.285 -1.84781 0.597466 0
M  V30 2666 C 257.415 -3.15288 1.4564 0
M  V30 2667 C 256.369 -3.41053 2.58586 0
M  V30 2668 C 255.695 -4.79421 2.36769 0
M  V30 2669 C 256.995 -3.34902 4.00797 0
M  V30 2670 H 258.689 -1.69812 2.46586 0
M  V30 2671 H 256.235 -0.815542 1.1868 0
M  V30 2672 H 258.188 -3.93681 1.50311 0
M  V30 2673 H 256.912 -3.23043 0.480725 0
M  V30 2674 H 255.571 -2.65035 2.53282 0
M  V30 2675 H 255.219 -4.83863 1.37424 0
M  V30 2676 H 254.919 -4.9762 3.12487 0
M  V30 2677 H 256.443 -5.6006 2.43238 0
M  V30 2678 H 257.857 -4.03218 4.07539 0
M  V30 2679 H 256.254 -3.64637 4.76613 0
M  V30 2680 H 257.324 -2.32928 4.25291 0
M  V30 2681 N 258.668 -1.30515 -0.883378 0
M  V30 2682 C 259.896 -1.22359 -1.66841 0
M  V30 2683 C 260.311 0.213296 -1.87591 0
M  V30 2684 O 259.668 1.14075 -1.42454 0
M  V30 2685 C 259.719 -1.95011 -3.04389 0
M  V30 2686 O 259.44 -3.3309 -2.84575 0
M  V30 2687 C 260.941 -1.93532 -3.98824 0
M  V30 2688 H 258.161 -0.423371 -0.520575 0
M  V30 2689 H 260.705 -1.72167 -1.10357 0
M  V30 2690 H 258.86 -1.48997 -3.57601 0
M  V30 2691 H 259.274 -3.69907 -3.71846 0
M  V30 2692 H 260.748 -2.48902 -4.92699 0
M  V30 2693 H 261.225 -0.914627 -4.29571 0
M  V30 2694 H 261.831 -2.39364 -3.51547 0
M  V30 2695 N 260.146 1.09593 -1.13257 0
M  V30 2696 C 261.394 1.81375 -0.891492 0
M  V30 2697 C 261.715 1.86049 0.584009 0
M  V30 2698 O 260.985 1.34481 1.42449 0
M  V30 2699 H 259.565 0.671708 -0.326828 0
M  V30 2700 H 262.227 1.3256 -1.42877 0
M  V30 2701 H 261.323 2.84612 -1.28071 0
M  V30 2702 N 261.624 0.925811 1.2754 0
M  V30 2703 C 262.554 0.440748 2.29303 0
M  V30 2704 C 263.535 -0.497971 1.62648 0
M  V30 2705 O 264.72 -0.403126 1.8997 0
M  V30 2706 C 261.85 -0.309048 3.45922 0
M  V30 2707 C 260.804 0.54166 4.24559 0
M  V30 2708 C 260.13 -0.337191 5.33636 0
M  V30 2709 C 261.43 1.80516 4.90114 0
M  V30 2710 H 263.124 1.29121 2.70126 0
M  V30 2711 H 260.67 0.622323 1.29858 0
M  V30 2712 H 262.623 -0.659315 4.1621 0
M  V30 2713 H 261.347 -1.19352 3.04011 0
M  V30 2714 H 260.006 0.874609 3.56014 0
M  V30 2715 H 259.654 -1.22056 4.87966 0
M  V30 2716 H 259.354 0.228497 5.87156 0
M  V30 2717 H 260.878 -0.683072 6.06767 0
M  V30 2718 H 262.292 1.52307 5.52698 0
M  V30 2719 H 260.689 2.3142 5.53683 0
M  V30 2720 H 261.759 2.52581 4.13921 0
M  V30 2721 N 263.102 -1.41638 0.69111 0
M  V30 2722 C 264.032 -2.3347 0.037248 0
M  V30 2723 C 265.013 -1.51575 -0.771947 0
M  V30 2724 O 266.198 -1.80126 -0.72582 0
M  V30 2725 C 263.328 -3.35354 -0.903064 0
M  V30 2726 C 262.282 -4.27526 -0.201288 0
M  V30 2727 C 261.608 -5.19747 -1.25565 0
M  V30 2728 C 262.908 -5.13959 0.929689 0
M  V30 2729 H 264.602 -2.88397 0.804227 0
M  V30 2730 H 262.148 -1.38669 0.388189 0
M  V30 2731 H 264.101 -3.98519 -1.36969 0
M  V30 2732 H 262.825 -2.78767 -1.70166 0
M  V30 2733 H 261.484 -3.65779 0.245265 0
M  V30 2734 H 261.132 -4.59479 -2.04666 0
M  V30 2735 H 260.832 -5.8225 -0.791128 0
M  V30 2736 H 262.356 -5.85789 -1.72288 0
M  V30 2737 H 263.77 -5.70718 0.543546 0
M  V30 2738 H 262.167 -5.85379 1.32103 0
M  V30 2739 H 263.237 -4.51389 1.77133 0
M  V30 2740 N 264.58 -0.43555 -1.51462 0
M  V30 2741 C 265.543 0.365137 -2.26273 0
M  V30 2742 C 266.543 0.951227 -1.29647 0
M  V30 2743 O 267.733 0.825958 -1.53374 0
M  V30 2744 C 264.865 1.51645 -3.05314 0
M  V30 2745 H 266.058 -0.290474 -2.9849 0
M  V30 2746 H 263.611 -0.188676 -1.55157 0
M  V30 2747 H 264.346 2.20816 -2.3751 0
M  V30 2748 H 264.131 1.10238 -3.76284 0
M  V30 2749 H 265.621 2.08218 -3.61987 0
M  V30 2750 N 266.058 1.56714 -0.166846 0
M  V30 2751 C 266.988 2.20754 0.760913 0
M  V30 2752 C 267.969 1.16178 1.24244 0
M  V30 2753 O 269.154 1.44592 1.29641 0
M  V30 2754 C 266.284 2.84478 1.99223 0
M  V30 2755 C 265.238 3.95053 1.64672 0
M  V30 2756 C 264.564 4.45805 2.95232 0
M  V30 2757 C 265.864 5.14865 0.878155 0
M  V30 2758 H 267.558 2.98537 0.22713 0
M  V30 2759 H 265.104 1.43596 0.107805 0
M  V30 2760 H 267.057 3.27951 2.64624 0
M  V30 2761 H 265.781 2.04056 2.55007 0
M  V30 2762 H 264.44 3.52228 1.01641 0
M  V30 2763 H 264.088 3.62181 3.49047 0
M  V30 2764 H 263.788 5.204 2.7287 0
M  V30 2765 H 265.312 4.91962 3.6167 0
M  V30 2766 H 266.726 5.55059 1.43466 0
M  V30 2767 H 265.123 5.95348 0.753738 0
M  V30 2768 H 266.193 4.84735 -0.126377 0
M  V30 2769 N 267.536 -0.106894 1.57237 0
M  V30 2770 C 268.784 -0.810921 1.85117 0
M  V30 2771 C 269.105 -1.7984 0.753827 0
M  V30 2772 O 268.375 -1.94649 -0.221056 0
M  V30 2773 H 266.955 -0.302466 0.683025 0
M  V30 2774 H 269.617 -0.0913324 1.94686 0
M  V30 2775 H 268.713 -1.34875 2.81452 0
M  V30 2776 N 269.014 -1.53014 -0.377408 0
M  V30 2777 C 269.977 -1.77957 -1.44444 0
M  V30 2778 C 270.977 -0.649763 -1.47087 0
M  V30 2779 O 272.167 -0.917897 -1.48055 0
M  V30 2780 C 269.299 -1.89089 -2.83651 0
M  V30 2781 H 270.492 -2.73243 -1.23606 0
M  V30 2782 H 268.045 -1.43912 -0.609844 0
M  V30 2783 H 268.78 -0.958293 -3.09818 0
M  V30 2784 H 268.565 -2.71254 -2.83132 0
M  V30 2785 H 270.055 -2.1002 -3.60945 0
M  V30 2786 N 270.492 0.636531 -1.44174 0
M  V30 2787 C 271.717 1.42847 -1.50364 0
M  V30 2788 C 272.142 1.87665 -0.127867 0
M  V30 2789 O 271.5 1.58408 0.88185 0
M  V30 2790 C 271.548 2.62854 -2.4686 0
M  V30 2791 O 270.652 3.62501 -1.9664 0
M  V30 2792 H 269.993 0.427642 -0.507955 0
M  V30 2793 H 272.523 0.777422 -1.89255 0
M  V30 2794 H 272.533 3.10465 -2.64718 0
M  V30 2795 H 271.208 2.29578 -3.46795 0
M  V30 2796 H 269.785 3.21735 -1.88523 0
M  V30 2797 N 271.97 1.30982 0.876444 0
M  V30 2798 C 272.88 1.2003 2.01569 0
M  V30 2799 C 273.896 0.11838 1.73597 0
M  V30 2800 O 275.072 0.33495 1.98595 0
M  V30 2801 C 272.137 0.901637 3.34771 0
M  V30 2802 C 271.198 2.06979 3.76109 0
M  V30 2803 C 270.431 1.78529 5.02954 0
M  V30 2804 O 270.654 0.717296 5.65872 0
M  V30 2805 O 269.588 2.64019 5.40905 0
M  V30 2806 H 273.414 2.15753 2.13739 0
M  V30 2807 H 270.999 1.10658 1.00375 0
M  V30 2808 H 272.881 0.750645 4.1466 0
M  V30 2809 H 271.556 -0.0256141 3.2369 0
M  V30 2810 H 270.463 2.27616 2.96887 0
M  V30 2811 H 271.796 2.97907 3.91807 0
M  V30 2812 N 273.449 -1.08991 1.13837 0
M  V30 2813 C 274.674 -1.85551 0.926585 0
M  V30 2814 C 275.099 -1.80782 -0.519566 0
M  V30 2815 O 274.457 -1.18855 -1.36906 0
M  V30 2816 C 274.505 -3.31266 1.42462 0
M  V30 2817 O 273.609 -4.07822 0.612789 0
M  V30 2818 H 272.95 -0.575192 0.331738 0
M  V30 2819 H 275.48 -1.37604 1.51414 0
M  V30 2820 H 275.49 -3.82112 1.43019 0
M  V30 2821 H 274.165 -3.34052 2.47754 0
M  V30 2822 H 272.742 -3.66731 0.675463 0
M  V30 2823 N 274.927 -0.932562 -1.27047 0
M  V30 2824 C 275.89 -0.440064 -2.24936 0
M  V30 2825 C 276.89 0.444071 -1.54547 0
M  V30 2826 O 278.08 0.244465 -1.72476 0
M  V30 2827 C 275.212 0.36678 -3.38921 0
M  V30 2828 H 276.405 -1.305 -2.70018 0
M  V30 2829 H 273.958 -0.713707 -1.39054 0
M  V30 2830 H 274.693 1.25033 -2.99228 0
M  V30 2831 H 274.478 -0.267204 -3.91188 0
M  V30 2832 H 275.968 0.701567 -4.11665 0
M  V30 2833 N 276.405 1.4127 -0.698611 0
M  V30 2834 C 277.335 2.33447 -0.049629 0
M  V30 2835 C 278.316 1.51982 0.763898 0
M  V30 2836 O 279.501 1.80509 0.716257 0
M  V30 2837 C 276.631 3.35828 0.885267 0
M  V30 2838 C 275.585 4.27627 0.178613 0
M  V30 2839 C 274.911 5.20406 1.22807 0
M  V30 2840 C 276.211 5.13459 -0.956933 0
M  V30 2841 H 277.905 2.87966 -0.81951 0
M  V30 2842 H 275.451 1.38461 -0.395538 0
M  V30 2843 H 277.404 3.9924 1.34854 0
M  V30 2844 H 276.128 2.79666 1.68685 0
M  V30 2845 H 274.787 3.65643 -0.26466 0
M  V30 2846 H 274.435 4.60558 2.02226 0
M  V30 2847 H 274.135 5.82661 0.760239 0
M  V30 2848 H 275.659 5.86695 1.69179 0
M  V30 2849 H 277.073 5.70421 -0.573805 0
M  V30 2850 H 275.47 5.8467 -1.35205 0
M  V30 2851 H 276.54 4.50443 -1.79524 0
M  V30 2852 N 277.883 0.443576 1.51229 0
M  V30 2853 C 279.129 -0.120975 2.02439 0
M  V30 2854 C 279.462 -1.41815 1.32674 0
M  V30 2855 O 278.737 -1.89373 0.443622 0
M  V30 2856 C 279.02 -0.333291 3.58554 0
M  V30 2857 C 278.873 0.982968 4.38928 0
M  V30 2858 C 280.192 -1.10028 4.26124 0
M  V30 2859 H 277.311 -0.0424923 0.735774 0
M  V30 2860 H 279.953 0.583794 1.80809 0
M  V30 2861 H 278.103 -0.933614 3.77115 0
M  V30 2862 H 279.775 1.61775 4.32003 0
M  V30 2863 H 278.018 1.58611 4.03763 0
M  V30 2864 H 278.689 0.788379 5.46341 0
M  V30 2865 H 281.165 -0.591711 4.11871 0
M  V30 2866 H 280.041 -1.21761 5.35225 0
M  V30 2867 H 280.302 -2.12996 3.87408 0
M  V30 2868 N 279.361 -1.56624 0.175154 0
M  V30 2869 C 280.589 -2.01374 -0.474971 0
M  V30 2870 C 281.004 -1.05537 -1.56548 0
M  V30 2871 O 280.361 -0.0568668 -1.82411 0
M  V30 2872 C 280.412 -3.45923 -1.04975 0
M  V30 2873 O 280.133 -4.381 -0.00276605 0
M  V30 2874 C 281.634 -4.06093 -1.77773 0
M  V30 2875 H 278.854 -0.659962 -0.121206 0
M  V30 2876 H 281.398 -2.02601 0.27801 0
M  V30 2877 H 279.553 -3.45458 -1.75321 0
M  V30 2878 H 279.967 -5.22753 -0.427681 0
M  V30 2879 H 281.441 -5.09147 -2.13245 0
M  V30 2880 H 281.918 -3.48405 -2.67414 0
M  V30 2881 H 282.524 -4.10272 -1.12059 0
M  V30 2882 N 280.839 0.0985539 -1.57292 0
M  V30 2883 C 281.786 1.11981 -2.01814 0
M  V30 2884 C 282.756 1.39999 -0.89384 0
M  V30 2885 O 283.941 1.5152 -1.15958 0
M  V30 2886 C 281.081 2.43577 -2.44467 0
M  V30 2887 C 280.194 2.2232 -3.70402 0
M  V30 2888 C 279.329 3.4729 -4.01949 0
M  V30 2889 C 278.368 3.2128 -5.21005 0
M  V30 2890 N 277.505 4.38507 -5.48321 0
M  V30 2891 H 282.345 0.733149 -2.88841 0
M  V30 2892 H 279.882 0.350482 -1.42864 0
M  V30 2893 H 281.84 3.20373 -2.6724 0
M  V30 2894 H 280.47 2.80097 -1.60455 0
M  V30 2895 H 279.522 1.36343 -3.55126 0
M  V30 2896 H 280.834 1.99089 -4.57345 0
M  V30 2897 H 279.988 4.32495 -4.25479 0
M  V30 2898 H 278.727 3.73572 -3.13521 0
M  V30 2899 H 277.732 2.34468 -4.97298 0
M  V30 2900 H 278.957 2.96348 -6.11028 0
M  V30 2901 H 276.903 4.64871 -4.62851 0
M  V30 2902 H 276.82 4.18455 -6.29628 0
M  V30 2903 H 278.088 5.24787 -5.76385 0
M  V30 2904 N 282.317 1.53212 0.369288 0
M  V30 2905 C 283.563 1.69466 1.11397 0
M  V30 2906 C 283.896 0.443257 1.89074 0
M  V30 2907 O 283.171 -0.559386 1.86282 0
M  V30 2908 C 283.454 2.9422 2.07621 0
M  V30 2909 C 283.307 4.29508 1.33577 0
M  V30 2910 C 284.626 3.14565 3.07794 0
M  V30 2911 H 281.745 0.616667 0.403597 0
M  V30 2912 H 284.387 1.85845 0.395179 0
M  V30 2913 H 282.537 2.80387 2.68916 0
M  V30 2914 H 284.209 4.55147 0.750955 0
M  V30 2915 H 282.452 4.29088 0.637618 0
M  V30 2916 H 283.123 5.12926 2.03989 0
M  V30 2917 H 285.599 3.2756 2.56601 0
M  V30 2918 H 284.475 4.03297 3.72348 0
M  V30 2919 H 284.736 2.29675 3.77759 0
M  V30 2920 N 283.795 -0.628877 1.44509 0
M  V30 2921 C 285.042 -1.38839 1.47411 0
M  V30 2922 C 285.37 -1.94202 0.10757 0
M  V30 2923 O 284.625 -1.74243 -0.890947 0
M  V30 2924 C 284.924 -2.56995 2.48371 0
M  V30 2925 C 284.59 -2.19908 3.93639 0
M  V30 2926 C 283.252 -2.09506 4.33198 0
M  V30 2927 C 285.604 -1.9064 4.85083 0
M  V30 2928 C 282.932 -1.68028 5.62124 0
M  V30 2929 C 285.284 -1.50655 6.14399 0
M  V30 2930 C 283.948 -1.38796 6.5291 0
M  V30 2931 H 283.218 -0.508048 0.539414 0
M  V30 2932 H 285.865 -0.712913 1.77735 0
M  V30 2933 H 284.17 -3.29786 2.11538 0
M  V30 2934 H 285.867 -3.15223 2.47861 0
M  V30 2935 H 282.457 -2.28922 3.62343 0
M  V30 2936 H 286.641 -1.97585 4.55273 0
M  V30 2937 H 281.897 -1.57452 5.90778 0
M  V30 2938 H 286.071 -1.27048 6.84713 0
M  V30 2939 H 283.698 -1.06429 7.52713 0
M  V30 2940 N 285.273 -1.31445 -0.869486 0
M  V30 2941 C 286.501 -1.24122 -1.65534 0
M  V30 2942 C 286.916 0.193387 -1.87807 0
M  V30 2943 O 286.273 1.12557 -1.43656 0
M  V30 2944 C 286.324 -1.98229 -3.02304 0
M  V30 2945 O 286.045 -3.3609 -2.81026 0
M  V30 2946 C 287.546 -1.97751 -3.96749 0
M  V30 2947 H 284.766 -0.428868 -0.516055 0
M  V30 2948 H 287.31 -1.73328 -1.08525 0
M  V30 2949 H 285.465 -1.52782 -3.56001 0
M  V30 2950 H 285.879 -3.7383 -3.67902 0
M  V30 2951 H 287.353 -2.54114 -4.90031 0
M  V30 2952 H 287.83 -0.960137 -4.28577 0
M  V30 2953 H 288.436 -2.43079 -3.48988 0
M  V30 2954 N 286.751 1.08385 -1.14413 0
M  V30 2955 C 287.999 1.80419 -0.910679 0
M  V30 2956 C 288.32 1.86658 0.564243 0
M  V30 2957 O 287.59 1.35985 1.41014 0
M  V30 2958 H 286.17 0.668204 -0.333934 0
M  V30 2959 H 288.832 1.31037 -1.44275 0
M  V30 2960 H 287.928 2.83238 -1.31082 0
M  V30 2961 N 288.23 0.939286 1.26551 0
M  V30 2962 C 289.476 0.586715 1.94128 0
M  V30 2963 C 289.809 -0.8717 1.73537 0
M  V30 2964 O 289.084 -1.62339 1.07127 0
M  V30 2965 C 289.367 0.927497 3.4795 0
M  V30 2966 C 289.22 2.44052 3.77834 0
M  V30 2967 C 290.539 0.441569 4.37879 0
M  V30 2968 H 287.658 0.21463 0.705055 0
M  V30 2969 H 290.3 1.17316 1.49455 0
M  V30 2970 H 288.45 0.428431 3.8613 0
M  V30 2971 H 290.122 3.01216 3.4938 0
M  V30 2972 H 288.365 2.8848 3.23978 0
M  V30 2973 H 289.036 2.62947 4.85348 0
M  V30 2974 H 291.512 0.869448 4.06915 0
M  V30 2975 H 290.388 0.708856 5.44304 0
M  V30 2976 H 290.649 -0.658467 4.37169 0
M  V30 2977 N 289.708 -1.40897 0.706093 0
M  V30 2978 C 290.656 -2.32572 0.0361893 0
M  V30 2979 C 291.65 -1.51532 -0.757266 0
M  V30 2980 O 292.856 -1.67396 -0.661703 0
M  V30 2981 H 289.231 -0.751966 -0.00709935 0
M  V30 2982 H 291.202 -2.86733 0.826249 0
M  V30 2983 C 289.951 -3.36418 -0.87854 0
M  V30 2984 H 289.274 -3.98836 -0.277401 0
M  V30 2985 H 290.714 -4.0308 -1.3154 0
M  V30 2986 C 289.173 -2.71141 -1.99961 0
M  V30 2987 O 289.703 -2.56735 -3.0895 0
M  V30 2988 N 287.909 -2.29671 -1.78043 0
M  V30 2989 H 287.456 -2.41588 -0.894042 0
M  V30 2990 H 287.414 -1.86332 -2.53235 0
M  V30 2991 N 291.186 -0.45159 -1.50991 0
M  V30 2992 C 292.116 0.342898 -2.30969 0
M  V30 2993 C 293.097 1.00815 -1.37005 0
M  V30 2994 O 294.282 1.00907 -1.65926 0
M  V30 2995 C 291.412 1.43637 -3.16205 0
M  V30 2996 C 290.366 0.893818 -4.18563 0
M  V30 2997 C 289.692 2.08411 -4.92411 0
M  V30 2998 C 290.992 -0.0815568 -5.22236 0
M  V30 2999 H 292.686 -0.324556 -2.97636 0
M  V30 3000 H 290.232 -0.157531 -1.43136 0
M  V30 3001 H 292.185 1.9995 -3.70942 0
M  V30 3002 H 290.909 2.13232 -2.47386 0
M  V30 3003 H 289.568 0.352798 -3.64898 0
M  V30 3004 H 289.216 2.76658 -4.20082 0
M  V30 3005 H 288.916 1.72741 -5.61636 0
M  V30 3006 H 290.44 2.65251 -5.49976 0
M  V30 3007 H 291.854 0.391742 -5.7196 0
M  V30 3008 H 290.251 -0.351551 -5.99069 0
M  V30 3009 H 291.321 -1.01374 -4.74185 0
M  V30 3010 N 292.664 1.56529 -0.183458 0
M  V30 3011 C 293.594 2.21549 0.737456 0
M  V30 3012 C 294.575 1.17489 1.23005 0
M  V30 3013 O 295.76 1.45959 1.281 0
M  V30 3014 C 292.89 2.86575 1.96194 0
M  V30 3015 C 291.844 3.96778 1.60473 0
M  V30 3016 C 291.17 4.48911 2.90487 0
M  V30 3017 C 292.47 5.15767 0.823497 0
M  V30 3018 H 294.164 2.98761 0.195453 0
M  V30 3019 H 291.71 1.43702 0.0925686 0
M  V30 3020 H 293.663 3.30739 2.61131 0
M  V30 3021 H 292.387 2.06749 2.52828 0
M  V30 3022 H 291.046 3.53286 0.978997 0
M  V30 3023 H 290.694 3.65862 3.45186 0
M  V30 3024 H 290.394 5.23265 2.67335 0
M  V30 3025 H 291.918 4.95771 3.56432 0
M  V30 3026 H 293.332 5.56549 1.37571 0
M  V30 3027 H 291.729 5.96114 0.690551 0
M  V30 3028 H 292.799 4.84574 -0.177782 0
M  V30 3029 N 294.142 -0.090211 1.57342 0
M  V30 3030 C 295.388 -0.793982 1.86611 0
M  V30 3031 C 295.721 -1.78142 0.773252 0
M  V30 3032 O 294.996 -1.93271 -0.218304 0
M  V30 3033 C 295.279 -1.51839 3.26523 0
M  V30 3034 C 295.132 -0.548609 4.46442 0
M  V30 3035 C 296.451 -2.46779 3.64401 0
M  V30 3036 H 293.57 -0.287186 0.678744 0
M  V30 3037 H 296.212 -0.0575076 1.89913 0
M  V30 3038 H 294.362 -2.14617 3.23839 0
M  V30 3039 H 296.034 0.0725513 4.61243 0
M  V30 3040 H 294.277 0.137614 4.33582 0
M  V30 3041 H 294.948 -1.09271 5.41076 0
M  V30 3042 H 297.424 -1.94089 3.68061 0
M  V30 3043 H 296.3 -2.94479 4.63221 0
M  V30 3044 H 296.561 -3.30758 2.93346 0
M  V30 3045 N 295.62 -1.53406 -0.361157 0
M  V30 3046 C 296.55 -1.83136 -1.44857 0
M  V30 3047 C 297.531 -0.685174 -1.5569 0
M  V30 3048 O 298.716 -0.93544 -1.70186 0
M  V30 3049 C 295.846 -2.02522 -2.82138 0
M  V30 3050 C 294.8 -3.18302 -2.86126 0
M  V30 3051 C 294.126 -3.22989 -4.26125 0
M  V30 3052 C 295.426 -4.56796 -2.53248 0
M  V30 3053 H 297.12 -2.74201 -1.20226 0
M  V30 3054 H 294.666 -1.31938 -0.576922 0
M  V30 3055 H 296.619 -2.21904 -3.58241 0
M  V30 3056 H 295.343 -1.08172 -3.08166 0
M  V30 3057 H 294.002 -2.98747 -2.12475 0
M  V30 3058 H 293.65 -2.26267 -4.49235 0
M  V30 3059 H 293.35 -4.00781 -4.29708 0
M  V30 3060 H 294.874 -3.44559 -5.04094 0
M  V30 3061 H 296.288 -4.7631 -3.19064 0
M  V30 3062 H 294.685 -5.36862 -2.68141 0
M  V30 3063 H 295.755 -4.61606 -1.48484 0
M  V30 3064 N 297.098 0.621204 -1.44841 0
M  V30 3065 C 298.346 1.37783 -1.47852 0
M  V30 3066 C 298.667 1.94653 -0.116224 0
M  V30 3067 O 297.937 1.76367 0.852737 0
M  V30 3068 H 296.517 0.511453 -0.544449 0
M  V30 3069 H 299.179 0.730446 -1.80694 0
M  V30 3070 H 298.275 2.20414 -2.20961 0
M  V30 3071 N 298.576 1.31904 0.862503 0
M  V30 3072 C 299.823 1.22017 1.61611 0
M  V30 3073 C 300.151 -0.21991 1.93253 0
M  V30 3074 O 299.406 -1.17076 1.56817 0
M  V30 3075 C 299.705 2.01713 2.95037 0
M  V30 3076 C 299.371 3.51145 2.82857 0
M  V30 3077 C 298.033 3.91889 2.79243 0
M  V30 3078 C 300.385 4.46204 2.69353 0
M  V30 3079 C 297.713 5.25947 2.59993 0
M  V30 3080 C 300.065 5.80397 2.5164 0
M  V30 3081 C 298.729 6.20352 2.46413 0
M  V30 3082 H 297.999 0.44649 0.591378 0
M  V30 3083 H 300.646 1.63248 1.00111 0
M  V30 3084 H 298.951 1.53185 3.60613 0
M  V30 3085 H 300.648 1.91437 3.52353 0
M  V30 3086 H 297.238 3.1878 2.86491 0
M  V30 3087 H 301.422 4.15652 2.71196 0
M  V30 3088 H 296.678 5.5597 2.54376 0
M  V30 3089 H 300.852 6.53676 2.40169 0
M  V30 3090 H 298.479 7.24172 2.31256 0
M  V30 3091 N 300.054 -1.07777 1.14986 0
M  V30 3092 C 301.3 -1.80557 0.923422 0
M  V30 3093 C 301.633 -1.86298 -0.548337 0
M  V30 3094 O 300.908 -1.34354 -1.40639 0
M  V30 3095 C 301.191 -3.25839 1.53299 0
M  V30 3096 C 301.044 -3.28269 3.07505 0
M  V30 3097 C 302.363 -4.22991 1.21518 0
M  V30 3098 H 299.482 -0.655493 0.336894 0
M  V30 3099 H 302.124 -1.26144 1.42083 0
M  V30 3100 H 300.274 -3.72306 1.10999 0
M  V30 3101 H 301.946 -2.90079 3.58681 0
M  V30 3102 H 300.189 -2.67355 3.4162 0
M  V30 3103 H 300.86 -4.30691 3.45266 0
M  V30 3104 H 303.336 -3.84894 1.581 0
M  V30 3105 H 302.212 -5.22945 1.66793 0
M  V30 3106 H 302.473 -4.41904 0.131505 0
M  V30 3107 N 301.532 -0.945985 -1.26051 0
M  V30 3108 C 302.465 -0.403619 -2.24602 0
M  V30 3109 C 303.443 0.510241 -1.54387 0
M  V30 3110 O 304.627 0.446593 -1.83133 0
M  V30 3111 C 301.754 0.419564 -3.36091 0
M  V30 3112 C 300.8 -0.433454 -4.24292 0
M  V30 3113 S 301.633 -1.86037 -5.02146 0
M  V30 3114 C 302.789 -1.04538 -6.17108 0
M  V30 3115 H 303.022 -1.23883 -2.7026 0
M  V30 3116 H 300.555 -0.749438 -1.34992 0
M  V30 3117 H 302.513 0.888595 -4.00767 0
M  V30 3118 H 301.174 1.22951 -2.89036 0
M  V30 3119 H 300.367 0.197486 -5.03613 0
M  V30 3120 H 299.969 -0.837357 -3.64506 0
M  V30 3121 H 302.261 -0.289923 -6.76879 0
M  V30 3122 H 303.204 -1.81222 -6.84518 0
M  V30 3123 H 303.612 -0.579319 -5.61519 0
M  V30 3124 N 303.011 1.40521 -0.713556 0
M  V30 3125 C 304.26 2.00155 -0.249192 0
M  V30 3126 C 304.573 1.57224 1.16362 0
M  V30 3127 O 305.779 2.09542 1.72639 0
M  V30 3128 C 304.235 3.5773 -0.3946 0
M  V30 3129 C 303.843 4.09635 -1.81392 0
M  V30 3130 C 305.587 4.24499 0.00907364 0
M  V30 3131 C 303.494 5.59707 -1.91003 0
M  V30 3132 H 302.424 0.74868 -0.0894114 0
M  V30 3133 H 305.075 1.60784 -0.884352 0
M  V30 3134 H 303.457 3.94792 0.30911 0
M  V30 3135 H 304.631 3.83955 -2.54785 0
M  V30 3136 H 302.946 3.55456 -2.16888 0
M  V30 3137 H 305.543 5.34683 -0.0420404 0
M  V30 3138 H 305.886 4.02824 1.05065 0
M  V30 3139 H 306.419 3.92536 -0.645007 0
M  V30 3140 H 303.158 5.86234 -2.93275 0
M  V30 3141 H 302.678 5.87258 -1.22019 0
M  V30 3142 H 304.357 6.24776 -1.6812 0
M  V30 3143 N 304.489 0.459591 1.5075 0
M  V30 3144 C 305.714 -0.0996819 2.0716 0
M  V30 3145 C 306.139 -1.33761 1.32249 0
M  V30 3146 O 305.497 -1.77551 0.366786 0
M  V30 3147 C 305.545 -0.378226 3.58611 0
M  V30 3148 O 304.649 -1.46081 3.85661 0
M  V30 3149 H 303.99 0.00791392 0.663953 0
M  V30 3150 H 306.52 0.647329 1.9409 0
M  V30 3151 H 306.53 -0.622135 4.03229 0
M  V30 3152 H 305.205 0.526439 4.12555 0
M  V30 3153 H 303.782 -1.20511 3.5289 0
M  V30 3154 N 305.967 -1.56429 0.191757 0
M  V30 3155 C 307.215 -1.97095 -0.447006 0
M  V30 3156 C 307.536 -1.07967 -1.62383 0
M  V30 3157 O 306.806 -0.150248 -1.95323 0
M  V30 3158 H 305.386 -0.727832 -0.168135 0
M  V30 3159 H 308.048 -1.92911 0.27771 0
M  V30 3160 H 307.144 -3.01848 -0.793371 0
M  V30 3161 N 307.445 0.0818655 -1.57387 0
M  V30 3162 C 308.692 0.782914 -1.86753 0
M  V30 3163 C 309.02 1.78082 -0.782118 0
M  V30 3164 O 308.275 1.94426 0.22295 0
M  V30 3165 C 308.574 1.53513 -3.22752 0
M  V30 3166 C 308.24 0.678134 -4.45771 0
M  V30 3167 C 306.902 0.441929 -4.79166 0
M  V30 3168 C 309.254 0.0832243 -5.21134 0
M  V30 3169 C 306.582 -0.398833 -5.85343 0
M  V30 3170 C 308.934 -0.744935 -6.28199 0
M  V30 3171 C 307.598 -0.991107 -6.60101 0
M  V30 3172 H 306.868 0.286489 -0.683378 0
M  V30 3173 H 309.515 0.0439808 -1.91449 0
M  V30 3174 H 307.82 2.34599 -3.138 0
M  V30 3175 H 309.517 2.08218 -3.42705 0
M  V30 3176 H 306.107 0.872357 -4.19628 0
M  V30 3177 H 310.291 0.252847 -4.95655 0
M  V30 3178 H 305.547 -0.598405 -6.08465 0
M  V30 3179 H 309.721 -1.21271 -6.8576 0
M  V30 3180 H 307.348 -1.64437 -7.42202 0
M  V30 3181 N 308.923 1.53595 0.353017 0
M  V30 3182 C 310.169 1.70638 1.09593 0
M  V30 3183 C 310.502 0.463286 1.88593 0
M  V30 3184 O 309.777 -0.539597 1.86865 0
M  V30 3185 C 310.06 2.96406 2.04489 0
M  V30 3186 C 309.913 4.30901 1.29014 0
M  V30 3187 C 311.232 3.17812 3.0444 0
M  V30 3188 H 308.351 0.620913 0.397034 0
M  V30 3189 H 310.993 1.86254 0.375446 0
M  V30 3190 H 309.143 2.83223 2.65927 0
M  V30 3191 H 310.815 4.55917 0.702638 0
M  V30 3192 H 309.058 4.29741 0.592071 0
M  V30 3193 H 309.729 5.1506 1.98537 0
M  V30 3194 H 312.205 3.30263 2.53112 0
M  V30 3195 H 311.081 4.07223 3.6805 0
M  V30 3196 H 311.342 2.33669 3.75301 0
M  V30 3197 N 310.401 -0.613514 1.45168 0
M  V30 3198 C 311.348 -1.72456 1.53387 0
M  V30 3199 C 312.318 -1.6169 0.380191 0
M  V30 3200 O 313.503 -1.81356 0.592836 0
M  V30 3201 C 310.643 -3.10753 1.50088 0
M  V30 3202 C 309.756 -3.32368 2.75963 0
M  V30 3203 C 308.891 -4.60737 2.64376 0
M  V30 3204 C 307.93 -4.7559 3.85332 0
M  V30 3205 N 307.067 -5.95253 3.72315 0
M  V30 3206 H 311.907 -1.64768 2.48305 0
M  V30 3207 H 309.444 -0.803503 1.23216 0
M  V30 3208 H 311.402 -3.90758 1.46164 0
M  V30 3209 H 310.032 -3.17413 0.587243 0
M  V30 3210 H 309.084 -2.4618 2.89999 0
M  V30 3211 H 310.396 -3.39218 3.65695 0
M  V30 3212 H 309.55 -5.48928 2.58385 0
M  V30 3213 H 308.289 -4.56275 1.72233 0
M  V30 3214 H 307.294 -3.85824 3.91688 0
M  V30 3215 H 308.519 -4.81854 4.78533 0
M  V30 3216 H 306.465 -5.91847 2.82937 0
M  V30 3217 H 306.382 -6.03236 4.55677 0
M  V30 3218 H 307.65 -6.85958 3.70246 0
M  V30 3219 N 311.879 -1.3236 -0.855495 0
M  V30 3220 C 313.127 -1.22629 -1.60644 0
M  V30 3221 C 313.448 0.212136 -1.93843 0
M  V30 3222 O 312.718 1.13666 -1.59552 0
M  V30 3223 H 311.298 -0.450882 -0.595579 0
M  V30 3224 H 313.96 -1.65871 -1.02337 0
M  V30 3225 H 313.056 -1.80832 -2.54374 0
M  V30 3226 N 313.357 1.07166 -1.15556 0
M  V30 3227 C 314.634 1.76546 -0.842069 0
M  V30 3228 C 315.014 2.00453 0.661939 0
M  V30 3229 O 314.362 1.62452 1.60691 0
M  V30 3230 C 314.572 3.07266 -1.65495 0
M  V30 3231 C 315.92 3.81578 -1.86234 0
M  V30 3232 O 316.944 3.17083 -1.62287 0
M  V30 3233 O 315.803 4.97419 -2.26355 0
M  V30 3234 H 312.897 0.766756 -0.309862 0
M  V30 3235 H 315.443 1.13514 -1.26145 0
M  V30 3236 H 314.215 2.85494 -2.67598 0
M  V30 3237 H 313.838 3.7803 -1.23203 0
M  V30 3238 N 314.835 0.952656 1.25548 0
M  V30 3239 C 316.081 0.607272 1.93494 0
M  V30 3240 C 316.414 -0.853245 1.74452 0
M  V30 3241 O 315.689 -1.61194 1.08843 0
M  V30 3242 C 315.972 0.96435 3.46947 0
M  V30 3243 C 315.825 2.48045 3.75225 0
M  V30 3244 C 317.144 0.487987 4.37386 0
M  V30 3245 H 314.263 0.222096 0.702739 0
M  V30 3246 H 316.905 1.18895 1.48203 0
M  V30 3247 H 315.055 0.469361 3.85654 0
M  V30 3248 H 316.727 3.04905 3.46166 0
M  V30 3249 H 314.97 2.919 3.209 0
M  V30 3250 H 315.641 2.6808 4.82532 0
M  V30 3251 H 318.117 0.912558 4.0597 0
M  V30 3252 H 316.993 0.766547 5.43521 0
M  V30 3253 H 317.254 -0.612063 4.37843 0
M  V30 3254 N 316.313 -1.40141 0.720998 0
M  V30 3255 C 317.263 -2.27949 0.0482544 0
M  V30 3256 C 318.247 -1.43538 -0.727021 0
M  V30 3257 O 319.439 -1.6658 -0.598332 0
M  V30 3258 C 316.568 -3.32126 -0.868729 0
M  V30 3259 C 315.654 -4.24008 -0.0883515 0
M  V30 3260 N 316.045 -4.97154 0.931226 0
M  V30 3261 C 314.343 -4.4485 -0.320105 0
M  V30 3262 C 315.044 -5.64587 1.4006 0
M  V30 3263 N 314.02 -5.38787 0.721752 0
M  V30 3264 H 317.822 -2.81948 0.829609 0
M  V30 3265 H 315.336 -1.52656 0.554067 0
M  V30 3266 H 317.333 -3.93884 -1.36605 0
M  V30 3267 H 315.993 -2.79687 -1.6494 0
M  V30 3268 H 317.004 -5.01 1.31222 0
M  V30 3269 H 313.681 -4.03378 -1.07668 0
M  V30 3270 H 315.071 -6.33175 2.24808 0
M  V30 3271 N 317.792 -0.46758 -1.50504 0
M  V30 3272 C 318.74 0.342482 -2.30065 0
M  V30 3273 C 319.734 0.993596 -1.37201 0
M  V30 3274 O 320.94 0.925102 -1.54408 0
M  V30 3275 H 317.315 0.129283 -0.740803 0
M  V30 3276 H 319.286 -0.34899 -2.96352 0
M  V30 3277 C 318.035 1.4139 -3.17654 0
M  V30 3278 H 317.358 0.922264 -3.89017 0
M  V30 3279 H 318.798 1.95335 -3.76325 0
M  V30 3280 C 317.257 2.4139 -2.35016 0
M  V30 3281 O 317.787 3.46586 -2.03079 0
M  V30 3282 N 315.993 2.13021 -1.97662 0
M  V30 3283 H 315.54 1.27499 -2.23834 0
M  V30 3284 H 315.498 2.80164 -1.42673 0
M  V30 3285 N 319.27 1.56325 -0.20005 0
M  V30 3286 C 320.516 1.98772 0.431408 0
M  V30 3287 C 320.871 1.0849 1.58895 0
M  V30 3288 O 320.164 0.130331 1.91156 0
M  V30 3289 C 320.358 3.4495 0.935103 0
M  V30 3290 C 320.187 4.49371 -0.172096 0
M  V30 3291 C 318.957 5.0134 -0.631377 0
M  V30 3292 C 321.155 5.04822 -0.982806 0
M  V30 3293 N 319.137 5.89433 -1.71588 0
M  V30 3294 C 320.508 5.89632 -1.91661 0
M  V30 3295 C 322.563 4.87242 -1.02467 0
M  V30 3296 C 321.266 6.58741 -2.88881 0
M  V30 3297 C 323.292 5.57094 -1.98494 0
M  V30 3298 C 322.654 6.41655 -2.90617 0
M  V30 3299 H 318.753 0.771922 0.125144 0
M  V30 3300 H 321.337 1.92266 -0.306883 0
M  V30 3301 H 319.508 3.51946 1.64282 0
M  V30 3302 H 321.24 3.74354 1.53758 0
M  V30 3303 H 317.995 4.73071 -0.223827 0
M  V30 3304 H 318.419 6.38182 -2.25948 0
M  V30 3305 H 323.061 4.21538 -0.326408 0
M  V30 3306 H 320.779 7.23641 -3.5968 0
M  V30 3307 H 324.365 5.45466 -2.0238 0
M  V30 3308 H 323.245 6.94755 -3.63711 0
M  V30 3309 N 320.748 -0.0735177 1.57428 0
M  V30 3310 C 321.695 -1.08756 2.0357 0
M  V30 3311 C 322.665 -1.38559 0.916 0
M  V30 3312 O 323.85 -1.49656 1.18354 0
M  V30 3313 C 320.99 -2.39657 2.48311 0
M  V30 3314 C 320.103 -2.16399 3.73892 0
M  V30 3315 C 319.238 -3.40852 4.07423 0
M  V30 3316 C 318.277 -3.1295 5.2605 0
M  V30 3317 N 317.414 -4.29729 5.55228 0
M  V30 3318 H 322.254 -0.687104 2.8997 0
M  V30 3319 H 319.791 -0.327709 1.43403 0
M  V30 3320 H 321.749 -3.16081 2.72303 0
M  V30 3321 H 320.379 -2.77508 1.64891 0
M  V30 3322 H 319.431 -1.30676 3.57251 0
M  V30 3323 H 320.743 -1.91788 4.60455 0
M  V30 3324 H 319.897 -4.25671 4.32306 0
M  V30 3325 H 318.636 -3.68537 3.19425 0
M  V30 3326 H 317.641 -2.26526 5.00965 0
M  V30 3327 H 318.866 -2.86589 6.15665 0
M  V30 3328 H 316.812 -4.57448 4.70188 0
M  V30 3329 H 316.729 -4.08385 6.36206 0
M  V30 3330 H 317.997 -5.1555 5.84661 0
M  V30 3331 N 322.226 -1.5378 -0.344866 0
M  V30 3332 C 323.156 -1.84662 -1.42906 0
M  V30 3333 C 324.137 -0.701648 -1.54955 0
M  V30 3334 O 325.322 -0.953438 -1.69184 0
M  V30 3335 C 322.452 -2.05503 -2.79974 0
M  V30 3336 C 321.406 -3.21318 -2.82734 0
M  V30 3337 C 320.732 -3.2749 -4.22675 0
M  V30 3338 C 322.032 -4.59456 -2.48389 0
M  V30 3339 H 323.726 -2.75461 -1.17311 0
M  V30 3340 H 321.272 -1.32542 -0.562896 0
M  V30 3341 H 323.225 -2.25691 -3.55867 0
M  V30 3342 H 321.949 -1.11434 -3.07002 0
M  V30 3343 H 320.608 -3.00984 -2.09294 0
M  V30 3344 H 320.256 -2.31019 -4.4681 0
M  V30 3345 H 319.956 -4.05316 -4.25433 0
M  V30 3346 H 321.48 -3.49887 -5.00412 0
M  V30 3347 H 322.894 -4.79667 -3.13995 0
M  V30 3348 H 321.291 -5.39675 -2.62432 0
M  V30 3349 H 322.361 -4.63155 -1.4358 0
M  V30 3350 N 323.704 0.605807 -1.45491 0
M  V30 3351 C 324.932 1.39136 -1.5313 0
M  V30 3352 C 325.347 1.88082 -0.164507 0
M  V30 3353 O 324.704 1.62316 0.834247 0
M  V30 3354 C 324.755 2.59463 -2.51716 0
M  V30 3355 O 324.476 2.12551 -3.83084 0
M  V30 3356 C 325.977 3.52301 -2.6907 0
M  V30 3357 H 323.197 0.425849 -0.51855 0
M  V30 3358 H 325.741 0.73865 -1.90694 0
M  V30 3359 H 323.896 3.20772 -2.17219 0
M  V30 3360 H 324.31 2.90744 -4.36541 0
M  V30 3361 H 325.784 4.33271 -3.42024 0
M  V30 3362 H 326.261 4.02757 -1.75167 0
M  V30 3363 H 326.867 2.96845 -3.04571 0
M  V30 3364 N 325.182 1.32811 0.848464 0
M  V30 3365 C 326.092 1.24278 1.98978 0
M  V30 3366 C 327.108 0.155176 1.73307 0
M  V30 3367 O 328.284 0.376999 1.9784 0
M  V30 3368 C 325.349 0.972444 3.32783 0
M  V30 3369 C 324.41 2.14911 3.71634 0
M  V30 3370 C 323.643 1.89157 4.99054 0
M  V30 3371 O 323.866 0.837165 5.64223 0
M  V30 3372 O 322.8 2.75433 5.35183 0
M  V30 3373 H 326.626 2.20238 2.09115 0
M  V30 3374 H 324.211 1.12762 0.980052 0
M  V30 3375 H 326.093 0.838432 4.12975 0
M  V30 3376 H 324.768 0.043051 3.23671 0
M  V30 3377 H 323.675 2.33862 2.91992 0
M  V30 3378 H 325.008 3.06151 3.85399 0
M  V30 3379 N 326.66 -1.06551 1.16123 0
M  V30 3380 C 327.57 -2.17484 0.879662 0
M  V30 3381 C 328.586 -1.73377 -0.147104 0
M  V30 3382 O 329.762 -2.01379 0.0289128 0
M  V30 3383 C 326.827 -3.44591 0.381829 0
M  V30 3384 C 325.888 -4.0322 1.4735 0
M  V30 3385 C 325.121 -5.24261 0.999324 0
M  V30 3386 O 325.344 -5.70198 -0.151957 0
M  V30 3387 O 324.278 -5.74775 1.78653 0
M  V30 3388 H 328.104 -2.44075 1.80724 0
M  V30 3389 H 325.689 -1.16042 0.940992 0
M  V30 3390 H 327.571 -4.21254 0.111053 0
M  V30 3391 H 326.246 -3.19532 -0.51777 0
M  V30 3392 H 325.153 -3.2806 1.79798 0
M  V30 3393 H 326.486 -4.32568 2.34831 0
M  V30 3394 N 328.138 -0.959301 -1.25041 0
M  V30 3395 C 329.415 -0.533805 -1.88175 0
M  V30 3396 C 329.795 0.988994 -1.865 0
M  V30 3397 O 329.143 1.85677 -1.33177 0
M  V30 3398 C 329.353 -1.11575 -3.30684 0
M  V30 3399 C 330.701 -1.19548 -4.07423 0
M  V30 3400 O 331.725 -1.06765 -3.39823 0
M  V30 3401 O 330.584 -1.39656 -5.28354 0
M  V30 3402 H 327.678 -0.176772 -0.807887 0
M  V30 3403 H 330.224 -1.05303 -1.33076 0
M  V30 3404 H 328.996 -2.15884 -3.26358 0
M  V30 3405 H 328.619 -0.580059 -3.93346 0
M  V30 3406 N 329.616 1.39756 -0.72842 0
M  V30 3407 C 330.846 2.04651 -0.283117 0
M  V30 3408 C 331.254 1.5502 1.08469 0
M  V30 3409 O 330.597 0.707343 1.69536 0
M  V30 3410 C 330.659 3.58947 -0.199309 0
M  V30 3411 C 330.323 4.31525 -1.5045 0
M  V30 3412 C 331.32 4.5861 -2.44894 0
M  V30 3413 C 329.005 4.70195 -1.76698 0
M  V30 3414 C 330.999 5.23366 -3.63822 0
M  V30 3415 C 328.686 5.3468 -2.95906 0
M  V30 3416 C 329.684 5.61198 -3.89289 0
M  V30 3417 O 329.372 6.24347 -5.06404 0
M  V30 3418 H 329.104 0.664777 -0.122666 0
M  V30 3419 H 331.658 1.79913 -0.990987 0
M  V30 3420 H 329.888 3.82556 0.56461 0
M  V30 3421 H 331.577 4.0534 0.213125 0
M  V30 3422 H 332.343 4.29187 -2.25883 0
M  V30 3423 H 328.222 4.48916 -1.04859 0
M  V30 3424 H 331.766 5.4398 -4.36728 0
M  V30 3425 H 327.663 5.63524 -3.14819 0
M  V30 3426 H 328.431 6.42842 -5.06652 0
M  V30 3427 N 331.094 0.475555 1.50254 0
M  V30 3428 C 332.004 -0.321501 2.32387 0
M  V30 3429 C 333.02 -0.991755 1.42969 0
M  V30 3430 O 334.196 -0.978747 1.76018 0
M  V30 3431 C 331.261 -1.38667 3.17762 0
M  V30 3432 C 330.322 -0.732538 4.23004 0
M  V30 3433 C 329.555 -1.74695 5.04299 0
M  V30 3434 O 329.778 -2.97399 4.86734 0
M  V30 3435 O 328.712 -1.31631 5.8733 0
M  V30 3436 H 332.538 0.350071 3.01676 0
M  V30 3437 H 330.123 0.237321 1.47503 0
M  V30 3438 H 332.005 -2.00354 3.70724 0
M  V30 3439 H 330.68 -2.04163 2.51196 0
M  V30 3440 H 329.587 -0.0765902 3.74022 0
M  V30 3441 H 330.92 -0.120452 4.92053 0
M  V30 3442 N 332.573 -1.56217 0.208337 0
M  V30 3443 C 333.503 -2.22694 -0.702116 0
M  V30 3444 C 334.484 -1.19432 -1.2112 0
M  V30 3445 O 335.669 -1.47978 -1.25762 0
M  V30 3446 C 332.799 -2.8966 -1.9161 0
M  V30 3447 C 331.753 -3.9928 -1.5414 0
M  V30 3448 C 331.079 -4.53476 -2.83308 0
M  V30 3449 C 332.379 -5.17012 -0.741339 0
M  V30 3450 H 334.073 -2.99034 -0.147898 0
M  V30 3451 H 331.619 -1.43831 -0.0696951 0
M  V30 3452 H 333.572 -3.34852 -2.55836 0
M  V30 3453 H 332.296 -2.10746 -2.49507 0
M  V30 3454 H 330.955 -3.54799 -0.922668 0
M  V30 3455 H 330.603 -3.71308 -3.39322 0
M  V30 3456 H 330.303 -5.27451 -2.58976 0
M  V30 3457 H 331.827 -5.01378 -3.485 0
M  V30 3458 H 333.241 -5.58667 -1.28699 0
M  V30 3459 H 331.638 -5.97137 -0.595627 0
M  V30 3460 H 332.708 -4.8423 0.254851 0
M  V30 3461 N 334.051 0.0651679 -1.57465 0
M  V30 3462 C 335.014 1.06117 -2.03155 0
M  V30 3463 C 336.014 1.31204 -0.929632 0
M  V30 3464 O 337.204 1.26813 -1.19432 0
M  V30 3465 C 334.336 2.4032 -2.41783 0
M  V30 3466 H 335.529 0.667231 -2.92383 0
M  V30 3467 H 333.082 0.311075 -1.53173 0
M  V30 3468 H 333.817 2.84532 -1.55601 0
M  V30 3469 H 333.602 2.23451 -3.22199 0
M  V30 3470 H 335.092 3.11898 -2.77685 0
M  V30 3471 N 335.529 1.53961 0.336706 0
M  V30 3472 C 336.462 1.77255 1.43722 0
M  V30 3473 C 337.44 0.62193 1.50236 0
M  V30 3474 O 338.624 0.857874 1.67847 0
M  V30 3475 C 335.751 1.87733 2.81912 0
M  V30 3476 C 334.797 3.09933 2.92991 0
M  V30 3477 S 335.63 4.68836 2.58753 0
M  V30 3478 C 336.786 4.82202 3.99039 0
M  V30 3479 H 337.019 2.70322 1.23748 0
M  V30 3480 H 334.552 1.44917 0.532777 0
M  V30 3481 H 336.51 1.94455 3.61521 0
M  V30 3482 H 335.171 0.956666 2.99177 0
M  V30 3483 H 334.364 3.1396 3.94265 0
M  V30 3484 H 333.966 3.01472 2.21338 0
M  V30 3485 H 336.258 4.64032 4.9364 0
M  V30 3486 H 337.201 5.84298 4.00002 0
M  V30 3487 H 337.609 4.10604 3.87382 0
M  V30 3488 N 337.007 -0.598083 1.45811 0
M  V30 3489 C 337.97 -1.69018 1.54808 0
M  V30 3490 C 338.97 -1.55037 0.426652 0
M  V30 3491 O 340.16 -1.59932 0.690456 0
M  V30 3492 C 337.292 -3.0835 1.45371 0
M  V30 3493 H 338.485 -1.62403 2.52121 0
M  V30 3494 H 336.038 -0.814626 1.33392 0
M  V30 3495 H 336.773 -3.20534 0.492793 0
M  V30 3496 H 336.558 -3.19907 2.26721 0
M  V30 3497 H 338.048 -3.8788 1.54721 0
M  V30 3498 N 338.485 -1.33259 -0.841409 0
M  V30 3499 C 339.395 -1.25332 -1.98316 0
M  V30 3500 C 340.411 -0.164364 -1.73222 0
M  V30 3501 O 341.587 -0.387486 -1.97637 0
M  V30 3502 C 338.652 -0.990078 -3.32262 0
M  V30 3503 C 337.713 -2.16879 -3.70489 0
M  V30 3504 C 336.946 -1.91801 -4.98044 0
M  V30 3505 O 337.169 -0.867075 -5.63771 0
M  V30 3506 O 336.103 -2.78267 -5.33714 0
M  V30 3507 H 339.929 -2.21344 -2.07944 0
M  V30 3508 H 337.514 -1.1328 -0.974058 0
M  V30 3509 H 339.396 -0.860321 -4.12524 0
M  V30 3510 H 338.071 -0.0602155 -3.23644 0
M  V30 3511 H 336.978 -2.35407 -2.90748 0
M  V30 3512 H 338.311 -3.0819 -3.8377 0
M  V30 3513 N 339.963 1.05934 -1.16686 0
M  V30 3514 C 340.893 2.1546 -0.899949 0
M  V30 3515 C 341.874 1.69391 0.155154 0
M  V30 3516 O 343.059 1.94199 0.00648693 0
M  V30 3517 C 340.189 3.44939 -0.404241 0
M  V30 3518 C 339.143 4.04536 -1.39767 0
M  V30 3519 C 338.469 5.29268 -0.760216 0
M  V30 3520 C 339.769 4.42893 -2.76845 0
M  V30 3521 H 341.463 2.38046 -1.81588 0
M  V30 3522 H 339.009 1.14404 -0.874514 0
M  V30 3523 H 340.962 4.20901 -0.204971 0
M  V30 3524 H 339.686 3.21983 0.547206 0
M  V30 3525 H 338.345 3.30635 -1.58355 0
M  V30 3526 H 337.993 5.02611 0.197831 0
M  V30 3527 H 337.693 5.70101 -1.42332 0
M  V30 3528 H 339.217 6.07924 -0.57105 0
M  V30 3529 H 340.631 5.09921 -2.62019 0
M  V30 3530 H 339.028 4.94721 -3.39663 0
M  V30 3531 H 340.098 3.53584 -3.31823 0
M  V30 3532 N 341.441 0.965919 1.2453 0
M  V30 3533 C 342.389 0.486506 2.27455 0
M  V30 3534 C 343.383 -0.449041 1.6334 0
M  V30 3535 O 344.589 -0.324527 1.7705 0
M  V30 3536 H 340.964 0.138857 0.739069 0
M  V30 3537 H 342.935 1.3666 2.65267 0
M  V30 3538 C 341.684 -0.209481 3.47068 0
M  V30 3539 H 341.007 0.50129 3.96645 0
M  V30 3540 H 342.447 -0.508775 4.20936 0
M  V30 3541 C 340.906 -1.43586 3.0477 0
M  V30 3542 O 341.436 -2.53299 3.11773 0
M  V30 3543 N 339.642 -1.30126 2.59838 0
M  V30 3544 H 339.189 -0.408583 2.54339 0
M  V30 3545 H 339.147 -2.12294 2.31902 0
M  V30 3546 N 342.919 -1.39368 0.735821 0
M  V30 3547 C 344.196 -1.94465 0.210395 0
M  V30 3548 C 344.576 -1.67254 -1.28799 0
M  V30 3549 O 343.924 -1.00123 -2.05396 0
M  V30 3550 C 344.134 -3.4472 0.544897 0
M  V30 3551 C 345.482 -4.21708 0.494689 0
M  V30 3552 O 346.506 -3.52922 0.482136 0
M  V30 3553 O 345.365 -5.44299 0.489947 0
M  V30 3554 H 342.459 -0.826096 0.0386666 0
M  V30 3555 H 345.005 -1.48863 0.814735 0
M  V30 3556 H 343.777 -3.57963 1.58045 0
M  V30 3557 H 343.4 -3.97502 -0.08837 0
M  V30 3558 N 344.397 -0.483516 -1.5 0
M  V30 3559 C 345.625 0.0644831 -2.06799 0
M  V30 3560 C 346.04 1.32399 -1.34596 0
M  V30 3561 O 345.397 1.77626 -0.418946 0
M  V30 3562 C 345.448 0.339927 -3.59898 0
M  V30 3563 O 345.169 -0.869635 -4.29382 0
M  V30 3564 C 346.67 0.933515 -4.33359 0
M  V30 3565 H 343.89 -0.0126333 -0.670881 0
M  V30 3566 H 346.434 -0.675864 -1.93009 0
M  V30 3567 H 344.589 1.03022 -3.7345 0
M  V30 3568 H 345.003 -0.62179 -5.20801 0
M  V30 3569 H 346.477 1.07593 -5.41413 0
M  V30 3570 H 346.954 1.92685 -3.94676 0
M  V30 3571 H 347.56 0.281221 -4.24369 0
M  V30 3572 N 345.875 1.56104 -0.216619 0
M  V30 3573 C 347.105 2.02269 0.420802 0
M  V30 3574 C 347.513 1.09575 1.5424 0
M  V30 3575 O 346.856 0.0967308 1.83445 0
M  V30 3576 C 346.918 3.44784 1.01806 0
M  V30 3577 C 346.582 4.56988 0.0325154 0
M  V30 3578 C 347.579 5.14225 -0.766055 0
M  V30 3579 C 345.264 5.02228 -0.0848092 0
M  V30 3580 C 347.258 6.15169 -1.6687 0
M  V30 3581 C 344.945 6.03011 -0.990994 0
M  V30 3582 C 345.943 6.59357 -1.78149 0
M  V30 3583 O 345.631 7.58179 -2.67245 0
M  V30 3584 H 345.363 0.667353 0.107776 0
M  V30 3585 H 347.917 2.02747 -0.329034 0
M  V30 3586 H 346.147 3.41359 1.81689 0
M  V30 3587 H 347.836 3.74626 1.56237 0
M  V30 3588 H 348.602 4.80126 -0.685836 0
M  V30 3589 H 344.481 4.58054 0.520349 0
M  V30 3590 H 348.025 6.59076 -2.28615 0
M  V30 3591 H 343.922 6.36532 -1.07225 0
M  V30 3592 H 344.69 7.75682 -2.61265 0
M  V30 3593 N 347.353 -0.0568162 1.57498 0
M  V30 3594 C 348.578 -0.769402 1.92601 0
M  V30 3595 C 349.003 -1.69559 0.814336 0
M  V30 3596 O 348.361 -1.79811 -0.231903 0
M  V30 3597 C 348.409 -1.52634 3.26704 0
M  V30 3598 O 347.513 -2.63797 3.16994 0
M  V30 3599 H 346.854 -0.208909 0.63028 0
M  V30 3600 H 349.384 -0.0205798 2.0459 0
M  V30 3601 H 349.394 -1.90234 3.60936 0
M  V30 3602 H 348.069 -0.846875 4.07186 0
M  V30 3603 H 346.646 -2.28943 2.94346 0
M  V30 3604 N 348.832 -1.54138 -0.328536 0
M  V30 3605 C 349.762 -1.86167 -1.40939 0
M  V30 3606 C 350.743 -0.718044 -1.54202 0
M  V30 3607 O 351.928 -0.971328 -1.68163 0
M  V30 3608 C 349.058 -2.08461 -2.77779 0
M  V30 3609 C 348.012 -3.24299 -2.7931 0
M  V30 3610 C 347.338 -3.31955 -4.19178 0
M  V30 3611 C 348.638 -4.62065 -2.43502 0
M  V30 3612 H 350.332 -2.76689 -1.14383 0
M  V30 3613 H 347.878 -1.33132 -0.548806 0
M  V30 3614 H 349.831 -2.29453 -3.53454 0
M  V30 3615 H 348.555 -1.14684 -3.05802 0
M  V30 3616 H 347.214 -3.03187 -2.0609 0
M  V30 3617 H 346.862 -2.35745 -4.44335 0
M  V30 3618 H 346.562 -4.09805 -4.2111 0
M  V30 3619 H 348.086 -3.55175 -4.96672 0
M  V30 3620 H 349.5 -4.8297 -3.08889 0
M  V30 3621 H 347.897 -5.42429 -2.56693 0
M  V30 3622 H 348.967 -4.64652 -1.38659 0
M  V30 3623 N 350.31 0.590341 -1.46126 0
M  V30 3624 C 351.558 1.34616 -1.50742 0
M  V30 3625 C 351.879 1.94363 -0.157486 0
M  V30 3626 O 351.149 1.78136 0.815136 0
M  V30 3627 H 349.729 0.499789 -0.555175 0
M  V30 3628 H 352.391 0.691953 -1.82203 0
M  V30 3629 H 351.487 2.15678 -2.25587 0
M  V30 3630 N 351.788 1.33704 0.83433 0
M  V30 3631 C 353.199 1.22813 1.4062 0
M  V30 3632 C 353.55 -0.151107 1.95617 0
M  V30 3633 O 352.675 -1.05092 1.89168 0
M  V30 3634 C 353.27 2.22355 2.55624 0
M  V30 3635 C 351.829 2.1529 3.08751 0
M  V30 3636 C 350.976 2.09589 1.8157 0
M  V30 3637 H 353.927 1.45236 0.639702 0
M  V30 3638 H 353.948 1.83391 3.33389 0
M  V30 3639 H 353.46 3.22728 2.15566 0
M  V30 3640 H 351.561 1.18235 3.53343 0
M  V30 3641 H 351.674 3.06038 3.68616 0
M  V30 3642 H 350.038 1.55134 2.02004 0
M  V30 3643 H 350.821 3.11777 1.43701 0
M  V30 3644 N 353.266 -1.05314 1.17247 0
M  V30 3645 C 354.196 -2.1498 0.911362 0
M  V30 3646 C 355.177 -1.69471 -0.146169 0
M  V30 3647 O 356.362 -1.942 0.003812 0
M  V30 3648 C 353.492 -3.4472 0.422528 0
M  V30 3649 C 352.446 -4.03789 1.4191 0
M  V30 3650 C 351.772 -5.28858 0.788274 0
M  V30 3651 C 353.072 -4.41418 2.7919 0
M  V30 3652 H 354.766 -2.3708 1.82848 0
M  V30 3653 H 352.312 -1.13938 0.880569 0
M  V30 3654 H 354.265 -4.20787 0.227289 0
M  V30 3655 H 352.989 -3.22269 -0.530123 0
M  V30 3656 H 351.648 -3.2979 1.60106 0
M  V30 3657 H 351.296 -5.02709 -0.171173 0
M  V30 3658 H 350.996 -5.69338 1.45353 0
M  V30 3659 H 352.52 -6.07612 0.603282 0
M  V30 3660 H 353.934 -5.08524 2.64719 0
M  V30 3661 H 352.331 -4.92913 3.42282 0
M  V30 3662 H 353.401 -3.51819 3.33693 0
M  V30 3663 N 354.744 -0.972509 -1.24016 0
M  V30 3664 C 355.992 -0.635776 -1.91839 0
M  V30 3665 C 356.313 0.832312 -1.76345 0
M  V30 3666 O 355.583 1.5946 -1.13795 0
M  V30 3667 H 354.163 -0.232157 -0.710009 0
M  V30 3668 H 356.825 -1.23462 -1.50809 0
M  V30 3669 H 355.921 -0.880545 -2.99421 0
M  V30 3670 N 356.222 1.38976 -0.743202 0
M  V30 3671 C 357.447 2.05161 -0.303936 0
M  V30 3672 C 357.872 1.55677 1.05576 0
M  V30 3673 O 357.23 0.704131 1.67068 0
M  V30 3674 C 357.278 3.59138 -0.324373 0
M  V30 3675 O 356.382 4.06668 0.685204 0
M  V30 3676 H 355.723 0.649815 -0.136518 0
M  V30 3677 H 358.253 1.77852 -1.01142 0
M  V30 3678 H 358.263 4.07639 -0.171618 0
M  V30 3679 H 356.938 3.94515 -1.31647 0
M  V30 3680 H 355.515 3.69561 0.497913 0
M  V30 3681 N 357.7 0.491464 1.49741 0
M  V30 3682 C 358.948 -0.0563141 2.02022 0
M  V30 3683 C 359.269 -1.38363 1.37407 0
M  V30 3684 O 358.539 -1.88702 0.526166 0
M  V30 3685 H 357.119 -0.0238014 0.746621 0
M  V30 3686 H 359.781 0.646533 1.83864 0
M  V30 3687 H 358.877 -0.192967 3.11503 0
M  V30 3688 N 359.178 -1.55987 0.224894 0
M  V30 3689 C 360.426 -1.97998 -0.405099 0
M  V30 3690 C 360.747 -1.11387 -1.60056 0
M  V30 3691 O 360.017 -0.191645 -1.9496 0
M  V30 3692 H 358.597 -0.731235 -0.152658 0
M  V30 3693 H 361.259 -1.92279 0.318567 0
M  V30 3694 H 360.355 -3.03463 -0.729167 0
M  V30 3695 N 360.656 0.0484629 -1.57525 0
M  V30 3696 C 361.903 0.743125 -1.88372 0
M  V30 3697 C 362.231 1.76383 -0.819715 0
M  V30 3698 O 361.486 1.94855 0.181659 0
M  V30 3699 C 361.785 1.46632 -3.25935 0
M  V30 3700 C 361.451 0.583427 -4.4711 0
M  V30 3701 C 360.113 0.340191 -4.79996 0
M  V30 3702 C 362.465 -0.0273345 -5.21193 0
M  V30 3703 C 359.793 -0.522903 -5.84365 0
M  V30 3704 C 362.145 -0.878017 -6.26477 0
M  V30 3705 C 360.809 -1.1309 -6.5785 0
M  V30 3706 H 360.079 0.271929 -0.689301 0
M  V30 3707 H 362.726 0.00336166 -1.915 0
M  V30 3708 H 361.031 2.2789 -3.18706 0
M  V30 3709 H 362.728 2.00902 -3.47044 0
M  V30 3710 H 359.318 0.783151 -4.21384 0
M  V30 3711 H 363.502 0.147654 -4.9608 0
M  V30 3712 H 358.758 -0.727335 -6.07058 0
M  V30 3713 H 362.932 -1.35789 -6.83033 0
M  V30 3714 H 360.559 -1.80144 -7.38547 0
M  V30 3715 N 362.134 1.5431 0.320358 0
M  V30 3716 C 363.38 1.72924 1.05949 0
M  V30 3717 C 363.713 0.503185 1.87568 0
M  V30 3718 O 362.988 -0.499839 1.87968 0
M  V30 3719 C 363.271 3.00676 1.98156 0
M  V30 3720 C 363.124 4.3354 1.19845 0
M  V30 3721 C 364.443 3.24198 2.9763 0
M  V30 3722 H 361.562 0.629195 0.383774 0
M  V30 3723 H 364.204 1.87008 0.335854 0
M  V30 3724 H 362.354 2.888 2.59859 0
M  V30 3725 H 364.026 4.57305 0.605773 0
M  V30 3726 H 362.269 4.309 0.500784 0
M  V30 3727 H 362.94 5.19156 1.87567 0
M  V30 3728 H 365.416 3.35557 2.4605 0
M  V30 3729 H 364.292 4.14938 3.59329 0
M  V30 3730 H 364.553 2.41577 3.7026 0
M  V30 3731 N 363.613 -0.582584 1.46437 0
M  V30 3732 C 365.024 -1.1647 1.45916 0
M  V30 3733 C 365.375 -1.95177 0.200077 0
M  V30 3734 O 364.5 -2.04874 -0.696819 0
M  V30 3735 C 365.095 -2.11885 2.64367 0
M  V30 3736 C 363.654 -2.65421 2.66887 0
M  V30 3737 C 362.801 -1.41294 2.38603 0
M  V30 3738 H 365.752 -0.370514 1.54314 0
M  V30 3739 H 365.773 -2.9535 2.39892 0
M  V30 3740 H 365.285 -1.54573 3.5599 0
M  V30 3741 H 363.386 -3.26602 1.79338 0
M  V30 3742 H 363.499 -3.08147 3.66854 0
M  V30 3743 H 361.863 -1.71109 1.88663 0
M  V30 3744 H 362.646 -0.858125 3.32402 0
M  V30 3745 N 365.091 -1.34144 -0.827227 0
M  V30 3746 C 366.338 -1.26258 -1.58319 0
M  V30 3747 C 366.666 0.168595 -1.93768 0
M  V30 3748 O 365.921 1.12877 -1.59866 0
M  V30 3749 C 366.22 -2.09464 -2.89585 0
M  V30 3750 C 365.886 -3.58521 -2.73448 0
M  V30 3751 C 364.548 -3.99155 -2.68754 0
M  V30 3752 C 366.9 -4.53189 -2.57428 0
M  V30 3753 C 364.228 -5.32656 -2.45957 0
M  V30 3754 C 366.58 -5.86864 -2.36163 0
M  V30 3755 C 365.244 -6.26667 -2.29879 0
M  V30 3756 H 364.514 -0.462013 -0.579332 0
M  V30 3757 H 367.161 -1.65845 -0.95748 0
M  V30 3758 H 365.466 -1.62692 -3.56425 0
M  V30 3759 H 367.163 -2.00712 -3.47154 0
M  V30 3760 H 363.753 -3.26264 -2.77939 0
M  V30 3761 H 367.937 -4.22696 -2.60081 0
M  V30 3762 H 363.193 -5.62519 -2.39546 0
M  V30 3763 H 367.367 -6.59813 -2.22754 0
M  V30 3764 H 364.994 -7.30049 -2.11975 0
M  V30 3765 N 366.569 1.04691 -1.17803 0
M  V30 3766 C 367.817 1.7743 -0.967617 0
M  V30 3767 C 368.138 1.88359 0.504574 0
M  V30 3768 O 367.408 1.40402 1.36617 0
M  V30 3769 H 365.988 0.657242 -0.355024 0
M  V30 3770 H 368.65 1.2638 -1.48371 0
M  V30 3771 H 367.746 2.78924 -1.40027 0
M  V30 3772 N 368.047 0.979072 1.23499 0
M  V30 3773 C 369.294 0.647219 1.91878 0
M  V30 3774 C 369.622 -0.819074 1.76413 0
M  V30 3775 O 368.877 -1.60616 1.11808 0
M  V30 3776 C 369.176 0.981932 3.43646 0
M  V30 3777 C 368.842 2.43822 3.79291 0
M  V30 3778 C 367.504 2.83622 3.88731 0
M  V30 3779 C 369.856 3.3828 3.96505 0
M  V30 3780 C 367.184 4.16897 4.12812 0
M  V30 3781 C 369.536 4.71197 4.22085 0
M  V30 3782 C 368.2 5.10758 4.29747 0
M  V30 3783 H 367.47 0.236834 0.702133 0
M  V30 3784 H 370.117 1.23268 1.46551 0
M  V30 3785 H 368.422 0.314365 3.90537 0
M  V30 3786 H 370.119 0.703395 3.94783 0
M  V30 3787 H 366.709 2.11966 3.72516 0
M  V30 3788 H 370.893 3.0871 3.88603 0
M  V30 3789 H 366.149 4.47157 4.16966 0
M  V30 3790 H 370.323 5.44348 4.34348 0
M  V30 3791 H 367.95 6.1405 4.48159 0
M  V30 3792 N 369.525 -1.3858 0.750561 0
M  V30 3793 C 370.435 -2.34278 0.122825 0
M  V30 3794 C 371.451 -1.59116 -0.704131 0
M  V30 3795 O 372.627 -1.91326 -0.628987 0
M  V30 3796 C 369.692 -3.38221 -0.762086 0
M  V30 3797 C 368.753 -4.29227 0.078896 0
M  V30 3798 C 367.986 -5.28205 -0.763874 0
M  V30 3799 O 368.209 -5.34112 -2.00201 0
M  V30 3800 O 367.143 -6.01618 -0.18428 0
M  V30 3801 H 370.969 -2.89649 0.913088 0
M  V30 3802 H 368.554 -1.40374 0.511417 0
M  V30 3803 H 370.436 -4.01872 -1.26793 0
M  V30 3804 H 369.111 -2.85211 -1.5309 0
M  V30 3805 H 368.018 -3.68747 0.630621 0
M  V30 3806 H 369.351 -4.85484 0.810289 0
M  V30 3807 N 371.003 -0.499398 -1.49478 0
M  V30 3808 C 372.251 0.0455996 -2.02049 0
M  V30 3809 C 372.572 1.37633 -1.38138 0
M  V30 3810 O 371.842 1.8842 -0.536166 0
M  V30 3811 H 370.422 0.0198416 -0.746736 0
M  V30 3812 H 373.084 -0.656274 -1.83519 0
M  V30 3813 H 372.18 0.176445 -3.11601 0
M  V30 3814 N 372.481 1.55866 -0.233164 0
M  V30 3815 C 373.73 1.97779 0.39579 0
M  V30 3816 C 374.043 1.12419 1.60066 0
M  V30 3817 O 375.249 1.44283 2.29988 0
M  V30 3818 C 373.705 3.5188 0.755556 0
M  V30 3819 C 373.313 4.45959 -0.427152 0
M  V30 3820 C 375.057 4.02479 1.34946 0
M  V30 3821 C 372.964 5.91383 -0.0443043 0
M  V30 3822 H 371.894 0.738592 0.15165 0
M  V30 3823 H 374.545 1.80486 -0.331212 0
M  V30 3824 H 372.927 3.64816 1.5403 0
M  V30 3825 H 374.101 4.44776 -1.20462 0
M  V30 3826 H 372.416 4.05765 -0.935068 0
M  V30 3827 H 375.013 5.08637 1.649 0
M  V30 3828 H 375.356 3.49014 2.26925 0
M  V30 3829 H 375.889 3.92813 0.62791 0
M  V30 3830 H 372.628 6.48857 -0.930874 0
M  V30 3831 H 372.148 5.95734 0.697238 0
M  V30 3832 H 373.827 6.45893 0.378334 0
M  V30 3833 N 373.959 -0.0401083 1.57549 0
M  V30 3834 C 374.889 -1.04384 2.08869 0
M  V30 3835 C 375.87 -1.38407 0.988817 0
M  V30 3836 O 377.055 -1.47483 1.26342 0
M  V30 3837 C 374.185 -2.34808 2.55895 0
M  V30 3838 C 373.139 -2.15057 3.70047 0
M  V30 3839 C 372.465 -3.51145 4.03239 0
M  V30 3840 C 373.765 -1.54576 4.98902 0
M  V30 3841 H 375.459 -0.616666 2.92981 0
M  V30 3842 H 373.005 -0.295184 1.40942 0
M  V30 3843 H 374.958 -3.05346 2.90417 0
M  V30 3844 H 373.682 -2.79565 1.68853 0
M  V30 3845 H 372.341 -1.46954 3.35857 0
M  V30 3846 H 371.989 -3.93529 3.13279 0
M  V30 3847 H 371.689 -3.38758 4.80122 0
M  V30 3848 H 373.213 -4.23062 4.40285 0
M  V30 3849 H 374.627 -2.15017 5.31451 0
M  V30 3850 H 373.024 -1.52796 5.80322 0
M  V30 3851 H 374.094 -0.51039 4.82206 0
M  V30 3852 N 375.437 -1.54477 -0.31217 0
M  V30 3853 C 376.853 -1.45442 -0.657185 0
M  V30 3854 C 377.053 -0.63653 -1.91182 0
M  V30 3855 O 376.109 -0.139815 -2.52113 0
M  V30 3856 C 377.422 -2.89287 -0.82058 0
M  V30 3857 C 378.97 -2.9926 -0.917188 0
M  V30 3858 C 379.445 -4.44279 -1.11267 0
M  V30 3859 N 380.936 -4.4794 -1.17914 0
M  V30 3860 C 381.671 -5.57318 -1.34848 0
M  V30 3861 N 381.167 -6.76642 -1.48752 0
M  V30 3862 N 382.96 -5.44986 -1.37647 0
M  V30 3863 H 375.111 -2.06129 0.512313 0
M  V30 3864 H 377.374 -0.933088 0.167485 0
M  V30 3865 H 377.08 -3.51687 0.0302604 0
M  V30 3866 H 376.954 -3.36061 -1.71298 0
M  V30 3867 H 379.341 -2.36981 -1.75852 0
M  V30 3868 H 379.422 -2.558 -0.00101257 0
M  V30 3869 H 379.066 -5.07149 -0.27614 0
M  V30 3870 H 378.996 -4.85359 -2.04289 0
M  V30 3871 H 381.487 -3.61969 -1.08567 0
M  V30 3872 H 381.8 -7.55758 -1.61397 0
M  V30 3873 H 380.145 -6.79529 -1.45828 0
M  V30 3874 H 383.336 -4.50715 -1.26388 0
M  V30 3875 H 383.509 -6.3028 -1.50501 0
M  V30 3876 N 376.915 0.57481 -1.46744 0
M  V30 3877 C 378.163 1.33009 -1.52161 0
M  V30 3878 C 378.484 1.94185 -0.178092 0
M  V30 3879 O 377.754 1.7899 0.796196 0
M  V30 3880 H 376.334 0.493873 -0.560445 0
M  V30 3881 H 378.996 0.672589 -1.82927 0
M  V30 3882 H 378.092 2.13273 -2.27862 0
M  V30 3883 N 378.394 1.34581 0.820102 0
M  V30 3884 C 379.357 1.2628 1.91275 0
M  V30 3885 C 380.357 0.177344 1.59819 0
M  V30 3886 O 381.547 0.430156 1.68806 0
M  V30 3887 C 378.679 0.950327 3.27386 0
M  V30 3888 H 379.872 2.23421 2.00057 0
M  V30 3889 H 377.425 1.1891 1.0144 0
M  V30 3890 H 378.16 -0.0177938 3.24295 0
M  V30 3891 H 377.945 1.73549 3.51601 0
M  V30 3892 H 379.435 0.917492 4.07396 0
M  V30 3893 N 379.872 -1.04064 1.18357 0
M  V30 3894 C 380.835 -2.10243 0.912707 0
M  V30 3895 C 381.835 -1.60477 -0.101928 0
M  V30 3896 O 383.025 -1.73703 0.131517 0
M  V30 3897 C 380.157 -3.38893 0.369387 0
M  V30 3898 H 381.35 -2.35706 1.85426 0
M  V30 3899 H 378.903 -1.20489 0.995594 0
M  V30 3900 H 379.638 -3.19094 -0.578776 0
M  V30 3901 H 379.423 -3.76331 1.1008 0
M  V30 3902 H 380.913 -4.17128 0.198575 0
M  V30 3903 N 381.35 -0.985608 -1.22978 0
M  V30 3904 C 382.578 -0.675582 -1.95559 0
M  V30 3905 C 382.993 0.758413 -1.72897 0
M  V30 3906 O 382.35 1.51094 -1.02357 0
M  V30 3907 C 382.401 -0.96293 -3.48439 0
M  V30 3908 O 382.122 -2.34057 -3.70336 0
M  V30 3909 C 383.623 -0.669585 -4.38214 0
M  V30 3910 H 380.843 -0.250523 -0.622478 0
M  V30 3911 H 383.387 -1.3184 -1.56328 0
M  V30 3912 H 381.542 -0.366033 -3.85667 0
M  V30 3913 H 381.956 -2.43424 -4.64591 0
M  V30 3914 H 383.43 -0.920967 -5.44263 0
M  V30 3915 H 383.907 0.396383 -4.37408 0
M  V30 3916 H 384.513 -1.2472 -4.06602 0
M  V30 3917 N 382.828 1.3818 -0.7579 0
M  V30 3918 C 384.068 2.01864 -0.320968 0
M  V30 3919 C 384.432 1.58863 1.07827 0
M  V30 3920 O 385.633 2.14908 1.61456 0
M  V30 3921 C 383.904 3.54626 -0.44446 0
M  V30 3922 S 385.463 4.38706 -0.0907467 0
M  V30 3923 H 382.281 0.700056 -0.124268 0
M  V30 3924 H 384.883 1.68611 -0.989468 0
M  V30 3925 H 383.587 3.83411 -1.4637 0
M  V30 3926 H 383.118 3.92661 0.241073 0
M  V30 3927 H 385.133 4.83435 1.11826 0
M  V30 3928 N 384.306 0.507319 1.49211 0
M  V30 3929 C 385.553 -0.0349529 2.0247 0
M  V30 3930 C 385.881 -1.36409 1.38647 0
M  V30 3931 O 385.136 -1.88841 0.513566 0
M  V30 3932 C 385.435 -0.229513 3.56662 0
M  V30 3933 C 385.101 1.02241 4.39156 0
M  V30 3934 C 383.763 1.36557 4.61417 0
M  V30 3935 C 386.115 1.85428 4.871 0
M  V30 3936 C 383.443 2.53999 5.28868 0
M  V30 3937 C 385.795 3.02028 5.55843 0
M  V30 3938 C 384.459 3.36717 5.76349 0
M  V30 3939 H 383.729 -0.0127902 0.74089 0
M  V30 3940 H 386.376 0.668756 1.79443 0
M  V30 3941 H 384.681 -1.0158 3.78403 0
M  V30 3942 H 386.378 -0.663641 3.9547 0
M  V30 3943 H 382.968 0.745124 4.22073 0
M  V30 3944 H 387.152 1.6023 4.69723 0
M  V30 3945 H 382.408 2.81105 5.42946 0
M  V30 3946 H 386.582 3.66808 5.91967 0
M  V30 3947 H 384.209 4.27821 6.28389 0
M  V30 3948 N 385.784 -1.5574 0.241426 0
M  V30 3949 C 387.014 -2.02913 -0.38857 0
M  V30 3950 C 387.422 -1.12014 -1.52478 0
M  V30 3951 O 386.765 -0.125903 -1.83268 0
M  V30 3952 C 386.827 -3.4636 -0.963075 0
M  V30 3953 C 386.491 -4.56982 0.0401916 0
M  V30 3954 C 387.488 -5.12941 0.847766 0
M  V30 3955 C 385.173 -5.0203 0.164699 0
M  V30 3956 C 387.167 -6.12437 1.76636 0
M  V30 3957 C 384.854 -6.01358 1.0868 0
M  V30 3958 C 385.852 -6.5644 1.88616 0
M  V30 3959 O 385.54 -7.53831 2.79273 0
M  V30 3960 H 385.272 -0.668983 -0.0971452 0
M  V30 3961 H 387.826 -2.02198 0.361248 0
M  V30 3962 H 386.056 -3.44206 -1.76235 0
M  V30 3963 H 387.745 -3.77065 -1.50257 0
M  V30 3964 H 388.511 -4.78974 0.762133 0
M  V30 3965 H 384.39 -4.58824 -0.447411 0
M  V30 3966 H 387.934 -6.55355 2.39071 0
M  V30 3967 H 383.831 -6.34746 1.17338 0
M  V30 3968 H 384.599 -7.71428 2.73572 0
M  V30 3969 N 387.262 0.0317525 -1.57568 0
M  V30 3970 C 388.225 1.01783 -2.0536 0
M  V30 3971 C 389.225 1.29203 -0.957253 0
M  V30 3972 O 390.415 1.24251 -1.22095 0
M  V30 3973 C 387.547 2.35137 -2.46827 0
M  V30 3974 H 388.74 0.605062 -2.93733 0
M  V30 3975 H 386.293 0.278514 -1.53799 0
M  V30 3976 H 387.028 2.81168 -1.61602 0
M  V30 3977 H 386.813 2.16566 -3.26866 0
M  V30 3978 H 388.303 3.05938 -2.84239 0
M  V30 3979 N 388.74 1.54641 0.303973 0
M  V30 3980 C 389.987 1.7378 1.03955 0
M  V30 3981 C 390.315 0.521986 1.87365 0
M  V30 3982 O 389.57 -0.496099 1.89308 0
M  V30 3983 C 389.869 2.97753 1.97681 0
M  V30 3984 C 389.535 4.31671 1.30271 0
M  V30 3985 C 388.197 4.68075 1.11619 0
M  V30 3986 C 390.549 5.147 0.82055 0
M  V30 3987 C 387.877 5.8509 0.434304 0
M  V30 3988 C 390.229 6.32416 0.152395 0
M  V30 3989 C 388.893 6.67484 -0.0461067 0
M  V30 3990 H 388.163 0.635908 0.380398 0
M  V30 3991 H 390.81 1.88896 0.314718 0
M  V30 3992 H 389.115 2.77406 2.76682 0
M  V30 3993 H 390.812 3.09756 2.54661 0
M  V30 3994 H 387.402 4.03041 1.45795 0
M  V30 3995 H 391.586 4.87077 0.952374 0
M  V30 3996 H 386.842 6.10806 0.269495 0
M  V30 3997 H 391.016 6.96023 -0.229126 0
M  V30 3998 H 388.643 7.58011 -0.576494 0
M  V30 3999 N 390.218 -0.567019 1.47046 0
M  V30 4000 C 391.464 -1.32658 1.53394 0
M  V30 4001 C 391.797 -1.93254 0.19148 0
M  V30 4002 O 391.072 -1.77338 -0.798844 0
M  V30 4003 C 391.355 -2.44412 2.64452 0
M  V30 4004 C 391.208 -1.88749 4.08282 0
M  V30 4005 C 392.527 -3.46387 2.71485 0
M  V30 4006 H 389.646 -0.48098 0.558415 0
M  V30 4007 H 392.288 -0.635481 1.79058 0
M  V30 4008 H 390.438 -3.03363 2.427 0
M  V30 4009 H 392.11 -1.34134 4.41368 0
M  V30 4010 H 390.353 -1.19481 4.17021 0
M  V30 4011 H 391.024 -2.69491 4.81745 0
M  V30 4012 H 393.5 -2.9734 2.91081 0
M  V30 4013 H 392.376 -4.2202 3.50985 0
M  V30 4014 H 392.637 -4.04616 1.78153 0
M  V30 4015 N 391.696 -1.35014 -0.812953 0
M  V30 4016 C 392.944 -1.27678 -1.56661 0
M  V30 4017 C 393.265 0.150359 -1.94419 0
M  V30 4018 O 392.535 1.08532 -1.63088 0
M  V30 4019 H 391.115 -0.469602 -0.580933 0
M  V30 4020 H 393.777 -1.69043 -0.970076 0
M  V30 4021 H 392.873 -1.88833 -2.48492 0
M  V30 4022 N 393.175 1.03435 -1.18907 0
M  V30 4023 C 394.422 1.76743 -0.988334 0
M  V30 4024 C 394.75 1.88447 0.481441 0
M  V30 4025 O 394.005 1.39383 1.37371 0
M  V30 4026 C 394.304 3.19792 -1.59586 0
M  V30 4027 C 393.97 3.28108 -3.09283 0
M  V30 4028 C 392.632 3.30084 -3.5014 0
M  V30 4029 C 394.984 3.27696 -4.05296 0
M  V30 4030 C 392.312 3.29299 -4.85571 0
M  V30 4031 C 394.664 3.28451 -5.4065 0
M  V30 4032 C 393.328 3.28723 -5.80946 0
M  V30 4033 H 392.598 0.64675 -0.361657 0
M  V30 4034 H 395.245 1.21442 -1.48068 0
M  V30 4035 H 393.55 3.78136 -1.02568 0
M  V30 4036 H 395.247 3.75171 -1.41589 0
M  V30 4037 H 391.837 3.27294 -2.76725 0
M  V30 4038 H 396.021 3.25354 -3.74778 0
M  V30 4039 H 391.277 3.2783 -5.16079 0
M  V30 4040 H 395.451 3.27082 -6.14809 0
M  V30 4041 H 393.078 3.27868 -6.85862 0
M  V30 4042 N 394.653 0.992116 1.22453 0
M  V30 4043 C 395.93 0.583508 1.86694 0
M  V30 4044 C 396.31 -0.9392 1.89056 0
M  V30 4045 O 395.658 -1.82081 1.38053 0
M  V30 4046 C 395.868 1.20304 3.2761 0
M  V30 4047 C 397.216 1.30308 4.0411 0
M  V30 4048 O 398.24 1.15737 3.36873 0
M  V30 4049 O 397.099 1.53615 5.24466 0
M  V30 4050 H 394.193 0.198129 0.802916 0
M  V30 4051 H 396.739 1.08794 1.30238 0
M  V30 4052 H 395.511 2.24461 3.2052 0
M  V30 4053 H 395.134 0.684144 3.9167 0
M  V30 4054 N 396.131 -1.37776 0.765217 0
M  V30 4055 C 397.371 -2.01691 0.331669 0
M  V30 4056 C 397.735 -1.59432 -1.06983 0
M  V30 4057 O 398.936 -2.15761 -1.60314 0
M  V30 4058 C 397.207 -3.54385 0.463261 0
M  V30 4059 S 398.766 -4.38652 0.114011 0
M  V30 4060 H 395.584 -0.699387 0.127979 0
M  V30 4061 H 398.186 -1.68084 0.998396 0
M  V30 4062 H 396.89 -3.82629 1.48401 0
M  V30 4063 H 396.421 -3.92783 -0.220246 0
M  V30 4064 H 398.436 -4.84021 -1.09261 0
M  V30 4065 N 397.609 -0.515225 -1.4894 0
M  V30 4066 C 398.858 0.0261361 -2.01683 0
M  V30 4067 C 399.171 1.36719 -1.39883 0
M  V30 4068 O 400.377 1.99606 -1.84037 0
M  V30 4069 C 398.833 0.0970111 -3.59769 0
M  V30 4070 C 398.441 -1.23825 -4.30548 0
M  V30 4071 C 400.185 0.587981 -4.20408 0
M  V30 4072 C 398.092 -1.12877 -5.80528 0
M  V30 4073 H 397.022 0.0135398 -0.753878 0
M  V30 4074 H 399.673 -0.656787 -1.71343 0
M  V30 4075 H 398.055 0.844694 -3.86886 0
M  V30 4076 H 399.229 -2.00034 -4.15118 0
M  V30 4077 H 397.544 -1.66379 -3.81716 0
M  V30 4078 H 400.141 0.68763 -5.3026 0
M  V30 4079 H 400.484 1.59026 -3.84729 0
M  V30 4080 H 401.017 -0.103582 -3.97665 0
M  V30 4081 H 397.756 -2.10575 -6.20756 0
M  V30 4082 H 397.276 -0.407799 -5.98412 0
M  V30 4083 H 398.955 -0.813332 -6.41868 0
M  V30 4084 N 399.087 1.5561 -0.249682 0
M  V30 4085 C 400.05 2.20217 0.635394 0
M  V30 4086 C 401.05 1.17227 1.10066 0
M  V30 4087 O 402.24 1.42292 1.00492 0
M  V30 4088 C 399.372 2.84794 1.87363 0
M  V30 4089 H 400.565 2.99814 0.0716752 0
M  V30 4090 H 398.118 1.563 -0.000153234 0
M  V30 4091 H 398.853 2.09142 2.47851 0
M  V30 4092 H 398.638 3.60241 1.5482 0
M  V30 4093 H 400.128 3.3423 2.5036 0
M  V30 4094 N 400.565 -0.0233959 1.57583 0
M  V30 4095 C 401.793 -0.724682 1.93794 0
M  V30 4096 C 402.208 -1.68588 0.849912 0
M  V30 4097 O 401.565 -1.81676 -0.173204 0
M  V30 4098 C 401.616 -1.47684 3.29957 0
M  V30 4099 O 401.337 -0.554222 4.3458 0
M  V30 4100 C 402.838 -2.27477 3.80485 0
M  V30 4101 H 400.058 -0.203317 0.639455 0
M  V30 4102 H 402.602 0.0207653 2.04489 0
M  V30 4103 H 400.757 -2.17412 3.20641 0
M  V30 4104 H 401.171 -1.08232 5.13212 0
M  V30 4105 H 402.645 -2.7564 4.78254 0
M  V30 4106 H 403.122 -3.09144 3.11972 0
M  V30 4107 H 403.728 -1.62813 3.92902 0
M  V30 4108 N 402.043 -1.548 -0.295768 0
M  V30 4109 C 403.271 -1.78327 -1.04914 0
M  V30 4110 C 403.686 -0.545316 -1.80753 0
M  V30 4111 O 403.043 0.485013 -1.75937 0
M  V30 4112 C 403.094 -2.99418 -2.02561 0
M  V30 4113 O 402.815 -4.18431 -1.29798 0
M  V30 4114 C 404.316 -3.35375 -2.89895 0
M  V30 4115 H 401.536 -0.594618 -0.310918 0
M  V30 4116 H 404.08 -2.01763 -0.333454 0
M  V30 4117 H 402.235 -2.78175 -2.69624 0
M  V30 4118 H 402.649 -4.86736 -1.95419 0
M  V30 4119 H 404.123 -4.23332 -3.54251 0
M  V30 4120 H 404.6 -2.53761 -3.58472 0
M  V30 4121 H 405.206 -3.58796 -2.28355 0
M  V30 4122 N 403.521 0.559213 -1.47345 0
M  V30 4123 C 404.769 1.31388 -1.53563 0
M  V30 4124 C 405.09 1.93985 -0.198678 0
M  V30 4125 O 404.36 1.79825 0.777167 0
M  V30 4126 H 402.94 0.487901 -0.565652 0
M  V30 4127 H 405.602 0.65315 -1.8363 0
M  V30 4128 H 404.698 2.10844 -2.30111 0
M  V30 4129 N 404.999 1.35443 0.805782 0
M  V30 4130 C 405.909 1.30546 1.94923 0
M  V30 4131 C 406.925 0.210233 1.72725 0
M  V30 4132 O 408.101 0.43975 1.9654 0
M  V30 4133 C 405.166 1.07782 3.29521 0
M  V30 4134 C 404.227 2.26625 3.64609 0
M  V30 4135 C 403.46 2.04938 4.92784 0
M  V30 4136 O 403.683 1.01624 5.61274 0
M  V30 4137 O 402.617 2.9232 5.26149 0
M  V30 4138 H 406.443 2.26779 2.02002 0
M  V30 4139 H 404.028 1.15823 0.943682 0
M  V30 4140 H 405.91 0.969392 4.10098 0
M  V30 4141 H 404.585 0.146003 3.23371 0
M  V30 4142 H 403.492 2.43033 2.84404 0
M  V30 4143 H 404.825 3.18257 3.75464 0
M  V30 4144 N 406.477 -1.02803 1.19454 0
M  V30 4145 C 407.387 -2.14575 0.948408 0
M  V30 4146 C 408.403 -1.73757 -0.091871 0
M  V30 4147 O 409.579 -2.01185 0.0929654 0
M  V30 4148 C 406.644 -3.43202 0.491265 0
M  V30 4149 C 405.705 -3.98328 1.60103 0
M  V30 4150 C 404.938 -5.20816 1.16561 0
M  V30 4151 O 405.161 -5.70392 0.0295238 0
M  V30 4152 O 404.095 -5.68801 1.96849 0
M  V30 4153 H 407.921 -2.38202 1.88397 0
M  V30 4154 H 405.506 -1.12989 0.977433 0
M  V30 4155 H 407.388 -4.20687 0.245015 0
M  V30 4156 H 406.063 -3.21018 -0.415851 0
M  V30 4157 H 404.97 -3.22174 1.90144 0
M  V30 4158 H 406.303 -4.24879 2.48473 0
M  V30 4159 N 407.956 -0.998596 -1.21925 0
M  V30 4160 C 408.919 -0.558679 -2.22287 0
M  V30 4161 C 409.919 0.361525 -1.56683 0
M  V30 4162 O 411.109 0.152695 -1.73529 0
M  V30 4163 C 408.241 0.18661 -3.40389 0
M  V30 4164 H 409.434 -1.4463 -2.62721 0
M  V30 4165 H 406.987 -0.786413 -1.35075 0
M  V30 4166 H 407.722 1.08996 -3.05435 0
M  V30 4167 H 407.507 -0.474188 -3.89222 0
M  V30 4168 H 408.997 0.482367 -4.14805 0
M  V30 4169 N 409.434 1.37368 -0.772513 0
M  V30 4170 C 410.366 2.28899 -0.117502 0
M  V30 4171 C 411.379 1.4867 0.663405 0
M  V30 4172 O 412.568 1.71314 0.501372 0
M  V30 4173 C 409.668 3.2788 0.857192 0
M  V30 4174 C 408.841 4.37207 0.129938 0
M  V30 4175 C 407.9 5.16257 1.01811 0
M  V30 4176 O 406.926 5.67159 0.481601 0
M  V30 4177 N 408.128 5.31058 2.3443 0
M  V30 4178 H 410.893 2.85752 -0.903662 0
M  V30 4179 H 408.454 1.49353 -0.62493 0
M  V30 4180 H 410.446 3.77647 1.45482 0
M  V30 4181 H 409.016 2.7179 1.54432 0
M  V30 4182 H 408.236 3.88827 -0.648605 0
M  V30 4183 H 409.524 5.07434 -0.372559 0
M  V30 4184 H 408.922 4.91287 2.80452 0
M  V30 4185 H 407.479 5.84131 2.89197 0
M  V30 4186 N 410.912 0.523116 1.48665 0
M  V30 4187 C 411.86 -0.256859 2.31177 0
M  V30 4188 C 412.854 -0.94199 1.40794 0
M  V30 4189 O 414.06 -0.867157 1.57735 0
M  V30 4190 H 410.435 -0.1017 0.745091 0
M  V30 4191 H 412.406 0.458739 2.94853 0
M  V30 4192 C 411.155 -1.29503 3.22683 0
M  V30 4193 H 410.478 -0.777248 3.92172 0
M  V30 4194 H 411.918 -1.81233 3.83315 0
M  V30 4195 C 410.377 -2.32501 2.43813 0
M  V30 4196 O 410.907 -3.3881 2.15803 0
M  V30 4197 N 409.113 -2.05538 2.05432 0
M  V30 4198 H 408.66 -1.19104 2.28412 0
M  V30 4199 H 408.618 -2.74676 1.52973 0
M  V30 4200 N 412.39 -1.55475 0.257931 0
M  V30 4201 C 413.801 -1.8511 -0.243135 0
M  V30 4202 C 414.152 -1.17986 -1.5676 0
M  V30 4203 O 413.277 -0.462102 -2.11409 0
M  V30 4204 C 413.872 -3.35826 -0.447929 0
M  V30 4205 C 412.431 -3.65647 -0.893245 0
M  V30 4206 C 411.578 -2.7729 0.0232965 0
M  V30 4207 H 414.529 -1.51261 0.480199 0
M  V30 4208 H 414.55 -3.58002 -1.28898 0
M  V30 4209 H 414.062 -3.84652 0.516196 0
M  V30 4210 H 412.163 -3.22308 -1.86945 0
M  V30 4211 H 412.276 -4.73312 -0.742469 0
M  V30 4212 H 410.64 -2.49942 -0.490021 0
M  V30 4213 H 411.423 -3.28926 0.982994 0
M  V30 4214 N 413.868 0.0150385 -1.57593 0
M  V30 4215 C 414.8 1.03912 -2.04291 0
M  V30 4216 C 415.813 1.31618 -0.958146 0
M  V30 4217 O 417.002 1.28859 -1.23522 0
M  V30 4218 C 414.102 2.37749 -2.41514 0
M  V30 4219 C 413.275 2.29198 -3.72541 0
M  V30 4220 C 412.334 3.45598 -3.96797 0
M  V30 4221 O 411.36 3.24461 -4.67668 0
M  V30 4222 N 412.562 4.67945 -3.43523 0
M  V30 4223 H 415.327 0.64099 -2.92765 0
M  V30 4224 H 412.888 0.20272 -1.60626 0
M  V30 4225 H 414.88 3.14364 -2.54867 0
M  V30 4226 H 413.45 2.69357 -1.58637 0
M  V30 4227 H 412.67 1.3759 -3.69408 0
M  V30 4228 H 413.958 2.20642 -4.5847 0
M  V30 4229 H 413.356 4.88017 -2.86104 0
M  V30 4230 H 411.913 5.41878 -3.62232 0
M  V30 4231 N 415.346 1.54954 0.287554 0
M  V30 4232 C 416.762 1.46469 0.633964 0
M  V30 4233 C 416.962 0.666865 1.90145 0
M  V30 4234 O 416.018 0.179906 2.51858 0
M  V30 4235 C 417.331 2.90556 0.774454 0
M  V30 4236 C 418.879 3.00681 0.869462 0
M  V30 4237 C 419.354 4.45993 1.04184 0
M  V30 4238 N 420.845 4.4976 1.10772 0
M  V30 4239 C 421.58 5.59393 1.25964 0
M  V30 4240 N 421.076 6.78923 1.37968 0
M  V30 4241 N 422.869 5.47107 1.28959 0
M  V30 4242 H 415.02 2.05288 -0.545041 0
M  V30 4243 H 417.283 0.930305 -0.182308 0
M  V30 4244 H 416.989 3.51594 -0.086207 0
M  V30 4245 H 416.863 3.38743 1.6593 0
M  V30 4246 H 419.25 2.39749 1.7206 0
M  V30 4247 H 419.331 2.55769 -0.0396831 0
M  V30 4248 H 418.975 5.07524 0.195422 0
M  V30 4249 H 418.905 4.88548 1.96542 0
M  V30 4250 H 421.396 3.63651 1.02794 0
M  V30 4251 H 421.709 7.58231 1.49353 0
M  V30 4252 H 420.054 6.81763 1.34999 0
M  V30 4253 H 423.245 4.52668 1.19202 0
M  V30 4254 H 423.418 6.32595 1.40455 0
M  V30 4255 N 416.824 -0.551391 1.4764 0
M  V30 4256 C 418.049 -1.33837 1.58437 0
M  V30 4257 C 418.474 -1.866 0.237063 0
M  V30 4258 O 417.832 -1.6328 -0.787994 0
M  V30 4259 C 417.88 -2.48014 2.61766 0
M  V30 4260 O 416.984 -3.50419 2.1744 0
M  V30 4261 H 416.325 -0.397299 0.532024 0
M  V30 4262 H 418.855 -0.665759 1.93465 0
M  V30 4263 H 418.865 -2.94503 2.82369 0
M  V30 4264 H 417.54 -2.08969 3.5959 0
M  V30 4265 H 416.117 -3.10196 2.06961 0
M  V30 4266 N 418.302 -1.35869 -0.798587 0
M  V30 4267 C 419.551 -1.28921 -1.5512 0
M  V30 4268 C 419.864 0.13208 -1.95154 0
M  V30 4269 O 421.07 0.323879 -2.69561 0
M  V30 4270 C 419.526 -2.26141 -2.79979 0
M  V30 4271 C 419.134 -3.73658 -2.47151 0
M  V30 4272 C 420.878 -2.28152 -3.57976 0
M  V30 4273 C 418.785 -4.62679 -3.6835 0
M  V30 4274 H 417.715 -0.479031 -0.582276 0
M  V30 4275 H 420.366 -1.61179 -0.877125 0
M  V30 4276 H 418.748 -1.86865 -3.49138 0
M  V30 4277 H 419.922 -4.21616 -1.85947 0
M  V30 4278 H 418.237 -3.74333 -1.82383 0
M  V30 4279 H 420.834 -2.91875 -4.4801 0
M  V30 4280 H 421.177 -1.28748 -3.95891 0
M  V30 4281 H 421.71 -2.65998 -2.95787 0
M  V30 4282 H 418.449 -5.63111 -3.35538 0
M  V30 4283 H 417.969 -4.19442 -4.28752 0
M  V30 4284 H 419.648 -4.78498 -4.35487 0
M  V30 4285 N 419.78 1.02168 -1.19998 0
M  V30 4286 C 421.191 1.57135 -1.00825 0
M  V30 4287 C 421.542 1.91276 0.436818 0
M  V30 4288 O 420.667 1.71679 1.3174 0
M  V30 4289 C 421.262 2.85514 -1.82393 0
M  V30 4290 C 419.821 3.37027 -1.67601 0
M  V30 4291 C 418.968 2.10388 -1.80644 0
M  V30 4292 H 421.919 0.846106 -1.34264 0
M  V30 4293 H 421.94 3.56711 -1.32429 0
M  V30 4294 H 421.452 2.60634 -2.87561 0
M  V30 4295 H 419.553 3.66878 -0.650485 0
M  V30 4296 H 419.666 4.09572 -2.4857 0
M  V30 4297 H 418.03 2.22601 -1.23778 0
M  V30 4298 H 418.813 1.8794 -2.87286 0
M  V30 4299 N 421.258 1.00505 1.21394 0
M  V30 4300 C 422.191 0.51032 2.22421 0
M  V30 4301 C 423.169 -0.436 1.56645 0
M  V30 4302 O 424.353 -0.358709 1.85055 0
M  V30 4303 C 421.48 -0.258733 3.3771 0
M  V30 4304 C 420.526 0.635395 4.2174 0
M  V30 4305 S 421.359 2.09783 4.92698 0
M  V30 4306 C 422.515 1.33862 6.11418 0
M  V30 4307 H 422.748 1.36637 2.64041 0
M  V30 4308 H 420.281 0.812991 1.31262 0
M  V30 4309 H 422.239 -0.696372 4.0455 0
M  V30 4310 H 420.9 -1.0902 2.94573 0
M  V30 4311 H 420.093 0.0430189 5.03982 0
M  V30 4312 H 419.695 1.01031 3.60095 0
M  V30 4313 H 421.987 0.612541 6.74725 0
M  V30 4314 H 422.93 2.13675 6.75092 0
M  V30 4315 H 423.338 0.846568 5.58116 0
M  V30 4316 N 422.737 -1.36956 0.779787 0
M  V30 4317 C 423.985 -1.99097 0.347079 0
M  V30 4318 C 424.306 -1.62206 -1.08232 0
M  V30 4319 O 423.576 -0.891373 -1.74446 0
M  V30 4320 H 422.156 -0.736409 0.125342 0
M  V30 4321 H 424.818 -1.67308 0.999696 0
M  V30 4322 H 423.914 -3.09107 0.431162 0
M  V30 4323 N 424.215 -0.530993 -1.48385 0
M  V30 4324 C 425.464 0.00474348 -2.01699 0
M  V30 4325 C 425.777 1.35227 -1.41325 0
M  V30 4326 O 426.983 1.97643 -1.86144 0
M  V30 4327 C 425.439 0.0588473 -3.59852 0
M  V30 4328 C 425.047 -1.28385 -4.2921 0
M  V30 4329 C 426.791 0.543358 -4.21008 0
M  V30 4330 C 424.698 -1.19028 -5.79298 0
M  V30 4331 H 423.628 0.00554317 -0.75398 0
M  V30 4332 H 426.279 -0.674924 -1.70637 0
M  V30 4333 H 424.661 0.803612 -3.8776 0
M  V30 4334 H 425.835 -2.04426 -4.12973 0
M  V30 4335 H 424.15 -1.70418 -3.7993 0
M  V30 4336 H 426.747 0.631351 -5.3096 0
M  V30 4337 H 427.09 1.54937 -3.86394 0
M  V30 4338 H 427.623 -0.145754 -3.97533 0
M  V30 4339 H 424.362 -2.17147 -6.18488 0
M  V30 4340 H 423.882 -0.471246 -5.97946 0
M  V30 4341 H 425.561 -0.881365 -6.40969 0
M  V30 4342 N 425.693 1.55336 -0.266172 0
M  V30 4343 C 426.939 1.99692 0.353681 0
M  V30 4344 C 427.272 1.1543 1.56172 0
M  V30 4345 O 426.547 0.222218 1.93226 0
M  V30 4346 C 426.83 3.52316 0.74466 0
M  V30 4347 C 426.683 4.47337 -0.470101 0
M  V30 4348 C 428.002 4.10588 1.58447 0
M  V30 4349 H 425.121 0.725961 0.12708 0
M  V30 4350 H 427.763 1.86336 -0.371333 0
M  V30 4351 H 425.913 3.63829 1.36239 0
M  V30 4352 H 427.585 4.4778 -1.10864 0
M  V30 4353 H 425.828 4.19364 -1.10978 0
M  V30 4354 H 426.499 5.51788 -0.15291 0
M  V30 4355 H 428.975 4.02297 1.06286 0
M  V30 4356 H 427.851 5.17607 1.82686 0
M  V30 4357 H 428.112 3.60253 2.56262 0
M  V30 4358 N 427.171 -0.0066808 1.57599 0
M  V30 4359 C 428.42 -0.692078 1.89455 0
M  V30 4360 C 428.733 -1.75306 0.867586 0
M  V30 4361 O 429.939 -2.49262 1.07614 0
M  V30 4362 C 428.395 -1.2821 3.36289 0
M  V30 4363 C 428.003 -0.256291 4.47266 0
M  V30 4364 C 429.747 -1.94608 3.77264 0
M  V30 4365 C 427.654 -0.855927 5.85173 0
M  V30 4366 H 426.584 -0.262252 0.706923 0
M  V30 4367 H 429.235 0.052769 1.83424 0
M  V30 4368 H 427.617 -2.0774 3.37135 0
M  V30 4369 H 428.791 0.513923 4.57925 0
M  V30 4370 H 427.106 0.306862 4.15268 0
M  V30 4371 H 429.703 -2.40364 4.77629 0
M  V30 4372 H 430.046 -2.77382 3.10427 0
M  V30 4373 H 430.579 -1.21822 3.78688 0
M  V30 4374 H 427.318 -0.0671161 6.55466 0
M  V30 4375 H 426.838 -1.59546 5.78191 0
M  V30 4376 H 428.517 -1.35658 6.32618 0
M  V30 4377 N 428.649 -1.55105 -0.279332 0
M  V30 4378 C 429.874 -1.7976 -1.03446 0
M  V30 4379 C 430.299 -0.565952 -1.79384 0
M  V30 4380 O 429.657 0.484259 -1.74713 0
M  V30 4381 C 429.705 -3.0179 -1.97371 0
M  V30 4382 O 428.809 -2.76432 -3.06038 0
M  V30 4383 H 428.15 -0.594334 -0.29608 0
M  V30 4384 H 430.68 -2.02235 -0.310165 0
M  V30 4385 H 430.69 -3.30351 -2.39441 0
M  V30 4386 H 429.365 -3.91085 -1.4151 0
M  V30 4387 H 427.942 -2.58949 -2.68328 0
M  V30 4388 N 430.127 0.543554 -1.4793 0
M  V30 4389 C 431.057 1.65888 -1.64327 0
M  V30 4390 C 432.038 1.62818 -0.492383 0
M  V30 4391 O 433.223 1.80226 -0.723338 0
M  V30 4392 C 430.353 3.04506 -1.67013 0
M  V30 4393 C 429.307 3.2243 -2.81466 0
M  V30 4394 C 428.633 4.61972 -2.69233 0
M  V30 4395 C 429.933 3.06496 -4.22915 0
M  V30 4396 H 431.627 1.52421 -2.57698 0
M  V30 4397 H 429.173 0.731849 -1.24016 0
M  V30 4398 H 431.126 3.82391 -1.77074 0
M  V30 4399 H 429.85 3.18964 -0.70212 0
M  V30 4400 H 428.509 2.46957 -2.70938 0
M  V30 4401 H 428.157 4.73247 -1.7043 0
M  V30 4402 H 427.857 4.74911 -3.46025 0
M  V30 4403 H 429.381 5.41974 -2.81242 0
M  V30 4404 H 430.795 3.74186 -4.34348 0
M  V30 4405 H 429.192 3.30938 -5.006 0
M  V30 4406 H 430.262 2.03077 -4.40327 0
M  V30 4407 N 431.605 1.3629 0.791371 0
M  V30 4408 C 432.83 1.33726 1.58531 0
M  V30 4409 C 433.255 -0.0794933 1.87932 0
M  V30 4410 O 432.613 -1.05087 1.47738 0
M  V30 4411 C 432.661 2.16425 2.88431 0
M  V30 4412 O 431.765 1.5554 3.81944 0
M  V30 4413 H 431.106 0.457793 0.480959 0
M  V30 4414 H 433.636 1.79547 0.981031 0
M  V30 4415 H 433.646 2.28933 3.37718 0
M  V30 4416 H 432.321 3.19415 2.66359 0
M  V30 4417 H 430.898 1.51961 3.40532 0
M  V30 4418 N 433.083 -1.0153 1.20538 0
M  V30 4419 C 434.329 -1.75408 1.01783 0
M  V30 4420 C 434.662 -1.88943 -0.448814 0
M  V30 4421 O 433.937 -1.4162 -1.33319 0
M  V30 4422 C 434.22 -3.17255 1.70356 0
M  V30 4423 C 434.073 -3.11508 3.24473 0
M  V30 4424 C 435.392 -4.15955 1.43769 0
M  V30 4425 H 432.511 -0.636713 0.371167 0
M  V30 4426 H 435.153 -1.18436 1.4857 0
M  V30 4427 H 433.303 -3.65898 1.30578 0
M  V30 4428 H 434.975 -2.70658 3.73553 0
M  V30 4429 H 433.218 -2.4887 3.55311 0
M  V30 4430 H 433.889 -4.11784 3.67611 0
M  V30 4431 H 436.365 -3.75973 1.7828 0
M  V30 4432 H 435.241 -5.13368 1.94279 0
M  V30 4433 H 435.502 -4.40586 0.365564 0
M  V30 4434 N 434.561 -1.01147 -1.20859 0
M  V30 4435 C 435.801 -0.706331 -1.91808 0
M  V30 4436 C 436.165 0.749736 -1.76757 0
M  V30 4437 O 437.366 1.16716 -2.42138 0
M  V30 4438 C 435.637 -1.12371 -3.39275 0
M  V30 4439 S 437.196 -0.939764 -4.28619 0
M  V30 4440 H 434.014 -0.257665 -0.662669 0
M  V30 4441 H 436.616 -1.29766 -1.46223 0
M  V30 4442 H 435.32 -2.17943 -3.47749 0
M  V30 4443 H 434.851 -0.524952 -3.89882 0
M  V30 4444 H 436.866 0.159556 -4.95943 0
M  V30 4445 N 436.039 1.36541 -0.78704 0
M  V30 4446 C 437.286 1.99304 -0.358341 0
M  V30 4447 C 437.614 1.62467 1.06933 0
M  V30 4448 O 436.869 0.870019 1.75297 0
M  V30 4449 C 437.168 3.54343 -0.466485 0
M  V30 4450 C 436.834 4.10993 -1.85461 0
M  V30 4451 C 435.496 4.26177 -2.23443 0
M  V30 4452 C 437.848 4.41895 -2.76366 0
M  V30 4453 C 435.176 4.69573 -3.51736 0
M  V30 4454 C 437.528 4.86722 -4.04084 0
M  V30 4455 C 436.192 5.00112 -4.42091 0
M  V30 4456 H 435.462 0.729306 -0.131126 0
M  V30 4457 H 438.109 1.63068 -1.00404 0
M  V30 4458 H 436.414 3.90918 0.262719 0
M  V30 4459 H 438.111 4.00833 -0.115854 0
M  V30 4460 H 434.701 3.99612 -1.54946 0
M  V30 4461 H 438.885 4.29735 -2.48277 0
M  V30 4462 H 434.141 4.78127 -3.81057 0
M  V30 4463 H 438.315 5.09598 -4.7464 0
M  V30 4464 H 435.942 5.33498 -5.41557 0
M  V30 4465 N 437.518 0.538854 1.48102 0
M  V30 4466 C 438.448 -0.207654 2.32575 0
M  V30 4467 C 439.429 -0.926559 1.4265 0
M  V30 4468 O 440.614 -0.91061 1.71527 0
M  V30 4469 C 437.744 -1.24957 3.24042 0
M  V30 4470 C 436.698 -0.648263 4.23062 0
M  V30 4471 C 436.024 -1.79348 5.03725 0
M  V30 4472 C 437.324 0.385897 5.20872 0
M  V30 4473 H 439.018 0.497534 2.95237 0
M  V30 4474 H 436.564 0.240715 1.41974 0
M  V30 4475 H 438.517 -1.77983 3.81969 0
M  V30 4476 H 437.241 -1.98446 2.59397 0
M  V30 4477 H 435.9 -0.139452 3.66335 0
M  V30 4478 H 435.548 -2.51696 4.35498 0
M  V30 4479 H 435.248 -1.39702 5.70751 0
M  V30 4480 H 436.772 -2.32735 5.64506 0
M  V30 4481 H 438.186 -0.057607 5.73271 0
M  V30 4482 H 436.583 0.700227 5.96001 0
M  V30 4483 H 437.653 1.28848 4.67468 0
M  V30 4484 N 438.996 -1.55193 0.274407 0
M  V30 4485 C 439.959 -2.212 -0.600279 0
M  V30 4486 C 440.959 -1.18963 -1.08187 0
M  V30 4487 O 442.149 -1.43873 -0.982158 0
M  V30 4488 C 439.281 -2.87739 -1.82809 0
M  V30 4489 H 440.474 -2.9989 -0.0239682 0
M  V30 4490 H 438.027 -1.5628 0.0250192 0
M  V30 4491 H 438.762 -2.13058 -2.44493 0
M  V30 4492 H 438.547 -3.62658 -1.49069 0
M  V30 4493 H 440.037 -3.38171 -2.45011 0
M  V30 4494 N 440.474 -0.00167713 -1.576 0
M  V30 4495 C 441.704 0.692754 -1.94639 0
M  V30 4496 C 442.112 1.67744 -0.87513 0
M  V30 4497 O 441.455 1.8305 0.154382 0
M  V30 4498 C 441.517 1.47881 -3.27676 0
M  V30 4499 C 441.181 0.655518 -4.52274 0
M  V30 4500 C 442.178 -0.0575214 -5.19868 0
M  V30 4501 C 439.863 0.600994 -4.98692 0
M  V30 4502 C 441.857 -0.814052 -6.3218 0
M  V30 4503 C 439.544 -0.15926 -6.10892 0
M  V30 4504 C 440.542 -0.865515 -6.77494 0
M  V30 4505 O 440.23 -1.61336 -7.87544 0
M  V30 4506 H 439.962 0.197792 -0.646417 0
M  V30 4507 H 442.516 -0.049423 -2.05341 0
M  V30 4508 H 440.746 2.2655 -3.13388 0
M  V30 4509 H 442.435 2.05874 -3.49816 0
M  V30 4510 H 443.201 -0.0245611 -4.84994 0
M  V30 4511 H 439.08 1.14025 -4.46676 0
M  V30 4512 H 442.624 -1.36584 -6.84098 0
M  V30 4513 H 438.521 -0.194035 -6.45208 0
M  V30 4514 H 439.289 -1.53025 -8.04068 0
M  V30 4515 N 441.952 1.55251 0.271103 0
M  V30 4516 C 443.199 1.75946 1.00245 0
M  V30 4517 C 443.527 0.561611 1.86215 0
M  V30 4518 O 442.782 -0.455832 1.90317 0
M  V30 4519 C 443.081 3.01879 1.91321 0
M  V30 4520 C 442.747 4.34337 1.21086 0
M  V30 4521 C 441.409 4.70338 1.01666 0
M  V30 4522 C 443.761 5.16325 0.71119 0
M  V30 4523 C 441.089 5.8588 0.310099 0
M  V30 4524 C 443.441 6.32597 0.0182157 0
M  V30 4525 C 442.105 6.67236 -0.18768 0
M  V30 4526 H 441.375 0.643833 0.366824 0
M  V30 4527 H 444.022 1.89521 0.27458 0
M  V30 4528 H 442.327 2.83212 2.70736 0
M  V30 4529 H 444.024 3.15088 2.48033 0
M  V30 4530 H 440.614 4.06043 1.37213 0
M  V30 4531 H 444.798 4.88987 0.848844 0
M  V30 4532 H 440.054 6.1124 0.139873 0
M  V30 4533 H 444.228 6.9538 -0.376711 0
M  V30 4534 H 441.855 7.56618 -0.73715 0
M  V30 4535 N 443.43 -0.535701 1.48216 0
M  V30 4536 C 444.393 -1.623 1.61838 0
M  V30 4537 C 445.393 -1.53087 0.492024 0
M  V30 4538 O 446.583 -1.5686 0.757668 0
M  V30 4539 C 443.715 -3.01907 1.58319 0
M  V30 4540 H 444.908 -1.51564 2.58783 0
M  V30 4541 H 442.461 -0.757317 1.36727 0
M  V30 4542 H 443.196 -3.18155 0.628299 0
M  V30 4543 H 442.981 -3.10003 2.40085 0
M  V30 4544 H 444.471 -3.80969 1.71033 0
M  V30 4545 N 444.908 -1.36708 -0.784132 0
M  V30 4546 C 446.154 -1.31426 -1.54451 0
M  V30 4547 C 446.487 0.10476 -1.93917 0
M  V30 4548 O 445.762 1.05934 -1.6312 0
M  V30 4549 C 446.045 -2.24189 -2.818 0
M  V30 4550 C 445.898 -3.74813 -2.48667 0
M  V30 4551 C 447.217 -2.15626 -3.83658 0
M  V30 4552 H 444.336 -0.478739 -0.560337 0
M  V30 4553 H 446.978 -1.67305 -0.900498 0
M  V30 4554 H 445.128 -1.93722 -3.36755 0
M  V30 4555 H 446.8 -4.15823 -1.99722 0
M  V30 4556 H 445.043 -3.93989 -1.81535 0
M  V30 4557 H 445.714 -4.35138 -3.39646 0
M  V30 4558 H 448.19 -2.42456 -3.38163 0
M  V30 4559 H 447.066 -2.82694 -4.70506 0
M  V30 4560 H 447.327 -1.14522 -4.27009 0
M  V30 4561 N 446.386 1.0089 -1.21074 0
M  V30 4562 C 447.611 1.78727 -1.05221 0
M  V30 4563 C 448.036 1.83932 0.393795 0
M  V30 4564 O 447.394 1.28004 1.28393 0
M  V30 4565 C 447.442 3.20665 -1.64944 0
M  V30 4566 O 446.546 4.02632 -0.892273 0
M  V30 4567 H 445.887 0.550973 -0.370574 0
M  V30 4568 H 448.417 1.26847 -1.60534 0
M  V30 4569 H 448.427 3.71352 -1.69002 0
M  V30 4570 H 447.102 3.16191 -2.70177 0
M  V30 4571 H 445.679 3.61207 -0.926492 0
M  V30 4572 N 447.864 1.01787 1.20321 0
M  V30 4573 C 449.089 0.727009 1.9424 0
M  V30 4574 C 449.514 -0.706179 1.74341 0
M  V30 4575 O 448.872 -1.48609 1.03852 0
M  V30 4576 C 448.92 1.06958 3.44372 0
M  V30 4577 O 448.024 0.181983 4.11998 0
M  V30 4578 H 447.365 0.269626 0.606793 0
M  V30 4579 H 449.895 1.36158 1.52716 0
M  V30 4580 H 449.905 1.02182 3.94997 0
M  V30 4581 H 448.58 2.11378 3.58179 0
M  V30 4582 H 447.157 0.287378 3.71791 0
M  V30 4583 N 449.342 -1.36122 0.79427 0
M  V30 4584 C 450.305 -2.28309 0.201889 0
M  V30 4585 C 451.305 -1.49041 -0.603603 0
M  V30 4586 O 452.495 -1.68964 -0.423888 0
M  V30 4587 C 449.627 -3.3321 -0.719978 0
M  V30 4588 H 450.82 -2.82208 1.01481 0
M  V30 4589 H 448.373 -1.45768 0.564037 0
M  V30 4590 H 449.108 -2.84475 -1.55706 0
M  V30 4591 H 448.893 -3.91835 -0.144266 0
M  V30 4592 H 450.383 -4.02044 -1.12916 0
M  V30 4593 N 450.82 -0.546701 -1.47814 0
M  V30 4594 C 451.75 0.195317 -2.32682 0
M  V30 4595 C 452.731 0.918981 -1.43139 0
M  V30 4596 O 453.916 0.901501 -1.72008 0
M  V30 4597 C 451.046 1.23237 -3.247 0
M  V30 4598 C 450 0.625818 -4.234 0
M  V30 4599 C 449.326 1.76674 -5.04669 0
M  V30 4600 C 450.626 -0.413515 -5.2066 0
M  V30 4601 H 452.32 -0.513184 -2.94969 0
M  V30 4602 H 449.866 -0.248241 -1.41844 0
M  V30 4603 H 451.819 1.75955 -3.82907 0
M  V30 4604 H 450.543 1.97067 -2.60446 0
M  V30 4605 H 449.202 0.120023 -3.66403 0
M  V30 4606 H 448.85 2.49383 -4.36826 0
M  V30 4607 H 448.55 1.36673 -5.71484 0
M  V30 4608 H 450.074 2.29738 -5.65732 0
M  V30 4609 H 451.488 0.0272042 -5.73294 0
M  V30 4610 H 449.885 -0.731825 -5.95621 0
M  V30 4611 H 450.955 -1.31325 -4.66778 0
M  V30 4612 N 452.299 1.55045 -0.282633 0
M  V30 4613 C 453.527 2.04168 0.33512 0
M  V30 4614 C 453.942 1.16071 1.48906 0
M  V30 4615 O 453.299 0.182391 1.81586 0
M  V30 4616 C 453.35 3.52332 0.808957 0
M  V30 4617 O 453.071 4.37078 -0.299038 0
M  V30 4618 C 454.572 4.17375 1.49375 0
M  V30 4619 H 451.792 0.666744 0.0754543 0
M  V30 4620 H 454.336 2.00205 -0.416918 0
M  V30 4621 H 452.491 3.56715 1.51106 0
M  V30 4622 H 452.905 5.24458 0.0665514 0
M  V30 4623 H 454.379 5.22627 1.77664 0
M  V30 4624 H 454.856 3.65999 2.42778 0
M  V30 4625 H 455.462 4.17016 0.835305 0
M  V30 4626 N 453.777 0.010035 1.57597 0
M  V30 4627 C 454.707 -0.976857 2.12084 0
M  V30 4628 C 455.688 -1.35191 1.03235 0
M  V30 4629 O 456.873 -1.43389 1.3097 0
M  V30 4630 C 454.003 -2.26548 2.63236 0
M  V30 4631 C 452.957 -2.03175 3.76701 0
M  V30 4632 C 452.283 -3.38138 4.14206 0
M  V30 4633 C 453.583 -1.38625 5.03568 0
M  V30 4634 H 455.277 -0.523145 2.94794 0
M  V30 4635 H 452.823 -0.250195 1.4181 0
M  V30 4636 H 454.776 -2.95952 2.99984 0
M  V30 4637 H 453.5 -2.74051 1.77661 0
M  V30 4638 H 452.159 -1.36195 3.40362 0
M  V30 4639 H 451.807 -3.83363 3.25641 0
M  V30 4640 H 451.507 -3.23312 4.90656 0
M  V30 4641 H 453.031 -4.08841 4.53521 0
M  V30 4642 H 454.445 -1.98 5.38023 0
M  V30 4643 H 452.842 -1.34256 5.84889 0
M  V30 4644 H 453.912 -0.356722 4.83586 0
M  V30 4645 N 455.255 -1.55392 -0.262866 0
M  V30 4646 C 456.188 -1.8391 -1.35101 0
M  V30 4647 C 457.166 -0.692901 -1.47097 0
M  V30 4648 O 458.35 -0.936979 -1.63563 0
M  V30 4649 C 455.477 -2.00969 -2.72634 0
M  V30 4650 C 454.523 -3.23559 -2.7787 0
M  V30 4651 S 455.356 -4.80647 -2.3609 0
M  V30 4652 C 456.512 -5.00692 -3.75578 0
M  V30 4653 H 456.745 -2.75918 -1.1071 0
M  V30 4654 H 454.278 -1.47294 -0.463029 0
M  V30 4655 H 456.236 -2.11482 -3.51832 0
M  V30 4656 H 454.897 -1.09832 -2.94272 0
M  V30 4657 H 454.09 -3.32413 -3.78837 0
M  V30 4658 H 453.692 -3.11689 -2.06702 0
M  V30 4659 H 455.984 -4.87055 -4.70939 0
M  V30 4660 H 456.927 -6.02717 -3.71669 0
M  V30 4661 H 457.335 -4.28619 -3.6735 0
M  V30 4662 N 456.733 0.527833 -1.48498 0
M  V30 4663 C 457.666 1.64892 -1.57753 0
M  V30 4664 C 458.644 1.5687 -0.427867 0
M  V30 4665 O 459.828 1.77311 -0.639764 0
M  V30 4666 C 456.955 3.03301 -1.50752 0
M  V30 4667 C 456.001 3.29675 -2.70586 0
M  V30 4668 S 456.834 3.15712 -4.32535 0
M  V30 4669 C 457.99 4.56564 -4.28136 0
M  V30 4670 H 458.223 1.56792 -2.52594 0
M  V30 4671 H 455.756 0.710959 -1.37057 0
M  V30 4672 H 457.714 3.83123 -1.474 0
M  V30 4673 H 456.375 3.08839 -0.572454 0
M  V30 4674 H 455.568 4.3065 -2.61833 0
M  V30 4675 H 455.17 2.57526 -2.71212 0
M  V30 4676 H 457.462 5.48126 -3.98201 0
M  V30 4677 H 458.405 4.70371 -5.29298 0
M  V30 4678 H 458.813 4.35987 -3.58574 0
M  V30 4679 N 458.211 1.37122 0.776871 0
M  V30 4680 C 459.622 1.28667 1.35284 0
M  V30 4681 C 459.973 -0.0680035 1.96082 0
M  V30 4682 O 459.098 -0.969743 1.93455 0
M  V30 4683 C 459.693 2.32997 2.45963 0
M  V30 4684 C 458.252 2.28191 2.99342 0
M  V30 4685 C 457.399 2.17101 1.72517 0
M  V30 4686 H 460.35 1.47819 0.577527 0
M  V30 4687 H 460.371 1.97366 3.2531 0
M  V30 4688 H 459.883 3.3158 2.01684 0
M  V30 4689 H 457.984 1.33115 3.4801 0
M  V30 4690 H 458.097 3.21397 3.55304 0
M  V30 4691 H 456.461 1.63562 1.95242 0
M  V30 4692 H 457.244 3.17591 1.30348 0
M  V30 4693 N 459.689 -1.00246 1.21608 0
M  V30 4694 C 460.919 -1.77373 1.05935 0
M  V30 4695 C 461.327 -1.85059 -0.393686 0
M  V30 4696 O 460.67 -1.31289 -1.28487 0
M  V30 4697 C 460.732 -3.22705 1.58435 0
M  V30 4698 C 460.396 -3.38591 3.06929 0
M  V30 4699 C 461.393 -3.2667 4.04454 0
M  V30 4700 C 459.078 -3.6395 3.46187 0
M  V30 4701 C 461.072 -3.39877 5.39224 0
M  V30 4702 C 458.759 -3.768 4.81108 0
M  V30 4703 C 459.757 -3.6477 5.77436 0
M  V30 4704 O 459.445 -3.77206 7.09909 0
M  V30 4705 H 459.177 -0.56419 0.372378 0
M  V30 4706 H 461.731 -1.26971 1.61454 0
M  V30 4707 H 459.961 -3.74255 0.973147 0
M  V30 4708 H 461.65 -3.81515 1.38568 0
M  V30 4709 H 462.416 -3.06999 3.75468 0
M  V30 4710 H 458.295 -3.72395 2.71741 0
M  V30 4711 H 461.839 -3.30404 6.14393 0
M  V30 4712 H 457.736 -3.95975 5.09779 0
M  V30 4713 H 458.504 -3.94138 7.17355 0
M  V30 4714 N 461.167 -1.02423 -1.1978 0
M  V30 4715 C 462.397 -0.736387 -1.93031 0
M  V30 4716 C 462.805 0.708023 -1.75453 0
M  V30 4717 O 462.148 1.4927 -1.07071 0
M  V30 4718 C 462.21 -1.00194 -3.45255 0
M  V30 4719 C 461.874 -2.43698 -3.86601 0
M  V30 4720 C 462.871 -3.41814 -3.91738 0
M  V30 4721 C 460.556 -2.77975 -4.18372 0
M  V30 4722 C 462.55 -4.72265 -4.28071 0
M  V30 4723 C 460.237 -4.08636 -4.54378 0
M  V30 4724 C 461.235 -5.05592 -4.59201 0
M  V30 4725 O 460.923 -6.33914 -4.94376 0
M  V30 4726 H 460.655 -0.269116 -0.620123 0
M  V30 4727 H 463.209 -1.37043 -1.52998 0
M  V30 4728 H 461.439 -0.310747 -3.85449 0
M  V30 4729 H 463.128 -0.704488 -3.9974 0
M  V30 4730 H 463.894 -3.16671 -3.67348 0
M  V30 4731 H 459.773 -2.0319 -4.13805 0
M  V30 4732 H 463.317 -5.4794 -4.3175 0
M  V30 4733 H 459.214 -4.33556 -4.78226 0
M  V30 4734 H 459.982 -6.38317 -5.12341 0
M  V30 4735 N 462.645 1.35699 -0.801477 0
M  V30 4736 C 463.577 2.28598 -0.166028 0
M  V30 4737 C 464.59 1.50044 0.631721 0
M  V30 4738 O 465.779 1.72339 0.464921 0
M  V30 4739 C 462.879 3.29625 0.787451 0
M  V30 4740 C 462.052 4.37384 0.037171 0
M  V30 4741 C 461.111 5.183 0.908375 0
M  V30 4742 O 460.137 5.68053 0.361189 0
M  V30 4743 N 461.339 5.35912 2.23112 0
M  V30 4744 H 464.104 2.83771 -0.964071 0
M  V30 4745 H 461.665 1.47994 -0.656469 0
M  V30 4746 H 463.657 3.80648 1.37439 0
M  V30 4747 H 462.227 2.75004 1.48632 0
M  V30 4748 H 461.447 3.87364 -0.730935 0
M  V30 4749 H 462.735 5.0653 -0.480109 0
M  V30 4750 H 462.133 4.97125 2.69968 0
M  V30 4751 H 460.69 5.90133 2.76741 0
M  V30 4752 N 464.123 0.554532 1.47522 0
M  V30 4753 C 465.053 -0.182974 2.32782 0
M  V30 4754 C 466.034 -0.911377 1.43624 0
M  V30 4755 O 467.219 -0.892366 1.72483 0
M  V30 4756 C 464.349 -1.21513 3.25349 0
M  V30 4757 C 463.303 -0.603355 4.23726 0
M  V30 4758 C 462.629 -1.73995 5.05598 0
M  V30 4759 C 463.929 0.441121 5.20434 0
M  V30 4760 H 465.623 0.52882 2.94693 0
M  V30 4761 H 463.169 0.255759 1.41711 0
M  V30 4762 H 465.122 -1.73922 3.83835 0
M  V30 4763 H 463.846 -1.95683 2.61487 0
M  V30 4764 H 462.505 -0.10059 3.66462 0
M  V30 4765 H 462.153 -2.47063 4.38143 0
M  V30 4766 H 461.853 -1.3364 5.72201 0
M  V30 4767 H 463.377 -2.26735 5.66942 0
M  V30 4768 H 464.791 0.00319931 5.733 0
M  V30 4769 H 463.188 0.763402 5.95224 0
M  V30 4770 H 464.258 1.33799 4.66075 0
M  V30 4771 N 465.601 -1.54893 0.290851 0
M  V30 4772 C 466.533 -2.20564 -0.623236 0
M  V30 4773 C 467.546 -1.19519 -1.1054 0
M  V30 4774 O 468.735 -1.46165 -1.02459 0
M  V30 4775 C 465.835 -2.83033 -1.86401 0
M  V30 4776 C 465.008 -4.09916 -1.52604 0
M  V30 4777 C 464.067 -4.56284 -2.62091 0
M  V30 4778 O 463.093 -5.2171 -2.27612 0
M  V30 4779 N 464.295 -4.27746 -3.92446 0
M  V30 4780 H 467.06 -2.99638 -0.0610915 0
M  V30 4781 H 464.621 -1.61508 0.112615 0
M  V30 4782 H 466.613 -3.1099 -2.58973 0
M  V30 4783 H 465.183 -2.0786 -2.33481 0
M  V30 4784 H 464.403 -3.89078 -0.633424 0
M  V30 4785 H 465.691 -4.92554 -1.27547 0
M  V30 4786 H 465.089 -3.7531 -4.23272 0
M  V30 4787 H 463.646 -4.60437 -4.61347 0
M  V30 4788 N 467.08 -0.0183926 -1.57589 0
M  V30 4789 C 468.491 0.521927 -1.79256 0
M  V30 4790 C 468.842 1.72885 -0.927636 0
M  V30 4791 O 467.967 2.15978 -0.135091 0
M  V30 4792 C 468.562 0.953632 -3.25102 0
M  V30 4793 C 467.121 1.43913 -3.47801 0
M  V30 4794 C 466.268 0.398837 -2.74417 0
M  V30 4795 H 469.219 -0.244485 -1.56805 0
M  V30 4796 H 469.24 1.81863 -3.34224 0
M  V30 4797 H 468.752 0.0750123 -3.88028 0
M  V30 4798 H 466.853 2.33804 -2.90115 0
M  V30 4799 H 466.966 1.45391 -4.56507 0
M  V30 4800 H 465.33 0.864572 -2.39577 0
M  V30 4801 H 466.113 -0.471132 -3.40052 0
M  V30 4802 N 468.558 1.5553 0.254621 0
M  V30 4803 C 469.468 1.92789 1.33677 0
M  V30 4804 C 470.484 0.827356 1.53071 0
M  V30 4805 O 471.66 1.12807 1.66843 0
M  V30 4806 C 468.725 2.20827 2.67275 0
M  V30 4807 C 467.786 3.4427 2.5647 0
M  V30 4808 C 467.019 3.70961 3.83697 0
M  V30 4809 O 467.242 2.99852 4.85227 0
M  V30 4810 O 466.176 4.64491 3.82794 0
M  V30 4811 H 470.002 2.84945 1.05071 0
M  V30 4812 H 467.587 1.42312 0.454723 0
M  V30 4813 H 469.469 2.40204 3.46237 0
M  V30 4814 H 468.144 1.31851 2.9563 0
M  V30 4815 H 467.051 3.30209 1.75821 0
M  V30 4816 H 468.384 4.33524 2.33062 0
M  V30 4817 N 470.036 -0.519951 1.48776 0
M  V30 4818 C 471.261 -1.30447 1.6124 0
M  V30 4819 C 471.686 -1.86055 0.276591 0
M  V30 4820 O 471.044 -1.64915 -0.753183 0
M  V30 4821 C 471.092 -2.42406 2.66967 0
M  V30 4822 O 470.196 -3.45728 2.24824 0
M  V30 4823 H 469.537 -0.385924 0.540332 0
M  V30 4824 H 472.067 -0.624572 1.94834 0
M  V30 4825 H 472.077 -2.88447 2.88552 0
M  V30 4826 H 470.752 -2.01294 3.63941 0
M  V30 4827 H 469.329 -3.05737 2.13494 0
M  V30 4828 N 471.514 -1.37532 -0.769588 0
M  V30 4829 C 472.925 -1.29382 -1.346 0
M  V30 4830 C 473.276 0.0576039 -1.96115 0
M  V30 4831 O 472.401 0.95947 -1.93967 0
M  V30 4832 C 472.996 -2.34298 -2.44724 0
M  V30 4833 C 471.555 -2.29776 -2.98128 0
M  V30 4834 C 470.702 -2.18013 -1.71364 0
M  V30 4835 H 473.653 -1.48123 -0.56968 0
M  V30 4836 H 473.674 -1.99089 -3.24259 0
M  V30 4837 H 473.186 -3.32645 -1.99922 0
M  V30 4838 H 471.287 -1.34959 -3.47299 0
M  V30 4839 H 471.4 -3.23276 -3.53595 0
M  V30 4840 H 469.764 -1.64595 -1.94372 0
M  V30 4841 H 470.547 -3.18278 -1.28662 0
M  V30 4842 N 472.992 0.995999 -1.22138 0
M  V30 4843 C 473.922 2.10387 -1.01289 0
M  V30 4844 C 474.903 1.69975 0.0651454 0
M  V30 4845 O 476.088 1.9396 -0.0964628 0
M  V30 4846 C 473.218 3.42312 -0.586517 0
M  V30 4847 C 472.172 3.96558 -1.61014 0
M  V30 4848 C 471.498 5.24494 -1.0397 0
M  V30 4849 C 472.798 4.27595 -2.99933 0
M  V30 4850 H 474.492 2.28086 -1.93951 0
M  V30 4851 H 472.038 1.09607 -0.933928 0
M  V30 4852 H 473.991 4.19223 -0.427793 0
M  V30 4853 H 472.715 3.24431 0.375761 0
M  V30 4854 H 471.374 3.21776 -1.75658 0
M  V30 4855 H 471.022 5.02953 -0.0688703 0
M  V30 4856 H 470.722 5.61755 -1.72352 0
M  V30 4857 H 472.246 6.04042 -0.892494 0
M  V30 4858 H 473.66 4.95315 -2.8868 0
M  V30 4859 H 472.057 4.76021 -3.6541 0
M  V30 4860 H 473.127 3.35498 -3.50099 0
M  V30 4861 N 474.47 1.03057 1.19235 0
M  V30 4862 C 475.881 0.757449 1.70645 0
M  V30 4863 C 476.232 -0.722735 1.82403 0
M  V30 4864 O 475.357 -1.56325 1.49638 0
M  V30 4865 C 475.952 1.36833 3.09939 0
M  V30 4866 C 474.511 1.14375 3.58602 0
M  V30 4867 C 473.658 1.46533 2.35422 0
M  V30 4868 H 476.609 1.19828 1.04052 0
M  V30 4869 H 476.63 0.766184 3.72706 0
M  V30 4870 H 476.142 2.44562 3.01349 0
M  V30 4871 H 474.243 0.0847542 3.72504 0
M  V30 4872 H 474.356 1.83366 4.42622 0
M  V30 4873 H 472.72 0.884712 2.38841 0
M  V30 4874 H 473.503 2.55349 2.2946 0
M  V30 4875 N 475.948 -1.35272 0.808662 0
M  V30 4876 C 476.858 -2.33546 0.222079 0
M  V30 4877 C 477.874 -1.6196 -0.636011 0
M  V30 4878 O 479.05 -1.93822 -0.547274 0
M  V30 4879 C 476.115 -3.41148 -0.61795 0
M  V30 4880 C 475.176 -4.28507 0.260875 0
M  V30 4881 C 474.409 -5.3097 -0.539156 0
M  V30 4882 O 474.632 -5.42123 -1.77367 0
M  V30 4883 O 473.566 -6.01858 0.0710526 0
M  V30 4884 H 477.392 -2.85515 1.03512 0
M  V30 4885 H 474.977 -1.38079 0.570495 0
M  V30 4886 H 476.859 -4.06889 -1.09634 0
M  V30 4887 H 475.534 -2.91447 -1.40855 0
M  V30 4888 H 474.441 -3.6574 0.786451 0
M  V30 4889 H 475.774 -4.81611 1.01547 0
M  V30 4890 N 477.426 -0.562348 -1.47226 0
M  V30 4891 C 478.389 0.172056 -2.28553 0
M  V30 4892 C 479.389 0.837928 -1.37242 0
M  V30 4893 O 480.579 0.693001 -1.59822 0
M  V30 4894 C 477.711 1.25223 -3.17068 0
M  V30 4895 H 478.904 -0.542401 -2.94954 0
M  V30 4896 H 476.457 -0.319493 -1.53 0
M  V30 4897 H 477.192 1.99892 -2.55369 0
M  V30 4898 H 476.977 0.779515 -3.84273 0
M  V30 4899 H 478.467 1.76791 -3.78332 0
M  V30 4900 N 478.904 1.54736 -0.299062 0
M  V30 4901 C 480.151 2.00101 0.310784 0
M  V30 4902 C 480.479 1.18746 1.54045 0
M  V30 4903 O 479.734 0.251198 1.94081 0
M  V30 4904 C 480.033 3.50199 0.713835 0
M  V30 4905 C 479.699 4.48997 -0.413873 0
M  V30 4906 C 478.361 4.7573 -0.723462 0
M  V30 4907 C 480.713 5.07839 -1.17257 0
M  V30 4908 C 478.041 5.5857 -1.79491 0
M  V30 4909 C 480.393 5.91844 -2.23392 0
M  V30 4910 C 479.057 6.16889 -2.54959 0
M  V30 4911 H 478.327 0.732221 0.113724 0
M  V30 4912 H 480.974 1.86888 -0.417756 0
M  V30 4913 H 479.279 3.61012 1.52243 0
M  V30 4914 H 480.976 3.82723 1.19684 0
M  V30 4915 H 477.566 4.28292 -0.162476 0
M  V30 4916 H 481.75 4.87188 -0.946651 0
M  V30 4917 H 477.006 5.76213 -2.04423 0
M  V30 4918 H 481.18 6.36465 -2.8264 0
M  V30 4919 H 478.807 6.80869 -3.38114 0
M  V30 4920 N 480.382 0.0267497 1.57577 0
M  V30 4921 C 481.312 -0.954308 2.13108 0
M  V30 4922 C 482.293 -1.34088 1.04663 0
M  V30 4923 O 483.478 -1.41992 1.32484 0
M  V30 4924 C 480.608 -2.23744 2.65624 0
M  V30 4925 C 479.562 -1.99168 3.78835 0
M  V30 4926 C 478.888 -3.33726 4.17769 0
M  V30 4927 C 480.188 -1.33277 5.0501 0
M  V30 4928 H 481.882 -0.491848 2.95332 0
M  V30 4929 H 479.428 -0.23514 1.42067 0
M  V30 4930 H 481.381 -2.92754 3.03106 0
M  V30 4931 H 480.105 -2.72151 1.80558 0
M  V30 4932 H 478.764 -1.32577 3.41788 0
M  V30 4933 H 478.412 -3.79888 3.29688 0
M  V30 4934 H 478.112 -3.18089 4.94058 0
M  V30 4935 H 479.636 -4.04008 4.57832 0
M  V30 4936 H 481.05 -1.92283 5.40093 0
M  V30 4937 H 479.447 -1.28045 5.8628 0
M  V30 4938 H 480.517 -0.305411 4.83937 0
M  V30 4939 N 481.861 -1.55662 -0.24637 0
M  V30 4940 C 483.091 -1.81312 -0.990438 0
M  V30 4941 C 483.499 -0.600234 -1.79426 0
M  V30 4942 O 482.842 0.440537 -1.78339 0
M  V30 4943 C 482.904 -3.0032 -1.97607 0
M  V30 4944 C 482.568 -4.36322 -1.35912 0
M  V30 4945 C 483.565 -5.14295 -0.761348 0
M  V30 4946 C 481.25 -4.83019 -1.37833 0
M  V30 4947 C 483.244 -6.37114 -0.190998 0
M  V30 4948 C 480.931 -6.05786 -0.804128 0
M  V30 4949 C 481.929 -6.82672 -0.211489 0
M  V30 4950 O 481.617 -8.03121 0.353845 0
M  V30 4951 H 481.349 -0.607233 -0.297058 0
M  V30 4952 H 483.903 -2.0356 -0.274351 0
M  V30 4953 H 482.133 -2.73829 -2.73047 0
M  V30 4954 H 483.822 -3.13057 -2.58361 0
M  V30 4955 H 484.588 -4.79337 -0.739013 0
M  V30 4956 H 480.467 -4.23165 -1.829 0
M  V30 4957 H 484.011 -6.97069 0.272206 0
M  V30 4958 H 479.908 -6.40222 -0.823792 0
M  V30 4959 H 480.676 -8.18131 0.245761 0
M  V30 4960 N 483.339 0.512053 -1.4905 0
M  V30 4961 C 484.588 1.26343 -1.57227 0
M  V30 4962 C 484.901 1.93876 -0.259155 0
M  V30 4963 O 486.107 2.70612 -0.219358 0
M  V30 4964 C 484.563 2.29343 -2.77362 0
M  V30 4965 C 484.171 1.67799 -4.15388 0
M  V30 4966 C 485.915 3.05378 -2.94864 0
M  V30 4967 C 483.822 2.68845 -5.2676 0
M  V30 4968 H 482.752 0.475231 -0.585382 0
M  V30 4969 H 485.403 0.53862 -1.75417 0
M  V30 4970 H 483.785 3.04938 -2.52643 0
M  V30 4971 H 484.959 0.982715 -4.50199 0
M  V30 4972 H 483.274 1.04194 -4.03153 0
M  V30 4973 H 485.871 3.80921 -3.75238 0
M  V30 4974 H 486.214 3.62327 -2.05 0
M  V30 4975 H 486.747 2.36898 -3.19569 0
M  V30 4976 H 483.486 2.16692 -6.18647 0
M  V30 4977 H 483.006 3.36647 -4.96416 0
M  V30 4978 H 484.685 3.31487 -5.5563 0
M  V30 4979 N 484.817 1.37938 0.762283 0
M  V30 4980 C 486.065 1.33404 1.51815 0
M  V30 4981 C 486.386 -0.0780975 1.94844 0
M  V30 4982 O 485.656 -1.02405 1.67003 0
M  V30 4983 H 484.236 0.490839 0.563104 0
M  V30 4984 H 486.898 1.72527 0.906669 0
M  V30 4985 H 485.994 1.97926 2.41313 0
M  V30 4986 N 486.295 -0.989507 1.22664 0
M  V30 4987 C 487.541 -1.73298 1.06487 0
M  V30 4988 C 487.896 -1.88292 -0.395438 0
M  V30 4989 O 487.189 -1.41748 -1.28911 0
M  V30 4990 C 487.383 -3.13649 1.71345 0
M  V30 4991 C 487.212 -3.12341 3.23532 0
M  V30 4992 C 485.982 -3.18044 3.92653 0
M  V30 4993 C 488.18 -2.96226 4.20422 0
M  V30 4994 N 486.162 -3.06526 5.31898 0
M  V30 4995 C 487.533 -2.92773 5.4652 0
M  V30 4996 C 489.588 -2.80642 4.11271 0
M  V30 4997 C 488.291 -2.75332 6.64519 0
M  V30 4998 C 490.317 -2.64563 5.28924 0
M  V30 4999 C 489.679 -2.618 6.53942 0
M  V30 5000 H 485.778 -0.643643 0.444126 0
M  V30 5001 H 488.362 -1.17489 1.55256 0
M  V30 5002 H 486.533 -3.67694 1.25122 0
M  V30 5003 H 488.265 -3.76577 1.48229 0
M  V30 5004 H 485.02 -3.25861 3.43673 0
M  V30 5005 H 485.444 -3.04067 6.04874 0
M  V30 5006 H 490.086 -2.81574 3.15398 0
M  V30 5007 H 487.804 -2.73145 7.60538 0
M  V30 5008 H 491.39 -2.53482 5.23677 0
M  V30 5009 H 490.27 -2.49511 7.43447 0
M  V30 5010 N 487.773 -1.03688 -1.18687 0
M  V30 5011 C 488.736 -0.629115 -2.20397 0
M  V30 5012 C 489.736 0.311495 -1.57754 0
M  V30 5013 O 490.926 0.0974107 -1.73927 0
M  V30 5014 C 488.058 0.0782231 -3.4081 0
M  V30 5015 H 489.251 -1.52915 -2.57987 0
M  V30 5016 H 486.804 -0.828988 -1.32505 0
M  V30 5017 H 487.539 0.992233 -3.08748 0
M  V30 5018 H 487.324 -0.597776 -3.87517 0
M  V30 5019 H 488.814 0.350156 -4.16129 0
M  V30 5020 N 489.251 1.34841 -0.815825 0
M  V30 5021 C 490.662 1.80937 -0.46029 0
M  V30 5022 C 491.013 1.67685 1.01863 0
M  V30 5023 O 490.138 1.21277 1.79223 0
M  V30 5024 C 490.733 3.28509 -0.828708 0
M  V30 5025 C 489.292 3.72712 -0.525644 0
M  V30 5026 C 488.439 2.56676 -1.04941 0
M  V30 5027 H 491.39 1.22688 -1.00664 0
M  V30 5028 H 491.411 3.80279 -0.129757 0
M  V30 5029 H 490.923 3.38122 -1.90513 0
M  V30 5030 H 489.024 3.68642 0.541666 0
M  V30 5031 H 489.137 4.67119 -1.06474 0
M  V30 5032 H 487.501 2.50302 -0.471286 0
M  V30 5033 H 488.284 2.69063 -2.13214 0
M  V30 5034 N 490.729 0.570148 1.46925 0
M  V30 5035 C 491.692 -0.159933 2.28641 0
M  V30 5036 C 492.692 -0.830638 1.37685 0
M  V30 5037 O 493.882 -0.684516 1.60187 0
M  V30 5038 C 491.014 -1.2354 3.17727 0
M  V30 5039 H 492.207 0.558035 2.94662 0
M  V30 5040 H 489.76 0.327603 1.52828 0
M  V30 5041 H 490.495 -1.98535 2.56426 0
M  V30 5042 H 490.28 -0.759125 3.84681 0
M  V30 5043 H 491.77 -1.74782 3.79264 0
M  V30 5044 N 492.207 -1.54576 0.307264 0
M  V30 5045 C 493.623 -1.59534 -0.0459251 0
M  V30 5046 C 493.823 -1.32414 -1.51884 0
M  V30 5047 O 492.879 -1.1006 -2.27251 0
M  V30 5048 C 494.192 -2.98566 0.357649 0
M  V30 5049 C 495.74 -3.11491 0.306937 0
M  V30 5050 C 496.215 -4.52842 0.685427 0
M  V30 5051 N 497.706 -4.58782 0.638203 0
M  V30 5052 C 498.441 -5.66238 0.903458 0
M  V30 5053 N 497.937 -6.81703 1.23501 0
M  V30 5054 N 499.73 -5.55937 0.830102 0
M  V30 5055 H 491.881 -1.70464 1.26712 0
M  V30 5056 H 494.144 -0.79647 0.514139 0
M  V30 5057 H 493.85 -3.23356 1.38325 0
M  V30 5058 H 493.724 -3.76117 -0.285565 0
M  V30 5059 H 496.111 -2.86446 -0.709424 0
M  V30 5060 H 496.192 -2.36081 0.984861 0
M  V30 5061 H 495.836 -4.78618 1.69963 0
M  V30 5062 H 495.766 -5.26598 -0.0146346 0
M  V30 5063 H 498.257 -3.75849 0.393138 0
M  V30 5064 H 498.57 -7.59582 1.42322 0
M  V30 5065 H 496.915 -6.8324 1.27311 0
M  V30 5066 H 500.106 -4.64608 0.570693 0
M  V30 5067 H 500.279 -6.39597 1.04019 0
M  V30 5068 N 493.685 -0.035106 -1.57561 0
M  V30 5069 C 494.915 0.651312 -1.96065 0
M  V30 5070 C 495.323 1.6585 -0.910514 0
M  V30 5071 O 494.666 1.83336 0.11552 0
M  V30 5072 C 494.728 1.40897 -3.30739 0
M  V30 5073 C 494.392 0.559436 -4.53563 0
M  V30 5074 C 495.389 -0.16778 -5.19629 0
M  V30 5075 C 493.074 0.495079 -4.99854 0
M  V30 5076 C 495.068 -0.947963 -6.30311 0
M  V30 5077 C 492.755 -0.288804 -6.10417 0
M  V30 5078 C 493.753 -1.00903 -6.75505 0
M  V30 5079 O 493.441 -1.78005 -7.83945 0
M  V30 5080 H 493.173 0.184036 -0.650467 0
M  V30 5081 H 495.727 -0.0929677 -2.05189 0
M  V30 5082 H 493.957 2.19852 -3.18123 0
M  V30 5083 H 495.646 1.98407 -3.54104 0
M  V30 5084 H 496.412 -0.12743 -4.84833 0
M  V30 5085 H 492.291 1.04524 -4.48994 0
M  V30 5086 H 495.835 -1.51064 -6.81047 0
M  V30 5087 H 491.732 -0.33085 -6.44652 0
M  V30 5088 H 492.5 -1.70046 -8.00641 0
M  V30 5089 N 495.163 1.55791 0.238111 0
M  V30 5090 C 496.409 1.78297 0.966337 0
M  V30 5091 C 496.742 0.601903 1.84637 0
M  V30 5092 O 496.017 -0.399499 1.90353 0
M  V30 5093 C 496.3 3.10758 1.81939 0
M  V30 5094 C 496.153 4.39283 0.966958 0
M  V30 5095 C 497.472 3.39519 2.80027 0
M  V30 5096 H 494.591 0.648654 0.349882 0
M  V30 5097 H 497.233 1.88525 0.236253 0
M  V30 5098 H 495.383 3.02168 2.44185 0
M  V30 5099 H 497.055 4.59873 0.362514 0
M  V30 5100 H 495.298 4.32948 0.271669 0
M  V30 5101 H 495.969 5.28368 1.59784 0
M  V30 5102 H 498.445 3.48128 2.27917 0
M  V30 5103 H 497.321 4.33402 3.36829 0
M  V30 5104 H 497.582 2.60864 3.56934 0
M  V30 5105 N 496.642 -0.504142 1.49319 0
M  V30 5106 C 497.888 -1.26033 1.58882 0
M  V30 5107 C 498.221 -1.92268 0.273274 0
M  V30 5108 O 497.496 -1.80567 -0.72291 0
M  V30 5109 C 497.779 -2.32976 2.7458 0
M  V30 5110 C 497.632 -1.71263 4.1592 0
M  V30 5111 C 498.951 -3.34561 2.85932 0
M  V30 5112 H 496.07 -0.456863 0.578312 0
M  V30 5113 H 498.712 -0.558965 1.81592 0
M  V30 5114 H 496.862 -2.92796 2.55348 0
M  V30 5115 H 498.534 -1.15294 4.4666 0
M  V30 5116 H 496.777 -1.01686 4.21714 0
M  V30 5117 H 497.448 -2.48816 4.92742 0
M  V30 5118 H 499.924 -2.84727 3.0343 0
M  V30 5119 H 498.8 -4.06754 3.68568 0
M  V30 5120 H 499.061 -3.96695 1.95154 0
M  V30 5121 N 498.12 -1.38341 -0.754957 0
M  V30 5122 C 499.083 -1.35262 -1.85032 0
M  V30 5123 C 500.083 -0.253393 -1.58791 0
M  V30 5124 O 501.273 -0.510205 -1.66561 0
M  V30 5125 C 498.405 -1.10544 -3.22479 0
M  V30 5126 H 499.598 -2.32712 -1.8917 0
M  V30 5127 H 497.151 -1.23614 -0.956515 0
M  V30 5128 H 497.886 -0.136952 -3.24011 0
M  V30 5129 H 497.671 -1.90127 -3.4292 0
M  V30 5130 H 499.161 -1.11082 -4.02555 0
M  V30 5131 N 499.598 0.982988 -1.23187 0
M  V30 5132 C 500.844 1.72648 -1.06398 0
M  V30 5133 C 501.177 1.90066 0.398561 0
M  V30 5134 O 500.452 1.45105 1.29518 0
M  V30 5135 C 500.735 3.12627 -1.78707 0
M  V30 5136 C 500.588 3.02795 -3.32618 0
M  V30 5137 C 501.907 4.11997 -1.54747 0
M  V30 5138 H 499.026 0.626649 -0.387918 0
M  V30 5139 H 501.668 1.14455 -1.51658 0
M  V30 5140 H 499.818 3.62308 -1.40234 0
M  V30 5141 H 501.49 2.60659 -3.80598 0
M  V30 5142 H 499.733 2.39362 -3.61785 0
M  V30 5143 H 500.404 4.01893 -3.78399 0
M  V30 5144 H 502.88 3.71114 -1.88186 0
M  V30 5145 H 501.756 5.08037 -2.07821 0
M  V30 5146 H 502.017 4.39462 -0.482249 0
M  V30 5147 N 501.076 1.04316 1.18135 0
M  V30 5148 C 502.324 0.746542 1.87806 0
M  V30 5149 C 502.645 -0.728082 1.80898 0
M  V30 5150 O 501.915 -1.52554 1.22899 0
M  V30 5151 H 500.495 0.273157 0.695265 0
M  V30 5152 H 503.157 1.32044 1.43354 0
M  V30 5153 H 502.253 1.05362 2.93778 0
M  V30 5154 N 502.554 -1.34406 0.822964 0
M  V30 5155 C 503.779 -2.0304 0.423034 0
M  V30 5156 C 504.204 -1.61568 -0.963196 0
M  V30 5157 O 503.562 -0.800339 -1.62678 0
M  V30 5158 C 503.61 -3.56636 0.53321 0
M  V30 5159 O 502.714 -4.09971 -0.446939 0
M  V30 5160 H 502.055 -0.64075 0.174171 0
M  V30 5161 H 504.585 -1.71653 1.11339 0
M  V30 5162 H 504.595 -4.05945 0.408991 0
M  V30 5163 H 503.27 -3.86168 1.54425 0
M  V30 5164 H 501.847 -3.71835 -0.281601 0
M  V30 5165 N 504.032 -0.577932 -1.46621 0
M  V30 5166 C 504.962 0.145917 -2.33044 0
M  V30 5167 C 505.943 0.888412 -1.45056 0
M  V30 5168 O 507.128 0.864812 -1.73881 0
M  V30 5169 C 504.258 1.16322 -3.27241 0
M  V30 5170 C 503.212 0.535868 -4.24632 0
M  V30 5171 C 502.538 1.65929 -5.08303 0
M  V30 5172 C 503.838 -0.523861 -5.19666 0
M  V30 5173 H 505.532 -0.575636 -2.93814 0
M  V30 5174 H 503.078 -0.278272 -1.41286 0
M  V30 5175 H 505.031 1.67793 -3.86553 0
M  V30 5176 H 503.755 1.91498 -2.64567 0
M  V30 5177 H 502.414 0.0422759 -3.66576 0
M  V30 5178 H 502.062 2.40061 -4.42018 0
M  V30 5179 H 501.762 1.2452 -5.74255 0
M  V30 5180 H 503.286 2.17686 -5.70478 0
M  V30 5181 H 504.7 -0.0944059 -5.73222 0
M  V30 5182 H 503.097 -0.858 -5.93935 0
M  V30 5183 H 504.167 -1.41197 -4.63887 0
M  V30 5184 N 505.51 1.54411 -0.315457 0
M  V30 5185 C 506.75 2.02329 0.290236 0
M  V30 5186 C 507.114 1.19878 1.49977 0
M  V30 5187 O 508.315 1.57562 2.17779 0
M  V30 5188 C 506.586 3.51912 0.623937 0
M  V30 5189 S 508.145 4.21775 1.21044 0
M  V30 5190 H 504.963 0.705499 0.0882739 0
M  V30 5191 H 507.565 1.90328 -0.446694 0
M  V30 5192 H 506.269 4.09546 -0.264624 0
M  V30 5193 H 505.8 3.67977 1.39128 0
M  V30 5194 H 507.815 4.28757 2.49764 0
M  V30 5195 N 506.988 0.0434614 1.5754 0
M  V30 5196 C 507.951 -0.918696 2.09982 0
M  V30 5197 C 508.951 -1.24488 1.01781 0
M  V30 5198 O 510.141 -1.18284 1.27885 0
M  V30 5199 C 507.273 -2.23093 2.57764 0
M  V30 5200 H 508.466 -0.464229 2.96285 0
M  V30 5201 H 506.019 -0.204818 1.54952 0
M  V30 5202 H 506.754 -2.73137 1.74832 0
M  V30 5203 H 506.539 -2.00724 3.36827 0
M  V30 5204 H 508.029 -2.92028 2.98512 0
M  V30 5205 N 508.466 -1.55915 -0.229846 0
M  V30 5206 C 509.396 -1.94754 -1.28815 0
M  V30 5207 C 510.377 -0.814657 -1.49323 0
M  V30 5208 O 511.562 -1.07631 -1.61645 0
M  V30 5209 C 508.692 -2.25705 -2.63959 0
M  V30 5210 C 507.646 -3.41406 -2.5812 0
M  V30 5211 C 506.972 -3.57941 -3.97218 0
M  V30 5212 C 508.272 -4.76616 -2.13623 0
M  V30 5213 H 509.966 -2.83404 -0.965547 0
M  V30 5214 H 507.512 -1.36353 -0.463028 0
M  V30 5215 H 509.465 -2.51467 -3.38146 0
M  V30 5216 H 508.189 -1.339 -2.9789 0
M  V30 5217 H 506.848 -3.1568 -1.86391 0
M  V30 5218 H 506.496 -2.63526 -4.28443 0
M  V30 5219 H 506.196 -4.35757 -3.94195 0
M  V30 5220 H 507.72 -3.86042 -4.73079 0
M  V30 5221 H 509.134 -5.01637 -2.77549 0
M  V30 5222 H 507.531 -5.57655 -2.21677 0
M  V30 5223 H 508.601 -4.7253 -1.08829 0
M  V30 5224 N 509.944 0.496216 -1.49584 0
M  V30 5225 C 511.169 1.27865 -1.63295 0
M  V30 5226 C 511.594 1.85592 -0.306156 0
M  V30 5227 O 510.952 1.66092 0.726851 0
M  V30 5228 C 511 2.38128 -2.7079 0
M  V30 5229 O 510.104 3.42108 -2.30296 0
M  V30 5230 H 509.445 0.377279 -0.546403 0
M  V30 5231 H 511.975 0.593497 -1.95803 0
M  V30 5232 H 511.985 2.8382 -2.93104 0
M  V30 5233 H 510.66 1.95479 -3.67098 0
M  V30 5234 H 509.237 3.02301 -2.18331 0
M  V30 5235 N 511.423 1.38739 0.74761 0
M  V30 5236 C 512.651 1.38521 1.53686 0
M  V30 5237 C 513.066 -0.0235129 1.88785 0
M  V30 5238 O 512.423 -0.991662 1.53207 0
M  V30 5239 C 512.474 2.24641 2.83229 0
M  V30 5240 O 512.195 3.60026 2.49625 0
M  V30 5241 C 513.696 2.32669 3.77333 0
M  V30 5242 H 510.916 0.473589 0.475347 0
M  V30 5243 H 513.46 1.82395 0.924786 0
M  V30 5244 H 511.615 1.84213 3.40799 0
M  V30 5245 H 512.029 4.05435 3.3275 0
M  V30 5246 H 513.503 2.97201 4.65162 0
M  V30 5247 H 513.98 1.3421 4.18192 0
M  V30 5248 H 514.586 2.73512 3.25685 0
M  V30 5249 N 512.901 -0.976442 1.23707 0
M  V30 5250 C 514.126 -1.75875 1.09922 0
M  V30 5251 C 514.551 -1.84911 -0.34489 0
M  V30 5252 O 513.909 -1.31363 -1.24954 0
M  V30 5253 C 513.957 -3.16179 1.73388 0
M  V30 5254 O 513.061 -4.00124 0.99871 0
M  V30 5255 H 512.402 -0.540954 0.385052 0
M  V30 5256 H 514.932 -1.22546 1.6384 0
M  V30 5257 H 514.942 -3.66741 1.78788 0
M  V30 5258 H 513.617 -3.08917 2.78466 0
M  V30 5259 H 512.194 -3.58624 1.02193 0
M  V30 5260 N 514.379 -1.04941 -1.1758 0
M  V30 5261 C 515.309 -0.669172 -2.23706 0
M  V30 5262 C 516.29 0.331835 -1.66832 0
M  V30 5263 O 517.475 0.209988 -1.93061 0
M  V30 5264 C 514.605 -0.0404889 -3.47276 0
M  V30 5265 C 513.559 -0.965983 -4.16957 0
M  V30 5266 C 512.885 -0.201312 -5.34321 0
M  V30 5267 C 514.185 -2.28902 -4.69469 0
M  V30 5268 H 515.879 -1.55639 -2.55767 0
M  V30 5269 H 513.425 -0.749793 -1.22939 0
M  V30 5270 H 515.378 0.237298 -4.20731 0
M  V30 5271 H 514.102 0.881658 -3.14475 0
M  V30 5272 H 512.761 -1.22829 -3.45411 0
M  V30 5273 H 512.409 0.723519 -4.97769 0
M  V30 5274 H 512.109 -0.817968 -5.81879 0
M  V30 5275 H 513.633 0.0692499 -6.10561 0
M  V30 5276 H 515.047 -2.07132 -5.34574 0
M  V30 5277 H 513.444 -2.85942 -5.27596 0
M  V30 5278 H 514.514 -2.92937 -3.86414 0
M  V30 5279 N 515.857 1.33968 -0.830081 0
M  V30 5280 C 516.787 2.31911 -0.271911 0
M  V30 5281 C 517.768 1.58571 0.61556 0
M  V30 5282 O 518.953 1.86514 0.540946 0
M  V30 5283 C 516.083 3.42737 0.561146 0
M  V30 5284 C 515.037 4.27383 -0.229789 0
M  V30 5285 C 514.363 5.29742 0.726463 0
M  V30 5286 C 515.663 5.02 -1.44197 0
M  V30 5287 H 517.357 2.78844 -1.09025 0
M  V30 5288 H 514.903 1.34061 -0.52571 0
M  V30 5289 H 516.856 4.10276 0.961867 0
M  V30 5290 H 515.58 2.94471 1.41261 0
M  V30 5291 H 514.239 3.61456 -0.611964 0
M  V30 5292 H 513.887 4.77736 1.57408 0
M  V30 5293 H 513.587 5.87255 0.20142 0
M  V30 5294 H 515.111 6.00149 1.12489 0
M  V30 5295 H 516.525 5.62355 -1.11488 0
M  V30 5296 H 514.922 5.69122 -1.90317 0
M  V30 5297 H 515.992 4.31281 -2.2164 0
M  V30 5298 N 517.335 0.585699 1.46312 0
M  V30 5299 C 518.583 0.072278 2.01971 0
M  V30 5300 C 518.904 -1.29345 1.45928 0
M  V30 5301 O 518.174 -1.84973 0.645109 0
M  V30 5302 H 516.754 0.023729 0.746623 0
M  V30 5303 H 519.416 0.762155 1.7938 0
M  V30 5304 H 518.512 0.00552767 3.121 0
M  V30 5305 N 518.813 -1.54241 0.323641 0
M  V30 5306 C 520.038 -2.05452 -0.283605 0
M  V30 5307 C 520.463 -1.19823 -1.44997 0
M  V30 5308 O 519.821 -0.207358 -1.8011 0
M  V30 5309 C 519.869 -3.53823 -0.695795 0
M  V30 5310 O 518.973 -3.71134 -1.79815 0
M  V30 5311 H 518.314 -0.662024 -0.0511917 0
M  V30 5312 H 520.844 -1.99079 0.472073 0
M  V30 5313 H 520.854 -3.96094 -0.978434 0
M  V30 5314 H 519.529 -4.15602 0.157287 0
M  V30 5315 H 518.106 -3.40768 -1.51431 0
M  V30 5316 N 520.291 -0.0518155 -1.57515 0
M  V30 5317 C 521.224 0.957758 -2.07129 0
M  V30 5318 C 522.202 1.30355 -0.971927 0
M  V30 5319 O 523.386 1.41631 -1.2439 0
M  V30 5320 C 520.513 2.27157 -2.51232 0
M  V30 5321 C 519.559 2.07879 -3.72409 0
M  V30 5322 S 520.392 1.35656 -5.18033 0
M  V30 5323 C 521.548 2.68359 -5.65451 0
M  V30 5324 H 521.781 0.53552 -2.92437 0
M  V30 5325 H 519.314 0.160465 -1.53564 0
M  V30 5326 H 521.272 3.02676 -2.77304 0
M  V30 5327 H 519.933 2.66509 -1.66228 0
M  V30 5328 H 519.126 3.05061 -4.01191 0
M  V30 5329 H 518.728 1.40499 -3.46606 0
M  V30 5330 H 521.02 3.64526 -5.71076 0
M  V30 5331 H 521.963 2.44213 -6.64654 0
M  V30 5332 H 522.371 2.74647 -4.93183 0
M  V30 5333 N 521.769 1.56035 0.221574 0
M  V30 5334 C 523.016 1.79047 0.94597 0
M  V30 5335 C 523.344 0.62057 1.84334 0
M  V30 5336 O 522.599 -0.395053 1.91671 0
M  V30 5337 C 522.898 3.07813 1.8162 0
M  V30 5338 C 522.564 4.3797 1.07206 0
M  V30 5339 C 521.226 4.73334 0.866508 0
M  V30 5340 C 523.578 5.18326 0.546565 0
M  V30 5341 C 520.906 5.8657 0.123549 0
M  V30 5342 C 523.258 6.32335 -0.18305 0
M  V30 5343 C 521.922 6.66301 -0.399861 0
M  V30 5344 H 521.192 0.655178 0.346155 0
M  V30 5345 H 523.839 1.90299 0.214146 0
M  V30 5346 H 522.144 2.91682 2.61589 0
M  V30 5347 H 523.841 3.2282 2.37884 0
M  V30 5348 H 520.431 4.10202 1.24226 0
M  V30 5349 H 524.615 4.9144 0.692847 0
M  V30 5350 H 519.871 6.11376 -0.0546591 0
M  V30 5351 H 524.045 6.9383 -0.59775 0
M  V30 5352 H 521.672 7.53889 -0.977489 0
M  V30 5353 N 523.247 -0.488276 1.49845 0
M  V30 5354 C 524.658 -1.06955 1.53028 0
M  V30 5355 C 525.009 -1.9351 0.323797 0
M  V30 5356 O 524.134 -2.08891 -0.565116 0
M  V30 5357 C 524.729 -1.94643 2.77307 0
M  V30 5358 C 523.288 -2.4791 2.83227 0
M  V30 5359 C 522.435 -1.25833 2.47106 0
M  V30 5360 H 525.386 -0.271626 1.56358 0
M  V30 5361 H 525.407 -2.79496 2.5819 0
M  V30 5362 H 524.919 -1.31621 3.65099 0
M  V30 5363 H 523.02 -3.14535 1.99745 0
M  V30 5364 H 523.133 -2.84193 3.85709 0
M  V30 5365 H 521.497 -1.58764 1.99163 0
M  V30 5366 H 522.28 -0.644993 3.37186 0
M  V30 5367 N 524.725 -1.39134 -0.740242 0
M  V30 5368 C 525.658 -1.3182 -1.86276 0
M  V30 5369 C 526.636 -0.192794 -1.61453 0
M  V30 5370 O 527.82 -0.372365 -1.84786 0
M  V30 5371 C 524.947 -1.04564 -3.22155 0
M  V30 5372 C 523.993 -2.19224 -3.65846 0
M  V30 5373 S 524.826 -3.81466 -3.75824 0
M  V30 5374 C 525.982 -3.56425 -5.14502 0
M  V30 5375 H 526.215 -2.26822 -1.92195 0
M  V30 5376 H 523.748 -1.25127 -0.904576 0
M  V30 5377 H 525.706 -0.895228 -4.00619 0
M  V30 5378 H 524.367 -0.112578 -3.13898 0
M  V30 5379 H 523.56 -1.95732 -4.6444 0
M  V30 5380 H 523.162 -2.30441 -2.94572 0
M  V30 5381 H 525.454 -3.13366 -6.00673 0
M  V30 5382 H 526.397 -4.54462 -5.43019 0
M  V30 5383 H 526.805 -2.90641 -4.8393 0
M  V30 5384 N 526.204 0.969867 -1.24223 0
M  V30 5385 C 527.615 1.52717 -1.07399 0
M  V30 5386 C 527.966 1.92956 0.355298 0
M  V30 5387 O 527.091 1.77112 1.2434 0
M  V30 5388 C 527.686 2.77521 -1.94339 0
M  V30 5389 C 526.245 3.29615 -1.81744 0
M  V30 5390 C 525.392 2.02537 -1.89405 0
M  V30 5391 H 528.343 0.788399 -1.37732 0
M  V30 5392 H 528.364 3.50773 -1.47439 0
M  V30 5393 H 527.876 2.48203 -2.98357 0
M  V30 5394 H 525.977 3.63789 -0.805505 0
M  V30 5395 H 526.09 3.98661 -2.65718 0
M  V30 5396 H 524.454 2.17151 -1.33108 0
M  V30 5397 H 525.237 1.75587 -2.94999 0
M  V30 5398 N 527.682 1.05563 1.17022 0
M  V30 5399 C 529.098 0.777684 1.39371 0
M  V30 5400 C 529.298 -0.626269 1.91521 0
M  V30 5401 O 528.354 -1.38806 2.10924 0
M  V30 5402 C 529.667 1.83642 2.3811 0
M  V30 5403 C 531.215 1.85907 2.51809 0
M  V30 5404 C 531.69 2.90813 3.53824 0
M  V30 5405 N 533.181 2.898 3.61345 0
M  V30 5406 C 533.916 3.6762 4.40049 0
M  V30 5407 N 533.412 4.55237 5.22237 0
M  V30 5408 N 535.205 3.56044 4.34959 0
M  V30 5409 H 527.356 1.9614 0.815047 0
M  V30 5410 H 529.619 0.849527 0.420722 0
M  V30 5411 H 529.325 2.84425 2.06871 0
M  V30 5412 H 529.199 1.6812 3.37662 0
M  V30 5413 H 531.586 0.857865 2.82356 0
M  V30 5414 H 531.667 2.05506 1.52318 0
M  V30 5415 H 531.311 3.91122 3.24015 0
M  V30 5416 H 531.241 2.68465 4.53028 0
M  V30 5417 H 533.732 2.26274 3.02669 0
M  V30 5418 H 534.045 5.11291 5.79484 0
M  V30 5419 H 532.39 4.59296 5.21605 0
M  V30 5420 H 535.581 2.86986 3.69806 0
M  V30 5421 H 535.754 4.16938 4.96051 0
M  V30 5422 N 529.16 -1.33526 0.837174 0
M  V30 5423 C 530.406 -1.9813 0.432704 0
M  V30 5424 C 530.739 -1.66168 -1.00508 0
M  V30 5425 O 530.014 -0.94069 -1.70239 0
M  V30 5426 C 530.297 -3.54151 0.651834 0
M  V30 5427 C 530.15 -3.95806 2.13676 0
M  V30 5428 C 531.469 -4.39993 0.0968937 0
M  V30 5429 H 528.588 -0.719713 0.15869 0
M  V30 5430 H 531.23 -1.58193 1.05237 0
M  V30 5431 H 529.38 -3.88301 0.124369 0
M  V30 5432 H 531.052 -3.71921 2.72896 0
M  V30 5433 H 529.295 -3.45599 2.62191 0
M  V30 5434 H 529.966 -5.0447 2.24084 0
M  V30 5435 H 532.442 -4.12479 0.547733 0
M  V30 5436 H 531.318 -5.48186 0.279917 0
M  V30 5437 H 531.579 -4.3066 -0.9992 0
M  V30 5438 N 530.638 -0.59345 -1.46 0
M  V30 5439 C 531.887 -0.0808084 -2.01538 0
M  V30 5440 C 532.2 1.29112 -1.46934 0
M  V30 5441 O 533.406 1.8957 -1.94359 0
M  V30 5442 C 531.862 -0.0938311 -3.59778 0
M  V30 5443 C 531.47 -1.46474 -4.23379 0
M  V30 5444 C 533.214 0.364306 -4.22934 0
M  V30 5445 C 531.121 -1.4349 -5.73729 0
M  V30 5446 H 530.051 -0.0264407 -0.753536 0
M  V30 5447 H 532.702 -0.746689 -1.67621 0
M  V30 5448 H 531.084 0.638427 -3.9082 0
M  V30 5449 H 532.258 -2.21758 -4.03931 0
M  V30 5450 H 530.573 -1.86379 -3.7236 0
M  V30 5451 H 533.17 0.405584 -5.3316 0
M  V30 5452 H 533.513 1.38409 -3.92618 0
M  V30 5453 H 534.046 -0.31423 -3.96557 0
M  V30 5454 H 530.785 -2.43184 -6.08722 0
M  V30 5455 H 530.305 -0.724431 -5.95409 0
M  V30 5456 H 531.984 -1.15243 -6.36654 0
M  V30 5457 N 532.116 1.54067 -0.331816 0
M  V30 5458 C 533.346 2.04833 0.269605 0
M  V30 5459 C 533.754 1.20714 1.45687 0
M  V30 5460 O 533.097 0.232539 1.82222 0
M  V30 5461 C 533.159 3.51386 0.759499 0
M  V30 5462 C 532.823 4.55971 -0.306557 0
M  V30 5463 C 533.82 5.07126 -1.14538 0
M  V30 5464 C 531.505 5.00216 -0.457116 0
M  V30 5465 C 533.499 6.01096 -2.12042 0
M  V30 5466 C 531.186 5.93999 -1.43556 0
M  V30 5467 C 532.184 6.44326 -2.26568 0
M  V30 5468 O 531.872 7.36267 -3.22749 0
M  V30 5469 H 531.604 0.673509 0.0579763 0
M  V30 5470 H 534.158 1.99748 -0.478521 0
M  V30 5471 H 532.388 3.53896 1.55867 0
M  V30 5472 H 534.077 3.85184 1.28017 0
M  V30 5473 H 534.843 4.73716 -1.04009 0
M  V30 5474 H 530.722 4.60652 0.179142 0
M  V30 5475 H 534.266 6.40302 -2.76873 0
M  V30 5476 H 530.163 6.26825 -1.54146 0
M  V30 5477 H 530.931 7.54165 -3.18083 0
M  V30 5478 N 533.594 0.0601682 1.57485 0
M  V30 5479 C 534.557 -0.896373 2.10945 0
M  V30 5480 C 535.557 -1.23402 1.03095 0
M  V30 5481 O 536.747 -1.16921 1.29132 0
M  V30 5482 C 533.879 -2.20346 2.60116 0
M  V30 5483 H 535.072 -0.432778 2.96761 0
M  V30 5484 H 532.625 -0.188372 1.55161 0
M  V30 5485 H 533.36 -2.71268 1.7772 0
M  V30 5486 H 533.145 -1.9714 3.38937 0
M  V30 5487 H 534.635 -2.88846 3.01592 0
M  V30 5488 N 535.072 -1.5615 -0.213296 0
M  V30 5489 C 536.005 -1.88115 -1.29182 0
M  V30 5490 C 536.983 -0.739348 -1.44819 0
M  V30 5491 O 538.167 -0.988541 -1.605 0
M  V30 5492 C 535.294 -2.09541 -2.66102 0
M  V30 5493 C 534.34 -3.32236 -2.67436 0
M  V30 5494 S 535.173 -4.87915 -2.20679 0
M  V30 5495 C 536.329 -5.12387 -3.59458 0
M  V30 5496 H 536.562 -2.793 -1.01876 0
M  V30 5497 H 534.095 -1.48692 -0.415934 0
M  V30 5498 H 536.053 -2.22568 -3.44925 0
M  V30 5499 H 534.714 -1.19138 -2.90628 0
M  V30 5500 H 533.907 -3.44297 -3.6807 0
M  V30 5501 H 533.509 -3.18108 -1.96681 0
M  V30 5502 H 535.801 -5.01791 -4.55205 0
M  V30 5503 H 536.744 -6.14236 -3.52306 0
M  V30 5504 H 537.152 -4.40089 -3.53528 0
M  V30 5505 N 536.55 0.480323 -1.50102 0
M  V30 5506 C 537.513 1.56181 -1.6775 0
M  V30 5507 C 538.513 1.51156 -0.548503 0
M  V30 5508 O 539.703 1.5394 -0.815363 0
M  V30 5509 C 536.835 2.95823 -1.69415 0
M  V30 5510 H 538.028 1.41855 -2.6423 0
M  V30 5511 H 535.581 0.70605 -1.39444 0
M  V30 5512 H 536.316 3.15604 -0.745948 0
M  V30 5513 H 536.101 3.00878 -2.51425 0
M  V30 5514 H 537.591 3.74359 -1.85054 0
M  V30 5515 N 538.028 1.39524 0.732853 0
M  V30 5516 C 538.938 1.40695 1.87729 0
M  V30 5517 C 539.954 0.301496 1.71368 0
M  V30 5518 O 541.13 0.543313 1.93933 0
M  V30 5519 C 538.195 1.25098 3.23344 0
M  V30 5520 C 537.256 2.45634 3.52083 0
M  V30 5521 C 536.489 2.30772 4.81228 0
M  V30 5522 O 536.712 1.31233 5.55098 0
M  V30 5523 O 535.646 3.19799 5.09914 0
M  V30 5524 H 539.472 2.37168 1.89697 0
M  V30 5525 H 537.057 1.20663 0.880959 0
M  V30 5526 H 538.939 1.18541 4.04383 0
M  V30 5527 H 537.614 0.317209 3.22142 0
M  V30 5528 H 536.521 2.57767 2.71122 0
M  V30 5529 H 537.854 3.37712 3.58066 0
M  V30 5530 N 539.506 -0.963266 1.24736 0
M  V30 5531 C 540.783 -1.68248 0.9976 0
M  V30 5532 C 541.163 -2.05599 -0.478776 0
M  V30 5533 O 540.511 -1.7626 -1.45412 0
M  V30 5534 C 540.721 -2.91118 1.92487 0
M  V30 5535 C 542.069 -3.63261 2.19833 0
M  V30 5536 O 543.093 -3.01184 1.90176 0
M  V30 5537 O 541.952 -4.75019 2.7022 0
M  V30 5538 H 539.046 -0.735744 0.377637 0
M  V30 5539 H 541.592 -1.01696 1.35853 0
M  V30 5540 H 540.364 -2.60242 2.92215 0
M  V30 5541 H 539.987 -3.65402 1.56738 0
M  V30 5542 N 540.985 -1.06182 -1.16461 0
M  V30 5543 C 542.233 -0.776326 -1.86595 0
M  V30 5544 C 542.554 0.69921 -1.82033 0
M  V30 5545 O 541.824 1.50579 -1.2531 0
M  V30 5546 H 540.404 -0.284184 -0.690832 0
M  V30 5547 H 543.066 -1.34308 -1.41235 0
M  V30 5548 H 542.162 -1.10022 -2.92064 0
M  V30 5549 N 542.463 1.3308 -0.844243 0
M  V30 5550 C 543.393 2.3161 -0.296493 0
M  V30 5551 C 544.374 1.59215 0.598707 0
M  V30 5552 O 545.559 1.87077 0.521134 0
M  V30 5553 C 542.689 3.43313 0.524762 0
M  V30 5554 C 541.643 4.27115 -0.275106 0
M  V30 5555 C 540.969 5.30483 0.670236 0
M  V30 5556 C 542.269 5.00443 -1.49514 0
M  V30 5557 H 543.963 2.77672 -1.11976 0
M  V30 5558 H 541.509 1.33496 -0.539899 0
M  V30 5559 H 543.462 4.11273 0.918298 0
M  V30 5560 H 542.186 2.95952 1.3813 0
M  V30 5561 H 540.845 3.60787 -0.650267 0
M  V30 5562 H 540.493 4.79379 1.52332 0
M  V30 5563 H 540.193 5.87435 0.139123 0
M  V30 5564 H 541.717 6.01308 1.06117 0
M  V30 5565 H 543.131 5.61141 -1.17447 0
M  V30 5566 H 541.528 5.67071 -1.96343 0
M  V30 5567 H 542.598 4.28906 -2.26202 0
M  V30 5568 N 543.941 0.601185 1.45683 0
M  V30 5569 C 544.871 -0.108824 2.33246 0
M  V30 5570 C 545.852 -0.865223 1.46451 0
M  V30 5571 O 547.037 -0.83704 1.75235 0
M  V30 5572 C 544.167 -1.11101 3.2905 0
M  V30 5573 C 543.121 -0.468244 4.25431 0
M  V30 5574 C 542.447 -1.57822 5.10878 0
M  V30 5575 C 543.747 0.606469 5.18767 0
M  V30 5576 H 545.441 0.622306 2.92861 0
M  V30 5577 H 542.987 0.300714 1.40825 0
M  V30 5578 H 544.94 -1.61622 3.89174 0
M  V30 5579 H 543.664 -1.87265 2.67581 0
M  V30 5580 H 542.323 0.0160484 3.66596 0
M  V30 5581 H 541.971 -2.32998 4.45781 0
M  V30 5582 H 541.671 -1.15369 5.76163 0
M  V30 5583 H 543.195 -2.08583 5.73869 0
M  V30 5584 H 544.609 0.185589 5.73 0
M  V30 5585 H 543.006 0.952381 5.92494 0
M  V30 5586 H 544.076 1.48559 4.61582 0
M  V30 5587 N 545.419 -1.53889 0.339982 0
M  V30 5588 C 546.666 -2.00855 -0.257621 0
M  V30 5589 C 546.994 -1.22788 -1.50842 0
M  V30 5590 O 546.249 -0.302567 -1.93347 0
M  V30 5591 C 546.548 -3.51968 -0.620735 0
M  V30 5592 C 546.214 -4.47741 0.532771 0
M  V30 5593 C 544.876 -4.73645 0.849339 0
M  V30 5594 C 547.228 -5.04551 1.3068 0
M  V30 5595 C 544.556 -5.53614 1.94237 0
M  V30 5596 C 546.908 -5.85713 2.39005 0
M  V30 5597 C 545.572 -6.09912 2.71225 0
M  V30 5598 H 544.842 -0.734979 -0.0942703 0
M  V30 5599 H 547.489 -1.85714 0.467159 0
M  V30 5600 H 545.794 -3.64921 -1.42618 0
M  V30 5601 H 547.491 -3.85762 -1.09495 0
M  V30 5602 H 544.081 -4.27711 0.275973 0
M  V30 5603 H 548.265 -4.84507 1.07549 0
M  V30 5604 H 543.521 -5.7059 2.19628 0
M  V30 5605 H 547.695 -6.28748 2.99415 0
M  V30 5606 H 545.322 -6.71665 3.56047 0
M  V30 5607 N 546.897 -0.0685191 -1.57451 0
M  V30 5608 C 548.313 0.288101 -1.56978 0
M  V30 5609 C 548.513 1.70262 -1.07765 0
M  V30 5610 O 547.569 2.4135 -0.742054 0
M  V30 5611 C 548.882 0.100745 -3.00531 0
M  V30 5612 C 550.43 0.170531 -3.12535 0
M  V30 5613 C 550.905 0.0114944 -4.57999 0
M  V30 5614 N 552.396 0.0672065 -4.63151 0
M  V30 5615 C 553.131 -0.0314813 -5.73391 0
M  V30 5616 N 552.627 -0.183503 -6.92557 0
M  V30 5617 N 554.42 0.0253489 -5.62094 0
M  V30 5618 H 546.571 -0.993026 -1.87757 0
M  V30 5619 H 548.834 -0.386981 -0.865419 0
M  V30 5620 H 548.54 -0.875197 -3.40636 0
M  V30 5621 H 548.414 0.854457 -3.67395 0
M  V30 5622 H 550.801 1.13696 -2.72318 0
M  V30 5623 H 550.882 -0.614229 -2.48316 0
M  V30 5624 H 550.526 -0.951684 -4.98904 0
M  V30 5625 H 550.456 0.815617 -5.20245 0
M  V30 5626 H 552.947 0.183246 -3.77455 0
M  V30 5627 H 553.26 -0.251041 -7.72392 0
M  V30 5628 H 551.605 -0.218822 -6.94655 0
M  V30 5629 H 554.796 0.142794 -4.67882 0
M  V30 5630 H 554.969 -0.0550166 -6.47977 0
M  V30 5631 N 548.375 1.56261 0.205012 0
M  V30 5632 C 549.621 1.80306 0.9283 0
M  V30 5633 C 549.954 0.640932 1.83319 0
M  V30 5634 O 549.229 -0.359032 1.91158 0
M  V30 5635 C 549.512 3.14547 1.75306 0
M  V30 5636 C 549.365 4.41236 0.873562 0
M  V30 5637 C 550.684 3.45382 2.72762 0
M  V30 5638 H 547.803 0.655929 0.336044 0
M  V30 5639 H 550.445 1.88984 0.196211 0
M  V30 5640 H 548.595 3.0728 2.37721 0
M  V30 5641 H 550.267 4.60539 0.264887 0
M  V30 5642 H 548.51 4.33427 0.179773 0
M  V30 5643 H 549.181 5.31639 1.48541 0
M  V30 5644 H 551.657 3.52884 2.20481 0
M  V30 5645 H 550.533 4.40449 3.2756 0
M  V30 5646 H 550.794 2.68377 3.51321 0
M  V30 5647 N 549.853 -0.472356 1.50355 0
M  V30 5648 C 550.783 -1.57859 1.72055 0
M  V30 5649 C 551.764 -1.60283 0.569505 0
M  V30 5650 O 552.949 -1.7657 0.808503 0
M  V30 5651 C 550.079 -2.96191 1.81351 0
M  V30 5652 C 549.033 -3.08633 2.96529 0
M  V30 5653 C 548.359 -4.486 2.90968 0
M  V30 5654 C 549.659 -2.85969 4.37057 0
M  V30 5655 H 551.353 -1.39953 2.64676 0
M  V30 5656 H 548.899 -0.671846 1.27367 0
M  V30 5657 H 550.852 -3.73507 1.95117 0
M  V30 5658 H 549.576 -3.15251 0.853502 0
M  V30 5659 H 548.235 -2.33749 2.82413 0
M  V30 5660 H 547.883 -4.64577 1.92815 0
M  V30 5661 H 547.583 -4.57861 3.68289 0
M  V30 5662 H 549.107 -5.27938 3.0678 0
M  V30 5663 H 550.521 -3.53036 4.51706 0
M  V30 5664 H 548.918 -3.06677 5.15819 0
M  V30 5665 H 549.988 -1.81838 4.49514 0
M  V30 5666 N 551.331 -1.39911 -0.725443 0
M  V30 5667 C 552.294 -1.39156 -1.82121 0
M  V30 5668 C 553.294 -0.287018 -1.58218 0
M  V30 5669 O 554.484 -0.545421 -1.65441 0
M  V30 5670 C 551.616 -1.1736 -3.20062 0
M  V30 5671 H 552.809 -2.36672 -1.84191 0
M  V30 5672 H 550.362 -1.25615 -0.930079 0
M  V30 5673 H 551.097 -0.205648 -3.23647 0
M  V30 5674 H 550.882 -1.97358 -3.3881 0
M  V30 5675 H 552.372 -1.19596 -4.00108 0
M  V30 5676 N 552.809 0.956637 -1.25245 0
M  V30 5677 C 554.225 1.22733 -1.02023 0
M  V30 5678 C 554.425 1.99761 0.264186 0
M  V30 5679 O 553.481 2.32814 0.977436 0
M  V30 5680 C 554.794 2.00367 -2.24217 0
M  V30 5681 C 556.342 2.13418 -2.28958 0
M  V30 5682 C 556.817 2.9445 -3.50803 0
M  V30 5683 N 558.308 3.02029 -3.51187 0
M  V30 5684 C 559.043 3.65116 -4.42129 0
M  V30 5685 N 558.539 4.2983 -5.43339 0
M  V30 5686 N 560.332 3.62237 -4.29815 0
M  V30 5687 H 552.483 0.441282 -2.07765 0
M  V30 5688 H 554.746 0.257686 -0.912306 0
M  V30 5689 H 554.452 1.51165 -3.17556 0
M  V30 5690 H 554.326 3.01077 -2.27228 0
M  V30 5691 H 556.713 2.61819 -1.36143 0
M  V30 5692 H 556.794 1.1202 -2.29968 0
M  V30 5693 H 556.438 2.46741 -4.43939 0
M  V30 5694 H 556.368 3.9607 -3.47039 0
M  V30 5695 H 558.859 2.56007 -2.77973 0
M  V30 5696 H 559.172 4.75819 -6.08947 0
M  V30 5697 H 557.517 4.28465 -5.47214 0
M  V30 5698 H 560.708 3.10863 -3.49974 0
M  V30 5699 H 560.881 4.11117 -5.00886 0
M  V30 5700 N 554.287 1.06798 1.15896 0
M  V30 5701 C 555.536 0.782796 1.8589 0
M  V30 5702 C 555.849 -0.693498 1.82893 0
M  V30 5703 O 557.055 -1.09325 2.48516 0
M  V30 5704 C 555.511 1.3502 3.33613 0
M  V30 5705 C 555.119 2.8571 3.45071 0
M  V30 5706 C 556.863 1.14278 4.08829 0
M  V30 5707 C 554.77 3.35669 4.86909 0
M  V30 5708 H 553.7 0.289149 0.696354 0
M  V30 5709 H 556.351 1.28734 1.30766 0
M  V30 5710 H 554.733 0.773407 3.88374 0
M  V30 5711 H 555.907 3.49385 3.00445 0
M  V30 5712 H 554.222 3.05178 2.83294 0
M  V30 5713 H 556.819 1.49087 5.13495 0
M  V30 5714 H 557.162 0.0814575 4.1622 0
M  V30 5715 H 557.695 1.68563 3.60321 0
M  V30 5716 H 554.434 4.41302 4.84698 0
M  V30 5717 H 553.954 2.76745 5.32139 0
M  V30 5718 H 555.633 3.31296 5.55745 0
M  V30 5719 N 555.766 -1.3263 0.851289 0
M  V30 5720 C 556.716 -2.26451 0.265302 0
M  V30 5721 C 557.7 -1.49814 -0.586899 0
M  V30 5722 O 558.892 -1.71525 -0.436834 0
M  V30 5723 C 556.021 -3.38895 -0.548212 0
M  V30 5724 C 555.107 -4.2292 0.316189 0
M  V30 5725 N 555.498 -4.86014 1.40084 0
M  V30 5726 C 553.796 -4.45876 0.105356 0
M  V30 5727 C 554.497 -5.48667 1.93235 0
M  V30 5728 N 553.473 -5.29455 1.232 0
M  V30 5729 H 557.275 -2.72757 1.09457 0
M  V30 5730 H 554.789 -1.4668 0.697047 0
M  V30 5731 H 556.786 -4.05111 -0.984402 0
M  V30 5732 H 555.446 -2.94135 -1.37531 0
M  V30 5733 H 556.457 -4.86212 1.78377 0
M  V30 5734 H 553.134 -4.11804 -0.687299 0
M  V30 5735 H 554.524 -6.08865 2.84135 0
M  V30 5736 N 557.244 -0.608902 -1.45362 0
M  V30 5737 C 558.472 -0.111013 -2.06602 0
M  V30 5738 C 558.887 1.20516 -1.45332 0
M  V30 5739 O 558.244 1.73437 -0.567978 0
M  V30 5740 C 558.295 0.033688 -3.61484 0
M  V30 5741 O 558.016 -1.23041 -4.20467 0
M  V30 5742 C 559.517 0.562882 -4.39712 0
M  V30 5743 H 556.737 -0.0694453 -0.667397 0
M  V30 5744 H 559.281 -0.837008 -1.86586 0
M  V30 5745 H 557.436 0.710016 -3.80838 0
M  V30 5746 H 557.85 -1.06094 -5.13658 0
M  V30 5747 H 559.324 0.613213 -5.48583 0
M  V30 5748 H 559.801 1.58543 -4.09586 0
M  V30 5749 H 560.407 -0.0794454 -4.25226 0
M  V30 5750 N 558.722 1.53707 -0.348139 0
M  V30 5751 C 559.97 2.00591 0.246478 0
M  V30 5752 C 560.291 1.23753 1.50699 0
M  V30 5753 O 559.561 0.345964 1.92821 0
M  V30 5754 H 558.141 0.741053 0.0940679 0
M  V30 5755 H 560.803 1.89139 -0.470354 0
M  V30 5756 H 559.899 3.08297 0.485714 0
M  V30 5757 N 560.2 0.0768682 1.57412 0
M  V30 5758 C 561.428 -0.59997 1.9801 0
M  V30 5759 C 561.843 -1.62842 0.955408 0
M  V30 5760 O 561.2 -1.8241 -0.057314 0
M  V30 5761 C 561.251 -1.26401 3.38681 0
M  V30 5762 O 560.972 -0.276723 4.37225 0
M  V30 5763 C 562.473 -2.0282 3.94182 0
M  V30 5764 H 559.693 -0.162239 0.651091 0
M  V30 5765 H 562.237 0.150771 2.03943 0
M  V30 5766 H 560.392 -1.96581 3.33819 0
M  V30 5767 H 560.806 -0.753744 5.19056 0
M  V30 5768 H 562.28 -2.44667 4.94815 0
M  V30 5769 H 562.757 -2.88678 3.31001 0
M  V30 5770 H 563.363 -1.37496 4.02461 0
M  V30 5771 N 561.678 -1.56367 -0.196722 0
M  V30 5772 C 563.094 -1.49916 -0.54749 0
M  V30 5773 C 563.294 -0.77659 -1.85934 0
M  V30 5774 O 562.35 -0.32644 -2.50381 0
M  V30 5775 C 563.663 -2.94577 -0.603734 0
M  V30 5776 C 565.211 -3.05239 -0.692677 0
M  V30 5777 C 565.686 -4.51308 -0.780046 0
M  V30 5778 N 567.177 -4.55453 -0.843616 0
M  V30 5779 C 567.912 -5.65786 -0.931358 0
M  V30 5780 N 567.408 -6.85812 -0.981503 0
M  V30 5781 N 569.201 -5.53695 -0.968421 0
M  V30 5782 H 561.352 -2.01761 0.663803 0
M  V30 5783 H 563.615 -0.918094 0.236238 0
M  V30 5784 H 563.321 -3.50494 0.29105 0
M  V30 5785 H 563.195 -3.47841 -1.45898 0
M  V30 5786 H 565.582 -2.49372 -1.57789 0
M  V30 5787 H 565.663 -2.55103 0.188736 0
M  V30 5788 H 565.307 -5.078 0.100811 0
M  V30 5789 H 565.237 -4.99176 -1.67724 0
M  V30 5790 H 567.728 -3.69025 -0.814176 0
M  V30 5791 H 568.041 -7.65648 -1.04892 0
M  V30 5792 H 566.386 -6.88474 -0.950208 0
M  V30 5793 H 569.577 -4.58848 -0.926072 0
M  V30 5794 H 569.75 -6.39708 -1.03334 0
M  V30 5795 N 563.156 0.464375 -1.50603 0
M  V30 5796 C 564.384 1.23907 -1.65695 0
M  V30 5797 C 564.799 1.85658 -0.343027 0
M  V30 5798 O 564.156 1.69529 0.675739 0
M  V30 5799 C 564.207 2.3429 -2.75301 0
M  V30 5800 O 563.928 1.7507 -4.01599 0
M  V30 5801 C 565.429 3.25051 -3.01424 0
M  V30 5802 H 562.649 0.374485 -0.556778 0
M  V30 5803 H 565.193 0.55353 -1.96866 0
M  V30 5804 H 563.348 2.98607 -2.46804 0
M  V30 5805 H 563.762 2.47812 -4.62266 0
M  V30 5806 H 565.236 3.98699 -3.81763 0
M  V30 5807 H 565.713 3.84227 -2.12758 0
M  V30 5808 H 566.319 2.66463 -3.31477 0
M  V30 5809 N 564.634 1.40294 0.718013 0
M  V30 5810 C 566.045 1.34289 1.29705 0
M  V30 5811 C 566.396 0.0152228 1.96194 0
M  V30 5812 O 565.521 -0.88682 1.97394 0
M  V30 5813 C 566.116 2.43219 2.3586 0
M  V30 5814 C 564.675 2.40682 2.89394 0
M  V30 5815 C 563.822 2.24223 1.63154 0
M  V30 5816 H 566.773 1.50135 0.514312 0
M  V30 5817 H 566.794 2.10986 3.16647 0
M  V30 5818 H 566.306 3.39836 1.87439 0
M  V30 5819 H 564.407 1.47756 3.42051 0
M  V30 5820 H 564.52 3.36177 3.41353 0
M  V30 5821 H 562.884 1.71696 1.88129 0
M  V30 5822 H 563.667 3.22834 1.16761 0
M  V30 5823 N 566.112 -0.949982 1.2575 0
M  V30 5824 C 567.361 -1.68956 1.10168 0
M  V30 5825 C 567.674 -1.92327 -0.356309 0
M  V30 5826 O 568.88 -2.64026 -0.632657 0
M  V30 5827 C 567.336 -3.04196 1.92336 0
M  V30 5828 C 566.944 -2.88603 3.42655 0
M  V30 5829 C 568.688 -3.81904 1.85336 0
M  V30 5830 C 566.595 -4.19262 4.17101 0
M  V30 5831 H 565.525 -0.633645 0.408668 0
M  V30 5832 H 568.176 -1.05719 1.49986 0
M  V30 5833 H 566.558 -3.68363 1.45344 0
M  V30 5834 H 567.732 -2.3334 3.97353 0
M  V30 5835 H 566.047 -2.24345 3.50796 0
M  V30 5836 H 568.644 -4.78688 2.38248 0
M  V30 5837 H 568.987 -4.08099 0.822226 0
M  V30 5838 H 569.52 -3.24495 2.30104 0
M  V30 5839 H 566.259 -3.98254 5.20648 0
M  V30 5840 H 565.779 -4.74273 3.67186 0
M  V30 5841 H 567.458 -4.87775 4.25071 0
M  V30 5842 N 567.59 -1.07411 -1.15328 0
M  V30 5843 C 568.839 -0.792643 -1.85473 0
M  V30 5844 C 569.152 0.683789 -1.83259 0
M  V30 5845 O 570.358 1.08005 -2.49093 0
M  V30 5846 C 568.814 -1.36787 -3.32892 0
M  V30 5847 C 568.422 -2.87536 -3.43551 0
M  V30 5848 C 570.166 -1.16444 -4.08217 0
M  V30 5849 C 568.073 -3.38247 -4.85122 0
M  V30 5850 H 567.003 -0.292838 -0.694811 0
M  V30 5851 H 569.654 -1.29426 -1.30082 0
M  V30 5852 H 568.036 -0.793993 -3.87958 0
M  V30 5853 H 569.21 -3.50973 -2.98588 0
M  V30 5854 H 567.525 -3.06676 -2.81672 0
M  V30 5855 H 570.122 -1.51808 -5.12697 0
M  V30 5856 H 570.465 -0.10353 -4.16171 0
M  V30 5857 H 570.998 -1.70472 -3.59422 0
M  V30 5858 H 567.737 -4.43866 -4.82351 0
M  V30 5859 H 567.257 -2.79564 -5.30664 0
M  V30 5860 H 568.936 -3.34238 -5.5398 0
M  V30 5861 N 569.068 1.32177 -0.85831 0
M  V30 5862 C 570.031 2.27086 -0.310588 0
M  V30 5863 C 571.031 1.51751 0.531806 0
M  V30 5864 O 572.221 1.70794 0.34279 0
M  V30 5865 C 569.353 3.36266 0.560179 0
M  V30 5866 H 570.546 2.77045 -1.1483 0
M  V30 5867 H 568.099 1.42911 -0.632942 0
M  V30 5868 H 568.834 2.9158 1.41956 0
M  V30 5869 H 568.619 3.92077 -0.0428473 0
M  V30 5870 H 570.109 4.06974 0.936056 0
M  V30 5871 N 570.547 0.616602 1.45037 0
M  V30 5872 C 571.775 0.121968 2.0654 0
M  V30 5873 C 572.19 -1.19743 1.45969 0
M  V30 5874 O 571.547 -1.73133 0.577168 0
M  V30 5875 C 571.598 -0.0145171 3.61497 0
M  V30 5876 O 571.319 1.25269 4.19809 0
M  V30 5877 C 572.82 -0.539555 4.40004 0
M  V30 5878 H 570.04 0.0729837 0.667019 0
M  V30 5879 H 572.584 0.846891 1.8614 0
M  V30 5880 H 570.739 -0.689809 3.81209 0
M  V30 5881 H 571.153 1.08816 5.13088 0
M  V30 5882 H 572.627 -0.584112 5.48901 0
M  V30 5883 H 573.104 -1.56368 4.10421 0
M  V30 5884 H 573.71 0.101995 4.25178 0
M  V30 5885 N 572.025 -1.5352 0.356285 0
M  V30 5886 C 573.271 -2.01414 -0.236653 0
M  V30 5887 C 573.604 -1.24339 -1.49176 0
M  V30 5888 O 572.879 -0.334496 -1.91602 0
M  V30 5889 C 573.162 -3.56059 -0.537982 0
M  V30 5890 C 573.015 -4.43835 0.730112 0
M  V30 5891 C 574.334 -4.19127 -1.34239 0
M  V30 5892 H 571.453 -0.732135 -0.0845386 0
M  V30 5893 H 574.095 -1.83854 0.479341 0
M  V30 5894 H 572.245 -3.71153 -1.14795 0
M  V30 5895 H 573.917 -4.40555 1.36782 0
M  V30 5896 H 572.16 -4.1218 1.3524 0
M  V30 5897 H 572.831 -5.49958 0.474358 0
M  V30 5898 H 575.307 -4.07809 -0.826498 0
M  V30 5899 H 574.183 -5.27378 -1.52198 0
M  V30 5900 H 574.444 -3.74581 -2.34822 0
M  V30 5901 N 573.503 -0.0852151 -1.57369 0
M  V30 5902 C 574.749 0.581666 -1.94279 0
M  V30 5903 C 575.082 1.68444 -0.966446 0
M  V30 5904 O 574.357 1.945 0.00215277 0
M  V30 5905 C 574.64 1.14609 -3.41375 0
M  V30 5906 C 574.493 0.0490414 -4.49773 0
M  V30 5907 C 575.812 2.04751 -3.8957 0
M  V30 5908 H 572.931 0.209972 -0.706456 0
M  V30 5909 H 575.573 -0.153915 -1.89376 0
M  V30 5910 H 573.723 1.77297 -3.45685 0
M  V30 5911 H 575.395 -0.584721 -4.57579 0
M  V30 5912 H 573.638 -0.618638 -4.29366 0
M  V30 5913 H 574.309 0.484601 -5.49869 0
M  V30 5914 H 576.785 1.51981 -3.87351 0
M  V30 5915 H 575.661 2.41173 -4.93079 0
M  V30 5916 H 575.922 2.96107 -3.28288 0
M  V30 5917 N 574.981 1.5647 0.188427 0
M  V30 5918 C 576.206 1.85486 0.927891 0
M  V30 5919 C 576.631 0.669575 1.75779 0
M  V30 5920 O 575.989 -0.381573 1.77239 0
M  V30 5921 C 576.037 3.12784 1.7944 0
M  V30 5922 O 575.141 2.93805 2.894 0
M  V30 5923 H 574.482 0.610585 0.260925 0
M  V30 5924 H 577.012 2.037 0.191729 0
M  V30 5925 H 577.022 3.43749 2.19774 0
M  V30 5926 H 575.697 3.98671 1.18468 0
M  V30 5927 H 574.274 2.74153 2.52774 0
M  V30 5928 N 576.459 -0.456382 1.50847 0
M  V30 5929 C 577.707 -1.20497 1.62249 0
M  V30 5930 C 578.028 -1.92156 0.331839 0
M  V30 5931 O 577.298 -1.84751 -0.651443 0
M  V30 5932 H 575.878 -0.447775 0.597918 0
M  V30 5933 H 578.54 -0.525099 1.87693 0
M  V30 5934 H 577.636 -1.94492 2.44089 0
M  V30 5935 N 577.937 -1.40673 -0.710563 0
M  V30 5936 C 579.186 -1.38525 -1.46607 0
M  V30 5937 C 579.499 0.0077024 -1.95598 0
M  V30 5938 O 580.705 0.151792 -2.71075 0
M  V30 5939 C 579.161 -2.43489 -2.6503 0
M  V30 5940 C 578.769 -3.88619 -2.22888 0
M  V30 5941 C 580.513 -2.50456 -3.42742 0
M  V30 5942 C 578.42 -4.85168 -3.3818 0
M  V30 5943 H 577.35 -0.515092 -0.550632 0
M  V30 5944 H 580.001 -1.66431 -0.772846 0
M  V30 5945 H 578.383 -2.0869 -3.36548 0
M  V30 5946 H 579.557 -4.32588 -1.58758 0
M  V30 5947 H 577.872 -3.85174 -1.58208 0
M  V30 5948 H 580.469 -3.19776 -4.28541 0
M  V30 5949 H 580.812 -1.53665 -3.86902 0
M  V30 5950 H 581.345 -2.84271 -2.78271 0
M  V30 5951 H 578.084 -5.8331 -2.99047 0
M  V30 5952 H 577.604 -4.4586 -4.01209 0
M  V30 5953 H 579.283 -5.05225 -4.04174 0
M  V30 5954 N 579.415 0.9433 -1.26252 0
M  V30 5955 C 580.664 1.68369 -1.11062 0
M  V30 5956 C 580.977 1.92514 0.346104 0
M  V30 5957 O 582.183 2.64358 0.618646 0
M  V30 5958 C 580.639 3.03171 -1.93946 0
M  V30 5959 C 580.247 2.86782 -3.4418 0
M  V30 5960 C 581.991 3.80916 -1.87359 0
M  V30 5961 C 579.898 4.17044 -4.19319 0
M  V30 5962 H 578.828 0.631469 -0.412023 0
M  V30 5963 H 581.479 1.04922 -1.50544 0
M  V30 5964 H 579.861 3.67587 -1.47296 0
M  V30 5965 H 581.035 2.31229 -3.98585 0
M  V30 5966 H 579.35 2.22482 -3.51981 0
M  V30 5967 H 581.947 4.77417 -2.40784 0
M  V30 5968 H 582.29 4.07658 -0.843857 0
M  V30 5969 H 582.823 3.2327 -2.31821 0
M  V30 5970 H 579.562 3.95487 -5.22753 0
M  V30 5971 H 579.082 4.72319 -3.69696 0
M  V30 5972 H 580.761 4.85513 -4.27651 0
M  V30 5973 N 580.893 1.08022 1.14757 0
M  V30 5974 C 581.856 0.71048 2.1791 0
M  V30 5975 C 582.856 -0.252731 1.58801 0
M  V30 5976 O 584.046 -0.0327915 1.74169 0
M  V30 5977 C 581.178 0.0483203 3.40866 0
M  V30 5978 H 582.371 1.62384 2.52134 0
M  V30 5979 H 579.924 0.877595 1.29337 0
M  V30 5980 H 580.659 -0.876959 3.12218 0
M  V30 5981 H 580.444 0.741189 3.85031 0
M  V30 5982 H 581.934 -0.195471 4.17142 0
M  V30 5983 N 582.371 -1.3172 0.865308 0
M  V30 5984 C 583.334 -2.26918 0.322627 0
M  V30 5985 C 584.334 -1.52031 -0.523751 0
M  V30 5986 O 585.524 -1.70973 -0.333727 0
M  V30 5987 C 582.656 -3.36558 -0.542338 0
M  V30 5988 H 583.849 -2.76432 1.16298 0
M  V30 5989 H 581.402 -1.42573 0.640512 0
M  V30 5990 H 582.137 -2.92329 -1.40407 0
M  V30 5991 H 581.922 -3.92048 0.0636395 0
M  V30 5992 H 583.412 -4.07465 -0.91446 0
M  V30 5993 N 583.85 -0.624285 -1.44708 0
M  V30 5994 C 585.096 -0.126051 -2.02107 0
M  V30 5995 C 585.425 1.2496 -1.49048 0
M  V30 5996 O 584.68 1.84163 -0.662005 0
M  V30 5997 C 584.979 -0.0546353 -3.57358 0
M  V30 5998 C 584.644 -1.36815 -4.29642 0
M  V30 5999 C 583.307 -1.72792 -4.49106 0
M  V30 6000 C 585.659 -2.23549 -4.70824 0
M  V30 6001 C 582.986 -2.95222 -5.07012 0
M  V30 6002 C 585.339 -3.45243 -5.30085 0
M  V30 6003 C 584.003 -3.81452 -5.47769 0
M  V30 6004 H 583.273 -0.0461252 -0.739563 0
M  V30 6005 H 585.92 -0.809236 -1.73562 0
M  V30 6006 H 584.225 0.711891 -3.85278 0
M  V30 6007 H 585.922 0.347282 -3.99493 0
M  V30 6008 H 582.512 -1.07817 -4.14817 0
M  V30 6009 H 586.696 -1.9705 -4.55505 0
M  V30 6010 H 581.952 -3.23361 -5.18891 0
M  V30 6011 H 586.125 -4.12689 -5.60946 0
M  V30 6012 H 583.753 -4.76403 -5.92405 0
M  V30 6013 N 585.328 1.53329 -0.364422 0
M  V30 6014 C 586.261 2.22052 0.526145 0
M  V30 6015 C 587.239 1.21203 1.08391 0
M  V30 6016 O 588.423 1.50101 1.14026 0
M  V30 6017 C 585.55 2.91432 1.72583 0
M  V30 6018 C 584.596 4.06345 1.29562 0
M  V30 6019 S 585.429 5.34671 0.297885 0
M  V30 6020 C 586.585 6.07563 1.50392 0
M  V30 6021 H 586.818 2.97244 -0.0575055 0
M  V30 6022 H 584.351 1.53684 -0.148525 0
M  V30 6023 H 586.309 3.3202 2.41398 0
M  V30 6024 H 584.97 2.15966 2.28073 0
M  V30 6025 H 584.163 4.53901 2.19067 0
M  V30 6026 H 583.765 3.67642 0.686696 0
M  V30 6027 H 586.057 6.32224 2.43513 0
M  V30 6028 H 587 6.99973 1.06977 0
M  V30 6029 H 587.408 5.37994 1.70945 0
M  V30 6030 N 586.806 0.0935595 1.57322 0
M  V30 6031 C 587.769 -0.851426 2.12799 0
M  V30 6032 C 588.769 -1.21187 1.0569 0
M  V30 6033 O 589.959 -1.14156 1.31583 0
M  V30 6034 C 587.091 -2.14779 2.64731 0
M  V30 6035 H 588.284 -0.369733 2.97612 0
M  V30 6036 H 585.837 -0.155417 1.55525 0
M  V30 6037 H 586.572 -2.67437 1.83434 0
M  V30 6038 H 586.357 -1.89907 3.43042 0
M  V30 6039 H 587.847 -2.82383 3.07651 0
M  V30 6040 N 588.284 -1.56567 -0.180126 0
M  V30 6041 C 589.531 -1.81492 -0.898167 0
M  V30 6042 C 589.859 -0.669225 -1.82624 0
M  V30 6043 O 589.114 0.344096 -1.92651 0
M  V30 6044 C 589.413 -3.1252 -1.73395 0
M  V30 6045 C 589.079 -4.40658 -0.955567 0
M  V30 6046 C 587.741 -4.75465 -0.740707 0
M  V30 6047 C 590.093 -5.19593 -0.408948 0
M  V30 6048 C 587.421 -5.86691 0.0320128 0
M  V30 6049 C 589.773 -6.31627 0.350638 0
M  V30 6050 C 588.437 -6.65007 0.576378 0
M  V30 6051 H 587.707 -0.664125 -0.328662 0
M  V30 6052 H 590.354 -1.908 -0.163616 0
M  V30 6053 H 588.659 -2.98515 -2.53763 0
M  V30 6054 H 590.356 -3.29013 -2.29241 0
M  V30 6055 H 586.946 -4.13352 -1.13306 0
M  V30 6056 H 591.13 -4.93104 -0.562307 0
M  V30 6057 H 586.386 -6.11016 0.216735 0
M  V30 6058 H 590.56 -6.92001 0.781497 0
M  V30 6059 H 588.187 -7.51033 1.17703 0
M  V30 6060 N 589.762 0.448376 -1.51087 0
M  V30 6061 C 590.692 1.55102 -1.74544 0
M  V30 6062 C 591.673 1.59357 -0.594932 0
M  V30 6063 O 592.858 1.75261 -0.836491 0
M  V30 6064 C 589.988 2.93268 -1.86041 0
M  V30 6065 C 588.942 3.03877 -3.01402 0
M  V30 6066 C 588.268 4.43914 -2.98068 0
M  V30 6067 C 589.568 2.7898 -4.41551 0
M  V30 6068 H 591.262 1.35724 -2.66869 0
M  V30 6069 H 588.808 0.651498 -1.28419 0
M  V30 6070 H 590.761 3.70356 -2.01034 0
M  V30 6071 H 589.485 3.13853 -0.903548 0
M  V30 6072 H 588.144 2.29227 -2.86096 0
M  V30 6073 H 587.792 4.6145 -2.00182 0
M  V30 6074 H 587.492 4.51944 -3.75527 0
M  V30 6075 H 589.016 5.22991 -3.1514 0
M  V30 6076 H 590.43 3.45805 -4.57265 0
M  V30 6077 H 588.827 2.98431 -5.20633 0
M  V30 6078 H 589.897 1.74663 -4.5235 0
M  V30 6079 N 591.24 1.41047 0.703093 0
M  V30 6080 C 592.487 1.4 1.46309 0
M  V30 6081 C 592.815 0.00654574 1.94499 0
M  V30 6082 O 592.07 -0.980255 1.6938 0
M  V30 6083 C 592.369 2.34686 2.6955 0
M  V30 6084 C 592.035 3.81684 2.40058 0
M  V30 6085 C 590.697 4.21731 2.31725 0
M  V30 6086 C 593.049 4.74525 2.15581 0
M  V30 6087 C 590.377 5.52637 1.97001 0
M  V30 6088 C 592.729 6.05744 1.82366 0
M  V30 6089 C 591.393 6.44819 1.72524 0
M  V30 6090 H 590.663 0.512295 0.535382 0
M  V30 6091 H 593.31 1.73792 0.804275 0
M  V30 6092 H 591.615 1.94122 3.40329 0
M  V30 6093 H 593.312 2.31152 3.27673 0
M  V30 6094 H 589.902 3.49963 2.47435 0
M  V30 6095 H 594.086 4.44395 2.20968 0
M  V30 6096 H 589.342 5.81802 1.87928 0
M  V30 6097 H 593.516 6.77189 1.62444 0
M  V30 6098 H 591.143 7.46168 1.45385 0
M  V30 6099 N 592.718 -0.936591 1.26751 0
M  V30 6100 C 593.665 -2.03597 1.08706 0
M  V30 6101 C 594.635 -1.66097 -0.00926542 0
M  V30 6102 O 595.82 -1.90199 0.151377 0
M  V30 6103 C 592.96 -3.3727 0.73094 0
M  V30 6104 C 592.073 -3.87778 1.90399 0
M  V30 6105 C 591.208 -5.09859 1.49056 0
M  V30 6106 C 590.247 -5.5264 2.63164 0
M  V30 6107 N 589.384 -6.65921 2.22471 0
M  V30 6108 H 594.224 -2.18364 2.02784 0
M  V30 6109 H 591.761 -1.06985 1.00958 0
M  V30 6110 H 593.719 -4.14128 0.505328 0
M  V30 6111 H 592.349 -3.22337 -0.172868 0
M  V30 6112 H 591.401 -3.07279 2.2424 0
M  V30 6113 H 592.713 -4.15464 2.76028 0
M  V30 6114 H 591.867 -5.9419 1.22567 0
M  V30 6115 H 590.606 -4.8393 0.60524 0
M  V30 6116 H 589.611 -4.66863 2.90377 0
M  V30 6117 H 590.836 -5.80568 3.52303 0
M  V30 6118 H 588.782 -6.41667 1.36379 0
M  V30 6119 H 588.699 -6.93216 3.01641 0
M  V30 6120 H 589.967 -7.53616 1.99205 0
M  V30 6121 N 594.196 -1.08629 -1.14182 0
M  V30 6122 C 595.126 -0.740003 -2.21464 0
M  V30 6123 C 596.107 0.278591 -1.67803 0
M  V30 6124 O 597.292 0.148461 -1.93632 0
M  V30 6125 C 594.422 -0.150952 -3.46972 0
M  V30 6126 C 593.376 -1.09815 -4.13672 0
M  V30 6127 C 592.702 -0.3712 -5.3341 0
M  V30 6128 C 594.002 -2.43722 -4.61949 0
M  V30 6129 H 595.696 -1.63697 -2.50686 0
M  V30 6130 H 593.242 -0.788526 -1.20492 0
M  V30 6131 H 595.195 0.103325 -4.21273 0
M  V30 6132 H 593.919 0.781164 -3.1712 0
M  V30 6133 H 592.578 -1.33756 -3.41328 0
M  V30 6134 H 592.226 0.564792 -4.99819 0
M  V30 6135 H 591.926 -1.00267 -5.78982 0
M  V30 6136 H 593.45 -0.12503 -6.10472 0
M  V30 6137 H 594.864 -2.24034 -5.27714 0
M  V30 6138 H 593.261 -3.02582 -5.18232 0
M  V30 6139 H 594.331 -3.05082 -3.76899 0
M  V30 6140 N 595.674 1.31259 -0.872281 0
M  V30 6141 C 596.902 2.00795 -0.498907 0
M  V30 6142 C 597.317 1.65464 0.909238 0
M  V30 6143 O 596.674 0.885073 1.59602 0
M  V30 6144 C 596.725 3.55625 -0.649092 0
M  V30 6145 O 596.446 3.89692 -2.00179 0
M  V30 6146 C 597.947 4.42434 -0.277034 0
M  V30 6147 H 595.167 0.642299 -0.194145 0
M  V30 6148 H 597.711 1.67438 -1.17408 0
M  V30 6149 H 595.866 3.87394 -0.0214402 0
M  V30 6150 H 596.28 4.84407 -2.01122 0
M  V30 6151 H 597.754 5.50299 -0.433064 0
M  V30 6152 H 598.231 4.32146 0.783989 0
M  V30 6153 H 598.837 4.16086 -0.880483 0
M  V30 6154 N 597.152 0.631951 1.44375 0
M  V30 6155 C 598.429 0.067646 1.95483 0
M  V30 6156 C 598.809 -1.40683 1.57389 0
M  V30 6157 O 598.157 -2.12167 0.848375 0
M  V30 6158 C 598.367 0.291392 3.47781 0
M  V30 6159 C 599.715 0.185028 4.24197 0
M  V30 6160 O 600.739 0.222803 3.55503 0
M  V30 6161 O 599.598 0.0906642 5.46425 0
M  V30 6162 H 596.692 -0.0218379 0.826712 0
M  V30 6163 H 599.238 0.703711 1.54421 0
M  V30 6164 H 598.01 1.31449 3.68561 0
M  V30 6165 H 597.633 -0.378772 3.95792 0
M  V30 6166 N 598.631 -1.53133 0.372548 0
M  V30 6167 C 599.561 -2.28876 -0.462412 0
M  V30 6168 C 600.542 -1.31583 -1.07796 0
M  V30 6169 O 601.727 -1.60461 -1.09389 0
M  V30 6170 C 598.857 -3.08317 -1.59868 0
M  V30 6171 C 597.811 -4.13355 -1.11003 0
M  V30 6172 C 597.137 -4.8092 -2.33708 0
M  V30 6173 C 598.437 -5.21955 -0.18983 0
M  V30 6174 H 600.131 -2.9892 0.169511 0
M  V30 6175 H 597.677 -1.43761 0.0829658 0
M  V30 6176 H 599.63 -3.60055 -2.18949 0
M  V30 6177 H 598.354 -2.35976 -2.25794 0
M  V30 6178 H 597.013 -3.62573 -0.541869 0
M  V30 6179 H 596.661 -4.05144 -2.98106 0
M  V30 6180 H 596.361 -5.51904 -2.01682 0
M  V30 6181 H 597.885 -5.35455 -2.93462 0
M  V30 6182 H 599.299 -5.69153 -0.688319 0
M  V30 6183 H 597.696 -6.00087 0.0398887 0
M  V30 6184 H 598.766 -4.78811 0.766057 0
M  V30 6185 N 600.109 -0.101901 -1.5727 0
M  V30 6186 C 601.355 0.561027 -1.94885 0
M  V30 6187 C 601.688 1.6741 -0.984258 0
M  V30 6188 O 600.963 1.94491 -0.0184767 0
M  V30 6189 C 601.246 1.10982 -3.42571 0
M  V30 6190 C 601.099 0.00133418 -4.498 0
M  V30 6191 C 602.418 2.00608 -3.9172 0
M  V30 6192 H 599.537 0.202467 -0.708644 0
M  V30 6193 H 602.179 -0.173992 -1.89202 0
M  V30 6194 H 600.329 1.73621 -3.47546 0
M  V30 6195 H 602.001 -0.63322 -4.56933 0
M  V30 6196 H 600.244 -0.664143 -4.28686 0
M  V30 6197 H 600.915 0.426253 -5.50352 0
M  V30 6198 H 603.391 1.47864 -3.88941 0
M  V30 6199 H 602.267 2.3593 -4.95609 0
M  V30 6200 H 602.528 2.92608 -3.3141 0
M  V30 6201 N 601.587 1.56661 0.17182 0
M  V30 6202 C 602.864 1.72838 0.915778 0
M  V30 6203 C 603.244 0.66316 2.00413 0
M  V30 6204 O 602.592 -0.322123 2.26218 0
M  V30 6205 C 602.802 3.16019 1.48097 0
M  V30 6206 C 604.15 3.76962 1.95408 0
M  V30 6207 O 605.174 3.19294 1.57892 0
M  V30 6208 O 604.033 4.78219 2.64516 0
M  V30 6209 H 601.127 0.705797 0.431021 0
M  V30 6210 H 603.673 1.68947 0.159689 0
M  V30 6211 H 602.445 3.85031 0.697618 0
M  V30 6212 H 602.068 3.24234 2.30126 0
M  V30 6213 N 603.065 -0.440357 1.51323 0
M  V30 6214 C 603.995 -1.54174 1.75364 0
M  V30 6215 C 604.976 -1.59039 0.603375 0
M  V30 6216 O 606.161 -1.74815 0.845774 0
M  V30 6217 C 603.291 -2.92277 1.87593 0
M  V30 6218 C 602.245 -3.02274 3.03009 0
M  V30 6219 C 601.571 -4.42327 3.00418 0
M  V30 6220 C 602.871 -2.76634 4.43024 0
M  V30 6221 H 604.565 -1.34307 2.67585 0
M  V30 6222 H 602.111 -0.644678 1.28763 0
M  V30 6223 H 604.064 -3.69284 2.02995 0
M  V30 6224 H 602.788 -3.13369 0.920179 0
M  V30 6225 H 601.447 -2.27706 2.87307 0
M  V30 6226 H 601.095 -4.60382 2.02626 0
M  V30 6227 H 600.795 -4.49946 3.77918 0
M  V30 6228 H 602.319 -5.21312 3.17909 0
M  V30 6229 H 603.733 -3.43376 4.59093 0
M  V30 6230 H 602.13 -2.95666 5.22208 0
M  V30 6231 H 603.2 -1.72262 4.5327 0
M  V30 6232 N 604.543 -1.41418 -0.695603 0
M  V30 6233 C 605.476 -1.3768 -1.81988 0
M  V30 6234 C 606.454 -0.244061 -1.60758 0
M  V30 6235 O 607.638 -0.430965 -1.83507 0
M  V30 6236 C 604.765 -1.1476 -3.18666 0
M  V30 6237 C 603.811 -2.30752 -3.58686 0
M  V30 6238 S 604.644 -3.9323 -3.63498 0
M  V30 6239 C 605.8 -3.72613 -5.02902 0
M  V30 6240 H 606.033 -2.32822 -1.84882 0
M  V30 6241 H 603.566 -1.27942 -0.86431 0
M  V30 6242 H 605.524 -1.02223 -3.97569 0
M  V30 6243 H 604.185 -0.212385 -3.13381 0
M  V30 6244 H 603.378 -2.10409 -4.57978 0
M  V30 6245 H 602.98 -2.39696 -2.87092 0
M  V30 6246 H 605.272 -3.32317 -5.904 0
M  V30 6247 H 606.215 -4.71507 -5.28286 0
M  V30 6248 H 606.623 -3.0589 -4.74438 0
M  V30 6249 N 606.021 0.929856 -1.27246 0
M  V30 6250 C 607.246 1.71674 -1.16374 0
M  V30 6251 C 607.671 1.86064 0.276024 0
M  V30 6252 O 607.029 1.3591 1.19992 0
M  V30 6253 C 607.077 3.09526 -1.85003 0
M  V30 6254 O 606.181 3.96142 -1.14653 0
M  V30 6255 H 605.522 0.52629 -0.404863 0
M  V30 6256 H 608.052 1.16381 -1.68276 0
M  V30 6257 H 608.062 3.59852 -1.92276 0
M  V30 6258 H 606.737 2.98369 -2.89739 0
M  V30 6259 H 605.314 3.54584 -1.15433 0
M  V30 6260 N 607.499 1.09233 1.13605 0
M  V30 6261 C 608.748 0.82205 1.84188 0
M  V30 6262 C 609.061 -0.654548 1.84323 0
M  V30 6263 O 610.267 -1.04029 2.50779 0
M  V30 6264 C 608.723 1.42066 3.30674 0
M  V30 6265 C 608.331 2.92965 3.38933 0
M  V30 6266 C 610.075 1.22924 4.06313 0
M  V30 6267 C 607.982 3.45922 4.79679 0
M  V30 6268 H 606.912 0.303854 0.690064 0
M  V30 6269 H 609.563 1.31479 1.28006 0
M  V30 6270 H 607.945 0.855613 3.86646 0
M  V30 6271 H 609.119 3.55679 2.92966 0
M  V30 6272 H 607.434 3.11118 2.76757 0
M  V30 6273 H 610.031 1.59945 5.10217 0
M  V30 6274 H 610.374 0.169726 4.15954 0
M  V30 6275 H 610.907 1.76168 3.56665 0
M  V30 6276 H 607.646 4.51484 4.75229 0
M  V30 6277 H 607.166 2.87971 5.26149 0
M  V30 6278 H 608.845 3.43009 5.48592 0
M  V30 6279 N 608.977 -1.30795 0.87923 0
M  V30 6280 C 610.225 -1.95974 0.493809 0
M  V30 6281 C 610.546 -1.69787 -0.959021 0
M  V30 6282 O 609.816 -1.01832 -1.67353 0
M  V30 6283 H 608.396 -0.725083 0.179622 0
M  V30 6284 H 611.058 -1.59432 1.12105 0
M  V30 6285 H 610.154 -3.05058 0.659263 0
M  V30 6286 N 610.455 -0.639598 -1.44038 0
M  V30 6287 C 611.683 -0.154811 -2.0632 0
M  V30 6288 C 612.098 1.17406 -1.47856 0
M  V30 6289 O 611.455 1.72193 -0.604638 0
M  V30 6290 C 611.506 -0.0429958 -3.61474 0
M  V30 6291 O 611.227 -1.31932 -4.17763 0
M  V30 6292 C 612.728 0.469486 -4.40807 0
M  V30 6293 H 609.948 -0.0835862 -0.665773 0
M  V30 6294 H 612.492 -0.876397 -1.84769 0
M  V30 6295 H 610.647 0.629075 -3.82258 0
M  V30 6296 H 611.061 -1.16965 -5.11292 0
M  V30 6297 H 612.535 0.496712 -5.49761 0
M  V30 6298 H 613.012 1.49819 -4.12857 0
M  V30 6299 H 613.618 -0.169624 -4.24962 0
M  V30 6300 N 611.933 1.52934 -0.380664 0
M  V30 6301 C 612.863 2.29118 0.450268 0
M  V30 6302 C 613.844 1.32153 1.07096 0
M  V30 6303 O 615.029 1.61038 1.08537 0
M  V30 6304 C 612.159 3.09161 1.58231 0
M  V30 6305 C 611.113 4.13938 1.0881 0
M  V30 6306 C 610.439 4.82153 2.31155 0
M  V30 6307 C 611.739 5.22048 0.162146 0
M  V30 6308 H 613.433 2.98826 -0.185361 0
M  V30 6309 H 610.979 1.43715 -0.0905886 0
M  V30 6310 H 612.932 3.61211 2.17036 0
M  V30 6311 H 611.656 2.3717 2.2454 0
M  V30 6312 H 610.315 3.62855 0.522633 0
M  V30 6313 H 609.963 4.06719 2.95953 0
M  V30 6314 H 609.663 5.52966 1.98752 0
M  V30 6315 H 611.187 5.37004 2.90618 0
M  V30 6316 H 612.601 5.6951 0.658126 0
M  V30 6317 H 610.998 6.00057 -0.0717122 0
M  V30 6318 H 612.068 4.78398 -0.791438 0
M  V30 6319 N 613.412 0.11024 1.57214 0
M  V30 6320 C 614.342 -0.840002 2.17867 0
M  V30 6321 C 615.323 -1.28352 1.11624 0
M  V30 6322 O 616.508 -1.3477 1.39824 0
M  V30 6323 C 613.638 -2.09349 2.77111 0
M  V30 6324 C 612.592 -1.78807 3.8886 0
M  V30 6325 C 611.918 -3.11112 4.34872 0
M  V30 6326 C 613.218 -1.0632 5.11364 0
M  V30 6327 H 614.912 -0.334608 2.97524 0
M  V30 6328 H 612.458 -0.159502 1.43114 0
M  V30 6329 H 614.411 -2.76275 3.18198 0
M  V30 6330 H 613.135 -2.62198 1.9473 0
M  V30 6331 H 611.794 -1.14273 3.48335 0
M  V30 6332 H 611.442 -3.61877 3.49362 0
M  V30 6333 H 611.142 -2.91453 5.10224 0
M  V30 6334 H 612.666 -3.79171 4.78604 0
M  V30 6335 H 614.08 -1.63383 5.49526 0
M  V30 6336 H 612.477 -0.967876 5.92243 0
M  V30 6337 H 613.547 -0.0484569 4.84876 0
M  V30 6338 N 614.89 -1.56749 -0.16351 0
M  V30 6339 C 615.853 -1.96121 -1.18613 0
M  V30 6340 C 616.853 -0.845765 -1.36761 0
M  V30 6341 O 618.043 -1.11268 -1.34033 0
M  V30 6342 C 615.175 -2.26282 -2.54969 0
M  V30 6343 H 616.368 -2.87639 -0.848764 0
M  V30 6344 H 613.921 -1.50928 -0.406251 0
M  V30 6345 H 614.656 -1.37504 -2.93706 0
M  V30 6346 H 614.441 -3.07595 -2.43162 0
M  V30 6347 H 615.931 -2.57638 -3.28653 0
M  V30 6348 N 616.368 0.432326 -1.51554 0
M  V30 6349 C 617.598 1.2019 -1.68042 0
M  V30 6350 C 618.006 1.85356 -0.379434 0
M  V30 6351 O 617.349 1.71724 0.652427 0
M  V30 6352 C 617.411 2.32387 -2.74292 0
M  V30 6353 C 617.075 1.87548 -4.16743 0
M  V30 6354 C 618.072 1.37611 -5.01357 0
M  V30 6355 C 615.757 1.95087 -4.62868 0
M  V30 6356 C 617.751 0.958069 -6.30159 0
M  V30 6357 C 615.438 1.52894 -5.91664 0
M  V30 6358 C 616.436 1.03336 -6.75137 0
M  V30 6359 O 616.124 0.617435 -8.01525 0
M  V30 6360 H 615.856 0.368132 -0.56697 0
M  V30 6361 H 618.41 0.517875 -1.98764 0
M  V30 6362 H 616.64 3.04082 -2.38895 0
M  V30 6363 H 618.329 2.94235 -2.79608 0
M  V30 6364 H 619.095 1.31178 -4.66923 0
M  V30 6365 H 614.974 2.32606 -3.98015 0
M  V30 6366 H 618.518 0.570562 -6.95263 0
M  V30 6367 H 614.415 1.58999 -6.25611 0
M  V30 6368 H 615.183 0.742835 -8.15122 0
M  V30 6369 N 617.846 1.41785 0.688094 0
M  V30 6370 C 619.071 1.45117 1.48175 0
M  V30 6371 C 619.496 0.060129 1.88004 0
M  V30 6372 O 618.854 -0.938385 1.55126 0
M  V30 6373 C 618.902 2.37224 2.71583 0
M  V30 6374 O 618.006 1.83443 3.69354 0
M  V30 6375 H 617.347 0.492208 0.445676 0
M  V30 6376 H 619.877 1.86329 0.845145 0
M  V30 6377 H 619.887 2.53353 3.19806 0
M  V30 6378 H 618.562 3.38293 2.41931 0
M  V30 6379 H 617.139 1.76802 3.28322 0
M  V30 6380 N 619.324 -0.923095 1.27737 0
M  V30 6381 C 620.254 -2.04124 1.13383 0
M  V30 6382 C 621.235 -1.70066 0.0340658 0
M  V30 6383 O 622.42 -1.93068 0.209383 0
M  V30 6384 C 619.55 -3.3831 0.785097 0
M  V30 6385 C 618.504 -3.86496 1.8386 0
M  V30 6386 C 617.83 -5.1754 1.34373 0
M  V30 6387 C 619.13 -4.09381 3.24353 0
M  V30 6388 H 620.824 -2.1639 2.06919 0
M  V30 6389 H 618.37 -1.03976 0.996243 0
M  V30 6390 H 620.323 -4.16016 0.671485 0
M  V30 6391 H 619.047 -3.2607 -0.185969 0
M  V30 6392 H 617.706 -3.10987 1.9412 0
M  V30 6393 H 617.354 -5.01696 0.361989 0
M  V30 6394 H 617.054 -5.50751 2.04811 0
M  V30 6395 H 618.578 -5.97811 1.24315 0
M  V30 6396 H 619.992 -4.77641 3.17067 0
M  V30 6397 H 618.389 -4.53906 3.92542 0
M  V30 6398 H 619.459 -3.14515 3.69064 0
M  V30 6399 N 620.802 -1.09834 -1.13024 0
M  V30 6400 C 622.048 -0.83819 -1.84668 0
M  V30 6401 C 622.381 0.634645 -1.83537 0
M  V30 6402 O 621.656 1.46753 -1.27647 0
M  V30 6403 C 621.939 -1.37933 -3.32636 0
M  V30 6404 C 621.792 -2.91857 -3.42257 0
M  V30 6405 C 623.111 -1.01654 -4.28199 0
M  V30 6406 H 620.23 -0.30595 -0.670495 0
M  V30 6407 H 622.872 -1.36044 -1.32635 0
M  V30 6408 H 621.022 -0.935111 -3.77078 0
M  V30 6409 H 622.694 -3.44759 -3.06495 0
M  V30 6410 H 620.937 -3.28776 -2.83 0
M  V30 6411 H 621.608 -3.24799 -4.46329 0
M  V30 6412 H 624.084 -1.39973 -3.9185 0
M  V30 6413 H 622.96 -1.42217 -5.30156 0
M  V30 6414 H 623.221 0.0747794 -4.42037 0
M  V30 6415 N 622.28 1.30327 -0.886154 0
M  V30 6416 C 623.505 2.0079 -0.519425 0
M  V30 6417 C 623.93 1.65979 0.885013 0
M  V30 6418 O 623.288 0.877043 1.58675 0
M  V30 6419 C 623.336 3.53686 -0.702758 0
M  V30 6420 O 622.44 4.11637 0.250828 0
M  V30 6421 H 621.781 0.63171 -0.204544 0
M  V30 6422 H 624.311 1.66145 -1.19402 0
M  V30 6423 H 624.321 4.03531 -0.602207 0
M  V30 6424 H 622.996 3.78361 -1.72673 0
M  V30 6425 H 621.573 3.72755 0.103873 0
M  V30 6426 N 623.758 0.647228 1.43697 0
M  V30 6427 C 625.007 0.155552 2.01099 0
M  V30 6428 C 625.32 -1.23569 1.51624 0
M  V30 6429 O 626.526 -1.82226 2.01261 0
M  V30 6430 C 624.982 0.227296 3.59182 0
M  V30 6431 C 624.59 1.62086 4.17651 0
M  V30 6432 C 626.334 -0.207085 4.23995 0
M  V30 6433 C 624.241 1.64685 5.68008 0
M  V30 6434 H 623.171 0.0543895 0.752036 0
M  V30 6435 H 625.822 0.808386 1.64734 0
M  V30 6436 H 624.204 -0.492937 3.9292 0
M  V30 6437 H 625.378 2.36597 3.95422 0
M  V30 6438 H 623.693 2.0007 3.65186 0
M  V30 6439 H 626.29 -0.207426 5.34298 0
M  V30 6440 H 626.633 -1.23742 3.97484 0
M  V30 6441 H 627.166 0.461193 3.95118 0
M  V30 6442 H 623.905 2.65608 5.99277 0
M  V30 6443 H 623.425 0.944914 5.9231 0
M  V30 6444 H 625.104 1.38792 6.31938 0
M  V30 6445 N 625.236 -1.5273 0.388769 0
M  V30 6446 C 626.476 -2.03483 -0.193372 0
M  V30 6447 C 626.84 -1.26897 -1.44087 0
M  V30 6448 O 628.041 -1.67773 -2.10014 0
M  V30 6449 C 626.312 -3.54488 -0.455325 0
M  V30 6450 S 627.871 -4.27069 -1.00783 0
M  V30 6451 H 624.689 -0.708907 -0.0545131 0
M  V30 6452 H 627.291 -1.8798 0.536993 0
M  V30 6453 H 625.995 -4.07817 0.459722 0
M  V30 6454 H 625.526 -3.74196 -1.21413 0
M  V30 6455 H 627.541 -4.40185 -2.29023 0
M  V30 6456 N 626.714 -0.118576 -1.57153 0
M  V30 6457 C 627.96 0.540326 -1.95469 0
M  V30 6458 C 628.293 1.66356 -1.00196 0
M  V30 6459 O 627.568 1.94461 -0.039104 0
M  V30 6460 C 627.851 1.07342 -3.43729 0
M  V30 6461 C 627.704 -0.0463732 -4.49776 0
M  V30 6462 C 629.023 1.96442 -3.93826 0
M  V30 6463 H 626.142 0.19494 -0.710751 0
M  V30 6464 H 628.784 -0.19405 -1.89006 0
M  V30 6465 H 626.934 1.69925 -3.49368 0
M  V30 6466 H 628.606 -0.681648 -4.56236 0
M  V30 6467 H 626.849 -0.709574 -4.27957 0
M  V30 6468 H 627.52 0.367856 -5.50773 0
M  V30 6469 H 629.996 1.43731 -3.90488 0
M  V30 6470 H 628.872 2.3066 -4.98084 0
M  V30 6471 H 629.133 2.89077 -3.34495 0
M  V30 6472 N 628.193 1.56834 0.155195 0
M  V30 6473 C 629.123 2.00678 1.19376 0
M  V30 6474 C 630.104 0.884973 1.45266 0
M  V30 6475 O 631.289 1.1522 1.56326 0
M  V30 6476 C 628.419 2.38042 2.5289 0
M  V30 6477 C 627.373 3.53332 2.41538 0
M  V30 6478 C 626.699 3.76485 3.79688 0
M  V30 6479 C 627.999 4.86265 1.9064 0
M  V30 6480 H 629.693 2.87688 0.829232 0
M  V30 6481 H 627.239 1.38407 0.397445 0
M  V30 6482 H 629.192 2.67314 3.25763 0
M  V30 6483 H 627.916 1.4796 2.91162 0
M  V30 6484 H 626.575 3.24213 1.71117 0
M  V30 6485 H 626.223 2.83667 4.15382 0
M  V30 6486 H 625.923 4.54068 3.72956 0
M  V30 6487 H 627.447 4.08174 4.54122 0
M  V30 6488 H 628.861 5.14308 2.53299 0
M  V30 6489 H 627.258 5.67597 1.94818 0
M  V30 6490 H 628.328 4.77184 0.861596 0
M  V30 6491 N 629.671 -0.424282 1.51781 0
M  V30 6492 C 630.92 -1.16961 1.64326 0
M  V30 6493 C 631.233 -1.92035 0.371749 0
M  V30 6494 O 632.439 -2.68873 0.37676 0
M  V30 6495 C 630.895 -2.12782 2.90262 0
M  V30 6496 C 630.503 -1.43295 4.24465 0
M  V30 6497 C 632.247 -2.87667 3.12166 0
M  V30 6498 C 630.154 -2.37676 5.41538 0
M  V30 6499 H 629.084 -0.440293 0.612093 0
M  V30 6500 H 631.735 -0.435431 1.78259 0
M  V30 6501 H 630.117 -2.8969 2.69992 0
M  V30 6502 H 631.291 -0.718564 4.55163 0
M  V30 6503 H 629.606 -0.805118 4.08542 0
M  V30 6504 H 632.203 -3.58395 3.96808 0
M  V30 6505 H 632.546 -3.49758 2.25776 0
M  V30 6506 H 633.079 -2.17863 3.32837 0
M  V30 6507 H 629.818 -1.80255 6.30229 0
M  V30 6508 H 629.338 -3.07132 5.15199 0
M  V30 6509 H 631.017 -2.98529 5.74012 0
M  V30 6510 N 631.149 -1.42148 -0.680565 0
M  V30 6511 C 632.079 -1.4796 -1.80638 0
M  V30 6512 C 633.06 -0.336728 -1.66734 0
M  V30 6513 O 634.245 -0.550247 -1.86242 0
M  V30 6514 C 631.375 -1.37569 -3.18892 0
M  V30 6515 C 630.329 -2.49823 -3.47524 0
M  V30 6516 C 629.655 -2.24491 -4.85291 0
M  V30 6517 C 630.955 -3.92144 -3.44994 0
M  V30 6518 H 632.649 -2.42184 -1.76032 0
M  V30 6519 H 630.195 -1.16566 -0.845481 0
M  V30 6520 H 632.148 -1.40243 -3.97379 0
M  V30 6521 H 630.872 -0.398357 -3.24162 0
M  V30 6522 H 629.531 -2.46455 -2.71395 0
M  V30 6523 H 629.179 -1.25066 -4.87204 0
M  V30 6524 H 628.879 -2.99722 -5.05411 0
M  V30 6525 H 630.403 -2.28906 -5.66069 0
M  V30 6526 H 631.817 -3.97145 -4.13459 0
M  V30 6527 H 630.214 -4.67179 -3.76648 0
M  V30 6528 H 631.284 -4.19225 -2.43676 0
M  V30 6529 N 632.627 0.916307 -1.28225 0
M  V30 6530 C 634.043 1.19425 -1.05876 0
M  V30 6531 C 634.243 2.005 0.2005 0
M  V30 6532 O 633.299 2.35806 0.902873 0
M  V30 6533 C 634.612 1.93133 -2.30478 0
M  V30 6534 C 636.16 2.06026 -2.35632 0
M  V30 6535 C 636.635 2.83141 -3.59994 0
M  V30 6536 N 638.126 2.90704 -3.60618 0
M  V30 6537 C 638.861 3.50865 -4.53521 0
M  V30 6538 N 638.357 4.12327 -5.56739 0
M  V30 6539 N 640.15 3.48379 -4.41122 0
M  V30 6540 H 632.301 0.37496 -2.09064 0
M  V30 6541 H 634.564 0.228531 -0.920042 0
M  V30 6542 H 634.27 1.40985 -3.22205 0
M  V30 6543 H 634.144 2.93696 -2.36691 0
M  V30 6544 H 636.531 2.57355 -1.44404 0
M  V30 6545 H 636.612 1.04647 -2.33415 0
M  V30 6546 H 636.256 2.32492 -4.51564 0
M  V30 6547 H 636.186 3.84829 -3.59464 0
M  V30 6548 H 638.677 2.47034 -2.85977 0
M  V30 6549 H 638.99 4.56205 -6.23776 0
M  V30 6550 H 637.335 4.10839 -5.60568 0
M  V30 6551 H 640.526 2.99572 -3.59686 0
M  V30 6552 H 640.699 3.94974 -5.13712 0
M  V30 6553 N 634.105 1.10431 1.1244 0
M  V30 6554 C 635.335 0.867612 1.87499 0
M  V30 6555 C 635.743 -0.585475 1.79913 0
M  V30 6556 O 635.086 -1.41539 1.171 0
M  V30 6557 C 635.148 1.2374 3.37533 0
M  V30 6558 C 634.812 2.69751 3.68895 0
M  V30 6559 C 635.809 3.67988 3.67261 0
M  V30 6560 C 633.494 3.06135 3.98229 0
M  V30 6561 C 635.488 5.00632 3.9452 0
M  V30 6562 C 633.175 4.38967 4.25149 0
M  V30 6563 C 634.173 5.36025 4.23281 0
M  V30 6564 O 633.861 6.66465 4.49533 0
M  V30 6565 H 633.593 0.311196 0.600111 0
M  V30 6566 H 636.147 1.47257 1.43194 0
M  V30 6567 H 634.377 0.575537 3.82393 0
M  V30 6568 H 636.066 0.978187 3.93937 0
M  V30 6569 H 636.832 3.41224 3.44661 0
M  V30 6570 H 632.711 2.31214 3.98825 0
M  V30 6571 H 636.255 5.7638 3.92978 0
M  V30 6572 H 632.152 4.6547 4.47223 0
M  V30 6573 H 632.92 6.72095 4.67152 0
M  V30 6574 N 635.583 -1.29855 0.893053 0
M  V30 6575 C 636.515 -2.26911 0.32311 0
M  V30 6576 C 637.528 -1.54039 -0.526858 0
M  V30 6577 O 638.717 -1.75132 -0.345095 0
M  V30 6578 C 635.817 -3.34266 -0.558509 0
M  V30 6579 C 634.99 -4.36601 0.264222 0
M  V30 6580 C 634.049 -5.23326 -0.549171 0
M  V30 6581 O 633.075 -5.69192 0.0309883 0
M  V30 6582 N 634.277 -5.50008 -1.85664 0
M  V30 6583 H 637.042 -2.76455 1.15726 0
M  V30 6584 H 634.603 -1.4312 0.756859 0
M  V30 6585 H 636.595 -3.89211 -1.1089 0
M  V30 6586 H 635.165 -2.8459 -1.29334 0
M  V30 6587 H 634.385 -3.81409 0.996046 0
M  V30 6588 H 635.673 -5.02019 0.827906 0
M  V30 6589 H 635.071 -5.14542 -2.35081 0
M  V30 6590 H 633.628 -6.07796 -2.35431 0
M  V30 6591 N 637.061 -0.65484 -1.43351 0
M  V30 6592 C 638.472 -0.248506 -1.85039 0
M  V30 6593 C 638.823 1.20526 -1.54816 0
M  V30 6594 O 637.948 1.92016 -0.99794 0
M  V30 6595 C 638.543 -0.444241 -3.35875 0
M  V30 6596 C 637.102 -0.0922108 -3.76287 0
M  V30 6597 C 636.249 -0.746327 -2.67068 0
M  V30 6598 H 639.2 -0.8584 -1.33481 0
M  V30 6599 H 639.221 0.309762 -3.79237 0
M  V30 6600 H 638.733 -1.50239 -3.5784 0
M  V30 6601 H 636.834 0.96328 -3.59933 0
M  V30 6602 H 636.947 -0.518807 -4.76283 0
M  V30 6603 H 635.311 -0.179416 -2.54067 0
M  V30 6604 H 636.094 -1.80754 -2.91861 0
M  V30 6605 N 638.539 1.52521 -0.396863 0
M  V30 6606 C 639.816 1.94112 0.240842 0
M  V30 6607 C 640.196 1.33288 1.637 0
M  V30 6608 O 639.544 0.503901 2.22875 0
M  V30 6609 C 639.754 3.48033 0.259567 0
M  V30 6610 C 641.102 4.21822 0.484866 0
M  V30 6611 O 642.126 3.54579 0.339453 0
M  V30 6612 O 640.985 5.41042 0.770412 0
M  V30 6613 H 638.079 0.812973 0.151671 0
M  V30 6614 H 640.625 1.63572 -0.451918 0
M  V30 6615 H 639.397 3.84655 -0.718078 0
M  V30 6616 H 639.02 3.84899 0.996937 0
M  V30 6617 N 640.017 0.126909 1.57088 0
M  V30 6618 C 640.949 -0.850973 2.12817 0
M  V30 6619 C 641.962 -1.22457 1.07276 0
M  V30 6620 O 643.151 -1.17215 1.34622 0
M  V30 6621 C 640.251 -2.15039 2.61938 0
M  V30 6622 C 639.424 -1.94726 3.91664 0
M  V30 6623 C 638.483 -3.0847 4.26301 0
M  V30 6624 O 637.509 -2.81038 4.94981 0
M  V30 6625 N 638.711 -4.35116 3.84259 0
M  V30 6626 H 641.476 -0.3748 2.97347 0
M  V30 6627 H 639.037 -0.0572793 1.61799 0
M  V30 6628 H 641.029 -2.90141 2.82135 0
M  V30 6629 H 639.599 -2.5398 1.82244 0
M  V30 6630 H 638.819 -1.03772 3.80296 0
M  V30 6631 H 640.107 -1.78469 4.76473 0
M  V30 6632 H 639.505 -4.60276 3.2888 0
M  V30 6633 H 638.062 -5.07064 4.09548 0
M  V30 6634 N 641.495 -1.56914 -0.146875 0
M  V30 6635 C 642.405 -2.0154 -1.20079 0
M  V30 6636 C 643.421 -0.930838 -1.47008 0
M  V30 6637 O 644.597 -1.24032 -1.58676 0
M  V30 6638 C 641.662 -2.38715 -2.51428 0
M  V30 6639 C 640.723 -3.6112 -2.32145 0
M  V30 6640 C 639.956 -3.96512 -3.57231 0
M  V30 6641 O 640.179 -3.32566 -4.63418 0
M  V30 6642 O 639.113 -4.89758 -3.49887 0
M  V30 6643 H 642.939 -2.91506 -0.851924 0
M  V30 6644 H 640.524 -1.45106 -0.355607 0
M  V30 6645 H 642.406 -2.63485 -3.28867 0
M  V30 6646 H 641.081 -1.51903 -2.85845 0
M  V30 6647 H 639.988 -3.41536 -1.52656 0
M  V30 6648 H 641.321 -4.48549 -2.02644 0
M  V30 6649 N 642.974 0.416227 -1.52004 0
M  V30 6650 C 644.202 1.18573 -1.69553 0
M  V30 6651 C 644.617 1.84472 -0.401919 0
M  V30 6652 O 643.974 1.71593 0.621463 0
M  V30 6653 C 644.025 2.25413 -2.82615 0
M  V30 6654 O 643.746 1.62205 -4.06966 0
M  V30 6655 C 645.247 3.15297 -3.11613 0
M  V30 6656 H 642.467 0.356582 -0.56841 0
M  V30 6657 H 645.011 0.490618 -1.98528 0
M  V30 6658 H 643.166 2.90604 -2.56179 0
M  V30 6659 H 643.58 2.3298 -4.69916 0
M  V30 6660 H 645.054 3.86351 -3.94255 0
M  V30 6661 H 645.531 3.77264 -2.24874 0
M  V30 6662 H 646.137 2.55783 -3.39787 0
M  V30 6663 N 644.452 1.42507 0.673017 0
M  V30 6664 C 645.399 1.46124 1.78651 0
M  V30 6665 C 646.369 0.313007 1.63124 0
M  V30 6666 O 647.554 0.517337 1.83653 0
M  V30 6667 C 644.694 1.3711 3.16694 0
M  V30 6668 C 643.807 2.61983 3.43495 0
M  V30 6669 C 642.942 2.45098 4.71275 0
M  V30 6670 C 641.981 3.65336 4.91117 0
M  V30 6671 N 641.118 3.47383 6.10139 0
M  V30 6672 H 645.958 2.4128 1.74895 0
M  V30 6673 H 643.495 1.19788 0.853766 0
M  V30 6674 H 645.453 1.29881 3.96468 0
M  V30 6675 H 644.083 0.45549 3.1957 0
M  V30 6676 H 643.135 2.79571 2.57961 0
M  V30 6677 H 644.447 3.51355 3.5405 0
M  V30 6678 H 643.601 2.35466 5.59143 0
M  V30 6679 H 642.34 1.53219 4.63007 0
M  V30 6680 H 641.345 3.754 4.0169 0
M  V30 6681 H 642.57 4.58199 5.01229 0
M  V30 6682 H 640.516 2.58222 6.0304 0
M  V30 6683 H 640.433 4.30344 6.21563 0
M  V30 6684 H 641.701 3.41565 7.00681 0
M  V30 6685 N 645.93 -0.909495 1.28709 0
M  V30 6686 C 647.158 -1.69272 1.18973 0
M  V30 6687 C 647.573 -1.87123 -0.251048 0
M  V30 6688 O 646.93 -1.40127 -1.16922 0
M  V30 6689 C 646.981 -3.08257 1.88839 0
M  V30 6690 O 646.702 -2.91228 3.27289 0
M  V30 6691 C 648.203 -4.02642 1.85457 0
M  V30 6692 H 645.423 -0.528999 0.412797 0
M  V30 6693 H 647.967 -1.13803 1.69909 0
M  V30 6694 H 646.122 -3.6053 1.41762 0
M  V30 6695 H 646.536 -3.79223 3.6234 0
M  V30 6696 H 648.01 -4.97613 2.38925 0
M  V30 6697 H 648.487 -4.31327 0.827893 0
M  V30 6698 H 649.093 -3.56298 2.32233 0
M  V30 6699 N 647.408 -1.11026 -1.11852 0
M  V30 6700 C 648.656 -0.854769 -1.83134 0
M  V30 6701 C 648.977 0.621375 -1.84835 0
M  V30 6702 O 648.247 1.45129 -1.31584 0
M  V30 6703 H 646.827 -0.313229 -0.678157 0
M  V30 6704 H 649.489 -1.40178 -1.35411 0
M  V30 6705 H 648.585 -1.22311 -2.87135 0
M  V30 6706 N 648.886 1.2938 -0.899927 0
M  V30 6707 C 649.796 2.31462 -0.382437 0
M  V30 6708 C 650.812 1.65956 0.522929 0
M  V30 6709 O 651.988 1.97131 0.412454 0
M  V30 6710 C 649.053 3.44595 0.381472 0
M  V30 6711 C 648.114 4.25692 -0.555444 0
M  V30 6712 C 647.347 5.33422 0.172102 0
M  V30 6713 O 647.57 5.53053 1.396 0
M  V30 6714 O 646.504 5.99939 -0.485491 0
M  V30 6715 H 650.33 2.77706 -1.22934 0
M  V30 6716 H 647.915 1.33821 -0.664259 0
M  V30 6717 H 649.797 4.13474 0.813442 0
M  V30 6718 H 648.472 3.00458 1.20443 0
M  V30 6719 H 647.379 3.59453 -1.03653 0
M  V30 6720 H 648.712 4.73471 -1.34483 0
M  V30 6721 N 650.364 0.662433 1.43002 0
M  V30 6722 C 651.274 -0.0239199 2.34588 0
M  V30 6723 C 652.29 -0.802255 1.54402 0
M  V30 6724 O 653.466 -0.747401 1.87018 0
M  V30 6725 C 650.531 -0.972098 3.32793 0
M  V30 6726 C 649.592 -0.189673 4.28881 0
M  V30 6727 C 648.825 -1.09269 5.22395 0
M  V30 6728 O 649.048 -2.33209 5.20547 0
M  V30 6729 O 647.982 -0.560136 5.99288 0
M  V30 6730 H 651.808 0.730171 2.94792 0
M  V30 6731 H 649.393 0.422635 1.43297 0
M  V30 6732 H 651.275 -1.51676 3.93157 0
M  V30 6733 H 649.95 -1.70626 2.75079 0
M  V30 6734 H 648.857 0.398794 3.71968 0
M  V30 6735 H 650.19 0.50511 4.89601 0
M  V30 6736 N 651.842 -1.52309 0.404946 0
M  V30 6737 C 653.088 -2.02065 -0.172455 0
M  V30 6738 C 653.421 -1.29022 -1.45145 0
M  V30 6739 O 652.696 -0.395284 -1.90441 0
M  V30 6740 C 652.979 -3.5759 -0.424433 0
M  V30 6741 C 652.832 -4.41287 0.870945 0
M  V30 6742 C 654.151 -4.23186 -1.20837 0
M  V30 6743 H 651.27 -0.734454 -0.0612035 0
M  V30 6744 H 653.912 -1.82236 0.53759 0
M  V30 6745 H 652.062 -3.74617 -1.02929 0
M  V30 6746 H 653.734 -4.3598 1.50729 0
M  V30 6747 H 651.977 -4.07669 1.48284 0
M  V30 6748 H 652.648 -5.48171 0.649083 0
M  V30 6749 H 655.124 -4.10232 -0.696338 0
M  V30 6750 H 654 -5.31953 -1.35343 0
M  V30 6751 H 654.261 -3.81862 -2.22786 0
M  V30 6752 N 653.32 -0.135238 -1.57019 0
M  V30 6753 C 654.23 0.822226 -2.19719 0
M  V30 6754 C 655.246 1.28057 -1.17802 0
M  V30 6755 O 656.422 1.3402 -1.50335 0
M  V30 6756 C 653.487 2.0484 -2.79717 0
M  V30 6757 C 652.548 1.64042 -3.96723 0
M  V30 6758 C 651.781 2.80814 -4.53849 0
M  V30 6759 O 652.004 3.967 -4.0986 0
M  V30 6760 O 650.938 2.56963 -5.44292 0
M  V30 6761 H 654.764 0.318552 -3.02025 0
M  V30 6762 H 652.349 0.0912021 -1.49121 0
M  V30 6763 H 654.231 2.76622 -3.17897 0
M  V30 6764 H 652.906 2.54182 -2.00432 0
M  V30 6765 H 651.813 0.893182 -3.63281 0
M  V30 6766 H 653.146 1.19426 -4.77492 0
M  V30 6767 N 654.798 1.5699 0.138552 0
M  V30 6768 C 655.728 2.01933 1.17241 0
M  V30 6769 C 656.709 0.90033 1.44319 0
M  V30 6770 O 657.894 1.16872 1.55095 0
M  V30 6771 C 655.024 2.40711 2.50351 0
M  V30 6772 C 653.978 3.55874 2.37776 0
M  V30 6773 C 653.304 3.80491 3.75674 0
M  V30 6774 C 654.604 4.8826 1.85472 0
M  V30 6775 H 656.298 2.88551 0.798672 0
M  V30 6776 H 653.844 1.3882 0.382743 0
M  V30 6777 H 655.797 2.70754 3.22909 0
M  V30 6778 H 654.521 1.5104 2.89576 0
M  V30 6779 H 653.18 3.2601 1.67669 0
M  V30 6780 H 652.828 2.88057 4.12349 0
M  V30 6781 H 652.528 4.57998 3.68119 0
M  V30 6782 H 654.052 4.12967 4.49767 0
M  V30 6783 H 655.466 5.16965 2.4783 0
M  V30 6784 H 653.863 5.69631 1.88787 0
M  V30 6785 H 654.933 4.78071 0.810935 0
M  V30 6786 N 656.276 -0.40816 1.52223 0
M  V30 6787 C 657.208 -1.51642 1.71864 0
M  V30 6788 C 658.221 -1.51378 0.599056 0
M  V30 6789 O 659.41 -1.55626 0.874239 0
M  V30 6790 C 656.51 -2.90534 1.74481 0
M  V30 6791 C 655.683 -3.14979 3.03491 0
M  V30 6792 C 654.742 -4.33749 2.97907 0
M  V30 6793 O 653.768 -4.30982 3.71811 0
M  V30 6794 N 654.97 -5.38912 2.15764 0
M  V30 6795 H 657.735 -1.35188 2.67478 0
M  V30 6796 H 655.296 -0.597468 1.50472 0
M  V30 6797 H 657.288 -3.68056 1.68275 0
M  V30 6798 H 655.858 -3.00441 0.863363 0
M  V30 6799 H 655.078 -2.25492 3.23337 0
M  V30 6800 H 656.366 -3.28156 3.88833 0
M  V30 6801 H 655.764 -5.44008 1.55152 0
M  V30 6802 H 654.321 -6.15174 2.15415 0
M  V30 6803 N 657.755 -1.42862 -0.66545 0
M  V30 6804 C 658.665 -1.49491 -1.80803 0
M  V30 6805 C 659.681 -0.382914 -1.69734 0
M  V30 6806 O 660.857 -0.635223 -1.9112 0
M  V30 6807 C 657.922 -1.40383 -3.17007 0
M  V30 6808 C 656.983 -2.62152 -3.39963 0
M  V30 6809 C 656.216 -2.53469 -4.69669 0
M  V30 6810 O 656.439 -1.57568 -5.48205 0
M  V30 6811 O 655.373 -3.43763 -4.94075 0
M  V30 6812 H 659.199 -2.45949 -1.78165 0
M  V30 6813 H 656.784 -1.24728 -0.822387 0
M  V30 6814 H 658.666 -1.377 -3.98267 0
M  V30 6815 H 657.341 -0.470546 -3.20262 0
M  V30 6816 H 656.248 -2.70409 -2.58515 0
M  V30 6817 H 657.581 -3.54411 -3.41546 0
M  V30 6818 N 659.233 0.902656 -1.29189 0
M  V30 6819 C 660.143 2.03946 -1.15944 0
M  V30 6820 C 661.159 1.738 -0.0833803 0
M  V30 6821 O 662.335 1.9923 -0.29487 0
M  V30 6822 C 659.4 3.36519 -0.834006 0
M  V30 6823 C 658.461 3.80203 -1.9936 0
M  V30 6824 C 657.694 5.06449 -1.68359 0
M  V30 6825 O 657.917 5.67202 -0.603141 0
M  V30 6826 O 656.851 5.46114 -2.53067 0
M  V30 6827 H 660.677 2.18043 -2.11403 0
M  V30 6828 H 658.262 1.02584 -1.08613 0
M  V30 6829 H 660.144 4.16089 -0.666949 0
M  V30 6830 H 658.819 3.23573 0.0908245 0
M  V30 6831 H 657.726 3.01413 -2.21588 0
M  V30 6832 H 659.059 3.97729 -2.89952 0
M  V30 6833 N 660.711 1.11618 1.11262 0
M  V30 6834 C 661.674 0.779447 2.15539 0
M  V30 6835 C 662.674 -0.202081 1.59525 0
M  V30 6836 O 663.864 0.0226356 1.74185 0
M  V30 6837 C 660.996 0.15674 3.40539 0
M  V30 6838 H 662.189 1.70324 2.4684 0
M  V30 6839 H 659.742 0.918298 1.26479 0
M  V30 6840 H 660.477 -0.777186 3.1485 0
M  V30 6841 H 660.262 0.863308 3.82478 0
M  V30 6842 H 661.752 -0.062661 4.17553 0
M  V30 6843 N 662.189 -1.289 0.906776 0
M  V30 6844 C 663.438 -1.9455 0.532262 0
M  V30 6845 C 663.751 -1.72219 -0.927353 0
M  V30 6846 O 664.957 -2.32033 -1.40971 0
M  V30 6847 C 663.413 -3.48438 0.901041 0
M  V30 6848 C 663.021 -3.79558 2.37991 0
M  V30 6849 C 664.765 -4.20284 0.596777 0
M  V30 6850 C 662.672 -5.26723 2.68918 0
M  V30 6851 H 661.602 -0.728259 0.195333 0
M  V30 6852 H 664.253 -1.46519 1.10474 0
M  V30 6853 H 662.635 -3.95162 0.257419 0
M  V30 6854 H 663.809 -3.43668 3.06967 0
M  V30 6855 H 662.124 -3.20868 2.65391 0
M  V30 6856 H 664.721 -5.28612 0.8046 0
M  V30 6857 H 665.064 -4.13694 -0.465072 0
M  V30 6858 H 665.597 -3.79315 1.19855 0
M  V30 6859 H 662.336 -5.38384 3.73928 0
M  V30 6860 H 661.856 -5.63836 2.04571 0
M  V30 6861 H 663.535 -5.94391 2.55555 0
M  V30 6862 N 663.667 -0.670007 -1.42649 0
M  V30 6863 C 664.895 -0.19854 -2.05945 0
M  V30 6864 C 665.31 1.14243 -1.50313 0
M  V30 6865 O 664.667 1.70872 -0.641027 0
M  V30 6866 C 664.718 -0.11966 -3.61302 0
M  V30 6867 O 664.439 -1.40764 -4.1487 0
M  V30 6868 C 665.94 0.375878 -4.41704 0
M  V30 6869 H 663.16 -0.0976894 -0.663851 0
M  V30 6870 H 665.704 -0.915392 -1.82868 0
M  V30 6871 H 663.859 0.547851 -3.83507 0
M  V30 6872 H 664.273 -1.27784 -5.08696 0
M  V30 6873 H 665.747 0.379988 -5.50691 0
M  V30 6874 H 666.224 1.41028 -4.15942 0
M  V30 6875 H 666.83 -0.259727 -4.24506 0
M  V30 6876 N 665.145 1.52092 -0.413018 0
M  V30 6877 C 666.373 2.06274 0.160881 0
M  V30 6878 C 666.788 1.28273 1.38533 0
M  V30 6879 O 666.145 0.33563 1.79387 0
M  V30 6880 C 666.196 3.57921 0.507443 0
M  V30 6881 O 665.917 4.32971 -0.668388 0
M  V30 6882 C 667.418 4.28533 1.13465 0
M  V30 6883 H 664.638 0.67074 0.0186759 0
M  V30 6884 H 667.182 1.95951 -0.585092 0
M  V30 6885 H 665.337 3.68238 1.20331 0
M  V30 6886 H 665.751 5.23135 -0.378169 0
M  V30 6887 H 667.225 5.35804 1.32732 0
M  V30 6888 H 667.702 3.85258 2.10886 0
M  V30 6889 H 668.308 4.22595 0.478876 0
M  V30 6890 N 666.623 0.143563 1.56945 0
M  V30 6891 C 667.533 -0.810562 2.20152 0
M  V30 6892 C 668.549 -1.27431 1.1848 0
M  V30 6893 O 669.725 -1.33221 1.51044 0
M  V30 6894 C 666.79 -2.03353 2.80799 0
M  V30 6895 C 665.851 -1.61936 3.97587 0
M  V30 6896 C 665.084 -2.78403 4.55332 0
M  V30 6897 O 665.307 -3.94521 4.11958 0
M  V30 6898 O 664.241 -2.54073 5.45647 0
M  V30 6899 H 668.067 -0.30253 3.02189 0
M  V30 6900 H 665.652 -0.0832925 1.49168 0
M  V30 6901 H 667.534 -2.74932 3.19359 0
M  V30 6902 H 666.209 -2.53116 2.01777 0
M  V30 6903 H 665.116 -0.873904 3.6375 0
M  V30 6904 H 666.449 -1.16892 4.78118 0
M  V30 6905 N 668.101 -1.57061 -0.130224 0
M  V30 6906 C 669.326 -1.88802 -0.858409 0
M  V30 6907 C 669.751 -0.734353 -1.73173 0
M  V30 6908 O 669.109 0.315529 -1.78533 0
M  V30 6909 C 669.157 -3.19228 -1.67708 0
M  V30 6910 O 668.261 -3.04343 -2.78297 0
M  V30 6911 H 667.602 -0.619849 -0.238083 0
M  V30 6912 H 670.132 -2.04271 -0.115995 0
M  V30 6913 H 670.142 -3.51669 -2.06864 0
M  V30 6914 H 668.817 -4.02793 -1.0359 0
M  V30 6915 H 667.394 -2.83346 -2.42425 0
M  V30 6916 N 669.579 0.400081 -1.52437 0
M  V30 6917 C 670.489 1.51253 -1.79331 0
M  V30 6918 C 671.505 1.60188 -0.679396 0
M  V30 6919 O 672.681 1.76733 -0.965791 0
M  V30 6920 C 669.746 2.869 -1.94652 0
M  V30 6921 C 668.807 2.87777 -3.18564 0
M  V30 6922 C 668.04 4.16954 -3.33145 0
M  V30 6923 O 668.263 5.11329 -2.52783 0
M  V30 6924 O 667.197 4.2487 -4.26343 0
M  V30 6925 H 671.023 1.31461 -2.73773 0
M  V30 6926 H 668.608 0.586834 -1.37392 0
M  V30 6927 H 670.49 3.67336 -2.065 0
M  V30 6928 H 669.165 3.06741 -1.034 0
M  V30 6929 H 668.072 2.06162 -3.12167 0
M  V30 6930 H 669.405 2.72886 -4.09627 0
M  V30 6931 N 671.057 1.43213 0.657864 0
M  V30 6932 C 672.004 1.48011 1.77092 0
M  V30 6933 C 672.974 0.330291 1.62783 0
M  V30 6934 O 674.159 0.536787 1.83094 0
M  V30 6935 C 671.299 1.40461 3.15222 0
M  V30 6936 C 670.412 2.65612 3.40697 0
M  V30 6937 C 669.547 2.50083 4.68649 0
M  V30 6938 C 668.586 3.70525 4.87214 0
M  V30 6939 N 667.723 3.53835 6.0642 0
M  V30 6940 H 672.563 2.43121 1.72326 0
M  V30 6941 H 670.1 1.20687 0.841013 0
M  V30 6942 H 672.058 1.34079 3.95068 0
M  V30 6943 H 670.688 0.489359 3.19069 0
M  V30 6944 H 669.74 2.82292 2.54982 0
M  V30 6945 H 671.052 3.5509 3.50303 0
M  V30 6946 H 670.206 2.41383 5.56614 0
M  V30 6947 H 668.945 1.58121 4.61356 0
M  V30 6948 H 667.95 3.79639 3.97686 0
M  V30 6949 H 669.175 4.63489 4.96341 0
M  V30 6950 H 667.121 2.64604 6.00267 0
M  V30 6951 H 667.038 4.36912 6.16963 0
M  V30 6952 H 668.306 3.48978 6.97019 0
M  V30 6953 N 672.536 -0.895792 1.29666 0
M  V30 6954 C 673.466 -2.01673 1.17688 0
M  V30 6955 C 674.447 -1.69955 0.0701317 0
M  V30 6956 O 675.632 -1.9258 0.250289 0
M  V30 6957 C 672.762 -3.36568 0.856681 0
M  V30 6958 C 671.716 -3.82509 1.92017 0
M  V30 6959 C 671.042 -5.14574 1.4532 0
M  V30 6960 C 672.342 -4.02409 3.32963 0
M  V30 6961 H 674.036 -2.11953 2.11463 0
M  V30 6962 H 671.582 -1.01839 1.01807 0
M  V30 6963 H 673.535 -4.14498 0.759577 0
M  V30 6964 H 672.259 -3.26391 -0.116763 0
M  V30 6965 H 670.918 -3.068 2.00673 0
M  V30 6966 H 670.566 -5.00815 0.468325 0
M  V30 6967 H 670.266 -5.46283 2.16447 0
M  V30 6968 H 671.79 -5.9504 1.36968 0
M  V30 6969 H 673.204 -4.70808 3.27127 0
M  V30 6970 H 671.601 -4.45478 4.02082 0
M  V30 6971 H 672.671 -3.06616 3.75652 0
M  V30 6972 N 674.014 -1.12206 -1.10668 0
M  V30 6973 C 675.242 -0.898635 -1.86366 0
M  V30 6974 C 675.657 0.551991 -1.80551 0
M  V30 6975 O 675.014 1.38152 -1.19249 0
M  V30 6976 C 675.065 -1.36199 -3.34861 0
M  V30 6977 O 674.786 -2.75576 -3.40573 0
M  V30 6978 C 676.287 -1.17515 -4.2744 0
M  V30 6979 H 673.507 -0.321281 -0.589084 0
M  V30 6980 H 676.051 -1.49142 -1.39918 0
M  V30 6981 H 674.206 -0.81249 -3.78784 0
M  V30 6982 H 674.62 -2.95851 -4.33096 0
M  V30 6983 H 676.094 -1.54827 -5.29842 0
M  V30 6984 H 676.571 -0.115486 -4.39048 0
M  V30 6985 H 677.177 -1.71203 -3.89319 0
M  V30 6986 N 675.492 1.28418 -0.913599 0
M  V30 6987 C 676.422 2.29713 -0.418847 0
M  V30 6988 C 677.403 1.62165 0.513469 0
M  V30 6989 O 678.588 1.89576 0.421235 0
M  V30 6990 C 675.718 3.45612 0.342042 0
M  V30 6991 C 674.672 4.25056 -0.501123 0
M  V30 6992 C 673.998 5.3329 0.388097 0
M  V30 6993 C 675.298 4.91814 -1.75831 0
M  V30 6994 H 676.992 2.71346 -1.26538 0
M  V30 6995 H 674.538 1.30446 -0.609903 0
M  V30 6996 H 676.491 4.15562 0.699 0
M  V30 6997 H 675.215 3.02858 1.22248 0
M  V30 6998 H 673.874 3.56833 -0.840598 0
M  V30 6999 H 673.522 4.8678 1.26707 0
M  V30 7000 H 673.222 5.87347 -0.172459 0
M  V30 7001 H 674.746 6.06088 0.74094 0
M  V30 7002 H 676.16 5.54126 -1.47026 0
M  V30 7003 H 674.557 5.55866 -2.26126 0
M  V30 7004 H 675.627 4.16313 -2.4862 0
M  V30 7005 N 676.97 0.677563 1.42291 0
M  V30 7006 C 678.216 0.209962 2.02313 0
M  V30 7007 C 678.571 -1.1714 1.52631 0
M  V30 7008 O 677.864 -1.7756 0.719938 0
M  V30 7009 C 678.058 0.187229 3.56909 0
M  V30 7010 C 677.887 1.56484 4.21595 0
M  V30 7011 C 676.657 2.16329 4.56651 0
M  V30 7012 C 678.855 2.50805 4.49 0
M  V30 7013 N 676.837 3.46842 5.06531 0
M  V30 7014 C 678.208 3.65976 5.00461 0
M  V30 7015 C 680.263 2.493 4.30992 0
M  V30 7016 C 678.966 4.79899 5.35807 0
M  V30 7017 C 680.992 3.62322 4.67415 0
M  V30 7018 C 680.354 4.76221 5.19031 0
M  V30 7019 H 676.453 0.121815 0.772454 0
M  V30 7020 H 679.037 0.891148 1.73109 0
M  V30 7021 H 677.208 -0.46338 3.85626 0
M  V30 7022 H 678.94 -0.293512 4.03634 0
M  V30 7023 H 675.695 1.6879 4.42501 0
M  V30 7024 H 676.119 4.13694 5.35898 0
M  V30 7025 H 680.761 1.62467 3.90339 0
M  V30 7026 H 678.479 5.67406 5.75392 0
M  V30 7027 H 682.065 3.62388 4.55155 0
M  V30 7028 H 680.945 5.62228 5.46689 0
M  V30 7029 N 678.448 -1.51871 0.421078 0
M  V30 7030 C 679.696 -2.01539 -0.150492 0
M  V30 7031 C 680.017 -1.30803 -1.44623 0
M  V30 7032 O 679.287 -0.437568 -1.90951 0
M  V30 7033 H 677.867 -0.744698 -0.0586041 0
M  V30 7034 H 680.529 -1.8668 0.560059 0
M  V30 7035 H 679.625 -3.10264 -0.338068 0
M  V30 7036 N 679.926 -0.151884 -1.56866 0
M  V30 7037 C 680.856 0.781943 -2.20018 0
M  V30 7038 C 681.837 1.25347 -1.14987 0
M  V30 7039 O 683.022 1.31015 -1.43348 0
M  V30 7040 C 680.152 2.01928 -2.82564 0
M  V30 7041 C 679.106 1.68434 -3.93464 0
M  V30 7042 C 678.432 2.99472 -4.42968 0
M  V30 7043 C 679.732 0.927244 -5.14003 0
M  V30 7044 H 681.426 0.255607 -2.98307 0
M  V30 7045 H 678.972 0.121502 -1.43486 0
M  V30 7046 H 680.925 2.67741 -3.25411 0
M  V30 7047 H 679.649 2.56943 -2.01614 0
M  V30 7048 H 678.308 1.04998 -3.51242 0
M  V30 7049 H 677.956 3.52488 -3.58834 0
M  V30 7050 H 677.656 2.77823 -5.17772 0
M  V30 7051 H 679.18 3.66348 -4.88489 0
M  V30 7052 H 680.594 1.48756 -5.53665 0
M  V30 7053 H 678.991 0.810513 -5.94601 0
M  V30 7054 H 680.061 -0.0801163 -4.84834 0
M  V30 7055 N 681.404 1.57128 0.121893 0
M  V30 7056 C 682.651 1.847 0.830188 0
M  V30 7057 C 682.979 0.736543 1.80015 0
M  V30 7058 O 682.234 -0.272358 1.93796 0
M  V30 7059 C 682.533 3.1874 1.61677 0
M  V30 7060 C 682.199 4.43901 0.791361 0
M  V30 7061 C 680.861 4.77887 0.563731 0
M  V30 7062 C 683.213 5.20753 0.215823 0
M  V30 7063 C 680.541 5.86168 -0.249737 0
M  V30 7064 C 682.893 6.29891 -0.584821 0
M  V30 7065 C 681.557 6.6241 -0.822794 0
M  V30 7066 H 680.827 0.675866 0.303787 0
M  V30 7067 H 683.474 1.91276 0.0926894 0
M  V30 7068 H 681.779 3.07728 2.42509 0
M  V30 7069 H 683.476 3.37295 2.16872 0
M  V30 7070 H 680.066 4.17272 0.978867 0
M  V30 7071 H 684.25 4.94851 0.378907 0
M  V30 7072 H 679.506 6.0979 -0.44336 0
M  V30 7073 H 683.68 6.88624 -1.03779 0
M  V30 7074 H 681.307 7.46147 -1.45496 0
M  V30 7075 N 682.882 -0.391992 1.52647 0
M  V30 7076 C 684.129 -1.13732 1.67545 0
M  V30 7077 C 684.457 -1.90045 0.413881 0
M  V30 7078 O 683.712 -1.86157 -0.603646 0
M  V30 7079 C 684.011 -2.14401 2.85949 0
M  V30 7080 C 683.677 -1.54767 4.23507 0
M  V30 7081 C 682.339 -1.38229 4.60919 0
M  V30 7082 C 684.691 -1.11382 5.0916 0
M  V30 7083 C 682.019 -0.7685 5.81645 0
M  V30 7084 C 684.371 -0.514143 6.30507 0
M  V30 7085 C 683.035 -0.33604 6.66654 0
M  V30 7086 H 682.305 -0.416174 0.613091 0
M  V30 7087 H 684.952 -0.422327 1.86785 0
M  V30 7088 H 683.257 -2.92108 2.61114 0
M  V30 7089 H 684.954 -2.71974 2.94671 0
M  V30 7090 H 681.544 -1.68626 3.94035 0
M  V30 7091 H 685.728 -1.22962 4.80826 0
M  V30 7092 H 680.984 -0.618681 6.08262 0
M  V30 7093 H 685.158 -0.169657 6.96193 0
M  V30 7094 H 682.785 0.14166 7.60068 0
M  V30 7095 N 684.36 -1.4356 -0.65026 0
M  V30 7096 C 685.771 -1.40324 -1.2315 0
M  V30 7097 C 686.122 -0.108812 -1.95898 0
M  V30 7098 O 685.247 0.79163 -2.01401 0
M  V30 7099 C 685.842 -2.54195 -2.23987 0
M  V30 7100 C 684.401 -2.54215 -2.77582 0
M  V30 7101 C 683.548 -2.31752 -1.5227 0
M  V30 7102 H 686.499 -1.52418 -0.442095 0
M  V30 7103 H 686.52 -2.25854 -3.0622 0
M  V30 7104 H 686.032 -3.48392 -1.71011 0
M  V30 7105 H 684.133 -1.63907 -3.34612 0
M  V30 7106 H 684.246 -3.52081 -3.24925 0
M  V30 7107 H 682.61 -1.80476 -1.79723 0
M  V30 7108 H 683.393 -3.28037 -1.01225 0
M  V30 7109 N 685.838 0.888903 -1.30139 0
M  V30 7110 C 686.768 2.01046 -1.18755 0
M  V30 7111 C 687.749 1.69916 -0.0791438 0
M  V30 7112 O 688.934 1.92445 -0.260498 0
M  V30 7113 C 686.064 3.36109 -0.874518 0
M  V30 7114 C 685.018 3.81486 -1.94043 0
M  V30 7115 C 684.344 5.13796 -1.48047 0
M  V30 7116 C 685.644 4.00637 -3.35093 0
M  V30 7117 H 687.338 2.10828 -2.12584 0
M  V30 7118 H 684.884 1.01298 -1.02346 0
M  V30 7119 H 686.837 4.14089 -0.781548 0
M  V30 7120 H 685.561 3.26449 0.0994519 0
M  V30 7121 H 684.22 3.05731 -2.02297 0
M  V30 7122 H 683.868 5.0056 -0.494878 0
M  V30 7123 H 683.568 5.45127 -2.19341 0
M  V30 7124 H 685.092 5.94305 -1.40121 0
M  V30 7125 H 686.506 4.69067 -3.2962 0
M  V30 7126 H 684.903 4.43339 -4.04438 0
M  V30 7127 H 685.973 3.0462 -3.77273 0
M  V30 7128 N 687.317 1.12792 1.10072 0
M  V30 7129 C 688.265 0.794523 2.18609 0
M  V30 7130 C 689.259 -0.220271 1.67962 0
M  V30 7131 O 690.465 -0.0780938 1.79831 0
M  V30 7132 H 686.84 0.239123 0.712969 0
M  V30 7133 H 688.811 1.71823 2.43966 0
M  V30 7134 C 687.56 0.269548 3.46654 0
M  V30 7135 H 686.883 1.04171 3.8599 0
M  V30 7136 H 688.323 0.0746242 4.23934 0
M  V30 7137 C 686.782 -1.00333 3.21613 0
M  V30 7138 O 687.312 -2.08042 3.4363 0
M  V30 7139 N 685.518 -0.931763 2.75257 0
M  V30 7140 H 685.065 -0.0551197 2.57541 0
M  V30 7141 H 685.023 -1.78405 2.58881 0
M  V30 7142 N 688.795 -1.27931 0.920396 0
M  V30 7143 C 690.02 -1.99343 0.572478 0
M  V30 7144 C 690.445 -1.68267 -0.840696 0
M  V30 7145 O 689.803 -0.918805 -1.56294 0
M  V30 7146 C 689.851 -3.51698 0.796284 0
M  V30 7147 O 688.955 -4.12157 -0.141602 0
M  V30 7148 H 688.296 -0.626065 0.221221 0
M  V30 7149 H 690.826 -1.62921 1.23765 0
M  V30 7150 H 690.836 -4.01793 0.708984 0
M  V30 7151 H 689.511 -3.73649 1.82644 0
M  V30 7152 H 688.088 -3.729 -0.005007 0
M  V30 7153 N 690.273 -0.685099 -1.4193 0
M  V30 7154 C 691.522 -0.208816 -2.00616 0
M  V30 7155 C 691.835 1.19506 -1.54847 0
M  V30 7156 O 693.041 1.76826 -2.06021 0
M  V30 7157 C 691.497 -0.322446 -3.58453 0
M  V30 7158 C 691.105 -1.73102 -4.13206 0
M  V30 7159 C 692.849 0.0945979 -4.24395 0
M  V30 7160 C 690.756 -1.79687 -5.63442 0
M  V30 7161 H 689.686 -0.0743092 -0.750329 0
M  V30 7162 H 692.337 -0.851778 -1.62533 0
M  V30 7163 H 690.719 0.388588 -3.94089 0
M  V30 7164 H 691.893 -2.46997 -3.8901 0
M  V30 7165 H 690.208 -2.09682 -3.59753 0
M  V30 7166 H 692.805 0.0656937 -5.3466 0
M  V30 7167 H 693.148 1.1316 -4.00625 0
M  V30 7168 H 693.681 -0.56579 -3.93756 0
M  V30 7169 H 690.42 -2.81404 -5.92024 0
M  V30 7170 H 689.94 -1.10162 -5.89597 0
M  V30 7171 H 691.619 -1.55498 -6.28036 0
M  V30 7172 N 691.751 1.51645 -0.429126 0
M  V30 7173 C 693.162 1.86665 0.0359003 0
M  V30 7174 C 693.513 1.34677 1.42676 0
M  V30 7175 O 692.638 0.694195 2.04963 0
M  V30 7176 C 693.233 3.38724 0.0719221 0
M  V30 7177 C 691.792 3.7331 0.481336 0
M  V30 7178 C 690.939 2.75313 -0.331329 0
M  V30 7179 H 693.89 1.44987 -0.645333 0
M  V30 7180 H 693.911 3.7011 0.883118 0
M  V30 7181 H 693.423 3.76532 -0.940495 0
M  V30 7182 H 691.524 3.41088 1.49966 0
M  V30 7183 H 691.637 4.78631 0.211837 0
M  V30 7184 H 690.001 2.53839 0.209204 0
M  V30 7185 H 690.784 3.15963 -1.34247 0
M  V30 7186 N 693.229 0.160201 1.56784 0
M  V30 7187 C 694.457 -0.494165 2.00912 0
M  V30 7188 C 694.872 -1.57548 1.04038 0
M  V30 7189 O 694.229 -1.82457 0.0394581 0
M  V30 7190 C 694.28 -1.08271 3.44905 0
M  V30 7191 O 694.001 -0.0445704 4.38077 0
M  V30 7192 C 695.502 -1.8164 4.04378 0
M  V30 7193 H 692.722 -0.127498 0.658776 0
M  V30 7194 H 695.266 0.258665 2.02858 0
M  V30 7195 H 693.421 -1.78609 3.4377 0
M  V30 7196 H 693.835 -0.477544 5.22322 0
M  V30 7197 H 695.309 -2.18094 5.07089 0
M  V30 7198 H 695.786 -2.70727 3.45838 0
M  V30 7199 H 696.392 -1.15969 4.09184 0
M  V30 7200 N 694.707 -1.5719 -0.113559 0
M  V30 7201 C 696.118 -1.74259 -0.670116 0
M  V30 7202 C 696.469 -0.779694 -1.80042 0
M  V30 7203 O 695.594 0.0461353 -2.16351 0
M  V30 7204 C 696.189 -3.15981 -1.22236 0
M  V30 7205 C 694.748 -3.34537 -1.72516 0
M  V30 7206 C 693.895 -2.70116 -0.627098 0
M  V30 7207 H 696.846 -1.58301 0.112396 0
M  V30 7208 H 696.867 -3.17832 -2.09197 0
M  V30 7209 H 696.379 -3.86038 -0.39949 0
M  V30 7210 H 694.48 -2.6953 -2.57263 0
M  V30 7211 H 694.593 -4.42737 -1.83086 0
M  V30 7212 H 692.957 -2.31501 -1.06204 0
M  V30 7213 H 693.74 -3.42802 0.184889 0
M  V30 7214 N 696.185 0.383891 -1.52853 0
M  V30 7215 C 697.115 1.47559 -1.80965 0
M  V30 7216 C 698.096 1.5669 -0.661986 0
M  V30 7217 O 699.281 1.71556 -0.910072 0
M  V30 7218 C 696.411 2.85114 -1.98312 0
M  V30 7219 C 695.365 2.9082 -3.14019 0
M  V30 7220 C 694.691 4.30873 -3.16627 0
M  V30 7221 C 695.991 2.60001 -4.52986 0
M  V30 7222 H 697.685 1.24283 -2.72386 0
M  V30 7223 H 695.231 0.596445 -1.31067 0
M  V30 7224 H 697.184 3.61496 -2.16561 0
M  V30 7225 H 695.908 3.09738 -1.03585 0
M  V30 7226 H 694.567 2.16886 -2.9556 0
M  V30 7227 H 694.215 4.52545 -2.19573 0
M  V30 7228 H 693.915 4.3561 -3.94357 0
M  V30 7229 H 695.439 5.09154 -3.37038 0
M  V30 7230 H 696.853 3.261 -4.71521 0
M  V30 7231 H 695.25 2.76081 -5.32822 0
M  V30 7232 H 696.32 1.5532 -4.59351 0
M  V30 7233 N 697.663 1.43903 0.642637 0
M  V30 7234 C 698.888 1.49758 1.43483 0
M  V30 7235 C 699.313 0.119911 1.87717 0
M  V30 7236 O 698.671 -0.888558 1.58033 0
M  V30 7237 C 698.719 2.45744 2.63898 0
M  V30 7238 O 697.823 1.95101 3.63331 0
M  V30 7239 H 697.164 0.506138 0.429791 0
M  V30 7240 H 699.694 1.88923 0.785438 0
M  V30 7241 H 699.704 2.63399 3.11584 0
M  V30 7242 H 698.379 3.45818 2.31046 0
M  V30 7243 H 696.956 1.87158 3.22531 0
M  V30 7244 N 699.141 -0.881989 1.30609 0
M  V30 7245 C 700.389 -1.63082 1.19368 0
M  V30 7246 C 700.71 -1.93376 -0.251147 0
M  V30 7247 O 699.98 -1.5723 -1.16857 0
M  V30 7248 H 698.56 -0.604542 0.438791 0
M  V30 7249 H 701.222 -1.05658 1.63776 0
M  V30 7250 H 700.318 -2.57966 1.7567 0
M  V30 7251 N 700.619 -1.13374 -1.09472 0
M  V30 7252 C 701.551 -0.768466 -2.15933 0
M  V30 7253 C 702.564 0.209585 -1.61445 0
M  V30 7254 O 703.753 -0.010539 -1.78497 0
M  V30 7255 C 700.853 -0.118266 -3.38694 0
M  V30 7256 C 700.026 -1.12829 -4.22597 0
M  V30 7257 C 699.085 -0.503875 -5.23782 0
M  V30 7258 O 698.111 -1.16374 -5.57177 0
M  V30 7259 N 699.313 0.724288 -5.75964 0
M  V30 7260 H 702.078 -1.68457 -2.47876 0
M  V30 7261 H 699.639 -1.02668 -1.25183 0
M  V30 7262 H 701.631 0.311698 -4.03498 0
M  V30 7263 H 700.201 0.700769 -3.04644 0
M  V30 7264 H 699.421 -1.73556 -3.53938 0
M  V30 7265 H 700.709 -1.81095 -4.75481 0
M  V30 7266 H 700.107 1.27918 -5.51048 0
M  V30 7267 H 698.664 1.09692 -6.42504 0
M  V30 7268 N 702.098 1.27442 -0.927168 0
M  V30 7269 C 703.347 1.93679 -0.563146 0
M  V30 7270 C 703.66 1.73673 0.899837 0
M  V30 7271 O 704.866 2.34247 1.37262 0
M  V30 7272 C 703.322 3.46961 -0.95636 0
M  V30 7273 C 702.93 3.75724 -2.43999 0
M  V30 7274 C 704.674 4.19282 -0.663565 0
M  V30 7275 C 702.581 5.22378 -2.77263 0
M  V30 7276 H 701.511 0.725059 -0.206894 0
M  V30 7277 H 704.162 1.44743 -1.12791 0
M  V30 7278 H 702.544 3.94703 -0.320254 0
M  V30 7279 H 703.718 3.38741 -3.12396 0
M  V30 7280 H 702.033 3.16605 -2.70463 0
M  V30 7281 H 704.63 5.27265 -0.888596 0
M  V30 7282 H 704.973 4.14382 0.399198 0
M  V30 7283 H 705.506 3.7736 -1.25875 0
M  V30 7284 H 702.245 5.32367 -3.82446 0
M  V30 7285 H 701.765 5.6051 -2.13516 0
M  V30 7286 H 703.444 5.9025 -2.64979 0
M  V30 7287 N 703.576 0.692616 1.41565 0
M  V30 7288 C 704.822 0.222664 2.01574 0
M  V30 7289 C 705.155 -1.1737 1.54719 0
M  V30 7290 O 704.43 -1.79161 0.757084 0
M  V30 7291 C 704.713 0.277064 3.59033 0
M  V30 7292 C 704.566 1.71016 4.16021 0
M  V30 7293 C 705.885 -0.36479 4.38586 0
M  V30 7294 H 703.004 0.0823839 0.732381 0
M  V30 7295 H 705.646 0.880778 1.68352 0
M  V30 7296 H 703.796 -0.283288 3.87466 0
M  V30 7297 H 705.468 2.32413 3.98475 0
M  V30 7298 H 703.711 2.24525 3.71175 0
M  V30 7299 H 704.382 1.69978 5.25178 0
M  V30 7300 H 706.858 0.112404 4.15948 0
M  V30 7301 H 705.734 -0.296169 5.481 0
M  V30 7302 H 705.995 -1.44506 4.17816 0
M  V30 7303 N 705.054 -1.51416 0.437162 0
M  V30 7304 C 706.284 -2.06204 -0.127859 0
M  V30 7305 C 706.692 -1.30463 -1.37026 0
M  V30 7306 O 706.035 -0.357516 -1.80187 0
M  V30 7307 C 706.097 -3.55783 -0.515632 0
M  V30 7308 C 705.761 -4.52776 0.619937 0
M  V30 7309 C 706.758 -4.98031 1.49201 0
M  V30 7310 C 704.443 -4.95878 0.800618 0
M  V30 7311 C 706.437 -5.85061 2.52947 0
M  V30 7312 C 704.124 -5.82699 1.84135 0
M  V30 7313 C 705.122 -6.27188 2.70416 0
M  V30 7314 O 704.81 -7.12284 3.72702 0
M  V30 7315 H 704.542 -0.675903 -0.011442 0
M  V30 7316 H 707.096 -1.95977 0.614986 0
M  V30 7317 H 705.326 -3.63793 -1.31118 0
M  V30 7318 H 707.015 -3.93087 -1.01179 0
M  V30 7319 H 707.781 -4.65426 1.36395 0
M  V30 7320 H 703.66 -4.60792 0.138617 0
M  V30 7321 H 707.204 -6.19708 3.20325 0
M  V30 7322 H 703.101 -6.14717 1.9696 0
M  V30 7323 H 703.869 -7.30462 3.69281 0
M  V30 7324 N 706.532 -0.168513 -1.56696 0
M  V30 7325 C 707.778 0.477865 -1.9709 0
M  V30 7326 C 708.111 1.63084 -1.05438 0
M  V30 7327 O 707.386 1.94238 -0.10095 0
M  V30 7328 C 707.669 0.963521 -3.4697 0
M  V30 7329 C 707.522 -0.189443 -4.49401 0
M  V30 7330 C 708.841 1.83813 -3.99876 0
M  V30 7331 H 705.96 0.172229 -0.716593 0
M  V30 7332 H 708.602 -0.254083 -1.88293 0
M  V30 7333 H 706.752 1.58724 -3.54597 0
M  V30 7334 H 708.424 -0.826451 -4.53836 0
M  V30 7335 H 706.667 -0.845366 -4.25483 0
M  V30 7336 H 707.338 0.192446 -5.51664 0
M  V30 7337 H 709.814 1.31235 -3.94863 0
M  V30 7338 H 708.69 2.14697 -5.0517 0
M  V30 7339 H 708.951 2.78289 -3.43523 0
M  V30 7340 N 708.01 1.57248 0.105221 0
M  V30 7341 C 709.25 1.87393 0.816283 0
M  V30 7342 C 709.614 0.758249 1.76393 0
M  V30 7343 O 710.815 0.941835 2.5176 0
M  V30 7344 C 709.086 3.22775 1.53463 0
M  V30 7345 S 710.645 3.74588 2.28537 0
M  V30 7346 H 707.463 0.656847 0.272164 0
M  V30 7347 H 710.065 1.9536 0.073909 0
M  V30 7348 H 708.769 4.01905 0.830674 0
M  V30 7349 H 708.3 3.17921 2.3171 0
M  V30 7350 H 710.315 3.47193 3.54502 0
M  V30 7351 N 709.488 -0.375779 1.53054 0
M  V30 7352 C 710.713 -1.14484 1.7294 0
M  V30 7353 C 711.138 -1.82572 0.452668 0
M  V30 7354 O 710.496 -1.71343 -0.592567 0
M  V30 7355 C 710.544 -2.15857 2.88857 0
M  V30 7356 O 709.648 -3.22725 2.56753 0
M  V30 7357 H 708.989 -0.332666 0.574656 0
M  V30 7358 H 711.519 -0.436025 1.999 0
M  V30 7359 H 711.529 -2.59631 3.14731 0
M  V30 7360 H 710.204 -1.65689 3.81471 0
M  V30 7361 H 708.781 -2.83996 2.41663 0
M  V30 7362 N 710.966 -1.44241 -0.634997 0
M  V30 7363 C 712.191 -1.50516 -1.42687 0
M  V30 7364 C 712.616 -0.129864 -1.87651 0
M  V30 7365 O 711.974 0.880164 -1.58502 0
M  V30 7366 C 712.022 -2.4714 -2.62591 0
M  V30 7367 O 711.126 -1.97025 -3.62291 0
M  V30 7368 H 710.467 -0.50841 -0.427101 0
M  V30 7369 H 712.997 -1.89337 -0.775408 0
M  V30 7370 H 713.007 -2.65048 -3.10183 0
M  V30 7371 H 711.682 -3.47039 -2.29209 0
M  V30 7372 H 710.259 -1.88866 -3.21534 0
M  V30 7373 N 712.444 0.87505 -1.31075 0
M  V30 7374 C 713.374 1.99775 -1.20881 0
M  V30 7375 C 714.355 1.69822 -0.0971612 0
M  V30 7376 O 715.54 1.92158 -0.280895 0
M  V30 7377 C 712.67 3.35163 -0.910118 0
M  V30 7378 C 711.624 3.79406 -1.98078 0
M  V30 7379 C 710.95 5.12197 -1.53488 0
M  V30 7380 C 712.25 3.97061 -3.39323 0
M  V30 7381 H 713.944 2.08562 -2.14808 0
M  V30 7382 H 711.49 1.00207 -1.03415 0
M  V30 7383 H 713.443 4.13237 -0.825423 0
M  V30 7384 H 712.167 3.26536 0.064822 0
M  V30 7385 H 710.826 3.03568 -2.05528 0
M  V30 7386 H 710.474 5.00007 -0.547941 0
M  V30 7387 H 710.174 5.4277 -2.2511 0
M  V30 7388 H 711.698 5.92785 -1.46417 0
M  V30 7389 H 713.112 4.65545 -3.34576 0
M  V30 7390 H 711.509 4.39025 -4.09118 0
M  V30 7391 H 712.579 3.00601 -3.80483 0
M  V30 7392 N 713.922 1.13953 1.08869 0
M  V30 7393 C 714.852 0.844824 2.17681 0
M  V30 7394 C 715.833 -0.198213 1.68941 0
M  V30 7395 O 717.018 -0.0559073 1.9412 0
M  V30 7396 C 714.148 0.316325 3.45856 0
M  V30 7397 C 713.102 1.29426 4.07962 0
M  V30 7398 C 712.428 0.625275 5.31031 0
M  V30 7399 C 713.728 2.65484 4.49795 0
M  V30 7400 H 715.422 1.75471 2.42591 0
M  V30 7401 H 712.968 0.845116 1.16592 0
M  V30 7402 H 714.921 0.0977876 4.21287 0
M  V30 7403 H 713.645 -0.628972 3.20486 0
M  V30 7404 H 712.304 1.49889 3.34558 0
M  V30 7405 H 711.952 -0.325678 5.01945 0
M  V30 7406 H 711.652 1.27777 5.73539 0
M  V30 7407 H 713.176 0.416152 6.0918 0
M  V30 7408 H 714.59 2.48957 5.16424 0
M  V30 7409 H 712.987 3.26963 5.03205 0
M  V30 7410 H 714.057 3.22717 3.61914 0
M  V30 7411 N 715.4 -1.26948 0.933913 0
M  V30 7412 C 716.363 -2.24889 0.442457 0
M  V30 7413 C 717.363 -1.54594 -0.442426 0
M  V30 7414 O 718.553 -1.72502 -0.242629 0
M  V30 7415 C 715.685 -3.3896 -0.363173 0
M  V30 7416 H 716.878 -2.69879 1.30787 0
M  V30 7417 H 714.431 -1.38978 0.715187 0
M  V30 7418 H 715.166 -2.99361 -1.24714 0
M  V30 7419 H 714.951 -3.9116 0.271366 0
M  V30 7420 H 716.441 -4.11739 -0.697186 0
M  V30 7421 N 716.879 -0.700114 -1.41195 0
M  V30 7422 C 718.125 -0.233351 -2.01453 0
M  V30 7423 C 718.458 1.16548 -1.55339 0
M  V30 7424 O 717.733 1.78756 -0.766575 0
M  V30 7425 C 718.016 -0.2961 -3.58881 0
M  V30 7426 C 717.869 -1.7322 -4.15108 0
M  V30 7427 C 719.188 0.341525 -4.38773 0
M  V30 7428 H 716.307 -0.0862667 -0.731934 0
M  V30 7429 H 718.949 -0.889693 -1.67882 0
M  V30 7430 H 717.099 0.262736 -3.87611 0
M  V30 7431 H 718.771 -2.34523 -3.97236 0
M  V30 7432 H 717.014 -2.2649 -3.69979 0
M  V30 7433 H 717.685 -1.7276 -5.24269 0
M  V30 7434 H 720.161 -0.134461 -4.15883 0
M  V30 7435 H 719.037 0.267098 -5.4825 0
M  V30 7436 H 719.298 1.42289 -4.18577 0
M  V30 7437 N 718.357 1.51182 -0.445186 0
M  V30 7438 C 719.287 2.30821 0.352686 0
M  V30 7439 C 720.268 1.36576 1.01395 0
M  V30 7440 O 721.453 1.65497 1.01609 0
M  V30 7441 C 718.583 3.15593 1.44976 0
M  V30 7442 C 717.537 4.1818 0.911553 0
M  V30 7443 C 716.863 4.91523 2.10497 0
M  V30 7444 C 718.163 5.22266 -0.059418 0
M  V30 7445 H 719.857 2.97771 -0.311936 0
M  V30 7446 H 717.403 1.43201 -0.151461 0
M  V30 7447 H 719.356 3.70091 2.01521 0
M  V30 7448 H 718.08 2.4648 2.14278 0
M  V30 7449 H 716.739 3.64746 0.368264 0
M  V30 7450 H 716.387 4.18906 2.78437 0
M  V30 7451 H 716.087 5.60898 1.7512 0
M  V30 7452 H 717.611 5.48847 2.6758 0
M  V30 7453 H 719.025 5.71789 0.415985 0
M  V30 7454 H 717.422 5.99213 -0.326152 0
M  V30 7455 H 718.492 4.7461 -0.993631 0
M  V30 7456 N 719.835 0.176821 1.56605 0
M  V30 7457 C 720.765 -0.746841 2.21234 0
M  V30 7458 C 721.746 -1.23502 1.16967 0
M  V30 7459 O 722.931 -1.28718 1.45414 0
M  V30 7460 C 720.061 -1.97407 2.8574 0
M  V30 7461 C 719.015 -1.62153 3.96094 0
M  V30 7462 C 718.341 -2.92387 4.47676 0
M  V30 7463 C 719.641 -0.845353 5.15413 0
M  V30 7464 H 721.335 -0.208116 2.98676 0
M  V30 7465 H 718.881 -0.0986594 1.43662 0
M  V30 7466 H 720.834 -2.62531 3.2963 0
M  V30 7467 H 719.558 -2.53703 2.05676 0
M  V30 7468 H 718.217 -0.993964 3.52868 0
M  V30 7469 H 717.865 -3.46734 3.64396 0
M  V30 7470 H 717.565 -2.69551 5.22127 0
M  V30 7471 H 719.089 -3.5853 4.94255 0
M  V30 7472 H 720.503 -1.39929 5.55961 0
M  V30 7473 H 718.9 -0.715814 5.95815 0
M  V30 7474 H 719.97 0.157239 4.84645 0
M  V30 7475 N 721.313 -1.57302 -0.09688 0
M  V30 7476 C 722.541 -1.90202 -0.814295 0
M  V30 7477 C 722.956 -0.770344 -1.72369 0
M  V30 7478 O 722.313 0.257764 -1.8067 0
M  V30 7479 C 722.364 -3.22708 -1.62916 0
M  V30 7480 O 722.085 -4.31522 -0.756343 0
M  V30 7481 C 723.586 -3.69459 -2.44979 0
M  V30 7482 H 720.806 -0.629275 -0.232925 0
M  V30 7483 H 723.35 -2.04364 -0.0746482 0
M  V30 7484 H 721.505 -3.1015 -2.32133 0
M  V30 7485 H 721.919 -5.07604 -1.32054 0
M  V30 7486 H 723.393 -4.64875 -2.9765 0
M  V30 7487 H 723.87 -2.97211 -3.23361 0
M  V30 7488 H 724.476 -3.84879 -1.80964 0
M  V30 7489 N 722.791 0.367657 -1.53252 0
M  V30 7490 C 723.754 1.43308 -1.78873 0
M  V30 7491 C 724.754 1.46671 -0.659115 0
M  V30 7492 O 725.944 1.47468 -0.927306 0
M  V30 7493 C 723.076 2.82442 -1.90892 0
M  V30 7494 H 724.269 1.21864 -2.74024 0
M  V30 7495 H 721.822 0.600668 -1.44297 0
M  V30 7496 H 722.557 3.09202 -0.978 0
M  V30 7497 H 722.342 2.81399 -2.73051 0
M  V30 7498 H 723.832 3.59601 -2.12314 0
M  V30 7499 N 724.269 1.44576 0.627338 0
M  V30 7500 C 725.199 1.54562 1.75022 0
M  V30 7501 C 726.18 0.398378 1.65369 0
M  V30 7502 O 727.365 0.61899 1.84071 0
M  V30 7503 C 724.495 1.49309 3.13567 0
M  V30 7504 C 723.449 2.62549 3.38012 0
M  V30 7505 C 722.775 2.42348 4.76625 0
M  V30 7506 C 724.075 4.04678 3.30202 0
M  V30 7507 H 725.769 2.4855 1.66922 0
M  V30 7508 H 723.315 1.19624 0.801636 0
M  V30 7509 H 725.268 1.54895 3.919 0
M  V30 7510 H 723.992 0.518392 3.2246 0
M  V30 7511 H 722.651 2.56358 2.62061 0
M  V30 7512 H 722.299 1.43062 4.82226 0
M  V30 7513 H 721.999 3.18273 4.93939 0
M  V30 7514 H 723.523 2.49758 5.57183 0
M  V30 7515 H 724.937 4.12217 3.98435 0
M  V30 7516 H 723.334 4.80836 3.5905 0
M  V30 7517 H 724.404 4.2798 2.27949 0
M  V30 7518 N 725.747 -0.868086 1.31537 0
M  V30 7519 C 726.987 -1.63526 1.22632 0
M  V30 7520 C 727.351 -1.90828 -0.211815 0
M  V30 7521 O 728.552 -2.65429 -0.424387 0
M  V30 7522 C 726.823 -2.92849 2.04876 0
M  V30 7523 S 728.382 -3.83717 2.12853 0
M  V30 7524 H 725.2 -0.56105 0.436743 0
M  V30 7525 H 727.802 -1.02908 1.66223 0
M  V30 7526 H 726.506 -2.70717 3.08449 0
M  V30 7527 H 726.037 -3.58491 1.62011 0
M  V30 7528 H 728.052 -4.79719 1.26822 0
M  V30 7529 N 727.225 -1.14528 -1.08264 0
M  V30 7530 C 728.155 -0.856356 -2.1723 0
M  V30 7531 C 729.136 0.189251 -1.69044 0
M  V30 7532 O 730.321 0.0456119 -1.94146 0
M  V30 7533 C 727.451 -0.334662 -3.45684 0
M  V30 7534 C 726.405 -1.31588 -4.0727 0
M  V30 7535 C 725.731 -0.653428 -5.30692 0
M  V30 7536 C 727.031 -2.67866 -4.48381 0
M  V30 7537 H 728.725 -1.76755 -2.41657 0
M  V30 7538 H 726.271 -0.851287 -1.16143 0
M  V30 7539 H 728.224 -0.120128 -4.21229 0
M  V30 7540 H 726.948 0.611967 -3.20815 0
M  V30 7541 H 725.607 -1.51661 -3.33758 0
M  V30 7542 H 725.255 0.299054 -5.0211 0
M  V30 7543 H 724.955 -1.30817 -5.72853 0
M  V30 7544 H 726.479 -0.448453 -6.08951 0
M  V30 7545 H 727.893 -2.51692 -5.15096 0
M  V30 7546 H 726.29 -3.29627 -5.01464 0
M  V30 7547 H 727.36 -3.24632 -3.60198 0
M  V30 7548 N 728.703 1.26451 -0.940633 0
M  V30 7549 C 729.949 1.94065 -0.58878 0
M  V30 7550 C 730.282 1.7363 0.869853 0
M  V30 7551 O 729.557 1.073 1.62225 0
M  V30 7552 C 729.84 3.47852 -0.931199 0
M  V30 7553 C 729.693 3.77575 -2.44453 0
M  V30 7554 C 731.012 4.37832 -0.446229 0
M  V30 7555 H 728.131 0.704827 -0.21538 0
M  V30 7556 H 730.773 1.4933 -1.17475 0
M  V30 7557 H 728.923 3.86085 -0.432539 0
M  V30 7558 H 730.595 3.49059 -3.01588 0
M  V30 7559 H 728.838 3.23671 -2.88825 0
M  V30 7560 H 729.509 4.85068 -2.63464 0
M  V30 7561 H 731.985 4.06822 -0.873778 0
M  V30 7562 H 730.861 5.44228 -0.714648 0
M  V30 7563 H 731.122 4.37239 0.653815 0
M  V30 7564 N 730.181 0.707592 1.40822 0
M  V30 7565 C 731.111 0.0644925 2.33411 0
M  V30 7566 C 732.092 -0.754205 1.52466 0
M  V30 7567 O 733.277 -0.704749 1.80961 0
M  V30 7568 C 730.407 -0.863865 3.36385 0
M  V30 7569 C 729.361 -0.15138 4.27732 0
M  V30 7570 C 728.687 -1.19491 5.21177 0
M  V30 7571 C 729.987 0.989607 5.12839 0
M  V30 7572 H 731.681 0.837829 2.87438 0
M  V30 7573 H 729.227 0.404346 1.38207 0
M  V30 7574 H 731.18 -1.32309 4.0009 0
M  V30 7575 H 729.904 -1.66901 2.80734 0
M  V30 7576 H 728.563 0.287937 3.65467 0
M  V30 7577 H 728.211 -1.9929 4.61836 0
M  V30 7578 H 727.911 -0.723123 5.83134 0
M  V30 7579 H 729.435 -1.6544 5.8776 0
M  V30 7580 H 730.849 0.610114 5.70044 0
M  V30 7581 H 729.246 1.38926 5.83798 0
M  V30 7582 H 730.316 1.82389 4.49291 0
M  V30 7583 N 731.66 -1.50943 0.453197 0
M  V30 7584 C 732.623 -2.26684 -0.338705 0
M  V30 7585 C 733.623 -1.30748 -0.936032 0
M  V30 7586 O 734.813 -1.54327 -0.808002 0
M  V30 7587 C 731.945 -3.07063 -1.48071 0
M  V30 7588 H 733.138 -2.98131 0.325289 0
M  V30 7589 H 730.691 -1.54926 0.206771 0
M  V30 7590 H 731.426 -2.4007 -2.18029 0
M  V30 7591 H 731.211 -3.77545 -1.0584 0
M  V30 7592 H 732.701 -3.64393 -2.0398 0
M  V30 7593 N 733.138 -0.185124 -1.56509 0
M  V30 7594 C 734.07 0.771401 -2.15829 0
M  V30 7595 C 735.083 1.18392 -1.11747 0
M  V30 7596 O 736.272 1.12137 -1.38879 0
M  V30 7597 C 733.372 2.05169 -2.69739 0
M  V30 7598 C 732.545 1.80056 -3.98621 0
M  V30 7599 C 731.604 2.92435 -4.37456 0
M  V30 7600 O 730.63 2.62473 -5.05071 0
M  V30 7601 N 731.832 4.20554 -4.00143 0
M  V30 7602 H 734.597 0.264184 -2.98533 0
M  V30 7603 H 732.158 -0.00281069 -1.619 0
M  V30 7604 H 734.15 2.7947 -2.92709 0
M  V30 7605 H 732.72 2.47041 -1.91545 0
M  V30 7606 H 731.94 0.895862 -3.83885 0
M  V30 7607 H 733.228 1.60662 -4.82768 0
M  V30 7608 H 732.626 4.47753 -3.45736 0
M  V30 7609 H 731.183 4.91514 -4.28085 0
M  V30 7610 N 734.616 1.57351 0.0885366 0
M  V30 7611 C 735.862 1.87564 0.786842 0
M  V30 7612 C 736.217 0.776774 1.76023 0
M  V30 7613 O 735.51 -0.220637 1.90325 0
M  V30 7614 C 735.704 3.22098 1.5488 0
M  V30 7615 C 735.533 4.44967 0.650706 0
M  V30 7616 C 734.303 5.04444 0.293957 0
M  V30 7617 C 736.501 5.1428 -0.0452187 0
M  V30 7618 N 734.483 6.10846 -0.611609 0
M  V30 7619 C 735.854 6.14704 -0.808603 0
M  V30 7620 C 737.909 4.97759 -0.118451 0
M  V30 7621 C 736.612 7.00392 -1.63839 0
M  V30 7622 C 738.638 5.8396 -0.935157 0
M  V30 7623 C 738 6.83909 -1.68664 0
M  V30 7624 H 734.099 0.73613 0.263887 0
M  V30 7625 H 736.683 1.94638 0.049074 0
M  V30 7626 H 734.854 3.16064 2.2574 0
M  V30 7627 H 736.586 3.40015 2.19481 0
M  V30 7628 H 733.341 4.69214 0.643086 0
M  V30 7629 H 733.765 6.68695 -1.05714 0
M  V30 7630 H 738.407 4.20418 0.448202 0
M  V30 7631 H 736.125 7.7712 -2.21608 0
M  V30 7632 H 739.711 5.73236 -0.994579 0
M  V30 7633 H 738.591 7.49454 -2.30842 0
M  V30 7634 N 736.094 -0.359525 1.53444 0
M  V30 7635 C 737.319 -1.12644 1.74144 0
M  V30 7636 C 737.744 -1.82082 0.472007 0
M  V30 7637 O 737.102 -1.71962 -0.57436 0
M  V30 7638 C 737.15 -2.12781 2.9113 0
M  V30 7639 O 736.254 -3.19984 2.60162 0
M  V30 7640 H 735.595 -0.326553 0.578152 0
M  V30 7641 H 738.125 -0.414798 2.00351 0
M  V30 7642 H 738.135 -2.56278 3.17467 0
M  V30 7643 H 736.81 -1.61634 3.83207 0
M  V30 7644 H 735.387 -2.81417 2.44661 0
M  V30 7645 N 737.572 -1.44907 -0.619662 0
M  V30 7646 C 738.818 -1.48512 -1.38102 0
M  V30 7647 C 739.151 -0.121686 -1.93818 0
M  V30 7648 O 738.426 0.862256 -1.74343 0
M  V30 7649 C 738.709 -2.55469 -2.53787 0
M  V30 7650 C 738.562 -4.01212 -2.03345 0
M  V30 7651 C 739.881 -2.58821 -3.55949 0
M  V30 7652 H 737 -0.540712 -0.500799 0
M  V30 7653 H 739.642 -1.7665 -0.69962 0
M  V30 7654 H 737.792 -2.31606 -3.11915 0
M  V30 7655 H 739.464 -4.36245 -1.49959 0
M  V30 7656 H 737.707 -4.12443 -1.34438 0
M  V30 7657 H 738.378 -4.71717 -2.86683 0
M  V30 7658 H 740.854 -2.80172 -3.07641 0
M  V30 7659 H 739.73 -3.35542 -4.34399 0
M  V30 7660 H 739.991 -1.63451 -4.10775 0
M  V30 7661 N 739.05 0.861098 -1.31996 0
M  V30 7662 C 740.461 1.43065 -1.19955 0
M  V30 7663 C 740.812 1.95273 0.190489 0
M  V30 7664 O 739.937 1.87012 1.08882 0
M  V30 7665 C 740.532 2.60052 -2.1716 0
M  V30 7666 C 739.091 3.13026 -2.09026 0
M  V30 7667 C 738.238 1.85756 -2.05888 0
M  V30 7668 H 741.189 0.668834 -1.43918 0
M  V30 7669 H 741.21 3.37016 -1.76637 0
M  V30 7670 H 740.722 2.22024 -3.18319 0
M  V30 7671 H 738.823 3.55653 -1.11092 0
M  V30 7672 H 738.936 3.74707 -2.98549 0
M  V30 7673 H 737.3 2.05088 -1.51033 0
M  V30 7674 H 738.083 1.49954 -3.08818 0
M  V30 7675 N 740.528 1.15101 1.07655 0
M  V30 7676 C 741.458 0.867864 2.16773 0
M  V30 7677 C 742.439 -0.180283 1.69142 0
M  V30 7678 O 743.624 -0.0353152 1.94168 0
M  V30 7679 C 740.754 0.35299 3.45501 0
M  V30 7680 C 739.708 1.33746 4.06566 0
M  V30 7681 C 739.034 0.681562 5.30338 0
M  V30 7682 C 740.334 2.7024 4.46954 0
M  V30 7683 H 742.028 1.78034 2.40716 0
M  V30 7684 H 739.574 0.857435 1.15689 0
M  V30 7685 H 741.527 0.142465 4.21159 0
M  V30 7686 H 740.251 -0.594945 3.21135 0
M  V30 7687 H 738.91 1.53429 3.32949 0
M  V30 7688 H 738.558 -0.272422 5.02262 0
M  V30 7689 H 738.258 1.33853 5.72151 0
M  V30 7690 H 739.782 0.48074 6.08705 0
M  V30 7691 H 741.196 2.5442 5.13754 0
M  V30 7692 H 739.593 3.32282 4.99709 0
M  V30 7693 H 740.663 3.26537 3.58471 0
M  V30 7694 N 742.006 -1.2595 0.947325 0
M  V30 7695 C 742.936 -2.28521 0.479604 0
M  V30 7696 C 743.917 -1.63469 -0.470293 0
M  V30 7697 O 745.102 -1.90627 -0.370824 0
M  V30 7698 C 742.232 -3.46397 -0.250289 0
M  V30 7699 C 741.186 -4.23578 0.613643 0
M  V30 7700 C 740.512 -5.34131 -0.246568 0
M  V30 7701 C 741.812 -4.86979 1.88809 0
M  V30 7702 H 743.506 -2.67895 1.33688 0
M  V30 7703 H 741.052 -1.28783 0.644274 0
M  V30 7704 H 743.005 -4.17269 -0.588576 0
M  V30 7705 H 741.729 -3.05993 -1.14175 0
M  V30 7706 H 740.388 -3.54478 0.93491 0
M  V30 7707 H 740.036 -4.89968 -1.13756 0
M  V30 7708 H 739.736 -5.86683 0.328123 0
M  V30 7709 H 741.26 -6.07839 -0.579986 0
M  V30 7710 H 742.674 -5.50034 1.61666 0
M  V30 7711 H 741.071 -5.49675 2.40784 0
M  V30 7712 H 742.141 -4.09575 2.5957 0
M  V30 7713 N 743.484 -0.715051 -1.40445 0
M  V30 7714 C 744.709 -0.26254 -2.05732 0
M  V30 7715 C 745.134 1.08691 -1.53519 0
M  V30 7716 O 744.492 1.68453 -0.670328 0
M  V30 7717 C 744.54 -0.25195 -3.59719 0
M  V30 7718 O 743.644 0.766998 -4.05205 0
M  V30 7719 H 742.985 -0.123398 -0.652433 0
M  V30 7720 H 745.515 -0.975382 -1.79854 0
M  V30 7721 H 745.525 -0.0894537 -4.07902 0
M  V30 7722 H 744.2 -1.23672 -3.97087 0
M  V30 7723 H 742.777 0.572269 -3.68483 0
M  V30 7724 N 744.962 1.50701 -0.461195 0
M  V30 7725 C 746.21 2.01867 0.0970051 0
M  V30 7726 C 746.531 1.34591 1.41104 0
M  V30 7727 O 745.801 0.488041 1.89723 0
M  V30 7728 H 744.381 0.74599 0.0388392 0
M  V30 7729 H 747.043 1.85129 -0.609357 0
M  V30 7730 H 746.139 3.11051 0.255688 0
M  V30 7731 N 746.441 0.193421 1.56409 0
M  V30 7732 C 747.718 -0.493318 1.89277 0
M  V30 7733 C 748.098 -1.79765 1.10669 0
M  V30 7734 O 747.446 -2.27558 0.207274 0
M  V30 7735 C 747.656 -0.713732 3.41624 0
M  V30 7736 C 749.004 -1.03385 4.11821 0
M  V30 7737 O 750.028 -0.801511 3.47065 0
M  V30 7738 O 748.887 -1.47327 5.26267 0
M  V30 7739 H 745.981 -0.256973 0.786062 0
M  V30 7740 H 748.527 0.23351 1.68086 0
M  V30 7741 H 747.299 0.207446 3.9075 0
M  V30 7742 H 746.922 -1.49308 3.68501 0
M  V30 7743 N 747.919 -1.57396 -0.0801906 0
M  V30 7744 C 748.849 -2.06145 -1.09665 0
M  V30 7745 C 749.83 -0.953273 -1.40878 0
M  V30 7746 O 751.015 -1.22548 -1.50651 0
M  V30 7747 C 748.145 -2.49836 -2.41245 0
M  V30 7748 C 747.099 -3.64454 -2.24405 0
M  V30 7749 C 746.425 -3.94172 -3.61293 0
M  V30 7750 C 747.725 -4.94807 -1.67223 0
M  V30 7751 H 749.419 -2.91316 -0.691028 0
M  V30 7752 H 746.965 -1.40145 -0.330957 0
M  V30 7753 H 748.918 -2.82552 -3.12638 0
M  V30 7754 H 747.642 -1.61683 -2.83771 0
M  V30 7755 H 746.301 -3.32008 -1.55454 0
M  V30 7756 H 745.949 -3.03163 -4.01374 0
M  V30 7757 H 745.649 -4.71345 -3.50867 0
M  V30 7758 H 747.173 -4.29376 -4.3413 0
M  V30 7759 H 748.587 -5.25807 -2.28472 0
M  V30 7760 H 746.984 -5.76245 -1.67515 0
M  V30 7761 H 748.054 -4.80751 -0.632944 0
M  V30 7762 N 749.397 0.351382 -1.53633 0
M  V30 7763 C 750.327 1.43688 -1.84055 0
M  V30 7764 C 751.308 1.55251 -0.695073 0
M  V30 7765 O 752.493 1.69587 -0.946257 0
M  V30 7766 C 749.623 2.80843 -2.04315 0
M  V30 7767 C 748.577 2.84094 -3.20117 0
M  V30 7768 C 747.903 4.2406 -3.25696 0
M  V30 7769 C 749.203 2.50334 -4.58399 0
M  V30 7770 H 750.897 1.18478 -2.74961 0
M  V30 7771 H 748.443 0.568509 -1.32303 0
M  V30 7772 H 750.396 3.56821 -2.2418 0
M  V30 7773 H 749.12 3.07471 -1.10132 0
M  V30 7774 H 747.779 2.10568 -3.00094 0
M  V30 7775 H 747.427 4.47785 -2.29123 0
M  V30 7776 H 747.127 4.27147 -4.03509 0
M  V30 7777 H 748.651 5.0189 -3.47762 0
M  V30 7778 H 750.065 3.16025 -4.78332 0
M  V30 7779 H 748.462 2.64717 -5.38558 0
M  V30 7780 H 749.532 1.45542 -4.62543 0
M  V30 7781 N 750.875 1.45233 0.611969 0
M  V30 7782 C 752.121 1.50233 1.37119 0
M  V30 7783 C 752.476 0.140336 1.91888 0
M  V30 7784 O 751.769 -0.847161 1.71854 0
M  V30 7785 C 751.963 2.51353 2.54079 0
M  V30 7786 C 751.792 3.97251 2.10764 0
M  V30 7787 C 750.562 4.65256 1.97141 0
M  V30 7788 C 752.76 4.85914 1.68499 0
M  V30 7789 N 750.742 5.95895 1.4759 0
M  V30 7790 C 752.113 6.06147 1.30331 0
M  V30 7791 C 754.168 4.72813 1.56051 0
M  V30 7792 C 752.871 7.14729 0.809591 0
M  V30 7793 C 754.897 5.8144 1.08083 0
M  V30 7794 C 754.259 7.00825 0.708775 0
M  V30 7795 H 750.358 0.604708 0.495835 0
M  V30 7796 H 752.942 1.81679 0.700055 0
M  V30 7797 H 751.113 2.21866 3.18795 0
M  V30 7798 H 752.845 2.46528 3.20945 0
M  V30 7799 H 749.6 4.20345 2.18191 0
M  V30 7800 H 750.024 6.65349 1.25059 0
M  V30 7801 H 754.666 3.80931 1.83443 0
M  V30 7802 H 752.384 8.06404 0.523215 0
M  V30 7803 H 755.97 5.73335 0.988842 0
M  V30 7804 H 754.85 7.83448 0.343305 0
M  V30 7805 N 752.353 -0.854086 1.3245 0
M  V30 7806 C 753.581 -1.64074 1.26045 0
M  V30 7807 C 753.996 -1.8802 -0.171456 0
M  V30 7808 O 753.353 -1.4496 -1.10873 0
M  V30 7809 C 753.404 -2.9997 2.01743 0
M  V30 7810 O 753.125 -2.77084 3.39346 0
M  V30 7811 C 754.626 -3.94414 2.02368 0
M  V30 7812 H 751.846 -0.511015 0.434862 0
M  V30 7813 H 754.39 -1.06494 1.74583 0
M  V30 7814 H 752.545 -3.54193 1.56926 0
M  V30 7815 H 752.959 -3.63514 3.78098 0
M  V30 7816 H 754.433 -4.87032 2.59815 0
M  V30 7817 H 754.91 -4.27427 1.01009 0
M  V30 7818 H 755.516 -3.46127 2.47135 0
M  V30 7819 N 753.831 -1.1567 -1.07043 0
M  V30 7820 C 754.794 -0.858906 -2.12498 0
M  V30 7821 C 755.794 0.142735 -1.60165 0
M  V30 7822 O 756.984 -0.0872678 -1.73981 0
M  V30 7823 C 754.116 -0.283021 -3.39723 0
M  V30 7824 H 755.309 -1.79368 -2.40348 0
M  V30 7825 H 752.862 -0.964608 -1.22984 0
M  V30 7826 H 753.597 0.659796 -3.17517 0
M  V30 7827 H 753.382 -1.00467 -3.7901 0
M  V30 7828 H 754.872 -0.0923543 -4.17498 0
M  V30 7829 N 755.309 1.25446 -0.953992 0
M  V30 7830 C 756.555 1.9343 -0.60933 0
M  V30 7831 C 756.888 1.74542 0.851388 0
M  V30 7832 O 756.163 1.09014 1.61078 0
M  V30 7833 C 756.446 3.46844 -0.968041 0
M  V30 7834 C 756.299 3.74961 -2.48444 0
M  V30 7835 C 757.618 4.37334 -0.492641 0
M  V30 7836 H 754.737 0.702502 -0.222844 0
M  V30 7837 H 757.379 1.48076 -1.19053 0
M  V30 7838 H 755.529 3.85604 -0.473465 0
M  V30 7839 H 757.201 3.45841 -3.05273 0
M  V30 7840 H 755.444 3.20589 -2.92241 0
M  V30 7841 H 756.115 4.82246 -2.68594 0
M  V30 7842 H 758.591 4.05873 -0.916878 0
M  V30 7843 H 757.467 5.43439 -0.772331 0
M  V30 7844 H 757.728 4.37908 0.607403 0
M  V30 7845 N 756.787 0.722489 1.40064 0
M  V30 7846 C 758.033 0.265371 2.01056 0
M  V30 7847 C 758.366 -1.14062 1.57174 0
M  V30 7848 O 757.641 -1.77514 0.794916 0
M  V30 7849 C 757.924 0.353157 3.58364 0
M  V30 7850 C 757.777 1.79802 4.123 0
M  V30 7851 C 759.096 -0.271677 4.39261 0
M  V30 7852 H 756.215 0.0979002 0.730469 0
M  V30 7853 H 758.857 0.916289 1.66446 0
M  V30 7854 H 757.007 -0.201037 3.87979 0
M  V30 7855 H 758.679 2.40813 3.93455 0
M  V30 7856 H 756.922 2.32348 3.66329 0
M  V30 7857 H 757.593 1.81079 5.21454 0
M  V30 7858 H 760.069 0.200607 4.15616 0
M  V30 7859 H 758.945 -0.179843 5.48605 0
M  V30 7860 H 759.206 -1.35611 4.20787 0
M  V30 7861 N 758.265 -1.50454 0.469181 0
M  V30 7862 C 759.511 -2.02615 -0.0865971 0
M  V30 7863 C 759.844 -1.35062 -1.39542 0
M  V30 7864 O 759.119 -0.475701 -1.88593 0
M  V30 7865 C 759.402 -3.59068 -0.272385 0
M  V30 7866 C 759.255 -4.37196 1.05733 0
M  V30 7867 C 760.574 -4.2793 -1.0278 0
M  V30 7868 H 757.693 -0.736389 -0.0299977 0
M  V30 7869 H 760.335 -1.79792 0.614399 0
M  V30 7870 H 758.485 -3.78646 -0.869471 0
M  V30 7871 H 760.157 -4.29195 1.69084 0
M  V30 7872 H 758.4 -4.01013 1.65442 0
M  V30 7873 H 759.071 -5.44924 0.880997 0
M  V30 7874 H 761.547 -4.12816 -0.521718 0
M  V30 7875 H 760.423 -5.37214 -1.12659 0
M  V30 7876 H 760.684 -3.90968 -2.0639 0
M  V30 7877 N 759.743 -0.201713 -1.56304 0
M  V30 7878 C 760.673 0.71155 -2.22394 0
M  V30 7879 C 761.654 1.21625 -1.18917 0
M  V30 7880 O 762.839 1.26388 -1.47444 0
M  V30 7881 C 759.969 1.92837 -2.88845 0
M  V30 7882 C 758.923 1.55831 -3.98623 0
M  V30 7883 C 758.249 2.85228 -4.52271 0
M  V30 7884 C 759.549 0.763249 -5.16693 0
M  V30 7885 H 761.243 0.160573 -2.98969 0
M  V30 7886 H 758.789 0.0757916 -1.438 0
M  V30 7887 H 760.742 2.57253 -3.33764 0
M  V30 7888 H 759.466 2.50398 -2.09686 0
M  V30 7889 H 758.125 0.9377 -3.54405 0
M  V30 7890 H 757.773 3.40893 -3.69866 0
M  V30 7891 H 757.473 2.6121 -5.26349 0
M  V30 7892 H 758.997 3.50622 -4.99897 0
M  V30 7893 H 760.411 1.31066 -5.58117 0
M  V30 7894 H 758.808 0.620935 -5.96879 0
M  V30 7895 H 759.878 -0.234322 -4.84334 0
M  V30 7896 N 761.222 1.57436 0.0718424 0
M  V30 7897 C 762.152 2.06724 1.08571 0
M  V30 7898 C 763.133 0.960731 1.40371 0
M  V30 7899 O 764.318 1.23345 1.49999 0
M  V30 7900 C 761.448 2.51112 2.39916 0
M  V30 7901 C 760.402 3.65639 2.22469 0
M  V30 7902 C 759.728 3.96082 3.59198 0
M  V30 7903 C 761.028 4.95687 1.64596 0
M  V30 7904 H 762.722 2.91679 0.675569 0
M  V30 7905 H 760.268 1.40319 0.32352 0
M  V30 7906 H 762.221 2.84206 3.11135 0
M  V30 7907 H 760.945 1.63186 2.8291 0
M  V30 7908 H 759.604 3.32828 1.53691 0
M  V30 7909 H 759.252 3.05287 3.99761 0
M  V30 7910 H 758.952 4.73199 3.48362 0
M  V30 7911 H 760.476 4.31672 4.31847 0
M  V30 7912 H 761.89 5.27011 2.25681 0
M  V30 7913 H 760.287 5.77126 1.64457 0
M  V30 7914 H 761.357 4.8108 0.60744 0
M  V30 7915 N 762.7 -0.34323 1.53817 0
M  V30 7916 C 763.63 -1.42709 1.84814 0
M  V30 7917 C 764.611 -1.5488 0.703297 0
M  V30 7918 O 765.796 -1.69082 0.955237 0
M  V30 7919 C 762.926 -2.79756 2.05801 0
M  V30 7920 C 761.88 -2.82392 3.21619 0
M  V30 7921 C 761.206 -4.22326 3.2794 0
M  V30 7922 C 762.506 -2.479 4.59721 0
M  V30 7923 H 764.2 -1.17018 2.75585 0
M  V30 7924 H 761.746 -0.561485 1.32602 0
M  V30 7925 H 763.699 -3.55627 2.26069 0
M  V30 7926 H 762.423 -3.06883 1.11761 0
M  V30 7927 H 761.082 -2.08974 3.01207 0
M  V30 7928 H 760.73 -4.46564 2.31494 0
M  V30 7929 H 760.43 -4.25001 4.05768 0
M  V30 7930 H 761.954 -5.00039 3.50419 0
M  V30 7931 H 763.368 -3.13484 4.80001 0
M  V30 7932 H 761.765 -2.61857 5.39954 0
M  V30 7933 H 762.835 -1.43087 4.63308 0
M  V30 7934 N 764.178 -1.45556 -0.604258 0
M  V30 7935 C 765.108 -1.57327 -1.72541 0
M  V30 7936 C 766.089 -0.424637 -1.64714 0
M  V30 7937 O 767.274 -0.648196 -1.83063 0
M  V30 7938 C 764.404 -1.54279 -3.11152 0
M  V30 7939 C 763.358 -2.67893 -3.33792 0
M  V30 7940 C 762.684 -2.499 -4.72709 0
M  V30 7941 C 763.984 -4.0988 -3.23722 0
M  V30 7942 H 765.678 -2.51175 -1.62947 0
M  V30 7943 H 763.224 -1.20884 -0.782504 0
M  V30 7944 H 765.177 -1.6111 -3.89386 0
M  V30 7945 H 763.901 -0.569627 -3.21594 0
M  V30 7946 H 762.56 -2.60495 -2.57949 0
M  V30 7947 H 762.208 -1.50715 -4.79889 0
M  V30 7948 H 761.908 -3.26091 -4.88813 0
M  V30 7949 H 763.432 -2.5859 -5.5314 0
M  V30 7950 H 764.846 -4.18503 -3.91826 0
M  V30 7951 H 763.243 -4.86487 -3.51355 0
M  V30 7952 H 764.313 -4.31553 -2.21111 0
M  V30 7953 N 765.656 0.84705 -1.32902 0
M  V30 7954 C 766.586 1.97166 -1.25091 0
M  V30 7955 C 767.567 1.69578 -0.133161 0
M  V30 7956 O 768.752 1.91519 -0.321591 0
M  V30 7957 C 765.882 3.33157 -0.981006 0
M  V30 7958 C 764.836 3.75119 -2.06082 0
M  V30 7959 C 764.162 5.08826 -1.64318 0
M  V30 7960 C 765.462 3.89774 -3.47669 0
M  V30 7961 H 767.156 2.03958 -2.19184 0
M  V30 7962 H 764.702 0.979907 -1.05517 0
M  V30 7963 H 766.655 4.11393 -0.912891 0
M  V30 7964 H 765.379 3.266 -0.00445559 0
M  V30 7965 H 764.038 2.9914 -2.11921 0
M  V30 7966 H 763.686 4.98732 -0.653876 0
M  V30 7967 H 763.386 5.37873 -2.36572 0
M  V30 7968 H 764.91 5.89546 -1.58958 0
M  V30 7969 H 766.324 4.58343 -3.44376 0
M  V30 7970 H 764.721 4.30248 -4.18338 0
M  V30 7971 H 765.791 2.92463 -3.86773 0
M  V30 7972 N 767.134 1.16236 1.06428 0
M  V30 7973 C 768.383 0.937523 1.78587 0
M  V30 7974 C 768.696 -0.536 1.88113 0
M  V30 7975 O 769.902 -0.878697 2.56887 0
M  V30 7976 C 768.358 1.62808 3.2097 0
M  V30 7977 C 767.966 3.13927 3.19615 0
M  V30 7978 C 769.71 1.48515 3.97673 0
M  V30 7979 C 767.617 3.75727 4.56709 0
M  V30 7980 H 766.547 0.347125 0.669343 0
M  V30 7981 H 769.198 1.39353 1.19385 0
M  V30 7982 H 767.58 1.09977 3.80422 0
M  V30 7983 H 768.754 3.7359 2.69753 0
M  V30 7984 H 767.069 3.28089 2.56411 0
M  V30 7985 H 769.666 1.92069 4.99013 0
M  V30 7986 H 770.009 0.433913 4.14032 0
M  V30 7987 H 770.542 1.98494 3.44739 0
M  V30 7988 H 767.281 4.80793 4.45554 0
M  V30 7989 H 766.801 3.20849 5.0677 0
M  V30 7990 H 768.48 3.77203 5.25668 0
M  V30 7991 N 768.612 -1.24939 0.960631 0
M  V30 7992 C 769.861 -1.92118 0.614298 0
M  V30 7993 C 770.174 -1.75998 -0.853474 0
M  V30 7994 O 771.38 -2.37804 -1.31003 0
M  V30 7995 C 769.836 -3.44303 1.04801 0
M  V30 7996 C 769.444 -3.69123 2.53875 0
M  V30 7997 C 771.188 -4.17375 0.774497 0
M  V30 7998 C 769.095 -5.14843 2.91016 0
M  V30 7999 H 768.025 -0.719319 0.226045 0
M  V30 8000 H 770.676 -1.41701 1.16589 0
M  V30 8001 H 769.058 -3.93715 0.42479 0
M  V30 8002 H 770.232 -3.30339 3.21267 0
M  V30 8003 H 768.547 -3.09323 2.78762 0
M  V30 8004 H 771.144 -5.24723 1.02808 0
M  V30 8005 H 771.487 -4.15294 -0.289192 0
M  V30 8006 H 772.02 -3.7389 1.35835 0
M  V30 8007 H 768.759 -5.2204 3.96427 0
M  V30 8008 H 768.279 -5.54652 2.28302 0
M  V30 8009 H 769.958 -5.83017 2.80535 0
M  V30 8010 N 770.09 -0.729906 -1.39679 0
M  V30 8011 C 771.338 -0.275077 -2.00219 0
M  V30 8012 C 771.659 1.1401 -1.58199 0
M  V30 8013 O 770.929 1.77546 -0.827904 0
M  V30 8014 H 769.509 -0.0987127 -0.740449 0
M  V30 8015 H 772.171 -0.93873 -1.70804 0
M  V30 8016 H 771.267 -0.319446 -3.10461 0
M  V30 8017 N 771.568 1.50203 -0.477153 0
M  V30 8018 C 772.817 2.01551 0.0774548 0
M  V30 8019 C 773.13 1.36359 1.40234 0
M  V30 8020 O 774.336 1.78898 2.04225 0
M  V30 8021 C 772.792 3.59406 0.188539 0
M  V30 8022 C 772.4 4.3356 -1.12828 0
M  V30 8023 C 774.144 4.18776 0.694782 0
M  V30 8024 C 772.051 5.83213 -0.98066 0
M  V30 8025 H 770.981 0.75329 0.0327212 0
M  V30 8026 H 773.632 1.72959 -0.612969 0
M  V30 8027 H 772.014 3.84611 0.942881 0
M  V30 8028 H 773.188 4.20074 -1.89405 0
M  V30 8029 H 771.503 3.85827 -1.5661 0
M  V30 8030 H 774.1 5.28338 0.822356 0
M  V30 8031 H 774.443 3.80557 1.68766 0
M  V30 8032 H 774.976 3.978 -0.00234519 0
M  V30 8033 H 771.715 6.25914 -1.94709 0
M  V30 8034 H 771.235 5.99256 -0.255375 0
M  V30 8035 H 772.914 6.4373 -0.649717 0
M  V30 8036 N 773.046 0.209999 1.56195 0
M  V30 8037 C 774.295 -0.425106 1.97169 0
M  V30 8038 C 774.608 -1.61718 1.10031 0
M  V30 8039 O 775.814 -2.32105 1.40853 0
M  V30 8040 C 774.27 -0.80771 3.50719 0
M  V30 8041 C 773.878 0.360902 4.46544 0
M  V30 8042 C 775.622 -1.40906 4.00432 0
M  V30 8043 C 773.529 -0.0434919 5.91384 0
M  V30 8044 H 772.459 -0.162598 0.736259 0
M  V30 8045 H 775.11 0.304382 1.80958 0
M  V30 8046 H 773.492 -1.59429 3.62489 0
M  V30 8047 H 774.666 1.13846 4.46515 0
M  V30 8048 H 772.981 0.874729 4.07109 0
M  V30 8049 H 775.578 -1.72433 5.06133 0
M  V30 8050 H 775.921 -2.32081 3.45607 0
M  V30 8051 H 776.454 -0.686154 3.91838 0
M  V30 8052 H 773.193 0.834448 6.50167 0
M  V30 8053 H 772.713 -0.785598 5.94633 0
M  V30 8054 H 774.392 -0.474176 6.4526 0
M  V30 8055 N 774.524 -1.57472 -0.0634922 0
M  V30 8056 C 775.77 -1.87932 -0.762194 0
M  V30 8057 C 776.103 -0.803377 -1.76804 0
M  V30 8058 O 775.378 0.185468 -1.93614 0
M  V30 8059 C 775.661 -3.29053 -1.46275 0
M  V30 8060 C 775.514 -4.47309 -0.472755 0
M  V30 8061 C 776.833 -3.68537 -2.40558 0
M  V30 8062 H 773.952 -0.683521 -0.275624 0
M  V30 8063 H 776.594 -1.89983 -0.0252651 0
M  V30 8064 H 774.744 -3.27435 -2.0909 0
M  V30 8065 H 776.416 -4.61053 0.150828 0
M  V30 8066 H 774.659 -4.33286 0.211187 0
M  V30 8067 H 775.33 -5.42853 -1.00072 0
M  V30 8068 H 777.806 -3.71302 -1.87814 0
M  V30 8069 H 776.682 -4.68152 -2.86574 0
M  V30 8070 H 776.943 -2.98917 -3.25731 0
M  V30 8071 N 776.003 0.335068 -1.53997 0
M  V30 8072 C 777.249 1.07594 -1.71905 0
M  V30 8073 C 777.582 1.88039 -0.485264 0
M  V30 8074 O 776.857 1.87482 0.517752 0
M  V30 8075 C 777.14 2.01016 -2.98772 0
M  V30 8076 C 776.993 1.23977 -4.32377 0
M  V30 8077 C 778.312 3.0071 -3.21343 0
M  V30 8078 H 775.431 0.38976 -0.625505 0
M  V30 8079 H 778.073 0.353684 -1.86679 0
M  V30 8080 H 776.223 2.62603 -2.86307 0
M  V30 8081 H 777.895 0.649383 -4.56706 0
M  V30 8082 H 776.138 0.541878 -4.30402 0
M  V30 8083 H 776.809 1.92512 -5.17342 0
M  V30 8084 H 779.285 2.4924 -3.33194 0
M  V30 8085 H 778.161 3.63272 -4.11491 0
M  V30 8086 H 778.422 3.72549 -2.38033 0
M  V30 8087 N 777.481 1.45874 0.596531 0
M  V30 8088 C 778.73 1.49737 1.35135 0
M  V30 8089 C 779.043 0.147755 1.95041 0
M  V30 8090 O 780.249 0.0640984 2.71424 0
M  V30 8091 C 778.705 2.6378 2.44843 0
M  V30 8092 C 778.313 4.05102 1.91301 0
M  V30 8093 C 780.057 2.769 3.21755 0
M  V30 8094 C 777.964 5.10508 2.98557 0
M  V30 8095 H 776.894 0.557219 0.507959 0
M  V30 8096 H 779.545 1.72046 0.638147 0
M  V30 8097 H 777.927 2.34774 3.189 0
M  V30 8098 H 779.101 4.43836 1.2388 0
M  V30 8099 H 777.416 3.96528 1.271 0
M  V30 8100 H 780.013 3.52819 4.01775 0
M  V30 8101 H 780.356 1.83924 3.73467 0
M  V30 8102 H 780.889 3.05485 2.54802 0
M  V30 8103 H 777.628 6.0523 2.51749 0
M  V30 8104 H 777.148 4.76332 3.6451 0
M  V30 8105 H 778.827 5.35745 3.62748 0
M  V30 8106 N 778.959 -0.83999 1.33349 0
M  V30 8107 C 780.205 -1.59724 1.25936 0
M  V30 8108 C 780.56 -1.91616 -0.173563 0
M  V30 8109 O 779.853 -1.55791 -1.11534 0
M  V30 8110 C 780.047 -2.91571 2.06691 0
M  V30 8111 C 779.876 -2.72556 3.57691 0
M  V30 8112 C 778.646 -2.70174 4.27006 0
M  V30 8113 C 780.844 -2.45272 4.52047 0
M  V30 8114 N 778.826 -2.42525 5.63964 0
M  V30 8115 C 780.197 -2.27163 5.76885 0
M  V30 8116 C 782.252 -2.30859 4.41144 0
M  V30 8117 C 780.955 -1.96105 6.92052 0
M  V30 8118 C 782.981 -2.01194 5.56125 0
M  V30 8119 C 782.343 -1.83897 6.79972 0
M  V30 8120 H 778.442 -0.587568 0.516031 0
M  V30 8121 H 781.026 -0.986169 1.67877 0
M  V30 8122 H 779.197 -3.5063 1.67073 0
M  V30 8123 H 780.929 -3.56762 1.91057 0
M  V30 8124 H 777.684 -2.8364 3.7927 0
M  V30 8125 H 778.108 -2.31588 6.36157 0
M  V30 8126 H 782.75 -2.42946 3.46031 0
M  V30 8127 H 780.468 -1.82756 7.87163 0
M  V30 8128 H 784.054 -1.90799 5.49624 0
M  V30 8129 H 782.934 -1.61271 7.67438 0
M  V30 8130 N 780.437 -1.16799 -1.0581 0
M  V30 8131 C 781.853 -0.913935 -1.30841 0
M  V30 8132 C 782.053 0.430439 -1.96849 0
M  V30 8133 O 781.109 1.16885 -2.23817 0
M  V30 8134 C 782.422 -2.06662 -2.18429 0
M  V30 8135 C 783.97 -2.10294 -2.31831 0
M  V30 8136 C 784.445 -3.2493 -3.22776 0
M  V30 8137 N 785.936 -3.24678 -3.30361 0
M  V30 8138 C 786.671 -4.10021 -4.00837 0
M  V30 8139 N 786.167 -5.05461 -4.73795 0
M  V30 8140 N 787.96 -3.97991 -3.96937 0
M  V30 8141 H 780.111 -2.03343 -0.613613 0
M  V30 8142 H 782.374 -0.88754 -0.333133 0
M  V30 8143 H 782.08 -3.03791 -1.77211 0
M  V30 8144 H 781.954 -2.01233 -3.19038 0
M  V30 8145 H 784.341 -1.13754 -2.72294 0
M  V30 8146 H 784.422 -2.19786 -1.30873 0
M  V30 8147 H 784.066 -4.21731 -2.83028 0
M  V30 8148 H 783.996 -3.12674 -4.23725 0
M  V30 8149 H 786.487 -2.55573 -2.78372 0
M  V30 8150 H 786.8 -5.66989 -5.25113 0
M  V30 8151 H 785.145 -5.09436 -4.72758 0
M  V30 8152 H 788.336 -3.2273 -3.39062 0
M  V30 8153 H 788.509 -4.64722 -4.51594 0
M  V30 8154 N 781.915 1.24427 -0.967243 0
M  V30 8155 C 782.847 2.24641 -0.454856 0
M  V30 8156 C 783.86 1.56849 0.436152 0
M  V30 8157 O 785.049 1.76846 0.242401 0
M  V30 8158 C 782.149 3.36954 0.362672 0
M  V30 8159 C 781.322 4.34318 -0.518324 0
M  V30 8160 C 780.381 5.25638 0.243122 0
M  V30 8161 O 779.407 5.68043 -0.362791 0
M  V30 8162 N 780.609 5.59897 1.53282 0
M  V30 8163 H 783.374 2.69238 -1.31648 0
M  V30 8164 H 780.935 1.38464 -0.839015 0
M  V30 8165 H 782.927 3.95014 0.880094 0
M  V30 8166 H 781.497 2.91646 1.12522 0
M  V30 8167 H 780.717 3.74953 -1.21672 0
M  V30 8168 H 782.005 4.96338 -1.11919 0
M  V30 8169 H 781.403 5.27373 2.04682 0
M  V30 8170 H 779.96 6.20488 1.99594 0
M  V30 8171 N 783.393 0.737304 1.3929 0
M  V30 8172 C 784.804 0.355966 1.83275 0
M  V30 8173 C 785.155 -1.11295 1.6158 0
M  V30 8174 O 784.28 -1.85871 1.10819 0
M  V30 8175 C 784.875 0.63931 3.32713 0
M  V30 8176 C 783.434 0.31144 3.75109 0
M  V30 8177 C 782.581 0.900765 2.62262 0
M  V30 8178 H 785.532 0.934763 1.28249 0
M  V30 8179 H 785.553 -0.0881293 3.80398 0
M  V30 8180 H 785.065 1.70847 3.48472 0
M  V30 8181 H 783.166 -0.751791 3.64937 0
M  V30 8182 H 783.279 0.795611 4.72448 0
M  V30 8183 H 781.643 0.327239 2.52589 0
M  V30 8184 H 782.426 1.97463 2.80826 0
M  V30 8185 N 784.871 -1.49948 0.485112 0
M  V30 8186 C 785.803 -2.26691 -0.338222 0
M  V30 8187 C 786.816 -1.32584 -0.944742 0
M  V30 8188 O 788.005 -1.57989 -0.830772 0
M  V30 8189 C 785.105 -3.04405 -1.48966 0
M  V30 8190 C 784.278 -4.25971 -0.993371 0
M  V30 8191 C 783.337 -4.85861 -2.02052 0
M  V30 8192 O 782.363 -5.46382 -1.59547 0
M  V30 8193 N 783.565 -4.74101 -3.34975 0
M  V30 8194 H 786.33 -2.97989 0.319748 0
M  V30 8195 H 783.891 -1.58772 0.316714 0
M  V30 8196 H 785.883 -3.41348 -2.17403 0
M  V30 8197 H 784.453 -2.35815 -2.05207 0
M  V30 8198 H 783.673 -3.93971 -0.134424 0
M  V30 8199 H 784.961 -5.0476 -0.639934 0
M  V30 8200 H 784.359 -4.26002 -3.72208 0
M  V30 8201 H 782.916 -5.15274 -3.9917 0
M  V30 8202 N 786.349 -0.21828 -1.56081 0
M  V30 8203 C 787.574 0.422302 -2.03055 0
M  V30 8204 C 787.999 1.5279 -1.09713 0
M  V30 8205 O 787.357 1.81102 -0.0847187 0
M  V30 8206 C 787.405 0.934177 -3.48289 0
M  V30 8207 O 786.509 2.04574 -3.58083 0
M  V30 8208 H 785.85 0.0959764 -0.657027 0
M  V30 8209 H 788.38 -0.335958 -2.01823 0
M  V30 8210 H 788.39 1.24484 -3.88546 0
M  V30 8211 H 787.065 0.124963 -4.15712 0
M  V30 8212 H 785.642 1.74196 -3.29712 0
M  V30 8213 N 787.827 1.57504 0.0551401 0
M  V30 8214 C 789.052 1.92682 0.767352 0
M  V30 8215 C 789.477 0.81614 1.69472 0
M  V30 8216 O 788.835 -0.229989 1.79835 0
M  V30 8217 C 788.883 3.26866 1.52286 0
M  V30 8218 O 787.987 3.17274 2.63459 0
M  V30 8219 H 787.328 0.630502 0.208238 0
M  V30 8220 H 789.858 2.04592 0.0184026 0
M  V30 8221 H 789.868 3.61138 1.8985 0
M  V30 8222 H 788.543 4.07276 0.842541 0
M  V30 8223 H 787.12 2.94589 2.2863 0
M  V30 8224 N 789.305 -0.326896 1.54172 0
M  V30 8225 C 790.533 -1.08486 1.76177 0
M  V30 8226 C 790.948 -1.81815 0.508788 0
M  V30 8227 O 790.305 -1.74924 -0.520362 0
M  V30 8228 C 790.356 -2.08552 2.95276 0
M  V30 8229 O 790.077 -1.38202 4.15731 0
M  V30 8230 C 791.578 -2.96593 3.29466 0
M  V30 8231 H 788.798 -0.322835 0.588233 0
M  V30 8232 H 791.342 -0.374036 2.0105 0
M  V30 8233 H 789.497 -2.75174 2.72687 0
M  V30 8234 H 789.911 -2.05186 4.827 0
M  V30 8235 H 791.385 -3.62708 4.16109 0
M  V30 8236 H 791.862 -3.63511 2.46487 0
M  V30 8237 H 792.468 -2.35537 3.54122 0
M  V30 8238 N 790.784 -1.46188 -0.588786 0
M  V30 8239 C 792.195 -1.45421 -1.17088 0
M  V30 8240 C 792.546 -0.191801 -1.9526 0
M  V30 8241 O 791.671 0.705497 -2.04577 0
M  V30 8242 C 792.266 -2.63467 -2.13004 0
M  V30 8243 C 790.825 -2.6576 -2.6655 0
M  V30 8244 C 789.972 -2.38002 -1.42304 0
M  V30 8245 H 792.923 -1.54156 -0.377052 0
M  V30 8246 H 792.944 -2.38638 -2.96365 0
M  V30 8247 H 792.456 -3.55331 -1.56081 0
M  V30 8248 H 790.557 -1.77952 -3.27359 0
M  V30 8249 H 790.67 -3.65545 -3.09699 0
M  V30 8250 H 789.034 -1.87936 -1.71907 0
M  V30 8251 H 789.817 -3.32035 -0.872209 0
M  V30 8252 N 792.262 0.832906 -1.33792 0
M  V30 8253 C 793.192 1.95828 -1.27176 0
M  V30 8254 C 794.173 1.69427 -0.15114 0
M  V30 8255 O 795.358 1.91167 -0.341886 0
M  V30 8256 C 792.488 3.32098 -1.01629 0
M  V30 8257 C 791.442 3.72912 -2.10049 0
M  V30 8258 C 790.768 5.07054 -1.69706 0
M  V30 8259 C 792.068 3.86064 -3.51783 0
M  V30 8260 H 793.762 2.01622 -2.21334 0
M  V30 8261 H 791.308 0.96866 -1.0655 0
M  V30 8262 H 793.261 4.10402 -0.956474 0
M  V30 8263 H 791.985 3.26577 -0.0390956 0
M  V30 8264 H 790.644 2.96876 -2.15082 0
M  V30 8265 H 790.292 4.9801 -0.706737 0
M  V30 8266 H 789.992 5.35333 -2.42264 0
M  V30 8267 H 791.516 5.87827 -1.65202 0
M  V30 8268 H 792.93 4.54665 -3.49218 0
M  V30 8269 H 791.327 4.25787 -4.22878 0
M  V30 8270 H 792.397 2.88344 -3.89854 0
M  V30 8271 N 793.74 1.17359 1.05189 0
M  V30 8272 C 794.69 0.858445 2.11222 0
M  V30 8273 C 795.674 -0.166991 1.60031 0
M  V30 8274 O 796.866 0.0354456 1.76965 0
M  V30 8275 C 793.995 0.373549 3.41262 0
M  V30 8276 C 793.081 1.43041 3.99249 0
M  V30 8277 N 793.472 2.64387 4.312 0
M  V30 8278 C 791.77 1.28828 4.26989 0
M  V30 8279 C 792.471 3.32296 4.77446 0
M  V30 8280 N 791.447 2.59674 4.77567 0
M  V30 8281 H 795.249 1.78104 2.33786 0
M  V30 8282 H 792.763 1.0623 1.22837 0
M  V30 8283 H 794.76 0.129331 4.16699 0
M  V30 8284 H 793.42 -0.542847 3.2013 0
M  V30 8285 H 794.431 3.01351 4.21198 0
M  V30 8286 H 791.108 0.43353 4.15243 0
M  V30 8287 H 792.498 4.35939 5.11279 0
M  V30 8288 N 795.218 -1.23913 0.973828 0
M  V30 8289 C 796.465 -1.92151 0.639079 0
M  V30 8290 C 796.793 -1.76064 -0.826545 0
M  V30 8291 O 796.048 -1.11126 -1.61088 0
M  V30 8292 C 796.347 -3.4406 0.967356 0
M  V30 8293 C 796.013 -3.80321 2.42212 0
M  V30 8294 C 794.675 -3.8993 2.81971 0
M  V30 8295 C 797.027 -3.97935 3.36596 0
M  V30 8296 C 794.355 -4.14575 4.15144 0
M  V30 8297 C 796.707 -4.24079 4.69404 0
M  V30 8298 C 795.371 -4.31908 5.08932 0
M  V30 8299 H 794.641 -0.70313 0.233856 0
M  V30 8300 H 797.288 -1.47072 1.22646 0
M  V30 8301 H 795.593 -3.90667 0.297807 0
M  V30 8302 H 797.29 -3.95077 0.686654 0
M  V30 8303 H 793.88 -3.73411 2.10385 0
M  V30 8304 H 798.064 -3.89908 3.07059 0
M  V30 8305 H 793.32 -4.18858 4.45385 0
M  V30 8306 H 797.494 -4.36652 5.42502 0
M  V30 8307 H 795.121 -4.50758 6.12145 0
M  V30 8308 N 796.696 -0.74468 -1.38897 0
M  V30 8309 C 797.643 -0.111064 -2.30533 0
M  V30 8310 C 798.613 0.719276 -1.49719 0
M  V30 8311 O 799.798 0.677244 -1.78376 0
M  V30 8312 C 796.938 0.78292 -3.36102 0
M  V30 8313 C 796.051 -0.0610817 -4.31957 0
M  V30 8314 C 795.186 0.835075 -5.24595 0
M  V30 8315 C 794.225 -0.0130974 -6.12099 0
M  V30 8316 N 793.362 0.839525 -6.97063 0
M  V30 8317 H 798.202 -0.898113 -2.84144 0
M  V30 8318 H 795.739 -0.454537 -1.39901 0
M  V30 8319 H 797.697 1.31578 -3.95908 0
M  V30 8320 H 796.327 1.53585 -2.83922 0
M  V30 8321 H 795.379 -0.711469 -3.73687 0
M  V30 8322 H 796.691 -0.716482 -4.93627 0
M  V30 8323 H 795.845 1.43542 -5.89475 0
M  V30 8324 H 794.584 1.52423 -4.63269 0
M  V30 8325 H 793.589 -0.626179 -5.46223 0
M  V30 8326 H 794.814 -0.699181 -6.75491 0
M  V30 8327 H 792.76 1.5138 -6.38295 0
M  V30 8328 H 792.677 0.240823 -7.55616 0
M  V30 8329 H 793.945 1.42513 -7.66362 0
M  V30 8330 N 798.174 1.49689 -0.493057 0
M  V30 8331 C 799.42 2.02727 0.0543518 0
M  V30 8332 C 799.753 1.37264 1.37376 0
M  V30 8333 O 799.028 0.505644 1.87812 0
M  V30 8334 C 799.311 3.59456 0.215226 0
M  V30 8335 C 799.164 4.35459 -1.12675 0
M  V30 8336 C 800.483 4.29511 0.959586 0
M  V30 8337 H 797.602 0.736773 0.0182786 0
M  V30 8338 H 800.244 1.78792 -0.642924 0
M  V30 8339 H 798.394 3.79981 0.809122 0
M  V30 8340 H 800.066 4.2645 -1.75891 0
M  V30 8341 H 798.309 3.9833 -1.71801 0
M  V30 8342 H 798.98 5.43454 -0.967578 0
M  V30 8343 H 801.456 4.13594 0.455977 0
M  V30 8344 H 800.332 5.38939 1.04098 0
M  V30 8345 H 800.593 3.94202 2.00144 0
M  V30 8346 N 799.652 0.226554 1.55963 0
M  V30 8347 C 801.063 -0.280381 1.84583 0
M  V30 8348 C 801.414 -1.59105 1.14804 0
M  V30 8349 O 800.539 -2.12297 0.419414 0
M  V30 8350 C 801.134 -0.515499 3.34855 0
M  V30 8351 C 799.693 -0.966733 3.63774 0
M  V30 8352 C 798.84 -0.0325753 2.77281 0
M  V30 8353 H 801.791 0.449626 1.52197 0
M  V30 8354 H 801.812 -1.36085 3.55332 0
M  V30 8355 H 801.324 0.438594 3.85614 0
M  V30 8356 H 799.425 -1.93401 3.18476 0
M  V30 8357 H 799.538 -0.837679 4.7172 0
M  V30 8358 H 797.902 -0.540279 2.48904 0
M  V30 8359 H 798.685 0.916524 3.30839 0
M  V30 8360 N 801.13 -1.57531 -0.0467866 0
M  V30 8361 C 802.093 -2.04379 -1.03738 0
M  V30 8362 C 803.093 -0.944881 -1.3011 0
M  V30 8363 O 804.283 -1.20904 -1.25411 0
M  V30 8364 C 801.415 -2.44572 -2.37482 0
M  V30 8365 H 802.608 -2.93142 -0.633063 0
M  V30 8366 H 800.161 -1.53526 -0.293177 0
M  V30 8367 H 800.896 -1.58911 -2.82697 0
M  V30 8368 H 800.681 -3.24785 -2.19675 0
M  V30 8369 H 802.171 -2.81307 -3.08636 0
M  V30 8370 N 802.608 0.318715 -1.54344 0
M  V30 8371 C 803.538 1.39751 -1.87061 0
M  V30 8372 C 804.519 1.53741 -0.727848 0
M  V30 8373 O 805.704 1.67541 -0.982016 0
M  V30 8374 C 802.834 2.76446 -2.10226 0
M  V30 8375 C 801.788 2.77239 -3.26071 0
M  V30 8376 C 801.114 4.17056 -3.34617 0
M  V30 8377 C 802.414 2.40555 -4.63606 0
M  V30 8378 H 804.108 1.12619 -2.77412 0
M  V30 8379 H 801.654 0.540318 -1.33479 0
M  V30 8380 H 803.607 3.51985 -2.31699 0
M  V30 8381 H 802.331 3.05066 -1.16629 0
M  V30 8382 H 800.99 2.04155 -3.04493 0
M  V30 8383 H 800.638 4.42824 -2.3857 0
M  V30 8384 H 800.338 4.18492 -4.12478 0
M  V30 8385 H 801.862 4.94401 -3.5833 0
M  V30 8386 H 803.276 3.05808 -4.84927 0
M  V30 8387 H 801.673 2.53234 -5.44052 0
M  V30 8388 H 802.743 1.35698 -4.65526 0
M  V30 8389 N 804.086 1.46499 0.581025 0
M  V30 8390 C 805.497 1.4604 1.16315 0
M  V30 8391 C 805.848 0.202154 1.95156 0
M  V30 8392 O 804.973 -0.694638 2.04948 0
M  V30 8393 C 805.568 2.64593 2.11604 0
M  V30 8394 C 804.127 2.6717 2.65136 0
M  V30 8395 C 803.274 2.38753 1.4104 0
M  V30 8396 H 806.225 1.54354 0.368871 0
M  V30 8397 H 806.246 2.40207 2.95095 0
M  V30 8398 H 805.758 3.56154 1.54194 0
M  V30 8399 H 803.859 1.79685 3.26411 0
M  V30 8400 H 803.972 3.67182 3.07757 0
M  V30 8401 H 802.336 1.88845 1.70908 0
M  V30 8402 H 803.119 3.32493 0.854588 0
M  V30 8403 N 805.565 -0.825799 1.34232 0
M  V30 8404 C 806.495 -1.95151 1.28212 0
M  V30 8405 C 807.476 -1.69345 0.160123 0
M  V30 8406 O 808.661 -1.90983 0.352019 0
M  V30 8407 C 805.791 -3.31554 1.03388 0
M  V30 8408 C 804.745 -3.71793 2.12023 0
M  V30 8409 C 804.071 -5.06147 1.72392 0
M  V30 8410 C 805.371 -3.84193 3.53826 0
M  V30 8411 H 807.065 -2.00445 2.22401 0
M  V30 8412 H 804.611 -0.962996 1.07063 0
M  V30 8413 H 806.564 -4.09889 0.978225 0
M  V30 8414 H 805.288 -3.26551 0.0564142 0
M  V30 8415 H 803.947 -2.95731 2.16654 0
M  V30 8416 H 803.595 -4.97628 0.733137 0
M  V30 8417 H 803.295 -5.34041 2.451 0
M  V30 8418 H 804.819 -5.86943 1.68317 0
M  V30 8419 H 806.233 -4.52806 3.51624 0
M  V30 8420 H 804.63 -4.23538 4.2513 0
M  V30 8421 H 805.7 -2.86272 3.91377 0
M  V30 8422 N 807.043 -1.17915 -1.04565 0
M  V30 8423 C 807.973 -0.925033 -2.14395 0
M  V30 8424 C 808.954 0.135375 -1.6956 0
M  V30 8425 O 810.139 -0.0161774 -1.94193 0
M  V30 8426 C 807.269 -0.444469 -3.44444 0
M  V30 8427 C 806.223 -1.44478 -4.02877 0
M  V30 8428 C 805.549 -0.821933 -5.28345 0
M  V30 8429 C 806.849 -2.81995 -4.39632 0
M  V30 8430 H 808.543 -1.84354 -2.35911 0
M  V30 8431 H 806.089 -0.887806 -1.13375 0
M  V30 8432 H 808.042 -0.254078 -4.20633 0
M  V30 8433 H 806.766 0.509592 -3.226 0
M  V30 8434 H 805.425 -1.62203 -3.28764 0
M  V30 8435 H 805.073 0.139161 -5.02807 0
M  V30 8436 H 804.773 -1.48976 -5.68401 0
M  V30 8437 H 806.297 -0.641959 -6.07216 0
M  V30 8438 H 807.711 -2.67952 -5.06828 0
M  V30 8439 H 806.108 -3.45414 -4.90723 0
M  V30 8440 H 807.178 -3.35927 -3.49687 0
M  V30 8441 N 808.521 1.23394 -0.980386 0
M  V30 8442 C 809.932 1.73631 -0.686239 0
M  V30 8443 C 810.283 1.79259 0.797541 0
M  V30 8444 O 809.408 1.43046 1.62379 0
M  V30 8445 C 810.003 3.15332 -1.239 0
M  V30 8446 C 808.562 3.63024 -0.994494 0
M  V30 8447 C 807.709 2.41279 -1.36673 0
M  V30 8448 H 810.66 1.08918 -1.15423 0
M  V30 8449 H 810.681 3.75556 -0.611414 0
M  V30 8450 H 810.193 3.11204 -2.31892 0
M  V30 8451 H 808.294 3.72535 0.0693492 0
M  V30 8452 H 808.407 4.49825 -1.64906 0
M  V30 8453 H 806.771 2.42295 -0.785195 0
M  V30 8454 H 807.554 2.39822 -2.45642 0
M  V30 8455 N 809.999 0.752036 1.385 0
M  V30 8456 C 810.929 0.138718 2.33088 0
M  V30 8457 C 811.91 -0.705318 1.54788 0
M  V30 8458 O 813.095 -0.646821 1.83112 0
M  V30 8459 C 810.225 -0.75641 3.38963 0
M  V30 8460 C 809.179 -0.0152239 4.27997 0
M  V30 8461 C 808.505 -1.0285 5.24715 0
M  V30 8462 C 809.805 1.15226 5.09431 0
M  V30 8463 H 811.499 0.928852 2.84627 0
M  V30 8464 H 809.045 0.448111 1.3685 0
M  V30 8465 H 810.998 -1.19513 4.04097 0
M  V30 8466 H 809.722 -1.57885 2.85902 0
M  V30 8467 H 808.381 0.404061 3.64366 0
M  V30 8468 H 808.029 -1.84496 4.67943 0
M  V30 8469 H 807.729 -0.537238 5.85139 0
M  V30 8470 H 809.253 -1.46657 5.92726 0
M  V30 8471 H 810.667 0.791161 5.67815 0
M  V30 8472 H 809.064 1.57428 5.79082 0
M  V30 8473 H 810.134 1.9659 4.43261 0
M  V30 8474 N 811.477 -1.49425 0.500989 0
M  V30 8475 C 812.41 -2.25887 -0.324087 0
M  V30 8476 C 813.388 -1.30469 -0.970388 0
M  V30 8477 O 814.572 -1.59758 -1.00049 0
M  V30 8478 C 811.699 -3.05787 -1.45643 0
M  V30 8479 C 810.745 -4.16359 -0.924508 0
M  V30 8480 S 811.578 -5.35181 0.184707 0
M  V30 8481 C 812.734 -6.18636 -0.950806 0
M  V30 8482 H 812.967 -2.95519 0.324891 0
M  V30 8483 H 810.5 -1.51723 0.286289 0
M  V30 8484 H 812.458 -3.52405 -2.10525 0
M  V30 8485 H 811.119 -2.35624 -2.07703 0
M  V30 8486 H 810.312 -4.71781 -1.77311 0
M  V30 8487 H 809.914 -3.72331 -0.352907 0
M  V30 8488 H 812.206 -6.51581 -1.85603 0
M  V30 8489 H 813.149 -7.06761 -0.435212 0
M  V30 8490 H 813.557 -5.512 -1.21813 0
M  V30 8491 N 812.955 -0.234822 -1.55841 0
M  V30 8492 C 814.18 0.400741 -2.03492 0
M  V30 8493 C 814.605 1.51618 -1.11327 0
M  V30 8494 O 813.963 1.81002 -0.103922 0
M  V30 8495 C 814.011 0.897184 -3.49261 0
M  V30 8496 O 813.115 2.00764 -3.60233 0
M  V30 8497 H 812.456 0.0890023 -0.658008 0
M  V30 8498 H 814.986 -0.357345 -2.01455 0
M  V30 8499 H 814.996 1.20356 -3.89844 0
M  V30 8500 H 813.671 0.0808639 -4.15821 0
M  V30 8501 H 812.248 1.70689 -3.31541 0
M  V30 8502 N 814.433 1.57553 0.0384317 0
M  V30 8503 C 815.682 1.88022 0.730108 0
M  V30 8504 C 815.995 0.83209 1.77019 0
M  V30 8505 O 817.201 1.0257 2.51379 0
M  V30 8506 C 815.657 3.33637 1.3496 0
M  V30 8507 C 815.265 4.46659 0.346352 0
M  V30 8508 C 817.009 3.73266 2.02169 0
M  V30 8509 C 814.916 5.8333 0.973652 0
M  V30 8510 H 813.846 0.701496 0.276442 0
M  V30 8511 H 816.497 1.83493 -0.0158028 0
M  V30 8512 H 814.879 3.32882 2.1449 0
M  V30 8513 H 816.053 4.58868 -0.421558 0
M  V30 8514 H 814.368 4.15802 -0.223133 0
M  V30 8515 H 816.965 4.72689 2.49938 0
M  V30 8516 H 817.308 3.04776 2.8358 0
M  V30 8517 H 817.841 3.76156 1.29427 0
M  V30 8518 H 814.58 6.55197 0.199163 0
M  V30 8519 H 814.1 5.7486 1.71162 0
M  V30 8520 H 815.779 6.29757 1.48376 0
M  V30 8521 N 815.911 -0.310526 1.54511 0
M  V30 8522 C 817.158 -1.04691 1.73338 0
M  V30 8523 C 817.486 -1.87584 0.514038 0
M  V30 8524 O 816.741 -1.89096 -0.504119 0
M  V30 8525 C 817.04 -1.98942 2.96912 0
M  V30 8526 C 816.706 -1.321 4.31115 0
M  V30 8527 C 815.368 -1.13603 4.67598 0
M  V30 8528 C 817.72 -0.842362 5.14348 0
M  V30 8529 C 815.048 -0.459102 5.84901 0
M  V30 8530 C 817.4 -0.179202 6.32346 0
M  V30 8531 C 816.064 0.0178111 6.67498 0
M  V30 8532 H 815.334 -0.38309 0.634289 0
M  V30 8533 H 817.981 -0.322723 1.88761 0
M  V30 8534 H 816.286 -2.77856 2.76231 0
M  V30 8535 H 817.983 -2.55972 3.08674 0
M  V30 8536 H 814.573 -1.47502 4.02419 0
M  V30 8537 H 818.757 -0.973013 4.86668 0
M  V30 8538 H 814.013 -0.295385 6.10686 0
M  V30 8539 H 818.187 0.199619 6.96114 0
M  V30 8540 H 815.814 0.544356 7.58249 0
M  V30 8541 N 817.389 -1.46805 -0.573248 0
M  V30 8542 C 818.635 -1.5283 -1.33307 0
M  V30 8543 C 818.968 -0.183287 -1.93333 0
M  V30 8544 O 818.243 0.806354 -1.76998 0
M  V30 8545 C 818.526 -2.63414 -2.45531 0
M  V30 8546 C 818.379 -4.07478 -1.90478 0
M  V30 8547 C 819.698 -2.70014 -3.47535 0
M  V30 8548 H 816.817 -0.556371 -0.483343 0
M  V30 8549 H 819.459 -1.78787 -0.643066 0
M  V30 8550 H 817.609 -2.41412 -3.04389 0
M  V30 8551 H 819.281 -4.40795 -1.36004 0
M  V30 8552 H 817.524 -4.16511 -1.21248 0
M  V30 8553 H 818.195 -4.80598 -2.71531 0
M  V30 8554 H 820.671 -2.89817 -2.98572 0
M  V30 8555 H 819.547 -3.49192 -4.23504 0
M  V30 8556 H 819.808 -1.76436 -4.05367 0
M  V30 8557 N 818.867 0.818669 -1.34668 0
M  V30 8558 C 819.815 1.95123 -1.26609 0
M  V30 8559 C 820.809 1.68611 -0.163348 0
M  V30 8560 O 822.015 1.76975 -0.328586 0
M  V30 8561 H 818.39 0.640871 -0.393431 0
M  V30 8562 H 820.361 1.99043 -2.22316 0
M  V30 8563 C 819.11 3.31697 -1.04272 0
M  V30 8564 H 818.433 3.52648 -1.8836 0
M  V30 8565 H 819.873 4.11382 -1.0267 0
M  V30 8566 C 818.332 3.35942 0.253858 0
M  V30 8567 O 818.862 3.81632 1.25378 0
M  V30 8568 N 817.068 2.89165 0.288447 0
M  V30 8569 H 816.615 2.52176 -0.525845 0
M  V30 8570 H 816.573 2.92387 1.15572 0
M  V30 8571 N 820.346 1.18468 1.03938 0
M  V30 8572 C 821.595 0.975193 1.76558 0
M  V30 8573 C 821.908 -0.495978 1.89207 0
M  V30 8574 O 823.114 -0.824009 2.58694 0
M  V30 8575 C 821.57 1.69579 3.17444 0
M  V30 8576 C 821.178 3.20636 3.12884 0
M  V30 8577 C 822.922 1.56917 3.94433 0
M  V30 8578 C 820.829 3.8533 4.48636 0
M  V30 8579 H 819.759 0.361244 0.66183 0
M  V30 8580 H 822.41 1.41854 1.16403 0
M  V30 8581 H 820.792 1.18022 3.78004 0
M  V30 8582 H 821.966 3.79228 2.61768 0
M  V30 8583 H 820.281 3.33454 2.49394 0
M  V30 8584 H 822.878 2.02611 4.94826 0
M  V30 8585 H 823.221 0.521638 4.13019 0
M  V30 8586 H 823.754 2.05762 3.40451 0
M  V30 8587 H 820.493 4.90136 4.35255 0
M  V30 8588 H 820.013 3.31526 4.99851 0
M  V30 8589 H 821.692 3.88269 5.17549 0
M  V30 8590 N 821.824 -1.22873 0.986916 0
M  V30 8591 C 823.054 -1.95204 0.67668 0
M  V30 8592 C 823.462 -1.73193 -0.761641 0
M  V30 8593 O 822.805 -1.0243 -1.52492 0
M  V30 8594 C 822.867 -3.48173 0.895302 0
M  V30 8595 C 822.531 -3.93912 2.31695 0
M  V30 8596 C 823.528 -4.02064 3.29607 0
M  V30 8597 C 821.213 -4.26722 2.64978 0
M  V30 8598 C 823.207 -4.42391 4.58878 0
M  V30 8599 C 820.894 -4.66729 3.94471 0
M  V30 8600 C 821.892 -4.74531 4.91232 0
M  V30 8601 O 821.58 -5.13636 6.18412 0
M  V30 8602 H 821.312 -0.628105 0.24992 0
M  V30 8603 H 823.866 -1.5714 1.32274 0
M  V30 8604 H 822.096 -3.86223 0.192072 0
M  V30 8605 H 823.785 -4.01717 0.581233 0
M  V30 8606 H 824.551 -3.76912 3.05225 0
M  V30 8607 H 820.43 -4.19858 1.9037 0
M  V30 8608 H 823.974 -4.48395 5.34404 0
M  V30 8609 H 819.871 -4.91332 4.18645 0
M  V30 8610 H 820.639 -5.31728 6.2226 0
M  V30 8611 N 823.302 -0.75937 -1.38099 0
M  V30 8612 C 824.232 -0.151077 -2.33011 0
M  V30 8613 C 825.213 0.697099 -1.5516 0
M  V30 8614 O 826.398 0.637101 -1.83452 0
M  V30 8615 C 823.528 0.738423 -3.39359 0
M  V30 8616 C 822.482 -0.0074741 -4.27999 0
M  V30 8617 C 821.808 1.00066 -5.25253 0
M  V30 8618 C 823.108 -1.17926 -5.08813 0
M  V30 8619 H 824.802 -0.943933 -2.84131 0
M  V30 8620 H 822.348 -0.455362 -1.36611 0
M  V30 8621 H 824.301 1.17369 -4.04725 0
M  V30 8622 H 823.025 1.56366 -2.86735 0
M  V30 8623 H 821.684 -0.423379 -3.64147 0
M  V30 8624 H 821.332 1.82012 -4.68914 0
M  V30 8625 H 821.032 0.506199 -5.85416 0
M  V30 8626 H 822.556 1.43512 -5.93495 0
M  V30 8627 H 823.97 -0.821262 -5.67387 0
M  V30 8628 H 822.367 -1.60497 -5.78239 0
M  V30 8629 H 823.437 -1.98938 -4.42212 0
M  V30 8630 N 824.78 1.49157 -0.508906 0
M  V30 8631 C 825.713 2.26056 0.312103 0
M  V30 8632 C 826.691 1.30982 0.963456 0
M  V30 8633 O 827.875 1.60286 0.992002 0
M  V30 8634 C 825.002 3.06555 1.4402 0
M  V30 8635 C 824.048 4.16844 0.902414 0
M  V30 8636 S 824.881 5.35076 -0.213087 0
M  V30 8637 C 826.037 6.19132 0.917985 0
M  V30 8638 H 826.27 2.95343 -0.340559 0
M  V30 8639 H 823.803 1.51569 -0.294331 0
M  V30 8640 H 825.761 3.53517 2.08653 0
M  V30 8641 H 824.422 2.36722 2.0645 0
M  V30 8642 H 823.615 4.72714 1.74806 0
M  V30 8643 H 823.217 3.72513 0.333156 0
M  V30 8644 H 825.509 6.52556 1.82145 0
M  V30 8645 H 826.452 7.06982 0.397724 0
M  V30 8646 H 826.86 5.51839 1.18889 0
M  V30 8647 N 826.258 0.243083 1.55714 0
M  V30 8648 C 827.191 -0.698623 2.17243 0
M  V30 8649 C 828.169 -1.1756 1.12331 0
M  V30 8650 O 829.353 -1.25444 1.40699 0
M  V30 8651 C 826.48 -1.94901 2.77004 0
M  V30 8652 C 825.526 -1.61022 3.94936 0
M  V30 8653 S 826.359 -0.716173 5.30689 0
M  V30 8654 C 827.515 -1.97565 5.93901 0
M  V30 8655 H 827.748 -0.175724 2.9678 0
M  V30 8656 H 825.281 0.0275727 1.54375 0
M  V30 8657 H 827.239 -2.66687 3.12071 0
M  V30 8658 H 825.9 -2.44304 1.9742 0
M  V30 8659 H 825.093 -2.5398 4.35328 0
M  V30 8660 H 824.695 -0.972829 3.61126 0
M  V30 8661 H 826.987 -2.92333 6.11186 0
M  V30 8662 H 827.93 -1.61528 6.8943 0
M  V30 8663 H 828.338 -2.126 5.22935 0
M  V30 8664 N 827.736 -1.57571 -0.0300757 0
M  V30 8665 C 828.668 -2.0329 -1.05857 0
M  V30 8666 C 829.681 -0.945543 -1.32527 0
M  V30 8667 O 830.87 -1.22287 -1.30032 0
M  V30 8668 C 827.97 -2.39234 -2.40042 0
M  V30 8669 C 827.143 -3.70337 -2.32743 0
M  V30 8670 C 826.202 -3.93482 -3.49369 0
M  V30 8671 O 825.228 -4.64551 -3.28909 0
M  V30 8672 N 826.43 -3.39042 -4.71201 0
M  V30 8673 H 829.195 -2.9214 -0.668897 0
M  V30 8674 H 826.756 -1.60425 -0.218038 0
M  V30 8675 H 828.748 -2.51856 -3.16782 0
M  V30 8676 H 827.318 -1.5606 -2.70858 0
M  V30 8677 H 826.538 -3.68079 -1.41109 0
M  V30 8678 H 827.826 -4.56343 -2.25007 0
M  V30 8679 H 827.224 -2.81434 -4.90725 0
M  V30 8680 H 825.781 -3.57045 -5.45309 0
M  V30 8681 N 829.214 0.302327 -1.54673 0
M  V30 8682 C 830.147 1.39738 -1.80412 0
M  V30 8683 C 831.125 1.48813 -0.655241 0
M  V30 8684 O 832.309 1.65895 -0.89505 0
M  V30 8685 C 829.436 2.7766 -1.93966 0
M  V30 8686 C 828.482 2.86014 -3.16383 0
M  V30 8687 S 829.315 2.48246 -4.74483 0
M  V30 8688 C 830.471 3.88198 -4.90971 0
M  V30 8689 H 830.704 1.17696 -2.73011 0
M  V30 8690 H 828.237 0.500364 -1.46068 0
M  V30 8691 H 830.195 3.571 -2.0246 0
M  V30 8692 H 828.856 2.96971 -1.02307 0
M  V30 8693 H 828.049 3.87174 -3.22664 0
M  V30 8694 H 827.651 2.14568 -3.06328 0
M  V30 8695 H 829.943 4.83181 -4.74913 0
M  V30 8696 H 830.886 3.86887 -5.93063 0
M  V30 8697 H 831.294 3.78139 -4.19131 0
M  V30 8698 N 830.692 1.47107 0.565454 0
M  V30 8699 C 831.92 1.56909 1.3486 0
M  V30 8700 C 832.335 0.216312 1.87557 0
M  V30 8701 O 831.692 -0.789168 1.64555 0
M  V30 8702 C 831.743 2.58776 2.52423 0
M  V30 8703 O 831.464 3.888 2.01906 0
M  V30 8704 C 832.965 2.78683 3.44747 0
M  V30 8705 H 830.185 0.530096 0.411387 0
M  V30 8706 H 832.729 1.92658 0.685782 0
M  V30 8707 H 830.884 2.25983 3.1466 0
M  V30 8708 H 831.298 4.44393 2.78595 0
M  V30 8709 H 832.772 3.53842 4.23674 0
M  V30 8710 H 833.249 1.86208 3.97773 0
M  V30 8711 H 833.855 3.12641 2.88333 0
M  V30 8712 N 832.17 -0.811516 1.35101 0
M  V30 8713 C 833.133 -1.90467 1.27495 0
M  V30 8714 C 834.133 -1.59703 0.187516 0
M  V30 8715 O 835.323 -1.68528 0.440896 0
M  V30 8716 C 832.455 -3.26774 0.971154 0
M  V30 8717 H 833.648 -1.98631 2.2469 0
M  V30 8718 H 831.201 -1.00681 1.19553 0
M  V30 8719 H 831.936 -3.243 0.0028557 0
M  V30 8720 H 831.721 -3.50488 1.75785 0
M  V30 8721 H 833.211 -4.06804 0.943414 0
M  V30 8722 N 833.648 -1.19017 -1.03309 0
M  V30 8723 C 834.896 -0.988258 -1.76289 0
M  V30 8724 C 835.217 0.482557 -1.88935 0
M  V30 8725 O 834.487 1.34969 -1.41987 0
M  V30 8726 H 833.067 -0.36267 -0.653054 0
M  V30 8727 H 835.729 -1.49836 -1.2464 0
M  V30 8728 H 834.825 -1.43273 -2.77271 0
M  V30 8729 N 835.127 1.22348 -0.993418 0
M  V30 8730 C 836.355 1.95125 -0.688021 0
M  V30 8731 C 836.77 1.73377 0.747388 0
M  V30 8732 O 836.127 1.03317 1.50439 0
M  V30 8733 C 836.178 3.47819 -0.985097 0
M  V30 8734 O 835.899 3.68838 -2.3641 0
M  V30 8735 C 837.4 4.37779 -0.697474 0
M  V30 8736 H 834.62 0.62087 -0.254481 0
M  V30 8737 H 837.164 1.55485 -1.32833 0
M  V30 8738 H 835.319 3.85426 -0.390583 0
M  V30 8739 H 835.733 4.63032 -2.46377 0
M  V30 8740 H 837.207 5.43666 -0.955604 0
M  V30 8741 H 837.684 4.37651 0.368524 0
M  V30 8742 H 838.29 4.05799 -1.27306 0
M  V30 8743 N 836.605 0.766683 1.37694 0
M  V30 8744 C 837.851 0.338201 2.00569 0
M  V30 8745 C 838.206 -1.07196 1.59771 0
M  V30 8746 O 837.499 -1.72622 0.831402 0
M  V30 8747 C 837.693 0.413831 3.54996 0
M  V30 8748 C 837.522 1.8298 4.1079 0
M  V30 8749 C 836.292 2.44932 4.41969 0
M  V30 8750 C 838.49 2.78852 4.32141 0
M  V30 8751 N 836.472 3.78353 4.83448 0
M  V30 8752 C 837.843 3.97063 4.76174 0
M  V30 8753 C 839.898 2.76205 4.14265 0
M  V30 8754 C 838.601 5.13003 5.04203 0
M  V30 8755 C 840.627 3.91314 4.43427 0
M  V30 8756 C 839.989 5.08265 4.87694 0
M  V30 8757 H 836.088 0.170693 0.763143 0
M  V30 8758 H 838.672 0.999435 1.67091 0
M  V30 8759 H 836.843 -0.217198 3.87792 0
M  V30 8760 H 838.575 -0.036222 4.04684 0
M  V30 8761 H 835.33 1.9659 4.3087 0
M  V30 8762 H 835.754 4.46937 5.08504 0
M  V30 8763 H 840.396 1.86962 3.79216 0
M  V30 8764 H 838.114 6.0285 5.38142 0
M  V30 8765 H 841.7 3.906 4.31187 0
M  V30 8766 H 840.58 5.95858 5.09827 0
M  V30 8767 N 838.083 -1.48885 0.516809 0
M  V30 8768 C 839.046 -2.27916 -0.242256 0
M  V30 8769 C 840.046 -1.34601 -0.879735 0
M  V30 8770 O 841.236 -1.57616 -0.74182 0
M  V30 8771 C 838.368 -3.13067 -1.34914 0
M  V30 8772 H 839.561 -2.96483 0.451444 0
M  V30 8773 H 837.114 -1.5391 0.272294 0
M  V30 8774 H 837.849 -2.49102 -2.07651 0
M  V30 8775 H 837.634 -3.81695 -0.897313 0
M  V30 8776 H 839.124 -3.72716 -1.88341 0
M  V30 8777 N 839.561 -0.251338 -1.55583 0
M  V30 8778 C 840.977 0.103409 -1.59265 0
M  V30 8779 C 841.177 1.56559 -1.26852 0
M  V30 8780 O 840.233 2.31071 -1.01796 0
M  V30 8781 C 841.546 -0.249781 -2.99661 0
M  V30 8782 C 843.094 -0.194442 -3.12395 0
M  V30 8783 C 843.569 -0.521728 -4.55019 0
M  V30 8784 N 845.06 -0.472393 -4.60785 0
M  V30 8785 C 845.795 -0.698737 -5.69127 0
M  V30 8786 N 845.291 -0.988443 -6.85713 0
M  V30 8787 N 847.084 -0.629143 -5.58568 0
M  V30 8788 H 839.235 -1.20484 -1.74921 0
M  V30 8789 H 841.498 -0.485092 -0.814488 0
M  V30 8790 H 841.204 -1.26577 -3.28133 0
M  V30 8791 H 841.078 0.420973 -3.74844 0
M  V30 8792 H 843.465 0.812229 -2.83702 0
M  V30 8793 H 843.546 -0.899111 -2.39478 0
M  V30 8794 H 843.19 -1.52597 -4.84434 0
M  V30 8795 H 843.12 0.204468 -5.26203 0
M  V30 8796 H 845.611 -0.257386 -3.77022 0
M  V30 8797 H 845.924 -1.14846 -7.64219 0
M  V30 8798 H 844.269 -1.02596 -6.87386 0
M  V30 8799 H 847.46 -0.402826 -4.66364 0
M  V30 8800 H 847.633 -0.808935 -6.42931 0
M  V30 8801 N 841.039 1.57585 0.0217189 0
M  V30 8802 C 842.286 1.89606 0.711045 0
M  V30 8803 C 842.614 0.849535 1.74966 0
M  V30 8804 O 841.869 -0.14856 1.95135 0
M  V30 8805 C 842.168 3.28377 1.41079 0
M  V30 8806 C 841.834 4.48035 0.507454 0
M  V30 8807 C 840.496 4.80504 0.258672 0
M  V30 8808 C 842.848 5.21071 -0.115793 0
M  V30 8809 C 840.176 5.83393 -0.622013 0
M  V30 8810 C 842.528 6.24897 -0.984224 0
M  V30 8811 C 841.192 6.55836 -1.2424 0
M  V30 8812 H 840.462 0.693817 0.26019 0
M  V30 8813 H 843.109 1.91478 -0.0291424 0
M  V30 8814 H 841.414 3.22528 2.22448 0
M  V30 8815 H 843.111 3.50404 1.94982 0
M  V30 8816 H 839.701 4.22653 0.711516 0
M  V30 8817 H 843.885 4.96259 0.0634327 0
M  V30 8818 H 839.141 6.05736 -0.830267 0
M  V30 8819 H 843.315 6.8063 -1.47363 0
M  V30 8820 H 840.942 7.35383 -1.92653 0
M  V30 8821 N 842.517 -0.29412 1.54831 0
M  V30 8822 C 843.765 -1.02643 1.74094 0
M  V30 8823 C 844.086 -1.87563 0.533402 0
M  V30 8824 O 843.356 -1.9061 -0.452192 0
M  V30 8825 H 841.936 -0.381959 0.641963 0
M  V30 8826 H 844.598 -0.323444 1.92197 0
M  V30 8827 H 843.694 -1.67558 2.63307 0
M  V30 8828 N 843.995 -1.47404 -0.557645 0
M  V30 8829 C 845.241 -1.54235 -1.31679 0
M  V30 8830 C 845.574 -0.203782 -1.93128 0
M  V30 8831 O 844.849 0.787536 -1.77843 0
M  V30 8832 C 845.132 -2.66003 -2.42723 0
M  V30 8833 C 844.985 -4.09475 -1.86145 0
M  V30 8834 C 846.304 -2.73685 -3.44652 0
M  V30 8835 H 843.423 -0.561466 -0.477415 0
M  V30 8836 H 846.065 -1.79459 -0.624067 0
M  V30 8837 H 844.215 -2.44627 -3.01811 0
M  V30 8838 H 845.887 -4.42213 -1.31321 0
M  V30 8839 H 844.13 -4.17774 -1.16823 0
M  V30 8840 H 844.801 -4.83451 -2.66418 0
M  V30 8841 H 847.277 -2.92968 -2.95481 0
M  V30 8842 H 846.153 -3.53665 -4.19777 0
M  V30 8843 H 846.414 -1.80726 -4.03473 0
M  V30 8844 N 845.473 0.80434 -1.35529 0
M  V30 8845 C 846.719 1.56328 -1.30127 0
M  V30 8846 C 847.074 1.92008 0.122699 0
M  V30 8847 O 846.367 1.58693 1.07364 0
M  V30 8848 C 846.561 2.85988 -2.14349 0
M  V30 8849 C 846.39 2.62977 -3.64792 0
M  V30 8850 C 845.16 2.58757 -4.34019 0
M  V30 8851 C 847.358 2.332 -4.58391 0
M  V30 8852 N 845.34 2.27487 -5.70195 0
M  V30 8853 C 846.711 2.11788 -5.82706 0
M  V30 8854 C 848.766 2.19082 -4.4711 0
M  V30 8855 C 847.469 1.77688 -6.97008 0
M  V30 8856 C 849.495 1.86378 -5.61264 0
M  V30 8857 C 848.857 1.65804 -6.84608 0
M  V30 8858 H 844.956 0.57368 -0.531428 0
M  V30 8859 H 847.54 0.941313 -1.70433 0
M  V30 8860 H 845.711 3.46077 -1.76311 0
M  V30 8861 H 847.443 3.51571 -2.00449 0
M  V30 8862 H 844.198 2.73484 -3.86656 0
M  V30 8863 H 844.622 2.1464 -6.42074 0
M  V30 8864 H 849.264 2.33686 -3.5235 0
M  V30 8865 H 846.982 1.61822 -7.91732 0
M  V30 8866 H 850.568 1.7616 -5.5449 0
M  V30 8867 H 849.448 1.40868 -7.71444 0
M  V30 8868 N 846.951 1.19563 1.02676 0
M  V30 8869 C 847.884 0.878638 2.10607 0
M  V30 8870 C 848.862 -0.165176 1.61759 0
M  V30 8871 O 850.046 -0.041014 1.88455 0
M  V30 8872 C 847.173 0.315347 3.37229 0
M  V30 8873 C 846.219 1.33855 4.04951 0
M  V30 8874 S 847.052 2.89982 4.50189 0
M  V30 8875 C 848.208 2.35202 5.80027 0
M  V30 8876 H 848.441 1.79268 2.37171 0
M  V30 8877 H 845.974 1.023 1.15646 0
M  V30 8878 H 847.932 -0.00311911 4.105 0
M  V30 8879 H 846.593 -0.577035 3.08754 0
M  V30 8880 H 845.786 0.893581 4.96015 0
M  V30 8881 H 845.388 1.60397 3.37859 0
M  V30 8882 H 847.68 1.74329 6.54687 0
M  V30 8883 H 848.623 3.24622 6.29306 0
M  V30 8884 H 849.031 1.77702 5.35801 0
M  V30 8885 N 848.429 -1.21819 0.999893 0
M  V30 8886 C 849.359 -2.26282 0.576096 0
M  V30 8887 C 850.34 -1.65317 -0.400537 0
M  V30 8888 O 851.525 -1.92028 -0.28964 0
M  V30 8889 C 848.655 -3.47147 -0.103145 0
M  V30 8890 C 847.609 -4.20594 0.792745 0
M  V30 8891 C 846.935 -5.34696 -0.0198026 0
M  V30 8892 C 848.235 -4.78533 2.09293 0
M  V30 8893 H 849.929 -2.61984 1.4493 0
M  V30 8894 H 847.475 -1.25935 0.698316 0
M  V30 8895 H 849.428 -4.1939 -0.411068 0
M  V30 8896 H 848.152 -3.1056 -1.01094 0
M  V30 8897 H 846.811 -3.50194 1.08442 0
M  V30 8898 H 846.459 -4.94352 -0.928729 0
M  V30 8899 H 846.159 -5.84764 0.576661 0
M  V30 8900 H 847.683 -6.09752 -0.321659 0
M  V30 8901 H 849.097 -5.42682 1.8485 0
M  V30 8902 H 847.494 -5.38968 2.63881 0
M  V30 8903 H 848.564 -3.98197 2.76708 0
M  V30 8904 N 849.908 -0.773975 -1.37286 0
M  V30 8905 C 851.157 -0.335977 -1.98882 0
M  V30 8906 C 851.47 1.09416 -1.62134 0
M  V30 8907 O 852.676 1.63366 -2.1685 0
M  V30 8908 C 851.132 -0.549756 -3.55676 0
M  V30 8909 C 850.74 -1.9903 -4.01361 0
M  V30 8910 C 852.484 -0.175493 -4.24137 0
M  V30 8911 C 850.391 -2.15156 -5.50874 0
M  V30 8912 H 849.321 -0.121877 -0.744085 0
M  V30 8913 H 851.972 -0.953419 -1.56787 0
M  V30 8914 H 850.354 0.137175 -3.95762 0
M  V30 8915 H 851.528 -2.71237 -3.72515 0
M  V30 8916 H 849.843 -2.32137 -3.4569 0
M  V30 8917 H 852.44 -0.274463 -5.33995 0
M  V30 8918 H 852.783 0.874524 -4.07011 0
M  V30 8919 H 853.316 -0.815058 -3.89361 0
M  V30 8920 H 850.055 -3.18485 -5.72929 0
M  V30 8921 H 849.575 -1.47435 -5.81397 0
M  V30 8922 H 851.254 -1.95124 -6.16876 0
M  V30 8923 N 851.386 1.48609 -0.524698 0
M  V30 8924 C 852.634 2.02097 0.0112991 0
M  V30 8925 C 852.955 1.40455 1.35268 0
M  V30 8926 O 852.225 0.56807 1.87483 0
M  V30 8927 H 850.805 0.746966 0.00716426 0
M  V30 8928 H 853.467 1.82378 -0.687329 0
M  V30 8929 H 852.563 3.11855 0.123531 0
M  V30 8930 N 852.864 0.259585 1.55447 0
M  V30 8931 C 854.111 -0.361607 1.99245 0
M  V30 8932 C 854.439 -1.57017 1.14787 0
M  V30 8933 O 853.694 -1.94658 0.201724 0
M  V30 8934 C 853.993 -0.802727 3.48269 0
M  V30 8935 C 853.659 0.299472 4.49904 0
M  V30 8936 C 852.321 0.602157 4.77418 0
M  V30 8937 C 854.673 1.04295 5.10658 0
M  V30 8938 C 852.001 1.65217 5.62957 0
M  V30 8939 C 854.353 2.08257 5.97337 0
M  V30 8940 C 853.017 2.39177 6.23178 0
M  V30 8941 H 852.287 -0.132322 0.72909 0
M  V30 8942 H 854.934 0.370059 1.8789 0
M  V30 8943 H 853.239 -1.61381 3.5702 0
M  V30 8944 H 854.936 -1.29385 3.79553 0
M  V30 8945 H 851.526 0.0534256 4.28567 0
M  V30 8946 H 855.71 0.822358 4.89439 0
M  V30 8947 H 850.966 1.89692 5.81229 0
M  V30 8948 H 855.14 2.6635 6.43452 0
M  V30 8949 H 852.767 3.20677 6.89253 0
M  V30 8950 N 854.342 -1.57594 -0.0133615 0
M  V30 8951 C 855.305 -2.06534 -0.993799 0
M  V30 8952 C 856.305 -0.972267 -1.28077 0
M  V30 8953 O 857.495 -1.23537 -1.22818 0
M  V30 8954 C 854.627 -2.49554 -2.3224 0
M  V30 8955 H 855.82 -2.94419 -0.570741 0
M  V30 8956 H 853.373 -1.54113 -0.260546 0
M  V30 8957 H 854.108 -1.64872 -2.79263 0
M  V30 8958 H 853.893 -3.29371 -2.12737 0
M  V30 8959 H 855.383 -2.8779 -3.026 0
M  V30 8960 N 855.82 0.285905 -1.54985 0
M  V30 8961 C 857.069 1.01691 -1.74189 0
M  V30 8962 C 857.382 1.87908 -0.543135 0
M  V30 8963 O 858.588 2.64389 -0.617305 0
M  V30 8964 C 857.044 1.85785 -3.0824 0
M  V30 8965 C 856.652 1.04497 -4.35642 0
M  V30 8966 C 858.396 2.58393 -3.36798 0
M  V30 8967 C 856.303 1.87955 -5.60738 0
M  V30 8968 H 855.233 0.383396 -0.649248 0
M  V30 8969 H 857.884 0.27317 -1.81455 0
M  V30 8970 H 856.266 2.64205 -2.94978 0
M  V30 8971 H 857.44 0.305847 -4.59784 0
M  V30 8972 H 855.755 0.434023 -4.14132 0
M  V30 8973 H 858.352 3.21214 -4.27464 0
M  V30 8974 H 858.695 3.28011 -2.56349 0
M  V30 8975 H 859.228 1.87012 -3.511 0
M  V30 8976 H 855.967 1.22781 -6.43898 0
M  V30 8977 H 855.487 2.59499 -5.40759 0
M  V30 8978 H 857.166 2.45636 -5.98558 0
M  V30 8979 N 857.298 1.47698 0.54982 0
M  V30 8980 C 858.528 1.58101 1.32995 0
M  V30 8981 C 858.936 0.232939 1.87761 0
M  V30 8982 O 858.279 -0.785058 1.6608 0
M  V30 8983 C 858.341 2.55228 2.53178 0
M  V30 8984 C 858.005 4.00756 2.19645 0
M  V30 8985 C 859.002 4.89025 1.76496 0
M  V30 8986 C 856.687 4.46147 2.30777 0
M  V30 8987 C 858.681 6.20707 1.44919 0
M  V30 8988 C 856.368 5.77856 1.98812 0
M  V30 8989 C 857.366 6.64957 1.55952 0
M  V30 8990 O 857.054 7.94217 1.24396 0
M  V30 8991 H 856.786 0.536362 0.411451 0
M  V30 8992 H 859.34 1.94092 0.67212 0
M  V30 8993 H 857.57 2.14319 3.21876 0
M  V30 8994 H 859.259 2.55678 3.15251 0
M  V30 8995 H 860.025 4.55201 1.67383 0
M  V30 8996 H 855.904 3.78552 2.63096 0
M  V30 8997 H 859.448 6.88649 1.11392 0
M  V30 8998 H 855.345 6.11219 2.0756 0
M  V30 8999 H 856.113 8.06789 1.37964 0
M  V30 9000 N 858.776 -0.797141 1.35954 0
M  V30 9001 C 860.023 -1.55468 1.29754 0
M  V30 9002 C 860.351 -1.94095 -0.125391 0
M  V30 9003 O 859.606 -1.62341 -1.09288 0
M  V30 9004 C 859.905 -2.84847 2.15863 0
M  V30 9005 C 859.571 -2.65394 3.64523 0
M  V30 9006 C 858.233 -2.59796 4.05042 0
M  V30 9007 C 860.585 -2.4727 4.58811 0
M  V30 9008 C 857.913 -2.3403 5.38002 0
M  V30 9009 C 860.265 -2.23032 5.91979 0
M  V30 9010 C 858.929 -2.15862 6.31633 0
M  V30 9011 H 858.199 -0.568897 0.474803 0
M  V30 9012 H 860.846 -0.920299 1.67937 0
M  V30 9013 H 859.151 -3.52712 1.70591 0
M  V30 9014 H 860.848 -3.42597 2.08395 0
M  V30 9015 H 857.438 -2.70602 3.32374 0
M  V30 9016 H 861.622 -2.506 4.28384 0
M  V30 9017 H 856.878 -2.26956 5.67715 0
M  V30 9018 H 861.052 -2.08001 6.64612 0
M  V30 9019 H 858.679 -1.9566 7.34589 0
M  V30 9020 N 860.254 -1.20106 -1.0204 0
M  V30 9021 C 861.502 -1.0069 -1.75231 0
M  V30 9022 C 861.823 0.462491 -1.89436 0
M  V30 9023 O 861.093 1.33455 -1.4341 0
M  V30 9024 H 859.673 -0.369576 -0.649171 0
M  V30 9025 H 862.335 -1.51149 -1.23044 0
M  V30 9026 H 861.431 -1.46205 -2.75736 0
M  V30 9027 N 861.732 1.21287 -1.00634 0
M  V30 9028 C 862.962 1.94103 -0.70765 0
M  V30 9029 C 863.37 1.74382 0.733991 0
M  V30 9030 O 862.713 1.04843 1.50843 0
M  V30 9031 C 862.775 3.46705 -0.950581 0
M  V30 9032 C 862.439 3.90176 -2.37932 0
M  V30 9033 C 863.436 3.96769 -3.35961 0
M  V30 9034 C 861.121 4.22453 -2.71733 0
M  V30 9035 C 863.115 4.35034 -4.65858 0
M  V30 9036 C 860.802 4.60394 -4.01846 0
M  V30 9037 C 861.8 4.66656 -4.9872 0
M  V30 9038 O 861.488 5.03732 -6.26505 0
M  V30 9039 H 861.22 0.62405 -0.259881 0
M  V30 9040 H 863.774 1.55015 -1.34757 0
M  V30 9041 H 862.004 3.85868 -0.253492 0
M  V30 9042 H 863.693 4.00741 -0.645069 0
M  V30 9043 H 864.459 3.72009 -3.11182 0
M  V30 9044 H 860.338 4.16776 -1.97025 0
M  V30 9045 H 863.882 4.39836 -5.4147 0
M  V30 9046 H 859.779 4.84609 -4.26409 0
M  V30 9047 H 860.547 5.21761 -6.30641 0
M  V30 9048 N 863.21 0.781244 1.36873 0
M  V30 9049 C 864.458 0.349198 1.9906 0
M  V30 9050 C 864.779 -1.0806 1.62321 0
M  V30 9051 O 864.049 -1.74351 0.893229 0
M  V30 9052 H 862.629 0.126126 0.736275 0
M  V30 9053 H 865.291 1.00148 1.67202 0
M  V30 9054 H 864.387 0.434451 3.09061 0
M  V30 9055 N 864.689 -1.48329 0.532571 0
M  V30 9056 C 865.938 -2.017 -0.00259705 0
M  V30 9057 C 866.251 -1.41469 -1.35077 0
M  V30 9058 O 867.457 -1.86354 -1.97445 0
M  V30 9059 C 865.913 -3.59858 -0.0550179 0
M  V30 9060 C 865.521 -4.29073 1.28842 0
M  V30 9061 C 867.265 -4.21066 -0.538878 0
M  V30 9062 C 865.172 -5.79171 1.19644 0
M  V30 9063 H 864.102 -0.753985 -0.00474081 0
M  V30 9064 H 866.753 -1.70565 0.676739 0
M  V30 9065 H 865.135 -3.87846 -0.799486 0
M  V30 9066 H 866.309 -4.12755 2.04865 0
M  V30 9067 H 864.624 -3.79748 1.70822 0
M  V30 9068 H 867.221 -5.31026 -0.6257 0
M  V30 9069 H 867.564 -3.86559 -1.54525 0
M  V30 9070 H 868.097 -3.97517 0.149984 0
M  V30 9071 H 864.836 -6.18257 2.17805 0
M  V30 9072 H 864.356 -5.97895 0.477609 0
M  V30 9073 H 866.035 -6.40875 0.888186 0
M  V30 9074 N 866.167 -0.267825 -1.55308 0
M  V30 9075 C 867.099 0.65591 -2.19614 0
M  V30 9076 C 868.112 1.12302 -1.17865 0
M  V30 9077 O 869.301 1.04618 -1.44628 0
M  V30 9078 C 866.401 1.90582 -2.80235 0
M  V30 9079 C 865.574 1.58673 -4.07605 0
M  V30 9080 C 864.633 2.68836 -4.52343 0
M  V30 9081 O 863.659 2.35331 -5.18274 0
M  V30 9082 N 864.861 3.98752 -4.21873 0
M  V30 9083 H 867.626 0.105566 -2.99514 0
M  V30 9084 H 865.187 -0.0886263 -1.61657 0
M  V30 9085 H 867.179 2.63561 -3.07112 0
M  V30 9086 H 865.749 2.3654 -2.04371 0
M  V30 9087 H 864.969 0.691113 -3.88094 0
M  V30 9088 H 866.257 1.34845 -4.90606 0
M  V30 9089 H 865.655 4.28797 -3.68985 0
M  V30 9090 H 864.212 4.68131 -4.53537 0
M  V30 9091 N 867.645 1.57599 0.00500368 0
M  V30 9092 C 868.595 2.04585 1.00643 0
M  V30 9093 C 869.579 0.939622 1.30614 0
M  V30 9094 O 870.771 1.20342 1.29796 0
M  V30 9095 C 867.9 2.5486 2.30002 0
M  V30 9096 C 866.986 3.7235 2.03017 0
M  V30 9097 N 867.377 4.84218 1.46173 0
M  V30 9098 C 865.675 3.80185 2.33185 0
M  V30 9099 C 866.376 5.65688 1.35544 0
M  V30 9100 N 865.352 5.11536 1.83933 0
M  V30 9101 H 869.154 2.8849 0.561332 0
M  V30 9102 H 866.668 1.61026 0.210808 0
M  V30 9103 H 868.665 2.86794 3.0258 0
M  V30 9104 H 867.325 1.72372 2.75169 0
M  V30 9105 H 868.336 5.0517 1.1412 0
M  V30 9106 H 865.013 3.08543 2.81261 0
M  V30 9107 H 866.403 6.65588 0.918791 0
M  V30 9108 N 869.123 -0.277682 1.55134 0
M  V30 9109 C 870.348 -1.03254 1.7987 0
M  V30 9110 C 870.773 -1.79324 0.567861 0
M  V30 9111 O 870.131 -1.74764 -0.4824 0
M  V30 9112 C 870.179 -1.9705 3.02 0
M  V30 9113 O 869.283 -3.05744 2.76757 0
M  V30 9114 H 868.624 -0.295447 0.594649 0
M  V30 9115 H 871.154 -0.308013 2.02268 0
M  V30 9116 H 871.164 -2.3909 3.30606 0
M  V30 9117 H 869.839 -1.41094 3.91236 0
M  V30 9118 H 868.416 -2.68052 2.59235 0
M  V30 9119 N 870.601 -1.47988 -0.541979 0
M  V30 9120 C 871.531 -1.64503 -1.65713 0
M  V30 9121 C 872.512 -0.494116 -1.62765 0
M  V30 9122 O 873.697 -0.725256 -1.80149 0
M  V30 9123 C 870.827 -1.67337 -3.04328 0
M  V30 9124 C 869.781 -2.81809 -3.2213 0
M  V30 9125 C 869.107 -2.69724 -4.61685 0
M  V30 9126 C 870.407 -4.23241 -3.06046 0
M  V30 9127 H 872.101 -2.5786 -1.52147 0
M  V30 9128 H 869.647 -1.24094 -0.730529 0
M  V30 9129 H 871.6 -1.77481 -3.82202 0
M  V30 9130 H 870.324 -0.705514 -3.18889 0
M  V30 9131 H 868.983 -2.71201 -2.46669 0
M  V30 9132 H 868.631 -1.70934 -4.73065 0
M  V30 9133 H 868.331 -3.4653 -4.74543 0
M  V30 9134 H 869.855 -2.81818 -5.41674 0
M  V30 9135 H 871.269 -4.34746 -3.73723 0
M  V30 9136 H 869.666 -5.00952 -3.30405 0
M  V30 9137 H 870.736 -4.40543 -2.02609 0
M  V30 9138 N 872.079 0.78992 -1.36375 0
M  V30 9139 C 872.989 1.93386 -1.32812 0
M  V30 9140 C 874.005 1.72468 -0.230377 0
M  V30 9141 O 875.181 1.96014 -0.462657 0
M  V30 9142 C 872.246 3.2824 -1.11621 0
M  V30 9143 C 871.307 3.61939 -2.30865 0
M  V30 9144 C 870.54 4.90359 -2.10675 0
M  V30 9145 O 870.763 5.6005 -1.08168 0
M  V30 9146 O 869.697 5.22702 -2.9844 0
M  V30 9147 H 873.523 1.99342 -2.29121 0
M  V30 9148 H 871.108 0.9301 -1.16917 0
M  V30 9149 H 872.99 4.08939 -1.01719 0
M  V30 9150 H 871.665 3.23178 -0.183732 0
M  V30 9151 H 870.572 2.81549 -2.46335 0
M  V30 9152 H 871.905 3.71725 -3.22617 0
M  V30 9153 N 873.557 1.20646 1.01402 0
M  V30 9154 C 874.467 0.973385 2.13453 0
M  V30 9155 C 875.483 -0.0715865 1.73853 0
M  V30 9156 O 876.659 0.116438 2.01063 0
M  V30 9157 C 873.724 0.531285 3.42605 0
M  V30 9158 C 872.785 1.64741 3.96433 0
M  V30 9159 C 872.018 1.22631 5.1942 0
M  V30 9160 O 872.241 0.0960891 5.70319 0
M  V30 9161 O 871.175 2.03474 5.66465 0
M  V30 9162 H 875.001 1.91164 2.35987 0
M  V30 9163 H 872.586 0.990553 1.11841 0
M  V30 9164 H 874.468 0.294095 4.20373 0
M  V30 9165 H 873.143 -0.378358 3.21481 0
M  V30 9166 H 872.05 1.93891 3.19933 0
M  V30 9167 H 873.383 2.53415 4.2195 0
M  V30 9168 N 875.035 -1.20752 1.01276 0
M  V30 9169 C 876.284 -1.8934 0.695229 0
M  V30 9170 C 876.597 -1.79459 -0.77806 0
M  V30 9171 O 877.803 -2.43146 -1.20799 0
M  V30 9172 C 876.259 -3.39548 1.1931 0
M  V30 9173 C 875.867 -3.58023 2.69302 0
M  V30 9174 C 877.611 -4.13714 0.950823 0
M  V30 9175 C 875.518 -5.02037 3.1259 0
M  V30 9176 H 874.448 -0.709084 0.25635 0
M  V30 9177 H 877.099 -1.36629 1.22494 0
M  V30 9178 H 875.481 -3.91559 0.591395 0
M  V30 9179 H 876.655 -3.16416 3.34989 0
M  V30 9180 H 874.97 -2.97222 2.9163 0
M  V30 9181 H 877.567 -5.19891 1.24971 0
M  V30 9182 H 877.91 -4.16147 -0.112791 0
M  V30 9183 H 878.443 -3.67792 1.51571 0
M  V30 9184 H 875.182 -5.04757 4.18211 0
M  V30 9185 H 874.702 -5.44469 2.51621 0
M  V30 9186 H 876.381 -5.70594 3.0501 0
M  V30 9187 N 876.513 -0.788492 -1.36457 0
M  V30 9188 C 877.46 -0.18435 -2.30063 0
M  V30 9189 C 878.43 0.67128 -1.51931 0
M  V30 9190 O 879.615 0.620152 -1.8044 0
M  V30 9191 C 876.755 0.675596 -3.38422 0
M  V30 9192 C 875.868 -0.198475 -4.31544 0
M  V30 9193 C 875.003 0.667757 -5.26986 0
M  V30 9194 C 874.042 -0.207825 -6.11747 0
M  V30 9195 N 873.179 0.617335 -6.99381 0
M  V30 9196 H 878.019 -0.988056 -2.81143 0
M  V30 9197 H 875.556 -0.498815 -1.38384 0
M  V30 9198 H 877.514 1.18916 -3.99894 0
M  V30 9199 H 876.144 1.44474 -2.88664 0
M  V30 9200 H 875.196 -0.829995 -3.71235 0
M  V30 9201 H 876.508 -0.873163 -4.91098 0
M  V30 9202 H 875.662 1.24716 -5.93743 0
M  V30 9203 H 874.401 1.37607 -4.67884 0
M  V30 9204 H 873.406 -0.799638 -5.43954 0
M  V30 9205 H 874.631 -0.913729 -6.72925 0
M  V30 9206 H 872.577 1.30996 -6.42788 0
M  V30 9207 H 872.494 0.000307255 -7.56 0
M  V30 9208 H 873.762 1.1806 -7.70508 0
M  V30 9209 N 877.991 1.48044 -0.54043 0
M  V30 9210 C 879.216 2.07396 -0.0124765 0
M  V30 9211 C 879.641 1.39288 1.26414 0
M  V30 9212 O 878.999 0.462252 1.75308 0
M  V30 9213 C 879.047 3.60131 0.18377 0
M  V30 9214 O 878.151 3.92995 1.25014 0
M  V30 9215 H 877.492 0.662554 -0.0438026 0
M  V30 9216 H 880.022 1.90306 -0.751327 0
M  V30 9217 H 880.032 4.06003 0.403197 0
M  V30 9218 H 878.707 4.09105 -0.74874 0
M  V30 9219 H 877.284 3.5889 1.01254 0
M  V30 9220 N 879.47 0.276058 1.55163 0
M  V30 9221 C 880.418 -0.626978 2.2399 0
M  V30 9222 C 881.412 -1.15708 1.23725 0
M  V30 9223 O 882.618 -1.1106 1.41653 0
M  V30 9224 H 878.993 -0.220742 0.718872 0
M  V30 9225 H 880.964 -0.0236569 2.98391 0
M  V30 9226 C 879.713 -1.79935 2.97521 0
M  V30 9227 H 879.036 -1.40064 3.74463 0
M  V30 9228 H 880.476 -2.40781 3.48999 0
M  V30 9229 C 878.935 -2.68838 2.03046 0
M  V30 9230 O 879.465 -3.69224 1.58229 0
M  V30 9231 N 877.671 -2.36028 1.69527 0
M  V30 9232 H 877.218 -1.54442 2.06169 0
M  V30 9233 H 877.176 -2.95782 1.06586 0
M  V30 9234 N 880.948 -1.576 0.00335426 0
M  V30 9235 C 881.88 -2.0549 -1.01521 0
M  V30 9236 C 882.893 -0.973441 -1.30491 0
M  V30 9237 O 884.082 -1.25017 -1.27409 0
M  V30 9238 C 881.182 -2.44272 -2.34914 0
M  V30 9239 C 880.355 -3.75191 -2.24835 0
M  V30 9240 C 879.414 -4.00804 -3.40944 0
M  V30 9241 O 878.44 -4.71423 -3.18981 0
M  V30 9242 N 879.642 -3.48961 -4.63904 0
M  V30 9243 H 882.407 -2.93493 -0.60678 0
M  V30 9244 H 879.968 -1.60851 -0.18396 0
M  V30 9245 H 881.96 -2.58518 -3.11369 0
M  V30 9246 H 880.53 -1.6177 -2.67487 0
M  V30 9247 H 879.75 -3.70989 -1.3327 0
M  V30 9248 H 881.038 -4.61013 -2.15277 0
M  V30 9249 H 880.436 -2.9178 -4.84645 0
M  V30 9250 H 878.993 -3.68531 -5.37613 0
M  V30 9251 N 882.426 0.269451 -1.5528 0
M  V30 9252 C 883.837 0.840233 -1.66724 0
M  V30 9253 C 884.188 1.86909 -0.596621 0
M  V30 9254 O 883.313 2.14817 0.261246 0
M  V30 9255 C 883.908 1.5308 -3.02245 0
M  V30 9256 C 882.467 2.04957 -3.15705 0
M  V30 9257 C 881.614 0.892838 -2.62533 0
M  V30 9258 H 884.565 0.0457236 -1.58634 0
M  V30 9259 H 884.586 2.39792 -2.95432 0
M  V30 9260 H 884.098 0.781741 -3.80145 0
M  V30 9261 H 882.199 2.82813 -2.42585 0
M  V30 9262 H 882.312 2.26244 -4.22316 0
M  V30 9263 H 880.676 1.28719 -2.19781 0
M  V30 9264 H 881.459 0.157229 -3.4294 0
M  V30 9265 N 883.904 1.48273 0.534124 0
M  V30 9266 C 885.129 1.59988 1.31979 0
M  V30 9267 C 885.554 0.258824 1.86311 0
M  V30 9268 O 884.912 -0.768885 1.64188 0
M  V30 9269 C 884.96 2.64642 2.44943 0
M  V30 9270 O 884.064 2.21515 3.47858 0
M  V30 9271 H 883.405 0.536625 0.391063 0
M  V30 9272 H 885.935 1.94229 0.643135 0
M  V30 9273 H 885.945 2.85786 2.91187 0
M  V30 9274 H 884.62 3.62004 2.04758 0
M  V30 9275 H 883.197 2.10567 3.0776 0
M  V30 9276 N 885.382 -0.782676 1.36792 0
M  V30 9277 C 886.798 -1.08169 1.17352 0
M  V30 9278 C 886.998 -2.015 0.0022037 0
M  V30 9279 O 886.054 -2.43692 -0.661093 0
M  V30 9280 C 887.367 -1.68969 2.48737 0
M  V30 9281 C 888.915 -1.81278 2.55161 0
M  V30 9282 C 889.39 -2.45492 3.86649 0
M  V30 9283 N 890.881 -2.52954 3.88032 0
M  V30 9284 C 891.616 -3.03465 4.86515 0
M  V30 9285 N 891.112 -3.54232 5.95392 0
M  V30 9286 N 892.905 -3.02239 4.73928 0
M  V30 9287 H 885.056 -0.162757 2.11775 0
M  V30 9288 H 887.319 -0.134823 0.938364 0
M  V30 9289 H 887.025 -1.07859 3.34753 0
M  V30 9290 H 886.899 -2.68397 2.65034 0
M  V30 9291 H 889.286 -2.41524 1.69559 0
M  V30 9292 H 889.367 -0.806367 2.42758 0
M  V30 9293 H 889.011 -1.85889 4.7266 0
M  V30 9294 H 888.941 -3.46718 3.96351 0
M  V30 9295 H 891.432 -2.17014 3.09376 0
M  V30 9296 H 891.745 -3.91145 6.66503 0
M  V30 9297 H 890.09 -3.52366 5.99052 0
M  V30 9298 H 893.281 -2.61871 3.87996 0
M  V30 9299 H 893.454 -3.41295 5.50837 0
M  V30 9300 N 886.86 -1.21182 -1.00761 0
M  V30 9301 C 887.807 -0.968741 -2.09485 0
M  V30 9302 C 888.777 0.104325 -1.65772 0
M  V30 9303 O 889.962 -0.0422587 -1.90753 0
M  V30 9304 C 887.102 -0.536686 -3.40901 0
M  V30 9305 C 886.215 -1.6789 -3.98041 0
M  V30 9306 C 885.35 -1.19627 -5.17555 0
M  V30 9307 C 884.389 -2.31099 -5.66798 0
M  V30 9308 N 883.526 -1.83988 -6.77564 0
M  V30 9309 H 888.366 -1.89952 -2.29613 0
M  V30 9310 H 885.903 -0.946688 -1.12589 0
M  V30 9311 H 887.861 -0.26745 -4.16342 0
M  V30 9312 H 886.491 0.357092 -3.20819 0
M  V30 9313 H 885.543 -2.06284 -3.19611 0
M  V30 9314 H 886.855 -2.51794 -4.30582 0
M  V30 9315 H 886.009 -0.883539 -6.00232 0
M  V30 9316 H 884.748 -0.327244 -4.86601 0
M  V30 9317 H 883.753 -2.63178 -4.82719 0
M  V30 9318 H 884.978 -3.18493 -5.99782 0
M  V30 9319 H 882.924 -0.994257 -6.48422 0
M  V30 9320 H 882.841 -2.61466 -7.09346 0
M  V30 9321 H 884.109 -1.55741 -7.63783 0
M  V30 9322 N 888.338 1.20213 -1.01915 0
M  V30 9323 C 889.563 1.94163 -0.729076 0
M  V30 9324 C 889.988 1.74416 0.704323 0
M  V30 9325 O 889.346 1.0401 1.48498 0
M  V30 9326 C 889.394 3.44258 -1.07324 0
M  V30 9327 O 888.498 4.11979 -0.186367 0
M  V30 9328 H 887.839 0.606506 -0.270272 0
M  V30 9329 H 890.369 1.52571 -1.3632 0
M  V30 9330 H 890.379 3.94888 -1.02603 0
M  V30 9331 H 889.054 3.57954 -2.11759 0
M  V30 9332 H 887.631 3.7176 -0.291334 0
M  V30 9333 N 889.816 0.795718 1.36037 0
M  V30 9334 C 891.232 0.478145 1.52269 0
M  V30 9335 C 891.432 -1.0025 1.74792 0
M  V30 9336 O 890.488 -1.78783 1.78305 0
M  V30 9337 C 891.801 1.31406 2.70468 0
M  V30 9338 C 893.349 1.3084 2.84341 0
M  V30 9339 C 893.824 2.12819 4.05551 0
M  V30 9340 N 895.315 2.10298 4.12709 0
M  V30 9341 C 896.05 2.70495 5.05589 0
M  V30 9342 N 895.546 3.39576 6.03871 0
M  V30 9343 N 897.339 2.60195 4.98252 0
M  V30 9344 H 889.49 1.75477 1.19673 0
M  V30 9345 H 891.753 0.74627 0.584624 0
M  V30 9346 H 891.459 2.36435 2.60368 0
M  V30 9347 H 891.333 0.959726 3.64786 0
M  V30 9348 H 893.72 0.266003 2.93899 0
M  V30 9349 H 893.801 1.70254 1.90912 0
M  V30 9350 H 893.445 3.17093 3.96755 0
M  V30 9351 H 893.375 1.70772 4.98141 0
M  V30 9352 H 895.866 1.60026 3.42345 0
M  V30 9353 H 896.179 3.82823 6.71317 0
M  V30 9354 H 894.524 3.43679 6.04077 0
M  V30 9355 H 897.715 2.05823 4.20422 0
M  V30 9356 H 897.888 3.074 5.70447 0
M  V30 9357 N 891.294 -1.47756 0.548274 0
M  V30 9358 C 892.257 -2.28379 -0.193857 0
M  V30 9359 C 893.257 -1.36436 -0.850986 0
M  V30 9360 O 894.447 -1.59154 -0.70822 0
M  V30 9361 C 891.579 -3.15858 -1.28243 0
M  V30 9362 H 892.772 -2.95458 0.514231 0
M  V30 9363 H 890.325 -1.53298 0.304879 0
M  V30 9364 H 891.06 -2.5345 -2.0232 0
M  V30 9365 H 890.845 -3.83512 -0.816148 0
M  V30 9366 H 892.335 -3.76627 -1.80393 0
M  V30 9367 N 892.772 -0.284283 -1.55015 0
M  V30 9368 C 893.719 0.599194 -2.22886 0
M  V30 9369 C 894.689 1.14264 -1.20553 0
M  V30 9370 O 895.874 1.19025 -1.49123 0
M  V30 9371 C 893.014 1.77317 -2.96062 0
M  V30 9372 C 892.127 1.26271 -4.13134 0
M  V30 9373 C 891.262 2.39922 -4.73931 0
M  V30 9374 C 890.301 1.85925 -5.8318 0
M  V30 9375 N 889.438 2.93084 -6.38002 0
M  V30 9376 H 894.278 0.0137816 -2.97997 0
M  V30 9377 H 891.815 -0.00496503 -1.47099 0
M  V30 9378 H 893.773 2.46339 -3.36709 0
M  V30 9379 H 892.403 2.33047 -2.23358 0
M  V30 9380 H 891.455 0.465296 -3.77544 0
M  V30 9381 H 892.767 0.827284 -4.91892 0
M  V30 9382 H 891.921 3.1692 -5.17346 0
M  V30 9383 H 890.66 2.86784 -3.9447 0
M  V30 9384 H 889.665 1.07409 -5.39206 0
M  V30 9385 H 890.89 1.39987 -6.64515 0
M  V30 9386 H 888.836 3.3931 -5.61431 0
M  V30 9387 H 888.753 2.53986 -7.12058 0
M  V30 9388 H 890.021 3.7003 -6.86075 0
M  V30 9389 N 894.251 1.57596 -0.0117121 0
M  V30 9390 C 895.479 1.9536 0.681334 0
M  V30 9391 C 895.894 0.887255 1.66653 0
M  V30 9392 O 895.251 -0.132692 1.82017 0
M  V30 9393 C 895.302 3.33165 1.40298 0
M  V30 9394 O 895.023 4.35707 0.45728 0
M  V30 9395 C 896.524 3.85458 2.18946 0
M  V30 9396 H 893.744 0.643826 0.189023 0
M  V30 9397 H 896.288 2.04392 -0.066311 0
M  V30 9398 H 894.443 3.25404 2.10216 0
M  V30 9399 H 894.857 5.15495 0.96773 0
M  V30 9400 H 896.331 4.84275 2.64918 0
M  V30 9401 H 896.808 3.18781 3.02118 0
M  V30 9402 H 897.414 3.96431 1.5402 0
M  V30 9403 N 895.729 -0.261212 1.5542 0
M  V30 9404 C 896.975 -0.992699 1.76843 0
M  V30 9405 C 897.308 -1.8551 0.574428 0
M  V30 9406 O 896.583 -1.89739 -0.427713 0
M  V30 9407 C 896.866 -1.86532 3.08022 0
M  V30 9408 C 896.719 -1.03206 4.378 0
M  V30 9409 C 898.038 -2.85036 3.35324 0
M  V30 9410 H 895.157 -0.359473 0.643388 0
M  V30 9411 H 897.799 -0.264214 1.88154 0
M  V30 9412 H 895.949 -2.48644 2.9851 0
M  V30 9413 H 897.621 -0.430743 4.59285 0
M  V30 9414 H 895.864 -0.335911 4.32497 0
M  V30 9415 H 896.535 -1.6761 5.25938 0
M  V30 9416 H 899.011 -2.3306 3.44706 0
M  V30 9417 H 897.887 -3.43226 4.28354 0
M  V30 9418 H 898.148 -3.60768 2.55537 0
M  V30 9419 N 897.207 -1.48554 -0.526253 0
M  V30 9420 C 898.484 -1.47252 -1.28748 0
M  V30 9421 C 898.864 -0.186245 -2.10277 0
M  V30 9422 O 898.212 0.831954 -2.12816 0
M  V30 9423 C 898.422 -2.73672 -2.16575 0
M  V30 9424 C 899.77 -3.22151 -2.76593 0
M  V30 9425 O 900.794 -2.74614 -2.2686 0
M  V30 9426 O 899.653 -4.04877 -3.67066 0
M  V30 9427 H 896.747 -0.588242 -0.581292 0
M  V30 9428 H 899.293 -1.60792 -0.5426 0
M  V30 9429 H 898.065 -3.58798 -1.56139 0
M  V30 9430 H 897.688 -2.6287 -2.98304 0
M  V30 9431 N 898.685 0.775411 -1.37205 0
M  V30 9432 C 899.615 1.90258 -1.35367 0
M  V30 9433 C 900.596 1.68634 -0.222864 0
M  V30 9434 O 901.781 1.89545 -0.422659 0
M  V30 9435 C 898.911 3.27488 -1.15623 0
M  V30 9436 C 897.865 3.63668 -2.25676 0
M  V30 9437 C 897.191 4.994 -1.91059 0
M  V30 9438 C 898.491 3.70797 -3.67841 0
M  V30 9439 H 900.185 1.92053 -2.29687 0
M  V30 9440 H 897.731 0.922597 -1.10563 0
M  V30 9441 H 899.684 4.05976 -1.12968 0
M  V30 9442 H 898.408 3.26117 -0.177573 0
M  V30 9443 H 897.067 2.87486 -2.2748 0
M  V30 9444 H 896.715 4.94565 -0.917324 0
M  V30 9445 H 896.415 5.24576 -2.64751 0
M  V30 9446 H 897.939 5.80291 -1.89985 0
M  V30 9447 H 899.353 4.39444 -3.68187 0
M  V30 9448 H 897.75 4.07468 -4.40556 0
M  V30 9449 H 898.82 2.71549 -4.01732 0
M  V30 9450 N 900.163 1.21714 1.00117 0
M  V30 9451 C 901.44 0.945391 1.71236 0
M  V30 9452 C 901.82 -0.541772 2.0403 0
M  V30 9453 O 901.168 -1.50763 1.71705 0
M  V30 9454 C 901.378 1.83444 2.96899 0
M  V30 9455 C 902.726 2.08558 3.69849 0
M  V30 9456 O 903.75 1.80824 3.06889 0
M  V30 9457 O 902.609 2.55485 4.83104 0
M  V30 9458 H 899.703 0.354834 0.747009 0
M  V30 9459 H 902.249 1.32661 1.05825 0
M  V30 9460 H 901.021 2.84075 2.69105 0
M  V30 9461 H 900.644 1.45428 3.70049 0
M  V30 9462 N 901.641 -1.19671 1.02551 0
M  V30 9463 C 903.052 -1.70964 0.750208 0
M  V30 9464 C 903.403 -1.82095 -0.730461 0
M  V30 9465 O 902.528 -1.48974 -1.56958 0
M  V30 9466 C 903.123 -3.10516 1.35518 0
M  V30 9467 C 901.682 -3.59083 1.12854 0
M  V30 9468 C 900.829 -2.36041 1.45534 0
M  V30 9469 H 903.78 -1.04559 1.19386 0
M  V30 9470 H 903.801 -3.73028 0.750378 0
M  V30 9471 H 903.313 -3.02383 2.43282 0
M  V30 9472 H 901.414 -3.72536 0.0689627 0
M  V30 9473 H 901.527 -4.43395 1.81488 0
M  V30 9474 H 899.891 -2.39214 0.87458 0
M  V30 9475 H 900.674 -2.3054 2.54374 0
M  V30 9476 N 903.119 -0.802921 -1.35613 0
M  V30 9477 C 904.367 -0.380822 -1.9848 0
M  V30 9478 C 904.688 1.05464 -1.6402 0
M  V30 9479 O 903.958 1.72908 -0.920854 0
M  V30 9480 H 902.538 -0.137824 -0.734176 0
M  V30 9481 H 905.2 -1.02795 -1.65587 0
M  V30 9482 H 904.296 -0.483565 -3.08331 0
M  V30 9483 N 904.597 1.47463 -0.556102 0
M  V30 9484 C 905.825 2.06868 -0.0364585 0
M  V30 9485 C 906.24 1.40893 1.25677 0
M  V30 9486 O 905.597 0.505083 1.75371 0
M  V30 9487 C 905.648 3.61128 0.163984 0
M  V30 9488 O 905.369 4.24629 -1.07803 0
M  V30 9489 C 906.87 4.37397 0.721036 0
M  V30 9490 H 904.09 0.669466 -0.0453399 0
M  V30 9491 H 906.634 1.89482 -0.769198 0
M  V30 9492 H 904.789 3.78031 0.84685 0
M  V30 9493 H 905.203 5.17149 -0.875067 0
M  V30 9494 H 906.677 5.46016 0.810584 0
M  V30 9495 H 907.154 4.03604 1.73206 0
M  V30 9496 H 907.76 4.25236 0.073904 0
M  V30 9497 N 906.075 0.2925 1.54862 0
M  V30 9498 C 907.005 -0.580677 2.26165 0
M  V30 9499 C 907.986 -1.14485 1.25806 0
M  V30 9500 O 909.171 -1.17577 1.54562 0
M  V30 9501 C 906.301 -1.75668 2.99596 0
M  V30 9502 C 905.255 -1.32325 4.07031 0
M  V30 9503 C 904.581 -2.58374 4.68131 0
M  V30 9504 C 905.881 -0.460703 5.20264 0
M  V30 9505 H 907.575 0.0140075 2.99397 0
M  V30 9506 H 905.121 0.00817706 1.43998 0
M  V30 9507 H 907.074 -2.37356 3.48195 0
M  V30 9508 H 905.798 -2.37747 2.23928 0
M  V30 9509 H 904.457 -0.729477 3.59269 0
M  V30 9510 H 904.105 -3.18749 3.89112 0
M  V30 9511 H 903.805 -2.30078 5.40683 0
M  V30 9512 H 905.329 -3.2088 5.19489 0
M  V30 9513 H 906.743 -0.983037 5.64809 0
M  V30 9514 H 905.14 -0.271881 5.99484 0
M  V30 9515 H 906.21 0.516304 4.82143 0
M  V30 9516 N 907.553 -1.57587 0.0200696 0
M  V30 9517 C 908.783 -1.95435 -0.669991 0
M  V30 9518 C 909.191 -0.894647 -1.66711 0
M  V30 9519 O 908.534 0.133009 -1.83218 0
M  V30 9520 C 908.596 -3.29379 -1.44047 0
M  V30 9521 C 908.26 -4.53008 -0.602691 0
M  V30 9522 C 909.257 -5.19766 0.118188 0
M  V30 9523 C 906.942 -4.99359 -0.542754 0
M  V30 9524 C 908.936 -6.31187 0.887774 0
M  V30 9525 C 906.623 -6.10665 0.230543 0
M  V30 9526 C 907.621 -6.76438 0.944522 0
M  V30 9527 O 907.309 -7.85608 1.70516 0
M  V30 9528 H 907.041 -0.648681 -0.190234 0
M  V30 9529 H 909.595 -2.05269 0.0733838 0
M  V30 9530 H 907.825 -3.1601 -2.22878 0
M  V30 9531 H 909.514 -3.52194 -2.01777 0
M  V30 9532 H 910.28 -4.84932 0.0811604 0
M  V30 9533 H 906.159 -4.47976 -1.08804 0
M  V30 9534 H 909.703 -6.82458 1.44558 0
M  V30 9535 H 905.6 -6.44938 0.26932 0
M  V30 9536 H 906.368 -8.02228 1.62398 0
M  V30 9537 N 909.032 0.252966 -1.55557 0
M  V30 9538 C 910.278 0.983306 -1.77367 0
M  V30 9539 C 910.611 1.85203 -0.584258 0
M  V30 9540 O 909.886 1.89963 0.417644 0
M  V30 9541 C 910.169 1.84896 -3.09007 0
M  V30 9542 C 910.022 1.00883 -4.38341 0
M  V30 9543 C 911.341 2.83254 -3.36831 0
M  V30 9544 H 908.46 0.356056 -0.645286 0
M  V30 9545 H 911.102 0.254232 -1.88291 0
M  V30 9546 H 909.252 2.47058 -2.99825 0
M  V30 9547 H 910.924 0.40638 -4.59507 0
M  V30 9548 H 909.167 0.31297 -4.3267 0
M  V30 9549 H 909.838 1.64818 -5.2682 0
M  V30 9550 H 912.314 2.31228 -3.45937 0
M  V30 9551 H 911.19 3.40949 -4.30169 0
M  V30 9552 H 911.451 3.59407 -2.57447 0
M  V30 9553 N 910.51 1.48831 0.518367 0
M  V30 9554 C 911.46 1.60614 1.61824 0
M  V30 9555 C 912.444 0.462631 1.54106 0
M  V30 9556 O 913.636 0.714689 1.6193 0
M  V30 9557 C 910.765 1.65984 3.00507 0
M  V30 9558 C 909.851 2.85854 3.13286 0
M  V30 9559 N 910.242 4.1014 2.96005 0
M  V30 9560 C 908.54 2.83429 3.4436 0
M  V30 9561 C 909.241 4.90626 3.12508 0
M  V30 9562 N 908.217 4.2366 3.40607 0
M  V30 9563 H 912.019 2.54443 1.47091 0
M  V30 9564 H 909.533 1.45363 0.724102 0
M  V30 9565 H 911.53 1.72521 3.79529 0
M  V30 9566 H 910.19 0.732792 3.16323 0
M  V30 9567 H 911.201 4.40395 2.72531 0
M  V30 9568 H 907.878 2.0003 3.66462 0
M  V30 9569 H 909.268 5.99302 3.03786 0
M  V30 9570 N 911.988 -0.768124 1.37614 0
M  V30 9571 C 913.213 -1.56239 1.36397 0
M  V30 9572 C 913.638 -1.8804 -0.0475839 0
M  V30 9573 O 912.996 -1.495 -1.02564 0
M  V30 9574 C 913.044 -2.84716 2.21289 0
M  V30 9575 O 912.148 -3.79249 1.62001 0
M  V30 9576 H 911.489 -0.473119 0.465891 0
M  V30 9577 H 914.019 -0.950415 1.81186 0
M  V30 9578 H 914.029 -3.33784 2.34632 0
M  V30 9579 H 912.704 -2.60899 3.2389 0
M  V30 9580 H 911.281 -3.37904 1.57719 0
M  V30 9581 N 913.466 -1.22244 -0.994698 0
M  V30 9582 C 914.712 -1.04746 -1.73655 0
M  V30 9583 C 915.045 0.41668 -1.89677 0
M  V30 9584 O 914.32 1.30897 -1.43862 0
M  V30 9585 C 914.603 -1.75716 -3.14318 0
M  V30 9586 C 914.456 -3.29714 -3.05955 0
M  V30 9587 C 915.775 -1.50809 -4.13455 0
M  V30 9588 H 912.894 -0.381921 -0.630322 0
M  V30 9589 H 915.536 -1.50559 -1.15897 0
M  V30 9590 H 913.686 -1.3677 -3.63629 0
M  V30 9591 H 915.358 -3.78093 -2.64279 0
M  V30 9592 H 913.601 -3.59484 -2.42804 0
M  V30 9593 H 914.272 -3.74547 -4.05485 0
M  V30 9594 H 916.748 -1.84636 -3.72892 0
M  V30 9595 H 915.624 -2.02964 -5.09997 0
M  V30 9596 H 915.885 -0.440292 -4.39902 0
M  V30 9597 O 914.983 1.1257 -1.15803 0
M  V30 9598 H 915.674 1.72207 -0.886817 0
M  V30 END ATOM
M  V30 BEGIN BOND
M  V30 END BOND
M  V30 END CTAB
M  END
$$$$
