drugbank_target|O14920 Inhibitor of nuclear factor kappa-B kinase subunit beta (DB00244; DB00795; DB00945; DB00995; DB01169; DB05183; DB06151; DB06521; DB12010)
 OpenBabel12092119483D

  0  0  0     0  0            999 V3000
M  V30 BEGIN CTAB
M  V30 COUNTS 12134 12241 0 0 0
M  V30 BEGIN ATOM
M  V30 1 H -0.908 1.98254 -0.117106 0
M  V30 2 N 0 1.576 0 0
M  V30 3 C 0.933 2.03868 1.02534 0
M  V30 4 C 1.911 0.928543 1.3348 0
M  V30 5 O 3.095 1.19667 1.45644 0
M  V30 6 C 0.222 2.43627 2.35294 0
M  V30 7 C -0.732 3.65373 2.2001 0
M  V30 8 S 0.101 5.13292 1.52614 0
M  V30 9 C 1.257 5.56322 2.86805 0
M  V30 10 H 1.49 2.90518 0.631377 0
M  V30 11 H -0.977 1.52953 0.210867 0
M  V30 12 H 0.981 2.67203 3.11629 0
M  V30 13 H -0.358 1.57376 2.7183 0
M  V30 14 H -1.165 3.90944 3.18086 0
M  V30 15 H -1.563 3.418 1.51819 0
M  V30 16 H 0.729 5.58782 3.83104 0
M  V30 17 H 1.672 6.56266 2.65933 0
M  V30 18 H 2.08 4.83886 2.90714 0
M  V30 19 N 1.4781 -0.272755 1.55222 0
M  V30 20 C 2.7031 -1.02683 1.80197 0
M  V30 21 C 3.1281 -1.79142 0.573551 0
M  V30 22 O 2.4861 -1.74917 -0.476849 0
M  V30 23 C 2.5341 -1.9609 3.02624 0
M  V30 24 O 1.6381 -3.04863 2.77727 0
M  V30 25 H 0.9791 -0.293557 0.595584 0
M  V30 26 H 3.5091 -0.30159 2.02365 0
M  V30 27 H 3.5191 -2.38039 3.31363 0
M  V30 28 H 2.1941 -1.39851 3.91682 0
M  V30 29 H 0.7711 -2.67228 2.60084 0
M  V30 30 N 2.9562 -1.48159 -0.537278 0
M  V30 31 C 4.2022 -1.57015 -1.29297 0
M  V30 32 C 4.5572 -0.237791 -1.90925 0
M  V30 33 O 3.8502 0.758621 -1.75942 0
M  V30 34 C 4.0442 -2.63956 -2.40961 0
M  V30 35 C 3.8732 -4.07461 -1.90278 0
M  V30 36 C 2.6432 -4.74685 -1.73213 0
M  V30 37 C 4.8412 -4.93858 -1.43556 0
M  V30 38 N 2.8232 -6.02633 -1.17078 0
M  V30 39 C 4.1942 -6.11993 -0.993204 0
M  V30 40 C 6.2492 -4.80141 -1.31792 0
M  V30 41 C 4.9522 -7.17923 -0.444872 0
M  V30 42 C 6.9782 -5.86186 -0.783585 0
M  V30 43 C 6.3402 -7.03524 -0.351261 0
M  V30 44 H 2.4392 -0.629154 -0.464423 0
M  V30 45 H 5.0232 -1.85006 -0.606705 0
M  V30 46 H 3.1942 -2.378 -3.07093 0
M  V30 47 H 4.9262 -2.62539 -3.07986 0
M  V30 48 H 1.6812 -4.30902 -1.9652 0
M  V30 49 H 2.1052 -6.7085 -0.910421 0
M  V30 50 H 6.7472 -3.89772 -1.63823 0
M  V30 51 H 4.4652 -8.08022 -0.11222 0
M  V30 52 H 8.0512 -5.77624 -0.695835 0
M  V30 53 H 6.9312 -7.8418 0.055777 0
M  V30 54 N 4.4343 0.785586 -1.36625 0
M  V30 55 C 5.6593 1.57963 -1.34397 0
M  V30 56 C 6.0843 1.87964 0.071526 0
M  V30 57 O 5.4423 1.48182 1.0446 0
M  V30 58 C 5.4903 2.87511 -2.17646 0
M  V30 59 O 4.5943 3.81281 -1.57158 0
M  V30 60 H 3.9353 0.479014 -0.459828 0
M  V30 61 H 6.4653 0.973411 -1.79961 0
M  V30 62 H 6.4753 3.36745 -2.30362 0
M  V30 63 H 5.1503 2.65002 -3.20541 0
M  V30 64 H 3.7273 3.39885 -1.53403 0
M  V30 65 N 5.9124 1.20967 1.01018 0
M  V30 66 C 7.3234 1.02319 1.56165 0
M  V30 67 C 7.6744 -0.418546 1.91684 0
M  V30 68 O 6.7994 -1.30096 1.72928 0
M  V30 69 C 7.3944 1.85109 2.8376 0
M  V30 70 C 5.9534 1.70809 3.35412 0
M  V30 71 C 5.1004 1.82643 2.08655 0
M  V30 72 H 8.0514 1.35065 0.833255 0
M  V30 73 H 8.0724 1.35827 3.55431 0
M  V30 74 H 7.5844 2.90035 2.57878 0
M  V30 75 H 5.6854 0.685464 3.66241 0
M  V30 76 H 5.7984 2.52467 4.07182 0
M  V30 77 H 4.1624 1.25896 2.21409 0
M  V30 78 H 4.9454 2.89066 1.85191 0
M  V30 79 N 7.3905 -1.2043 1.01659 0
M  V30 80 C 8.6155 -1.94318 0.724942 0
M  V30 81 C 9.0405 -1.74266 -0.708034 0
M  V30 82 O 8.3985 -1.03694 -1.48719 0
M  V30 83 C 8.4465 -3.44486 1.06591 0
M  V30 84 O 7.5505 -4.12017 0.177599 0
M  V30 85 H 6.8915 -0.60708 0.26898 0
M  V30 86 H 9.4215 -1.52861 1.35995 0
M  V30 87 H 9.4315 -3.95106 1.01762 0
M  V30 88 H 8.1065 -3.58404 2.10997 0
M  V30 89 H 6.6835 -3.71821 0.283421 0
M  V30 90 N 8.8686 -0.792821 -1.36206 0
M  V30 91 C 9.7986 -0.207853 -2.32573 0
M  V30 92 C 10.7796 0.659055 -1.56813 0
M  V30 93 O 11.9646 0.592176 -1.84951 0
M  V30 94 C 9.0946 0.655449 -3.41059 0
M  V30 95 C 8.0486 -0.111842 -4.27854 0
M  V30 96 C 7.3746 0.872274 -5.27537 0
M  V30 97 C 8.6746 -1.30299 -5.05786 0
M  V30 98 H 10.3686 -1.01294 -2.81744 0
M  V30 99 H 7.9146 -0.48854 -1.3546 0
M  V30 100 H 9.8676 1.07464 -4.07467 0
M  V30 101 H 8.5916 1.49328 -2.90463 0
M  V30 102 H 7.2506 -0.512053 -3.63006 0
M  V30 103 H 6.8986 1.70523 -4.73214 0
M  V30 104 H 6.5986 0.363291 -5.86476 0
M  V30 105 H 8.1226 1.28996 -5.96818 0
M  V30 106 H 9.5366 -0.959379 -5.65216 0
M  V30 107 H 7.9336 -1.7455 -5.74154 0
M  V30 108 H 9.0036 -2.09663 -4.37229 0
M  V30 109 N 10.3467 1.47872 -0.545128 0
M  V30 110 C 11.5747 2.06889 -0.021084 0
M  V30 111 C 11.9897 1.39955 1.2672 0
M  V30 112 O 11.3467 0.492036 1.75742 0
M  V30 113 C 11.3977 3.60996 0.190817 0
M  V30 114 O 11.1187 4.25419 -1.04644 0
M  V30 115 C 12.6197 4.36849 0.753521 0
M  V30 116 H 9.8397 0.669785 -0.0403635 0
M  V30 117 H 12.3837 1.90049 -0.755095 0
M  V30 118 H 10.5387 3.77391 0.87492 0
M  V30 119 H 10.9527 5.17785 -0.836611 0
M  V30 120 H 12.4267 5.45399 0.851139 0
M  V30 121 H 12.9037 4.02306 1.762 0
M  V30 122 H 13.5097 4.25169 0.105503 0
M  V30 123 N 11.8248 0.280983 1.55075 0
M  V30 124 C 13.0528 -0.337293 2.04132 0
M  V30 125 C 13.4678 -1.4903 1.15912 0
M  V30 126 O 12.8248 -1.81606 0.180459 0
M  V30 127 C 12.8758 -0.812706 3.52246 0
M  V30 128 O 12.5968 0.294387 4.3711 0
M  V30 129 C 14.0978 -1.4982 4.17216 0
M  V30 130 H 11.3178 -0.0761638 0.666663 0
M  V30 131 H 13.8618 0.414787 2.00249 0
M  V30 132 H 12.0168 -1.51486 3.56554 0
M  V30 133 H 12.4308 -0.0721325 5.2445 0
M  V30 134 H 13.9048 -1.7822 5.22438 0
M  V30 135 H 14.3818 -2.43168 3.65741 0
M  V30 136 H 14.9878 -0.839742 4.16927 0
M  V30 137 N 13.3029 -1.57598 0.00835791 0
M  V30 138 C 14.2349 -2.05811 -1.00868 0
M  V30 139 C 15.2479 -0.977579 -1.30182 0
M  V30 140 O 16.4369 -1.25421 -1.27011 0
M  V30 141 C 13.5369 -2.45016 -2.34137 0
M  V30 142 C 12.7099 -3.75903 -2.23643 0
M  V30 143 C 11.7689 -4.01884 -3.3967 0
M  V30 144 O 10.7949 -4.72433 -3.17483 0
M  V30 145 N 11.9969 -3.50432 -4.62793 0
M  V30 146 H 14.7619 -2.93684 -0.597458 0
M  V30 147 H 12.3229 -1.60909 -0.178852 0
M  V30 148 H 14.3149 -2.59506 -3.10546 0
M  V30 149 H 12.8849 -1.62618 -2.66972 0
M  V30 150 H 12.1049 -3.7141 -1.32091 0
M  V30 151 H 13.3929 -4.61695 -2.13812 0
M  V30 152 H 12.7909 -2.93317 -4.83716 0
M  V30 153 H 11.3479 -3.70236 -5.3644 0
M  V30 154 N 14.781 0.264519 -1.55364 0
M  V30 155 C 16.009 1.013 -1.80405 0
M  V30 156 C 16.424 1.79618 -0.581622 0
M  V30 157 O 15.781 1.76879 0.449468 0
M  V30 158 C 15.832 1.96487 -3.03439 0
M  V30 159 O 15.553 1.21341 -4.20961 0
M  V30 160 C 17.054 2.83079 -3.41147 0
M  V30 161 H 14.274 0.298875 -0.600762 0
M  V30 162 H 16.818 0.292736 -2.02394 0
M  V30 163 H 14.973 2.63965 -2.83551 0
M  V30 164 H 15.387 1.85573 -4.90574 0
M  V30 165 H 16.861 3.4565 -4.30384 0
M  V30 166 H 17.338 3.53286 -2.60932 0
M  V30 167 H 17.944 2.2108 -3.63323 0
M  V30 168 N 16.2591 1.48442 0.529413 0
M  V30 169 C 17.4991 1.58086 1.29569 0
M  V30 170 C 17.8631 0.249302 1.90375 0
M  V30 171 O 19.0641 0.220738 2.67892 0
M  V30 172 C 17.3351 2.68793 2.35552 0
M  V30 173 S 18.8941 2.98207 3.21898 0
M  V30 174 H 15.7121 0.557922 0.440732 0
M  V30 175 H 18.3141 1.85966 0.603059 0
M  V30 176 H 17.0181 3.64102 1.89363 0
M  V30 177 H 16.5491 2.42817 3.09522 0
M  V30 178 H 18.5641 2.37548 4.35644 0
M  V30 179 N 17.7372 -0.778329 1.37039 0
M  V30 180 C 18.9852 -1.53361 1.31623 0
M  V30 181 C 19.3062 -1.94739 -0.100831 0
M  V30 182 O 18.5762 -1.65797 -1.04347 0
M  V30 183 H 17.1562 -0.568794 0.484234 0
M  V30 184 H 19.8182 -0.926742 1.71457 0
M  V30 185 H 18.9142 -2.43606 1.95096 0
M  V30 186 N 19.2153 -1.21501 -1.00376 0
M  V30 187 C 20.1783 -0.976927 -2.07337 0
M  V30 188 C 21.1783 0.0525322 -1.60714 0
M  V30 189 O 22.3683 -0.184869 -1.73216 0
M  V30 190 C 19.5003 -0.473423 -3.37597 0
M  V30 191 H 20.6933 -1.92587 -2.29892 0
M  V30 192 H 18.2463 -1.03217 -1.17371 0
M  V30 193 H 18.9813 0.480379 -3.20722 0
M  V30 194 H 18.7663 -1.216 -3.72768 0
M  V30 195 H 20.2563 -0.32675 -4.1632 0
M  V30 196 N 20.6934 1.19889 -1.02296 0
M  V30 197 C 21.9394 1.89973 -0.726759 0
M  V30 198 C 22.2944 1.7776 0.73614 0
M  V30 199 O 21.5874 1.15523 1.52856 0
M  V30 200 C 21.7814 3.39883 -1.10518 0
M  V30 201 C 21.6104 3.66684 -2.60332 0
M  V30 202 C 20.3804 3.85045 -3.27213 0
M  V30 203 C 22.5784 3.68727 -3.58532 0
M  V30 204 N 20.5604 3.99422 -4.66192 0
M  V30 205 C 21.9314 3.88604 -4.83101 0
M  V30 206 C 23.9864 3.51722 -3.52414 0
M  V30 207 C 22.6894 3.9324 -6.02292 0
M  V30 208 C 24.7154 3.57632 -4.71013 0
M  V30 209 C 24.0774 3.77988 -5.94394 0
M  V30 210 H 20.1764 0.714551 -0.317712 0
M  V30 211 H 22.7604 1.44123 -1.30907 0
M  V30 212 H 20.9314 3.8447 -0.551142 0
M  V30 213 H 22.6634 3.97464 -0.761853 0
M  V30 214 H 19.4184 3.83689 -2.77632 0
M  V30 215 H 19.8424 4.10473 -5.38368 0
M  V30 216 H 24.4844 3.34945 -2.58015 0
M  V30 217 H 22.2024 4.08811 -6.97065 0
M  V30 218 H 25.7884 3.45773 -4.67902 0
M  V30 219 H 24.6684 3.82428 -6.8463 0
M  V30 220 N 22.1715 0.800033 1.35784 0
M  V30 221 C 23.0815 0.207204 2.33683 0
M  V30 222 C 24.0975 -0.64631 1.61551 0
M  V30 223 O 25.2735 -0.559604 1.93469 0
M  V30 224 C 22.3385 -0.639659 3.40748 0
M  V30 225 C 21.3995 0.233585 4.28664 0
M  V30 226 C 20.6325 -0.572954 5.30616 0
M  V30 227 O 20.8555 -1.80816 5.40982 0
M  V30 228 O 19.7895 0.0327285 6.01891 0
M  V30 229 H 23.6155 1.01692 2.86169 0
M  V30 230 H 21.2005 0.561691 1.38439 0
M  V30 231 H 23.0825 -1.12223 4.06182 0
M  V30 232 H 21.7575 -1.42708 2.90544 0
M  V30 233 H 20.6645 0.763147 3.66233 0
M  V30 234 H 21.9975 0.984784 4.82248 0
M  V30 235 N 23.6496 -1.47581 0.552962 0
M  V30 236 C 24.5826 -2.26883 -0.244857 0
M  V30 237 C 25.5606 -1.33784 -0.924147 0
M  V30 238 O 26.7446 -1.6316 -0.943981 0
M  V30 239 C 23.8716 -3.10695 -1.34856 0
M  V30 240 C 22.9176 -4.19339 -0.778268 0
M  V30 241 S 23.7506 -5.34207 0.37184 0
M  V30 242 C 24.9066 -6.21584 -0.733779 0
M  V30 243 H 25.1396 -2.94202 0.428087 0
M  V30 244 H 22.6726 -1.50628 0.339197 0
M  V30 245 H 24.6306 -3.59555 -1.98066 0
M  V30 246 H 23.2916 -2.42746 -1.99332 0
M  V30 247 H 22.4846 -4.77695 -1.60696 0
M  V30 248 H 22.0866 -3.73338 -0.222422 0
M  V30 249 H 24.3786 -6.57676 -1.62692 0
M  V30 250 H 25.3216 -7.07851 -0.187668 0
M  V30 251 H 25.7296 -5.55125 -1.02454 0
M  V30 252 N 25.1277 -0.289203 -1.54924 0
M  V30 253 C 26.0747 0.592115 -2.23075 0
M  V30 254 C 27.0447 1.13881 -1.20915 0
M  V30 255 O 28.2297 1.18551 -1.495 0
M  V30 256 C 25.3697 1.76376 -2.96623 0
M  V30 257 C 24.4827 1.24959 -4.13533 0
M  V30 258 C 23.6177 2.38416 -4.74691 0
M  V30 259 C 22.6567 1.84072 -5.83767 0
M  V30 260 N 21.7937 2.91057 -6.38929 0
M  V30 261 H 26.6337 0.00432038 -2.98 0
M  V30 262 H 24.1707 -0.00963529 -1.47097 0
M  V30 263 H 26.1287 2.45268 -3.3749 0
M  V30 264 H 24.7587 2.32337 -2.24097 0
M  V30 265 H 23.8107 0.453307 -3.77689 0
M  V30 266 H 25.1227 0.811662 -4.92152 0
M  V30 267 H 24.2767 3.15276 -5.18349 0
M  V30 268 H 23.0157 2.8553 -3.95378 0
M  V30 269 H 22.0207 1.05697 -5.39545 0
M  V30 270 H 23.2457 1.37877 -6.64956 0
M  V30 271 H 21.1917 3.37526 -5.62505 0
M  V30 272 H 21.1087 2.51724 -7.12861 0
M  V30 273 H 22.3767 3.6785 -6.87246 0
M  V30 274 N 26.6058 1.57591 -0.0167156 0
M  V30 275 C 27.5158 2.1291 0.98521 0
M  V30 276 C 28.5318 1.07834 1.36557 0
M  V30 277 O 29.7078 1.39826 1.44951 0
M  V30 278 C 26.7728 2.63512 2.25305 0
M  V30 279 C 25.8338 3.83256 1.93426 0
M  V30 280 C 25.0668 4.31435 3.14165 0
M  V30 281 O 25.2898 3.78851 4.26413 0
M  V30 282 O 24.2238 5.23416 2.97186 0
M  V30 283 H 28.0498 2.98772 0.544888 0
M  V30 284 H 25.6348 1.48012 0.203141 0
M  V30 285 H 27.5168 2.96183 2.99756 0
M  V30 286 H 26.1918 1.8074 2.68542 0
M  V30 287 H 25.0988 3.55531 1.16398 0
M  V30 288 H 26.4318 4.67153 1.55013 0
M  V30 289 N 28.0839 -0.256276 1.55502 0
M  V30 290 C 29.4999 -0.604325 1.47716 0
M  V30 291 C 29.6999 -1.88763 0.705039 0
M  V30 292 O 28.7559 -2.51445 0.230613 0
M  V30 293 C 30.0689 -0.715756 2.92057 0
M  V30 294 C 31.6169 -0.808706 3.02372 0
M  V30 295 C 32.0919 -0.951777 4.48001 0
M  V30 296 N 33.5829 -1.01688 4.519 0
M  V30 297 C 34.3179 -1.14668 5.61817 0
M  V30 298 N 33.8139 -1.24261 6.81565 0
M  V30 299 N 35.6069 -1.1791 5.49594 0
M  V30 300 H 27.7579 0.586291 2.04148 0
M  V30 301 H 30.0209 0.201015 0.926443 0
M  V30 302 H 29.7269 0.157027 3.51349 0
M  V30 303 H 29.6009 -1.59071 3.42018 0
M  V30 304 H 31.9879 -1.67195 2.43166 0
M  V30 305 H 32.0689 0.0912063 2.55637 0
M  V30 306 H 31.7129 -0.0931291 5.07815 0
M  V30 307 H 31.6429 -1.86659 4.92408 0
M  V30 308 H 34.1339 -0.954468 3.65648 0
M  V30 309 H 34.4469 -1.34046 7.61086 0
M  V30 310 H 32.7919 -1.21236 6.84344 0
M  V30 311 H 35.9829 -1.10057 4.54978 0
M  V30 312 H 36.1559 -1.27681 6.35296 0
M  V30 313 N 29.562 -1.4872 -0.521534 0
M  V30 314 C 30.492 -1.66771 -1.63431 0
M  V30 315 C 31.473 -0.516499 -1.62069 0
M  V30 316 O 32.658 -0.750013 -1.79132 0
M  V30 317 C 29.788 -1.71515 -3.01993 0
M  V30 318 C 28.742 -2.86222 -3.18216 0
M  V30 319 C 28.068 -2.76061 -4.57924 0
M  V30 320 C 29.368 -4.27419 -3.00184 0
M  V30 321 H 31.062 -2.59932 -1.48579 0
M  V30 322 H 28.608 -1.25089 -0.713358 0
M  V30 323 H 30.561 -1.82731 -3.7972 0
M  V30 324 H 29.285 -0.749393 -3.17886 0
M  V30 325 H 27.944 -2.74575 -2.42908 0
M  V30 326 H 27.592 -1.77437 -4.70665 0
M  V30 327 H 27.292 -3.53037 -4.69722 0
M  V30 328 H 28.816 -2.89256 -5.37739 0
M  V30 329 H 30.23 -4.39855 -3.67697 0
M  V30 330 H 28.627 -5.05458 -3.2347 0
M  V30 331 H 29.697 -4.43293 -1.96518 0
M  V30 332 N 31.0401 0.771051 -1.3745 0
M  V30 333 C 32.2881 1.52661 -1.32435 0
M  V30 334 C 32.6091 1.9479 0.0905024 0
M  V30 335 O 31.8791 1.66348 1.03466 0
M  V30 336 H 30.4591 0.566218 -0.487244 0
M  V30 337 H 33.1211 0.917636 -1.71946 0
M  V30 338 H 32.2171 2.42568 -1.96385 0
M  V30 339 N 32.5182 1.22032 0.997298 0
M  V30 340 C 33.7462 1.06841 1.7718 0
M  V30 341 C 34.1612 -0.381325 1.84909 0
M  V30 342 O 33.5182 -1.26437 1.31605 0
M  V30 343 C 33.5692 1.66814 3.20711 0
M  V30 344 O 33.2902 3.06116 3.13408 0
M  V30 345 C 34.7912 1.56838 4.14628 0
M  V30 346 H 32.0112 0.374782 0.556578 0
M  V30 347 H 34.5552 1.61532 1.2541 0
M  V30 348 H 32.7102 1.16196 3.69564 0
M  V30 349 H 33.1242 3.34926 4.0364 0
M  V30 350 H 34.5982 2.03532 5.13107 0
M  V30 351 H 35.0752 0.524155 4.36061 0
M  V30 352 H 35.6812 2.06741 3.7167 0
M  V30 353 N 33.9963 -1.19345 1.0293 0
M  V30 354 C 35.2443 -1.88665 0.724574 0
M  V30 355 C 35.5653 -1.80036 -0.749144 0
M  V30 356 O 34.8353 -1.2111 -1.53978 0
M  V30 357 H 33.4153 -0.698406 0.265025 0
M  V30 358 H 36.0773 -1.44885 1.30362 0
M  V30 359 H 35.1733 -2.94987 1.01926 0
M  V30 360 N 35.4744 -0.807222 -1.35358 0
M  V30 361 C 36.7224 -0.387122 -1.98358 0
M  V30 362 C 37.0434 1.04942 -1.64354 0
M  V30 363 O 36.3134 1.72615 -0.926339 0
M  V30 364 H 34.8934 -0.140154 -0.733734 0
M  V30 365 H 37.5554 -1.0332 -1.6526 0
M  V30 366 H 36.6514 -0.493352 -3.08176 0
M  V30 367 N 36.9525 1.47285 -0.560781 0
M  V30 368 C 38.1995 2.02464 -0.038062 0
M  V30 369 C 38.5275 1.43474 1.31322 0
M  V30 370 O 37.7825 0.581311 1.86867 0
M  V30 371 C 38.0815 3.57258 0.100784 0
M  V30 372 C 37.7475 4.35184 -1.18007 0
M  V30 373 C 36.4095 4.56194 -1.53103 0
M  V30 374 C 38.7615 4.80098 -2.02867 0
M  V30 375 C 36.0895 5.19367 -2.729 0
M  V30 376 C 38.4415 5.44593 -3.21871 0
M  V30 377 C 37.1055 5.63835 -3.57276 0
M  V30 378 H 36.3755 0.740869 -0.0139279 0
M  V30 379 H 39.0225 1.76916 -0.733012 0
M  V30 380 H 37.3275 3.81819 0.878724 0
M  V30 381 H 39.0245 3.97606 0.520639 0
M  V30 382 H 35.6145 4.19113 -0.8968 0
M  V30 383 H 39.7985 4.63642 -1.7706 0
M  V30 384 H 35.0545 5.32459 -3.00496 0
M  V30 385 H 39.2285 5.78358 -3.87911 0
M  V30 386 H 36.8555 6.12557 -4.50197 0
M  V30 387 N 38.4306 0.297415 1.54768 0
M  V30 388 C 39.6786 -0.312295 1.99673 0
M  V30 389 C 39.9996 -1.54686 1.18732 0
M  V30 390 O 39.2696 -1.93854 0.282382 0
M  V30 391 H 37.8496 -0.118381 0.73756 0
M  V30 392 H 40.5116 0.407915 1.90583 0
M  V30 393 H 39.6076 -0.586813 3.06534 0
M  V30 394 N 39.9087 -1.5758 0.0250728 0
M  V30 395 C 40.8567 -2.11125 -0.97617 0
M  V30 396 C 41.8507 -1.03689 -1.33959 0
M  V30 397 O 43.0567 -1.22128 -1.3223 0
M  V30 398 H 39.4317 -0.674468 -0.332561 0
M  V30 399 H 41.4027 -2.94194 -0.499223 0
M  V30 400 C 40.1517 -2.65017 -2.2508 0
M  V30 401 H 39.4747 -3.47333 -1.9799 0
M  V30 402 H 40.9147 -3.06133 -2.93357 0
M  V30 403 C 39.3737 -1.57574 -2.97779 0
M  V30 404 O 39.9037 -0.973203 -3.89733 0
M  V30 405 N 38.1097 -1.29716 -2.60043 0
M  V30 406 H 37.6567 -1.789 -1.85345 0
M  V30 407 H 37.6147 -0.58051 -3.08994 0
M  V30 408 N 41.3868 0.248026 -1.55636 0
M  V30 409 C 42.6328 0.97767 -1.77678 0
M  V30 410 C 42.9658 1.85016 -0.590135 0
M  V30 411 O 42.2408 1.90095 0.411611 0
M  V30 412 C 42.5238 1.83914 -3.09593 0
M  V30 413 C 42.3768 0.99491 -4.38659 0
M  V30 414 C 43.6958 2.82183 -3.37729 0
M  V30 415 H 40.8148 0.354005 -0.646413 0
M  V30 416 H 43.4568 0.248253 -1.88371 0
M  V30 417 H 41.6068 2.46104 -3.00608 0
M  V30 418 H 43.2788 0.391789 -4.59633 0
M  V30 419 H 41.5218 0.299231 -4.32767 0
M  V30 420 H 42.1928 1.63145 -5.2734 0
M  V30 421 H 44.6688 2.30129 -3.4667 0
M  V30 422 H 43.5448 3.39582 -4.31249 0
M  V30 423 H 43.8058 3.58588 -2.58586 0
M  V30 424 N 42.8649 1.48995 0.513639 0
M  V30 425 C 44.1139 1.57093 1.2651 0
M  V30 426 C 44.4269 0.257091 1.93903 0
M  V30 427 O 45.6329 0.216478 2.70636 0
M  V30 428 C 44.0889 2.77118 2.29638 0
M  V30 429 C 43.6969 4.15209 1.68241 0
M  V30 430 C 45.4409 2.94538 3.05692 0
M  V30 431 C 43.3479 5.26474 2.69406 0
M  V30 432 H 42.2779 0.584876 0.475854 0
M  V30 433 H 44.9289 1.7536 0.540487 0
M  V30 434 H 43.3109 2.52319 3.05207 0
M  V30 435 H 44.4849 4.50094 0.987505 0
M  V30 436 H 42.7999 4.03042 1.04623 0
M  V30 437 H 45.3969 3.74832 3.8132 0
M  V30 438 H 45.7399 2.04614 3.62545 0
M  V30 439 H 46.2729 3.19316 2.37238 0
M  V30 440 H 43.0119 6.18417 2.17351 0
M  V30 441 H 42.5319 4.96058 3.37175 0
M  V30 442 H 44.2109 5.55277 3.32078 0
M  V30 443 N 44.343 -0.763751 1.37857 0
M  V30 444 C 45.759 -1.06542 1.18832 0
M  V30 445 C 45.959 -2.01478 0.0299722 0
M  V30 446 O 45.015 -2.4458 -0.627447 0
M  V30 447 C 46.328 -1.65525 2.51042 0
M  V30 448 C 47.876 -1.77745 2.57635 0
M  V30 449 C 48.351 -2.4014 3.89996 0
M  V30 450 N 49.842 -2.47582 3.91481 0
M  V30 451 C 50.577 -2.96732 4.9065 0
M  V30 452 N 50.073 -3.45993 6.00217 0
M  V30 453 N 51.866 -2.95679 4.78048 0
M  V30 454 H 44.017 -0.133556 2.1198 0
M  V30 455 H 46.28 -0.121879 0.940133 0
M  V30 456 H 45.986 -1.03236 3.36207 0
M  V30 457 H 45.86 -2.64719 2.68707 0
M  V30 458 H 48.247 -2.39164 1.72872 0
M  V30 459 H 48.328 -0.772836 2.43846 0
M  V30 460 H 47.972 -1.79358 4.75177 0
M  V30 461 H 47.902 -3.41223 4.01092 0
M  V30 462 H 50.393 -2.1273 3.12337 0
M  V30 463 H 50.706 -3.81922 6.7183 0
M  V30 464 H 49.051 -3.44077 6.03851 0
M  V30 465 H 52.242 -2.56499 3.91568 0
M  V30 466 H 52.415 -3.33672 5.55488 0
M  V30 467 N 45.8211 -1.22559 -0.990812 0
M  V30 468 C 47.0671 -1.06303 -1.73411 0
M  V30 469 C 47.4221 0.397442 -1.8825 0
M  V30 470 O 46.7151 1.29062 -1.41611 0
M  V30 471 C 46.9091 -1.71011 -3.13831 0
M  V30 472 C 46.7381 -3.232 -3.12685 0
M  V30 473 C 45.5081 -3.92314 -3.18461 0
M  V30 474 C 47.7061 -4.20107 -2.96673 0
M  V30 475 N 45.6881 -5.31571 -3.07091 0
M  V30 476 C 47.0591 -5.46208 -2.93354 0
M  V30 477 C 49.1141 -4.10973 -2.8108 0
M  V30 478 C 47.8171 -6.64225 -2.76039 0
M  V30 479 C 49.8431 -5.28642 -2.65126 0
M  V30 480 C 49.2051 -6.53663 -2.62496 0
M  V30 481 H 45.3041 -0.443441 -0.644115 0
M  V30 482 H 47.8881 -1.55131 -1.17654 0
M  V30 483 H 46.0591 -1.2473 -3.67827 0
M  V30 484 H 47.7911 -1.47828 -3.76735 0
M  V30 485 H 44.5461 -3.43326 -3.26227 0
M  V30 486 H 44.9701 -6.0455 -3.0471 0
M  V30 487 H 49.6121 -3.15098 -2.8191 0
M  V30 488 H 47.3301 -7.60246 -2.73954 0
M  V30 489 H 50.9161 -5.23407 -2.54039 0
M  V30 490 H 49.7961 -7.43182 -2.50302 0
M  V30 491 N 47.2992 1.18797 -1.03562 0
M  V30 492 C 48.2492 2.20161 -0.592724 0
M  V30 493 C 49.2332 1.56772 0.362133 0
M  V30 494 O 50.4252 1.76062 0.182009 0
M  V30 495 C 47.5542 3.43266 0.0481024 0
M  V30 496 C 46.6402 4.13786 -0.9296 0
M  V30 497 N 47.0312 4.60388 -2.09467 0
M  V30 498 C 45.3292 4.39572 -0.754499 0
M  V30 499 C 46.0302 5.14619 -2.71187 0
M  V30 500 N 45.0062 5.05826 -1.991 0
M  V30 501 H 48.8082 2.53877 -1.48066 0
M  V30 502 H 46.3222 1.34946 -0.903514 0
M  V30 503 H 48.3192 4.15136 0.383058 0
M  V30 504 H 46.9792 3.11048 0.931636 0
M  V30 505 H 47.9902 4.54999 -2.47379 0
M  V30 506 H 44.6672 4.17425 0.0793713 0
M  V30 507 H 46.0572 5.60917 -3.69895 0
M  V30 508 N 48.7773 0.814389 1.34928 0
M  V30 509 C 49.7253 0.218424 2.31572 0
M  V30 510 C 50.7193 -0.636128 1.57002 0
M  V30 511 O 51.9253 -0.52842 1.72069 0
M  V30 512 H 48.3003 0.0518799 0.750208 0
M  V30 513 H 50.2713 1.04852 2.79372 0
M  V30 514 C 49.0203 -0.61207 3.4227 0
M  V30 515 H 48.3433 0.0361578 3.99784 0
M  V30 516 H 49.7833 -0.995317 4.12152 0
M  V30 517 C 48.2423 -1.78087 2.85984 0
M  V30 518 O 48.7723 -2.8787 2.80168 0
M  V30 519 N 46.9783 -1.59488 2.42924 0
M  V30 520 H 46.5253 -0.701874 2.47854 0
M  V30 521 H 46.4833 -2.37846 2.05613 0
M  V30 522 N 50.2554 -1.46986 0.568584 0
M  V30 523 C 51.1874 -2.28233 -0.210337 0
M  V30 524 C 52.2004 -1.37682 -0.868767 0
M  V30 525 O 53.3894 -1.62406 -0.740705 0
M  V30 526 C 50.4894 -3.12293 -1.3163 0
M  V30 527 C 49.6624 -4.30878 -0.7525 0
M  V30 528 C 48.7214 -4.96445 -1.74439 0
M  V30 529 O 47.7474 -5.54482 -1.286 0
M  V30 530 N 48.9494 -4.92171 -3.07812 0
M  V30 531 H 51.7144 -2.95723 0.486648 0
M  V30 532 H 49.2754 -1.56742 0.405409 0
M  V30 533 H 51.2674 -3.53022 -1.97883 0
M  V30 534 H 49.8374 -2.46971 -1.91636 0
M  V30 535 H 49.0574 -3.94104 0.0871128 0
M  V30 536 H 50.3454 -5.07558 -0.35536 0
M  V30 537 H 49.7434 -4.46239 -3.47688 0
M  V30 538 H 48.3004 -5.36884 -3.69592 0
M  V30 539 N 51.7335 -0.305618 -1.54608 0
M  V30 540 C 52.6435 0.57778 -2.27374 0
M  V30 541 C 53.6595 1.14451 -1.31061 0
M  V30 542 O 54.8355 1.16831 -1.6405 0
M  V30 543 C 51.9005 1.73123 -3.00382 0
M  V30 544 C 50.9615 1.19812 -4.12242 0
M  V30 545 C 50.1945 2.2966 -4.81759 0
M  V30 546 O 50.4175 3.49651 -4.50666 0
M  V30 547 O 49.3515 1.96091 -5.69062 0
M  V30 548 H 53.1775 -0.012624 -3.03697 0
M  V30 549 H 50.7625 -0.0719184 -1.49227 0
M  V30 550 H 52.6445 2.40315 -3.4616 0
M  V30 551 H 51.3195 2.30815 -2.26949 0
M  V30 552 H 50.2265 0.491798 -3.70853 0
M  V30 553 H 51.5595 0.666566 -4.87666 0
M  V30 554 N 53.2116 1.57565 -0.0334293 0
M  V30 555 C 54.4396 1.9628 0.654347 0
M  V30 556 C 54.8546 0.910138 1.65414 0
M  V30 557 O 54.2116 -0.107595 1.82183 0
M  V30 558 C 54.2626 3.35067 1.35693 0
M  V30 559 O 53.9836 4.36296 0.397191 0
M  V30 560 C 55.4846 3.88439 2.13613 0
M  V30 561 H 52.7046 0.646369 0.180132 0
M  V30 562 H 55.2486 2.04282 -0.0944721 0
M  V30 563 H 53.4036 3.2827 2.05712 0
M  V30 564 H 53.8176 5.1678 0.896597 0
M  V30 565 H 55.2916 4.8788 2.58219 0
M  V30 566 H 55.7686 3.22914 2.97696 0
M  V30 567 H 56.3746 3.98516 1.48543 0
M  V30 568 N 54.6897 -0.239769 1.55765 0
M  V30 569 C 55.9377 -0.964892 1.77579 0
M  V30 570 C 56.2587 -1.85582 0.598699 0
M  V30 571 O 55.5287 -1.92075 -0.385226 0
M  V30 572 H 54.1087 -0.359265 0.654933 0
M  V30 573 H 56.7707 -0.256001 1.93211 0
M  V30 574 H 55.8667 -1.58243 2.69009 0
M  V30 575 N 56.1678 -1.49265 -0.50573 0
M  V30 576 C 57.0778 -1.68312 -1.63427 0
M  V30 577 C 58.0938 -0.565682 -1.64548 0
M  V30 578 O 59.2698 -0.839801 -1.83055 0
M  V30 579 C 56.3348 -1.74107 -2.99813 0
M  V30 580 C 55.3958 -2.97653 -3.09356 0
M  V30 581 C 54.6288 -3.03163 -4.39236 0
M  V30 582 O 54.8518 -2.16396 -5.27758 0
M  V30 583 O 53.7858 -3.9558 -4.53652 0
M  V30 584 H 57.6118 -2.63907 -1.50289 0
M  V30 585 H 55.1968 -1.32951 -0.681502 0
M  V30 586 H 57.0788 -1.803 -3.80881 0
M  V30 587 H 55.7538 -0.816901 -3.13223 0
M  V30 588 H 54.6608 -2.96981 -2.27493 0
M  V30 589 H 55.9938 -3.89535 -3.00871 0
M  V30 590 N 57.6459 0.756429 -1.3826 0
M  V30 591 C 58.5779 1.87971 -1.31147 0
M  V30 592 C 59.5909 1.61248 -0.224239 0
M  V30 593 O 60.7799 1.71881 -0.481581 0
M  V30 594 C 57.8799 3.23545 -1.00857 0
M  V30 595 C 57.0529 3.77794 -2.20432 0
M  V30 596 C 56.1119 4.91877 -1.86931 0
M  V30 597 O 55.1379 5.06659 -2.59395 0
M  V30 598 N 56.3399 5.74643 -0.822568 0
M  V30 599 H 59.1049 1.94585 -2.2794 0
M  V30 600 H 56.6659 0.936234 -1.32084 0
M  V30 601 H 58.6579 3.97403 -0.765021 0
M  V30 602 H 57.2279 3.12335 -0.128687 0
M  V30 603 H 56.4479 2.95534 -2.6087 0
M  V30 604 H 57.7359 4.10771 -3.00241 0
M  V30 605 H 57.1339 5.65266 -0.221575 0
M  V30 606 H 55.6909 6.48661 -0.638899 0
M  V30 607 N 59.124 1.23083 0.984299 0
M  V30 608 C 60.373 1.05466 1.71929 0
M  V30 609 C 60.686 -0.409211 1.91272 0
M  V30 610 O 61.892 -0.705226 2.62181 0
M  V30 611 C 60.348 1.83874 3.09384 0
M  V30 612 C 59.956 3.34566 2.97943 0
M  V30 613 C 61.7 1.74734 3.8687 0
M  V30 614 C 59.607 4.05381 4.30605 0
M  V30 615 H 58.537 0.391039 0.644674 0
M  V30 616 H 61.188 1.47013 1.09815 0
M  V30 617 H 59.57 1.35131 3.72231 0
M  V30 618 H 60.744 3.90767 2.44209 0
M  V30 619 H 59.059 3.44476 2.33934 0
M  V30 620 H 61.656 2.24957 4.85076 0
M  V30 621 H 61.999 0.709372 4.10212 0
M  V30 622 H 62.532 2.21067 3.30717 0
M  V30 623 H 59.271 5.09467 4.1246 0
M  V30 624 H 58.791 3.53967 4.84218 0
M  V30 625 H 60.47 4.11458 4.99311 0
M  V30 626 N 60.6021 -1.18246 1.0419 0
M  V30 627 C 61.5651 -2.20128 0.638452 0
M  V30 628 C 62.5651 -1.57885 -0.304805 0
M  V30 629 O 63.7551 -1.73967 -0.0900369 0
M  V30 630 C 60.8871 -3.4084 -0.0637751 0
M  V30 631 H 62.0801 -2.57336 1.54007 0
M  V30 632 H 59.6331 -1.32152 0.834598 0
M  V30 633 H 60.3681 -3.09166 -0.979136 0
M  V30 634 H 60.1531 -3.8726 0.614198 0
M  V30 635 H 61.6431 -4.16274 -0.332512 0
M  V30 636 N 62.0802 -0.821533 -1.34494 0
M  V30 637 C 63.3292 -0.405355 -1.97585 0
M  V30 638 C 63.6422 1.03677 -1.65863 0
M  V30 639 O 64.8482 1.55679 -2.22433 0
M  V30 640 C 63.3042 -0.673861 -3.53535 0
M  V30 641 C 62.9122 -2.12951 -3.94152 0
M  V30 642 C 64.6562 -0.32378 -4.23263 0
M  V30 643 C 62.5632 -2.34298 -5.43009 0
M  V30 644 H 61.4932 -0.147836 -0.739365 0
M  V30 645 H 64.1442 -1.00769 -1.53355 0
M  V30 646 H 62.5262 -0.00137554 -3.96 0
M  V30 647 H 63.7002 -2.84104 -3.62797 0
M  V30 648 H 62.0152 -2.44089 -3.37356 0
M  V30 649 H 64.6122 -0.461126 -5.32708 0
M  V30 650 H 64.9552 0.731586 -4.09821 0
M  V30 651 H 65.4882 -0.950786 -3.8627 0
M  V30 652 H 62.2272 -3.38335 -5.61435 0
M  V30 653 H 61.7472 -1.67687 -5.75883 0
M  V30 654 H 63.4262 -2.16588 -6.09671 0
M  V30 655 N 63.5583 1.46682 -0.576371 0
M  V30 656 C 64.5053 2.30241 0.160499 0
M  V30 657 C 65.4753 1.40233 0.890162 0
M  V30 658 O 66.6603 1.69186 0.882084 0
M  V30 659 C 63.8003 3.24578 1.1723 0
M  V30 660 C 62.9133 4.29684 0.446736 0
M  V30 661 C 62.0483 5.11154 1.44551 0
M  V30 662 C 61.0873 6.08015 0.70599 0
M  V30 663 N 60.2243 6.82376 1.65251 0
M  V30 664 H 65.0643 2.92727 -0.558127 0
M  V30 665 H 62.6013 1.44272 -0.287056 0
M  V30 666 H 64.5593 3.77711 1.77172 0
M  V30 667 H 63.1893 2.63916 1.85872 0
M  V30 668 H 62.2413 3.79458 -0.267594 0
M  V30 669 H 63.5533 4.98626 -0.131686 0
M  V30 670 H 62.7073 5.68533 2.11791 0
M  V30 671 H 61.4463 4.42158 2.05786 0
M  V30 672 H 60.4513 5.49796 0.0197725 0
M  V30 673 H 61.6763 6.79028 0.09912 0
M  V30 674 H 59.6223 6.16094 2.25308 0
M  V30 675 H 59.5393 7.47556 1.12673 0
M  V30 676 H 60.8073 7.44316 2.31546 0
M  V30 677 N 65.0364 0.313813 1.54444 0
M  V30 678 C 65.9684 -0.590425 2.21465 0
M  V30 679 C 66.9814 -1.08753 1.21147 0
M  V30 680 O 68.1704 -1.00278 1.4767 0
M  V30 681 C 65.2704 -1.82179 2.85769 0
M  V30 682 C 64.4434 -1.46502 4.12136 0
M  V30 683 C 63.5024 -2.55288 4.60124 0
M  V30 684 O 62.5284 -2.19842 5.25032 0
M  V30 685 N 63.7304 -3.86053 4.33525 0
M  V30 686 H 66.4954 -0.0166033 2.99695 0
M  V30 687 H 64.0564 0.136578 1.61323 0
M  V30 688 H 66.0484 -2.54328 3.14801 0
M  V30 689 H 64.6184 -2.30369 2.11303 0
M  V30 690 H 63.8384 -0.575595 3.89975 0
M  V30 691 H 65.1264 -1.20221 4.94393 0
M  V30 692 H 64.5244 -4.17654 3.81552 0
M  V30 693 H 63.0814 -4.54461 4.67235 0
M  V30 694 N 66.5145 -1.57545 0.0417849 0
M  V30 695 C 67.7545 -1.94185 -0.63809 0
M  V30 696 C 68.1185 -0.919339 -1.68559 0
M  V30 697 O 69.3195 -1.17236 -2.41886 0
M  V30 698 C 67.5905 -3.35672 -1.22714 0
M  V30 699 S 69.1495 -3.94256 -1.92633 0
M  V30 700 H 65.9675 -0.679353 -0.209764 0
M  V30 701 H 68.5695 -1.95199 0.108479 0
M  V30 702 H 67.2735 -4.07898 -0.452503 0
M  V30 703 H 66.8045 -3.38132 -2.01073 0
M  V30 704 H 68.8195 -3.7872 -3.20602 0
M  V30 705 N 67.9926 0.231505 -1.5589 0
M  V30 706 C 69.4086 0.580748 -1.48659 0
M  V30 707 C 69.6086 1.87617 -0.73498 0
M  V30 708 O 68.6646 2.51046 -0.270586 0
M  V30 709 C 69.9776 0.669202 -2.93159 0
M  V30 710 C 71.5256 0.760499 -3.03621 0
M  V30 711 C 72.0006 0.880383 -4.49459 0
M  V30 712 N 73.4916 0.944861 -4.53461 0
M  V30 713 C 74.2266 1.05716 -5.63571 0
M  V30 714 N 73.7226 1.13403 -6.83456 0
M  V30 715 N 75.5156 1.09152 -5.514 0
M  V30 716 H 67.6666 -0.618695 -2.03189 0
M  V30 717 H 69.9296 -0.215728 -0.923128 0
M  V30 718 H 69.6356 -0.212904 -3.51055 0
M  V30 719 H 69.5096 1.5361 -3.44505 0
M  V30 720 H 71.8966 1.63305 -2.45796 0
M  V30 721 H 71.9776 -0.131864 -2.5546 0
M  V30 722 H 71.6216 0.0123284 -5.07899 0
M  V30 723 H 71.5516 1.78802 -4.95316 0
M  V30 724 H 74.0426 0.896176 -3.6712 0
M  V30 725 H 74.3556 1.21921 -7.63122 0
M  V30 726 H 72.7006 1.10333 -6.86186 0
M  V30 727 H 75.8916 1.02805 -4.56671 0
M  V30 728 H 76.0646 1.17558 -6.37247 0
M  V30 729 N 69.4707 1.49531 0.497807 0
M  V30 730 C 70.4027 1.62559 1.61578 0
M  V30 731 C 71.4157 0.508134 1.54667 0
M  V30 732 O 72.6047 0.780309 1.60541 0
M  V30 733 C 69.7047 1.56925 3.00379 0
M  V30 734 C 68.8777 2.84257 3.3244 0
M  V30 735 C 67.9367 2.71632 4.50669 0
M  V30 736 O 66.9627 3.4557 4.52294 0
M  V30 737 N 68.1647 1.83391 5.5077 0
M  V30 738 H 70.9297 2.58981 1.50828 0
M  V30 739 H 68.4907 1.4666 0.685743 0
M  V30 740 H 70.4827 1.46129 3.77397 0
M  V30 741 H 69.0527 0.683483 3.05037 0
M  V30 742 H 68.2727 3.09381 2.44289 0
M  V30 743 H 69.5607 3.68666 3.5066 0
M  V30 744 H 68.9587 1.22583 5.52259 0
M  V30 745 H 67.5157 1.78515 6.26878 0
M  V30 746 N 70.9488 -0.749086 1.3866 0
M  V30 747 C 71.8588 -1.89358 1.38494 0
M  V30 748 C 72.8748 -1.71708 0.281476 0
M  V30 749 O 74.0508 -1.94554 0.520643 0
M  V30 750 C 71.1158 -3.24782 1.21316 0
M  V30 751 C 70.1768 -3.54926 2.41508 0
M  V30 752 C 69.4098 -4.83888 2.2514 0
M  V30 753 O 69.6328 -5.56592 1.24746 0
M  V30 754 O 68.5668 -5.13612 3.13826 0
M  V30 755 H 72.3928 -1.92452 2.34938 0
M  V30 756 H 69.9778 -0.894981 1.19626 0
M  V30 757 H 71.8598 -4.05739 1.13814 0
M  V30 758 H 70.5348 -3.2249 0.279592 0
M  V30 759 H 69.4418 -2.74112 2.54585 0
M  V30 760 H 70.7748 -3.61983 3.3351 0
M  V30 761 N 72.4269 -1.23603 -0.977757 0
M  V30 762 C 73.3569 -1.04401 -2.0886 0
M  V30 763 C 74.3379 0.0399052 -1.70053 0
M  V30 764 O 75.5229 -0.125246 -1.93796 0
M  V30 765 C 72.6529 -0.637269 -3.41403 0
M  V30 766 C 71.6069 -1.66883 -3.94124 0
M  V30 767 C 70.9329 -1.11745 -5.22893 0
M  V30 768 C 72.2329 -3.06247 -4.23096 0
M  V30 769 H 73.9269 -1.97316 -2.25182 0
M  V30 770 H 71.4729 -0.950096 -1.08209 0
M  V30 771 H 73.4259 -0.48998 -4.18542 0
M  V30 772 H 72.1499 0.327557 -3.24953 0
M  V30 773 H 70.8089 -1.80416 -3.19133 0
M  V30 774 H 70.4569 -0.143527 -5.02795 0
M  V30 775 H 70.1569 -1.80672 -5.59134 0
M  V30 776 H 71.6809 -0.982067 -6.02651 0
M  V30 777 H 73.0949 -2.96001 -4.90975 0
M  V30 778 H 71.4919 -3.72436 -4.70544 0
M  V30 779 H 72.5619 -3.55041 -3.30263 0
M  V30 780 N 73.905 1.17692 -1.04816 0
M  V30 781 C 75.13 1.92327 -0.776207 0
M  V30 782 C 75.555 1.76082 0.661581 0
M  V30 783 O 74.913 1.076 1.45917 0
M  V30 784 C 74.961 3.41539 -1.15687 0
M  V30 785 O 74.065 4.11402 -0.286775 0
M  V30 786 H 73.406 0.599735 -0.284981 0
M  V30 787 H 75.936 1.49201 -1.4 0
M  V30 788 H 75.946 3.92269 -1.12202 0
M  V30 789 H 74.621 3.52684 -2.20425 0
M  V30 790 H 73.198 3.70939 -0.381903 0
M  V30 791 N 75.3831 0.828654 1.34056 0
M  V30 792 C 76.7941 0.477534 1.8049 0
M  V30 793 C 77.1451 -1.00258 1.6865 0
M  V30 794 O 76.2701 -1.78057 1.22982 0
M  V30 795 C 76.8651 0.860018 3.27703 0
M  V30 796 C 75.4241 0.561185 3.72193 0
M  V30 797 C 74.5711 1.07385 2.55663 0
M  V30 798 H 77.5221 1.0183 1.21722 0
M  V30 799 H 77.5431 0.166038 3.80138 0
M  V30 800 H 77.0551 1.93731 3.36288 0
M  V30 801 H 75.1561 -0.506465 3.69142 0
M  V30 802 H 75.2691 1.10926 4.66082 0
M  V30 803 H 73.6331 0.495149 2.49841 0
M  V30 804 H 74.4161 2.15771 2.67016 0
M  V30 805 N 76.8612 -1.46375 0.584142 0
M  V30 806 C 78.2772 -1.57694 0.245929 0
M  V30 807 C 78.4772 -1.57903 -1.25175 0
M  V30 808 O 77.5332 -1.49676 -2.03355 0
M  V30 809 C 78.8462 -2.87028 0.896402 0
M  V30 810 C 80.3942 -3.00662 0.870127 0
M  V30 811 C 80.8692 -4.32734 1.50017 0
M  V30 812 N 82.3602 -4.39436 1.46458 0
M  V30 813 C 83.0952 -5.40248 1.92144 0
M  V30 814 N 82.5912 -6.47726 2.4581 0
M  V30 815 N 84.3842 -5.31459 1.83052 0
M  V30 816 H 76.5352 -1.44483 1.55687 0
M  V30 817 H 78.7982 -0.689291 0.650831 0
M  V30 818 H 78.5042 -2.9269 1.95002 0
M  V30 819 H 78.3782 -3.75014 0.405486 0
M  V30 820 H 80.7652 -2.94581 -0.174871 0
M  V30 821 H 80.8462 -2.14148 1.39908 0
M  V30 822 H 80.4902 -4.39573 2.54437 0
M  V30 823 H 80.4202 -5.18025 0.946432 0
M  V30 824 H 82.9112 -3.62367 1.07231 0
M  V30 825 H 83.2242 -7.20863 2.78525 0
M  V30 826 H 81.5692 -6.48542 2.49836 0
M  V30 827 H 84.7602 -4.46396 1.40883 0
M  V30 828 H 84.9332 -6.09881 2.18973 0
M  V30 829 N 78.3393 -0.321999 -1.54275 0
M  V30 830 C 79.2873 0.560206 -2.25753 0
M  V30 831 C 80.2813 1.11984 -1.27106 0
M  V30 832 O 81.4873 1.06806 -1.44888 0
M  V30 833 H 77.8623 0.199304 -0.725108 0
M  V30 834 H 79.8333 -0.0649365 -2.98329 0
M  V30 835 C 78.5823 1.71023 -3.02731 0
M  V30 836 H 77.9053 1.28885 -3.78456 0
M  V30 837 H 79.3453 2.30314 -3.55993 0
M  V30 838 C 77.8043 2.62692 -2.10938 0
M  V30 839 O 78.3343 3.64364 -1.6912 0
M  V30 840 N 76.5403 2.30891 -1.76459 0
M  V30 841 H 76.0873 1.48253 -2.10663 0
M  V30 842 H 76.0453 2.92487 -1.1532 0
M  V30 843 N 79.8174 1.5752 -0.0501392 0
M  V30 844 C 81.2334 1.56631 0.306402 0
M  V30 845 C 81.4334 1.0577 1.71508 0
M  V30 846 O 80.4894 0.713837 2.422 0
M  V30 847 C 81.8024 3.00393 0.135811 0
M  V30 848 C 83.3504 3.12315 0.206993 0
M  V30 849 C 83.8254 4.57954 0.064944 0
M  V30 850 N 85.3164 4.63041 0.121254 0
M  V30 851 C 86.0514 5.73389 0.0354381 0
M  V30 852 N 85.5474 6.92724 -0.102666 0
M  V30 853 N 87.3404 5.62026 0.090946 0
M  V30 854 H 79.4914 1.88903 -0.971046 0
M  V30 855 H 81.7544 0.869876 -0.376855 0
M  V30 856 H 81.4604 3.41635 -0.835384 0
M  V30 857 H 81.3344 3.66373 0.897275 0
M  V30 858 H 83.7214 2.70973 1.16866 0
M  V30 859 H 83.8024 2.49016 -0.585208 0
M  V30 860 H 83.4464 4.99981 -0.893394 0
M  V30 861 H 83.3764 5.19258 0.876277 0
M  V30 862 H 85.8674 3.77216 0.227284 0
M  V30 863 H 86.1804 7.72633 -0.160882 0
M  V30 864 H 84.5254 6.94864 -0.137737 0
M  V30 865 H 87.7164 4.67684 0.197388 0
M  V30 866 H 87.8894 6.47997 0.0206089 0
M  V30 867 N 81.2955 -0.223234 1.56011 0
M  V30 868 C 82.2055 -1.29766 1.95443 0
M  V30 869 C 83.2215 -1.51373 0.858028 0
M  V30 870 O 84.3975 -1.64536 1.16146 0
M  V30 871 C 81.4625 -2.62772 2.26167 0
M  V30 872 C 80.5235 -2.49482 3.49367 0
M  V30 873 C 79.7565 -3.76145 3.78616 0
M  V30 874 O 79.9795 -4.79087 3.09568 0
M  V30 875 O 78.9135 -3.73358 4.72109 0
M  V30 876 H 82.7395 -0.99309 2.87004 0
M  V30 877 H 80.3245 -0.425958 1.43199 0
M  V30 878 H 82.2065 -3.41327 2.47131 0
M  V30 879 H 80.8815 -2.92913 1.37781 0
M  V30 880 H 79.7885 -1.69133 3.33684 0
M  V30 881 H 81.1215 -2.2428 4.38131 0
M  V30 882 N 82.7736 -1.49793 -0.48987 0
M  V30 883 C 84.1896 -1.36803 -0.822022 0
M  V30 884 C 84.3896 -0.409652 -1.97292 0
M  V30 885 O 83.4456 0.154614 -2.52026 0
M  V30 886 C 84.7586 -2.77768 -1.15175 0
M  V30 887 C 86.3066 -2.86549 -1.25931 0
M  V30 888 C 86.7816 -4.28306 -1.62228 0
M  V30 889 N 88.2726 -4.31169 -1.69256 0
M  V30 890 C 89.0076 -5.37832 -1.98807 0
M  V30 891 N 88.5036 -6.54726 -2.26507 0
M  V30 892 N 90.2966 -5.25258 -2.00152 0
M  V30 893 H 82.4476 -2.10691 0.268881 0
M  V30 894 H 84.7106 -0.946241 0.057728 0
M  V30 895 H 84.4166 -3.49648 -0.379335 0
M  V30 896 H 84.2906 -3.13836 -2.09253 0
M  V30 897 H 86.6776 -2.14899 -2.02243 0
M  V30 898 H 86.7586 -2.54049 -0.298776 0
M  V30 899 H 86.4026 -5.00486 -0.864622 0
M  V30 900 H 86.3326 -4.58279 -2.594 0
M  V30 901 H 88.8236 -3.4687 -1.49965 0
M  V30 902 H 89.1366 -7.31833 -2.48276 0
M  V30 903 H 87.4816 -6.57933 -2.23939 0
M  V30 904 H 90.6726 -4.32938 -1.77996 0
M  V30 905 H 90.8456 -6.08476 -2.22848 0
M  V30 906 N 84.2517 0.741722 -1.39055 0
M  V30 907 C 85.4977 1.50234 -1.37118 0
M  V30 908 C 85.8527 1.92368 0.0350439 0
M  V30 909 O 85.1457 1.63422 1.00019 0
M  V30 910 C 85.3397 2.7592 -2.27163 0
M  V30 911 C 85.1687 2.46074 -3.76401 0
M  V30 912 C 83.9387 2.38704 -4.45364 0
M  V30 913 C 86.1367 2.12062 -4.68545 0
M  V30 914 N 84.1187 2.01258 -5.79973 0
M  V30 915 C 85.4897 1.85005 -5.91754 0
M  V30 916 C 87.5447 1.98473 -4.56632 0
M  V30 917 C 86.2477 1.4573 -7.04383 0
M  V30 918 C 88.2737 1.60599 -5.69176 0
M  V30 919 C 87.6357 1.34423 -6.91455 0
M  V30 920 H 83.7347 0.548858 -0.557027 0
M  V30 921 H 86.3187 0.862642 -1.74547 0
M  V30 922 H 84.4897 3.3768 -1.91904 0
M  V30 923 H 86.2217 3.42068 -2.16267 0
M  V30 924 H 82.9767 2.55574 -3.98721 0
M  V30 925 H 83.4007 1.85147 -6.51191 0
M  V30 926 H 88.0427 2.17381 -3.62637 0
M  V30 927 H 85.7607 1.25562 -7.98286 0
M  V30 928 H 89.3467 1.507 -5.61944 0
M  V30 929 H 88.2267 1.05555 -7.77064 0
M  V30 930 N 85.7298 1.2412 0.971189 0
M  V30 931 C 86.9698 1.09066 1.7287 0
M  V30 932 C 87.3338 -0.364794 1.88503 0
M  V30 933 O 88.5348 -0.636748 2.61149 0
M  V30 934 C 86.8058 1.80629 3.08396 0
M  V30 935 S 88.3648 1.81263 3.99611 0
M  V30 936 H 85.1828 0.390145 0.594397 0
M  V30 937 H 87.7848 1.57397 1.15959 0
M  V30 938 H 86.4888 2.85647 2.94676 0
M  V30 939 H 86.0198 1.32617 3.70373 0
M  V30 940 H 88.0348 0.877804 4.88374 0
M  V30 941 N 87.2079 -1.17134 1.05439 0
M  V30 942 C 88.1379 -2.2342 0.678649 0
M  V30 943 C 89.1189 -1.66971 -0.32476 0
M  V30 944 O 90.3039 -1.93149 -0.201802 0
M  V30 945 C 87.4339 -3.47256 0.0552099 0
M  V30 946 C 86.3879 -4.16543 0.98365 0
M  V30 947 C 85.7139 -5.34231 0.223961 0
M  V30 948 C 87.0139 -4.68495 2.3089 0
M  V30 949 H 88.7079 -2.55105 1.56722 0
M  V30 950 H 86.2539 -1.2262 0.754998 0
M  V30 951 H 88.2069 -4.20828 -0.21946 0
M  V30 952 H 86.9309 -3.14846 -0.868319 0
M  V30 953 H 85.5899 -3.44887 1.24293 0
M  V30 954 H 85.2379 -4.98071 -0.702412 0
M  V30 955 H 84.9379 -5.81527 0.842627 0
M  V30 956 H 86.4619 -6.10585 -0.0433671 0
M  V30 957 H 87.8759 -5.33691 2.09396 0
M  V30 958 H 86.2729 -5.26379 2.88176 0
M  V30 959 H 87.3429 -3.85169 2.94572 0
M  V30 960 N 88.686 -0.835752 -1.33615 0
M  V30 961 C 89.596 -0.269088 -2.33052 0
M  V30 962 C 90.612 0.603251 -1.63208 0
M  V30 963 O 91.788 0.508112 -1.94885 0
M  V30 964 C 88.853 0.549091 -3.42324 0
M  V30 965 C 87.914 -0.347156 -4.27894 0
M  V30 966 C 87.147 0.43207 -5.31948 0
M  V30 967 O 87.37 1.66409 -5.45586 0
M  V30 968 O 86.304 -0.192298 -6.01593 0
M  V30 969 H 90.13 -1.09243 -2.83372 0
M  V30 970 H 87.715 -0.598198 -1.36901 0
M  V30 971 H 89.597 1.01414 -4.09015 0
M  V30 972 H 88.272 1.34955 -2.94226 0
M  V30 973 H 87.179 -0.859979 -3.64081 0
M  V30 974 H 88.512 -1.1123 -4.79467 0
M  V30 975 N 90.1641 1.46063 -0.591896 0
M  V30 976 C 91.4131 2.01547 -0.0786637 0
M  V30 977 C 91.7261 1.46796 1.29268 0
M  V30 978 O 92.9321 1.94157 1.89777 0
M  V30 979 C 91.3881 3.59787 -0.0900024 0
M  V30 980 C 90.9961 4.23534 -1.46023 0
M  V30 981 C 92.7401 4.22895 0.368806 0
M  V30 982 C 90.6471 5.73881 -1.4288 0
M  V30 983 H 89.5771 0.753564 -0.0256388 0
M  V30 984 H 92.2281 1.677 -0.744905 0
M  V30 985 H 90.6101 3.90752 0.642586 0
M  V30 986 H 91.7841 4.04167 -2.21328 0
M  V30 987 H 90.0991 3.72558 -1.85982 0
M  V30 988 H 92.6961 5.33116 0.411258 0
M  V30 989 H 93.0391 3.9247 1.38827 0
M  V30 990 H 93.5721 3.9659 -0.31001 0
M  V30 991 H 90.3111 6.0898 -2.42536 0
M  V30 992 H 89.8311 5.95486 -0.718095 0
M  V30 993 H 91.5101 6.36776 -1.14565 0
M  V30 994 N 91.6422 0.330177 1.54103 0
M  V30 995 C 92.5742 -0.566902 2.22079 0
M  V30 996 C 93.5872 -1.07462 1.22294 0
M  V30 997 O 94.7762 -0.987065 1.48726 0
M  V30 998 C 91.8762 -1.79138 2.87685 0
M  V30 999 C 91.0492 -1.42123 4.13666 0
M  V30 1000 C 90.1082 -2.50394 4.62806 0
M  V30 1001 O 89.1342 -2.14261 5.27334 0
M  V30 1002 N 90.3362 -3.81433 4.37595 0
M  V30 1003 H 93.1012 0.0151844 2.99696 0
M  V30 1004 H 90.6622 0.153681 1.61169 0
M  V30 1005 H 92.6542 -2.50975 3.1748 0
M  V30 1006 H 91.2242 -2.28115 2.13734 0
M  V30 1007 H 90.4442 -0.534201 3.90564 0
M  V30 1008 H 91.7322 -1.14971 4.9564 0
M  V30 1009 H 91.1302 -4.13584 3.8596 0
M  V30 1010 H 89.6872 -4.4948 4.72029 0
M  V30 1011 N 93.1203 -1.57491 0.0584922 0
M  V30 1012 C 94.3693 -1.92155 -0.613146 0
M  V30 1013 C 94.6823 -0.939334 -1.71569 0
M  V30 1014 O 95.8883 -1.17829 -2.44599 0
M  V30 1015 C 94.3443 -3.41303 -1.14195 0
M  V30 1016 C 93.9523 -4.47944 -0.0711265 0
M  V30 1017 C 95.6963 -3.84988 -1.78841 0
M  V30 1018 C 93.6033 -5.88212 -0.613225 0
M  V30 1019 H 92.5333 -0.717162 -0.232796 0
M  V30 1020 H 95.1843 -1.83049 0.12857 0
M  V30 1021 H 93.5663 -3.45437 -1.93621 0
M  V30 1022 H 94.7403 -4.55408 0.702836 0
M  V30 1023 H 93.0553 -4.13644 0.478313 0
M  V30 1024 H 95.6523 -4.87159 -2.20408 0
M  V30 1025 H 95.9953 -3.21632 -2.64308 0
M  V30 1026 H 96.5283 -3.83401 -1.06059 0
M  V30 1027 H 93.2673 -6.55183 0.203978 0
M  V30 1028 H 92.7873 -5.84294 -1.35501 0
M  V30 1029 H 94.4663 -6.37687 -1.09383 0
M  V30 1030 N 94.5984 0.214957 -1.56127 0
M  V30 1031 C 95.5314 1.29382 -1.87977 0
M  V30 1032 C 96.5094 1.44897 -0.737807 0
M  V30 1033 O 97.6934 1.60605 -0.986833 0
M  V30 1034 C 94.8204 2.66325 -2.09258 0
M  V30 1035 C 93.8664 2.67789 -3.31951 0
M  V30 1036 S 94.6994 2.21198 -4.8768 0
M  V30 1037 C 95.8554 3.60003 -5.12004 0
M  V30 1038 H 96.0884 1.02173 -2.79192 0
M  V30 1039 H 93.6214 0.417516 -1.48648 0
M  V30 1040 H 95.5794 3.45162 -2.22201 0
M  V30 1041 H 94.2404 2.90755 -1.18829 0
M  V30 1042 H 93.4334 3.68436 -3.43906 0
M  V30 1043 H 93.0354 1.9702 -3.17898 0
M  V30 1044 H 95.3274 4.55739 -5.01307 0
M  V30 1045 H 96.2704 3.52959 -6.13861 0
M  V30 1046 H 96.6784 3.53996 -4.39712 0
M  V30 1047 N 96.0765 1.50051 0.48192 0
M  V30 1048 C 97.4925 1.37237 0.814756 0
M  V30 1049 C 97.6925 0.420109 1.97072 0
M  V30 1050 O 96.7485 -0.141246 2.52105 0
M  V30 1051 C 98.0615 2.78375 1.13701 0
M  V30 1052 C 99.6095 2.87213 1.2441 0
M  V30 1053 C 100.084 4.29161 1.59954 0
M  V30 1054 N 101.575 4.32061 1.66967 0
M  V30 1055 C 102.31 5.38879 1.95952 0
M  V30 1056 N 101.806 6.55918 2.23031 0
M  V30 1057 N 103.599 5.26312 1.97363 0
M  V30 1058 H 95.7505 2.10546 -0.28005 0
M  V30 1059 H 98.0135 0.945921 -0.0627454 0
M  V30 1060 H 97.7195 3.49845 0.360787 0
M  V30 1061 H 97.5935 3.14941 2.07586 0
M  V30 1062 H 99.9805 2.15969 2.01101 0
M  V30 1063 H 100.061 2.54204 0.285299 0
M  V30 1064 H 99.7055 5.00938 0.838067 0
M  V30 1065 H 99.6355 4.59648 2.56966 0
M  V30 1066 H 102.126 3.47661 1.48123 0
M  V30 1067 H 102.439 7.33139 2.44391 0
M  V30 1068 H 100.784 6.59112 2.20447 0
M  V30 1069 H 103.975 4.33876 1.75697 0
M  V30 1070 H 104.148 6.09649 2.19618 0
M  V30 1071 N 97.5546 -0.734337 1.39446 0
M  V30 1072 C 98.9706 -1.03997 1.21065 0
M  V30 1073 C 99.1706 -2.01369 0.0727019 0
M  V30 1074 O 98.2266 -2.45856 -0.575426 0
M  V30 1075 C 99.5396 -1.60163 2.54496 0
M  V30 1076 C 101.088 -1.7224 2.61347 0
M  V30 1077 C 101.563 -2.31814 3.95002 0
M  V30 1078 N 103.054 -2.39223 3.96644 0
M  V30 1079 C 103.789 -2.86258 4.96834 0
M  V30 1080 N 103.285 -3.33184 6.07421 0
M  V30 1081 N 105.078 -2.85473 4.84213 0
M  V30 1082 H 97.2286 -0.0885624 2.12215 0
M  V30 1083 H 99.4916 -0.10191 0.942506 0
M  V30 1084 H 99.1976 -0.960811 3.38321 0
M  V30 1085 H 99.0716 -2.5896 2.74262 0
M  V30 1086 H 101.459 -2.35443 1.77906 0
M  V30 1087 H 101.54 -0.720939 2.4543 0
M  V30 1088 H 101.184 -1.69238 4.78875 0
M  V30 1089 H 101.114 -3.32638 4.08239 0
M  V30 1090 H 103.605 -2.06057 3.16779 0
M  V30 1091 H 103.918 -3.67586 6.7978 0
M  V30 1092 H 102.263 -3.31191 6.11013 0
M  V30 1093 H 105.454 -2.48136 3.96921 0
M  V30 1094 H 105.627 -3.21814 5.62441 0
M  V30 1095 N 99.0327 -1.24633 -0.964593 0
M  V30 1096 C 99.9627 -1.06611 -2.07741 0
M  V30 1097 C 100.944 0.0218666 -1.70086 0
M  V30 1098 O 102.129 -0.145793 -1.93652 0
M  V30 1099 C 99.2587 -0.673444 -3.40708 0
M  V30 1100 C 98.2127 -1.71054 -3.92332 0
M  V30 1101 C 97.5387 -1.17285 -5.21678 0
M  V30 1102 C 98.8387 -3.10718 -4.19824 0
M  V30 1103 H 100.533 -1.99693 -2.23076 0
M  V30 1104 H 98.0787 -0.96152 -1.07195 0
M  V30 1105 H 100.032 -0.534345 -4.17998 0
M  V30 1106 H 98.7557 0.293073 -3.25282 0
M  V30 1107 H 97.4147 -1.83791 -3.17201 0
M  V30 1108 H 97.0627 -0.196847 -5.02615 0
M  V30 1109 H 96.7627 -1.86592 -5.57187 0
M  V30 1110 H 98.2867 -1.04593 -6.01575 0
M  V30 1111 H 99.7007 -3.01192 -4.87808 0
M  V30 1112 H 98.0977 -3.77406 -4.66567 0
M  V30 1113 H 99.1677 -3.58524 -3.26479 0
M  V30 1114 N 100.511 1.16574 -1.06058 0
M  V30 1115 C 101.739 1.90952 -0.796552 0
M  V30 1116 C 102.154 1.77302 0.648808 0
M  V30 1117 O 101.511 1.11605 1.44397 0
M  V30 1118 C 101.562 3.41736 -1.17894 0
M  V30 1119 O 101.283 3.54975 -2.56758 0
M  V30 1120 C 102.784 4.33169 -0.942308 0
M  V30 1121 H 100.004 0.605594 -0.288959 0
M  V30 1122 H 102.548 1.47777 -1.41358 0
M  V30 1123 H 100.703 3.82623 -0.606491 0
M  V30 1124 H 101.117 4.4846 -2.72 0
M  V30 1125 H 102.591 5.37439 -1.25952 0
M  V30 1126 H 103.068 4.3903 0.122078 0
M  V30 1127 H 103.674 3.98007 -1.49902 0
M  V30 1128 N 101.989 0.842826 1.3317 0
M  V30 1129 C 102.939 0.250877 2.26616 0
M  V30 1130 C 103.923 -0.596427 1.49437 0
M  V30 1131 O 105.115 -0.447747 1.71243 0
M  V30 1132 C 102.244 -0.569779 3.38539 0
M  V30 1133 C 101.33 0.289254 4.23112 0
M  V30 1134 N 101.721 1.36987 4.86897 0
M  V30 1135 C 100.019 0.0769631 4.45934 0
M  V30 1136 C 100.72 1.89737 5.49886 0
M  V30 1137 N 99.6959 1.19827 5.30229 0
M  V30 1138 H 103.498 1.07718 2.73448 0
M  V30 1139 H 101.012 0.687693 1.47121 0
M  V30 1140 H 103.009 -1.01018 4.04476 0
M  V30 1141 H 101.669 -1.39401 2.93253 0
M  V30 1142 H 102.68 1.75277 4.87338 0
M  V30 1143 H 99.3569 -0.713507 4.11358 0
M  V30 1144 H 100.747 2.80253 6.10662 0
M  V30 1145 N 103.467 -1.45747 0.599634 0
M  V30 1146 C 104.878 -1.85853 0.177681 0
M  V30 1147 C 105.229 -1.50102 -1.26348 0
M  V30 1148 O 104.354 -0.923905 -1.95686 0
M  V30 1149 C 104.949 -3.37326 0.315688 0
M  V30 1150 C 103.508 -3.76365 -0.0515144 0
M  V30 1151 C 102.655 -2.69722 0.643822 0
M  V30 1152 H 105.606 -1.36661 0.806814 0
M  V30 1153 H 105.627 -3.77778 -0.454321 0
M  V30 1154 H 105.139 -3.63315 1.36468 0
M  V30 1155 H 103.24 -3.55993 -1.09999 0
M  V30 1156 H 103.353 -4.77916 0.336594 0
M  V30 1157 H 101.717 -2.54567 0.0822881 0
M  V30 1158 H 102.5 -2.98549 1.6948 0
M  V30 1159 N 104.945 -0.338344 -1.53925 0
M  V30 1160 C 105.893 0.536231 -2.26335 0
M  V30 1161 C 106.887 1.1063 -1.28286 0
M  V30 1162 O 108.093 1.05264 -1.46012 0
M  V30 1163 H 104.468 0.191602 -0.727181 0
M  V30 1164 H 106.439 -0.0965747 -2.98244 0
M  V30 1165 C 105.188 1.67803 -3.04528 0
M  V30 1166 H 104.511 1.24864 -3.79801 0
M  V30 1167 H 105.951 2.26526 -3.58416 0
M  V30 1168 C 104.41 2.60439 -2.13712 0
M  V30 1169 O 104.94 3.6255 -1.72975 0
M  V30 1170 N 103.146 2.29006 -1.78898 0
M  V30 1171 H 102.693 1.46011 -2.12223 0
M  V30 1172 H 102.651 2.91248 -1.18416 0
M  V30 1173 N 106.423 1.57458 -0.0668435 0
M  V30 1174 C 107.669 1.93587 0.6043 0
M  V30 1175 C 108.002 0.946722 1.69561 0
M  V30 1176 O 107.277 -0.0248516 1.94484 0
M  V30 1177 C 107.56 3.40014 1.18585 0
M  V30 1178 C 107.413 4.49685 0.101529 0
M  V30 1179 C 108.732 3.87154 2.09284 0
M  V30 1180 H 105.851 0.703958 0.218202 0
M  V30 1181 H 108.493 1.89542 -0.131804 0
M  V30 1182 H 106.643 3.43592 1.81319 0
M  V30 1183 H 108.315 4.5823 -0.531279 0
M  V30 1184 H 106.558 4.30059 -0.568487 0
M  V30 1185 H 107.229 5.49266 0.54874 0
M  V30 1186 H 109.705 3.85551 1.56491 0
M  V30 1187 H 108.581 4.90231 2.46911 0
M  V30 1188 H 108.842 3.2481 2.99918 0
M  V30 1189 N 107.901 -0.206675 1.56239 0
M  V30 1190 C 109.147 -0.930218 1.80208 0
M  V30 1191 C 109.48 -1.83387 0.638981 0
M  V30 1192 O 108.755 -1.91119 -0.361066 0
M  V30 1193 C 109.038 -1.75641 3.1436 0
M  V30 1194 C 108.891 -0.878257 4.41142 0
M  V30 1195 C 110.21 -2.73129 3.45092 0
M  V30 1196 H 107.329 -0.336742 0.655571 0
M  V30 1197 H 109.971 -0.198222 1.88963 0
M  V30 1198 H 108.121 -2.38048 3.07027 0
M  V30 1199 H 109.793 -0.269787 4.6051 0
M  V30 1200 H 108.036 -0.184385 4.33408 0
M  V30 1201 H 108.707 -1.49106 5.3148 0
M  V30 1202 H 111.183 -2.20856 3.52649 0
M  V30 1203 H 110.059 -3.28028 4.40101 0
M  V30 1204 H 110.32 -3.51606 2.68003 0
M  V30 1205 N 109.379 -1.50304 -0.473955 0
M  V30 1206 C 110.342 -1.6841 -1.55469 0
M  V30 1207 C 111.342 -0.554905 -1.50922 0
M  V30 1208 O 112.532 -0.821882 -1.53593 0
M  V30 1209 C 109.664 -1.70667 -2.95102 0
M  V30 1210 H 110.857 -2.64828 -1.40733 0
M  V30 1211 H 108.41 -1.39742 -0.700132 0
M  V30 1212 H 109.145 -0.75932 -3.15285 0
M  V30 1213 H 108.93 -2.52698 -2.9981 0
M  V30 1214 H 110.42 -1.8664 -3.73571 0
M  V30 1215 N 110.857 0.726932 -1.39834 0
M  V30 1216 C 111.82 1.82269 -1.38962 0
M  V30 1217 C 112.82 1.58248 -0.285334 0
M  V30 1218 O 114.01 1.65499 -0.54366 0
M  V30 1219 C 111.142 3.20186 -1.17019 0
M  V30 1220 H 112.335 1.84443 -2.36476 0
M  V30 1221 H 109.888 0.931416 -1.25516 0
M  V30 1222 H 110.623 3.23669 -0.202204 0
M  V30 1223 H 110.408 3.3902 -1.96998 0
M  V30 1224 H 111.898 4.00235 -1.1917 0
M  V30 1225 N 112.336 1.25143 0.95797 0
M  V30 1226 C 113.752 1.01892 1.22842 0
M  V30 1227 C 113.952 -0.266311 1.99732 0
M  V30 1228 O 113.008 -0.979913 2.3271 0
M  V30 1229 C 114.321 2.24004 2.00606 0
M  V30 1230 C 115.869 2.28731 2.13662 0
M  V30 1231 C 116.344 3.5049 2.94823 0
M  V30 1232 N 117.835 3.50866 3.02403 0
M  V30 1233 C 118.57 4.4174 3.65586 0
M  V30 1234 N 118.066 5.42882 4.30408 0
M  V30 1235 N 119.859 4.29429 3.62694 0
M  V30 1236 H 112.01 2.07718 0.443493 0
M  V30 1237 H 114.273 0.912031 0.258657 0
M  V30 1238 H 113.979 3.17395 1.51503 0
M  V30 1239 H 113.853 2.26907 3.01319 0
M  V30 1240 H 116.24 1.35865 2.61963 0
M  V30 1241 H 116.321 2.29848 1.12265 0
M  V30 1242 H 115.965 4.43676 2.47213 0
M  V30 1243 H 115.895 3.46617 3.96439 0
M  V30 1244 H 118.386 2.777 2.56302 0
M  V30 1245 H 118.699 6.0844 4.76467 0
M  V30 1246 H 117.044 5.46758 4.29047 0
M  V30 1247 H 120.235 3.49643 3.11236 0
M  V30 1248 H 120.408 5.00448 4.1165 0
M  V30 1249 N 113.814 -1.1601 1.06675 0
M  V30 1250 C 115.091 -1.82679 0.699114 0
M  V30 1251 C 115.471 -1.94559 -0.819137 0
M  V30 1252 O 114.819 -1.49169 -1.73092 0
M  V30 1253 C 115.029 -3.19445 1.40555 0
M  V30 1254 C 116.377 -3.95171 1.55323 0
M  V30 1255 O 117.401 -3.28976 1.36577 0
M  V30 1256 O 116.26 -5.13833 1.86112 0
M  V30 1257 H 113.354 -0.788954 0.247951 0
M  V30 1258 H 115.9 -1.23179 1.16726 0
M  V30 1259 H 114.672 -3.05856 2.44065 0
M  V30 1260 H 114.295 -3.86625 0.927733 0
M  V30 1261 N 115.292 -0.849877 -1.32721 0
M  V30 1262 C 116.538 -0.451591 -1.97708 0
M  V30 1263 C 116.871 0.989175 -1.6712 0
M  V30 1264 O 116.146 1.69334 -0.956891 0
M  V30 1265 C 116.429 -0.685598 -3.53513 0
M  V30 1266 C 116.282 -2.17444 -3.93749 0
M  V30 1267 C 117.601 -0.138874 -4.39881 0
M  V30 1268 H 114.72 -0.16555 -0.718166 0
M  V30 1269 H 117.362 -1.06742 -1.57182 0
M  V30 1270 H 115.512 -0.161416 -3.88165 0
M  V30 1271 H 117.184 -2.76433 -3.693 0
M  V30 1272 H 115.427 -2.65476 -3.43081 0
M  V30 1273 H 116.098 -2.28888 -5.02309 0
M  V30 1274 H 118.574 -0.587068 -4.11938 0
M  V30 1275 H 117.45 -0.332213 -5.47894 0
M  V30 1276 H 117.711 0.95806 -4.31594 0
M  V30 1277 N 116.77 1.45427 -0.607355 0
M  V30 1278 C 118.181 1.85756 -0.187535 0
M  V30 1279 C 118.532 1.5077 1.25551 0
M  V30 1280 O 117.657 0.93427 1.95193 0
M  V30 1281 C 118.252 3.37154 -0.333572 0
M  V30 1282 C 116.811 3.76387 0.0315542 0
M  V30 1283 C 115.958 2.69377 -0.658117 0
M  V30 1284 H 118.909 1.36231 -0.81405 0
M  V30 1285 H 118.93 3.78014 0.43428 0
M  V30 1286 H 118.442 3.62586 -1.38393 0
M  V30 1287 H 116.543 3.56571 1.0811 0
M  V30 1288 H 116.656 4.77731 -0.361935 0
M  V30 1289 H 115.02 2.5452 -0.0957873 0
M  V30 1290 H 115.803 2.97646 -1.7106 0
M  V30 1291 N 118.248 0.346503 1.53744 0
M  V30 1292 C 119.158 -0.517293 2.28826 0
M  V30 1293 C 120.174 -1.10935 1.3405 0
M  V30 1294 O 121.35 -1.1244 1.6709 0
M  V30 1295 C 118.415 -1.65098 3.04866 0
M  V30 1296 C 117.476 -1.0884 4.15274 0
M  V30 1297 C 116.709 -2.16806 4.87679 0
M  V30 1298 O 116.932 -3.3758 4.59778 0
M  V30 1299 O 115.866 -1.80934 5.74061 0
M  V30 1300 H 119.692 0.0931396 3.03557 0
M  V30 1301 H 117.277 0.111458 1.48984 0
M  V30 1302 H 119.159 -2.31053 3.5241 0
M  V30 1303 H 117.834 -2.24717 2.32989 0
M  V30 1304 H 116.741 -0.3933 3.72027 0
M  V30 1305 H 118.074 -0.537036 4.89261 0
M  V30 1306 N 119.726 -1.57421 0.075193 0
M  V30 1307 C 120.974 -1.93236 -0.591974 0
M  V30 1308 C 121.295 -0.956241 -1.69944 0
M  V30 1309 O 120.565 -0.00494792 -1.95899 0
M  V30 1310 H 119.145 -0.713355 -0.22166 0
M  V30 1311 H 121.807 -1.9444 0.133848 0
M  V30 1312 H 120.903 -2.95131 -1.01509 0
M  V30 1313 N 121.204 0.198386 -1.56346 0
M  V30 1314 C 122.137 1.27381 -1.89339 0
M  V30 1315 C 123.115 1.44106 -0.753134 0
M  V30 1316 O 124.299 1.59549 -1.00381 0
M  V30 1317 C 121.426 2.6409 -2.12071 0
M  V30 1318 C 120.472 2.64253 -3.34772 0
M  V30 1319 S 121.305 2.16013 -4.89999 0
M  V30 1320 C 122.461 3.54553 -5.15794 0
M  V30 1321 H 122.694 0.992058 -2.8026 0
M  V30 1322 H 120.227 0.401726 -1.49082 0
M  V30 1323 H 122.185 3.42786 -2.2585 0
M  V30 1324 H 120.846 2.89478 -1.21906 0
M  V30 1325 H 120.039 3.64768 -3.47794 0
M  V30 1326 H 119.641 1.93637 -3.1997 0
M  V30 1327 H 121.933 4.50396 -5.06112 0
M  V30 1328 H 122.876 3.46428 -6.1757 0
M  V30 1329 H 123.284 3.49313 -4.43442 0
M  V30 1330 N 122.682 1.50554 0.465978 0
M  V30 1331 C 123.614 1.65949 1.58093 0
M  V30 1332 C 124.627 0.540827 1.53554 0
M  V30 1333 O 125.816 0.814187 1.5885 0
M  V30 1334 C 122.916 1.63261 2.96983 0
M  V30 1335 C 122.089 2.91245 3.26336 0
M  V30 1336 C 121.148 2.8113 4.44806 0
M  V30 1337 O 120.174 3.55086 4.44862 0
M  V30 1338 N 121.376 1.95032 5.46756 0
M  V30 1339 H 124.141 2.62122 1.45301 0
M  V30 1340 H 121.702 1.48082 0.65448 0
M  V30 1341 H 123.694 1.54101 3.74212 0
M  V30 1342 H 122.264 0.748032 3.03518 0
M  V30 1343 H 121.484 3.14493 2.37672 0
M  V30 1344 H 122.772 3.76022 3.42761 0
M  V30 1345 H 122.17 1.3427 5.49534 0
M  V30 1346 H 120.727 1.91772 6.2295 0
M  V30 1347 N 124.16 -0.719506 1.40217 0
M  V30 1348 C 125.108 -1.85493 1.40339 0
M  V30 1349 C 126.102 -1.66995 0.284415 0
M  V30 1350 O 127.308 -1.74148 0.455252 0
M  V30 1351 H 123.683 -0.610857 0.438586 0
M  V30 1352 H 125.654 -1.82506 2.36081 0
M  V30 1353 C 124.403 -3.23321 1.27901 0
M  V30 1354 H 123.726 -3.38159 2.1328 0
M  V30 1355 H 125.166 -4.02914 1.32045 0
M  V30 1356 C 123.625 -3.36898 -0.0111355 0
M  V30 1357 O 124.155 -3.89674 -0.975538 0
M  V30 1358 N 122.361 -2.90492 -0.0793393 0
M  V30 1359 H 121.908 -2.47731 0.706183 0
M  V30 1360 H 121.866 -2.99955 -0.942038 0
M  V30 1361 N 125.638 -1.25649 -0.95132 0
M  V30 1362 C 126.568 -1.08808 -2.06599 0
M  V30 1363 C 127.549 0.00382547 -1.701 0
M  V30 1364 O 128.734 -0.166325 -1.93486 0
M  V30 1365 C 125.864 -0.709542 -3.39975 0
M  V30 1366 C 124.818 -1.75206 -3.90496 0
M  V30 1367 C 124.144 -1.22811 -5.20405 0
M  V30 1368 C 125.444 -3.15153 -4.16504 0
M  V30 1369 H 127.138 -2.02048 -2.20946 0
M  V30 1370 H 124.684 -0.972835 -1.06169 0
M  V30 1371 H 126.637 -0.578649 -4.17408 0
M  V30 1372 H 125.361 0.258556 -3.25575 0
M  V30 1373 H 124.02 -1.87145 -3.15234 0
M  V30 1374 H 123.668 -0.250145 -5.02378 0
M  V30 1375 H 123.368 -1.92492 -5.55176 0
M  V30 1376 H 124.892 -1.10968 -6.00432 0
M  V30 1377 H 126.306 -3.06349 -4.84586 0
M  V30 1378 H 124.703 -3.82333 -4.62538 0
M  V30 1379 H 125.773 -3.61966 -3.22658 0
M  V30 1380 N 127.117 1.15442 -1.07289 0
M  V30 1381 C 128.08 2.18358 -0.696591 0
M  V30 1382 C 129.08 1.58637 0.262837 0
M  V30 1383 O 130.27 1.74145 0.0438809 0
M  V30 1384 C 127.402 3.4089 -0.0266151 0
M  V30 1385 H 128.595 2.53162 -1.60776 0
M  V30 1386 H 126.148 1.29893 -0.869342 0
M  V30 1387 H 126.883 3.11653 0.896822 0
M  V30 1388 H 126.668 3.85495 -0.716657 0
M  V30 1389 H 128.158 4.17009 0.222028 0
M  V30 1390 N 128.595 0.856903 1.32268 0
M  V30 1391 C 130.006 0.515711 1.79436 0
M  V30 1392 C 130.357 -0.966586 1.70738 0
M  V30 1393 O 129.482 -1.75409 1.26731 0
M  V30 1394 C 130.077 0.929335 3.25805 0
M  V30 1395 C 128.636 0.640006 3.70919 0
M  V30 1396 C 127.783 1.12784 2.53328 0
M  V30 1397 H 130.734 1.04389 1.19535 0
M  V30 1398 H 130.755 0.246633 3.797 0
M  V30 1399 H 130.267 2.00821 3.32103 0
M  V30 1400 H 128.368 -0.428051 3.70133 0
M  V30 1401 H 128.481 1.20788 4.63624 0
M  V30 1402 H 126.845 0.548033 2.48734 0
M  V30 1403 H 127.628 2.21387 2.62379 0
M  V30 1404 N 130.073 -1.45103 0.615059 0
M  V30 1405 C 131.021 -2.32331 -0.111791 0
M  V30 1406 C 132.015 -1.46409 -0.852102 0
M  V30 1407 O 133.221 -1.62849 -0.766821 0
M  V30 1408 H 129.596 -0.749993 -0.0549072 0
M  V30 1409 H 131.567 -2.91407 0.642225 0
M  V30 1410 C 130.316 -3.3015 -1.09071 0
M  V30 1411 H 129.639 -3.96265 -0.530485 0
M  V30 1412 H 131.079 -3.93898 -1.56908 0
M  V30 1413 C 129.538 -2.57875 -2.168 0
M  V30 1414 O 130.068 -2.36567 -3.24652 0
M  V30 1415 N 128.274 -2.17884 -1.92289 0
M  V30 1416 H 127.821 -2.35413 -1.04587 0
M  V30 1417 H 127.779 -1.6985 -2.64572 0
M  V30 1418 N 131.551 -0.354651 -1.53558 0
M  V30 1419 C 132.828 0.294281 -1.93374 0
M  V30 1420 C 133.208 1.67313 -1.28723 0
M  V30 1421 O 132.556 2.24179 -0.442247 0
M  V30 1422 C 132.766 0.355445 -3.47185 0
M  V30 1423 C 134.114 0.601007 -4.20325 0
M  V30 1424 O 135.138 0.437106 -3.53508 0
M  V30 1425 O 133.997 0.919322 -5.38712 0
M  V30 1426 H 131.091 0.174033 -0.808481 0
M  V30 1427 H 133.637 -0.406638 -1.64756 0
M  V30 1428 H 132.409 -0.611729 -3.86489 0
M  V30 1429 H 132.032 1.1027 -3.82003 0
M  V30 1430 N 133.029 1.57378 -0.0835403 0
M  V30 1431 C 133.959 2.1641 0.87686 0
M  V30 1432 C 134.94 1.09429 1.30228 0
M  V30 1433 O 136.125 1.37516 1.37124 0
M  V30 1434 C 133.255 2.73517 2.14022 0
M  V30 1435 C 132.209 3.85769 1.85381 0
M  V30 1436 C 131.535 4.29529 3.18448 0
M  V30 1437 C 132.835 5.09486 1.14984 0
M  V30 1438 H 134.529 2.96914 0.385059 0
M  V30 1439 H 132.075 1.42823 0.18377 0
M  V30 1440 H 134.028 3.13463 2.81636 0
M  V30 1441 H 132.752 1.90252 2.65465 0
M  V30 1442 H 131.411 3.46345 1.20169 0
M  V30 1443 H 131.059 3.43169 3.67755 0
M  V30 1444 H 130.759 5.05204 3.00071 0
M  V30 1445 H 132.283 4.72099 3.8724 0
M  V30 1446 H 133.697 5.46674 1.72687 0
M  V30 1447 H 132.094 5.90515 1.06826 0
M  V30 1448 H 133.164 4.84724 0.130749 0
M  V30 1449 N 134.507 -0.190092 1.56449 0
M  V30 1450 C 135.918 -0.754312 1.70784 0
M  V30 1451 C 136.269 -1.83631 0.690951 0
M  V30 1452 O 135.394 -2.15868 -0.151604 0
M  V30 1453 C 135.989 -1.37503 3.09642 0
M  V30 1454 C 134.548 -1.88628 3.25725 0
M  V30 1455 C 133.695 -0.758098 2.66736 0
M  V30 1456 H 136.646 0.0350524 1.58661 0
M  V30 1457 H 136.667 -2.2445 3.0725 0
M  V30 1458 H 136.179 -0.587302 3.83631 0
M  V30 1459 H 134.28 -2.70103 2.56661 0
M  V30 1460 H 134.393 -2.04462 4.3328 0
M  V30 1461 H 132.757 -1.17369 2.26046 0
M  V30 1462 H 133.54 0.0174705 3.43296 0
M  V30 1463 N 135.985 -1.50799 -0.457987 0
M  V30 1464 C 136.915 -1.73553 -1.5621 0
M  V30 1465 C 137.896 -0.584774 -1.59732 0
M  V30 1466 O 139.081 -0.825314 -1.7579 0
M  V30 1467 C 136.211 -1.84169 -2.94447 0
M  V30 1468 C 135.165 -2.99461 -3.0579 0
M  V30 1469 C 134.491 -2.95235 -4.45803 0
M  V30 1470 C 135.791 -4.39766 -2.81786 0
M  V30 1471 H 137.485 -2.66 -1.37421 0
M  V30 1472 H 135.031 -1.28002 -0.659662 0
M  V30 1473 H 136.984 -1.98672 -3.71628 0
M  V30 1474 H 135.708 -0.883545 -3.14422 0
M  V30 1475 H 134.367 -2.8463 -2.31044 0
M  V30 1476 H 134.015 -1.97239 -4.62715 0
M  V30 1477 H 133.715 -3.72642 -4.54326 0
M  V30 1478 H 135.239 -3.11803 -5.24987 0
M  V30 1479 H 136.653 -4.55054 -3.4871 0
M  V30 1480 H 135.05 -5.18722 -3.0174 0
M  V30 1481 H 136.12 -4.51229 -1.7754 0
M  V30 1482 N 137.463 0.71206 -1.40597 0
M  V30 1483 C 138.393 1.83889 -1.43899 0
M  V30 1484 C 139.374 1.67442 -0.299504 0
M  V30 1485 O 140.559 1.87421 -0.508624 0
M  V30 1486 C 137.689 3.21877 -1.30431 0
M  V30 1487 C 136.643 3.53002 -2.42019 0
M  V30 1488 C 135.969 4.90172 -2.13626 0
M  V30 1489 C 137.269 3.53643 -3.84362 0
M  V30 1490 H 138.963 1.81383 -2.38203 0
M  V30 1491 H 136.509 0.871237 -1.14654 0
M  V30 1492 H 138.462 4.00404 -1.31357 0
M  V30 1493 H 137.186 3.24968 -0.326049 0
M  V30 1494 H 135.845 2.76818 -2.40349 0
M  V30 1495 H 135.493 4.89869 -1.14182 0
M  V30 1496 H 135.193 5.11962 -2.88389 0
M  V30 1497 H 136.717 5.71028 -2.1624 0
M  V30 1498 H 138.131 4.22203 -3.87837 0
M  V30 1499 H 136.528 3.86961 -4.58673 0
M  V30 1500 H 137.598 2.52954 -4.13693 0
M  V30 1501 N 138.941 1.26152 0.944643 0
M  V30 1502 C 139.904 1.07474 2.0244 0
M  V30 1503 C 140.904 0.0242064 1.60782 0
M  V30 1504 O 142.094 0.267302 1.72137 0
M  V30 1505 C 139.226 0.633956 3.34953 0
M  V30 1506 H 140.419 2.03336 2.20442 0
M  V30 1507 H 137.972 1.087 1.12312 0
M  V30 1508 H 138.707 -0.326811 3.22649 0
M  V30 1509 H 138.492 1.39247 3.66542 0
M  V30 1510 H 139.982 0.52501 4.14287 0
M  V30 1511 N 140.419 -1.14872 1.07899 0
M  V30 1512 C 141.352 -2.18794 0.64841 0
M  V30 1513 C 142.33 -1.59065 -0.337189 0
M  V30 1514 O 143.514 -1.86936 -0.242284 0
M  V30 1515 C 140.641 -3.38667 -0.0470417 0
M  V30 1516 C 139.687 -4.16942 0.897884 0
M  V30 1517 S 140.52 -4.78615 2.40183 0
M  V30 1518 C 141.676 -6.0185 1.71834 0
M  V30 1519 H 141.909 -2.5498 1.52881 0
M  V30 1520 H 139.442 -1.25922 0.893484 0
M  V30 1521 H 141.4 -4.08113 -0.442027 0
M  V30 1522 H 140.061 -3.00814 -0.903861 0
M  V30 1523 H 139.254 -5.02726 0.358096 0
M  V30 1524 H 138.856 -3.53073 1.23352 0
M  V30 1525 H 141.148 -6.69574 1.03328 0
M  V30 1526 H 142.091 -6.60408 2.55473 0
M  V30 1527 H 142.499 -5.5173 1.19392 0
M  V30 1528 N 141.898 -0.863906 -1.31812 0
M  V30 1529 C 142.808 -0.318461 -2.32428 0
M  V30 1530 C 143.824 0.568496 -1.64451 0
M  V30 1531 O 145 0.46666 -1.95919 0
M  V30 1532 C 142.065 0.476355 -3.43412 0
M  V30 1533 C 141.126 -0.43784 -4.27061 0
M  V30 1534 C 140.359 0.319138 -5.32745 0
M  V30 1535 O 140.582 1.54799 -5.48993 0
M  V30 1536 O 139.516 -0.319861 -6.01049 0
M  V30 1537 H 143.342 -1.15229 -2.80991 0
M  V30 1538 H 140.927 -0.627103 -1.35602 0
M  V30 1539 H 142.809 0.927156 -4.11074 0
M  V30 1540 H 141.484 1.28683 -2.97022 0
M  V30 1541 H 140.391 -0.937013 -3.62175 0
M  V30 1542 H 141.724 -1.21375 -4.77 0
M  V30 1543 N 143.376 1.44774 -0.622745 0
M  V30 1544 C 144.606 2.06187 -0.130532 0
M  V30 1545 C 145.014 1.46547 1.19669 0
M  V30 1546 O 144.357 0.579636 1.74316 0
M  V30 1547 C 144.419 3.59437 0.0674983 0
M  V30 1548 C 144.083 4.41496 -1.18026 0
M  V30 1549 C 145.08 4.75512 -2.102 0
M  V30 1550 C 142.765 4.82007 -1.41333 0
M  V30 1551 C 144.759 5.48912 -3.23998 0
M  V30 1552 C 142.446 5.55157 -2.55429 0
M  V30 1553 C 143.444 5.88528 -3.46589 0
M  V30 1554 O 143.132 6.60191 -4.58697 0
M  V30 1555 H 142.864 0.672045 -0.0730162 0
M  V30 1556 H 145.418 1.86768 -0.854802 0
M  V30 1557 H 143.648 3.77314 0.846825 0
M  V30 1558 H 145.337 4.02642 0.513209 0
M  V30 1559 H 146.103 4.4476 -1.93425 0
M  V30 1560 H 141.982 4.55457 -0.712709 0
M  V30 1561 H 145.526 5.74877 -3.95174 0
M  V30 1562 H 141.423 5.85324 -2.72151 0
M  V30 1563 H 142.191 6.78654 -4.57571 0
M  V30 1564 N 144.854 0.36279 1.53368 0
M  V30 1565 C 146.094 -0.227882 2.03126 0
M  V30 1566 C 146.458 -1.4622 1.24434 0
M  V30 1567 O 147.659 -2.12831 1.64184 0
M  V30 1568 C 145.93 -0.515427 3.53664 0
M  V30 1569 S 147.489 -1.08017 4.25297 0
M  V30 1570 H 144.307 -0.0665377 0.70788 0
M  V30 1571 H 146.909 0.50501 1.88865 0
M  V30 1572 H 145.613 0.390436 4.08539 0
M  V30 1573 H 145.144 -1.27747 3.72081 0
M  V30 1574 H 147.159 -2.36462 4.36234 0
M  V30 1575 N 146.332 -1.57332 0.0918853 0
M  V30 1576 C 147.264 -2.10869 -0.898168 0
M  V30 1577 C 148.277 -1.04521 -1.24817 0
M  V30 1578 O 149.466 -1.31977 -1.20184 0
M  V30 1579 C 146.566 -2.57083 -2.2082 0
M  V30 1580 C 145.739 -3.87229 -2.03402 0
M  V30 1581 C 144.798 -4.19324 -3.17889 0
M  V30 1582 O 143.824 -4.88598 -2.91994 0
M  V30 1583 N 145.026 -3.74471 -4.43567 0
M  V30 1584 H 147.791 -2.96439 -0.440943 0
M  V30 1585 H 145.352 -1.61631 -0.0933064 0
M  V30 1586 H 147.344 -2.75602 -2.96354 0
M  V30 1587 H 145.914 -1.76541 -2.57977 0
M  V30 1588 H 145.134 -3.7789 -1.12218 0
M  V30 1589 H 146.422 -4.72379 -1.89038 0
M  V30 1590 H 145.82 -3.18546 -4.67488 0
M  V30 1591 H 144.377 -3.98151 -5.16061 0
M  V30 1592 N 147.81 0.181792 -1.56548 0
M  V30 1593 C 149.058 0.89832 -1.81038 0
M  V30 1594 C 149.379 1.83232 -0.667164 0
M  V30 1595 O 148.649 1.93372 0.313673 0
M  V30 1596 H 147.229 0.33471 -0.667816 0
M  V30 1597 H 149.891 0.184116 -1.94028 0
M  V30 1598 H 148.987 1.4815 -2.74696 0
M  V30 1599 N 149.288 1.51039 0.449983 0
M  V30 1600 C 150.536 1.62759 1.19808 0
M  V30 1601 C 150.857 0.339981 1.92013 0
M  V30 1602 O 150.127 -0.643606 1.85026 0
M  V30 1603 H 148.707 0.599811 0.445237 0
M  V30 1604 H 151.369 1.87914 0.517138 0
M  V30 1605 H 150.465 2.44911 1.93455 0
M  V30 1606 N 150.766 -0.704594 1.40972 0
M  V30 1607 C 152.043 -1.45847 1.30338 0
M  V30 1608 C 152.423 -2.10973 -0.0732344 0
M  V30 1609 O 151.771 -2.00997 -1.08685 0
M  V30 1610 C 151.981 -2.48525 2.45023 0
M  V30 1611 C 153.329 -3.1404 2.8577 0
M  V30 1612 O 154.353 -2.58848 2.44696 0
M  V30 1613 O 153.212 -4.13981 3.56766 0
M  V30 1614 H 150.306 -0.649092 0.512454 0
M  V30 1615 H 152.852 -0.735836 1.52917 0
M  V30 1616 H 151.624 -1.98994 3.36923 0
M  V30 1617 H 151.247 -3.2831 2.24272 0
M  V30 1618 N 152.244 -1.26651 -0.937939 0
M  V30 1619 C 153.174 -1.10993 -2.05433 0
M  V30 1620 C 154.155 -0.0142161 -1.70094 0
M  V30 1621 O 155.34 -0.186837 -1.93299 0
M  V30 1622 C 152.47 -0.745561 -3.39203 0
M  V30 1623 C 151.424 -1.79337 -3.88616 0
M  V30 1624 C 150.75 -1.28324 -5.19073 0
M  V30 1625 C 152.05 -3.19553 -4.13138 0
M  V30 1626 H 153.744 -2.0438 -2.1879 0
M  V30 1627 H 151.29 -0.984041 -1.05131 0
M  V30 1628 H 153.243 -0.622888 -4.16771 0
M  V30 1629 H 151.967 0.22401 -3.25831 0
M  V30 1630 H 150.626 -1.90477 -3.13231 0
M  V30 1631 H 150.274 -0.303414 -5.02084 0
M  V30 1632 H 149.974 -1.98369 -5.53103 0
M  V30 1633 H 151.498 -1.1733 -5.99221 0
M  V30 1634 H 152.912 -3.11471 -4.81309 0
M  V30 1635 H 151.309 -3.87218 -4.58457 0
M  V30 1636 H 152.379 -3.65368 -3.18801 0
M  V30 1637 N 153.722 1.14298 -1.08507 0
M  V30 1638 C 155.138 1.37347 -0.812901 0
M  V30 1639 C 155.338 1.93052 0.577325 0
M  V30 1640 O 154.394 2.14389 1.33393 0
M  V30 1641 C 155.707 2.33359 -1.89642 0
M  V30 1642 C 157.255 2.46996 -1.92255 0
M  V30 1643 C 157.73 3.46309 -2.99724 0
M  V30 1644 N 159.221 3.53853 -2.98902 0
M  V30 1645 C 159.956 4.3055 -3.787 0
M  V30 1646 N 159.452 5.10482 -4.6838 0
M  V30 1647 N 161.245 4.25757 -3.66998 0
M  V30 1648 H 153.396 0.764867 -1.9815 0
M  V30 1649 H 155.659 0.398966 -0.859959 0
M  V30 1650 H 155.365 1.99565 -2.89597 0
M  V30 1651 H 155.239 3.33274 -1.76659 0
M  V30 1652 H 157.626 2.80081 -0.929445 0
M  V30 1653 H 157.707 1.47039 -2.09316 0
M  V30 1654 H 157.351 3.13957 -3.99241 0
M  V30 1655 H 157.281 4.46049 -2.79907 0
M  V30 1656 H 159.772 2.96812 -2.33904 0
M  V30 1657 H 160.085 5.66284 -5.25873 0
M  V30 1658 H 158.43 5.09747 -4.72422 0
M  V30 1659 H 161.621 3.62383 -2.96304 0
M  V30 1660 H 161.794 4.85279 -4.29427 0
M  V30 1661 N 155.201 0.870884 1.31352 0
M  V30 1662 C 156.148 0.325425 2.28494 0
M  V30 1663 C 157.118 -0.576615 1.5577 0
M  V30 1664 O 158.303 -0.508059 1.83911 0
M  V30 1665 C 155.443 -0.466283 3.41935 0
M  V30 1666 C 154.556 0.463378 4.29508 0
M  V30 1667 C 153.691 -0.342544 5.30094 0
M  V30 1668 C 152.73 0.583486 6.09313 0
M  V30 1669 N 151.867 -0.186244 7.01853 0
M  V30 1670 H 156.707 1.15901 2.74538 0
M  V30 1671 H 154.244 0.58294 1.35056 0
M  V30 1672 H 156.202 -0.941085 4.06447 0
M  V30 1673 H 154.832 -1.26456 2.97 0
M  V30 1674 H 153.884 1.05663 3.65431 0
M  V30 1675 H 155.196 1.1734 4.84802 0
M  V30 1676 H 154.35 -0.879816 6.00287 0
M  V30 1677 H 153.089 -1.08585 4.75458 0
M  V30 1678 H 152.094 1.13251 5.3801 0
M  V30 1679 H 153.319 1.32566 6.66035 0
M  V30 1680 H 151.265 -0.912348 6.49625 0
M  V30 1681 H 151.182 0.464422 7.54572 0
M  V30 1682 H 152.45 -0.704716 7.76308 0
M  V30 1683 N 156.679 -1.44442 0.630414 0
M  V30 1684 C 157.909 -2.06115 0.141465 0
M  V30 1685 C 158.317 -1.47179 -1.1889 0
M  V30 1686 O 157.66 -0.588873 -1.74006 0
M  V30 1687 C 157.722 -3.59467 -0.0484355 0
M  V30 1688 C 157.386 -4.40864 1.20366 0
M  V30 1689 C 158.383 -4.74391 2.12719 0
M  V30 1690 C 156.068 -4.8125 1.43887 0
M  V30 1691 C 158.062 -5.47186 3.26904 0
M  V30 1692 C 155.749 -5.53795 2.5837 0
M  V30 1693 C 156.747 -5.86682 3.49705 0
M  V30 1694 O 156.435 -6.57749 4.62191 0
M  V30 1695 H 156.167 -0.671648 0.0765792 0
M  V30 1696 H 158.721 -1.86312 0.864695 0
M  V30 1697 H 156.951 -3.77758 -0.826803 0
M  V30 1698 H 158.64 -4.02909 -0.491849 0
M  V30 1699 H 159.406 -4.43728 1.95781 0
M  V30 1700 H 155.285 -4.55073 0.736853 0
M  V30 1701 H 158.829 -5.72773 3.98217 0
M  V30 1702 H 154.726 -5.83872 2.75251 0
M  V30 1703 H 155.494 -6.76217 4.61164 0
M  V30 1704 N 158.157 -0.370918 -1.53173 0
M  V30 1705 C 159.087 0.464847 -2.28826 0
M  V30 1706 C 160.068 1.07936 -1.31468 0
M  V30 1707 O 161.253 1.0956 -1.60344 0
M  V30 1708 C 158.383 1.60196 -3.08147 0
M  V30 1709 C 157.337 1.11443 -4.13237 0
M  V30 1710 C 156.663 2.3422 -4.80672 0
M  V30 1711 C 157.963 0.195384 -5.21934 0
M  V30 1712 H 159.657 -0.166329 -2.98938 0
M  V30 1713 H 157.203 -0.0814359 -1.4377 0
M  V30 1714 H 159.156 2.19332 -3.59822 0
M  V30 1715 H 157.88 2.26045 -2.35735 0
M  V30 1716 H 156.539 0.545727 -3.62515 0
M  V30 1717 H 156.187 2.98537 -4.04827 0
M  V30 1718 H 155.887 2.02269 -5.51689 0
M  V30 1719 H 157.411 2.94032 -5.35143 0
M  V30 1720 H 158.825 0.694375 -5.69079 0
M  V30 1721 H 157.222 -0.0335027 -6.00091 0
M  V30 1722 H 158.292 -0.760961 -4.78892 0
M  V30 1723 N 159.635 1.57281 -0.100228 0
M  V30 1724 C 160.583 2.15542 0.874328 0
M  V30 1725 C 161.577 1.09962 1.28859 0
M  V30 1726 O 162.783 1.28298 1.26252 0
M  V30 1727 H 159.158 0.689567 0.300003 0
M  V30 1728 H 161.129 2.96241 0.35829 0
M  V30 1729 C 159.878 2.75454 2.1218 0
M  V30 1730 H 159.201 3.56384 1.81193 0
M  V30 1731 H 160.641 3.19781 2.78417 0
M  V30 1732 C 159.1 1.71602 2.89921 0
M  V30 1733 O 159.63 1.15804 3.84646 0
M  V30 1734 N 157.836 1.41975 2.53558 0
M  V30 1735 H 157.383 1.87539 1.76598 0
M  V30 1736 H 157.341 0.727274 3.05873 0
M  V30 1737 N 161.113 -0.173488 1.56642 0
M  V30 1738 C 162.045 -1.23935 1.92802 0
M  V30 1739 C 163.058 -1.40589 0.820889 0
M  V30 1740 O 164.247 -1.40631 1.09933 0
M  V30 1741 C 161.347 -2.60837 2.16373 0
M  V30 1742 C 160.52 -2.6551 3.47596 0
M  V30 1743 C 159.579 -3.8376 3.60021 0
M  V30 1744 O 158.605 -3.69859 4.32658 0
M  V30 1745 N 159.807 -5.00127 2.94709 0
M  V30 1746 H 162.572 -0.932236 2.84832 0
M  V30 1747 H 160.133 -0.363268 1.57772 0
M  V30 1748 H 162.125 -3.38407 2.21952 0
M  V30 1749 H 160.695 -2.83948 1.30738 0
M  V30 1750 H 159.915 -1.74052 3.53694 0
M  V30 1751 H 161.203 -2.65641 4.33949 0
M  V30 1752 H 160.601 -5.14322 2.35563 0
M  V30 1753 H 159.158 -5.75567 3.05886 0
M  V30 1754 N 162.591 -1.51276 -0.441967 0
M  V30 1755 C 163.838 -1.63715 -1.19179 0
M  V30 1756 C 164.166 -0.351175 -1.91303 0
M  V30 1757 O 163.421 0.664524 -1.84072 0
M  V30 1758 C 163.72 -2.78746 -2.23686 0
M  V30 1759 C 163.386 -4.18189 -1.68607 0
M  V30 1760 C 162.048 -4.56125 -1.53308 0
M  V30 1761 C 164.4 -5.05222 -1.28062 0
M  V30 1762 C 161.728 -5.78804 -0.959317 0
M  V30 1763 C 164.08 -6.28476 -0.721162 0
M  V30 1764 C 162.744 -6.65188 -0.55504 0
M  V30 1765 H 162.014 -0.599076 -0.436106 0
M  V30 1766 H 164.661 -1.85296 -0.48351 0
M  V30 1767 H 162.966 -2.51369 -3.00535 0
M  V30 1768 H 164.663 -2.8557 -2.81515 0
M  V30 1769 H 161.253 -3.88277 -1.8149 0
M  V30 1770 H 165.437 -4.76524 -1.38704 0
M  V30 1771 H 160.693 -6.05899 -0.81833 0
M  V30 1772 H 164.867 -6.95259 -0.398458 0
M  V30 1773 H 162.494 -7.60123 -0.108311 0
M  V30 1774 N 164.069 0.697108 -1.41344 0
M  V30 1775 C 164.979 1.84088 -1.45427 0
M  V30 1776 C 165.995 1.70545 -0.34501 0
M  V30 1777 O 167.171 1.92488 -0.592492 0
M  V30 1778 C 164.236 3.20056 -1.33286 0
M  V30 1779 C 163.297 3.45718 -2.54514 0
M  V30 1780 C 162.53 4.75199 -2.42944 0
M  V30 1781 O 162.753 5.51579 -1.45318 0
M  V30 1782 O 161.687 5.0161 -3.32672 0
M  V30 1783 H 165.513 1.836 -2.41919 0
M  V30 1784 H 163.098 0.849966 -1.22866 0
M  V30 1785 H 164.98 4.01236 -1.28794 0
M  V30 1786 H 163.655 3.2123 -0.39909 0
M  V30 1787 H 162.562 2.64474 -2.64583 0
M  V30 1788 H 163.895 3.49356 -3.46715 0
M  V30 1789 N 165.547 1.27147 0.931209 0
M  V30 1790 C 166.495 1.09398 2.05268 0
M  V30 1791 C 167.489 0.0180591 1.6939 0
M  V30 1792 O 168.695 0.17551 1.79142 0
M  V30 1793 H 165.07 0.336986 0.672268 0
M  V30 1794 H 167.041 2.04416 2.17386 0
M  V30 1795 C 165.79 0.75424 3.39421 0
M  V30 1796 H 165.113 1.57404 3.67511 0
M  V30 1797 H 166.553 0.669903 4.18674 0
M  V30 1798 C 165.012 -0.541197 3.32525 0
M  V30 1799 O 165.542 -1.57664 3.69466 0
M  V30 1800 N 163.748 -0.535517 2.85623 0
M  V30 1801 H 163.295 0.307511 2.55758 0
M  V30 1802 H 163.253 -1.40236 2.81392 0
M  V30 1803 N 167.025 -1.13721 1.09112 0
M  V30 1804 C 168.265 -1.86576 0.834801 0
M  V30 1805 C 168.629 -1.81435 -0.628122 0
M  V30 1806 O 169.83 -2.49497 -1.00024 0
M  V30 1807 C 168.101 -3.30872 1.35124 0
M  V30 1808 S 169.66 -4.21257 1.22832 0
M  V30 1809 H 166.478 -0.643666 0.302017 0
M  V30 1810 H 169.08 -1.37085 1.39385 0
M  V30 1811 H 167.784 -3.32166 2.41027 0
M  V30 1812 H 167.315 -3.85423 0.788185 0
M  V30 1813 H 169.33 -4.95884 0.177191 0
M  V30 1814 N 168.503 -0.877838 -1.30888 0
M  V30 1815 C 169.743 -0.499301 -1.98208 0
M  V30 1816 C 170.107 0.932649 -1.67826 0
M  V30 1817 O 171.308 1.41694 -2.28421 0
M  V30 1818 C 169.579 -0.758221 -3.49265 0
M  V30 1819 S 171.138 -0.480719 -4.36159 0
M  V30 1820 H 167.956 -0.186062 -0.686223 0
M  V30 1821 H 170.558 -1.13556 -1.59139 0
M  V30 1822 H 169.262 -1.79903 -3.68867 0
M  V30 1823 H 168.793 -0.109247 -3.93248 0
M  V30 1824 H 170.808 0.683698 -4.91467 0
M  V30 1825 N 169.982 1.44106 -0.638065 0
M  V30 1826 C 171.23 2.01579 -0.145043 0
M  V30 1827 C 171.551 1.50496 1.24 0
M  V30 1828 O 170.821 0.711374 1.82527 0
M  V30 1829 H 169.401 0.745282 -0.05063 0
M  V30 1830 H 172.063 1.76516 -0.826327 0
M  V30 1831 H 171.159 3.11877 -0.118039 0
M  V30 1832 N 171.46 0.379036 1.52974 0
M  V30 1833 C 172.39 -0.452706 2.29069 0
M  V30 1834 C 173.371 -1.07237 1.32039 0
M  V30 1835 O 174.556 -1.08708 1.60923 0
M  V30 1836 C 171.686 -1.5856 3.08992 0
M  V30 1837 C 170.64 -1.0925 4.13822 0
M  V30 1838 C 169.966 -2.31668 4.81907 0
M  V30 1839 C 171.266 -0.167702 5.22031 0
M  V30 1840 H 172.96 0.182181 2.98845 0
M  V30 1841 H 170.506 0.0890592 1.43724 0
M  V30 1842 H 172.459 -2.1742 3.6098 0
M  V30 1843 H 171.183 -2.24792 2.36931 0
M  V30 1844 H 169.842 -0.526494 3.628 0
M  V30 1845 H 169.49 -2.96386 4.06404 0
M  V30 1846 H 169.19 -1.9934 5.52754 0
M  V30 1847 H 170.714 -2.91189 5.36695 0
M  V30 1848 H 172.128 -0.664186 5.6944 0
M  V30 1849 H 170.525 0.0653265 6.00064 0
M  V30 1850 H 171.595 0.786347 4.78482 0
M  V30 1851 N 172.938 -1.57226 0.108567 0
M  V30 1852 C 174.354 -1.5766 -0.248058 0
M  V30 1853 C 174.554 -1.12063 -1.67464 0
M  V30 1854 O 173.61 -0.803236 -2.39383 0
M  V30 1855 C 174.923 -3.0069 -0.0242287 0
M  V30 1856 C 176.471 -3.12868 -0.0909372 0
M  V30 1857 C 176.946 -4.57879 0.105067 0
M  V30 1858 N 178.437 -4.63172 0.0506846 0
M  V30 1859 C 179.172 -5.73126 0.177396 0
M  V30 1860 N 178.668 -6.91866 0.359696 0
M  V30 1861 N 180.461 -5.61977 0.117709 0
M  V30 1862 H 172.612 -1.85169 1.04049 0
M  V30 1863 H 174.875 -0.85529 0.40888 0
M  V30 1864 H 174.581 -3.38299 0.961604 0
M  V30 1865 H 174.455 -3.6945 -0.76068 0
M  V30 1866 H 176.842 -2.75124 -1.06729 0
M  V30 1867 H 176.923 -2.46672 0.677225 0
M  V30 1868 H 176.567 -4.96321 1.07834 0
M  V30 1869 H 176.497 -5.22153 -0.682954 0
M  V30 1870 H 178.988 -3.778 -0.0871266 0
M  V30 1871 H 179.301 -7.71503 0.447529 0
M  V30 1872 H 177.646 -6.93874 0.395536 0
M  V30 1873 H 180.837 -4.68094 -0.0236741 0
M  V30 1874 H 181.01 -6.47627 0.219905 0
M  V30 1875 N 174.416 0.165178 -1.56732 0
M  V30 1876 C 175.326 1.22423 -2.00125 0
M  V30 1877 C 176.342 1.48084 -0.913619 0
M  V30 1878 O 177.518 1.60112 -1.22172 0
M  V30 1879 C 174.583 2.54197 -2.35764 0
M  V30 1880 C 173.644 2.36343 -3.58386 0
M  V30 1881 C 172.877 3.61834 -3.92316 0
M  V30 1882 O 173.1 4.67267 -3.27135 0
M  V30 1883 O 172.034 3.55579 -4.85641 0
M  V30 1884 H 175.86 0.885886 -2.90492 0
M  V30 1885 H 173.445 0.372518 -1.44681 0
M  V30 1886 H 175.327 3.3192 -2.59629 0
M  V30 1887 H 174.002 2.87598 -1.48557 0
M  V30 1888 H 172.909 1.56632 -3.39731 0
M  V30 1889 H 174.242 2.07865 -4.46154 0
M  V30 1890 N 175.894 1.51508 0.433938 0
M  V30 1891 C 177.142 1.6402 1.18075 0
M  V30 1892 C 177.463 0.360328 1.91642 0
M  V30 1893 O 176.733 -0.623945 1.85698 0
M  V30 1894 H 175.313 0.6045 0.43885 0
M  V30 1895 H 177.975 1.88452 0.497178 0
M  V30 1896 H 177.071 2.46949 1.90847 0
M  V30 1897 N 177.372 -0.689602 1.41712 0
M  V30 1898 C 178.335 -1.78521 1.43746 0
M  V30 1899 C 179.335 -1.57436 0.327191 0
M  V30 1900 O 180.525 -1.64 0.587348 0
M  V30 1901 C 177.657 -3.16971 1.25467 0
M  V30 1902 H 178.85 -1.78108 2.41283 0
M  V30 1903 H 176.403 -0.89781 1.27942 0
M  V30 1904 H 177.138 -3.23019 0.287948 0
M  V30 1905 H 176.923 -3.33678 2.05917 0
M  V30 1906 H 178.413 -3.96935 1.2974 0
M  V30 1907 N 178.85 -1.27639 -0.924453 0
M  V30 1908 C 180.099 -1.13549 -1.66702 0
M  V30 1909 C 180.412 0.317487 -1.93006 0
M  V30 1910 O 181.618 0.579333 -2.65247 0
M  V30 1911 C 180.074 -1.98426 -3.00259 0
M  V30 1912 C 179.682 -3.484 -2.81641 0
M  V30 1913 C 181.426 -1.92993 -3.78092 0
M  V30 1914 C 179.333 -4.25464 -4.10773 0
M  V30 1915 H 178.263 -0.421351 -0.625283 0
M  V30 1916 H 180.914 -1.52085 -1.02676 0
M  V30 1917 H 179.296 -1.52736 -3.6536 0
M  V30 1918 H 180.47 -4.01973 -2.25287 0
M  V30 1919 H 178.785 -3.55245 -2.17232 0
M  V30 1920 H 181.382 -2.47844 -4.7379 0
M  V30 1921 H 181.725 -0.904281 -4.0636 0
M  V30 1922 H 182.258 -2.36595 -3.19793 0
M  V30 1923 H 178.997 -5.28566 -3.87683 0
M  V30 1924 H 178.517 -3.76667 -4.66779 0
M  V30 1925 H 180.196 -4.34812 -4.79111 0
M  V30 1926 N 180.328 1.1314 -1.09713 0
M  V30 1927 C 181.258 2.20748 -0.761102 0
M  V30 1928 C 182.239 1.68061 0.262566 0
M  V30 1929 O 183.424 1.93765 0.129977 0
M  V30 1930 C 180.554 3.46812 -0.184054 0
M  V30 1931 C 179.508 4.12606 -1.13757 0
M  V30 1932 C 178.834 5.33031 -0.422083 0
M  V30 1933 C 180.134 4.59603 -2.48118 0
M  V30 1934 H 181.828 2.49113 -1.66082 0
M  V30 1935 H 179.374 1.19734 -0.799987 0
M  V30 1936 H 181.327 4.21353 0.0631215 0
M  V30 1937 H 180.051 3.17851 0.750868 0
M  V30 1938 H 178.71 3.40036 -1.37007 0
M  V30 1939 H 178.358 5.00335 0.517072 0
M  V30 1940 H 178.058 5.77999 -1.05788 0
M  V30 1941 H 179.582 6.10325 -0.183277 0
M  V30 1942 H 180.996 5.25552 -2.29059 0
M  V30 1943 H 179.393 5.15321 -3.07514 0
M  V30 1944 H 180.463 3.73971 -3.08665 0
M  V30 1945 N 181.806 0.884767 1.30421 0
M  V30 1946 C 183.034 0.518044 2.0031 0
M  V30 1947 C 183.449 -0.893408 1.66324 0
M  V30 1948 O 182.806 -1.5875 0.900262 0
M  V30 1949 C 182.857 0.682997 3.54989 0
M  V30 1950 O 182.578 2.03888 3.87764 0
M  V30 1951 C 184.079 0.31924 4.42149 0
M  V30 1952 H 181.299 0.200265 0.640418 0
M  V30 1953 H 183.843 1.19001 1.6631 0
M  V30 1954 H 181.998 0.0584052 3.87356 0
M  V30 1955 H 182.412 2.05735 4.82466 0
M  V30 1956 H 183.886 0.485555 5.4986 0
M  V30 1957 H 184.363 -0.742717 4.32875 0
M  V30 1958 H 184.969 0.920147 4.15227 0
M  V30 1959 N 183.284 -1.43765 0.645699 0
M  V30 1960 C 184.214 -2.33471 -0.0370477 0
M  V30 1961 C 185.195 -1.49042 -0.819779 0
M  V30 1962 O 186.38 -1.77726 -0.782758 0
M  V30 1963 C 183.51 -3.32311 -1.0093 0
M  V30 1964 C 182.464 -4.2667 -0.337201 0
M  V30 1965 C 181.79 -5.1549 -1.42037 0
M  V30 1966 C 183.09 -5.16657 0.765706 0
M  V30 1967 H 184.784 -2.90809 0.712069 0
M  V30 1968 H 182.33 -1.39834 0.343876 0
M  V30 1969 H 184.283 -3.9396 -1.49578 0
M  V30 1970 H 183.007 -2.73213 -1.78948 0
M  V30 1971 H 181.666 -3.66374 0.128771 0
M  V30 1972 H 181.314 -4.52735 -2.1918 0
M  V30 1973 H 181.014 -5.79438 -0.975966 0
M  V30 1974 H 182.538 -5.80012 -1.90838 0
M  V30 1975 H 183.952 -5.72158 0.361702 0
M  V30 1976 H 182.349 -5.89286 1.13413 0
M  V30 1977 H 183.419 -4.56796 1.62683 0
M  V30 1978 N 184.763 -0.387143 -1.52771 0
M  V30 1979 C 185.693 0.440551 -2.29306 0
M  V30 1980 C 186.674 1.06535 -1.32606 0
M  V30 1981 O 187.859 1.07853 -1.61497 0
M  V30 1982 C 184.989 1.56919 -3.09829 0
M  V30 1983 C 183.943 1.07054 -4.14395 0
M  V30 1984 C 183.269 2.29109 -4.83129 0
M  V30 1985 C 184.569 0.140015 -5.22112 0
M  V30 1986 H 186.263 -0.198026 -2.98744 0
M  V30 1987 H 183.809 -0.09668 -1.43675 0
M  V30 1988 H 185.762 2.15503 -3.62128 0
M  V30 1989 H 184.486 2.23532 -2.3812 0
M  V30 1990 H 183.145 0.507247 -3.63074 0
M  V30 1991 H 182.793 2.94227 -4.0797 0
M  V30 1992 H 182.493 1.96406 -5.53804 0
M  V30 1993 H 184.017 2.88339 -5.38231 0
M  V30 1994 H 185.431 0.633978 -5.69784 0
M  V30 1995 H 183.828 -0.0971485 -6.00021 0
M  V30 1996 H 184.898 -0.811711 -4.78058 0
M  V30 1997 N 186.241 1.57166 -0.116904 0
M  V30 1998 C 187.466 1.999 0.55271 0
M  V30 1999 C 187.891 0.996039 1.59564 0
M  V30 2000 O 187.249 -0.032556 1.81271 0
M  V30 2001 C 187.297 3.4152 1.15742 0
M  V30 2002 O 186.401 3.44106 2.27299 0
M  V30 2003 H 185.742 0.649447 0.138258 0
M  V30 2004 H 188.272 2.03573 -0.204759 0
M  V30 2005 H 188.282 3.79684 1.49346 0
M  V30 2006 H 186.957 4.14034 0.393493 0
M  V30 2007 H 185.534 3.17759 1.9515 0
M  V30 2008 N 187.719 -0.156864 1.56817 0
M  V30 2009 C 188.996 -0.899244 1.73704 0
M  V30 2010 C 189.376 -1.99771 0.682254 0
M  V30 2011 O 188.724 -2.26515 -0.300522 0
M  V30 2012 C 188.934 -1.45075 3.17418 0
M  V30 2013 C 190.282 -1.91802 3.7881 0
M  V30 2014 O 191.306 -1.54838 3.20786 0
M  V30 2015 O 190.165 -2.5994 4.80722 0
M  V30 2016 H 187.259 -0.424267 0.709878 0
M  V30 2017 H 189.805 -0.143561 1.69092 0
M  V30 2018 H 188.577 -0.660846 3.85679 0
M  V30 2019 H 188.2 -2.27021 3.26416 0
M  V30 2020 N 189.197 -1.51736 -0.425897 0
M  V30 2021 C 190.446 -1.64201 -1.17136 0
M  V30 2022 C 190.759 -0.369705 -1.92074 0
M  V30 2023 O 191.965 -0.373898 -2.68913 0
M  V30 2024 C 190.421 -2.90035 -2.13091 0
M  V30 2025 C 190.029 -4.24312 -1.43747 0
M  V30 2026 C 191.773 -3.1186 -2.87999 0
M  V30 2027 C 189.68 -5.41285 -2.38253 0
M  V30 2028 H 188.61 -0.611624 -0.440944 0
M  V30 2029 H 191.261 -1.78212 -0.437328 0
M  V30 2030 H 189.643 -2.69684 -2.89977 0
M  V30 2031 H 190.817 -4.55086 -0.723408 0
M  V30 2032 H 189.132 -4.08456 -0.809465 0
M  V30 2033 H 191.729 -3.96427 -3.58817 0
M  V30 2034 H 192.072 -2.25403 -3.49999 0
M  V30 2035 H 192.605 -3.32605 -2.18217 0
M  V30 2036 H 189.344 -6.30037 -1.80925 0
M  V30 2037 H 188.864 -5.14872 -3.0768 0
M  V30 2038 H 190.543 -5.73694 -2.99139 0
M  V30 2039 N 190.675 0.682077 -1.42076 0
M  V30 2040 C 191.638 1.77756 -1.44691 0
M  V30 2041 C 192.638 1.5726 -0.335535 0
M  V30 2042 O 193.828 1.63686 -0.596037 0
M  V30 2043 C 190.96 3.16301 -1.27146 0
M  V30 2044 H 192.153 1.76826 -2.42224 0
M  V30 2045 H 189.706 0.891012 -1.28416 0
M  V30 2046 H 190.441 3.22862 -0.305075 0
M  V30 2047 H 190.226 3.32581 -2.07683 0
M  V30 2048 H 191.716 3.96241 -1.31843 0
M  V30 2049 N 192.153 1.28127 0.917671 0
M  V30 2050 C 193.378 1.18007 1.70555 0
M  V30 2051 C 193.803 -0.258257 1.86319 0
M  V30 2052 O 193.161 -1.1869 1.37049 0
M  V30 2053 C 193.209 1.87948 3.07746 0
M  V30 2054 O 192.313 1.18427 3.9503 0
M  V30 2055 H 191.654 0.409867 0.522403 0
M  V30 2056 H 194.184 1.69379 1.1477 0
M  V30 2057 H 194.194 1.95701 3.58001 0
M  V30 2058 H 192.869 2.92573 2.95591 0
M  V30 2059 H 191.446 1.18811 3.53466 0
M  V30 2060 N 193.631 -1.12557 1.10312 0
M  V30 2061 C 194.594 -2.16434 0.75424 0
M  V30 2062 C 195.594 -1.59278 -0.220685 0
M  V30 2063 O 196.784 -1.742 0.00230591 0
M  V30 2064 C 193.916 -3.40699 0.116987 0
M  V30 2065 H 195.109 -2.48811 1.67431 0
M  V30 2066 H 192.662 -1.27542 0.903475 0
M  V30 2067 H 193.397 -3.13921 -0.813877 0
M  V30 2068 H 193.182 -3.83459 0.818613 0
M  V30 2069 H 194.672 -4.17451 -0.111387 0
M  V30 2070 N 195.109 -0.891671 -1.2995 0
M  V30 2071 C 196.039 -0.379797 -2.30391 0
M  V30 2072 C 197.02 0.540919 -1.6127 0
M  V30 2073 O 198.205 0.453352 -1.88834 0
M  V30 2074 C 195.335 0.400654 -3.44981 0
M  V30 2075 C 194.289 -0.428905 -4.25846 0
M  V30 2076 C 193.615 0.478557 -5.32554 0
M  V30 2077 C 194.915 -1.67458 -4.94727 0
M  V30 2078 H 196.609 -1.21914 -2.73454 0
M  V30 2079 H 194.155 -0.587675 -1.31462 0
M  V30 2080 H 196.108 0.769434 -4.14316 0
M  V30 2081 H 194.832 1.27371 -3.0074 0
M  V30 2082 H 193.491 -0.779911 -3.58208 0
M  V30 2083 H 193.139 1.34951 -4.84559 0
M  V30 2084 H 192.839 -0.0727433 -5.87555 0
M  V30 2085 H 194.363 0.843705 -6.04743 0
M  V30 2086 H 195.777 -1.376 -5.56542 0
M  V30 2087 H 194.174 -2.16659 -5.59624 0
M  V30 2088 H 195.244 -2.41518 -4.20473 0
M  V30 2089 N 196.587 1.43421 -0.653314 0
M  V30 2090 C 198.003 1.56341 -0.320886 0
M  V30 2091 C 198.203 1.63696 1.17499 0
M  V30 2092 O 197.259 1.59208 1.95982 0
M  V30 2093 C 198.572 2.82424 -1.03233 0
M  V30 2094 C 200.12 2.96168 -1.01259 0
M  V30 2095 C 200.595 4.25084 -1.70492 0
M  V30 2096 N 202.086 4.31948 -1.67257 0
M  V30 2097 C 202.821 5.30466 -2.17701 0
M  V30 2098 N 202.317 6.35261 -2.76434 0
M  V30 2099 N 204.11 5.2212 -2.082 0
M  V30 2100 H 196.261 1.3689 -1.62403 0
M  V30 2101 H 198.524 0.657455 -0.682977 0
M  V30 2102 H 198.23 2.83053 -2.08744 0
M  V30 2103 H 198.104 3.72653 -0.583948 0
M  V30 2104 H 200.491 2.9508 0.0341235 0
M  V30 2105 H 200.572 2.07229 -1.49966 0
M  V30 2106 H 200.216 4.26932 -2.7512 0
M  V30 2107 H 200.146 5.1292 -1.19251 0
M  V30 2108 H 202.637 3.56838 -1.24398 0
M  V30 2109 H 202.95 7.06754 -3.12601 0
M  V30 2110 H 201.295 6.35884 -2.80495 0
M  V30 2111 H 204.486 4.39166 -1.62021 0
M  V30 2112 H 204.659 5.98739 -2.47822 0
M  V30 2113 N 198.065 0.39524 1.52563 0
M  V30 2114 C 199.295 -0.184675 2.05773 0
M  V30 2115 C 199.703 -1.40571 1.26635 0
M  V30 2116 O 199.046 -1.81105 0.30769 0
M  V30 2117 C 199.108 -0.613551 3.54226 0
M  V30 2118 C 198.772 0.49484 4.54313 0
M  V30 2119 C 199.769 1.3541 5.01956 0
M  V30 2120 C 197.454 0.663565 4.97898 0
M  V30 2121 C 199.448 2.36716 5.91814 0
M  V30 2122 C 197.135 1.67996 5.87555 0
M  V30 2123 C 198.133 2.53017 6.34406 0
M  V30 2124 O 197.821 3.52917 7.22291 0
M  V30 2125 H 197.553 -0.030077 0.675331 0
M  V30 2126 H 200.107 0.560708 1.97599 0
M  V30 2127 H 198.337 -1.411 3.60038 0
M  V30 2128 H 200.026 -1.11981 3.90148 0
M  V30 2129 H 200.792 1.23509 4.6901 0
M  V30 2130 H 196.671 0.0114913 4.60999 0
M  V30 2131 H 200.215 3.03113 6.28306 0
M  V30 2132 H 196.112 1.79933 6.19915 0
M  V30 2133 H 196.88 3.48996 7.40367 0
M  V30 2134 N 199.544 -1.57102 0.125237 0
M  V30 2135 C 200.474 -2.18659 -0.819174 0
M  V30 2136 C 201.455 -1.12843 -1.27281 0
M  V30 2137 O 202.64 -1.41104 -1.33429 0
M  V30 2138 C 199.77 -2.79096 -2.06695 0
M  V30 2139 C 198.724 -3.90548 -1.75088 0
M  V30 2140 C 198.05 -4.37821 -3.06948 0
M  V30 2141 C 199.35 -5.12356 -1.01435 0
M  V30 2142 H 201.044 -2.9783 -0.306202 0
M  V30 2143 H 198.59 -1.4326 -0.145839 0
M  V30 2144 H 200.543 -3.2082 -2.73226 0
M  V30 2145 H 199.267 -1.97223 -2.60328 0
M  V30 2146 H 197.926 -3.49409 -1.10944 0
M  V30 2147 H 197.574 -3.52799 -3.58527 0
M  V30 2148 H 197.274 -5.12982 -2.86571 0
M  V30 2149 H 198.798 -4.822 -3.74587 0
M  V30 2150 H 200.212 -5.5106 -1.58132 0
M  V30 2151 H 198.609 -5.9314 -0.911319 0
M  V30 2152 H 199.679 -4.849 -0.00218681 0
M  V30 2153 N 201.022 0.148545 -1.56898 0
M  V30 2154 C 201.972 1.1886 -1.94567 0
M  V30 2155 C 202.956 1.3863 -0.816735 0
M  V30 2156 O 204.148 1.40218 -1.08018 0
M  V30 2157 C 201.277 2.52262 -2.32849 0
M  V30 2158 C 200.363 2.36092 -3.52309 0
M  V30 2159 N 200.754 1.89674 -4.6889 0
M  V30 2160 C 199.052 2.66848 -3.57363 0
M  V30 2161 C 199.753 1.86511 -5.50989 0
M  V30 2162 N 198.729 2.29766 -4.92655 0
M  V30 2163 H 202.531 0.821793 -2.82177 0
M  V30 2164 H 200.045 0.356615 -1.58436 0
M  V30 2165 H 202.042 3.27447 -2.58039 0
M  V30 2166 H 200.702 2.89727 -1.46589 0
M  V30 2167 H 201.713 1.59663 -4.92674 0
M  V30 2168 H 198.39 3.08198 -2.81639 0
M  V30 2169 H 199.78 1.52128 -6.54452 0
M  V30 2170 N 202.5 1.5196 0.417844 0
M  V30 2171 C 203.41 1.77554 1.53336 0
M  V30 2172 C 204.426 0.660655 1.6097 0
M  V30 2173 O 205.602 0.945099 1.77848 0
M  V30 2174 C 202.667 1.91291 2.89152 0
M  V30 2175 C 201.728 3.15183 2.91475 0
M  V30 2176 C 200.961 3.28256 4.20813 0
M  V30 2177 O 201.184 2.46798 5.14244 0
M  V30 2178 O 200.118 4.21356 4.29817 0
M  V30 2179 H 203.944 2.7222 1.34647 0
M  V30 2180 H 201.529 1.36698 0.602828 0
M  V30 2181 H 203.411 2.02199 3.69721 0
M  V30 2182 H 202.086 0.998129 3.07927 0
M  V30 2183 H 200.993 3.09739 2.09791 0
M  V30 2184 H 202.326 4.06414 2.77648 0
M  V30 2185 N 203.978 -0.674533 1.42435 0
M  V30 2186 C 204.926 -1.80934 1.46169 0
M  V30 2187 C 205.92 -1.66006 0.3374 0
M  V30 2188 O 207.126 -1.72611 0.510425 0
M  V30 2189 H 203.501 -0.596594 0.457798 0
M  V30 2190 H 205.472 -1.74903 2.41767 0
M  V30 2191 C 204.221 -3.19088 1.38123 0
M  V30 2192 H 203.544 -3.31203 2.23931 0
M  V30 2193 H 204.984 -3.9851 1.44797 0
M  V30 2194 C 203.443 -3.36763 0.0960517 0
M  V30 2195 O 203.973 -3.92581 -0.851073 0
M  V30 2196 N 202.179 -2.90597 0.0131186 0
M  V30 2197 H 201.726 -2.45359 0.784639 0
M  V30 2198 H 201.684 -3.028 -0.846133 0
M  V30 2199 N 205.456 -1.28612 -0.910864 0
M  V30 2200 C 206.872 -1.06381 -1.18976 0
M  V30 2201 C 207.072 0.191998 -2.00583 0
M  V30 2202 O 206.128 0.892869 -2.36187 0
M  V30 2203 C 207.441 -2.31295 -1.92154 0
M  V30 2204 C 208.989 -2.36503 -2.05025 0
M  V30 2205 C 209.464 -3.61191 -2.81612 0
M  V30 2206 N 210.955 -3.61847 -2.89172 0
M  V30 2207 C 211.69 -4.55004 -3.4894 0
M  V30 2208 N 211.186 -5.58482 -4.09963 0
M  V30 2209 N 212.979 -4.42594 -3.46506 0
M  V30 2210 H 205.13 -2.09221 -0.366094 0
M  V30 2211 H 207.393 -0.921003 -0.224629 0
M  V30 2212 H 207.099 -3.228 -1.39618 0
M  V30 2213 H 206.973 -2.37934 -2.9269 0
M  V30 2214 H 209.36 -1.45494 -2.5674 0
M  V30 2215 H 209.441 -2.33857 -1.03657 0
M  V30 2216 H 209.085 -4.52545 -2.30576 0
M  V30 2217 H 209.015 -3.61092 -3.83302 0
M  V30 2218 H 211.506 -2.87022 -2.45819 0
M  V30 2219 H 211.819 -6.25704 -4.53557 0
M  V30 2220 H 210.164 -5.62305 -4.08459 0
M  V30 2221 H 213.355 -3.60953 -2.98045 0
M  V30 2222 H 213.528 -5.15381 -3.92793 0
M  V30 2223 N 206.934 1.1197 -1.10907 0
M  V30 2224 C 208.183 1.82947 -0.849302 0
M  V30 2225 C 208.496 1.85275 0.627112 0
M  V30 2226 O 209.702 2.52296 1.00295 0
M  V30 2227 C 208.158 3.28529 -1.46959 0
M  V30 2228 C 207.766 3.34546 -2.97965 0
M  V30 2229 C 209.51 4.04443 -1.28942 0
M  V30 2230 C 207.417 4.74491 -3.53004 0
M  V30 2231 H 206.347 0.685477 -0.314065 0
M  V30 2232 H 208.998 1.2604 -1.33365 0
M  V30 2233 H 207.38 3.85333 -0.912917 0
M  V30 2234 H 208.554 2.87654 -3.59989 0
M  V30 2235 H 206.869 2.72108 -3.15192 0
M  V30 2236 H 209.466 5.07787 -1.67502 0
M  V30 2237 H 209.809 4.15656 -0.231456 0
M  V30 2238 H 210.342 3.5401 -1.81443 0
M  V30 2239 H 207.081 4.68474 -4.58489 0
M  V30 2240 H 206.601 5.21816 -2.9575 0
M  V30 2241 H 208.28 5.4344 -3.51115 0
M  V30 2242 N 208.412 0.89855 1.29475 0
M  V30 2243 C 209.661 0.519863 1.94885 0
M  V30 2244 C 209.974 -0.9383 1.71625 0
M  V30 2245 O 211.18 -1.42445 2.31131 0
M  V30 2246 C 209.636 0.878836 3.49005 0
M  V30 2247 C 209.244 2.35569 3.81066 0
M  V30 2248 C 210.988 0.570004 4.20656 0
M  V30 2249 C 208.895 2.65558 5.28425 0
M  V30 2250 H 207.825 0.190692 0.729488 0
M  V30 2251 H 210.476 1.09539 1.47219 0
M  V30 2252 H 208.858 0.232253 3.95318 0
M  V30 2253 H 210.032 3.04773 3.45616 0
M  V30 2254 H 208.347 2.63343 3.22552 0
M  V30 2255 H 210.944 0.770925 5.29113 0
M  V30 2256 H 211.287 -0.491404 4.1339 0
M  V30 2257 H 211.82 1.17438 3.8007 0
M  V30 2258 H 208.559 3.70493 5.40754 0
M  V30 2259 H 208.079 2.00977 5.65127 0
M  V30 2260 H 209.758 2.51765 5.96006 0
M  V30 2261 N 209.89 -1.43072 0.660911 0
M  V30 2262 C 210.84 -2.27948 -0.04847 0
M  V30 2263 C 211.824 -1.40325 -0.787246 0
M  V30 2264 O 213.016 -1.63893 -0.668446 0
M  V30 2265 C 210.145 -3.28143 -1.00881 0
M  V30 2266 C 209.231 -4.23252 -0.268108 0
M  V30 2267 N 209.622 -5.00656 0.719528 0
M  V30 2268 C 207.92 -4.43092 -0.508493 0
M  V30 2269 C 208.621 -5.70019 1.15988 0
M  V30 2270 N 207.597 -5.41364 0.492584 0
M  V30 2271 H 211.399 -2.85213 0.709279 0
M  V30 2272 H 208.913 -1.54869 0.488822 0
M  V30 2273 H 210.91 -3.87736 -1.53188 0
M  V30 2274 H 209.57 -2.7244 -1.76654 0
M  V30 2275 H 210.581 -5.06115 1.09855 0
M  V30 2276 H 207.258 -3.98449 -1.24679 0
M  V30 2277 H 208.648 -6.4214 1.97751 0
M  V30 2278 N 211.368 -0.403325 -1.52352 0
M  V30 2279 C 212.784 -0.0539281 -1.59509 0
M  V30 2280 C 212.984 1.43307 -1.41652 0
M  V30 2281 O 212.04 2.19924 -1.24056 0
M  V30 2282 C 213.353 -0.543654 -2.95745 0
M  V30 2283 C 214.901 -0.501125 -3.08962 0
M  V30 2284 C 215.376 -0.967267 -4.47669 0
M  V30 2285 N 216.867 -0.923849 -4.53893 0
M  V30 2286 C 217.602 -1.25578 -5.5948 0
M  V30 2287 N 217.098 -1.65889 -6.72646 0
M  V30 2288 N 218.891 -1.17613 -5.49658 0
M  V30 2289 H 211.042 -1.37123 -1.62206 0
M  V30 2290 H 213.305 -0.56294 -0.76276 0
M  V30 2291 H 213.011 -1.58275 -3.14073 0
M  V30 2292 H 212.885 0.0498042 -3.77167 0
M  V30 2293 H 215.272 0.528909 -2.90321 0
M  V30 2294 H 215.353 -1.13056 -2.2946 0
M  V30 2295 H 214.997 -1.9956 -4.67053 0
M  V30 2296 H 214.927 -0.314698 -5.25659 0
M  V30 2297 H 217.418 -0.627403 -3.72655 0
M  V30 2298 H 217.731 -1.89543 -7.49195 0
M  V30 2299 H 216.076 -1.69787 -6.73942 0
M  V30 2300 H 219.267 -0.860115 -4.6013 0
M  V30 2301 H 219.44 -1.43812 -6.3184 0
M  V30 2302 N 212.846 1.57033 -0.133567 0
M  V30 2303 C 214.123 1.87256 0.56522 0
M  V30 2304 C 214.503 1.03726 1.83859 0
M  V30 2305 O 213.851 0.120247 2.28183 0
M  V30 2306 C 214.061 3.3865 0.843636 0
M  V30 2307 C 215.409 4.07574 1.19032 0
M  V30 2308 O 216.433 3.43752 0.933429 0
M  V30 2309 O 215.292 5.20259 1.67312 0
M  V30 2310 H 212.386 0.775678 0.286796 0
M  V30 2311 H 214.932 1.68855 -0.169168 0
M  V30 2312 H 213.704 3.91257 -0.0581149 0
M  V30 2313 H 213.327 3.62532 1.63268 0
M  V30 2314 N 214.325 -0.140222 1.56975 0
M  V30 2315 C 215.255 -1.17456 2.01808 0
M  V30 2316 C 216.236 -1.44415 0.898794 0
M  V30 2317 O 217.421 -1.5522 1.16707 0
M  V30 2318 C 214.551 -2.50607 2.40444 0
M  V30 2319 C 213.505 -2.38155 3.55621 0
M  V30 2320 C 212.831 -3.76078 3.80091 0
M  V30 2321 C 214.131 -1.85991 4.88062 0
M  V30 2322 H 215.825 -0.801743 2.88466 0
M  V30 2323 H 213.371 -0.38422 1.38779 0
M  V30 2324 H 215.324 -3.23197 2.7041 0
M  V30 2325 H 214.048 -2.89737 1.50732 0
M  V30 2326 H 212.707 -1.68016 3.25832 0
M  V30 2327 H 212.355 -4.12656 2.87618 0
M  V30 2328 H 212.055 -3.68606 4.57606 0
M  V30 2329 H 213.579 -4.50206 4.12488 0
M  V30 2330 H 214.993 -2.4838 5.16701 0
M  V30 2331 H 213.39 -1.89393 5.6943 0
M  V30 2332 H 214.46 -0.816023 4.77984 0
M  V30 2333 N 215.803 -1.52179 -0.40978 0
M  V30 2334 C 216.75 -1.75475 -1.49924 0
M  V30 2335 C 217.72 -0.597175 -1.54994 0
M  V30 2336 O 218.905 -0.834655 -1.71575 0
M  V30 2337 C 216.045 -1.9107 -2.87378 0
M  V30 2338 C 215.158 -3.18717 -2.91622 0
M  V30 2339 C 214.293 -3.24747 -4.20372 0
M  V30 2340 C 213.332 -4.46598 -4.18588 0
M  V30 2341 N 212.469 -4.50025 -5.38908 0
M  V30 2342 H 217.309 -2.68458 -1.29361 0
M  V30 2343 H 214.846 -1.33024 -0.627934 0
M  V30 2344 H 216.804 -1.98096 -3.6717 0
M  V30 2345 H 215.434 -1.01469 -3.06437 0
M  V30 2346 H 214.486 -3.20866 -2.04326 0
M  V30 2347 H 215.798 -4.08544 -2.86169 0
M  V30 2348 H 214.952 -3.30841 -5.08556 0
M  V30 2349 H 213.691 -2.32857 -4.28519 0
M  V30 2350 H 212.696 -4.40652 -3.28794 0
M  V30 2351 H 213.921 -5.39783 -4.12081 0
M  V30 2352 H 211.867 -3.61017 -5.47725 0
M  V30 2353 H 211.784 -5.33697 -5.35447 0
M  V30 2354 H 213.052 -4.60347 -6.29048 0
M  V30 2355 N 217.281 0.66697 -1.42791 0
M  V30 2356 C 218.692 1.2478 -1.38877 0
M  V30 2357 C 219.043 1.96012 -0.0859426 0
M  V30 2358 O 218.168 2.00463 0.815081 0
M  V30 2359 C 218.763 2.26938 -2.51564 0
M  V30 2360 C 217.322 2.80529 -2.50959 0
M  V30 2361 C 216.469 1.54965 -2.29959 0
M  V30 2362 H 219.42 0.459853 -1.51892 0
M  V30 2363 H 219.441 3.08834 -2.22265 0
M  V30 2364 H 218.953 1.75065 -3.46372 0
M  V30 2365 H 217.054 3.36502 -1.59991 0
M  V30 2366 H 217.167 3.29012 -3.48265 0
M  V30 2367 H 215.531 1.81817 -1.78366 0
M  V30 2368 H 216.314 1.05047 -3.26833 0
M  V30 2369 N 218.759 1.29093 0.90403 0
M  V30 2370 C 219.669 1.15727 2.0407 0
M  V30 2371 C 220.685 0.0815308 1.73809 0
M  V30 2372 O 221.861 0.292749 1.99261 0
M  V30 2373 C 218.926 0.830424 3.36608 0
M  V30 2374 C 217.987 1.98955 3.80415 0
M  V30 2375 C 217.22 1.6782 5.06628 0
M  V30 2376 O 217.443 0.597105 5.67266 0
M  V30 2377 O 216.377 2.52486 5.46383 0
M  V30 2378 H 220.203 2.11171 2.18267 0
M  V30 2379 H 217.788 1.08504 1.027 0
M  V30 2380 H 219.67 0.662521 4.16159 0
M  V30 2381 H 218.345 -0.0942678 3.23563 0
M  V30 2382 H 217.252 2.21267 3.01648 0
M  V30 2383 H 218.585 2.89529 3.98037 0
M  V30 2384 N 220.237 -1.11381 1.11499 0
M  V30 2385 C 221.185 -2.19522 0.768956 0
M  V30 2386 C 222.179 -1.67693 -0.239857 0
M  V30 2387 O 223.385 -1.79727 -0.0990755 0
M  V30 2388 H 219.76 -0.715711 0.230786 0
M  V30 2389 H 221.731 -2.45954 1.68964 0
M  V30 2390 C 220.48 -3.46945 0.229073 0
M  V30 2391 H 219.803 -3.8718 0.996596 0
M  V30 2392 H 221.243 -4.23993 0.0251441 0
M  V30 2393 C 219.702 -3.2042 -1.04079 0
M  V30 2394 O 220.232 -3.41178 -2.12038 0
M  V30 2395 N 218.438 -2.74151 -0.963823 0
M  V30 2396 H 217.985 -2.57459 -0.0851722 0
M  V30 2397 H 217.943 -2.56781 -1.81414 0
M  V30 2398 N 221.715 -0.905404 -1.28997 0
M  V30 2399 C 222.964 -0.530191 -1.94607 0
M  V30 2400 C 223.277 0.929185 -1.72121 0
M  V30 2401 O 224.483 1.41218 -2.31883 0
M  V30 2402 C 222.939 -0.897333 -3.48534 0
M  V30 2403 C 222.547 -2.37587 -3.79811 0
M  V30 2404 C 224.291 -0.592304 -4.20347 0
M  V30 2405 C 222.198 -2.68357 -5.27009 0
M  V30 2406 H 221.128 -0.194558 -0.728466 0
M  V30 2407 H 223.779 -1.10318 -1.46636 0
M  V30 2408 H 222.161 -0.253214 -3.9519 0
M  V30 2409 H 223.335 -3.06602 -3.43994 0
M  V30 2410 H 221.65 -2.6505 -3.2115 0
M  V30 2411 H 224.247 -0.798975 -5.28697 0
M  V30 2412 H 224.59 0.469474 -4.13644 0
M  V30 2413 H 225.123 -1.19452 -3.79442 0
M  V30 2414 H 221.862 -3.73355 -5.38782 0
M  V30 2415 H 221.382 -2.03971 -5.64053 0
M  V30 2416 H 223.061 -2.54922 -5.94663 0
M  V30 2417 N 223.193 1.4272 -0.668489 0
M  V30 2418 C 224.439 2.01923 -0.188419 0
M  V30 2419 C 224.772 1.52704 1.19979 0
M  V30 2420 O 224.047 0.726566 1.8042 0
M  V30 2421 C 224.33 3.59451 -0.216085 0
M  V30 2422 C 224.183 4.18864 -1.6393 0
M  V30 2423 C 225.502 4.37903 0.439179 0
M  V30 2424 H 222.621 0.733674 -0.0699412 0
M  V30 2425 H 225.263 1.69822 -0.852076 0
M  V30 2426 H 223.413 3.86929 0.349012 0
M  V30 2427 H 225.085 4.02362 -2.25616 0
M  V30 2428 H 223.328 3.74933 -2.18193 0
M  V30 2429 H 223.999 5.27987 -1.61039 0
M  V30 2430 H 226.475 4.16079 -0.0417878 0
M  V30 2431 H 225.351 5.47519 0.389157 0
M  V30 2432 H 225.612 4.15303 1.51577 0
M  V30 2433 N 224.671 0.411399 1.52136 0
M  V30 2434 C 225.601 -0.404015 2.29978 0
M  V30 2435 C 226.582 -1.04412 1.34284 0
M  V30 2436 O 227.767 -1.0527 1.63192 0
M  V30 2437 C 224.897 -1.5197 3.12286 0
M  V30 2438 C 223.851 -1.00448 4.16046 0
M  V30 2439 C 223.177 -2.21393 4.86712 0
M  V30 2440 C 224.477 -0.0569336 5.22269 0
M  V30 2441 H 226.171 0.245529 2.98392 0
M  V30 2442 H 223.717 0.119525 1.43503 0
M  V30 2443 H 225.67 -2.09715 3.6551 0
M  V30 2444 H 224.394 -2.19716 2.41646 0
M  V30 2445 H 223.053 -0.449421 3.63835 0
M  V30 2446 H 222.701 -2.87699 4.12599 0
M  V30 2447 H 222.401 -1.87571 5.56858 0
M  V30 2448 H 223.925 -2.7974 5.4275 0
M  V30 2449 H 225.339 -0.54325 5.7072 0
M  V30 2450 H 223.736 0.192594 5.99791 0
M  V30 2451 H 224.806 0.887663 4.76706 0
M  V30 2452 N 226.149 -1.5696 0.141893 0
M  V30 2453 C 227.081 -2.13619 -0.830627 0
M  V30 2454 C 228.094 -1.08439 -1.21428 0
M  V30 2455 O 229.283 -1.35734 -1.15925 0
M  V30 2456 C 226.383 -2.63978 -2.12529 0
M  V30 2457 C 225.556 -3.93504 -1.9098 0
M  V30 2458 C 224.615 -4.29225 -3.04388 0
M  V30 2459 O 223.641 -4.97641 -2.76302 0
M  V30 2460 N 224.843 -3.88393 -4.31429 0
M  V30 2461 H 227.608 -2.97691 -0.34641 0
M  V30 2462 H 225.169 -1.61846 -0.0418375 0
M  V30 2463 H 227.161 -2.84891 -2.87436 0
M  V30 2464 H 225.731 -1.84659 -2.52229 0
M  V30 2465 H 224.951 -3.81269 -1.00139 0
M  V30 2466 H 226.239 -4.78154 -1.73914 0
M  V30 2467 H 225.637 -3.33257 -4.57117 0
M  V30 2468 H 224.194 -4.14368 -5.03133 0
M  V30 2469 N 227.627 0.131896 -1.57047 0
M  V30 2470 C 228.559 1.1878 -1.9602 0
M  V30 2471 C 229.572 1.38363 -0.857875 0
M  V30 2472 O 230.761 1.37666 -1.13623 0
M  V30 2473 C 227.861 2.55008 -2.23213 0
M  V30 2474 C 227.034 2.56201 -3.54513 0
M  V30 2475 C 226.093 3.7408 -3.70069 0
M  V30 2476 O 225.119 3.58258 -4.42312 0
M  V30 2477 N 226.321 4.92137 -3.07866 0
M  V30 2478 H 229.086 0.85639 -2.87204 0
M  V30 2479 H 226.647 0.321309 -1.5868 0
M  V30 2480 H 228.639 3.32404 -2.30846 0
M  V30 2481 H 227.209 2.80382 -1.3822 0
M  V30 2482 H 226.429 1.64613 -3.58185 0
M  V30 2483 H 227.717 2.54043 -4.4084 0
M  V30 2484 H 227.115 5.07895 -2.49116 0
M  V30 2485 H 225.672 5.67254 -3.21039 0
M  V30 2486 N 229.106 1.52395 0.401703 0
M  V30 2487 C 230.354 1.66488 1.14569 0
M  V30 2488 C 230.675 0.400897 1.90835 0
M  V30 2489 O 229.945 -0.584415 1.8698 0
M  V30 2490 H 228.525 0.613672 0.425929 0
M  V30 2491 H 231.187 1.89464 0.457093 0
M  V30 2492 H 230.283 2.50942 1.85566 0
M  V30 2493 N 230.584 -0.659388 1.43143 0
M  V30 2494 C 231.494 -1.80167 1.50256 0
M  V30 2495 C 232.51 -1.69571 0.390106 0
M  V30 2496 O 233.686 -1.90849 0.643319 0
M  V30 2497 C 230.751 -3.16409 1.41725 0
M  V30 2498 C 229.812 -3.38848 2.63591 0
M  V30 2499 C 229.045 -4.68591 2.55458 0
M  V30 2500 O 229.268 -5.47532 1.59891 0
M  V30 2501 O 228.202 -4.92614 3.45854 0
M  V30 2502 H 232.028 -1.77121 2.46702 0
M  V30 2503 H 229.613 -0.817092 1.25076 0
M  V30 2504 H 231.495 -3.9768 1.39387 0
M  V30 2505 H 230.17 -3.20059 0.484118 0
M  V30 2506 H 229.077 -2.57366 2.71502 0
M  V30 2507 H 230.41 -3.4004 3.55856 0
M  V30 2508 N 232.062 -1.29571 -0.897171 0
M  V30 2509 C 232.994 -1.10724 -2.00681 0
M  V30 2510 C 234.007 -0.0540026 -1.6271 0
M  V30 2511 O 235.196 -0.298783 -1.75982 0
M  V30 2512 C 232.296 -0.663912 -3.32333 0
M  V30 2513 C 231.469 -1.79622 -3.98816 0
M  V30 2514 C 230.528 -1.34349 -5.0876 0
M  V30 2515 O 229.554 -2.04864 -5.31055 0
M  V30 2516 N 230.756 -0.215764 -5.80099 0
M  V30 2517 H 233.521 -2.06291 -2.17403 0
M  V30 2518 H 231.082 -1.21544 -1.06951 0
M  V30 2519 H 233.074 -0.344295 -4.03233 0
M  V30 2520 H 231.644 0.199375 -3.11964 0
M  V30 2521 H 230.864 -2.28459 -3.21248 0
M  V30 2522 H 232.152 -2.55535 -4.39976 0
M  V30 2523 H 231.55 0.372091 -5.64475 0
M  V30 2524 H 230.107 0.0444707 -6.51785 0
M  V30 2525 N 233.54 1.10788 -1.12088 0
M  V30 2526 C 234.956 1.34691 -0.856186 0
M  V30 2527 C 235.156 1.94791 0.515615 0
M  V30 2528 O 234.212 2.18524 1.26505 0
M  V30 2529 C 235.525 2.27208 -1.9697 0
M  V30 2530 C 237.073 2.40755 -2.00016 0
M  V30 2531 C 237.548 3.36598 -3.1059 0
M  V30 2532 N 239.039 3.44164 -3.10008 0
M  V30 2533 C 239.774 4.18284 -3.92206 0
M  V30 2534 N 239.27 4.95322 -4.84384 0
M  V30 2535 N 241.063 4.13865 -3.80357 0
M  V30 2536 H 233.214 0.70144 -2.00483 0
M  V30 2537 H 235.477 0.371405 -0.872217 0
M  V30 2538 H 235.183 1.90251 -2.958 0
M  V30 2539 H 235.057 3.27485 -1.87172 0
M  V30 2540 H 237.444 2.76982 -1.01808 0
M  V30 2541 H 237.525 1.40305 -2.13888 0
M  V30 2542 H 237.169 3.01096 -4.09028 0
M  V30 2543 H 237.099 4.36918 -2.93956 0
M  V30 2544 H 239.59 2.8922 -2.43228 0
M  V30 2545 H 239.903 5.49267 -5.43623 0
M  V30 2546 H 238.248 4.94459 -4.884 0
M  V30 2547 H 241.439 3.52773 -3.07683 0
M  V30 2548 H 241.612 4.71372 -4.44649 0
M  V30 2549 N 235.018 0.912232 1.28515 0
M  V30 2550 C 235.948 0.416403 2.29757 0
M  V30 2551 C 236.929 -0.515194 1.6211 0
M  V30 2552 O 238.114 -0.423253 1.89532 0
M  V30 2553 C 235.244 -0.34572 3.45575 0
M  V30 2554 C 234.198 0.496599 4.25109 0
M  V30 2555 C 233.524 -0.393771 5.33248 0
M  V30 2556 C 234.824 1.75307 4.92001 0
M  V30 2557 H 236.518 1.26249 2.7148 0
M  V30 2558 H 234.064 0.608515 1.30511 0
M  V30 2559 H 236.017 -0.703422 4.15488 0
M  V30 2560 H 234.741 -1.2257 3.02728 0
M  V30 2561 H 233.4 0.8368 3.56922 0
M  V30 2562 H 233.048 -1.27225 4.86644 0
M  V30 2563 H 232.748 0.166209 5.87365 0
M  V30 2564 H 234.272 -0.747389 6.06009 0
M  V30 2565 H 235.686 1.46437 5.54283 0
M  V30 2566 H 234.083 2.25534 5.56106 0
M  V30 2567 H 235.153 2.48176 4.16577 0
M  V30 2568 N 236.496 -1.42363 0.676048 0
M  V30 2569 C 237.745 -2.00745 0.196037 0
M  V30 2570 C 238.058 -1.54083 -1.20489 0
M  V30 2571 O 239.264 -2.04891 -1.78134 0
M  V30 2572 C 237.72 -3.58651 0.299616 0
M  V30 2573 C 237.328 -4.143 1.70468 0
M  V30 2574 C 239.072 -4.24326 -0.121619 0
M  V30 2575 C 236.979 -5.64574 1.76096 0
M  V30 2576 H 235.909 -0.750787 0.0695301 0
M  V30 2577 H 238.56 -1.63072 0.841412 0
M  V30 2578 H 236.942 -3.93833 -0.413673 0
M  V30 2579 H 238.116 -3.90575 2.44515 0
M  V30 2580 H 236.431 -3.61081 2.07387 0
M  V30 2581 H 239.028 -5.34607 -0.0997362 0
M  V30 2582 H 239.371 -3.99897 -1.15708 0
M  V30 2583 H 239.904 -3.94108 0.540706 0
M  V30 2584 H 236.643 -5.93804 2.77628 0
M  V30 2585 H 236.163 -5.90286 1.06406 0
M  V30 2586 H 237.842 -6.29013 1.51496 0
M  V30 2587 N 237.974 -0.419461 -1.51915 0
M  V30 2588 C 238.924 0.418496 -2.24126 0
M  V30 2589 C 239.908 1.00495 -1.25656 0
M  V30 2590 O 241.1 0.926058 -1.50842 0
M  V30 2591 C 238.229 1.52899 -3.07371 0
M  V30 2592 C 237.315 0.952797 -4.13258 0
M  V30 2593 N 237.706 0.104175 -5.05693 0
M  V30 2594 C 236.004 1.22224 -4.28926 0
M  V30 2595 C 236.705 -0.21752 -5.81293 0
M  V30 2596 N 235.681 0.394293 -5.42168 0
M  V30 2597 H 239.483 -0.236048 -2.92951 0
M  V30 2598 H 236.997 -0.230481 -1.60756 0
M  V30 2599 H 238.994 2.14199 -3.57665 0
M  V30 2600 H 237.654 2.18605 -2.40088 0
M  V30 2601 H 238.665 -0.260924 -5.17242 0
M  V30 2602 H 235.342 1.87812 -3.72871 0
M  V30 2603 H 236.732 -0.906992 -6.6575 0
M  V30 2604 N 239.452 1.56882 -0.150215 0
M  V30 2605 C 240.399 2.16922 0.788244 0
M  V30 2606 C 241.369 1.10303 1.24187 0
M  V30 2607 O 242.554 1.38359 1.31383 0
M  V30 2608 C 239.694 2.79754 2.02068 0
M  V30 2609 C 238.807 4.00775 1.61257 0
M  V30 2610 C 237.942 4.51595 2.79705 0
M  V30 2611 C 236.981 5.65074 2.35282 0
M  V30 2612 N 236.118 6.10499 3.4675 0
M  V30 2613 H 240.958 2.96779 0.269444 0
M  V30 2614 H 238.495 1.46599 0.12128 0
M  V30 2615 H 240.453 3.14329 2.74323 0
M  V30 2616 H 239.083 2.02536 2.51354 0
M  V30 2617 H 238.135 3.72158 0.787553 0
M  V30 2618 H 239.447 4.82978 1.24633 0
M  V30 2619 H 238.601 4.88242 3.60145 0
M  V30 2620 H 237.34 3.68406 3.19576 0
M  V30 2621 H 236.345 5.28 1.53283 0
M  V30 2622 H 237.57 6.50052 1.96493 0
M  V30 2623 H 235.516 5.30243 3.86236 0
M  V30 2624 H 235.433 6.87637 3.14152 0
M  V30 2625 H 236.701 6.51791 4.27537 0
M  V30 2626 N 240.93 -0.123565 1.57115 0
M  V30 2627 C 242.179 -0.830704 1.83799 0
M  V30 2628 C 242.492 -1.81259 0.735158 0
M  V30 2629 O 243.698 -2.56558 0.888278 0
M  V30 2630 C 242.154 -1.52802 3.25852 0
M  V30 2631 C 241.762 -0.587356 4.44133 0
M  V30 2632 C 243.506 -2.22056 3.61789 0
M  V30 2633 C 241.413 -1.28764 5.77212 0
M  V30 2634 H 240.343 -0.313967 0.685522 0
M  V30 2635 H 242.994 -0.0834359 1.8331 0
M  V30 2636 H 241.376 -2.32175 3.20797 0
M  V30 2637 H 242.55 0.172829 4.60476 0
M  V30 2638 H 240.865 -0.00201892 4.164 0
M  V30 2639 H 243.462 -2.75131 4.58483 0
M  V30 2640 H 243.805 -2.99644 2.88997 0
M  V30 2641 H 244.338 -1.49576 3.68608 0
M  V30 2642 H 241.077 -0.55314 6.53162 0
M  V30 2643 H 240.597 -2.01995 5.64764 0
M  V30 2644 H 242.276 -1.8221 6.20813 0
M  V30 2645 N 242.408 -1.52605 -0.393616 0
M  V30 2646 C 243.657 -1.66649 -1.13627 0
M  V30 2647 C 243.97 -0.410364 -1.91247 0
M  V30 2648 O 245.176 -0.430854 -2.68059 0
M  V30 2649 C 243.632 -2.9449 -2.06891 0
M  V30 2650 C 243.24 -4.27266 -1.34714 0
M  V30 2651 C 244.984 -3.17899 -2.81319 0
M  V30 2652 C 242.891 -5.46217 -2.26717 0
M  V30 2653 H 241.821 -0.62084 -0.427871 0
M  V30 2654 H 244.472 -1.791 -0.399428 0
M  V30 2655 H 242.854 -2.75774 -2.84191 0
M  V30 2656 H 244.028 -4.56518 -0.626714 0
M  V30 2657 H 242.343 -4.10081 -0.722643 0
M  V30 2658 H 244.94 -4.03949 -3.50328 0
M  V30 2659 H 245.283 -2.32777 -3.45139 0
M  V30 2660 H 245.816 -3.37159 -2.11113 0
M  V30 2661 H 242.555 -6.33733 -1.67521 0
M  V30 2662 H 242.075 -5.21283 -2.96689 0
M  V30 2663 H 243.754 -5.7991 -2.86903 0
M  V30 2664 N 243.887 0.651787 -1.4349 0
M  V30 2665 C 245.164 1.40909 -1.35661 0
M  V30 2666 C 245.544 2.11099 -0.00511733 0
M  V30 2667 O 244.892 2.04892 1.0115 0
M  V30 2668 C 245.102 2.3926 -2.54078 0
M  V30 2669 C 246.45 3.03217 -2.97228 0
M  V30 2670 O 247.474 2.49588 -2.54135 0
M  V30 2671 O 246.333 4.00455 -3.71885 0
M  V30 2672 H 243.427 0.629625 -0.536191 0
M  V30 2673 H 245.973 0.678575 -1.55542 0
M  V30 2674 H 244.745 1.86352 -3.44076 0
M  V30 2675 H 244.368 3.1976 -2.36303 0
M  V30 2676 N 245.365 1.30045 0.890287 0
M  V30 2677 C 246.295 1.18541 2.01172 0
M  V30 2678 C 247.276 0.0773356 1.69924 0
M  V30 2679 O 248.461 0.25845 1.92473 0
M  V30 2680 C 245.591 0.870941 3.36202 0
M  V30 2681 C 244.545 1.93637 3.81692 0
M  V30 2682 C 243.871 1.475 5.13953 0
M  V30 2683 C 245.171 3.34666 4.00994 0
M  V30 2684 H 246.865 2.12359 2.11054 0
M  V30 2685 H 244.411 1.02238 1.01407 0
M  V30 2686 H 246.364 0.777141 4.14172 0
M  V30 2687 H 245.088 -0.102926 3.26438 0
M  V30 2688 H 243.747 2.01972 3.05946 0
M  V30 2689 H 243.395 0.489551 5.00612 0
M  V30 2690 H 243.095 2.1876 5.4536 0
M  V30 2691 H 244.619 1.39489 5.94454 0
M  V30 2692 H 246.033 3.2912 4.69417 0
M  V30 2693 H 244.43 4.03966 4.43769 0
M  V30 2694 H 245.5 3.76949 3.05021 0
M  V30 2695 N 246.843 -1.10192 1.12674 0
M  V30 2696 C 248.091 -1.81845 0.881861 0
M  V30 2697 C 248.412 -1.85737 -0.593867 0
M  V30 2698 O 247.682 -1.33724 -1.4316 0
M  V30 2699 H 246.262 -0.673432 0.323261 0
M  V30 2700 H 248.924 -1.33316 1.42172 0
M  V30 2701 H 248.02 -2.85288 1.2656 0
M  V30 2702 N 248.321 -0.919034 -1.28029 0
M  V30 2703 C 249.551 -0.570143 -1.98577 0
M  V30 2704 C 249.959 0.854172 -1.68821 0
M  V30 2705 O 249.302 1.57807 -0.940351 0
M  V30 2706 C 249.364 -0.705734 -3.52505 0
M  V30 2707 C 249.028 -2.10057 -4.05863 0
M  V30 2708 C 250.025 -3.07385 -4.19298 0
M  V30 2709 C 247.71 -2.41517 -4.40426 0
M  V30 2710 C 249.704 -4.34287 -4.66555 0
M  V30 2711 C 247.391 -3.68657 -4.87376 0
M  V30 2712 C 248.389 -4.64856 -5.00398 0
M  V30 2713 O 248.077 -5.89735 -5.46322 0
M  V30 2714 H 247.809 -0.215592 -0.6407 0
M  V30 2715 H 250.363 -1.23583 -1.64062 0
M  V30 2716 H 248.593 0.0170414 -3.86696 0
M  V30 2717 H 250.282 -0.363172 -4.04272 0
M  V30 2718 H 251.048 -2.84398 -3.92865 0
M  V30 2719 H 246.927 -1.67389 -4.29537 0
M  V30 2720 H 250.471 -5.09377 -4.76635 0
M  V30 2721 H 246.368 -3.91466 -5.13249 0
M  V30 2722 H 247.136 -5.92599 -5.64596 0
M  V30 2723 N 249.799 1.42003 -0.683588 0
M  V30 2724 C 250.762 2.29191 -0.0198243 0
M  V30 2725 C 251.762 1.43773 0.72013 0
M  V30 2726 O 252.952 1.65061 0.556815 0
M  V30 2727 C 250.084 3.26435 0.982487 0
M  V30 2728 H 251.277 2.8938 -0.787345 0
M  V30 2729 H 248.83 1.49789 -0.446418 0
M  V30 2730 H 249.565 2.71203 1.77819 0
M  V30 2731 H 249.35 3.89449 0.455182 0
M  V30 2732 H 250.84 3.918 1.44508 0
M  V30 2733 N 251.277 0.427512 1.51691 0
M  V30 2734 C 252.224 -0.388867 2.275 0
M  V30 2735 C 253.194 -1.02532 1.30677 0
M  V30 2736 O 254.379 -1.0461 1.59566 0
M  V30 2737 C 251.519 -1.48954 3.11298 0
M  V30 2738 C 250.632 -0.872194 4.23104 0
M  V30 2739 C 249.767 -1.94709 4.94228 0
M  V30 2740 C 248.806 -1.30766 5.97969 0
M  V30 2741 N 247.943 -2.32349 6.62539 0
M  V30 2742 H 252.783 0.263997 2.96828 0
M  V30 2743 H 250.32 0.142033 1.46413 0
M  V30 2744 H 252.278 -2.13887 3.58201 0
M  V30 2745 H 250.908 -2.11217 2.44105 0
M  V30 2746 H 249.96 -0.111419 3.80237 0
M  V30 2747 H 251.272 -0.365264 4.97461 0
M  V30 2748 H 250.426 -2.67327 5.44629 0
M  V30 2749 H 249.165 -2.48773 4.1948 0
M  V30 2750 H 248.17 -0.566902 5.4687 0
M  V30 2751 H 249.395 -0.774483 6.74669 0
M  V30 2752 H 247.341 -2.85511 5.90609 0
M  V30 2753 H 247.258 -1.8652 7.3263 0
M  V30 2754 H 248.526 -3.04481 7.17574 0
M  V30 2755 N 252.755 -1.56801 0.158532 0
M  V30 2756 C 253.665 -2.20916 -0.789518 0
M  V30 2757 C 254.681 -1.1969 -1.26294 0
M  V30 2758 O 255.857 -1.52308 -1.31773 0
M  V30 2759 C 252.922 -2.82727 -2.00665 0
M  V30 2760 C 251.983 -3.99114 -1.58134 0
M  V30 2761 C 251.216 -4.57968 -2.74045 0
M  V30 2762 O 251.439 -4.15704 -3.90572 0
M  V30 2763 O 250.373 -5.48047 -2.48855 0
M  V30 2764 H 254.199 -3.02464 -0.273681 0
M  V30 2765 H 251.784 -1.4924 -0.0690548 0
M  V30 2766 H 253.666 -3.21968 -2.71872 0
M  V30 2767 H 252.341 -2.04184 -2.51179 0
M  V30 2768 H 251.248 -3.64567 -0.839155 0
M  V30 2769 H 252.581 -4.79212 -1.12325 0
M  V30 2770 N 254.233 0.115231 -1.57178 0
M  V30 2771 C 255.163 1.1423 -2.03651 0
M  V30 2772 C 256.144 1.42967 -0.921655 0
M  V30 2773 O 257.329 1.53343 -1.19162 0
M  V30 2774 C 254.459 2.4675 -2.44401 0
M  V30 2775 C 253.413 2.32467 -3.59365 0
M  V30 2776 C 252.739 3.69984 -3.86026 0
M  V30 2777 C 254.039 1.78203 -4.90959 0
M  V30 2778 H 255.733 0.755749 -2.89705 0
M  V30 2779 H 253.279 0.362093 -1.39373 0
M  V30 2780 H 255.232 3.18854 -2.75517 0
M  V30 2781 H 253.956 2.87302 -1.55322 0
M  V30 2782 H 252.615 1.62811 -3.28463 0
M  V30 2783 H 252.263 4.08028 -2.94147 0
M  V30 2784 H 251.963 3.61279 -4.63412 0
M  V30 2785 H 253.487 4.43587 -4.19599 0
M  V30 2786 H 254.901 2.40128 -5.20587 0
M  V30 2787 H 253.298 1.8031 -5.72371 0
M  V30 2788 H 254.368 0.739876 -4.79222 0
M  V30 2789 N 255.711 1.52812 0.385517 0
M  V30 2790 C 256.988 1.5861 1.14465 0
M  V30 2791 C 257.368 0.381402 2.07626 0
M  V30 2792 O 256.716 -0.629999 2.19643 0
M  V30 2793 C 256.926 2.92664 1.90128 0
M  V30 2794 C 258.274 3.46526 2.45367 0
M  V30 2795 O 259.298 2.94562 2.0028 0
M  V30 2796 O 258.157 4.37323 3.27736 0
M  V30 2797 H 255.251 0.639855 0.523941 0
M  V30 2798 H 257.797 1.65149 0.390389 0
M  V30 2799 H 256.569 3.71788 1.22022 0
M  V30 2800 H 256.192 2.89527 2.72507 0
M  V30 2801 N 257.189 -0.644168 1.43834 0
M  V30 2802 C 258.121 -1.76955 1.45669 0
M  V30 2803 C 259.134 -1.58956 0.351666 0
M  V30 2804 O 260.323 -1.6751 0.616644 0
M  V30 2805 C 257.423 -3.14507 1.26248 0
M  V30 2806 C 256.596 -3.59083 2.49757 0
M  V30 2807 C 255.655 -4.75467 2.25427 0
M  V30 2808 O 254.681 -4.84444 2.98836 0
M  V30 2809 N 255.883 -5.66289 1.27661 0
M  V30 2810 H 258.648 -1.75856 2.42682 0
M  V30 2811 H 256.209 -0.828312 1.39106 0
M  V30 2812 H 258.201 -3.90067 1.0784 0
M  V30 2813 H 256.771 -3.10325 0.376478 0
M  V30 2814 H 255.991 -2.7387 2.8353 0
M  V30 2815 H 257.279 -3.85613 3.31934 0
M  V30 2816 H 256.677 -5.61718 0.670064 0
M  V30 2817 H 255.234 -6.41533 1.15234 0
M  V30 2818 N 258.668 -1.30515 -0.883378 0
M  V30 2819 C 259.916 -1.19194 -1.63209 0
M  V30 2820 C 260.237 0.253205 -1.93349 0
M  V30 2821 O 259.507 1.17025 -1.57105 0
M  V30 2822 H 258.087 -0.438148 -0.605009 0
M  V30 2823 H 260.749 -1.63663 -1.05832 0
M  V30 2824 H 259.845 -1.75396 -2.58153 0
M  V30 2825 N 260.146 1.09593 -1.13257 0
M  V30 2826 C 261.371 1.8604 -0.916732 0
M  V30 2827 C 261.796 1.80504 0.529146 0
M  V30 2828 O 261.154 1.18127 1.37534 0
M  V30 2829 C 261.202 3.32017 -1.40703 0
M  V30 2830 O 260.306 4.08141 -0.591153 0
M  V30 2831 H 259.647 0.576943 -0.328683 0
M  V30 2832 H 262.177 1.38405 -1.50682 0
M  V30 2833 H 262.187 3.82865 -1.4099 0
M  V30 2834 H 260.862 3.35361 -2.45979 0
M  V30 2835 H 259.439 3.67084 -0.656005 0
M  V30 2836 N 261.624 0.925811 1.2754 0
M  V30 2837 C 262.554 0.440748 2.29303 0
M  V30 2838 C 263.535 -0.497971 1.62648 0
M  V30 2839 O 264.72 -0.403126 1.8997 0
M  V30 2840 C 261.85 -0.309048 3.45922 0
M  V30 2841 C 260.804 0.54166 4.24559 0
M  V30 2842 C 260.13 -0.337191 5.33636 0
M  V30 2843 C 261.43 1.80516 4.90114 0
M  V30 2844 H 263.124 1.29121 2.70126 0
M  V30 2845 H 260.67 0.622323 1.29858 0
M  V30 2846 H 262.623 -0.659315 4.1621 0
M  V30 2847 H 261.347 -1.19352 3.04011 0
M  V30 2848 H 260.006 0.874609 3.56014 0
M  V30 2849 H 259.654 -1.22056 4.87966 0
M  V30 2850 H 259.354 0.228497 5.87156 0
M  V30 2851 H 260.878 -0.683072 6.06767 0
M  V30 2852 H 262.292 1.52307 5.52698 0
M  V30 2853 H 260.689 2.3142 5.53683 0
M  V30 2854 H 261.759 2.52581 4.13921 0
M  V30 2855 N 263.102 -1.41638 0.69111 0
M  V30 2856 C 264.342 -2.03166 0.224291 0
M  V30 2857 C 264.706 -1.53537 -1.15284 0
M  V30 2858 O 265.907 -2.0696 -1.71525 0
M  V30 2859 C 264.178 -3.56342 0.274758 0
M  V30 2860 S 265.737 -4.3864 -0.118669 0
M  V30 2861 H 262.555 -0.705188 0.0907263 0
M  V30 2862 H 265.157 -1.7314 0.907895 0
M  V30 2863 H 263.861 -3.89958 1.2791 0
M  V30 2864 H 263.392 -3.91063 -0.428142 0
M  V30 2865 H 265.407 -4.77549 -1.34764 0
M  V30 2866 N 264.58 -0.43555 -1.51462 0
M  V30 2867 C 265.808 0.130242 -2.0649 0
M  V30 2868 C 266.223 1.36614 -1.30315 0
M  V30 2869 O 265.58 1.78869 -0.362223 0
M  V30 2870 C 265.631 0.454253 -3.58635 0
M  V30 2871 O 265.352 -0.73259 -4.31931 0
M  V30 2872 C 266.853 1.07091 -4.3017 0
M  V30 2873 H 264.073 0.00871669 -0.670943 0
M  V30 2874 H 266.617 -0.614117 -1.95061 0
M  V30 2875 H 264.772 1.14851 -3.69984 0
M  V30 2876 H 265.186 -0.455787 -5.22516 0
M  V30 2877 H 266.66 1.24764 -5.37716 0
M  V30 2878 H 267.137 2.05144 -3.88346 0
M  V30 2879 H 267.743 0.416089 -4.2326 0
M  V30 2880 N 266.058 1.56714 -0.166846 0
M  V30 2881 C 267.283 2.01557 0.488833 0
M  V30 2882 C 267.708 1.0463 1.56314 0
M  V30 2883 O 267.066 0.0251304 1.81283 0
M  V30 2884 C 267.114 3.4503 1.04818 0
M  V30 2885 O 266.218 3.51163 2.16236 0
M  V30 2886 H 265.559 0.653516 0.117526 0
M  V30 2887 H 268.089 2.02818 -0.269421 0
M  V30 2888 H 268.099 3.84243 1.37191 0
M  V30 2889 H 266.774 4.15077 0.261572 0
M  V30 2890 H 265.351 3.23807 1.84942 0
M  V30 2891 N 267.536 -0.106894 1.57237 0
M  V30 2892 C 268.783 -0.812526 1.85484 0
M  V30 2893 C 269.111 -1.79304 0.753687 0
M  V30 2894 O 268.366 -1.94047 -0.253853 0
M  V30 2895 C 268.665 -1.58628 3.20268 0
M  V30 2896 C 268.331 -0.748967 4.44636 0
M  V30 2897 C 266.993 -0.518104 4.78403 0
M  V30 2898 C 269.345 -0.166122 5.20935 0
M  V30 2899 C 266.673 0.305659 5.85903 0
M  V30 2900 C 269.025 0.644899 6.29304 0
M  V30 2901 C 267.689 0.885965 6.61594 0
M  V30 2902 H 266.959 -0.297324 0.678734 0
M  V30 2903 H 269.606 -0.0744332 1.91355 0
M  V30 2904 H 267.911 -2.39562 3.10028 0
M  V30 2905 H 269.608 -2.13643 3.39349 0
M  V30 2906 H 266.198 -0.939006 4.18187 0
M  V30 2907 H 270.382 -0.33167 4.95191 0
M  V30 2908 H 265.638 0.501528 6.0934 0
M  V30 2909 H 269.812 1.10345 6.87602 0
M  V30 2910 H 267.439 1.52609 7.44725 0
M  V30 2911 N 269.014 -1.53014 -0.377408 0
M  V30 2912 C 270.26 -1.68872 -1.12294 0
M  V30 2913 C 270.593 -0.433224 -1.89306 0
M  V30 2914 O 269.868 0.569258 -1.85983 0
M  V30 2915 C 270.151 -2.93115 -2.09179 0
M  V30 2916 C 270.004 -4.28794 -1.35853 0
M  V30 2917 C 271.323 -3.12928 -3.09458 0
M  V30 2918 H 268.442 -0.614518 -0.406862 0
M  V30 2919 H 271.084 -1.85633 -0.40503 0
M  V30 2920 H 269.234 -2.78956 -2.70399 0
M  V30 2921 H 270.906 -4.54742 -0.775082 0
M  V30 2922 H 269.149 -4.28744 -0.660364 0
M  V30 2923 H 269.82 -5.11837 -2.06706 0
M  V30 2924 H 272.296 -3.26194 -2.58334 0
M  V30 2925 H 271.172 -4.01316 -3.74482 0
M  V30 2926 H 271.433 -2.27669 -3.78971 0
M  V30 2927 N 270.492 0.636531 -1.44174 0
M  V30 2928 C 271.74 1.39343 -1.46383 0
M  V30 2929 C 272.061 1.94766 -0.0955715 0
M  V30 2930 O 271.331 1.75452 0.871395 0
M  V30 2931 H 269.911 0.517199 -0.538994 0
M  V30 2932 H 272.573 0.74957 -1.7991 0
M  V30 2933 H 271.669 2.22746 -2.18611 0
M  V30 2934 N 271.97 1.30982 0.876444 0
M  V30 2935 C 273.198 1.23242 1.6619 0
M  V30 2936 C 273.613 -0.203345 1.87702 0
M  V30 2937 O 272.97 -1.13317 1.43057 0
M  V30 2938 C 273.021 1.96623 3.03351 0
M  V30 2939 O 272.742 3.34594 2.82804 0
M  V30 2940 C 274.243 1.95644 3.97792 0
M  V30 2941 H 271.463 0.426126 0.518322 0
M  V30 2942 H 274.007 1.7275 1.09442 0
M  V30 2943 H 272.162 1.50892 3.56806 0
M  V30 2944 H 272.576 3.71873 3.69879 0
M  V30 2945 H 274.05 2.51511 4.91372 0
M  V30 2946 H 274.527 0.937395 4.2908 0
M  V30 2947 H 275.133 2.41225 3.50272 0
M  V30 2948 N 273.449 -1.08991 1.13837 0
M  V30 2949 C 274.379 -2.17771 0.842507 0
M  V30 2950 C 275.36 -1.6892 -0.20001 0
M  V30 2951 O 276.545 -1.94113 -0.0579731 0
M  V30 2952 C 273.675 -3.4589 0.312644 0
M  V30 2953 C 272.629 -4.08099 1.28992 0
M  V30 2954 C 271.955 -5.31098 0.619623 0
M  V30 2955 C 273.255 -4.50077 2.65005 0
M  V30 2956 H 274.949 -2.42777 1.75213 0
M  V30 2957 H 272.495 -1.16682 0.843875 0
M  V30 2958 H 274.448 -4.21297 0.0933043 0
M  V30 2959 H 273.172 -3.20419 -0.632382 0
M  V30 2960 H 271.831 -3.34717 1.49533 0
M  V30 2961 H 271.479 -5.0191 -0.33102 0
M  V30 2962 H 271.179 -5.73674 1.27167 0
M  V30 2963 H 272.703 -6.09224 0.409669 0
M  V30 2964 H 274.117 -5.16688 2.48407 0
M  V30 2965 H 272.514 -5.03553 3.26427 0
M  V30 2966 H 273.584 -3.62257 3.22332 0
M  V30 2967 N 274.927 -0.932562 -1.27047 0
M  V30 2968 C 275.859 -0.392734 -2.2581 0
M  V30 2969 C 276.872 0.479241 -1.55586 0
M  V30 2970 O 278.061 0.291078 -1.76111 0
M  V30 2971 C 275.161 0.455456 -3.35826 0
M  V30 2972 C 274.334 -0.398355 -4.35582 0
M  V30 2973 C 273.393 0.387985 -5.24768 0
M  V30 2974 O 272.419 -0.206003 -5.68827 0
M  V30 2975 N 273.621 1.68664 -5.55457 0
M  V30 2976 H 276.386 -1.24173 -2.72766 0
M  V30 2977 H 273.947 -0.800511 -1.40725 0
M  V30 2978 H 275.939 0.988692 -3.92437 0
M  V30 2979 H 274.509 1.20522 -2.88432 0
M  V30 2980 H 273.729 -1.11286 -3.78165 0
M  V30 2981 H 275.017 -0.981889 -4.99236 0
M  V30 2982 H 274.415 2.19147 -5.21528 0
M  V30 2983 H 272.972 2.1663 -6.14748 0
M  V30 2984 N 276.405 1.4127 -0.698611 0
M  V30 2985 C 277.635 2.05205 -0.239644 0
M  V30 2986 C 278.043 1.52684 1.11733 0
M  V30 2987 O 277.386 0.671222 1.70998 0
M  V30 2988 C 277.448 3.59289 -0.123126 0
M  V30 2989 C 277.112 4.34619 -1.41263 0
M  V30 2990 C 278.109 4.63701 -2.35111 0
M  V30 2991 C 275.794 4.73837 -1.66684 0
M  V30 2992 C 277.788 5.30966 -3.52639 0
M  V30 2993 C 275.475 5.40837 -2.84498 0
M  V30 2994 C 276.473 5.69329 -3.77298 0
M  V30 2995 O 276.161 6.34949 -4.93047 0
M  V30 2996 H 275.893 0.66723 -0.108537 0
M  V30 2997 H 278.447 1.81974 -0.952602 0
M  V30 2998 H 276.677 3.81272 0.645628 0
M  V30 2999 H 278.366 4.04797 0.299056 0
M  V30 3000 H 279.132 4.33882 -2.16729 0
M  V30 3001 H 275.011 4.51039 -0.953135 0
M  V30 3002 H 278.555 5.53121 -4.25091 0
M  V30 3003 H 274.452 5.70075 -3.02795 0
M  V30 3004 H 275.22 6.53445 -4.92902 0
M  V30 3005 N 277.883 0.443576 1.51229 0
M  V30 3006 C 278.813 -0.355142 2.30783 0
M  V30 3007 C 279.794 -1.0154 1.36468 0
M  V30 3008 O 280.979 -1.01785 1.65389 0
M  V30 3009 C 278.109 -1.45312 3.15439 0
M  V30 3010 C 277.063 -0.916002 4.18083 0
M  V30 3011 C 276.389 -2.1102 4.91299 0
M  V30 3012 C 277.689 0.0538602 5.22272 0
M  V30 3013 H 279.383 0.308767 2.97804 0
M  V30 3014 H 276.929 0.149937 1.43217 0
M  V30 3015 H 278.882 -2.01914 3.69876 0
M  V30 3016 H 277.606 -2.14541 2.46252 0
M  V30 3017 H 276.265 -0.372145 3.64706 0
M  V30 3018 H 275.913 -2.78882 4.18609 0
M  V30 3019 H 275.613 -1.75717 5.60712 0
M  V30 3020 H 277.137 -2.68164 5.48562 0
M  V30 3021 H 278.551 -0.422069 5.71744 0
M  V30 3022 H 276.948 0.319776 5.99247 0
M  V30 3023 H 278.018 0.98858 4.74716 0
M  V30 3024 N 279.361 -1.56624 0.175154 0
M  V30 3025 C 280.324 -2.16934 -0.739738 0
M  V30 3026 C 281.324 -1.11842 -1.15533 0
M  V30 3027 O 282.514 -1.37335 -1.07167 0
M  V30 3028 C 279.646 -2.75531 -2.00738 0
M  V30 3029 H 280.839 -2.99131 -0.214639 0
M  V30 3030 H 278.392 -1.56123 -0.0744197 0
M  V30 3031 H 279.127 -1.97078 -2.57548 0
M  V30 3032 H 278.912 -3.52444 -1.71831 0
M  V30 3033 H 280.402 -3.21904 -2.66021 0
M  V30 3034 N 280.839 0.0985539 -1.57292 0
M  V30 3035 C 282.25 0.653457 -1.74891 0
M  V30 3036 C 282.601 1.7929 -0.796838 0
M  V30 3037 O 281.726 2.16385 0.0254886 0
M  V30 3038 C 282.321 1.19216 -3.17133 0
M  V30 3039 C 280.88 1.69316 -3.36168 0
M  V30 3040 C 280.027 0.601294 -2.70702 0
M  V30 3041 H 282.978 -0.127497 -1.58187 0
M  V30 3042 H 282.999 2.06154 -3.19814 0
M  V30 3043 H 282.511 0.362635 -3.86402 0
M  V30 3044 H 280.612 2.5468 -2.71972 0
M  V30 3045 H 280.725 1.78853 -4.44464 0
M  V30 3046 H 279.089 1.0399 -2.32504 0
M  V30 3047 H 279.872 -0.217592 -3.4261 0
M  V30 3048 N 282.317 1.53212 0.369288 0
M  V30 3049 C 283.227 1.82342 1.47609 0
M  V30 3050 C 284.243 0.711532 1.58787 0
M  V30 3051 O 285.419 1.0012 1.74751 0
M  V30 3052 C 282.484 2.00393 2.8292 0
M  V30 3053 C 281.545 3.24297 2.81301 0
M  V30 3054 C 280.778 3.41478 4.10157 0
M  V30 3055 O 281.001 2.63033 5.06132 0
M  V30 3056 O 279.935 4.34817 4.16194 0
M  V30 3057 H 283.761 2.76366 1.25918 0
M  V30 3058 H 281.346 1.38547 0.559034 0
M  V30 3059 H 283.228 2.13859 3.63101 0
M  V30 3060 H 281.903 1.09559 3.04596 0
M  V30 3061 H 280.81 3.16257 1.99831 0
M  V30 3062 H 282.143 4.15041 2.64578 0
M  V30 3063 N 283.795 -0.628877 1.44509 0
M  V30 3064 C 284.725 -1.75187 1.54376 0
M  V30 3065 C 285.706 -1.65411 0.396618 0
M  V30 3066 O 286.891 -1.84137 0.617031 0
M  V30 3067 C 284.021 -3.13725 1.48976 0
M  V30 3068 C 282.975 -3.38291 2.62189 0
M  V30 3069 C 282.301 -4.76883 2.41841 0
M  V30 3070 C 283.601 -3.30632 4.04326 0
M  V30 3071 H 285.295 -1.67187 2.48373 0
M  V30 3072 H 282.841 -0.802909 1.19538 0
M  V30 3073 H 284.794 -3.92064 1.54478 0
M  V30 3074 H 283.518 -3.22515 0.514961 0
M  V30 3075 H 282.177 -2.62334 2.56079 0
M  V30 3076 H 281.825 -4.82378 1.42548 0
M  V30 3077 H 281.525 -4.94278 3.17747 0
M  V30 3078 H 283.049 -5.57449 2.49165 0
M  V30 3079 H 284.463 -3.98873 4.11793 0
M  V30 3080 H 282.86 -3.59561 4.80454 0
M  V30 3081 H 283.93 -2.28404 4.27738 0
M  V30 3082 N 285.273 -1.31445 -0.869486 0
M  V30 3083 C 286.203 -1.21727 -1.99261 0
M  V30 3084 C 287.184 -0.104359 -1.6978 0
M  V30 3085 O 288.369 -0.289038 -1.92037 0
M  V30 3086 C 285.499 -0.924317 -3.34774 0
M  V30 3087 C 284.453 -1.99685 -3.78563 0
M  V30 3088 C 283.779 -1.55658 -5.11541 0
M  V30 3089 C 285.079 -3.41003 -3.95619 0
M  V30 3090 H 286.773 -2.1569 -2.07649 0
M  V30 3091 H 284.319 -1.03839 -0.997675 0
M  V30 3092 H 286.272 -0.842934 -4.12883 0
M  V30 3093 H 284.996 0.0509793 -3.2656 0
M  V30 3094 H 283.655 -2.06813 -3.02694 0
M  V30 3095 H 283.303 -0.569132 -4.9977 0
M  V30 3096 H 283.003 -2.27409 -5.41811 0
M  V30 3097 H 284.527 -1.48928 -5.92159 0
M  V30 3098 H 285.941 -3.36547 -4.64122 0
M  V30 3099 H 284.338 -4.10975 -4.37286 0
M  V30 3100 H 285.408 -3.81754 -2.98985 0
M  V30 3101 N 286.751 1.08385 -1.14413 0
M  V30 3102 C 287.661 2.18856 -0.844951 0
M  V30 3103 C 288.677 1.73121 0.174668 0
M  V30 3104 O 289.853 2.014 0.00312857 0
M  V30 3105 C 286.918 3.45155 -0.32696 0
M  V30 3106 C 285.979 4.05513 -1.40916 0
M  V30 3107 C 285.212 5.25784 -0.915793 0
M  V30 3108 O 285.435 5.69884 0.242651 0
M  V30 3109 O 284.369 5.77545 -1.69487 0
M  V30 3110 H 288.195 2.46919 -1.76818 0
M  V30 3111 H 285.78 1.17524 -0.922411 0
M  V30 3112 H 287.662 4.21377 -0.0440211 0
M  V30 3113 H 286.337 3.18668 0.568539 0
M  V30 3114 H 285.244 3.30879 -1.74556 0
M  V30 3115 H 286.577 4.3625 -2.27919 0
M  V30 3116 N 288.23 0.939286 1.26551 0
M  V30 3117 C 289.162 0.404704 2.25599 0
M  V30 3118 C 290.175 -0.470983 1.55838 0
M  V30 3119 O 291.364 -0.281734 1.76263 0
M  V30 3120 C 288.464 -0.43764 3.36062 0
M  V30 3121 C 287.637 0.421449 4.35365 0
M  V30 3122 C 286.696 -0.36015 5.24966 0
M  V30 3123 O 285.722 0.236167 5.6871 0
M  V30 3124 N 286.924 -1.65715 5.56344 0
M  V30 3125 H 289.689 1.25618 2.72103 0
M  V30 3126 H 287.25 0.807963 1.40298 0
M  V30 3127 H 289.242 -0.967866 3.92956 0
M  V30 3128 H 287.812 -1.18991 2.89067 0
M  V30 3129 H 287.032 1.1329 3.7757 0
M  V30 3130 H 288.32 1.00835 4.98708 0
M  V30 3131 H 287.718 -2.16378 5.22682 0
M  V30 3132 H 286.275 -2.13366 6.15888 0
M  V30 3133 N 289.708 -1.40897 0.706093 0
M  V30 3134 C 290.64 -2.29199 0.00815776 0
M  V30 3135 C 291.653 -1.45336 -0.733582 0
M  V30 3136 O 292.842 -1.68727 -0.582537 0
M  V30 3137 C 289.942 -3.23417 -1.01265 0
M  V30 3138 C 289.115 -4.36089 -0.338387 0
M  V30 3139 C 288.174 -5.10811 -1.26326 0
M  V30 3140 O 287.2 -5.64215 -0.751651 0
M  V30 3141 N 288.402 -5.19269 -2.595 0
M  V30 3142 H 291.167 -2.89738 0.766297 0
M  V30 3143 H 288.728 -1.52164 0.55296 0
M  V30 3144 H 290.72 -3.70276 -1.63334 0
M  V30 3145 H 289.29 -2.64112 -1.67223 0
M  V30 3146 H 288.51 -3.91479 0.462352 0
M  V30 3147 H 289.798 -5.08634 0.130031 0
M  V30 3148 H 289.196 -4.77347 -3.03573 0
M  V30 3149 H 287.753 -5.69667 -3.16737 0
M  V30 3150 N 291.186 -0.45159 -1.50991 0
M  V30 3151 C 292.133 0.352625 -2.2809 0
M  V30 3152 C 293.103 1.0044 -1.32291 0
M  V30 3153 O 294.288 1.02058 -1.6121 0
M  V30 3154 C 291.428 1.43983 -3.13629 0
M  V30 3155 C 290.541 0.804772 -4.24438 0
M  V30 3156 C 289.676 1.86822 -4.97263 0
M  V30 3157 C 288.715 1.21236 -5.99973 0
M  V30 3158 N 287.852 2.2178 -6.66152 0
M  V30 3159 H 292.692 -0.311186 -2.96371 0
M  V30 3160 H 290.229 -0.165308 -1.46168 0
M  V30 3161 H 292.187 2.08161 -3.61559 0
M  V30 3162 H 290.817 2.07307 -2.47434 0
M  V30 3163 H 289.869 0.0509129 -3.80366 0
M  V30 3164 H 291.181 0.286076 -4.97979 0
M  V30 3165 H 290.335 2.58628 -5.48813 0
M  V30 3166 H 289.074 2.42068 -4.23385 0
M  V30 3167 H 288.079 0.479828 -5.47702 0
M  V30 3168 H 289.304 0.667051 -6.75816 0
M  V30 3169 H 287.25 2.76079 -5.95077 0
M  V30 3170 H 287.167 1.74841 -7.35504 0
M  V30 3171 H 288.435 2.93026 -7.22327 0
M  V30 3172 N 292.664 1.56529 -0.183458 0
M  V30 3173 C 293.894 2.01331 0.463612 0
M  V30 3174 C 294.302 1.06278 1.5653 0
M  V30 3175 O 293.645 0.0577976 1.83609 0
M  V30 3176 C 293.707 3.42547 1.09096 0
M  V30 3177 C 293.371 4.56817 0.129442 0
M  V30 3178 C 294.368 5.15734 -0.656807 0
M  V30 3179 C 292.053 5.02295 0.02174 0
M  V30 3180 C 294.047 6.1857 -1.53784 0
M  V30 3181 C 291.734 6.04978 -0.862864 0
M  V30 3182 C 292.732 6.62988 -1.64123 0
M  V30 3183 O 292.42 7.63677 -2.51103 0
M  V30 3184 H 292.152 0.664917 0.121907 0
M  V30 3185 H 294.706 2.034 -0.285954 0
M  V30 3186 H 292.936 3.37428 1.88889 0
M  V30 3187 H 294.625 3.71228 1.64148 0
M  V30 3188 H 295.391 4.81473 -0.583839 0
M  V30 3189 H 291.27 4.56847 0.617392 0
M  V30 3190 H 294.814 6.63777 -2.14583 0
M  V30 3191 H 290.711 6.38663 -0.93699 0
M  V30 3192 H 291.479 7.81049 -2.44753 0
M  V30 3193 N 294.142 -0.090211 1.57342 0
M  V30 3194 C 295.37 -0.806224 1.90546 0
M  V30 3195 C 295.785 -1.72041 0.777644 0
M  V30 3196 O 295.142 -1.80778 -0.250103 0
M  V30 3197 C 295.193 -1.61546 3.23396 0
M  V30 3198 O 294.914 -0.738043 4.31839 0
M  V30 3199 C 296.415 -2.4341 3.70495 0
M  V30 3200 H 293.635 -0.230256 0.630257 0
M  V30 3201 H 296.179 -0.0659843 2.04394 0
M  V30 3202 H 294.334 -2.30816 3.11131 0
M  V30 3203 H 294.748 -1.29901 5.08159 0
M  V30 3204 H 296.222 -2.95676 4.66133 0
M  V30 3205 H 296.699 -3.22098 2.98579 0
M  V30 3206 H 297.305 -1.79331 3.85643 0
M  V30 3207 N 295.62 -1.53406 -0.361157 0
M  V30 3208 C 296.866 -1.70054 -1.10496 0
M  V30 3209 C 297.199 -0.453278 -1.88836 0
M  V30 3210 O 296.474 0.5495 -1.86576 0
M  V30 3211 C 296.757 -2.95317 -2.06058 0
M  V30 3212 C 296.61 -4.3021 -1.31298 0
M  V30 3213 C 297.929 -3.16193 -3.06121 0
M  V30 3214 H 295.048 -0.618799 -0.400321 0
M  V30 3215 H 297.69 -1.86052 -0.385318 0
M  V30 3216 H 295.84 -2.81809 -2.67425 0
M  V30 3217 H 297.512 -4.55538 -0.726807 0
M  V30 3218 H 295.755 -4.29421 -0.614853 0
M  V30 3219 H 296.426 -5.14 -2.01265 0
M  V30 3220 H 298.902 -3.28916 -2.5486 0
M  V30 3221 H 297.778 -4.05266 -3.70204 0
M  V30 3222 H 298.039 -2.31676 -3.76535 0
M  V30 3223 N 297.098 0.621204 -1.44841 0
M  V30 3224 C 298.326 1.40752 -1.51646 0
M  V30 3225 C 298.741 1.88246 -0.144549 0
M  V30 3226 O 298.098 1.61422 0.851416 0
M  V30 3227 C 298.149 2.62119 -2.4895 0
M  V30 3228 O 297.87 2.16602 -3.80808 0
M  V30 3229 C 299.371 3.55135 -2.65319 0
M  V30 3230 H 296.591 0.431325 -0.514004 0
M  V30 3231 H 299.135 0.758835 -1.899 0
M  V30 3232 H 297.29 3.23058 -2.13805 0
M  V30 3233 H 297.704 2.95358 -4.33433 0
M  V30 3234 H 299.178 4.36874 -3.37409 0
M  V30 3235 H 299.655 4.04592 -1.70886 0
M  V30 3236 H 300.261 3.00058 -3.01405 0
M  V30 3237 N 298.576 1.31904 0.862503 0
M  V30 3238 C 299.822 1.22197 1.61851 0
M  V30 3239 C 300.155 -0.217641 1.92977 0
M  V30 3240 O 299.43 -1.15264 1.56666 0
M  V30 3241 C 299.713 2.07378 2.94391 0
M  V30 3242 C 299.566 3.59678 2.70096 0
M  V30 3243 C 300.885 1.92891 3.95577 0
M  V30 3244 H 298.004 0.445255 0.587296 0
M  V30 3245 H 300.646 1.6177 0.99651 0
M  V30 3246 H 298.796 1.73758 3.47477 0
M  V30 3247 H 300.468 4.03472 2.23625 0
M  V30 3248 H 298.711 3.82735 2.04197 0
M  V30 3249 H 299.382 4.14595 3.64438 0
M  V30 3250 H 301.858 2.22327 3.51724 0
M  V30 3251 H 300.734 2.54781 4.86187 0
M  V30 3252 H 300.995 0.894315 4.3296 0
M  V30 3253 N 300.054 -1.07777 1.14986 0
M  V30 3254 C 301.331 -1.7699 0.832695 0
M  V30 3255 C 301.711 -2.001 -0.672561 0
M  V30 3256 O 301.059 -1.61598 -1.6155 0
M  V30 3257 C 301.269 -3.08139 1.63863 0
M  V30 3258 C 302.617 -3.8256 1.84208 0
M  V30 3259 O 303.641 -3.17939 1.60603 0
M  V30 3260 O 302.5 -4.98612 2.23714 0
M  V30 3261 H 299.594 -0.768389 0.305791 0
M  V30 3262 H 302.14 -1.14182 1.25541 0
M  V30 3263 H 300.912 -2.86909 2.6608 0
M  V30 3264 H 300.535 -3.78678 1.21197 0
M  V30 3265 N 301.532 -0.945985 -1.26051 0
M  V30 3266 C 302.762 -0.612136 -1.97323 0
M  V30 3267 C 303.17 0.818171 -1.70595 0
M  V30 3268 O 302.513 1.55777 -0.973613 0
M  V30 3269 C 302.575 -0.780347 -3.50929 0
M  V30 3270 C 302.239 -2.18619 -4.01317 0
M  V30 3271 C 303.236 -3.16209 -4.12683 0
M  V30 3272 C 300.921 -2.50805 -4.35203 0
M  V30 3273 C 302.915 -4.44085 -4.57238 0
M  V30 3274 C 300.602 -3.78912 -4.79446 0
M  V30 3275 C 301.6 -4.75365 -4.90425 0
M  V30 3276 O 301.288 -6.01191 -5.3369 0
M  V30 3277 H 301.02 -0.229134 -0.635982 0
M  V30 3278 H 303.574 -1.27036 -1.61404 0
M  V30 3279 H 301.804 -0.0649864 -3.86645 0
M  V30 3280 H 303.493 -0.448842 -4.03411 0
M  V30 3281 H 304.259 -2.92668 -3.86744 0
M  V30 3282 H 300.138 -1.76463 -4.2589 0
M  V30 3283 H 303.682 -5.19373 -4.65723 0
M  V30 3284 H 299.579 -4.02265 -5.0483 0
M  V30 3285 H 300.347 -6.04442 -5.51899 0
M  V30 3286 N 303.011 1.40521 -0.713556 0
M  V30 3287 C 304.257 2.01714 -0.261382 0
M  V30 3288 C 304.612 1.55562 1.13217 0
M  V30 3289 O 303.905 0.764893 1.7567 0
M  V30 3290 C 304.099 3.56317 -0.278 0
M  V30 3291 C 303.928 4.17476 -1.67163 0
M  V30 3292 C 302.698 4.50998 -2.2788 0
M  V30 3293 C 304.896 4.42472 -2.6215 0
M  V30 3294 N 302.878 4.9754 -3.5962 0
M  V30 3295 C 304.249 4.90985 -3.78594 0
M  V30 3296 C 306.304 4.24508 -2.60188 0
M  V30 3297 C 305.007 5.2342 -4.9338 0
M  V30 3298 C 307.033 4.58043 -3.741 0
M  V30 3299 C 306.395 5.06743 -4.89276 0
M  V30 3300 H 302.494 0.769104 -0.141434 0
M  V30 3301 H 305.078 1.70785 -0.934915 0
M  V30 3302 H 303.249 3.8668 0.36509 0
M  V30 3303 H 304.981 4.0425 0.190695 0
M  V30 3304 H 301.736 4.38062 -1.79997 0
M  V30 3305 H 302.16 5.25196 -4.27198 0
M  V30 3306 H 306.802 3.86078 -1.72348 0
M  V30 3307 H 304.52 5.60765 -5.81866 0
M  V30 3308 H 308.106 4.45785 -3.73854 0
M  V30 3309 H 306.986 5.32204 -5.75959 0
M  V30 3310 N 304.489 0.459591 1.5075 0
M  V30 3311 C 305.714 -0.0996819 2.0716 0
M  V30 3312 C 306.139 -1.33761 1.32249 0
M  V30 3313 O 305.497 -1.77551 0.366786 0
M  V30 3314 C 305.545 -0.378226 3.58611 0
M  V30 3315 O 304.649 -1.46081 3.85661 0
M  V30 3316 H 303.99 0.00791392 0.663953 0
M  V30 3317 H 306.52 0.647329 1.9409 0
M  V30 3318 H 306.53 -0.622135 4.03229 0
M  V30 3319 H 305.205 0.526439 4.12555 0
M  V30 3320 H 303.782 -1.20511 3.5289 0
M  V30 3321 N 305.967 -1.56429 0.191757 0
M  V30 3322 C 307.214 -1.97485 -0.447891 0
M  V30 3323 C 307.542 -1.07852 -1.61859 0
M  V30 3324 O 306.797 -0.116903 -1.95351 0
M  V30 3325 C 307.096 -3.44449 -0.953384 0
M  V30 3326 C 306.762 -4.50781 0.103586 0
M  V30 3327 C 305.424 -4.79584 0.394023 0
M  V30 3328 C 307.776 -5.1471 0.819946 0
M  V30 3329 C 305.104 -5.69607 1.40585 0
M  V30 3330 C 307.456 -6.05827 1.8209 0
M  V30 3331 C 306.12 -6.32987 2.11857 0
M  V30 3332 H 305.39 -0.722648 -0.163895 0
M  V30 3333 H 308.037 -1.89322 0.28802 0
M  V30 3334 H 306.342 -3.49666 -1.76751 0
M  V30 3335 H 308.039 -3.73569 -1.45765 0
M  V30 3336 H 304.629 -4.28394 -0.132951 0
M  V30 3337 H 308.813 -4.92552 0.608789 0
M  V30 3338 H 304.069 -5.88926 1.64243 0
M  V30 3339 H 308.243 -6.54424 2.38123 0
M  V30 3340 H 305.87 -7.02544 2.90407 0
M  V30 3341 N 307.445 0.0818655 -1.57387 0
M  V30 3342 C 308.693 0.781368 -1.86384 0
M  V30 3343 C 309.014 1.78618 -0.782342 0
M  V30 3344 O 308.284 1.94976 0.190061 0
M  V30 3345 H 306.864 0.291562 -0.687751 0
M  V30 3346 H 309.526 0.060348 -1.94807 0
M  V30 3347 H 308.622 1.3038 -2.83562 0
M  V30 3348 N 308.923 1.53595 0.353017 0
M  V30 3349 C 310.151 1.74311 1.1146 0
M  V30 3350 C 310.566 0.477854 1.82653 0
M  V30 3351 O 309.923 -0.549977 1.74016 0
M  V30 3352 C 309.974 2.91694 2.13534 0
M  V30 3353 O 309.695 4.13325 1.45238 0
M  V30 3354 C 311.196 3.24384 3.02142 0
M  V30 3355 H 308.416 0.582669 0.332773 0
M  V30 3356 H 310.96 2.00386 0.408107 0
M  V30 3357 H 309.115 2.67977 2.79763 0
M  V30 3358 H 309.529 4.79148 2.13349 0
M  V30 3359 H 311.003 4.09893 3.69718 0
M  V30 3360 H 311.48 2.40282 3.67643 0
M  V30 3361 H 312.086 3.50073 2.41514 0
M  V30 3362 N 310.401 -0.613514 1.45168 0
M  V30 3363 C 311.331 -1.7354 1.56225 0
M  V30 3364 C 312.312 -1.64981 0.41414 0
M  V30 3365 O 313.497 -1.83472 0.636526 0
M  V30 3366 C 310.627 -3.12128 1.52295 0
M  V30 3367 C 309.581 -3.35491 2.65762 0
M  V30 3368 C 308.907 -4.74291 2.46885 0
M  V30 3369 C 310.207 -3.26325 4.0781 0
M  V30 3370 H 311.901 -1.64543 2.50132 0
M  V30 3371 H 309.447 -0.790185 1.20383 0
M  V30 3372 H 311.4 -3.90404 1.58628 0
M  V30 3373 H 310.124 -3.2195 0.549139 0
M  V30 3374 H 308.783 -2.59603 2.58847 0
M  V30 3375 H 308.431 -4.80839 1.47657 0
M  V30 3376 H 308.131 -4.9088 3.22972 0
M  V30 3377 H 309.655 -5.54775 2.55063 0
M  V30 3378 H 311.069 -3.94483 4.16 0
M  V30 3379 H 309.466 -3.54445 4.8424 0
M  V30 3380 H 310.536 -2.23855 4.30136 0
M  V30 3381 N 311.879 -1.3236 -0.855495 0
M  V30 3382 C 312.842 -1.21164 -1.94556 0
M  V30 3383 C 313.842 -0.134908 -1.60233 0
M  V30 3384 O 315.032 -0.385249 -1.69887 0
M  V30 3385 C 312.164 -0.863192 -3.29791 0
M  V30 3386 H 313.357 -2.18038 -2.05911 0
M  V30 3387 H 310.91 -1.16179 -1.04557 0
M  V30 3388 H 311.645 0.103769 -3.24134 0
M  V30 3389 H 311.43 -1.64166 -3.56078 0
M  V30 3390 H 312.92 -0.809156 -4.09686 0
M  V30 3391 N 313.357 1.07166 -1.15556 0
M  V30 3392 C 314.604 1.79798 -0.931604 0
M  V30 3393 C 314.932 1.8682 0.54115 0
M  V30 3394 O 314.187 1.34942 1.41736 0
M  V30 3395 C 314.486 3.24707 -1.49332 0
M  V30 3396 C 314.152 3.37781 -2.98688 0
M  V30 3397 C 312.814 3.41057 -3.39461 0
M  V30 3398 C 315.166 3.40424 -3.94665 0
M  V30 3399 C 312.494 3.4458 -4.74849 0
M  V30 3400 C 314.846 3.45485 -5.29927 0
M  V30 3401 C 313.51 3.47039 -5.70193 0
M  V30 3402 H 312.78 0.657928 -0.340898 0
M  V30 3403 H 315.427 1.26091 -1.44129 0
M  V30 3404 H 313.732 3.81208 -0.904859 0
M  V30 3405 H 315.429 3.79486 -1.29582 0
M  V30 3406 H 312.019 3.35932 -2.66172 0
M  V30 3407 H 316.203 3.37113 -3.64237 0
M  V30 3408 H 311.459 3.44083 -5.05388 0
M  V30 3409 H 315.633 3.46476 -6.04092 0
M  V30 3410 H 313.26 3.49522 -6.75084 0
M  V30 3411 N 314.835 0.952656 1.25548 0
M  V30 3412 C 315.745 0.47782 2.29682 0
M  V30 3413 C 316.761 -0.453859 1.67977 0
M  V30 3414 O 317.937 -0.330587 1.98668 0
M  V30 3415 C 315.002 -0.238655 3.45878 0
M  V30 3416 C 314.063 0.730994 4.23031 0
M  V30 3417 C 313.296 0.0486165 5.33678 0
M  V30 3418 O 313.519 -1.16612 5.58353 0
M  V30 3419 O 312.453 0.733152 5.97418 0
M  V30 3420 H 316.279 1.34312 2.72386 0
M  V30 3421 H 313.864 0.719026 1.30959 0
M  V30 3422 H 315.746 -0.641774 4.16484 0
M  V30 3423 H 314.421 -1.07916 3.05181 0
M  V30 3424 H 313.328 1.18428 3.5486 0
M  V30 3425 H 314.661 1.53946 4.67506 0
M  V30 3426 N 316.313 -1.40141 0.720998 0
M  V30 3427 C 317.553 -2.02644 0.267335 0
M  V30 3428 C 317.917 -1.55948 -1.12001 0
M  V30 3429 O 319.118 -2.10552 -1.67097 0
M  V30 3430 C 317.389 -3.55679 0.350281 0
M  V30 3431 S 318.948 -4.38793 -0.0256004 0
M  V30 3432 H 315.766 -0.703105 0.105664 0
M  V30 3433 H 318.368 -1.71175 0.944416 0
M  V30 3434 H 317.072 -3.87157 1.36153 0
M  V30 3435 H 316.603 -3.91883 -0.345096 0
M  V30 3436 H 318.618 -4.803 -1.24604 0
M  V30 3437 N 317.792 -0.46758 -1.50504 0
M  V30 3438 C 319.041 0.0902868 -2.01498 0
M  V30 3439 C 319.354 1.411 -1.35463 0
M  V30 3440 O 320.56 2.0536 -1.77594 0
M  V30 3441 C 319.016 0.21142 -3.59278 0
M  V30 3442 C 318.624 -1.10065 -4.34269 0
M  V30 3443 C 320.368 0.721433 -4.18325 0
M  V30 3444 C 318.275 -0.943505 -5.83825 0
M  V30 3445 H 317.205 0.037517 -0.753066 0
M  V30 3446 H 319.856 -0.601943 -1.73346 0
M  V30 3447 H 318.238 0.967352 -3.84003 0
M  V30 3448 H 319.412 -1.86726 -4.21272 0
M  V30 3449 H 317.727 -1.5415 -3.86816 0
M  V30 3450 H 320.324 0.85598 -5.27804 0
M  V30 3451 H 320.667 1.71186 -3.79475 0
M  V30 3452 H 321.2 0.0229843 -3.97793 0
M  V30 3453 H 317.939 -1.90719 -6.27141 0
M  V30 3454 H 317.459 -0.217213 -5.99407 0
M  V30 3455 H 319.138 -0.608715 -6.4413 0
M  V30 3456 N 319.27 1.56325 -0.20005 0
M  V30 3457 C 320.498 2.02105 0.442874 0
M  V30 3458 C 320.913 1.08014 1.5485 0
M  V30 3459 O 320.27 0.0858797 1.82298 0
M  V30 3460 C 320.321 3.47549 0.994583 0
M  V30 3461 O 320.042 4.38049 -0.0669322 0
M  V30 3462 C 321.543 4.0887 1.7129 0
M  V30 3463 H 318.763 0.661807 0.110691 0
M  V30 3464 H 321.307 2.02134 -0.310207 0
M  V30 3465 H 319.462 3.48204 1.69803 0
M  V30 3466 H 319.876 5.23368 0.344462 0
M  V30 3467 H 321.35 5.12475 2.05118 0
M  V30 3468 H 321.827 3.52615 2.61838 0
M  V30 3469 H 322.433 4.12002 1.05518 0
M  V30 3470 N 320.748 -0.0735177 1.57428 0
M  V30 3471 C 321.996 -0.771472 1.86796 0
M  V30 3472 C 322.317 -1.78201 0.791804 0
M  V30 3473 O 321.587 -1.95074 -0.179718 0
M  V30 3474 H 320.167 -0.28791 0.689287 0
M  V30 3475 H 322.829 -0.0500161 1.94836 0
M  V30 3476 H 321.925 -1.28874 2.8425 0
M  V30 3477 N 322.226 -1.5378 -0.344866 0
M  V30 3478 C 323.473 -1.70963 -1.08526 0
M  V30 3479 C 323.801 -0.472126 -1.88683 0
M  V30 3480 O 323.056 0.546116 -1.87926 0
M  V30 3481 C 323.355 -2.92407 -2.05506 0
M  V30 3482 C 323.021 -4.28066 -1.41671 0
M  V30 3483 C 321.683 -4.64951 -1.2399 0
M  V30 3484 C 324.035 -5.12344 -0.956726 0
M  V30 3485 C 321.363 -5.83733 -0.589277 0
M  V30 3486 C 323.715 -6.3179 -0.320015 0
M  V30 3487 C 322.379 -6.67372 -0.130881 0
M  V30 3488 H 321.649 -0.625598 -0.397124 0
M  V30 3489 H 324.296 -1.87995 -0.36469 0
M  V30 3490 H 322.601 -2.69973 -2.8394 0
M  V30 3491 H 324.298 -3.02895 -2.62784 0
M  V30 3492 H 320.888 -3.99034 -1.56429 0
M  V30 3493 H 325.072 -4.8438 -1.08118 0
M  V30 3494 H 320.328 -6.09877 -0.431344 0
M  V30 3495 H 324.502 -6.96386 0.0445072 0
M  V30 3496 H 322.129 -7.59273 0.375318 0
M  V30 3497 N 323.704 0.605807 -1.45491 0
M  V30 3498 C 325.12 0.926751 -1.29936 0
M  V30 3499 C 325.32 1.99896 -0.253706 0
M  V30 3500 O 324.376 2.50038 0.351737 0
M  V30 3501 C 325.689 1.36599 -2.67883 0
M  V30 3502 C 327.237 1.4801 -2.75793 0
M  V30 3503 C 327.712 1.95309 -4.14268 0
M  V30 3504 N 329.203 2.0254 -4.16571 0
M  V30 3505 C 329.938 2.40363 -5.20589 0
M  V30 3506 N 329.434 2.77143 -6.34952 0
M  V30 3507 N 331.227 2.40718 -5.07948 0
M  V30 3508 H 323.378 -0.102862 -2.12151 0
M  V30 3509 H 325.641 0.016639 -0.947854 0
M  V30 3510 H 325.347 0.652306 -3.45598 0
M  V30 3511 H 325.221 2.33215 -2.96463 0
M  V30 3512 H 327.608 2.1847 -1.98381 0
M  V30 3513 H 327.689 0.497041 -2.50925 0
M  V30 3514 H 327.333 1.25436 -4.92167 0
M  V30 3515 H 327.263 2.94532 -4.3653 0
M  V30 3516 H 329.754 1.76699 -3.34045 0
M  V30 3517 H 330.067 3.0489 -7.10114 0
M  V30 3518 H 328.412 2.74834 -6.3835 0
M  V30 3519 H 331.603 2.11392 -4.1765 0
M  V30 3520 H 331.776 2.69869 -5.89131 0
M  V30 3521 N 325.182 1.32811 0.848464 0
M  V30 3522 C 326.593 1.21315 1.41914 0
M  V30 3523 C 326.944 -0.171847 1.95446 0
M  V30 3524 O 326.069 -1.07093 1.88043 0
M  V30 3525 C 326.664 2.19631 2.57968 0
M  V30 3526 C 325.223 2.12003 3.11017 0
M  V30 3527 C 324.37 2.07651 1.83783 0
M  V30 3528 H 327.321 1.44549 0.655071 0
M  V30 3529 H 327.342 1.79845 3.35315 0
M  V30 3530 H 326.854 3.20423 2.18976 0
M  V30 3531 H 324.955 1.14481 3.54577 0
M  V30 3532 H 325.068 3.02111 3.71841 0
M  V30 3533 H 323.432 1.52983 2.03638 0
M  V30 3534 H 324.215 3.10235 1.47 0
M  V30 3535 N 326.66 -1.06551 1.16123 0
M  V30 3536 C 327.907 -1.79302 0.941126 0
M  V30 3537 C 328.235 -1.87105 -0.531235 0
M  V30 3538 O 327.49 -1.35692 -1.41018 0
M  V30 3539 C 327.789 -3.23911 1.51052 0
M  V30 3540 C 327.455 -3.36193 3.00475 0
M  V30 3541 C 326.117 -3.39252 3.41265 0
M  V30 3542 C 328.469 -3.38326 3.96465 0
M  V30 3543 C 325.797 -3.42057 4.76669 0
M  V30 3544 C 328.149 -3.4267 5.31752 0
M  V30 3545 C 326.813 -3.4401 5.72026 0
M  V30 3546 H 326.083 -0.656111 0.344382 0
M  V30 3547 H 328.73 -1.25325 1.44796 0
M  V30 3548 H 327.035 -3.80723 0.925063 0
M  V30 3549 H 328.732 -3.78793 1.31593 0
M  V30 3550 H 325.322 -3.34516 2.6795 0
M  V30 3551 H 329.506 -3.35176 3.6602 0
M  V30 3552 H 324.762 -3.41398 5.07206 0
M  V30 3553 H 328.936 -3.43268 6.05921 0
M  V30 3554 H 326.563 -3.45937 6.76928 0
M  V30 3555 N 328.138 -0.959301 -1.25041 0
M  V30 3556 C 329.068 -0.501388 -2.28053 0
M  V30 3557 C 330.049 0.454673 -1.63911 0
M  V30 3558 O 331.234 0.352618 -1.90972 0
M  V30 3559 C 328.364 0.217224 -3.4662 0
M  V30 3560 C 327.318 -0.654034 -4.22973 0
M  V30 3561 C 326.644 0.195589 -5.34342 0
M  V30 3562 C 327.944 -1.93447 -4.85155 0
M  V30 3563 H 329.638 -1.36238 -2.66608 0
M  V30 3564 H 327.184 -0.656534 -1.28163 0
M  V30 3565 H 329.137 0.548732 -4.17812 0
M  V30 3566 H 327.861 1.1125 -3.07068 0
M  V30 3567 H 326.52 -0.968693 -3.5357 0
M  V30 3568 H 326.168 1.09076 -4.91031 0
M  V30 3569 H 325.868 -0.384091 -5.86343 0
M  V30 3570 H 327.392 0.521958 -6.08365 0
M  V30 3571 H 328.806 -1.66908 -5.48466 0
M  V30 3572 H 327.203 -2.46018 -5.47353 0
M  V30 3573 H 328.273 -2.63466 -4.07079 0
M  V30 3574 N 329.616 1.39756 -0.72842 0
M  V30 3575 C 331.027 1.83498 -0.344289 0
M  V30 3576 C 331.378 1.60868 1.12321 0
M  V30 3577 O 330.503 1.09634 1.86573 0
M  V30 3578 C 331.098 3.33114 -0.618112 0
M  V30 3579 C 329.657 3.753 -0.287549 0
M  V30 3580 C 328.804 2.62831 -0.884048 0
M  V30 3581 H 331.755 1.28842 -0.926578 0
M  V30 3582 H 331.776 3.80334 0.112349 0
M  V30 3583 H 331.288 3.49553 -1.68625 0
M  V30 3584 H 329.389 3.64451 0.775012 0
M  V30 3585 H 329.502 4.72945 -0.765512 0
M  V30 3586 H 327.866 2.52792 -0.311149 0
M  V30 3587 H 328.649 2.82078 -1.95671 0
M  V30 3588 N 331.094 0.475555 1.50254 0
M  V30 3589 C 332.042 -0.330276 2.30243 0
M  V30 3590 C 333.036 -0.986306 1.37726 0
M  V30 3591 O 334.242 -0.9169 1.54897 0
M  V30 3592 H 330.617 -0.125353 0.741479 0
M  V30 3593 H 332.588 0.364702 2.96163 0
M  V30 3594 C 331.337 -1.39704 3.18399 0
M  V30 3595 H 330.66 -0.901621 3.89501 0
M  V30 3596 H 332.1 -1.93336 3.77355 0
M  V30 3597 C 330.559 -2.4014 2.36293 0
M  V30 3598 O 331.089 -3.45504 2.04914 0
M  V30 3599 N 329.295 -2.1197 1.98789 0
M  V30 3600 H 328.842 -1.2631 2.24507 0
M  V30 3601 H 328.8 -2.79403 1.44157 0
M  V30 3602 N 332.573 -1.56217 0.208337 0
M  V30 3603 C 333.819 -1.98998 -0.42086 0
M  V30 3604 C 334.174 -1.09331 -1.58317 0
M  V30 3605 O 333.467 -0.140466 -1.91084 0
M  V30 3606 C 333.661 -3.45441 -0.916797 0
M  V30 3607 C 333.49 -4.49273 0.195925 0
M  V30 3608 C 332.26 -5.00998 0.657956 0
M  V30 3609 C 334.458 -5.04294 1.00956 0
M  V30 3610 N 332.44 -5.88514 1.74712 0
M  V30 3611 C 333.811 -5.88607 1.94785 0
M  V30 3612 C 335.866 -4.86692 1.05049 0
M  V30 3613 C 334.569 -6.572 2.9237 0
M  V30 3614 C 336.595 -5.56034 2.01446 0
M  V30 3615 C 335.957 -6.40105 2.94016 0
M  V30 3616 H 332.056 -0.772574 -0.121048 0
M  V30 3617 H 334.64 -1.92101 0.317075 0
M  V30 3618 H 332.811 -3.52812 -1.62413 0
M  V30 3619 H 334.543 -3.75164 -1.51771 0
M  V30 3620 H 331.298 -4.72945 0.248912 0
M  V30 3621 H 331.722 -6.36975 2.2933 0
M  V30 3622 H 336.364 -4.21359 0.348759 0
M  V30 3623 H 334.082 -7.21723 3.63512 0
M  V30 3624 H 337.668 -5.44385 2.0527 0
M  V30 3625 H 336.548 -6.92816 3.6739 0
M  V30 3626 N 334.051 0.0651679 -1.57465 0
M  V30 3627 C 334.983 1.10359 -2.00882 0
M  V30 3628 C 335.996 1.346 -0.915788 0
M  V30 3629 O 337.185 1.32723 -1.1936 0
M  V30 3630 C 334.285 2.45312 -2.33828 0
M  V30 3631 C 333.458 2.40934 -3.65061 0
M  V30 3632 C 332.517 3.58047 -3.85602 0
M  V30 3633 O 331.543 3.39175 -4.57109 0
M  V30 3634 N 332.745 4.78637 -3.28462 0
M  V30 3635 H 335.51 0.733807 -2.90578 0
M  V30 3636 H 333.071 0.253719 -1.599 0
M  V30 3637 H 335.063 3.22314 -2.44737 0
M  V30 3638 H 333.633 2.74267 -1.49988 0
M  V30 3639 H 332.853 1.49273 -3.64844 0
M  V30 3640 H 334.141 2.35117 -4.51218 0
M  V30 3641 H 333.539 4.96872 -2.70433 0
M  V30 3642 H 332.096 5.53127 -3.44809 0
M  V30 3643 N 335.529 1.53961 0.336706 0
M  V30 3644 C 336.94 1.62914 0.911925 0
M  V30 3645 C 337.291 0.514795 1.89326 0
M  V30 3646 O 336.416 -0.354395 2.13478 0
M  V30 3647 C 337.011 2.95304 1.66076 0
M  V30 3648 C 335.57 3.06496 2.18489 0
M  V30 3649 C 334.717 2.58403 1.00613 0
M  V30 3650 H 337.668 1.58285 0.114649 0
M  V30 3651 H 337.689 2.84727 2.5241 0
M  V30 3652 H 337.201 3.76387 0.946276 0
M  V30 3653 H 335.302 2.3006 2.93092 0
M  V30 3654 H 335.415 4.1208 2.44391 0
M  V30 3655 H 333.779 2.13977 1.38152 0
M  V30 3656 H 334.562 3.41932 0.306179 0
M  V30 3657 N 337.007 -0.598083 1.45811 0
M  V30 3658 C 338.253 -1.35882 1.50545 0
M  V30 3659 C 338.586 -1.93616 0.150445 0
M  V30 3660 O 337.861 -1.75604 -0.83628 0
M  V30 3661 C 338.144 -2.49966 2.59208 0
M  V30 3662 C 337.997 -1.97367 4.04186 0
M  V30 3663 C 339.316 -3.52068 2.64076 0
M  V30 3664 H 336.435 -0.492717 0.548087 0
M  V30 3665 H 339.077 -0.673319 1.77669 0
M  V30 3666 H 337.227 -3.08443 2.3621 0
M  V30 3667 H 338.899 -1.43466 4.38423 0
M  V30 3668 H 337.142 -1.283 4.14393 0
M  V30 3669 H 337.813 -2.79649 4.75921 0
M  V30 3670 H 340.289 -3.03448 2.84708 0
M  V30 3671 H 339.165 -4.2937 3.41954 0
M  V30 3672 H 339.426 -4.08304 1.69531 0
M  V30 3673 N 338.485 -1.33259 -0.841409 0
M  V30 3674 C 339.417 -1.19136 -1.95804 0
M  V30 3675 C 340.43 -0.122965 -1.62335 0
M  V30 3676 O 341.619 -0.373154 -1.74556 0
M  V30 3677 C 338.719 -0.804268 -3.29218 0
M  V30 3678 C 337.892 -1.96376 -3.90839 0
M  V30 3679 C 336.951 -1.55806 -5.02604 0
M  V30 3680 O 335.977 -2.27203 -5.21888 0
M  V30 3681 N 337.179 -0.461609 -5.78662 0
M  V30 3682 H 339.944 -2.15326 -2.08458 0
M  V30 3683 H 337.505 -1.25971 -1.017 0
M  V30 3684 H 339.497 -0.51501 -4.0141 0
M  V30 3685 H 338.067 0.0668809 -3.12528 0
M  V30 3686 H 337.287 -2.41879 -3.11269 0
M  V30 3687 H 338.575 -2.73966 -4.28742 0
M  V30 3688 H 337.973 0.132343 -5.65545 0
M  V30 3689 H 336.53 -0.232013 -6.51387 0
M  V30 3690 N 339.963 1.05934 -1.16686 0
M  V30 3691 C 341.209 1.79211 -0.962023 0
M  V30 3692 C 341.564 1.85667 0.504545 0
M  V30 3693 O 340.857 1.33991 1.36956 0
M  V30 3694 C 341.051 3.23105 -1.52767 0
M  V30 3695 C 340.88 3.30673 -3.04771 0
M  V30 3696 C 339.65 3.40395 -3.73442 0
M  V30 3697 C 341.848 3.20234 -4.02436 0
M  V30 3698 N 339.83 3.37015 -5.13122 0
M  V30 3699 C 341.201 3.24138 -5.28521 0
M  V30 3700 C 343.256 3.04143 -3.9421 0
M  V30 3701 C 341.959 3.13607 -6.47336 0
M  V30 3702 C 343.985 2.94951 -5.12599 0
M  V30 3703 C 343.347 2.99481 -6.37566 0
M  V30 3704 H 339.446 0.668442 -0.405844 0
M  V30 3705 H 342.03 1.26341 -1.48142 0
M  V30 3706 H 340.201 3.74364 -1.03471 0
M  V30 3707 H 341.933 3.84579 -1.26021 0
M  V30 3708 H 338.688 3.45344 -3.2409 0
M  V30 3709 H 339.112 3.38815 -5.86117 0
M  V30 3710 H 343.754 2.99484 -2.98445 0
M  V30 3711 H 341.472 3.17022 -7.43319 0
M  V30 3712 H 345.058 2.83583 -5.08008 0
M  V30 3713 H 343.938 2.92431 -7.27636 0
M  V30 3714 N 341.441 0.965919 1.2453 0
M  V30 3715 C 342.391 0.465731 2.23193 0
M  V30 3716 C 343.375 -0.451277 1.54442 0
M  V30 3717 O 344.567 -0.282489 1.74731 0
M  V30 3718 C 341.696 -0.244511 3.42428 0
M  V30 3719 C 340.782 0.691222 4.18429 0
M  V30 3720 N 341.173 1.82771 4.71623 0
M  V30 3721 C 339.471 0.501649 4.4317 0
M  V30 3722 C 340.172 2.41285 5.29298 0
M  V30 3723 N 339.148 1.69819 5.16394 0
M  V30 3724 H 342.95 1.33291 2.61937 0
M  V30 3725 H 340.464 0.824789 1.39896 0
M  V30 3726 H 342.461 -0.620056 4.12263 0
M  V30 3727 H 341.121 -1.10815 3.05205 0
M  V30 3728 H 342.132 2.20929 4.68413 0
M  V30 3729 H 338.809 -0.318177 4.16286 0
M  V30 3730 H 340.199 3.37181 5.8117 0
M  V30 3731 N 342.919 -1.39368 0.735821 0
M  V30 3732 C 344.144 -2.05319 0.293052 0
M  V30 3733 C 344.569 -1.55115 -1.064 0
M  V30 3734 O 343.927 -0.695261 -1.67439 0
M  V30 3735 C 343.975 -3.59305 0.305323 0
M  V30 3736 O 343.079 -4.06299 -0.706761 0
M  V30 3737 H 342.42 -0.650529 0.13307 0
M  V30 3738 H 344.95 -1.78386 1.00197 0
M  V30 3739 H 344.96 -4.07724 0.149997 0
M  V30 3740 H 343.635 -3.95207 1.29553 0
M  V30 3741 H 342.212 -3.69292 -0.517504 0
M  V30 3742 N 344.397 -0.483516 -1.5 0
M  V30 3743 C 345.344 0.304164 -2.28787 0
M  V30 3744 C 346.314 0.976114 -1.34392 0
M  V30 3745 O 347.499 0.986156 -1.63339 0
M  V30 3746 C 344.639 1.37298 -3.16612 0
M  V30 3747 C 343.752 0.714561 -4.26049 0
M  V30 3748 C 342.887 1.76232 -5.01114 0
M  V30 3749 C 341.926 1.08483 -6.0241 0
M  V30 3750 N 341.063 2.076 -6.70706 0
M  V30 3751 H 345.903 -0.373981 -2.95644 0
M  V30 3752 H 343.44 -0.196275 -1.45785 0
M  V30 3753 H 345.398 2.00445 -3.65893 0
M  V30 3754 H 344.028 2.02012 -2.51776 0
M  V30 3755 H 343.08 -0.0297798 -3.80388 0
M  V30 3756 H 344.392 0.180383 -4.98474 0
M  V30 3757 H 343.546 2.46929 -5.54176 0
M  V30 3758 H 342.285 2.33033 -4.28424 0
M  V30 3759 H 341.29 0.363545 -5.48597 0
M  V30 3760 H 342.515 0.523551 -6.77079 0
M  V30 3761 H 340.461 2.63394 -6.00799 0
M  V30 3762 H 340.378 1.59201 -7.39047 0
M  V30 3763 H 341.646 2.77639 -7.2838 0
M  V30 3764 N 345.875 1.56104 -0.216619 0
M  V30 3765 C 347.121 1.98466 0.417033 0
M  V30 3766 C 347.454 1.10403 1.59765 0
M  V30 3767 O 346.729 0.160632 1.93836 0
M  V30 3768 C 347.012 3.49769 0.85637 0
M  V30 3769 C 346.865 4.48606 -0.327546 0
M  V30 3770 C 348.184 4.05339 1.7143 0
M  V30 3771 H 345.303 0.721551 0.150112 0
M  V30 3772 H 347.945 1.87423 -0.311864 0
M  V30 3773 H 346.095 3.5931 1.47745 0
M  V30 3774 H 347.767 4.5108 -0.965618 0
M  V30 3775 H 346.01 4.22682 -0.975805 0
M  V30 3776 H 346.681 5.51995 0.0227149 0
M  V30 3777 H 349.157 3.98712 1.19031 0
M  V30 3778 H 348.033 5.11533 1.99061 0
M  V30 3779 H 348.294 3.51918 2.67593 0
M  V30 3780 N 347.353 -0.0568162 1.57498 0
M  V30 3781 C 348.769 -0.411933 1.54192 0
M  V30 3782 C 348.969 -1.78287 0.938942 0
M  V30 3783 O 348.025 -2.46483 0.547919 0
M  V30 3784 C 349.338 -0.339244 2.9878 0
M  V30 3785 C 350.886 -0.418348 3.10192 0
M  V30 3786 C 351.361 -0.375407 4.56459 0
M  V30 3787 N 352.852 -0.435038 4.61153 0
M  V30 3788 C 353.587 -0.424265 5.71828 0
M  V30 3789 N 353.083 -0.367418 6.91825 0
M  V30 3790 N 354.876 -0.471938 5.60115 0
M  V30 3791 H 347.027 0.840684 1.95055 0
M  V30 3792 H 349.29 0.316987 0.893433 0
M  V30 3793 H 348.996 0.601742 3.46514 0
M  V30 3794 H 348.87 -1.14371 3.59443 0
M  V30 3795 H 351.257 -1.34976 2.62422 0
M  V30 3796 H 351.338 0.414962 2.52412 0
M  V30 3797 H 350.982 0.552219 5.04889 0
M  V30 3798 H 350.912 -1.22645 5.12119 0
M  V30 3799 H 353.403 -0.482612 3.74806 0
M  V30 3800 H 353.716 -0.363535 7.71944 0
M  V30 3801 H 352.061 -0.333879 6.94198 0
M  V30 3802 H 355.252 -0.514145 4.65268 0
M  V30 3803 H 355.425 -0.460073 6.46365 0
M  V30 3804 N 348.832 -1.54138 -0.328536 0
M  V30 3805 C 349.764 -1.79509 -1.4251 0
M  V30 3806 C 350.777 -0.67688 -1.48061 0
M  V30 3807 O 351.966 -0.953898 -1.50874 0
M  V30 3808 C 349.066 -1.89337 -2.81078 0
M  V30 3809 C 348.239 -3.19443 -2.98789 0
M  V30 3810 C 347.298 -3.20036 -4.17688 0
M  V30 3811 O 346.324 -3.93697 -4.11086 0
M  V30 3812 N 347.526 -2.43467 -5.26976 0
M  V30 3813 H 350.291 -2.74139 -1.21111 0
M  V30 3814 H 347.852 -1.53373 -0.518499 0
M  V30 3815 H 349.844 -1.87167 -3.58818 0
M  V30 3816 H 348.414 -1.01826 -2.95551 0
M  V30 3817 H 347.634 -3.34614 -2.08391 0
M  V30 3818 H 348.922 -4.05354 -3.07515 0
M  V30 3819 H 348.32 -1.83201 -5.35214 0
M  V30 3820 H 346.877 -2.4708 -6.03154 0
M  V30 3821 N 350.31 0.590341 -1.46126 0
M  V30 3822 C 351.257 1.69994 -1.56111 0
M  V30 3823 C 352.227 1.61065 -0.405867 0
M  V30 3824 O 353.412 1.8039 -0.621613 0
M  V30 3825 C 350.552 3.08326 -1.55013 0
M  V30 3826 C 349.665 3.27936 -2.81215 0
M  V30 3827 C 348.8 4.56473 -2.71673 0
M  V30 3828 C 347.839 4.694 -3.92849 0
M  V30 3829 N 346.976 5.89254 -3.81738 0
M  V30 3830 H 351.816 1.60797 -2.50895 0
M  V30 3831 H 349.353 0.783799 -1.24479 0
M  V30 3832 H 351.311 3.88383 -1.52362 0
M  V30 3833 H 349.941 3.16439 -0.637667 0
M  V30 3834 H 348.993 2.41536 -2.93879 0
M  V30 3835 H 350.305 3.33357 -3.71045 0
M  V30 3836 H 349.459 5.44748 -2.67085 0
M  V30 3837 H 348.198 4.53477 -1.7947 0
M  V30 3838 H 347.203 3.79544 -3.97777 0
M  V30 3839 H 348.428 4.7418 -4.86138 0
M  V30 3840 H 346.374 5.87271 -2.92317 0
M  V30 3841 H 346.291 5.95911 -4.65217 0
M  V30 3842 H 347.559 6.79981 -3.81112 0
M  V30 3843 N 351.788 1.33704 0.83433 0
M  V30 3844 C 353.013 1.28615 1.62705 0
M  V30 3845 C 353.438 -0.139242 1.87584 0
M  V30 3846 O 352.796 -1.09734 1.4432 0
M  V30 3847 C 352.844 2.07139 2.95171 0
M  V30 3848 O 351.948 1.4331 3.86699 0
M  V30 3849 H 351.289 0.44226 0.49528 0
M  V30 3850 H 353.819 1.76335 1.03766 0
M  V30 3851 H 353.829 2.18073 3.44831 0
M  V30 3852 H 352.504 3.10779 2.76386 0
M  V30 3853 H 351.081 1.4105 3.45195 0
M  V30 3854 N 353.266 -1.05314 1.17247 0
M  V30 3855 C 354.176 -2.16538 0.90268 0
M  V30 3856 C 355.192 -1.73523 -0.128707 0
M  V30 3857 O 356.368 -2.01337 0.0502701 0
M  V30 3858 C 353.433 -3.44167 0.418356 0
M  V30 3859 C 352.494 -4.01635 1.51618 0
M  V30 3860 C 351.727 -5.23171 1.05487 0
M  V30 3861 O 351.95 -5.70327 -0.0914715 0
M  V30 3862 O 350.884 -5.72848 1.8474 0
M  V30 3863 H 354.71 -2.42145 1.83302 0
M  V30 3864 H 352.295 -1.15037 0.953246 0
M  V30 3865 H 354.177 -4.21112 0.155726 0
M  V30 3866 H 352.852 -3.20063 -0.48385 0
M  V30 3867 H 351.759 -3.26135 1.83268 0
M  V30 3868 H 353.092 -4.30053 2.39405 0
M  V30 3869 N 354.744 -0.972509 -1.24016 0
M  V30 3870 C 355.99 -0.637978 -1.92504 0
M  V30 3871 C 356.323 0.825383 -1.75787 0
M  V30 3872 O 355.598 1.59442 -1.11393 0
M  V30 3873 C 355.881 -1.01942 -3.45369 0
M  V30 3874 C 355.734 -2.53983 -3.71231 0
M  V30 3875 C 357.053 -0.55751 -4.36555 0
M  V30 3876 H 354.172 -0.233248 -0.699117 0
M  V30 3877 H 356.814 -1.21238 -1.46292 0
M  V30 3878 H 354.964 -0.530656 -3.84859 0
M  V30 3879 H 356.636 -3.10374 -3.41271 0
M  V30 3880 H 354.879 -2.96968 -3.16216 0
M  V30 3881 H 355.55 -2.75723 -4.78206 0
M  V30 3882 H 358.026 -0.977029 -4.04467 0
M  V30 3883 H 356.902 -0.85292 -5.42233 0
M  V30 3884 H 357.163 0.542328 -4.38761 0
M  V30 3885 N 356.222 1.38976 -0.743202 0
M  V30 3886 C 357.499 1.94351 -0.220705 0
M  V30 3887 C 357.879 1.67935 1.2791 0
M  V30 3888 O 357.227 1.01211 2.04862 0
M  V30 3889 C 357.437 3.44426 -0.563171 0
M  V30 3890 C 358.785 4.2144 -0.517046 0
M  V30 3891 O 359.809 3.52661 -0.500846 0
M  V30 3892 O 358.668 5.44032 -0.518806 0
M  V30 3893 H 355.762 0.825879 -0.043047 0
M  V30 3894 H 358.308 1.48429 -0.822618 0
M  V30 3895 H 357.08 3.5712 -1.59941 0
M  V30 3896 H 356.703 3.97543 0.0672883 0
M  V30 3897 N 357.7 0.491464 1.49741 0
M  V30 3898 C 358.949 -0.0582189 2.01616 0
M  V30 3899 C 359.262 -1.38927 1.3769 0
M  V30 3900 O 360.468 -2.02509 1.80838 0
M  V30 3901 C 358.924 -0.154235 3.59569 0
M  V30 3902 C 358.532 1.1696 4.32463 0
M  V30 3903 C 360.276 -0.65479 4.1942 0
M  V30 3904 C 358.183 1.03627 5.8225 0
M  V30 3905 H 357.113 -0.0255317 0.753568 0
M  V30 3906 H 359.764 0.629445 1.72367 0
M  V30 3907 H 358.146 -0.906138 3.85493 0
M  V30 3908 H 359.32 1.93405 4.18248 0
M  V30 3909 H 357.635 1.60285 3.84315 0
M  V30 3910 H 360.232 -0.771903 5.29099 0
M  V30 3911 H 360.575 -1.65127 3.8215 0
M  V30 3912 H 361.108 0.040304 3.9778 0
M  V30 3913 H 357.847 2.00672 6.24028 0
M  V30 3914 H 357.367 0.312546 5.98985 0
M  V30 3915 H 359.046 0.711114 6.4308 0
M  V30 3916 N 359.178 -1.55987 0.224894 0
M  V30 3917 C 360.424 -1.98684 -0.406502 0
M  V30 3918 C 360.757 -1.11248 -1.59177 0
M  V30 3919 O 360.032 -0.170909 -1.93748 0
M  V30 3920 C 360.315 -3.50218 -0.837808 0
M  V30 3921 C 360.168 -4.48426 0.351332 0
M  V30 3922 C 361.487 -4.06243 -1.69278 0
M  V30 3923 H 358.606 -0.722337 -0.146283 0
M  V30 3924 H 361.248 -1.87255 0.321799 0
M  V30 3925 H 359.398 -3.60089 -1.45837 0
M  V30 3926 H 361.07 -4.50562 0.989526 0
M  V30 3927 H 359.313 -4.22159 0.998207 0
M  V30 3928 H 359.984 -5.52 0.00655905 0
M  V30 3929 H 362.46 -3.99337 -1.16914 0
M  V30 3930 H 361.336 -5.12581 -1.96346 0
M  V30 3931 H 361.597 -3.53332 -2.65723 0
M  V30 3932 N 360.656 0.0484629 -1.57525 0
M  V30 3933 C 361.902 0.744226 -1.88651 0
M  V30 3934 C 362.235 1.76029 -0.820212 0
M  V30 3935 O 361.51 1.93782 0.166985 0
M  V30 3936 C 361.793 1.43128 -3.30434 0
M  V30 3937 C 361.646 0.43005 -4.47739 0
M  V30 3938 C 362.965 2.37031 -3.70816 0
M  V30 3939 H 360.084 0.269089 -0.68612 0
M  V30 3940 H 362.726 0.00713532 -1.89999 0
M  V30 3941 H 360.876 2.05956 -3.29415 0
M  V30 3942 H 362.548 -0.194816 -4.60888 0
M  V30 3943 H 360.791 -0.252522 -4.33064 0
M  V30 3944 H 361.462 0.948874 -5.43783 0
M  V30 3945 H 363.938 1.84263 -3.73077 0
M  V30 3946 H 362.814 2.82094 -4.70865 0
M  V30 3947 H 363.075 3.22864 -3.02012 0
M  V30 3948 N 362.134 1.5431 0.320358 0
M  V30 3949 C 363.359 1.76954 1.08175 0
M  V30 3950 C 363.784 0.518193 1.80821 0
M  V30 3951 O 363.142 -0.530411 1.73368 0
M  V30 3952 C 363.19 2.96451 2.05303 0
M  V30 3953 O 362.294 2.68221 3.13259 0
M  V30 3954 H 361.635 0.586275 0.311733 0
M  V30 3955 H 364.165 2.01342 0.363676 0
M  V30 3956 H 364.175 3.23887 2.48116 0
M  V30 3957 H 362.85 3.87196 1.51829 0
M  V30 3958 H 361.427 2.51744 2.75099 0
M  V30 3959 N 363.613 -0.582584 1.46437 0
M  V30 3960 C 364.523 -1.71949 1.59595 0
M  V30 3961 C 365.539 -1.67264 0.479443 0
M  V30 3962 O 366.715 -1.87171 0.743579 0
M  V30 3963 C 363.78 -3.08452 1.58298 0
M  V30 3964 C 362.841 -3.244 2.81182 0
M  V30 3965 C 362.074 -4.54391 2.79937 0
M  V30 3966 O 362.297 -5.38287 1.8869 0
M  V30 3967 O 361.231 -4.73588 3.71481 0
M  V30 3968 H 365.057 -1.63795 2.55744 0
M  V30 3969 H 362.642 -0.749643 1.29231 0
M  V30 3970 H 364.524 -3.89732 1.60271 0
M  V30 3971 H 363.199 -3.17043 0.653094 0
M  V30 3972 H 362.106 -2.42613 2.84763 0
M  V30 3973 H 363.439 -3.20699 3.7338 0
M  V30 3974 N 365.091 -1.34144 -0.827227 0
M  V30 3975 C 366.368 -1.16844 -1.56865 0
M  V30 3976 C 366.748 0.260654 -2.09485 0
M  V30 3977 O 366.096 1.26138 -1.9053 0
M  V30 3978 C 366.306 -2.21939 -2.6934 0
M  V30 3979 C 367.654 -2.56695 -3.3822 0
M  V30 3980 O 368.678 -2.20695 -2.79593 0
M  V30 3981 O 367.537 -3.18518 -4.44082 0
M  V30 3982 H 364.631 -0.452669 -0.692112 0
M  V30 3983 H 367.177 -1.45763 -0.868973 0
M  V30 3984 H 365.949 -3.17882 -2.28182 0
M  V30 3985 H 365.572 -1.94172 -3.46962 0
M  V30 3986 N 366.569 1.04691 -1.17803 0
M  V30 3987 C 367.499 2.14494 -0.92275 0
M  V30 3988 C 368.48 1.69546 0.137179 0
M  V30 3989 O 369.665 1.94195 -0.0141108 0
M  V30 3990 C 366.795 3.44491 -0.440803 0
M  V30 3991 C 365.749 4.03031 -1.4405 0
M  V30 3992 C 365.075 5.28432 -0.81631 0
M  V30 3993 C 366.375 4.39932 -2.81527 0
M  V30 3994 H 368.069 2.36107 -1.84103 0
M  V30 3995 H 365.615 1.1347 -0.886599 0
M  V30 3996 H 367.568 4.2066 -0.249602 0
M  V30 3997 H 366.292 3.22546 0.513025 0
M  V30 3998 H 364.951 3.28937 -1.61853 0
M  V30 3999 H 364.599 5.02792 0.144511 0
M  V30 4000 H 364.299 5.68559 -1.48371 0
M  V30 4001 H 365.823 6.07284 -0.635496 0
M  V30 4002 H 367.237 5.07113 -2.67412 0
M  V30 4003 H 365.634 4.9109 -3.44892 0
M  V30 4004 H 366.704 3.50045 -3.35554 0
M  V30 4005 N 368.047 0.979072 1.23499 0
M  V30 4006 C 368.995 0.510604 2.26926 0
M  V30 4007 C 369.989 -0.431691 1.63807 0
M  V30 4008 O 371.195 -0.30573 1.77385 0
M  V30 4009 H 367.57 0.146688 0.737554 0
M  V30 4010 H 369.541 1.39466 2.63803 0
M  V30 4011 C 368.29 -0.172658 3.47271 0
M  V30 4012 H 367.613 0.543331 3.96091 0
M  V30 4013 H 369.053 -0.464101 4.21452 0
M  V30 4014 C 367.512 -1.40345 3.06276 0
M  V30 4015 O 368.042 -2.49978 3.14442 0
M  V30 4016 N 366.248 -1.27362 2.61203 0
M  V30 4017 H 365.795 -0.381584 2.54758 0
M  V30 4018 H 365.753 -2.09822 2.34141 0
M  V30 4019 N 369.525 -1.3858 0.750561 0
M  V30 4020 C 370.773 -1.99789 0.30477 0
M  V30 4021 C 371.094 -1.59874 -1.11649 0
M  V30 4022 O 370.364 -0.85417 -1.76297 0
M  V30 4023 H 368.944 -0.738902 0.109694 0
M  V30 4024 H 371.606 -1.69391 0.963983 0
M  V30 4025 H 370.702 -3.09952 0.365499 0
M  V30 4026 N 371.003 -0.499398 -1.49478 0
M  V30 4027 C 372.231 0.0425456 -2.06856 0
M  V30 4028 C 372.646 1.30964 -1.35992 0
M  V30 4029 O 372.003 1.77172 -0.437762 0
M  V30 4030 C 372.054 0.301735 -3.60239 0
M  V30 4031 O 371.775 -0.915127 -4.28436 0
M  V30 4032 C 373.276 0.887499 -4.34325 0
M  V30 4033 H 370.496 -0.0197482 -0.670709 0
M  V30 4034 H 373.04 -0.696297 -1.92281 0
M  V30 4035 H 371.195 0.990556 -3.74522 0
M  V30 4036 H 371.609 -0.676993 -5.20113 0
M  V30 4037 H 373.083 1.01845 -5.42523 0
M  V30 4038 H 373.56 1.88488 -3.96698 0
M  V30 4039 H 374.166 0.236196 -4.24644 0
M  V30 4040 N 372.481 1.55866 -0.233164 0
M  V30 4041 C 373.727 1.98897 0.395959 0
M  V30 4042 C 374.06 1.12091 1.58585 0
M  V30 4043 O 373.335 0.181182 1.93654 0
M  V30 4044 C 373.618 3.50658 0.819224 0
M  V30 4045 C 373.471 4.48233 -0.375109 0
M  V30 4046 C 374.79 4.07135 1.67121 0
M  V30 4047 H 371.909 0.723102 0.142451 0
M  V30 4048 H 374.551 1.87082 -0.331725 0
M  V30 4049 H 372.701 3.60857 1.43925 0
M  V30 4050 H 374.373 4.50031 -1.01341 0
M  V30 4051 H 372.616 4.21624 -1.02058 0
M  V30 4052 H 373.287 5.51988 -0.0358328 0
M  V30 4053 H 375.763 3.99952 1.14795 0
M  V30 4054 H 374.639 5.13615 1.93625 0
M  V30 4055 H 374.9 3.54736 2.63846 0
M  V30 4056 N 373.959 -0.0401083 1.57549 0
M  V30 4057 C 374.906 -1.04413 2.05831 0
M  V30 4058 C 375.876 -1.36585 0.945184 0
M  V30 4059 O 377.061 -1.47112 1.21502 0
M  V30 4060 C 374.201 -2.34336 2.53339 0
M  V30 4061 C 373.314 -2.08419 3.78398 0
M  V30 4062 C 372.449 -3.32133 4.14561 0
M  V30 4063 C 371.488 -3.01721 5.3257 0
M  V30 4064 N 370.625 -4.17855 5.64218 0
M  V30 4065 H 375.465 -0.625442 2.91363 0
M  V30 4066 H 373.002 -0.297218 1.44066 0
M  V30 4067 H 374.96 -3.10234 2.78946 0
M  V30 4068 H 373.59 -2.73948 1.7074 0
M  V30 4069 H 372.642 -1.23069 3.59942 0
M  V30 4070 H 373.954 -1.81978 4.64419 0
M  V30 4071 H 373.108 -4.16406 4.41238 0
M  V30 4072 H 371.847 -3.61678 3.2717 0
M  V30 4073 H 370.852 -2.15849 5.05657 0
M  V30 4074 H 372.077 -2.73466 6.21605 0
M  V30 4075 H 370.023 -4.47372 4.79786 0
M  V30 4076 H 369.94 -3.94798 6.44725 0
M  V30 4077 H 371.208 -5.03033 5.95465 0
M  V30 4078 N 375.437 -1.54477 -0.31217 0
M  V30 4079 C 376.684 -1.73227 -1.04875 0
M  V30 4080 C 377.012 -0.512042 -1.87639 0
M  V30 4081 O 376.267 0.506131 -1.89042 0
M  V30 4082 C 376.566 -2.967 -1.99258 0
M  V30 4083 C 376.232 -4.30974 -1.32559 0
M  V30 4084 C 374.894 -4.67477 -1.141 0
M  V30 4085 C 377.246 -5.14258 -0.847835 0
M  V30 4086 C 374.574 -5.84852 -0.465326 0
M  V30 4087 C 376.926 -6.32327 -0.185931 0
M  V30 4088 C 375.59 -6.67499 0.0107077 0
M  V30 4089 H 374.86 -0.633881 -0.383765 0
M  V30 4090 H 377.507 -1.88727 -0.324731 0
M  V30 4091 H 375.812 -2.75935 -2.7815 0
M  V30 4092 H 377.509 -3.08401 -2.563 0
M  V30 4093 H 374.099 -4.02262 -1.4793 0
M  V30 4094 H 378.283 -4.86565 -0.978192 0
M  V30 4095 H 373.539 -6.10654 -0.301883 0
M  V30 4096 H 377.713 -6.96135 0.192211 0
M  V30 4097 H 375.34 -7.58306 0.536287 0
M  V30 4098 N 376.915 0.57481 -1.46744 0
M  V30 4099 C 378.14 1.36341 -1.56288 0
M  V30 4100 C 378.565 1.86954 -0.207347 0
M  V30 4101 O 377.923 1.62006 0.813871 0
M  V30 4102 C 377.971 2.52147 -2.57787 0
M  V30 4103 O 377.075 3.53834 -2.11838 0
M  V30 4104 H 376.416 0.405713 -0.525636 0
M  V30 4105 H 378.946 0.696453 -1.92382 0
M  V30 4106 H 378.956 2.98958 -2.77648 0
M  V30 4107 H 377.631 2.14663 -3.5622 0
M  V30 4108 H 376.208 3.1345 -2.01999 0
M  V30 4109 N 378.394 1.34581 0.820102 0
M  V30 4110 C 379.619 1.30333 1.61332 0
M  V30 4111 C 380.044 -0.119339 1.87721 0
M  V30 4112 O 379.402 -1.08197 1.45475 0
M  V30 4113 C 379.45 2.10258 2.92957 0
M  V30 4114 O 378.554 1.47404 3.85157 0
M  V30 4115 H 377.895 0.447488 0.490561 0
M  V30 4116 H 380.425 1.77425 1.01889 0
M  V30 4117 H 380.435 2.21718 3.42498 0
M  V30 4118 H 379.11 3.13693 2.73074 0
M  V30 4119 H 377.687 1.44703 3.43679 0
M  V30 4120 N 379.872 -1.04064 1.18357 0
M  V30 4121 C 381.097 -1.81454 1.00445 0
M  V30 4122 C 381.522 -1.82823 -0.442423 0
M  V30 4123 O 380.88 -1.24555 -1.31741 0
M  V30 4124 C 380.928 -3.24925 1.56384 0
M  V30 4125 O 380.032 -4.04856 0.785209 0
M  V30 4126 H 379.373 -0.560604 0.355835 0
M  V30 4127 H 381.903 -1.31059 1.57114 0
M  V30 4128 H 381.913 -3.75702 1.59097 0
M  V30 4129 H 380.588 -3.23244 2.61699 0
M  V30 4130 H 379.165 -3.63537 0.830399 0
M  V30 4131 N 381.35 -0.985608 -1.22978 0
M  V30 4132 C 382.28 -0.549649 -2.26939 0
M  V30 4133 C 383.261 0.419803 -1.64838 0
M  V30 4134 O 384.446 0.31203 -1.91677 0
M  V30 4135 C 381.576 0.143652 -3.47003 0
M  V30 4136 C 380.53 -0.743606 -4.21491 0
M  V30 4137 C 379.856 0.0822027 -5.34637 0
M  V30 4138 C 381.156 -2.03694 -4.80943 0
M  V30 4139 H 382.85 -1.41862 -2.63658 0
M  V30 4140 H 380.396 -0.683571 -1.26741 0
M  V30 4141 H 382.349 0.459985 -4.18882 0
M  V30 4142 H 381.073 1.04711 -3.09359 0
M  V30 4143 H 379.732 -1.04347 -3.51436 0
M  V30 4144 H 379.38 0.986359 -4.93234 0
M  V30 4145 H 379.08 -0.508377 -5.85397 0
M  V30 4146 H 380.604 0.392797 -6.09335 0
M  V30 4147 H 382.018 -1.78504 -5.44802 0
M  V30 4148 H 380.415 -2.57573 -5.42011 0
M  V30 4149 H 381.485 -2.72042 -4.01399 0
M  V30 4150 N 382.828 1.3818 -0.7579 0
M  V30 4151 C 384.239 1.82726 -0.383134 0
M  V30 4152 C 384.59 1.63214 1.08884 0
M  V30 4153 O 383.715 1.13566 1.84205 0
M  V30 4154 C 384.31 3.31728 -0.688631 0
M  V30 4155 C 382.869 3.74606 -0.367091 0
M  V30 4156 C 382.016 2.60896 -0.939599 0
M  V30 4157 H 384.967 1.26847 -0.953699 0
M  V30 4158 H 384.988 3.80487 0.0316492 0
M  V30 4159 H 384.5 3.45898 -1.76001 0
M  V30 4160 H 382.601 3.66013 0.697532 0
M  V30 4161 H 382.714 4.71215 -0.865658 0
M  V30 4162 H 381.078 2.52075 -0.3647 0
M  V30 4163 H 381.861 2.77864 -2.0161 0
M  V30 4164 N 384.306 0.507319 1.49211 0
M  V30 4165 C 385.536 -0.0315292 2.06576 0
M  V30 4166 C 385.944 -1.30791 1.36713 0
M  V30 4167 O 385.287 -1.78324 0.441181 0
M  V30 4168 C 385.349 -0.349104 3.57801 0
M  V30 4169 C 385.013 0.830475 4.49391 0
M  V30 4170 C 386.01 1.72271 4.90529 0
M  V30 4171 C 383.695 1.03107 4.91604 0
M  V30 4172 C 385.689 2.79964 5.72625 0
M  V30 4173 C 383.376 2.11116 5.73475 0
M  V30 4174 C 384.374 2.99379 6.1389 0
M  V30 4175 O 384.062 4.05523 6.94123 0
M  V30 4176 H 383.794 0.0201002 0.675701 0
M  V30 4177 H 386.348 0.705737 1.92895 0
M  V30 4178 H 384.578 -1.14005 3.69513 0
M  V30 4179 H 386.267 -0.827319 3.97379 0
M  V30 4180 H 387.033 1.57958 4.58557 0
M  V30 4181 H 382.912 0.353417 4.59643 0
M  V30 4182 H 386.456 3.48884 6.04091 0
M  V30 4183 H 382.353 2.25421 6.0486 0
M  V30 4184 H 383.121 4.02953 7.1244 0
M  V30 4185 N 385.784 -1.5574 0.241426 0
M  V30 4186 C 387.195 -1.84842 -0.262755 0
M  V30 4187 C 387.546 -1.16317 -1.58003 0
M  V30 4188 O 386.671 -0.439653 -2.11887 0
M  V30 4189 C 387.266 -3.35332 -0.483523 0
M  V30 4190 C 385.825 -3.6468 -0.931977 0
M  V30 4191 C 384.972 -2.77299 -0.0061151 0
M  V30 4192 H 387.923 -1.51761 0.464129 0
M  V30 4193 H 387.944 -3.56615 -1.32688 0
M  V30 4194 H 387.456 -3.85178 0.47537 0
M  V30 4195 H 385.557 -3.20307 -1.90353 0
M  V30 4196 H 385.67 -4.72498 -0.792628 0
M  V30 4197 H 384.034 -2.49408 -0.516503 0
M  V30 4198 H 384.817 -3.2995 0.948052 0
M  V30 4199 N 387.262 0.0317525 -1.57568 0
M  V30 4200 C 388.21 1.05165 -2.07468 0
M  V30 4201 C 389.204 1.3761 -0.98792 0
M  V30 4202 O 390.41 1.36546 -1.17282 0
M  V30 4203 H 386.785 0.35666 -0.66204 0
M  V30 4204 H 388.756 0.604958 -2.92203 0
M  V30 4205 C 387.505 2.34488 -2.56731 0
M  V30 4206 H 386.828 2.10383 -3.39969 0
M  V30 4207 H 388.268 3.04203 -2.95358 0
M  V30 4208 C 386.727 3.03266 -1.46736 0
M  V30 4209 O 387.257 3.92988 -0.832069 0
M  V30 4210 N 385.463 2.6455 -1.20256 0
M  V30 4211 H 385.01 1.91674 -1.72102 0
M  V30 4212 H 384.968 3.10886 -0.468737 0
M  V30 4213 N 388.74 1.54641 0.303973 0
M  V30 4214 C 389.688 1.86137 1.39484 0
M  V30 4215 C 390.682 0.734854 1.52631 0
M  V30 4216 O 391.888 0.918803 1.54784 0
M  V30 4217 H 388.263 0.590324 0.465856 0
M  V30 4218 H 390.234 2.77324 1.10154 0
M  V30 4219 C 388.983 2.12274 2.75382 0
M  V30 4220 H 388.306 2.98429 2.66046 0
M  V30 4221 H 389.746 2.38254 3.5073 0
M  V30 4222 C 388.205 0.920365 3.24085 0
M  V30 4223 O 388.735 0.139377 4.01458 0
M  V30 4224 N 386.941 0.726566 2.81371 0
M  V30 4225 H 386.488 1.36332 2.18567 0
M  V30 4226 H 386.446 -0.0763799 3.14307 0
M  V30 4227 N 390.218 -0.567019 1.47046 0
M  V30 4228 C 391.148 -1.68482 1.61667 0
M  V30 4229 C 392.129 -1.6358 0.466418 0
M  V30 4230 O 393.314 -1.81354 0.694574 0
M  V30 4231 C 390.444 -3.07124 1.62148 0
M  V30 4232 C 389.398 -3.26867 2.76301 0
M  V30 4233 C 388.724 -4.66196 2.61849 0
M  V30 4234 C 390.024 -3.13186 4.17986 0
M  V30 4235 H 391.718 -1.56502 2.5524 0
M  V30 4236 H 389.264 -0.751486 1.22836 0
M  V30 4237 H 391.217 -3.8516 1.70968 0
M  V30 4238 H 389.941 -3.2004 0.651287 0
M  V30 4239 H 388.6 -2.51237 2.66975 0
M  V30 4240 H 388.248 -4.75898 1.62879 0
M  V30 4241 H 387.948 -4.80356 3.38425 0
M  V30 4242 H 389.472 -5.46379 2.72584 0
M  V30 4243 H 390.886 -3.81049 4.2834 0
M  V30 4244 H 389.283 -3.3886 4.95272 0
M  V30 4245 H 390.353 -2.10057 4.3704 0
M  V30 4246 N 391.696 -1.35014 -0.812953 0
M  V30 4247 C 392.644 -1.27435 -1.94585 0
M  V30 4248 C 393.638 -0.170494 -1.6854 0
M  V30 4249 O 394.844 -0.336085 -1.76835 0
M  V30 4250 H 391.219 -0.396144 -0.639198 0
M  V30 4251 H 393.19 -2.23158 -1.98098 0
M  V30 4252 C 391.939 -1.05677 -3.31252 0
M  V30 4253 H 391.262 -1.89853 -3.51846 0
M  V30 4254 H 392.702 -1.04413 -4.10943 0
M  V30 4255 C 391.161 0.239615 -3.36047 0
M  V30 4256 O 391.691 1.23759 -3.8216 0
M  V30 4257 N 389.897 0.276186 -2.89285 0
M  V30 4258 H 389.444 -0.53653 -2.51951 0
M  V30 4259 H 389.402 1.14332 -2.92875 0
M  V30 4260 N 393.175 1.03435 -1.18907 0
M  V30 4261 C 394.4 1.80919 -1.01406 0
M  V30 4262 C 394.825 1.83055 0.432721 0
M  V30 4263 O 394.183 1.25252 1.31079 0
M  V30 4264 C 394.231 3.24091 -1.58105 0
M  V30 4265 O 393.335 4.04434 -0.806669 0
M  V30 4266 H 392.676 0.558709 -0.358803 0
M  V30 4267 H 395.206 1.30223 -1.57807 0
M  V30 4268 H 395.216 3.74853 -1.61087 0
M  V30 4269 H 393.891 3.21851 -2.6341 0
M  V30 4270 H 392.468 3.63091 -0.849666 0
M  V30 4271 N 394.653 0.992116 1.22453 0
M  V30 4272 C 395.899 0.668523 1.91464 0
M  V30 4273 C 396.232 -0.797313 1.77078 0
M  V30 4274 O 395.507 -1.5765 1.13916 0
M  V30 4275 C 395.79 1.07424 3.43703 0
M  V30 4276 C 395.643 2.59857 3.67143 0
M  V30 4277 C 396.962 0.626891 4.35612 0
M  V30 4278 H 394.081 0.244341 0.695318 0
M  V30 4279 H 396.723 1.2355 1.44345 0
M  V30 4280 H 394.873 0.591816 3.83966 0
M  V30 4281 H 396.545 3.15764 3.3629 0
M  V30 4282 H 394.788 3.01961 3.11451 0
M  V30 4283 H 395.459 2.83296 4.73759 0
M  V30 4284 H 397.935 1.04125 4.02861 0
M  V30 4285 H 396.811 0.939076 5.40807 0
M  V30 4286 H 397.072 -0.472457 4.39568 0
M  V30 4287 N 396.131 -1.37776 0.765217 0
M  V30 4288 C 397.061 -2.32945 0.160953 0
M  V30 4289 C 398.042 -1.55454 -0.690516 0
M  V30 4290 O 399.227 -1.83721 -0.629318 0
M  V30 4291 C 396.357 -3.39669 -0.724031 0
M  V30 4292 C 395.311 -4.27992 0.0256173 0
M  V30 4293 C 394.637 -5.25673 -0.978383 0
M  V30 4294 C 395.937 -5.08309 1.20082 0
M  V30 4295 H 397.631 -2.83728 0.955969 0
M  V30 4296 H 395.177 -1.36416 0.461149 0
M  V30 4297 H 397.13 -4.05219 -1.15652 0
M  V30 4298 H 395.854 -2.87396 -1.5515 0
M  V30 4299 H 394.513 -3.63964 0.438812 0
M  V30 4300 H 394.161 -4.69682 -1.80022 0
M  V30 4301 H 393.861 -5.85625 -0.481378 0
M  V30 4302 H 395.385 -5.94098 -1.40995 0
M  V30 4303 H 396.799 -5.67034 0.845307 0
M  V30 4304 H 395.196 -5.77554 1.62947 0
M  V30 4305 H 396.266 -4.41365 2.00811 0
M  V30 4306 N 397.609 -0.515225 -1.4894 0
M  V30 4307 C 398.572 0.244681 -2.2789 0
M  V30 4308 C 399.572 0.881166 -1.34507 0
M  V30 4309 O 400.762 0.743497 -1.57537 0
M  V30 4310 C 397.894 1.35247 -3.12923 0
M  V30 4311 H 399.087 -0.448289 -2.96531 0
M  V30 4312 H 396.64 -0.270656 -1.53939 0
M  V30 4313 H 397.375 2.07916 -2.48881 0
M  V30 4314 H 397.16 0.901374 -3.81599 0
M  V30 4315 H 398.65 1.88737 -3.72516 0
M  V30 4316 N 399.087 1.5561 -0.249682 0
M  V30 4317 C 399.997 2.25143 0.659375 0
M  V30 4318 C 401.013 1.2685 1.19101 0
M  V30 4319 O 402.189 1.59732 1.22669 0
M  V30 4320 C 399.254 2.93945 1.8384 0
M  V30 4321 C 398.315 4.07655 1.34596 0
M  V30 4322 C 397.548 4.73167 2.46878 0
M  V30 4323 O 397.771 4.37768 3.65671 0
M  V30 4324 O 396.705 5.61623 2.16478 0
M  V30 4325 H 400.531 3.03545 0.0968698 0
M  V30 4326 H 398.116 1.49389 -0.018074 0
M  V30 4327 H 399.998 3.37271 2.52638 0
M  V30 4328 H 398.673 2.18481 2.38847 0
M  V30 4329 H 397.58 3.68839 0.625174 0
M  V30 4330 H 398.913 4.84946 0.841941 0
M  V30 4331 N 400.565 -0.0233959 1.57583 0
M  V30 4332 C 401.981 -0.379134 1.55031 0
M  V30 4333 C 402.181 -1.76255 0.976548 0
M  V30 4334 O 401.237 -2.45266 0.600078 0
M  V30 4335 C 402.55 -0.275792 2.99433 0
M  V30 4336 C 404.098 -0.352458 3.11009 0
M  V30 4337 C 404.573 -0.278501 4.57152 0
M  V30 4338 N 406.064 -0.337123 4.61972 0
M  V30 4339 C 406.799 -0.302876 5.726 0
M  V30 4340 N 406.295 -0.220589 6.92449 0
M  V30 4341 N 408.088 -0.353023 5.6099 0
M  V30 4342 H 400.239 0.881869 1.93227 0
M  V30 4343 H 402.502 0.335867 0.886509 0
M  V30 4344 H 402.208 0.675108 3.4516 0
M  V30 4345 H 402.082 -1.06721 3.61788 0
M  V30 4346 H 404.469 -1.29379 2.65226 0
M  V30 4347 H 404.55 0.468409 2.51475 0
M  V30 4348 H 404.194 0.659189 5.03604 0
M  V30 4349 H 404.124 -1.11755 5.14605 0
M  V30 4350 H 406.615 -0.403002 3.75745 0
M  V30 4351 H 406.928 -0.199713 7.72542 0
M  V30 4352 H 405.273 -0.186555 6.9475 0
M  V30 4353 H 408.464 -0.415339 4.66254 0
M  V30 4354 H 408.637 -0.322866 6.47195 0
M  V30 4355 N 402.043 -1.548 -0.295768 0
M  V30 4356 C 402.973 -1.89115 -1.36959 0
M  V30 4357 C 403.954 -0.75059 -1.52644 0
M  V30 4358 O 405.139 -1.00678 -1.66065 0
M  V30 4359 C 402.269 -2.14307 -2.73295 0
M  V30 4360 C 401.223 -3.30151 -2.72368 0
M  V30 4361 C 400.549 -3.40772 -4.12042 0
M  V30 4362 C 401.849 -4.67126 -2.33646 0
M  V30 4363 H 403.543 -2.79053 -1.08488 0
M  V30 4364 H 401.089 -1.34266 -0.520443 0
M  V30 4365 H 403.042 -2.36898 -3.48507 0
M  V30 4366 H 401.766 -1.21145 -3.03301 0
M  V30 4367 H 400.425 -3.0749 -1.99613 0
M  V30 4368 H 400.073 -2.45117 -4.39234 0
M  V30 4369 H 399.773 -4.18645 -4.12322 0
M  V30 4370 H 401.297 -3.6563 -4.89027 0
M  V30 4371 H 402.711 -4.89414 -2.98575 0
M  V30 4372 H 401.108 -5.47751 -2.45129 0
M  V30 4373 H 402.178 -4.67489 -1.28772 0
M  V30 4374 N 403.521 0.559213 -1.47345 0
M  V30 4375 C 404.431 1.69388 -1.62311 0
M  V30 4376 C 405.447 1.6648 -0.505993 0
M  V30 4377 O 406.623 1.85964 -0.773262 0
M  V30 4378 C 403.688 3.05894 -1.63185 0
M  V30 4379 C 402.749 3.19885 -2.86307 0
M  V30 4380 C 401.982 4.49879 -2.87131 0
M  V30 4381 O 402.205 5.35217 -1.97229 0
M  V30 4382 O 401.139 4.67618 -3.78968 0
M  V30 4383 H 404.965 1.59706 -2.58317 0
M  V30 4384 H 402.55 0.728989 -1.30407 0
M  V30 4385 H 404.432 3.87133 -1.66451 0
M  V30 4386 H 403.107 3.15964 -0.70345 0
M  V30 4387 H 402.014 2.38052 -2.88587 0
M  V30 4388 H 403.347 3.14718 -3.78435 0
M  V30 4389 N 404.999 1.35443 0.805782 0
M  V30 4390 C 405.946 1.28431 1.91766 0
M  V30 4391 C 406.916 0.156102 1.65365 0
M  V30 4392 O 408.101 0.339936 1.87747 0
M  V30 4393 C 405.241 1.06301 3.2832 0
M  V30 4394 C 404.354 2.2805 3.66902 0
M  V30 4395 C 403.489 1.99064 4.92491 0
M  V30 4396 C 402.528 3.16863 5.23703 0
M  V30 4397 N 401.665 2.87647 6.40471 0
M  V30 4398 H 406.505 2.23511 1.97096 0
M  V30 4399 H 404.042 1.11105 0.964054 0
M  V30 4400 H 406 0.915012 4.07042 0
M  V30 4401 H 404.63 0.148822 3.22457 0
M  V30 4402 H 403.682 2.53711 2.83434 0
M  V30 4403 H 404.994 3.1601 3.85927 0
M  V30 4404 H 404.148 1.81099 5.7904 0
M  V30 4405 H 402.887 1.0839 4.75503 0
M  V30 4406 H 401.892 3.35404 4.35642 0
M  V30 4407 H 403.117 4.08339 5.4262 0
M  V30 4408 H 401.063 1.99568 6.24907 0
M  V30 4409 H 400.98 3.69141 6.59751 0
M  V30 4410 H 402.248 2.73226 7.30047 0
M  V30 4411 N 406.477 -1.02803 1.19454 0
M  V30 4412 C 407.723 -1.76598 1.0092 0
M  V30 4413 C 408.078 -1.86939 -0.455142 0
M  V30 4414 O 407.371 -1.37575 -1.33355 0
M  V30 4415 C 407.565 -3.18941 1.6128 0
M  V30 4416 C 407.394 -3.22476 3.13431 0
M  V30 4417 C 406.164 -3.30375 3.82336 0
M  V30 4418 C 408.362 -3.09451 4.10785 0
M  V30 4419 N 406.344 -3.23292 5.21877 0
M  V30 4420 C 407.715 -3.10012 5.36929 0
M  V30 4421 C 409.77 -2.93585 4.02135 0
M  V30 4422 C 408.473 -2.96334 6.55423 0
M  V30 4423 C 410.499 -2.81256 5.20239 0
M  V30 4424 C 409.861 -2.82472 6.45282 0
M  V30 4425 H 405.96 -0.657447 0.423424 0
M  V30 4426 H 408.544 -1.22369 1.5144 0
M  V30 4427 H 406.715 -3.71489 1.1336 0
M  V30 4428 H 408.447 -3.81102 1.36173 0
M  V30 4429 H 405.202 -3.3663 3.33132 0
M  V30 4430 H 405.626 -3.23156 5.94894 0
M  V30 4431 H 410.268 -2.91466 3.0628 0
M  V30 4432 H 407.986 -2.97203 7.51463 0
M  V30 4433 H 411.572 -2.70014 5.15348 0
M  V30 4434 H 410.452 -2.73036 7.35133 0
M  V30 4435 N 407.956 -0.998596 -1.21925 0
M  V30 4436 C 408.886 -0.573688 -2.26343 0
M  V30 4437 C 409.867 0.402296 -1.65274 0
M  V30 4438 O 411.052 0.291683 -1.91997 0
M  V30 4439 C 408.182 0.106839 -3.47136 0
M  V30 4440 C 407.136 -0.788269 -4.20678 0
M  V30 4441 C 406.462 0.0254927 -5.34694 0
M  V30 4442 C 407.762 -2.08784 -4.78755 0
M  V30 4443 H 409.456 -1.44651 -2.62138 0
M  V30 4444 H 407.002 -0.696975 -1.26009 0
M  V30 4445 H 408.955 0.415531 -4.19346 0
M  V30 4446 H 407.679 1.01424 -3.10452 0
M  V30 4447 H 406.338 -1.08069 -3.50309 0
M  V30 4448 H 405.986 0.933989 -4.94253 0
M  V30 4449 H 405.686 -0.570437 -5.84825 0
M  V30 4450 H 407.21 0.328147 -6.09718 0
M  V30 4451 H 408.624 -1.84272 -5.42878 0
M  V30 4452 H 407.021 -2.63307 -5.39249 0
M  V30 4453 H 408.091 -2.76284 -3.98491 0
M  V30 4454 N 409.434 1.37368 -0.772513 0
M  V30 4455 C 410.366 2.28899 -0.117502 0
M  V30 4456 C 411.379 1.4867 0.663405 0
M  V30 4457 O 412.568 1.71314 0.501372 0
M  V30 4458 C 409.668 3.2788 0.857192 0
M  V30 4459 C 408.841 4.37207 0.129938 0
M  V30 4460 C 407.9 5.16257 1.01811 0
M  V30 4461 O 406.926 5.67159 0.481601 0
M  V30 4462 N 408.128 5.31058 2.3443 0
M  V30 4463 H 410.893 2.85752 -0.903662 0
M  V30 4464 H 408.454 1.49353 -0.62493 0
M  V30 4465 H 410.446 3.77647 1.45482 0
M  V30 4466 H 409.016 2.7179 1.54432 0
M  V30 4467 H 408.236 3.88827 -0.648605 0
M  V30 4468 H 409.524 5.07434 -0.372559 0
M  V30 4469 H 408.922 4.91287 2.80452 0
M  V30 4470 H 407.479 5.84131 2.89197 0
M  V30 4471 N 410.912 0.523116 1.48665 0
M  V30 4472 C 411.842 -0.23231 2.32342 0
M  V30 4473 C 412.823 -0.941637 1.41659 0
M  V30 4474 O 414.008 -0.928751 1.70552 0
M  V30 4475 C 411.138 -1.28387 3.22698 0
M  V30 4476 C 410.092 -0.693098 4.22351 0
M  V30 4477 C 409.418 -1.8468 5.01794 0
M  V30 4478 C 410.718 0.33063 5.21252 0
M  V30 4479 H 412.412 0.466192 2.95748 0
M  V30 4480 H 409.958 0.225643 1.42221 0
M  V30 4481 H 411.911 -1.82024 3.80059 0
M  V30 4482 H 410.635 -2.01186 2.57278 0
M  V30 4483 H 409.294 -0.178299 3.66166 0
M  V30 4484 H 408.942 -2.56301 4.32804 0
M  V30 4485 H 408.642 -1.45747 5.69238 0
M  V30 4486 H 410.166 -2.38709 5.62006 0
M  V30 4487 H 411.58 -0.118407 5.73178 0
M  V30 4488 H 409.977 0.636974 5.9671 0
M  V30 4489 H 411.047 1.23883 4.68808 0
M  V30 4490 N 412.39 -1.55475 0.257931 0
M  V30 4491 C 413.323 -2.179 -0.677862 0
M  V30 4492 C 414.301 -1.13448 -1.16483 0
M  V30 4493 O 415.485 -1.41889 -1.24095 0
M  V30 4494 C 412.612 -2.78851 -1.92249 0
M  V30 4495 C 411.658 -3.96454 -1.57246 0
M  V30 4496 S 412.491 -5.31349 -0.665501 0
M  V30 4497 C 413.647 -5.9576 -1.91889 0
M  V30 4498 H 413.88 -2.96934 -0.147396 0
M  V30 4499 H 411.413 -1.54342 0.0423023 0
M  V30 4500 H 413.371 -3.14602 -2.63697 0
M  V30 4501 H 412.032 -1.99742 -2.42409 0
M  V30 4502 H 411.225 -4.37731 -2.49814 0
M  V30 4503 H 410.827 -3.62038 -0.938325 0
M  V30 4504 H 413.119 -6.13947 -2.86487 0
M  V30 4505 H 414.062 -6.9094 -1.54942 0
M  V30 4506 H 414.47 -5.2494 -2.076 0
M  V30 4507 N 413.868 0.0150385 -1.57593 0
M  V30 4508 C 414.798 1.01047 -2.10503 0
M  V30 4509 C 415.779 1.36816 -1.01071 0
M  V30 4510 O 416.964 1.45455 -1.28672 0
M  V30 4511 C 414.094 2.30708 -2.59598 0
M  V30 4512 C 413.048 2.09142 -3.73421 0
M  V30 4513 C 412.374 3.44685 -4.08774 0
M  V30 4514 C 413.674 1.46619 -5.01298 0
M  V30 4515 H 415.368 0.569978 -2.93925 0
M  V30 4516 H 412.914 0.272724 -1.41394 0
M  V30 4517 H 414.867 3.00687 -2.95238 0
M  V30 4518 H 413.591 2.76843 -1.73279 0
M  V30 4519 H 412.25 1.41592 -3.38153 0
M  V30 4520 H 411.898 3.88495 -3.195 0
M  V30 4521 H 411.598 3.31077 -4.8545 0
M  V30 4522 H 413.122 4.16004 -4.4696 0
M  V30 4523 H 414.536 2.06535 -5.34805 0
M  V30 4524 H 412.933 1.43544 -5.82679 0
M  V30 4525 H 414.003 0.433611 -4.82957 0
M  V30 4526 N 415.346 1.54954 0.287554 0
M  V30 4527 C 416.279 1.81737 1.3801 0
M  V30 4528 C 417.257 0.669412 1.48181 0
M  V30 4529 O 418.441 0.910839 1.65033 0
M  V30 4530 C 415.568 1.96606 2.75796 0
M  V30 4531 C 414.614 3.19098 2.82982 0
M  V30 4532 S 415.447 4.7683 2.43707 0
M  V30 4533 C 416.603 4.94653 3.83496 0
M  V30 4534 H 416.836 2.74122 1.15085 0
M  V30 4535 H 414.369 1.46538 0.486403 0
M  V30 4536 H 416.327 2.05858 3.55152 0
M  V30 4537 H 414.988 1.05136 2.95982 0
M  V30 4538 H 414.181 3.26344 3.84077 0
M  V30 4539 H 413.783 3.08361 2.11635 0
M  V30 4540 H 416.075 4.79502 4.78628 0
M  V30 4541 H 417.018 5.96728 3.8121 0
M  V30 4542 H 417.426 4.2272 3.74123 0
M  V30 4543 N 416.824 -0.551391 1.4764 0
M  V30 4544 C 418.07 -1.30789 1.55774 0
M  V30 4545 C 418.425 -1.91143 0.219562 0
M  V30 4546 O 417.718 -1.7521 -0.775375 0
M  V30 4547 C 417.912 -2.43469 2.61644 0
M  V30 4548 C 417.741 -1.94157 4.05627 0
M  V30 4549 C 416.511 -1.77734 4.7301 0
M  V30 4550 C 418.709 -1.48262 4.92466 0
M  V30 4551 N 416.691 -1.22823 6.01488 0
M  V30 4552 C 418.062 -1.05156 6.11017 0
M  V30 4553 C 420.117 -1.36367 4.78862 0
M  V30 4554 C 418.82 -0.513357 7.17466 0
M  V30 4555 C 420.846 -0.839484 5.85411 0
M  V30 4556 C 420.208 -0.418377 7.03156 0
M  V30 4557 H 416.307 -0.470406 0.624694 0
M  V30 4558 H 418.891 -0.624331 1.84419 0
M  V30 4559 H 417.062 -3.09348 2.34859 0
M  V30 4560 H 418.794 -3.10477 2.59589 0
M  V30 4561 H 415.549 -2.00623 4.29007 0
M  V30 4562 H 415.973 -0.974393 6.69951 0
M  V30 4563 H 420.615 -1.67535 3.88191 0
M  V30 4564 H 418.333 -0.189318 8.07878 0
M  V30 4565 H 421.919 -0.750921 5.76934 0
M  V30 4566 H 420.799 -0.0190538 7.84198 0
M  V30 4567 N 418.302 -1.35869 -0.798587 0
M  V30 4568 C 419.252 -1.25982 -1.90033 0
M  V30 4569 C 420.236 -0.153303 -1.60168 0
M  V30 4570 O 421.428 -0.38527 -1.72756 0
M  V30 4571 C 418.557 -1.04211 -3.27101 0
M  V30 4572 C 417.643 -2.19289 -3.63006 0
M  V30 4573 N 418.034 -3.44559 -3.70287 0
M  V30 4574 C 416.332 -2.10852 -3.93011 0
M  V30 4575 C 417.033 -4.20283 -4.02166 0
M  V30 4576 N 416.009 -3.49124 -4.16669 0
M  V30 4577 H 419.811 -2.20883 -1.93876 0
M  V30 4578 H 417.325 -1.28457 -0.993614 0
M  V30 4579 H 419.322 -0.952155 -4.05881 0
M  V30 4580 H 417.982 -0.102013 -3.2454 0
M  V30 4581 H 418.993 -3.7881 -3.53162 0
M  V30 4582 H 415.67 -1.24744 -3.98428 0
M  V30 4583 H 417.06 -5.28575 -4.14799 0
M  V30 4584 N 419.78 1.02168 -1.19998 0
M  V30 4585 C 421.191 1.57135 -1.00825 0
M  V30 4586 C 421.542 1.91276 0.436818 0
M  V30 4587 O 420.667 1.71679 1.3174 0
M  V30 4588 C 421.262 2.85514 -1.82393 0
M  V30 4589 C 419.821 3.37027 -1.67601 0
M  V30 4590 C 418.968 2.10388 -1.80644 0
M  V30 4591 H 421.919 0.846106 -1.34264 0
M  V30 4592 H 421.94 3.56711 -1.32429 0
M  V30 4593 H 421.452 2.60634 -2.87561 0
M  V30 4594 H 419.553 3.66878 -0.650485 0
M  V30 4595 H 419.666 4.09572 -2.4857 0
M  V30 4596 H 418.03 2.22601 -1.23778 0
M  V30 4597 H 418.813 1.8794 -2.87286 0
M  V30 4598 N 421.258 1.00505 1.21394 0
M  V30 4599 C 422.674 0.717873 1.42544 0
M  V30 4600 C 422.874 -0.706936 1.88692 0
M  V30 4601 O 421.93 -1.47627 2.04847 0
M  V30 4602 C 423.243 1.73377 2.45684 0
M  V30 4603 C 424.791 1.75059 2.59467 0
M  V30 4604 C 425.266 2.75545 3.6584 0
M  V30 4605 N 426.757 2.74213 3.73311 0
M  V30 4606 C 427.492 3.48626 4.55245 0
M  V30 4607 N 426.988 4.32678 5.41075 0
M  V30 4608 N 428.781 3.37276 4.49668 0
M  V30 4609 H 420.932 1.92506 0.897503 0
M  V30 4610 H 423.195 0.830919 0.456375 0
M  V30 4611 H 422.901 2.75395 2.18748 0
M  V30 4612 H 422.775 1.53647 3.44489 0
M  V30 4613 H 425.162 0.737337 2.8574 0
M  V30 4614 H 425.243 1.98861 1.60897 0
M  V30 4615 H 424.887 3.77028 3.40313 0
M  V30 4616 H 424.817 2.49009 4.64007 0
M  V30 4617 H 427.308 2.13234 3.11993 0
M  V30 4618 H 427.621 4.86253 6.00648 0
M  V30 4619 H 425.966 4.3676 5.40616 0
M  V30 4620 H 429.157 2.71043 3.81646 0
M  V30 4621 H 429.33 3.95524 5.13288 0
M  V30 4622 N 422.737 -1.36956 0.779787 0
M  V30 4623 C 423.669 -2.28833 0.129639 0
M  V30 4624 C 424.682 -1.4902 -0.655511 0
M  V30 4625 O 425.871 -1.71578 -0.492279 0
M  V30 4626 C 422.971 -3.2833 -0.839792 0
M  V30 4627 C 422.144 -4.3727 -0.10675 0
M  V30 4628 C 421.203 -5.16789 -0.990717 0
M  V30 4629 O 420.229 -5.67406 -0.451516 0
M  V30 4630 N 421.431 -5.32294 -2.3161 0
M  V30 4631 H 424.196 -2.85268 0.918803 0
M  V30 4632 H 421.757 -1.49019 0.632841 0
M  V30 4633 H 423.749 -3.78413 -1.43477 0
M  V30 4634 H 422.319 -2.72605 -1.52988 0
M  V30 4635 H 421.539 -3.88478 0.669216 0
M  V30 4636 H 422.827 -5.07229 0.399464 0
M  V30 4637 H 422.225 -4.92768 -2.77843 0
M  V30 4638 H 420.782 -5.85656 -2.86095 0
M  V30 4639 N 424.215 -0.530993 -1.48385 0
M  V30 4640 C 425.631 -0.188919 -1.58478 0
M  V30 4641 C 425.831 1.30786 -1.53288 0
M  V30 4642 O 424.887 2.08619 -1.42248 0
M  V30 4643 C 426.2 -0.792343 -2.90073 0
M  V30 4644 C 427.748 -0.76117 -3.03604 0
M  V30 4645 C 428.223 -1.34319 -4.37861 0
M  V30 4646 N 429.714 -1.3052 -4.44431 0
M  V30 4647 C 430.449 -1.72543 -5.46824 0
M  V30 4648 N 429.945 -2.22299 -6.56167 0
M  V30 4649 N 431.738 -1.63773 -5.37712 0
M  V30 4650 H 423.889 -1.50377 -1.50002 0
M  V30 4651 H 426.152 -0.625559 -0.712306 0
M  V30 4652 H 425.858 -1.84323 -2.99529 0
M  V30 4653 H 425.732 -0.270026 -3.76232 0
M  V30 4654 H 428.119 0.280957 -2.93759 0
M  V30 4655 H 428.2 -1.32097 -2.19053 0
M  V30 4656 H 427.844 -2.38425 -4.4846 0
M  V30 4657 H 427.774 -0.759064 -5.21101 0
M  V30 4658 H 430.265 -0.940973 -3.65997 0
M  V30 4659 H 430.578 -2.52356 -7.30436 0
M  V30 4660 H 428.923 -2.26293 -6.57127 0
M  V30 4661 H 432.114 -1.24698 -4.51185 0
M  V30 4662 H 432.287 -1.96844 -6.17379 0
M  V30 4663 N 425.693 1.55336 -0.266172 0
M  V30 4664 C 426.941 1.99003 0.35246 0
M  V30 4665 C 427.262 1.15591 1.57047 0
M  V30 4666 O 426.532 0.243268 1.94384 0
M  V30 4667 H 425.112 0.735025 0.133217 0
M  V30 4668 H 427.774 1.91367 -0.369434 0
M  V30 4669 H 426.87 3.05289 0.648453 0
M  V30 4670 N 427.171 -0.0066808 1.57599 0
M  V30 4671 C 428.399 -0.704087 1.94551 0
M  V30 4672 C 428.814 -1.67677 0.867746 0
M  V30 4673 O 428.171 -1.8185 -0.153925 0
M  V30 4674 C 428.222 -1.44177 3.31505 0
M  V30 4675 O 427.943 -0.508097 4.35144 0
M  V30 4676 C 429.444 -2.23429 3.82876 0
M  V30 4677 H 426.664 -0.196523 0.641576 0
M  V30 4678 H 429.208 0.042453 2.04456 0
M  V30 4679 H 427.363 -2.13999 3.22929 0
M  V30 4680 H 427.777 -1.02782 5.14331 0
M  V30 4681 H 429.251 -2.70552 4.8115 0
M  V30 4682 H 429.728 -3.05818 3.15233 0
M  V30 4683 H 430.334 -1.58636 3.94607 0
M  V30 4684 N 428.649 -1.55105 -0.279332 0
M  V30 4685 C 429.926 -1.66119 -1.03267 0
M  V30 4686 C 430.306 -0.523525 -2.04505 0
M  V30 4687 O 429.654 0.477194 -2.23462 0
M  V30 4688 C 429.864 -3.05067 -1.69515 0
M  V30 4689 C 431.212 -3.62606 -2.20912 0
M  V30 4690 O 432.236 -3.07659 -1.79512 0
M  V30 4691 O 431.095 -4.58861 -2.96831 0
M  V30 4692 H 428.189 -0.674429 -0.478618 0
M  V30 4693 H 430.735 -1.67446 -0.275694 0
M  V30 4694 H 429.507 -3.79311 -0.9612 0
M  V30 4695 H 429.13 -3.07611 -2.51915 0
M  V30 4696 N 430.127 0.543554 -1.4793 0
M  V30 4697 C 431.538 1.12561 -1.48953 0
M  V30 4698 C 431.889 1.94578 -0.251754 0
M  V30 4699 O 431.014 2.0665 0.642255 0
M  V30 4700 C 431.609 2.04801 -2.69892 0
M  V30 4701 C 430.168 2.58251 -2.73831 0
M  V30 4702 C 429.315 1.34918 -2.42265 0
M  V30 4703 H 432.266 0.32947 -1.55242 0
M  V30 4704 H 432.287 2.88886 -2.47639 0
M  V30 4705 H 431.799 1.4508 -3.59963 0
M  V30 4706 H 429.9 3.21732 -1.87934 0
M  V30 4707 H 430.013 2.98312 -3.74895 0
M  V30 4708 H 428.377 1.66046 -1.93134 0
M  V30 4709 H 429.16 0.769693 -3.3456 0
M  V30 4710 N 431.605 1.3629 0.791371 0
M  V30 4711 C 432.833 1.33562 1.58016 0
M  V30 4712 C 433.248 -0.0835616 1.88615 0
M  V30 4713 O 432.605 -1.0399 1.49974 0
M  V30 4714 C 432.656 2.15517 2.90232 0
M  V30 4715 O 432.377 3.51902 2.60953 0
M  V30 4716 C 433.878 2.20546 3.84544 0
M  V30 4717 H 431.098 0.458226 0.490173 0
M  V30 4718 H 433.642 1.79361 0.982345 0
M  V30 4719 H 431.797 1.73278 3.46487 0
M  V30 4720 H 432.211 3.94644 3.4548 0
M  V30 4721 H 433.685 2.82252 4.74382 0
M  V30 4722 H 434.162 1.20838 4.2225 0
M  V30 4723 H 434.768 2.63013 3.34222 0
M  V30 4724 N 433.083 -1.0153 1.20538 0
M  V30 4725 C 434.313 -1.78487 1.04048 0
M  V30 4726 C 434.721 -1.84631 -0.413292 0
M  V30 4727 O 434.064 -1.29919 -1.29872 0
M  V30 4728 C 434.126 -3.24367 1.55003 0
M  V30 4729 C 433.79 -3.41827 3.0332 0
M  V30 4730 C 434.787 -3.30941 4.00966 0
M  V30 4731 C 432.472 -3.67602 3.42307 0
M  V30 4732 C 434.466 -3.45577 5.35589 0
M  V30 4733 C 432.153 -3.81881 4.77085 0
M  V30 4734 C 433.151 -3.70874 5.73534 0
M  V30 4735 O 432.839 -3.84714 7.05868 0
M  V30 4736 H 432.571 -0.568108 0.366373 0
M  V30 4737 H 435.125 -1.28677 1.60098 0
M  V30 4738 H 433.355 -3.75266 0.933397 0
M  V30 4739 H 435.044 -3.82963 1.34514 0
M  V30 4740 H 435.81 -3.10964 3.72191 0
M  V30 4741 H 431.689 -3.75256 2.67776 0
M  V30 4742 H 435.233 -3.36902 6.10854 0
M  V30 4743 H 431.13 -4.01359 5.0555 0
M  V30 4744 H 431.898 -4.01724 7.13134 0
M  V30 4745 N 434.561 -1.01147 -1.20859 0
M  V30 4746 C 435.809 -0.696486 -1.89719 0
M  V30 4747 C 436.13 0.775788 -1.78904 0
M  V30 4748 O 435.4 1.55759 -1.18811 0
M  V30 4749 H 433.98 -0.254628 -0.702263 0
M  V30 4750 H 436.642 -1.28197 -1.46804 0
M  V30 4751 H 435.738 -0.975357 -2.96468 0
M  V30 4752 N 436.039 1.36541 -0.78704 0
M  V30 4753 C 437.45 1.81873 -0.421807 0
M  V30 4754 C 437.801 1.65487 1.05397 0
M  V30 4755 O 436.926 1.17448 1.81755 0
M  V30 4756 C 437.521 3.30192 -0.758841 0
M  V30 4757 C 436.08 3.73743 -0.446468 0
M  V30 4758 C 435.227 2.58844 -0.994728 0
M  V30 4759 H 438.178 1.24796 -0.98039 0
M  V30 4760 H 438.199 3.80468 -0.0490648 0
M  V30 4761 H 437.711 3.42087 -1.83299 0
M  V30 4762 H 435.812 3.6741 0.619739 0
M  V30 4763 H 435.925 4.69272 -0.965415 0
M  V30 4764 H 434.289 2.51245 -0.418087 0
M  V30 4765 H 435.072 2.73525 -2.07458 0
M  V30 4766 N 437.518 0.538854 1.48102 0
M  V30 4767 C 438.466 -0.232325 2.31437 0
M  V30 4768 C 439.46 -0.927004 1.41785 0
M  V30 4769 O 440.666 -0.850378 1.58646 0
M  V30 4770 H 437.041 -0.0937916 0.746128 0
M  V30 4771 H 439.012 0.489986 2.9435 0
M  V30 4772 C 437.761 -1.26074 3.24038 0
M  V30 4773 H 437.084 -0.735609 3.92974 0
M  V30 4774 H 438.524 -1.77157 3.85216 0
M  V30 4775 C 436.983 -2.29902 2.46265 0
M  V30 4776 O 437.513 -3.36502 2.19384 0
M  V30 4777 N 435.719 -2.03348 2.07601 0
M  V30 4778 H 435.266 -1.16675 2.29662 0
M  V30 4779 H 435.224 -2.73038 1.55877 0
M  V30 4780 N 438.996 -1.55193 0.274407 0
M  V30 4781 C 440.244 -1.99187 -0.341902 0
M  V30 4782 C 440.565 -1.16422 -1.56431 0
M  V30 4783 O 439.835 -0.253573 -1.94252 0
M  V30 4784 H 438.415 -0.735721 -0.129317 0
M  V30 4785 H 441.077 -1.91168 0.379578 0
M  V30 4786 H 440.173 -3.05629 -0.632253 0
M  V30 4787 N 440.474 -0.00167713 -1.576 0
M  V30 4788 C 441.714 0.687302 -1.92498 0
M  V30 4789 C 442.078 1.70844 -0.876144 0
M  V30 4790 O 443.279 2.44792 -1.11043 0
M  V30 4791 C 441.55 1.31217 -3.32441 0
M  V30 4792 S 443.109 2.02604 -3.89226 0
M  V30 4793 H 439.927 0.226985 -0.673794 0
M  V30 4794 H 442.529 -0.0587666 -1.95412 0
M  V30 4795 H 441.233 0.556164 -4.06614 0
M  V30 4796 H 440.764 2.09613 -3.32905 0
M  V30 4797 H 442.779 3.30137 -3.70438 0
M  V30 4798 N 441.952 1.55251 0.271103 0
M  V30 4799 C 443.199 1.75946 1.00245 0
M  V30 4800 C 443.527 0.561611 1.86215 0
M  V30 4801 O 442.782 -0.455832 1.90317 0
M  V30 4802 C 443.081 3.01879 1.91321 0
M  V30 4803 C 442.747 4.34337 1.21086 0
M  V30 4804 C 441.409 4.70338 1.01666 0
M  V30 4805 C 443.761 5.16325 0.71119 0
M  V30 4806 C 441.089 5.8588 0.310099 0
M  V30 4807 C 443.441 6.32597 0.0182157 0
M  V30 4808 C 442.105 6.67236 -0.18768 0
M  V30 4809 H 441.375 0.643833 0.366824 0
M  V30 4810 H 444.022 1.89521 0.27458 0
M  V30 4811 H 442.327 2.83212 2.70736 0
M  V30 4812 H 444.024 3.15088 2.48033 0
M  V30 4813 H 440.614 4.06043 1.37213 0
M  V30 4814 H 444.798 4.88987 0.848844 0
M  V30 4815 H 440.054 6.1124 0.139873 0
M  V30 4816 H 444.228 6.9538 -0.376711 0
M  V30 4817 H 441.855 7.56618 -0.73715 0
M  V30 4818 N 443.43 -0.535701 1.48216 0
M  V30 4819 C 444.377 -1.64083 1.62312 0
M  V30 4820 C 445.347 -1.59448 0.465365 0
M  V30 4821 O 446.532 -1.77959 0.688135 0
M  V30 4822 C 443.672 -3.0236 1.66349 0
M  V30 4823 C 442.785 -3.17273 2.93193 0
M  V30 4824 C 441.92 -4.46075 2.88427 0
M  V30 4825 C 440.959 -4.54496 4.1 0
M  V30 4826 N 440.096 -5.7468 4.03345 0
M  V30 4827 H 444.936 -1.51374 2.5669 0
M  V30 4828 H 442.473 -0.737059 1.27302 0
M  V30 4829 H 444.431 -3.82461 1.66672 0
M  V30 4830 H 443.061 -3.13854 0.754672 0
M  V30 4831 H 442.113 -2.30462 3.02641 0
M  V30 4832 H 443.425 -3.19357 3.83162 0
M  V30 4833 H 442.579 -5.3446 2.87119 0
M  V30 4834 H 441.318 -4.46504 1.96177 0
M  V30 4835 H 440.323 -3.64519 4.11589 0
M  V30 4836 H 441.548 -4.5581 5.03402 0
M  V30 4837 H 439.494 -5.76017 3.13912 0
M  V30 4838 H 439.411 -5.78234 4.87013 0
M  V30 4839 H 440.679 -6.65367 4.06087 0
M  V30 4840 N 444.908 -1.36708 -0.784132 0
M  V30 4841 C 445.871 -1.31307 -1.87859 0
M  V30 4842 C 446.871 -0.219654 -1.59293 0
M  V30 4843 O 448.061 -0.47476 -1.67606 0
M  V30 4844 C 445.193 -1.03679 -3.24751 0
M  V30 4845 H 446.386 -2.28647 -1.94064 0
M  V30 4846 H 443.939 -1.21558 -0.98252 0
M  V30 4847 H 444.674 -0.0681936 -3.24228 0
M  V30 4848 H 444.459 -1.82811 -3.46876 0
M  V30 4849 H 445.949 -1.02518 -4.04821 0
M  V30 4850 N 446.386 1.0089 -1.21074 0
M  V30 4851 C 447.316 2.1145 -0.990523 0
M  V30 4852 C 448.297 1.69897 0.0831699 0
M  V30 4853 O 449.482 1.94052 -0.0758853 0
M  V30 4854 C 446.612 3.42914 -0.550177 0
M  V30 4855 C 445.566 3.98244 -1.56799 0
M  V30 4856 C 444.892 5.25568 -0.984013 0
M  V30 4857 C 446.192 4.30752 -2.95381 0
M  V30 4858 H 447.886 2.3013 -1.91521 0
M  V30 4859 H 445.432 1.10592 -0.92225 0
M  V30 4860 H 447.385 4.19653 -0.383305 0
M  V30 4861 H 446.109 3.24014 0.41015 0
M  V30 4862 H 444.768 3.23621 -1.72236 0
M  V30 4863 H 444.416 5.02998 -0.0155216 0
M  V30 4864 H 444.116 5.63551 -1.66384 0
M  V30 4865 H 445.64 6.04955 -0.828378 0
M  V30 4866 H 447.054 4.98349 -2.8341 0
M  V30 4867 H 445.451 4.79869 -3.60341 0
M  V30 4868 H 446.521 3.39192 -3.46521 0
M  V30 4869 N 447.864 1.01787 1.20321 0
M  V30 4870 C 449.141 0.622978 1.85414 0
M  V30 4871 C 449.521 -0.898887 1.91006 0
M  V30 4872 O 448.869 -1.79112 1.41884 0
M  V30 4873 C 449.079 1.27226 3.24984 0
M  V30 4874 C 450.427 1.3885 4.01255 0
M  V30 4875 O 451.451 1.22857 3.34342 0
M  V30 4876 O 450.31 1.64705 5.2109 0
M  V30 4877 H 447.404 0.215116 0.798533 0
M  V30 4878 H 449.95 1.11533 1.27901 0
M  V30 4879 H 448.722 2.31209 3.15687 0
M  V30 4880 H 448.345 0.767069 3.90131 0
M  V30 4881 N 449.342 -1.36122 0.79427 0
M  V30 4882 C 450.619 -1.93398 0.292685 0
M  V30 4883 C 450.999 -1.72567 -1.21589 0
M  V30 4884 O 450.347 -1.08745 -2.00965 0
M  V30 4885 C 450.557 -3.42099 0.690614 0
M  V30 4886 C 451.905 -4.19231 0.673105 0
M  V30 4887 O 452.929 -3.50559 0.631389 0
M  V30 4888 O 451.788 -5.41732 0.720362 0
M  V30 4889 H 448.882 -0.823712 0.0736693 0
M  V30 4890 H 451.428 -1.45273 0.87714 0
M  V30 4891 H 450.2 -3.50938 1.73085 0
M  V30 4892 H 449.823 -3.97519 0.0803036 0
M  V30 4893 N 450.82 -0.546701 -1.47814 0
M  V30 4894 C 452.069 -0.0166497 -2.01693 0
M  V30 4895 C 452.382 1.33721 -1.42752 0
M  V30 4896 O 453.588 1.95658 -1.8823 0
M  V30 4897 C 452.044 0.0206769 -3.59894 0
M  V30 4898 C 451.652 -1.3293 -4.27824 0
M  V30 4899 C 453.396 0.498674 -4.21561 0
M  V30 4900 C 451.303 -1.25165 -5.78003 0
M  V30 4901 H 450.233 -0.0024541 -0.753996 0
M  V30 4902 H 452.884 -0.692984 -1.69912 0
M  V30 4903 H 451.266 0.76244 -3.88591 0
M  V30 4904 H 452.44 -2.08795 -4.10781 0
M  V30 4905 H 450.755 -1.74438 -3.78101 0
M  V30 4906 H 453.352 0.575 -5.31599 0
M  V30 4907 H 453.695 1.5083 -3.88016 0
M  V30 4908 H 454.228 -0.18791 -3.97356 0
M  V30 4909 H 450.967 -2.23695 -6.1615 0
M  V30 4910 H 450.487 -0.53464 -5.97412 0
M  V30 4911 H 452.166 -0.949299 -6.39998 0
M  V30 4912 N 452.299 1.55045 -0.282633 0
M  V30 4913 C 453.229 2.2579 0.595066 0
M  V30 4914 C 454.21 1.25074 1.15284 0
M  V30 4915 O 455.395 1.5381 1.18559 0
M  V30 4916 C 452.525 2.98472 1.77572 0
M  V30 4917 C 451.479 4.0618 1.34914 0
M  V30 4918 C 450.805 4.66477 2.6135 0
M  V30 4919 C 452.105 5.1996 0.493821 0
M  V30 4920 H 453.799 2.994 0.00505653 0
M  V30 4921 H 451.345 1.44 0.000992001 0
M  V30 4922 H 453.298 3.46677 2.39568 0
M  V30 4923 H 452.022 2.2241 2.39168 0
M  V30 4924 H 450.681 3.58797 0.752338 0
M  V30 4925 H 450.329 3.87074 3.2122 0
M  V30 4926 H 450.029 5.39207 2.33516 0
M  V30 4927 H 451.553 5.17435 3.24181 0
M  V30 4928 H 452.967 5.64172 1.01898 0
M  V30 4929 H 451.364 5.99299 0.310047 0
M  V30 4930 H 452.434 4.82462 -0.485593 0
M  V30 4931 N 453.777 0.010035 1.57597 0
M  V30 4932 C 454.725 -0.996272 2.10184 0
M  V30 4933 C 455.719 -1.34942 1.02406 0
M  V30 4934 O 456.925 -1.33389 1.20861 0
M  V30 4935 H 453.3 -0.338982 0.671264 0
M  V30 4936 H 455.271 -0.527272 2.93705 0
M  V30 4937 C 454.02 -2.27599 2.62857 0
M  V30 4938 H 453.343 -2.01295 3.45428 0
M  V30 4939 H 454.783 -2.96265 3.0332 0
M  V30 4940 C 453.242 -2.99269 1.54725 0
M  V30 4941 O 453.772 -3.90644 0.93597 0
M  V30 4942 N 451.978 -2.61269 1.27228 0
M  V30 4943 H 451.525 -1.87043 1.77123 0
M  V30 4944 H 451.483 -3.09534 0.550999 0
M  V30 4945 N 455.255 -1.55392 -0.262866 0
M  V30 4946 C 456.185 -1.91978 -1.32917 0
M  V30 4947 C 457.166 -0.7828 -1.51017 0
M  V30 4948 O 458.351 -1.04178 -1.63892 0
M  V30 4949 C 455.481 -2.20055 -2.68687 0
M  V30 4950 C 454.435 -3.35854 -2.65304 0
M  V30 4951 C 453.761 -3.49435 -4.04721 0
M  V30 4952 C 455.061 -4.71977 -2.23685 0
M  V30 4953 H 456.755 -2.81292 -1.02544 0
M  V30 4954 H 454.301 -1.3534 -0.491846 0
M  V30 4955 H 456.254 -2.44237 -3.43404 0
M  V30 4956 H 454.978 -1.27551 -3.00663 0
M  V30 4957 H 453.637 -3.11655 -1.93045 0
M  V30 4958 H 453.285 -2.54379 -4.33936 0
M  V30 4959 H 452.985 -4.27297 -4.0335 0
M  V30 4960 H 454.509 -3.7592 -4.81161 0
M  V30 4961 H 455.923 -4.95637 -2.88127 0
M  V30 4962 H 454.32 -5.52828 -2.33456 0
M  V30 4963 H 455.39 -4.70115 -1.18827 0
M  V30 4964 N 456.733 0.527833 -1.48498 0
M  V30 4965 C 457.68 1.6322 -1.6318 0
M  V30 4966 C 458.65 1.59199 -0.473815 0
M  V30 4967 O 459.835 1.77591 -0.697563 0
M  V30 4968 C 456.975 3.01474 -1.67951 0
M  V30 4969 C 456.088 3.15713 -2.94871 0
M  V30 4970 C 455.223 4.44539 -2.90789 0
M  V30 4971 C 454.262 4.52315 -4.12404 0
M  V30 4972 N 453.399 5.72533 -4.06387 0
M  V30 4973 H 458.239 1.50011 -2.57489 0
M  V30 4974 H 455.776 0.730298 -1.27691 0
M  V30 4975 H 457.734 3.81572 -1.68698 0
M  V30 4976 H 456.364 3.1345 -0.771306 0
M  V30 4977 H 455.416 2.28854 -3.03859 0
M  V30 4978 H 456.728 3.1732 -3.8485 0
M  V30 4979 H 455.882 5.3293 -2.89949 0
M  V30 4980 H 454.621 4.45457 -1.98542 0
M  V30 4981 H 453.626 3.62331 -4.13517 0
M  V30 4982 H 454.851 4.53134 -5.05812 0
M  V30 4983 H 452.797 5.74344 -3.16962 0
M  V30 4984 H 452.714 5.75643 -4.90073 0
M  V30 4985 H 453.982 6.63204 -4.0961 0
M  V30 4986 N 458.211 1.37122 0.776871 0
M  V30 4987 C 459.141 1.35164 1.90402 0
M  V30 4988 C 460.122 0.221069 1.68657 0
M  V30 4989 O 461.307 0.420642 1.8959 0
M  V30 4990 C 458.437 1.15274 3.27611 0
M  V30 4991 C 457.391 2.25289 3.63908 0
M  V30 4992 C 456.717 1.90527 4.99603 0
M  V30 4993 C 458.017 3.67446 3.71188 0
M  V30 4994 H 459.711 2.29482 1.92297 0
M  V30 4995 H 457.257 1.10465 0.923773 0
M  V30 4996 H 459.21 1.12536 4.06096 0
M  V30 4997 H 457.934 0.174102 3.26136 0
M  V30 4998 H 456.593 2.27174 2.87728 0
M  V30 4999 H 456.241 0.91206 4.94662 0
M  V30 5000 H 455.941 2.64193 5.24858 0
M  V30 5001 H 457.465 1.89367 5.80493 0
M  V30 5002 H 458.879 3.67719 4.39836 0
M  V30 5003 H 457.276 4.40123 4.07936 0
M  V30 5004 H 458.346 4.01443 2.71977 0
M  V30 5005 N 459.689 -1.00246 1.21608 0
M  V30 5006 C 460.935 -1.74319 1.03638 0
M  V30 5007 C 461.268 -1.89408 -0.428749 0
M  V30 5008 O 460.543 -1.43026 -1.3181 0
M  V30 5009 C 460.826 -3.15431 1.73711 0
M  V30 5010 C 460.679 -3.08049 3.27759 0
M  V30 5011 C 461.998 -4.14407 1.48173 0
M  V30 5012 H 459.117 -0.632741 0.377899 0
M  V30 5013 H 461.759 -1.16853 1.49818 0
M  V30 5014 H 459.909 -3.64493 1.34452 0
M  V30 5015 H 461.581 -2.66681 3.76403 0
M  V30 5016 H 459.824 -2.45088 3.57931 0
M  V30 5017 H 460.495 -4.07862 3.71958 0
M  V30 5018 H 462.971 -3.74061 1.82258 0
M  V30 5019 H 461.847 -5.11279 1.99713 0
M  V30 5020 H 462.108 -4.40174 0.412273 0
M  V30 5021 N 461.167 -1.02423 -1.1978 0
M  V30 5022 C 462.117 -0.571689 -2.20716 0
M  V30 5023 C 463.101 0.377077 -1.56419 0
M  V30 5024 O 464.293 0.198801 -1.7588 0
M  V30 5025 C 461.422 0.0808555 -3.43205 0
M  V30 5026 C 460.508 -0.890073 -4.14655 0
M  V30 5027 N 460.899 -2.05065 -4.62366 0
M  V30 5028 C 459.197 -0.71252 -4.40272 0
M  V30 5029 C 459.898 -2.66264 -5.17183 0
M  V30 5030 N 458.874 -1.94264 -5.07703 0
M  V30 5031 H 462.676 -1.45636 -2.55279 0
M  V30 5032 H 460.19 -0.890596 -1.35802 0
M  V30 5033 H 462.187 0.422654 -4.14752 0
M  V30 5034 H 460.847 0.961274 -3.10144 0
M  V30 5035 H 461.858 -2.43026 -4.57339 0
M  V30 5036 H 458.535 0.119199 -4.1733 0
M  V30 5037 H 459.925 -3.64526 -5.64421 0
M  V30 5038 N 462.645 1.35699 -0.801477 0
M  V30 5039 C 463.894 1.98165 -0.375979 0
M  V30 5040 C 464.207 1.64306 1.06127 0
M  V30 5041 O 465.413 2.20097 1.58964 0
M  V30 5042 C 463.869 3.54497 -0.621305 0
M  V30 5043 C 463.477 3.9727 -2.07076 0
M  V30 5044 C 465.221 4.23697 -0.26091 0
M  V30 5045 C 463.128 5.46427 -2.26211 0
M  V30 5046 H 462.058 0.741478 -0.136844 0
M  V30 5047 H 464.709 1.54834 -0.984814 0
M  V30 5048 H 463.091 3.95958 0.0574112 0
M  V30 5049 H 464.265 3.66974 -2.78687 0
M  V30 5050 H 462.58 3.40943 -2.39054 0
M  V30 5051 H 465.177 5.33334 -0.381994 0
M  V30 5052 H 465.52 4.0869 0.792344 0
M  V30 5053 H 466.053 3.87639 -0.893339 0
M  V30 5054 H 462.792 5.66396 -3.29963 0
M  V30 5055 H 462.312 5.78309 -1.59119 0
M  V30 5056 H 463.991 6.12819 -2.07513 0
M  V30 5057 N 464.123 0.554532 1.47522 0
M  V30 5058 C 465.053 -0.182974 2.32782 0
M  V30 5059 C 466.034 -0.911377 1.43624 0
M  V30 5060 O 467.219 -0.892366 1.72483 0
M  V30 5061 C 464.349 -1.21513 3.25349 0
M  V30 5062 C 463.303 -0.603355 4.23726 0
M  V30 5063 C 462.629 -1.73995 5.05598 0
M  V30 5064 C 463.929 0.441121 5.20434 0
M  V30 5065 H 465.623 0.52882 2.94693 0
M  V30 5066 H 463.169 0.255759 1.41711 0
M  V30 5067 H 465.122 -1.73922 3.83835 0
M  V30 5068 H 463.846 -1.95683 2.61487 0
M  V30 5069 H 462.505 -0.10059 3.66462 0
M  V30 5070 H 462.153 -2.47063 4.38143 0
M  V30 5071 H 461.853 -1.3364 5.72201 0
M  V30 5072 H 463.377 -2.26735 5.66942 0
M  V30 5073 H 464.791 0.00319931 5.733 0
M  V30 5074 H 463.188 0.763402 5.95224 0
M  V30 5075 H 464.258 1.33799 4.66075 0
M  V30 5076 N 465.601 -1.54893 0.290851 0
M  V30 5077 C 466.549 -2.24579 -0.605576 0
M  V30 5078 C 467.543 -1.24824 -1.14522 0
M  V30 5079 O 468.749 -1.42706 -1.09704 0
M  V30 5080 H 465.124 -0.720946 -0.213872 0
M  V30 5081 H 467.095 -2.984 0.0048173 0
M  V30 5082 C 465.844 -2.99224 -1.77088 0
M  V30 5083 H 465.167 -3.75782 -1.36484 0
M  V30 5084 H 466.607 -3.51281 -2.3744 0
M  V30 5085 C 465.066 -2.05602 -2.66888 0
M  V30 5086 O 465.596 -1.61745 -3.67698 0
M  V30 5087 N 463.802 -1.71771 -2.34399 0
M  V30 5088 H 463.349 -2.07633 -1.52468 0
M  V30 5089 H 463.307 -1.09403 -2.94751 0
M  V30 5090 N 467.08 -0.0183926 -1.57589 0
M  V30 5091 C 468.013 1.00148 -2.0505 0
M  V30 5092 C 468.991 1.32387 -0.944058 0
M  V30 5093 O 470.175 1.44237 -1.21358 0
M  V30 5094 C 467.302 2.32435 -2.46357 0
M  V30 5095 C 466.348 2.15731 -3.67916 0
M  V30 5096 S 467.181 1.46613 -5.15039 0
M  V30 5097 C 468.337 2.80293 -5.59631 0
M  V30 5098 H 468.57 0.597429 -2.91235 0
M  V30 5099 H 466.103 0.193002 -1.53189 0
M  V30 5100 H 468.061 3.0849 -2.70822 0
M  V30 5101 H 466.722 2.69975 -1.60537 0
M  V30 5102 H 465.915 3.13502 -3.9463 0
M  V30 5103 H 465.517 1.4782 -3.43548 0
M  V30 5104 H 467.809 3.76557 -5.63215 0
M  V30 5105 H 468.752 2.58256 -6.59325 0
M  V30 5106 H 469.16 2.85047 -4.87246 0
M  V30 5107 N 468.558 1.5553 0.254621 0
M  V30 5108 C 469.804 1.77262 0.985193 0
M  V30 5109 C 470.137 0.582286 1.85265 0
M  V30 5110 O 469.412 -0.419666 1.89919 0
M  V30 5111 C 469.695 3.0881 1.85225 0
M  V30 5112 C 469.548 4.38233 1.0135 0
M  V30 5113 C 470.867 3.3653 2.83612 0
M  V30 5114 H 467.986 0.644906 0.356742 0
M  V30 5115 H 470.628 1.88264 0.256236 0
M  V30 5116 H 468.778 2.99562 2.47376 0
M  V30 5117 H 470.45 4.59463 0.411269 0
M  V30 5118 H 468.693 4.32636 0.317574 0
M  V30 5119 H 469.364 5.26644 1.65379 0
M  V30 5120 H 471.84 3.45691 2.31596 0
M  V30 5121 H 470.716 4.29805 3.41407 0
M  V30 5122 H 470.977 2.57064 3.59681 0
M  V30 5123 N 470.036 -0.519951 1.48776 0
M  V30 5124 C 471.264 -1.29971 1.60982 0
M  V30 5125 C 471.679 -1.86803 0.273885 0
M  V30 5126 O 471.036 -1.66904 -0.738193 0
M  V30 5127 C 471.087 -2.44346 2.66415 0
M  V30 5128 O 470.808 -1.89855 3.94825 0
M  V30 5129 C 472.309 -3.36014 2.89153 0
M  V30 5130 H 469.529 -0.394891 0.542496 0
M  V30 5131 H 472.073 -0.626214 1.94676 0
M  V30 5132 H 470.228 -3.07562 2.35552 0
M  V30 5133 H 470.642 -2.64798 4.5275 0
M  V30 5134 H 472.116 -4.12593 3.66703 0
M  V30 5135 H 472.593 -3.91859 1.98351 0
M  V30 5136 H 473.199 -2.78582 3.21359 0
M  V30 5137 N 471.514 -1.37532 -0.769588 0
M  V30 5138 C 472.762 -1.32597 -1.5252 0
M  V30 5139 C 473.083 0.0884294 -1.94799 0
M  V30 5140 O 472.353 1.03289 -1.66458 0
M  V30 5141 H 470.933 -0.487846 -0.565699 0
M  V30 5142 H 473.595 -1.72044 -0.915806 0
M  V30 5143 H 472.691 -1.96643 -2.42359 0
M  V30 5144 N 472.992 0.995999 -1.22138 0
M  V30 5145 C 474.22 1.77066 -1.07029 0
M  V30 5146 C 474.635 1.8495 0.379357 0
M  V30 5147 O 473.992 1.3174 1.26297 0
M  V30 5148 C 474.043 3.20533 -1.67155 0
M  V30 5149 O 473.764 3.13082 -3.06449 0
M  V30 5150 C 475.265 4.14461 -1.5728 0
M  V30 5151 H 472.485 0.556179 -0.375374 0
M  V30 5152 H 475.029 1.25238 -1.61666 0
M  V30 5153 H 473.184 3.6944 -1.16589 0
M  V30 5154 H 473.598 4.03283 -3.35355 0
M  V30 5155 H 475.072 5.1289 -2.04078 0
M  V30 5156 H 475.549 4.36005 -0.528795 0
M  V30 5157 H 476.155 3.71449 -2.07136 0
M  V30 5158 N 474.47 1.03057 1.19235 0
M  V30 5159 C 475.719 0.72326 1.88287 0
M  V30 5160 C 476.032 -0.751333 1.80594 0
M  V30 5161 O 477.238 -1.17176 2.44912 0
M  V30 5162 C 475.694 1.24338 3.3774 0
M  V30 5163 C 475.302 2.74587 3.53986 0
M  V30 5164 C 477.046 1.01213 4.12257 0
M  V30 5165 C 474.953 3.20009 4.97341 0
M  V30 5166 H 473.883 0.266848 0.705201 0
M  V30 5167 H 476.534 1.24509 1.34795 0
M  V30 5168 H 474.916 0.649457 3.90638 0
M  V30 5169 H 476.09 3.39649 3.11408 0
M  V30 5170 H 474.405 2.9601 2.9286 0
M  V30 5171 H 477.002 1.32675 5.17978 0
M  V30 5172 H 477.345 -0.051001 4.16269 0
M  V30 5173 H 477.878 1.57014 3.65501 0
M  V30 5174 H 474.617 4.25659 4.98493 0
M  V30 5175 H 474.137 2.59676 5.40674 0
M  V30 5176 H 475.816 3.13447 5.66003 0
M  V30 5177 N 475.948 -1.35272 0.808662 0
M  V30 5178 C 476.898 -2.27181 0.193124 0
M  V30 5179 C 477.882 -1.47871 -0.634265 0
M  V30 5180 O 479.074 -1.70048 -0.491182 0
M  V30 5181 C 476.203 -3.36979 -0.655751 0
M  V30 5182 C 475.289 -4.23712 0.181481 0
M  V30 5183 N 475.68 -4.90225 1.24551 0
M  V30 5184 C 473.978 -4.45985 -0.0365493 0
M  V30 5185 C 474.679 -5.54537 1.75682 0
M  V30 5186 N 473.655 -5.33107 1.06294 0
M  V30 5187 H 477.457 -2.76101 1.00724 0
M  V30 5188 H 474.971 -1.48823 0.650029 0
M  V30 5189 H 476.968 -4.01774 -1.11279 0
M  V30 5190 H 475.628 -2.89611 -1.46819 0
M  V30 5191 H 476.639 -4.91641 1.62818 0
M  V30 5192 H 473.316 -4.09409 -0.817964 0
M  V30 5193 H 474.706 -6.17597 2.64621 0
M  V30 5194 N 477.426 -0.562348 -1.47226 0
M  V30 5195 C 478.654 -0.0452275 -2.06851 0
M  V30 5196 C 479.069 1.25078 -1.41424 0
M  V30 5197 O 478.426 1.75156 -0.512513 0
M  V30 5198 C 478.477 0.148674 -3.61194 0
M  V30 5199 O 478.198 -1.09602 -4.24169 0
M  V30 5200 C 479.699 0.702488 -4.37699 0
M  V30 5201 H 476.919 -0.0481775 -0.669268 0
M  V30 5202 H 479.463 -0.777223 -1.89155 0
M  V30 5203 H 477.618 0.830817 -3.78386 0
M  V30 5204 H 478.032 -0.896982 -5.16773 0
M  V30 5205 H 479.506 0.78743 -5.46355 0
M  V30 5206 H 479.983 1.71493 -4.04335 0
M  V30 5207 H 480.589 0.0558772 -4.25263 0
M  V30 5208 N 478.904 1.54736 -0.299062 0
M  V30 5209 C 480.134 2.04215 0.312992 0
M  V30 5210 C 480.542 1.17596 1.48215 0
M  V30 5211 O 479.885 0.193835 1.82674 0
M  V30 5212 C 479.947 3.49696 0.833862 0
M  V30 5213 C 479.611 4.56518 -0.20977 0
M  V30 5214 C 480.608 5.09442 -1.03756 0
M  V30 5215 C 478.293 5.01073 -0.35091 0
M  V30 5216 C 480.287 6.05459 -1.99244 0
M  V30 5217 C 477.974 5.9691 -1.30924 0
M  V30 5218 C 478.972 6.48987 -2.1285 0
M  V30 5219 O 478.66 7.42947 -3.07059 0
M  V30 5220 H 478.392 0.672128 0.0722494 0
M  V30 5221 H 480.946 2.00718 -0.436043 0
M  V30 5222 H 479.176 3.5051 1.63339 0
M  V30 5223 H 480.865 3.82381 1.36159 0
M  V30 5224 H 481.631 4.75816 -0.939376 0
M  V30 5225 H 477.51 4.60168 0.276813 0
M  V30 5226 H 481.054 6.46031 -2.63229 0
M  V30 5227 H 476.951 6.29953 -1.40815 0
M  V30 5228 H 477.719 7.60743 -3.02015 0
M  V30 5229 N 480.382 0.0267497 1.57577 0
M  V30 5230 C 481.793 -0.512413 1.79531 0
M  V30 5231 C 482.144 -1.72391 0.936791 0
M  V30 5232 O 481.269 -2.15903 0.146543 0
M  V30 5233 C 481.864 -0.936378 3.25603 0
M  V30 5234 C 480.423 -1.42067 3.4856 0
M  V30 5235 C 479.57 -0.384278 2.74624 0
M  V30 5236 H 482.521 0.252797 1.56674 0
M  V30 5237 H 482.542 -1.80088 3.35184 0
M  V30 5238 H 482.054 -0.0544332 3.88062 0
M  V30 5239 H 480.155 -2.32262 2.9135 0
M  V30 5240 H 480.268 -1.42968 4.57271 0
M  V30 5241 H 478.632 -0.851855 2.40032 0
M  V30 5242 H 479.415 0.489159 3.39797 0
M  V30 5243 N 481.861 -1.55662 -0.24637 0
M  V30 5244 C 483.107 -1.77782 -0.975779 0
M  V30 5245 C 483.44 -0.592103 -1.84953 0
M  V30 5246 O 482.715 0.409588 -1.90138 0
M  V30 5247 C 482.998 -3.09788 -1.83584 0
M  V30 5248 C 482.851 -4.38764 -0.990241 0
M  V30 5249 C 484.17 -3.38029 -2.81823 0
M  V30 5250 H 481.289 -0.646789 -0.353317 0
M  V30 5251 H 483.931 -1.88398 -0.246248 0
M  V30 5252 H 482.081 -3.00869 -2.45784 0
M  V30 5253 H 483.753 -4.59675 -0.386897 0
M  V30 5254 H 481.996 -4.32798 -0.294626 0
M  V30 5255 H 482.667 -5.27514 -1.62584 0
M  V30 5256 H 485.143 -3.46915 -2.2976 0
M  V30 5257 H 484.019 -4.3161 -3.39122 0
M  V30 5258 H 484.28 -2.58968 -3.58313 0
M  V30 5259 N 483.339 0.512053 -1.4905 0
M  V30 5260 C 484.567 1.29116 -1.61669 0
M  V30 5261 C 484.982 1.86655 -0.283787 0
M  V30 5262 O 484.339 1.67293 0.729331 0
M  V30 5263 C 484.39 2.4293 -2.67707 0
M  V30 5264 O 484.111 1.87758 -3.95826 0
M  V30 5265 C 485.612 3.34476 -2.90931 0
M  V30 5266 H 482.832 0.392009 -0.544583 0
M  V30 5267 H 485.376 0.615881 -1.95006 0
M  V30 5268 H 483.531 3.06308 -2.37179 0
M  V30 5269 H 483.945 2.62393 -4.54148 0
M  V30 5270 H 485.419 4.10642 -3.68886 0
M  V30 5271 H 485.896 3.90801 -2.00427 0
M  V30 5272 H 486.502 2.76874 -3.22832 0
M  V30 5273 N 484.817 1.37938 0.762283 0
M  V30 5274 C 485.727 1.36681 1.90671 0
M  V30 5275 C 486.743 0.265078 1.71969 0
M  V30 5276 O 487.919 0.502055 1.95042 0
M  V30 5277 C 484.984 1.18211 3.25925 0
M  V30 5278 C 484.045 2.3811 3.57214 0
M  V30 5279 C 483.278 2.20512 4.86014 0
M  V30 5280 O 483.501 1.19429 5.57757 0
M  V30 5281 O 482.435 3.08911 5.16583 0
M  V30 5282 H 486.261 2.33091 1.94685 0
M  V30 5283 H 483.846 1.18767 0.906356 0
M  V30 5284 H 485.728 1.09937 4.06807 0
M  V30 5285 H 484.403 0.248807 3.22742 0
M  V30 5286 H 483.31 2.51958 2.76529 0
M  V30 5287 H 484.643 3.30041 3.65149 0
M  V30 5288 N 486.295 -0.989507 1.22664 0
M  V30 5289 C 487.572 -1.70326 0.961688 0
M  V30 5290 C 487.952 -2.04537 -0.522279 0
M  V30 5291 O 487.3 -1.73136 -1.49118 0
M  V30 5292 C 487.51 -2.95135 1.86269 0
M  V30 5293 C 488.858 -3.67842 2.12078 0
M  V30 5294 O 489.882 -3.0515 1.83745 0
M  V30 5295 O 488.741 -4.80644 2.60083 0
M  V30 5296 H 485.835 -0.743589 0.361946 0
M  V30 5297 H 488.381 -1.04555 1.33665 0
M  V30 5298 H 487.153 -2.66382 2.8663 0
M  V30 5299 H 486.776 -3.68645 1.48952 0
M  V30 5300 N 487.773 -1.03688 -1.18687 0
M  V30 5301 C 488.683 -0.634908 -2.25845 0
M  V30 5302 C 489.699 0.337065 -1.70704 0
M  V30 5303 O 490.875 0.192943 -2.00474 0
M  V30 5304 C 487.94 -0.000180054 -3.467 0
M  V30 5305 C 487.001 -1.02067 -4.1699 0
M  V30 5306 C 486.234 -0.41614 -5.32075 0
M  V30 5307 O 486.457 0.778712 -5.65059 0
M  V30 5308 O 485.391 -1.14296 -5.90948 0
M  V30 5309 H 489.217 -1.52757 -2.62486 0
M  V30 5310 H 486.802 -0.807533 -1.25695 0
M  V30 5311 H 488.684 0.353342 -4.19916 0
M  V30 5312 H 487.359 0.866367 -3.11891 0
M  V30 5313 H 486.266 -1.42592 -3.45859 0
M  V30 5314 H 487.599 -1.85786 -4.5579 0
M  V30 5315 N 489.251 1.34841 -0.815825 0
M  V30 5316 C 490.476 2.03261 -0.41226 0
M  V30 5317 C 490.901 1.61055 0.971751 0
M  V30 5318 O 490.259 0.7917 1.63101 0
M  V30 5319 C 490.307 3.56914 -0.514289 0
M  V30 5320 O 489.411 4.09728 0.468675 0
M  V30 5321 H 488.752 0.641664 -0.170771 0
M  V30 5322 H 491.282 1.72241 -1.10427 0
M  V30 5323 H 491.292 4.06156 -0.387457 0
M  V30 5324 H 489.967 3.86982 -1.52375 0
M  V30 5325 H 488.544 3.71681 0.301316 0
M  V30 5326 N 490.729 0.570148 1.46925 0
M  V30 5327 C 491.659 -0.158274 2.32963 0
M  V30 5328 C 492.64 -0.896093 1.44583 0
M  V30 5329 O 493.825 -0.874022 1.7342 0
M  V30 5330 C 490.955 -1.18055 3.26619 0
M  V30 5331 C 489.909 -0.558379 4.24342 0
M  V30 5332 C 489.235 -1.68623 5.07415 0
M  V30 5333 C 490.535 0.496295 5.19937 0
M  V30 5334 H 492.229 0.560046 2.94115 0
M  V30 5335 H 489.775 0.270775 1.41431 0
M  V30 5336 H 491.728 -1.69841 3.85658 0
M  V30 5337 H 490.452 -1.92899 2.63548 0
M  V30 5338 H 489.111 -0.0617157 3.66548 0
M  V30 5339 H 488.759 -2.42402 4.40738 0
M  V30 5340 H 488.459 -1.27564 5.73586 0
M  V30 5341 H 489.983 -2.20709 5.69315 0
M  V30 5342 H 491.397 0.0640052 5.73264 0
M  V30 5343 H 489.794 0.82649 5.94381 0
M  V30 5344 H 490.864 1.38735 4.6463 0
M  V30 5345 N 492.207 -1.54576 0.307264 0
M  V30 5346 C 493.139 -2.21212 -0.599807 0
M  V30 5347 C 494.152 -1.20685 -1.09266 0
M  V30 5348 O 495.341 -1.47244 -1.00903 0
M  V30 5349 C 492.441 -2.84994 -1.83389 0
M  V30 5350 C 491.614 -4.11511 -1.48248 0
M  V30 5351 C 490.673 -4.59038 -2.57237 0
M  V30 5352 O 489.699 -5.24095 -2.22065 0
M  V30 5353 N 490.901 -4.31884 -3.87887 0
M  V30 5354 H 493.666 -2.99686 -0.0293075 0
M  V30 5355 H 491.227 -1.61379 0.129738 0
M  V30 5356 H 493.219 -3.1372 -2.5566 0
M  V30 5357 H 491.789 -2.10324 -2.31263 0
M  V30 5358 H 491.009 -3.89728 -0.592122 0
M  V30 5359 H 492.297 -4.93879 -1.22316 0
M  V30 5360 H 491.695 -3.79778 -4.19268 0
M  V30 5361 H 490.252 -4.65304 -4.56438 0
M  V30 5362 N 493.685 -0.035106 -1.57561 0
M  V30 5363 C 494.91 0.655802 -1.96759 0
M  V30 5364 C 495.335 1.64523 -0.911809 0
M  V30 5365 O 494.693 1.80857 0.126673 0
M  V30 5366 C 494.741 1.33326 -3.35047 0
M  V30 5367 O 493.845 2.44866 -3.31835 0
M  V30 5368 H 493.186 0.171807 -0.641388 0
M  V30 5369 H 495.716 -0.0987369 -2.04362 0
M  V30 5370 H 495.726 1.68867 -3.71413 0
M  V30 5371 H 494.401 0.608033 -4.11431 0
M  V30 5372 H 492.978 2.11392 -3.07193 0
M  V30 5373 N 495.163 1.55791 0.238111 0
M  V30 5374 C 496.093 1.94068 1.29846 0
M  V30 5375 C 497.074 0.806726 1.49753 0
M  V30 5376 O 498.259 1.06772 1.62214 0
M  V30 5377 C 495.389 2.24302 2.65153 0
M  V30 5378 C 494.343 3.40032 2.59927 0
M  V30 5379 C 493.669 3.55829 3.99111 0
M  V30 5380 C 494.969 4.75476 2.16148 0
M  V30 5381 H 496.663 2.82887 0.980563 0
M  V30 5382 H 494.209 1.36105 0.470253 0
M  V30 5383 H 496.162 2.4967 3.39475 0
M  V30 5384 H 494.886 1.32318 2.98596 0
M  V30 5385 H 493.545 3.14687 1.88063 0
M  V30 5386 H 493.193 2.6125 4.29834 0
M  V30 5387 H 492.893 4.3366 3.96501 0
M  V30 5388 H 494.417 3.83528 4.7512 0
M  V30 5389 H 495.831 5.00158 2.80205 0
M  V30 5390 H 494.228 5.56472 2.24631 0
M  V30 5391 H 495.298 4.71946 1.11333 0
M  V30 5392 N 496.642 -0.504142 1.49319 0
M  V30 5393 C 497.589 -1.60603 1.65756 0
M  V30 5394 C 498.559 -1.58425 0.499082 0
M  V30 5395 O 499.744 -1.76459 0.725728 0
M  V30 5396 C 496.884 -2.98764 1.72726 0
M  V30 5397 C 495.997 -3.10982 2.99857 0
M  V30 5398 C 495.132 -4.39857 2.97824 0
M  V30 5399 C 494.171 -4.45697 4.19548 0
M  V30 5400 N 493.308 -5.65995 4.15444 0
M  V30 5401 H 498.148 -1.45895 2.59843 0
M  V30 5402 H 495.685 -0.709891 1.28837 0
M  V30 5403 H 497.643 -3.78839 1.74747 0
M  V30 5404 H 496.273 -3.12183 0.821075 0
M  V30 5405 H 495.325 -2.23991 3.07461 0
M  V30 5406 H 496.637 -3.11157 3.89849 0
M  V30 5407 H 495.791 -5.2825 2.98391 0
M  V30 5408 H 494.53 -4.42242 2.05604 0
M  V30 5409 H 493.535 -3.55707 4.19229 0
M  V30 5410 H 494.76 -4.4503 5.12957 0
M  V30 5411 H 492.706 -5.69229 3.26059 0
M  V30 5412 H 492.623 -5.67773 4.99169 0
M  V30 5413 H 493.891 -6.56604 4.20109 0
M  V30 5414 N 498.12 -1.38341 -0.754957 0
M  V30 5415 C 499.083 -1.35262 -1.85032 0
M  V30 5416 C 500.083 -0.253393 -1.58791 0
M  V30 5417 O 501.273 -0.510205 -1.66561 0
M  V30 5418 C 498.405 -1.10544 -3.22479 0
M  V30 5419 H 499.598 -2.32712 -1.8917 0
M  V30 5420 H 497.151 -1.23614 -0.956515 0
M  V30 5421 H 497.886 -0.136952 -3.24011 0
M  V30 5422 H 497.671 -1.90127 -3.4292 0
M  V30 5423 H 499.161 -1.11082 -4.02555 0
M  V30 5424 N 499.598 0.982988 -1.23187 0
M  V30 5425 C 501.014 1.2487 -0.993967 0
M  V30 5426 C 501.214 1.99155 0.306498 0
M  V30 5427 O 500.27 2.30688 1.0266 0
M  V30 5428 C 501.583 2.05078 -2.19917 0
M  V30 5429 C 503.131 2.18227 -2.2438 0
M  V30 5430 C 503.606 3.01825 -3.44479 0
M  V30 5431 N 505.097 3.09411 -3.44702 0
M  V30 5432 C 505.832 3.74412 -4.34285 0
M  V30 5433 N 505.328 4.41259 -5.341 0
M  V30 5434 N 507.121 3.71273 -4.22035 0
M  V30 5435 H 499.272 0.485253 -2.06783 0
M  V30 5436 H 501.535 0.276979 -0.906635 0
M  V30 5437 H 501.241 1.57867 -3.14279 0
M  V30 5438 H 501.115 3.05829 -2.2079 0
M  V30 5439 H 503.502 2.64648 -1.30559 0
M  V30 5440 H 503.583 1.16873 -2.2754 0
M  V30 5441 H 503.227 2.56102 -4.38605 0
M  V30 5442 H 503.157 4.03342 -3.38559 0
M  V30 5443 H 505.648 2.61845 -2.7248 0
M  V30 5444 H 505.961 4.88629 -5.98717 0
M  V30 5445 H 504.306 4.39975 -5.38002 0
M  V30 5446 H 507.497 3.18217 -3.43301 0
M  V30 5447 H 507.67 4.21649 -4.92053 0
M  V30 5448 N 501.076 1.04316 1.18135 0
M  V30 5449 C 502.325 0.74319 1.87509 0
M  V30 5450 C 502.638 -0.732136 1.81381 0
M  V30 5451 O 503.844 -1.14572 2.46141 0
M  V30 5452 C 502.3 1.27913 3.36402 0
M  V30 5453 C 501.908 2.78326 3.51053 0
M  V30 5454 C 503.652 1.0558 4.11161 0
M  V30 5455 C 501.559 3.25266 4.93919 0
M  V30 5456 H 500.489 0.274313 0.702331 0
M  V30 5457 H 503.14 1.25931 1.33467 0
M  V30 5458 H 501.522 0.690853 3.89927 0
M  V30 5459 H 502.696 3.42933 3.07788 0
M  V30 5460 H 501.011 2.991 2.89704 0
M  V30 5461 H 503.608 1.38161 5.16542 0
M  V30 5462 H 503.951 -0.00684729 4.16299 0
M  V30 5463 H 504.484 1.60882 3.63816 0
M  V30 5464 H 501.223 4.30922 4.9395 0
M  V30 5465 H 500.743 2.65396 5.3789 0
M  V30 5466 H 502.422 3.19433 5.62647 0
M  V30 5467 N 502.554 -1.34406 0.822964 0
M  V30 5468 C 503.486 -2.28305 0.202375 0
M  V30 5469 C 504.499 -1.5103 -0.60777 0
M  V30 5470 O 505.688 -1.73057 -0.437444 0
M  V30 5471 C 502.788 -3.30836 -0.734911 0
M  V30 5472 C 501.961 -4.37388 0.0324177 0
M  V30 5473 C 501.02 -5.1968 -0.825803 0
M  V30 5474 O 500.046 -5.68556 -0.270771 0
M  V30 5475 N 501.248 -5.39393 -2.14558 0
M  V30 5476 H 504.013 -2.82201 1.00909 0
M  V30 5477 H 501.574 -1.4693 0.67993 0
M  V30 5478 H 503.566 -3.82786 -1.31365 0
M  V30 5479 H 502.136 -2.77334 -1.44238 0
M  V30 5480 H 501.356 -3.86152 0.792469 0
M  V30 5481 H 502.644 -5.05702 0.560633 0
M  V30 5482 H 502.042 -5.01357 -2.62025 0
M  V30 5483 H 500.599 -5.94461 -2.67318 0
M  V30 5484 N 504.032 -0.577932 -1.46621 0
M  V30 5485 C 504.964 0.195801 -2.28362 0
M  V30 5486 C 505.977 0.859983 -1.38232 0
M  V30 5487 O 507.166 0.730349 -1.62875 0
M  V30 5488 C 504.266 1.29639 -3.13124 0
M  V30 5489 C 503.439 0.725049 -4.31349 0
M  V30 5490 C 502.498 1.71274 -4.97546 0
M  V30 5491 O 501.524 1.25067 -5.5529 0
M  V30 5492 N 502.726 3.04672 -4.94121 0
M  V30 5493 H 505.491 -0.505468 -2.95407 0
M  V30 5494 H 503.052 -0.415381 -1.56481 0
M  V30 5495 H 505.044 1.95631 -3.54275 0
M  V30 5496 H 503.614 1.90059 -2.48186 0
M  V30 5497 H 502.834 -0.112205 -3.9404 0
M  V30 5498 H 504.122 0.323034 -5.07774 0
M  V30 5499 H 503.52 3.4484 -4.48444 0
M  V30 5500 H 502.077 3.66166 -5.39227 0
M  V30 5501 N 505.51 1.54411 -0.315457 0
M  V30 5502 C 506.787 1.92562 0.343398 0
M  V30 5503 C 507.167 1.24423 1.70535 0
M  V30 5504 O 506.515 0.385051 2.25232 0
M  V30 5505 C 506.725 3.46168 0.443687 0
M  V30 5506 C 508.073 4.18659 0.707783 0
M  V30 5507 O 509.097 3.52281 0.52693 0
M  V30 5508 O 507.956 5.36198 1.05612 0
M  V30 5509 H 505.05 0.80379 0.194552 0
M  V30 5510 H 507.596 1.65738 -0.364577 0
M  V30 5511 H 506.368 3.8792 -0.513172 0
M  V30 5512 H 505.991 3.79073 1.19956 0
M  V30 5513 N 506.988 0.0434614 1.5754 0
M  V30 5514 C 508.216 -0.641835 1.96693 0
M  V30 5515 C 508.631 -1.64832 0.920652 0
M  V30 5516 O 507.988 -1.82247 -0.095993 0
M  V30 5517 C 508.039 -1.33557 3.35924 0
M  V30 5518 O 507.76 -0.369403 4.3654 0
M  V30 5519 C 509.261 -2.11135 3.89791 0
M  V30 5520 H 506.481 -0.176013 0.647503 0
M  V30 5521 H 509.025 0.107478 2.04217 0
M  V30 5522 H 507.18 -2.03617 3.29574 0
M  V30 5523 H 507.594 -0.863674 5.1734 0
M  V30 5524 H 509.068 -2.55107 4.89514 0
M  V30 5525 H 509.545 -2.95634 3.24803 0
M  V30 5526 H 510.151 -1.46002 3.99454 0
M  V30 5527 N 508.466 -1.55915 -0.229846 0
M  V30 5528 C 509.714 -1.7819 -0.953565 0
M  V30 5529 C 510.035 -0.610504 -1.85197 0
M  V30 5530 O 509.305 0.372988 -1.92316 0
M  V30 5531 H 507.885 -0.657208 -0.355087 0
M  V30 5532 H 510.547 -1.9337 -0.243693 0
M  V30 5533 H 509.643 -2.70011 -1.56527 0
M  V30 5534 N 509.944 0.496216 -1.49584 0
M  V30 5535 C 511.193 1.24668 -1.58558 0
M  V30 5536 C 511.506 1.9359 -0.279703 0
M  V30 5537 O 512.712 2.70365 -0.248048 0
M  V30 5538 C 511.168 2.26388 -2.79779 0
M  V30 5539 C 510.776 1.63384 -4.17145 0
M  V30 5540 C 512.52 3.02233 -2.98086 0
M  V30 5541 C 510.427 2.63243 -5.29582 0
M  V30 5542 H 509.357 0.468995 -0.590389 0
M  V30 5543 H 512.008 0.519985 -1.75978 0
M  V30 5544 H 510.39 3.02241 -2.55863 0
M  V30 5545 H 511.564 0.93491 -4.51216 0
M  V30 5546 H 509.879 0.999121 -4.04236 0
M  V30 5547 H 512.476 3.76919 -3.79257 0
M  V30 5548 H 512.819 3.60132 -2.08831 0
M  V30 5549 H 513.352 2.33495 -3.22063 0
M  V30 5550 H 510.091 2.10119 -6.20911 0
M  V30 5551 H 509.611 3.31363 -4.99959 0
M  V30 5552 H 511.29 3.25575 -5.59115 0
M  V30 5553 N 511.423 1.38739 0.74761 0
M  V30 5554 C 512.834 1.31507 1.32524 0
M  V30 5555 C 513.185 -0.0263963 1.96182 0
M  V30 5556 O 512.31 -0.92849 1.95469 0
M  V30 5557 C 512.905 2.38162 2.40966 0
M  V30 5558 C 511.464 2.34489 2.94434 0
M  V30 5559 C 510.611 2.20712 1.67873 0
M  V30 5560 H 513.562 1.4901 0.546043 0
M  V30 5561 H 513.583 2.04222 3.21051 0
M  V30 5562 H 513.095 3.35783 1.94605 0
M  V30 5563 H 511.196 1.40467 3.45108 0
M  V30 5564 H 511.309 3.28861 3.48407 0
M  V30 5565 H 509.673 1.67667 1.91729 0
M  V30 5566 H 510.456 3.20285 1.23582 0
M  V30 5567 N 512.901 -0.976442 1.23707 0
M  V30 5568 C 513.811 -2.10359 1.03856 0
M  V30 5569 C 514.827 -1.73991 -0.0180919 0
M  V30 5570 O 516.003 -2.0061 0.178211 0
M  V30 5571 C 513.068 -3.40809 0.636387 0
M  V30 5572 C 512.129 -3.91179 1.76854 0
M  V30 5573 C 511.362 -5.15404 1.38546 0
M  V30 5574 O 511.585 -5.69754 0.27142 0
M  V30 5575 O 510.519 -5.5994 2.20797 0
M  V30 5576 H 514.345 -2.29997 1.98331 0
M  V30 5577 H 511.93 -1.08742 1.02448 0
M  V30 5578 H 513.812 -4.19269 0.423223 0
M  V30 5579 H 512.487 -3.22493 -0.279322 0
M  V30 5580 H 511.394 -3.13819 2.03638 0
M  V30 5581 H 512.727 -4.13958 2.6627 0
M  V30 5582 N 514.379 -1.04941 -1.1758 0
M  V30 5583 C 515.289 -0.658826 -2.25159 0
M  V30 5584 C 516.305 0.318941 -1.71052 0
M  V30 5585 O 517.481 0.171669 -2.00667 0
M  V30 5586 C 514.546 -0.0369522 -3.4668 0
M  V30 5587 C 513.607 -1.06484 -4.15884 0
M  V30 5588 C 512.84 -0.472551 -5.31604 0
M  V30 5589 O 513.063 0.718736 -5.65854 0
M  V30 5590 O 511.997 -1.20557 -5.89703 0
M  V30 5591 H 515.823 -1.55533 -2.60851 0
M  V30 5592 H 513.408 -0.820819 -1.24832 0
M  V30 5593 H 515.29 0.308784 -4.20267 0
M  V30 5594 H 513.965 0.833238 -3.12792 0
M  V30 5595 H 512.872 -1.46253 -3.44327 0
M  V30 5596 H 514.205 -1.9061 -4.53794 0
M  V30 5597 N 515.857 1.33968 -0.830081 0
M  V30 5598 C 517.134 1.92554 -0.343858 0
M  V30 5599 C 517.514 1.7573 1.16971 0
M  V30 5600 O 516.862 1.14035 1.98011 0
M  V30 5601 C 517.072 3.40147 -0.781073 0
M  V30 5602 C 518.42 4.17299 -0.78402 0
M  V30 5603 O 519.444 3.48762 -0.724112 0
M  V30 5604 O 518.303 5.39631 -0.863739 0
M  V30 5605 H 515.397 0.821469 -0.0954827 0
M  V30 5606 H 517.943 1.42897 -0.915348 0
M  V30 5607 H 516.715 3.46225 -1.82329 0
M  V30 5608 H 516.338 3.97166 -0.18567 0
M  V30 5609 N 517.335 0.585699 1.46312 0
M  V30 5610 C 518.267 -0.183687 2.28463 0
M  V30 5611 C 519.28 -0.85264 1.38686 0
M  V30 5612 O 520.469 -0.721701 1.6326 0
M  V30 5613 C 517.569 -1.27977 3.13808 0
M  V30 5614 C 516.742 -0.702164 4.31727 0
M  V30 5615 C 515.801 -1.68633 4.98447 0
M  V30 5616 O 514.827 -1.22121 5.55945 0
M  V30 5617 N 516.029 -3.02047 4.95729 0
M  V30 5618 H 518.794 0.521127 2.95134 0
M  V30 5619 H 516.355 0.423673 1.56258 0
M  V30 5620 H 518.347 -1.9375 3.55307 0
M  V30 5621 H 516.917 -1.8874 2.4919 0
M  V30 5622 H 516.137 0.1331 3.93975 0
M  V30 5623 H 517.425 -0.296101 5.07938 0
M  V30 5624 H 516.823 -3.42457 4.50266 0
M  V30 5625 H 515.38 -3.63301 5.41161 0
M  V30 5626 N 518.813 -1.54241 0.323641 0
M  V30 5627 C 519.723 -2.28033 -0.551205 0
M  V30 5628 C 520.739 -1.32388 -1.12913 0
M  V30 5629 O 521.915 -1.65403 -1.14908 0
M  V30 5630 C 518.98 -3.02382 -1.69606 0
M  V30 5631 C 518.041 -4.13612 -1.14993 0
M  V30 5632 C 517.274 -4.84407 -2.24022 0
M  V30 5633 O 517.497 -4.54716 -3.44368 0
M  V30 5634 O 516.431 -5.71312 -1.89436 0
M  V30 5635 H 520.257 -3.03662 0.048066 0
M  V30 5636 H 517.842 -1.49133 0.0893289 0
M  V30 5637 H 519.724 -3.48941 -2.36259 0
M  V30 5638 H 518.399 -2.29628 -2.28151 0
M  V30 5639 H 517.306 -3.71402 -0.448484 0
M  V30 5640 H 518.639 -4.8841 -0.609608 0
M  V30 5641 N 520.291 -0.0518155 -1.57515 0
M  V30 5642 C 521.221 0.920283 -2.146 0
M  V30 5643 C 522.202 1.32406 -1.06783 0
M  V30 5644 O 523.387 1.39866 -1.34726 0
M  V30 5645 C 520.517 2.1949 -2.6915 0
M  V30 5646 C 519.471 1.93116 -3.81956 0
M  V30 5647 C 518.797 3.27037 -4.23026 0
M  V30 5648 C 520.097 1.25225 -5.07066 0
M  V30 5649 H 521.791 0.444801 -2.96077 0
M  V30 5650 H 519.337 0.212508 -1.42423 0
M  V30 5651 H 521.29 2.87894 -3.07725 0
M  V30 5652 H 520.014 2.69244 -1.84865 0
M  V30 5653 H 518.673 1.27123 -3.43854 0
M  V30 5654 H 518.321 3.74595 -3.3569 0
M  V30 5655 H 518.021 3.10189 -4.99056 0
M  V30 5656 H 519.545 3.96673 -4.64202 0
M  V30 5657 H 520.959 1.83666 -5.43083 0
M  V30 5658 H 519.356 1.18702 -5.88243 0
M  V30 5659 H 520.426 0.228382 -4.84362 0
M  V30 5660 N 521.769 1.56035 0.221574 0
M  V30 5661 C 522.699 1.95434 1.2778 0
M  V30 5662 C 523.68 0.822564 1.48889 0
M  V30 5663 O 524.865 1.08486 1.61072 0
M  V30 5664 C 521.995 2.27102 2.62759 0
M  V30 5665 C 520.949 3.4277 2.56306 0
M  V30 5666 C 520.275 3.60043 3.95314 0
M  V30 5667 C 521.575 4.77742 2.11093 0
M  V30 5668 H 523.269 2.83912 0.950504 0
M  V30 5669 H 520.815 1.36596 0.455791 0
M  V30 5670 H 522.768 2.53256 3.36807 0
M  V30 5671 H 521.492 1.35478 2.97176 0
M  V30 5672 H 520.151 3.16664 1.84715 0
M  V30 5673 H 519.799 2.65794 4.27039 0
M  V30 5674 H 519.499 4.37841 3.91879 0
M  V30 5675 H 521.023 3.88545 4.71025 0
M  V30 5676 H 522.437 5.03102 2.74885 0
M  V30 5677 H 520.834 5.58823 2.18716 0
M  V30 5678 H 521.904 4.731 1.06321 0
M  V30 5679 N 523.247 -0.488276 1.49845 0
M  V30 5680 C 524.179 -1.60539 1.63584 0
M  V30 5681 C 525.192 -1.5434 0.517972 0
M  V30 5682 O 526.381 -1.60041 0.790516 0
M  V30 5683 C 523.481 -2.99374 1.58835 0
M  V30 5684 C 522.654 -3.30624 2.86368 0
M  V30 5685 C 521.713 -4.4893 2.74496 0
M  V30 5686 O 520.739 -4.50085 3.48443 0
M  V30 5687 N 521.941 -5.49591 1.86894 0
M  V30 5688 H 524.706 -1.49176 2.59936 0
M  V30 5689 H 522.267 -0.67639 1.47094 0
M  V30 5690 H 524.259 -3.76459 1.48529 0
M  V30 5691 H 522.829 -3.04595 0.702892 0
M  V30 5692 H 522.049 -2.42314 3.1093 0
M  V30 5693 H 523.337 -3.48305 3.70892 0
M  V30 5694 H 522.735 -5.51467 1.26097 0
M  V30 5695 H 521.292 -6.25728 1.82503 0
M  V30 5696 N 524.725 -1.39134 -0.740242 0
M  V30 5697 C 525.635 -1.39697 -1.88473 0
M  V30 5698 C 526.651 -0.292403 -1.71526 0
M  V30 5699 O 527.827 -0.533021 -1.94219 0
M  V30 5700 C 524.892 -1.23382 -3.24003 0
M  V30 5701 C 523.953 -2.43763 -3.53381 0
M  V30 5702 C 523.186 -2.28216 -4.82445 0
M  V30 5703 O 523.409 -1.28288 -5.55786 0
M  V30 5704 O 522.343 -3.1709 -5.11603 0
M  V30 5705 H 526.169 -2.36159 -1.90952 0
M  V30 5706 H 523.754 -1.20194 -0.887346 0
M  V30 5707 H 525.636 -1.16395 -4.05006 0
M  V30 5708 H 524.311 -0.300121 -3.22306 0
M  V30 5709 H 523.218 -2.56325 -2.72485 0
M  V30 5710 H 524.551 -3.35808 -3.59852 0
M  V30 5711 N 526.204 0.969867 -1.24223 0
M  V30 5712 C 527.167 2.04564 -1.03373 0
M  V30 5713 C 528.167 1.60798 0.00819206 0
M  V30 5714 O 529.357 1.72641 -0.232567 0
M  V30 5715 C 526.489 3.36163 -0.566343 0
M  V30 5716 H 527.682 2.24494 -1.98853 0
M  V30 5717 H 525.235 1.1448 -1.06415 0
M  V30 5718 H 525.97 3.21925 0.391751 0
M  V30 5719 H 525.755 3.69273 -1.31834 0
M  V30 5720 H 527.245 4.1526 -0.441435 0
M  V30 5721 N 527.682 1.05563 1.17022 0
M  V30 5722 C 528.93 0.76642 1.87004 0
M  V30 5723 C 529.251 -0.708854 1.8166 0
M  V30 5724 O 528.521 -1.51242 1.2451 0
M  V30 5725 H 527.101 0.280516 0.692329 0
M  V30 5726 H 529.763 1.33557 1.41945 0
M  V30 5727 H 528.859 1.08472 2.92644 0
M  V30 5728 N 529.16 -1.33526 0.837174 0
M  V30 5729 C 530.09 -2.31764 0.284206 0
M  V30 5730 C 531.071 -1.58896 -0.607142 0
M  V30 5731 O 532.256 -1.86798 -0.531047 0
M  V30 5732 C 529.386 -3.43029 -0.542962 0
M  V30 5733 C 528.34 -4.27255 0.252451 0
M  V30 5734 C 527.666 -5.3012 -0.69836 0
M  V30 5735 C 528.966 -5.01229 1.46858 0
M  V30 5736 H 530.66 -2.78262 1.10502 0
M  V30 5737 H 528.206 -1.3378 0.532812 0
M  V30 5738 H 530.159 -4.1078 -0.940096 0
M  V30 5739 H 528.883 -2.95216 -1.39697 0
M  V30 5740 H 527.542 -3.61127 0.631124 0
M  V30 5741 H 527.19 -4.78564 -1.54872 0
M  V30 5742 H 526.89 -5.87353 -0.170274 0
M  V30 5743 H 528.414 -6.00737 -1.09305 0
M  V30 5744 H 529.828 -5.61756 1.14469 0
M  V30 5745 H 528.225 -5.68104 1.93333 0
M  V30 5746 H 529.295 -4.301 2.23924 0
M  V30 5747 N 530.638 -0.59345 -1.46 0
M  V30 5748 C 531.601 0.123538 -2.28867 0
M  V30 5749 C 532.601 0.808628 -1.38989 0
M  V30 5750 O 533.791 0.658945 -1.61256 0
M  V30 5751 C 530.923 1.1847 -3.19653 0
M  V30 5752 H 532.116 -0.604843 -2.93737 0
M  V30 5753 H 529.669 -0.351875 -1.52288 0
M  V30 5754 H 530.404 1.94431 -2.59552 0
M  V30 5755 H 530.189 0.69783 -3.8584 0
M  V30 5756 H 531.679 1.68726 -3.81997 0
M  V30 5757 N 532.116 1.54067 -0.331816 0
M  V30 5758 C 533.046 2.27569 0.522932 0
M  V30 5759 C 534.027 1.28679 1.11247 0
M  V30 5760 O 535.212 1.57504 1.13605 0
M  V30 5761 C 532.342 3.0397 1.67987 0
M  V30 5762 C 531.296 4.10267 1.21924 0
M  V30 5763 C 530.622 4.74555 2.46377 0
M  V30 5764 C 531.922 5.21268 0.32815 0
M  V30 5765 H 533.616 2.99264 -0.0901977 0
M  V30 5766 H 531.162 1.4393 -0.044821 0
M  V30 5767 H 533.115 3.54123 2.28418 0
M  V30 5768 H 531.839 2.29906 2.31971 0
M  V30 5769 H 530.498 3.61009 0.637809 0
M  V30 5770 H 530.146 3.97098 3.08743 0
M  V30 5771 H 529.846 5.46363 2.16243 0
M  V30 5772 H 531.37 5.27487 3.07555 0
M  V30 5773 H 532.784 5.67128 0.838978 0
M  V30 5774 H 531.181 5.99982 0.119228 0
M  V30 5775 H 532.251 4.80673 -0.638839 0
M  V30 5776 N 533.594 0.0601682 1.57485 0
M  V30 5777 C 534.843 -0.611101 1.9222 0
M  V30 5778 C 535.156 -1.71469 0.941159 0
M  V30 5779 O 536.362 -2.44473 1.18089 0
M  V30 5780 C 534.818 -1.13832 3.41424 0
M  V30 5781 C 534.426 -0.0663596 4.47951 0
M  V30 5782 C 536.17 -1.78432 3.85178 0
M  V30 5783 C 534.077 -0.606965 5.88277 0
M  V30 5784 H 533.007 -0.232033 0.71741 0
M  V30 5785 H 535.658 0.130518 1.83035 0
M  V30 5786 H 534.04 -1.93254 3.45643 0
M  V30 5787 H 535.214 0.707682 4.55333 0
M  V30 5788 H 533.529 0.482715 4.13593 0
M  V30 5789 H 536.126 -2.1989 4.87394 0
M  V30 5790 H 536.469 -2.63966 3.21913 0
M  V30 5791 H 537.002 -1.05651 3.83514 0
M  V30 5792 H 533.741 0.21095 6.5516 0
M  V30 5793 H 533.261 -1.34879 5.84438 0
M  V30 5794 H 534.94 -1.08704 6.37803 0
M  V30 5795 N 535.072 -1.5615 -0.213296 0
M  V30 5796 C 536.483 -1.69645 -0.779582 0
M  V30 5797 C 536.834 -0.663615 -1.84636 0
M  V30 5798 O 535.959 0.183633 -2.15619 0
M  V30 5799 C 536.554 -3.07567 -1.42084 0
M  V30 5800 C 535.113 -3.22889 -1.93442 0
M  V30 5801 C 534.26 -2.65581 -0.797612 0
M  V30 5802 H 537.211 -1.58696 0.0114951 0
M  V30 5803 H 537.232 -3.03884 -2.28986 0
M  V30 5804 H 536.744 -3.82716 -0.644187 0
M  V30 5805 H 534.845 -2.52623 -2.73884 0
M  V30 5806 H 534.958 -4.30197 -2.10872 0
M  V30 5807 H 533.322 -2.24278 -1.20712 0
M  V30 5808 H 534.105 -3.43284 -0.033494 0
M  V30 5809 N 536.55 0.480323 -1.50102 0
M  V30 5810 C 537.827 1.24159 -1.51142 0
M  V30 5811 C 538.207 2.09605 -0.250818 0
M  V30 5812 O 537.555 2.15274 0.766118 0
M  V30 5813 C 537.765 2.08057 -2.80202 0
M  V30 5814 C 539.113 2.66556 -3.30504 0
M  V30 5815 O 540.137 2.18308 -2.81461 0
M  V30 5816 O 538.996 3.54442 -4.15973 0
M  V30 5817 H 536.09 0.562928 -0.605839 0
M  V30 5818 H 538.636 0.492899 -1.62384 0
M  V30 5819 H 537.408 1.45032 -3.6343 0
M  V30 5820 H 537.031 2.90079 -2.71919 0
M  V30 5821 N 538.028 1.39524 0.732853 0
M  V30 5822 C 538.975 1.38416 1.84688 0
M  V30 5823 C 539.945 0.243539 1.64305 0
M  V30 5824 O 541.13 0.438979 1.85681 0
M  V30 5825 C 538.27 1.23555 3.22224 0
M  V30 5826 C 537.383 2.47179 3.54298 0
M  V30 5827 C 536.518 2.2489 4.81246 0
M  V30 5828 C 535.557 3.44178 5.0617 0
M  V30 5829 N 534.694 3.21192 6.24323 0
M  V30 5830 H 539.534 2.33645 1.84971 0
M  V30 5831 H 537.071 1.16059 0.903804 0
M  V30 5832 H 539.029 1.12949 4.0162 0
M  V30 5833 H 537.659 0.31954 3.21215 0
M  V30 5834 H 536.711 2.68379 2.69587 0
M  V30 5835 H 538.023 3.36022 3.68633 0
M  V30 5836 H 537.177 2.11538 5.68627 0
M  V30 5837 H 535.916 1.33443 4.69089 0
M  V30 5838 H 534.921 3.58025 4.17251 0
M  V30 5839 H 536.146 4.36528 5.20212 0
M  V30 5840 H 534.092 2.32413 6.1345 0
M  V30 5841 H 534.009 4.03594 6.39256 0
M  V30 5842 H 535.277 3.1154 7.14537 0
M  V30 5843 N 539.506 -0.963266 1.24736 0
M  V30 5844 C 540.917 -1.52145 1.08207 0
M  V30 5845 C 541.268 -1.93142 -0.345061 0
M  V30 5846 O 540.393 -1.77769 -1.23399 0
M  V30 5847 C 540.988 -2.76486 1.95808 0
M  V30 5848 C 539.547 -3.28646 1.8349 0
M  V30 5849 C 538.694 -2.01529 1.90476 0
M  V30 5850 H 541.645 -0.781083 1.38148 0
M  V30 5851 H 541.666 -3.49986 1.49297 0
M  V30 5852 H 541.178 -2.46617 2.99669 0
M  V30 5853 H 539.279 -3.63357 0.824787 0
M  V30 5854 H 539.392 -3.97246 2.67829 0
M  V30 5855 H 537.756 -2.16442 1.34258 0
M  V30 5856 H 538.539 -1.7402 2.95926 0
M  V30 5857 N 540.985 -1.06182 -1.16461 0
M  V30 5858 C 541.948 -0.675723 -2.19013 0
M  V30 5859 C 542.948 0.277963 -1.58379 0
M  V30 5860 O 544.138 0.0604962 -1.74095 0
M  V30 5861 C 541.27 0.00591459 -3.40899 0
M  V30 5862 H 542.463 -1.58353 -2.54685 0
M  V30 5863 H 540.016 -0.856908 -1.30716 0
M  V30 5864 H 540.751 0.92652 -3.10783 0
M  V30 5865 H 540.536 -0.67984 -3.86161 0
M  V30 5866 H 542.026 0.26181 -4.16778 0
M  V30 5867 N 542.463 1.3308 -0.844243 0
M  V30 5868 C 543.691 2.01808 -0.456203 0
M  V30 5869 C 544.106 1.63498 0.944131 0
M  V30 5870 O 543.463 0.85102 1.61443 0
M  V30 5871 C 543.514 3.56922 -0.573513 0
M  V30 5872 O 543.235 3.93851 -1.91868 0
M  V30 5873 C 544.736 4.42922 -0.183125 0
M  V30 5874 H 541.956 0.646273 -0.180477 0
M  V30 5875 H 544.5 1.69891 -1.1383 0
M  V30 5876 H 542.655 3.87352 0.0607367 0
M  V30 5877 H 543.069 4.88564 -1.90802 0
M  V30 5878 H 544.543 5.51093 -0.316241 0
M  V30 5879 H 545.02 4.30386 0.875477 0
M  V30 5880 H 545.626 4.1786 -0.792027 0
M  V30 5881 N 543.941 0.601185 1.45683 0
M  V30 5882 C 544.873 -0.159446 2.28645 0
M  V30 5883 C 545.886 -0.837882 1.39583 0
M  V30 5884 O 547.075 -0.704344 1.64016 0
M  V30 5885 C 544.175 -1.24641 3.15147 0
M  V30 5886 C 543.348 -0.656334 4.32448 0
M  V30 5887 C 542.407 -1.63337 5.00208 0
M  V30 5888 O 541.433 -1.16217 5.57209 0
M  V30 5889 N 542.635 -2.96773 4.98905 0
M  V30 5890 H 545.4 0.5524 2.94565 0
M  V30 5891 H 542.961 0.440223 1.558 0
M  V30 5892 H 544.953 -1.8997 3.57342 0
M  V30 5893 H 543.523 -1.86087 2.51178 0
M  V30 5894 H 542.743 0.174879 3.93812 0
M  V30 5895 H 544.031 -0.242211 5.08223 0
M  V30 5896 H 543.429 -3.37662 4.53873 0
M  V30 5897 H 541.986 -3.57541 5.44984 0
M  V30 5898 N 545.419 -1.53889 0.339982 0
M  V30 5899 C 546.659 -2.02765 -0.258011 0
M  V30 5900 C 547.023 -1.22249 -1.48051 0
M  V30 5901 O 548.224 -1.61007 -2.15245 0
M  V30 5902 C 546.495 -3.5286 -0.567872 0
M  V30 5903 S 548.054 -4.23647 -1.14318 0
M  V30 5904 H 544.872 -0.706814 -0.0770389 0
M  V30 5905 H 547.474 -1.89594 0.476917 0
M  V30 5906 H 546.178 -4.09073 0.329745 0
M  V30 5907 H 545.709 -3.70144 -1.33256 0
M  V30 5908 H 547.724 -4.32676 -2.42911 0
M  V30 5909 N 546.897 -0.0685191 -1.57451 0
M  V30 5910 C 548.146 0.600898 -1.92541 0
M  V30 5911 C 548.459 1.70967 -0.950239 0
M  V30 5912 O 549.665 2.43844 -1.19384 0
M  V30 5913 C 548.121 1.12019 -3.42023 0
M  V30 5914 C 547.729 0.0426028 -4.4798 0
M  V30 5915 C 549.473 1.76386 -3.86119 0
M  V30 5916 C 547.38 0.575759 -5.88591 0
M  V30 5917 H 546.31 0.228225 -0.71863 0
M  V30 5918 H 548.961 -0.140223 -1.82963 0
M  V30 5919 H 547.343 1.91418 -3.46663 0
M  V30 5920 H 548.517 -0.73182 -4.54952 0
M  V30 5921 H 546.832 -0.504642 -4.13331 0
M  V30 5922 H 549.429 2.17302 -4.88553 0
M  V30 5923 H 549.772 2.62255 -3.23308 0
M  V30 5924 H 550.305 1.03615 -3.84069 0
M  V30 5925 H 547.044 -0.245691 -6.55039 0
M  V30 5926 H 546.564 1.31778 -5.85145 0
M  V30 5927 H 548.243 1.0532 -6.3837 0
M  V30 5928 N 548.375 1.56261 0.205012 0
M  V30 5929 C 549.6 1.84491 0.947512 0
M  V30 5930 C 550.025 0.650894 1.76479 0
M  V30 5931 O 549.383 -0.40035 1.76824 0
M  V30 5932 C 549.431 3.10863 1.82747 0
M  V30 5933 O 548.535 2.90719 2.925 0
M  V30 5934 H 547.876 0.607783 0.267386 0
M  V30 5935 H 550.406 2.03485 0.213323 0
M  V30 5936 H 550.416 3.41399 2.23407 0
M  V30 5937 H 549.091 3.97392 1.2269 0
M  V30 5938 H 547.668 2.71457 2.55667 0
M  V30 5939 N 549.853 -0.472356 1.50355 0
M  V30 5940 C 551.13 -1.23356 1.51798 0
M  V30 5941 C 551.51 -2.09469 0.26193 0
M  V30 5942 O 550.858 -2.15677 -0.754691 0
M  V30 5943 C 551.068 -2.06568 2.81302 0
M  V30 5944 C 552.416 -2.648 3.31913 0
M  V30 5945 O 553.44 -2.16812 2.82614 0
M  V30 5946 O 552.299 -3.52231 4.17846 0
M  V30 5947 H 549.393 -0.559707 0.608816 0
M  V30 5948 H 551.939 -0.48428 1.62643 0
M  V30 5949 H 550.711 -1.43103 3.64194 0
M  V30 5950 H 550.334 -2.88633 2.73454 0
M  V30 5951 N 551.331 -1.39911 -0.725443 0
M  V30 5952 C 552.579 -1.37382 -1.48224 0
M  V30 5953 C 552.9 0.0264107 -1.94982 0
M  V30 5954 O 552.17 0.979408 -1.6966 0
M  V30 5955 H 550.75 -0.505596 -0.549892 0
M  V30 5956 H 553.412 -1.7487 -0.860608 0
M  V30 5957 H 552.508 -2.04254 -2.3598 0
M  V30 5958 N 552.809 0.956637 -1.25245 0
M  V30 5959 C 553.756 2.053 -1.05454 0
M  V30 5960 C 554.726 1.66062 0.0356889 0
M  V30 5961 O 555.911 1.90415 -0.121099 0
M  V30 5962 C 553.051 3.38391 -0.677191 0
M  V30 5963 C 552.164 3.90758 -1.84206 0
M  V30 5964 C 551.299 5.12165 -1.40926 0
M  V30 5965 C 550.338 5.56757 -2.54338 0
M  V30 5966 N 549.475 6.69376 -2.11848 0
M  V30 5967 H 554.315 2.21562 -1.99284 0
M  V30 5968 H 551.852 1.08578 -0.992434 0
M  V30 5969 H 553.81 4.1488 -0.43938 0
M  V30 5970 H 552.44 3.22021 0.224127 0
M  V30 5971 H 551.492 3.10808 -2.19323 0
M  V30 5972 H 552.804 4.19802 -2.69383 0
M  V30 5973 H 551.958 5.96065 -1.13098 0
M  V30 5974 H 550.697 4.84832 -0.528175 0
M  V30 5975 H 549.702 4.71423 -2.82913 0
M  V30 5976 H 550.927 5.861 -3.43022 0
M  V30 5977 H 548.873 6.43756 -1.26153 0
M  V30 5978 H 548.79 6.97927 -2.90574 0
M  V30 5979 H 550.058 7.5669 -1.87191 0
M  V30 5980 N 554.287 1.06798 1.15896 0
M  V30 5981 C 555.217 0.704677 2.22613 0
M  V30 5982 C 556.198 -0.305252 1.67339 0
M  V30 5983 O 557.383 -0.179247 1.93371 0
M  V30 5984 C 554.513 0.0957325 3.47168 0
M  V30 5985 C 553.467 1.0322 4.15367 0
M  V30 5986 C 552.793 0.286293 5.33933 0
M  V30 5987 C 554.093 2.36341 4.65768 0
M  V30 5988 H 555.787 1.59688 2.53259 0
M  V30 5989 H 553.333 0.769257 1.21731 0
M  V30 5990 H 555.286 -0.170333 4.21056 0
M  V30 5991 H 554.01 -0.831516 3.15838 0
M  V30 5992 H 552.669 1.28309 3.43413 0
M  V30 5993 H 552.317 -0.644237 4.98857 0
M  V30 5994 H 552.017 0.910436 5.80504 0
M  V30 5995 H 553.541 0.0278938 6.10594 0
M  V30 5996 H 554.955 2.1561 5.31211 0
M  V30 5997 H 553.352 2.94299 5.2298 0
M  V30 5998 H 554.422 2.99047 3.81705 0
M  V30 5999 N 555.766 -1.3263 0.851289 0
M  V30 6000 C 556.714 -2.30882 0.282202 0
M  V30 6001 C 557.708 -1.58697 -0.592589 0
M  V30 6002 O 558.914 -1.73461 -0.480768 0
M  V30 6003 H 555.289 -0.748492 0.0725487 0
M  V30 6004 H 557.26 -2.76374 1.12516 0
M  V30 6005 C 556.009 -3.43828 -0.517449 0
M  V30 6006 H 555.332 -3.99532 0.146392 0
M  V30 6007 H 556.772 -4.1474 -0.88128 0
M  V30 6008 C 555.231 -2.90786 -1.70133 0
M  V30 6009 O 555.761 -2.88 -2.80034 0
M  V30 6010 N 553.967 -2.4723 -1.52728 0
M  V30 6011 H 553.514 -2.49695 -0.633257 0
M  V30 6012 H 553.472 -2.12094 -2.32085 0
M  V30 6013 N 557.244 -0.608902 -1.45362 0
M  V30 6014 C 558.154 0.110969 -2.34337 0
M  V30 6015 C 559.17 0.859007 -1.51318 0
M  V30 6016 O 560.346 0.816296 -1.84116 0
M  V30 6017 C 557.411 1.09494 -3.28956 0
M  V30 6018 C 556.472 0.348718 -4.27881 0
M  V30 6019 C 555.705 1.28582 -5.17979 0
M  V30 6020 O 555.928 2.52369 -5.11533 0
M  V30 6021 O 554.862 0.782172 -5.96796 0
M  V30 6022 H 558.688 -0.620258 -2.97299 0
M  V30 6023 H 556.273 -0.36916 -1.44767 0
M  V30 6024 H 558.155 1.66163 -3.87257 0
M  V30 6025 H 556.83 1.80717 -2.68557 0
M  V30 6026 H 555.737 -0.260465 -3.73192 0
M  V30 6027 H 557.07 -0.323049 -4.91139 0
M  V30 6028 N 558.722 1.53707 -0.348139 0
M  V30 6029 C 559.97 2.00591 0.246478 0
M  V30 6030 C 560.291 1.23753 1.50699 0
M  V30 6031 O 559.561 0.345964 1.92821 0
M  V30 6032 H 558.141 0.741053 0.0940679 0
M  V30 6033 H 560.803 1.89139 -0.470354 0
M  V30 6034 H 559.899 3.08297 0.485714 0
M  V30 6035 N 560.2 0.0768682 1.57412 0
M  V30 6036 C 561.15 -0.898795 2.09537 0
M  V30 6037 C 562.134 -1.25556 1.0062 0
M  V30 6038 O 563.326 -1.23369 1.26921 0
M  V30 6039 C 560.455 -2.16453 2.66464 0
M  V30 6040 C 559.541 -1.83401 3.82393 0
M  V30 6041 N 559.932 -1.20823 4.91157 0
M  V30 6042 C 558.23 -2.13121 3.91785 0
M  V30 6043 C 558.931 -1.05976 5.71965 0
M  V30 6044 N 557.907 -1.57113 5.204 0
M  V30 6045 H 561.709 -0.410718 2.91016 0
M  V30 6046 H 559.223 -0.126878 1.61904 0
M  V30 6047 H 561.22 -2.87274 3.02125 0
M  V30 6048 H 559.88 -2.65844 1.86433 0
M  V30 6049 H 560.891 -0.877249 5.10416 0
M  V30 6050 H 557.568 -2.64854 3.22736 0
M  V30 6051 H 558.958 -0.571809 6.69462 0
M  V30 6052 N 561.678 -1.56367 -0.196722 0
M  V30 6053 C 562.906 -1.84639 -0.933608 0
M  V30 6054 C 563.321 -0.659164 -1.76919 0
M  V30 6055 O 562.678 0.372142 -1.78665 0
M  V30 6056 C 562.729 -3.11694 -1.83109 0
M  V30 6057 O 562.45 -4.25838 -1.02924 0
M  V30 6058 C 563.951 -3.53132 -2.67979 0
M  V30 6059 H 561.171 -0.613188 -0.272473 0
M  V30 6060 H 563.715 -2.03475 -0.204465 0
M  V30 6061 H 561.87 -2.94759 -2.51387 0
M  V30 6062 H 562.284 -4.98178 -1.64069 0
M  V30 6063 H 563.758 -4.45005 -3.26611 0
M  V30 6064 H 564.235 -2.76045 -3.41608 0
M  V30 6065 H 564.841 -3.72592 -2.05074 0
M  V30 6066 N 563.156 0.464375 -1.50603 0
M  V30 6067 C 564.086 1.56944 -1.72889 0
M  V30 6068 C 565.067 1.59979 -0.577997 0
M  V30 6069 O 566.252 1.76138 -0.817855 0
M  V30 6070 C 563.382 2.95225 -1.8292 0
M  V30 6071 C 562.336 3.07056 -2.98162 0
M  V30 6072 C 561.662 4.47051 -2.93343 0
M  V30 6073 C 562.962 2.83648 -4.38567 0
M  V30 6074 H 564.656 1.38547 -2.65415 0
M  V30 6075 H 562.202 0.665082 -1.27721 0
M  V30 6076 H 564.155 3.72467 -1.97095 0
M  V30 6077 H 562.879 3.14793 -0.870209 0
M  V30 6078 H 561.538 2.32248 -2.83648 0
M  V30 6079 H 561.186 4.63547 -1.95276 0
M  V30 6080 H 560.886 4.55902 -3.70712 0
M  V30 6081 H 562.41 5.26304 -3.09575 0
M  V30 6082 H 563.824 3.50636 -4.53572 0
M  V30 6083 H 562.221 3.03937 -5.17438 0
M  V30 6084 H 563.291 1.79451 -4.50472 0
M  V30 6085 N 564.634 1.40294 0.718013 0
M  V30 6086 C 565.911 1.2894 1.47084 0
M  V30 6087 C 566.291 -0.0933625 2.10893 0
M  V30 6088 O 565.639 -1.10598 1.99951 0
M  V30 6089 C 565.849 2.4264 2.50852 0
M  V30 6090 C 567.197 2.8276 3.16752 0
M  V30 6091 O 568.221 2.42215 2.61171 0
M  V30 6092 O 567.08 3.528 4.17366 0
M  V30 6093 H 564.174 0.506236 0.653952 0
M  V30 6094 H 566.72 1.52208 0.750394 0
M  V30 6095 H 565.492 3.35009 2.022 0
M  V30 6096 H 565.115 2.21129 3.30435 0
M  V30 6097 N 566.112 -0.949982 1.2575 0
M  V30 6098 C 567.045 -2.047 1.00862 0
M  V30 6099 C 568.023 -1.62475 -0.0636982 0
M  V30 6100 O 569.207 -1.88343 0.0769153 0
M  V30 6101 C 566.334 -3.34597 0.525613 0
M  V30 6102 C 565.38 -3.95788 1.58916 0
M  V30 6103 S 566.213 -4.31175 3.17567 0
M  V30 6104 C 567.369 -5.64183 2.71013 0
M  V30 6105 H 567.602 -2.25497 1.93749 0
M  V30 6106 H 565.135 -1.09022 1.09332 0
M  V30 6107 H 567.093 -4.09716 0.25359 0
M  V30 6108 H 565.754 -3.11758 -0.382828 0
M  V30 6109 H 564.947 -4.89457 1.20201 0
M  V30 6110 H 564.549 -3.27168 1.81211 0
M  V30 6111 H 566.841 -6.42504 2.14928 0
M  V30 6112 H 567.784 -6.07774 3.6334 0
M  V30 6113 H 568.192 -5.2364 2.1086 0
M  V30 6114 N 567.59 -1.07411 -1.15328 0
M  V30 6115 C 568.867 -0.710732 -1.82231 0
M  V30 6116 C 569.247 0.806732 -1.95077 0
M  V30 6117 O 568.595 1.72139 -1.50268 0
M  V30 6118 C 568.805 -1.42586 -3.18544 0
M  V30 6119 C 570.153 -1.57836 -3.94174 0
M  V30 6120 O 571.177 -1.38669 -3.281 0
M  V30 6121 O 570.036 -1.8938 -5.12638 0
M  V30 6122 H 567.13 -0.25297 -0.78736 0
M  V30 6123 H 569.676 -1.17508 -1.22434 0
M  V30 6124 H 568.448 -2.46008 -3.04296 0
M  V30 6125 H 568.071 -0.952332 -3.86026 0
M  V30 6126 N 569.068 1.32177 -0.85831 0
M  V30 6127 C 569.998 2.31282 -0.321041 0
M  V30 6128 C 570.979 1.59841 0.581786 0
M  V30 6129 O 572.164 1.87619 0.501262 0
M  V30 6130 C 569.294 3.4385 0.48832 0
M  V30 6131 C 568.248 4.26799 -0.320391 0
M  V30 6132 C 567.574 5.31164 0.613934 0
M  V30 6133 C 568.874 4.98829 -1.54813 0
M  V30 6134 H 570.568 2.76469 -1.14915 0
M  V30 6135 H 568.114 1.32916 -0.554028 0
M  V30 6136 H 570.067 4.12224 0.874626 0
M  V30 6137 H 568.791 2.97401 1.34983 0
M  V30 6138 H 567.45 3.60077 -0.688497 0
M  V30 6139 H 567.098 4.80967 1.47239 0
M  V30 6140 H 566.798 5.8755 0.0768097 0
M  V30 6141 H 568.322 6.024 0.997336 0
M  V30 6142 H 569.736 5.59864 -1.23392 0
M  V30 6143 H 568.133 5.64957 -2.02346 0
M  V30 6144 H 569.203 4.26483 -2.30739 0
M  V30 6145 N 570.547 0.616602 1.45037 0
M  V30 6146 C 571.793 0.115501 2.02471 0
M  V30 6147 C 572.126 -1.25406 1.4828 0
M  V30 6148 O 571.401 -1.82922 0.661051 0
M  V30 6149 C 571.684 0.0863588 3.59996 0
M  V30 6150 C 571.537 1.48723 4.24501 0
M  V30 6151 C 572.856 -0.596762 4.36035 0
M  V30 6152 H 569.975 0.0434461 0.735718 0
M  V30 6153 H 572.617 0.7903 1.72784 0
M  V30 6154 H 570.767 -0.488277 3.85419 0
M  V30 6155 H 572.439 2.10964 4.10234 0
M  V30 6156 H 570.682 2.04534 3.82555 0
M  V30 6157 H 571.353 1.419 5.3345 0
M  V30 6158 H 573.829 -0.10824 4.15959 0
M  V30 6159 H 572.705 -0.586289 5.4576 0
M  V30 6160 H 572.966 -1.66451 4.09569 0
M  V30 6161 N 572.025 -1.5352 0.356285 0
M  V30 6162 C 573.272 -2.01117 -0.236303 0
M  V30 6163 C 573.6 -1.24381 -1.49531 0
M  V30 6164 O 572.855 -0.323057 -1.93015 0
M  V30 6165 C 573.154 -3.52607 -0.583369 0
M  V30 6166 C 572.82 -4.47151 0.58023 0
M  V30 6167 C 571.482 -4.72718 0.899528 0
M  V30 6168 C 573.834 -5.03137 1.36024 0
M  V30 6169 C 571.162 -5.51523 2.00098 0
M  V30 6170 C 573.514 -5.83145 2.45204 0
M  V30 6171 C 572.178 -6.07001 2.77679 0
M  V30 6172 H 571.448 -0.735938 -0.0864695 0
M  V30 6173 H 574.095 -1.85209 0.48683 0
M  V30 6174 H 572.4 -3.66413 -1.38739 0
M  V30 6175 H 574.097 -3.86901 -1.05397 0
M  V30 6176 H 570.687 -4.27394 0.321322 0
M  V30 6177 H 574.871 -4.83339 1.12682 0
M  V30 6178 H 570.127 -5.68229 2.25668 0
M  V30 6179 H 574.301 -6.25537 3.06067 0
M  V30 6180 H 571.928 -6.67851 3.63151 0
M  V30 6181 N 573.503 -0.0852151 -1.57369 0
M  V30 6182 C 574.433 0.874556 -2.16503 0
M  V30 6183 C 575.414 1.30111 -1.09568 0
M  V30 6184 O 576.599 1.36977 -1.37662 0
M  V30 6185 C 573.729 2.13731 -2.73745 0
M  V30 6186 C 572.683 1.84971 -3.85966 0
M  V30 6187 C 572.009 3.17991 -4.29867 0
M  V30 6188 C 573.309 1.14442 -5.09608 0
M  V30 6189 H 575.003 0.381899 -2.96954 0
M  V30 6190 H 572.549 0.18225 -1.42842 0
M  V30 6191 H 574.502 2.81302 -3.13763 0
M  V30 6192 H 573.226 2.65263 -1.90534 0
M  V30 6193 H 571.885 1.19801 -3.46473 0
M  V30 6194 H 571.533 3.6739 -3.4356 0
M  V30 6195 H 571.233 2.99534 -5.05523 0
M  V30 6196 H 572.757 3.86737 -4.72511 0
M  V30 6197 H 574.171 1.72105 -5.46857 0
M  V30 6198 H 572.568 1.06197 -5.90629 0
M  V30 6199 H 573.638 0.12559 -4.84737 0
M  V30 6200 N 574.981 1.5647 0.188427 0
M  V30 6201 C 576.228 1.81013 0.907779 0
M  V30 6202 C 576.556 0.65953 1.82977 0
M  V30 6203 O 575.811 -0.354308 1.92466 0
M  V30 6204 C 576.11 3.11596 1.7505 0
M  V30 6205 C 575.776 4.40145 0.978922 0
M  V30 6206 C 574.438 4.75066 0.765912 0
M  V30 6207 C 576.79 5.19369 0.436498 0
M  V30 6208 C 574.118 5.867 -0.00089868 0
M  V30 6209 C 576.47 6.31805 -0.317136 0
M  V30 6210 C 575.134 6.65303 -0.541103 0
M  V30 6211 H 574.404 0.662373 0.33218 0
M  V30 6212 H 577.051 1.9071 0.173732 0
M  V30 6213 H 575.356 2.97165 2.55343 0
M  V30 6214 H 577.053 3.27793 2.30983 0
M  V30 6215 H 573.643 4.12745 1.15497 0
M  V30 6216 H 577.827 4.92799 0.588449 0
M  V30 6217 H 573.083 6.11122 -0.184329 0
M  V30 6218 H 577.257 6.92406 -0.744788 0
M  V30 6219 H 574.884 7.51646 -1.13718 0
M  V30 6220 N 576.459 -0.456382 1.50847 0
M  V30 6221 C 577.736 -1.21739 1.53098 0
M  V30 6222 C 578.116 -2.09179 0.284132 0
M  V30 6223 O 577.464 -2.16466 -0.731773 0
M  V30 6224 C 577.674 -2.03573 2.83477 0
M  V30 6225 C 579.022 -2.61264 3.34703 0
M  V30 6226 O 580.046 -2.13802 2.84898 0
M  V30 6227 O 578.905 -3.47779 4.21559 0
M  V30 6228 H 575.999 -0.553219 0.614718 0
M  V30 6229 H 578.545 -0.467003 1.63148 0
M  V30 6230 H 577.317 -1.39232 3.65691 0
M  V30 6231 H 576.94 -2.85716 2.76499 0
M  V30 6232 N 577.937 -1.40673 -0.710563 0
M  V30 6233 C 578.885 -1.41517 -1.84596 0
M  V30 6234 C 579.879 -0.295043 -1.66811 0
M  V30 6235 O 581.085 -0.466331 -1.73854 0
M  V30 6236 H 577.46 -0.442467 -0.608052 0
M  V30 6237 H 579.431 -2.37238 -1.80999 0
M  V30 6238 C 578.18 -1.29957 -3.225 0
M  V30 6239 H 577.503 -2.15429 -3.36794 0
M  V30 6240 H 578.943 -1.34608 -4.02066 0
M  V30 6241 C 577.402 -0.0103164 -3.36898 0
M  V30 6242 O 577.932 0.950707 -3.90288 0
M  V30 6243 N 576.138 0.0608409 -2.90536 0
M  V30 6244 H 575.685 -0.721943 -2.47277 0
M  V30 6245 H 575.643 0.92292 -3.00549 0
M  V30 6246 N 579.415 0.9433 -1.26252 0
M  V30 6247 C 580.64 1.72898 -1.14547 0
M  V30 6248 C 581.065 1.85761 0.295743 0
M  V30 6249 O 580.423 1.3463 1.21427 0
M  V30 6250 C 580.471 3.11471 -1.8171 0
M  V30 6251 O 579.575 3.97336 -1.10445 0
M  V30 6252 H 578.916 0.530555 -0.399259 0
M  V30 6253 H 581.446 1.18159 -1.67032 0
M  V30 6254 H 581.456 3.61872 -1.88449 0
M  V30 6255 H 580.131 3.01425 -2.86558 0
M  V30 6256 H 578.708 3.55788 -1.11666 0
M  V30 6257 N 580.893 1.08022 1.14757 0
M  V30 6258 C 581.84 0.706657 2.19716 0
M  V30 6259 C 582.81 -0.30525 1.63271 0
M  V30 6260 O 583.995 -0.19015 1.8985 0
M  V30 6261 C 581.135 0.117914 3.44898 0
M  V30 6262 C 580.248 1.18212 4.15512 0
M  V30 6263 C 579.383 0.557659 5.28265 0
M  V30 6264 C 578.422 1.60418 5.90705 0
M  V30 6265 N 577.559 1.0018 6.94916 0
M  V30 6266 H 582.399 1.60603 2.51019 0
M  V30 6267 H 579.936 0.802664 1.23271 0
M  V30 6268 H 581.894 -0.241112 4.16503 0
M  V30 6269 H 580.524 -0.744788 3.1409 0
M  V30 6270 H 579.576 1.65863 3.42335 0
M  V30 6271 H 580.888 1.97533 4.5802 0
M  V30 6272 H 580.042 0.146654 6.06523 0
M  V30 6273 H 578.781 -0.267249 4.86967 0
M  V30 6274 H 577.786 2.02489 5.11154 0
M  V30 6275 H 579.011 2.43149 6.34078 0
M  V30 6276 H 576.957 0.197917 6.55701 0
M  V30 6277 H 576.874 1.73216 7.35889 0
M  V30 6278 H 578.142 0.616523 7.77058 0
M  V30 6279 N 582.371 -1.3172 0.865308 0
M  V30 6280 C 583.62 -1.96145 0.470098 0
M  V30 6281 C 583.933 -1.69182 -0.981674 0
M  V30 6282 O 585.139 -2.27431 -1.48281 0
M  V30 6283 C 583.595 -3.51129 0.789732 0
M  V30 6284 C 583.203 -3.86938 2.25795 0
M  V30 6285 C 584.947 -4.2197 0.462765 0
M  V30 6286 C 582.854 -5.35012 2.52024 0
M  V30 6287 H 581.784 -0.734105 0.172065 0
M  V30 6288 H 584.435 -1.49959 1.05757 0
M  V30 6289 H 582.817 -3.95781 0.131571 0
M  V30 6290 H 583.991 -3.5326 2.95879 0
M  V30 6291 H 582.306 -3.29149 2.55049 0
M  V30 6292 H 584.903 -5.30904 0.636019 0
M  V30 6293 H 585.246 -4.12005 -0.59645 0
M  V30 6294 H 585.779 -3.82936 1.07727 0
M  V30 6295 H 582.518 -5.50008 3.56611 0
M  V30 6296 H 582.038 -5.70058 1.8653 0
M  V30 6297 H 583.717 -6.0222 2.36515 0
M  V30 6298 N 583.85 -0.624285 -1.44708 0
M  V30 6299 C 585.077 -0.132919 -2.06473 0
M  V30 6300 C 585.493 1.18967 -1.46602 0
M  V30 6301 O 584.85 1.72824 -0.586341 0
M  V30 6302 C 584.901 -0.00465418 -3.615 0
M  V30 6303 O 584.622 -1.27494 -4.19138 0
M  V30 6304 C 586.123 0.516213 -4.40284 0
M  V30 6305 H 583.343 -0.0765201 -0.666623 0
M  V30 6306 H 585.887 -0.856751 -1.85688 0
M  V30 6307 H 584.042 0.669583 -3.8157 0
M  V30 6308 H 584.456 -1.11536 -5.12504 0
M  V30 6309 H 585.93 0.554994 -5.49203 0
M  V30 6310 H 586.407 1.5419 -4.11245 0
M  V30 6311 H 587.013 -0.124542 -4.25118 0
M  V30 6312 N 585.328 1.53329 -0.364422 0
M  V30 6313 C 586.558 2.05359 0.226096 0
M  V30 6314 C 586.966 1.23777 1.43094 0
M  V30 6315 O 586.309 0.271139 1.81688 0
M  V30 6316 C 586.371 3.52918 0.684794 0
M  V30 6317 C 586.035 4.55218 -0.403206 0
M  V30 6318 C 587.032 5.04583 -1.2527 0
M  V30 6319 C 584.717 4.99134 -0.563117 0
M  V30 6320 C 586.711 5.96463 -2.24745 0
M  V30 6321 C 584.398 5.9082 -1.56124 0
M  V30 6322 C 585.396 6.39375 -2.40184 0
M  V30 6323 O 585.084 7.29255 -3.38293 0
M  V30 6324 H 584.816 0.674588 0.0436772 0
M  V30 6325 H 587.37 1.98688 -0.520782 0
M  V30 6326 H 585.6 3.57122 1.48326 0
M  V30 6327 H 587.289 3.87812 1.19818 0
M  V30 6328 H 588.055 4.71403 -1.14034 0
M  V30 6329 H 583.934 4.60928 0.0813909 0
M  V30 6330 H 587.478 6.34285 -2.90393 0
M  V30 6331 H 583.375 6.23414 -1.67407 0
M  V30 6332 H 584.143 7.47249 -3.34009 0
M  V30 6333 N 586.806 0.0935595 1.57322 0
M  V30 6334 C 587.716 -0.880192 2.17462 0
M  V30 6335 C 588.732 -1.31135 1.14366 0
M  V30 6336 O 589.908 -1.37958 1.46729 0
M  V30 6337 C 586.973 -2.12184 2.74188 0
M  V30 6338 C 586.034 -1.74503 3.92234 0
M  V30 6339 C 585.267 -2.92748 4.46245 0
M  V30 6340 O 585.49 -4.07427 3.99198 0
M  V30 6341 O 584.424 -2.71303 5.37288 0
M  V30 6342 H 588.25 -0.398516 3.01074 0
M  V30 6343 H 585.835 -0.130707 1.48827 0
M  V30 6344 H 587.717 -2.84953 3.10451 0
M  V30 6345 H 586.392 -2.59407 1.93623 0
M  V30 6346 H 585.299 -0.989186 3.60785 0
M  V30 6347 H 586.632 -1.32044 4.74157 0
M  V30 6348 N 588.284 -1.56567 -0.180126 0
M  V30 6349 C 589.512 -1.85618 -0.913972 0
M  V30 6350 C 589.927 -0.677892 -1.7621 0
M  V30 6351 O 589.284 0.353171 -1.7905 0
M  V30 6352 C 589.335 -3.13619 -1.79793 0
M  V30 6353 O 589.056 -4.26906 -0.98402 0
M  V30 6354 C 590.557 -3.55954 -2.64219 0
M  V30 6355 H 587.777 -0.616043 -0.265954 0
M  V30 6356 H 590.321 -2.03681 -0.182872 0
M  V30 6357 H 588.476 -2.97409 -2.48247 0
M  V30 6358 H 588.89 -4.9989 -1.58776 0
M  V30 6359 H 590.364 -4.48444 -3.21873 0
M  V30 6360 H 590.841 -2.79653 -3.38661 0
M  V30 6361 H 591.447 -3.74746 -2.01111 0
M  V30 6362 N 589.762 0.448376 -1.51087 0
M  V30 6363 C 590.694 1.56146 -1.67783 0
M  V30 6364 C 591.707 1.52913 -0.55871 0
M  V30 6365 O 592.896 1.57889 -0.83267 0
M  V30 6366 C 589.996 2.95057 -1.66716 0
M  V30 6367 C 589.169 3.22915 -2.95033 0
M  V30 6368 C 588.228 4.41495 -2.86302 0
M  V30 6369 O 587.254 4.40688 -3.60254 0
M  V30 6370 N 588.456 5.44443 -2.014 0
M  V30 6371 H 591.221 1.42232 -2.638 0
M  V30 6372 H 588.782 0.637153 -1.48835 0
M  V30 6373 H 590.774 3.72388 -1.58458 0
M  V30 6374 H 589.344 3.02624 -0.783403 0
M  V30 6375 H 588.564 2.33985 -3.17245 0
M  V30 6376 H 589.852 3.38349 -3.79996 0
M  V30 6377 H 589.25 5.4793 -1.40674 0
M  V30 6378 H 587.807 6.2067 -1.99029 0
M  V30 6379 N 591.24 1.41047 0.703093 0
M  V30 6380 C 592.489 1.39301 1.4587 0
M  V30 6381 C 592.802 0.00267077 1.956 0
M  V30 6382 O 594.008 -0.137414 2.71152 0
M  V30 6383 C 592.464 2.44891 2.63735 0
M  V30 6384 C 592.072 3.89796 2.20824 0
M  V30 6385 C 593.816 2.5227 3.41409 0
M  V30 6386 C 591.723 4.86955 3.35602 0
M  V30 6387 H 590.653 0.518005 0.547893 0
M  V30 6388 H 593.304 1.66839 0.764009 0
M  V30 6389 H 591.686 2.10472 3.35436 0
M  V30 6390 H 592.86 4.33424 1.56461 0
M  V30 6391 H 591.175 3.86008 1.56163 0
M  V30 6392 H 593.772 3.22044 4.26839 0
M  V30 6393 H 594.115 1.55714 3.86081 0
M  V30 6394 H 594.648 2.85742 2.7676 0
M  V30 6395 H 591.387 5.84888 2.9595 0
M  V30 6396 H 590.907 4.47982 3.98839 0
M  V30 6397 H 592.586 5.07361 4.01489 0
M  V30 6398 N 592.718 -0.936591 1.26751 0
M  V30 6399 C 593.943 -1.72288 1.15462 0
M  V30 6400 C 594.368 -1.85915 -0.285887 0
M  V30 6401 O 593.726 -1.35272 -1.20711 0
M  V30 6402 C 593.774 -3.10503 1.83359 0
M  V30 6403 O 592.878 -3.96745 1.1255 0
M  V30 6404 H 592.219 -0.52843 0.402067 0
M  V30 6405 H 594.749 -1.17271 1.67656 0
M  V30 6406 H 594.759 -3.60867 1.90365 0
M  V30 6407 H 593.434 -2.99901 2.88153 0
M  V30 6408 H 592.011 -3.55191 1.13551 0
M  V30 6409 N 594.196 -1.08629 -1.14182 0
M  V30 6410 C 595.607 -0.838003 -1.66836 0
M  V30 6411 C 595.958 0.634885 -1.85644 0
M  V30 6412 O 595.083 1.49008 -1.56926 0
M  V30 6413 C 595.678 -1.51465 -3.03058 0
M  V30 6414 C 594.237 -1.31355 -3.52736 0
M  V30 6415 C 593.384 -1.57599 -2.28162 0
M  V30 6416 H 596.335 -1.24656 -0.982165 0
M  V30 6417 H 596.356 -0.943134 -3.68626 0
M  V30 6418 H 595.868 -2.58661 -2.89337 0
M  V30 6419 H 593.969 -0.262384 -3.71675 0
M  V30 6420 H 594.082 -2.04275 -4.33369 0
M  V30 6421 H 592.446 -0.997659 -2.34348 0
M  V30 6422 H 593.229 -2.66006 -2.17015 0
M  V30 6423 N 595.674 1.31259 -0.872281 0
M  V30 6424 C 597.09 1.49283 -0.564521 0
M  V30 6425 C 597.29 1.80243 0.900807 0
M  V30 6426 O 596.346 1.88246 1.68284 0
M  V30 6427 C 597.659 2.62503 -1.46673 0
M  V30 6428 C 599.207 2.76386 -1.46901 0
M  V30 6429 C 599.682 3.92705 -2.35684 0
M  V30 6430 N 601.173 3.99995 -2.33577 0
M  V30 6431 C 601.908 4.89276 -2.98992 0
M  V30 6432 N 601.404 5.83443 -3.73585 0
M  V30 6433 N 603.197 4.82541 -2.88289 0
M  V30 6434 H 595.348 1.09432 -1.82039 0
M  V30 6435 H 597.611 0.540949 -0.77851 0
M  V30 6436 H 597.317 2.46407 -2.50951 0
M  V30 6437 H 597.191 3.58695 -1.16696 0
M  V30 6438 H 599.578 2.91894 -0.433796 0
M  V30 6439 H 599.659 1.80853 -1.80903 0
M  V30 6440 H 599.303 3.77954 -3.39283 0
M  V30 6441 H 599.233 4.87549 -1.99006 0
M  V30 6442 H 601.724 3.32624 -1.7936 0
M  V30 6443 H 602.037 6.48303 -4.20622 0
M  V30 6444 H 600.382 5.83415 -3.77694 0
M  V30 6445 H 603.573 4.07951 -2.2955 0
M  V30 6446 H 603.746 5.51916 -3.39549 0
M  V30 6447 N 597.152 0.631951 1.44375 0
M  V30 6448 C 598.563 0.219036 1.85411 0
M  V30 6449 C 598.914 -1.22974 1.52879 0
M  V30 6450 O 598.039 -1.93579 0.967266 0
M  V30 6451 C 598.634 0.39075 3.36539 0
M  V30 6452 C 597.193 0.0323351 3.76386 0
M  V30 6453 C 596.34 0.703744 2.68221 0
M  V30 6454 H 599.291 0.837056 1.3483 0
M  V30 6455 H 599.312 -0.370056 3.78696 0
M  V30 6456 H 598.824 1.44527 3.60185 0
M  V30 6457 H 596.925 -1.02042 3.58355 0
M  V30 6458 H 597.038 0.442969 4.77048 0
M  V30 6459 H 595.402 0.138974 2.54321 0
M  V30 6460 H 596.185 1.76088 2.947 0
M  V30 6461 N 598.631 -1.53133 0.372548 0
M  V30 6462 C 599.563 -2.23557 -0.505444 0
M  V30 6463 C 600.576 -1.25211 -1.04049 0
M  V30 6464 O 601.765 -1.51391 -0.945675 0
M  V30 6465 C 598.865 -2.92516 -1.71136 0
M  V30 6466 C 598.038 -4.17428 -1.30661 0
M  V30 6467 C 597.097 -4.69535 -2.37536 0
M  V30 6468 O 596.123 -5.33042 -1.99637 0
M  V30 6469 N 597.325 -4.47947 -3.6922 0
M  V30 6470 H 600.09 -2.9954 0.0978259 0
M  V30 6471 H 597.651 -1.60684 0.198068 0
M  V30 6472 H 599.643 -3.24281 -2.42124 0
M  V30 6473 H 598.213 -2.19944 -2.22134 0
M  V30 6474 H 597.433 -3.91888 -0.426292 0
M  V30 6475 H 598.721 -4.98622 -1.01259 0
M  V30 6476 H 598.119 -3.97219 -4.02783 0
M  V30 6477 H 596.676 -4.84245 -4.36292 0
M  V30 6478 N 600.109 -0.101901 -1.5727 0
M  V30 6479 C 601.52 0.426173 -1.81771 0
M  V30 6480 C 601.871 1.67725 -1.01797 0
M  V30 6481 O 600.996 2.14958 -0.249386 0
M  V30 6482 C 601.591 0.779962 -3.297 0
M  V30 6483 C 600.15 1.25275 -3.54941 0
M  V30 6484 C 599.297 0.252814 -2.76145 0
M  V30 6485 H 602.248 -0.32726 -1.55289 0
M  V30 6486 H 602.269 1.63891 -3.43395 0
M  V30 6487 H 601.781 -0.130778 -3.8788 0
M  V30 6488 H 599.882 2.18097 -3.021 0
M  V30 6489 H 599.995 1.20988 -4.63572 0
M  V30 6490 H 598.359 0.736362 -2.43823 0
M  V30 6491 H 599.142 -0.650724 -3.37076 0
M  V30 6492 N 601.587 1.56661 0.17182 0
M  V30 6493 C 602.497 1.99604 1.2327 0
M  V30 6494 C 603.513 0.907333 1.4847 0
M  V30 6495 O 604.689 1.21492 1.60629 0
M  V30 6496 C 601.754 2.34685 2.55194 0
M  V30 6497 C 600.815 3.57381 2.3786 0
M  V30 6498 C 600.048 3.90779 3.63494 0
M  V30 6499 O 600.271 3.25152 4.6865 0
M  V30 6500 O 599.205 4.84129 3.57634 0
M  V30 6501 H 603.031 2.90114 0.898192 0
M  V30 6502 H 600.616 1.44522 0.378647 0
M  V30 6503 H 602.498 2.5822 3.33017 0
M  V30 6504 H 601.173 1.47336 2.88225 0
M  V30 6505 H 600.08 3.39064 1.5807 0
M  V30 6506 H 601.413 4.45268 2.09754 0
M  V30 6507 N 603.065 -0.440357 1.51323 0
M  V30 6508 C 604.29 -1.21716 1.67928 0
M  V30 6509 C 604.715 -1.84328 0.374826 0
M  V30 6510 O 604.073 -1.68675 -0.664706 0
M  V30 6511 C 604.121 -2.27914 2.79442 0
M  V30 6512 O 603.225 -3.33325 2.42834 0
M  V30 6513 H 602.566 -0.35674 0.560029 0
M  V30 6514 H 605.096 -0.520417 1.97871 0
M  V30 6515 H 605.106 -2.72746 3.03436 0
M  V30 6516 H 603.781 -1.8172 3.741 0
M  V30 6517 H 602.358 -2.9399 2.294 0
M  V30 6518 N 604.543 -1.41418 -0.695603 0
M  V30 6519 C 605.789 -1.40982 -1.4578 0
M  V30 6520 C 606.122 -0.0187763 -1.94191 0
M  V30 6521 O 605.397 0.95346 -1.69527 0
M  V30 6522 C 605.68 -2.41657 -2.66972 0
M  V30 6523 C 605.533 -3.89869 -2.24327 0
M  V30 6524 C 606.852 -2.39589 -3.69168 0
M  V30 6525 H 603.971 -0.513405 -0.528757 0
M  V30 6526 H 606.613 -1.72693 -0.792275 0
M  V30 6527 H 604.763 -2.14746 -3.23754 0
M  V30 6528 H 606.435 -4.27683 -1.72872 0
M  V30 6529 H 604.678 -4.04737 -1.56111 0
M  V30 6530 H 605.349 -4.55857 -3.11285 0
M  V30 6531 H 607.825 -2.63471 -3.2206 0
M  V30 6532 H 606.701 -3.12044 -4.51575 0
M  V30 6533 H 606.962 -1.41447 -4.18862 0
M  V30 6534 N 606.021 0.929856 -1.27246 0
M  V30 6535 C 607.246 1.71674 -1.16374 0
M  V30 6536 C 607.671 1.86064 0.276024 0
M  V30 6537 O 607.029 1.3591 1.19992 0
M  V30 6538 C 607.077 3.09526 -1.85003 0
M  V30 6539 O 606.181 3.96142 -1.14653 0
M  V30 6540 H 605.522 0.52629 -0.404863 0
M  V30 6541 H 608.052 1.16381 -1.68276 0
M  V30 6542 H 608.062 3.59852 -1.92276 0
M  V30 6543 H 606.737 2.98369 -2.89739 0
M  V30 6544 H 605.314 3.54584 -1.15433 0
M  V30 6545 N 607.499 1.09233 1.13605 0
M  V30 6546 C 608.739 0.836786 1.86487 0
M  V30 6547 C 609.103 -0.626191 1.81502 0
M  V30 6548 O 610.304 -0.99758 2.49603 0
M  V30 6549 C 608.575 1.35476 3.30728 0
M  V30 6550 S 610.134 1.2328 4.21126 0
M  V30 6551 H 606.952 0.302702 0.643345 0
M  V30 6552 H 609.554 1.3953 1.36936 0
M  V30 6553 H 608.258 2.41381 3.31909 0
M  V30 6554 H 607.789 0.792286 3.85339 0
M  V30 6555 H 609.804 0.182468 4.95864 0
M  V30 6556 N 608.977 -1.30795 0.87923 0
M  V30 6557 C 610.226 -1.95636 0.490875 0
M  V30 6558 C 610.539 -1.70214 -0.963674 0
M  V30 6559 O 611.745 -2.28991 -1.45861 0
M  V30 6560 C 610.201 -3.50271 0.826929 0
M  V30 6561 C 609.809 -3.84521 2.29886 0
M  V30 6562 C 611.553 -4.21456 0.507494 0
M  V30 6563 C 609.46 -5.32309 2.57685 0
M  V30 6564 H 608.39 -0.732238 0.179841 0
M  V30 6565 H 611.041 -1.48829 1.07341 0
M  V30 6566 H 609.423 -3.9562 0.173542 0
M  V30 6567 H 610.597 -3.50102 2.99609 0
M  V30 6568 H 608.912 -3.26425 2.58526 0
M  V30 6569 H 611.509 -5.30199 0.692293 0
M  V30 6570 H 611.852 -4.12614 -0.552718 0
M  V30 6571 H 612.385 -3.81772 1.11782 0
M  V30 6572 H 609.124 -5.46195 3.62424 0
M  V30 6573 H 608.644 -5.68048 1.92566 0
M  V30 6574 H 610.323 -5.99678 2.42889 0
M  V30 6575 N 610.455 -0.639598 -1.44038 0
M  V30 6576 C 611.385 0.0469443 -2.33453 0
M  V30 6577 C 612.366 0.82609 -1.48694 0
M  V30 6578 O 613.551 0.790285 -1.77393 0
M  V30 6579 C 610.681 1.02338 -3.3188 0
M  V30 6580 C 609.635 0.355284 -4.26523 0
M  V30 6581 C 608.961 1.44221 -5.14883 0
M  V30 6582 C 610.261 -0.743798 -5.16977 0
M  V30 6583 H 611.955 -0.699735 -2.91108 0
M  V30 6584 H 609.501 -0.337946 -1.39978 0
M  V30 6585 H 611.454 1.51247 -3.93322 0
M  V30 6586 H 610.178 1.80105 -2.72451 0
M  V30 6587 H 608.837 -0.113239 -3.66425 0
M  V30 6588 H 608.485 2.21097 -4.51802 0
M  V30 6589 H 608.185 1.00052 -5.79019 0
M  V30 6590 H 609.709 1.93295 -5.79197 0
M  V30 6591 H 611.123 -0.337444 -5.72306 0
M  V30 6592 H 609.52 -1.10914 -5.89761 0
M  V30 6593 H 610.59 -1.60745 -4.57481 0
M  V30 6594 N 611.933 1.52934 -0.380664 0
M  V30 6595 C 612.865 2.23822 0.493581 0
M  V30 6596 C 613.878 1.25761 1.03383 0
M  V30 6597 O 615.067 1.5189 0.937633 0
M  V30 6598 C 612.167 2.9342 1.69582 0
M  V30 6599 C 611.34 4.18115 1.28445 0
M  V30 6600 C 610.399 4.70788 2.35042 0
M  V30 6601 O 609.425 5.34093 1.96807 0
M  V30 6602 N 610.627 4.49899 3.66839 0
M  V30 6603 H 613.392 2.99484 -0.11371 0
M  V30 6604 H 610.953 1.60577 -0.206587 0
M  V30 6605 H 612.945 3.2556 2.40401 0
M  V30 6606 H 611.515 2.21119 2.20965 0
M  V30 6607 H 610.735 3.92109 0.405503 0
M  V30 6608 H 612.023 4.99152 0.986132 0
M  V30 6609 H 611.421 3.99349 4.0067 0
M  V30 6610 H 609.978 4.86551 4.33718 0
M  V30 6611 N 613.412 0.11024 1.57214 0
M  V30 6612 C 614.322 -0.857077 2.18383 0
M  V30 6613 C 615.338 -1.29915 1.1575 0
M  V30 6614 O 616.514 -1.36394 1.48184 0
M  V30 6615 C 613.579 -2.09264 2.76423 0
M  V30 6616 C 612.64 -1.70333 3.94063 0
M  V30 6617 C 611.873 -2.87999 4.49324 0
M  V30 6618 O 612.096 -4.0317 4.03497 0
M  V30 6619 O 611.03 -2.6559 5.40135 0
M  V30 6620 H 614.856 -0.366561 3.0148 0
M  V30 6621 H 612.441 -0.114914 1.48957 0
M  V30 6622 H 614.323 -2.81644 3.13456 0
M  V30 6623 H 612.998 -2.57339 1.96363 0
M  V30 6624 H 611.905 -0.950864 3.61814 0
M  V30 6625 H 613.238 -1.27007 4.75531 0
M  V30 6626 N 614.89 -1.56749 -0.16351 0
M  V30 6627 C 616.301 -1.72039 -0.725216 0
M  V30 6628 C 616.652 -0.72202 -1.82432 0
M  V30 6629 O 615.777 0.114942 -2.16095 0
M  V30 6630 C 616.372 -3.11932 -1.32227 0
M  V30 6631 C 614.931 -3.28879 -1.83072 0
M  V30 6632 C 614.078 -2.67984 -0.712716 0
M  V30 6633 H 617.029 -1.58579 0.0619772 0
M  V30 6634 H 617.05 -3.11015 -2.19202 0
M  V30 6635 H 616.562 -3.84572 -0.522103 0
M  V30 6636 H 614.663 -2.61209 -2.65708 0
M  V30 6637 H 614.776 -4.36688 -1.97079 0
M  V30 6638 H 613.14 -2.28005 -1.13515 0
M  V30 6639 H 613.923 -3.43216 0.0757361 0
M  V30 6640 N 616.368 0.432326 -1.51554 0
M  V30 6641 C 617.315 1.52512 -1.7323 0
M  V30 6642 C 618.285 1.55863 -0.5741 0
M  V30 6643 O 619.47 1.72796 -0.809093 0
M  V30 6644 C 616.61 2.90183 -1.86783 0
M  V30 6645 C 615.723 2.96322 -3.14352 0
M  V30 6646 C 614.858 4.25147 -3.18471 0
M  V30 6647 C 613.897 4.25172 -4.40335 0
M  V30 6648 N 613.034 5.45529 -4.41975 0
M  V30 6649 H 617.874 1.33332 -2.66508 0
M  V30 6650 H 615.411 0.647613 -1.32077 0
M  V30 6651 H 617.369 3.70071 -1.92623 0
M  V30 6652 H 615.999 3.0791 -0.969087 0
M  V30 6653 H 615.051 2.09066 -3.17798 0
M  V30 6654 H 616.363 2.92203 -4.04251 0
M  V30 6655 H 615.517 5.13411 -3.23255 0
M  V30 6656 H 614.256 4.31929 -2.2647 0
M  V30 6657 H 613.261 3.353 -4.35723 0
M  V30 6658 H 614.486 4.20049 -5.33606 0
M  V30 6659 H 612.432 5.53024 -3.52847 0
M  V30 6660 H 612.349 5.43311 -5.25689 0
M  V30 6661 H 613.617 6.35812 -4.50958 0
M  V30 6662 N 617.846 1.41785 0.688094 0
M  V30 6663 C 619.262 1.24419 0.999608 0
M  V30 6664 C 619.462 0.138868 2.01021 0
M  V30 6665 O 618.518 -0.494283 2.47615 0
M  V30 6666 C 619.831 2.59625 1.51709 0
M  V30 6667 C 621.379 2.66869 1.63554 0
M  V30 6668 C 621.854 4.0241 2.18702 0
M  V30 6669 N 623.345 4.04295 2.26053 0
M  V30 6670 C 624.08 5.05977 2.69768 0
M  V30 6671 N 623.576 6.18047 3.13033 0
M  V30 6672 N 625.369 4.93336 2.69398 0
M  V30 6673 H 617.52 2.12392 0.0187427 0
M  V30 6674 H 619.783 0.945347 0.0708673 0
M  V30 6675 H 619.489 3.41297 0.849059 0
M  V30 6676 H 619.363 2.82628 2.49803 0
M  V30 6677 H 621.75 1.8555 2.29467 0
M  V30 6678 H 621.831 2.47668 0.639857 0
M  V30 6679 H 621.475 4.8418 1.53402 0
M  V30 6680 H 621.405 4.18955 3.19037 0
M  V30 6681 H 623.896 3.23383 1.9553 0
M  V30 6682 H 624.209 6.91498 3.45038 0
M  V30 6683 H 622.554 6.21572 3.10923 0
M  V30 6684 H 625.745 4.04865 2.34952 0
M  V30 6685 H 625.918 5.72717 3.03148 0
M  V30 6686 N 619.324 -0.923095 1.27737 0
M  V30 6687 C 620.272 -2.04567 1.10703 0
M  V30 6688 C 621.266 -1.69375 0.0288445 0
M  V30 6689 O 622.472 -1.79027 0.186913 0
M  V30 6690 H 618.847 -0.670109 0.34126 0
M  V30 6691 H 620.818 -2.1608 2.05796 0
M  V30 6692 C 619.567 -3.38934 0.775837 0
M  V30 6693 H 618.89 -3.66501 1.59741 0
M  V30 6694 H 620.33 -4.18239 0.696548 0
M  V30 6695 C 618.789 -3.32863 -0.520012 0
M  V30 6696 O 619.319 -3.70462 -1.55308 0
M  V30 6697 N 617.525 -2.85958 -0.51732 0
M  V30 6698 H 617.072 -2.55557 0.32379 0
M  V30 6699 H 617.03 -2.82279 -1.38441 0
M  V30 6700 N 620.802 -1.09834 -1.13024 0
M  V30 6701 C 621.732 -0.763451 -2.20666 0
M  V30 6702 C 622.713 0.260778 -1.68089 0
M  V30 6703 O 623.898 0.127915 -1.93778 0
M  V30 6704 C 621.028 -0.187744 -3.46792 0
M  V30 6705 C 619.982 -1.14196 -4.12484 0
M  V30 6706 C 619.308 -0.427755 -5.32986 0
M  V30 6707 C 620.608 -2.48607 -4.59338 0
M  V30 6708 H 622.302 -1.66347 -2.48936 0
M  V30 6709 H 619.848 -0.801261 -1.19649 0
M  V30 6710 H 621.801 0.0586375 -4.21359 0
M  V30 6711 H 620.525 0.747485 -3.17931 0
M  V30 6712 H 619.184 -1.37369 -3.3989 0
M  V30 6713 H 618.832 0.511747 -5.0039 0
M  V30 6714 H 618.532 -1.06403 -5.77886 0
M  V30 6715 H 620.056 -0.189772 -6.10305 0
M  V30 6716 H 621.47 -2.29618 -5.25308 0
M  V30 6717 H 619.867 -3.08062 -5.14993 0
M  V30 6718 H 620.937 -3.09062 -3.73642 0
M  V30 6719 N 622.28 1.30327 -0.886154 0
M  V30 6720 C 623.243 2.26376 -0.358687 0
M  V30 6721 C 624.243 1.52845 0.499498 0
M  V30 6722 O 625.433 1.71483 0.306485 0
M  V30 6723 C 622.565 3.37379 0.488726 0
M  V30 6724 H 623.758 2.74547 -1.20681 0
M  V30 6725 H 621.311 1.41536 -0.663113 0
M  V30 6726 H 622.046 2.94526 1.35739 0
M  V30 6727 H 621.831 3.91897 -0.126003 0
M  V30 6728 H 623.321 4.08868 0.84952 0
M  V30 6729 N 623.758 0.647228 1.43697 0
M  V30 6730 C 625.005 0.158188 2.01881 0
M  V30 6731 C 625.333 -1.22573 1.51017 0
M  V30 6732 O 624.588 -1.83086 0.69122 0
M  V30 6733 C 624.887 0.111481 3.57226 0
M  V30 6734 C 624.553 1.43633 4.27411 0
M  V30 6735 C 623.215 1.79915 4.463 0
M  V30 6736 C 625.567 2.31011 4.67208 0
M  V30 6737 C 622.895 3.03251 5.02251 0
M  V30 6738 C 625.247 3.53633 5.24525 0
M  V30 6739 C 623.911 3.90118 5.41631 0
M  V30 6740 H 623.181 0.0578851 0.738736 0
M  V30 6741 H 625.828 0.836746 1.72252 0
M  V30 6742 H 624.133 -0.650507 3.86362 0
M  V30 6743 H 625.83 -0.283682 3.99995 0
M  V30 6744 H 622.42 1.14403 4.1305 0
M  V30 6745 H 626.604 2.04272 4.52313 0
M  V30 6746 H 621.86 3.31575 5.13681 0
M  V30 6747 H 626.034 4.21561 5.5431 0
M  V30 6748 H 623.661 4.85768 5.84751 0
M  V30 6749 N 625.236 -1.5273 0.388769 0
M  V30 6750 C 626.483 -2.01573 -0.19359 0
M  V30 6751 C 626.811 -1.27525 -1.46859 0
M  V30 6752 O 626.066 -0.363926 -1.92286 0
M  V30 6753 C 626.365 -3.53765 -0.508445 0
M  V30 6754 C 626.031 -4.4582 0.674947 0
M  V30 6755 C 624.693 -4.70703 0.999596 0
M  V30 6756 C 627.045 -5.00138 1.46666 0
M  V30 6757 C 624.373 -5.47155 2.11751 0
M  V30 6758 C 626.725 -5.77812 2.57518 0
M  V30 6759 C 625.389 -6.00975 2.90492 0
M  V30 6760 H 624.659 -0.737606 -0.0708397 0
M  V30 6761 H 627.306 -1.84134 0.526006 0
M  V30 6762 H 625.611 -3.69274 -1.30936 0
M  V30 6763 H 627.308 -3.8905 -0.971664 0
M  V30 6764 H 623.898 -4.26616 0.411906 0
M  V30 6765 H 628.082 -4.8084 1.22909 0
M  V30 6766 H 623.338 -5.63314 2.3767 0
M  V30 6767 H 627.512 -6.18904 3.19267 0
M  V30 6768 H 625.139 -6.59998 3.77236 0
M  V30 6769 N 626.714 -0.118576 -1.57153 0
M  V30 6770 C 627.646 0.862247 -2.12363 0
M  V30 6771 C 628.659 1.23025 -1.06625 0
M  V30 6772 O 629.848 1.17927 -1.33998 0
M  V30 6773 C 626.948 2.16425 -2.60794 0
M  V30 6774 C 626.121 1.96801 -3.90626 0
M  V30 6775 C 625.18 3.10726 -4.2466 0
M  V30 6776 O 624.206 2.83659 -4.93484 0
M  V30 6777 N 625.408 4.37147 -3.81946 0
M  V30 6778 H 628.173 0.390564 -2.97144 0
M  V30 6779 H 625.734 0.0658591 -1.61766 0
M  V30 6780 H 627.726 2.91633 -2.80593 0
M  V30 6781 H 626.296 2.54943 -1.80895 0
M  V30 6782 H 625.516 1.05787 -3.7974 0
M  V30 6783 H 626.804 1.80993 -4.7552 0
M  V30 6784 H 626.202 4.62014 -3.26435 0
M  V30 6785 H 624.759 5.09229 -4.06853 0
M  V30 6786 N 628.193 1.56834 0.155195 0
M  V30 6787 C 629.123 2.00678 1.19376 0
M  V30 6788 C 630.104 0.884973 1.45266 0
M  V30 6789 O 631.289 1.1522 1.56326 0
M  V30 6790 C 628.419 2.38042 2.5289 0
M  V30 6791 C 627.373 3.53332 2.41538 0
M  V30 6792 C 626.699 3.76485 3.79688 0
M  V30 6793 C 627.999 4.86265 1.9064 0
M  V30 6794 H 629.693 2.87688 0.829232 0
M  V30 6795 H 627.239 1.38407 0.397445 0
M  V30 6796 H 629.192 2.67314 3.25763 0
M  V30 6797 H 627.916 1.4796 2.91162 0
M  V30 6798 H 626.575 3.24213 1.71117 0
M  V30 6799 H 626.223 2.83667 4.15382 0
M  V30 6800 H 625.923 4.54068 3.72956 0
M  V30 6801 H 627.447 4.08174 4.54122 0
M  V30 6802 H 628.861 5.14308 2.53299 0
M  V30 6803 H 627.258 5.67597 1.94818 0
M  V30 6804 H 628.328 4.77184 0.861596 0
M  V30 6805 N 629.671 -0.424282 1.51781 0
M  V30 6806 C 631.087 -0.761768 1.40247 0
M  V30 6807 C 631.287 -1.95324 0.495041 0
M  V30 6808 O 630.343 -2.5246 -0.0448949 0
M  V30 6809 C 631.656 -1.0299 2.82513 0
M  V30 6810 C 633.204 -1.13354 2.91753 0
M  V30 6811 C 633.679 -1.43453 4.34954 0
M  V30 6812 N 635.17 -1.5035 4.3812 0
M  V30 6813 C 635.905 -1.75236 5.45967 0
M  V30 6814 N 635.401 -1.97827 6.63955 0
M  V30 6815 N 637.194 -1.77126 5.33463 0
M  V30 6816 H 629.345 0.360228 2.09323 0
M  V30 6817 H 631.608 0.0988128 0.942836 0
M  V30 6818 H 631.314 -0.226961 3.50967 0
M  V30 6819 H 631.188 -1.95411 3.22637 0
M  V30 6820 H 633.575 -1.92709 2.23489 0
M  V30 6821 H 633.656 -0.188041 2.55108 0
M  V30 6822 H 633.3 -0.646209 5.03772 0
M  V30 6823 H 633.23 -2.3923 4.69123 0
M  V30 6824 H 635.721 -1.34742 3.53062 0
M  V30 6825 H 636.034 -2.16223 7.41935 0
M  V30 6826 H 634.379 -1.95123 6.67047 0
M  V30 6827 H 637.57 -1.59005 4.40267 0
M  V30 6828 H 637.743 -1.96182 6.17589 0
M  V30 6829 N 631.149 -1.42148 -0.680565 0
M  V30 6830 C 632.096 -1.45175 -1.79424 0
M  V30 6831 C 633.066 -0.304352 -1.63288 0
M  V30 6832 O 634.251 -0.507591 -1.83924 0
M  V30 6833 C 631.391 -1.35429 -3.17416 0
M  V30 6834 C 630.504 -2.60158 -3.4488 0
M  V30 6835 C 629.639 -2.42596 -4.72568 0
M  V30 6836 C 628.678 -3.62727 -4.93047 0
M  V30 6837 N 627.815 -3.44143 -6.11973 0
M  V30 6838 H 632.655 -2.40349 -1.76172 0
M  V30 6839 H 630.192 -1.19334 -0.860107 0
M  V30 6840 H 632.15 -1.27777 -3.97151 0
M  V30 6841 H 630.78 -0.438536 -3.19807 0
M  V30 6842 H 629.832 -2.78199 -2.5944 0
M  V30 6843 H 631.144 -3.49473 -3.55908 0
M  V30 6844 H 630.298 -2.32497 -5.60384 0
M  V30 6845 H 629.037 -1.50761 -4.63813 0
M  V30 6846 H 628.042 -3.73264 -4.03676 0
M  V30 6847 H 629.267 -4.55534 -5.03652 0
M  V30 6848 H 627.213 -2.5502 -6.04401 0
M  V30 6849 H 627.13 -4.27041 -6.23836 0
M  V30 6850 H 628.398 -3.37845 -7.02482 0
M  V30 6851 N 632.627 0.916307 -1.28225 0
M  V30 6852 C 633.873 1.66765 -1.154 0
M  V30 6853 C 634.206 1.91912 0.297251 0
M  V30 6854 O 633.481 1.51766 1.21644 0
M  V30 6855 C 633.764 3.02715 -1.95028 0
M  V30 6856 C 633.617 2.84738 -3.48201 0
M  V30 6857 C 634.936 4.03215 -1.76369 0
M  V30 6858 H 632.055 0.605205 -0.42059 0
M  V30 6859 H 634.697 1.06255 -1.57512 0
M  V30 6860 H 632.847 3.54365 -1.59242 0
M  V30 6861 H 634.519 2.40118 -3.9388 0
M  V30 6862 H 632.762 2.19848 -3.73964 0
M  V30 6863 H 633.433 3.8127 -3.99171 0
M  V30 6864 H 635.909 3.60617 -2.07593 0
M  V30 6865 H 634.785 4.96306 -2.34459 0
M  V30 6866 H 635.046 4.36288 -0.71452 0
M  V30 6867 N 634.105 1.10431 1.1244 0
M  V30 6868 C 635.351 0.857864 1.84424 0
M  V30 6869 C 635.706 -0.609995 1.82474 0
M  V30 6870 O 634.999 -1.44401 1.25932 0
M  V30 6871 C 635.193 1.34022 3.3132 0
M  V30 6872 C 635.022 2.85344 3.47576 0
M  V30 6873 C 633.792 3.53345 3.61213 0
M  V30 6874 C 635.99 3.83446 3.42744 0
M  V30 6875 N 633.972 4.92989 3.65834 0
M  V30 6876 C 635.343 5.09101 3.5386 0
M  V30 6877 C 637.398 3.76154 3.26209 0
M  V30 6878 C 636.101 6.28323 3.50146 0
M  V30 6879 C 638.127 4.94876 3.23809 0
M  V30 6880 C 637.489 6.19378 3.35485 0
M  V30 6881 H 633.588 0.366917 0.690577 0
M  V30 6882 H 636.172 1.40668 1.34613 0
M  V30 6883 H 634.343 0.818727 3.79673 0
M  V30 6884 H 636.075 1.03801 3.91162 0
M  V30 6885 H 632.83 3.03791 3.63329 0
M  V30 6886 H 633.254 5.65762 3.71809 0
M  V30 6887 H 637.896 2.80813 3.16076 0
M  V30 6888 H 635.614 7.23953 3.5905 0
M  V30 6889 H 639.2 4.90942 3.12197 0
M  V30 6890 H 638.08 7.09704 3.33602 0
M  V30 6891 N 635.583 -1.29855 0.893053 0
M  V30 6892 C 636.831 -1.9544 0.514566 0
M  V30 6893 C 637.152 -1.70795 -0.940959 0
M  V30 6894 O 636.422 -1.03601 -1.66264 0
M  V30 6895 H 635.002 -0.723137 0.187302 0
M  V30 6896 H 637.664 -1.58234 1.13789 0
M  V30 6897 H 636.76 -3.04341 0.691581 0
M  V30 6898 N 637.061 -0.65484 -1.43351 0
M  V30 6899 C 637.993 0.0744757 -2.29079 0
M  V30 6900 C 639.006 0.7855 -1.42596 0
M  V30 6901 O 640.195 0.642986 -1.66517 0
M  V30 6902 C 637.295 1.12859 -3.19556 0
M  V30 6903 C 636.468 0.495381 -4.34586 0
M  V30 6904 C 635.527 1.44659 -5.05925 0
M  V30 6905 O 634.553 0.954567 -5.61139 0
M  V30 6906 N 635.755 2.78051 -5.09576 0
M  V30 6907 H 638.52 -0.661346 -2.92312 0
M  V30 6908 H 636.081 -0.497744 -1.54059 0
M  V30 6909 H 638.073 1.76577 -3.64147 0
M  V30 6910 H 636.643 1.76636 -2.57912 0
M  V30 6911 H 635.863 -0.32092 -3.92892 0
M  V30 6912 H 637.151 0.0534203 -5.08772 0
M  V30 6913 H 636.549 3.20584 -4.66093 0
M  V30 6914 H 635.106 3.37068 -5.57878 0
M  V30 6915 N 638.539 1.52521 -0.396863 0
M  V30 6916 C 639.785 2.01971 0.183169 0
M  V30 6917 C 640.118 1.2825 1.45827 0
M  V30 6918 O 639.393 0.385179 1.90648 0
M  V30 6919 C 639.676 3.5736 0.443391 0
M  V30 6920 C 639.529 4.41743 -0.84753 0
M  V30 6921 C 640.848 4.22539 1.2308 0
M  V30 6922 H 637.967 0.734119 0.0650976 0
M  V30 6923 H 640.609 1.82519 -0.527918 0
M  V30 6924 H 638.759 3.74066 1.04914 0
M  V30 6925 H 640.431 4.36773 -1.48414 0
M  V30 6926 H 638.674 4.0845 -1.4612 0
M  V30 6927 H 639.345 5.48507 -0.620003 0
M  V30 6928 H 641.821 4.09857 0.718084 0
M  V30 6929 H 640.697 5.31227 1.38162 0
M  V30 6930 H 640.958 3.80675 2.24808 0
M  V30 6931 N 640.017 0.126909 1.57088 0
M  V30 6932 C 641.263 -0.523662 1.96543 0
M  V30 6933 C 641.618 -1.63783 1.0096 0
M  V30 6934 O 640.911 -1.91556 0.0410175 0
M  V30 6935 C 641.105 -1.095 3.40212 0
M  V30 6936 C 640.934 -0.037715 4.49684 0
M  V30 6937 C 639.704 0.396823 5.03739 0
M  V30 6938 C 641.902 0.746245 5.08857 0
M  V30 6939 N 639.884 1.43905 5.96795 0
M  V30 6940 C 641.255 1.63947 5.97931 0
M  V30 6941 C 643.31 0.796259 4.91492 0
M  V30 6942 C 642.013 2.57837 6.715 0
M  V30 6943 C 644.039 1.7229 5.65747 0
M  V30 6944 C 643.401 2.60369 6.54513 0
M  V30 6945 H 639.5 -0.161016 0.765244 0
M  V30 6946 H 642.084 0.21686 1.93489 0
M  V30 6947 H 640.255 -1.80521 3.43899 0
M  V30 6948 H 641.987 -1.71054 3.66773 0
M  V30 6949 H 638.742 0.00290406 4.736 0
M  V30 6950 H 639.166 1.95932 6.48027 0
M  V30 6951 H 643.808 0.129412 4.22602 0
M  V30 6952 H 641.526 3.25532 7.39631 0
M  V30 6953 H 645.112 1.76715 5.54313 0
M  V30 6954 H 643.992 3.30906 7.10965 0
M  V30 6955 N 641.495 -1.56914 -0.146875 0
M  V30 6956 C 642.445 -1.94693 -1.18653 0
M  V30 6957 C 643.429 -0.81821 -1.38543 0
M  V30 6958 O 644.621 -1.08167 -1.40103 0
M  V30 6959 C 641.75 -2.33117 -2.52014 0
M  V30 6960 C 640.836 -3.5256 -2.35717 0
M  V30 6961 N 641.227 -4.69091 -1.89175 0
M  V30 6962 C 639.525 -3.57647 -2.66467 0
M  V30 6963 C 640.226 -5.51187 -1.85924 0
M  V30 6964 N 639.202 -4.92899 -2.29242 0
M  V30 6965 H 643.004 -2.82264 -0.81879 0
M  V30 6966 H 640.518 -1.58474 -0.354929 0
M  V30 6967 H 642.515 -2.58387 -3.27172 0
M  V30 6968 H 641.175 -1.46898 -2.89571 0
M  V30 6969 H 642.186 -4.92844 -1.59139 0
M  V30 6970 H 638.863 -2.81967 -3.07898 0
M  V30 6971 H 640.253 -6.54613 -1.51431 0
M  V30 6972 N 642.974 0.416227 -1.52004 0
M  V30 6973 C 644.199 1.19029 -1.69843 0
M  V30 6974 C 644.624 1.83708 -0.404103 0
M  V30 6975 O 643.982 1.69711 0.637787 0
M  V30 6976 C 644.03 2.23439 -2.83032 0
M  V30 6977 O 643.134 3.29419 -2.48106 0
M  V30 6978 H 642.475 0.347785 -0.565634 0
M  V30 6979 H 645.005 0.488871 -1.98674 0
M  V30 6980 H 645.015 2.67884 -3.07737 0
M  V30 6981 H 643.69 1.75745 -3.76944 0
M  V30 6982 H 642.267 2.90303 -2.34048 0
M  V30 6983 N 644.452 1.42507 0.673017 0
M  V30 6984 C 645.701 1.42364 1.42883 0
M  V30 6985 C 646.014 0.0441598 1.9555 0
M  V30 6986 O 647.22 -0.0798679 2.71382 0
M  V30 6987 C 645.676 2.5043 2.58482 0
M  V30 6988 C 645.284 3.94392 2.12506 0
M  V30 6989 C 647.028 2.59455 3.35981 0
M  V30 6990 C 644.935 4.93964 3.25198 0
M  V30 6991 H 643.865 0.52951 0.536782 0
M  V30 6992 H 646.516 1.68422 0.728448 0
M  V30 6993 H 644.898 2.1754 3.30896 0
M  V30 6994 H 646.072 4.36645 1.47233 0
M  V30 6995 H 644.387 3.89233 1.4794 0
M  V30 6996 H 646.984 3.31025 4.19912 0
M  V30 6997 H 647.327 1.63869 3.82691 0
M  V30 6998 H 647.86 2.91549 2.70637 0
M  V30 6999 H 644.599 5.91034 2.83477 0
M  V30 7000 H 644.119 4.56341 3.89247 0
M  V30 7001 H 645.798 5.15763 3.90637 0
M  V30 7002 N 645.93 -0.909495 1.28709 0
M  V30 7003 C 646.862 -2.01729 1.08804 0
M  V30 7004 C 647.875 -1.62755 0.0384739 0
M  V30 7005 O 649.064 -1.76259 0.281977 0
M  V30 7006 C 646.164 -3.32952 0.63217 0
M  V30 7007 C 645.337 -4.00512 1.75809 0
M  V30 7008 C 644.396 -5.10019 1.29488 0
M  V30 7009 O 643.422 -5.32986 1.99787 0
M  V30 7010 N 644.624 -5.80278 0.1604 0
M  V30 7011 H 647.389 -2.19362 2.04207 0
M  V30 7012 H 644.95 -1.08106 1.20518 0
M  V30 7013 H 646.942 -4.03543 0.305802 0
M  V30 7014 H 645.512 -3.11759 -0.229134 0
M  V30 7015 H 644.732 -3.23413 2.25383 0
M  V30 7016 H 646.02 -4.42395 2.51325 0
M  V30 7017 H 645.418 -5.64094 -0.425937 0
M  V30 7018 H 643.975 -6.51713 -0.106663 0
M  V30 7019 N 647.408 -1.11026 -1.11852 0
M  V30 7020 C 648.636 -0.878818 -1.87308 0
M  V30 7021 C 649.051 0.57111 -1.79955 0
M  V30 7022 O 648.408 1.39409 -1.17777 0
M  V30 7023 C 648.459 -1.3264 -3.36287 0
M  V30 7024 O 648.18 -2.71948 -3.43476 0
M  V30 7025 C 649.681 -1.12974 -4.28663 0
M  V30 7026 H 646.901 -0.315015 -0.592458 0
M  V30 7027 H 649.445 -1.47649 -1.41492 0
M  V30 7028 H 647.6 -0.772269 -3.79625 0
M  V30 7029 H 648.014 -2.91241 -4.3621 0
M  V30 7030 H 649.488 -1.49198 -5.31454 0
M  V30 7031 H 649.965 -0.0689127 -4.39146 0
M  V30 7032 H 650.571 -1.67064 -3.91113 0
M  V30 7033 N 648.886 1.2938 -0.899927 0
M  V30 7034 C 649.816 2.30144 -0.39446 0
M  V30 7035 C 650.797 1.61611 0.530639 0
M  V30 7036 O 651.982 1.89119 0.441319 0
M  V30 7037 C 649.112 3.45229 0.37868 0
M  V30 7038 C 648.066 4.25564 -0.456012 0
M  V30 7039 C 647.392 5.32848 0.444637 0
M  V30 7040 C 648.692 4.93651 -1.70605 0
M  V30 7041 H 650.386 2.72673 -1.23653 0
M  V30 7042 H 647.932 1.31086 -0.596034 0
M  V30 7043 H 649.885 4.14797 0.743037 0
M  V30 7044 H 648.609 3.01545 1.25453 0
M  V30 7045 H 647.268 3.57704 -0.802704 0
M  V30 7046 H 646.916 4.85408 1.31863 0
M  V30 7047 H 646.616 5.87497 -0.110154 0
M  V30 7048 H 648.14 6.05268 0.805182 0
M  V30 7049 H 649.554 5.55655 -1.41141 0
M  V30 7050 H 647.951 5.58233 -2.20217 0
M  V30 7051 H 649.021 4.18926 -2.4419 0
M  V30 7052 N 650.364 0.662433 1.43002 0
M  V30 7053 C 651.311 -0.0235324 2.30788 0
M  V30 7054 C 652.281 -0.805342 1.4527 0
M  V30 7055 O 653.466 -0.78009 1.74124 0
M  V30 7056 C 650.606 -0.977545 3.30965 0
M  V30 7057 C 649.719 -0.190865 4.31578 0
M  V30 7058 C 648.854 -1.13951 5.18834 0
M  V30 7059 C 647.893 -0.343796 6.11134 0
M  V30 7060 N 647.03 -1.2445 6.90982 0
M  V30 7061 H 651.87 0.730921 2.88897 0
M  V30 7062 H 649.407 0.372197 1.42313 0
M  V30 7063 H 651.365 -1.54437 3.87563 0
M  V30 7064 H 649.995 -1.69877 2.74484 0
M  V30 7065 H 649.047 0.492388 3.772 0
M  V30 7066 H 650.359 0.427464 4.96965 0
M  V30 7067 H 649.513 -1.77666 5.80103 0
M  V30 7068 H 648.252 -1.79174 4.53595 0
M  V30 7069 H 647.257 0.30665 5.48944 0
M  V30 7070 H 648.482 0.304161 6.78419 0
M  V30 7071 H 646.428 -1.88336 6.28383 0
M  V30 7072 H 646.345 -0.680959 7.52927 0
M  V30 7073 H 647.613 -1.86952 7.56749 0
M  V30 7074 N 651.842 -1.52309 0.404946 0
M  V30 7075 C 652.752 -2.30634 -0.429555 0
M  V30 7076 C 653.768 -1.38187 -1.05737 0
M  V30 7077 O 654.944 -1.71261 -1.05979 0
M  V30 7078 C 652.009 -3.10947 -1.53339 0
M  V30 7079 C 651.07 -4.19126 -0.929065 0
M  V30 7080 C 650.303 -4.95601 -1.9803 0
M  V30 7081 O 650.526 -4.72331 -3.1978 0
M  V30 7082 O 649.46 -5.80551 -1.58886 0
M  V30 7083 H 653.286 -3.0298 0.208963 0
M  V30 7084 H 650.871 -1.4845 0.168255 0
M  V30 7085 H 652.753 -3.60974 -2.1743 0
M  V30 7086 H 651.428 -2.41399 -2.15658 0
M  V30 7087 H 650.335 -3.73257 -0.250982 0
M  V30 7088 H 651.668 -4.90955 -0.349855 0
M  V30 7089 N 653.32 -0.135238 -1.57019 0
M  V30 7090 C 654.597 0.563227 -1.87316 0
M  V30 7091 C 654.977 1.83749 -1.03921 0
M  V30 7092 O 654.325 2.2817 -0.122675 0
M  V30 7093 C 654.535 0.840031 -3.3874 0
M  V30 7094 C 655.883 1.18598 -4.077 0
M  V30 7095 O 656.907 0.92977 -3.43851 0
M  V30 7096 O 655.766 1.66758 -5.20436 0
M  V30 7097 H 652.86 0.285971 -0.775983 0
M  V30 7098 H 655.406 -0.170965 -1.68837 0
M  V30 7099 H 654.178 -0.0622785 -3.9125 0
M  V30 7100 H 653.801 1.62882 -3.62706 0
M  V30 7101 N 654.798 1.5699 0.138552 0
M  V30 7102 C 656.038 1.85619 0.855849 0
M  V30 7103 C 656.402 0.720663 1.77962 0
M  V30 7104 O 657.603 0.888221 2.53701 0
M  V30 7105 C 655.874 3.19447 1.60275 0
M  V30 7106 S 657.433 3.69656 2.36431 0
M  V30 7107 H 654.251 0.650926 0.286035 0
M  V30 7108 H 656.853 1.9516 0.115331 0
M  V30 7109 H 655.557 4.00053 0.915737 0
M  V30 7110 H 655.088 3.12935 2.38402 0
M  V30 7111 H 657.103 3.39595 3.61787 0
M  V30 7112 N 656.276 -0.40816 1.52223 0
M  V30 7113 C 657.224 -1.51788 1.76248 0
M  V30 7114 C 658.218 -1.57264 0.629638 0
M  V30 7115 O 659.424 -1.60659 0.811704 0
M  V30 7116 H 655.799 -0.504823 0.557367 0
M  V30 7117 H 657.77 -1.2871 2.69214 0
M  V30 7118 C 656.519 -2.89145 1.93107 0
M  V30 7119 H 655.842 -2.85674 2.79697 0
M  V30 7120 H 657.282 -3.66082 2.13916 0
M  V30 7121 C 655.741 -3.29581 0.698431 0
M  V30 7122 O 656.271 -4.01479 -0.133238 0
M  V30 7123 N 654.477 -2.85651 0.53405 0
M  V30 7124 H 654.024 -2.2731 1.21194 0
M  V30 7125 H 653.982 -3.13065 -0.289387 0
M  V30 7126 N 657.755 -1.42862 -0.66545 0
M  V30 7127 C 659.171 -1.25993 -0.979687 0
M  V30 7128 C 659.371 -0.170831 -2.00775 0
M  V30 7129 O 658.427 0.454827 -2.4837 0
M  V30 7130 C 659.74 -2.62005 -1.47559 0
M  V30 7131 C 661.288 -2.69437 -1.59288 0
M  V30 7132 C 661.763 -4.05838 -2.12272 0
M  V30 7133 N 663.254 -4.0784 -2.19592 0
M  V30 7134 C 663.989 -5.10205 -2.61684 0
M  V30 7135 N 663.485 -6.22949 -3.03161 0
M  V30 7136 N 665.278 -4.9756 -2.61516 0
M  V30 7137 H 657.429 -2.12395 0.0150493 0
M  V30 7138 H 659.692 -0.946355 -0.0558187 0
M  V30 7139 H 659.398 -3.42605 -0.794654 0
M  V30 7140 H 659.272 -2.86566 -2.45275 0
M  V30 7141 H 661.659 -1.89178 -2.26486 0
M  V30 7142 H 661.74 -2.48655 -0.600374 0
M  V30 7143 H 661.384 -4.86559 -1.4568 0
M  V30 7144 H 661.314 -4.23977 -3.12331 0
M  V30 7145 H 663.805 -3.26452 -1.90361 0
M  V30 7146 H 664.118 -6.96899 -3.33993 0
M  V30 7147 H 662.463 -6.2644 -3.00995 0
M  V30 7148 H 665.654 -4.08551 -2.28481 0
M  V30 7149 H 665.827 -5.77468 -2.93999 0
M  V30 7150 N 659.233 0.902656 -1.29189 0
M  V30 7151 C 660.163 2.02294 -1.16616 0
M  V30 7152 C 661.144 1.6999 -0.0611175 0
M  V30 7153 O 662.329 1.9271 -0.240072 0
M  V30 7154 C 659.459 3.37018 -0.83882 0
M  V30 7155 C 658.413 3.83522 -1.89986 0
M  V30 7156 C 657.739 5.15337 -1.42589 0
M  V30 7157 C 659.039 4.04169 -3.30824 0
M  V30 7158 H 660.733 2.13071 -2.10336 0
M  V30 7159 H 658.279 1.02378 -1.01266 0
M  V30 7160 H 660.232 4.14895 -0.737584 0
M  V30 7161 H 658.956 3.26325 0.134071 0
M  V30 7162 H 657.615 3.07859 -1.99043 0
M  V30 7163 H 657.263 5.01056 -0.441759 0
M  V30 7164 H 656.963 5.47423 -2.13547 0
M  V30 7165 H 658.487 5.95758 -1.3381 0
M  V30 7166 H 659.901 4.72537 -3.24626 0
M  V30 7167 H 658.298 4.47604 -3.99713 0
M  V30 7168 H 659.368 3.08604 -3.74021 0
M  V30 7169 N 660.711 1.11618 1.11262 0
M  V30 7170 C 661.643 0.734015 2.17129 0
M  V30 7171 C 662.656 -0.235243 1.61091 0
M  V30 7172 O 663.845 -0.0178597 1.78491 0
M  V30 7173 C 660.945 0.0643682 3.38839 0
M  V30 7174 C 660.118 1.06092 4.24339 0
M  V30 7175 C 659.177 0.420482 5.24517 0
M  V30 7176 O 658.203 1.07495 5.58957 0
M  V30 7177 N 659.405 -0.815828 5.74739 0
M  V30 7178 H 662.17 1.64492 2.50524 0
M  V30 7179 H 659.731 1.00664 1.26801 0
M  V30 7180 H 661.723 -0.375851 4.02951 0
M  V30 7181 H 660.293 -0.749147 3.03491 0
M  V30 7182 H 659.513 1.67903 3.56654 0
M  V30 7183 H 660.801 1.73507 4.78302 0
M  V30 7184 H 660.199 -1.36668 5.48943 0
M  V30 7185 H 658.756 -1.199 6.40677 0
M  V30 7186 N 662.189 -1.289 0.906776 0
M  V30 7187 C 663.121 -2.26556 0.347159 0
M  V30 7188 C 664.134 -1.54589 -0.51049 0
M  V30 7189 O 665.323 -1.75489 -0.326501 0
M  V30 7190 C 662.423 -3.3484 -0.523024 0
M  V30 7191 C 661.596 -4.36296 0.310515 0
M  V30 7192 C 660.655 -5.23879 -0.493634 0
M  V30 7193 O 659.681 -5.69127 0.0913569 0
M  V30 7194 N 660.883 -5.51946 -1.7982 0
M  V30 7195 H 663.648 -2.75212 1.18652 0
M  V30 7196 H 661.209 -1.42309 0.771996 0
M  V30 7197 H 663.201 -3.90366 -1.06756 0
M  V30 7198 H 661.771 -2.85946 -1.26309 0
M  V30 7199 H 660.991 -3.80331 1.03644 0
M  V30 7200 H 662.279 -5.01113 0.881106 0
M  V30 7201 H 661.677 -5.17006 -2.2961 0
M  V30 7202 H 660.234 -6.10258 -2.28971 0
M  V30 7203 N 663.667 -0.670007 -1.42649 0
M  V30 7204 C 664.915 -0.18991 -2.01206 0
M  V30 7205 C 665.236 1.20617 -1.53221 0
M  V30 7206 O 664.506 1.80898 -0.751856 0
M  V30 7207 H 663.086 -0.0672189 -0.743969 0
M  V30 7208 H 665.748 -0.865442 -1.74631 0
M  V30 7209 H 664.844 -0.187481 -3.11536 0
M  V30 7210 N 665.145 1.52092 -0.413018 0
M  V30 7211 C 666.077 2.24819 0.445994 0
M  V30 7212 C 667.09 1.27925 1.00692 0
M  V30 7213 O 668.279 1.53845 0.905204 0
M  V30 7214 C 665.379 2.96951 1.6332 0
M  V30 7215 C 664.552 4.20746 1.19548 0
M  V30 7216 C 663.611 4.75668 2.25003 0
M  V30 7217 O 662.637 5.38148 1.85434 0
M  V30 7218 N 663.839 4.57579 3.57214 0
M  V30 7219 H 666.604 2.99176 -0.177209 0
M  V30 7220 H 664.165 1.60102 -0.240601 0
M  V30 7221 H 666.157 3.30586 2.33441 0
M  V30 7222 H 664.727 2.25756 2.16225 0
M  V30 7223 H 663.947 3.92881 0.32224 0
M  V30 7224 H 665.235 5.01132 0.880033 0
M  V30 7225 H 664.633 4.07758 3.92109 0
M  V30 7226 H 663.19 4.95642 4.23299 0
M  V30 7227 N 666.623 0.143563 1.56945 0
M  V30 7228 C 668.039 -0.212877 1.58174 0
M  V30 7229 C 668.239 -1.64926 1.15766 0
M  V30 7230 O 667.295 -2.37535 0.856361 0
M  V30 7231 C 668.608 0.0427573 3.0067 0
M  V30 7232 C 670.156 -0.0212221 3.12993 0
M  V30 7233 C 670.631 0.207036 4.57532 0
M  V30 7234 N 672.122 0.153845 4.62944 0
M  V30 7235 C 672.857 0.305018 5.72588 0
M  V30 7236 N 672.353 0.513722 6.90893 0
M  V30 7237 N 674.146 0.242862 5.61575 0
M  V30 7238 H 666.297 1.08148 1.82805 0
M  V30 7239 H 668.56 0.427831 0.84597 0
M  V30 7240 H 668.266 1.03672 3.36073 0
M  V30 7241 H 668.14 -0.678195 3.71053 0
M  V30 7242 H 670.527 -1.00574 2.77433 0
M  V30 7243 H 670.608 0.732004 2.45103 0
M  V30 7244 H 670.252 1.18863 4.93795 0
M  V30 7245 H 670.182 -0.566473 5.23544 0
M  V30 7246 H 672.673 -0.00294866 3.779 0
M  V30 7247 H 672.986 0.619273 7.70315 0
M  V30 7248 H 671.331 0.550001 6.9282 0
M  V30 7249 H 674.522 0.0806015 4.68031 0
M  V30 7250 H 674.695 0.364112 6.46976 0
M  V30 7251 N 668.101 -1.57061 -0.130224 0
M  V30 7252 C 669.064 -1.98593 -1.14426 0
M  V30 7253 C 670.064 -0.874584 -1.34936 0
M  V30 7254 O 671.254 -1.14086 -1.31643 0
M  V30 7255 C 668.386 -2.31639 -2.50112 0
M  V30 7256 H 669.579 -2.89374 -0.787561 0
M  V30 7257 H 667.132 -1.51756 -0.374146 0
M  V30 7258 H 667.867 -1.43703 -2.90723 0
M  V30 7259 H 667.652 -3.12684 -2.36583 0
M  V30 7260 H 669.142 -2.64551 -3.23114 0
M  V30 7261 N 669.579 0.400081 -1.52437 0
M  V30 7262 C 670.542 1.4707 -1.75793 0
M  V30 7263 C 671.542 1.48036 -0.627856 0
M  V30 7264 O 672.732 1.49401 -0.895817 0
M  V30 7265 C 669.864 2.86427 -1.84858 0
M  V30 7266 H 671.057 1.27649 -2.71377 0
M  V30 7267 H 668.61 0.631141 -1.42991 0
M  V30 7268 H 669.345 3.11207 -0.912194 0
M  V30 7269 H 669.13 2.87128 -2.6702 0
M  V30 7270 H 670.62 3.64023 -2.04638 0
M  V30 7271 N 671.057 1.43213 0.657864 0
M  V30 7272 C 671.99 1.42456 1.78273 0
M  V30 7273 C 672.968 0.286598 1.60054 0
M  V30 7274 O 674.152 0.479467 1.823 0
M  V30 7275 C 671.279 1.23169 3.15511 0
M  V30 7276 C 670.325 2.40181 3.52442 0
M  V30 7277 S 671.158 4.02729 3.52944 0
M  V30 7278 C 672.314 3.85816 4.92846 0
M  V30 7279 H 672.547 2.37642 1.78644 0
M  V30 7280 H 670.08 1.30188 0.830084 0
M  V30 7281 H 672.038 1.12728 3.94719 0
M  V30 7282 H 670.699 0.295398 3.12708 0
M  V30 7283 H 669.892 2.22478 4.52239 0
M  V30 7284 H 669.494 2.47224 2.80636 0
M  V30 7285 H 671.786 3.47853 5.81381 0
M  V30 7286 H 672.729 4.85348 5.15599 0
M  V30 7287 H 673.137 3.18361 4.66162 0
M  V30 7288 N 672.536 -0.895792 1.29666 0
M  V30 7289 C 673.469 -2.00238 1.09453 0
M  V30 7290 C 674.447 -1.62599 0.00527044 0
M  V30 7291 O 675.631 -1.87847 0.156729 0
M  V30 7292 C 672.758 -3.32066 0.667054 0
M  V30 7293 C 671.804 -3.88691 1.7556 0
M  V30 7294 S 672.637 -4.17317 3.35569 0
M  V30 7295 C 673.793 -5.52181 2.94698 0
M  V30 7296 H 674.026 -2.17076 2.03138 0
M  V30 7297 H 671.559 -1.04287 1.13858 0
M  V30 7298 H 673.517 -4.08272 0.427136 0
M  V30 7299 H 672.178 -3.13101 -0.250256 0
M  V30 7300 H 671.371 -4.83918 1.40853 0
M  V30 7301 H 670.973 -3.19187 1.94924 0
M  V30 7302 H 673.265 -6.3281 2.41986 0
M  V30 7303 H 674.208 -5.91817 3.88791 0
M  V30 7304 H 674.616 -5.14225 2.32879 0
M  V30 7305 N 674.014 -1.12206 -1.10668 0
M  V30 7306 C 674.962 -0.782918 -2.19028 0
M  V30 7307 C 675.956 0.229175 -1.67843 0
M  V30 7308 O 677.162 0.0876295 -1.79787 0
M  V30 7309 H 673.537 -0.235339 -0.714227 0
M  V30 7310 H 675.508 -1.70527 -2.44874 0
M  V30 7311 C 674.257 -0.25116 -3.46792 0
M  V30 7312 H 673.58 -1.02123 -3.86537 0
M  V30 7313 H 675.02 -0.0521409 -4.23968 0
M  V30 7314 C 673.479 1.02037 -3.21076 0
M  V30 7315 O 674.009 2.09862 -3.42522 0
M  V30 7316 N 672.215 0.946348 -2.74759 0
M  V30 7317 H 671.762 0.068777 -2.57508 0
M  V30 7318 H 671.72 1.79775 -2.57931 0
M  V30 7319 N 675.492 1.28418 -0.913599 0
M  V30 7320 C 676.422 2.29713 -0.418847 0
M  V30 7321 C 677.403 1.62165 0.513469 0
M  V30 7322 O 678.588 1.89576 0.421235 0
M  V30 7323 C 675.718 3.45612 0.342042 0
M  V30 7324 C 674.672 4.25056 -0.501123 0
M  V30 7325 C 673.998 5.3329 0.388097 0
M  V30 7326 C 675.298 4.91814 -1.75831 0
M  V30 7327 H 676.992 2.71346 -1.26538 0
M  V30 7328 H 674.538 1.30446 -0.609903 0
M  V30 7329 H 676.491 4.15562 0.699 0
M  V30 7330 H 675.215 3.02858 1.22248 0
M  V30 7331 H 673.874 3.56833 -0.840598 0
M  V30 7332 H 673.522 4.8678 1.26707 0
M  V30 7333 H 673.222 5.87347 -0.172459 0
M  V30 7334 H 674.746 6.06088 0.74094 0
M  V30 7335 H 676.16 5.54126 -1.47026 0
M  V30 7336 H 674.557 5.55866 -2.26126 0
M  V30 7337 H 675.627 4.16313 -2.4862 0
M  V30 7338 N 676.97 0.677563 1.42291 0
M  V30 7339 C 677.9 0.014968 2.33495 0
M  V30 7340 C 678.881 -0.786376 1.50831 0
M  V30 7341 O 680.066 -0.742975 1.79426 0
M  V30 7342 C 677.196 -0.935023 3.34477 0
M  V30 7343 C 676.15 -0.242074 4.27315 0
M  V30 7344 C 675.476 -1.30519 5.18526 0
M  V30 7345 C 676.776 0.880604 5.14823 0
M  V30 7346 H 678.47 0.776671 2.89151 0
M  V30 7347 H 676.016 0.37494 1.39033 0
M  V30 7348 H 677.969 -1.40766 3.97194 0
M  V30 7349 H 676.693 -1.72818 2.77131 0
M  V30 7350 H 675.352 0.210351 3.65996 0
M  V30 7351 H 675 -2.09041 4.57505 0
M  V30 7352 H 674.7 -0.846652 5.81468 0
M  V30 7353 H 676.224 -1.7787 5.84119 0
M  V30 7354 H 677.638 0.489062 5.7121 0
M  V30 7355 H 676.035 1.26511 5.86613 0
M  V30 7356 H 677.105 1.72818 4.53059 0
M  V30 7357 N 678.448 -1.51871 0.421078 0
M  V30 7358 C 679.864 -1.59435 0.0725398 0
M  V30 7359 C 680.064 -1.43315 -1.41644 0
M  V30 7360 O 679.12 -1.26614 -2.18461 0
M  V30 7361 C 680.433 -2.9509 0.578132 0
M  V30 7362 C 681.981 -3.08356 0.537149 0
M  V30 7363 C 682.456 -4.4651 1.01945 0
M  V30 7364 N 683.947 -4.52784 0.976758 0
M  V30 7365 C 684.682 -5.57976 1.32099 0
M  V30 7366 N 684.178 -6.70664 1.73727 0
M  V30 7367 N 685.971 -5.48248 1.2402 0
M  V30 7368 H 678.122 -1.60595 1.39007 0
M  V30 7369 H 680.385 -0.756138 0.571803 0
M  V30 7370 H 680.091 -3.12205 1.61929 0
M  V30 7371 H 679.965 -3.772 -0.00578374 0
M  V30 7372 H 682.352 -2.90919 -0.494991 0
M  V30 7373 H 682.433 -2.28125 1.15727 0
M  V30 7374 H 682.077 -4.64692 2.04997 0
M  V30 7375 H 682.007 -5.25256 0.376023 0
M  V30 7376 H 684.498 -3.71898 0.670851 0
M  V30 7377 H 684.811 -7.46932 1.98274 0
M  V30 7378 H 683.156 -6.71914 1.77641 0
M  V30 7379 H 686.347 -4.59095 0.913756 0
M  V30 7380 H 686.52 -6.30119 1.51176 0
M  V30 7381 N 679.926 -0.151884 -1.56866 0
M  V30 7382 C 680.874 0.80299 -2.183 0
M  V30 7383 C 681.868 1.25174 -1.14139 0
M  V30 7384 O 683.074 1.21966 -1.3238 0
M  V30 7385 H 679.449 0.277169 -0.699057 0
M  V30 7386 H 681.42 0.260699 -2.97259 0
M  V30 7387 C 680.169 2.03009 -2.82281 0
M  V30 7388 H 679.492 1.69377 -3.62148 0
M  V30 7389 H 680.932 2.67753 -3.28762 0
M  V30 7390 C 679.391 2.84123 -1.81041 0
M  V30 7391 O 679.921 3.8063 -1.28388 0
M  V30 7392 N 678.127 2.48753 -1.50234 0
M  V30 7393 H 677.674 1.70337 -1.93244 0
M  V30 7394 H 677.632 3.03316 -0.827445 0
M  V30 7395 N 681.404 1.57128 0.121893 0
M  V30 7396 C 682.352 2.01109 1.16868 0
M  V30 7397 C 683.346 0.907532 1.43039 0
M  V30 7398 O 684.552 1.09274 1.43036 0
M  V30 7399 H 680.927 0.640539 0.393971 0
M  V30 7400 H 682.898 2.88261 0.771224 0
M  V30 7401 C 681.647 2.42887 2.48799 0
M  V30 7402 H 680.97 3.2737 2.29498 0
M  V30 7403 H 682.41 2.77461 3.20611 0
M  V30 7404 C 680.869 1.29137 3.11168 0
M  V30 7405 O 681.399 0.605756 3.97106 0
M  V30 7406 N 679.605 1.04916 2.71 0
M  V30 7407 H 679.152 1.60848 2.01211 0
M  V30 7408 H 679.11 0.290016 3.1306 0
M  V30 7409 N 682.882 -0.391992 1.52647 0
M  V30 7410 C 684.107 -1.16312 1.71716 0
M  V30 7411 C 684.532 -1.83042 0.433279 0
M  V30 7412 O 683.89 -1.70705 -0.610707 0
M  V30 7413 C 683.938 -2.18908 2.86551 0
M  V30 7414 O 683.042 -3.2543 2.53316 0
M  V30 7415 H 682.383 -0.338743 0.571095 0
M  V30 7416 H 684.913 -0.457202 1.99426 0
M  V30 7417 H 684.923 -2.62954 3.1196 0
M  V30 7418 H 683.598 -1.69726 3.79692 0
M  V30 7419 H 682.175 -2.86543 2.38637 0
M  V30 7420 N 684.36 -1.4356 -0.65026 0
M  V30 7421 C 685.6 -1.46839 -1.42188 0
M  V30 7422 C 685.964 -0.0911433 -1.91784 0
M  V30 7423 O 687.165 0.00137545 -2.688 0
M  V30 7424 C 685.436 -2.48411 -2.56957 0
M  V30 7425 S 686.995 -2.70589 -3.45438 0
M  V30 7426 H 683.813 -0.519596 -0.485325 0
M  V30 7427 H 686.415 -1.80347 -0.75466 0
M  V30 7428 H 685.119 -3.47209 -2.18801 0
M  V30 7429 H 684.65 -2.16411 -3.28527 0
M  V30 7430 H 686.665 -2.00738 -4.53782 0
M  V30 7431 N 685.838 0.888903 -1.30139 0
M  V30 7432 C 686.768 2.01046 -1.18755 0
M  V30 7433 C 687.749 1.69916 -0.0791438 0
M  V30 7434 O 688.934 1.92445 -0.260498 0
M  V30 7435 C 686.064 3.36109 -0.874518 0
M  V30 7436 C 685.018 3.81486 -1.94043 0
M  V30 7437 C 684.344 5.13796 -1.48047 0
M  V30 7438 C 685.644 4.00637 -3.35093 0
M  V30 7439 H 687.338 2.10828 -2.12584 0
M  V30 7440 H 684.884 1.01298 -1.02346 0
M  V30 7441 H 686.837 4.14089 -0.781548 0
M  V30 7442 H 685.561 3.26449 0.0994519 0
M  V30 7443 H 684.22 3.05731 -2.02297 0
M  V30 7444 H 683.868 5.0056 -0.494878 0
M  V30 7445 H 683.568 5.45127 -2.19341 0
M  V30 7446 H 685.092 5.94305 -1.40121 0
M  V30 7447 H 686.506 4.69067 -3.2962 0
M  V30 7448 H 684.903 4.43339 -4.04438 0
M  V30 7449 H 685.973 3.0462 -3.77273 0
M  V30 7450 N 687.317 1.12792 1.10072 0
M  V30 7451 C 688.542 0.908838 1.86427 0
M  V30 7452 C 688.967 -0.536793 1.80278 0
M  V30 7453 O 688.325 -1.38033 1.17543 0
M  V30 7454 C 688.373 1.39295 3.3261 0
M  V30 7455 O 687.477 0.573846 4.08388 0
M  V30 7456 H 686.818 0.326234 0.578331 0
M  V30 7457 H 689.348 1.50094 1.39043 0
M  V30 7458 H 689.358 1.39366 3.83459 0
M  V30 7459 H 688.033 2.44555 3.36401 0
M  V30 7460 H 686.61 0.640438 3.67359 0
M  V30 7461 N 688.795 -1.27931 0.920396 0
M  V30 7462 C 689.742 -2.27085 0.412422 0
M  V30 7463 C 690.712 -1.57858 -0.516725 0
M  V30 7464 O 691.897 -1.85717 -0.437475 0
M  V30 7465 C 689.037 -3.43466 -0.335399 0
M  V30 7466 C 688.15 -4.27425 0.627017 0
M  V30 7467 C 687.285 -5.31016 -0.139916 0
M  V30 7468 C 686.324 -6.06641 0.815683 0
M  V30 7469 N 685.461 -7.02052 0.0818439 0
M  V30 7470 H 690.301 -2.69913 1.26298 0
M  V30 7471 H 687.838 -1.32732 0.634076 0
M  V30 7472 H 689.796 -4.09744 -0.785226 0
M  V30 7473 H 688.426 -3.01611 -1.15025 0
M  V30 7474 H 687.478 -3.6113 1.19537 0
M  V30 7475 H 688.79 -4.79969 1.35763 0
M  V30 7476 H 687.944 -6.03208 -0.649998 0
M  V30 7477 H 686.683 -4.79257 -0.903543 0
M  V30 7478 H 685.688 -5.33294 1.33708 0
M  V30 7479 H 686.913 -6.60489 1.57897 0
M  V30 7480 H 684.859 -6.52634 -0.663671 0
M  V30 7481 H 684.776 -7.52249 0.752163 0
M  V30 7482 H 686.044 -7.78432 -0.407825 0
M  V30 7483 N 690.273 -0.685099 -1.4193 0
M  V30 7484 C 691.206 0.0371639 -2.2817 0
M  V30 7485 C 692.184 0.798436 -1.41647 0
M  V30 7486 O 693.368 0.791428 -1.71081 0
M  V30 7487 C 690.495 1.05993 -3.21688 0
M  V30 7488 C 689.541 0.393043 -4.24685 0
M  V30 7489 S 690.374 -0.856921 -5.28599 0
M  V30 7490 C 691.53 0.164508 -6.25684 0
M  V30 7491 H 691.763 -0.694305 -2.89079 0
M  V30 7492 H 689.296 -0.474999 -1.46912 0
M  V30 7493 H 691.254 1.64489 -3.76103 0
M  V30 7494 H 689.915 1.7639 -2.59895 0
M  V30 7495 H 689.108 1.16513 -4.90348 0
M  V30 7496 H 688.71 -0.118589 -3.73812 0
M  V30 7497 H 691.002 1.02106 -6.69762 0
M  V30 7498 H 691.945 -0.457917 -7.06618 0
M  V30 7499 H 692.353 0.514596 -5.6215 0
M  V30 7500 N 691.751 1.51645 -0.429126 0
M  V30 7501 C 692.698 2.27542 0.386446 0
M  V30 7502 C 693.668 1.30786 1.02393 0
M  V30 7503 O 694.853 1.59678 1.0444 0
M  V30 7504 C 691.993 3.11457 1.48623 0
M  V30 7505 C 691.106 4.23196 0.867691 0
M  V30 7506 C 690.241 4.94435 1.94183 0
M  V30 7507 C 689.28 5.98108 1.30129 0
M  V30 7508 N 688.417 6.62786 2.31644 0
M  V30 7509 H 693.257 2.968 -0.267155 0
M  V30 7510 H 690.794 1.46397 -0.143591 0
M  V30 7511 H 692.752 3.58429 2.13506 0
M  V30 7512 H 691.382 2.44329 2.10957 0
M  V30 7513 H 690.434 3.80248 0.107373 0
M  V30 7514 H 691.746 4.97499 0.35997 0
M  V30 7515 H 690.9 5.44914 2.66747 0
M  V30 7516 H 689.639 4.19744 2.48326 0
M  V30 7517 H 688.644 5.4693 0.561082 0
M  V30 7518 H 689.869 6.74751 0.767303 0
M  V30 7519 H 687.815 5.90913 2.84883 0
M  V30 7520 H 687.732 7.32828 1.85741 0
M  V30 7521 H 689 7.17897 3.03717 0
M  V30 7522 N 693.229 0.160201 1.56784 0
M  V30 7523 C 694.177 -0.791402 2.18723 0
M  V30 7524 C 695.171 -1.24567 1.14801 0
M  V30 7525 O 696.377 -1.21262 1.33025 0
M  V30 7526 H 692.752 -0.273458 0.700517 0
M  V30 7527 H 694.723 -0.244931 2.97393 0
M  V30 7528 C 693.472 -2.01509 2.83354 0
M  V30 7529 H 692.795 -1.67454 3.63041 0
M  V30 7530 H 694.235 -2.66006 3.30177 0
M  V30 7531 C 692.694 -2.83159 1.82545 0
M  V30 7532 O 693.224 -3.79944 1.30405 0
M  V30 7533 N 691.43 -2.47953 1.51552 0
M  V30 7534 H 690.977 -1.69309 1.94144 0
M  V30 7535 H 690.935 -3.02873 0.843519 0
M  V30 7536 N 694.707 -1.5719 -0.113559 0
M  V30 7537 C 695.932 -1.89702 -0.838336 0
M  V30 7538 C 696.357 -0.752679 -1.72384 0
M  V30 7539 O 695.715 0.296575 -1.78858 0
M  V30 7540 C 695.763 -3.20989 -1.64312 0
M  V30 7541 O 694.867 -3.07278 -2.75053 0
M  V30 7542 H 694.208 -0.622339 -0.231496 0
M  V30 7543 H 696.738 -2.04382 -0.0943228 0
M  V30 7544 H 696.748 -3.53843 -2.03123 0
M  V30 7545 H 695.423 -4.03869 -0.993119 0
M  V30 7546 H 694 -2.85901 -2.39406 0
M  V30 7547 N 696.185 0.383891 -1.52853 0
M  V30 7548 C 697.118 1.49105 -1.72751 0
M  V30 7549 C 698.096 1.52077 -0.575438 0
M  V30 7550 O 699.28 1.70406 -0.805854 0
M  V30 7551 C 696.407 2.87551 -1.78975 0
M  V30 7552 C 695.453 3.02383 -3.00777 0
M  V30 7553 S 696.286 2.73048 -4.60657 0
M  V30 7554 C 697.442 4.13678 -4.69704 0
M  V30 7555 H 697.675 1.32002 -2.66388 0
M  V30 7556 H 695.208 0.577088 -1.4321 0
M  V30 7557 H 697.166 3.6733 -1.83246 0
M  V30 7558 H 695.827 3.01977 -0.864215 0
M  V30 7559 H 695.02 4.03733 -3.01688 0
M  V30 7560 H 694.622 2.30504 -2.94523 0
M  V30 7561 H 696.914 5.07676 -4.48633 0
M  V30 7562 H 697.857 4.1778 -5.71721 0
M  V30 7563 H 698.265 3.99825 -3.98497 0
M  V30 7564 N 697.663 1.43903 0.642637 0
M  V30 7565 C 698.626 1.49538 1.73698 0
M  V30 7566 C 699.626 0.378776 1.56275 0
M  V30 7567 O 700.816 0.64095 1.6198 0
M  V30 7568 C 697.948 1.35821 3.12675 0
M  V30 7569 H 699.141 2.47008 1.70079 0
M  V30 7570 H 696.694 1.30824 0.85526 0
M  V30 7571 H 697.429 0.393994 3.21898 0
M  V30 7572 H 697.214 2.16776 3.26727 0
M  V30 7573 H 698.704 1.4272 3.92455 0
M  V30 7574 N 699.141 -0.881989 1.30609 0
M  V30 7575 C 700.366 -1.67236 1.22665 0
M  V30 7576 C 700.791 -1.8696 -0.206777 0
M  V30 7577 O 700.149 -1.4027 -1.14865 0
M  V30 7578 C 700.197 -3.02446 1.96363 0
M  V30 7579 O 699.301 -3.91614 1.29276 0
M  V30 7580 H 698.642 -0.510902 0.424117 0
M  V30 7581 H 701.172 -1.10055 1.72479 0
M  V30 7582 H 701.182 -3.52468 2.055 0
M  V30 7583 H 699.857 -2.8741 3.00613 0
M  V30 7584 H 698.434 -3.50055 1.28514 0
M  V30 7585 N 700.619 -1.13374 -1.09472 0
M  V30 7586 C 701.552 -0.754354 -2.15371 0
M  V30 7587 C 702.53 0.259205 -1.60521 0
M  V30 7588 O 703.714 0.150819 -1.87896 0
M  V30 7589 C 700.841 -0.118197 -3.38494 0
M  V30 7590 C 699.887 -1.10017 -4.12066 0
M  V30 7591 S 700.72 -2.63242 -4.6633 0
M  V30 7592 C 701.876 -2.00984 -5.92753 0
M  V30 7593 H 702.109 -1.65135 -2.4722 0
M  V30 7594 H 699.642 -0.953838 -1.21414 0
M  V30 7595 H 701.6 0.242447 -4.09783 0
M  V30 7596 H 700.261 0.756065 -3.04865 0
M  V30 7597 H 699.454 -0.60287 -5.00381 0
M  V30 7598 H 699.056 -1.40426 -3.46636 0
M  V30 7599 H 701.348 -1.35863 -6.63738 0
M  V30 7600 H 702.291 -2.8738 -6.47162 0
M  V30 7601 H 702.699 -1.46161 -5.4525 0
M  V30 7602 N 702.098 1.27442 -0.927168 0
M  V30 7603 C 703.323 1.99036 -0.583042 0
M  V30 7604 C 703.748 1.68711 0.83176 0
M  V30 7605 O 703.106 0.927081 1.55804 0
M  V30 7606 C 703.154 3.51271 -0.814925 0
M  V30 7607 O 702.258 4.12226 0.119742 0
M  V30 7608 H 701.599 0.624883 -0.224538 0
M  V30 7609 H 704.129 1.62263 -1.24628 0
M  V30 7610 H 704.139 4.01411 -0.730282 0
M  V30 7611 H 702.814 3.72676 -1.84623 0
M  V30 7612 H 701.391 3.72897 -0.0147688 0
M  V30 7613 N 703.576 0.692616 1.41565 0
M  V30 7614 C 704.508 -0.0137132 2.29196 0
M  V30 7615 C 705.521 -0.747417 1.44629 0
M  V30 7616 O 706.71 -0.598611 1.68163 0
M  V30 7617 C 703.81 -1.04347 3.22436 0
M  V30 7618 C 702.983 -0.379985 4.35746 0
M  V30 7619 C 702.042 -1.31195 5.09583 0
M  V30 7620 O 701.068 -0.805455 5.63472 0
M  V30 7621 N 702.27 -2.64443 5.16769 0
M  V30 7622 H 705.035 0.738614 2.90456 0
M  V30 7623 H 702.596 0.538415 1.52685 0
M  V30 7624 H 704.588 -1.6686 3.687 0
M  V30 7625 H 703.158 -1.69736 2.62504 0
M  V30 7626 H 702.378 0.424975 3.91903 0
M  V30 7627 H 703.666 0.0814904 5.08735 0
M  V30 7628 H 703.064 -3.08114 4.74428 0
M  V30 7629 H 701.621 -3.22159 5.66619 0
M  V30 7630 N 705.054 -1.51416 0.437162 0
M  V30 7631 C 705.986 -2.255 -0.410171 0
M  V30 7632 C 706.999 -1.29511 -0.986444 0
M  V30 7633 O 708.188 -1.55266 -0.880614 0
M  V30 7634 C 705.288 -2.99511 -1.58575 0
M  V30 7635 C 704.461 -4.22595 -1.12839 0
M  V30 7636 C 703.52 -4.79187 -2.17407 0
M  V30 7637 O 702.546 -5.4103 -1.76849 0
M  V30 7638 N 703.748 -4.63204 -3.49889 0
M  V30 7639 H 706.513 -2.98856 0.224783 0
M  V30 7640 H 704.074 -1.59699 0.266041 0
M  V30 7641 H 706.066 -3.34258 -2.28152 0
M  V30 7642 H 704.636 -2.29167 -2.12606 0
M  V30 7643 H 703.856 -3.93344 -0.259695 0
M  V30 7644 H 705.144 -5.02468 -0.800196 0
M  V30 7645 H 704.542 -4.13945 -3.85573 0
M  V30 7646 H 703.099 -5.02313 -4.15361 0
M  V30 7647 N 706.532 -0.168513 -1.56696 0
M  V30 7648 C 707.462 0.758563 -2.20835 0
M  V30 7649 C 708.443 1.24121 -1.1631 0
M  V30 7650 O 709.628 1.29487 -1.4473 0
M  V30 7651 C 706.758 1.9892 -2.8469 0
M  V30 7652 C 705.712 1.64252 -3.95228 0
M  V30 7653 C 705.038 2.94757 -4.46119 0
M  V30 7654 C 706.338 0.872675 -5.14958 0
M  V30 7655 H 708.032 0.223953 -2.98561 0
M  V30 7656 H 705.578 0.106277 -1.43607 0
M  V30 7657 H 707.531 2.64275 -3.28233 0
M  V30 7658 H 706.255 2.5479 -2.04327 0
M  V30 7659 H 704.914 1.01266 -3.52336 0
M  V30 7660 H 704.562 3.48662 -3.62552 0
M  V30 7661 H 704.262 2.72316 -5.2069 0
M  V30 7662 H 705.786 3.61147 -4.92347 0
M  V30 7663 H 707.2 1.42875 -5.55211 0
M  V30 7664 H 705.597 0.747402 -5.95428 0
M  V30 7665 H 706.667 -0.131535 -4.84722 0
M  V30 7666 N 708.01 1.57248 0.105221 0
M  V30 7667 C 708.957 2.01338 1.12835 0
M  V30 7668 C 709.927 0.887897 1.40377 0
M  V30 7669 O 711.112 1.15315 1.5201 0
M  V30 7670 C 708.252 2.43432 2.44611 0
M  V30 7671 C 707.365 3.69457 2.23888 0
M  V30 7672 C 706.5 4.00473 3.48991 0
M  V30 7673 C 705.539 5.19638 3.23485 0
M  V30 7674 N 704.676 5.46457 4.40828 0
M  V30 7675 H 709.516 2.88527 0.745386 0
M  V30 7676 H 707.053 1.42714 0.356535 0
M  V30 7677 H 709.011 2.65879 3.21503 0
M  V30 7678 H 707.641 1.59266 2.80774 0
M  V30 7679 H 706.693 3.54545 1.37847 0
M  V30 7680 H 708.005 4.56497 2.01026 0
M  V30 7681 H 707.159 4.23642 4.34295 0
M  V30 7682 H 705.898 3.11935 3.74897 0
M  V30 7683 H 704.903 4.96299 2.36574 0
M  V30 7684 H 706.128 6.09766 2.98935 0
M  V30 7685 H 704.074 4.60876 4.66829 0
M  V30 7686 H 703.991 6.27849 4.2112 0
M  V30 7687 H 705.259 5.74155 5.27225 0
M  V30 7688 N 709.488 -0.375779 1.53054 0
M  V30 7689 C 710.451 -1.44254 1.7811 0
M  V30 7690 C 711.451 -1.47018 0.651328 0
M  V30 7691 O 712.641 -1.47957 0.919472 0
M  V30 7692 C 709.773 -2.8345 1.89391 0
M  V30 7693 H 710.966 -1.23316 2.73374 0
M  V30 7694 H 708.519 -0.608312 1.43977 0
M  V30 7695 H 709.254 -3.09716 0.961589 0
M  V30 7696 H 709.039 -2.82844 2.71555 0
M  V30 7697 H 710.529 -3.60722 2.10404 0
M  V30 7698 N 710.966 -1.44241 -0.634997 0
M  V30 7699 C 711.913 -1.5081 -1.74714 0
M  V30 7700 C 712.883 -0.356147 -1.62237 0
M  V30 7701 O 714.068 -0.565848 -1.82216 0
M  V30 7702 C 711.208 -1.45458 -3.12947 0
M  V30 7703 C 710.321 -2.70998 -3.36428 0
M  V30 7704 C 709.456 -2.57507 -4.64611 0
M  V30 7705 C 708.495 -3.78229 -4.81258 0
M  V30 7706 N 707.632 -3.63438 -6.00714 0
M  V30 7707 H 712.472 -2.45832 -1.68436 0
M  V30 7708 H 710.009 -1.2201 -0.821706 0
M  V30 7709 H 711.967 -1.40347 -3.92885 0
M  V30 7710 H 710.597 -0.540058 -3.1825 0
M  V30 7711 H 709.649 -2.86312 -2.50458 0
M  V30 7712 H 710.961 -3.60619 -3.44609 0
M  V30 7713 H 710.115 -2.50207 -5.52703 0
M  V30 7714 H 708.854 -1.65441 -4.58782 0
M  V30 7715 H 707.859 -3.85918 -3.91596 0
M  V30 7716 H 709.084 -4.71327 -4.88904 0
M  V30 7717 H 707.03 -2.7412 -5.95982 0
M  V30 7718 H 706.947 -4.46672 -6.09934 0
M  V30 7719 H 708.215 -3.60022 -6.91378 0
M  V30 7720 N 712.444 0.87505 -1.31075 0
M  V30 7721 C 713.374 1.99775 -1.20881 0
M  V30 7722 C 714.355 1.69822 -0.0971612 0
M  V30 7723 O 715.54 1.92158 -0.280895 0
M  V30 7724 C 712.67 3.35163 -0.910118 0
M  V30 7725 C 711.624 3.79406 -1.98078 0
M  V30 7726 C 710.95 5.12197 -1.53488 0
M  V30 7727 C 712.25 3.97061 -3.39323 0
M  V30 7728 H 713.944 2.08562 -2.14808 0
M  V30 7729 H 711.49 1.00207 -1.03415 0
M  V30 7730 H 713.443 4.13237 -0.825423 0
M  V30 7731 H 712.167 3.26536 0.064822 0
M  V30 7732 H 710.826 3.03568 -2.05528 0
M  V30 7733 H 710.474 5.00007 -0.547941 0
M  V30 7734 H 710.174 5.4277 -2.2511 0
M  V30 7735 H 711.698 5.92785 -1.46417 0
M  V30 7736 H 713.112 4.65545 -3.34576 0
M  V30 7737 H 711.509 4.39025 -4.09118 0
M  V30 7738 H 712.579 3.00601 -3.80483 0
M  V30 7739 N 713.922 1.13953 1.08869 0
M  V30 7740 C 715.199 0.815768 1.77777 0
M  V30 7741 C 715.579 -0.691624 1.99449 0
M  V30 7742 O 714.927 -1.63085 1.60049 0
M  V30 7743 C 715.137 1.60916 3.09689 0
M  V30 7744 C 716.485 1.80549 3.84301 0
M  V30 7745 O 717.509 1.57562 3.19457 0
M  V30 7746 O 716.368 2.18946 5.00724 0
M  V30 7747 H 713.462 0.298445 0.771271 0
M  V30 7748 H 716.008 1.24446 1.15374 0
M  V30 7749 H 714.78 2.6333 2.89435 0
M  V30 7750 H 714.403 1.17578 3.79817 0
M  V30 7751 N 715.4 -1.26948 0.933913 0
M  V30 7752 C 716.647 -1.94087 0.577625 0
M  V30 7753 C 716.975 -1.73345 -0.88214 0
M  V30 7754 O 716.23 -1.05945 -1.64542 0
M  V30 7755 C 716.529 -3.46963 0.857406 0
M  V30 7756 C 716.195 -3.87834 2.2999 0
M  V30 7757 C 714.857 -3.98704 2.69423 0
M  V30 7758 C 717.209 -4.08442 3.23766 0
M  V30 7759 C 714.537 -4.27573 4.01744 0
M  V30 7760 C 716.889 -4.38798 4.55675 0
M  V30 7761 C 715.553 -4.47881 4.94934 0
M  V30 7762 H 714.823 -0.710215 0.211368 0
M  V30 7763 H 717.47 -1.50899 1.17905 0
M  V30 7764 H 715.775 -3.91416 0.173369 0
M  V30 7765 H 717.472 -3.97062 0.560615 0
M  V30 7766 H 714.062 -3.79916 1.98399 0
M  V30 7767 H 718.246 -3.99479 2.94499 0
M  V30 7768 H 713.502 -4.32815 4.31834 0
M  V30 7769 H 717.676 -4.5369 5.28335 0
M  V30 7770 H 715.303 -4.70005 5.97495 0
M  V30 7771 N 716.879 -0.700114 -1.41195 0
M  V30 7772 C 718.126 -0.233006 -2.01155 0
M  V30 7773 C 718.454 1.16883 -1.55462 0
M  V30 7774 O 717.709 1.80395 -0.758695 0
M  V30 7775 C 718.008 -0.243986 -3.56566 0
M  V30 7776 C 717.674 -1.59397 -4.21786 0
M  V30 7777 C 716.336 -1.96355 -4.39316 0
M  V30 7778 C 718.688 -2.48192 -4.58312 0
M  V30 7779 C 716.016 -3.21683 -4.9065 0
M  V30 7780 C 718.368 -3.72857 -5.11039 0
M  V30 7781 C 717.032 -4.09951 -5.26779 0
M  V30 7782 H 716.302 -0.085263 -0.736078 0
M  V30 7783 H 718.949 -0.9001 -1.69028 0
M  V30 7784 H 717.254 0.506663 -3.8851 0
M  V30 7785 H 718.951 0.135031 -4.00773 0
M  V30 7786 H 715.541 -1.29654 -4.08519 0
M  V30 7787 H 719.725 -2.20918 -4.4442 0
M  V30 7788 H 714.981 -3.50412 -5.01021 0
M  V30 7789 H 719.155 -4.41844 -5.38282 0
M  V30 7790 H 716.782 -5.07136 -5.66319 0
M  V30 7791 N 718.357 1.51182 -0.445186 0
M  V30 7792 C 719.304 2.27939 0.362291 0
M  V30 7793 C 720.274 1.31864 1.01 0
M  V30 7794 O 721.459 1.60776 1.02741 0
M  V30 7795 C 718.599 3.13016 1.45311 0
M  V30 7796 C 717.712 4.24093 0.822757 0
M  V30 7797 C 716.847 4.96467 1.88928 0
M  V30 7798 C 715.886 5.99454 1.23778 0
M  V30 7799 N 715.023 6.65206 2.24602 0
M  V30 7800 H 719.863 2.965 -0.29862 0
M  V30 7801 H 717.4 1.46237 -0.15911 0
M  V30 7802 H 719.358 3.60673 2.09692 0
M  V30 7803 H 717.988 2.46553 2.08354 0
M  V30 7804 H 717.04 3.80341 0.0670364 0
M  V30 7805 H 718.352 4.97853 0.307184 0
M  V30 7806 H 717.506 5.47712 2.60953 0
M  V30 7807 H 716.245 4.22355 2.4386 0
M  V30 7808 H 715.25 5.47494 0.503042 0
M  V30 7809 H 716.475 6.75527 0.695694 0
M  V30 7810 H 714.421 5.93901 2.78599 0
M  V30 7811 H 714.338 7.34756 1.77958 0
M  V30 7812 H 715.606 7.21078 2.96085 0
M  V30 7813 N 719.835 0.176821 1.56605 0
M  V30 7814 C 721.063 -0.472828 2.01425 0
M  V30 7815 C 721.478 -1.56436 1.05703 0
M  V30 7816 O 720.835 -1.82405 0.058808 0
M  V30 7817 C 720.886 -1.04607 3.46034 0
M  V30 7818 O 720.607 0.00189608 4.381 0
M  V30 7819 C 722.108 -1.7734 4.06282 0
M  V30 7820 H 719.328 -0.120503 0.660091 0
M  V30 7821 H 721.872 0.280166 2.02572 0
M  V30 7822 H 720.027 -1.74953 3.45645 0
M  V30 7823 H 720.441 -0.422118 5.22799 0
M  V30 7824 H 721.915 -2.12703 5.09374 0
M  V30 7825 H 722.392 -2.67043 3.4869 0
M  V30 7826 H 722.998 -1.11623 4.10391 0
M  V30 7827 N 721.313 -1.57302 -0.09688 0
M  V30 7828 C 722.538 -1.9058 -0.818169 0
M  V30 7829 C 722.963 -0.770921 -1.71576 0
M  V30 7830 O 722.321 0.277588 -1.79162 0
M  V30 7831 C 722.369 -3.22714 -1.60898 0
M  V30 7832 O 721.473 -3.10178 -2.71779 0
M  V30 7833 H 720.814 -0.624759 -0.224882 0
M  V30 7834 H 723.344 -2.04471 -0.07264 0
M  V30 7835 H 723.354 -3.55978 -1.99358 0
M  V30 7836 H 722.029 -4.04899 -0.950227 0
M  V30 7837 H 720.606 -2.88424 -2.3636 0
M  V30 7838 N 722.791 0.367657 -1.53252 0
M  V30 7839 C 724.04 1.10782 -1.68554 0
M  V30 7840 C 724.353 1.90523 -0.442765 0
M  V30 7841 O 725.559 2.6729 -0.47629 0
M  V30 7842 C 724.015 2.01863 -2.97959 0
M  V30 7843 C 723.623 1.27443 -4.29491 0
M  V30 7844 C 725.367 2.75883 -3.22628 0
M  V30 7845 C 723.274 2.17414 -5.49987 0
M  V30 7846 H 722.204 0.417272 -0.628013 0
M  V30 7847 H 724.855 0.368971 -1.79752 0
M  V30 7848 H 723.237 2.7947 -2.80558 0
M  V30 7849 H 724.411 0.549138 -4.57516 0
M  V30 7850 H 722.726 0.652935 -4.11249 0
M  V30 7851 H 725.323 3.43421 -4.09837 0
M  V30 7852 H 725.666 3.41138 -2.38601 0
M  V30 7853 H 726.199 2.0536 -3.40693 0
M  V30 7854 H 722.938 1.5674 -6.36485 0
M  V30 7855 H 722.458 2.87799 -5.26243 0
M  V30 7856 H 724.137 2.77019 -5.84696 0
M  V30 7857 N 724.269 1.44576 0.627338 0
M  V30 7858 C 725.201 1.47724 1.75243 0
M  V30 7859 C 726.214 0.370193 1.58535 0
M  V30 7860 O 727.403 0.636151 1.66779 0
M  V30 7861 C 724.503 1.2991 3.13012 0
M  V30 7862 C 723.676 2.5393 3.56143 0
M  V30 7863 C 722.735 2.30961 4.72804 0
M  V30 7864 O 721.761 3.04469 4.80923 0
M  V30 7865 N 722.963 1.34261 5.6476 0
M  V30 7866 H 725.728 2.44718 1.73012 0
M  V30 7867 H 723.289 1.40064 0.812022 0
M  V30 7868 H 725.281 1.12385 3.88782 0
M  V30 7869 H 723.851 0.412668 3.09864 0
M  V30 7870 H 723.071 2.86707 2.70542 0
M  V30 7871 H 724.359 3.36411 3.81713 0
M  V30 7872 H 723.757 0.735573 5.60897 0
M  V30 7873 H 722.314 1.22713 6.40144 0
M  V30 7874 N 725.747 -0.868086 1.31537 0
M  V30 7875 C 726.996 -1.61607 1.20689 0
M  V30 7876 C 727.309 -1.94204 -0.233275 0
M  V30 7877 O 728.515 -2.67515 -0.463465 0
M  V30 7878 C 726.971 -2.91348 2.11292 0
M  V30 7879 C 726.579 -2.66227 3.60315 0
M  V30 7880 C 728.323 -3.69344 2.09249 0
M  V30 7881 C 726.23 -3.91887 4.42921 0
M  V30 7882 H 725.16 -0.606373 0.448138 0
M  V30 7883 H 727.811 -0.959666 1.56405 0
M  V30 7884 H 726.193 -3.58374 1.68477 0
M  V30 7885 H 727.367 -2.07597 4.11388 0
M  V30 7886 H 725.682 -2.01582 3.64354 0
M  V30 7887 H 728.279 -4.62567 2.68209 0
M  V30 7888 H 728.622 -4.02044 1.0801 0
M  V30 7889 H 729.155 -3.09205 2.50274 0
M  V30 7890 H 725.894 -3.64336 5.44922 0
M  V30 7891 H 725.414 -4.49961 3.96605 0
M  V30 7892 H 727.093 -4.59754 4.55231 0
M  V30 7893 N 727.225 -1.14528 -1.08264 0
M  V30 7894 C 728.502 -0.825185 -1.77342 0
M  V30 7895 C 728.882 0.681037 -1.99813 0
M  V30 7896 O 728.23 1.62234 -1.60912 0
M  V30 7897 C 728.44 -1.62556 -3.08831 0
M  V30 7898 C 729.788 -1.82585 -3.83338 0
M  V30 7899 O 730.812 -1.59254 -3.18617 0
M  V30 7900 O 729.671 -2.21598 -4.99556 0
M  V30 7901 H 726.765 -0.302531 -0.769678 0
M  V30 7902 H 729.311 -1.25056 -1.14713 0
M  V30 7903 H 728.083 -2.64862 -2.88035 0
M  V30 7904 H 727.706 -1.1959 -3.79189 0
M  V30 7905 N 728.703 1.26451 -0.940633 0
M  V30 7906 C 729.633 2.28773 -0.467479 0
M  V30 7907 C 730.614 1.63218 0.478955 0
M  V30 7908 O 731.799 1.90427 0.380929 0
M  V30 7909 C 728.929 3.46259 0.268656 0
M  V30 7910 C 727.883 4.23898 -0.591171 0
M  V30 7911 C 727.209 5.33993 0.274891 0
M  V30 7912 C 728.509 4.87974 -1.86223 0
M  V30 7913 H 730.203 2.68601 -1.32265 0
M  V30 7914 H 727.749 1.29123 -0.637436 0
M  V30 7915 H 729.702 4.16951 0.610696 0
M  V30 7916 H 728.426 3.05383 1.15796 0
M  V30 7917 H 727.085 3.54969 -0.916098 0
M  V30 7918 H 726.733 4.89358 1.16353 0
M  V30 7919 H 726.433 5.86849 -0.297006 0
M  V30 7920 H 727.957 6.07523 0.612213 0
M  V30 7921 H 729.371 5.50883 -1.58747 0
M  V30 7922 H 727.768 5.50945 -2.37866 0
M  V30 7923 H 728.838 4.10945 -2.57394 0
M  V30 7924 N 730.181 0.707592 1.40822 0
M  V30 7925 C 731.091 0.0507246 2.34545 0
M  V30 7926 C 732.107 -0.752727 1.56876 0
M  V30 7927 O 733.283 -0.687524 1.89302 0
M  V30 7928 C 730.348 -0.865731 3.35717 0
M  V30 7929 C 729.409 -0.0531313 4.29267 0
M  V30 7930 C 728.642 -0.925939 5.25606 0
M  V30 7931 O 728.865 -2.16531 5.27703 0
M  V30 7932 O 727.799 -0.369194 6.00767 0
M  V30 7933 H 731.625 0.823587 2.9232 0
M  V30 7934 H 729.21 0.46801 1.4188 0
M  V30 7935 H 731.092 -1.39091 3.97783 0
M  V30 7936 H 729.767 -1.61788 2.80368 0
M  V30 7937 H 728.674 0.516931 3.70511 0
M  V30 7938 H 730.007 0.660617 4.87747 0
M  V30 7939 N 731.66 -1.50943 0.453197 0
M  V30 7940 C 732.607 -2.28128 -0.350197 0
M  V30 7941 C 733.577 -1.32398 -1.00299 0
M  V30 7942 O 734.762 -1.61319 -1.01887 0
M  V30 7943 C 731.902 -3.13782 -1.43649 0
M  V30 7944 C 731.015 -4.24523 -0.800255 0
M  V30 7945 C 730.15 -4.97462 -1.86293 0
M  V30 7946 C 729.189 -6.00102 -1.20598 0
M  V30 7947 N 728.326 -6.66387 -2.21071 0
M  V30 7948 H 733.166 -2.96337 0.31434 0
M  V30 7949 H 730.703 -1.46151 0.166863 0
M  V30 7950 H 732.661 -3.6178 -2.07776 0
M  V30 7951 H 731.291 -2.47655 -2.07044 0
M  V30 7952 H 730.343 -3.80371 -0.0468651 0
M  V30 7953 H 731.655 -4.98009 -0.280777 0
M  V30 7954 H 730.809 -5.49088 -2.58044 0
M  V30 7955 H 729.548 -4.23642 -2.41617 0
M  V30 7956 H 728.553 -5.47753 -0.474 0
M  V30 7957 H 729.778 -6.75887 -0.659859 0
M  V30 7958 H 727.724 -5.9537 -2.75446 0
M  V30 7959 H 727.641 -7.3569 -1.74058 0
M  V30 7960 H 728.909 -7.22638 -2.92257 0
M  V30 7961 N 733.138 -0.185124 -1.56509 0
M  V30 7962 C 734.368 0.461469 -2.0138 0
M  V30 7963 C 734.776 1.56417 -1.06445 0
M  V30 7964 O 734.119 1.83603 -0.0597515 0
M  V30 7965 C 734.181 1.08731 -3.42663 0
M  V30 7966 C 733.845 0.124581 -4.5683 0
M  V30 7967 C 734.842 -0.662295 -5.15664 0
M  V30 7968 C 732.527 0.0163947 -5.02297 0
M  V30 7969 C 734.521 -1.54442 -6.18406 0
M  V30 7970 C 732.208 -0.869301 -6.04885 0
M  V30 7971 C 733.206 -1.64828 -6.62813 0
M  V30 7972 O 732.894 -2.51915 -7.63409 0
M  V30 7973 H 732.626 0.1212 -0.665046 0
M  V30 7974 H 735.18 -0.288119 -2.03369 0
M  V30 7975 H 733.41 1.8853 -3.37629 0
M  V30 7976 H 735.099 1.63753 -3.71403 0
M  V30 7977 H 735.865 -0.588963 -4.81411 0
M  V30 7978 H 731.744 0.61253 -4.56913 0
M  V30 7979 H 735.288 -2.15289 -6.63548 0
M  V30 7980 H 731.185 -0.943786 -6.38563 0
M  V30 7981 H 731.953 -2.45584 -7.80789 0
M  V30 7982 N 734.616 1.57351 0.0885366 0
M  V30 7983 C 735.841 1.91011 0.80805 0
M  V30 7984 C 736.266 0.780009 1.71165 0
M  V30 7985 O 735.624 -0.268083 1.79307 0
M  V30 7986 C 735.672 3.23562 1.59185 0
M  V30 7987 O 734.776 3.11615 2.7013 0
M  V30 7988 H 734.117 0.625943 0.221565 0
M  V30 7989 H 736.647 2.04507 0.0617954 0
M  V30 7990 H 736.657 3.5703 1.97468 0
M  V30 7991 H 735.332 4.05398 0.928741 0
M  V30 7992 H 733.909 2.89673 2.34827 0
M  V30 7993 N 736.094 -0.359525 1.53444 0
M  V30 7994 C 737.004 -1.46445 1.83278 0
M  V30 7995 C 738.02 -1.5833 0.721629 0
M  V30 7996 O 739.196 -1.7411 1.01231 0
M  V30 7997 C 736.261 -2.81638 2.02191 0
M  V30 7998 C 735.322 -2.7923 3.26082 0
M  V30 7999 C 734.555 -4.07974 3.44082 0
M  V30 8000 O 734.778 -5.04447 2.66251 0
M  V30 8001 O 733.712 -4.13417 4.37458 0
M  V30 8002 H 737.538 -1.24156 2.77162 0
M  V30 8003 H 735.123 -0.550201 1.389 0
M  V30 8004 H 737.005 -3.61732 2.16167 0
M  V30 8005 H 735.68 -3.03892 1.11496 0
M  V30 8006 H 734.587 -1.97813 3.17523 0
M  V30 8007 H 735.92 -2.6193 4.16718 0
M  V30 8008 N 737.572 -1.44907 -0.619662 0
M  V30 8009 C 738.504 -1.48652 -1.74457 0
M  V30 8010 C 739.517 -0.378596 -1.58337 0
M  V30 8011 O 740.706 -0.644987 -1.6644 0
M  V30 8012 C 737.806 -1.31568 -3.12319 0
M  V30 8013 C 736.979 -2.55816 -3.54792 0
M  V30 8014 C 736.038 -2.33465 -4.71573 0
M  V30 8015 O 735.064 -3.07015 -4.79302 0
M  V30 8016 N 736.266 -1.37254 -5.6404 0
M  V30 8017 H 739.031 -2.45632 -1.71712 0
M  V30 8018 H 736.592 -1.40492 -0.804582 0
M  V30 8019 H 738.584 -1.14445 -3.88181 0
M  V30 8020 H 737.154 -0.429095 -3.09641 0
M  V30 8021 H 736.374 -2.88137 -2.69018 0
M  V30 8022 H 737.662 -3.38431 -3.79924 0
M  V30 8023 H 737.06 -0.765309 -5.60499 0
M  V30 8024 H 735.617 -1.26106 -6.39485 0
M  V30 8025 N 739.05 0.861098 -1.31996 0
M  V30 8026 C 740.278 1.6474 -1.25173 0
M  V30 8027 C 740.693 1.87926 0.181425 0
M  V30 8028 O 740.05 1.4437 1.1164 0
M  V30 8029 C 740.101 3.01036 -2.0015 0
M  V30 8030 O 739.822 2.7888 -3.37872 0
M  V30 8031 C 741.323 3.95481 -2.00273 0
M  V30 8032 H 738.543 0.513314 -0.432146 0
M  V30 8033 H 741.087 1.07419 -1.74016 0
M  V30 8034 H 739.242 3.55021 -1.55046 0
M  V30 8035 H 739.656 3.65514 -3.76165 0
M  V30 8036 H 741.13 4.88403 -2.57229 0
M  V30 8037 H 741.607 4.27957 -0.987407 0
M  V30 8038 H 742.213 3.47433 -2.45296 0
M  V30 8039 N 740.528 1.15101 1.07655 0
M  V30 8040 C 741.438 0.858869 2.18313 0
M  V30 8041 C 742.454 -0.163641 1.73229 0
M  V30 8042 O 743.63 0.00969541 2.01398 0
M  V30 8043 C 740.695 0.34893 3.4494 0
M  V30 8044 C 739.756 1.43495 4.04608 0
M  V30 8045 C 738.989 0.949253 5.2519 0
M  V30 8046 O 739.212 -0.20636 5.70027 0
M  V30 8047 O 738.146 1.73161 5.76454 0
M  V30 8048 H 741.972 1.78386 2.45788 0
M  V30 8049 H 739.557 0.929876 1.16934 0
M  V30 8050 H 741.439 0.070851 4.2134 0
M  V30 8051 H 740.114 -0.548237 3.19024 0
M  V30 8052 H 739.021 1.7666 3.29761 0
M  V30 8053 H 740.354 2.30692 4.3479 0
M  V30 8054 N 742.006 -1.2595 0.947325 0
M  V30 8055 C 743.253 -1.93463 0.598178 0
M  V30 8056 C 743.581 -1.74271 -0.863705 0
M  V30 8057 O 742.836 -1.07684 -1.63409 0
M  V30 8058 C 743.135 -3.46034 0.894158 0
M  V30 8059 C 742.801 -3.85373 2.3409 0
M  V30 8060 C 741.463 -3.95823 2.73637 0
M  V30 8061 C 743.815 -4.04986 3.2808 0
M  V30 8062 C 741.143 -4.23288 4.06257 0
M  V30 8063 C 743.495 -4.3394 4.60303 0
M  V30 8064 C 742.159 -4.42606 4.99656 0
M  V30 8065 H 741.429 -0.707933 0.218889 0
M  V30 8066 H 744.076 -1.4964 1.19499 0
M  V30 8067 H 742.381 -3.9121 0.214874 0
M  V30 8068 H 744.078 -3.96445 0.602698 0
M  V30 8069 H 740.668 -3.7779 2.02417 0
M  V30 8070 H 744.852 -3.96333 2.9872 0
M  V30 8071 H 740.108 -4.28211 4.36401 0
M  V30 8072 H 744.282 -4.48061 5.33118 0
M  V30 8073 H 741.909 -4.63641 6.02446 0
M  V30 8074 N 743.484 -0.715051 -1.40445 0
M  V30 8075 C 744.732 -0.253826 -2.005 0
M  V30 8076 C 745.053 1.15681 -1.5698 0
M  V30 8077 O 744.323 1.78414 -0.809027 0
M  V30 8078 H 742.903 -0.0908537 -0.741454 0
M  V30 8079 H 745.565 -0.920561 -1.7179 0
M  V30 8080 H 744.661 -0.286499 -3.10782 0
M  V30 8081 N 744.962 1.50701 -0.461195 0
M  V30 8082 C 746.211 2.01458 0.0988277 0
M  V30 8083 C 746.524 1.34863 1.41673 0
M  V30 8084 O 747.73 1.76721 2.06111 0
M  V30 8085 C 746.186 3.59186 0.226648 0
M  V30 8086 C 745.794 4.34732 -1.08223 0
M  V30 8087 C 747.538 4.18015 0.73916 0
M  V30 8088 C 745.445 5.8422 -0.918747 0
M  V30 8089 H 744.375 0.7529 0.040709 0
M  V30 8090 H 747.026 1.736 -0.594589 0
M  V30 8091 H 745.408 3.83589 0.983621 0
M  V30 8092 H 746.582 4.22059 -1.84939 0
M  V30 8093 H 744.897 3.87466 -1.52509 0
M  V30 8094 H 747.494 5.27436 0.878347 0
M  V30 8095 H 747.837 3.78746 1.72793 0
M  V30 8096 H 748.37 3.9778 0.0398469 0
M  V30 8097 H 745.109 6.27944 -1.88059 0
M  V30 8098 H 744.629 5.99493 -0.191801 0
M  V30 8099 H 746.308 6.44382 -0.581405 0
M  V30 8100 N 746.441 0.193421 1.56409 0
M  V30 8101 C 747.669 -0.451438 2.01915 0
M  V30 8102 C 748.084 -1.55306 1.07357 0
M  V30 8103 O 747.441 -1.82333 0.0781512 0
M  V30 8104 C 747.492 -1.00931 3.47124 0
M  V30 8105 O 747.213 0.0483623 4.38073 0
M  V30 8106 C 748.714 -1.73021 4.0814 0
M  V30 8107 H 745.934 -0.113495 0.661332 0
M  V30 8108 H 748.478 0.301636 2.02263 0
M  V30 8109 H 746.633 -1.71277 3.47481 0
M  V30 8110 H 747.047 -0.366644 5.23217 0
M  V30 8111 H 748.521 -2.07289 5.11601 0
M  V30 8112 H 748.998 -2.6333 3.51502 0
M  V30 8113 H 749.604 -1.07264 4.11551 0
M  V30 8114 N 747.919 -1.57396 -0.0801906 0
M  V30 8115 C 749.144 -1.91437 -0.797909 0
M  V30 8116 C 749.569 -0.789075 -1.70749 0
M  V30 8117 O 748.927 0.25857 -1.79447 0
M  V30 8118 C 748.975 -3.24402 -1.57467 0
M  V30 8119 O 748.079 -3.13043 -2.68473 0
M  V30 8120 H 747.42 -0.627109 -0.218243 0
M  V30 8121 H 749.95 -2.04537 -0.050949 0
M  V30 8122 H 749.96 -3.58072 -1.95571 0
M  V30 8123 H 748.635 -4.05884 -0.907229 0
M  V30 8124 H 747.212 -2.90915 -2.33287 0
M  V30 8125 N 749.397 0.351382 -1.53633 0
M  V30 8126 C 750.674 1.10903 -1.6112 0
M  V30 8127 C 751.054 2.06725 -0.427556 0
M  V30 8128 O 750.402 2.20992 0.580916 0
M  V30 8129 C 750.612 1.83561 -2.96827 0
M  V30 8130 C 751.96 2.37587 -3.51906 0
M  V30 8131 O 752.984 1.93669 -2.9895 0
M  V30 8132 O 751.843 3.17913 -4.44515 0
M  V30 8133 H 748.937 0.509558 -0.651368 0
M  V30 8134 H 751.483 0.353504 -1.65977 0
M  V30 8135 H 750.255 1.1371 -3.74414 0
M  V30 8136 H 749.878 2.6599 -2.95525 0
M  V30 8137 N 750.875 1.45233 0.611969 0
M  V30 8138 C 751.822 1.5357 1.72293 0
M  V30 8139 C 752.792 0.381912 1.6165 0
M  V30 8140 O 753.977 0.594765 1.81293 0
M  V30 8141 C 751.117 1.50419 3.10593 0
M  V30 8142 C 750.23 2.76316 3.32074 0
M  V30 8143 C 749.365 2.64866 4.60456 0
M  V30 8144 C 748.404 3.85838 4.7518 0
M  V30 8145 N 747.541 3.72949 5.94856 0
M  V30 8146 H 752.381 2.4848 1.64504 0
M  V30 8147 H 749.918 1.23302 0.802191 0
M  V30 8148 H 751.876 1.4658 3.90602 0
M  V30 8149 H 750.506 0.590621 3.17351 0
M  V30 8150 H 749.558 2.90261 2.45872 0
M  V30 8151 H 750.87 3.66055 3.38829 0
M  V30 8152 H 750.024 2.58969 5.48653 0
M  V30 8153 H 748.763 1.72719 4.56092 0
M  V30 8154 H 747.768 3.92099 3.85407 0
M  V30 8155 H 748.993 4.79045 4.81344 0
M  V30 8156 H 746.939 2.83567 5.91545 0
M  V30 8157 H 746.856 4.56319 6.02751 0
M  V30 8158 H 748.124 3.70976 6.85563 0
M  V30 8159 N 752.353 -0.854086 1.3245 0
M  V30 8160 C 753.283 -1.97827 1.24044 0
M  V30 8161 C 754.264 -1.69646 0.124166 0
M  V30 8162 O 755.449 -1.91687 0.31143 0
M  V30 8163 C 752.579 -3.33673 0.963324 0
M  V30 8164 C 751.533 -3.76207 2.04089 0
M  V30 8165 C 750.859 -5.0969 1.61618 0
M  V30 8166 C 752.159 -3.91612 3.45597 0
M  V30 8167 H 753.853 -2.05118 2.18099 0
M  V30 8168 H 751.399 -0.985489 1.04996 0
M  V30 8169 H 753.352 -4.11871 0.891061 0
M  V30 8170 H 752.076 -3.26597 -0.0128649 0
M  V30 8171 H 750.735 -3.0026 2.10332 0
M  V30 8172 H 750.383 -4.99072 0.627418 0
M  V30 8173 H 750.083 -5.3912 2.33717 0
M  V30 8174 H 751.607 -5.90381 1.55829 0
M  V30 8175 H 753.021 -4.60163 3.4194 0
M  V30 8176 H 751.418 -4.3246 4.16051 0
M  V30 8177 H 752.488 -2.9451 3.85217 0
M  V30 8178 N 753.831 -1.1567 -1.07043 0
M  V30 8179 C 754.761 -0.879348 -2.16309 0
M  V30 8180 C 755.742 0.171311 -1.69235 0
M  V30 8181 O 756.927 0.0250175 -1.94184 0
M  V30 8182 C 754.057 -0.371307 -3.45309 0
M  V30 8183 C 753.011 -1.359 -4.05851 0
M  V30 8184 C 752.337 -0.709678 -5.29969 0
M  V30 8185 C 753.637 -2.72606 -4.45514 0
M  V30 8186 H 755.331 -1.79308 -2.39768 0
M  V30 8187 H 752.877 -0.863558 -1.15233 0
M  V30 8188 H 754.83 -0.164798 -4.21078 0
M  V30 8189 H 753.554 0.577906 -3.21446 0
M  V30 8190 H 752.213 -1.55193 -3.32131 0
M  V30 8191 H 751.861 0.245782 -5.02399 0
M  V30 8192 H 751.561 -1.36886 -5.71433 0
M  V30 8193 H 753.085 -0.513015 -6.08441 0
M  V30 8194 H 754.499 -2.57141 -5.12398 0
M  V30 8195 H 752.896 -3.34927 -4.97939 0
M  V30 8196 H 753.966 -3.28434 -3.56734 0
M  V30 8197 N 755.309 1.25446 -0.953992 0
M  V30 8198 C 756.239 2.28264 -0.491717 0
M  V30 8199 C 757.22 1.63717 0.461617 0
M  V30 8200 O 758.405 1.90821 0.36071 0
M  V30 8201 C 755.535 3.46525 0.231915 0
M  V30 8202 C 754.489 4.23247 -0.636098 0
M  V30 8203 C 753.815 5.34254 0.218238 0
M  V30 8204 C 755.115 4.85971 -1.91389 0
M  V30 8205 H 756.809 2.67183 -1.35106 0
M  V30 8206 H 754.355 1.2844 -0.651095 0
M  V30 8207 H 756.308 4.17576 0.566439 0
M  V30 8208 H 755.032 3.06594 1.12551 0
M  V30 8209 H 753.691 3.53978 -0.953696 0
M  V30 8210 H 753.339 4.90564 1.11156 0
M  V30 8211 H 753.039 5.86501 -0.359232 0
M  V30 8212 H 754.563 6.08138 0.547743 0
M  V30 8213 H 755.977 5.49168 -1.64581 0
M  V30 8214 H 754.374 5.48391 -2.43696 0
M  V30 8215 H 755.444 4.08192 -2.61738 0
M  V30 8216 N 756.787 0.722489 1.40064 0
M  V30 8217 C 757.75 0.0830209 2.2905 0
M  V30 8218 C 758.75 -0.680208 1.45705 0
M  V30 8219 O 759.94 -0.511084 1.66534 0
M  V30 8220 C 757.072 -0.892092 3.29021 0
M  V30 8221 H 758.265 0.866848 2.87099 0
M  V30 8222 H 755.818 0.487556 1.48501 0
M  V30 8223 H 756.553 -1.70273 2.76003 0
M  V30 8224 H 756.338 -0.34761 3.90556 0
M  V30 8225 H 757.828 -1.33648 3.95636 0
M  V30 8226 N 758.265 -1.50454 0.469181 0
M  V30 8227 C 759.511 -2.03248 -0.0787241 0
M  V30 8228 C 759.866 -1.34499 -1.37578 0
M  V30 8229 O 759.159 -0.461173 -1.85967 0
M  V30 8230 C 759.353 -3.55963 -0.320207 0
M  V30 8231 C 759.182 -4.3951 0.951893 0
M  V30 8232 C 757.952 -4.82689 1.49465 0
M  V30 8233 C 760.15 -4.79999 1.84677 0
M  V30 8234 N 758.132 -5.50553 2.71597 0
M  V30 8235 C 759.503 -5.47254 2.91398 0
M  V30 8236 C 761.558 -4.61959 1.85738 0
M  V30 8237 C 760.261 -5.98381 3.99166 0
M  V30 8238 C 762.287 -5.14024 2.92461 0
M  V30 8239 C 761.649 -5.81253 3.97901 0
M  V30 8240 H 757.748 -0.78192 0.0111715 0
M  V30 8241 H 760.332 -1.83986 0.636961 0
M  V30 8242 H 758.503 -3.75174 -1.00493 0
M  V30 8243 H 760.235 -3.95407 -0.862285 0
M  V30 8244 H 756.99 -4.61948 1.0441 0
M  V30 8245 H 757.414 -5.89093 3.33615 0
M  V30 8246 H 762.056 -4.09416 1.05539 0
M  V30 8247 H 759.774 -6.49961 4.80183 0
M  V30 8248 H 763.36 -5.01897 2.94263 0
M  V30 8249 H 762.24 -6.20814 4.79123 0
M  V30 8250 N 759.743 -0.201713 -1.56304 0
M  V30 8251 C 761.159 0.154025 -1.58855 0
M  V30 8252 C 761.359 1.60516 -1.21807 0
M  V30 8253 O 760.415 2.34193 -0.94393 0
M  V30 8254 C 761.728 -0.154319 -3.00304 0
M  V30 8255 C 763.276 -0.0949578 -3.12856 0
M  V30 8256 C 763.751 -0.376703 -4.56448 0
M  V30 8257 N 765.242 -0.325558 -4.62054 0
M  V30 8258 C 765.977 -0.51732 -5.71062 0
M  V30 8259 N 765.473 -0.769789 -6.8851 0
M  V30 8260 N 767.266 -0.45112 -5.60287 0
M  V30 8261 H 759.417 -1.14858 -1.78666 0
M  V30 8262 H 761.68 -0.458934 -0.829508 0
M  V30 8263 H 761.386 -1.16074 -3.31994 0
M  V30 8264 H 761.26 0.540014 -3.73314 0
M  V30 8265 H 763.647 0.902075 -2.80974 0
M  V30 8266 H 763.728 -0.822468 -2.42217 0
M  V30 8267 H 763.372 -1.37108 -4.89044 0
M  V30 8268 H 763.302 0.371772 -5.25286 0
M  V30 8269 H 765.793 -0.137308 -3.7765 0
M  V30 8270 H 766.106 -0.904744 -7.67486 0
M  V30 8271 H 764.451 -0.806758 -6.90302 0
M  V30 8272 H 767.642 -0.254253 -4.67409 0
M  V30 8273 H 767.815 -0.603982 -6.45179 0
M  V30 8274 N 761.222 1.57436 0.0718424 0
M  V30 8275 C 762.132 2.07039 1.10326 0
M  V30 8276 C 763.148 0.999918 1.424 0
M  V30 8277 O 764.324 1.31462 1.52577 0
M  V30 8278 C 761.389 2.50439 2.39752 0
M  V30 8279 C 760.45 3.71784 2.14651 0
M  V30 8280 C 759.683 4.13104 3.37906 0
M  V30 8281 O 759.906 3.54298 4.47023 0
M  V30 8282 O 758.84 5.05894 3.26121 0
M  V30 8283 H 762.666 2.95239 0.711872 0
M  V30 8284 H 760.251 1.46638 0.28597 0
M  V30 8285 H 762.133 2.78876 3.15921 0
M  V30 8286 H 760.808 1.65368 2.78271 0
M  V30 8287 H 759.715 3.48431 1.36187 0
M  V30 8288 H 761.048 4.57707 1.81012 0
M  V30 8289 N 762.7 -0.34323 1.53817 0
M  V30 8290 C 763.633 -1.44472 1.76644 0
M  V30 8291 C 764.611 -1.50498 0.615556 0
M  V30 8292 O 765.795 -1.6821 0.850751 0
M  V30 8293 C 762.922 -2.82705 1.86536 0
M  V30 8294 C 761.968 -2.94302 3.08688 0
M  V30 8295 S 762.801 -2.60739 4.67735 0
M  V30 8296 C 763.957 -4.01079 4.80506 0
M  V30 8297 H 764.19 -1.24893 2.69794 0
M  V30 8298 H 761.723 -0.538915 1.4469 0
M  V30 8299 H 763.681 -3.62342 1.92921 0
M  V30 8300 H 762.342 -2.9958 0.943975 0
M  V30 8301 H 761.535 -3.95593 3.12286 0
M  V30 8302 H 761.137 -2.22614 3.00531 0
M  V30 8303 H 763.429 -4.95603 4.61935 0
M  V30 8304 H 764.372 -4.02475 5.82597 0
M  V30 8305 H 764.78 -3.89119 4.08958 0
M  V30 8306 N 764.178 -1.45556 -0.604258 0
M  V30 8307 C 765.088 -1.57025 -1.74299 0
M  V30 8308 C 766.104 -0.45456 -1.67958 0
M  V30 8309 O 767.28 -0.715711 -1.88254 0
M  V30 8310 C 764.345 -1.53702 -3.10768 0
M  V30 8311 C 763.406 -2.76335 -3.28538 0
M  V30 8312 C 762.639 -2.73161 -4.58496 0
M  V30 8313 O 762.862 -1.80678 -5.41028 0
M  V30 8314 O 761.796 -3.64409 -4.79051 0
M  V30 8315 H 765.622 -2.53284 -1.67573 0
M  V30 8316 H 763.207 -1.28104 -0.768745 0
M  V30 8317 H 765.089 -1.54468 -3.92068 0
M  V30 8318 H 763.764 -0.605957 -3.17978 0
M  V30 8319 H 762.671 -2.8113 -2.46813 0
M  V30 8320 H 764.004 -3.68578 -3.26207 0
M  V30 8321 N 765.656 0.84705 -1.32902 0
M  V30 8322 C 766.588 1.96308 -1.18304 0
M  V30 8323 C 767.601 1.62386 -0.116082 0
M  V30 8324 O 768.79 1.74713 -0.365751 0
M  V30 8325 C 765.89 3.29556 -0.790305 0
M  V30 8326 C 765.063 3.91668 -1.94717 0
M  V30 8327 C 764.122 5.0326 -1.53674 0
M  V30 8328 O 763.148 5.22847 -2.24989 0
M  V30 8329 N 764.35 5.78852 -0.437075 0
M  V30 8330 H 767.115 2.09369 -2.14441 0
M  V30 8331 H 764.676 1.02233 -1.25539 0
M  V30 8332 H 766.668 4.01624 -0.49799 0
M  V30 8333 H 765.238 3.12497 0.0801286 0
M  V30 8334 H 764.458 3.12292 -2.40557 0
M  V30 8335 H 765.746 4.299 -2.72146 0
M  V30 8336 H 765.144 5.65484 0.156316 0
M  V30 8337 H 763.701 6.51479 -0.204399 0
M  V30 8338 N 767.134 1.16236 1.06428 0
M  V30 8339 C 768.097 0.870163 2.1204 0
M  V30 8340 C 769.097 -0.134239 1.60239 0
M  V30 8341 O 770.287 0.0964932 1.73933 0
M  V30 8342 C 767.419 0.301033 3.39568 0
M  V30 8343 H 768.612 1.8064 2.39394 0
M  V30 8344 H 766.165 0.971116 1.2247 0
M  V30 8345 H 766.9 -0.642948 3.17863 0
M  V30 8346 H 766.685 1.02475 3.78472 0
M  V30 8347 H 768.175 0.114494 4.17443 0
M  V30 8348 N 768.612 -1.24939 0.960631 0
M  V30 8349 C 769.858 -1.93104 0.61958 0
M  V30 8350 C 770.191 -1.74991 -0.84212 0
M  V30 8351 O 769.466 -1.09867 -1.60498 0
M  V30 8352 C 769.749 -3.46326 0.986422 0
M  V30 8353 C 769.602 -3.73638 2.50429 0
M  V30 8354 C 770.921 -4.37067 0.515827 0
M  V30 8355 H 768.04 -0.701311 0.226566 0
M  V30 8356 H 770.682 -1.47442 1.19836 0
M  V30 8357 H 768.832 -3.85348 0.493907 0
M  V30 8358 H 770.504 -3.44217 3.07103 0
M  V30 8359 H 768.747 -3.19035 2.93937 0
M  V30 8360 H 769.418 -4.80815 2.71147 0
M  V30 8361 H 771.894 -4.05381 0.938389 0
M  V30 8362 H 770.77 -5.43022 0.80114 0
M  V30 8363 H 771.031 -4.38224 -0.584171 0
M  V30 8364 N 770.09 -0.729906 -1.39679 0
M  V30 8365 C 771 -0.0880322 -2.34435 0
M  V30 8366 C 772.016 0.727674 -1.58053 0
M  V30 8367 O 773.192 0.657321 -1.90371 0
M  V30 8368 C 770.257 0.812211 -3.37052 0
M  V30 8369 C 769.318 -0.0151681 -4.29297 0
M  V30 8370 C 768.551 0.842202 -5.27013 0
M  V30 8371 O 768.774 2.08108 -5.31081 0
M  V30 8372 O 767.708 0.27357 -6.01278 0
M  V30 8373 H 771.534 -0.869989 -2.90972 0
M  V30 8374 H 769.119 -0.490522 -1.41118 0
M  V30 8375 H 771.001 1.32745 -3.99946 0
M  V30 8376 H 769.676 1.57307 -2.82907 0
M  V30 8377 H 768.583 -0.575811 -3.69642 0
M  V30 8378 H 769.916 -0.738129 -4.86634 0
M  V30 8379 N 771.568 1.50203 -0.477153 0
M  V30 8380 C 772.498 2.31517 0.303646 0
M  V30 8381 C 773.479 1.38696 0.984753 0
M  V30 8382 O 774.664 1.67615 0.980758 0
M  V30 8383 C 771.794 3.18598 1.38249 0
M  V30 8384 C 770.748 4.2002 0.822645 0
M  V30 8385 C 770.074 4.95878 2.00024 0
M  V30 8386 C 771.374 5.22023 -0.170185 0
M  V30 8387 H 773.068 2.97042 -0.375027 0
M  V30 8388 H 770.614 1.42848 -0.181802 0
M  V30 8389 H 772.567 3.74282 1.93625 0
M  V30 8390 H 771.291 2.5097 2.09002 0
M  V30 8391 H 769.95 3.65445 0.290813 0
M  V30 8392 H 769.598 4.24717 2.69489 0
M  V30 8393 H 769.298 5.64487 1.63183 0
M  V30 8394 H 770.822 5.54399 2.55878 0
M  V30 8395 H 772.236 5.72543 0.294606 0
M  V30 8396 H 770.633 5.98386 -0.453181 0
M  V30 8397 H 771.703 4.72396 -1.09408 0
M  V30 8398 N 773.046 0.209999 1.56195 0
M  V30 8399 C 774.286 -0.4268 1.99894 0
M  V30 8400 C 774.65 -1.57763 1.0943 0
M  V30 8401 O 775.851 -2.27964 1.42428 0
M  V30 8402 C 774.122 -0.861188 3.46869 0
M  V30 8403 S 775.681 -1.49372 4.12593 0
M  V30 8404 H 772.499 -0.135922 0.697887 0
M  V30 8405 H 775.101 0.316573 1.9292 0
M  V30 8406 H 773.805 -0.0137653 4.10398 0
M  V30 8407 H 773.336 -1.63766 3.57693 0
M  V30 8408 H 775.351 -2.7827 4.10829 0
M  V30 8409 N 774.524 -1.57472 -0.0634922 0
M  V30 8410 C 775.772 -1.87283 -0.759563 0
M  V30 8411 C 776.093 -0.803135 -1.77693 0
M  V30 8412 O 775.363 0.167293 -1.95184 0
M  V30 8413 H 773.943 -0.691106 -0.283516 0
M  V30 8414 H 776.605 -1.94864 -0.0376091 0
M  V30 8415 H 775.701 -2.85064 -1.27062 0
M  V30 8416 N 776.003 0.335068 -1.53997 0
M  V30 8417 C 777.419 0.678704 -1.4445 0
M  V30 8418 C 777.619 1.92106 -0.608078 0
M  V30 8419 O 776.675 2.52292 -0.102373 0
M  V30 8420 C 777.988 0.863435 -2.88037 0
M  V30 8421 C 779.536 0.961513 -2.97866 0
M  V30 8422 C 780.011 1.1785 -4.42578 0
M  V30 8423 N 781.502 1.2455 -4.46141 0
M  V30 8424 C 782.237 1.43106 -5.55255 0
M  V30 8425 N 781.733 1.5878 -6.74359 0
M  V30 8426 N 783.526 1.45722 -5.42883 0
M  V30 8427 H 775.677 -0.481656 -2.06867 0
M  V30 8428 H 777.94 -0.153615 -0.935471 0
M  V30 8429 H 777.646 0.0219511 -3.51693 0
M  V30 8430 H 777.52 1.76268 -3.33481 0
M  V30 8431 H 779.907 1.79351 -2.34344 0
M  V30 8432 H 779.988 0.0389862 -2.5577 0
M  V30 8433 H 779.632 0.351397 -5.06683 0
M  V30 8434 H 779.562 2.11472 -4.82273 0
M  V30 8435 H 782.053 1.13928 -3.60318 0
M  V30 8436 H 782.366 1.72599 -7.53279 0
M  V30 8437 H 780.711 1.559 -6.77289 0
M  V30 8438 H 783.902 1.33065 -4.48789 0
M  V30 8439 H 784.075 1.59841 -6.27977 0
M  V30 8440 N 777.481 1.45874 0.596531 0
M  V30 8441 C 778.391 1.57947 1.73464 0
M  V30 8442 C 779.407 0.463461 1.67714 0
M  V30 8443 O 780.583 0.725685 1.87872 0
M  V30 8444 C 777.648 1.55348 3.09948 0
M  V30 8445 C 776.709 2.78074 3.27068 0
M  V30 8446 C 775.942 2.75589 4.57041 0
M  V30 8447 O 776.165 1.83545 5.40063 0
M  V30 8448 O 775.099 3.66945 4.77111 0
M  V30 8449 H 778.925 2.54169 1.66228 0
M  V30 8450 H 776.51 1.2851 0.76194 0
M  V30 8451 H 778.392 1.56545 3.91244 0
M  V30 8452 H 777.067 0.622811 3.17652 0
M  V30 8453 H 775.974 2.82435 2.45319 0
M  V30 8454 H 777.307 3.70303 3.24248 0
M  V30 8455 N 778.959 -0.83999 1.33349 0
M  V30 8456 C 779.907 -1.97113 1.23488 0
M  V30 8457 C 780.901 -1.68849 0.136503 0
M  V30 8458 O 782.107 -1.77476 0.300389 0
M  V30 8459 H 778.482 -0.647049 0.383185 0
M  V30 8460 H 780.453 -2.02554 2.19122 0
M  V30 8461 C 779.202 -3.33314 0.989815 0
M  V30 8462 H 778.525 -3.556 1.82726 0
M  V30 8463 H 779.965 -4.12963 0.961123 0
M  V30 8464 C 778.424 -3.35496 -0.307272 0
M  V30 8465 O 778.954 -3.79589 -1.31434 0
M  V30 8466 N 777.16 -2.88669 -0.334414 0
M  V30 8467 H 776.707 -2.5298 0.485659 0
M  V30 8468 H 776.665 -2.90512 -1.20209 0
M  V30 8469 N 780.437 -1.16799 -1.0581 0
M  V30 8470 C 781.347 -0.893492 -2.16919 0
M  V30 8471 C 782.363 0.136061 -1.73467 0
M  V30 8472 O 783.539 -0.0417348 -2.01357 0
M  V30 8473 C 780.604 -0.403763 -3.44341 0
M  V30 8474 C 779.665 -1.49914 -4.02274 0
M  V30 8475 C 778.898 -1.03269 -5.23614 0
M  V30 8476 O 779.121 0.115647 -5.70283 0
M  V30 8477 O 778.055 -1.8231 -5.73626 0
M  V30 8478 H 781.881 -1.82274 -2.42919 0
M  V30 8479 H 779.466 -0.948361 -1.1544 0
M  V30 8480 H 781.348 -0.137874 -4.21174 0
M  V30 8481 H 780.023 0.497413 -3.19855 0
M  V30 8482 H 778.93 -1.81883 -3.26909 0
M  V30 8483 H 780.263 -2.3758 -4.31064 0
M  V30 8484 N 781.915 1.24427 -0.967243 0
M  V30 8485 C 783.161 1.92772 -0.629812 0
M  V30 8486 C 783.494 1.75436 0.832827 0
M  V30 8487 O 782.769 1.10716 1.59913 0
M  V30 8488 C 783.052 3.45798 -1.00477 0
M  V30 8489 C 782.905 3.72304 -2.52407 0
M  V30 8490 C 784.224 4.36787 -0.538999 0
M  V30 8491 H 781.343 0.700099 -0.230282 0
M  V30 8492 H 783.985 1.46805 -1.20616 0
M  V30 8493 H 782.135 3.8508 -0.514336 0
M  V30 8494 H 783.807 3.42584 -3.08924 0
M  V30 8495 H 782.05 3.17472 -2.95625 0
M  V30 8496 H 782.721 4.7937 -2.73693 0
M  V30 8497 H 785.197 4.04877 -0.959874 0
M  V30 8498 H 784.073 5.4259 -0.829926 0
M  V30 8499 H 784.334 4.38527 0.560923 0
M  V30 8500 N 783.393 0.737304 1.3929 0
M  V30 8501 C 784.34 0.0988364 2.30588 0
M  V30 8502 C 785.31 -0.727206 1.49335 0
M  V30 8503 O 786.495 -0.686694 1.78014 0
M  V30 8504 C 783.635 -0.800734 3.35682 0
M  V30 8505 C 782.748 0.0381731 4.31983 0
M  V30 8506 C 781.883 -0.862884 5.24145 0
M  V30 8507 C 780.922 -0.0193639 6.12097 0
M  V30 8508 N 780.059 -0.87648 6.96608 0
M  V30 8509 H 784.899 0.883031 2.84617 0
M  V30 8510 H 782.436 0.447111 1.4014 0
M  V30 8511 H 784.394 -1.33676 3.95205 0
M  V30 8512 H 783.024 -1.55088 2.83103 0
M  V30 8513 H 782.076 0.691641 3.74059 0
M  V30 8514 H 783.388 0.690294 4.94 0
M  V30 8515 H 782.542 -1.46667 5.88705 0
M  V30 8516 H 781.281 -1.54878 4.62454 0
M  V30 8517 H 780.286 0.597202 5.46547 0
M  V30 8518 H 781.511 0.663348 6.75852 0
M  V30 8519 H 779.457 -1.54762 6.37483 0
M  V30 8520 H 779.374 -0.280892 7.55478 0
M  V30 8521 H 780.642 -1.46575 7.65595 0
M  V30 8522 N 784.871 -1.49948 0.485112 0
M  V30 8523 C 785.801 -2.31675 -0.291364 0
M  V30 8524 C 786.782 -1.39216 -0.977383 0
M  V30 8525 O 787.967 -1.68133 -0.971855 0
M  V30 8526 C 785.097 -3.19326 -1.36558 0
M  V30 8527 C 784.051 -4.2045 -0.800359 0
M  V30 8528 C 783.377 -4.96931 -1.97391 0
M  V30 8529 C 784.677 -5.21925 0.197867 0
M  V30 8530 H 786.371 -2.96839 0.390775 0
M  V30 8531 H 783.917 -1.42749 0.189375 0
M  V30 8532 H 785.87 -3.75304 -1.91638 0
M  V30 8533 H 784.594 -2.52074 -2.07668 0
M  V30 8534 H 783.253 -3.65594 -0.271428 0
M  V30 8535 H 782.901 -4.26141 -2.67232 0
M  V30 8536 H 782.601 -5.65344 -1.60187 0
M  V30 8537 H 784.125 -5.55749 -2.52935 0
M  V30 8538 H 785.539 -5.72691 -0.264239 0
M  V30 8539 H 783.936 -5.98138 0.484908 0
M  V30 8540 H 785.006 -4.71809 1.11912 0
M  V30 8541 N 786.349 -0.21828 -1.56081 0
M  V30 8542 C 787.279 0.687922 -2.23136 0
M  V30 8543 C 788.26 1.20357 -1.202 0
M  V30 8544 O 789.445 1.24817 -1.48776 0
M  V30 8545 C 786.575 1.89762 -2.90874 0
M  V30 8546 C 785.529 1.51595 -4.00254 0
M  V30 8547 C 784.855 2.80415 -4.55271 0
M  V30 8548 C 786.155 0.708404 -5.17474 0
M  V30 8549 H 787.849 0.128854 -2.99123 0
M  V30 8550 H 785.395 0.0605354 -1.43873 0
M  V30 8551 H 787.348 2.53699 -3.36474 0
M  V30 8552 H 786.072 2.4816 -2.1233 0
M  V30 8553 H 784.731 0.900058 -3.55379 0
M  V30 8554 H 784.379 3.36951 -3.73461 0
M  V30 8555 H 784.079 2.55613 -5.2909 0
M  V30 8556 H 785.603 3.453 -5.03587 0
M  V30 8557 H 787.017 1.2514 -5.59476 0
M  V30 8558 H 785.414 0.557593 -5.97504 0
M  V30 8559 H 786.484 -0.285679 -4.84058 0
M  V30 8560 N 787.827 1.57504 0.0551401 0
M  V30 8561 C 789.073 1.88334 0.752216 0
M  V30 8562 C 789.406 0.812742 1.76375 0
M  V30 8563 O 788.681 -0.175198 1.93709 0
M  V30 8564 C 788.964 3.29824 1.44528 0
M  V30 8565 C 788.817 4.47553 0.449026 0
M  V30 8566 C 790.136 3.69808 2.38601 0
M  V30 8567 H 787.255 0.684973 0.271995 0
M  V30 8568 H 789.897 1.89994 0.0151895 0
M  V30 8569 H 788.047 3.28539 2.07351 0
M  V30 8570 H 789.719 4.60967 -0.175277 0
M  V30 8571 H 787.962 4.33168 -0.234162 0
M  V30 8572 H 788.633 5.43376 0.971917 0
M  V30 8573 H 791.109 3.72293 1.85842 0
M  V30 8574 H 789.985 4.69665 2.84088 0
M  V30 8575 H 790.246 3.00641 3.24141 0
M  V30 8576 N 789.305 -0.326896 1.54172 0
M  V30 8577 C 790.215 -1.42525 1.86343 0
M  V30 8578 C 791.231 -1.56764 0.75505 0
M  V30 8579 O 792.407 -1.71924 1.04901 0
M  V30 8580 C 789.472 -2.77286 2.08119 0
M  V30 8581 C 788.533 -2.7225 3.31931 0
M  V30 8582 C 787.766 -4.00584 3.52659 0
M  V30 8583 O 787.989 -4.98686 2.76891 0
M  V30 8584 O 786.923 -4.04045 4.46129 0
M  V30 8585 H 790.749 -1.18249 2.79734 0
M  V30 8586 H 788.334 -0.520614 1.40036 0
M  V30 8587 H 790.216 -3.57065 2.23791 0
M  V30 8588 H 788.891 -3.01459 1.17917 0
M  V30 8589 H 787.798 -1.91033 3.21647 0
M  V30 8590 H 789.131 -2.53032 4.2218 0
M  V30 8591 N 790.784 -1.46188 -0.588786 0
M  V30 8592 C 792.2 -1.31009 -0.911524 0
M  V30 8593 C 792.4 -0.277017 -1.99587 0
M  V30 8594 O 791.456 0.322532 -2.50432 0
M  V30 8595 C 792.769 -2.69459 -1.33463 0
M  V30 8596 C 794.317 -2.77502 -1.44782 0
M  V30 8597 C 794.792 -4.1652 -1.90461 0
M  V30 8598 N 796.283 -4.18907 -1.97665 0
M  V30 8599 C 797.018 -5.23359 -2.34271 0
M  V30 8600 N 796.514 -6.38143 -2.69714 0
M  V30 8601 N 798.307 -5.10723 -2.34774 0
M  V30 8602 H 790.458 -2.12016 0.127614 0
M  V30 8603 H 792.721 -0.947984 -0.00557599 0
M  V30 8604 H 792.427 -3.46336 -0.611929 0
M  V30 8605 H 792.301 -2.99165 -2.2974 0
M  V30 8606 H 794.688 -2.00917 -2.1614 0
M  V30 8607 H 794.769 -2.51488 -0.467724 0
M  V30 8608 H 794.413 -4.93597 -1.19684 0
M  V30 8609 H 794.343 -4.39937 -2.89418 0
M  V30 8610 H 796.834 -3.36084 -1.72789 0
M  V30 8611 H 797.147 -7.13624 -2.96582 0
M  V30 8612 H 795.492 -6.41514 -2.67366 0
M  V30 8613 H 798.683 -4.20088 -2.06503 0
M  V30 8614 H 798.856 -5.9224 -2.62975 0
M  V30 8615 N 792.262 0.832906 -1.33792 0
M  V30 8616 C 793.195 1.94788 -1.18882 0
M  V30 8617 C 794.173 1.62389 -0.0828426 0
M  V30 8618 O 795.357 1.86886 -0.246175 0
M  V30 8619 C 792.484 3.28506 -0.824728 0
M  V30 8620 C 791.53 3.79872 -1.93905 0
M  V30 8621 S 792.363 4.00832 -3.55097 0
M  V30 8622 C 793.519 5.37492 -3.20708 0
M  V30 8623 H 793.752 2.07137 -2.13264 0
M  V30 8624 H 791.285 0.987362 -1.18704 0
M  V30 8625 H 793.243 4.05769 -0.621442 0
M  V30 8626 H 791.904 3.13939 0.100587 0
M  V30 8627 H 791.097 4.76647 -1.6378 0
M  V30 8628 H 790.699 3.09524 -2.09931 0
M  V30 8629 H 792.991 6.20544 -2.71903 0
M  V30 8630 H 793.934 5.72593 -4.16584 0
M  V30 8631 H 794.342 5.02529 -2.57148 0
M  V30 8632 N 793.74 1.17359 1.05189 0
M  V30 8633 C 794.673 0.833768 2.12423 0
M  V30 8634 C 795.651 -0.19945 1.61372 0
M  V30 8635 O 796.835 -0.080979 1.88326 0
M  V30 8636 C 793.962 0.243745 3.37822 0
M  V30 8637 C 793.008 1.25235 4.07699 0
M  V30 8638 S 793.841 2.80368 4.56239 0
M  V30 8639 C 794.997 2.22846 5.84885 0
M  V30 8640 H 795.23 1.74197 2.40921 0
M  V30 8641 H 792.763 0.998242 1.1779 0
M  V30 8642 H 794.721 -0.0901915 4.10401 0
M  V30 8643 H 793.382 -0.642396 3.07461 0
M  V30 8644 H 792.575 0.788168 4.97799 0
M  V30 8645 H 792.177 1.53194 3.41185 0
M  V30 8646 H 794.469 1.60403 6.58238 0
M  V30 8647 H 795.412 3.112 6.3605 0
M  V30 8648 H 795.82 1.66296 5.39449 0
M  V30 8649 N 795.218 -1.23913 0.973828 0
M  V30 8650 C 796.181 -2.23367 0.51378 0
M  V30 8651 C 797.181 -1.55923 -0.39302 0
M  V30 8652 O 798.371 -1.73187 -0.187626 0
M  V30 8653 C 795.503 -3.39944 -0.255152 0
M  V30 8654 H 796.696 -2.65581 1.39307 0
M  V30 8655 H 794.249 -1.36632 0.759039 0
M  V30 8656 H 794.984 -3.03177 -1.15127 0
M  V30 8657 H 794.769 -3.90098 0.395673 0
M  V30 8658 H 796.259 -4.13749 -0.565842 0
M  V30 8659 N 796.696 -0.74468 -1.38897 0
M  V30 8660 C 797.626 -0.126355 -2.33158 0
M  V30 8661 C 798.607 0.713517 -1.54412 0
M  V30 8662 O 799.792 0.656523 -1.82766 0
M  V30 8663 C 796.922 0.774375 -3.38557 0
M  V30 8664 C 795.876 0.0379214 -4.27983 0
M  V30 8665 C 795.202 1.05631 -5.24162 0
M  V30 8666 C 796.502 -1.12523 -5.10035 0
M  V30 8667 H 798.196 -0.913744 -2.85116 0
M  V30 8668 H 795.742 -0.440847 -1.37086 0
M  V30 8669 H 797.695 1.21655 -4.03458 0
M  V30 8670 H 796.419 1.59399 -2.85061 0
M  V30 8671 H 795.078 -0.384733 -3.64576 0
M  V30 8672 H 794.726 1.86975 -4.66958 0
M  V30 8673 H 794.426 0.568261 -5.84846 0
M  V30 8674 H 795.95 1.49799 -5.9194 0
M  V30 8675 H 797.364 -0.761037 -5.68226 0
M  V30 8676 H 795.761 -1.54355 -5.79909 0
M  V30 8677 H 796.831 -1.94237 -4.44297 0
M  V30 8678 N 798.174 1.49689 -0.493057 0
M  V30 8679 C 799.106 2.26867 0.326195 0
M  V30 8680 C 800.119 1.33083 0.937697 0
M  V30 8681 O 801.308 1.58427 0.822382 0
M  V30 8682 C 798.408 3.0519 1.4735 0
M  V30 8683 C 797.581 4.26491 0.970767 0
M  V30 8684 C 796.64 4.86926 1.99473 0
M  V30 8685 O 795.666 5.47221 1.56647 0
M  V30 8686 N 796.868 4.75871 3.32456 0
M  V30 8687 H 799.633 2.97816 -0.335547 0
M  V30 8688 H 797.194 1.58602 -0.325129 0
M  V30 8689 H 799.186 3.42496 2.15589 0
M  V30 8690 H 797.756 2.369 2.03954 0
M  V30 8691 H 796.976 3.94036 0.113529 0
M  V30 8692 H 798.264 5.05092 0.613156 0
M  V30 8693 H 797.662 4.2797 3.69944 0
M  V30 8694 H 796.219 5.17383 3.96431 0
M  V30 8695 N 799.652 0.226554 1.55963 0
M  V30 8696 C 800.88 -0.408507 2.02827 0
M  V30 8697 C 801.295 -1.52994 1.10627 0
M  V30 8698 O 800.652 -1.82126 0.116809 0
M  V30 8699 C 800.703 -0.93545 3.49187 0
M  V30 8700 O 800.424 0.141273 4.37872 0
M  V30 8701 C 801.925 -1.64325 4.11719 0
M  V30 8702 H 799.145 -0.099442 0.66359 0
M  V30 8703 H 801.689 0.344471 2.01578 0
M  V30 8704 H 799.844 -1.63868 3.51036 0
M  V30 8705 H 800.258 -0.25558 5.23877 0
M  V30 8706 H 801.732 -1.9639 5.15883 0
M  V30 8707 H 802.209 -2.55815 3.57009 0
M  V30 8708 H 802.815 -0.9851 4.13734 0
M  V30 8709 N 801.13 -1.57531 -0.0467866 0
M  V30 8710 C 802.407 -1.79568 -0.775536 0
M  V30 8711 C 802.787 -0.820322 -1.94509 0
M  V30 8712 O 802.135 0.14134 -2.28062 0
M  V30 8713 C 802.345 -3.26789 -1.22516 0
M  V30 8714 C 803.693 -3.91299 -1.64835 0
M  V30 8715 O 804.717 -3.30831 -1.3202 0
M  V30 8716 O 803.576 -4.97727 -2.25677 0
M  V30 8717 H 800.67 -0.737817 -0.373572 0
M  V30 8718 H 803.216 -1.69682 -0.0249302 0
M  V30 8719 H 801.988 -3.89357 -0.389446 0
M  V30 8720 H 801.611 -3.41496 -2.03633 0
M  V30 8721 N 802.608 0.318715 -1.54344 0
M  V30 8722 C 803.857 1.05363 -1.71993 0
M  V30 8723 C 804.17 1.89018 -0.503155 0
M  V30 8724 O 805.376 2.65639 -0.561085 0
M  V30 8725 C 803.832 1.92281 -3.0423 0
M  V30 8726 C 803.44 1.13715 -4.33328 0
M  V30 8727 C 805.184 2.65479 -3.31242 0
M  V30 8728 C 803.091 1.99806 -5.56625 0
M  V30 8729 H 802.021 0.397081 -0.64097 0
M  V30 8730 H 804.672 0.311598 -1.80835 0
M  V30 8731 H 803.054 2.70402 -2.89307 0
M  V30 8732 H 804.228 0.403305 -4.59032 0
M  V30 8733 H 802.543 0.521769 -4.13118 0
M  V30 8734 H 805.14 3.30209 -4.20555 0
M  V30 8735 H 805.483 3.33374 -2.49334 0
M  V30 8736 H 806.016 1.94417 -3.47054 0
M  V30 8737 H 802.755 1.36411 -6.41149 0
M  V30 8738 H 802.275 2.70911 -5.35133 0
M  V30 8739 H 803.954 2.58277 -5.93213 0
M  V30 8740 N 804.086 1.46499 0.581025 0
M  V30 8741 C 805.332 1.52121 1.34116 0
M  V30 8742 C 805.665 0.173031 1.93428 0
M  V30 8743 O 804.94 -0.815729 1.76568 0
M  V30 8744 C 805.223 2.62108 2.46924 0
M  V30 8745 C 805.076 4.06462 1.92636 0
M  V30 8746 C 806.395 2.68167 3.48962 0
M  V30 8747 H 803.514 0.5538 0.486287 0
M  V30 8748 H 806.156 1.78443 0.652538 0
M  V30 8749 H 804.306 2.39794 3.05665 0
M  V30 8750 H 805.978 4.40068 1.3834 0
M  V30 8751 H 804.221 4.15862 1.23455 0
M  V30 8752 H 804.892 4.79152 2.74076 0
M  V30 8753 H 807.368 2.8823 3.00104 0
M  V30 8754 H 806.244 3.46942 4.2535 0
M  V30 8755 H 806.505 1.74284 4.06297 0
M  V30 8756 N 805.565 -0.825799 1.34232 0
M  V30 8757 C 806.842 -1.56741 1.17011 0
M  V30 8758 C 807.222 -2.09512 -0.258425 0
M  V30 8759 O 806.57 -1.90664 -1.25935 0
M  V30 8760 C 806.78 -2.69104 2.22225 0
M  V30 8761 C 808.128 -3.37947 2.57055 0
M  V30 8762 O 809.152 -2.79358 2.20992 0
M  V30 8763 O 808.011 -4.43743 3.1899 0
M  V30 8764 H 805.105 -0.69163 0.453405 0
M  V30 8765 H 807.651 -0.867422 1.45856 0
M  V30 8766 H 806.423 -2.27844 3.18124 0
M  V30 8767 H 806.046 -3.46756 1.94541 0
M  V30 8768 N 807.043 -1.17915 -1.04565 0
M  V30 8769 C 807.973 -0.925033 -2.14395 0
M  V30 8770 C 808.954 0.135375 -1.6956 0
M  V30 8771 O 810.139 -0.0161774 -1.94193 0
M  V30 8772 C 807.269 -0.444469 -3.44444 0
M  V30 8773 C 806.223 -1.44478 -4.02877 0
M  V30 8774 C 805.549 -0.821933 -5.28345 0
M  V30 8775 C 806.849 -2.81995 -4.39632 0
M  V30 8776 H 808.543 -1.84354 -2.35911 0
M  V30 8777 H 806.089 -0.887806 -1.13375 0
M  V30 8778 H 808.042 -0.254078 -4.20633 0
M  V30 8779 H 806.766 0.509592 -3.226 0
M  V30 8780 H 805.425 -1.62203 -3.28764 0
M  V30 8781 H 805.073 0.139161 -5.02807 0
M  V30 8782 H 804.773 -1.48976 -5.68401 0
M  V30 8783 H 806.297 -0.641959 -6.07216 0
M  V30 8784 H 807.711 -2.67952 -5.06828 0
M  V30 8785 H 806.108 -3.45414 -4.90723 0
M  V30 8786 H 807.178 -3.35927 -3.49687 0
M  V30 8787 N 808.521 1.23394 -0.980386 0
M  V30 8788 C 809.453 2.24146 -0.478657 0
M  V30 8789 C 810.466 1.57303 0.419492 0
M  V30 8790 O 811.655 1.77094 0.223631 0
M  V30 8791 C 808.755 3.3732 0.326913 0
M  V30 8792 C 807.928 4.33744 -0.56436 0
M  V30 8793 C 806.987 5.25866 0.187358 0
M  V30 8794 O 806.013 5.67626 -0.423019 0
M  V30 8795 N 807.215 5.61492 1.47335 0
M  V30 8796 H 809.98 2.67826 -1.34496 0
M  V30 8797 H 807.541 1.37566 -0.853653 0
M  V30 8798 H 809.533 3.95926 0.838148 0
M  V30 8799 H 808.103 2.92823 1.09422 0
M  V30 8800 H 807.323 3.73641 -1.25642 0
M  V30 8801 H 808.611 4.95123 -1.17177 0
M  V30 8802 H 808.009 5.29514 1.99077 0
M  V30 8803 H 806.566 6.2257 1.93002 0
M  V30 8804 N 809.999 0.752036 1.385 0
M  V30 8805 C 811.415 0.42946 1.53713 0
M  V30 8806 C 811.615 -1.0576 1.71514 0
M  V30 8807 O 810.671 -1.84366 1.72527 0
M  V30 8808 C 811.984 1.22735 2.74511 0
M  V30 8809 C 813.532 1.21727 2.8836 0
M  V30 8810 C 814.007 1.99809 4.12117 0
M  V30 8811 N 815.498 1.97062 4.19191 0
M  V30 8812 C 816.233 2.54274 5.13938 0
M  V30 8813 N 815.729 3.20193 6.14368 0
M  V30 8814 N 817.522 2.44212 5.06277 0
M  V30 8815 H 809.673 1.71581 1.25195 0
M  V30 8816 H 811.936 0.727293 0.60807 0
M  V30 8817 H 811.642 2.28032 2.67758 0
M  V30 8818 H 811.516 0.843186 3.67655 0
M  V30 8819 H 813.903 0.172367 2.94596 0
M  V30 8820 H 813.984 1.64094 1.96232 0
M  V30 8821 H 813.628 3.0431 4.06642 0
M  V30 8822 H 813.558 1.54837 5.03322 0
M  V30 8823 H 816.049 1.49054 3.47263 0
M  V30 8824 H 816.362 3.61272 6.83156 0
M  V30 8825 H 814.707 3.24287 6.14705 0
M  V30 8826 H 817.898 1.92343 4.26757 0
M  V30 8827 H 818.071 2.89096 5.79937 0
M  V30 8828 N 811.477 -1.49425 0.500989 0
M  V30 8829 C 812.702 -2.07356 -0.0425154 0
M  V30 8830 C 813.127 -1.35887 -1.30063 0
M  V30 8831 O 812.485 -0.41561 -1.76472 0
M  V30 8832 C 812.533 -3.59518 -0.279188 0
M  V30 8833 O 811.637 -3.89542 -1.3539 0
M  V30 8834 H 810.978 -0.663482 0.0262207 0
M  V30 8835 H 813.508 -1.92231 0.700607 0
M  V30 8836 H 813.518 -4.04791 -0.5107 0
M  V30 8837 H 812.193 -4.10946 0.640009 0
M  V30 8838 H 810.77 -3.56079 -1.10734 0
M  V30 8839 N 812.955 -0.234822 -1.55841 0
M  V30 8840 C 814.366 0.270588 -1.84729 0
M  V30 8841 C 814.717 1.58494 -1.15646 0
M  V30 8842 O 813.842 2.12071 -0.430667 0
M  V30 8843 C 814.437 0.497733 -3.35124 0
M  V30 8844 C 812.996 0.947428 -3.64281 0
M  V30 8845 C 812.143 0.01787 -2.77294 0
M  V30 8846 H 815.094 -0.457691 -1.51957 0
M  V30 8847 H 815.115 1.34199 -3.56049 0
M  V30 8848 H 814.627 -0.459037 -3.85376 0
M  V30 8849 H 812.728 1.91709 -3.19497 0
M  V30 8850 H 812.841 0.812651 -4.72158 0
M  V30 8851 H 811.205 0.527071 -2.49187 0
M  V30 8852 H 811.988 -0.934056 -3.30349 0
M  V30 8853 N 814.433 1.57553 0.0384317 0
M  V30 8854 C 815.366 2.01307 1.07475 0
M  V30 8855 C 816.344 0.895717 1.35704 0
M  V30 8856 O 817.528 1.16079 1.48519 0
M  V30 8857 C 814.655 2.37817 2.41165 0
M  V30 8858 C 813.701 3.599 2.28855 0
M  V30 8859 S 814.534 5.09418 1.65086 0
M  V30 8860 C 815.69 5.49162 3.00286 0
M  V30 8861 H 815.923 2.88892 0.702034 0
M  V30 8862 H 813.456 1.52394 0.248103 0
M  V30 8863 H 815.414 2.59524 3.18053 0
M  V30 8864 H 814.075 1.507 2.75587 0
M  V30 8865 H 813.268 3.83071 3.27525 0
M  V30 8866 H 812.87 3.37996 1.60109 0
M  V30 8867 H 815.162 5.49274 3.96617 0
M  V30 8868 H 816.105 6.49586 2.81858 0
M  V30 8869 H 816.513 4.76653 3.02427 0
M  V30 8870 N 815.911 -0.310526 1.54511 0
M  V30 8871 C 817.159 -1.04484 1.72996 0
M  V30 8872 C 817.48 -1.88118 0.513479 0
M  V30 8873 O 816.75 -1.90119 -0.472384 0
M  V30 8874 H 815.33 -0.388747 0.637875 0
M  V30 8875 H 817.992 -0.343811 1.91844 0
M  V30 8876 H 817.088 -1.70341 2.61515 0
M  V30 8877 N 817.389 -1.46805 -0.573248 0
M  V30 8878 C 818.805 -1.31969 -0.897577 0
M  V30 8879 C 819.005 -0.298171 -1.99282 0
M  V30 8880 O 818.061 0.295953 -2.5076 0
M  V30 8881 C 819.374 -2.70859 -1.30598 0
M  V30 8882 C 820.922 -2.79022 -1.4183 0
M  V30 8883 C 821.397 -4.18516 -1.86033 0
M  V30 8884 N 822.888 -4.2098 -1.9321 0
M  V30 8885 C 823.623 -5.25814 -2.28707 0
M  V30 8886 N 823.119 -6.40968 -2.6293 0
M  V30 8887 N 824.912 -5.13184 -2.29343 0
M  V30 8888 H 817.063 -2.11869 0.150094 0
M  V30 8889 H 819.326 -0.947989 0.00447895 0
M  V30 8890 H 819.032 -3.46965 -0.575161 0
M  V30 8891 H 818.906 -3.01585 -2.26554 0
M  V30 8892 H 821.293 -2.03198 -2.13996 0
M  V30 8893 H 821.374 -2.51969 -0.441024 0
M  V30 8894 H 821.018 -4.94839 -1.14442 0
M  V30 8895 H 820.948 -4.42982 -2.84735 0
M  V30 8896 H 823.439 -3.37898 -1.69214 0
M  V30 8897 H 823.752 -7.16729 -2.88996 0
M  V30 8898 H 822.097 -6.44314 -2.60547 0
M  V30 8899 H 825.288 -4.22255 -2.02036 0
M  V30 8900 H 825.461 -5.94996 -2.56679 0
M  V30 8901 N 818.867 0.818669 -1.34668 0
M  V30 8902 C 819.814 1.92983 -1.26595 0
M  V30 8903 C 820.784 1.65506 -0.140315 0
M  V30 8904 O 821.969 1.88063 -0.322005 0
M  V30 8905 C 819.109 3.2932 -1.03163 0
M  V30 8906 C 818.222 3.69061 -2.24539 0
M  V30 8907 C 817.357 4.94368 -1.94355 0
M  V30 8908 C 816.396 5.26702 -3.11851 0
M  V30 8909 N 815.533 6.43187 -2.81522 0
M  V30 8910 H 820.373 1.99219 -2.2162 0
M  V30 8911 H 817.91 0.974612 -1.1018 0
M  V30 8912 H 819.868 4.07897 -0.87613 0
M  V30 8913 H 818.498 3.22584 -0.118045 0
M  V30 8914 H 817.55 2.85842 -2.50995 0
M  V30 8915 H 818.862 3.88924 -3.12313 0
M  V30 8916 H 818.016 5.80742 -1.75566 0
M  V30 8917 H 816.755 4.76515 -1.03848 0
M  V30 8918 H 815.76 4.38823 -3.31231 0
M  V30 8919 H 816.985 5.46492 -4.03142 0
M  V30 8920 H 814.931 6.26783 -1.93596 0
M  V30 8921 H 814.848 6.63243 -3.62829 0
M  V30 8922 H 816.116 7.32621 -2.66247 0
M  V30 8923 N 820.346 1.18468 1.03938 0
M  V30 8924 C 821.278 0.870615 2.12021 0
M  V30 8925 C 822.291 -0.132318 1.62261 0
M  V30 8926 O 823.48 0.0956901 1.78243 0
M  V30 8927 C 820.58 0.279727 3.37744 0
M  V30 8928 C 819.753 1.32863 4.16733 0
M  V30 8929 C 818.812 0.753204 5.20781 0
M  V30 8930 O 817.838 1.42825 5.5099 0
M  V30 8931 N 819.04 -0.448664 5.78764 0
M  V30 8932 H 821.805 1.80091 2.39556 0
M  V30 8933 H 819.366 1.08524 1.20142 0
M  V30 8934 H 821.358 -0.118829 4.04526 0
M  V30 8935 H 819.928 -0.554621 3.07641 0
M  V30 8936 H 819.148 1.90245 3.45254 0
M  V30 8937 H 820.436 2.03574 4.66299 0
M  V30 8938 H 819.834 -1.01481 5.56523 0
M  V30 8939 H 818.391 -0.789125 6.47005 0
M  V30 8940 N 821.824 -1.22873 0.986916 0
M  V30 8941 C 823.072 -1.91084 0.658121 0
M  V30 8942 C 823.393 -1.77304 -0.811675 0
M  V30 8943 O 822.663 -1.15649 -1.58121 0
M  V30 8944 H 821.243 -0.707251 0.240427 0
M  V30 8945 H 823.905 -1.49357 1.25213 0
M  V30 8946 H 823.001 -2.98373 0.915428 0
M  V30 8947 N 823.302 -0.75937 -1.38099 0
M  V30 8948 C 824.55 -0.317485 -1.99591 0
M  V30 8949 C 824.871 1.10628 -1.60581 0
M  V30 8950 O 824.141 1.7575 -0.865378 0
M  V30 8951 H 822.721 -0.114397 -0.738189 0
M  V30 8952 H 825.383 -0.974749 -1.68774 0
M  V30 8953 H 824.479 -0.385227 -3.09713 0
M  V30 8954 N 824.78 1.49157 -0.508906 0
M  V30 8955 C 826.008 2.06879 0.0293734 0
M  V30 8956 C 826.423 1.36823 1.30095 0
M  V30 8957 O 825.78 0.449034 1.7689 0
M  V30 8958 C 825.831 3.60423 0.278791 0
M  V30 8959 O 825.552 4.27844 -0.942389 0
M  V30 8960 C 827.053 4.34881 0.859825 0
M  V30 8961 H 824.273 0.67057 -0.0240184 0
M  V30 8962 H 826.817 1.91834 -0.708526 0
M  V30 8963 H 824.972 3.75145 0.966689 0
M  V30 8964 H 825.386 5.19671 -0.710097 0
M  V30 8965 H 826.86 5.43161 0.983884 0
M  V30 8966 H 827.337 3.9789 1.85958 0
M  V30 8967 H 827.943 4.24785 0.209152 0
M  V30 8968 N 826.258 0.243083 1.55714 0
M  V30 8969 C 827.188 -0.652336 2.24203 0
M  V30 8970 C 828.169 -1.1843 1.221 0
M  V30 8971 O 829.354 -1.22435 1.50743 0
M  V30 8972 C 826.484 -1.85111 2.93856 0
M  V30 8973 C 825.438 -1.45208 4.02615 0
M  V30 8974 C 824.764 -2.73137 4.59674 0
M  V30 8975 C 826.064 -0.625988 5.18535 0
M  V30 8976 H 827.758 -0.0812504 2.9929 0
M  V30 8977 H 825.304 -0.0376388 1.43951 0
M  V30 8978 H 827.257 -2.48314 3.40468 0
M  V30 8979 H 825.981 -2.44751 2.16251 0
M  V30 8980 H 824.64 -0.843406 3.56766 0
M  V30 8981 H 824.288 -3.30967 3.78774 0
M  V30 8982 H 823.988 -2.47163 5.33089 0
M  V30 8983 H 825.512 -3.37245 5.09017 0
M  V30 8984 H 826.926 -1.16223 5.61396 0
M  V30 8985 H 825.323 -0.462465 5.98315 0
M  V30 8986 H 826.393 0.362652 4.83542 0
M  V30 8987 N 827.736 -1.57571 -0.0300757 0
M  V30 8988 C 829.013 -1.80381 -0.756447 0
M  V30 8989 C 829.393 -0.840906 -1.93628 0
M  V30 8990 O 828.741 0.117143 -2.282 0
M  V30 8991 C 828.951 -3.2807 -1.19043 0
M  V30 8992 C 830.299 -3.93025 -1.60676 0
M  V30 8993 O 831.323 -3.32213 -1.28503 0
M  V30 8994 O 830.182 -5.00092 -2.20386 0
M  V30 8995 H 827.276 -0.741737 -0.365725 0
M  V30 8996 H 829.822 -1.69699 -0.00693177 0
M  V30 8997 H 828.594 -3.89748 -0.348128 0
M  V30 8998 H 828.217 -3.43637 -1.99999 0
M  V30 8999 N 829.214 0.302327 -1.54673 0
M  V30 9000 C 830.491 1.05721 -1.64567 0
M  V30 9001 C 830.871 2.0526 -0.493108 0
M  V30 9002 O 830.219 2.22729 0.510315 0
M  V30 9003 C 830.429 1.74025 -3.02517 0
M  V30 9004 C 831.777 2.26271 -3.59286 0
M  V30 9005 O 832.801 1.8406 -3.0496 0
M  V30 9006 O 831.66 3.0361 -4.54404 0
M  V30 9007 H 828.754 0.488577 -0.667249 0
M  V30 9008 H 831.3 0.300521 -1.67018 0
M  V30 9009 H 830.072 1.0174 -3.77842 0
M  V30 9010 H 829.695 2.56454 -3.03838 0
M  V30 9011 N 830.692 1.47107 0.565454 0
M  V30 9012 C 831.622 1.61846 1.68309 0
M  V30 9013 C 832.603 0.468159 1.63531 0
M  V30 9014 O 833.788 0.696504 1.8128 0
M  V30 9015 C 830.918 1.62474 3.06952 0
M  V30 9016 C 829.872 2.76649 3.26572 0
M  V30 9017 C 829.198 2.62345 4.65917 0
M  V30 9018 C 830.498 4.18319 3.12741 0
M  V30 9019 H 832.192 2.55407 1.5623 0
M  V30 9020 H 829.738 1.22916 0.750179 0
M  V30 9021 H 831.691 1.71378 3.84977 0
M  V30 9022 H 830.415 0.654692 3.19971 0
M  V30 9023 H 829.074 2.67242 2.50952 0
M  V30 9024 H 828.722 1.63386 4.75725 0
M  V30 9025 H 828.422 3.38936 4.79996 0
M  V30 9026 H 829.946 2.73165 5.46089 0
M  V30 9027 H 831.36 4.28745 3.80593 0
M  V30 9028 H 829.757 4.95632 3.38333 0
M  V30 9029 H 830.827 4.37263 2.09592 0
M  V30 9030 N 832.17 -0.811516 1.35101 0
M  V30 9031 C 833.08 -1.95475 1.29718 0
M  V30 9032 C 834.096 -1.72813 0.202909 0
M  V30 9033 O 835.272 -1.96725 0.431414 0
M  V30 9034 C 832.337 -3.29975 1.06385 0
M  V30 9035 C 831.398 -3.65566 2.25077 0
M  V30 9036 C 830.631 -4.93648 2.02848 0
M  V30 9037 O 830.854 -5.617 0.992442 0
M  V30 9038 O 829.788 -5.27384 2.90087 0
M  V30 9039 H 833.614 -2.02961 2.25921 0
M  V30 9040 H 831.199 -0.948583 1.15422 0
M  V30 9041 H 833.081 -4.10506 0.951999 0
M  V30 9042 H 831.756 -3.2343 0.132294 0
M  V30 9043 H 830.663 -2.85432 2.41825 0
M  V30 9044 H 831.996 -3.7681 3.16662 0
M  V30 9045 N 833.648 -1.19017 -1.03309 0
M  V30 9046 C 834.558 -0.939303 -2.14975 0
M  V30 9047 C 835.574 0.0992359 -1.73717 0
M  V30 9048 O 836.75 -0.0844362 -2.01223 0
M  V30 9049 C 833.815 -0.476712 -3.43407 0
M  V30 9050 C 832.876 -1.58413 -3.99003 0
M  V30 9051 C 832.109 -1.14352 -5.21305 0
M  V30 9052 O 832.332 -0.00534408 -5.704 0
M  V30 9053 O 831.266 -1.94436 -5.6963 0
M  V30 9054 H 835.092 -1.87386 -2.38998 0
M  V30 9055 H 832.677 -0.972635 -1.13403 0
M  V30 9056 H 834.559 -0.22718 -4.20787 0
M  V30 9057 H 833.234 0.429455 -3.20839 0
M  V30 9058 H 832.141 -1.88777 -3.22977 0
M  V30 9059 H 833.474 -2.4667 -4.25928 0
M  V30 9060 N 835.127 1.22348 -0.993418 0
M  V30 9061 C 836.059 2.23626 -0.502404 0
M  V30 9062 C 837.072 1.57739 0.402784 0
M  V30 9063 O 838.261 1.77321 0.204835 0
M  V30 9064 C 835.361 3.37647 0.291118 0
M  V30 9065 C 834.534 4.33121 -0.610332 0
M  V30 9066 C 833.593 5.26035 0.131572 0
M  V30 9067 O 832.619 5.67145 -0.483199 0
M  V30 9068 N 833.821 5.63023 1.41371 0
M  V30 9069 H 836.586 2.66385 -1.37329 0
M  V30 9070 H 834.147 1.36653 -0.868196 0
M  V30 9071 H 836.139 3.96792 0.796107 0
M  V30 9072 H 834.709 2.93967 1.0631 0
M  V30 9073 H 833.929 3.72287 -1.29598 0
M  V30 9074 H 835.217 4.93853 -1.22422 0
M  V30 9075 H 834.615 5.31596 1.93449 0
M  V30 9076 H 833.172 6.24582 1.86388 0
M  V30 9077 N 836.605 0.766683 1.37694 0
M  V30 9078 C 837.568 0.155849 2.2867 0
M  V30 9079 C 838.568 -0.633509 1.47795 0
M  V30 9080 O 839.758 -0.457844 1.68076 0
M  V30 9081 C 836.89 -0.786965 3.31692 0
M  V30 9082 H 838.083 0.957748 2.84196 0
M  V30 9083 H 835.636 0.534554 1.46875 0
M  V30 9084 H 836.371 -1.61406 2.8128 0
M  V30 9085 H 836.156 -0.223182 3.91464 0
M  V30 9086 H 837.646 -1.20994 3.99688 0
M  V30 9087 N 838.083 -1.48885 0.516809 0
M  V30 9088 C 839.499 -1.58651 0.173788 0
M  V30 9089 C 839.699 -1.52033 -1.32243 0
M  V30 9090 O 838.755 -1.40251 -2.09967 0
M  V30 9091 C 840.068 -2.90816 0.764628 0
M  V30 9092 C 841.616 -3.04316 0.732164 0
M  V30 9093 C 842.091 -4.39123 1.30135 0
M  V30 9094 N 843.582 -4.45656 1.26273 0
M  V30 9095 C 844.317 -5.48446 1.67317 0
M  V30 9096 N 843.813 -6.58258 2.16028 0
M  V30 9097 N 845.606 -5.39251 1.58635 0
M  V30 9098 H 837.757 -1.5143 1.48939 0
M  V30 9099 H 840.02 -0.718243 0.618733 0
M  V30 9100 H 839.726 -3.01275 1.81456 0
M  V30 9101 H 839.6 -3.76473 0.234113 0
M  V30 9102 H 841.987 -2.93478 -0.308975 0
M  V30 9103 H 842.068 -2.20303 1.3 0
M  V30 9104 H 841.712 -4.50714 2.34135 0
M  V30 9105 H 841.642 -5.21801 0.709305 0
M  V30 9106 H 844.133 -3.66879 0.906006 0
M  V30 9107 H 844.446 -7.32811 2.45374 0
M  V30 9108 H 842.791 -6.59257 2.20013 0
M  V30 9109 H 845.982 -4.52354 1.20387 0
M  V30 9110 H 846.155 -6.19229 1.90944 0
M  V30 9111 N 839.561 -0.251338 -1.55583 0
M  V30 9112 C 840.471 0.656978 -2.25213 0
M  V30 9113 C 841.487 1.18966 -1.26977 0
M  V30 9114 O 842.663 1.22499 -1.59862 0
M  V30 9115 C 839.728 1.83527 -2.94141 0
M  V30 9116 C 838.789 1.34162 -4.07798 0
M  V30 9117 C 838.022 2.46375 -4.73429 0
M  V30 9118 O 838.245 3.65205 -4.38157 0
M  V30 9119 O 837.179 2.15881 -5.61853 0
M  V30 9120 H 841.005 0.0936395 -3.03556 0
M  V30 9121 H 838.59 -0.0196638 -1.49387 0
M  V30 9122 H 840.472 2.52279 -3.3754 0
M  V30 9123 H 839.147 2.38614 -2.18735 0
M  V30 9124 H 838.054 0.621249 -3.68906 0
M  V30 9125 H 839.387 0.836779 -4.85035 0
M  V30 9126 N 841.039 1.57585 0.0217189 0
M  V30 9127 C 841.969 2.10073 1.01939 0
M  V30 9128 C 842.95 1.0049 1.37243 0
M  V30 9129 O 844.135 1.28055 1.45999 0
M  V30 9130 C 841.265 2.58618 2.31806 0
M  V30 9131 C 840.219 3.72531 2.10724 0
M  V30 9132 C 839.545 4.07309 3.46415 0
M  V30 9133 C 840.845 5.00672 1.48743 0
M  V30 9134 H 842.539 2.9368 0.582432 0
M  V30 9135 H 840.085 1.41277 0.278715 0
M  V30 9136 H 842.038 2.9396 3.01936 0
M  V30 9137 H 840.762 1.72104 2.77575 0
M  V30 9138 H 839.421 3.37549 1.43025 0
M  V30 9139 H 839.069 3.17851 3.89846 0
M  V30 9140 H 838.769 4.84042 3.33132 0
M  V30 9141 H 840.293 4.45192 4.17895 0
M  V30 9142 H 841.707 5.33925 2.088 0
M  V30 9143 H 840.104 5.82065 1.46013 0
M  V30 9144 H 841.174 4.82769 0.45408 0
M  V30 9145 N 842.517 -0.29412 1.54831 0
M  V30 9146 C 843.747 -1.04572 1.7818 0
M  V30 9147 C 844.155 -1.81187 0.544776 0
M  V30 9148 O 843.498 -1.769 -0.495169 0
M  V30 9149 C 843.56 -2.06748 2.94101 0
M  V30 9150 C 843.224 -1.49265 4.31936 0
M  V30 9151 C 844.221 -0.919136 5.11711 0
M  V30 9152 C 841.906 -1.52621 4.78552 0
M  V30 9153 C 843.9 -0.386824 6.36225 0
M  V30 9154 C 841.587 -0.990031 6.03027 0
M  V30 9155 C 842.585 -0.421315 6.81699 0
M  V30 9156 O 842.273 0.106713 8.03829 0
M  V30 9157 H 842.005 -0.31559 0.597812 0
M  V30 9158 H 844.559 -0.336817 2.0262 0
M  V30 9159 H 842.789 -2.81339 2.65303 0
M  V30 9160 H 844.478 -2.67865 3.04964 0
M  V30 9161 H 845.244 -0.886062 4.76837 0
M  V30 9162 H 841.123 -1.95826 4.17341 0
M  V30 9163 H 844.667 0.0577248 6.97576 0
M  V30 9164 H 840.564 -1.02027 6.37386 0
M  V30 9165 H 841.332 -0.00593526 8.185 0
M  V30 9166 N 843.995 -1.47404 -0.557645 0
M  V30 9167 C 845.411 -1.32913 -0.88353 0
M  V30 9168 C 845.611 -0.31929 -1.98954 0
M  V30 9169 O 844.667 0.26934 -2.51059 0
M  V30 9170 C 845.98 -2.72229 -1.27718 0
M  V30 9171 C 847.528 -2.8051 -1.38863 0
M  V30 9172 C 848.003 -4.20466 -1.81583 0
M  V30 9173 N 849.494 -4.23005 -1.88735 0
M  V30 9174 C 850.229 -5.2821 -2.23118 0
M  V30 9175 N 849.725 -6.4372 -2.56117 0
M  V30 9176 N 851.518 -5.15588 -2.23888 0
M  V30 9177 H 843.669 -2.11698 0.172557 0
M  V30 9178 H 845.932 -0.947889 0.0145334 0
M  V30 9179 H 845.638 -3.47556 -0.538329 0
M  V30 9180 H 845.512 -3.03971 -2.23342 0
M  V30 9181 H 847.899 -2.05457 -2.11829 0
M  V30 9182 H 847.98 -2.52423 -0.414274 0
M  V30 9183 H 847.624 -4.96025 -1.09187 0
M  V30 9184 H 847.554 -4.45977 -2.80021 0
M  V30 9185 H 850.045 -3.39674 -1.65621 0
M  V30 9186 H 850.358 -7.19754 -2.81378 0
M  V30 9187 H 848.703 -6.47041 -2.53698 0
M  V30 9188 H 851.894 -4.24374 -1.97546 0
M  V30 9189 H 852.067 -5.97685 -2.50353 0
M  V30 9190 N 845.473 0.80434 -1.35529 0
M  V30 9191 C 846.889 1.10023 -1.15616 0
M  V30 9192 C 847.089 2.01478 0.0298535 0
M  V30 9193 O 846.145 2.42609 0.699778 0
M  V30 9194 C 847.458 1.72905 -2.46017 0
M  V30 9195 C 849.006 1.85315 -2.52245 0
M  V30 9196 C 849.481 2.51612 -3.82695 0
M  V30 9197 N 850.972 2.59095 -3.83958 0
M  V30 9198 C 851.707 3.11167 -4.81625 0
M  V30 9199 N 851.203 3.63659 -5.89681 0
M  V30 9200 N 852.996 3.09741 -4.6906 0
M  V30 9201 H 845.147 0.196428 -2.1149 0
M  V30 9202 H 847.41 0.149735 -0.9361 0
M  V30 9203 H 847.116 1.13171 -3.32994 0
M  V30 9204 H 846.99 2.72579 -2.6073 0
M  V30 9205 H 849.377 2.44191 -1.65695 0
M  V30 9206 H 849.458 0.844886 -2.41444 0
M  V30 9207 H 849.102 1.93385 -4.69643 0
M  V30 9208 H 849.032 3.5298 -3.90785 0
M  V30 9209 H 851.523 2.21908 -3.05884 0
M  V30 9210 H 851.836 4.01699 -6.60195 0
M  V30 9211 H 850.181 3.61852 -5.9337 0
M  V30 9212 H 853.372 2.68011 -3.83781 0
M  V30 9213 H 853.545 3.50016 -5.45338 0
M  V30 9214 N 846.951 1.19563 1.02676 0
M  V30 9215 C 847.881 0.959024 2.12897 0
M  V30 9216 C 848.862 -0.108382 1.69754 0
M  V30 9217 O 850.047 0.0470698 1.94143 0
M  V30 9218 C 847.177 0.499211 3.43693 0
M  V30 9219 C 846.131 1.5087 4.00528 0
M  V30 9220 C 845.457 0.905884 5.2697 0
M  V30 9221 C 846.757 2.88954 4.3509 0
M  V30 9222 H 848.451 1.88084 2.32948 0
M  V30 9223 H 845.997 0.905731 1.11949 0
M  V30 9224 H 847.95 0.320965 4.20176 0
M  V30 9225 H 846.674 -0.458205 3.2337 0
M  V30 9226 H 845.333 1.67413 3.26142 0
M  V30 9227 H 844.981 -0.0591506 5.02965 0
M  V30 9228 H 844.681 1.58 5.65959 0
M  V30 9229 H 846.205 0.73848 6.06118 0
M  V30 9230 H 847.619 2.75981 5.02501 0
M  V30 9231 H 846.016 3.53177 4.85166 0
M  V30 9232 H 847.086 3.41447 3.44299 0
M  V30 9233 N 848.429 -1.21819 0.999893 0
M  V30 9234 C 849.845 -1.42847 0.711824 0
M  V30 9235 C 850.045 -1.88391 -0.714928 0
M  V30 9236 O 849.101 -2.0422 -1.48494 0
M  V30 9237 C 850.414 -2.46417 1.72334 0
M  V30 9238 C 851.962 -2.60207 1.73958 0
M  V30 9239 C 852.437 -3.67005 2.73992 0
M  V30 9240 N 853.928 -3.7447 2.72628 0
M  V30 9241 C 854.663 -4.56718 3.46693 0
M  V30 9242 N 854.159 -5.42904 4.3038 0
M  V30 9243 N 855.952 -4.51094 3.35366 0
M  V30 9244 H 848.103 -0.905656 1.92124 0
M  V30 9245 H 850.366 -0.459893 0.828977 0
M  V30 9246 H 850.072 -2.19914 2.74465 0
M  V30 9247 H 849.946 -3.45137 1.52186 0
M  V30 9248 H 852.333 -2.8605 0.725217 0
M  V30 9249 H 852.414 -1.61739 1.98177 0
M  V30 9250 H 852.058 -3.41908 3.75582 0
M  V30 9251 H 851.988 -4.65058 2.4704 0
M  V30 9252 H 854.479 -3.12895 2.11909 0
M  V30 9253 H 854.792 -6.02704 4.83702 0
M  V30 9254 H 853.137 -5.42463 4.34464 0
M  V30 9255 H 856.328 -3.82791 2.69423 0
M  V30 9256 H 856.501 -5.1496 3.93344 0
M  V30 9257 N 849.908 -0.773975 -1.37286 0
M  V30 9258 C 850.818 -0.162571 -2.34036 0
M  V30 9259 C 851.834 0.677022 -1.60289 0
M  V30 9260 O 853.01 0.596423 -1.92366 0
M  V30 9261 C 850.075 0.70457 -3.39465 0
M  V30 9262 C 849.136 -0.151738 -4.29032 0
M  V30 9263 C 848.369 0.674111 -5.29426 0
M  V30 9264 O 848.592 1.91107 -5.37433 0
M  V30 9265 O 847.526 0.0821398 -6.01844 0
M  V30 9266 H 851.352 -0.962119 -2.88057 0
M  V30 9267 H 848.937 -0.53517 -1.39486 0
M  V30 9268 H 850.819 1.19954 -4.03967 0
M  V30 9269 H 849.494 1.48227 -2.87768 0
M  V30 9270 H 848.401 -0.693118 -3.67623 0
M  V30 9271 H 849.734 -0.892575 -4.84039 0
M  V30 9272 N 851.386 1.48609 -0.524698 0
M  V30 9273 C 852.333 2.29539 0.240956 0
M  V30 9274 C 853.303 1.37033 0.938681 0
M  V30 9275 O 854.488 1.65996 0.940737 0
M  V30 9276 C 851.628 3.20278 1.28514 0
M  V30 9277 C 850.741 4.27858 0.596798 0
M  V30 9278 C 849.876 5.05784 1.62346 0
M  V30 9279 C 848.915 6.05173 0.918287 0
M  V30 9280 N 848.052 6.76176 1.89025 0
M  V30 9281 H 852.892 2.945 -0.455368 0
M  V30 9282 H 850.429 1.45188 -0.236403 0
M  V30 9283 H 852.387 3.71281 1.90279 0
M  V30 9284 H 851.017 2.57251 1.94992 0
M  V30 9285 H 850.069 3.80162 -0.134668 0
M  V30 9286 H 851.381 4.98782 0.0428506 0
M  V30 9287 H 850.535 5.60775 2.31553 0
M  V30 9288 H 849.274 4.34687 2.2113 0
M  V30 9289 H 848.279 5.49391 0.21212 0
M  V30 9290 H 849.504 6.78265 0.336633 0
M  V30 9291 H 847.45 6.07834 2.46726 0
M  V30 9292 H 847.367 7.43157 1.3876 0
M  V30 9293 H 848.635 7.35759 2.57446 0
M  V30 9294 N 852.864 0.259585 1.55447 0
M  V30 9295 C 854.275 -0.241165 1.85136 0
M  V30 9296 C 854.626 -1.56634 1.18153 0
M  V30 9297 O 853.751 -2.11359 0.464351 0
M  V30 9298 C 854.346 -0.444355 3.35873 0
M  V30 9299 C 852.905 -0.889354 3.65742 0
M  V30 9300 C 852.052 0.0262474 2.77288 0
M  V30 9301 H 855.003 0.481808 1.51209 0
M  V30 9302 H 855.024 -1.28517 3.58139 0
M  V30 9303 H 854.536 0.520289 3.84597 0
M  V30 9304 H 852.637 -1.86602 3.22507 0
M  V30 9305 H 852.75 -0.737432 4.73391 0
M  V30 9306 H 851.114 -0.487361 2.49994 0
M  V30 9307 H 851.897 0.986494 3.28821 0
M  V30 9308 N 854.342 -1.57594 -0.0133615 0
M  V30 9309 C 855.758 -1.5527 -0.369255 0
M  V30 9310 C 855.958 -0.987751 -1.7563 0
M  V30 9311 O 855.014 -0.615683 -2.44879 0
M  V30 9312 C 856.327 -2.99602 -0.25672 0
M  V30 9313 C 857.875 -3.11227 -0.332647 0
M  V30 9314 C 858.35 -4.57321 -0.249387 0
M  V30 9315 N 859.841 -4.62177 -0.3077 0
M  V30 9316 C 860.576 -5.72781 -0.26641 0
M  V30 9317 N 860.072 -6.92575 -0.176494 0
M  V30 9318 N 861.865 -5.61204 -0.317295 0
M  V30 9319 H 854.016 -1.92662 0.894154 0
M  V30 9320 H 856.279 -0.884352 0.341505 0
M  V30 9321 H 855.985 -3.44723 0.697072 0
M  V30 9322 H 855.859 -3.6246 -1.04415 0
M  V30 9323 H 858.246 -2.66045 -1.27688 0
M  V30 9324 H 858.327 -2.51171 0.484412 0
M  V30 9325 H 857.971 -5.03174 0.691242 0
M  V30 9326 H 857.901 -5.15306 -1.08476 0
M  V30 9327 H 860.392 -3.75994 -0.379069 0
M  V30 9328 H 860.705 -7.72653 -0.150518 0
M  V30 9329 H 859.05 -6.94854 -0.142314 0
M  V30 9330 H 862.241 -4.66509 -0.385643 0
M  V30 9331 H 862.414 -6.47388 -0.28165 0
M  V30 9332 N 855.82 0.285905 -1.54985 0
M  V30 9333 C 857.097 1.0397 -1.65679 0
M  V30 9334 C 857.477 2.04725 -0.514851 0
M  V30 9335 O 856.825 2.23257 0.486663 0
M  V30 9336 C 857.035 1.70807 -3.04345 0
M  V30 9337 C 858.383 2.22447 -3.61666 0
M  V30 9338 O 859.407 1.80815 -3.06895 0
M  V30 9339 O 858.266 2.98773 -4.57599 0
M  V30 9340 H 855.36 0.481473 -0.672394 0
M  V30 9341 H 857.906 0.282789 -1.67327 0
M  V30 9342 H 856.678 0.977271 -3.789 0
M  V30 9343 H 856.301 2.53217 -3.06541 0
M  V30 9344 N 857.298 1.47698 0.54982 0
M  V30 9345 C 858.23 1.56806 1.67166 0
M  V30 9346 C 859.243 0.453709 1.5635 0
M  V30 9347 O 860.432 0.723663 1.63173 0
M  V30 9348 C 857.532 1.4632 3.05686 0
M  V30 9349 C 856.705 2.72452 3.42182 0
M  V30 9350 C 855.764 2.55698 4.59897 0
M  V30 9351 O 854.79 3.29534 4.64108 0
M  V30 9352 N 855.992 1.64009 5.56849 0
M  V30 9353 H 858.757 2.53545 1.59797 0
M  V30 9354 H 856.318 1.44171 0.736635 0
M  V30 9355 H 858.31 1.32835 3.82279 0
M  V30 9356 H 856.88 0.57634 3.07241 0
M  V30 9357 H 856.1 3.00644 2.54964 0
M  V30 9358 H 857.388 3.56172 3.63344 0
M  V30 9359 H 856.786 1.03186 5.5621 0
M  V30 9360 H 855.343 1.56473 6.3274 0
M  V30 9361 N 858.776 -0.797141 1.35954 0
M  V30 9362 C 860.192 -1.09408 1.16198 0
M  V30 9363 C 860.392 -2.01491 -0.0191682 0
M  V30 9364 O 859.448 -2.42977 -0.686902 0
M  V30 9365 C 860.761 -1.71597 2.46931 0
M  V30 9366 C 862.309 -1.83974 2.53224 0
M  V30 9367 C 862.784 -2.49579 3.84024 0
M  V30 9368 N 864.275 -2.57055 3.85327 0
M  V30 9369 C 865.01 -3.08608 4.83268 0
M  V30 9370 N 864.506 -3.60527 5.91601 0
M  V30 9371 N 866.299 -3.07249 4.70696 0
M  V30 9372 H 858.45 -0.185209 2.11591 0
M  V30 9373 H 860.713 -0.144768 0.936881 0
M  V30 9374 H 860.419 -1.11404 3.3359 0
M  V30 9375 H 860.293 -2.71193 2.62172 0
M  V30 9376 H 862.68 -2.43308 1.66988 0
M  V30 9377 H 862.761 -0.83207 2.41889 0
M  V30 9378 H 862.405 -1.90892 4.70662 0
M  V30 9379 H 862.335 -3.50902 3.92651 0
M  V30 9380 H 864.826 -2.20283 3.07057 0
M  V30 9381 H 865.139 -3.98192 6.62317 0
M  V30 9382 H 863.484 -3.587 5.95281 0
M  V30 9383 H 866.675 -2.65972 3.85197 0
M  V30 9384 H 866.848 -3.47119 5.47186 0
M  V30 9385 N 860.254 -1.20106 -1.0204 0
M  V30 9386 C 861.482 -1.0344 -1.79186 0
M  V30 9387 C 861.897 0.416542 -1.84148 0
M  V30 9388 O 861.254 1.28925 -1.29168 0
M  V30 9389 C 861.305 -1.60663 -3.23836 0
M  V30 9390 O 861.026 -3.00079 -3.19193 0
M  V30 9391 C 862.527 -1.48897 -4.17546 0
M  V30 9392 H 859.747 -0.364093 -0.563629 0
M  V30 9393 H 862.291 -1.5911 -1.28469 0
M  V30 9394 H 860.446 -1.09122 -3.71714 0
M  V30 9395 H 860.86 -3.27162 -4.09958 0
M  V30 9396 H 862.334 -1.93703 -5.16898 0
M  V30 9397 H 862.811 -0.440843 -4.36982 0
M  V30 9398 H 863.417 -1.9961 -3.75547 0
M  V30 9399 N 861.732 1.21287 -1.00634 0
M  V30 9400 C 862.642 2.27388 -0.577226 0
M  V30 9401 C 863.658 1.69791 0.380399 0
M  V30 9402 O 864.834 1.99918 0.2439 0
M  V30 9403 C 861.899 3.46588 0.0880532 0
M  V30 9404 C 860.96 4.19453 -0.914222 0
M  V30 9405 C 860.193 5.32962 -0.280596 0
M  V30 9406 O 860.416 5.62895 0.922265 0
M  V30 9407 O 859.35 5.93666 -0.992196 0
M  V30 9408 H 863.176 2.66289 -1.46028 0
M  V30 9409 H 860.761 1.2771 -0.775283 0
M  V30 9410 H 862.643 4.18881 0.460094 0
M  V30 9411 H 861.318 3.09585 0.945461 0
M  V30 9412 H 860.225 3.49376 -1.33744 0
M  V30 9413 H 861.558 4.6037 -1.74126 0
M  V30 9414 N 863.21 0.781244 1.36873 0
M  V30 9415 C 864.458 0.349198 1.9906 0
M  V30 9416 C 864.779 -1.0806 1.62321 0
M  V30 9417 O 864.049 -1.74351 0.893229 0
M  V30 9418 H 862.629 0.126126 0.736275 0
M  V30 9419 H 865.291 1.00148 1.67202 0
M  V30 9420 H 864.387 0.434451 3.09061 0
M  V30 9421 N 864.689 -1.48329 0.532571 0
M  V30 9422 C 865.966 -1.95492 -0.0650985 0
M  V30 9423 C 866.346 -1.47485 -1.51034 0
M  V30 9424 O 865.694 -0.702516 -2.17433 0
M  V30 9425 C 865.904 -3.48957 0.0548341 0
M  V30 9426 C 867.252 -4.24475 -0.103115 0
M  V30 9427 O 868.276 -3.56195 -0.0188343 0
M  V30 9428 O 867.135 -5.45781 -0.280164 0
M  V30 9429 H 864.229 -0.823327 -0.0778603 0
M  V30 9430 H 866.775 -1.58839 0.597353 0
M  V30 9431 H 865.547 -3.76628 1.06148 0
M  V30 9432 H 865.17 -3.92311 -0.64635 0
M  V30 9433 N 866.167 -0.267825 -1.55308 0
M  V30 9434 C 867.392 0.357487 -2.04296 0
M  V30 9435 C 867.817 1.49222 -1.14518 0
M  V30 9436 O 867.175 1.80741 -0.142292 0
M  V30 9437 C 867.223 0.822899 -3.51085 0
M  V30 9438 O 866.327 1.93078 -3.6441 0
M  V30 9439 H 865.668 0.075025 -0.659748 0
M  V30 9440 H 868.198 -0.399996 -2.00652 0
M  V30 9441 H 868.208 1.12059 -3.92309 0
M  V30 9442 H 866.883 -0.0073562 -4.15899 0
M  V30 9443 H 865.46 1.63618 -3.35087 0
M  V30 9444 N 867.645 1.57599 0.00500368 0
M  V30 9445 C 868.577 2.04949 1.02609 0
M  V30 9446 C 869.59 0.966507 1.31006 0
M  V30 9447 O 870.779 1.2434 1.2807 0
M  V30 9448 C 867.879 2.43023 2.36206 0
M  V30 9449 C 867.052 3.73993 2.26821 0
M  V30 9450 C 866.111 3.9899 3.43065 0
M  V30 9451 O 865.137 4.69725 3.21477 0
M  V30 9452 N 866.339 3.46496 4.65748 0
M  V30 9453 H 869.104 2.93167 0.622336 0
M  V30 9454 H 866.665 1.60752 0.192488 0
M  V30 9455 H 868.657 2.56863 3.12735 0
M  V30 9456 H 867.227 1.60349 2.68341 0
M  V30 9457 H 866.447 3.70277 1.35235 0
M  V30 9458 H 867.735 4.59865 2.17719 0
M  V30 9459 H 867.133 2.89206 4.86186 0
M  V30 9460 H 865.69 3.65675 5.3956 0
M  V30 9461 N 869.123 -0.277682 1.55134 0
M  V30 9462 C 870.033 -1.36524 1.90783 0
M  V30 9463 C 871.049 -1.54283 0.804542 0
M  V30 9464 O 872.225 -1.68499 1.10318 0
M  V30 9465 C 869.29 -2.70524 2.16835 0
M  V30 9466 C 868.351 -2.61552 3.40424 0
M  V30 9467 C 867.584 -3.89162 3.65224 0
M  V30 9468 O 867.807 -4.89624 2.92616 0
M  V30 9469 O 866.741 -3.89647 4.58758 0
M  V30 9470 H 870.567 -1.0929 2.83354 0
M  V30 9471 H 868.152 -0.475799 1.41621 0
M  V30 9472 H 870.034 -3.49765 2.35038 0
M  V30 9473 H 868.709 -2.97555 1.27448 0
M  V30 9474 H 867.616 -1.80704 3.27562 0
M  V30 9475 H 868.949 -2.39472 4.30016 0
M  V30 9476 N 870.601 -1.47988 -0.541979 0
M  V30 9477 C 871.534 -1.56172 -1.66389 0
M  V30 9478 C 872.512 -0.412879 -1.57271 0
M  V30 9479 O 873.696 -0.622816 -1.77914 0
M  V30 9480 C 870.823 -1.47851 -3.04726 0
M  V30 9481 C 869.869 -2.67428 -3.32242 0
M  V30 9482 S 870.702 -4.29502 -3.19825 0
M  V30 9483 C 871.858 -4.2376 -4.60628 0
M  V30 9484 H 872.091 -2.51086 -1.59195 0
M  V30 9485 H 869.624 -1.36373 -0.724005 0
M  V30 9486 H 871.582 -1.43738 -3.84512 0
M  V30 9487 H 870.243 -0.542958 -3.09372 0
M  V30 9488 H 869.436 -2.57711 -4.33129 0
M  V30 9489 H 869.038 -2.68743 -2.60103 0
M  V30 9490 H 871.33 -3.92953 -5.51901 0
M  V30 9491 H 872.273 -5.24786 -4.75401 0
M  V30 9492 H 872.681 -3.54398 -4.39389 0
M  V30 9493 N 872.079 0.78992 -1.36375 0
M  V30 9494 C 873.325 1.55007 -1.3077 0
M  V30 9495 C 873.658 1.93871 0.112979 0
M  V30 9496 O 872.933 1.6267 1.06625 0
M  V30 9497 C 873.216 2.82748 -2.22993 0
M  V30 9498 C 873.069 2.50253 -3.73756 0
M  V30 9499 C 874.388 3.84569 -2.13998 0
M  V30 9500 H 871.507 0.562362 -0.476359 0
M  V30 9501 H 874.149 0.907582 -1.66922 0
M  V30 9502 H 872.299 3.37573 -1.92292 0
M  V30 9503 H 873.971 2.01482 -4.14973 0
M  V30 9504 H 872.214 1.83203 -3.93216 0
M  V30 9505 H 872.885 3.41487 -4.33694 0
M  V30 9506 H 875.361 3.39188 -2.4102 0
M  V30 9507 H 874.237 4.717 -2.80697 0
M  V30 9508 H 874.498 4.27491 -1.12711 0
M  V30 9509 N 873.557 1.20646 1.01402 0
M  V30 9510 C 874.973 0.961866 1.27359 0
M  V30 9511 C 875.173 -0.357083 1.98311 0
M  V30 9512 O 874.229 -1.08498 2.28001 0
M  V30 9513 C 875.542 2.14627 2.10609 0
M  V30 9514 C 877.09 2.18753 2.23866 0
M  V30 9515 C 877.565 3.36686 3.10494 0
M  V30 9516 N 879.056 3.36716 3.18083 0
M  V30 9517 C 879.791 4.24615 3.85343 0
M  V30 9518 N 879.287 5.22697 4.54708 0
M  V30 9519 N 881.08 4.12449 3.81893 0
M  V30 9520 H 873.231 2.05481 0.537721 0
M  V30 9521 H 875.494 0.899292 0.299963 0
M  V30 9522 H 875.2 3.10159 1.65814 0
M  V30 9523 H 875.074 2.12935 3.11349 0
M  V30 9524 H 877.461 1.23782 2.67885 0
M  V30 9525 H 877.542 2.24492 1.22626 0
M  V30 9526 H 877.186 4.31945 2.67181 0
M  V30 9527 H 877.116 3.28185 4.11828 0
M  V30 9528 H 879.607 2.65728 2.68695 0
M  V30 9529 H 879.92 5.86087 5.03708 0
M  V30 9530 H 878.265 5.26631 4.53525 0
M  V30 9531 H 881.456 3.35091 3.26851 0
M  V30 9532 H 881.629 4.81162 4.34035 0
M  V30 9533 N 875.035 -1.20752 1.01276 0
M  V30 9534 C 875.965 -2.25658 0.600064 0
M  V30 9535 C 876.946 -1.65733 -0.38298 0
M  V30 9536 O 878.131 -1.92324 -0.269256 0
M  V30 9537 C 875.261 -3.47237 -0.0663197 0
M  V30 9538 C 874.215 -4.1973 0.83731 0
M  V30 9539 C 873.541 -5.34687 0.0369102 0
M  V30 9540 C 874.841 -4.76286 2.14357 0
M  V30 9541 H 876.535 -2.60432 1.477 0
M  V30 9542 H 874.081 -1.25187 0.711634 0
M  V30 9543 H 876.034 -4.19803 -0.366563 0
M  V30 9544 H 874.758 -3.11615 -0.977944 0
M  V30 9545 H 873.417 -3.49024 1.1215 0
M  V30 9546 H 873.065 -4.95309 -0.876244 0
M  V30 9547 H 872.765 -5.84119 0.63865 0
M  V30 9548 H 874.289 -6.10059 -0.256968 0
M  V30 9549 H 875.703 -5.40691 1.90595 0
M  V30 9550 H 874.1 -5.36139 2.69583 0
M  V30 9551 H 875.17 -3.9524 2.80916 0
M  V30 9552 N 876.513 -0.788492 -1.36457 0
M  V30 9553 C 877.443 -0.200468 -2.32638 0
M  V30 9554 C 878.424 0.664031 -1.56603 0
M  V30 9555 O 879.609 0.598045 -1.84762 0
M  V30 9556 C 876.739 0.666274 -3.40849 0
M  V30 9557 C 875.693 -0.0982574 -4.27887 0
M  V30 9558 C 875.019 0.889018 -5.27258 0
M  V30 9559 C 876.319 -1.28692 -5.06197 0
M  V30 9560 H 878.013 -1.00399 -2.82065 0
M  V30 9561 H 875.559 -0.484237 -1.35614 0
M  V30 9562 H 877.512 1.08757 -4.07124 0
M  V30 9563 H 876.236 1.50249 -2.89987 0
M  V30 9564 H 874.895 -0.500525 -3.63167 0
M  V30 9565 H 874.543 1.72024 -4.7267 0
M  V30 9566 H 874.243 0.381909 -5.86358 0
M  V30 9567 H 875.767 1.30891 -5.96406 0
M  V30 9568 H 877.181 -0.941429 -5.65517 0
M  V30 9569 H 875.578 -1.72726 -5.74705 0
M  V30 9570 H 876.648 -2.08273 -4.37893 0
M  V30 9571 N 877.991 1.48044 -0.54043 0
M  V30 9572 C 878.921 2.32597 0.205178 0
M  V30 9573 C 879.902 1.42748 0.925041 0
M  V30 9574 O 881.087 1.71624 0.908784 0
M  V30 9575 C 878.217 3.24175 1.24612 0
M  V30 9576 C 877.171 4.23131 0.64376 0
M  V30 9577 C 876.497 5.03915 1.78812 0
M  V30 9578 C 877.797 5.20831 -0.39144 0
M  V30 9579 H 879.491 2.95184 -0.500676 0
M  V30 9580 H 877.037 1.41948 -0.242225 0
M  V30 9581 H 878.99 3.82158 1.77576 0
M  V30 9582 H 877.714 2.59608 1.98169 0
M  V30 9583 H 876.373 3.66349 0.135554 0
M  V30 9584 H 876.021 4.35765 2.51232 0
M  V30 9585 H 875.721 5.709 1.39094 0
M  V30 9586 H 877.245 5.64753 2.32134 0
M  V30 9587 H 878.659 5.73277 0.0515064 0
M  V30 9588 H 877.056 5.95926 -0.706569 0
M  V30 9589 H 878.126 4.6733 -1.29345 0
M  V30 9590 N 879.47 0.276058 1.55163 0
M  V30 9591 C 880.402 -0.644254 2.19959 0
M  V30 9592 C 881.415 -1.11675 1.18459 0
M  V30 9593 O 882.604 -1.0385 1.45181 0
M  V30 9594 C 879.704 -1.89093 2.81242 0
M  V30 9595 C 878.877 -1.56509 4.08441 0
M  V30 9596 C 877.936 -2.66433 4.53762 0
M  V30 9597 O 876.962 -2.32579 5.19515 0
M  V30 9598 N 878.164 -3.96509 4.23982 0
M  V30 9599 H 880.929 -0.0896808 2.99566 0
M  V30 9600 H 878.49 0.0971981 1.61608 0
M  V30 9601 H 880.482 -2.61929 3.08505 0
M  V30 9602 H 879.052 -2.35453 2.05622 0
M  V30 9603 H 878.272 -0.670522 3.88455 0
M  V30 9604 H 879.56 -1.32242 4.91314 0
M  V30 9605 H 878.958 -4.26834 3.71254 0
M  V30 9606 H 877.515 -4.6572 4.56014 0
M  V30 9607 N 880.948 -1.576 0.00335426 0
M  V30 9608 C 881.911 -2.07576 -0.971838 0
M  V30 9609 C 882.911 -0.985796 -1.27038 0
M  V30 9610 O 884.101 -1.24833 -1.21501 0
M  V30 9611 C 881.233 -2.52003 -2.29581 0
M  V30 9612 H 882.426 -2.95008 -0.539481 0
M  V30 9613 H 879.979 -1.54381 -0.244186 0
M  V30 9614 H 880.714 -1.67825 -2.77498 0
M  V30 9615 H 880.499 -3.31609 -2.09231 0
M  V30 9616 H 881.989 -2.90983 -2.99531 0
M  V30 9617 N 882.426 0.269451 -1.5528 0
M  V30 9618 C 883.675 0.998381 -1.75258 0
M  V30 9619 C 883.988 1.87321 -0.563034 0
M  V30 9620 O 885.194 2.63719 -0.645313 0
M  V30 9621 C 883.65 1.82505 -3.10193 0
M  V30 9622 C 883.258 0.99871 -4.36726 0
M  V30 9623 C 885.002 2.54807 -3.3952 0
M  V30 9624 C 882.909 1.81997 -5.627 0
M  V30 9625 H 881.839 0.376488 -0.653278 0
M  V30 9626 H 884.49 0.253909 -1.81735 0
M  V30 9627 H 882.872 2.61061 -2.97763 0
M  V30 9628 H 884.046 0.257064 -4.60082 0
M  V30 9629 H 882.361 0.390074 -4.14569 0
M  V30 9630 H 884.958 3.16662 -4.30847 0
M  V30 9631 H 885.301 3.25273 -2.59813 0
M  V30 9632 H 885.834 1.83278 -3.53064 0
M  V30 9633 H 882.573 1.15945 -6.45164 0
M  V30 9634 H 882.093 2.53749 -5.43481 0
M  V30 9635 H 883.772 2.39274 -6.0113 0
M  V30 9636 N 883.904 1.48273 0.534124 0
M  V30 9637 C 884.836 1.5857 1.65494 0
M  V30 9638 C 885.849 0.470266 1.5586 0
M  V30 9639 O 887.038 0.740928 1.62396 0
M  V30 9640 C 884.138 1.49554 3.04117 0
M  V30 9641 C 883.311 2.76066 3.39273 0
M  V30 9642 C 882.37 2.60562 4.57159 0
M  V30 9643 O 881.396 3.34438 4.60587 0
M  V30 9644 N 882.598 1.69906 5.55079 0
M  V30 9645 H 885.363 2.55226 1.57099 0
M  V30 9646 H 882.924 1.44944 0.721303 0
M  V30 9647 H 884.916 1.36882 3.80848 0
M  V30 9648 H 883.486 0.608895 3.06613 0
M  V30 9649 H 882.706 3.03332 2.51761 0
M  V30 9650 H 883.994 3.60006 3.59546 0
M  V30 9651 H 883.392 1.09079 5.55084 0
M  V30 9652 H 881.949 1.63175 6.31044 0
M  V30 9653 N 885.382 -0.782676 1.36792 0
M  V30 9654 C 886.607 -1.57676 1.34733 0
M  V30 9655 C 887.032 -1.87979 -0.0675253 0
M  V30 9656 O 886.39 -1.48404 -1.04144 0
M  V30 9657 C 886.438 -2.87047 2.18257 0
M  V30 9658 O 885.542 -3.80946 1.57969 0
M  V30 9659 H 884.883 -0.478034 0.460846 0
M  V30 9660 H 887.413 -0.969578 1.80168 0
M  V30 9661 H 887.423 -3.36254 2.31079 0
M  V30 9662 H 886.098 -2.64319 3.21104 0
M  V30 9663 H 884.675 -3.39558 1.54126 0
M  V30 9664 N 886.86 -1.21182 -1.00761 0
M  V30 9665 C 888.107 -1.02746 -1.74498 0
M  V30 9666 C 888.435 0.439344 -1.89473 0
M  V30 9667 O 887.69 1.34232 -1.42409 0
M  V30 9668 C 887.989 -1.6667 -3.16158 0
M  V30 9669 C 887.655 -3.16515 -3.21137 0
M  V30 9670 C 886.317 -3.57405 -3.22203 0
M  V30 9671 C 888.669 -4.12495 -3.18587 0
M  V30 9672 C 885.997 -4.92786 -3.18401 0
M  V30 9673 C 888.349 -5.47833 -3.16326 0
M  V30 9674 C 887.013 -5.88124 -3.157 0
M  V30 9675 H 886.283 -0.375974 -0.638533 0
M  V30 9676 H 888.93 -1.50736 -1.18114 0
M  V30 9677 H 887.235 -1.10966 -3.75758 0
M  V30 9678 H 888.932 -1.49911 -3.71924 0
M  V30 9679 H 885.522 -2.83947 -3.21048 0
M  V30 9680 H 889.706 -3.81932 -3.16925 0
M  V30 9681 H 884.962 -5.23253 -3.16253 0
M  V30 9682 H 889.136 -6.21942 -3.13306 0
M  V30 9683 H 886.763 -6.92995 -3.12508 0
M  V30 9684 N 888.338 1.20213 -1.01915 0
M  V30 9685 C 889.248 2.26763 -0.601311 0
M  V30 9686 C 890.264 1.70185 0.362369 0
M  V30 9687 O 891.44 2.00165 0.222682 0
M  V30 9688 C 888.505 3.46662 0.0512879 0
M  V30 9689 C 887.566 4.18459 -0.958659 0
M  V30 9690 C 886.799 5.32634 -0.337107 0
M  V30 9691 O 887.022 5.63841 0.86251 0
M  V30 9692 O 885.956 5.9258 -1.05511 0
M  V30 9693 H 889.782 2.64725 -1.48844 0
M  V30 9694 H 887.367 1.2688 -0.788784 0
M  V30 9695 H 889.249 4.19345 0.41564 0
M  V30 9696 H 887.924 3.1057 0.912572 0
M  V30 9697 H 886.831 3.47937 -1.37442 0
M  V30 9698 H 888.164 4.58498 -1.78999 0
M  V30 9699 N 889.816 0.795718 1.36037 0
M  V30 9700 C 890.763 0.196548 2.29962 0
M  V30 9701 C 891.733 -0.663213 1.52285 0
M  V30 9702 O 892.918 -0.610574 1.80767 0
M  V30 9703 C 890.058 -0.657639 3.38776 0
M  V30 9704 C 889.171 0.221358 4.31433 0
M  V30 9705 C 888.306 -0.6398 5.27333 0
M  V30 9706 C 887.345 0.240265 6.11628 0
M  V30 9707 N 886.482 -0.580237 6.99698 0
M  V30 9708 H 891.322 1.00295 2.80615 0
M  V30 9709 H 888.859 0.506147 1.38118 0
M  V30 9710 H 890.817 -1.16793 4.00519 0
M  V30 9711 H 889.447 -1.42941 2.89426 0
M  V30 9712 H 888.499 0.84967 3.70789 0
M  V30 9713 H 889.811 0.899195 4.90628 0
M  V30 9714 H 888.965 -1.21566 5.94396 0
M  V30 9715 H 887.704 -1.35124 4.68607 0
M  V30 9716 H 886.709 0.828474 5.43522 0
M  V30 9717 H 887.934 0.949403 6.72431 0
M  V30 9718 H 885.88 -1.27585 6.43473 0
M  V30 9719 H 885.797 0.0397853 7.5599 0
M  V30 9720 H 887.065 -1.13972 7.71123 0
M  V30 9721 N 891.294 -1.47756 0.548274 0
M  V30 9722 C 892.241 -2.29893 -0.204408 0
M  V30 9723 C 893.211 -1.38509 -0.916761 0
M  V30 9724 O 894.396 -1.67472 -0.91421 0
M  V30 9725 C 891.536 -3.22282 -1.23403 0
M  V30 9726 C 890.649 -4.28753 -0.528654 0
M  V30 9727 C 889.784 -5.08303 -1.54279 0
M  V30 9728 C 888.823 -6.06557 -0.821893 0
M  V30 9729 N 887.96 -6.79098 -1.78243 0
M  V30 9730 H 892.8 -2.93739 0.502163 0
M  V30 9731 H 890.337 -1.44793 0.259471 0
M  V30 9732 H 892.295 -3.74262 -1.84348 0
M  V30 9733 H 890.925 -2.6032 -1.90875 0
M  V30 9734 H 889.977 -3.79899 0.195132 0
M  V30 9735 H 891.289 -4.98787 0.0365066 0
M  V30 9736 H 890.443 -5.64388 -2.22602 0
M  V30 9737 H 889.182 -4.3815 -2.14186 0
M  V30 9738 H 888.187 -5.49659 -0.12469 0
M  V30 9739 H 889.412 -6.78715 -0.228685 0
M  V30 9740 H 887.358 -6.11682 -2.37025 0
M  V30 9741 H 887.275 -7.4527 -1.26919 0
M  V30 9742 H 888.543 -7.39762 -2.45709 0
M  V30 9743 N 892.772 -0.284283 -1.55015 0
M  V30 9744 C 894.018 0.330352 -2.00091 0
M  V30 9745 C 894.351 1.54814 -1.17244 0
M  V30 9746 O 893.626 1.92954 -0.244753 0
M  V30 9747 C 893.909 0.703492 -3.53161 0
M  V30 9748 C 893.762 -0.522275 -4.46758 0
M  V30 9749 C 895.081 1.53645 -4.12409 0
M  V30 9750 H 892.2 0.118599 -0.727395 0
M  V30 9751 H 894.842 -0.393054 -1.8589 0
M  V30 9752 H 892.992 1.31983 -3.65394 0
M  V30 9753 H 894.664 -1.16082 -4.46456 0
M  V30 9754 H 892.907 -1.15865 -4.1804 0
M  V30 9755 H 893.578 -0.217295 -5.51572 0
M  V30 9756 H 896.054 1.01583 -4.0351 0
M  V30 9757 H 894.93 1.76633 -5.19704 0
M  V30 9758 H 895.191 2.5204 -3.63219 0
M  V30 9759 N 894.251 1.57596 -0.0117121 0
M  V30 9760 C 895.667 1.55837 0.344506 0
M  V30 9761 C 895.867 1.01557 1.74036 0
M  V30 9762 O 894.923 0.654563 2.43868 0
M  V30 9763 C 896.236 2.99973 0.209023 0
M  V30 9764 C 897.784 3.11717 0.283092 0
M  V30 9765 C 898.259 4.57659 0.176599 0
M  V30 9766 N 899.75 4.62608 0.234133 0
M  V30 9767 C 900.485 5.73132 0.175252 0
M  V30 9768 N 899.981 6.92768 0.0662888 0
M  V30 9769 N 901.774 5.61638 0.227972 0
M  V30 9770 H 893.925 1.91215 -0.924692 0
M  V30 9771 H 896.188 0.878807 -0.355531 0
M  V30 9772 H 895.894 3.4357 -0.751826 0
M  V30 9773 H 895.768 3.64075 0.98635 0
M  V30 9774 H 898.155 2.68043 1.23439 0
M  V30 9775 H 898.236 2.50369 -0.52431 0
M  V30 9776 H 897.88 5.02011 -0.771205 0
M  V30 9777 H 897.81 5.16967 1.00264 0
M  V30 9778 H 900.301 3.76549 0.319203 0
M  V30 9779 H 900.614 7.72795 0.0275765 0
M  V30 9780 H 898.959 6.94993 0.0317502 0
M  V30 9781 H 902.15 4.67063 0.311377 0
M  V30 9782 H 902.323 6.47754 0.178621 0
M  V30 9783 N 895.729 -0.261212 1.5542 0
M  V30 9784 C 896.975 -0.992699 1.76843 0
M  V30 9785 C 897.308 -1.8551 0.574428 0
M  V30 9786 O 896.583 -1.89739 -0.427713 0
M  V30 9787 C 896.866 -1.86532 3.08022 0
M  V30 9788 C 896.719 -1.03206 4.378 0
M  V30 9789 C 898.038 -2.85036 3.35324 0
M  V30 9790 H 895.157 -0.359473 0.643388 0
M  V30 9791 H 897.799 -0.264214 1.88154 0
M  V30 9792 H 895.949 -2.48644 2.9851 0
M  V30 9793 H 897.621 -0.430743 4.59285 0
M  V30 9794 H 895.864 -0.335911 4.32497 0
M  V30 9795 H 896.535 -1.6761 5.25938 0
M  V30 9796 H 899.011 -2.3306 3.44706 0
M  V30 9797 H 897.887 -3.43226 4.28354 0
M  V30 9798 H 898.148 -3.60768 2.55537 0
M  V30 9799 N 897.207 -1.48554 -0.526253 0
M  V30 9800 C 898.456 -1.56014 -1.27837 0
M  V30 9801 C 898.769 -0.240643 -1.94114 0
M  V30 9802 O 899.975 -0.193525 -2.70809 0
M  V30 9803 C 898.431 -2.75161 -2.31979 0
M  V30 9804 C 898.039 -4.13768 -1.71755 0
M  V30 9805 C 899.783 -2.91936 -3.08178 0
M  V30 9806 C 897.69 -5.24171 -2.7386 0
M  V30 9807 H 896.62 -0.58082 -0.480795 0
M  V30 9808 H 899.271 -1.74895 -0.555335 0
M  V30 9809 H 897.653 -2.49722 -3.07335 0
M  V30 9810 H 898.827 -4.49241 -1.02563 0
M  V30 9811 H 897.142 -4.02141 -1.08036 0
M  V30 9812 H 899.739 -3.71586 -3.84484 0
M  V30 9813 H 900.082 -2.01533 -3.64267 0
M  V30 9814 H 900.615 -3.17294 -2.39937 0
M  V30 9815 H 897.354 -6.16552 -2.22586 0
M  V30 9816 H 896.874 -4.93181 -3.41368 0
M  V30 9817 H 898.553 -5.52442 -3.36774 0
M  V30 9818 N 898.685 0.775411 -1.37205 0
M  V30 9819 C 899.915 1.56219 -1.352 0
M  V30 9820 C 900.323 1.89087 0.065456 0
M  V30 9821 O 899.666 1.51655 1.03665 0
M  V30 9822 C 899.728 2.9019 -2.12203 0
M  V30 9823 C 899.392 2.79978 -3.61195 0
M  V30 9824 C 900.389 2.51258 -4.55154 0
M  V30 9825 C 898.074 2.98115 -4.04268 0
M  V30 9826 C 900.068 2.40798 -5.90165 0
M  V30 9827 C 897.755 2.87276 -5.39366 0
M  V30 9828 C 898.753 2.58657 -6.32128 0
M  V30 9829 O 898.441 2.47838 -7.64743 0
M  V30 9830 H 898.173 0.490735 -0.464925 0
M  V30 9831 H 900.727 0.969201 -1.81096 0
M  V30 9832 H 898.957 3.51594 -1.60992 0
M  V30 9833 H 900.646 3.51561 -2.02879 0
M  V30 9834 H 901.412 2.36935 -4.23186 0
M  V30 9835 H 897.291 3.19392 -3.3243 0
M  V30 9836 H 900.835 2.18381 -6.62537 0
M  V30 9837 H 896.732 3.01166 -5.70937 0
M  V30 9838 H 897.5 2.63215 -7.75023 0
M  V30 9839 N 900.163 1.21714 1.00117 0
M  V30 9840 C 901.391 1.06278 1.77518 0
M  V30 9841 C 901.806 -0.387193 1.84787 0
M  V30 9842 O 901.163 -1.26854 1.31203 0
M  V30 9843 C 901.214 1.65795 3.21239 0
M  V30 9844 O 900.935 3.05119 3.14378 0
M  V30 9845 C 902.436 1.55521 4.15124 0
M  V30 9846 H 899.656 0.373013 0.557765 0
M  V30 9847 H 902.2 1.61133 1.25922 0
M  V30 9848 H 900.355 1.15022 3.69931 0
M  V30 9849 H 900.769 3.33643 4.04701 0
M  V30 9850 H 902.243 2.01902 5.13751 0
M  V30 9851 H 902.72 0.510307 4.36225 0
M  V30 9852 H 903.326 2.0556 3.72324 0
M  V30 9853 N 901.641 -1.19671 1.02551 0
M  V30 9854 C 902.573 -2.22215 0.561517 0
M  V30 9855 C 903.586 -1.58751 -0.360821 0
M  V30 9856 O 904.775 -1.77802 -0.157749 0
M  V30 9857 C 901.875 -3.383 -0.201494 0
M  V30 9858 C 901.048 -4.3135 0.724952 0
M  V30 9859 C 900.107 -5.26199 0.00794334 0
M  V30 9860 O 899.133 -5.65665 0.633398 0
M  V30 9861 N 900.335 -5.66573 -1.26394 0
M  V30 9862 H 903.1 -2.6265 1.44343 0
M  V30 9863 H 900.661 -1.34303 0.904122 0
M  V30 9864 H 902.653 -3.98764 -0.690625 0
M  V30 9865 H 901.223 -2.96683 -0.98479 0
M  V30 9866 H 900.443 -3.6872 1.39423 0
M  V30 9867 H 901.731 -4.90433 1.35472 0
M  V30 9868 H 901.129 -5.36538 -1.79287 0
M  V30 9869 H 899.686 -6.29304 -1.69763 0
M  V30 9870 N 903.119 -0.802921 -1.35613 0
M  V30 9871 C 904.049 -0.225131 -2.32412 0
M  V30 9872 C 905.03 0.647383 -1.57299 0
M  V30 9873 O 906.215 0.578414 -1.85386 0
M  V30 9874 C 903.345 0.630085 -3.41537 0
M  V30 9875 C 902.299 -0.143635 -4.27759 0
M  V30 9876 C 901.625 0.833046 -5.28171 0
M  V30 9877 C 902.925 -1.34054 -5.04804 0
M  V30 9878 H 904.619 -1.03385 -2.80984 0
M  V30 9879 H 902.165 -0.498593 -1.35093 0
M  V30 9880 H 904.118 1.04433 -4.08254 0
M  V30 9881 H 902.842 1.47165 -2.91565 0
M  V30 9882 H 901.501 -0.539015 -3.62616 0
M  V30 9883 H 901.149 1.67001 -4.74468 0
M  V30 9884 H 900.849 0.319697 -5.8673 0
M  V30 9885 H 902.373 1.24558 -5.97761 0
M  V30 9886 H 903.787 -1.00136 -5.64487 0
M  V30 9887 H 902.184 -1.78812 -5.72841 0
M  V30 9888 H 903.254 -2.12906 -4.35659 0
M  V30 9889 N 904.597 1.47463 -0.556102 0
M  V30 9890 C 905.822 2.07371 -0.0344729 0
M  V30 9891 C 906.247 1.40621 1.2493 0
M  V30 9892 O 905.605 0.48082 1.74808 0
M  V30 9893 C 905.653 3.60306 0.145563 0
M  V30 9894 O 904.757 3.94299 1.20839 0
M  V30 9895 H 904.098 0.662052 -0.0508274 0
M  V30 9896 H 906.628 1.89498 -0.771469 0
M  V30 9897 H 906.638 4.06408 0.360112 0
M  V30 9898 H 905.313 4.08288 -0.792089 0
M  V30 9899 H 903.89 3.59944 0.97442 0
M  V30 9900 N 906.075 0.2925 1.54862 0
M  V30 9901 C 907.022 -0.587365 2.23201 0
M  V30 9902 C 907.992 -1.13623 1.21157 0
M  V30 9903 O 909.177 -1.18233 1.49752 0
M  V30 9904 C 906.317 -1.75745 2.96998 0
M  V30 9905 C 905.43 -1.24078 4.13798 0
M  V30 9906 C 904.565 -2.37405 4.75197 0
M  V30 9907 C 903.604 -1.82829 5.84157 0
M  V30 9908 N 902.741 -2.89696 6.39547 0
M  V30 9909 H 907.581 0.00202207 2.98 0
M  V30 9910 H 905.118 0.012766 1.47094 0
M  V30 9911 H 907.076 -2.44549 3.38011 0
M  V30 9912 H 905.706 -2.3186 2.24591 0
M  V30 9913 H 904.758 -0.445268 3.77785 0
M  V30 9914 H 906.07 -0.801186 4.92324 0
M  V30 9915 H 905.224 -3.14172 5.19019 0
M  V30 9916 H 903.963 -2.84688 3.95985 0
M  V30 9917 H 902.968 -1.04548 5.39768 0
M  V30 9918 H 904.193 -1.36461 6.65248 0
M  V30 9919 H 902.139 -3.36328 5.63222 0
M  V30 9920 H 902.056 -2.50206 7.13395 0
M  V30 9921 H 903.324 -3.66386 6.88027 0
M  V30 9922 N 907.553 -1.57587 0.0200696 0
M  V30 9923 C 908.781 -1.95718 -0.670964 0
M  V30 9924 C 909.196 -0.896081 -1.6618 0
M  V30 9925 O 908.553 0.123037 -1.82085 0
M  V30 9926 C 908.604 -3.33904 -1.38529 0
M  V30 9927 O 908.325 -4.35943 -0.434167 0
M  V30 9928 C 909.826 -3.86614 -2.16898 0
M  V30 9929 H 907.046 -0.644819 -0.185606 0
M  V30 9930 H 909.59 -2.04354 0.0771495 0
M  V30 9931 H 907.745 -3.26515 -2.08487 0
M  V30 9932 H 908.159 -5.16001 -0.940378 0
M  V30 9933 H 909.633 -4.85673 -2.62346 0
M  V30 9934 H 910.11 -3.20379 -3.00423 0
M  V30 9935 H 910.716 -3.97243 -1.51916 0
M  V30 9936 N 909.032 0.252966 -1.55557 0
M  V30 9937 C 910.278 0.983306 -1.77367 0
M  V30 9938 C 910.611 1.85203 -0.584258 0
M  V30 9939 O 909.886 1.89963 0.417644 0
M  V30 9940 C 910.169 1.84896 -3.09007 0
M  V30 9941 C 910.022 1.00883 -4.38341 0
M  V30 9942 C 911.341 2.83254 -3.36831 0
M  V30 9943 H 908.46 0.356056 -0.645286 0
M  V30 9944 H 911.102 0.254232 -1.88291 0
M  V30 9945 H 909.252 2.47058 -2.99825 0
M  V30 9946 H 910.924 0.40638 -4.59507 0
M  V30 9947 H 909.167 0.31297 -4.3267 0
M  V30 9948 H 909.838 1.64818 -5.2682 0
M  V30 9949 H 912.314 2.31228 -3.45937 0
M  V30 9950 H 911.19 3.40949 -4.30169 0
M  V30 9951 H 911.451 3.59407 -2.57447 0
M  V30 9952 N 910.51 1.48831 0.518367 0
M  V30 9953 C 911.756 1.57672 1.27543 0
M  V30 9954 C 912.089 0.254915 1.9252 0
M  V30 9955 O 911.364 -0.740107 1.79868 0
M  V30 9956 C 911.647 2.72345 2.35585 0
M  V30 9957 C 911.5 4.14267 1.75224 0
M  V30 9958 C 912.819 2.82726 3.37274 0
M  V30 9959 H 909.938 0.573926 0.462361 0
M  V30 9960 H 912.58 1.8105 0.576267 0
M  V30 9961 H 910.73 2.52543 2.95219 0
M  V30 9962 H 912.402 4.45539 1.19551 0
M  V30 9963 H 910.645 4.20724 1.05706 0
M  V30 9964 H 911.316 4.90345 2.53507 0
M  V30 9965 H 913.792 3.00699 2.8761 0
M  V30 9966 H 912.668 3.6467 4.10252 0
M  V30 9967 H 912.929 1.9136 3.9854 0
M  V30 9968 N 911.988 -0.768124 1.37614 0
M  V30 9969 C 913.228 -1.53979 1.34424 0
M  V30 9970 C 913.592 -1.91874 -0.0696803 0
M  V30 9971 O 914.793 -2.67845 -0.22633 0
M  V30 9972 C 913.064 -2.76845 2.26034 0
M  V30 9973 S 914.623 -3.66871 2.4073 0
M  V30 9974 H 911.441 -0.527108 0.477157 0
M  V30 9975 H 914.043 -0.902945 1.73399 0
M  V30 9976 H 912.747 -2.47091 3.2768 0
M  V30 9977 H 912.278 -3.45486 1.88157 0
M  V30 9978 H 914.293 -4.6899 1.62057 0
M  V30 9979 N 913.466 -1.22244 -0.994698 0
M  V30 9980 C 914.413 -0.990906 -2.08446 0
M  V30 9981 C 915.383 0.086737 -1.65873 0
M  V30 9982 O 916.568 -0.0624882 -1.90698 0
M  V30 9983 C 913.708 -0.572813 -3.40313 0
M  V30 9984 C 912.821 -1.72103 -3.96238 0
M  V30 9985 C 911.956 -1.2511 -5.16257 0
M  V30 9986 C 910.995 -2.37098 -5.64315 0
M  V30 9987 N 910.132 -1.91164 -6.75574 0
M  V30 9988 H 914.972 -1.92377 -2.27585 0
M  V30 9989 H 912.509 -0.958576 -1.11578 0
M  V30 9990 H 914.467 -0.311594 -4.16035 0
M  V30 9991 H 913.097 0.323044 -3.21179 0
M  V30 9992 H 912.149 -2.09662 -3.17405 0
M  V30 9993 H 913.461 -2.56347 -4.27888 0
M  V30 9994 H 912.615 -0.947152 -5.99261 0
M  V30 9995 H 911.354 -0.378836 -4.86226 0
M  V30 9996 H 910.359 -2.68283 -4.799 0
M  V30 9997 H 911.584 -3.24837 -5.96371 0
M  V30 9998 H 909.53 -1.06298 -6.47331 0
M  V30 9999 H 909.447 -2.68975 -7.06533 0
M  V30 10000 H 910.715 -1.63833 -7.62088 0
M  V30 10001 N 914.944 1.19125 -1.03184 0
M  V30 10002 C 915.876 2.21914 -0.573294 0
M  V30 10003 C 916.889 1.5894 0.352397 0
M  V30 10004 O 918.078 1.77883 0.148318 0
M  V30 10005 C 915.178 3.38403 0.18355 0
M  V30 10006 C 914.351 4.3096 -0.747817 0
M  V30 10007 C 913.41 5.26188 -0.0358489 0
M  V30 10008 O 912.436 5.65321 -0.663388 0
M  V30 10009 N 913.638 5.67235 1.23387 0
M  V30 10010 H 916.403 2.61881 -1.45734 0
M  V30 10011 H 913.964 1.33821 -0.911231 0
M  V30 10012 H 915.956 3.99124 0.669468 0
M  V30 10013 H 914.526 2.97201 0.969043 0
M  V30 10014 H 913.746 3.67976 -1.41377 0
M  V30 10015 H 915.034 4.89708 -1.38071 0
M  V30 10016 H 914.432 5.37481 1.76439 0
M  V30 10017 H 912.989 6.30196 1.66423 0
M  V30 10018 N 916.422 0.810101 1.35185 0
M  V30 10019 C 917.369 0.220927 2.2974 0
M  V30 10020 C 918.339 -0.647024 1.5298 0
M  V30 10021 O 919.524 -0.591367 1.81404 0
M  V30 10022 C 916.664 -0.62167 3.39454 0
M  V30 10023 C 915.777 0.267104 4.31173 0
M  V30 10024 C 914.912 -0.583833 5.27982 0
M  V30 10025 C 913.951 0.305123 6.11339 0
M  V30 10026 N 913.088 -0.505992 7.00274 0
M  V30 10027 H 917.928 1.03266 2.79536 0
M  V30 10028 H 915.465 0.520768 1.37573 0
M  V30 10029 H 917.423 -1.12539 4.01735 0
M  V30 10030 H 916.053 -1.39863 2.90926 0
M  V30 10031 H 915.105 0.88895 3.69867 0
M  V30 10032 H 916.417 0.951182 4.89647 0
M  V30 10033 H 915.571 -1.15254 5.95652 0
M  V30 10034 H 914.31 -1.30146 4.70014 0
M  V30 10035 H 913.315 0.886075 5.42613 0
M  V30 10036 H 914.54 1.02067 6.71386 0
M  V30 10037 H 912.486 -1.20753 6.4479 0
M  V30 10038 H 912.403 0.119966 7.55905 0
M  V30 10039 H 913.671 -1.05787 7.72288 0
M  V30 10040 N 917.9 -1.47166 0.563914 0
M  V30 10041 C 918.863 -2.28571 -0.169624 0
M  V30 10042 C 919.863 -1.37331 -0.836467 0
M  V30 10043 O 921.053 -1.59896 -0.6913 0
M  V30 10044 C 918.185 -3.17201 -1.24886 0
M  V30 10045 H 919.378 -2.94896 0.545539 0
M  V30 10046 H 916.931 -1.52966 0.321121 0
M  V30 10047 H 917.666 -2.55582 -1.99621 0
M  V30 10048 H 917.451 -3.84356 -0.775426 0
M  V30 10049 H 918.941 -3.7852 -1.76388 0
M  V30 10050 N 919.378 -0.300708 -1.54705 0
M  V30 10051 C 920.308 0.568675 -2.26469 0
M  V30 10052 C 921.289 1.13817 -1.26411 0
M  V30 10053 O 922.474 1.16756 -1.55183 0
M  V30 10054 C 919.604 1.74077 -3.00524 0
M  V30 10055 C 918.558 1.30165 -4.07727 0
M  V30 10056 C 917.884 2.55888 -4.69495 0
M  V30 10057 C 919.184 0.433106 -5.20501 0
M  V30 10058 H 920.878 -0.0298851 -2.99385 0
M  V30 10059 H 918.424 -0.0158135 -1.43991 0
M  V30 10060 H 920.377 2.35506 -3.49449 0
M  V30 10061 H 919.101 2.36556 -2.25186 0
M  V30 10062 H 917.76 0.710414 -3.59651 0
M  V30 10063 H 917.408 3.16681 -3.90797 0
M  V30 10064 H 917.108 2.27207 -5.41895 0
M  V30 10065 H 918.632 3.18121 -5.21183 0
M  V30 10066 H 920.046 0.95307 -5.65322 0
M  V30 10067 H 918.443 0.240085 -5.9962 0
M  V30 10068 H 919.513 -0.541866 -4.81863 0
M  V30 10069 N 920.856 1.57574 -0.0284266 0
M  V30 10070 C 921.766 2.13637 0.96936 0
M  V30 10071 C 922.782 1.08845 1.35752 0
M  V30 10072 O 923.958 1.40899 1.43908 0
M  V30 10073 C 921.023 2.65179 2.2334 0
M  V30 10074 C 920.084 3.84683 1.90572 0
M  V30 10075 C 919.317 4.33758 3.1095 0
M  V30 10076 O 919.54 3.82009 4.23586 0
M  V30 10077 O 918.474 5.2561 2.93288 0
M  V30 10078 H 922.3 2.99169 0.52267 0
M  V30 10079 H 919.885 1.48159 0.192135 0
M  V30 10080 H 921.767 2.98402 2.97547 0
M  V30 10081 H 920.442 1.82731 2.67191 0
M  V30 10082 H 919.349 3.56386 1.13753 0
M  V30 10083 H 920.682 4.68292 1.51538 0
M  V30 10084 N 922.334 -0.244713 1.55689 0
M  V30 10085 C 923.264 -1.30667 1.93516 0
M  V30 10086 C 924.245 -1.50094 0.800371 0
M  V30 10087 O 925.43 -1.62665 1.06083 0
M  V30 10088 C 922.56 -2.66101 2.23176 0
M  V30 10089 C 921.514 -2.61366 3.38927 0
M  V30 10090 C 920.84 -4.00616 3.54134 0
M  V30 10091 C 922.14 -2.18161 4.74555 0
M  V30 10092 H 923.834 -0.992546 2.82469 0
M  V30 10093 H 921.38 -0.476018 1.35905 0
M  V30 10094 H 923.333 -3.4053 2.48228 0
M  V30 10095 H 922.057 -2.99154 1.31051 0
M  V30 10096 H 920.716 -1.89395 3.13887 0
M  V30 10097 H 920.364 -4.30938 2.59426 0
M  V30 10098 H 920.064 -3.98335 4.31975 0
M  V30 10099 H 921.588 -4.76741 3.8151 0
M  V30 10100 H 923.002 -2.82323 4.98965 0
M  V30 10101 H 921.399 -2.26988 5.55515 0
M  V30 10102 H 922.469 -1.13333 4.7147 0
M  V30 10103 N 923.813 -1.49104 -0.510467 0
M  V30 10104 C 924.743 -1.67981 -1.62187 0
M  V30 10105 C 925.724 -0.528529 -1.6168 0
M  V30 10106 O 926.909 -0.763305 -1.7857 0
M  V30 10107 C 924.039 -1.73755 -3.0071 0
M  V30 10108 C 922.993 -2.88579 -3.1608 0
M  V30 10109 C 922.319 -2.79457 -4.5586 0
M  V30 10110 C 923.619 -4.29638 -2.97 0
M  V30 10111 H 925.313 -2.61029 -1.46643 0
M  V30 10112 H 922.859 -1.25615 -0.704042 0
M  V30 10113 H 924.812 -1.85548 -3.78352 0
M  V30 10114 H 923.536 -0.772996 -3.17321 0
M  V30 10115 H 922.195 -2.76372 -2.40861 0
M  V30 10116 H 921.843 -1.80929 -4.69333 0
M  V30 10117 H 921.543 -3.56518 -4.67086 0
M  V30 10118 H 923.067 -2.93245 -5.35574 0
M  V30 10119 H 924.481 -4.42575 -3.64418 0
M  V30 10120 H 922.878 -5.07847 -3.19704 0
M  V30 10121 H 923.948 -4.44741 -1.93219 0
M  V30 10122 N 925.291 0.760815 -1.38019 0
M  V30 10123 C 926.702 1.33773 -1.30237 0
M  V30 10124 C 927.053 1.96148 0.0451153 0
M  V30 10125 O 926.178 1.94574 0.9471 0
M  V30 10126 C 926.773 2.43227 -2.35851 0
M  V30 10127 C 925.332 2.96659 -2.31669 0
M  V30 10128 C 924.479 1.69972 -2.191 0
M  V30 10129 H 927.43 0.560237 -1.48482 0
M  V30 10130 H 927.451 3.22985 -2.01149 0
M  V30 10131 H 926.963 1.978 -3.33911 0
M  V30 10132 H 925.064 3.46433 -1.37167 0
M  V30 10133 H 925.177 3.51529 -3.25521 0
M  V30 10134 H 923.541 1.9332 -1.65829 0
M  V30 10135 H 924.324 1.26633 -3.19091 0
M  V30 10136 N 926.769 1.22769 0.988202 0
M  V30 10137 C 927.716 1.00195 2.07917 0
M  V30 10138 C 928.686 -0.0779391 1.65917 0
M  V30 10139 O 929.871 0.0726005 1.90662 0
M  V30 10140 C 927.011 0.590853 3.40004 0
M  V30 10141 C 926.124 1.74202 3.9532 0
M  V30 10142 C 925.259 1.27846 5.15586 0
M  V30 10143 C 924.298 2.40087 5.63049 0
M  V30 10144 N 923.435 1.94744 6.74551 0
M  V30 10145 H 928.275 1.93581 2.26562 0
M  V30 10146 H 925.812 0.96448 1.11068 0
M  V30 10147 H 927.77 0.333653 4.15864 0
M  V30 10148 H 926.4 -0.306007 3.21346 0
M  V30 10149 H 925.452 2.11342 3.16289 0
M  V30 10150 H 926.764 2.58612 4.26522 0
M  V30 10151 H 925.918 0.978919 5.9875 0
M  V30 10152 H 924.657 0.404617 4.86019 0
M  V30 10153 H 923.662 2.70824 4.78471 0
M  V30 10154 H 924.887 3.27995 5.9464 0
M  V30 10155 H 922.833 1.09729 6.46758 0
M  V30 10156 H 922.75 2.72718 7.05096 0
M  V30 10157 H 924.018 1.67873 7.61209 0
M  V30 10158 N 928.247 -1.18576 1.03814 0
M  V30 10159 C 929.493 -1.88773 0.741132 0
M  V30 10160 C 929.826 -1.79993 -0.729127 0
M  V30 10161 O 929.101 -1.19851 -1.53186 0
M  V30 10162 C 929.384 -3.39352 1.20468 0
M  V30 10163 C 929.237 -3.56955 2.73684 0
M  V30 10164 C 930.556 -4.32901 0.792741 0
M  V30 10165 H 927.675 -0.685482 0.270708 0
M  V30 10166 H 930.317 -1.39523 1.2897 0
M  V30 10167 H 928.467 -3.81427 0.737974 0
M  V30 10168 H 930.139 -3.2399 3.28372 0
M  V30 10169 H 928.382 -2.99696 3.13632 0
M  V30 10170 H 929.053 -4.62598 3.01176 0
M  V30 10171 H 931.529 -3.98592 1.1943 0
M  V30 10172 H 930.405 -5.36828 1.14486 0
M  V30 10173 H 930.666 -4.41052 -0.304295 0
M  V30 10174 N 929.725 -0.817259 -1.34754 0
M  V30 10175 C 930.635 -0.236946 -2.334 0
M  V30 10176 C 931.651 0.625685 -1.62361 0
M  V30 10177 O 932.827 0.534921 -1.94166 0
M  V30 10178 C 929.892 0.596215 -3.41535 0
M  V30 10179 C 928.953 -0.288154 -4.28332 0
M  V30 10180 C 928.186 0.505337 -5.31302 0
M  V30 10181 O 928.409 1.73912 -5.43241 0
M  V30 10182 O 927.343 -0.109374 -6.01801 0
M  V30 10183 H 931.169 -1.05327 -2.84851 0
M  V30 10184 H 928.754 -0.579275 -1.37713 0
M  V30 10185 H 930.636 1.07041 -4.07578 0
M  V30 10186 H 929.311 1.38997 -2.92338 0
M  V30 10187 H 928.218 -0.809724 -3.65232 0
M  V30 10188 H 929.551 -1.04612 -4.80955 0
M  V30 10189 N 931.203 1.46865 -0.571711 0
M  V30 10190 C 932.113 2.33979 0.170571 0
M  V30 10191 C 933.129 1.49083 0.897239 0
M  V30 10192 O 934.305 1.81979 0.862888 0
M  V30 10193 C 931.37 3.26063 1.17831 0
M  V30 10194 C 930.431 4.26855 0.457499 0
M  V30 10195 C 929.664 5.14539 1.41722 0
M  V30 10196 O 929.887 5.04945 2.65305 0
M  V30 10197 O 928.821 5.94612 0.9338 0
M  V30 10198 H 932.647 2.98781 -0.544396 0
M  V30 10199 H 930.232 1.4566 -0.332198 0
M  V30 10200 H 932.114 3.82903 1.75965 0
M  V30 10201 H 930.789 2.63871 1.87493 0
M  V30 10202 H 929.696 3.73734 -0.165406 0
M  V30 10203 H 931.029 4.91802 -0.197953 0
M  V30 10204 N 932.681 0.308908 1.54543 0
M  V30 10205 C 933.927 -0.298478 2.00592 0
M  V30 10206 C 934.26 -1.52929 1.19692 0
M  V30 10207 O 933.535 -1.9254 0.27542 0
M  V30 10208 C 933.818 -0.647218 3.54236 0
M  V30 10209 C 933.671 0.593284 4.4587 0
M  V30 10210 C 934.99 -1.47064 4.14801 0
M  V30 10211 H 932.109 -0.107012 0.72919 0
M  V30 10212 H 934.751 0.422578 1.85241 0
M  V30 10213 H 932.901 -1.26153 3.67447 0
M  V30 10214 H 934.573 1.2317 4.44552 0
M  V30 10215 H 932.816 1.22501 4.16144 0
M  V30 10216 H 933.487 0.305018 5.51157 0
M  V30 10217 H 935.963 -0.951511 4.05075 0
M  V30 10218 H 934.839 -1.68343 5.22448 0
M  V30 10219 H 935.1 -2.4623 3.67183 0
M  V30 10220 N 934.159 -1.57557 0.0367827 0
M  V30 10221 C 935.405 -1.92399 -0.641133 0
M  V30 10222 C 935.738 -0.914191 -1.71336 0
M  V30 10223 O 935.013 0.0619616 -1.94401 0
M  V30 10224 C 935.296 -3.37689 -1.25052 0
M  V30 10225 C 935.149 -4.4941 -0.187326 0
M  V30 10226 C 936.468 -3.8309 -2.16634 0
M  V30 10227 H 933.587 -0.699666 -0.231597 0
M  V30 10228 H 936.229 -1.89759 0.0956083 0
M  V30 10229 H 934.379 -3.40069 -1.87843 0
M  V30 10230 H 936.051 -4.59161 0.443736 0
M  V30 10231 H 934.294 -4.31065 0.486313 0
M  V30 10232 H 934.965 -5.48119 -0.653459 0
M  V30 10233 H 937.441 -3.82494 -1.63821 0
M  V30 10234 H 936.317 -4.85429 -2.56222 0
M  V30 10235 H 936.578 -3.19028 -3.06062 0
M  V30 10236 N 935.637 0.236453 -1.55816 0
M  V30 10237 C 936.862 0.98449 -1.82545 0
M  V30 10238 C 937.287 1.77755 -0.615206 0
M  V30 10239 O 936.645 1.75982 0.435895 0
M  V30 10240 C 936.693 1.88973 -3.07118 0
M  V30 10241 O 935.797 2.98298 -2.84766 0
M  V30 10242 H 935.138 0.279577 -0.602273 0
M  V30 10243 H 937.668 0.254277 -2.03014 0
M  V30 10244 H 937.678 2.3024 -3.36829 0
M  V30 10245 H 936.353 1.30671 -3.94839 0
M  V30 10246 H 934.93 2.61085 -2.6625 0
M  V30 10247 N 937.115 1.49373 0.502552 0
M  V30 10248 C 938.045 1.68839 1.61294 0
M  V30 10249 C 939.026 0.537096 1.61398 0
M  V30 10250 O 940.211 0.772764 1.78163 0
M  V30 10251 C 937.341 1.75347 2.99784 0
M  V30 10252 C 936.295 2.90251 3.14545 0
M  V30 10253 C 935.621 2.8187 4.54371 0
M  V30 10254 C 936.921 4.31207 2.94717 0
M  V30 10255 H 938.615 2.61803 1.45257 0
M  V30 10256 H 936.161 1.25987 0.697371 0
M  V30 10257 H 938.114 1.87552 3.77362 0
M  V30 10258 H 936.838 0.789814 3.16906 0
M  V30 10259 H 935.497 2.77646 2.39392 0
M  V30 10260 H 935.145 1.83416 4.68367 0
M  V30 10261 H 934.845 3.5899 4.65188 0
M  V30 10262 H 936.369 2.96081 5.34012 0
M  V30 10263 H 937.783 4.44501 3.62065 0
M  V30 10264 H 936.18 5.09536 3.17007 0
M  V30 10265 H 937.25 4.45759 1.90857 0
M  V30 10266 N 938.594 -0.753485 1.38421 0
M  V30 10267 C 939.527 -1.87525 1.30037 0
M  V30 10268 C 940.505 -1.6163 0.177379 0
M  V30 10269 O 941.689 -1.85132 0.354716 0
M  V30 10270 C 938.816 -3.23138 1.01485 0
M  V30 10271 C 937.862 -3.67921 2.15723 0
M  V30 10272 S 938.695 -3.79447 3.77863 0
M  V30 10273 C 939.851 -5.17879 3.51499 0
M  V30 10274 H 940.084 -1.94351 2.24978 0
M  V30 10275 H 937.617 -0.916475 1.24258 0
M  V30 10276 H 939.575 -4.01455 0.856959 0
M  V30 10277 H 938.236 -3.13991 0.0826199 0
M  V30 10278 H 937.429 -4.66287 1.91292 0
M  V30 10279 H 937.031 -2.96758 2.2762 0
M  V30 10280 H 939.323 -6.03636 3.0762 0
M  V30 10281 H 940.266 -5.47331 4.49259 0
M  V30 10282 H 940.674 -4.86681 2.8601 0
M  V30 10283 N 940.072 -1.23292 -0.981677 0
M  V30 10284 C 941.02 -1.0104 -2.09508 0
M  V30 10285 C 942.014 0.0501977 -1.69326 0
M  V30 10286 O 943.22 -0.103197 -1.79704 0
M  V30 10287 H 939.595 -0.309629 -0.685298 0
M  V30 10288 H 941.566 -1.95493 -2.25444 0
M  V30 10289 C 940.315 -0.616885 -3.42184 0
M  V30 10290 H 939.638 -1.4247 -3.73554 0
M  V30 10291 H 941.078 -0.500688 -4.21033 0
M  V30 10292 C 939.537 0.674721 -3.30074 0
M  V30 10293 O 940.067 1.72421 -3.62814 0
M  V30 10294 N 938.273 0.650151 -2.83234 0
M  V30 10295 H 937.82 -0.204225 -2.56789 0
M  V30 10296 H 937.778 1.51458 -2.75514 0
M  V30 10297 N 941.55 1.18024 -1.04442 0
M  V30 10298 C 942.46 2.25436 -0.649276 0
M  V30 10299 C 943.476 1.70915 0.326189 0
M  V30 10300 O 944.652 2.00592 0.180174 0
M  V30 10301 C 941.717 3.46693 -0.0222558 0
M  V30 10302 C 940.778 4.16332 -1.0472 0
M  V30 10303 C 940.011 5.31799 -0.450011 0
M  V30 10304 O 940.234 5.65544 0.742717 0
M  V30 10305 O 939.168 5.90209 -1.18056 0
M  V30 10306 H 942.994 2.61508 -1.54426 0
M  V30 10307 H 940.579 1.25178 -0.81552 0
M  V30 10308 H 942.461 4.20132 0.326597 0
M  V30 10309 H 941.136 3.12436 0.84649 0
M  V30 10310 H 940.043 3.44944 -1.44792 0
M  V30 10311 H 941.376 4.54598 -1.88684 0
M  V30 10312 N 943.028 0.824394 1.34319 0
M  V30 10313 C 944.305 0.335692 1.92698 0
M  V30 10314 C 944.685 -1.17715 1.75232 0
M  V30 10315 O 944.033 -1.98493 1.13194 0
M  V30 10316 C 944.243 0.766647 3.40475 0
M  V30 10317 C 945.591 0.766323 4.17627 0
M  V30 10318 O 946.615 0.709321 3.49066 0
M  V30 10319 O 945.474 0.840856 5.39992 0
M  V30 10320 H 942.568 0.0919996 0.821867 0
M  V30 10321 H 945.114 0.909282 1.43283 0
M  V30 10322 H 943.886 1.80859 3.46995 0
M  V30 10323 H 943.509 0.168833 3.97241 0
M  V30 10324 N 944.506 -1.46559 0.579492 0
M  V30 10325 C 945.416 -2.34066 -0.15816 0
M  V30 10326 C 946.432 -1.49556 -0.88932 0
M  V30 10327 O 947.608 -1.82434 -0.853226 0
M  V30 10328 C 944.673 -3.26683 -1.161 0
M  V30 10329 C 943.734 -4.27092 -0.434855 0
M  V30 10330 C 942.967 -5.15283 -1.38992 0
M  V30 10331 O 943.19 -5.06345 -2.62623 0
M  V30 10332 O 942.124 -5.95099 -0.902253 0
M  V30 10333 H 945.95 -2.98488 0.560234 0
M  V30 10334 H 943.535 -1.45482 0.339918 0
M  V30 10335 H 945.417 -3.8383 -1.73932 0
M  V30 10336 H 944.092 -2.64862 -1.86091 0
M  V30 10337 H 942.999 -3.73641 0.185224 0
M  V30 10338 H 944.332 -4.9169 0.224031 0
M  V30 10339 N 945.984 -0.3171 -1.54377 0
M  V30 10340 C 946.931 0.551782 -2.24107 0
M  V30 10341 C 947.901 1.11681 -1.22949 0
M  V30 10342 O 949.086 1.15836 -1.51614 0
M  V30 10343 C 946.226 1.70997 -2.99756 0
M  V30 10344 C 945.339 1.17479 -4.15719 0
M  V30 10345 C 944.474 2.29815 -4.78914 0
M  V30 10346 C 943.513 1.73513 -5.86992 0
M  V30 10347 N 942.65 2.79485 -6.44075 0
M  V30 10348 H 947.49 -0.049431 -2.97959 0
M  V30 10349 H 945.027 -0.0361658 -1.47056 0
M  V30 10350 H 946.985 2.39141 -3.41859 0
M  V30 10351 H 945.615 2.28257 -2.28251 0
M  V30 10352 H 944.667 0.385109 -3.78446 0
M  V30 10353 H 945.979 0.72276 -4.93536 0
M  V30 10354 H 945.133 3.05875 -5.23952 0
M  V30 10355 H 943.872 2.78352 -4.00464 0
M  V30 10356 H 942.877 0.959475 -5.41363 0
M  V30 10357 H 944.102 1.2586 -6.67335 0
M  V30 10358 H 942.048 3.27325 -5.68502 0
M  V30 10359 H 941.965 2.38825 -7.17286 0
M  V30 10360 H 943.233 3.55394 -6.93769 0
M  V30 10361 N 947.462 1.57535 -0.0451378 0
M  V30 10362 C 948.69 1.96761 0.639742 0
M  V30 10363 C 949.105 0.922405 1.64734 0
M  V30 10364 O 948.462 -0.0940535 1.82257 0
M  V30 10365 C 948.513 3.36066 1.33199 0
M  V30 10366 O 948.234 4.36579 0.364757 0
M  V30 10367 C 949.735 3.90015 2.1072 0
M  V30 10368 H 946.955 0.64769 0.175324 0
M  V30 10369 H 949.499 2.04206 -0.109651 0
M  V30 10370 H 947.654 3.2979 2.03266 0
M  V30 10371 H 948.068 5.17432 0.858168 0
M  V30 10372 H 949.542 4.89785 2.54586 0
M  V30 10373 H 950.019 3.25117 2.95288 0
M  V30 10374 H 950.625 3.99609 1.45577 0
M  V30 10375 N 948.94 -0.228186 1.55939 0
M  V30 10376 C 950.186 -0.954964 1.78909 0
M  V30 10377 C 950.519 -1.8425 0.613648 0
M  V30 10378 O 949.794 -1.90604 -0.38737 0
M  V30 10379 C 950.077 -1.79957 3.1191 0
M  V30 10380 C 949.93 -0.938968 4.3989 0
M  V30 10381 C 951.249 -2.77859 3.41295 0
M  V30 10382 H 948.368 -0.345745 0.650868 0
M  V30 10383 H 951.01 -0.224244 1.88672 0
M  V30 10384 H 949.16 -2.42256 3.03717 0
M  V30 10385 H 950.832 -0.333225 4.60095 0
M  V30 10386 H 949.075 -0.244096 4.33113 0
M  V30 10387 H 949.746 -1.56416 5.29375 0
M  V30 10388 H 952.222 -2.25695 3.49572 0
M  V30 10389 H 951.098 -3.34062 4.35538 0
M  V30 10390 H 951.359 -3.55266 2.63132 0
M  V30 10391 N 950.418 -1.49637 -0.494624 0
M  V30 10392 C 951.664 -1.59681 -1.25019 0
M  V30 10393 C 951.997 -0.285511 -1.9209 0
M  V30 10394 O 951.272 0.711398 -1.81023 0
M  V30 10395 C 951.555 -2.76058 -2.31222 0
M  V30 10396 C 951.408 -4.17002 -1.68611 0
M  V30 10397 C 952.727 -2.88056 -3.32734 0
M  V30 10398 H 949.846 -0.581209 -0.453172 0
M  V30 10399 H 952.488 -1.81944 -0.547391 0
M  V30 10400 H 950.638 -2.57207 -2.91164 0
M  V30 10401 H 952.31 -4.47385 -1.12447 0
M  V30 10402 H 950.553 -4.22352 -0.989991 0
M  V30 10403 H 951.224 -4.94316 -2.45674 0
M  V30 10404 H 953.7 -3.05237 -2.82789 0
M  V30 10405 H 952.576 -3.71151 -4.04399 0
M  V30 10406 H 952.837 -1.97676 -3.95445 0
M  V30 10407 N 951.896 0.746133 -1.38819 0
M  V30 10408 C 953.312 1.0502 -1.20179 0
M  V30 10409 C 953.512 2.01423 -0.0556271 0
M  V30 10410 O 952.568 2.45359 0.59625 0
M  V30 10411 C 953.881 1.62315 -2.53129 0
M  V30 10412 C 955.429 1.74449 -2.59878 0
M  V30 10413 C 955.904 2.35155 -3.93022 0
M  V30 10414 N 957.395 2.42577 -3.94602 0
M  V30 10415 C 958.13 2.9046 -4.94389 0
M  V30 10416 N 957.626 3.38322 -6.04574 0
M  V30 10417 N 959.419 2.89568 -4.81775 0
M  V30 10418 H 951.57 0.106551 -2.12133 0
M  V30 10419 H 953.833 0.109897 -0.941609 0
M  V30 10420 H 953.539 0.98946 -3.37495 0
M  V30 10421 H 953.413 2.61276 -2.72057 0
M  V30 10422 H 955.8 2.36943 -1.75903 0
M  V30 10423 H 955.881 0.741721 -2.4481 0
M  V30 10424 H 955.525 1.73292 -4.77422 0
M  V30 10425 H 955.455 3.36088 -4.05404 0
M  V30 10426 H 957.946 2.08735 -3.15021 0
M  V30 10427 H 958.259 3.73336 -6.76639 0
M  V30 10428 H 956.604 3.3636 -6.08184 0
M  V30 10429 H 959.795 2.51492 -3.94803 0
M  V30 10430 H 959.968 3.26571 -5.59692 0
M  V30 10431 N 953.375 1.23811 0.975125 0
M  V30 10432 C 954.305 1.04846 2.08638 0
M  V30 10433 C 955.286 -0.0362859 1.70061 0
M  V30 10434 O 956.471 0.12937 1.93769 0
M  V30 10435 C 953.601 0.644534 3.41267 0
M  V30 10436 C 952.555 1.67722 3.93768 0
M  V30 10437 C 951.881 1.12857 5.22654 0
M  V30 10438 C 953.181 3.07147 4.22443 0
M  V30 10439 H 954.875 1.97795 2.24761 0
M  V30 10440 H 952.421 0.952397 1.08006 0
M  V30 10441 H 954.374 0.498887 4.18436 0
M  V30 10442 H 953.098 -0.320641 3.25022 0
M  V30 10443 H 951.757 1.81095 3.18748 0
M  V30 10444 H 951.405 0.154227 5.02764 0
M  V30 10445 H 951.105 1.81862 5.58749 0
M  V30 10446 H 952.629 0.994891 6.0244 0
M  V30 10447 H 954.043 2.97045 4.90344 0
M  V30 10448 H 952.44 3.73437 4.6975 0
M  V30 10449 H 953.51 3.55743 3.29507 0
M  V30 10450 N 954.853 -1.17469 1.05066 0
M  V30 10451 C 955.785 -2.20974 0.608526 0
M  V30 10452 C 956.798 -1.59481 -0.327066 0
M  V30 10453 O 957.987 -1.78096 -0.12 0
M  V30 10454 C 955.087 -3.38652 -0.12969 0
M  V30 10455 C 954.26 -4.29716 0.816285 0
M  V30 10456 C 953.319 -5.26064 0.119556 0
M  V30 10457 O 952.345 -5.64194 0.753241 0
M  V30 10458 N 953.547 -5.69126 -1.14347 0
M  V30 10459 H 956.312 -2.59529 1.49882 0
M  V30 10460 H 953.873 -1.32355 0.932406 0
M  V30 10461 H 955.865 -4.00139 -0.605886 0
M  V30 10462 H 954.435 -2.98705 -0.921638 0
M  V30 10463 H 953.655 -3.6568 1.47213 0
M  V30 10464 H 954.943 -4.87449 1.45845 0
M  V30 10465 H 954.341 -5.4022 -1.67866 0
M  V30 10466 H 952.898 -6.32764 -1.56376 0
M  V30 10467 N 956.331 -0.831506 -1.3388 0
M  V30 10468 C 957.241 -0.261688 -2.33136 0
M  V30 10469 C 958.257 0.608429 -1.63016 0
M  V30 10470 O 959.433 0.514297 -1.94723 0
M  V30 10471 C 956.498 0.559957 -3.42148 0
M  V30 10472 C 955.559 -0.333569 -4.28002 0
M  V30 10473 C 954.792 0.448956 -5.31808 0
M  V30 10474 O 955.015 1.6814 -5.45055 0
M  V30 10475 O 953.949 -0.173197 -6.01651 0
M  V30 10476 H 957.775 -1.08343 -2.83717 0
M  V30 10477 H 955.36 -0.593849 -1.3709 0
M  V30 10478 H 957.242 1.02712 -4.08691 0
M  V30 10479 H 955.917 1.35888 -2.93796 0
M  V30 10480 H 954.824 -0.848416 -3.64352 0
M  V30 10481 H 956.157 -1.09707 -4.79818 0
M  V30 10482 N 957.809 1.4625 -0.587256 0
M  V30 10483 C 958.756 2.30354 0.143384 0
M  V30 10484 C 959.726 1.40891 0.879716 0
M  V30 10485 O 960.911 1.69837 0.869486 0
M  V30 10486 C 958.051 3.25441 1.14815 0
M  V30 10487 C 957.164 4.30004 0.414792 0
M  V30 10488 C 956.299 5.12214 1.40748 0
M  V30 10489 C 955.338 6.08523 0.660786 0
M  V30 10490 N 954.475 6.83585 1.60176 0
M  V30 10491 H 959.315 2.92304 -0.579866 0
M  V30 10492 H 956.852 1.44055 -0.29777 0
M  V30 10493 H 958.81 3.79018 1.7436 0
M  V30 10494 H 957.44 2.6529 1.83906 0
M  V30 10495 H 956.492 3.79248 -0.295787 0
M  V30 10496 H 957.804 4.98515 -0.168738 0
M  V30 10497 H 956.958 5.70091 2.0756 0
M  V30 10498 H 955.697 4.43675 2.02494 0
M  V30 10499 H 954.702 5.49796 -0.0210864 0
M  V30 10500 H 955.927 6.79083 0.0486551 0
M  V30 10501 H 953.873 6.17752 2.20724 0
M  V30 10502 H 953.79 7.48373 1.07115 0
M  V30 10503 H 955.058 7.46016 2.26009 0
M  V30 10504 N 959.287 0.325282 1.54207 0
M  V30 10505 C 960.703 -0.0273036 1.59577 0
M  V30 10506 C 960.903 -1.50329 1.34177 0
M  V30 10507 O 959.959 -2.25951 1.12705 0
M  V30 10508 C 961.272 0.392468 2.98128 0
M  V30 10509 C 962.82 0.343269 3.11112 0
M  V30 10510 C 963.295 0.738229 4.52011 0
M  V30 10511 N 964.786 0.691701 4.58006 0
M  V30 10512 C 965.521 0.969479 5.65145 0
M  V30 10513 N 965.017 1.31448 6.80216 0
M  V30 10514 N 966.81 0.894926 5.5493 0
M  V30 10515 H 958.961 1.28692 1.68974 0
M  V30 10516 H 961.224 0.523399 0.790416 0
M  V30 10517 H 960.93 1.42089 3.2172 0
M  V30 10518 H 960.804 -0.241651 3.76425 0
M  V30 10519 H 963.191 -0.675946 2.87254 0
M  V30 10520 H 963.272 1.01235 2.34915 0
M  V30 10521 H 962.916 1.75537 4.76602 0
M  V30 10522 H 962.846 0.0468226 5.26579 0
M  V30 10523 H 965.337 0.436975 3.75365 0
M  V30 10524 H 965.65 1.51177 7.57869 0
M  V30 10525 H 963.995 1.35276 6.81708 0
M  V30 10526 H 967.186 0.624876 4.6391 0
M  V30 10527 H 967.359 1.11476 6.38339 0
M  V30 10528 N 960.765 -1.57509 0.0534917 0
M  V30 10529 C 961.697 -2.08616 -0.949322 0
M  V30 10530 C 962.71 -1.01446 -1.27328 0
M  V30 10531 O 963.899 -1.29007 -1.23367 0
M  V30 10532 C 960.999 -2.51622 -2.27024 0
M  V30 10533 C 960.172 -3.82154 -2.12785 0
M  V30 10534 C 959.231 -4.11448 -3.2802 0
M  V30 10535 O 958.257 -4.81333 -3.03822 0
M  V30 10536 N 959.459 -3.63543 -4.52567 0
M  V30 10537 H 962.224 -2.95275 -0.5131 0
M  V30 10538 H 959.785 -1.61355 -0.132693 0
M  V30 10539 H 961.777 -2.68293 -3.02986 0
M  V30 10540 H 960.347 -1.70198 -2.62205 0
M  V30 10541 H 959.567 -3.75041 -1.21399 0
M  V30 10542 H 960.855 -4.67629 -2.00501 0
M  V30 10543 H 960.253 -3.07051 -4.75117 0
M  V30 10544 H 958.81 -3.85448 -5.25617 0
M  V30 10545 N 962.243 0.219913 -1.56058 0
M  V30 10546 C 963.19 1.27254 -1.92549 0
M  V30 10547 C 964.16 1.46493 -0.782883 0
M  V30 10548 O 965.345 1.60035 -1.03892 0
M  V30 10549 C 962.485 2.61756 -2.24896 0
M  V30 10550 C 961.598 2.50302 -3.52098 0
M  V30 10551 C 960.733 3.77338 -3.73884 0
M  V30 10552 C 959.772 3.60613 -4.94595 0
M  V30 10553 N 958.909 4.79603 -5.12763 0
M  V30 10554 H 963.749 0.954352 -2.82305 0
M  V30 10555 H 961.286 0.459928 -1.39725 0
M  V30 10556 H 963.244 3.40082 -2.4166 0
M  V30 10557 H 961.874 2.91668 -1.38311 0
M  V30 10558 H 960.926 1.63401 -3.43517 0
M  V30 10559 H 962.238 2.33866 -4.40577 0
M  V30 10560 H 961.392 4.64108 -3.90754 0
M  V30 10561 H 960.131 3.96702 -2.83689 0
M  V30 10562 H 959.136 2.72228 -4.77674 0
M  V30 10563 H 960.361 3.42719 -5.86277 0
M  V30 10564 H 958.307 4.99277 -4.2551 0
M  V30 10565 H 958.224 4.65899 -5.95377 0
M  V30 10566 H 959.492 5.67794 -5.34069 0
M  V30 10567 N 963.721 1.49897 0.486681 0
M  V30 10568 C 964.631 1.70379 1.6127 0
M  V30 10569 C 965.647 0.58659 1.63814 0
M  V30 10570 O 966.823 0.863044 1.81971 0
M  V30 10571 C 963.888 1.77911 2.97571 0
M  V30 10572 C 962.949 3.01569 3.0554 0
M  V30 10573 C 962.182 3.08732 4.35339 0
M  V30 10574 O 962.405 2.23099 5.2496 0
M  V30 10575 O 961.339 4.01325 4.48578 0
M  V30 10576 H 965.165 2.65799 1.46916 0
M  V30 10577 H 962.75 1.33808 0.664516 0
M  V30 10578 H 964.632 1.85135 3.78554 0
M  V30 10579 H 963.307 0.856722 3.12157 0
M  V30 10580 H 962.214 2.99854 2.23693 0
M  V30 10581 H 963.547 3.93335 2.95886 0
M  V30 10582 N 965.199 -0.738761 1.39212 0
M  V30 10583 C 966.129 -1.86602 1.40364 0
M  V30 10584 C 967.11 -1.67984 0.267495 0
M  V30 10585 O 968.295 -1.88358 0.472765 0
M  V30 10586 C 965.425 -3.24308 1.24265 0
M  V30 10587 C 964.379 -3.57557 2.35239 0
M  V30 10588 C 963.705 -4.94159 2.04233 0
M  V30 10589 C 965.005 -3.60914 3.77543 0
M  V30 10590 H 966.699 -1.85896 2.34698 0
M  V30 10591 H 964.245 -0.892959 1.1297 0
M  V30 10592 H 966.198 -4.02838 1.23692 0
M  V30 10593 H 964.922 -3.25531 0.263974 0
M  V30 10594 H 963.581 -2.81354 2.35022 0
M  V30 10595 H 963.229 -4.91959 1.04813 0
M  V30 10596 H 962.929 -5.17373 2.78567 0
M  V30 10597 H 964.453 -5.7505 2.05303 0
M  V30 10598 H 965.867 -4.29528 3.79709 0
M  V30 10599 H 964.264 -3.95644 4.51205 0
M  V30 10600 H 965.334 -2.60803 4.08791 0
M  V30 10601 N 966.677 -1.24326 -0.968545 0
M  V30 10602 C 967.923 -1.09413 -1.71465 0
M  V30 10603 C 968.278 0.363422 -1.88937 0
M  V30 10604 O 967.571 1.26486 -1.43916 0
M  V30 10605 C 967.765 -1.76644 -3.10695 0
M  V30 10606 C 967.594 -3.28787 -3.06805 0
M  V30 10607 C 966.364 -3.97995 -3.11333 0
M  V30 10608 C 968.562 -4.25389 -2.89047 0
M  V30 10609 N 966.544 -5.37024 -2.97453 0
M  V30 10610 C 967.915 -5.51411 -2.83454 0
M  V30 10611 C 969.97 -4.15976 -2.73621 0
M  V30 10612 C 968.673 -6.69096 -2.64013 0
M  V30 10613 C 970.699 -5.33338 -2.55547 0
M  V30 10614 C 970.061 -6.58291 -2.50663 0
M  V30 10615 H 966.16 -0.454986 -0.636012 0
M  V30 10616 H 968.744 -1.57228 -1.14837 0
M  V30 10617 H 966.915 -1.31344 -3.65518 0
M  V30 10618 H 968.647 -1.54599 -3.74007 0
M  V30 10619 H 965.402 -3.49155 -3.19981 0
M  V30 10620 H 965.826 -6.09948 -2.93756 0
M  V30 10621 H 970.468 -3.20131 -2.76181 0
M  V30 10622 H 968.186 -7.65064 -2.60197 0
M  V30 10623 H 971.772 -5.27904 -2.44557 0
M  V30 10624 H 970.652 -7.47575 -2.36856 0
M  V30 10625 N 968.156 1.1691 -1.05688 0
M  V30 10626 C 969.104 2.2315 -0.656262 0
M  V30 10627 C 970.098 1.66256 0.324873 0
M  V30 10628 O 971.304 1.7899 0.190397 0
M  V30 10629 H 967.679 0.726527 -0.19407 0
M  V30 10630 H 969.65 2.54233 -1.56231 0
M  V30 10631 C 968.399 3.47661 -0.0522431 0
M  V30 10632 H 967.722 3.91749 -0.798299 0
M  V30 10633 H 969.162 4.23571 0.190626 0
M  V30 10634 C 967.621 3.14709 1.20248 0
M  V30 10635 O 968.151 3.29947 2.29124 0
M  V30 10636 N 966.357 2.68892 1.10207 0
M  V30 10637 H 965.904 2.56692 0.216063 0
M  V30 10638 H 965.862 2.47218 1.94244 0
M  V30 10639 N 969.634 0.838594 1.33437 0
M  V30 10640 C 970.564 0.286672 2.31734 0
M  V30 10641 C 971.545 -0.605451 1.5896 0
M  V30 10642 O 972.73 -0.529059 1.86854 0
M  V30 10643 C 969.86 -0.539311 3.43087 0
M  V30 10644 C 968.814 0.256997 4.27228 0
M  V30 10645 C 968.14 -0.692718 5.30194 0
M  V30 10646 C 969.44 1.47391 5.01072 0
M  V30 10647 H 971.134 1.10798 2.78144 0
M  V30 10648 H 968.68 0.534235 1.33723 0
M  V30 10649 H 970.633 -0.935724 4.1088 0
M  V30 10650 H 969.357 -1.39383 2.95364 0
M  V30 10651 H 968.016 0.634967 3.61059 0
M  V30 10652 H 967.664 -1.54363 4.78729 0
M  V30 10653 H 967.364 -0.164023 5.87371 0
M  V30 10654 H 968.888 -1.08665 6.00853 0
M  V30 10655 H 970.302 1.15067 5.61634 0
M  V30 10656 H 968.699 1.93937 5.67898 0
M  V30 10657 H 969.769 2.24382 4.29861 0
M  V30 10658 N 971.112 -1.45937 0.595003 0
M  V30 10659 C 972.042 -2.33198 -0.11871 0
M  V30 10660 C 973.023 -1.46083 -0.871423 0
M  V30 10661 O 974.208 -1.74879 -0.844461 0
M  V30 10662 C 971.338 -3.28576 -1.12495 0
M  V30 10663 C 970.292 -4.25229 -0.486275 0
M  V30 10664 C 969.618 -5.10204 -1.59986 0
M  V30 10665 C 970.918 -5.19019 0.584473 0
M  V30 10666 H 972.612 -2.93122 0.609886 0
M  V30 10667 H 970.158 -1.40951 0.294742 0
M  V30 10668 H 972.111 -3.88485 -1.6327 0
M  V30 10669 H 970.835 -2.66784 -1.88398 0
M  V30 10670 H 969.494 -3.666 0.000507962 0
M  V30 10671 H 969.142 -4.44789 -2.34886 0
M  V30 10672 H 968.842 -5.75669 -1.1781 0
M  V30 10673 H 970.366 -5.7298 -2.11014 0
M  V30 10674 H 971.78 -5.73073 0.161297 0
M  V30 10675 H 970.177 -5.92893 0.927256 0
M  V30 10676 H 971.247 -4.62208 1.46601 0
M  V30 10677 N 972.59 -0.333456 -1.54032 0
M  V30 10678 C 973.537 0.527981 -2.2468 0
M  V30 10679 C 974.507 1.10371 -1.24127 0
M  V30 10680 O 975.692 1.14221 -1.52834 0
M  V30 10681 C 972.832 1.67808 -3.01553 0
M  V30 10682 C 971.945 1.13064 -4.16942 0
M  V30 10683 C 971.08 2.24722 -4.81325 0
M  V30 10684 C 970.119 1.67277 -5.88799 0
M  V30 10685 N 969.256 2.72638 -6.47003 0
M  V30 10686 H 974.096 -0.0810308 -2.9789 0
M  V30 10687 H 971.633 -0.051761 -1.47009 0
M  V30 10688 H 973.591 2.35502 -3.44376 0
M  V30 10689 H 972.221 2.25823 -2.30659 0
M  V30 10690 H 971.273 0.344948 -3.78833 0
M  V30 10691 H 972.585 0.670373 -4.94275 0
M  V30 10692 H 971.739 3.00301 -5.27166 0
M  V30 10693 H 970.478 2.74089 -4.03394 0
M  V30 10694 H 969.483 0.902002 -5.4235 0
M  V30 10695 H 970.708 1.18775 -6.68632 0
M  V30 10696 H 968.654 3.21277 -5.71941 0
M  V30 10697 H 968.571 2.31204 -7.19778 0
M  V30 10698 H 969.839 3.48015 -6.97499 0
M  V30 10699 N 974.068 1.57479 -0.061844 0
M  V30 10700 C 975.317 1.92285 0.609055 0
M  V30 10701 C 975.63 0.942983 1.71369 0
M  V30 10702 O 976.836 1.18349 2.44348 0
M  V30 10703 C 975.292 3.41545 1.13468 0
M  V30 10704 C 974.9 4.47958 0.0615926 0
M  V30 10705 C 976.644 3.85368 1.78022 0
M  V30 10706 C 974.551 5.88341 0.600705 0
M  V30 10707 H 973.481 0.717656 0.23127 0
M  V30 10708 H 976.132 1.83021 -0.132466 0
M  V30 10709 H 974.514 3.45848 1.92886 0
M  V30 10710 H 975.688 4.55258 -0.712527 0
M  V30 10711 H 974.003 4.13541 -0.487116 0
M  V30 10712 H 976.6 4.87627 2.19371 0
M  V30 10713 H 976.943 3.22193 2.63623 0
M  V30 10714 H 977.476 3.83626 1.05242 0
M  V30 10715 H 974.215 6.55138 -0.217922 0
M  V30 10716 H 973.735 5.84581 1.34257 0
M  V30 10717 H 975.414 6.37918 1.08025 0
M  V30 10718 N 975.546 -0.211634 1.56173 0
M  V30 10719 C 976.509 -1.24588 1.92381 0
M  V30 10720 C 977.509 -1.39297 0.803311 0
M  V30 10721 O 978.699 -1.37392 1.07094 0
M  V30 10722 C 975.831 -2.61807 2.18335 0
M  V30 10723 H 977.024 -0.936814 2.84893 0
M  V30 10724 H 974.577 -0.452471 1.49607 0
M  V30 10725 H 975.312 -2.97795 1.28407 0
M  V30 10726 H 975.097 -2.52506 2.99972 0
M  V30 10727 H 976.587 -3.3642 2.4741 0
M  V30 10728 N 977.024 -1.50153 -0.478725 0
M  V30 10729 C 978.264 -1.62393 -1.24129 0
M  V30 10730 C 978.628 -0.313774 -1.89419 0
M  V30 10731 O 979.829 -0.311537 -2.66989 0
M  V30 10732 C 978.1 -2.76633 -2.26293 0
M  V30 10733 S 979.659 -3.08961 -3.11591 0
M  V30 10734 H 976.477 -0.572559 -0.421541 0
M  V30 10735 H 979.079 -1.87906 -0.539592 0
M  V30 10736 H 977.783 -3.70319 -1.76896 0
M  V30 10737 H 977.314 -2.53182 -3.01102 0
M  V30 10738 H 979.329 -2.52197 -4.2733 0
M  V30 10739 N 978.502 0.731368 -1.39602 0
M  V30 10740 C 979.727 1.52567 -1.40492 0
M  V30 10741 C 980.152 1.881 -0.00228828 0
M  V30 10742 O 979.51 1.52167 0.985643 0
M  V30 10743 C 979.558 2.78749 -2.2876 0
M  V30 10744 O 978.662 3.7482 -1.71999 0
M  V30 10745 H 978.003 0.460601 -0.478271 0
M  V30 10746 H 980.533 0.902042 -1.83642 0
M  V30 10747 H 980.543 3.27446 -2.43399 0
M  V30 10748 H 979.218 2.5222 -3.30693 0
M  V30 10749 H 977.795 3.33604 -1.66622 0
M  V30 10750 N 979.98 1.24838 0.961938 0
M  V30 10751 C 980.927 1.04582 2.05745 0
M  V30 10752 C 981.897 -0.0427281 1.66045 0
M  V30 10753 O 983.082 0.113026 1.90465 0
M  V30 10754 C 980.222 0.66284 3.38675 0
M  V30 10755 C 979.335 1.82548 3.91536 0
M  V30 10756 C 978.47 1.38753 5.12758 0
M  V30 10757 C 977.509 2.51976 5.5783 0
M  V30 10758 N 976.646 2.09009 6.70268 0
M  V30 10759 H 981.486 1.98343 2.22405 0
M  V30 10760 H 979.023 0.987822 1.08998 0
M  V30 10761 H 980.981 0.421788 4.15062 0
M  V30 10762 H 979.611 -0.237776 3.21923 0
M  V30 10763 H 978.663 2.18004 3.11735 0
M  V30 10764 H 979.975 2.67601 4.20941 0
M  V30 10765 H 979.129 1.1057 5.96539 0
M  V30 10766 H 977.868 0.507618 4.85051 0
M  V30 10767 H 976.873 2.80912 4.72619 0
M  V30 10768 H 978.098 3.40534 5.87549 0
M  V30 10769 H 976.044 1.23423 6.44285 0
M  V30 10770 H 975.961 2.87613 6.99153 0
M  V30 10771 H 977.229 1.83981 7.57477 0
M  V30 10772 N 981.458 -1.16348 1.06306 0
M  V30 10773 C 982.704 -1.87158 0.781007 0
M  V30 10774 C 983.037 -1.81499 -0.690784 0
M  V30 10775 O 982.312 -1.23074 -1.50609 0
M  V30 10776 C 982.595 -3.3672 1.27639 0
M  V30 10777 C 982.448 -3.51069 2.81194 0
M  V30 10778 C 983.767 -4.31122 0.884388 0
M  V30 10779 H 980.886 -0.679586 0.285187 0
M  V30 10780 H 983.528 -1.36756 1.31901 0
M  V30 10781 H 981.678 -3.79775 0.818715 0
M  V30 10782 H 983.35 -3.16952 3.35171 0
M  V30 10783 H 981.593 -2.92976 3.19918 0
M  V30 10784 H 982.264 -4.56105 3.10921 0
M  V30 10785 H 984.74 -3.95969 1.27858 0
M  V30 10786 H 983.616 -5.34279 1.25847 0
M  V30 10787 H 983.877 -4.41598 -0.210673 0
M  V30 10788 N 982.937 -0.845659 -1.3299 0
M  V30 10789 C 984.353 -0.53433 -1.5039 0
M  V30 10790 C 984.553 0.936939 -1.78392 0
M  V30 10791 O 983.609 1.72043 -1.84818 0
M  V30 10792 C 984.922 -1.41354 -2.65404 0
M  V30 10793 C 986.47 -1.41303 -2.79289 0
M  V30 10794 C 986.945 -2.27724 -3.97373 0
M  V30 10795 N 988.436 -2.25471 -4.0462 0
M  V30 10796 C 989.171 -2.89074 -4.95201 0
M  V30 10797 N 988.667 -3.61755 -5.90851 0
M  V30 10798 N 990.46 -2.78508 -4.88251 0
M  V30 10799 H 982.611 -1.79798 -1.13078 0
M  V30 10800 H 984.874 -0.767454 -0.556524 0
M  V30 10801 H 984.58 -2.45936 -2.51413 0
M  V30 10802 H 984.454 -1.09445 -3.60973 0
M  V30 10803 H 986.841 -0.374899 -2.92709 0
M  V30 10804 H 986.922 -1.77222 -1.84461 0
M  V30 10805 H 986.566 -3.316 -3.84713 0
M  V30 10806 H 986.496 -1.89142 -4.9146 0
M  V30 10807 H 988.987 -1.72622 -3.3617 0
M  V30 10808 H 989.3 -4.07475 -6.56646 0
M  V30 10809 H 987.645 -3.65863 -5.90906 0
M  V30 10810 H 990.836 -2.21285 -4.12493 0
M  V30 10811 H 991.009 -3.2836 -5.58645 0
M  V30 10812 N 984.415 1.45619 -0.602734 0
M  V30 10813 C 985.663 2.01873 -0.095844 0
M  V30 10814 C 985.984 1.47427 1.27633 0
M  V30 10815 O 985.254 0.666652 1.84208 0
M  V30 10816 H 983.834 0.746295 -0.0324408 0
M  V30 10817 H 986.496 1.78478 -0.783037 0
M  V30 10818 H 985.592 3.12072 -0.0419507 0
M  V30 10819 N 985.893 0.34162 1.53853 0
M  V30 10820 C 987.304 -0.14269 1.86154 0
M  V30 10821 C 987.655 -1.50151 1.2629 0
M  V30 10822 O 986.78 -2.08601 0.575735 0
M  V30 10823 C 987.375 -0.265691 3.37757 0
M  V30 10824 C 985.934 -0.694231 3.69942 0
M  V30 10825 C 985.081 0.173195 2.76759 0
M  V30 10826 H 988.032 0.561284 1.48443 0
M  V30 10827 H 988.053 -1.09352 3.64448 0
M  V30 10828 H 987.565 0.723424 3.81298 0
M  V30 10829 H 985.666 -1.69244 3.31945 0
M  V30 10830 H 985.779 -0.485461 4.76634 0
M  V30 10831 H 984.143 -0.35416 2.52226 0
M  V30 10832 H 984.926 1.15941 3.23129 0
M  V30 10833 N 987.371 -1.57444 0.0701946 0
M  V30 10834 C 988.617 -1.93716 -0.600178 0
M  V30 10835 C 988.95 -0.950329 -1.69359 0
M  V30 10836 O 988.225 0.0207123 -1.94489 0
M  V30 10837 C 988.508 -3.40266 -1.17861 0
M  V30 10838 C 988.361 -4.49706 -0.0919575 0
M  V30 10839 C 989.68 -3.87599 -2.08459 0
M  V30 10840 H 986.799 -0.704421 -0.216704 0
M  V30 10841 H 989.441 -1.89514 0.135838 0
M  V30 10842 H 987.591 -3.43977 -1.80587 0
M  V30 10843 H 989.263 -4.58116 0.541031 0
M  V30 10844 H 987.506 -4.29937 0.577639 0
M  V30 10845 H 988.177 -5.49381 -0.537048 0
M  V30 10846 H 990.653 -3.85883 -1.5567 0
M  V30 10847 H 989.529 -4.90755 -2.45867 0
M  V30 10848 H 989.79 -3.25448 -2.99226 0
M  V30 10849 N 988.849 0.203349 -1.56283 0
M  V30 10850 C 990.074 0.945548 -1.84592 0
M  V30 10851 C 990.499 1.7641 -0.652772 0
M  V30 10852 O 989.857 1.76867 0.398468 0
M  V30 10853 C 989.905 1.82416 -3.11057 0
M  V30 10854 O 989.009 2.92191 -2.9103 0
M  V30 10855 H 988.35 0.266739 -0.608068 0
M  V30 10856 H 990.88 0.211158 -2.03507 0
M  V30 10857 H 990.89 2.23044 -3.41636 0
M  V30 10858 H 989.565 1.22267 -3.97522 0
M  V30 10859 H 988.142 2.55378 -2.71728 0
M  V30 10860 N 990.327 1.50405 0.470755 0
M  V30 10861 C 991.575 1.61092 1.2204 0
M  V30 10862 C 991.896 0.313487 1.92464 0
M  V30 10863 O 991.166 -0.669043 1.84121 0
M  V30 10864 H 989.746 0.593618 0.45346 0
M  V30 10865 H 992.408 1.87184 0.542985 0
M  V30 10866 H 991.504 2.42222 1.96812 0
M  V30 10867 N 991.805 -0.723954 1.39988 0
M  V30 10868 C 993.03 -1.5182 1.41299 0
M  V30 10869 C 993.455 -1.88096 0.0122636 0
M  V30 10870 O 992.813 -1.52687 -0.977559 0
M  V30 10871 C 992.861 -2.77532 2.30235 0
M  V30 10872 O 991.965 -3.73903 1.73984 0
M  V30 10873 H 991.306 -0.458058 0.480707 0
M  V30 10874 H 993.836 -0.892291 1.84118 0
M  V30 10875 H 993.846 -3.2615 2.45132 0
M  V30 10876 H 992.521 -2.50462 3.32026 0
M  V30 10877 H 991.098 -3.32715 1.68389 0
M  V30 10878 N 993.283 -1.25346 -0.955304 0
M  V30 10879 C 994.694 -1.09173 -1.51453 0
M  V30 10880 C 995.045 0.332755 -1.93358 0
M  V30 10881 O 994.17 1.22264 -1.78551 0
M  V30 10882 C 994.765 -1.97564 -2.75234 0
M  V30 10883 C 993.324 -1.85579 -3.27471 0
M  V30 10884 C 992.471 -1.91755 -2.00313 0
M  V30 10885 H 995.422 -1.38642 -0.772271 0
M  V30 10886 H 995.443 -1.51523 -3.49029 0
M  V30 10887 H 994.955 -3.01233 -2.44704 0
M  V30 10888 H 993.056 -0.847906 -3.62824 0
M  V30 10889 H 993.169 -2.70353 -3.95533 0
M  V30 10890 H 991.533 -1.35633 -2.15582 0
M  V30 10891 H 992.316 -2.97028 -1.72132 0
M  V30 10892 N 994.761 1.15782 -1.06922 0
M  V30 10893 C 996.038 1.8253 -0.703 0
M  V30 10894 C 996.418 1.94733 0.814994 0
M  V30 10895 O 995.766 1.49537 1.72774 0
M  V30 10896 C 995.976 3.19145 -1.41234 0
M  V30 10897 C 997.324 3.94839 -1.56164 0
M  V30 10898 O 998.348 3.28685 -1.37277 0
M  V30 10899 O 997.207 5.13436 -1.87205 0
M  V30 10900 H 994.301 0.788425 -0.24963 0
M  V30 10901 H 996.847 1.22931 -1.16988 0
M  V30 10902 H 995.619 3.05336 -2.44715 0
M  V30 10903 H 995.242 3.86427 -0.935959 0
M  V30 10904 N 996.239 0.8527 1.3254 0
M  V30 10905 C 997.464 0.468157 2.02047 0
M  V30 10906 C 997.889 -0.926967 1.63673 0
M  V30 10907 O 997.247 -1.60855 0.836378 0
M  V30 10908 C 997.295 0.612519 3.5536 0
M  V30 10909 O 996.399 -0.355506 4.10865 0
M  V30 10910 H 995.74 0.188401 0.636711 0
M  V30 10911 H 998.27 1.15135 1.6913 0
M  V30 10912 H 998.28 0.499315 4.04933 0
M  V30 10913 H 996.955 1.62988 3.82632 0
M  V30 10914 H 995.532 -0.198703 3.7237 0
M  V30 10915 N 997.718 -1.45297 0.610449 0
M  V30 10916 C 998.651 -2.27669 -0.155637 0
M  V30 10917 C 999.629 -1.37308 -0.870936 0
M  V30 10918 O 1000.81 -1.66739 -0.879228 0
M  V30 10919 C 997.94 -3.15748 -1.2256 0
M  V30 10920 C 996.986 -4.2207 -0.613116 0
M  V30 10921 S 997.819 -5.32337 0.581183 0
M  V30 10922 C 998.975 -6.23985 -0.489298 0
M  V30 10923 H 999.208 -2.92295 0.543205 0
M  V30 10924 H 996.741 -1.49181 0.398044 0
M  V30 10925 H 998.699 -3.67051 -1.83804 0
M  V30 10926 H 997.36 -2.50381 -1.89652 0
M  V30 10927 H 996.553 -4.83633 -1.41827 0
M  V30 10928 H 996.155 -3.73923 -0.0757482 0
M  V30 10929 H 998.447 -6.63553 -1.36759 0
M  V30 10930 H 999.39 -7.08042 0.0902456 0
M  V30 10931 H 999.798 -5.58718 -0.805911 0
M  V30 10932 N 999.196 -0.349774 -1.5367 0
M  V30 10933 C 1000.14 0.519396 -2.26727 0
M  V30 10934 C 1001.14 1.09673 -1.29105 0
M  V30 10935 O 1002.34 1.04176 -1.46791 0
M  V30 10936 H 998.719 0.186192 -0.728585 0
M  V30 10937 H 1000.69 -0.118736 -2.98164 0
M  V30 10938 C 999.439 1.65535 -3.05767 0
M  V30 10939 H 998.762 1.22038 -3.80719 0
M  V30 10940 H 1000.2 2.23856 -3.6009 0
M  V30 10941 C 998.661 2.58844 -2.15642 0
M  V30 10942 O 999.191 3.61254 -1.75665 0
M  V30 10943 N 997.397 2.27671 -1.80595 0
M  V30 10944 H 996.944 1.44429 -2.13302 0
M  V30 10945 H 996.902 2.90359 -1.20577 0
M  V30 10946 N 1000.67 1.57404 -0.0785433 0
M  V30 10947 C 1001.64 2.11977 0.871693 0
M  V30 10948 C 1002.64 1.04529 1.2219 0
M  V30 10949 O 1003.83 1.30488 1.15406 0
M  V30 10950 C 1000.96 2.6267 2.17296 0
M  V30 10951 H 1002.15 2.97246 0.398115 0
M  V30 10952 H 999.705 1.5537 0.170251 0
M  V30 10953 H 1000.44 1.80873 2.69175 0
M  V30 10954 H 1000.22 3.41214 1.93171 0
M  V30 10955 H 1001.71 3.04943 2.85306 0
M  V30 10956 N 1002.15 -0.195058 1.56388 0
M  V30 10957 C 1003.38 -0.935745 1.85091 0
M  V30 10958 C 1003.8 -1.76061 0.662118 0
M  V30 10959 O 1003.16 -1.77076 -0.389083 0
M  V30 10960 C 1003.21 -1.80764 3.1202 0
M  V30 10961 O 1002.31 -2.90643 2.92575 0
M  V30 10962 H 1001.65 -0.26351 0.609474 0
M  V30 10963 H 1004.18 -0.200362 2.03617 0
M  V30 10964 H 1004.19 -2.21229 3.42815 0
M  V30 10965 H 1002.87 -1.20157 3.98165 0
M  V30 10966 H 1001.44 -2.53934 2.73079 0
M  V30 10967 N 1003.63 -1.50653 -0.462772 0
M  V30 10968 C 1005.05 -1.38263 -0.797213 0
M  V30 10969 C 1005.25 -0.445172 -1.96521 0
M  V30 10970 O 1004.3 0.10913 -2.52264 0
M  V30 10971 C 1005.61 -2.798 -1.10146 0
M  V30 10972 C 1007.16 -2.88774 -1.20742 0
M  V30 10973 C 1007.64 -4.31163 -1.54476 0
M  V30 10974 N 1009.13 -4.34152 -1.61451 0
M  V30 10975 C 1009.86 -5.4133 -1.89074 0
M  V30 10976 N 1009.36 -6.58705 -2.1466 0
M  V30 10977 N 1011.15 -5.28783 -1.90645 0
M  V30 10978 H 1003.3 -2.10172 0.30684 0
M  V30 10979 H 1005.57 -0.945046 0.0747862 0
M  V30 10980 H 1005.27 -3.50276 -0.316207 0
M  V30 10981 H 1005.15 -3.17559 -2.03559 0
M  V30 10982 H 1007.53 -2.18512 -1.98334 0
M  V30 10983 H 1007.61 -2.54547 -0.252904 0
M  V30 10984 H 1007.26 -5.01965 -0.774207 0
M  V30 10985 H 1007.19 -4.62883 -2.51092 0
M  V30 10986 H 1009.68 -3.49519 -1.43684 0
M  V30 10987 H 1009.99 -7.36192 -2.35035 0
M  V30 10988 H 1008.34 -6.61866 -2.12035 0
M  V30 10989 H 1011.53 -4.36078 -1.70158 0
M  V30 10990 H 1011.7 -6.12396 -2.11836 0
M  V30 10991 N 1005.11 0.71652 -1.4037 0
M  V30 10992 C 1006.04 1.84345 -1.43315 0
M  V30 10993 C 1007.02 1.67537 -0.294186 0
M  V30 10994 O 1008.2 1.87582 -0.502671 0
M  V30 10995 C 1005.33 3.2229 -1.29408 0
M  V30 10996 C 1004.29 3.53769 -2.40897 0
M  V30 10997 C 1003.61 4.90847 -2.12068 0
M  V30 10998 C 1004.91 3.54862 -3.83237 0
M  V30 10999 H 1006.61 1.82138 -2.37626 0
M  V30 11000 H 1004.15 0.874873 -1.14376 0
M  V30 11001 H 1006.11 4.00819 -1.30085 0
M  V30 11002 H 1004.83 3.2507 -0.31573 0
M  V30 11003 H 1003.49 2.77579 -2.39469 0
M  V30 11004 H 1003.14 4.90229 -1.12626 0
M  V30 11005 H 1002.84 5.12875 -2.86762 0
M  V30 11006 H 1004.36 5.71711 -2.14426 0
M  V30 11007 H 1005.78 4.23432 -3.86494 0
M  V30 11008 H 1004.17 3.88416 -4.57442 0
M  V30 11009 H 1005.24 2.54266 -4.12888 0
M  V30 11010 N 1006.59 1.25851 0.948643 0
M  V30 11011 C 1007.81 1.13813 1.73382 0
M  V30 11012 C 1008.24 -0.303615 1.85633 0
M  V30 11013 O 1007.59 -1.21997 1.34114 0
M  V30 11014 C 1007.64 1.80388 3.12238 0
M  V30 11015 O 1006.75 1.08759 3.978 0
M  V30 11016 H 1006.09 0.397006 0.532243 0
M  V30 11017 H 1008.62 1.66529 1.18866 0
M  V30 11018 H 1008.63 1.86913 3.62667 0
M  V30 11019 H 1007.3 2.85278 3.02637 0
M  V30 11020 H 1005.88 1.10157 3.56258 0
M  V30 11021 N 1008.06 -1.15214 1.07534 0
M  V30 11022 C 1009 -2.19634 0.655261 0
M  V30 11023 C 1010.01 -1.60139 -0.293165 0
M  V30 11024 O 1011.2 -1.78311 -0.0821957 0
M  V30 11025 C 1008.3 -3.38851 -0.0578281 0
M  V30 11026 C 1007.47 -4.27888 0.90725 0
M  V30 11027 C 1006.53 -5.25692 0.231115 0
M  V30 11028 O 1005.56 -5.62469 0.872746 0
M  V30 11029 N 1006.76 -5.71424 -1.0225 0
M  V30 11030 H 1009.52 -2.56292 1.55353 0
M  V30 11031 H 1007.08 -1.30347 0.960271 0
M  V30 11032 H 1009.08 -4.01334 -0.520874 0
M  V30 11033 H 1007.65 -3.00593 -0.858071 0
M  V30 11034 H 1006.87 -3.62475 1.54937 0
M  V30 11035 H 1008.15 -4.84246 1.56151 0
M  V30 11036 H 1007.55 -5.43659 -1.56369 0
M  V30 11037 H 1006.11 -6.35938 -1.42919 0
M  V30 11038 N 1009.54 -0.859717 -1.32086 0
M  V30 11039 C 1010.95 -0.519529 -1.79326 0
M  V30 11040 C 1011.3 0.96295 -1.70944 0
M  V30 11041 O 1010.43 1.75139 -1.27104 0
M  V30 11042 C 1011.02 -0.936267 -3.25606 0
M  V30 11043 C 1009.58 -0.647899 -3.70782 0
M  V30 11044 C 1008.73 -1.13323 -2.53087 0
M  V30 11045 H 1011.68 -1.04643 -1.19312 0
M  V30 11046 H 1011.7 -0.254714 -3.79646 0
M  V30 11047 H 1011.21 -2.01527 -3.31675 0
M  V30 11048 H 1009.32 0.420172 -3.70223 0
M  V30 11049 H 1009.43 -1.21774 -4.63366 0
M  V30 11050 H 1007.79 -0.553325 -2.48617 0
M  V30 11051 H 1008.58 -2.21945 -2.61907 0
M  V30 11052 N 1011.02 1.44971 -0.618145 0
M  V30 11053 C 1012.27 2.0176 -0.11725 0
M  V30 11054 C 1012.59 1.48773 1.26062 0
M  V30 11055 O 1011.86 0.686152 1.83491 0
M  V30 11056 H 1010.44 0.745909 -0.0403545 0
M  V30 11057 H 1013.1 1.77638 -0.801923 0
M  V30 11058 H 1012.2 3.1201 -0.0750477 0
M  V30 11059 N 1012.5 0.357919 1.53482 0
M  V30 11060 C 1013.43 -0.526753 2.23065 0
M  V30 11061 C 1014.44 -1.05239 1.24212 0
M  V30 11062 O 1015.63 -0.960078 1.50482 0
M  V30 11063 C 1012.73 -1.73919 2.9087 0
M  V30 11064 C 1011.91 -1.34638 4.16163 0
M  V30 11065 C 1010.96 -2.42005 4.67247 0
M  V30 11066 O 1009.99 -2.04714 5.31113 0
M  V30 11067 N 1011.19 -3.73478 4.44404 0
M  V30 11068 H 1013.96 0.0692386 2.9962 0
M  V30 11069 H 1011.52 0.182726 1.60866 0
M  V30 11070 H 1013.51 -2.45207 3.21956 0
M  V30 11071 H 1012.08 -2.24223 2.17814 0
M  V30 11072 H 1011.3 -0.463667 3.91464 0
M  V30 11073 H 1012.59 -1.06012 4.97633 0
M  V30 11074 H 1011.99 -4.06555 3.93357 0
M  V30 11075 H 1010.54 -4.40893 4.80059 0
M  V30 11076 N 1013.98 -1.5736 0.0868897 0
M  V30 11077 C 1014.91 -2.16596 -0.872252 0
M  V30 11078 C 1015.89 -1.09706 -1.29995 0
M  V30 11079 O 1017.07 -1.37808 -1.36831 0
M  V30 11080 C 1014.2 -2.73972 -2.1344 0
M  V30 11081 C 1013.16 -3.86163 -1.8456 0
M  V30 11082 C 1012.48 -4.30206 -3.17533 0
M  V30 11083 C 1013.78 -5.0973 -1.13899 0
M  V30 11084 H 1015.48 -2.96995 -0.378738 0
M  V30 11085 H 1013.02 -1.42861 -0.18073 0
M  V30 11086 H 1014.98 -3.14062 -2.80968 0
M  V30 11087 H 1013.7 -1.90817 -2.6506 0
M  V30 11088 H 1012.36 -3.466 -1.19432 0
M  V30 11089 H 1012.01 -3.43951 -3.67024 0
M  V30 11090 H 1011.71 -5.05841 -2.98996 0
M  V30 11091 H 1013.23 -4.72922 -3.86234 0
M  V30 11092 H 1014.64 -5.4704 -1.71523 0
M  V30 11093 H 1013.04 -5.90741 -1.05569 0
M  V30 11094 H 1014.11 -4.8475 -0.120432 0
M  V30 11095 N 1015.45 0.186762 -1.56489 0
M  V30 11096 C 1016.39 1.25971 -1.9028 0
M  V30 11097 C 1017.37 1.43543 -0.763822 0
M  V30 11098 O 1018.55 1.58799 -1.01564 0
M  V30 11099 C 1015.68 2.62507 -2.14028 0
M  V30 11100 C 1014.72 2.61758 -3.36727 0
M  V30 11101 S 1015.56 2.12366 -4.9159 0
M  V30 11102 C 1016.71 3.5071 -5.18414 0
M  V30 11103 H 1016.94 0.971203 -2.80989 0
M  V30 11104 H 1014.48 0.390636 -1.49377 0
M  V30 11105 H 1016.44 3.41098 -2.28391 0
M  V30 11106 H 1015.1 2.88564 -1.24054 0
M  V30 11107 H 1014.29 3.62173 -3.50495 0
M  V30 11108 H 1013.89 1.91254 -3.214 0
M  V30 11109 H 1016.18 4.46622 -5.09445 0
M  V30 11110 H 1017.13 3.41829 -6.20128 0
M  V30 11111 H 1017.53 3.46008 -4.46026 0
M  V30 11112 N 1016.93 1.50896 0.454776 0
M  V30 11113 C 1018.16 1.66759 1.23313 0
M  V30 11114 C 1018.58 0.35722 1.84677 0
M  V30 11115 O 1017.94 -0.680771 1.68033 0
M  V30 11116 C 1017.99 2.77254 2.3057 0
M  V30 11117 O 1017.09 2.39642 3.35627 0
M  V30 11118 H 1016.43 0.556599 0.362068 0
M  V30 11119 H 1018.96 1.97365 0.539274 0
M  V30 11120 H 1018.97 3.0082 2.75629 0
M  V30 11121 H 1017.65 3.72349 1.85281 0
M  V30 11122 H 1016.23 2.26584 2.96165 0
M  V30 11123 N 1018.41 -0.709066 1.40748 0
M  V30 11124 C 1019.34 -1.83412 1.37451 0
M  V30 11125 C 1020.36 -1.60394 0.27884 0
M  V30 11126 O 1021.54 -1.70147 0.539642 0
M  V30 11127 C 1018.64 -3.19935 1.1178 0
M  V30 11128 C 1017.82 -3.70095 2.33128 0
M  V30 11129 C 1016.88 -4.85249 2.03518 0
M  V30 11130 O 1015.9 -4.97563 2.76442 0
M  V30 11131 N 1017.1 -5.7152 1.01714 0
M  V30 11132 H 1019.87 -1.86736 2.34414 0
M  V30 11133 H 1017.43 -0.890863 1.35186 0
M  V30 11134 H 1019.42 -3.94578 0.899464 0
M  V30 11135 H 1017.99 -3.11718 0.234624 0
M  V30 11136 H 1017.21 -2.8651 2.70751 0
M  V30 11137 H 1018.5 -4.00344 3.1401 0
M  V30 11138 H 1017.9 -5.64188 0.413307 0
M  V30 11139 H 1016.46 -6.46119 0.858696 0
M  V30 11140 N 1019.89 -1.26353 -0.941956 0
M  V30 11141 C 1021.3 -1.10774 -1.50287 0
M  V30 11142 C 1021.65 0.312229 -1.937 0
M  V30 11143 O 1020.78 1.20364 -1.79838 0
M  V30 11144 C 1021.37 -2.00473 -2.73123 0
M  V30 11145 C 1019.93 -1.89042 -3.25485 0
M  V30 11146 C 1019.08 -1.93869 -1.98267 0
M  V30 11147 H 1022.03 -1.39454 -0.757523 0
M  V30 11148 H 1022.05 -1.55216 -3.47402 0
M  V30 11149 H 1021.56 -3.03812 -2.41495 0
M  V30 11150 H 1019.66 -0.886341 -3.61904 0
M  V30 11151 H 1019.78 -2.74533 -3.92643 0
M  V30 11152 H 1018.14 -1.37912 -2.14132 0
M  V30 11153 H 1018.92 -2.98837 -1.68972 0
M  V30 11154 N 1021.37 1.14642 -1.08144 0
M  V30 11155 C 1022.59 1.90025 -0.830972 0
M  V30 11156 C 1023.02 1.77904 0.610879 0
M  V30 11157 O 1022.38 1.11735 1.42776 0
M  V30 11158 C 1022.42 3.38085 -1.25422 0
M  V30 11159 O 1021.53 4.10412 -0.404486 0
M  V30 11160 H 1020.87 0.591327 -0.302041 0
M  V30 11161 H 1023.4 1.4513 -1.44216 0
M  V30 11162 H 1023.41 3.88894 -1.23391 0
M  V30 11163 H 1022.08 3.46226 -2.30435 0
M  V30 11164 H 1020.66 3.69693 -0.487987 0
M  V30 11165 N 1022.85 0.866709 1.31628 0
M  V30 11166 C 1024.07 0.49039 2.01004 0
M  V30 11167 C 1024.49 -0.916244 1.65077 0
M  V30 11168 O 1023.85 -1.59975 0.8783 0
M  V30 11169 C 1023.9 0.634011 3.55897 0
M  V30 11170 O 1023.62 1.98525 3.90537 0
M  V30 11171 C 1025.12 0.258277 4.42547 0
M  V30 11172 H 1022.34 0.191421 0.643117 0
M  V30 11173 H 1024.88 1.16698 1.67934 0
M  V30 11174 H 1023.04 0.00501801 3.874 0
M  V30 11175 H 1023.45 1.99067 4.85255 0
M  V30 11176 H 1024.93 0.409733 5.50477 0
M  V30 11177 H 1025.4 -0.802301 4.3181 0
M  V30 11178 H 1026.01 0.862837 4.16456 0
M  V30 11179 N 1024.32 -1.44642 0.625825 0
M  V30 11180 C 1025.29 -2.29085 -0.072526 0
M  V30 11181 C 1026.29 -1.40755 -0.777467 0
M  V30 11182 O 1027.48 -1.62684 -0.622861 0
M  V30 11183 C 1024.61 -3.22212 -1.1132 0
M  V30 11184 H 1025.8 -2.92317 0.670124 0
M  V30 11185 H 1023.35 -1.51466 0.38571 0
M  V30 11186 H 1024.09 -2.63819 -1.88601 0
M  V30 11187 H 1023.87 -3.87299 -0.611709 0
M  V30 11188 H 1025.36 -3.8566 -1.60175 0
M  V30 11189 N 1025.8 -0.366053 -1.5329 0
M  V30 11190 C 1027.03 0.226839 -2.06156 0
M  V30 11191 C 1027.45 1.41637 -1.23776 0
M  V30 11192 O 1026.81 1.7947 -0.256948 0
M  V30 11193 C 1026.86 0.597956 -3.55608 0
M  V30 11194 O 1025.96 1.69512 -3.75951 0
M  V30 11195 H 1025.3 0.0329156 -0.663184 0
M  V30 11196 H 1027.83 -0.526793 -1.97702 0
M  V30 11197 H 1027.84 0.868831 -3.98642 0
M  V30 11198 H 1026.52 -0.271838 -4.15011 0
M  V30 11199 H 1025.09 1.41976 -3.44815 0
M  V30 11200 N 1027.28 1.57312 -0.0952337 0
M  V30 11201 C 1028.23 2.15263 0.881167 0
M  V30 11202 C 1029.22 1.09552 1.29208 0
M  V30 11203 O 1030.43 1.27897 1.26659 0
M  V30 11204 H 1026.8 0.688611 0.302191 0
M  V30 11205 H 1028.77 2.96126 0.367694 0
M  V30 11206 C 1027.52 2.74779 2.13053 0
M  V30 11207 H 1026.85 3.55807 1.82323 0
M  V30 11208 H 1028.29 3.18895 2.79431 0
M  V30 11209 C 1026.74 1.7068 2.90465 0
M  V30 11210 O 1027.27 1.14582 3.85011 0
M  V30 11211 N 1025.48 1.41169 2.54007 0
M  V30 11212 H 1025.03 1.86977 1.77193 0
M  V30 11213 H 1024.99 0.717559 3.06102 0
M  V30 11214 N 1028.76 -0.17846 1.56586 0
M  V30 11215 C 1029.98 -0.916061 1.86073 0
M  V30 11216 C 1030.41 -1.75349 0.680754 0
M  V30 11217 O 1029.77 -1.77479 -0.37028 0
M  V30 11218 C 1029.81 -1.77445 3.1392 0
M  V30 11219 O 1028.92 -2.87524 2.95641 0
M  V30 11220 H 1028.26 -0.257031 0.612234 0
M  V30 11221 H 1030.79 -0.178755 2.03818 0
M  V30 11222 H 1030.8 -2.1758 3.45142 0
M  V30 11223 H 1029.47 -1.15927 3.99417 0
M  V30 11224 H 1028.05 -2.51023 2.75757 0
M  V30 11225 N 1030.24 -1.51135 -0.446768 0
M  V30 11226 C 1031.17 -1.74709 -1.54916 0
M  V30 11227 C 1032.15 -0.596628 -1.59293 0
M  V30 11228 O 1033.33 -0.838356 -1.75172 0
M  V30 11229 C 1030.46 -1.86353 -2.9307 0
M  V30 11230 C 1029.42 -3.01725 -3.03556 0
M  V30 11231 C 1028.74 -2.9854 -4.43597 0
M  V30 11232 C 1030.04 -4.41848 -2.7851 0
M  V30 11233 H 1031.74 -2.67014 -1.3544 0
M  V30 11234 H 1029.28 -1.28489 -0.650131 0
M  V30 11235 H 1031.23 -2.01428 -3.70141 0
M  V30 11236 H 1029.96 -0.906887 -3.13756 0
M  V30 11237 H 1028.62 -2.86339 -2.28922 0
M  V30 11238 H 1028.27 -2.00673 -4.61237 0
M  V30 11239 H 1027.97 -3.76008 -4.51544 0
M  V30 11240 H 1029.49 -3.15696 -5.22655 0
M  V30 11241 H 1030.9 -4.57633 -3.45319 0
M  V30 11242 H 1029.3 -5.2095 -2.97877 0
M  V30 11243 H 1030.37 -4.52536 -1.74182 0
M  V30 11244 N 1031.71 0.701592 -1.41122 0
M  V30 11245 C 1033.12 1.28129 -1.35793 0
M  V30 11246 C 1033.48 1.96163 -0.0381185 0
M  V30 11247 O 1032.6 1.98416 0.863723 0
M  V30 11248 C 1033.2 2.33005 -2.45955 0
M  V30 11249 C 1031.75 2.86566 -2.44043 0
M  V30 11250 C 1030.9 1.60526 -2.26112 0
M  V30 11251 H 1033.85 0.496756 -1.50725 0
M  V30 11252 H 1033.87 3.14163 -2.14667 0
M  V30 11253 H 1033.39 1.8346 -3.42 0
M  V30 11254 H 1031.49 3.40304 -1.51737 0
M  V30 11255 H 1031.6 3.37406 -3.40138 0
M  V30 11256 H 1029.96 1.86113 -1.7388 0
M  V30 11257 H 1030.75 1.12985 -3.24175 0
M  V30 11258 N 1033.19 1.2685 0.935242 0
M  V30 11259 C 1034.1 1.10716 2.06831 0
M  V30 11260 C 1035.12 0.0391222 1.73956 0
M  V30 11261 O 1036.29 0.244071 1.99916 0
M  V30 11262 C 1033.36 0.748093 3.38533 0
M  V30 11263 C 1032.42 1.89619 3.85153 0
M  V30 11264 C 1031.65 1.55416 5.1057 0
M  V30 11265 O 1031.88 0.458596 5.68553 0
M  V30 11266 O 1030.81 2.39087 5.52378 0
M  V30 11267 H 1034.64 2.05785 2.23352 0
M  V30 11268 H 1032.22 1.05967 1.05315 0
M  V30 11269 H 1034.1 0.560841 4.17651 0
M  V30 11270 H 1032.78 -0.173142 3.23237 0
M  V30 11271 H 1031.68 2.13845 3.06954 0
M  V30 11272 H 1033.02 2.79737 4.04979 0
M  V30 11273 N 1034.67 -1.14067 1.0875 0
M  V30 11274 C 1036.08 -1.66747 0.839778 0
M  V30 11275 C 1036.43 -1.85711 -0.632909 0
M  V30 11276 O 1035.56 -1.57084 -1.48841 0
M  V30 11277 C 1036.15 -3.02896 1.51787 0
M  V30 11278 C 1034.71 -3.52596 1.3173 0
M  V30 11279 C 1033.86 -2.27994 1.57841 0
M  V30 11280 H 1036.81 -0.980838 1.24761 0
M  V30 11281 H 1036.83 -3.68526 0.947057 0
M  V30 11282 H 1036.34 -2.89062 2.58969 0
M  V30 11283 H 1034.44 -3.71647 0.266339 0
M  V30 11284 H 1034.56 -4.33151 2.04736 0
M  V30 11285 H 1032.92 -2.34241 1.00015 0
M  V30 11286 H 1033.7 -2.16732 2.66237 0
M  V30 11287 N 1036.15 -0.873678 -1.31166 0
M  V30 11288 C 1037.11 -0.337069 -2.26708 0
M  V30 11289 C 1038.11 0.51406 -1.52362 0
M  V30 11290 O 1039.3 0.322834 -1.71182 0
M  V30 11291 C 1036.43 0.520897 -3.36897 0
M  V30 11292 H 1037.63 -1.18056 -2.75686 0
M  V30 11293 H 1035.18 -0.649577 -1.42163 0
M  V30 11294 H 1035.91 1.38543 -2.93217 0
M  V30 11295 H 1035.7 -0.0886015 -3.92 0
M  V30 11296 H 1037.19 0.888497 -4.08039 0
M  V30 11297 N 1037.63 1.44308 -0.633487 0
M  V30 11298 C 1038.57 2.30694 0.0700257 0
M  V30 11299 C 1039.54 1.43618 0.834447 0
M  V30 11300 O 1040.73 1.72517 0.815014 0
M  V30 11301 C 1037.87 3.28929 1.04403 0
M  V30 11302 C 1036.98 4.31106 0.277779 0
M  V30 11303 C 1036.12 5.16433 1.24381 0
M  V30 11304 C 1035.16 6.10317 0.466855 0
M  V30 11305 N 1034.29 6.88335 1.38347 0
M  V30 11306 H 1039.13 2.90311 -0.672567 0
M  V30 11307 H 1036.67 1.43034 -0.343449 0
M  V30 11308 H 1038.63 3.84373 1.62214 0
M  V30 11309 H 1037.26 2.71006 1.75372 0
M  V30 11310 H 1036.31 3.78115 -0.416292 0
M  V30 11311 H 1037.62 4.97725 -0.327251 0
M  V30 11312 H 1036.78 5.76406 1.89318 0
M  V30 11313 H 1035.51 4.49893 1.88276 0
M  V30 11314 H 1034.52 5.49451 -0.195989 0
M  V30 11315 H 1035.74 6.78894 -0.167414 0
M  V30 11316 H 1033.69 6.24461 2.00959 0
M  V30 11317 H 1033.61 7.51402 0.832517 0
M  V30 11318 H 1034.88 7.52829 2.0216 0
M  V30 11319 N 1039.1 0.374177 1.53094 0
M  V30 11320 C 1040.05 -0.468226 2.26001 0
M  V30 11321 C 1041.02 -1.07041 1.27009 0
M  V30 11322 O 1042.21 -1.10129 1.55809 0
M  V30 11323 C 1039.35 -1.59754 3.05896 0
M  V30 11324 C 1038.46 -1.01969 4.19793 0
M  V30 11325 C 1037.59 -2.11882 4.87113 0
M  V30 11326 C 1036.63 -1.51607 5.93028 0
M  V30 11327 N 1035.77 -2.55388 6.54004 0
M  V30 11328 H 1040.61 0.159983 2.9757 0
M  V30 11329 H 1038.15 0.0907196 1.4682 0
M  V30 11330 H 1040.11 -2.26288 3.50499 0
M  V30 11331 H 1038.74 -2.19628 2.36565 0
M  V30 11332 H 1037.79 -0.244386 3.79614 0
M  V30 11333 H 1039.1 -0.539089 4.95878 0
M  V30 11334 H 1038.25 -2.86218 5.34943 0
M  V30 11335 H 1036.99 -2.63297 4.10519 0
M  V30 11336 H 1036 -0.757891 5.44551 0
M  V30 11337 H 1037.22 -1.01006 6.71546 0
M  V30 11338 H 1035.17 -3.06 5.80258 0
M  V30 11339 H 1035.09 -2.12039 7.25655 0
M  V30 11340 H 1036.35 -3.294 7.06481 0
M  V30 11341 N 1040.58 -1.57259 0.103575 0
M  V30 11342 C 1041.81 -1.99424 -0.569638 0
M  V30 11343 C 1042.23 -0.982475 -1.60403 0
M  V30 11344 O 1041.59 0.0479231 -1.81237 0
M  V30 11345 C 1041.64 -3.40527 -1.18633 0
M  V30 11346 O 1040.74 -3.42167 -2.30208 0
M  V30 11347 H 1040.08 -0.648251 -0.143759 0
M  V30 11348 H 1042.61 -2.03739 0.187493 0
M  V30 11349 H 1042.62 -3.78404 -1.5256 0
M  V30 11350 H 1041.3 -4.13686 -0.428582 0
M  V30 11351 H 1039.88 -3.16093 -1.97837 0
M  V30 11352 N 1042.06 0.170153 -1.56679 0
M  V30 11353 C 1042.97 1.23057 -1.99735 0
M  V30 11354 C 1043.99 1.48374 -0.908912 0
M  V30 11355 O 1045.16 1.60499 -1.21663 0
M  V30 11356 C 1042.23 2.54944 -2.34956 0
M  V30 11357 C 1041.29 2.3748 -3.57634 0
M  V30 11358 C 1040.52 3.63078 -3.91165 0
M  V30 11359 O 1040.74 4.68304 -3.2565 0
M  V30 11360 O 1039.68 3.57119 -4.8451 0
M  V30 11361 H 1043.5 0.895104 -2.9021 0
M  V30 11362 H 1041.09 0.377109 -1.44562 0
M  V30 11363 H 1042.97 3.32742 -2.58574 0
M  V30 11364 H 1041.65 2.88068 -1.47643 0
M  V30 11365 H 1040.55 1.57709 -3.39232 0
M  V30 11366 H 1041.89 2.0928 -4.45491 0
M  V30 11367 N 1043.54 1.5137 0.438746 0
M  V30 11368 C 1044.45 1.75424 1.55768 0
M  V30 11369 C 1045.46 0.638409 1.61865 0
M  V30 11370 O 1046.64 0.9205 1.79133 0
M  V30 11371 C 1043.71 1.87288 2.9176 0
M  V30 11372 C 1042.77 3.11137 2.95791 0
M  V30 11373 C 1042 3.22425 4.25297 0
M  V30 11374 O 1042.22 2.39688 5.17596 0
M  V30 11375 O 1041.16 4.15393 4.35583 0
M  V30 11376 H 1044.98 2.70339 1.38386 0
M  V30 11377 H 1042.57 1.35854 0.621609 0
M  V30 11378 H 1044.45 1.97085 3.72472 0
M  V30 11379 H 1043.12 0.955599 3.09273 0
M  V30 11380 H 1042.03 3.06819 2.1404 0
M  V30 11381 H 1043.36 4.02549 2.83223 0
M  V30 11382 N 1045.02 -0.694098 1.41492 0
M  V30 11383 C 1045.95 -1.82042 1.46229 0
M  V30 11384 C 1046.93 -1.67047 0.320803 0
M  V30 11385 O 1048.11 -1.86758 0.53245 0
M  V30 11386 C 1045.24 -3.2019 1.34519 0
M  V30 11387 C 1044.2 -3.49892 2.46495 0
M  V30 11388 C 1043.52 -4.87411 2.1985 0
M  V30 11389 C 1044.82 -3.4872 3.88834 0
M  V30 11390 H 1046.52 -1.78335 2.40493 0
M  V30 11391 H 1044.06 -0.856566 1.15754 0
M  V30 11392 H 1046.02 -3.98699 1.36445 0
M  V30 11393 H 1044.74 -3.24527 0.367406 0
M  V30 11394 H 1043.4 -2.73734 2.43854 0
M  V30 11395 H 1043.05 -4.88375 1.20411 0
M  V30 11396 H 1042.75 -5.08248 2.94885 0
M  V30 11397 H 1044.27 -5.68228 2.23494 0
M  V30 11398 H 1045.68 -4.1723 3.93182 0
M  V30 11399 H 1044.08 -3.81089 4.63564 0
M  V30 11400 H 1045.15 -2.47665 4.16881 0
M  V30 11401 N 1046.49 -1.27344 -0.928501 0
M  V30 11402 C 1047.74 -1.13804 -1.67859 0
M  V30 11403 C 1048.07 0.31555 -1.91619 0
M  V30 11404 O 1047.35 1.23087 -1.50599 0
M  V30 11405 C 1047.63 -1.9213 -3.04562 0
M  V30 11406 C 1047.48 -3.45468 -2.88048 0
M  V30 11407 C 1048.8 -1.72513 -4.04879 0
M  V30 11408 H 1045.92 -0.414796 -0.609191 0
M  V30 11409 H 1048.56 -1.5649 -1.07753 0
M  V30 11410 H 1046.71 -1.55853 -3.55868 0
M  V30 11411 H 1048.39 -3.9157 -2.43865 0
M  V30 11412 H 1046.63 -3.71849 -2.23407 0
M  V30 11413 H 1047.3 -3.95515 -3.85061 0
M  V30 11414 H 1049.78 -2.04143 -3.62581 0
M  V30 11415 H 1048.65 -2.29713 -4.98521 0
M  V30 11416 H 1048.91 -0.672856 -4.3695 0
M  V30 11417 N 1047.97 1.13488 -1.09353 0
M  V30 11418 C 1048.94 2.17066 -0.735863 0
M  V30 11419 C 1049.94 1.59086 0.234181 0
M  V30 11420 O 1051.13 1.74196 0.012463 0
M  V30 11421 C 1048.26 3.40786 -0.0880975 0
M  V30 11422 H 1049.45 2.50221 -1.65316 0
M  V30 11423 H 1047 1.28304 -0.89263 0
M  V30 11424 H 1047.74 3.1322 0.840462 0
M  V30 11425 H 1047.52 3.8414 -0.786073 0
M  V30 11426 H 1049.01 4.17342 0.146775 0
M  V30 11427 N 1049.45 0.880621 1.30701 0
M  V30 11428 C 1050.36 0.348034 2.32004 0
M  V30 11429 C 1051.38 -0.547508 1.65162 0
M  V30 11430 O 1052.55 -0.441673 1.96497 0
M  V30 11431 C 1049.62 -0.432585 3.43991 0
M  V30 11432 C 1048.68 0.492189 4.26469 0
M  V30 11433 C 1047.91 -0.25127 5.33108 0
M  V30 11434 O 1048.14 -1.47795 5.5092 0
M  V30 11435 O 1047.07 0.396376 6.00593 0
M  V30 11436 H 1050.9 1.18798 2.79501 0
M  V30 11437 H 1048.48 0.64432 1.34792 0
M  V30 11438 H 1050.36 -0.874733 4.12221 0
M  V30 11439 H 1049.04 -1.2489 2.98637 0
M  V30 11440 H 1047.94 0.983058 3.60953 0
M  V30 11441 H 1049.28 1.27439 4.75416 0
M  V30 11442 N 1050.93 -1.4397 0.641131 0
M  V30 11443 C 1051.89 -2.29149 -0.0482243 0
M  V30 11444 C 1052.89 -1.41572 -0.762495 0
M  V30 11445 O 1054.08 -1.63335 -0.605571 0
M  V30 11446 C 1051.21 -3.23375 -1.07896 0
M  V30 11447 H 1052.41 -2.9159 0.70109 0
M  V30 11448 H 1049.96 -1.51048 0.401754 0
M  V30 11449 H 1050.7 -2.65804 -1.85792 0
M  V30 11450 H 1050.48 -3.87926 -0.570597 0
M  V30 11451 H 1051.97 -3.87337 -1.56075 0
M  V30 11452 N 1052.41 -0.382291 -1.52893 0
M  V30 11453 C 1053.36 0.473026 -2.23039 0
M  V30 11454 C 1054.34 1.0353 -1.23168 0
M  V30 11455 O 1055.53 0.962566 -1.48538 0
M  V30 11456 C 1052.66 1.60349 -3.03551 0
M  V30 11457 C 1051.75 1.05329 -4.10812 0
M  V30 11458 N 1052.14 0.22746 -5.05288 0
M  V30 11459 C 1050.44 1.32648 -4.25818 0
M  V30 11460 C 1051.14 -0.0757032 -5.81651 0
M  V30 11461 N 1050.11 0.526387 -5.41045 0
M  V30 11462 H 1053.92 -0.164541 -2.93439 0
M  V30 11463 H 1051.43 -0.191211 -1.6127 0
M  V30 11464 H 1053.43 2.22858 -3.52335 0
M  V30 11465 H 1052.09 2.24394 -2.34685 0
M  V30 11466 H 1053.1 -0.134714 -5.17725 0
M  V30 11467 H 1049.78 1.96849 -3.6818 0
M  V30 11468 H 1051.17 -0.744375 -6.67764 0
M  V30 11469 N 1053.89 1.57202 -0.111913 0
M  V30 11470 C 1054.83 2.16186 0.858286 0
M  V30 11471 C 1055.83 1.10917 1.28039 0
M  V30 11472 O 1057.03 1.29233 1.25295 0
M  V30 11473 H 1053.41 0.691777 0.29487 0
M  V30 11474 H 1055.38 2.96499 0.336265 0
M  V30 11475 C 1054.13 2.77024 2.10127 0
M  V30 11476 H 1053.45 3.5772 1.78539 0
M  V30 11477 H 1054.89 3.21841 2.76033 0
M  V30 11478 C 1053.35 1.73752 2.88638 0
M  V30 11479 O 1053.88 1.18659 3.83774 0
M  V30 11480 N 1052.09 1.43855 2.52496 0
M  V30 11481 H 1051.63 1.88846 1.75199 0
M  V30 11482 H 1051.59 0.749985 3.05324 0
M  V30 11483 N 1055.36 -0.161842 1.56767 0
M  V30 11484 C 1056.29 -1.20226 2.0017 0
M  V30 11485 C 1057.27 -1.4564 0.878807 0
M  V30 11486 O 1058.46 -1.56813 1.14557 0
M  V30 11487 C 1055.59 -2.53897 2.36968 0
M  V30 11488 C 1054.54 -2.43033 3.52305 0
M  V30 11489 C 1053.87 -3.81281 3.74872 0
M  V30 11490 C 1055.17 -1.927 4.85453 0
M  V30 11491 H 1056.86 -0.84142 2.87333 0
M  V30 11492 H 1054.41 -0.403309 1.38237 0
M  V30 11493 H 1056.36 -3.26893 2.6593 0
M  V30 11494 H 1055.09 -2.91787 1.46724 0
M  V30 11495 H 1053.75 -1.7249 3.23485 0
M  V30 11496 H 1053.39 -4.1658 2.81904 0
M  V30 11497 H 1053.09 -3.74877 4.52483 0
M  V30 11498 H 1054.62 -4.55848 4.06245 0
M  V30 11499 H 1056.03 -2.55477 5.13229 0
M  V30 11500 H 1054.43 -1.97222 5.66766 0
M  V30 11501 H 1055.5 -0.881816 4.76814 0
M  V30 11502 N 1056.84 -1.516 -0.430713 0
M  V30 11503 C 1058.08 -1.6626 -1.18899 0
M  V30 11504 C 1058.45 -0.373877 -1.88325 0
M  V30 11505 O 1059.65 -0.39632 -2.65862 0
M  V30 11506 C 1057.92 -2.83693 -2.17378 0
M  V30 11507 S 1059.48 -3.18717 -3.01604 0
M  V30 11508 H 1056.29 -0.585681 -0.403112 0
M  V30 11509 H 1058.9 -1.89528 -0.479538 0
M  V30 11510 H 1057.6 -3.75759 -1.65025 0
M  V30 11511 H 1057.13 -2.62634 -2.92894 0
M  V30 11512 H 1059.15 -2.65665 -4.1909 0
M  V30 11513 N 1058.32 0.686584 -1.41858 0
M  V30 11514 C 1059.55 1.47519 -1.45072 0
M  V30 11515 C 1059.96 1.88709 -0.0585868 0
M  V30 11516 O 1059.32 1.57373 0.924116 0
M  V30 11517 C 1059.37 2.73195 -2.36742 0
M  V30 11518 O 1059.09 2.33736 -3.70539 0
M  V30 11519 C 1060.59 3.66861 -2.48854 0
M  V30 11520 H 1057.81 0.454307 -0.493808 0
M  V30 11521 H 1060.36 0.844612 -1.86243 0
M  V30 11522 H 1058.51 3.32468 -1.98856 0
M  V30 11523 H 1058.93 3.14809 -4.19518 0
M  V30 11524 H 1060.4 4.51801 -3.17143 0
M  V30 11525 H 1060.88 4.11961 -1.52265 0
M  V30 11526 H 1061.48 3.13486 -2.87414 0
M  V30 11527 N 1059.8 1.27835 0.921735 0
M  V30 11528 C 1060.73 1.136 2.04003 0
M  V30 11529 C 1061.71 0.0358756 1.70062 0
M  V30 11530 O 1062.89 0.211438 1.93046 0
M  V30 11531 C 1060.02 0.788697 3.38226 0
M  V30 11532 C 1058.98 1.84272 3.863 0
M  V30 11533 C 1058.3 1.34923 5.17397 0
M  V30 11534 C 1059.6 3.24788 4.09035 0
M  V30 11535 H 1061.3 2.07149 2.1617 0
M  V30 11536 H 1058.84 0.997349 1.0387 0
M  V30 11537 H 1060.8 0.675911 4.15944 0
M  V30 11538 H 1059.52 -0.182499 3.2609 0
M  V30 11539 H 1058.18 1.94451 3.1078 0
M  V30 11540 H 1057.83 0.367328 5.01657 0
M  V30 11541 H 1057.53 2.05397 5.50532 0
M  V30 11542 H 1059.05 1.24951 5.97678 0
M  V30 11543 H 1060.47 3.17575 4.77304 0
M  V30 11544 H 1058.86 3.93025 4.53488 0
M  V30 11545 H 1059.93 3.69398 3.14122 0
M  V30 11546 N 1061.28 -1.12907 1.09954 0
M  V30 11547 C 1062.21 -2.20585 0.765799 0
M  V30 11548 C 1063.19 -1.68117 -0.258989 0
M  V30 11549 O 1064.37 -1.93792 -0.125853 0
M  V30 11550 C 1061.5 -3.46772 0.191435 0
M  V30 11551 C 1060.46 -4.12363 1.14635 0
M  V30 11552 C 1059.78 -5.3294 0.433426 0
M  V30 11553 C 1061.08 -4.59073 2.49096 0
M  V30 11554 H 1062.78 -2.48759 1.66612 0
M  V30 11555 H 1060.32 -1.19563 0.802534 0
M  V30 11556 H 1062.27 -4.21365 -0.0541535 0
M  V30 11557 H 1061 -3.18011 -0.744101 0
M  V30 11558 H 1059.66 -3.39744 1.37731 0
M  V30 11559 H 1059.31 -5.00444 -0.506422 0
M  V30 11560 H 1059.01 -5.77772 1.07018 0
M  V30 11561 H 1060.53 -6.10284 0.196267 0
M  V30 11562 H 1061.94 -5.25063 2.30177 0
M  V30 11563 H 1060.34 -5.14665 3.0861 0
M  V30 11564 H 1061.41 -3.73313 3.0946 0
M  V30 11565 N 1062.75 -0.88754 -1.30232 0
M  V30 11566 C 1063.66 -0.360333 -2.31816 0
M  V30 11567 C 1064.68 0.538741 -1.6545 0
M  V30 11568 O 1065.86 0.431246 -1.96729 0
M  V30 11569 C 1062.92 0.414336 -3.44215 0
M  V30 11570 C 1061.98 -0.514799 -4.26202 0
M  V30 11571 C 1061.21 0.222994 -5.33234 0
M  V30 11572 O 1061.44 1.44871 -5.51696 0
M  V30 11573 O 1060.37 -0.428221 -6.00375 0
M  V30 11574 H 1064.2 -1.20279 -2.78867 0
M  V30 11575 H 1061.78 -0.651459 -1.34448 0
M  V30 11576 H 1063.66 0.852859 -4.12679 0
M  V30 11577 H 1062.34 1.23305 -2.99295 0
M  V30 11578 H 1061.25 -1.00219 -3.60426 0
M  V30 11579 H 1062.58 -1.29959 -4.74733 0
M  V30 11580 N 1064.23 1.43628 -0.648757 0
M  V30 11581 C 1065.18 2.32529 0.057536 0
M  V30 11582 C 1066.17 1.48358 0.817699 0
M  V30 11583 O 1067.38 1.64595 0.728605 0
M  V30 11584 H 1063.76 0.75107 0.037388 0
M  V30 11585 H 1065.73 2.89829 -0.710062 0
M  V30 11586 C 1064.48 3.32605 1.01336 0
M  V30 11587 H 1063.8 3.97395 0.437855 0
M  V30 11588 H 1065.24 3.97453 1.47672 0
M  V30 11589 C 1063.7 2.62865 2.10722 0
M  V30 11590 O 1064.23 2.4408 3.19042 0
M  V30 11591 N 1062.43 2.22312 1.87152 0
M  V30 11592 H 1061.98 2.3779 0.990644 0
M  V30 11593 H 1061.94 1.75979 2.60536 0
M  V30 11594 N 1065.71 0.390394 1.52688 0
M  V30 11595 C 1066.67 -0.432149 2.25089 0
M  V30 11596 C 1067.67 -0.989296 1.26766 0
M  V30 11597 O 1068.86 -0.871126 1.50854 0
M  V30 11598 C 1066 -1.60642 3.00678 0
M  V30 11599 H 1067.19 0.201734 2.99221 0
M  V30 11600 H 1064.74 0.142531 1.55649 0
M  V30 11601 H 1065.48 -2.2777 2.3085 0
M  V30 11602 H 1065.26 -1.21361 3.72846 0
M  V30 11603 H 1066.75 -2.18873 3.55647 0
M  V30 11604 N 1067.19 -1.57141 0.120249 0
M  V30 11605 C 1068.44 -1.94413 -0.53727 0
M  V30 11606 C 1068.75 -1.00594 -1.67751 0
M  V30 11607 O 1069.96 -1.27336 -2.39787 0
M  V30 11608 C 1068.41 -3.45521 -1.00714 0
M  V30 11609 C 1068.02 -4.47878 0.104706 0
M  V30 11610 C 1069.76 -3.9171 -1.63596 0
M  V30 11611 C 1067.67 -5.90165 -0.381932 0
M  V30 11612 H 1066.6 -0.725745 -0.204475 0
M  V30 11613 H 1069.25 -1.82404 0.200302 0
M  V30 11614 H 1067.63 -3.52769 -1.79917 0
M  V30 11615 H 1068.81 -4.523 0.881002 0
M  V30 11616 H 1067.12 -4.11448 0.640264 0
M  V30 11617 H 1069.72 -4.95433 -2.01122 0
M  V30 11618 H 1070.06 -3.31756 -2.51483 0
M  V30 11619 H 1070.6 -3.87268 -0.909319 0
M  V30 11620 H 1067.34 -6.53877 0.460921 0
M  V30 11621 H 1066.86 -5.89161 -1.12468 0
M  V30 11622 H 1068.53 -6.41488 -0.842748 0
M  V30 11623 N 1068.67 0.153526 -1.5685 0
M  V30 11624 C 1069.6 1.2147 -1.94365 0
M  V30 11625 C 1070.61 1.39532 -0.838726 0
M  V30 11626 O 1071.8 1.39219 -1.11715 0
M  V30 11627 C 1068.9 2.5806 -2.19677 0
M  V30 11628 C 1068.07 2.61062 -3.50949 0
M  V30 11629 C 1067.13 3.79144 -3.64878 0
M  V30 11630 O 1066.16 3.64319 -4.37333 0
M  V30 11631 N 1067.36 4.96333 -3.01054 0
M  V30 11632 H 1070.13 0.895889 -2.85996 0
M  V30 11633 H 1067.69 0.343147 -1.58222 0
M  V30 11634 H 1069.68 3.35553 -2.26243 0
M  V30 11635 H 1068.25 2.8226 -1.34343 0
M  V30 11636 H 1067.47 1.69533 -3.55882 0
M  V30 11637 H 1068.76 2.60094 -4.37297 0
M  V30 11638 H 1068.15 5.1128 -2.42093 0
M  V30 11639 H 1066.71 5.71625 -3.13191 0
M  V30 11640 N 1070.14 1.51827 0.422667 0
M  V30 11641 C 1071.42 1.55772 1.18299 0
M  V30 11642 C 1071.8 0.330657 2.08494 0
M  V30 11643 O 1071.15 -0.683373 2.18042 0
M  V30 11644 C 1071.36 2.87941 1.97208 0
M  V30 11645 C 1072.71 3.4044 2.53744 0
M  V30 11646 O 1073.73 2.8959 2.07403 0
M  V30 11647 O 1072.59 4.29201 3.38303 0
M  V30 11648 H 1069.68 0.626889 0.539388 0
M  V30 11649 H 1072.23 1.64147 0.430545 0
M  V30 11650 H 1071 3.68702 1.31052 0
M  V30 11651 H 1070.63 2.82795 2.79486 0
M  V30 11652 N 1071.62 -0.679052 1.4222 0
M  V30 11653 C 1072.85 -1.46747 1.45852 0
M  V30 11654 C 1073.27 -1.88675 0.0685937 0
M  V30 11655 O 1072.62 -1.57861 -0.915757 0
M  V30 11656 C 1072.67 -2.71935 2.38188 0
M  V30 11657 O 1072.39 -2.31768 3.71773 0
M  V30 11658 C 1073.9 -3.65536 2.50796 0
M  V30 11659 H 1071.12 -0.451682 0.49621 0
M  V30 11660 H 1073.66 -0.834723 1.86689 0
M  V30 11661 H 1071.81 -3.31409 2.00616 0
M  V30 11662 H 1072.23 -3.12579 4.21182 0
M  V30 11663 H 1073.7 -4.50113 3.19535 0
M  V30 11664 H 1074.18 -4.11148 1.54447 0
M  V30 11665 H 1074.79 -3.11957 2.89072 0
M  V30 11666 N 1073.1 -1.28322 -0.914942 0
M  V30 11667 C 1074.35 -1.15578 -1.66642 0
M  V30 11668 C 1074.68 0.295209 -1.91943 0
M  V30 11669 O 1073.95 1.21482 -1.51896 0
M  V30 11670 C 1074.24 -1.9535 -3.02507 0
M  V30 11671 C 1074.09 -3.48504 -2.84367 0
M  V30 11672 C 1075.41 -1.76798 -4.03027 0
M  V30 11673 H 1072.53 -0.421234 -0.604757 0
M  V30 11674 H 1075.17 -1.57625 -1.06087 0
M  V30 11675 H 1073.32 -1.59619 -3.54195 0
M  V30 11676 H 1074.99 -3.94135 -2.39699 0
M  V30 11677 H 1073.24 -3.74198 -2.1945 0
M  V30 11678 H 1073.91 -3.99576 -3.80845 0
M  V30 11679 H 1076.38 -2.07977 -3.60395 0
M  V30 11680 H 1075.26 -2.34987 -4.96057 0
M  V30 11681 H 1075.52 -0.719162 -4.36211 0
M  V30 11682 N 1074.58 1.12322 -1.10551 0
M  V30 11683 C 1075.99 1.35858 -0.837543 0
M  V30 11684 C 1076.19 1.94062 0.54241 0
M  V30 11685 O 1075.25 2.1676 1.29505 0
M  V30 11686 C 1076.56 2.299 -1.9382 0
M  V30 11687 C 1078.11 2.43488 -1.96679 0
M  V30 11688 C 1078.59 3.40846 -3.05922 0
M  V30 11689 N 1080.08 3.48404 -3.05236 0
M  V30 11690 C 1080.81 4.2365 -3.86405 0
M  V30 11691 N 1080.31 5.01951 -4.77512 0
M  V30 11692 N 1082.1 4.19068 -3.74618 0
M  V30 11693 H 1074.25 0.729002 -1.99498 0
M  V30 11694 H 1076.52 0.38339 -0.867016 0
M  V30 11695 H 1076.22 1.94309 -2.9315 0
M  V30 11696 H 1076.1 3.30033 -1.82641 0
M  V30 11697 H 1078.48 2.78359 -0.979813 0
M  V30 11698 H 1078.56 1.43239 -2.11934 0
M  V30 11699 H 1078.21 3.06704 -4.04839 0
M  V30 11700 H 1078.14 4.40927 -2.87907 0
M  V30 11701 H 1080.63 2.92545 -2.39219 0
M  V30 11702 H 1080.94 5.56707 -5.36002 0
M  V30 11703 H 1079.29 5.01143 -4.8154 0
M  V30 11704 H 1082.48 3.5698 -3.02792 0
M  V30 11705 H 1082.65 4.77455 -4.38111 0
M  V30 11706 N 1076.06 0.894434 1.2976 0
M  V30 11707 C 1076.97 0.372622 2.31622 0
M  V30 11708 C 1077.98 -0.52996 1.65733 0
M  V30 11709 O 1079.16 -0.420807 1.96955 0
M  V30 11710 C 1076.22 -0.396076 3.4443 0
M  V30 11711 C 1075.28 0.537394 4.25923 0
M  V30 11712 C 1074.52 -0.194713 5.33345 0
M  V30 11713 O 1074.74 -1.41943 5.52457 0
M  V30 11714 O 1073.67 0.460055 6.00139 0
M  V30 11715 H 1077.5 1.21756 2.78225 0
M  V30 11716 H 1075.09 0.65858 1.34101 0
M  V30 11717 H 1076.97 -0.830962 4.13126 0
M  V30 11718 H 1075.64 -1.21716 2.99945 0
M  V30 11719 H 1074.55 1.02129 3.5989 0
M  V30 11720 H 1075.88 1.32475 4.74037 0
M  V30 11721 N 1077.53 -1.43282 0.656365 0
M  V30 11722 C 1078.47 -2.29087 -0.0720378 0
M  V30 11723 C 1079.48 -1.4268 -0.783982 0
M  V30 11724 O 1080.67 -1.66585 -0.641213 0
M  V30 11725 C 1077.77 -3.19676 -1.12519 0
M  V30 11726 C 1076.94 -4.34638 -0.490756 0
M  V30 11727 C 1076 -5.06079 -1.44121 0
M  V30 11728 O 1075.03 -5.6124 -0.948595 0
M  V30 11729 N 1076.23 -5.09872 -2.77509 0
M  V30 11730 H 1078.99 -2.92241 0.664456 0
M  V30 11731 H 1076.55 -1.54006 0.499383 0
M  V30 11732 H 1078.55 -3.64334 -1.76189 0
M  V30 11733 H 1077.12 -2.581 -1.76362 0
M  V30 11734 H 1076.34 -3.92857 0.3251 0
M  V30 11735 H 1077.62 -5.08777 -0.0480061 0
M  V30 11736 H 1077.02 -4.66433 -3.20088 0
M  V30 11737 H 1075.58 -5.58237 -3.36474 0
M  V30 11738 N 1079.01 -0.398486 -1.52479 0
M  V30 11739 C 1080.29 0.238776 -1.94137 0
M  V30 11740 C 1080.67 1.63558 -1.33462 0
M  V30 11741 O 1080.02 2.22821 -0.506272 0
M  V30 11742 C 1080.23 0.255863 -3.48061 0
M  V30 11743 C 1081.58 0.480376 -4.21874 0
M  V30 11744 O 1082.6 0.335679 -3.54615 0
M  V30 11745 O 1081.46 0.764654 -5.41124 0
M  V30 11746 H 1078.55 0.150806 -0.813134 0
M  V30 11747 H 1081.1 -0.453659 -1.63524 0
M  V30 11748 H 1079.87 -0.722171 -3.84578 0
M  V30 11749 H 1079.49 0.99284 -3.85004 0
M  V30 11750 N 1080.49 1.57075 -0.12858 0
M  V30 11751 C 1081.42 2.12907 0.848708 0
M  V30 11752 C 1082.44 1.07406 1.22343 0
M  V30 11753 O 1083.63 1.34746 1.17071 0
M  V30 11754 C 1080.73 2.62167 2.1476 0
M  V30 11755 C 1079.9 3.91871 1.94309 0
M  V30 11756 C 1078.96 4.26629 3.08016 0
M  V30 11757 O 1077.98 4.9528 2.80511 0
M  V30 11758 N 1079.19 3.84721 4.34706 0
M  V30 11759 H 1081.95 2.97387 0.371636 0
M  V30 11760 H 1079.51 1.61805 0.0555574 0
M  V30 11761 H 1081.5 2.82444 2.89841 0
M  V30 11762 H 1080.07 1.82514 2.53786 0
M  V30 11763 H 1079.29 3.80406 1.03367 0
M  V30 11764 H 1080.58 4.76662 1.77962 0
M  V30 11765 H 1079.98 3.2937 4.59926 0
M  V30 11766 H 1078.54 4.10087 5.06628 0
M  V30 11767 N 1081.97 -0.145205 1.5693 0
M  V30 11768 C 1083.19 -0.876386 1.87974 0
M  V30 11769 C 1083.62 -1.73866 0.717795 0
M  V30 11770 O 1082.98 -1.78224 -0.332551 0
M  V30 11771 C 1083.03 -1.70746 3.17613 0
M  V30 11772 O 1082.13 -2.81188 3.01674 0
M  V30 11773 H 1081.47 -0.243987 0.617549 0
M  V30 11774 H 1084 -0.135482 2.04151 0
M  V30 11775 H 1084.01 -2.1021 3.49679 0
M  V30 11776 H 1082.69 -1.07429 4.01786 0
M  V30 11777 H 1081.26 -2.45117 2.81019 0
M  V30 11778 N 1083.45 -1.52049 -0.414609 0
M  V30 11779 C 1084.69 -1.65838 -1.16206 0
M  V30 11780 C 1085.02 -0.385623 -1.90639 0
M  V30 11781 O 1084.28 0.631214 -1.85241 0
M  V30 11782 C 1084.58 -2.82735 -2.18622 0
M  V30 11783 C 1084.24 -4.21163 -1.61037 0
M  V30 11784 C 1082.9 -4.58816 -1.45056 0
M  V30 11785 C 1085.26 -5.0745 -1.18928 0
M  V30 11786 C 1082.58 -5.8044 -0.854761 0
M  V30 11787 C 1084.94 -6.29674 -0.607686 0
M  V30 11788 C 1083.6 -6.66081 -0.434968 0
M  V30 11789 H 1082.87 -0.606845 -0.425229 0
M  V30 11790 H 1085.52 -1.86137 -0.450009 0
M  V30 11791 H 1083.82 -2.56749 -2.95952 0
M  V30 11792 H 1085.52 -2.90601 -2.76319 0
M  V30 11793 H 1082.11 -3.91488 -1.74457 0
M  V30 11794 H 1086.29 -4.78948 -1.30086 0
M  V30 11795 H 1081.55 -6.07276 -0.70891 0
M  V30 11796 H 1085.72 -6.95865 -0.272988 0
M  V30 11797 H 1083.35 -7.60195 0.0288116 0
M  V30 11798 N 1084.93 0.6715 -1.42579 0
M  V30 11799 C 1086.15 1.45972 -1.46628 0
M  V30 11800 C 1086.57 1.88636 -0.0785986 0
M  V30 11801 O 1085.93 1.58345 0.907372 0
M  V30 11802 C 1085.98 2.70668 -2.39627 0
M  V30 11803 O 1085.7 2.29793 -3.72997 0
M  V30 11804 C 1087.2 3.64201 -2.52731 0
M  V30 11805 H 1084.42 0.449044 -0.498598 0
M  V30 11806 H 1086.96 0.824811 -1.87129 0
M  V30 11807 H 1085.12 3.3034 -2.02371 0
M  V30 11808 H 1085.53 3.10341 -4.22834 0
M  V30 11809 H 1087.01 4.48412 -3.21918 0
M  V30 11810 H 1087.48 4.10323 -1.56626 0
M  V30 11811 H 1088.09 3.1042 -2.90722 0
M  V30 11812 N 1086.4 1.28806 0.908124 0
M  V30 11813 C 1087.37 1.13228 1.99279 0
M  V30 11814 C 1088.37 0.0702456 1.60646 0
M  V30 11815 O 1089.56 0.316494 1.71301 0
M  V30 11816 C 1086.69 0.729629 3.33 0
M  V30 11817 H 1087.88 2.09566 2.14528 0
M  V30 11818 H 1085.43 1.11872 1.09153 0
M  V30 11819 H 1086.17 -0.234268 3.23453 0
M  V30 11820 H 1085.95 1.49688 3.62403 0
M  V30 11821 H 1087.44 0.643449 4.12613 0
M  V30 11822 N 1087.88 -1.11734 1.11145 0
M  V30 11823 C 1088.81 -2.1976 0.789152 0
M  V30 11824 C 1089.79 -1.68382 -0.241143 0
M  V30 11825 O 1090.98 -1.93914 -0.105292 0
M  V30 11826 C 1088.11 -3.46549 0.228204 0
M  V30 11827 C 1087.06 -4.11123 1.19002 0
M  V30 11828 C 1086.39 -5.32451 0.489928 0
M  V30 11829 C 1087.69 -4.56406 2.53951 0
M  V30 11830 H 1089.38 -2.46978 1.69241 0
M  V30 11831 H 1086.93 -1.18705 0.81517 0
M  V30 11832 H 1088.88 -4.21399 -0.00945908 0
M  V30 11833 H 1087.6 -3.18782 -0.71033 0
M  V30 11834 H 1086.26 -3.38264 1.41326 0
M  V30 11835 H 1085.91 -5.00953 -0.453315 0
M  V30 11836 H 1085.61 -5.76605 1.1314 0
M  V30 11837 H 1087.14 -6.10042 0.260984 0
M  V30 11838 H 1088.55 -5.22592 2.35733 0
M  V30 11839 H 1086.95 -5.11363 3.14051 0
M  V30 11840 H 1088.02 -3.7001 3.13402 0
M  V30 11841 N 1089.36 -0.901303 -1.29284 0
M  V30 11842 C 1090.64 -0.44747 -1.90413 0
M  V30 11843 C 1091.02 1.07298 -1.81797 0
M  V30 11844 O 1090.36 1.91555 -1.24574 0
M  V30 11845 C 1090.57 -0.963849 -3.35427 0
M  V30 11846 C 1091.92 -1.00851 -4.12449 0
M  V30 11847 O 1092.95 -0.91163 -3.44337 0
M  V30 11848 O 1091.81 -1.15426 -5.34171 0
M  V30 11849 H 1088.9 -0.13976 -0.815105 0
M  V30 11850 H 1091.45 -0.991274 -1.37738 0
M  V30 11851 H 1090.22 -2.00782 -3.3586 0
M  V30 11852 H 1089.84 -0.400149 -3.95581 0
M  V30 11853 N 1090.84 1.42931 -0.663954 0
M  V30 11854 C 1092.08 2.02505 -0.190647 0
M  V30 11855 C 1092.44 1.51506 1.18591 0
M  V30 11856 O 1091.73 0.702962 1.78239 0
M  V30 11857 C 1091.93 3.57072 -0.153163 0
M  V30 11858 C 1091.75 4.23069 -1.52454 0
M  V30 11859 C 1090.52 4.58694 -2.11961 0
M  V30 11860 C 1092.72 4.51373 -2.46509 0
M  V30 11861 N 1090.7 5.09818 -3.41993 0
M  V30 11862 C 1092.08 5.03931 -3.61184 0
M  V30 11863 C 1094.13 4.33351 -2.45176 0
M  V30 11864 C 1092.83 5.40362 -4.74765 0
M  V30 11865 C 1094.86 4.70851 -3.57845 0
M  V30 11866 C 1094.22 5.23551 -4.71246 0
M  V30 11867 H 1090.32 0.773581 -0.114438 0
M  V30 11868 H 1092.9 1.73951 -0.874589 0
M  V30 11869 H 1091.08 3.85166 0.500156 0
M  V30 11870 H 1092.81 4.03336 0.332015 0
M  V30 11871 H 1089.56 4.44091 -1.6456 0
M  V30 11872 H 1089.99 5.39821 -4.08561 0
M  V30 11873 H 1094.63 3.91871 -1.58735 0
M  V30 11874 H 1092.35 5.8078 -5.6189 0
M  V30 11875 H 1095.93 4.58593 -3.58028 0
M  V30 11876 H 1094.81 5.52029 -5.56986 0
M  V30 11877 N 1092.32 0.406567 1.52266 0
M  V30 11878 C 1093.54 -0.172101 2.06685 0
M  V30 11879 C 1093.97 -1.38306 1.27488 0
M  V30 11880 O 1093.32 -1.78726 0.304441 0
M  V30 11881 C 1093.37 -0.503463 3.57068 0
M  V30 11882 O 1092.48 -1.59485 3.80314 0
M  V30 11883 H 1091.82 -0.0153209 0.663823 0
M  V30 11884 H 1094.35 0.579025 1.96236 0
M  V30 11885 H 1094.36 -0.762833 4.00805 0
M  V30 11886 H 1093.03 0.381775 4.14144 0
M  V30 11887 H 1091.61 -1.32784 3.48458 0
M  V30 11888 N 1093.79 -1.57004 0.136909 0
M  V30 11889 C 1095.04 -1.96873 -0.511137 0
M  V30 11890 C 1095.4 -1.02001 -1.63137 0
M  V30 11891 O 1094.69 -0.0532138 -1.91526 0
M  V30 11892 C 1094.88 -3.40903 -1.07331 0
M  V30 11893 C 1094.71 -4.49699 -0.00908112 0
M  V30 11894 C 1093.48 -5.03477 0.42889 0
M  V30 11895 C 1095.68 -5.08372 0.778631 0
M  V30 11896 N 1093.66 -5.95867 1.47702 0
M  V30 11897 C 1095.03 -5.96875 1.67751 0
M  V30 11898 C 1097.09 -4.90975 0.827538 0
M  V30 11899 C 1095.79 -6.69845 2.62108 0
M  V30 11900 C 1097.82 -5.64639 1.75889 0
M  V30 11901 C 1097.18 -6.52842 2.64531 0
M  V30 11902 H 1093.28 -0.766253 -0.156141 0
M  V30 11903 H 1095.86 -1.93347 0.229176 0
M  V30 11904 H 1094.03 -3.45042 -1.78327 0
M  V30 11905 H 1095.76 -3.67855 -1.68715 0
M  V30 11906 H 1092.52 -4.73588 0.03306 0
M  V30 11907 H 1092.94 -6.46767 2.00055 0
M  V30 11908 H 1097.59 -4.22511 0.156318 0
M  V30 11909 H 1095.3 -7.37544 3.30235 0
M  V30 11910 H 1098.89 -5.53177 1.80241 0
M  V30 11911 H 1097.77 -7.08843 3.35426 0
M  V30 11912 N 1095.27 0.136881 -1.57004 0
M  V30 11913 C 1096.2 1.17026 -2.02057 0
M  V30 11914 C 1097.18 1.44223 -0.901866 0
M  V30 11915 O 1098.37 1.54971 -1.17037 0
M  V30 11916 C 1095.5 2.50095 -2.40977 0
M  V30 11917 C 1094.45 2.37398 -3.56127 0
M  V30 11918 C 1093.78 3.75268 -3.80891 0
M  V30 11919 C 1095.08 1.84952 -4.88457 0
M  V30 11920 H 1096.77 0.795601 -2.88636 0
M  V30 11921 H 1094.32 0.381266 -1.38861 0
M  V30 11922 H 1096.27 3.22621 -2.71097 0
M  V30 11923 H 1095 2.89416 -1.51348 0
M  V30 11924 H 1093.65 1.67322 -3.26188 0
M  V30 11925 H 1093.3 4.12043 -2.88496 0
M  V30 11926 H 1093 3.67631 -4.5839 0
M  V30 11927 H 1094.53 4.49327 -4.13446 0
M  V30 11928 H 1095.94 2.4728 -5.17229 0
M  V30 11929 H 1094.34 1.88181 -5.69832 0
M  V30 11930 H 1095.41 0.805848 -4.78157 0
M  V30 11931 N 1096.75 1.52266 0.40654 0
M  V30 11932 C 1097.68 1.72025 1.51459 0
M  V30 11933 C 1098.7 0.600667 1.51314 0
M  V30 11934 O 1099.88 0.875894 1.55532 0
M  V30 11935 C 1096.98 1.7479 2.90348 0
M  V30 11936 C 1096.16 3.03826 3.14656 0
M  V30 11937 C 1095.22 2.98369 4.33431 0
M  V30 11938 O 1094.24 3.7227 4.30586 0
M  V30 11939 N 1095.44 2.16338 5.38682 0
M  V30 11940 H 1098.21 2.67622 1.34903 0
M  V30 11941 H 1095.77 1.50536 0.595867 0
M  V30 11942 H 1097.76 1.68667 3.67877 0
M  V30 11943 H 1096.33 0.86656 3.00349 0
M  V30 11944 H 1095.55 3.23577 2.25148 0
M  V30 11945 H 1096.84 3.89182 3.27742 0
M  V30 11946 H 1096.24 1.55731 5.43842 0
M  V30 11947 H 1094.8 2.1607 6.14945 0
M  V30 11948 N 1098.23 -0.663929 1.42933 0
M  V30 11949 C 1099.46 -1.45192 1.474 0
M  V30 11950 C 1099.87 -1.88592 0.0886014 0
M  V30 11951 O 1099.23 -1.58824 -0.898962 0
M  V30 11952 C 1099.28 -2.69394 2.41059 0
M  V30 11953 O 1099 -2.27812 3.7421 0
M  V30 11954 C 1100.5 -3.62855 2.54659 0
M  V30 11955 H 1097.72 -0.446394 0.500973 0
M  V30 11956 H 1100.27 -0.814875 1.87563 0
M  V30 11957 H 1098.42 -3.29262 2.0412 0
M  V30 11958 H 1098.83 -3.08095 4.24474 0
M  V30 11959 H 1100.31 -4.46698 3.24291 0
M  V30 11960 H 1100.79 -4.09487 1.58799 0
M  V30 11961 H 1101.39 -3.08874 2.92364 0
M  V30 11962 N 1099.71 -1.29285 -0.901281 0
M  V30 11963 C 1100.62 -1.16161 -2.03823 0
M  V30 11964 C 1101.63 -0.0852298 -1.73791 0
M  V30 11965 O 1102.81 -0.29699 -1.99198 0
M  V30 11966 C 1099.87 -0.837586 -3.3643 0
M  V30 11967 C 1098.93 -1.99764 -3.7999 0
M  V30 11968 C 1098.17 -1.68898 -5.0627 0
M  V30 11969 O 1098.39 -0.609177 -5.67138 0
M  V30 11970 O 1097.32 -2.53648 -5.45845 0
M  V30 11971 H 1101.15 -2.11635 -2.17817 0
M  V30 11972 H 1098.74 -1.08722 -1.02468 0
M  V30 11973 H 1100.62 -0.671376 -4.16017 0
M  V30 11974 H 1099.29 0.0873811 -3.23582 0
M  V30 11975 H 1098.2 -2.21908 -3.01177 0
M  V30 11976 H 1099.53 -2.90376 -3.9742 0
M  V30 11977 N 1101.18 1.11143 -1.11736 0
M  V30 11978 C 1102.09 2.20851 -0.791331 0
M  V30 11979 C 1103.11 1.72644 0.216833 0
M  V30 11980 O 1104.29 2.01332 0.0522401 0
M  V30 11981 C 1101.35 3.4585 -0.242694 0
M  V30 11982 C 1100.41 4.08829 -1.30986 0
M  V30 11983 C 1099.65 5.27861 -0.787305 0
M  V30 11984 O 1099.87 5.69122 0.381549 0
M  V30 11985 O 1098.8 5.81506 -1.55352 0
M  V30 11986 H 1102.63 2.51158 -1.70744 0
M  V30 11987 H 1100.21 1.19739 -0.893478 0
M  V30 11988 H 1102.1 4.21359 0.0587472 0
M  V30 11989 H 1100.77 3.17187 0.646079 0
M  V30 11990 H 1099.68 3.35037 -1.66436 0
M  V30 11991 H 1101.01 4.41678 -2.17213 0
M  V30 11992 N 1102.66 0.908147 1.28804 0
M  V30 11993 C 1103.57 0.397167 2.31214 0
M  V30 11994 C 1104.59 -0.512352 1.66286 0
M  V30 11995 O 1105.76 -0.399893 1.9739 0
M  V30 11996 C 1102.83 -0.359522 3.44831 0
M  V30 11997 C 1101.89 0.582539 4.25329 0
M  V30 11998 C 1101.12 -0.138133 5.33521 0
M  V30 11999 O 1101.35 -1.36076 5.53931 0
M  V30 12000 O 1100.28 0.523682 5.99618 0
M  V30 12001 H 1104.11 1.247 2.76918 0
M  V30 12002 H 1101.69 0.672766 1.33395 0
M  V30 12003 H 1103.57 -0.787098 4.13984 0
M  V30 12004 H 1102.25 -1.18528 3.01219 0
M  V30 12005 H 1101.16 1.0594 3.58786 0
M  V30 12006 H 1102.49 1.37495 4.72605 0
M  V30 12007 N 1104.14 -1.42577 0.671525 0
M  V30 12008 C 1105.05 -2.34598 -0.00898225 0
M  V30 12009 C 1106.07 -1.54909 -0.792407 0
M  V30 12010 O 1107.24 -1.87491 -0.735477 0
M  V30 12011 C 1104.31 -3.33405 -0.950888 0
M  V30 12012 C 1103.37 -4.28993 -0.16236 0
M  V30 12013 C 1102.6 -5.2308 -1.0594 0
M  V30 12014 O 1102.82 -5.22022 -2.2989 0
M  V30 12015 O 1101.76 -5.99632 -0.521966 0
M  V30 12016 H 1105.58 -2.94321 0.748927 0
M  V30 12017 H 1103.17 -1.43025 0.43175 0
M  V30 12018 H 1105.05 -3.94115 -1.49169 0
M  V30 12019 H 1103.73 -2.7616 -1.68871 0
M  V30 12020 H 1102.63 -3.71707 0.42247 0
M  V30 12021 H 1103.97 -4.8927 0.536274 0
M  V30 12022 N 1105.62 -0.414636 -1.52048 0
M  V30 12023 C 1106.57 0.42561 -2.23992 0
M  V30 12024 C 1107.55 1.00894 -1.25337 0
M  V30 12025 O 1108.74 0.930842 -1.50547 0
M  V30 12026 C 1105.87 1.53874 -3.06884 0
M  V30 12027 C 1104.96 0.965913 -4.12954 0
M  V30 12028 N 1105.35 0.12023 -5.05657 0
M  V30 12029 C 1103.65 1.23586 -4.28535 0
M  V30 12030 C 1104.35 -0.199063 -5.81359 0
M  V30 12031 N 1103.33 0.411505 -5.4204 0
M  V30 12032 H 1107.13 -0.226746 -2.93024 0
M  V30 12033 H 1104.64 -0.225376 -1.60829 0
M  V30 12034 H 1106.64 2.15334 -3.56983 0
M  V30 12035 H 1105.3 2.19366 -2.39392 0
M  V30 12036 H 1106.31 -0.244501 -5.17323 0
M  V30 12037 H 1102.99 1.88995 -3.72273 0
M  V30 12038 H 1104.38 -0.88585 -6.66035 0
M  V30 12039 N 1107.1 1.56929 -0.145233 0
M  V30 12040 C 1108.32 2.00864 0.516564 0
M  V30 12041 C 1108.75 1.02466 1.57741 0
M  V30 12042 O 1108.1 0.000145439 1.813 0
M  V30 12043 C 1108.15 3.43552 1.09563 0
M  V30 12044 O 1107.26 3.4815 2.21055 0
M  V30 12045 H 1106.6 0.651835 0.126521 0
M  V30 12046 H 1109.13 2.0317 -0.241445 0
M  V30 12047 H 1109.14 3.82316 1.42473 0
M  V30 12048 H 1107.81 4.14677 0.318749 0
M  V30 12049 H 1106.39 3.21228 1.89387 0
M  V30 12050 N 1108.58 -0.128553 1.57075 0
M  V30 12051 C 1109.82 -0.844012 1.86161 0
M  V30 12052 C 1110.18 -1.77499 0.73198 0
M  V30 12053 O 1111.38 -2.5313 0.904357 0
M  V30 12054 C 1109.65 -1.58238 3.20462 0
M  V30 12055 S 1111.21 -2.34073 3.71154 0
M  V30 12056 H 1108.03 -0.281884 0.652734 0
M  V30 12057 H 1110.63 -0.102902 1.95229 0
M  V30 12058 H 1109.33 -0.890246 4.00628 0
M  V30 12059 H 1108.87 -2.36404 3.14446 0
M  V30 12060 H 1110.88 -3.59617 3.41892 0
M  V30 12061 N 1110.05 -1.5248 -0.398459 0
M  V30 12062 C 1110.98 -1.79549 -1.49279 0
M  V30 12063 C 1111.96 -0.647004 -1.57315 0
M  V30 12064 O 1113.15 -0.893661 -1.72416 0
M  V30 12065 C 1110.28 -1.95582 -2.86993 0
M  V30 12066 C 1109.23 -3.1123 -2.93803 0
M  V30 12067 C 1108.56 -3.12501 -4.33874 0
M  V30 12068 C 1109.86 -4.50485 -2.64312 0
M  V30 12069 H 1111.55 -2.71187 -1.26877 0
M  V30 12070 H 1109.1 -1.30492 -0.608924 0
M  V30 12071 H 1111.05 -2.13102 -3.63546 0
M  V30 12072 H 1109.78 -1.00625 -3.10712 0
M  V30 12073 H 1108.44 -2.93477 -2.19697 0
M  V30 12074 H 1108.08 -2.15245 -4.54619 0
M  V30 12075 H 1107.78 -3.90183 -4.39353 0
M  V30 12076 H 1109.31 -3.32164 -5.12347 0
M  V30 12077 H 1110.72 -4.68387 -3.30585 0
M  V30 12078 H 1109.12 -5.30163 -2.81153 0
M  V30 12079 H 1110.19 -4.57848 -1.59696 0
M  V30 12080 N 1111.53 0.65634 -1.43283 0
M  V30 12081 C 1112.44 1.79847 -1.50639 0
M  V30 12082 C 1113.46 1.69487 -0.393714 0
M  V30 12083 O 1114.63 1.90712 -0.647379 0
M  V30 12084 C 1111.7 3.16107 -1.42398 0
M  V30 12085 C 1110.76 3.38287 -2.64312 0
M  V30 12086 C 1109.99 4.68046 -2.56454 0
M  V30 12087 O 1110.22 5.4719 -1.61056 0
M  V30 12088 O 1109.15 4.91877 -3.46902 0
M  V30 12089 H 1112.98 1.76596 -2.47078 0
M  V30 12090 H 1110.56 0.814428 -1.25249 0
M  V30 12091 H 1112.44 3.97382 -1.40233 0
M  V30 12092 H 1111.12 3.19956 -0.490929 0
M  V30 12093 H 1110.02 2.56788 -2.72049 0
M  V30 12094 H 1111.36 3.39282 -3.56579 0
M  V30 12095 N 1113.01 1.29761 0.894412 0
M  V30 12096 C 1113.94 1.1115 2.00445 0
M  V30 12097 C 1114.95 0.0574655 1.62699 0
M  V30 12098 O 1116.14 0.302528 1.75918 0
M  V30 12099 C 1113.24 0.670984 3.32191 0
M  V30 12100 C 1112.42 1.80471 3.98433 0
M  V30 12101 C 1111.48 1.35431 5.08473 0
M  V30 12102 O 1110.5 2.05994 5.30618 0
M  V30 12103 N 1111.7 0.22811 5.80052 0
M  V30 12104 H 1114.47 2.06753 2.16964 0
M  V30 12105 H 1112.03 1.21772 1.06692 0
M  V30 12106 H 1114.02 0.352877 4.03159 0
M  V30 12107 H 1112.59 -0.192735 3.12005 0
M  V30 12108 H 1111.81 2.29142 3.20761 0
M  V30 12109 H 1113.1 2.56471 4.39431 0
M  V30 12110 H 1112.5 -0.360076 5.64553 0
M  V30 12111 H 1111.05 -0.0305985 6.51793 0
M  V30 12112 N 1114.49 -1.10549 1.12324 0
M  V30 12113 C 1115.45 -2.15039 0.793156 0
M  V30 12114 C 1116.45 -1.59651 -0.19192 0
M  V30 12115 O 1117.64 -1.74167 0.0337262 0
M  V30 12116 C 1114.77 -3.40433 0.17842 0
M  V30 12117 H 1115.97 -2.4575 1.71892 0
M  V30 12118 H 1113.52 -1.25892 0.926333 0
M  V30 12119 H 1114.25 -3.15338 -0.757122 0
M  V30 12120 H 1114.04 -3.81921 0.887645 0
M  V30 12121 H 1115.53 -4.17584 -0.0360724 0
M  V30 12122 N 1115.97 -0.914965 -1.28321 0
M  V30 12123 C 1117.19 -0.564023 -1.99583 0
M  V30 12124 C 1117.62 0.847821 -1.6791 0
M  V30 12125 O 1116.97 1.56682 -0.912171 0
M  V30 12126 C 1117.02 -0.781368 -3.52033 0
M  V30 12127 O 1116.13 0.159072 -4.12093 0
M  V30 12128 H 1115.47 -0.218565 -0.626997 0
M  V30 12129 H 1118 -1.23074 -1.63444 0
M  V30 12130 H 1118.01 -0.691946 -4.0209 0
M  V30 12131 H 1116.68 -1.81059 -3.7442 0
M  V30 12132 H 1115.26 0.0208145 -3.72894 0
M  V30 12133 O 1117.48 1.39244 -0.818128 0
M  V30 12134 H 1118.17 1.89556 -0.398508 0
M  V30 END ATOM
M  V30 BEGIN BOND
M  V30 END BOND
M  V30 END CTAB
M  END
$$$$
