drugbank_target|Q96RR4 Calcium/calmodulin-dependent protein kinase kinase 2 (DB12010)
 OpenBabel12092121143D

  0  0  0     0  0            999 V3000
M  V30 BEGIN CTAB
M  V30 COUNTS 9063 9163 0 0 0
M  V30 BEGIN ATOM
M  V30 1 H -0.908 1.98254 -0.117106 0
M  V30 2 N 0 1.576 0 0
M  V30 3 C 0.933 2.03868 1.02534 0
M  V30 4 C 1.911 0.928543 1.3348 0
M  V30 5 O 3.095 1.19667 1.45644 0
M  V30 6 C 0.222 2.43627 2.35294 0
M  V30 7 C -0.732 3.65373 2.2001 0
M  V30 8 S 0.101 5.13292 1.52614 0
M  V30 9 C 1.257 5.56322 2.86805 0
M  V30 10 H 1.49 2.90518 0.631377 0
M  V30 11 H -0.977 1.52953 0.210867 0
M  V30 12 H 0.981 2.67203 3.11629 0
M  V30 13 H -0.358 1.57376 2.7183 0
M  V30 14 H -1.165 3.90944 3.18086 0
M  V30 15 H -1.563 3.418 1.51819 0
M  V30 16 H 0.729 5.58782 3.83104 0
M  V30 17 H 1.672 6.56266 2.65933 0
M  V30 18 H 2.08 4.83886 2.90714 0
M  V30 19 N 1.4781 -0.272755 1.55222 0
M  V30 20 C 2.7031 -1.02683 1.80197 0
M  V30 21 C 3.1281 -1.79142 0.573551 0
M  V30 22 O 2.4861 -1.74917 -0.476849 0
M  V30 23 C 2.5341 -1.9609 3.02624 0
M  V30 24 O 1.6381 -3.04863 2.77727 0
M  V30 25 H 0.9791 -0.293557 0.595584 0
M  V30 26 H 3.5091 -0.30159 2.02365 0
M  V30 27 H 3.5191 -2.38039 3.31363 0
M  V30 28 H 2.1941 -1.39851 3.91682 0
M  V30 29 H 0.7711 -2.67228 2.60084 0
M  V30 30 N 2.9562 -1.48159 -0.537278 0
M  V30 31 C 4.1812 -1.59707 -1.32319 0
M  V30 32 C 4.6062 -0.254859 -1.86365 0
M  V30 33 O 3.9642 0.772378 -1.64024 0
M  V30 34 C 4.0122 -2.6412 -2.45505 0
M  V30 35 O 3.1162 -2.20774 -3.48328 0
M  V30 36 H 2.4572 -0.535791 -0.392204 0
M  V30 37 H 4.9872 -1.94092 -0.647268 0
M  V30 38 H 4.9972 -2.85166 -2.91795 0
M  V30 39 H 3.6722 -3.61567 -2.05528 0
M  V30 40 H 2.2492 -2.09911 -3.08207 0
M  V30 41 N 4.4343 0.785586 -1.36625 0
M  V30 42 C 5.6743 1.55678 -1.32453 0
M  V30 43 C 6.0383 1.91769 0.0941089 0
M  V30 44 O 7.2393 2.67536 0.26042 0
M  V30 45 C 5.5103 2.79701 -2.22491 0
M  V30 46 S 7.0693 3.69907 -2.36038 0
M  V30 47 H 3.8873 0.533141 -0.470405 0
M  V30 48 H 6.4893 0.924953 -1.72235 0
M  V30 49 H 5.1933 2.51244 -3.24507 0
M  V30 50 H 4.7243 3.47854 -1.83742 0
M  V30 51 H 6.7393 4.71016 -1.56072 0
M  V30 52 N 5.9124 1.20967 1.01018 0
M  V30 53 C 7.1584 1.02526 1.74975 0
M  V30 54 C 7.4914 -0.4408 1.89131 0
M  V30 55 O 6.7664 -1.32718 1.42184 0
M  V30 56 C 7.0494 1.71699 3.1653 0
M  V30 57 C 6.9024 3.25791 3.10129 0
M  V30 58 C 8.2214 1.45531 4.15342 0
M  V30 59 H 5.3404 0.373863 0.635134 0
M  V30 60 H 7.9824 1.49071 1.17805 0
M  V30 61 H 6.1324 1.32128 3.65341 0
M  V30 62 H 7.8044 3.74697 2.69072 0
M  V30 63 H 6.0474 3.56363 2.47362 0
M  V30 64 H 6.7184 3.69353 4.10222 0
M  V30 65 H 9.1944 1.79872 3.75213 0
M  V30 66 H 8.0704 1.96453 5.1254 0
M  V30 67 H 8.3314 0.384237 4.40427 0
M  V30 68 N 7.3905 -1.2043 1.01659 0
M  V30 69 C 8.6155 -1.94318 0.724942 0
M  V30 70 C 9.0405 -1.74266 -0.708034 0
M  V30 71 O 8.3985 -1.03694 -1.48719 0
M  V30 72 C 8.4465 -3.44486 1.06591 0
M  V30 73 O 7.5505 -4.12017 0.177599 0
M  V30 74 H 6.8915 -0.60708 0.26898 0
M  V30 75 H 9.4215 -1.52861 1.35995 0
M  V30 76 H 9.4315 -3.95106 1.01762 0
M  V30 77 H 8.1065 -3.58404 2.10997 0
M  V30 78 H 6.6835 -3.71821 0.283421 0
M  V30 79 N 8.8686 -0.792821 -1.36206 0
M  V30 80 C 10.0936 -0.377701 -2.03932 0
M  V30 81 C 10.5186 0.998947 -1.59382 0
M  V30 82 O 9.8766 1.64421 -0.763903 0
M  V30 83 C 9.9246 -0.453635 -3.57735 0
M  V30 84 O 9.0286 0.538151 -4.08874 0
M  V30 85 H 8.3696 -0.159855 -0.644471 0
M  V30 86 H 10.8996 -1.07488 -1.7409 0
M  V30 87 H 10.9096 -0.318464 -4.06755 0
M  V30 88 H 9.5846 -1.45784 -3.89512 0
M  V30 89 H 8.1616 0.364359 -3.71116 0
M  V30 90 N 10.3467 1.47872 -0.545128 0
M  V30 91 C 11.2787 2.27869 0.246621 0
M  V30 92 C 12.2917 1.36282 0.890561 0
M  V30 93 O 13.4807 1.61207 0.766449 0
M  V30 94 C 10.5807 3.10159 1.36582 0
M  V30 95 C 9.7537 4.29627 0.820954 0
M  V30 96 C 8.8127 4.93607 1.82314 0
M  V30 97 O 7.8387 5.52366 1.37406 0
M  V30 98 N 9.0407 4.87211 3.15603 0
M  V30 99 H 11.8057 2.96459 -0.439539 0
M  V30 100 H 9.3667 1.57367 -0.380421 0
M  V30 101 H 11.3587 3.49829 2.03474 0
M  V30 102 H 9.9287 2.43891 1.9554 0
M  V30 103 H 9.1487 3.94192 -0.0244032 0
M  V30 104 H 10.4367 5.06928 0.436063 0
M  V30 105 H 9.8347 4.40651 3.54744 0
M  V30 106 H 8.3917 5.30937 3.78087 0
M  V30 107 N 11.8248 0.280983 1.55075 0
M  V30 108 C 13.2358 -0.215629 1.85451 0
M  V30 109 C 13.5868 -1.54991 1.203 0
M  V30 110 O 12.7118 -2.10699 0.493435 0
M  V30 111 C 13.3068 -0.398026 3.36454 0
M  V30 112 C 11.8658 -0.838866 3.66933 0
M  V30 113 C 11.0128 0.064458 2.77225 0
M  V30 114 H 13.9638 0.502601 1.50531 0
M  V30 115 H 13.9848 -1.23569 3.59876 0
M  V30 116 H 13.4968 0.573241 3.83843 0
M  V30 117 H 11.5978 -1.8214 3.25048 0
M  V30 118 H 11.7108 -0.672123 4.74362 0
M  V30 119 H 10.0748 -0.452863 2.50642 0
M  V30 120 H 10.8578 1.03172 3.2743 0
M  V30 121 N 13.3029 -1.57598 0.00835791 0
M  V30 122 C 14.5279 -1.95617 -0.689103 0
M  V30 123 C 14.9529 -0.883753 -1.66046 0
M  V30 124 O 14.3109 0.157352 -1.80616 0
M  V30 125 C 14.3589 -3.32736 -1.38994 0
M  V30 126 O 13.4629 -3.27631 -2.50463 0
M  V30 127 H 12.8039 -0.638379 -0.182668 0
M  V30 128 H 15.3339 -2.045 0.064036 0
M  V30 129 H 15.3439 -3.68494 -1.75147 0
M  V30 130 H 14.0189 -4.1034 -0.677778 0
M  V30 131 H 12.5959 -3.03561 -2.16576 0
M  V30 132 N 14.781 0.264519 -1.55364 0
M  V30 133 C 16.006 1.01726 -1.80739 0
M  V30 134 C 16.431 1.78836 -0.583044 0
M  V30 135 O 15.789 1.75167 0.467566 0
M  V30 136 C 15.837 1.94482 -3.03659 0
M  V30 137 O 14.941 3.03386 -2.7934 0
M  V30 138 H 14.282 0.290395 -0.597132 0
M  V30 139 H 16.812 0.290854 -2.02522 0
M  V30 140 H 16.822 2.36278 -3.32621 0
M  V30 141 H 15.497 1.37772 -3.92418 0
M  V30 142 H 14.074 2.65844 -2.61498 0
M  V30 143 N 16.2591 1.48442 0.529413 0
M  V30 144 C 17.2071 1.63452 1.65487 0
M  V30 145 C 18.2011 0.500955 1.61823 0
M  V30 146 O 19.4071 0.679695 1.66674 0
M  V30 147 H 15.7821 0.514905 0.548066 0
M  V30 148 H 17.7531 2.57975 1.49971 0
M  V30 149 C 16.5021 1.69196 3.03756 0
M  V30 150 H 15.8251 2.55784 3.07269 0
M  V30 151 H 17.2651 1.83743 3.82119 0
M  V30 152 C 15.7241 0.430765 3.34135 0
M  V30 153 O 16.2541 -0.4561 3.99102 0
M  V30 154 N 14.4601 0.302293 2.89023 0
M  V30 155 H 14.0071 1.02496 2.36331 0
M  V30 156 H 13.9651 -0.540546 3.09718 0
M  V30 157 N 17.7372 -0.778329 1.37039 0
M  V30 158 C 19.1532 -1.07796 1.17695 0
M  V30 159 C 19.3532 -2.01498 0.00860115 0
M  V30 160 O 18.4092 -2.43901 -0.653352 0
M  V30 161 C 19.7222 -1.68178 2.49272 0
M  V30 162 C 21.2702 -1.80467 2.55735 0
M  V30 163 C 21.7452 -2.44263 3.87427 0
M  V30 164 N 23.2362 -2.51721 3.88833 0
M  V30 165 C 23.9712 -3.01919 4.87476 0
M  V30 166 N 23.4672 -3.5234 5.96513 0
M  V30 167 N 25.2602 -3.00733 4.74885 0
M  V30 168 H 17.4112 -0.156032 2.11826 0
M  V30 169 H 19.6742 -0.131844 0.938787 0
M  V30 170 H 19.3802 -1.06796 3.35093 0
M  V30 171 H 19.2542 -2.67554 2.65885 0
M  V30 172 H 21.6412 -2.40984 1.70325 0
M  V30 173 H 21.7222 -0.798656 2.43013 0
M  V30 174 H 21.3662 -1.84388 4.73248 0
M  V30 175 H 21.2962 -3.45458 3.9745 0
M  V30 176 H 23.7872 -2.1603 3.10063 0
M  V30 177 H 24.1002 -3.89027 6.67741 0
M  V30 178 H 22.4452 -3.50462 6.00168 0
M  V30 179 H 25.6362 -2.60638 3.88826 0
M  V30 180 H 25.8092 -3.39545 5.51918 0
M  V30 181 N 19.2153 -1.21501 -1.00376 0
M  V30 182 C 20.1783 -0.976927 -2.07337 0
M  V30 183 C 21.1783 0.0525322 -1.60714 0
M  V30 184 O 22.3683 -0.184869 -1.73216 0
M  V30 185 C 19.5003 -0.473423 -3.37597 0
M  V30 186 H 20.6933 -1.92587 -2.29892 0
M  V30 187 H 18.2463 -1.03217 -1.17371 0
M  V30 188 H 18.9813 0.480379 -3.20722 0
M  V30 189 H 18.7663 -1.216 -3.72768 0
M  V30 190 H 20.2563 -0.32675 -4.1632 0
M  V30 191 N 20.6934 1.19889 -1.02296 0
M  V30 192 C 21.6564 2.21116 -0.603351 0
M  V30 193 C 22.6564 1.5738 0.329884 0
M  V30 194 O 23.8464 1.73802 0.117702 0
M  V30 195 C 20.9784 3.40696 0.117992 0
M  V30 196 H 22.1714 2.59754 -1.49893 0
M  V30 197 H 19.7244 1.33463 -0.813468 0
M  V30 198 H 20.4594 3.07569 1.0282 0
M  V30 199 H 20.2444 3.88188 -0.552511 0
M  V30 200 H 21.7344 4.15692 0.398696 0
M  V30 201 N 22.1715 0.800033 1.35784 0
M  V30 202 C 23.5825 0.439142 1.81462 0
M  V30 203 C 23.9335 -1.03813 1.66485 0
M  V30 204 O 23.0585 -1.80626 1.19177 0
M  V30 205 C 23.6535 0.790314 3.29453 0
M  V30 206 C 22.2125 0.482111 3.733 0
M  V30 207 C 21.3595 1.01938 2.57883 0
M  V30 208 H 24.3105 0.992254 1.23855 0
M  V30 209 H 24.3315 0.0853677 3.80404 0
M  V30 210 H 23.8435 1.86554 3.40322 0
M  V30 211 H 21.9445 -0.584652 3.67984 0
M  V30 212 H 22.0575 1.01015 4.6833 0
M  V30 213 H 20.4215 0.442043 2.50835 0
M  V30 214 H 21.2045 2.10059 2.71533 0
M  V30 215 N 23.6496 -1.47581 0.552962 0
M  V30 216 C 24.5816 -2.27997 -0.234533 0
M  V30 217 C 25.5946 -1.36753 -0.883321 0
M  V30 218 O 26.7836 -1.61612 -0.757889 0
M  V30 219 C 23.8836 -3.10879 -1.34935 0
M  V30 220 C 23.0566 -4.30056 -0.798158 0
M  V30 221 C 22.1156 -4.94567 -1.79694 0
M  V30 222 O 21.1416 -5.53087 -1.34474 0
M  V30 223 N 22.3436 -4.88878 -3.13015 0
M  V30 224 H 25.1086 -2.96222 0.455255 0
M  V30 225 H 22.6696 -1.57163 0.388761 0
M  V30 226 H 24.6616 -3.50903 -2.01616 0
M  V30 227 H 23.2316 -2.44924 -1.94244 0
M  V30 228 H 22.4516 -3.94174 0.0453079 0
M  V30 229 H 23.7396 -5.07152 -0.409173 0
M  V30 230 H 23.1376 -4.42526 -3.52402 0
M  V30 231 H 21.6946 -5.32934 -3.75266 0
M  V30 232 N 25.1277 -0.289203 -1.54924 0
M  V30 233 C 26.4047 0.376032 -1.91951 0
M  V30 234 C 26.7847 1.72622 -1.21511 0
M  V30 235 O 26.1327 2.25853 -0.346767 0
M  V30 236 C 26.3427 0.502378 -3.45365 0
M  V30 237 C 27.6907 0.778741 -4.17398 0
M  V30 238 O 28.7147 0.586647 -3.51336 0
M  V30 239 O 27.5737 1.14698 -5.34328 0
M  V30 240 H 24.6677 0.208167 -0.800372 0
M  V30 241 H 27.2137 -0.336394 -1.66332 0
M  V30 242 H 25.9857 -0.447255 -3.88736 0
M  V30 243 H 25.6087 1.26373 -3.76982 0
M  V30 244 N 26.6058 1.57591 -0.0167156 0
M  V30 245 C 27.5158 2.1291 0.98521 0
M  V30 246 C 28.5318 1.07834 1.36557 0
M  V30 247 O 29.7078 1.39826 1.44951 0
M  V30 248 C 26.7728 2.63512 2.25305 0
M  V30 249 C 25.8338 3.83256 1.93426 0
M  V30 250 C 25.0668 4.31435 3.14165 0
M  V30 251 O 25.2898 3.78851 4.26413 0
M  V30 252 O 24.2238 5.23416 2.97186 0
M  V30 253 H 28.0498 2.98772 0.544888 0
M  V30 254 H 25.6348 1.48012 0.203141 0
M  V30 255 H 27.5168 2.96183 2.99756 0
M  V30 256 H 26.1918 1.8074 2.68542 0
M  V30 257 H 25.0988 3.55531 1.16398 0
M  V30 258 H 26.4318 4.67153 1.55013 0
M  V30 259 N 28.0839 -0.256276 1.55502 0
M  V30 260 C 29.0139 -1.32102 1.92539 0
M  V30 261 C 29.9949 -1.50684 0.789194 0
M  V30 262 O 31.1799 -1.63449 1.04872 0
M  V30 263 C 28.3099 -2.67752 2.21192 0
M  V30 264 C 27.2639 -2.63878 3.36975 0
M  V30 265 C 26.5899 -4.03236 3.51147 0
M  V30 266 C 27.8899 -2.21682 4.72921 0
M  V30 267 H 29.5839 -1.01351 2.81724 0
M  V30 268 H 27.1299 -0.486105 1.35547 0
M  V30 269 H 29.0829 -3.42365 2.45691 0
M  V30 270 H 27.8069 -3.0012 1.28824 0
M  V30 271 H 26.4659 -1.91722 3.12471 0
M  V30 272 H 26.1139 -4.32854 2.56216 0
M  V30 273 H 25.8139 -4.01535 4.29003 0
M  V30 274 H 27.3379 -4.79563 3.77957 0
M  V30 275 H 28.7519 -2.86023 4.96854 0
M  V30 276 H 27.1489 -2.3111 5.53812 0
M  V30 277 H 28.2189 -1.16833 4.70615 0
M  V30 278 N 29.562 -1.4872 -0.521534 0
M  V30 279 C 30.81 -1.56857 -1.27437 0
M  V30 280 C 31.131 -0.247982 -1.93417 0
M  V30 281 O 30.401 0.731151 -1.81744 0
M  V30 282 H 28.981 -0.577885 -0.473347 0
M  V30 283 H 31.643 -1.85233 -0.606205 0
M  V30 284 H 30.739 -2.35402 -2.0492 0
M  V30 285 N 31.0401 0.771051 -1.3745 0
M  V30 286 C 32.2881 1.52661 -1.32435 0
M  V30 287 C 32.6091 1.9479 0.0905024 0
M  V30 288 O 31.8791 1.66348 1.03466 0
M  V30 289 H 30.4591 0.566218 -0.487244 0
M  V30 290 H 33.1211 0.917636 -1.71946 0
M  V30 291 H 32.2171 2.42568 -1.96385 0
M  V30 292 N 32.5182 1.22032 0.997298 0
M  V30 293 C 33.9342 0.979326 1.26021 0
M  V30 294 C 34.1342 -0.32972 1.98784 0
M  V30 295 O 33.1902 -1.05345 2.29475 0
M  V30 296 C 34.5032 2.17509 2.07631 0
M  V30 297 C 36.0512 2.21817 2.2083 0
M  V30 298 C 36.5262 3.40933 3.05825 0
M  V30 299 N 38.0172 3.41067 3.13412 0
M  V30 300 C 38.7522 4.29885 3.79455 0
M  V30 301 N 38.2482 5.28914 4.47462 0
M  V30 302 N 40.0412 4.17673 3.76173 0
M  V30 303 H 32.1922 2.06202 0.509352 0
M  V30 304 H 34.4552 0.90334 0.287541 0
M  V30 305 H 34.1612 3.12415 1.61524 0
M  V30 306 H 34.0352 2.17206 3.08385 0
M  V30 307 H 36.4222 1.27462 2.66153 0
M  V30 308 H 36.5032 2.2616 1.1952 0
M  V30 309 H 36.1472 4.35586 2.61203 0
M  V30 310 H 36.0772 3.33829 4.07266 0
M  V30 311 H 38.5682 2.69406 2.65007 0
M  V30 312 H 38.8812 5.92973 4.95583 0
M  V30 313 H 37.2262 5.32831 4.46224 0
M  V30 314 H 40.4172 3.39564 3.22202 0
M  V30 315 H 40.5902 4.87098 4.27363 0
M  V30 316 N 33.9963 -1.19345 1.0293 0
M  V30 317 C 35.2443 -1.88665 0.724574 0
M  V30 318 C 35.5653 -1.80036 -0.749144 0
M  V30 319 O 34.8353 -1.2111 -1.53978 0
M  V30 320 H 33.4153 -0.698406 0.265025 0
M  V30 321 H 36.0773 -1.44885 1.30362 0
M  V30 322 H 35.1733 -2.94987 1.01926 0
M  V30 323 N 35.4744 -0.807222 -1.35358 0
M  V30 324 C 36.6994 -0.399309 -2.0352 0
M  V30 325 C 37.1244 0.981986 -1.60433 0
M  V30 326 O 36.4824 1.63601 -0.781299 0
M  V30 327 C 36.5304 -0.491552 -3.57234 0
M  V30 328 O 35.6344 0.494754 -4.09421 0
M  V30 329 H 34.9754 -0.166682 -0.642739 0
M  V30 330 H 37.5054 -1.09328 -1.72941 0
M  V30 331 H 37.5154 -0.361588 -4.06395 0
M  V30 332 H 36.1904 -1.49907 -3.87944 0
M  V30 333 H 34.7674 0.324977 -3.71481 0
M  V30 334 N 36.9525 1.47285 -0.560781 0
M  V30 335 C 38.1775 2.07359 -0.0410566 0
M  V30 336 C 38.6025 1.41017 1.24483 0
M  V30 337 O 37.9605 0.486368 1.74654 0
M  V30 338 C 38.0085 3.6035 0.134123 0
M  V30 339 O 37.1125 3.94681 1.19587 0
M  V30 340 H 36.4535 0.661887 -0.0529291 0
M  V30 341 H 38.9835 1.89252 -0.777482 0
M  V30 342 H 38.9935 4.0652 0.347207 0
M  V30 343 H 37.6685 4.08034 -0.805047 0
M  V30 344 H 36.2455 3.60251 0.962987 0
M  V30 345 N 38.4306 0.297415 1.54768 0
M  V30 346 C 39.6556 -0.318435 2.04941 0
M  V30 347 C 40.0806 -1.4701 1.17345 0
M  V30 348 O 39.4386 -1.80436 0.176758 0
M  V30 349 C 39.4866 -0.755749 3.52592 0
M  V30 350 O 38.5906 -1.86088 3.68028 0
M  V30 351 H 37.9316 -0.062421 0.661059 0
M  V30 352 H 40.4616 0.438215 1.99852 0
M  V30 353 H 40.4716 -1.04552 3.94376 0
M  V30 354 H 39.1466 0.0867233 4.1581 0
M  V30 355 H 37.7236 -1.57193 3.38149 0
M  V30 356 N 39.9087 -1.5758 0.0250728 0
M  V30 357 C 41.1337 -1.96337 -0.668317 0
M  V30 358 C 41.5587 -0.901314 -1.651 0
M  V30 359 O 40.9167 0.138187 -1.80773 0
M  V30 360 C 40.9647 -3.34191 -1.35457 0
M  V30 361 O 40.0687 -3.30269 -2.46974 0
M  V30 362 H 39.4097 -0.640281 -0.175887 0
M  V30 363 H 41.9397 -2.0442 0.0857224 0
M  V30 364 H 41.9497 -3.70331 -1.71228 0
M  V30 365 H 40.6247 -4.11036 -0.634218 0
M  V30 366 H 39.2017 -3.05841 -2.13344 0
M  V30 367 N 41.3868 0.248026 -1.55636 0
M  V30 368 C 42.2968 1.32859 -1.93354 0
M  V30 369 C 43.3128 1.52719 -0.833838 0
M  V30 370 O 44.4888 1.66363 -1.13513 0
M  V30 371 C 41.5538 2.66337 -2.21958 0
M  V30 372 C 40.6148 2.55008 -3.45354 0
M  V30 373 C 39.8478 3.82121 -3.72584 0
M  V30 374 O 40.0708 4.83951 -3.01907 0
M  V30 375 O 39.0048 3.80822 -4.6611 0
M  V30 376 H 42.8308 1.03862 -2.85388 0
M  V30 377 H 40.4158 0.448686 -1.42503 0
M  V30 378 H 42.2978 3.45216 -2.4167 0
M  V30 379 H 40.9728 2.95068 -1.33103 0
M  V30 380 H 39.8798 1.7442 -3.30951 0
M  V30 381 H 41.2128 2.31222 -4.34508 0
M  V30 382 N 42.8649 1.48995 0.513639 0
M  V30 383 C 44.0899 1.61792 1.29762 0
M  V30 384 C 44.5149 0.284475 1.85936 0
M  V30 385 O 43.8729 -0.746185 1.65232 0
M  V30 386 C 43.9209 2.67993 2.41272 0
M  V30 387 O 43.0249 2.26287 3.44772 0
M  V30 388 H 42.3659 0.541963 0.38363 0
M  V30 389 H 44.8959 1.95097 0.616307 0
M  V30 390 H 44.9059 2.89772 2.87221 0
M  V30 391 H 43.5809 3.64791 1.9975 0
M  V30 392 H 42.1579 2.14788 3.04829 0
M  V30 393 N 44.343 -0.763751 1.37857 0
M  V30 394 C 45.275 -1.88664 1.30148 0
M  V30 395 C 46.288 -1.61365 0.215685 0
M  V30 396 O 47.477 -1.72134 0.472459 0
M  V30 397 C 44.577 -3.24075 0.991396 0
M  V30 398 C 43.75 -3.78958 2.18426 0
M  V30 399 C 42.809 -4.92862 1.8432 0
M  V30 400 O 41.835 -5.08027 2.56704 0
M  V30 401 N 43.037 -5.75071 0.792081 0
M  V30 402 H 45.802 -1.95791 2.26905 0
M  V30 403 H 43.363 -0.943226 1.31586 0
M  V30 404 H 45.355 -3.97804 0.743935 0
M  V30 405 H 43.925 -3.12399 0.112122 0
M  V30 406 H 43.145 -2.96913 2.59299 0
M  V30 407 H 44.433 -4.12357 2.98058 0
M  V30 408 H 43.831 -5.65375 0.191595 0
M  V30 409 H 42.388 -6.48991 0.60449 0
M  V30 410 N 45.8211 -1.22559 -0.990812 0
M  V30 411 C 46.7681 -0.997519 -2.0813 0
M  V30 412 C 47.7381 0.0814702 -1.659 0
M  V30 413 O 48.9231 -0.0685424 -1.90677 0
M  V30 414 C 46.0631 -0.583615 -3.40129 0
M  V30 415 C 45.1761 -1.7336 -3.9569 0
M  V30 416 C 44.3111 -1.26748 -5.15857 0
M  V30 417 C 43.3501 -2.38888 -5.63559 0
M  V30 418 N 42.4871 -1.93308 -6.74964 0
M  V30 419 H 47.3271 -1.93099 -2.26973 0
M  V30 420 H 44.8641 -0.962114 -1.11273 0
M  V30 421 H 46.8221 -0.324801 -4.15934 0
M  V30 422 H 45.4521 0.312845 -3.2128 0
M  V30 423 H 44.5041 -2.10669 -3.16738 0
M  V30 424 H 45.8161 -2.57704 -4.27071 0
M  V30 425 H 44.9701 -0.966173 -5.98957 0
M  V30 426 H 43.7091 -0.394272 -4.86104 0
M  V30 427 H 42.7141 -2.69805 -4.79046 0
M  V30 428 H 43.9391 -3.26728 -5.95336 0
M  V30 429 H 41.8851 -1.08352 -6.4699 0
M  V30 430 H 41.8021 -2.71217 -7.05675 0
M  V30 431 H 43.0701 -1.66252 -7.61564 0
M  V30 432 N 47.2992 1.18797 -1.03562 0
M  V30 433 C 48.7102 1.70322 -0.764676 0
M  V30 434 C 49.0612 1.82708 0.714996 0
M  V30 435 O 48.1862 1.50299 1.55689 0
M  V30 436 C 48.7812 3.09356 -1.38145 0
M  V30 437 C 47.3402 3.58114 -1.15895 0
M  V30 438 C 46.4872 2.34798 -1.4753 0
M  V30 439 H 49.4382 1.03543 -1.20268 0
M  V30 440 H 49.4592 3.72378 -0.781977 0
M  V30 441 H 48.9712 3.00309 -2.45837 0
M  V30 442 H 47.0722 3.72464 -0.100544 0
M  V30 443 H 47.1852 4.4184 -1.8524 0
M  V30 444 H 45.5492 2.38464 -0.894829 0
M  V30 445 H 46.3322 2.28375 -2.56319 0
M  V30 446 N 48.7773 0.814389 1.34928 0
M  V30 447 C 50.0173 0.404165 2.00364 0
M  V30 448 C 50.3813 -1.01166 1.63185 0
M  V30 449 O 51.5823 -1.52431 2.21401 0
M  V30 450 C 49.8533 0.590718 3.52484 0
M  V30 451 S 51.4123 0.272075 4.37956 0
M  V30 452 H 48.2303 0.15311 0.694319 0
M  V30 453 H 50.8323 1.05834 1.64376 0
M  V30 454 H 49.5363 1.62099 3.77031 0
M  V30 455 H 49.0673 -0.0785013 3.93322 0
M  V30 456 H 51.0823 -0.917405 4.87645 0
M  V30 457 N 50.2554 -1.46986 0.568584 0
M  V30 458 C 51.1654 -2.33942 -0.17555 0
M  V30 459 C 52.1814 -1.48891 -0.90041 0
M  V30 460 O 53.3574 -1.81794 -0.86676 0
M  V30 461 C 50.4224 -3.25811 -1.18524 0
M  V30 462 C 49.4834 -4.26757 -0.466582 0
M  V30 463 C 48.7164 -5.14236 -1.42817 0
M  V30 464 O 48.9394 -5.04379 -2.66379 0
M  V30 465 O 47.8734 -5.94412 -0.946453 0
M  V30 466 H 51.6994 -2.98896 0.538036 0
M  V30 467 H 49.2844 -1.4573 0.329097 0
M  V30 468 H 51.1664 -3.82527 -1.76779 0
M  V30 469 H 49.8414 -2.63471 -1.88055 0
M  V30 470 H 48.7484 -3.73769 0.157451 0
M  V30 471 H 50.0814 -4.91843 0.187485 0
M  V30 472 N 51.7335 -0.305618 -1.54608 0
M  V30 473 C 52.6965 0.555591 -2.22364 0
M  V30 474 C 53.6965 1.05768 -1.21119 0
M  V30 475 O 54.8865 0.952972 -1.45822 0
M  V30 476 C 52.0185 1.76974 -2.91364 0
M  V30 477 H 53.2115 -0.0364572 -2.99878 0
M  V30 478 H 50.7645 -0.0565007 -1.56198 0
M  V30 479 H 51.4995 2.40151 -2.17941 0
M  V30 480 H 51.2845 1.41732 -3.65588 0
M  V30 481 H 52.7745 2.38148 -3.43038 0
M  V30 482 N 53.2116 1.57565 -0.0334293 0
M  V30 483 C 54.1416 2.13511 0.945265 0
M  V30 484 C 55.1226 1.05231 1.33643 0
M  V30 485 O 56.3076 1.33084 1.41429 0
M  V30 486 C 53.4376 2.6657 2.22616 0
M  V30 487 C 52.3916 3.79676 1.97561 0
M  V30 488 C 51.7176 4.1918 3.31952 0
M  V30 489 C 53.0176 5.0557 1.31135 0
M  V30 490 H 54.7116 2.95538 0.479325 0
M  V30 491 H 52.2576 1.42166 0.229115 0
M  V30 492 H 54.2106 3.04344 2.91466 0
M  V30 493 H 52.9346 1.8171 2.71384 0
M  V30 494 H 51.5936 3.42347 1.31127 0
M  V30 495 H 51.2416 3.31296 3.78487 0
M  V30 496 H 50.9416 4.95402 3.15992 0
M  V30 497 H 52.4656 4.59541 4.02063 0
M  V30 498 H 53.8796 5.40903 1.89992 0
M  V30 499 H 52.2766 5.86818 1.25559 0
M  V30 500 H 53.3466 4.84062 0.284894 0
M  V30 501 N 54.6897 -0.239769 1.55765 0
M  V30 502 C 56.1057 -0.588624 1.48349 0
M  V30 503 C 56.3057 -1.88005 0.72502 0
M  V30 504 O 55.3617 -2.51186 0.257269 0
M  V30 505 C 56.6747 -0.68474 2.928 0
M  V30 506 C 58.2227 -0.77659 3.03213 0
M  V30 507 C 58.6977 -0.904207 4.48986 0
M  V30 508 N 60.1887 -0.968896 4.52953 0
M  V30 509 C 60.9237 -1.08703 5.63002 0
M  V30 510 N 60.4197 -1.17026 6.82845 0
M  V30 511 N 62.2127 -1.12074 5.50814 0
M  V30 512 H 54.3637 0.607911 2.03515 0
M  V30 513 H 56.6267 0.21083 0.924259 0
M  V30 514 H 56.3327 0.194284 3.51163 0
M  V30 515 H 56.2067 -1.55435 3.43686 0
M  V30 516 H 58.5937 -1.64606 2.44926 0
M  V30 517 H 58.6747 0.118315 2.55526 0
M  V30 518 H 58.3187 -0.0392633 5.07885 0
M  V30 519 H 58.2487 -1.81426 4.9436 0
M  V30 520 H 60.7397 -0.915633 3.6664 0
M  V30 521 H 61.0527 -1.25966 7.62465 0
M  V30 522 H 59.3977 -1.13971 6.85591 0
M  V30 523 H 62.5887 -1.05226 4.5612 0
M  V30 524 H 62.7617 -1.20936 6.36615 0
M  V30 525 N 56.1678 -1.49265 -0.50573 0
M  V30 526 C 57.4158 -1.582 -1.25766 0
M  V30 527 C 57.7368 -0.268482 -1.93143 0
M  V30 528 O 57.0068 0.711833 -1.8251 0
M  V30 529 H 55.5868 -0.582873 -0.467191 0
M  V30 530 H 58.2488 -1.85865 -0.586525 0
M  V30 531 H 57.3448 -2.37563 -2.02412 0
M  V30 532 N 57.6459 0.756429 -1.3826 0
M  V30 533 C 58.5759 1.88374 -1.37976 0
M  V30 534 C 59.5569 1.68311 -0.246082 0
M  V30 535 O 60.7419 1.88944 -0.44874 0
M  V30 536 C 57.8719 3.25864 -1.20125 0
M  V30 537 C 56.8259 3.60523 -2.30666 0
M  V30 538 C 56.1519 4.9672 -1.97923 0
M  V30 539 C 57.4519 3.65692 -3.72916 0
M  V30 540 H 59.1459 1.88869 -2.32312 0
M  V30 541 H 56.6919 0.907272 -1.11824 0
M  V30 542 H 58.6449 4.0438 -1.18552 0
M  V30 543 H 57.3689 3.25841 -0.222498 0
M  V30 544 H 56.0279 2.84324 -2.3142 0
M  V30 545 H 55.6759 4.93253 -0.985393 0
M  V30 546 H 55.3759 5.20878 -2.71955 0
M  V30 547 H 56.8999 5.77618 -1.97964 0
M  V30 548 H 58.3139 4.34328 -3.74208 0
M  V30 549 H 56.7109 4.01358 -4.4613 0
M  V30 550 H 57.7809 2.65987 -4.05436 0
M  V30 551 N 59.124 1.23083 0.984299 0
M  V30 552 C 60.349 1.088 1.76571 0
M  V30 553 C 60.774 -0.356657 1.84688 0
M  V30 554 O 60.132 -1.25788 1.30565 0
M  V30 555 C 60.18 1.71371 3.17277 0
M  V30 556 O 59.284 0.973213 4.00752 0
M  V30 557 H 58.625 0.381599 0.543395 0
M  V30 558 H 61.155 1.63057 1.23587 0
M  V30 559 H 61.165 1.76449 3.67872 0
M  V30 560 H 59.84 2.76493 3.10684 0
M  V30 561 H 58.417 0.999078 3.59267 0
M  V30 562 N 60.6021 -1.18246 1.0419 0
M  V30 563 C 61.8271 -1.92736 0.765996 0
M  V30 564 C 62.2521 -1.75728 -0.67091 0
M  V30 565 O 61.6101 -1.06825 -1.46486 0
M  V30 566 C 61.6581 -3.42148 1.13875 0
M  V30 567 O 60.7621 -4.11548 0.264954 0
M  V30 568 H 60.1031 -0.601238 0.281797 0
M  V30 569 H 62.6331 -1.49942 1.39207 0
M  V30 570 H 62.6431 -3.92858 1.1012 0
M  V30 571 H 61.3181 -3.53848 2.18551 0
M  V30 572 H 59.8951 -3.71137 0.362226 0
M  V30 573 N 62.0802 -0.821533 -1.34494 0
M  V30 574 C 63.0102 -0.257138 -2.3208 0
M  V30 575 C 63.9912 0.625645 -1.58176 0
M  V30 576 O 65.1762 0.552811 -1.86166 0
M  V30 577 C 62.3062 0.582958 -3.42372 0
M  V30 578 C 61.2602 -0.202571 -4.2752 0
M  V30 579 C 60.5862 0.760179 -5.29269 0
M  V30 580 C 61.8862 -1.40998 -5.02908 0
M  V30 581 H 63.5802 -1.07247 -2.79532 0
M  V30 582 H 61.1262 -0.517163 -1.34393 0
M  V30 583 H 63.0792 0.987972 -4.09655 0
M  V30 584 H 61.8032 1.43133 -2.93565 0
M  V30 585 H 60.4622 -0.588936 -3.61838 0
M  V30 586 H 60.1102 1.60447 -4.76724 0
M  V30 587 H 59.8102 0.238809 -5.87115 0
M  V30 588 H 61.3342 1.16308 -5.9942 0
M  V30 589 H 62.7482 -1.07905 -5.63054 0
M  V30 590 H 61.1452 -1.86689 -5.70322 0
M  V30 591 H 62.2152 -2.1889 -4.32684 0
M  V30 592 N 63.5583 1.46682 -0.576371 0
M  V30 593 C 64.7833 2.07304 -0.0630475 0
M  V30 594 C 65.2083 1.42329 1.2298 0
M  V30 595 O 64.5663 0.504865 1.74129 0
M  V30 596 C 64.6143 3.60472 0.095895 0
M  V30 597 O 63.7183 3.95927 1.15394 0
M  V30 598 H 63.0593 0.661288 -0.0599463 0
M  V30 599 H 65.5893 1.88417 -0.797511 0
M  V30 600 H 65.5993 4.06865 0.304071 0
M  V30 601 H 64.2743 4.07157 -0.84828 0
M  V30 602 H 62.8513 3.61252 0.924724 0
M  V30 603 N 65.0364 0.313813 1.54444 0
M  V30 604 C 66.2854 -0.292519 1.99568 0
M  V30 605 C 66.5984 -1.54011 1.20582 0
M  V30 606 O 67.8044 -2.22183 1.56035 0
M  V30 607 C 66.2604 -0.571752 3.55329 0
M  V30 608 C 65.8684 0.658229 4.43138 0
M  V30 609 C 67.6124 -1.13857 4.08946 0
M  V30 610 C 65.5194 0.351439 5.90355 0
M  V30 611 H 64.4494 -0.113079 0.745472 0
M  V30 612 H 67.1004 0.424518 1.78522 0
M  V30 613 H 65.4824 -1.34872 3.72325 0
M  V30 614 H 66.6564 1.43403 4.37918 0
M  V30 615 H 64.9714 1.14458 4.0036 0
M  V30 616 H 67.5684 -1.38257 5.16516 0
M  V30 617 H 67.9114 -2.08489 3.6033 0
M  V30 618 H 68.4444 -0.423015 3.95544 0
M  V30 619 H 65.1834 1.26667 6.43145 0
M  V30 620 H 64.7034 -0.386842 5.98551 0
M  V30 621 H 66.3824 -0.0423134 6.46986 0
M  V30 622 N 66.5145 -1.57545 0.0417849 0
M  V30 623 C 67.4645 -2.07483 -0.945247 0
M  V30 624 C 68.4485 -0.977983 -1.27767 0
M  V30 625 O 69.6405 -1.24142 -1.26166 0
M  V30 626 C 66.7695 -2.61576 -2.22335 0
M  V30 627 C 65.8555 -3.78213 -1.91874 0
M  V30 628 N 66.2465 -4.88344 -1.31733 0
M  V30 629 C 64.5445 -3.8694 -2.21796 0
M  V30 630 C 65.2455 -5.69462 -1.1869 0
M  V30 631 N 64.2215 -5.16771 -1.68666 0
M  V30 632 H 68.0235 -2.90029 -0.475441 0
M  V30 633 H 65.5375 -1.61581 -0.162911 0
M  V30 634 H 67.5345 -2.95651 -2.93932 0
M  V30 635 H 66.1945 -1.80465 -2.69931 0
M  V30 636 H 67.2055 -5.08335 -0.990729 0
M  V30 637 H 63.8825 -3.16757 -2.71977 0
M  V30 638 H 65.2725 -6.68023 -0.720793 0
M  V30 639 N 67.9926 0.231505 -1.5589 0
M  V30 640 C 68.9226 1.29022 -1.94617 0
M  V30 641 C 69.9036 1.4941 -0.813067 0
M  V30 642 O 71.0886 1.6176 -1.07459 0
M  V30 643 C 68.2186 2.64199 -2.25424 0
M  V30 644 C 67.1726 2.58484 -3.41131 0
M  V30 645 C 66.4986 3.97599 -3.57518 0
M  V30 646 C 67.7986 2.1413 -4.76388 0
M  V30 647 H 69.4926 0.968563 -2.83301 0
M  V30 648 H 67.0386 0.464479 -1.36303 0
M  V30 649 H 68.9916 3.38413 -2.51107 0
M  V30 650 H 67.7156 2.98032 -1.33583 0
M  V30 651 H 66.3746 1.86727 -3.15481 0
M  V30 652 H 66.0226 4.28723 -2.6307 0
M  V30 653 H 65.7226 3.94659 -4.35337 0
M  V30 654 H 67.2466 4.7349 -3.85538 0
M  V30 655 H 68.6606 2.78083 -5.01341 0
M  V30 656 H 67.0576 2.2227 -5.57419 0
M  V30 657 H 68.1276 1.09331 -4.72414 0
M  V30 658 N 69.4707 1.49531 0.497807 0
M  V30 659 C 70.7187 1.58865 1.24926 0
M  V30 660 C 71.0397 0.278721 1.92998 0
M  V30 661 O 70.3097 -0.702144 1.82885 0
M  V30 662 H 68.8897 0.585343 0.464094 0
M  V30 663 H 71.5517 1.86174 0.57666 0
M  V30 664 H 70.6477 2.38633 2.01149 0
M  V30 665 N 70.9488 -0.749086 1.3866 0
M  V30 666 C 71.8818 -1.87111 1.30631 0
M  V30 667 C 72.8598 -1.61572 0.18251 0
M  V30 668 O 74.0438 -1.85019 0.360592 0
M  V30 669 C 71.1708 -3.22815 1.02511 0
M  V30 670 C 70.2168 -3.67234 2.1689 0
M  V30 671 S 71.0498 -3.78245 3.79066 0
M  V30 672 C 72.2058 -5.16761 3.53142 0
M  V30 673 H 72.4388 -1.93636 2.25594 0
M  V30 674 H 69.9718 -0.912525 1.24549 0
M  V30 675 H 71.9298 -4.01181 0.869701 0
M  V30 676 H 70.5908 -3.13964 0.0925884 0
M  V30 677 H 69.7838 -4.65677 1.92771 0
M  V30 678 H 69.3858 -2.96034 2.28561 0
M  V30 679 H 71.6778 -6.02656 3.09534 0
M  V30 680 H 72.6208 -5.45902 4.50995 0
M  V30 681 H 73.0288 -4.85771 2.87554 0
M  V30 682 N 72.4269 -1.23603 -0.977757 0
M  V30 683 C 73.3369 -1.03632 -2.1047 0
M  V30 684 C 74.3529 0.0199435 -1.73989 0
M  V30 685 O 75.5289 -0.176076 -2.00629 0
M  V30 686 C 72.5939 -0.63276 -3.40877 0
M  V30 687 C 71.6549 -1.76437 -3.91367 0
M  V30 688 C 70.8879 -1.37997 -5.15551 0
M  V30 689 O 71.1109 -0.265357 -5.69782 0
M  V30 690 O 70.0449 -2.20201 -5.60174 0
M  V30 691 H 73.8709 -1.98086 -2.30208 0
M  V30 692 H 71.4559 -1.02332 -1.08851 0
M  V30 693 H 73.3379 -0.418761 -4.19314 0
M  V30 694 H 72.0129 0.282754 -3.22463 0
M  V30 695 H 70.9199 -2.03304 -3.14036 0
M  V30 696 H 72.2529 -2.6583 -4.14241 0
M  V30 697 N 73.905 1.17692 -1.04816 0
M  V30 698 C 75.13 1.92327 -0.776207 0
M  V30 699 C 75.555 1.76082 0.661581 0
M  V30 700 O 74.913 1.076 1.45917 0
M  V30 701 C 74.961 3.41539 -1.15687 0
M  V30 702 O 74.065 4.11402 -0.286775 0
M  V30 703 H 73.406 0.599735 -0.284981 0
M  V30 704 H 75.936 1.49201 -1.4 0
M  V30 705 H 75.946 3.92269 -1.12202 0
M  V30 706 H 74.621 3.52684 -2.20425 0
M  V30 707 H 73.198 3.70939 -0.381903 0
M  V30 708 N 75.3831 0.828654 1.34056 0
M  V30 709 C 76.6301 0.419458 1.98108 0
M  V30 710 C 76.9581 -1.01886 1.65679 0
M  V30 711 O 76.2131 -1.72539 0.923512 0
M  V30 712 C 76.5121 0.575226 3.52741 0
M  V30 713 C 76.1781 1.98012 4.05095 0
M  V30 714 C 74.8401 2.36442 4.19104 0
M  V30 715 C 77.1921 2.89824 4.33188 0
M  V30 716 C 74.5201 3.66009 4.58535 0
M  V30 717 C 76.8721 4.1886 4.74066 0
M  V30 718 C 75.5361 4.5726 4.86281 0
M  V30 719 H 74.8061 0.153491 0.724929 0
M  V30 720 H 77.4531 1.05371 1.59904 0
M  V30 721 H 75.7581 -0.142385 3.91541 0
M  V30 722 H 77.4551 0.239057 4.00287 0
M  V30 723 H 74.0451 1.67162 3.94658 0
M  V30 724 H 78.2291 2.61375 4.21897 0
M  V30 725 H 73.4851 3.95579 4.66184 0
M  V30 726 H 77.6591 4.90086 4.94761 0
M  V30 727 H 75.2861 5.57707 5.16592 0
M  V30 728 N 76.8612 -1.46375 0.584142 0
M  V30 729 C 78.1102 -2.01585 0.0679741 0
M  V30 730 C 78.4232 -1.46109 -1.30045 0
M  V30 731 O 79.6292 -1.93148 -1.90804 0
M  V30 732 C 78.0852 -3.5983 0.0709207 0
M  V30 733 C 77.6932 -4.24303 1.43775 0
M  V30 734 C 79.4372 -4.22693 -0.391228 0
M  V30 735 C 77.3442 -5.74631 1.39834 0
M  V30 736 H 76.2742 -0.753689 0.0216421 0
M  V30 737 H 78.9252 -1.68093 0.736001 0
M  V30 738 H 77.3072 -3.90405 -0.663299 0
M  V30 739 H 78.4812 -4.05335 2.19181 0
M  V30 740 H 76.7962 -3.73539 1.84004 0
M  V30 741 H 79.3932 -5.3289 -0.439524 0
M  V30 742 H 79.7362 -3.91728 -1.40906 0
M  V30 743 H 80.2692 -3.96749 0.288974 0
M  V30 744 H 77.0082 -6.10258 2.39303 0
M  V30 745 H 76.5282 -5.95858 0.686505 0
M  V30 746 H 78.2072 -6.37375 1.11187 0
M  V30 747 N 78.3393 -0.321999 -1.54275 0
M  V30 748 C 79.5853 0.281461 -2.00837 0
M  V30 749 C 79.9183 1.51909 -1.20985 0
M  V30 750 O 79.1933 1.923 -0.291733 0
M  V30 751 C 79.4763 0.617162 -3.54772 0
M  V30 752 C 79.3293 -0.631064 -4.45351 0
M  V30 753 C 80.6483 1.43542 -4.16033 0
M  V30 754 H 77.7673 0.100826 -0.730071 0
M  V30 755 H 80.4093 -0.438268 -1.84876 0
M  V30 756 H 78.5593 1.23034 -3.68504 0
M  V30 757 H 80.2313 -1.26934 -4.43492 0
M  V30 758 H 78.4743 -1.26025 -4.15091 0
M  V30 759 H 79.1453 -0.351735 -5.50878 0
M  V30 760 H 81.6213 0.917134 -4.05867 0
M  V30 761 H 80.4973 1.63907 -5.23856 0
M  V30 762 H 80.7583 2.43108 -3.69257 0
M  V30 763 N 79.8174 1.5752 -0.0501392 0
M  V30 764 C 81.0634 1.92936 0.624798 0
M  V30 765 C 81.3964 0.928685 1.70555 0
M  V30 766 O 80.6714 -0.0454779 1.94447 0
M  V30 767 C 80.9544 3.38737 1.22185 0
M  V30 768 C 80.8074 4.49552 0.149218 0
M  V30 769 C 82.1264 3.84913 2.13378 0
M  V30 770 H 79.2454 0.701604 0.225657 0
M  V30 771 H 81.8874 1.89671 -0.111693 0
M  V30 772 H 80.0374 3.4165 1.84953 0
M  V30 773 H 81.7094 4.58768 -0.482648 0
M  V30 774 H 79.9524 4.30638 -0.522841 0
M  V30 775 H 80.6234 5.48653 0.606966 0
M  V30 776 H 83.0994 3.8387 1.60572 0
M  V30 777 H 81.9754 4.87584 2.52097 0
M  V30 778 H 82.2364 3.21611 3.03346 0
M  V30 779 N 81.2955 -0.223234 1.56011 0
M  V30 780 C 82.5235 -0.964812 1.83027 0
M  V30 781 C 82.9385 -1.78013 0.62904 0
M  V30 782 O 82.2955 -1.78008 -0.402414 0
M  V30 783 C 82.3465 -1.88373 3.08542 0
M  V30 784 O 82.0675 -1.10137 4.2403 0
M  V30 785 C 83.5685 -2.73934 3.48533 0
M  V30 786 H 80.7885 -0.282842 0.608475 0
M  V30 787 H 83.3325 -0.238971 2.03099 0
M  V30 788 H 81.4875 -2.56354 2.9045 0
M  V30 789 H 81.9015 -1.72501 4.95322 0
M  V30 790 H 83.3755 -3.34117 4.39397 0
M  V30 791 H 83.8525 -3.46244 2.70207 0
M  V30 792 H 84.4585 -2.11369 3.69057 0
M  V30 793 N 82.7736 -1.49793 -0.48987 0
M  V30 794 C 83.6836 -1.70036 -1.61632 0
M  V30 795 C 84.6996 -0.583102 -1.63939 0
M  V30 796 O 85.8756 -0.859169 -1.82154 0
M  V30 797 C 82.9406 -1.77277 -2.97949 0
M  V30 798 C 82.0016 -3.00918 -3.06181 0
M  V30 799 C 81.2346 -3.07804 -4.35996 0
M  V30 800 O 81.4576 -2.21982 -5.25433 0
M  V30 801 O 80.3916 -4.00369 -4.49431 0
M  V30 802 H 84.2176 -2.65486 -1.47482 0
M  V30 803 H 81.8026 -1.33666 -0.667362 0
M  V30 804 H 83.6846 -1.84329 -3.78947 0
M  V30 805 H 82.3596 -0.850076 -3.12339 0
M  V30 806 H 81.2666 -2.99377 -2.2433 0
M  V30 807 H 82.5996 -3.92704 -2.96723 0
M  V30 808 N 84.2517 0.741722 -1.39055 0
M  V30 809 C 85.4917 1.51385 -1.37338 0
M  V30 810 C 85.8557 1.91972 0.0330513 0
M  V30 811 O 87.0567 2.68229 0.175174 0
M  V30 812 C 85.3277 2.72481 -2.31276 0
M  V30 813 S 86.8867 3.62211 -2.47687 0
M  V30 814 H 83.7047 0.517906 -0.487129 0
M  V30 815 H 86.3067 0.86969 -1.7509 0
M  V30 816 H 85.0107 2.40793 -3.32336 0
M  V30 817 H 84.5417 3.41832 -1.94716 0
M  V30 818 H 86.5567 4.65812 -1.70978 0
M  V30 819 N 85.7298 1.2412 0.971189 0
M  V30 820 C 86.6398 1.04747 2.09917 0
M  V30 821 C 87.6558 -0.0107162 1.73997 0
M  V30 822 O 88.8318 0.186714 2.00533 0
M  V30 823 C 85.8968 0.650828 3.40537 0
M  V30 824 C 84.9578 1.7851 3.90426 0
M  V30 825 C 84.1908 1.40729 5.14812 0
M  V30 826 O 84.4138 0.29557 5.69634 0
M  V30 827 O 83.3478 2.23168 5.58999 0
M  V30 828 H 87.1738 1.99304 2.29154 0
M  V30 829 H 84.7588 1.02908 1.08307 0
M  V30 830 H 86.6408 0.440992 4.19086 0
M  V30 831 H 85.3158 -0.265649 3.22608 0
M  V30 832 H 84.2228 2.04966 3.12953 0
M  V30 833 H 85.5558 2.68023 4.12825 0
M  V30 834 N 87.2079 -1.17134 1.05439 0
M  V30 835 C 88.6189 -1.69084 0.791676 0
M  V30 836 C 88.9699 -1.83822 -0.685839 0
M  V30 837 O 88.0949 -1.52757 -1.53278 0
M  V30 838 C 88.6899 -3.07119 1.4305 0
M  V30 839 C 87.2489 -3.56225 1.21577 0
M  V30 840 C 86.3959 -2.32421 1.51247 0
M  V30 841 H 89.3469 -1.01617 1.219 0
M  V30 842 H 89.3679 -3.71087 0.84112 0
M  V30 843 H 88.8799 -2.9636 2.50584 0
M  V30 844 H 86.9809 -3.72257 0.159787 0
M  V30 845 H 87.0939 -4.38837 1.92246 0
M  V30 846 H 85.4579 -2.3701 0.932653 0
M  V30 847 H 86.2409 -2.24268 2.5992 0
M  V30 848 N 88.686 -0.835752 -1.33615 0
M  V30 849 C 89.934 -0.429109 -1.97492 0
M  V30 850 C 90.255 1.01433 -1.66543 0
M  V30 851 O 89.525 1.70611 -0.962744 0
M  V30 852 H 88.105 -0.155686 -0.730596 0
M  V30 853 H 90.767 -1.06802 -1.63031 0
M  V30 854 H 89.863 -0.55861 -3.0706 0
M  V30 855 N 90.1641 1.46063 -0.591896 0
M  V30 856 C 91.4041 2.04228 -0.0838014 0
M  V30 857 C 91.7681 1.45231 1.25587 0
M  V30 858 O 92.9691 1.94653 1.85375 0
M  V30 859 C 91.2401 3.57389 -0.0286282 0
M  V30 860 S 92.7991 4.3678 0.420557 0
M  V30 861 H 89.6171 0.709762 -0.0419319 0
M  V30 862 H 92.2191 1.78983 -0.786465 0
M  V30 863 H 90.9231 3.97843 -1.00743 0
M  V30 864 H 90.4541 3.87185 0.69652 0
M  V30 865 H 92.4691 4.67131 1.67341 0
M  V30 866 N 91.6422 0.330177 1.54103 0
M  V30 867 C 92.6052 -0.520144 2.2322 0
M  V30 868 C 93.6052 -1.03828 1.22786 0
M  V30 869 O 94.7952 -0.929652 1.4732 0
M  V30 870 C 91.9272 -1.72317 2.94142 0
M  V30 871 H 93.1202 0.0841605 2.99782 0
M  V30 872 H 90.6732 0.0813433 1.56088 0
M  V30 873 H 91.4082 -2.36653 2.21734 0
M  V30 874 H 91.1932 -1.35898 3.67796 0
M  V30 875 H 92.6832 -2.3266 3.46784 0
M  V30 876 N 93.1203 -1.57491 0.0584922 0
M  V30 877 C 94.3663 -1.93264 -0.614558 0
M  V30 878 C 94.6993 -0.937717 -1.7006 0
M  V30 879 O 93.9743 0.0351652 -1.94468 0
M  V30 880 C 94.2573 -3.3938 -1.20386 0
M  V30 881 C 94.1103 -4.49625 -0.125375 0
M  V30 882 C 95.4293 -3.86039 -2.11334 0
M  V30 883 H 92.5483 -0.702791 -0.221933 0
M  V30 884 H 95.1903 -1.8961 0.12175 0
M  V30 885 H 93.3403 -3.42626 -1.83139 0
M  V30 886 H 95.0123 -4.58506 0.506971 0
M  V30 887 H 93.2553 -4.30354 0.545672 0
M  V30 888 H 93.9263 -5.48967 -0.577861 0
M  V30 889 H 96.4023 -3.84716 -1.58534 0
M  V30 890 H 95.2783 -4.88914 -2.49507 0
M  V30 891 H 95.5393 -3.23215 -3.01636 0
M  V30 892 N 94.5984 0.214957 -1.56127 0
M  V30 893 C 95.8754 0.963093 -1.70247 0
M  V30 894 C 96.2554 2.02166 -0.60764 0
M  V30 895 O 95.6034 2.25244 0.384385 0
M  V30 896 C 95.8134 1.56756 -3.11815 0
M  V30 897 C 97.1614 2.0573 -3.7143 0
M  V30 898 O 98.1854 1.66637 -3.14818 0
M  V30 899 O 97.0444 2.77603 -4.70743 0
M  V30 900 H 94.1384 0.450321 -0.693643 0
M  V30 901 H 96.6844 0.206219 -1.68442 0
M  V30 902 H 95.4564 0.803533 -3.82961 0
M  V30 903 H 95.0794 2.3898 -3.17765 0
M  V30 904 N 96.0765 1.50051 0.48192 0
M  V30 905 C 97.0065 1.71046 1.58951 0
M  V30 906 C 97.9875 0.559288 1.60642 0
M  V30 907 O 99.1725 0.797243 1.77081 0
M  V30 908 C 96.3025 1.79462 2.97339 0
M  V30 909 C 95.2565 2.94558 3.10515 0
M  V30 910 C 94.5825 2.88105 4.50444 0
M  V30 911 C 95.8825 4.35227 2.88747 0
M  V30 912 H 97.5765 2.6378 1.41635 0
M  V30 913 H 95.1225 1.26936 0.679942 0
M  V30 914 H 97.0755 1.92734 3.74742 0
M  V30 915 H 95.7995 0.833412 3.15788 0
M  V30 916 H 94.4585 2.80918 2.35543 0
M  V30 917 H 94.1065 1.89853 4.65795 0
M  V30 918 H 93.8065 3.65366 4.60197 0
M  V30 919 H 95.3305 3.03412 5.29881 0
M  V30 920 H 96.7445 4.49449 3.55905 0
M  V30 921 H 95.1415 5.13856 3.09955 0
M  V30 922 H 96.2115 4.48347 1.84696 0
M  V30 923 N 97.5546 -0.734337 1.39446 0
M  V30 924 C 98.8026 -1.49096 1.36436 0
M  V30 925 C 99.1236 -1.94961 -0.0388255 0
M  V30 926 O 98.3936 -1.69033 -0.990191 0
M  V30 927 H 96.9736 -0.5531 0.502085 0
M  V30 928 H 99.6356 -0.871725 1.74319 0
M  V30 929 H 98.7316 -2.37276 2.02747 0
M  V30 930 N 99.0327 -1.24633 -0.964593 0
M  V30 931 C 99.9627 -1.06611 -2.07741 0
M  V30 932 C 100.944 0.0218666 -1.70086 0
M  V30 933 O 102.129 -0.145793 -1.93652 0
M  V30 934 C 99.2587 -0.673444 -3.40708 0
M  V30 935 C 98.2127 -1.71054 -3.92332 0
M  V30 936 C 97.5387 -1.17285 -5.21678 0
M  V30 937 C 98.8387 -3.10718 -4.19824 0
M  V30 938 H 100.533 -1.99693 -2.23076 0
M  V30 939 H 98.0787 -0.96152 -1.07195 0
M  V30 940 H 100.032 -0.534345 -4.17998 0
M  V30 941 H 98.7557 0.293073 -3.25282 0
M  V30 942 H 97.4147 -1.83791 -3.17201 0
M  V30 943 H 97.0627 -0.196847 -5.02615 0
M  V30 944 H 96.7627 -1.86592 -5.57187 0
M  V30 945 H 98.2867 -1.04593 -6.01575 0
M  V30 946 H 99.7007 -3.01192 -4.87808 0
M  V30 947 H 98.0977 -3.77406 -4.66567 0
M  V30 948 H 99.1677 -3.58524 -3.26479 0
M  V30 949 N 100.511 1.16574 -1.06058 0
M  V30 950 C 101.474 2.19085 -0.673392 0
M  V30 951 C 102.474 1.5835 0.279648 0
M  V30 952 O 103.664 1.74088 0.0623488 0
M  V30 953 C 100.796 3.40899 0.00954234 0
M  V30 954 H 101.989 2.54853 -1.58081 0
M  V30 955 H 99.5418 1.30808 -0.855516 0
M  V30 956 H 100.277 3.10684 0.929826 0
M  V30 957 H 100.062 3.86233 -0.67573 0
M  V30 958 H 101.552 4.1675 0.266245 0
M  V30 959 N 101.989 0.842826 1.3317 0
M  V30 960 C 103.405 0.531128 1.50503 0
M  V30 961 C 103.605 -0.940734 1.78192 0
M  V30 962 O 102.661 -1.72436 1.84451 0
M  V30 963 C 103.974 1.40789 2.65705 0
M  V30 964 C 105.522 1.40708 2.79589 0
M  V30 965 C 105.997 2.26878 3.97857 0
M  V30 966 N 107.488 2.24609 4.05099 0
M  V30 967 C 108.223 2.88019 4.95815 0
M  V30 968 N 107.719 3.60496 5.9162 0
M  V30 969 N 109.512 2.77469 4.88843 0
M  V30 970 H 101.663 1.79557 1.1346 0
M  V30 971 H 103.926 0.766267 0.558156 0
M  V30 972 H 103.632 2.454 2.51936 0
M  V30 973 H 103.506 1.08677 3.61205 0
M  V30 974 H 105.893 0.368668 2.92788 0
M  V30 975 H 105.974 1.76829 1.84838 0
M  V30 976 H 105.618 3.3078 3.85418 0
M  V30 977 H 105.548 1.88096 4.91861 0
M  V30 978 H 108.039 1.71906 3.36536 0
M  V30 979 H 108.352 4.06076 6.57512 0
M  V30 980 H 106.697 3.64604 5.91683 0
M  V30 981 H 109.888 2.20406 4.12963 0
M  V30 982 H 110.061 3.2717 5.59342 0
M  V30 983 N 103.467 -1.45747 0.599634 0
M  V30 984 C 104.744 -1.95585 0.0240846 0
M  V30 985 C 105.124 -1.54217 -1.44154 0
M  V30 986 O 104.472 -0.800903 -2.14004 0
M  V30 987 C 104.682 -3.48344 0.21385 0
M  V30 988 C 106.03 -4.24504 0.0904902 0
M  V30 989 O 107.054 -3.55911 0.143558 0
M  V30 990 O 105.913 -5.46491 -0.0310766 0
M  V30 991 H 103.007 -0.82602 -0.0402478 0
M  V30 992 H 105.553 -1.55951 0.669139 0
M  V30 993 H 104.325 -3.71397 1.23206 0
M  V30 994 H 103.948 -3.9485 -0.466842 0
M  V30 995 N 104.945 -0.338344 -1.53925 0
M  V30 996 C 106.361 0.0137736 -1.59594 0
M  V30 997 C 106.561 1.49186 -1.35447 0
M  V30 998 O 105.617 2.24987 -1.14616 0
M  V30 999 C 106.93 -0.41773 -2.97784 0
M  V30 1000 C 108.478 -0.369633 -3.1081 0
M  V30 1001 C 108.953 -0.776524 -4.51369 0
M  V30 1002 N 110.444 -0.730506 -4.57403 0
M  V30 1003 C 111.179 -1.01736 -5.64303 0
M  V30 1004 N 110.675 -1.3721 -6.79077 0
M  V30 1005 N 112.468 -0.941942 -5.54151 0
M  V30 1006 H 104.619 -1.3012 -1.67876 0
M  V30 1007 H 106.882 -0.530082 -0.78595 0
M  V30 1008 H 106.588 -1.44811 -3.20504 0
M  V30 1009 H 106.462 0.209729 -3.76616 0
M  V30 1010 H 108.849 0.651568 -2.87817 0
M  V30 1011 H 108.93 -1.03223 -2.34049 0
M  V30 1012 H 108.574 -1.79571 -4.75096 0
M  V30 1013 H 108.504 -0.0914649 -5.26521 0
M  V30 1014 H 110.995 -0.468783 -3.74981 0
M  V30 1015 H 111.308 -1.57597 -7.5656 0
M  V30 1016 H 109.653 -1.4105 -6.80536 0
M  V30 1017 H 112.844 -0.664184 -4.63364 0
M  V30 1018 H 113.017 -1.16884 -6.37371 0
M  V30 1019 N 106.423 1.57458 -0.0668435 0
M  V30 1020 C 107.834 1.80776 0.466558 0
M  V30 1021 C 108.185 0.980361 1.69951 0
M  V30 1022 O 107.31 0.201441 2.1546 0
M  V30 1023 C 107.905 3.27881 0.85321 0
M  V30 1024 C 106.464 3.52062 1.3315 0
M  V30 1025 C 105.611 2.75513 0.314264 0
M  V30 1026 H 108.562 1.5598 -0.292588 0
M  V30 1027 H 108.583 3.39659 1.715 0
M  V30 1028 H 108.095 3.88075 -0.0443439 0
M  V30 1029 H 106.196 2.97167 2.24772 0
M  V30 1030 H 106.309 4.60762 1.31285 0
M  V30 1031 H 104.673 2.42123 0.790492 0
M  V30 1032 H 105.456 3.38442 -0.575477 0
M  V30 1033 N 107.901 -0.206675 1.56239 0
M  V30 1034 C 108.831 -1.25909 1.96645 0
M  V30 1035 C 109.812 -1.48097 0.836734 0
M  V30 1036 O 110.997 -1.6003 1.10019 0
M  V30 1037 C 108.127 -2.6058 2.29599 0
M  V30 1038 C 107.081 -2.53024 3.452 0
M  V30 1039 C 106.407 -3.91861 3.63798 0
M  V30 1040 C 107.707 -2.06524 4.79734 0
M  V30 1041 H 109.401 -0.923369 2.84806 0
M  V30 1042 H 106.947 -0.442735 1.37025 0
M  V30 1043 H 108.9 -3.34375 2.56459 0
M  V30 1044 H 107.624 -2.95869 1.38307 0
M  V30 1045 H 106.283 -1.81684 3.18412 0
M  V30 1046 H 105.931 -4.24483 2.69857 0
M  V30 1047 H 105.631 -3.87683 4.4156 0
M  V30 1048 H 107.155 -4.67296 3.93022 0
M  V30 1049 H 108.569 -2.70072 5.05702 0
M  V30 1050 H 106.966 -2.13374 5.60885 0
M  V30 1051 H 108.036 -1.01802 4.74093 0
M  V30 1052 N 109.379 -1.50304 -0.473955 0
M  V30 1053 C 110.289 -1.7174 -1.5982 0
M  V30 1054 C 111.305 -0.600457 -1.63311 0
M  V30 1055 O 112.481 -0.878441 -1.81233 0
M  V30 1056 C 109.546 -1.80427 -2.96052 0
M  V30 1057 C 108.607 -3.04148 -3.02972 0
M  V30 1058 C 107.84 -3.12411 -4.32706 0
M  V30 1059 O 108.063 -2.27542 -5.23049 0
M  V30 1060 O 106.997 -4.05113 -4.45159 0
M  V30 1061 H 110.823 -2.67035 -1.44657 0
M  V30 1062 H 108.408 -1.34366 -0.653148 0
M  V30 1063 H 110.29 -1.88338 -3.7697 0
M  V30 1064 H 108.965 -0.883156 -3.11419 0
M  V30 1065 H 107.872 -3.0174 -2.21142 0
M  V30 1066 H 109.205 -3.95829 -2.92541 0
M  V30 1067 N 110.857 0.726932 -1.39834 0
M  V30 1068 C 111.82 1.82269 -1.38962 0
M  V30 1069 C 112.82 1.58248 -0.285334 0
M  V30 1070 O 114.01 1.65499 -0.54366 0
M  V30 1071 C 111.142 3.20186 -1.17019 0
M  V30 1072 H 112.335 1.84443 -2.36476 0
M  V30 1073 H 109.888 0.931416 -1.25516 0
M  V30 1074 H 110.623 3.23669 -0.202204 0
M  V30 1075 H 110.408 3.3902 -1.96998 0
M  V30 1076 H 111.898 4.00235 -1.1917 0
M  V30 1077 N 112.336 1.25143 0.95797 0
M  V30 1078 C 113.613 1.00472 1.67823 0
M  V30 1079 C 113.993 -0.470056 2.058 0
M  V30 1080 O 113.341 -1.44663 1.76875 0
M  V30 1081 C 113.551 1.9372 2.90299 0
M  V30 1082 C 114.899 2.21371 3.62326 0
M  V30 1083 O 115.923 1.91451 3.00375 0
M  V30 1084 O 114.782 2.72231 4.7387 0
M  V30 1085 H 111.876 0.380752 0.734137 0
M  V30 1086 H 114.422 1.36283 1.01119 0
M  V30 1087 H 113.194 2.93316 2.59001 0
M  V30 1088 H 112.817 1.58286 3.64735 0
M  V30 1089 N 113.814 -1.1601 1.06675 0
M  V30 1090 C 115.062 -1.86264 0.784229 0
M  V30 1091 C 115.383 -1.82328 -0.691488 0
M  V30 1092 O 114.653 -1.25947 -1.50047 0
M  V30 1093 H 113.233 -0.689621 0.28711 0
M  V30 1094 H 115.895 -1.40664 1.34906 0
M  V30 1095 H 114.991 -2.91595 1.11259 0
M  V30 1096 N 115.292 -0.849877 -1.32721 0
M  V30 1097 C 116.224 -0.248332 -2.27851 0
M  V30 1098 C 117.237 0.577218 -1.52224 0
M  V30 1099 O 118.426 0.402489 -1.73903 0
M  V30 1100 C 115.526 0.668107 -3.32249 0
M  V30 1101 C 114.699 -0.120534 -4.37234 0
M  V30 1102 C 113.758 0.720932 -5.21238 0
M  V30 1103 O 112.784 0.156166 -5.68986 0
M  V30 1104 N 113.986 2.03647 -5.43607 0
M  V30 1105 H 116.751 -1.06575 -2.80111 0
M  V30 1106 H 114.312 -0.709395 -1.45531 0
M  V30 1107 H 116.304 1.23627 -3.85355 0
M  V30 1108 H 114.874 1.38621 -2.80184 0
M  V30 1109 H 114.094 -0.870108 -3.84477 0
M  V30 1110 H 115.382 -0.662406 -5.0447 0
M  V30 1111 H 114.78 2.51871 -5.06535 0
M  V30 1112 H 113.337 2.55287 -5.99727 0
M  V30 1113 N 116.77 1.45427 -0.607355 0
M  V30 1114 C 117.68 2.34325 0.113463 0
M  V30 1115 C 118.696 1.51226 0.860617 0
M  V30 1116 O 119.872 1.84029 0.818255 0
M  V30 1117 C 116.937 3.28839 1.09844 0
M  V30 1118 C 115.998 4.27844 0.353271 0
M  V30 1119 C 115.231 5.17842 1.29133 0
M  V30 1120 O 115.454 5.11264 2.52913 0
M  V30 1121 O 114.388 5.96713 0.788523 0
M  V30 1122 H 118.214 2.97364 -0.617094 0
M  V30 1123 H 115.799 1.44807 -0.367619 0
M  V30 1124 H 117.681 3.8708 1.66575 0
M  V30 1125 H 116.356 2.68365 1.81003 0
M  V30 1126 H 115.263 3.7322 -0.256494 0
M  V30 1127 H 116.596 4.91173 -0.317822 0
M  V30 1128 N 118.248 0.346503 1.53744 0
M  V30 1129 C 119.494 -0.249473 2.0126 0
M  V30 1130 C 119.827 -1.49965 1.23386 0
M  V30 1131 O 119.102 -1.91811 0.32229 0
M  V30 1132 C 119.385 -0.560643 3.55709 0
M  V30 1133 C 119.238 0.701836 4.44291 0
M  V30 1134 C 120.557 -1.36905 4.18264 0
M  V30 1135 H 117.676 -0.0891987 0.731582 0
M  V30 1136 H 120.318 0.467624 1.84156 0
M  V30 1137 H 118.468 -1.17156 3.70414 0
M  V30 1138 H 120.14 1.33974 4.41417 0
M  V30 1139 H 118.383 1.32612 4.13033 0
M  V30 1140 H 119.054 0.43933 5.50249 0
M  V30 1141 H 121.53 -0.852448 4.07275 0
M  V30 1142 H 120.406 -1.55553 5.26398 0
M  V30 1143 H 120.667 -2.37203 3.73078 0
M  V30 1144 N 119.726 -1.57421 0.075193 0
M  V30 1145 C 121.137 -1.81021 -0.456964 0
M  V30 1146 C 121.488 -0.98936 -1.69429 0
M  V30 1147 O 120.613 -0.212865 -2.15351 0
M  V30 1148 C 121.208 -3.28329 -0.83581 0
M  V30 1149 C 119.767 -3.52764 -1.31281 0
M  V30 1150 C 118.914 -2.75676 -0.299648 0
M  V30 1151 H 121.865 -1.55822 0.300856 0
M  V30 1152 H 121.886 -3.40564 -1.69696 0
M  V30 1153 H 121.398 -3.88046 0.0649238 0
M  V30 1154 H 119.499 -2.98355 -2.23193 0
M  V30 1155 H 119.612 -4.61451 -1.28839 0
M  V30 1156 H 117.976 -2.42538 -0.777641 0
M  V30 1157 H 118.759 -3.38132 0.593417 0
M  V30 1158 N 121.204 0.198386 -1.56346 0
M  V30 1159 C 122.134 1.24865 -1.9731 0
M  V30 1160 C 123.115 1.47651 -0.844576 0
M  V30 1161 O 124.3 1.59444 -1.10866 0
M  V30 1162 C 121.43 2.59358 -2.30977 0
M  V30 1163 C 120.384 2.5119 -3.46537 0
M  V30 1164 C 119.71 3.89926 -3.65871 0
M  V30 1165 C 121.01 2.03977 -4.80823 0
M  V30 1166 H 122.704 0.908252 -2.85291 0
M  V30 1167 H 120.25 0.435462 -1.37258 0
M  V30 1168 H 122.203 3.33011 -2.58228 0
M  V30 1169 H 120.927 2.95132 -1.39874 0
M  V30 1170 H 119.586 1.79993 -3.19371 0
M  V30 1171 H 119.234 4.23046 -2.72105 0
M  V30 1172 H 118.934 3.85336 -4.4361 0
M  V30 1173 H 120.458 4.65205 -3.95495 0
M  V30 1174 H 121.872 2.67386 -5.07127 0
M  V30 1175 H 120.269 2.10397 -5.62008 0
M  V30 1176 H 121.339 0.992861 -4.74626 0
M  V30 1177 N 122.682 1.50554 0.465978 0
M  V30 1178 C 123.959 1.5232 1.22712 0
M  V30 1179 C 124.339 0.270807 2.09356 0
M  V30 1180 O 123.687 -0.745541 2.15995 0
M  V30 1181 C 123.897 2.82175 2.05374 0
M  V30 1182 C 125.245 3.33033 2.6339 0
M  V30 1183 O 126.269 2.83531 2.15612 0
M  V30 1184 O 125.128 4.19336 3.50456 0
M  V30 1185 H 122.222 0.611183 0.557122 0
M  V30 1186 H 124.768 1.62847 0.477381 0
M  V30 1187 H 123.54 3.64797 1.41558 0
M  V30 1188 H 123.163 2.74675 2.87471 0
M  V30 1189 N 124.16 -0.719506 1.40217 0
M  V30 1190 C 125.388 -1.50864 1.41589 0
M  V30 1191 C 125.803 -1.88794 0.0145275 0
M  V30 1192 O 125.16 -1.55174 -0.960594 0
M  V30 1193 C 125.211 -2.78646 2.30302 0
M  V30 1194 O 124.932 -2.42321 3.64983 0
M  V30 1195 C 126.433 -3.72569 2.40224 0
M  V30 1196 H 123.653 -0.465709 0.48307 0
M  V30 1197 H 126.197 -0.88785 1.84221 0
M  V30 1198 H 124.352 -3.37019 1.91042 0
M  V30 1199 H 124.766 -3.24514 4.12057 0
M  V30 1200 H 126.24 -4.5908 3.06512 0
M  V30 1201 H 126.717 -4.15403 1.42608 0
M  V30 1202 H 127.323 -3.20109 2.80019 0
M  V30 1203 N 125.638 -1.25649 -0.95132 0
M  V30 1204 C 126.863 -1.13443 -1.73624 0
M  V30 1205 C 127.288 0.307565 -1.85568 0
M  V30 1206 O 126.646 1.22282 -1.33854 0
M  V30 1207 C 126.694 -1.79723 -3.12621 0
M  V30 1208 O 125.798 -1.07912 -3.98031 0
M  V30 1209 H 125.139 -0.395872 -0.533086 0
M  V30 1210 H 127.669 -1.66276 -1.1922 0
M  V30 1211 H 127.679 -1.86141 -3.63064 0
M  V30 1212 H 126.354 -2.84633 -3.03244 0
M  V30 1213 H 124.931 -1.09398 -3.56492 0
M  V30 1214 N 127.117 1.15442 -1.07289 0
M  V30 1215 C 128.365 1.85845 -0.794096 0
M  V30 1216 C 128.686 1.82692 0.681809 0
M  V30 1217 O 127.956 1.26741 1.49377 0
M  V30 1218 H 126.536 0.688089 -0.290763 0
M  V30 1219 H 129.198 1.39947 -1.3565 0
M  V30 1220 H 128.294 2.91001 -1.12804 0
M  V30 1221 N 128.595 0.856903 1.32268 0
M  V30 1222 C 129.82 0.474569 2.01897 0
M  V30 1223 C 130.245 -0.921766 1.63967 0
M  V30 1224 O 129.603 -1.60589 0.84148 0
M  V30 1225 C 129.651 0.623799 3.55164 0
M  V30 1226 O 128.755 -0.342459 4.10976 0
M  V30 1227 H 128.096 0.190422 0.63611 0
M  V30 1228 H 130.626 1.15672 1.68764 0
M  V30 1229 H 130.636 0.512169 4.04773 0
M  V30 1230 H 129.311 1.64202 3.82113 0
M  V30 1231 H 127.888 -0.18688 3.72431 0
M  V30 1232 N 130.073 -1.45103 0.615059 0
M  V30 1233 C 131.005 -2.28786 -0.13762 0
M  V30 1234 C 132.018 -1.40376 -0.824525 0
M  V30 1235 O 133.207 -1.64681 -0.688662 0
M  V30 1236 C 130.307 -3.16322 -1.21628 0
M  V30 1237 C 129.48 -4.33054 -0.615039 0
M  V30 1238 C 128.539 -5.01743 -1.58556 0
M  V30 1239 O 127.565 -5.58293 -1.10895 0
M  V30 1240 N 128.767 -5.01714 -2.91998 0
M  V30 1241 H 131.532 -2.94025 0.580483 0
M  V30 1242 H 129.093 -1.55373 0.45507 0
M  V30 1243 H 131.085 -3.59139 -1.86552 0
M  V30 1244 H 129.655 -2.52943 -1.83681 0
M  V30 1245 H 128.875 -3.93627 0.21245 0
M  V30 1246 H 130.163 -5.08431 -0.193704 0
M  V30 1247 H 129.561 -4.57075 -3.33316 0
M  V30 1248 H 128.118 -5.48371 -3.52325 0
M  V30 1249 N 131.551 -0.354651 -1.53558 0
M  V30 1250 C 132.514 0.484566 -2.24019 0
M  V30 1251 C 133.514 1.01861 -1.24422 0
M  V30 1252 O 134.704 0.906097 -1.4878 0
M  V30 1253 C 131.836 1.67615 -2.96847 0
M  V30 1254 H 133.029 -0.131843 -2.9961 0
M  V30 1255 H 130.582 -0.106165 -1.55939 0
M  V30 1256 H 131.317 2.33095 -2.25471 0
M  V30 1257 H 131.102 1.30029 -3.69912 0
M  V30 1258 H 132.592 2.27114 -3.50441 0
M  V30 1259 N 133.029 1.57378 -0.0835403 0
M  V30 1260 C 134.445 1.57246 0.273109 0
M  V30 1261 C 134.645 1.09385 1.69225 0
M  V30 1262 O 133.701 0.765051 2.40631 0
M  V30 1263 C 135.014 3.00614 0.0720628 0
M  V30 1264 C 136.562 3.12684 0.1407 0
M  V30 1265 C 137.037 4.57989 -0.0322094 0
M  V30 1266 N 138.528 4.63194 0.0230085 0
M  V30 1267 C 139.263 5.73335 -0.0861941 0
M  V30 1268 N 138.759 6.9235 -0.24958 0
M  V30 1269 N 140.552 5.62093 -0.0282886 0
M  V30 1270 H 132.703 1.86801 -1.0109 0
M  V30 1271 H 134.966 0.861687 -0.395222 0
M  V30 1272 H 134.672 3.39786 -0.907662 0
M  V30 1273 H 134.546 3.68193 0.81936 0
M  V30 1274 H 136.933 2.73391 1.11092 0
M  V30 1275 H 137.014 2.47719 -0.637896 0
M  V30 1276 H 136.658 4.97973 -0.999247 0
M  V30 1277 H 136.588 5.21 0.765937 0
M  V30 1278 H 139.079 3.77613 0.14722 0
M  V30 1279 H 139.392 7.72117 -0.324733 0
M  V30 1280 H 137.737 6.94415 -0.285097 0
M  V30 1281 H 140.928 4.67997 0.0981408 0
M  V30 1282 H 141.101 6.47895 -0.116845 0
M  V30 1283 N 134.507 -0.190092 1.56449 0
M  V30 1284 C 135.918 -0.754312 1.70784 0
M  V30 1285 C 136.269 -1.83631 0.690951 0
M  V30 1286 O 135.394 -2.15868 -0.151604 0
M  V30 1287 C 135.989 -1.37503 3.09642 0
M  V30 1288 C 134.548 -1.88628 3.25725 0
M  V30 1289 C 133.695 -0.758098 2.66736 0
M  V30 1290 H 136.646 0.0350524 1.58661 0
M  V30 1291 H 136.667 -2.2445 3.0725 0
M  V30 1292 H 136.179 -0.587302 3.83631 0
M  V30 1293 H 134.28 -2.70103 2.56661 0
M  V30 1294 H 134.393 -2.04462 4.3328 0
M  V30 1295 H 132.757 -1.17369 2.26046 0
M  V30 1296 H 133.54 0.0174705 3.43296 0
M  V30 1297 N 135.985 -1.50799 -0.457987 0
M  V30 1298 C 136.935 -1.67003 -1.55222 0
M  V30 1299 C 137.919 -0.52434 -1.52117 0
M  V30 1300 O 139.111 -0.779345 -1.58919 0
M  V30 1301 C 136.24 -1.77956 -2.93576 0
M  V30 1302 C 135.326 -2.98243 -3.01516 0
M  V30 1303 N 135.717 -4.21732 -2.79241 0
M  V30 1304 C 134.015 -2.97072 -3.32662 0
M  V30 1305 C 134.716 -5.02817 -2.92489 0
M  V30 1306 N 133.692 -4.37038 -3.23262 0
M  V30 1307 H 137.494 -2.60163 -1.36721 0
M  V30 1308 H 135.008 -1.48163 -0.664952 0
M  V30 1309 H 137.005 -1.87671 -3.72271 0
M  V30 1310 H 135.665 -0.859634 -3.13114 0
M  V30 1311 H 136.676 -4.51016 -2.54567 0
M  V30 1312 H 133.353 -2.14631 -3.58106 0
M  V30 1313 H 134.743 -6.11054 -2.79396 0
M  V30 1314 N 137.463 0.71206 -1.40597 0
M  V30 1315 C 138.393 1.83889 -1.43899 0
M  V30 1316 C 139.374 1.67442 -0.299504 0
M  V30 1317 O 140.559 1.87421 -0.508624 0
M  V30 1318 C 137.689 3.21877 -1.30431 0
M  V30 1319 C 136.643 3.53002 -2.42019 0
M  V30 1320 C 135.969 4.90172 -2.13626 0
M  V30 1321 C 137.269 3.53643 -3.84362 0
M  V30 1322 H 138.963 1.81383 -2.38203 0
M  V30 1323 H 136.509 0.871237 -1.14654 0
M  V30 1324 H 138.462 4.00404 -1.31357 0
M  V30 1325 H 137.186 3.24968 -0.326049 0
M  V30 1326 H 135.845 2.76818 -2.40349 0
M  V30 1327 H 135.493 4.89869 -1.14182 0
M  V30 1328 H 135.193 5.11962 -2.88389 0
M  V30 1329 H 136.717 5.71028 -2.1624 0
M  V30 1330 H 138.131 4.22203 -3.87837 0
M  V30 1331 H 136.528 3.86961 -4.58673 0
M  V30 1332 H 137.598 2.52954 -4.13693 0
M  V30 1333 N 138.941 1.26152 0.944643 0
M  V30 1334 C 140.166 1.14363 1.7302 0
M  V30 1335 C 140.591 -0.29772 1.85729 0
M  V30 1336 O 139.949 -1.2157 1.34501 0
M  V30 1337 C 139.997 1.81378 3.11664 0
M  V30 1338 O 139.101 1.10022 3.97453 0
M  V30 1339 H 138.442 0.398694 0.53098 0
M  V30 1340 H 140.972 1.66906 1.18337 0
M  V30 1341 H 140.982 1.88064 3.62072 0
M  V30 1342 H 139.657 2.86237 3.0173 0
M  V30 1343 H 138.234 1.11287 3.55907 0
M  V30 1344 N 140.419 -1.14872 1.07899 0
M  V30 1345 C 141.667 -1.85422 0.803941 0
M  V30 1346 C 141.988 -1.83051 -0.67211 0
M  V30 1347 O 141.258 -1.27532 -1.48703 0
M  V30 1348 H 139.838 -0.686537 0.294408 0
M  V30 1349 H 142.5 -1.39226 1.3639 0
M  V30 1350 H 141.596 -2.90399 1.14346 0
M  V30 1351 N 141.898 -0.863906 -1.31812 0
M  V30 1352 C 143.314 -0.555004 -1.49639 0
M  V30 1353 C 143.514 0.912266 -1.79666 0
M  V30 1354 O 142.57 1.69479 -1.87171 0
M  V30 1355 C 143.883 -1.44998 -2.63431 0
M  V30 1356 C 145.431 -1.45138 -2.77316 0
M  V30 1357 C 145.906 -2.33179 -3.94197 0
M  V30 1358 N 147.397 -2.31025 -4.01474 0
M  V30 1359 C 148.132 -2.95871 -4.9117 0
M  V30 1360 N 147.628 -3.69863 -5.8581 0
M  V30 1361 N 149.421 -2.85211 -4.84367 0
M  V30 1362 H 141.572 -1.81339 -1.10589 0
M  V30 1363 H 143.835 -0.77505 -0.545895 0
M  V30 1364 H 143.541 -2.49377 -2.48 0
M  V30 1365 H 143.415 -1.14409 -3.59431 0
M  V30 1366 H 145.802 -0.415201 -2.92164 0
M  V30 1367 H 145.883 -1.79747 -1.82001 0
M  V30 1368 H 145.527 -3.3687 -3.80107 0
M  V30 1369 H 145.457 -1.95897 -4.88807 0
M  V30 1370 H 147.948 -1.77238 -3.33759 0
M  V30 1371 H 148.261 -4.16486 -6.50968 0
M  V30 1372 H 146.606 -3.73971 -5.85808 0
M  V30 1373 H 149.797 -2.26948 -4.09405 0
M  V30 1374 H 149.97 -3.36027 -5.54066 0
M  V30 1375 N 143.376 1.44774 -0.622745 0
M  V30 1376 C 144.323 2.30635 0.0871679 0
M  V30 1377 C 145.293 1.42994 0.845097 0
M  V30 1378 O 146.478 1.71907 0.827812 0
M  V30 1379 C 143.618 3.28144 1.06844 0
M  V30 1380 C 142.731 4.30888 0.309809 0
M  V30 1381 C 141.866 5.15494 1.28215 0
M  V30 1382 C 140.905 6.09953 0.512198 0
M  V30 1383 N 140.042 6.87287 1.43458 0
M  V30 1384 H 144.882 2.90803 -0.650974 0
M  V30 1385 H 142.419 1.43286 -0.33281 0
M  V30 1386 H 144.377 3.83157 1.65066 0
M  V30 1387 H 143.007 2.69695 1.77382 0
M  V30 1388 H 142.059 3.78414 -0.388181 0
M  V30 1389 H 143.371 4.97955 -0.290254 0
M  V30 1390 H 142.525 5.74983 1.93596 0
M  V30 1391 H 141.264 4.48481 1.91614 0
M  V30 1392 H 140.269 5.49581 -0.155151 0
M  V30 1393 H 141.494 6.78999 -0.116958 0
M  V30 1394 H 139.44 6.2295 2.05594 0
M  V30 1395 H 139.357 7.50763 0.888335 0
M  V30 1396 H 140.625 7.51306 2.07749 0
M  V30 1397 N 144.854 0.36279 1.53368 0
M  V30 1398 C 145.784 -0.476976 2.28576 0
M  V30 1399 C 146.765 -1.08631 1.30894 0
M  V30 1400 O 147.95 -1.10409 1.59761 0
M  V30 1401 C 145.08 -1.61828 3.07293 0
M  V30 1402 C 144.034 -1.13633 4.1264 0
M  V30 1403 C 143.36 -2.36766 4.79423 0
M  V30 1404 C 144.66 -0.223061 5.21823 0
M  V30 1405 H 146.354 0.150474 2.99022 0
M  V30 1406 H 143.9 0.0738103 1.43811 0
M  V30 1407 H 145.853 -2.21237 3.58653 0
M  V30 1408 H 144.577 -2.27292 2.34533 0
M  V30 1409 H 143.236 -0.564945 3.62221 0
M  V30 1410 H 142.884 -3.0068 4.03238 0
M  V30 1411 H 142.584 -2.05192 5.50609 0
M  V30 1412 H 144.108 -2.96865 5.33576 0
M  V30 1413 H 145.522 -0.724545 5.68703 0
M  V30 1414 H 143.919 0.001678 6.001 0
M  V30 1415 H 144.989 0.735553 4.79289 0
M  V30 1416 N 146.332 -1.57332 0.0918853 0
M  V30 1417 C 147.557 -1.98995 -0.584442 0
M  V30 1418 C 147.982 -0.970528 -1.61128 0
M  V30 1419 O 147.34 0.0613904 -1.81196 0
M  V30 1420 C 147.388 -3.39636 -1.21161 0
M  V30 1421 O 146.492 -3.40447 -2.32744 0
M  V30 1422 H 145.833 -0.647165 -0.148572 0
M  V30 1423 H 148.363 -2.03873 0.172347 0
M  V30 1424 H 148.373 -3.7726 -1.55367 0
M  V30 1425 H 147.048 -4.13356 -0.459313 0
M  V30 1426 H 145.625 -3.14614 -2.0018 0
M  V30 1427 N 147.81 0.181792 -1.56548 0
M  V30 1428 C 148.74 1.22765 -1.98623 0
M  V30 1429 C 149.721 1.46747 -0.860189 0
M  V30 1430 O 150.906 1.58259 -1.12551 0
M  V30 1431 C 148.036 2.56894 -2.33715 0
M  V30 1432 C 146.99 2.475 -3.49182 0
M  V30 1433 C 146.316 3.86023 -3.69986 0
M  V30 1434 C 147.616 1.98866 -4.82959 0
M  V30 1435 H 149.31 0.877942 -2.86239 0
M  V30 1436 H 146.856 0.42088 -1.37712 0
M  V30 1437 H 148.809 3.30253 -2.61746 0
M  V30 1438 H 147.533 2.93632 -1.42997 0
M  V30 1439 H 146.192 1.76596 -3.21262 0
M  V30 1440 H 145.84 4.20136 -2.76576 0
M  V30 1441 H 145.54 3.80609 -4.47672 0
M  V30 1442 H 147.064 4.60984 -4.00407 0
M  V30 1443 H 148.478 2.61992 -5.09934 0
M  V30 1444 H 146.875 2.04424 -5.64208 0
M  V30 1445 H 147.945 0.942465 -4.75653 0
M  V30 1446 N 149.288 1.51039 0.449983 0
M  V30 1447 C 150.22 1.67617 1.56324 0
M  V30 1448 C 151.233 0.557083 1.52972 0
M  V30 1449 O 152.422 0.830989 1.57977 0
M  V30 1450 C 149.522 1.66402 2.95235 0
M  V30 1451 C 148.695 2.9469 3.23229 0
M  V30 1452 C 147.754 2.85832 4.41799 0
M  V30 1453 O 146.78 3.59785 4.41071 0
M  V30 1454 N 147.982 2.00821 5.44657 0
M  V30 1455 H 150.747 2.63648 1.42512 0
M  V30 1456 H 148.308 1.48767 0.638737 0
M  V30 1457 H 150.3 1.58062 3.72557 0
M  V30 1458 H 148.87 0.780182 3.02708 0
M  V30 1459 H 148.09 3.16996 2.34323 0
M  V30 1460 H 149.378 3.79636 3.38754 0
M  V30 1461 H 148.776 1.40091 5.48079 0
M  V30 1462 H 147.333 1.98368 6.20881 0
M  V30 1463 N 150.766 -0.704594 1.40972 0
M  V30 1464 C 151.676 -1.84856 1.44448 0
M  V30 1465 C 152.692 -1.70726 0.335961 0
M  V30 1466 O 153.868 -1.92799 0.582276 0
M  V30 1467 C 150.933 -3.20758 1.31587 0
M  V30 1468 C 149.994 -3.47063 2.52677 0
M  V30 1469 C 149.227 -4.76481 2.4042 0
M  V30 1470 O 149.45 -5.52341 1.42391 0
M  V30 1471 O 148.384 -5.03367 3.30007 0
M  V30 1472 H 152.21 -1.8488 2.40942 0
M  V30 1473 H 149.795 -0.85647 1.22413 0
M  V30 1474 H 151.677 -4.01913 1.26665 0
M  V30 1475 H 150.352 -3.21438 0.382049 0
M  V30 1476 H 149.259 -2.65873 2.63177 0
M  V30 1477 H 150.592 -3.5119 3.44858 0
M  V30 1478 N 152.244 -1.26651 -0.937939 0
M  V30 1479 C 153.66 -1.03834 -1.21205 0
M  V30 1480 C 153.86 0.234502 -2.00131 0
M  V30 1481 O 152.916 0.942767 -2.3424 0
M  V30 1482 C 154.229 -2.27167 -1.97017 0
M  V30 1483 C 155.777 -2.32101 -2.09996 0
M  V30 1484 C 156.252 -3.55136 -2.8921 0
M  V30 1485 N 157.743 -3.55632 -2.96783 0
M  V30 1486 C 158.478 -4.475 -3.58512 0
M  V30 1487 N 157.974 -5.4966 -4.21717 0
M  V30 1488 N 159.767 -4.35145 -3.55816 0
M  V30 1489 H 151.918 -2.08398 -0.410391 0
M  V30 1490 H 154.181 -0.916031 -0.244114 0
M  V30 1491 H 153.887 -3.19765 -1.46434 0
M  V30 1492 H 153.761 -2.31672 -2.97671 0
M  V30 1493 H 156.148 -1.40015 -2.59769 0
M  V30 1494 H 156.229 -2.31605 -1.08594 0
M  V30 1495 H 155.873 -4.47553 -2.40123 0
M  V30 1496 H 155.803 -3.5288 -3.90875 0
M  V30 1497 H 158.294 -2.81743 -2.51852 0
M  V30 1498 H 158.607 -6.15943 -4.66727 0
M  V30 1499 H 156.952 -5.53514 -4.20294 0
M  V30 1500 H 160.143 -3.5455 -3.05634 0
M  V30 1501 H 160.316 -5.06934 -4.03636 0
M  V30 1502 N 153.722 1.14298 -1.08507 0
M  V30 1503 C 154.947 1.8976 -0.837001 0
M  V30 1504 C 155.372 1.78097 0.605228 0
M  V30 1505 O 154.73 1.12188 1.4242 0
M  V30 1506 C 154.778 3.37685 -1.26495 0
M  V30 1507 O 153.882 4.10281 -0.417514 0
M  V30 1508 H 153.223 0.590365 -0.303917 0
M  V30 1509 H 155.753 1.44672 -1.44676 0
M  V30 1510 H 155.763 3.88501 -1.24625 0
M  V30 1511 H 154.438 3.45492 -2.31534 0
M  V30 1512 H 153.015 3.69536 -0.499722 0
M  V30 1513 N 155.201 0.870884 1.31352 0
M  V30 1514 C 156.133 0.28455 2.27427 0
M  V30 1515 C 157.146 -0.552927 1.53123 0
M  V30 1516 O 158.335 -0.374771 1.74521 0
M  V30 1517 C 155.435 -0.615164 3.3327 0
M  V30 1518 C 154.608 0.190079 4.36987 0
M  V30 1519 C 153.667 -0.637917 5.22319 0
M  V30 1520 O 152.693 -0.065626 5.69162 0
M  V30 1521 N 153.895 -1.94973 5.46778 0
M  V30 1522 H 156.66 1.11017 2.7838 0
M  V30 1523 H 154.221 0.732458 1.44384 0
M  V30 1524 H 156.213 -1.1748 3.87273 0
M  V30 1525 H 154.783 -1.34146 2.82354 0
M  V30 1526 H 154.003 0.931165 3.83044 0
M  V30 1527 H 155.291 0.742579 5.03352 0
M  V30 1528 H 154.689 -2.4378 5.10478 0
M  V30 1529 H 153.246 -2.45713 6.03712 0
M  V30 1530 N 156.679 -1.44442 0.630414 0
M  V30 1531 C 157.927 -2.01653 0.134351 0
M  V30 1532 C 158.248 -1.49836 -1.24796 0
M  V30 1533 O 157.518 -0.701684 -1.82902 0
M  V30 1534 H 156.098 -0.74554 0.0466769 0
M  V30 1535 H 158.76 -1.76952 0.816955 0
M  V30 1536 H 157.856 -3.11935 0.101498 0
M  V30 1537 N 158.157 -0.370918 -1.53173 0
M  V30 1538 C 159.405 0.216673 -2.00935 0
M  V30 1539 C 159.726 1.48845 -1.25977 0
M  V30 1540 O 158.996 1.92286 -0.374551 0
M  V30 1541 H 157.576 0.0830565 -0.742368 0
M  V30 1542 H 160.238 -0.49838 -1.8842 0
M  V30 1543 H 159.334 0.439893 -3.08984 0
M  V30 1544 N 159.635 1.57281 -0.100228 0
M  V30 1545 C 160.565 2.17328 0.853857 0
M  V30 1546 C 161.546 1.10804 1.2906 0
M  V30 1547 O 162.731 1.38963 1.35657 0
M  V30 1548 C 159.861 2.75772 2.11109 0
M  V30 1549 C 158.815 3.87713 1.81279 0
M  V30 1550 C 158.141 4.32882 3.13874 0
M  V30 1551 C 159.441 5.10677 1.09574 0
M  V30 1552 H 161.135 2.97305 0.353545 0
M  V30 1553 H 158.681 1.43009 0.168612 0
M  V30 1554 H 160.634 3.16433 2.78296 0
M  V30 1555 H 159.358 1.93057 2.63432 0
M  V30 1556 H 158.017 3.476 1.16489 0
M  V30 1557 H 157.665 3.47051 3.64095 0
M  V30 1558 H 157.365 5.08358 2.94696 0
M  V30 1559 H 158.889 4.7618 3.82211 0
M  V30 1560 H 160.303 5.48474 1.66879 0
M  V30 1561 H 158.7 5.91615 1.00557 0
M  V30 1562 H 159.77 4.84835 0.0793299 0
M  V30 1563 N 161.113 -0.173488 1.56642 0
M  V30 1564 C 162.076 -1.19859 1.95362 0
M  V30 1565 C 163.076 -1.37296 0.83704 0
M  V30 1566 O 164.266 -1.34739 1.10413 0
M  V30 1567 C 161.398 -2.56405 2.24654 0
M  V30 1568 H 162.591 -0.867062 2.87092 0
M  V30 1569 H 160.144 -0.415853 1.50666 0
M  V30 1570 H 160.879 -2.94576 1.35631 0
M  V30 1571 H 160.664 -2.45115 3.06041 0
M  V30 1572 H 162.154 -3.30287 2.5554 0
M  V30 1573 N 162.591 -1.51276 -0.441967 0
M  V30 1574 C 163.554 -1.7167 -1.51862 0
M  V30 1575 C 164.554 -0.586793 -1.49711 0
M  V30 1576 O 165.744 -0.854276 -1.51815 0
M  V30 1577 C 162.876 -1.76889 -2.91416 0
M  V30 1578 H 164.069 -2.67754 -1.35084 0
M  V30 1579 H 161.622 -1.41196 -0.670333 0
M  V30 1580 H 162.357 -0.826026 -3.13604 0
M  V30 1581 H 162.142 -2.59001 -2.94382 0
M  V30 1582 H 163.632 -1.94522 -3.69528 0
M  V30 1583 N 164.069 0.697108 -1.41344 0
M  V30 1584 C 165.317 1.45426 -1.40341 0
M  V30 1585 C 165.638 1.94996 -0.0128787 0
M  V30 1586 O 164.908 1.71599 0.945027 0
M  V30 1587 H 163.488 0.539594 -0.516573 0
M  V30 1588 H 166.15 0.825201 -1.76569 0
M  V30 1589 H 165.246 2.31817 -2.08967 0
M  V30 1590 N 165.547 1.27147 0.931209 0
M  V30 1591 C 166.795 1.13055 1.6752 0
M  V30 1592 C 167.116 -0.324791 1.92276 0
M  V30 1593 O 166.386 -1.22775 1.52654 0
M  V30 1594 H 164.966 0.415391 0.620854 0
M  V30 1595 H 167.628 1.59623 1.11833 0
M  V30 1596 H 166.724 1.65694 2.64485 0
M  V30 1597 N 167.025 -1.13721 1.09112 0
M  V30 1598 C 168.25 -1.89314 0.847053 0
M  V30 1599 C 168.675 -1.78416 -0.595774 0
M  V30 1600 O 168.033 -1.12942 -1.41823 0
M  V30 1601 C 168.081 -3.3701 1.28284 0
M  V30 1602 O 167.185 -4.10054 0.439267 0
M  V30 1603 H 166.526 -0.588745 0.307044 0
M  V30 1604 H 169.056 -1.43902 1.45442 0
M  V30 1605 H 169.066 -3.87834 1.26683 0
M  V30 1606 H 167.741 -3.4426 2.33363 0
M  V30 1607 H 166.318 -3.69266 0.519312 0
M  V30 1608 N 168.503 -0.877838 -1.30888 0
M  V30 1609 C 169.433 -0.35534 -2.3078 0
M  V30 1610 C 170.414 0.557994 -1.60687 0
M  V30 1611 O 171.599 0.473355 -1.88343 0
M  V30 1612 C 168.729 0.437221 -3.44537 0
M  V30 1613 C 167.683 -0.383715 -4.26276 0
M  V30 1614 C 167.009 0.535014 -5.32017 0
M  V30 1615 C 168.309 -1.62201 -4.96476 0
M  V30 1616 H 170.003 -1.19007 -2.74732 0
M  V30 1617 H 167.549 -0.573698 -1.32078 0
M  V30 1618 H 169.502 0.813334 -4.13477 0
M  V30 1619 H 168.226 1.30553 -2.99372 0
M  V30 1620 H 166.885 -0.741874 -3.59015 0
M  V30 1621 H 166.533 1.40083 -4.831 0
M  V30 1622 H 166.233 -0.0104211 -5.87599 0
M  V30 1623 H 167.757 0.907799 -6.03814 0
M  V30 1624 H 169.171 -1.31689 -5.5797 0
M  V30 1625 H 167.568 -2.10711 -5.61891 0
M  V30 1626 H 168.638 -2.37044 -4.23011 0
M  V30 1627 N 169.982 1.44106 -0.638065 0
M  V30 1628 C 171.259 1.95453 -0.0759321 0
M  V30 1629 C 171.639 1.57984 1.40015 0
M  V30 1630 O 170.987 0.857361 2.11806 0
M  V30 1631 C 171.197 3.47655 -0.306132 0
M  V30 1632 C 172.545 4.24114 -0.203008 0
M  V30 1633 O 173.569 3.55405 -0.237871 0
M  V30 1634 O 172.428 5.46381 -0.113827 0
M  V30 1635 H 169.522 0.826797 0.0183332 0
M  V30 1636 H 172.068 1.54122 -0.710251 0
M  V30 1637 H 170.84 3.68 -1.3301 0
M  V30 1638 H 170.463 3.95949 0.361991 0
M  V30 1639 N 171.46 0.379036 1.52974 0
M  V30 1640 C 172.393 -0.504932 2.22544 0
M  V30 1641 C 173.371 -1.0723 1.22231 0
M  V30 1642 O 174.555 -1.12589 1.51182 0
M  V30 1643 C 171.682 -1.69794 2.93066 0
M  V30 1644 C 170.728 -1.25678 4.07563 0
M  V30 1645 S 171.561 -0.246852 5.34931 0
M  V30 1646 C 172.717 -1.44588 6.08971 0
M  V30 1647 H 172.95 0.0858666 2.97176 0
M  V30 1648 H 170.483 0.163183 1.53535 0
M  V30 1649 H 172.441 -2.38219 3.34308 0
M  V30 1650 H 171.102 -2.26002 2.18133 0
M  V30 1651 H 170.295 -2.14725 4.5597 0
M  V30 1652 H 169.897 -0.651584 3.6828 0
M  V30 1653 H 172.189 -2.37469 6.34519 0
M  V30 1654 H 173.132 -1.00292 7.00962 0
M  V30 1655 H 173.54 -1.65804 5.39601 0
M  V30 1656 N 172.938 -1.57226 0.108567 0
M  V30 1657 C 173.886 -2.16002 -0.862885 0
M  V30 1658 C 174.88 -1.10644 -1.28274 0
M  V30 1659 O 176.086 -1.28966 -1.2557 0
M  V30 1660 H 172.461 -0.691148 -0.296342 0
M  V30 1661 H 174.432 -2.96427 -0.342575 0
M  V30 1662 C 173.181 -2.76576 -2.10716 0
M  V30 1663 H 172.504 -3.5734 -1.793 0
M  V30 1664 H 173.944 -3.21253 -2.76717 0
M  V30 1665 C 172.403 -1.73137 -2.89007 0
M  V30 1666 O 172.933 -1.17842 -3.84026 0
M  V30 1667 N 171.139 -1.43317 -2.52801 0
M  V30 1668 H 170.686 -1.88473 -1.75601 0
M  V30 1669 H 170.644 -0.743485 -3.05483 0
M  V30 1670 N 174.416 0.165178 -1.56732 0
M  V30 1671 C 175.664 0.879068 -1.8198 0
M  V30 1672 C 175.985 1.82514 -0.686561 0
M  V30 1673 O 175.255 1.93694 0.293146 0
M  V30 1674 H 173.835 0.327608 -0.671329 0
M  V30 1675 H 176.497 0.163526 -1.94213 0
M  V30 1676 H 175.593 1.45228 -2.76252 0
M  V30 1677 N 175.894 1.51508 0.433938 0
M  V30 1678 C 177.31 1.39759 0.770682 0
M  V30 1679 C 177.51 0.482594 1.95636 0
M  V30 1680 O 176.566 -0.0609691 2.52426 0
M  V30 1681 C 177.879 2.81851 1.04787 0
M  V30 1682 C 179.427 2.91025 1.1521 0
M  V30 1683 C 179.902 4.34032 1.46219 0
M  V30 1684 N 181.393 4.37154 1.53136 0
M  V30 1685 C 182.128 5.4484 1.78709 0
M  V30 1686 N 181.624 6.62682 2.02051 0
M  V30 1687 N 183.417 5.32324 1.80519 0
M  V30 1688 H 175.568 2.09548 -0.346892 0
M  V30 1689 H 177.831 0.943446 -0.0928074 0
M  V30 1690 H 177.537 3.50815 0.249304 0
M  V30 1691 H 177.411 3.21386 1.97461 0
M  V30 1692 H 179.798 2.22257 1.94128 0
M  V30 1693 H 179.879 2.54983 0.204281 0
M  V30 1694 H 179.523 5.03351 0.678274 0
M  V30 1695 H 179.453 4.6759 2.42212 0
M  V30 1696 H 181.944 3.52197 1.36987 0
M  V30 1697 H 182.257 7.40543 2.20943 0
M  V30 1698 H 180.602 6.65791 1.99366 0
M  V30 1699 H 183.793 4.39246 1.61805 0
M  V30 1700 H 183.966 6.16328 2.00111 0
M  V30 1701 N 177.372 -0.689602 1.41712 0
M  V30 1702 C 178.612 -1.46184 1.42862 0
M  V30 1703 C 178.976 -1.91962 0.0382204 0
M  V30 1704 O 180.177 -2.68694 -0.0755019 0
M  V30 1705 C 178.448 -2.6371 2.4123 0
M  V30 1706 S 180.007 -3.52768 2.6096 0
M  V30 1707 H 176.825 -0.49947 0.506015 0
M  V30 1708 H 179.427 -0.804107 1.78198 0
M  V30 1709 H 178.131 -2.28293 3.41044 0
M  V30 1710 H 177.662 -3.3437 2.07269 0
M  V30 1711 H 179.677 -4.59146 1.88148 0
M  V30 1712 N 178.85 -1.27639 -0.924453 0
M  V30 1713 C 180.099 -1.13549 -1.66702 0
M  V30 1714 C 180.412 0.317487 -1.93006 0
M  V30 1715 O 181.618 0.579333 -2.65247 0
M  V30 1716 C 180.074 -1.98426 -3.00259 0
M  V30 1717 C 179.682 -3.484 -2.81641 0
M  V30 1718 C 181.426 -1.92993 -3.78092 0
M  V30 1719 C 179.333 -4.25464 -4.10773 0
M  V30 1720 H 178.263 -0.421351 -0.625283 0
M  V30 1721 H 180.914 -1.52085 -1.02676 0
M  V30 1722 H 179.296 -1.52736 -3.6536 0
M  V30 1723 H 180.47 -4.01973 -2.25287 0
M  V30 1724 H 178.785 -3.55245 -2.17232 0
M  V30 1725 H 181.382 -2.47844 -4.7379 0
M  V30 1726 H 181.725 -0.904281 -4.0636 0
M  V30 1727 H 182.258 -2.36595 -3.19793 0
M  V30 1728 H 178.997 -5.28566 -3.87683 0
M  V30 1729 H 178.517 -3.76667 -4.66779 0
M  V30 1730 H 180.196 -4.34812 -4.79111 0
M  V30 1731 N 180.328 1.1314 -1.09713 0
M  V30 1732 C 181.568 1.8613 -0.844683 0
M  V30 1733 C 181.932 1.81765 0.618491 0
M  V30 1734 O 183.133 2.50024 0.98699 0
M  V30 1735 C 181.404 3.30151 -1.36877 0
M  V30 1736 S 182.963 4.206 -1.25064 0
M  V30 1737 H 179.781 0.642056 -0.305427 0
M  V30 1738 H 182.383 1.36343 -1.4011 0
M  V30 1739 H 181.087 3.30883 -2.42786 0
M  V30 1740 H 180.618 3.85 -0.808614 0
M  V30 1741 H 182.633 4.95783 -0.203486 0
M  V30 1742 N 181.806 0.884767 1.30421 0
M  V30 1743 C 183.217 0.553656 1.78302 0
M  V30 1744 C 183.568 -0.930153 1.7275 0
M  V30 1745 O 182.693 -1.72681 1.30423 0
M  V30 1746 C 183.288 0.998234 3.2376 0
M  V30 1747 C 181.847 0.71854 3.69478 0
M  V30 1748 C 180.994 1.18132 2.50879 0
M  V30 1749 H 183.945 1.06901 1.17294 0
M  V30 1750 H 183.966 0.327118 3.79091 0
M  V30 1751 H 183.478 2.0782 3.27769 0
M  V30 1752 H 181.579 -0.349444 3.70958 0
M  V30 1753 H 181.692 1.30595 4.60958 0
M  V30 1754 H 180.056 0.600669 2.47516 0
M  V30 1755 H 180.839 2.26902 2.57624 0
M  V30 1756 N 183.284 -1.43765 0.645699 0
M  V30 1757 C 184.509 -2.06767 0.161883 0
M  V30 1758 C 184.934 -1.48034 -1.16049 0
M  V30 1759 O 184.292 -0.587369 -1.71522 0
M  V30 1760 C 184.34 -3.60519 0.0762003 0
M  V30 1761 O 183.444 -4.00982 -0.963721 0
M  V30 1762 H 182.785 -0.657675 0.091429 0
M  V30 1763 H 185.315 -1.84397 0.886499 0
M  V30 1764 H 185.325 -4.07853 -0.109604 0
M  V30 1765 H 184 -4.02646 1.04157 0
M  V30 1766 H 182.577 -3.65253 -0.751312 0
M  V30 1767 N 184.763 -0.387143 -1.52771 0
M  V30 1768 C 185.693 0.440551 -2.29306 0
M  V30 1769 C 186.674 1.06535 -1.32606 0
M  V30 1770 O 187.859 1.07853 -1.61497 0
M  V30 1771 C 184.989 1.56919 -3.09829 0
M  V30 1772 C 183.943 1.07054 -4.14395 0
M  V30 1773 C 183.269 2.29109 -4.83129 0
M  V30 1774 C 184.569 0.140015 -5.22112 0
M  V30 1775 H 186.263 -0.198026 -2.98744 0
M  V30 1776 H 183.809 -0.09668 -1.43675 0
M  V30 1777 H 185.762 2.15503 -3.62128 0
M  V30 1778 H 184.486 2.23532 -2.3812 0
M  V30 1779 H 183.145 0.507247 -3.63074 0
M  V30 1780 H 182.793 2.94227 -4.0797 0
M  V30 1781 H 182.493 1.96406 -5.53804 0
M  V30 1782 H 184.017 2.88339 -5.38231 0
M  V30 1783 H 185.431 0.633978 -5.69784 0
M  V30 1784 H 183.828 -0.0971485 -6.00021 0
M  V30 1785 H 184.898 -0.811711 -4.78058 0
M  V30 1786 N 186.241 1.57166 -0.116904 0
M  V30 1787 C 187.652 1.82169 0.408809 0
M  V30 1788 C 188.003 1.03393 1.66746 0
M  V30 1789 O 187.128 0.269886 2.1471 0
M  V30 1790 C 187.723 3.30429 0.748466 0
M  V30 1791 C 186.282 3.5612 1.21882 0
M  V30 1792 C 185.429 2.76374 0.226452 0
M  V30 1793 H 188.38 1.5497 -0.342063 0
M  V30 1794 H 188.401 3.44943 1.60607 0
M  V30 1795 H 187.913 3.87737 -0.167784 0
M  V30 1796 H 186.014 3.04168 2.15204 0
M  V30 1797 H 186.127 4.64705 1.16559 0
M  V30 1798 H 184.491 2.44515 0.713063 0
M  V30 1799 H 185.274 3.3644 -0.682859 0
M  V30 1800 N 187.719 -0.156864 1.56817 0
M  V30 1801 C 188.949 -0.885031 1.86684 0
M  V30 1802 C 189.357 -1.75696 0.701954 0
M  V30 1803 O 188.7 -1.80569 -0.337732 0
M  V30 1804 C 188.762 -1.80092 3.11138 0
M  V30 1805 C 188.426 -1.10714 4.43386 0
M  V30 1806 C 189.423 -0.465714 5.1781 0
M  V30 1807 C 187.108 -1.09959 4.90117 0
M  V30 1808 C 189.102 0.174002 6.37162 0
M  V30 1809 C 186.789 -0.456055 6.09396 0
M  V30 1810 C 187.787 0.179622 6.82764 0
M  V30 1811 O 187.475 0.812975 7.99779 0
M  V30 1812 H 187.207 -0.261813 0.623242 0
M  V30 1813 H 189.761 -0.157383 2.04796 0
M  V30 1814 H 187.991 -2.56926 2.89009 0
M  V30 1815 H 189.68 -2.40018 3.27332 0
M  V30 1816 H 190.446 -0.463427 4.82781 0
M  V30 1817 H 186.325 -1.58378 4.3294 0
M  V30 1818 H 189.869 0.670765 6.94368 0
M  V30 1819 H 185.766 -0.455975 6.43888 0
M  V30 1820 H 186.534 0.71366 8.15383 0
M  V30 1821 N 189.197 -1.51736 -0.425897 0
M  V30 1822 C 190.422 -1.69082 -1.20108 0
M  V30 1823 C 190.847 -0.392398 -1.83962 0
M  V30 1824 O 190.205 0.64858 -1.69302 0
M  V30 1825 C 190.253 -2.81604 -2.25237 0
M  V30 1826 O 189.357 -2.46004 -3.30992 0
M  V30 1827 H 188.698 -0.563408 -0.35138 0
M  V30 1828 H 191.228 -1.98358 -0.501512 0
M  V30 1829 H 191.238 -3.06025 -2.69838 0
M  V30 1830 H 189.913 -3.75817 -1.78142 0
M  V30 1831 H 188.49 -2.32195 -2.91787 0
M  V30 1832 N 190.675 0.682077 -1.42076 0
M  V30 1833 C 192.086 1.26246 -1.37546 0
M  V30 1834 C 192.437 1.96092 -0.0651481 0
M  V30 1835 O 191.562 1.99587 0.836297 0
M  V30 1836 C 192.157 2.29594 -2.49143 0
M  V30 1837 C 190.716 2.83175 -2.47969 0
M  V30 1838 C 189.863 1.57395 -2.28303 0
M  V30 1839 H 192.814 0.475937 -1.51395 0
M  V30 1840 H 192.835 3.11175 -2.18976 0
M  V30 1841 H 192.347 1.78729 -3.44496 0
M  V30 1842 H 190.448 3.3818 -1.56413 0
M  V30 1843 H 190.561 3.32687 -3.44755 0
M  V30 1844 H 188.925 1.83699 -1.76428 0
M  V30 1845 H 189.708 1.08507 -3.25701 0
M  V30 1846 N 192.153 1.28127 0.917671 0
M  V30 1847 C 193.399 1.15223 1.66888 0
M  V30 1848 C 193.732 -0.299293 1.9188 0
M  V30 1849 O 193.007 -1.21805 1.51637 0
M  V30 1850 C 193.29 1.94706 3.02922 0
M  V30 1851 C 193.143 3.47898 2.85109 0
M  V30 1852 C 194.462 1.75939 4.03402 0
M  V30 1853 H 191.581 0.419946 0.605652 0
M  V30 1854 H 194.223 1.57398 1.06423 0
M  V30 1855 H 192.373 1.58864 3.54534 0
M  V30 1856 H 194.045 3.93624 2.40537 0
M  V30 1857 H 192.288 3.7373 2.20246 0
M  V30 1858 H 192.959 3.98765 3.81694 0
M  V30 1859 H 195.435 2.07209 3.60837 0
M  V30 1860 H 194.311 2.33931 4.96556 0
M  V30 1861 H 194.572 0.709877 4.36364 0
M  V30 1862 N 193.631 -1.12557 1.10312 0
M  V30 1863 C 194.856 -1.88405 0.867085 0
M  V30 1864 C 195.281 -1.79038 -0.576817 0
M  V30 1865 O 194.639 -1.14439 -1.40618 0
M  V30 1866 C 194.687 -3.3563 1.31851 0
M  V30 1867 O 193.791 -4.09565 0.482734 0
M  V30 1868 H 193.132 -0.585455 0.313271 0
M  V30 1869 H 195.662 -1.42352 1.4696 0
M  V30 1870 H 195.672 -3.86469 1.3079 0
M  V30 1871 H 194.347 -3.41765 2.37001 0
M  V30 1872 H 192.924 -3.68695 0.558448 0
M  V30 1873 N 195.109 -0.891671 -1.2995 0
M  V30 1874 C 196.334 -0.527932 -2.00568 0
M  V30 1875 C 196.759 0.877969 -1.66353 0
M  V30 1876 O 196.117 1.58301 -0.883762 0
M  V30 1877 C 196.165 -0.717745 -3.53385 0
M  V30 1878 O 195.269 0.233376 -4.11739 0
M  V30 1879 H 194.61 -0.20722 -0.630837 0
M  V30 1880 H 197.14 -1.20105 -1.65638 0
M  V30 1881 H 197.15 -0.619307 -4.03272 0
M  V30 1882 H 195.825 -1.74276 -3.77625 0
M  V30 1883 H 194.402 0.0880706 -3.72796 0
M  V30 1884 N 196.587 1.43421 -0.653314 0
M  V30 1885 C 197.998 1.85065 -0.246537 0
M  V30 1886 C 198.349 1.54688 1.2069 0
M  V30 1887 O 197.474 0.995896 1.92122 0
M  V30 1888 C 198.069 3.35922 -0.440666 0
M  V30 1889 C 196.628 3.76297 -0.0882064 0
M  V30 1890 C 195.775 2.67147 -0.743484 0
M  V30 1891 H 198.726 1.33572 -0.856979 0
M  V30 1892 H 198.747 3.79204 0.313798 0
M  V30 1893 H 198.259 3.58 -1.49858 0
M  V30 1894 H 196.36 3.5983 0.96711 0
M  V30 1895 H 196.473 4.76338 -0.513738 0
M  V30 1896 H 194.837 2.54086 -0.176712 0
M  V30 1897 H 195.62 2.92053 -1.80443 0
M  V30 1898 N 198.065 0.39524 1.52563 0
M  V30 1899 C 198.997 -0.472201 2.24283 0
M  V30 1900 C 200.01 -1.02178 1.26742 0
M  V30 1901 O 201.199 -0.923097 1.52778 0
M  V30 1902 C 198.299 -1.66775 2.95024 0
M  V30 1903 C 197.472 -1.2445 4.19322 0
M  V30 1904 C 196.531 -2.30539 4.7301 0
M  V30 1905 O 195.557 -1.91702 5.35947 0
M  V30 1906 N 196.759 -3.6253 4.53379 0
M  V30 1907 H 199.524 0.142282 2.99362 0
M  V30 1908 H 197.085 0.2219 1.60372 0
M  V30 1909 H 199.077 -2.37283 3.27839 0
M  V30 1910 H 197.647 -2.18845 2.23217 0
M  V30 1911 H 196.867 -0.368069 3.92478 0
M  V30 1912 H 198.155 -0.938457 5.0007 0
M  V30 1913 H 197.553 -3.96841 4.03154 0
M  V30 1914 H 196.11 -4.29055 4.90668 0
M  V30 1915 N 199.544 -1.57102 0.125237 0
M  V30 1916 C 200.769 -2.0019 -0.542101 0
M  V30 1917 C 201.194 -1.00449 -1.59034 0
M  V30 1918 O 200.552 0.0229423 -1.81285 0
M  V30 1919 C 200.6 -3.42129 -1.13929 0
M  V30 1920 O 199.704 -3.45307 -2.2547 0
M  V30 1921 H 199.045 -0.650171 -0.134812 0
M  V30 1922 H 201.575 -2.03461 0.215553 0
M  V30 1923 H 201.585 -3.80471 -1.4733 0
M  V30 1924 H 200.26 -4.14237 -0.371531 0
M  V30 1925 H 198.837 -3.1879 -1.93462 0
M  V30 1926 N 201.022 0.148545 -1.56898 0
M  V30 1927 C 202.247 0.880385 -1.87787 0
M  V30 1928 C 202.672 1.74018 -0.714093 0
M  V30 1929 O 202.03 1.78153 0.336343 0
M  V30 1930 C 202.078 1.71422 -3.17249 0
M  V30 1931 O 201.182 2.8183 -3.01074 0
M  V30 1932 H 200.523 0.245301 -0.617028 0
M  V30 1933 H 203.053 0.139826 -2.04122 0
M  V30 1934 H 203.063 2.10954 -3.49231 0
M  V30 1935 H 201.738 1.08284 -4.01556 0
M  V30 1936 H 200.315 2.45715 -2.80497 0
M  V30 1937 N 202.5 1.5196 0.417844 0
M  V30 1938 C 203.911 1.57851 0.997 0
M  V30 1939 C 204.262 0.413714 1.91789 0
M  V30 1940 O 203.387 -0.467057 2.113 0
M  V30 1941 C 203.982 2.86085 1.81496 0
M  V30 1942 C 202.541 2.94483 2.34428 0
M  V30 1943 C 201.688 2.52707 1.14169 0
M  V30 1944 H 204.639 1.57455 0.198392 0
M  V30 1945 H 204.66 2.70947 2.67148 0
M  V30 1946 H 204.172 3.70842 1.14446 0
M  V30 1947 H 202.273 2.142 3.04875 0
M  V30 1948 H 202.386 3.98546 2.65891 0
M  V30 1949 H 200.75 2.06353 1.49301 0
M  V30 1950 H 201.533 3.39828 0.486999 0
M  V30 1951 N 203.978 -0.674533 1.42435 0
M  V30 1952 C 205.394 -0.98769 1.25367 0
M  V30 1953 C 205.594 -2.00879 0.158044 0
M  V30 1954 O 204.65 -2.48075 -0.470633 0
M  V30 1955 C 205.963 -1.49224 2.6106 0
M  V30 1956 C 207.511 -1.61 2.68417 0
M  V30 1957 C 207.986 -2.14852 4.04478 0
M  V30 1958 N 209.477 -2.22185 4.06434 0
M  V30 1959 C 210.212 -2.64928 5.08528 0
M  V30 1960 N 209.708 -3.07121 6.21006 0
M  V30 1961 N 211.501 -2.64679 4.95885 0
M  V30 1962 H 203.652 0.00152503 2.124 0
M  V30 1963 H 205.915 -0.0618434 0.945981 0
M  V30 1964 H 205.621 -0.816453 3.42092 0
M  V30 1965 H 205.495 -2.47094 2.84999 0
M  V30 1966 H 207.882 -2.27686 1.87732 0
M  V30 1967 H 207.963 -0.616195 2.48267 0
M  V30 1968 H 207.607 -1.48775 4.85622 0
M  V30 1969 H 207.537 -3.15024 4.2198 0
M  V30 1970 H 210.028 -1.92435 3.25234 0
M  V30 1971 H 210.341 -3.38423 6.94759 0
M  V30 1972 H 208.686 -3.04978 6.24511 0
M  V30 1973 H 211.877 -2.31078 4.07088 0
M  V30 1974 H 212.05 -2.9767 5.75584 0
M  V30 1975 N 205.456 -1.28612 -0.910864 0
M  V30 1976 C 206.386 -1.15326 -2.03032 0
M  V30 1977 C 207.367 -0.0502924 -1.70026 0
M  V30 1978 O 208.552 -0.227797 -1.92859 0
M  V30 1979 C 205.682 -0.817343 -3.37545 0
M  V30 1980 C 204.636 -1.8754 -3.84724 0
M  V30 1981 C 203.962 -1.39305 -5.16235 0
M  V30 1982 C 205.262 -3.28244 -4.06267 0
M  V30 1983 H 206.956 -2.08975 -2.14406 0
M  V30 1984 H 204.502 -1.00612 -1.03021 0
M  V30 1985 H 206.455 -0.711151 -4.15356 0
M  V30 1986 H 205.179 0.154846 -3.26233 0
M  V30 1987 H 203.838 -1.97079 -3.09121 0
M  V30 1988 H 203.486 -0.409846 -5.01328 0
M  V30 1989 H 203.186 -2.10057 -5.48771 0
M  V30 1990 H 204.71 -1.30014 -5.96598 0
M  V30 1991 H 206.124 -3.21611 -4.74594 0
M  V30 1992 H 204.521 -3.96855 -4.5014 0
M  V30 1993 H 205.591 -3.72048 -3.10979 0
M  V30 1994 N 206.934 1.1197 -1.10907 0
M  V30 1995 C 208.345 1.65114 -0.871446 0
M  V30 1996 C 208.696 1.86885 0.597353 0
M  V30 1997 O 207.821 1.59896 1.45816 0
M  V30 1998 C 208.416 2.99944 -1.5754 0
M  V30 1999 C 206.975 3.50018 -1.38435 0
M  V30 2000 C 206.122 2.24941 -1.62164 0
M  V30 2001 H 209.073 0.956851 -1.2661 0
M  V30 2002 H 209.094 3.66651 -1.01721 0
M  V30 2003 H 208.606 2.84067 -2.64438 0
M  V30 2004 H 206.707 3.71071 -0.337214 0
M  V30 2005 H 206.82 4.29165 -2.12965 0
M  V30 2006 H 205.184 2.3229 -1.04467 0
M  V30 2007 H 205.967 2.11612 -2.70324 0
M  V30 2008 N 208.412 0.89855 1.29475 0
M  V30 2009 C 209.828 0.594483 1.48115 0
M  V30 2010 C 210.028 -0.86431 1.82022 0
M  V30 2011 O 209.084 -1.64457 1.91599 0
M  V30 2012 C 210.397 1.51932 2.59494 0
M  V30 2013 C 211.945 1.5244 2.7337 0
M  V30 2014 C 212.42 2.43548 3.87877 0
M  V30 2015 N 213.911 2.41589 3.95208 0
M  V30 2016 C 214.646 3.08789 4.83153 0
M  V30 2017 N 214.142 3.85265 5.75798 0
M  V30 2018 N 215.935 2.97952 4.76635 0
M  V30 2019 H 208.086 1.84207 1.05742 0
M  V30 2020 H 210.349 0.789251 0.525154 0
M  V30 2021 H 210.055 2.55865 2.41301 0
M  V30 2022 H 209.929 1.23899 3.56271 0
M  V30 2023 H 212.316 0.492518 2.90961 0
M  V30 2024 H 212.397 1.8451 1.77172 0
M  V30 2025 H 212.041 3.46829 3.71041 0
M  V30 2026 H 211.971 2.08788 4.83441 0
M  V30 2027 H 214.462 1.86025 3.28943 0
M  V30 2028 H 214.775 4.33598 6.39697 0
M  V30 2029 H 213.12 3.89371 5.75687 0
M  V30 2030 H 216.311 2.37723 4.03244 0
M  V30 2031 H 216.484 3.50599 5.44962 0
M  V30 2032 N 209.89 -1.43072 0.660911 0
M  V30 2033 C 211.306 -1.56169 0.329173 0
M  V30 2034 C 211.506 -1.64317 -1.16629 0
M  V30 2035 O 210.562 -1.60245 -1.95135 0
M  V30 2036 C 211.875 -2.81873 1.04729 0
M  V30 2037 C 213.423 -2.95627 1.02828 0
M  V30 2038 C 213.898 -4.24174 1.72744 0
M  V30 2039 N 215.389 -4.31055 1.69545 0
M  V30 2040 C 216.124 -5.29304 2.20511 0
M  V30 2041 N 215.62 -6.33786 2.79799 0
M  V30 2042 N 217.413 -5.21008 2.10966 0
M  V30 2043 H 209.564 -1.36027 1.63127 0
M  V30 2044 H 211.827 -0.653823 0.686454 0
M  V30 2045 H 211.533 -2.81942 2.10242 0
M  V30 2046 H 211.407 -3.72338 0.603702 0
M  V30 2047 H 213.794 -2.95094 -0.0184742 0
M  V30 2048 H 213.875 -2.06431 1.51063 0
M  V30 2049 H 213.519 -4.25467 2.7738 0
M  V30 2050 H 213.449 -5.1228 1.2197 0
M  V30 2051 H 215.94 -3.56174 1.26288 0
M  V30 2052 H 216.253 -7.05086 3.16344 0
M  V30 2053 H 214.598 -6.34387 2.83863 0
M  V30 2054 H 217.789 -4.38301 1.64347 0
M  V30 2055 H 217.962 -5.97416 2.50993 0
M  V30 2056 N 211.368 -0.403325 -1.52352 0
M  V30 2057 C 212.779 0.0675782 -1.86578 0
M  V30 2058 C 213.13 1.44941 -1.32236 0
M  V30 2059 O 212.255 2.06112 -0.659307 0
M  V30 2060 C 212.85 0.129404 -3.38553 0
M  V30 2061 C 211.409 0.544629 -3.72439 0
M  V30 2062 C 210.556 -0.284551 -2.75836 0
M  V30 2063 H 213.507 -0.620631 -1.46061 0
M  V30 2064 H 213.528 0.94581 -3.68558 0
M  V30 2065 H 213.04 -0.87645 -3.78074 0
M  V30 2066 H 211.141 1.55734 -3.38493 0
M  V30 2067 H 211.254 0.293046 -4.78203 0
M  V30 2068 H 209.618 0.252258 -2.53448 0
M  V30 2069 H 210.401 -1.28865 -3.18196 0
M  V30 2070 N 212.846 1.57033 -0.133567 0
M  V30 2071 C 214.074 2.00044 0.528195 0
M  V30 2072 C 214.489 1.01349 1.59291 0
M  V30 2073 O 213.846 0.00848369 1.82498 0
M  V30 2074 C 213.897 3.43018 1.1411 0
M  V30 2075 O 213.618 4.37939 0.11892 0
M  V30 2076 C 215.119 4.01237 1.88477 0
M  V30 2077 H 212.339 0.656517 0.138661 0
M  V30 2078 H 214.883 2.03267 -0.224196 0
M  V30 2079 H 213.038 3.40688 1.84418 0
M  V30 2080 H 213.452 5.21436 0.56613 0
M  V30 2081 H 214.926 5.03314 2.26669 0
M  V30 2082 H 215.403 3.41193 2.76558 0
M  V30 2083 H 216.009 4.07156 1.22898 0
M  V30 2084 N 214.325 -0.140222 1.56975 0
M  V30 2085 C 215.571 -0.852949 1.83991 0
M  V30 2086 C 215.904 -1.80512 0.716187 0
M  V30 2087 O 215.179 -1.92479 -0.279681 0
M  V30 2088 C 215.462 -1.6215 3.21527 0
M  V30 2089 C 215.315 -0.690363 4.4447 0
M  V30 2090 C 216.634 -2.58247 3.56366 0
M  V30 2091 H 213.753 -0.308634 0.669264 0
M  V30 2092 H 216.395 -0.117898 1.89634 0
M  V30 2093 H 214.545 -2.24812 3.16847 0
M  V30 2094 H 216.217 -0.0742264 4.6124 0
M  V30 2095 H 214.46 -0.000396433 4.338 0
M  V30 2096 H 215.131 -1.2643 5.37326 0
M  V30 2097 H 217.607 -2.05701 3.61699 0
M  V30 2098 H 216.483 -3.09067 4.53617 0
M  V30 2099 H 216.744 -3.39923 2.82674 0
M  V30 2100 N 215.803 -1.52179 -0.40978 0
M  V30 2101 C 216.713 -1.78364 -1.52392 0
M  V30 2102 C 217.729 -0.669183 -1.60617 0
M  V30 2103 O 218.905 -0.954518 -1.77344 0
M  V30 2104 C 215.97 -1.92822 -2.88133 0
M  V30 2105 C 215.031 -3.16725 -2.898 0
M  V30 2106 C 214.264 -3.30483 -4.19067 0
M  V30 2107 O 214.487 -2.49522 -5.12928 0
M  V30 2108 O 213.421 -4.2363 -4.27576 0
M  V30 2109 H 217.247 -2.72931 -1.33201 0
M  V30 2110 H 214.832 -1.37016 -0.59557 0
M  V30 2111 H 216.714 -2.04157 -3.68643 0
M  V30 2112 H 215.389 -1.01444 -3.07393 0
M  V30 2113 H 214.296 -3.10848 -2.08146 0
M  V30 2114 H 215.629 -4.07881 -2.75489 0
M  V30 2115 N 217.281 0.66697 -1.42791 0
M  V30 2116 C 218.506 1.46004 -1.47301 0
M  V30 2117 C 218.931 1.87894 -0.0880317 0
M  V30 2118 O 218.289 1.56502 0.915253 0
M  V30 2119 C 218.337 2.68031 -2.41229 0
M  V30 2120 O 217.441 3.6659 -1.88906 0
M  V30 2121 H 216.782 0.43832 -0.49877 0
M  V30 2122 H 219.312 0.817391 -1.87563 0
M  V30 2123 H 219.322 3.1601 -2.58073 0
M  V30 2124 H 217.997 2.36883 -3.41847 0
M  V30 2125 H 216.574 3.25661 -1.81656 0
M  V30 2126 N 218.759 1.29093 0.90403 0
M  V30 2127 C 219.709 1.10482 1.99443 0
M  V30 2128 C 220.693 0.0255401 1.6088 0
M  V30 2129 O 221.885 0.24677 1.75271 0
M  V30 2130 C 219.014 0.778882 3.34348 0
M  V30 2131 C 218.1 1.89749 3.79284 0
M  V30 2132 N 218.491 3.14045 3.96497 0
M  V30 2133 C 216.789 1.78955 4.08523 0
M  V30 2134 C 217.49 3.86996 4.34292 0
M  V30 2135 N 216.466 3.14909 4.43095 0
M  V30 2136 H 220.268 2.04778 2.10815 0
M  V30 2137 H 217.782 1.20155 1.09255 0
M  V30 2138 H 219.779 0.62661 4.12164 0
M  V30 2139 H 218.439 -0.156205 3.24324 0
M  V30 2140 H 219.45 3.49548 3.82148 0
M  V30 2141 H 216.127 0.926886 4.07081 0
M  V30 2142 H 217.517 4.93941 4.55491 0
M  V30 2143 N 220.237 -1.11381 1.11499 0
M  V30 2144 C 221.187 -2.15555 0.74298 0
M  V30 2145 C 222.171 -1.58894 -0.253276 0
M  V30 2146 O 223.363 -1.76897 -0.0602918 0
M  V30 2147 C 220.492 -3.42782 0.188481 0
M  V30 2148 C 219.578 -4.064 1.21244 0
M  V30 2149 N 219.969 -4.44864 2.40685 0
M  V30 2150 C 218.267 -4.3333 1.05552 0
M  V30 2151 C 218.968 -4.94715 3.05994 0
M  V30 2152 N 217.944 -4.90909 2.33472 0
M  V30 2153 H 221.746 -2.43074 1.65203 0
M  V30 2154 H 219.26 -1.28401 0.994329 0
M  V30 2155 H 221.257 -4.16789 -0.0961693 0
M  V30 2156 H 219.917 -3.16727 -0.715149 0
M  V30 2157 H 220.928 -4.36876 2.78136 0
M  V30 2158 H 217.605 -4.1698 0.208372 0
M  V30 2159 H 218.995 -5.34103 4.07656 0
M  V30 2160 N 221.715 -0.905404 -1.28997 0
M  V30 2161 C 222.961 -0.535039 -1.95615 0
M  V30 2162 C 223.294 0.917404 -1.71165 0
M  V30 2163 O 222.569 1.65123 -1.02785 0
M  V30 2164 C 222.852 -0.834918 -3.50287 0
M  V30 2165 C 222.705 -2.33948 -3.84172 0
M  V30 2166 C 224.024 -0.325318 -4.38896 0
M  V30 2167 H 221.143 -0.195861 -0.710498 0
M  V30 2168 H 223.785 -1.13313 -1.52513 0
M  V30 2169 H 221.935 -0.325904 -3.87131 0
M  V30 2170 H 223.607 -2.91847 -3.57243 0
M  V30 2171 H 221.85 -2.79789 -3.31513 0
M  V30 2172 H 222.521 -2.49987 -4.92149 0
M  V30 2173 H 224.997 -0.761256 -4.09077 0
M  V30 2174 H 223.873 -0.564295 -5.45992 0
M  V30 2175 H 224.134 0.774144 -4.35269 0
M  V30 2176 N 223.193 1.4272 -0.668489 0
M  V30 2177 C 224.418 2.06484 -0.194758 0
M  V30 2178 C 224.843 1.49862 1.13679 0
M  V30 2179 O 224.201 0.614582 1.70565 0
M  V30 2180 C 224.249 3.60353 -0.133546 0
M  V30 2181 O 223.353 4.02464 0.899806 0
M  V30 2182 H 222.694 0.656137 -0.10188 0
M  V30 2183 H 225.224 1.82964 -0.915722 0
M  V30 2184 H 225.234 4.07976 0.0447041 0
M  V30 2185 H 223.909 4.00938 -1.1055 0
M  V30 2186 H 222.486 3.66402 0.693109 0
M  V30 2187 N 224.671 0.411399 1.52136 0
M  V30 2188 C 225.92 -0.165009 2.01024 0
M  V30 2189 C 226.233 -1.4603 1.30133 0
M  V30 2190 O 227.439 -2.1181 1.69849 0
M  V30 2191 C 225.895 -0.344618 3.58246 0
M  V30 2192 C 225.503 0.938716 4.38055 0
M  V30 2193 C 227.247 -0.876195 4.15359 0
M  V30 2194 C 225.154 0.726172 5.86925 0
M  V30 2195 H 224.084 -0.0654407 0.751155 0
M  V30 2196 H 226.735 0.537192 1.75461 0
M  V30 2197 H 225.117 -1.10921 3.80148 0
M  V30 2198 H 226.291 1.70963 4.27912 0
M  V30 2199 H 224.606 1.39688 3.92271 0
M  V30 2200 H 227.203 -1.05128 5.24263 0
M  V30 2201 H 227.546 -1.85152 3.7286 0
M  V30 2202 H 228.079 -0.170607 3.97434 0
M  V30 2203 H 224.818 1.67312 6.33788 0
M  V30 2204 H 224.338 -0.00540283 5.998 0
M  V30 2205 H 226.017 0.369231 6.45946 0
M  V30 2206 N 226.149 -1.5696 0.141893 0
M  V30 2207 C 227.377 -2.00322 -0.517579 0
M  V30 2208 C 227.792 -1.02193 -1.58752 0
M  V30 2209 O 227.149 -0.0181619 -1.82491 0
M  V30 2210 C 227.2 -3.43618 -1.12289 0
M  V30 2211 O 226.921 -4.37995 -0.0956929 0
M  V30 2212 C 228.422 -4.02231 -1.86347 0
M  V30 2213 H 225.642 -0.657243 -0.135177 0
M  V30 2214 H 228.186 -2.03146 0.234973 0
M  V30 2215 H 226.341 -3.41662 -1.82609 0
M  V30 2216 H 226.755 -5.21729 -0.538469 0
M  V30 2217 H 228.229 -5.04509 -2.23997 0
M  V30 2218 H 228.706 -3.42655 -2.74744 0
M  V30 2219 H 229.312 -4.07802 -1.20737 0
M  V30 2220 N 227.627 0.131896 -1.57047 0
M  V30 2221 C 228.875 0.840269 -1.83804 0
M  V30 2222 C 229.196 1.81017 -0.72512 0
M  V30 2223 O 228.466 1.94272 0.251995 0
M  V30 2224 H 227.046 0.313294 -0.678127 0
M  V30 2225 H 229.708 0.122294 -1.94516 0
M  V30 2226 H 228.804 1.39335 -2.79271 0
M  V30 2227 N 229.106 1.52395 0.401703 0
M  V30 2228 C 230.039 1.70999 1.51111 0
M  V30 2229 C 231.017 0.55765 1.52738 0
M  V30 2230 O 232.201 0.785912 1.71335 0
M  V30 2231 C 229.328 1.75607 2.8962 0
M  V30 2232 C 228.374 2.97227 3.05873 0
M  V30 2233 S 229.207 4.57439 2.78405 0
M  V30 2234 C 230.363 4.64844 4.19131 0
M  V30 2235 H 230.596 2.6483 1.35102 0
M  V30 2236 H 228.129 1.42527 0.593762 0
M  V30 2237 H 230.087 1.78947 3.69443 0
M  V30 2238 H 228.748 0.828914 3.02965 0
M  V30 2239 H 227.941 2.96955 4.07227 0
M  V30 2240 H 227.543 2.91813 2.33925 0
M  V30 2241 H 229.835 4.42677 5.12877 0
M  V30 2242 H 230.778 5.66807 4.24424 0
M  V30 2243 H 231.186 3.93804 4.04448 0
M  V30 2244 N 230.584 -0.659388 1.43143 0
M  V30 2245 C 231.516 -1.7849 1.43784 0
M  V30 2246 C 232.529 -1.5932 0.334787 0
M  V30 2247 O 233.718 -1.68155 0.598842 0
M  V30 2248 C 230.818 -3.15828 1.22906 0
M  V30 2249 C 229.991 -3.61711 2.45934 0
M  V30 2250 C 229.05 -4.77831 2.20371 0
M  V30 2251 O 228.076 -4.87586 2.93681 0
M  V30 2252 N 229.278 -5.67611 1.21647 0
M  V30 2253 H 232.043 -1.7842 2.40803 0
M  V30 2254 H 229.604 -0.84302 1.3822 0
M  V30 2255 H 231.596 -3.91189 1.03697 0
M  V30 2256 H 230.166 -3.10707 0.343542 0
M  V30 2257 H 229.386 -2.76861 2.80609 0
M  V30 2258 H 230.674 -3.89112 3.27825 0
M  V30 2259 H 230.072 -5.62397 0.610449 0
M  V30 2260 H 228.629 -6.42719 1.08423 0
M  V30 2261 N 232.062 -1.29571 -0.897171 0
M  V30 2262 C 233.339 -1.08365 -1.62839 0
M  V30 2263 C 233.719 0.371331 -2.07808 0
M  V30 2264 O 233.067 1.3606 -1.83576 0
M  V30 2265 C 233.277 -2.0735 -2.80726 0
M  V30 2266 C 234.625 -2.38406 -3.51351 0
M  V30 2267 O 235.649 -2.05564 -2.90898 0
M  V30 2268 O 234.508 -2.9453 -4.60341 0
M  V30 2269 H 231.602 -0.415345 -0.715134 0
M  V30 2270 H 234.148 -1.40952 -0.945018 0
M  V30 2271 H 232.92 -3.05339 -2.44711 0
M  V30 2272 H 232.543 -1.75507 -3.56767 0
M  V30 2273 N 233.54 1.10788 -1.12088 0
M  V30 2274 C 234.78 1.84297 -0.883974 0
M  V30 2275 C 235.144 1.83036 0.579797 0
M  V30 2276 O 236.345 2.52061 0.933734 0
M  V30 2277 C 234.616 3.27173 -1.43849 0
M  V30 2278 S 236.175 4.17853 -1.33957 0
M  V30 2279 H 232.993 0.635433 -0.318977 0
M  V30 2280 H 235.595 1.33341 -1.4297 0
M  V30 2281 H 234.299 3.25658 -2.49749 0
M  V30 2282 H 233.83 3.83198 -0.890096 0
M  V30 2283 H 235.845 4.95239 -0.308603 0
M  V30 2284 N 235.018 0.912232 1.28515 0
M  V30 2285 C 236.264 0.545405 1.95328 0
M  V30 2286 C 236.597 -0.908313 1.71649 0
M  V30 2287 O 235.872 -1.64575 1.03659 0
M  V30 2288 C 236.155 0.853483 3.4984 0
M  V30 2289 C 236.008 2.35982 3.82926 0
M  V30 2290 C 237.327 0.348589 4.38717 0
M  V30 2291 H 234.446 0.199626 0.709449 0
M  V30 2292 H 237.088 1.1412 1.5191 0
M  V30 2293 H 235.238 0.34643 3.86952 0
M  V30 2294 H 236.91 2.93738 3.55691 0
M  V30 2295 H 235.153 2.81543 3.30024 0
M  V30 2296 H 235.824 2.52593 4.90816 0
M  V30 2297 H 238.3 0.78294 4.08668 0
M  V30 2298 H 237.176 0.593242 5.45685 0
M  V30 2299 H 237.437 -0.751049 4.35674 0
M  V30 2300 N 236.496 -1.42363 0.676048 0
M  V30 2301 C 237.428 -2.29164 -0.0404605 0
M  V30 2302 C 238.441 -1.43747 -0.764245 0
M  V30 2303 O 239.63 -1.67453 -0.618195 0
M  V30 2304 C 236.73 -3.21196 -1.08103 0
M  V30 2305 C 235.903 -4.35273 -0.430812 0
M  V30 2306 C 234.962 -5.08017 -1.37133 0
M  V30 2307 O 233.988 -5.62494 -0.87116 0
M  V30 2308 N 235.19 -5.13647 -2.70456 0
M  V30 2309 H 237.955 -2.91298 0.704667 0
M  V30 2310 H 235.516 -1.53303 0.520559 0
M  V30 2311 H 237.508 -3.66728 -1.71152 0
M  V30 2312 H 236.078 -2.60505 -1.72788 0
M  V30 2313 H 235.298 -3.92372 0.379209 0
M  V30 2314 H 236.586 -5.08795 0.0221132 0
M  V30 2315 H 235.984 -4.708 -3.1363 0
M  V30 2316 H 234.541 -5.62821 -3.28749 0
M  V30 2317 N 237.974 -0.419461 -1.51915 0
M  V30 2318 C 238.904 0.391813 -2.30189 0
M  V30 2319 C 239.885 1.03699 -1.34836 0
M  V30 2320 O 241.07 1.04403 -1.63748 0
M  V30 2321 C 238.2 1.50312 -3.13087 0
M  V30 2322 C 237.154 0.9824 -4.16573 0
M  V30 2323 C 236.48 2.18809 -4.8788 0
M  V30 2324 C 237.78 0.0292356 -5.22292 0
M  V30 2325 H 239.474 -0.26135 -2.98257 0
M  V30 2326 H 237.02 -0.127134 -1.43438 0
M  V30 2327 H 238.973 2.07773 -3.66617 0
M  V30 2328 H 237.697 2.18431 -2.42807 0
M  V30 2329 H 236.356 0.430119 -3.64068 0
M  V30 2330 H 236.004 2.85507 -4.14119 0
M  V30 2331 H 235.704 1.84615 -5.57845 0
M  V30 2332 H 237.228 2.76858 -5.44226 0
M  V30 2333 H 238.642 0.512976 -5.71 0
M  V30 2334 H 237.039 -0.2244 -5.9968 0
M  V30 2335 H 238.109 -0.912931 -4.76228 0
M  V30 2336 N 239.452 1.56882 -0.150215 0
M  V30 2337 C 240.4 2.18214 0.805313 0
M  V30 2338 C 241.394 1.14006 1.25296 0
M  V30 2339 O 242.6 1.3225 1.22107 0
M  V30 2340 H 238.975 0.698762 0.277913 0
M  V30 2341 H 240.946 2.97231 0.263862 0
M  V30 2342 C 239.695 2.82065 2.03309 0
M  V30 2343 H 239.018 3.61968 1.69763 0
M  V30 2344 H 240.458 3.28477 2.68103 0
M  V30 2345 C 238.917 1.80739 2.84315 0
M  V30 2346 O 239.447 1.27983 3.80767 0
M  V30 2347 N 237.653 1.4997 2.48913 0
M  V30 2348 H 237.2 1.93062 1.70542 0
M  V30 2349 H 237.158 0.824217 3.03404 0
M  V30 2350 N 240.93 -0.123565 1.57115 0
M  V30 2351 C 241.862 -1.17739 1.96648 0
M  V30 2352 C 242.875 -1.37906 0.865201 0
M  V30 2353 O 244.064 -1.37062 1.14351 0
M  V30 2354 C 241.164 -2.53821 2.24562 0
M  V30 2355 C 240.337 -2.54317 3.55867 0
M  V30 2356 C 239.396 -3.72112 3.72047 0
M  V30 2357 O 238.422 -3.55907 4.44206 0
M  V30 2358 N 239.624 -4.90498 3.10471 0
M  V30 2359 H 242.389 -0.841147 2.87654 0
M  V30 2360 H 239.95 -0.31289 1.58848 0
M  V30 2361 H 241.942 -3.31175 2.32606 0
M  V30 2362 H 240.512 -2.79645 1.39705 0
M  V30 2363 H 239.732 -1.62711 3.59053 0
M  V30 2364 H 241.02 -2.51701 4.42181 0
M  V30 2365 H 240.418 -5.06567 2.51806 0
M  V30 2366 H 238.975 -5.65544 3.24043 0
M  V30 2367 N 242.408 -1.52605 -0.393616 0
M  V30 2368 C 243.638 -1.71046 -1.15874 0
M  V30 2369 C 244.046 -0.426483 -1.84331 0
M  V30 2370 O 243.389 0.608513 -1.73329 0
M  V30 2371 C 243.451 -2.80118 -2.25332 0
M  V30 2372 C 243.115 -4.21381 -1.76881 0
M  V30 2373 C 244.112 -5.04697 -1.24808 0
M  V30 2374 C 241.797 -4.67683 -1.83244 0
M  V30 2375 C 243.791 -6.32393 -0.797387 0
M  V30 2376 C 241.478 -5.95364 -1.37787 0
M  V30 2377 C 242.476 -6.77549 -0.861208 0
M  V30 2378 O 242.164 -8.02837 -0.413252 0
M  V30 2379 H 241.896 -0.576155 -0.353583 0
M  V30 2380 H 244.45 -2.00018 -0.467123 0
M  V30 2381 H 242.68 -2.46557 -2.97904 0
M  V30 2382 H 244.369 -2.87006 -2.87023 0
M  V30 2383 H 245.135 -4.70111 -1.19252 0
M  V30 2384 H 241.014 -4.03805 -2.22401 0
M  V30 2385 H 244.558 -6.9649 -0.393437 0
M  V30 2386 H 240.455 -6.29455 -1.43026 0
M  V30 2387 H 241.223 -8.16749 -0.53515 0
M  V30 2388 N 243.887 0.651787 -1.4349 0
M  V30 2389 C 245.115 1.43937 -1.48626 0
M  V30 2390 C 245.53 1.8851 -0.104587 0
M  V30 2391 O 244.887 1.5958 0.885464 0
M  V30 2392 C 244.938 2.6734 -2.43334 0
M  V30 2393 O 244.659 2.24631 -3.76128 0
M  V30 2394 C 246.16 3.60683 -2.57726 0
M  V30 2395 H 243.38 0.44213 -0.504739 0
M  V30 2396 H 245.924 0.798944 -1.88248 0
M  V30 2397 H 244.079 3.2752 -2.06904 0
M  V30 2398 H 244.493 3.04485 -4.2707 0
M  V30 2399 H 245.967 4.43933 -3.28067 0
M  V30 2400 H 246.444 4.08126 -1.62265 0
M  V30 2401 H 247.05 3.06384 -2.94973 0
M  V30 2402 N 245.365 1.30045 0.890287 0
M  V30 2403 C 246.295 1.18541 2.01172 0
M  V30 2404 C 247.276 0.0773356 1.69924 0
M  V30 2405 O 248.461 0.25845 1.92473 0
M  V30 2406 C 245.591 0.870941 3.36202 0
M  V30 2407 C 244.545 1.93637 3.81692 0
M  V30 2408 C 243.871 1.475 5.13953 0
M  V30 2409 C 245.171 3.34666 4.00994 0
M  V30 2410 H 246.865 2.12359 2.11054 0
M  V30 2411 H 244.411 1.02238 1.01407 0
M  V30 2412 H 246.364 0.777141 4.14172 0
M  V30 2413 H 245.088 -0.102926 3.26438 0
M  V30 2414 H 243.747 2.01972 3.05946 0
M  V30 2415 H 243.395 0.489551 5.00612 0
M  V30 2416 H 243.095 2.1876 5.4536 0
M  V30 2417 H 244.619 1.39489 5.94454 0
M  V30 2418 H 246.033 3.2912 4.69417 0
M  V30 2419 H 244.43 4.03966 4.43769 0
M  V30 2420 H 245.5 3.76949 3.05021 0
M  V30 2421 N 246.843 -1.10192 1.12674 0
M  V30 2422 C 247.79 -2.16606 0.796906 0
M  V30 2423 C 248.76 -1.64394 -0.237476 0
M  V30 2424 O 249.945 -1.90474 -0.111484 0
M  V30 2425 C 247.085 -3.44116 0.26043 0
M  V30 2426 C 246.198 -4.10268 1.35293 0
M  V30 2427 C 245.333 -5.25507 0.775621 0
M  V30 2428 C 244.372 -5.83567 1.84706 0
M  V30 2429 N 243.509 -6.90179 1.28829 0
M  V30 2430 H 248.349 -2.44163 1.70846 0
M  V30 2431 H 245.886 -1.19846 0.85295 0
M  V30 2432 H 247.844 -4.17143 -0.0686814 0
M  V30 2433 H 246.474 -3.16901 -0.614274 0
M  V30 2434 H 245.526 -3.35184 1.79877 0
M  V30 2435 H 246.838 -4.4946 2.16303 0
M  V30 2436 H 245.992 -6.05398 0.397327 0
M  V30 2437 H 244.731 -4.87656 -0.0656581 0
M  V30 2438 H 243.736 -5.02344 2.23452 0
M  V30 2439 H 244.961 -6.23482 2.69161 0
M  V30 2440 H 242.907 -6.54322 0.468881 0
M  V30 2441 H 242.824 -7.28097 2.03497 0
M  V30 2442 H 244.092 -7.73844 0.937311 0
M  V30 2443 N 248.321 -0.919034 -1.28029 0
M  V30 2444 C 249.598 -0.473668 -1.89778 0
M  V30 2445 C 249.978 1.04783 -1.83259 0
M  V30 2446 O 249.326 1.8982 -1.27202 0
M  V30 2447 C 249.536 -1.00998 -3.34066 0
M  V30 2448 C 250.884 -1.06525 -4.1102 0
M  V30 2449 O 251.908 -0.958996 -3.43048 0
M  V30 2450 O 250.767 -1.22776 -5.3253 0
M  V30 2451 H 247.861 -0.15098 -0.813101 0
M  V30 2452 H 250.407 -1.01016 -1.36359 0
M  V30 2453 H 249.179 -2.05392 -3.33061 0
M  V30 2454 H 248.802 -0.454626 -3.94992 0
M  V30 2455 N 249.799 1.42003 -0.683588 0
M  V30 2456 C 250.709 2.34597 -0.0109075 0
M  V30 2457 C 251.725 1.55576 0.779245 0
M  V30 2458 O 252.901 1.88107 0.719555 0
M  V30 2459 C 249.966 3.34199 0.922588 0
M  V30 2460 C 249.027 4.29115 0.125984 0
M  V30 2461 C 248.26 5.23959 1.01502 0
M  V30 2462 O 248.483 5.23952 2.25456 0
M  V30 2463 O 247.417 6.00053 0.47111 0
M  V30 2464 H 251.243 2.93675 -0.773853 0
M  V30 2465 H 248.828 1.42654 -0.443861 0
M  V30 2466 H 250.71 3.95365 1.45823 0
M  V30 2467 H 249.385 2.77582 1.66523 0
M  V30 2468 H 248.292 3.71335 -0.453969 0
M  V30 2469 H 249.625 4.88798 -0.577736 0
M  V30 2470 N 251.277 0.427512 1.51691 0
M  V30 2471 C 252.526 -0.143679 2.01188 0
M  V30 2472 C 252.839 -1.44642 1.31674 0
M  V30 2473 O 254.045 -2.09997 1.72086 0
M  V30 2474 C 252.501 -0.306602 3.58592 0
M  V30 2475 C 252.109 0.985125 4.37035 0
M  V30 2476 C 253.853 -0.832091 4.16265 0
M  V30 2477 C 251.76 0.788382 5.86122 0
M  V30 2478 H 250.69 -0.0574701 0.751807 0
M  V30 2479 H 253.341 0.555772 1.74881 0
M  V30 2480 H 251.723 -1.06882 3.81303 0
M  V30 2481 H 252.897 1.75492 4.26074 0
M  V30 2482 H 251.212 1.4384 3.90767 0
M  V30 2483 H 253.809 -0.995617 5.25349 0
M  V30 2484 H 254.152 -1.81186 3.74803 0
M  V30 2485 H 254.685 -0.128444 3.97593 0
M  V30 2486 H 251.424 1.74025 6.31978 0
M  V30 2487 H 250.944 0.0582143 5.99772 0
M  V30 2488 H 252.623 0.437722 6.45518 0
M  V30 2489 N 252.755 -1.56801 0.158532 0
M  V30 2490 C 254.003 -1.96102 -0.488712 0
M  V30 2491 C 254.324 -1.04498 -1.64636 0
M  V30 2492 O 253.594 -0.108783 -1.95598 0
M  V30 2493 H 252.174 -0.724102 -0.183535 0
M  V30 2494 H 254.836 -1.93457 0.236728 0
M  V30 2495 H 253.932 -3.00097 -0.857219 0
M  V30 2496 N 254.233 0.115231 -1.57178 0
M  V30 2497 C 255.18 1.14115 -2.00615 0
M  V30 2498 C 256.15 1.40939 -0.878941 0
M  V30 2499 O 257.335 1.52741 -1.14345 0
M  V30 2500 C 254.475 2.46156 -2.4187 0
M  V30 2501 C 253.588 2.26236 -3.68024 0
M  V30 2502 C 252.723 3.51534 -3.98243 0
M  V30 2503 C 251.762 3.26787 -5.17568 0
M  V30 2504 N 250.899 4.44298 -5.43639 0
M  V30 2505 H 255.739 0.763743 -2.88047 0
M  V30 2506 H 253.276 0.365615 -1.42484 0
M  V30 2507 H 255.234 3.23189 -2.63827 0
M  V30 2508 H 253.864 2.81783 -1.57475 0
M  V30 2509 H 252.916 1.40102 -3.5366 0
M  V30 2510 H 254.228 2.03929 -4.55208 0
M  V30 2511 H 253.382 4.36984 -4.20868 0
M  V30 2512 H 252.121 3.76876 -3.09541 0
M  V30 2513 H 251.126 2.39729 -4.94783 0
M  V30 2514 H 252.351 3.02812 -6.0785 0
M  V30 2515 H 250.297 4.69754 -4.57895 0
M  V30 2516 H 250.214 4.25109 -6.25154 0
M  V30 2517 H 251.482 5.3087 -5.70786 0
M  V30 2518 N 255.711 1.52812 0.385517 0
M  V30 2519 C 256.959 1.67694 1.12797 0
M  V30 2520 C 257.28 0.421115 1.90399 0
M  V30 2521 O 256.55 -0.564551 1.87589 0
M  V30 2522 H 255.13 0.618155 0.419396 0
M  V30 2523 H 257.792 1.89938 0.436972 0
M  V30 2524 H 256.888 2.52896 1.82894 0
M  V30 2525 N 257.189 -0.644168 1.43834 0
M  V30 2526 C 258.414 -1.43642 1.49605 0
M  V30 2527 C 258.839 -1.8773 0.117913 0
M  V30 2528 O 258.197 -1.57938 -0.890239 0
M  V30 2529 C 258.245 -2.6416 2.45463 0
M  V30 2530 O 257.349 -3.63538 1.94714 0
M  V30 2531 H 256.69 -0.430329 0.50568 0
M  V30 2532 H 259.22 -0.787448 1.8884 0
M  V30 2533 H 259.23 -3.11864 2.63068 0
M  V30 2534 H 257.905 -2.31414 3.45572 0
M  V30 2535 H 256.482 -3.2273 1.86814 0
M  V30 2536 N 258.668 -1.30515 -0.883378 0
M  V30 2537 C 259.898 -1.22182 -1.66599 0
M  V30 2538 C 260.306 0.217507 -1.87946 0
M  V30 2539 O 259.649 1.1554 -1.42815 0
M  V30 2540 C 259.711 -1.88146 -3.06335 0
M  V30 2541 C 259.375 -3.37476 -3.08154 0
M  V30 2542 C 260.372 -4.33443 -2.87094 0
M  V30 2543 C 258.057 -3.7895 -3.29701 0
M  V30 2544 C 260.051 -5.68858 -2.8754 0
M  V30 2545 C 257.738 -5.14482 -3.29776 0
M  V30 2546 C 258.736 -6.09246 -3.0872 0
M  V30 2547 O 258.424 -7.42302 -3.08615 0
M  V30 2548 H 258.156 -0.423898 -0.52658 0
M  V30 2549 H 260.71 -1.72703 -1.11188 0
M  V30 2550 H 258.94 -1.32157 -3.63416 0
M  V30 2551 H 260.629 -1.7391 -3.66756 0
M  V30 2552 H 261.395 -4.02733 -2.70243 0
M  V30 2553 H 257.274 -3.05631 -3.45124 0
M  V30 2554 H 260.818 -6.428 -2.71024 0
M  V30 2555 H 256.715 -5.44832 -3.46163 0
M  V30 2556 H 257.483 -7.5131 -3.24769 0
M  V30 2557 N 260.146 1.09593 -1.13257 0
M  V30 2558 C 261.394 1.81375 -0.891492 0
M  V30 2559 C 261.715 1.86049 0.584009 0
M  V30 2560 O 260.985 1.34481 1.42449 0
M  V30 2561 H 259.565 0.671708 -0.326828 0
M  V30 2562 H 262.227 1.3256 -1.42877 0
M  V30 2563 H 261.323 2.84612 -1.28071 0
M  V30 2564 N 261.624 0.925811 1.2754 0
M  V30 2565 C 262.87 0.566092 1.94739 0
M  V30 2566 C 263.203 -0.890057 1.72603 0
M  V30 2567 O 262.478 -1.63467 1.05399 0
M  V30 2568 C 262.761 0.89054 3.48915 0
M  V30 2569 C 262.614 2.4003 3.80402 0
M  V30 2570 C 263.933 0.395101 4.38323 0
M  V30 2571 H 261.052 0.20714 0.707292 0
M  V30 2572 H 263.694 1.15725 1.50691 0
M  V30 2573 H 261.844 0.387452 3.86563 0
M  V30 2574 H 263.516 2.97494 3.52555 0
M  V30 2575 H 261.759 2.85028 3.2702 0
M  V30 2576 H 262.43 2.57785 4.8811 0
M  V30 2577 H 264.906 0.826241 4.07814 0
M  V30 2578 H 263.782 0.651086 5.45025 0
M  V30 2579 H 264.043 -0.704798 4.36446 0
M  V30 2580 N 263.102 -1.41638 0.69111 0
M  V30 2581 C 264.348 -2.01598 0.220519 0
M  V30 2582 C 264.681 -1.54594 -1.17535 0
M  V30 2583 O 263.956 -0.755177 -1.79241 0
M  V30 2584 C 264.239 -3.59062 0.273243 0
M  V30 2585 C 264.092 -4.16203 1.70573 0
M  V30 2586 C 265.411 -4.38546 -0.369457 0
M  V30 2587 H 262.53 -0.732468 0.0816045 0
M  V30 2588 H 265.172 -1.68445 0.878986 0
M  V30 2589 H 263.322 -3.87435 -0.287411 0
M  V30 2590 H 264.994 -3.98722 2.31989 0
M  V30 2591 H 263.237 -3.71414 2.2413 0
M  V30 2592 H 263.908 -5.25358 1.69419 0
M  V30 2593 H 266.384 -4.1596 0.107977 0
M  V30 2594 H 265.26 -5.48069 -0.302002 0
M  V30 2595 H 265.521 -4.17662 -1.44951 0
M  V30 2596 N 264.58 -0.43555 -1.51462 0
M  V30 2597 C 265.527 0.376797 -2.27703 0
M  V30 2598 C 266.497 1.01838 -1.31219 0
M  V30 2599 O 267.682 1.03762 -1.60119 0
M  V30 2600 C 264.822 1.47301 -3.12084 0
M  V30 2601 C 263.935 0.849744 -4.2356 0
M  V30 2602 C 263.07 1.92086 -4.95254 0
M  V30 2603 C 262.109 1.27593 -5.98654 0
M  V30 2604 N 261.246 2.28833 -6.63762 0
M  V30 2605 H 266.086 -0.279734 -2.96684 0
M  V30 2606 H 263.623 -0.149795 -1.46335 0
M  V30 2607 H 265.581 2.11984 -3.59331 0
M  V30 2608 H 264.211 2.0992 -2.45221 0
M  V30 2609 H 263.263 0.0912529 -3.80291 0
M  V30 2610 H 264.575 0.338878 -4.97648 0
M  V30 2611 H 263.729 2.64435 -5.46039 0
M  V30 2612 H 262.468 2.46545 -4.20793 0
M  V30 2613 H 261.473 0.537893 -5.47162 0
M  V30 2614 H 262.698 0.738693 -6.7507 0
M  V30 2615 H 260.644 2.82375 -5.92115 0
M  V30 2616 H 260.561 1.82632 -7.33608 0
M  V30 2617 H 261.829 3.00671 -7.19178 0
M  V30 2618 N 266.058 1.56714 -0.166846 0
M  V30 2619 C 266.988 2.20754 0.760913 0
M  V30 2620 C 267.969 1.16178 1.24244 0
M  V30 2621 O 269.154 1.44592 1.29641 0
M  V30 2622 C 266.284 2.84478 1.99223 0
M  V30 2623 C 265.238 3.95053 1.64672 0
M  V30 2624 C 264.564 4.45805 2.95232 0
M  V30 2625 C 265.864 5.14865 0.878155 0
M  V30 2626 H 267.558 2.98537 0.22713 0
M  V30 2627 H 265.104 1.43596 0.107805 0
M  V30 2628 H 267.057 3.27951 2.64624 0
M  V30 2629 H 265.781 2.04056 2.55007 0
M  V30 2630 H 264.44 3.52228 1.01641 0
M  V30 2631 H 264.088 3.62181 3.49047 0
M  V30 2632 H 263.788 5.204 2.7287 0
M  V30 2633 H 265.312 4.91962 3.6167 0
M  V30 2634 H 266.726 5.55059 1.43466 0
M  V30 2635 H 265.123 5.95348 0.753738 0
M  V30 2636 H 266.193 4.84735 -0.126377 0
M  V30 2637 N 267.536 -0.106894 1.57237 0
M  V30 2638 C 268.499 -1.11466 2.0027 0
M  V30 2639 C 269.499 -1.33623 0.894519 0
M  V30 2640 O 270.689 -1.29935 1.16028 0
M  V30 2641 C 267.821 -2.46646 2.35327 0
M  V30 2642 H 269.014 -0.744516 2.90512 0
M  V30 2643 H 266.567 -0.351576 1.52295 0
M  V30 2644 H 267.302 -2.88558 1.48003 0
M  V30 2645 H 267.087 -2.31915 3.16161 0
M  V30 2646 H 268.577 -3.19151 2.69318 0
M  V30 2647 N 269.014 -1.53014 -0.377408 0
M  V30 2648 C 270.244 -1.72265 -1.14054 0
M  V30 2649 C 270.652 -0.44601 -1.83868 0
M  V30 2650 O 269.995 0.590095 -1.73964 0
M  V30 2651 C 270.057 -2.82492 -2.22348 0
M  V30 2652 C 269.721 -4.23233 -1.72402 0
M  V30 2653 C 270.718 -5.05992 -1.19448 0
M  V30 2654 C 268.403 -4.696 -1.78273 0
M  V30 2655 C 270.397 -6.33203 -0.730268 0
M  V30 2656 C 268.084 -5.96792 -1.31464 0
M  V30 2657 C 269.082 -6.78424 -0.789297 0
M  V30 2658 O 268.77 -8.0323 -0.328077 0
M  V30 2659 H 268.502 -0.579873 -0.347453 0
M  V30 2660 H 271.056 -2.00502 -0.445882 0
M  V30 2661 H 269.286 -2.49702 -2.95272 0
M  V30 2662 H 270.975 -2.90034 -2.83963 0
M  V30 2663 H 271.741 -4.71349 -1.14259 0
M  V30 2664 H 267.62 -4.06142 -2.18106 0
M  V30 2665 H 271.164 -6.96868 -0.319542 0
M  V30 2666 H 267.061 -6.30937 -1.36342 0
M  V30 2667 H 267.829 -8.1727 -0.448493 0
M  V30 2668 N 270.492 0.636531 -1.44174 0
M  V30 2669 C 271.44 1.76995 -1.50915 0
M  V30 2670 C 272.434 1.65053 -0.381295 0
M  V30 2671 O 273.64 1.71197 -0.55601 0
M  V30 2672 H 270.015 0.584247 -0.473455 0
M  V30 2673 H 271.986 1.68432 -2.4632 0
M  V30 2674 C 270.735 3.15314 -1.46534 0
M  V30 2675 H 270.058 3.25149 -2.32633 0
M  V30 2676 H 271.498 3.9453 -1.55312 0
M  V30 2677 C 269.957 3.3639 -0.185305 0
M  V30 2678 O 270.487 3.94699 0.746688 0
M  V30 2679 N 268.693 2.9046 -0.0901606 0
M  V30 2680 H 268.24 2.43193 -0.849416 0
M  V30 2681 H 268.198 3.04937 0.765553 0
M  V30 2682 N 271.97 1.30982 0.876444 0
M  V30 2683 C 272.88 1.2003 2.01569 0
M  V30 2684 C 273.896 0.11838 1.73597 0
M  V30 2685 O 275.072 0.33495 1.98595 0
M  V30 2686 C 272.137 0.901637 3.34771 0
M  V30 2687 C 271.198 2.06979 3.76109 0
M  V30 2688 C 270.431 1.78529 5.02954 0
M  V30 2689 O 270.654 0.717296 5.65872 0
M  V30 2690 O 269.588 2.64019 5.40905 0
M  V30 2691 H 273.414 2.15753 2.13739 0
M  V30 2692 H 270.999 1.10658 1.00375 0
M  V30 2693 H 272.881 0.750645 4.1466 0
M  V30 2694 H 271.556 -0.0256141 3.2369 0
M  V30 2695 H 270.463 2.27616 2.96887 0
M  V30 2696 H 271.796 2.97907 3.91807 0
M  V30 2697 N 273.449 -1.08991 1.13837 0
M  V30 2698 C 274.397 -2.17841 0.815347 0
M  V30 2699 C 275.391 -1.68164 -0.204233 0
M  V30 2700 O 276.597 -1.79897 -0.0609304 0
M  V30 2701 H 272.972 -0.710654 0.245915 0
M  V30 2702 H 274.943 -2.42315 1.74143 0
M  V30 2703 C 273.692 -3.46381 0.302614 0
M  V30 2704 H 273.015 -3.84979 1.0785 0
M  V30 2705 H 274.455 -4.23844 0.115074 0
M  V30 2706 C 272.914 -3.22556 -0.972591 0
M  V30 2707 O 273.444 -3.45599 -2.04754 0
M  V30 2708 N 271.65 -2.76134 -0.905455 0
M  V30 2709 H 271.197 -2.57582 -0.0305421 0
M  V30 2710 H 271.155 -2.60571 -1.75926 0
M  V30 2711 N 274.927 -0.932562 -1.27047 0
M  V30 2712 C 276.204 -0.49377 -1.89265 0
M  V30 2713 C 276.584 1.02833 -1.8436 0
M  V30 2714 O 275.932 1.88461 -1.29209 0
M  V30 2715 C 276.142 -1.04536 -3.32976 0
M  V30 2716 C 277.49 -1.10879 -4.09867 0
M  V30 2717 O 278.514 -0.995327 -3.42011 0
M  V30 2718 O 277.373 -1.28417 -5.31198 0
M  V30 2719 H 274.467 -0.159596 -0.811454 0
M  V30 2720 H 277.013 -1.02457 -1.3528 0
M  V30 2721 H 275.785 -2.08913 -3.30864 0
M  V30 2722 H 275.408 -0.496494 -3.94488 0
M  V30 2723 N 276.405 1.4127 -0.698611 0
M  V30 2724 C 277.353 2.32588 -0.023855 0
M  V30 2725 C 278.347 1.51128 0.765292 0
M  V30 2726 O 279.553 1.67043 0.670571 0
M  V30 2727 H 275.928 0.751918 0.0110871 0
M  V30 2728 H 277.899 2.87167 -0.811031 0
M  V30 2729 C 276.648 3.35947 0.896369 0
M  V30 2730 H 275.971 3.98684 0.298548 0
M  V30 2731 H 277.411 4.02376 1.33676 0
M  V30 2732 C 275.87 2.70076 2.01396 0
M  V30 2733 O 276.4 2.55093 3.10307 0
M  V30 2734 N 274.606 2.28724 1.79259 0
M  V30 2735 H 274.153 2.4111 0.906841 0
M  V30 2736 H 274.111 1.84986 2.54219 0
M  V30 2737 N 277.883 0.443576 1.51229 0
M  V30 2738 C 279.111 -0.11929 2.06556 0
M  V30 2739 C 279.526 -1.35921 1.31038 0
M  V30 2740 O 278.883 -1.78675 0.371704 0
M  V30 2741 C 278.934 -0.435228 3.5887 0
M  V30 2742 O 278.655 0.755486 4.31537 0
M  V30 2743 C 280.156 -1.04808 4.30732 0
M  V30 2744 H 277.376 -0.0051584 0.67098 0
M  V30 2745 H 279.92 0.624453 1.94733 0
M  V30 2746 H 278.075 -1.12887 3.70588 0
M  V30 2747 H 278.489 0.483491 5.22267 0
M  V30 2748 H 279.963 -1.2191 5.3837 0
M  V30 2749 H 280.44 -2.03081 3.89429 0
M  V30 2750 H 281.046 -0.393637 4.23474 0
M  V30 2751 N 279.361 -1.56624 0.175154 0
M  V30 2752 C 280.591 -2.01082 -0.474283 0
M  V30 2753 C 280.999 -1.05447 -1.57091 0
M  V30 2754 O 280.342 -0.0480595 -1.83637 0
M  V30 2755 C 280.404 -3.41963 -1.10911 0
M  V30 2756 C 280.068 -4.56742 -0.153666 0
M  V30 2757 C 281.065 -5.16076 0.629448 0
M  V30 2758 C 278.75 -5.02277 -0.0483776 0
M  V30 2759 C 280.744 -6.19377 1.50501 0
M  V30 2760 C 278.431 -6.05427 0.830768 0
M  V30 2761 C 279.429 -6.63849 1.60605 0
M  V30 2762 O 279.117 -7.64998 2.47049 0
M  V30 2763 H 278.849 -0.664261 -0.125432 0
M  V30 2764 H 281.403 -2.03549 0.275163 0
M  V30 2765 H 279.633 -3.36422 -1.90676 0
M  V30 2766 H 281.322 -3.70352 -1.66114 0
M  V30 2767 H 282.088 -4.81776 0.558297 0
M  V30 2768 H 277.967 -4.56513 -0.641611 0
M  V30 2769 H 281.511 -6.64906 2.1106 0
M  V30 2770 H 277.408 -6.39151 0.903107 0
M  V30 2771 H 278.176 -7.82336 2.40607 0
M  V30 2772 N 280.839 0.0985539 -1.57292 0
M  V30 2773 C 282.069 0.815135 -1.8984 0
M  V30 2774 C 282.477 1.7297 -0.766679 0
M  V30 2775 O 281.82 1.81698 0.270483 0
M  V30 2776 C 281.882 1.6842 -3.17608 0
M  V30 2777 C 281.546 0.94182 -4.4719 0
M  V30 2778 C 282.543 0.273212 -5.19182 0
M  V30 2779 C 280.228 0.916927 -4.9386 0
M  V30 2780 C 282.222 -0.410361 -6.36078 0
M  V30 2781 C 279.909 0.229567 -6.10669 0
M  V30 2782 C 280.907 -0.432902 -6.81627 0
M  V30 2783 O 280.595 -1.10925 -7.9621 0
M  V30 2784 H 280.327 0.238501 -0.632529 0
M  V30 2785 H 282.881 0.0812659 -2.05239 0
M  V30 2786 H 281.111 2.46022 -2.98345 0
M  V30 2787 H 282.8 2.27704 -3.36015 0
M  V30 2788 H 283.566 0.283927 -4.84168 0
M  V30 2789 H 279.445 1.42201 -4.3852 0
M  V30 2790 H 282.989 -0.928013 -6.914 0
M  V30 2791 H 278.886 0.216686 -6.45136 0
M  V30 2792 H 279.654 -1.01579 -8.12172 0
M  V30 2793 N 282.317 1.53212 0.369288 0
M  V30 2794 C 283.28 1.7872 1.43498 0
M  V30 2795 C 284.28 0.657554 1.46741 0
M  V30 2796 O 285.47 0.925736 1.47566 0
M  V30 2797 C 282.602 1.90591 2.82645 0
M  V30 2798 H 283.795 2.73894 1.22156 0
M  V30 2799 H 281.348 1.44233 0.602203 0
M  V30 2800 H 282.083 0.974709 3.09306 0
M  V30 2801 H 281.868 2.72751 2.8169 0
M  V30 2802 H 283.358 2.11931 3.59826 0
M  V30 2803 N 283.795 -0.628877 1.44509 0
M  V30 2804 C 284.728 -1.75367 1.46019 0
M  V30 2805 C 285.706 -1.59444 0.318787 0
M  V30 2806 O 286.89 -1.81297 0.516099 0
M  V30 2807 C 284.017 -3.12965 1.29501 0
M  V30 2808 C 283.063 -3.47532 2.47233 0
M  V30 2809 S 283.896 -3.44758 4.09758 0
M  V30 2810 C 285.052 -4.84973 3.95667 0
M  V30 2811 H 285.285 -1.7382 2.41193 0
M  V30 2812 H 282.818 -0.803686 1.31834 0
M  V30 2813 H 284.776 -3.92367 1.20658 0
M  V30 2814 H 283.437 -3.12049 0.358341 0
M  V30 2815 H 282.63 -4.47664 2.31544 0
M  V30 2816 H 282.232 -2.75598 2.52828 0
M  V30 2817 H 284.524 -5.74255 3.59496 0
M  V30 2818 H 285.467 -5.05716 4.95638 0
M  V30 2819 H 285.875 -4.59653 3.27688 0
M  V30 2820 N 285.273 -1.31445 -0.869486 0
M  V30 2821 C 286.22 -1.19135 -1.97675 0
M  V30 2822 C 287.19 -0.0770266 -1.65921 0
M  V30 2823 O 288.375 -0.249972 -1.89155 0
M  V30 2824 C 285.515 -0.905149 -3.33018 0
M  V30 2825 C 284.628 -2.10285 -3.77365 0
M  V30 2826 C 283.763 -1.75339 -5.01427 0
M  V30 2827 C 282.802 -2.91515 -5.38224 0
M  V30 2828 N 281.939 -2.56762 -6.53466 0
M  V30 2829 H 286.779 -2.13853 -2.07535 0
M  V30 2830 H 284.316 -1.06379 -1.01597 0
M  V30 2831 H 286.274 -0.719765 -4.10944 0
M  V30 2832 H 284.904 0.00519624 -3.228 0
M  V30 2833 H 283.956 -2.39899 -2.95216 0
M  V30 2834 H 285.268 -2.97237 -4.00564 0
M  V30 2835 H 284.422 -1.53266 -5.87022 0
M  V30 2836 H 283.161 -0.855801 -4.80133 0
M  V30 2837 H 282.166 -3.14237 -4.51149 0
M  V30 2838 H 283.391 -3.81985 -5.61484 0
M  V30 2839 H 281.337 -1.69526 -6.33717 0
M  V30 2840 H 281.254 -3.37243 -6.76612 0
M  V30 2841 H 282.522 -2.38083 -7.42251 0
M  V30 2842 N 286.751 1.08385 -1.14413 0
M  V30 2843 C 287.997 1.81044 -0.913834 0
M  V30 2844 C 288.33 1.86004 0.558209 0
M  V30 2845 O 287.605 1.33606 1.4135 0
M  V30 2846 C 287.888 3.26648 -1.51569 0
M  V30 2847 C 287.741 3.29895 -3.0576 0
M  V30 2848 C 289.06 4.23629 -1.19273 0
M  V30 2849 H 286.179 0.65727 -0.333414 0
M  V30 2850 H 288.821 1.26896 -1.41412 0
M  V30 2851 H 286.971 3.72889 -1.09023 0
M  V30 2852 H 288.643 2.91977 -3.57137 0
M  V30 2853 H 286.886 2.69163 -3.40197 0
M  V30 2854 H 287.557 4.32516 -3.42977 0
M  V30 2855 H 290.033 3.85727 -1.56057 0
M  V30 2856 H 288.909 5.23822 -1.64017 0
M  V30 2857 H 289.17 4.41968 -0.108068 0
M  V30 2858 N 288.23 0.939286 1.26551 0
M  V30 2859 C 289.16 0.465044 2.28822 0
M  V30 2860 C 290.141 -0.480692 1.63167 0
M  V30 2861 O 291.326 -0.382955 1.90387 0
M  V30 2862 C 288.456 -0.27234 3.46231 0
M  V30 2863 C 287.41 0.58666 4.2396 0
M  V30 2864 C 286.736 -0.280573 5.33963 0
M  V30 2865 C 288.036 1.85704 4.88171 0
M  V30 2866 H 289.73 1.31979 2.68741 0
M  V30 2867 H 287.276 0.636061 1.29191 0
M  V30 2868 H 289.229 -0.615133 4.16886 0
M  V30 2869 H 287.953 -1.16121 3.0526 0
M  V30 2870 H 286.612 0.91232 3.55067 0
M  V30 2871 H 286.26 -1.16874 4.89234 0
M  V30 2872 H 285.96 0.29076 5.8688 0
M  V30 2873 H 287.484 -0.618678 6.07458 0
M  V30 2874 H 288.898 1.58161 5.51052 0
M  V30 2875 H 287.295 2.37279 5.51197 0
M  V30 2876 H 288.365 2.56957 4.11219 0
M  V30 2877 N 289.708 -1.40897 0.706093 0
M  V30 2878 C 290.933 -2.05895 0.249435 0
M  V30 2879 C 291.358 -1.52823 -1.09666 0
M  V30 2880 O 290.716 -0.659589 -1.68876 0
M  V30 2881 C 290.764 -3.59872 0.22904 0
M  V30 2882 O 289.868 -4.04708 -0.792784 0
M  V30 2883 H 289.209 -0.653206 0.119241 0
M  V30 2884 H 291.739 -1.80471 0.96391 0
M  V30 2885 H 291.749 -4.07951 0.0634791 0
M  V30 2886 H 290.424 -3.97866 1.21141 0
M  V30 2887 H 289.001 -3.68111 -0.59572 0
M  V30 2888 N 291.186 -0.45159 -1.50991 0
M  V30 2889 C 292.133 0.352625 -2.2809 0
M  V30 2890 C 293.103 1.0044 -1.32291 0
M  V30 2891 O 294.288 1.02058 -1.6121 0
M  V30 2892 C 291.428 1.43983 -3.13629 0
M  V30 2893 C 290.541 0.804772 -4.24438 0
M  V30 2894 C 289.676 1.86822 -4.97263 0
M  V30 2895 C 288.715 1.21236 -5.99973 0
M  V30 2896 N 287.852 2.2178 -6.66152 0
M  V30 2897 H 292.692 -0.311186 -2.96371 0
M  V30 2898 H 290.229 -0.165308 -1.46168 0
M  V30 2899 H 292.187 2.08161 -3.61559 0
M  V30 2900 H 290.817 2.07307 -2.47434 0
M  V30 2901 H 289.869 0.0509129 -3.80366 0
M  V30 2902 H 291.181 0.286076 -4.97979 0
M  V30 2903 H 290.335 2.58628 -5.48813 0
M  V30 2904 H 289.074 2.42068 -4.23385 0
M  V30 2905 H 288.079 0.479828 -5.47702 0
M  V30 2906 H 289.304 0.667051 -6.75816 0
M  V30 2907 H 287.25 2.76079 -5.95077 0
M  V30 2908 H 287.167 1.74841 -7.35504 0
M  V30 2909 H 288.435 2.93026 -7.22327 0
M  V30 2910 N 292.664 1.56529 -0.183458 0
M  V30 2911 C 293.611 2.18546 0.742055 0
M  V30 2912 C 294.581 1.12912 1.2182 0
M  V30 2913 O 295.766 1.41115 1.28418 0
M  V30 2914 C 292.906 2.83977 1.96089 0
M  V30 2915 C 292.019 4.04105 1.52719 0
M  V30 2916 C 291.154 4.57427 2.70063 0
M  V30 2917 C 290.193 5.69938 2.23243 0
M  V30 2918 N 289.33 6.17717 3.33722 0
M  V30 2919 H 294.17 2.97284 0.206432 0
M  V30 2920 H 291.707 1.46823 0.0901571 0
M  V30 2921 H 293.665 3.20077 2.67594 0
M  V30 2922 H 292.295 2.07822 2.47002 0
M  V30 2923 H 291.347 3.73745 0.708436 0
M  V30 2924 H 292.659 4.85513 1.1436 0
M  V30 2925 H 291.813 4.95772 3.49708 0
M  V30 2926 H 290.552 3.75101 3.11689 0
M  V30 2927 H 289.557 5.31133 1.42048 0
M  V30 2928 H 290.782 6.54073 1.82661 0
M  V30 2929 H 288.728 5.38317 3.74902 0
M  V30 2930 H 288.645 6.94146 2.99495 0
M  V30 2931 H 289.913 6.60713 4.13616 0
M  V30 2932 N 294.142 -0.090211 1.57342 0
M  V30 2933 C 295.089 -1.10909 2.02405 0
M  V30 2934 C 296.059 -1.39523 0.901252 0
M  V30 2935 O 297.244 -1.50903 1.1676 0
M  V30 2936 C 294.384 -2.42277 2.45755 0
M  V30 2937 C 293.497 -2.20352 3.71576 0
M  V30 2938 C 292.632 -3.45154 4.03785 0
M  V30 2939 C 291.671 -3.18512 5.22701 0
M  V30 2940 N 290.808 -4.35593 5.50639 0
M  V30 2941 H 295.648 -0.71782 2.89225 0
M  V30 2942 H 293.185 -0.342901 1.43048 0
M  V30 2943 H 295.143 -3.18951 2.68935 0
M  V30 2944 H 293.773 -2.79242 1.61938 0
M  V30 2945 H 292.825 -1.34458 3.55844 0
M  V30 2946 H 294.137 -1.96661 4.58395 0
M  V30 2947 H 293.291 -4.30233 4.27767 0
M  V30 2948 H 292.03 -3.71904 3.15498 0
M  V30 2949 H 291.035 -2.31827 4.98534 0
M  V30 2950 H 292.26 -2.93103 6.12591 0
M  V30 2951 H 290.206 -4.6241 4.6531 0
M  V30 2952 H 290.123 -4.1511 6.31838 0
M  V30 2953 H 291.391 -5.21723 5.7916 0
M  V30 2954 N 295.62 -1.53406 -0.361157 0
M  V30 2955 C 296.55 -1.83136 -1.44857 0
M  V30 2956 C 297.531 -0.685174 -1.5569 0
M  V30 2957 O 298.716 -0.93544 -1.70186 0
M  V30 2958 C 295.846 -2.02522 -2.82138 0
M  V30 2959 C 294.8 -3.18302 -2.86126 0
M  V30 2960 C 294.126 -3.22989 -4.26125 0
M  V30 2961 C 295.426 -4.56796 -2.53248 0
M  V30 2962 H 297.12 -2.74201 -1.20226 0
M  V30 2963 H 294.666 -1.31938 -0.576922 0
M  V30 2964 H 296.619 -2.21904 -3.58241 0
M  V30 2965 H 295.343 -1.08172 -3.08166 0
M  V30 2966 H 294.002 -2.98747 -2.12475 0
M  V30 2967 H 293.65 -2.26267 -4.49235 0
M  V30 2968 H 293.35 -4.00781 -4.29708 0
M  V30 2969 H 294.874 -3.44559 -5.04094 0
M  V30 2970 H 296.288 -4.7631 -3.19064 0
M  V30 2971 H 294.685 -5.36862 -2.68141 0
M  V30 2972 H 295.755 -4.61606 -1.48484 0
M  V30 2973 N 297.098 0.621204 -1.44841 0
M  V30 2974 C 298.347 1.37658 -1.47422 0
M  V30 2975 C 298.66 1.95264 -0.114629 0
M  V30 2976 O 299.866 2.71494 -0.0180199 0
M  V30 2977 C 298.322 2.49285 -2.59586 0
M  V30 2978 C 297.93 1.98149 -4.01797 0
M  V30 2979 C 299.674 3.26409 -2.71399 0
M  V30 2980 C 297.581 3.07178 -5.05367 0
M  V30 2981 H 296.511 0.517344 -0.548517 0
M  V30 2982 H 299.162 0.667257 -1.70938 0
M  V30 2983 H 297.544 3.22839 -2.29328 0
M  V30 2984 H 298.718 1.31395 -4.41669 0
M  V30 2985 H 297.033 1.33812 -3.94314 0
M  V30 2986 H 299.63 4.07706 -3.45948 0
M  V30 2987 H 299.973 3.76535 -1.77559 0
M  V30 2988 H 300.506 2.5995 -3.01116 0
M  V30 2989 H 297.245 2.61985 -6.00869 0
M  V30 2990 H 296.765 3.72542 -4.70077 0
M  V30 2991 H 298.444 3.71789 -5.29511 0
M  V30 2992 N 298.576 1.31904 0.862503 0
M  V30 2993 C 299.992 1.10724 1.14945 0
M  V30 2994 C 300.192 -0.117421 2.01158 0
M  V30 2995 O 299.248 -0.804595 2.39338 0
M  V30 2996 C 300.561 2.38267 1.83437 0
M  V30 2997 C 302.109 2.43949 1.96106 0
M  V30 2998 C 302.584 3.71394 2.68013 0
M  V30 2999 N 304.075 3.72331 2.75543 0
M  V30 3000 C 304.81 4.67641 3.31812 0
M  V30 3001 N 304.306 5.73313 3.88953 0
M  V30 3002 N 306.099 4.5515 3.29841 0
M  V30 3003 H 298.25 2.10436 0.288191 0
M  V30 3004 H 300.513 0.928705 0.190292 0
M  V30 3005 H 300.219 3.27759 1.27542 0
M  V30 3006 H 300.093 2.48633 2.83657 0
M  V30 3007 H 302.48 1.54922 2.51164 0
M  V30 3008 H 302.561 2.37543 0.949059 0
M  V30 3009 H 302.205 4.60791 2.13621 0
M  V30 3010 H 302.135 3.75069 3.69636 0
M  V30 3011 H 304.626 2.95947 2.34997 0
M  V30 3012 H 304.939 6.42107 4.30022 0
M  V30 3013 H 303.284 5.77077 3.87308 0
M  V30 3014 H 306.475 3.71766 2.84443 0
M  V30 3015 H 306.648 5.29604 3.73394 0
M  V30 3016 N 300.054 -1.07777 1.14986 0
M  V30 3017 C 300.986 -2.14769 0.800436 0
M  V30 3018 C 301.999 -1.61739 -0.185595 0
M  V30 3019 O 303.188 -1.78462 0.0370358 0
M  V30 3020 C 300.288 -3.38481 0.168533 0
M  V30 3021 C 299.461 -4.20876 1.1909 0
M  V30 3022 C 298.52 -5.22976 0.581575 0
M  V30 3023 O 297.546 -5.55388 1.24633 0
M  V30 3024 N 298.748 -5.76976 -0.638706 0
M  V30 3025 H 301.513 -2.45348 1.72118 0
M  V30 3026 H 299.074 -1.23645 1.04515 0
M  V30 3027 H 301.066 -4.03916 -0.251764 0
M  V30 3028 H 299.636 -3.05651 -0.655467 0
M  V30 3029 H 298.856 -3.51322 1.78791 0
M  V30 3030 H 300.144 -4.7274 1.88133 0
M  V30 3031 H 299.542 -5.52886 -1.19723 0
M  V30 3032 H 298.099 -6.44061 -1.00142 0
M  V30 3033 N 301.532 -0.945985 -1.26051 0
M  V30 3034 C 302.495 -0.463897 -2.24456 0
M  V30 3035 C 303.495 0.427655 -1.55009 0
M  V30 3036 O 304.685 0.226157 -1.72726 0
M  V30 3037 C 301.817 0.330812 -3.39291 0
M  V30 3038 H 303.01 -1.33357 -2.68619 0
M  V30 3039 H 300.563 -0.728416 -1.38289 0
M  V30 3040 H 301.298 1.21852 -3.00537 0
M  V30 3041 H 301.083 -0.308679 -3.90883 0
M  V30 3042 H 302.573 0.657865 -4.12386 0
M  V30 3043 N 303.011 1.40521 -0.713556 0
M  V30 3044 C 304.259 2.00527 -0.251692 0
M  V30 3045 C 304.58 1.56857 1.15848 0
M  V30 3046 O 303.85 0.807127 1.785 0
M  V30 3047 H 302.43 0.741551 -0.0900646 0
M  V30 3048 H 305.092 1.71887 -0.918733 0
M  V30 3049 H 304.188 3.10813 -0.283192 0
M  V30 3050 N 304.489 0.459591 1.5075 0
M  V30 3051 C 305.736 -0.0993495 2.02256 0
M  V30 3052 C 306.064 -1.40751 1.34237 0
M  V30 3053 O 305.319 -1.90379 0.453228 0
M  V30 3054 C 305.618 -0.342866 3.55752 0
M  V30 3055 C 305.284 0.88218 4.42186 0
M  V30 3056 C 303.946 1.21808 4.65528 0
M  V30 3057 C 306.298 1.69837 4.92752 0
M  V30 3058 C 303.626 2.37045 5.36681 0
M  V30 3059 C 305.978 2.84192 5.65171 0
M  V30 3060 C 304.642 3.1821 5.8677 0
M  V30 3061 H 303.912 -0.0363545 0.740108 0
M  V30 3062 H 306.559 0.611329 1.8148 0
M  V30 3063 H 304.864 -1.13567 3.7498 0
M  V30 3064 H 306.561 -0.789121 3.93159 0
M  V30 3065 H 303.151 0.610467 4.2423 0
M  V30 3066 H 307.335 1.45205 4.74583 0
M  V30 3067 H 302.591 2.63689 5.51614 0
M  V30 3068 H 306.765 3.4779 6.03337 0
M  V30 3069 H 304.392 4.07613 6.41682 0
M  V30 3070 N 305.967 -1.56429 0.191757 0
M  V30 3071 C 307.378 -1.83912 -0.321428 0
M  V30 3072 C 307.729 -1.11231 -1.61623 0
M  V30 3073 O 306.854 -0.37202 -2.13178 0
M  V30 3074 C 307.449 -3.33624 -0.589961 0
M  V30 3075 C 306.008 -3.6153 -1.04753 0
M  V30 3076 C 305.155 -2.7714 -0.0943327 0
M  V30 3077 H 308.106 -1.53161 0.415612 0
M  V30 3078 H 308.127 -3.52213 -1.43966 0
M  V30 3079 H 307.639 -3.86495 0.352588 0
M  V30 3080 H 305.74 -3.14089 -2.00447 0
M  V30 3081 H 305.853 -4.69737 -0.942549 0
M  V30 3082 H 304.217 -2.47638 -0.595589 0
M  V30 3083 H 305 -3.32799 0.842601 0
M  V30 3084 N 307.445 0.0818655 -1.57387 0
M  V30 3085 C 308.861 0.436412 -1.53517 0
M  V30 3086 C 309.061 1.79758 -0.910459 0
M  V30 3087 O 308.117 2.47324 -0.508636 0
M  V30 3088 C 309.43 0.386734 -2.98203 0
M  V30 3089 C 310.978 0.467644 -3.09487 0
M  V30 3090 C 311.453 0.447978 -4.55804 0
M  V30 3091 N 312.944 0.508348 -4.60402 0
M  V30 3092 C 313.679 0.515184 -5.71081 0
M  V30 3093 N 313.175 0.477435 -6.91153 0
M  V30 3094 N 314.968 0.560988 -5.59294 0
M  V30 3095 H 307.119 -0.809546 -1.96367 0
M  V30 3096 H 309.382 -0.302733 -0.898363 0
M  V30 3097 H 309.088 -0.546539 -3.47427 0
M  V30 3098 H 308.962 1.20075 -3.57578 0
M  V30 3099 H 311.349 1.39134 -2.60242 0
M  V30 3100 H 311.43 -0.374753 -2.5304 0
M  V30 3101 H 311.074 -0.471826 -5.05704 0
M  V30 3102 H 311.004 1.30777 -5.10103 0
M  V30 3103 H 313.495 0.54218 -3.7399 0
M  V30 3104 H 313.808 0.486299 -7.71268 0
M  V30 3105 H 312.153 0.444278 -6.93579 0
M  V30 3106 H 315.344 0.5881 -4.64391 0
M  V30 3107 H 315.517 0.562846 -6.45551 0
M  V30 3108 N 308.923 1.53595 0.353017 0
M  V30 3109 C 310.339 1.43648 0.695516 0
M  V30 3110 C 310.539 0.585617 1.92802 0
M  V30 3111 O 309.595 0.0729223 2.52395 0
M  V30 3112 C 310.908 2.8701 0.896991 0
M  V30 3113 C 312.456 2.96723 0.996209 0
M  V30 3114 C 312.931 4.41173 1.23007 0
M  V30 3115 N 314.422 4.44657 1.29749 0
M  V30 3116 C 315.157 5.53547 1.49577 0
M  V30 3117 N 314.653 6.72461 1.66639 0
M  V30 3118 N 316.446 5.41145 1.52048 0
M  V30 3119 H 308.597 2.07415 -0.457481 0
M  V30 3120 H 310.86 0.9372 -0.142687 0
M  V30 3121 H 310.566 3.51644 0.0629938 0
M  V30 3122 H 310.44 3.31401 1.80148 0
M  V30 3123 H 312.827 2.32235 1.82074 0
M  V30 3124 H 312.908 2.55707 0.0688331 0
M  V30 3125 H 312.552 5.06238 0.410505 0
M  V30 3126 H 312.482 4.79772 2.17086 0
M  V30 3127 H 314.973 3.58963 1.18126 0
M  V30 3128 H 315.286 7.51214 1.81378 0
M  V30 3129 H 313.631 6.75423 1.63794 0
M  V30 3130 H 316.822 4.47205 1.38294 0
M  V30 3131 H 316.995 6.26068 1.67159 0
M  V30 3132 N 310.401 -0.613514 1.45168 0
M  V30 3133 C 311.812 -1.19539 1.43413 0
M  V30 3134 C 312.163 -1.95558 0.158632 0
M  V30 3135 O 311.288 -2.0335 -0.740119 0
M  V30 3136 C 311.883 -2.17445 2.59813 0
M  V30 3137 C 310.442 -2.71022 2.61197 0
M  V30 3138 C 309.589 -1.46323 2.35552 0
M  V30 3139 H 312.54 -0.403163 1.53494 0
M  V30 3140 H 312.561 -3.00373 2.33574 0
M  V30 3141 H 312.073 -1.62089 3.52631 0
M  V30 3142 H 310.174 -3.30332 1.7237 0
M  V30 3143 H 310.287 -3.15859 3.60236 0
M  V30 3144 H 308.651 -1.75072 1.84992 0
M  V30 3145 H 309.434 -0.92844 3.30507 0
M  V30 3146 N 311.879 -1.3236 -0.855495 0
M  V30 3147 C 313.29 -1.2056 -1.42556 0
M  V30 3148 C 313.641 0.182209 -1.95352 0
M  V30 3149 O 312.766 1.08088 -1.87472 0
M  V30 3150 C 313.361 -2.1826 -2.59129 0
M  V30 3151 C 311.92 -2.10351 -3.12137 0
M  V30 3152 C 311.067 -2.06674 -1.84882 0
M  V30 3153 H 314.018 -1.442 -0.662727 0
M  V30 3154 H 314.039 -1.78064 -3.36264 0
M  V30 3155 H 313.551 -3.19257 -2.20673 0
M  V30 3156 H 311.652 -1.12599 -3.55179 0
M  V30 3157 H 311.765 -3.00135 -3.73438 0
M  V30 3158 H 310.129 -1.51901 -2.04446 0
M  V30 3159 H 310.912 -3.09451 -1.48643 0
M  V30 3160 N 313.357 1.07166 -1.15556 0
M  V30 3161 C 314.768 1.6127 -0.940693 0
M  V30 3162 C 315.119 1.89251 0.517551 0
M  V30 3163 O 314.244 1.65937 1.38903 0
M  V30 3164 C 314.839 2.92993 -1.7012 0
M  V30 3165 C 313.398 3.43832 -1.53156 0
M  V30 3166 C 312.545 2.1786 -1.71558 0
M  V30 3167 H 315.496 0.90229 -1.30554 0
M  V30 3168 H 315.517 3.62007 -1.17181 0
M  V30 3169 H 315.029 2.72596 -2.76248 0
M  V30 3170 H 313.13 3.69307 -0.494294 0
M  V30 3171 H 313.243 4.19747 -2.30975 0
M  V30 3172 H 311.607 2.2765 -1.14225 0
M  V30 3173 H 312.39 1.99956 -2.79056 0
M  V30 3174 N 314.835 0.952656 1.25548 0
M  V30 3175 C 316.251 0.656769 1.4546 0
M  V30 3176 C 316.451 -0.78633 1.85524 0
M  V30 3177 O 315.507 -1.56183 1.98402 0
M  V30 3178 C 316.82 1.62801 2.52817 0
M  V30 3179 C 318.368 1.63897 2.66659 0
M  V30 3180 C 318.843 2.5978 3.77198 0
M  V30 3181 N 320.334 2.58133 3.84606 0
M  V30 3182 C 321.069 3.29003 4.69621 0
M  V30 3183 N 320.565 4.09339 5.58939 0
M  V30 3184 N 322.358 3.179 4.63569 0
M  V30 3185 H 314.509 1.88526 0.978344 0
M  V30 3186 H 316.772 0.810815 0.491206 0
M  V30 3187 H 316.478 2.65869 2.30232 0
M  V30 3188 H 316.352 1.38898 3.50695 0
M  V30 3189 H 318.739 0.615481 2.8861 0
M  V30 3190 H 318.82 1.91858 1.69187 0
M  V30 3191 H 318.464 3.62254 3.55997 0
M  V30 3192 H 318.394 2.29105 4.7415 0
M  V30 3193 H 320.885 1.99809 3.20757 0
M  V30 3194 H 321.198 4.6034 6.20731 0
M  V30 3195 H 319.543 4.13438 5.58654 0
M  V30 3196 H 322.734 2.54612 3.92798 0
M  V30 3197 H 322.907 3.73398 5.29602 0
M  V30 3198 N 316.313 -1.40141 0.720998 0
M  V30 3199 C 317.561 -2.0039 0.262323 0
M  V30 3200 C 317.882 -1.57469 -1.15015 0
M  V30 3201 O 317.152 -0.816582 -1.78069 0
M  V30 3202 H 315.732 -0.741063 0.093996 0
M  V30 3203 H 318.394 -1.71398 0.927835 0
M  V30 3204 H 317.49 -3.10658 0.299671 0
M  V30 3205 N 317.792 -0.46758 -1.50504 0
M  V30 3206 C 319.02 0.0864133 -2.06719 0
M  V30 3207 C 319.435 1.33819 -1.33184 0
M  V30 3208 O 318.792 1.78061 -0.400083 0
M  V30 3209 C 318.843 0.378079 -3.59517 0
M  V30 3210 O 318.564 -0.824044 -4.3028 0
M  V30 3211 C 320.065 0.979426 -4.32345 0
M  V30 3212 H 317.285 -0.00551697 -0.670977 0
M  V30 3213 H 319.829 -0.655354 -1.93715 0
M  V30 3214 H 317.984 1.06977 -3.72337 0
M  V30 3215 H 318.398 -0.566518 -5.21432 0
M  V30 3216 H 319.872 1.1333 -5.40241 0
M  V30 3217 H 320.349 1.9686 -3.9261 0
M  V30 3218 H 320.955 0.326216 -4.24047 0
M  V30 3219 N 319.27 1.56325 -0.20005 0
M  V30 3220 C 320.686 1.58839 0.155716 0
M  V30 3221 C 320.886 1.21636 1.60645 0
M  V30 3222 O 319.942 0.941437 2.34293 0
M  V30 3223 C 321.255 3.0032 -0.151124 0
M  V30 3224 C 322.803 3.12866 -0.0916284 0
M  V30 3225 C 323.278 4.56488 -0.371845 0
M  V30 3226 N 324.769 4.62089 -0.320641 0
M  V30 3227 C 325.504 5.71116 -0.511243 0
M  V30 3228 N 325 6.88592 -0.762461 0
M  V30 3229 N 326.793 5.60335 -0.445157 0
M  V30 3230 H 318.944 1.78788 -1.14668 0
M  V30 3231 H 321.207 0.829996 -0.458051 0
M  V30 3232 H 320.913 3.32117 -1.15721 0
M  V30 3233 H 320.787 3.73257 0.543986 0
M  V30 3234 H 323.174 2.80878 0.905065 0
M  V30 3235 H 323.255 2.42304 -0.81989 0
M  V30 3236 H 322.899 4.89189 -1.36588 0
M  V30 3237 H 322.829 5.25246 0.377362 0
M  V30 3238 H 325.32 3.77665 -0.13329 0
M  V30 3239 H 325.633 7.67581 -0.896576 0
M  V30 3240 H 323.978 6.90387 -0.799412 0
M  V30 3241 H 327.169 4.67436 -0.249278 0
M  V30 3242 H 327.342 6.45243 -0.597116 0
M  V30 3243 N 320.748 -0.0735177 1.57428 0
M  V30 3244 C 322.159 -0.625551 1.75908 0
M  V30 3245 C 322.51 -1.78 0.825261 0
M  V30 3246 O 321.635 -2.16398 0.00893964 0
M  V30 3247 C 322.23 -1.14155 3.18989 0
M  V30 3248 C 320.789 -1.63946 3.38819 0
M  V30 3249 C 319.936 -0.558151 2.71625 0
M  V30 3250 H 322.887 0.152647 1.57964 0
M  V30 3251 H 322.908 -2.0104 3.23053 0
M  V30 3252 H 322.42 -0.301116 3.8693 0
M  V30 3253 H 320.521 -2.50321 2.7599 0
M  V30 3254 H 320.634 -1.71759 4.47253 0
M  V30 3255 H 318.998 -1.00278 2.34129 0
M  V30 3256 H 319.781 0.272071 3.4222 0
M  V30 3257 N 322.226 -1.5378 -0.344866 0
M  V30 3258 C 323.189 -1.80981 -1.40637 0
M  V30 3259 C 324.189 -0.680816 -1.45676 0
M  V30 3260 O 325.379 -0.949095 -1.46075 0
M  V30 3261 C 322.511 -1.95063 -2.79577 0
M  V30 3262 H 323.704 -2.75803 -1.17783 0
M  V30 3263 H 321.257 -1.45173 -0.579181 0
M  V30 3264 H 321.992 -1.02379 -3.07716 0
M  V30 3265 H 321.777 -2.77198 -2.77315 0
M  V30 3266 H 323.267 -2.17629 -3.56409 0
M  V30 3267 N 323.704 0.605807 -1.45491 0
M  V30 3268 C 325.115 1.18777 -1.44045 0
M  V30 3269 C 325.466 1.95471 -0.169001 0
M  V30 3270 O 324.591 2.0374 0.729324 0
M  V30 3271 C 325.186 2.16064 -2.60963 0
M  V30 3272 C 323.745 2.69633 -2.62631 0
M  V30 3273 C 322.892 1.45072 -2.36325 0
M  V30 3274 H 325.843 0.395017 -1.53705 0
M  V30 3275 H 325.864 2.9913 -2.35163 0
M  V30 3276 H 325.376 1.60217 -3.53486 0
M  V30 3277 H 323.477 3.29414 -1.74119 0
M  V30 3278 H 323.59 3.13944 -3.61906 0
M  V30 3279 H 321.954 1.74089 -1.85917 0
M  V30 3280 H 322.737 0.910899 -3.30995 0
M  V30 3281 N 325.182 1.32811 0.848464 0
M  V30 3282 C 326.43 1.23479 1.59991 0
M  V30 3283 C 326.751 -0.201853 1.93952 0
M  V30 3284 O 326.021 -1.12818 1.60153 0
M  V30 3285 H 324.601 0.454034 0.593179 0
M  V30 3286 H 327.263 1.66412 1.01455 0
M  V30 3287 H 326.359 1.82178 2.53412 0
M  V30 3288 N 326.66 -1.06551 1.16123 0
M  V30 3289 C 327.908 -1.78947 0.939267 0
M  V30 3290 C 328.229 -1.87532 -0.534476 0
M  V30 3291 O 327.499 -1.38211 -1.38833 0
M  V30 3292 H 326.079 -0.662807 0.344523 0
M  V30 3293 H 328.741 -1.28725 1.46342 0
M  V30 3294 H 327.837 -2.81117 1.35572 0
M  V30 3295 N 328.138 -0.959301 -1.25041 0
M  V30 3296 C 329.378 -0.624343 -1.94631 0
M  V30 3297 C 329.742 0.82403 -1.73418 0
M  V30 3298 O 330.943 1.26881 -2.3697 0
M  V30 3299 C 329.214 -0.978805 -3.43736 0
M  V30 3300 S 330.773 -0.757127 -4.32219 0
M  V30 3301 H 327.591 -0.229327 -0.673001 0
M  V30 3302 H 330.193 -1.23447 -1.51595 0
M  V30 3303 H 328.897 -2.02997 -3.56679 0
M  V30 3304 H 328.428 -0.359117 -3.91757 0
M  V30 3305 H 330.443 0.369759 -4.9482 0
M  V30 3306 N 329.616 1.39756 -0.72842 0
M  V30 3307 C 330.865 1.99879 -0.270407 0
M  V30 3308 C 331.178 1.58449 1.14688 0
M  V30 3309 O 332.384 2.11362 1.70407 0
M  V30 3310 C 330.84 3.57292 -0.43252 0
M  V30 3311 C 330.448 4.07688 -1.85727 0
M  V30 3312 C 332.192 4.24485 -0.0359507 0
M  V30 3313 C 330.099 5.5765 -1.96928 0
M  V30 3314 H 329.029 0.747689 -0.0973472 0
M  V30 3315 H 331.68 1.59837 -0.901355 0
M  V30 3316 H 330.062 3.95097 0.267219 0
M  V30 3317 H 331.236 3.81231 -2.58843 0
M  V30 3318 H 329.551 3.53135 -2.20646 0
M  V30 3319 H 332.148 5.34609 -0.0987484 0
M  V30 3320 H 332.491 4.03915 1.00787 0
M  V30 3321 H 333.024 3.9183 -0.686604 0
M  V30 3322 H 329.763 5.8309 -2.99476 0
M  V30 3323 H 329.283 5.8593 -1.28241 0
M  V30 3324 H 330.962 6.22957 -1.74737 0
M  V30 3325 N 331.094 0.475555 1.50254 0
M  V30 3326 C 332.026 -0.352649 2.26471 0
M  V30 3327 C 333.039 -0.953165 1.3198 0
M  V30 3328 O 334.228 -0.840815 1.57457 0
M  V30 3329 C 331.328 -1.50902 3.0345 0
M  V30 3330 C 330.501 -1.02047 4.25329 0
M  V30 3331 C 329.56 -2.05142 4.84565 0
M  V30 3332 O 328.586 -1.63023 5.45355 0
M  V30 3333 N 329.788 -3.37987 4.71959 0
M  V30 3334 H 332.553 0.300767 2.98187 0
M  V30 3335 H 330.114 0.306598 1.5897 0
M  V30 3336 H 332.106 -2.19572 3.39956 0
M  V30 3337 H 330.676 -2.06705 2.34504 0
M  V30 3338 H 329.896 -0.159507 3.93877 0
M  V30 3339 H 331.184 -0.672061 5.04342 0
M  V30 3340 H 330.582 -3.74913 4.23623 0
M  V30 3341 H 329.139 -4.02443 5.12721 0
M  V30 3342 N 332.573 -1.56217 0.208337 0
M  V30 3343 C 333.984 -1.84243 -0.301904 0
M  V30 3344 C 334.335 -1.12939 -1.60434 0
M  V30 3345 O 333.46 -0.39461 -2.12772 0
M  V30 3346 C 334.055 -3.34231 -0.554543 0
M  V30 3347 C 332.614 -3.62621 -1.00912 0
M  V30 3348 C 331.761 -2.77224 -0.064933 0
M  V30 3349 H 334.712 -1.52712 0.431833 0
M  V30 3350 H 334.733 -3.5372 -1.40223 0
M  V30 3351 H 334.245 -3.86099 0.393561 0
M  V30 3352 H 332.346 -3.16197 -1.97104 0
M  V30 3353 H 332.459 -4.7071 -0.892674 0
M  V30 3354 H 330.823 -2.48256 -0.56929 0
M  V30 3355 H 331.606 -3.31887 0.877851 0
M  V30 3356 N 334.051 0.0651679 -1.57465 0
M  V30 3357 C 335.467 0.420105 -1.53972 0
M  V30 3358 C 335.667 1.78782 -0.929474 0
M  V30 3359 O 334.723 2.46771 -0.534839 0
M  V30 3360 C 336.036 0.355084 -2.98596 0
M  V30 3361 C 337.584 0.434792 -3.09965 0
M  V30 3362 C 338.059 0.399609 -4.56253 0
M  V30 3363 N 339.55 0.459488 -4.60915 0
M  V30 3364 C 340.285 0.454584 -5.71595 0
M  V30 3365 N 339.781 0.404102 -6.9162 0
M  V30 3366 N 341.574 0.501635 -5.59857 0
M  V30 3367 H 333.725 -0.830328 -1.95498 0
M  V30 3368 H 335.988 -0.312244 -0.895102 0
M  V30 3369 H 335.694 -0.583357 -3.46828 0
M  V30 3370 H 335.568 1.16275 -3.58831 0
M  V30 3371 H 337.955 1.36366 -2.61703 0
M  V30 3372 H 338.036 -0.40157 -2.52628 0
M  V30 3373 H 337.68 -0.525436 -5.05175 0
M  V30 3374 H 337.61 1.25359 -5.11461 0
M  V30 3375 H 340.101 0.502482 -3.74544 0
M  V30 3376 H 340.414 0.404468 -7.71741 0
M  V30 3377 H 338.759 0.37069 -6.94011 0
M  V30 3378 H 341.95 0.538812 -4.64989 0
M  V30 3379 H 342.123 0.494345 -6.46112 0
M  V30 3380 N 335.529 1.53961 0.336706 0
M  V30 3381 C 336.777 1.71197 1.07405 0
M  V30 3382 C 337.098 0.481475 1.88962 0
M  V30 3383 O 336.368 -0.504585 1.8929 0
M  V30 3384 H 334.948 0.631185 0.399517 0
M  V30 3385 H 337.61 1.91232 0.376323 0
M  V30 3386 H 336.706 2.58587 1.74755 0
M  V30 3387 N 337.007 -0.598083 1.45811 0
M  V30 3388 C 338.418 -1.18011 1.44673 0
M  V30 3389 C 338.769 -1.95378 0.179364 0
M  V30 3390 O 337.894 -2.04124 -0.718509 0
M  V30 3391 C 338.489 -2.14677 2.62105 0
M  V30 3392 C 337.048 -2.68236 2.64057 0
M  V30 3393 C 336.195 -1.43816 2.37091 0
M  V30 3394 H 339.146 -0.38686 1.53913 0
M  V30 3395 H 339.167 -2.97878 2.36746 0
M  V30 3396 H 338.679 -1.5834 3.5433 0
M  V30 3397 H 336.78 -3.28486 1.75864 0
M  V30 3398 H 336.893 -3.12021 3.63566 0
M  V30 3399 H 335.257 -1.731 1.86838 0
M  V30 3400 H 336.04 -0.893333 3.31473 0
M  V30 3401 N 338.485 -1.33259 -0.841409 0
M  V30 3402 C 339.734 -1.23921 -1.59143 0
M  V30 3403 C 340.047 0.1941 -1.94635 0
M  V30 3404 O 341.253 0.409474 -2.68394 0
M  V30 3405 C 339.709 -2.17119 -2.87032 0
M  V30 3406 C 339.317 -3.65606 -2.58914 0
M  V30 3407 C 341.061 -2.16648 -3.65053 0
M  V30 3408 C 338.968 -4.50726 -3.82884 0
M  V30 3409 H 337.898 -0.460264 -0.597221 0
M  V30 3410 H 340.549 -1.58307 -0.927959 0
M  V30 3411 H 338.931 -1.75663 -3.54906 0
M  V30 3412 H 340.105 -4.15487 -1.99267 0
M  V30 3413 H 338.42 -3.68341 -1.942 0
M  V30 3414 H 341.017 -2.77474 -4.57069 0
M  V30 3415 H 341.36 -1.16088 -3.99787 0
M  V30 3416 H 341.893 -2.56453 -3.041 0
M  V30 3417 H 338.632 -5.52151 -3.53283 0
M  V30 3418 H 338.152 -4.0559 -4.41879 0
M  V30 3419 H 339.831 -4.64401 -4.50489 0
M  V30 3420 N 339.963 1.05934 -1.16686 0
M  V30 3421 C 340.873 2.17014 -0.891183 0
M  V30 3422 C 341.889 1.73453 0.137907 0
M  V30 3423 O 343.065 2.01361 -0.039592 0
M  V30 3424 C 340.13 3.44384 -0.400099 0
M  V30 3425 C 339.191 4.02433 -1.49486 0
M  V30 3426 C 338.424 5.23723 -1.02711 0
M  V30 3427 O 338.647 5.7027 0.121716 0
M  V30 3428 O 337.581 5.7382 -1.81699 0
M  V30 3429 H 341.407 2.43113 -1.82015 0
M  V30 3430 H 338.992 1.15541 -0.947132 0
M  V30 3431 H 340.874 4.21189 -0.133392 0
M  V30 3432 H 339.549 3.19802 0.500817 0
M  V30 3433 H 338.456 3.27102 -1.81535 0
M  V30 3434 H 339.789 4.31317 -2.37121 0
M  V30 3435 N 341.441 0.965919 1.2453 0
M  V30 3436 C 342.373 0.452465 2.2469 0
M  V30 3437 C 343.386 -0.437821 1.56802 0
M  V30 3438 O 344.575 -0.244283 1.76821 0
M  V30 3439 C 341.675 -0.366258 3.36915 0
M  V30 3440 C 340.848 0.513701 4.34373 0
M  V30 3441 C 339.907 -0.248716 5.25612 0
M  V30 3442 O 338.933 0.356745 5.68081 0
M  V30 3443 N 340.135 -1.53877 5.59734 0
M  V30 3444 H 342.9 1.31361 2.69378 0
M  V30 3445 H 340.461 0.837541 1.38553 0
M  V30 3446 H 342.453 -0.884297 3.94921 0
M  V30 3447 H 341.023 -1.12832 2.91526 0
M  V30 3448 H 340.243 1.21273 3.75082 0
M  V30 3449 H 341.531 1.11391 4.96457 0
M  V30 3450 H 340.929 -2.05243 5.27154 0
M  V30 3451 H 339.486 -2.00254 6.20275 0
M  V30 3452 N 342.919 -1.39368 0.735821 0
M  V30 3453 C 344.165 -2.00794 0.284544 0
M  V30 3454 C 344.498 -1.58255 -1.12557 0
M  V30 3455 O 343.773 -0.811819 -1.76748 0
M  V30 3456 C 344.056 -3.58011 0.387337 0
M  V30 3457 C 343.909 -4.10566 1.83728 0
M  V30 3458 C 345.228 -4.395 -0.22975 0
M  V30 3459 H 342.347 -0.729501 0.104866 0
M  V30 3460 H 344.989 -1.65564 0.93213 0
M  V30 3461 H 343.139 -3.88154 -0.164006 0
M  V30 3462 H 344.811 -3.91139 2.44556 0
M  V30 3463 H 343.054 -3.64095 2.35833 0
M  V30 3464 H 343.725 -5.19702 1.86047 0
M  V30 3465 H 346.201 -4.15406 0.240257 0
M  V30 3466 H 345.077 -5.48752 -0.127485 0
M  V30 3467 H 345.338 -4.22062 -1.3159 0
M  V30 3468 N 344.397 -0.483516 -1.5 0
M  V30 3469 C 345.627 0.0643896 -2.065 0
M  V30 3470 C 346.035 1.32949 -1.34615 0
M  V30 3471 O 345.378 1.79003 -0.412756 0
M  V30 3472 C 345.44 0.405983 -3.572 0
M  V30 3473 C 345.104 -0.758875 -4.50655 0
M  V30 3474 C 346.101 -1.64445 -4.93208 0
M  V30 3475 C 343.786 -0.952725 -4.93182 0
M  V30 3476 C 345.78 -2.70818 -5.77006 0
M  V30 3477 C 343.467 -2.01966 -5.76761 0
M  V30 3478 C 344.465 -2.89574 -6.18576 0
M  V30 3479 O 344.153 -3.94429 -7.00486 0
M  V30 3480 H 343.885 -0.00934786 -0.675935 0
M  V30 3481 H 346.439 -0.674959 -1.93993 0
M  V30 3482 H 344.669 1.19869 -3.67652 0
M  V30 3483 H 346.358 0.890433 -3.96013 0
M  V30 3484 H 347.124 -1.50643 -4.61012 0
M  V30 3485 H 343.003 -0.280247 -4.60147 0
M  V30 3486 H 346.547 -3.3923 -6.09565 0
M  V30 3487 H 342.444 -2.1577 -6.0837 0
M  V30 3488 H 343.212 -3.91568 -7.1876 0
M  V30 3489 N 345.875 1.56104 -0.216619 0
M  V30 3490 C 346.807 2.17339 0.72776 0
M  V30 3491 C 347.82 1.14109 1.16116 0
M  V30 3492 O 349.009 1.4111 1.09317 0
M  V30 3493 C 346.109 2.73818 1.99693 0
M  V30 3494 C 345.282 4.02168 1.71988 0
M  V30 3495 C 344.341 4.43259 2.83562 0
M  V30 3496 O 343.367 5.10257 2.52244 0
M  V30 3497 N 344.569 4.08535 4.12407 0
M  V30 3498 H 347.334 2.99005 0.203983 0
M  V30 3499 H 344.895 1.61861 -0.0354289 0
M  V30 3500 H 346.887 2.9828 2.73516 0
M  V30 3501 H 345.457 1.96483 2.43132 0
M  V30 3502 H 344.677 3.85612 0.818337 0
M  V30 3503 H 345.965 4.85907 1.50903 0
M  V30 3504 H 345.363 3.54687 4.40696 0
M  V30 3505 H 343.92 4.37901 4.8279 0
M  V30 3506 N 347.353 -0.0568162 1.57498 0
M  V30 3507 C 348.263 -1.08346 2.08083 0
M  V30 3508 C 349.279 -1.41439 1.01346 0
M  V30 3509 O 350.455 -1.51316 1.32912 0
M  V30 3510 C 347.52 -2.37352 2.52715 0
M  V30 3511 C 346.581 -2.11093 3.73816 0
M  V30 3512 C 345.814 -3.33949 4.1631 0
M  V30 3513 O 346.037 -4.43622 3.58547 0
M  V30 3514 O 344.971 -3.21279 5.08983 0
M  V30 3515 H 348.797 -0.683667 2.95905 0
M  V30 3516 H 346.382 -0.271965 1.46904 0
M  V30 3517 H 348.264 -3.13246 2.81877 0
M  V30 3518 H 346.939 -2.76681 1.68016 0
M  V30 3519 H 345.846 -1.32856 3.49714 0
M  V30 3520 H 347.179 -1.76637 4.59413 0
M  V30 3521 N 348.832 -1.54138 -0.328536 0
M  V30 3522 C 350.081 -1.71318 -1.06456 0
M  V30 3523 C 350.394 -0.491109 -1.89334 0
M  V30 3524 O 351.6 -0.54416 -2.65991 0
M  V30 3525 C 350.056 -3.03 -1.94214 0
M  V30 3526 C 349.664 -4.32595 -1.16471 0
M  V30 3527 C 351.408 -3.29544 -2.67583 0
M  V30 3528 C 349.315 -5.55341 -2.03347 0
M  V30 3529 H 348.245 -0.638429 -0.401155 0
M  V30 3530 H 350.896 -1.80633 -0.323106 0
M  V30 3531 H 349.278 -2.87579 -2.72239 0
M  V30 3532 H 350.452 -4.58766 -0.432525 0
M  V30 3533 H 348.767 -4.12777 -0.548063 0
M  V30 3534 H 351.364 -4.18444 -3.3288 0
M  V30 3535 H 351.707 -2.47206 -3.34955 0
M  V30 3536 H 352.24 -3.45809 -1.96623 0
M  V30 3537 H 348.979 -6.40268 -1.40491 0
M  V30 3538 H 348.499 -5.33397 -2.74313 0
M  V30 3539 H 350.178 -5.91557 -2.62049 0
M  V30 3540 N 350.31 0.590341 -1.46126 0
M  V30 3541 C 351.273 1.68194 -1.55703 0
M  V30 3542 C 352.273 1.54808 -0.434868 0
M  V30 3543 O 353.463 1.59564 -0.698928 0
M  V30 3544 C 350.595 3.07575 -1.47005 0
M  V30 3545 H 351.788 1.61064 -2.52979 0
M  V30 3546 H 349.341 0.807541 -1.33823 0
M  V30 3547 H 350.076 3.20268 -0.509785 0
M  V30 3548 H 349.861 3.187 -2.28414 0
M  V30 3549 H 351.351 3.87055 -1.56776 0
M  V30 3550 N 351.788 1.33704 0.83433 0
M  V30 3551 C 353.037 1.24763 1.58484 0
M  V30 3552 C 353.35 -0.183775 1.94735 0
M  V30 3553 O 354.556 -0.395234 2.68608 0
M  V30 3554 C 353.012 2.18638 2.85876 0
M  V30 3555 C 352.62 3.66974 2.56971 0
M  V30 3556 C 354.364 2.18581 3.63899 0
M  V30 3557 C 352.271 4.5275 3.80488 0
M  V30 3558 H 351.201 0.463425 0.594772 0
M  V30 3559 H 353.852 1.58797 0.919551 0
M  V30 3560 H 352.234 1.77542 3.5397 0
M  V30 3561 H 353.408 4.16538 1.9706 0
M  V30 3562 H 351.723 3.69366 1.92244 0
M  V30 3563 H 354.32 2.79894 4.55591 0
M  V30 3564 H 354.663 1.18207 3.99165 0
M  V30 3565 H 355.196 2.58062 3.02735 0
M  V30 3566 H 351.935 5.54017 3.5035 0
M  V30 3567 H 351.455 4.07927 4.39722 0
M  V30 3568 H 353.134 4.66784 4.4802 0
M  V30 3569 N 353.266 -1.05314 1.17247 0
M  V30 3570 C 354.196 -2.1498 0.911362 0
M  V30 3571 C 355.177 -1.69471 -0.146169 0
M  V30 3572 O 356.362 -1.942 0.003812 0
M  V30 3573 C 353.492 -3.4472 0.422528 0
M  V30 3574 C 352.446 -4.03789 1.4191 0
M  V30 3575 C 351.772 -5.28858 0.788274 0
M  V30 3576 C 353.072 -4.41418 2.7919 0
M  V30 3577 H 354.766 -2.3708 1.82848 0
M  V30 3578 H 352.312 -1.13938 0.880569 0
M  V30 3579 H 354.265 -4.20787 0.227289 0
M  V30 3580 H 352.989 -3.22269 -0.530123 0
M  V30 3581 H 351.648 -3.2979 1.60106 0
M  V30 3582 H 351.296 -5.02709 -0.171173 0
M  V30 3583 H 350.996 -5.69338 1.45353 0
M  V30 3584 H 352.52 -6.07612 0.603282 0
M  V30 3585 H 353.934 -5.08524 2.64719 0
M  V30 3586 H 352.331 -4.92913 3.42282 0
M  V30 3587 H 353.401 -3.51819 3.33693 0
M  V30 3588 N 354.744 -0.972509 -1.24016 0
M  V30 3589 C 355.691 -0.505969 -2.25186 0
M  V30 3590 C 356.661 0.451009 -1.5986 0
M  V30 3591 O 357.846 0.360307 -1.87367 0
M  V30 3592 C 354.986 0.193089 -3.44559 0
M  V30 3593 C 354.099 -0.803222 -4.24467 0
M  V30 3594 C 353.234 -0.0797793 -5.3114 0
M  V30 3595 C 352.273 -1.06583 -6.02749 0
M  V30 3596 N 351.41 -0.372074 -7.01113 0
M  V30 3597 H 356.25 -1.37351 -2.64459 0
M  V30 3598 H 353.787 -0.688419 -1.29997 0
M  V30 3599 H 355.745 0.615125 -4.1264 0
M  V30 3600 H 354.375 1.02455 -3.06109 0
M  V30 3601 H 353.427 -1.34368 -3.55878 0
M  V30 3602 H 354.739 -1.55494 -4.73944 0
M  V30 3603 H 353.893 0.400015 -6.0538 0
M  V30 3604 H 352.632 0.704597 -4.82583 0
M  V30 3605 H 351.637 -1.55645 -5.27309 0
M  V30 3606 H 352.862 -1.85074 -6.53395 0
M  V30 3607 H 350.808 0.393238 -6.5482 0
M  V30 3608 H 350.725 -1.06258 -7.48495 0
M  V30 3609 H 351.993 0.0855932 -7.79453 0
M  V30 3610 N 356.222 1.38976 -0.743202 0
M  V30 3611 C 357.169 2.30544 -0.10861 0
M  V30 3612 C 358.139 1.49642 0.720869 0
M  V30 3613 O 359.324 1.78304 0.679142 0
M  V30 3614 C 356.464 3.36018 0.786496 0
M  V30 3615 C 355.577 4.31963 -0.0564849 0
M  V30 3616 C 354.712 5.24506 0.840657 0
M  V30 3617 C 353.751 6.121 -0.00658363 0
M  V30 3618 N 352.888 6.96973 0.846943 0
M  V30 3619 H 357.728 2.8424 -0.895088 0
M  V30 3620 H 355.265 1.3995 -0.453048 0
M  V30 3621 H 357.223 3.95768 1.31999 0
M  V30 3622 H 355.853 2.83758 1.53887 0
M  V30 3623 H 354.905 3.73763 -0.707492 0
M  V30 3624 H 356.217 4.93703 -0.711229 0
M  V30 3625 H 355.371 5.89322 1.4417 0
M  V30 3626 H 354.11 4.63107 1.52916 0
M  V30 3627 H 353.115 5.46289 -0.620366 0
M  V30 3628 H 354.34 6.75565 -0.691992 0
M  V30 3629 H 352.286 6.38133 1.52059 0
M  V30 3630 H 352.203 7.5559 0.248864 0
M  V30 3631 H 353.471 7.6621 1.43328 0
M  V30 3632 N 357.7 0.491464 1.49741 0
M  V30 3633 C 358.63 -0.28154 2.31796 0
M  V30 3634 C 359.611 -0.971473 1.3963 0
M  V30 3635 O 360.796 -0.964719 1.68543 0
M  V30 3636 C 357.926 -1.35203 3.19902 0
M  V30 3637 C 356.88 -0.782529 4.20786 0
M  V30 3638 C 356.206 -1.95283 4.97764 0
M  V30 3639 C 357.506 0.21999 5.21837 0
M  V30 3640 H 359.2 0.403355 2.96671 0
M  V30 3641 H 356.746 0.195425 1.42668 0
M  V30 3642 H 358.699 -1.90045 3.76113 0
M  V30 3643 H 357.423 -2.06598 2.52953 0
M  V30 3644 H 356.082 -0.255928 3.65706 0
M  V30 3645 H 355.73 -2.65423 4.2727 0
M  V30 3646 H 355.43 -1.57789 5.66018 0
M  V30 3647 H 356.954 -2.50577 5.56816 0
M  V30 3648 H 358.368 -0.23996 5.72798 0
M  V30 3649 H 356.765 0.51026 5.97927 0
M  V30 3650 H 357.835 1.13911 4.7133 0
M  V30 3651 N 359.178 -1.55987 0.224894 0
M  V30 3652 C 360.455 -1.90232 -0.455083 0
M  V30 3653 C 360.835 -1.14269 -1.77499 0
M  V30 3654 O 360.183 -0.253079 -2.27094 0
M  V30 3655 C 360.393 -3.42993 -0.644758 0
M  V30 3656 C 361.741 -4.13821 -0.950669 0
M  V30 3657 O 362.765 -3.4861 -0.731423 0
M  V30 3658 O 361.624 -5.29128 -1.36695 0
M  V30 3659 H 358.718 -0.79108 -0.241084 0
M  V30 3660 H 361.264 -1.67581 0.267327 0
M  V30 3661 H 360.036 -3.90252 0.28613 0
M  V30 3662 H 359.659 -3.71434 -1.41853 0
M  V30 3663 N 360.656 0.0484629 -1.57525 0
M  V30 3664 C 361.606 1.06246 -2.01732 0
M  V30 3665 C 362.59 1.33155 -0.903245 0
M  V30 3666 O 363.782 1.33065 -1.16717 0
M  V30 3667 C 360.911 2.36943 -2.48421 0
M  V30 3668 C 359.997 2.13208 -3.6661 0
M  V30 3669 N 360.388 1.5947 -4.80003 0
M  V30 3670 C 358.686 2.43581 -3.7361 0
M  V30 3671 C 359.387 1.51092 -5.61735 0
M  V30 3672 N 358.363 1.9797 -5.0627 0
M  V30 3673 H 362.165 0.640675 -2.86832 0
M  V30 3674 H 359.679 0.255134 -1.60383 0
M  V30 3675 H 361.676 3.10374 -2.78341 0
M  V30 3676 H 360.336 2.79818 -1.64718 0
M  V30 3677 H 361.347 1.28008 -5.01831 0
M  V30 3678 H 358.024 2.89662 -3.00669 0
M  V30 3679 H 359.414 1.10199 -6.62801 0
M  V30 3680 N 362.134 1.5431 0.320358 0
M  V30 3681 C 363.545 1.63872 0.894594 0
M  V30 3682 C 363.896 0.534847 1.88769 0
M  V30 3683 O 363.021 -0.331732 2.13842 0
M  V30 3684 C 363.616 2.97049 1.62934 0
M  V30 3685 C 362.175 3.08796 2.15226 0
M  V30 3686 C 361.322 2.59456 0.978671 0
M  V30 3687 H 364.273 1.58398 0.0978544 0
M  V30 3688 H 364.294 2.87388 2.49376 0
M  V30 3689 H 363.806 3.7737 0.906302 0
M  V30 3690 H 361.907 2.33156 2.90636 0
M  V30 3691 H 362.02 4.14649 2.40006 0
M  V30 3692 H 360.384 2.1543 1.35875 0
M  V30 3693 H 361.167 3.42237 0.269895 0
M  V30 3694 N 363.613 -0.582584 1.46437 0
M  V30 3695 C 364.561 -1.71272 1.5738 0
M  V30 3696 C 365.555 -1.63524 0.44229 0
M  V30 3697 O 366.761 -1.69016 0.619166 0
M  V30 3698 H 363.136 -0.566273 0.494813 0
M  V30 3699 H 365.107 -1.59174 2.52401 0
M  V30 3700 C 363.856 -3.09658 1.58136 0
M  V30 3701 H 363.179 -3.16291 2.44541 0
M  V30 3702 H 364.619 -3.88494 1.69847 0
M  V30 3703 C 363.078 -3.3547 0.310026 0
M  V30 3704 O 363.608 -3.97199 -0.599683 0
M  V30 3705 N 361.814 -2.89925 0.197901 0
M  V30 3706 H 361.361 -2.39873 0.93909 0
M  V30 3707 H 361.319 -3.07568 -0.65185 0
M  V30 3708 N 365.091 -1.34144 -0.827227 0
M  V30 3709 C 366.337 -1.26446 -1.58554 0
M  V30 3710 C 366.67 0.1664 -1.93486 0
M  V30 3711 O 365.945 1.1107 -1.59667 0
M  V30 3712 C 366.228 -2.15111 -2.8879 0
M  V30 3713 C 366.081 -3.66712 -2.60465 0
M  V30 3714 C 367.4 -2.03311 -3.90324 0
M  V30 3715 H 364.519 -0.46067 -0.575284 0
M  V30 3716 H 367.161 -1.64356 -0.953269 0
M  V30 3717 H 365.311 -1.8291 -3.42748 0
M  V30 3718 H 366.983 -4.09259 -2.1285 0
M  V30 3719 H 365.226 -3.88014 -1.93978 0
M  V30 3720 H 365.897 -4.24112 -3.53317 0
M  V30 3721 H 368.373 -2.31574 -3.45706 0
M  V30 3722 H 367.249 -2.67582 -4.79261 0
M  V30 3723 H 367.51 -1.00879 -4.30437 0
M  V30 3724 N 366.569 1.04691 -1.17803 0
M  V30 3725 C 367.815 1.78045 -0.970969 0
M  V30 3726 C 368.148 1.87686 0.498751 0
M  V30 3727 O 367.423 1.38035 1.37027 0
M  V30 3728 C 367.706 3.2166 -1.61884 0
M  V30 3729 C 367.559 3.20001 -3.161 0
M  V30 3730 C 368.878 4.1962 -1.3269 0
M  V30 3731 H 365.997 0.64633 -0.354155 0
M  V30 3732 H 368.639 1.22333 -1.45378 0
M  V30 3733 H 366.789 3.69232 -1.20831 0
M  V30 3734 H 368.461 2.80467 -3.66246 0
M  V30 3735 H 366.704 2.58203 -3.48588 0
M  V30 3736 H 367.375 4.21386 -3.56564 0
M  V30 3737 H 369.851 3.80567 -1.68249 0
M  V30 3738 H 368.727 5.18339 -1.80599 0
M  V30 3739 H 368.988 4.414 -0.248622 0
M  V30 3740 N 368.047 0.979072 1.23499 0
M  V30 3741 C 368.994 0.517904 2.24914 0
M  V30 3742 C 369.964 -0.442525 1.60097 0
M  V30 3743 O 371.149 -0.350365 1.87556 0
M  V30 3744 C 368.289 -0.174813 3.44657 0
M  V30 3745 C 367.402 0.825721 4.24035 0
M  V30 3746 C 366.537 0.107946 5.3109 0
M  V30 3747 C 365.576 1.09778 6.02175 0
M  V30 3748 N 364.713 0.40925 7.00906 0
M  V30 3749 H 369.553 1.38751 2.63727 0
M  V30 3750 H 367.09 0.695303 1.2963 0
M  V30 3751 H 369.048 -0.593233 4.12961 0
M  V30 3752 H 367.678 -1.0083 3.06648 0
M  V30 3753 H 366.73 1.36253 3.55161 0
M  V30 3754 H 368.042 1.58005 4.73113 0
M  V30 3755 H 367.196 -0.367904 6.05583 0
M  V30 3756 H 365.935 -0.678994 4.8295 0
M  V30 3757 H 364.94 1.5844 5.26476 0
M  V30 3758 H 366.165 1.88536 6.52404 0
M  V30 3759 H 364.111 -0.358506 6.5502 0
M  V30 3760 H 364.028 1.10226 7.47921 0
M  V30 3761 H 365.296 -0.0442557 7.79487 0
M  V30 3762 N 369.525 -1.3858 0.750561 0
M  V30 3763 C 370.455 -2.33102 0.136237 0
M  V30 3764 C 371.436 -1.54713 -0.706965 0
M  V30 3765 O 372.621 -1.83043 -0.648769 0
M  V30 3766 C 369.751 -3.38882 -0.760017 0
M  V30 3767 C 368.705 -4.27995 -0.0197785 0
M  V30 3768 C 368.031 -5.24605 -1.03408 0
M  V30 3769 C 369.331 -5.09554 1.14684 0
M  V30 3770 H 371.025 -2.84726 0.925822 0
M  V30 3771 H 368.571 -1.36898 0.446654 0
M  V30 3772 H 370.524 -4.0397 -1.19943 0
M  V30 3773 H 369.248 -2.85734 -1.58189 0
M  V30 3774 H 367.907 -3.64409 0.400184 0
M  V30 3775 H 367.555 -4.67746 -1.84994 0
M  V30 3776 H 367.255 -5.85081 -0.543464 0
M  V30 3777 H 368.779 -5.9257 -1.47288 0
M  V30 3778 H 370.193 -5.67899 0.785118 0
M  V30 3779 H 368.59 -5.7925 1.56812 0
M  V30 3780 H 369.66 -4.4347 1.96118 0
M  V30 3781 N 371.003 -0.499398 -1.49478 0
M  V30 3782 C 372.249 0.0457576 -2.02748 0
M  V30 3783 C 372.582 1.36793 -1.37846 0
M  V30 3784 O 371.857 1.87596 -0.513601 0
M  V30 3785 C 372.14 0.199986 -3.59544 0
M  V30 3786 C 371.993 -1.1452 -4.34977 0
M  V30 3787 C 373.312 0.94137 -4.29914 0
M  V30 3788 H 370.431 0.0151552 -0.736844 0
M  V30 3789 H 373.073 -0.650498 -1.78518 0
M  V30 3790 H 371.223 0.793007 -3.8032 0
M  V30 3791 H 372.895 -1.77697 -4.25701 0
M  V30 3792 H 371.138 -1.73488 -3.97598 0
M  V30 3793 H 371.809 -0.990607 -5.43039 0
M  V30 3794 H 374.285 0.43844 -4.13784 0
M  V30 3795 H 373.161 1.01812 -5.39375 0
M  V30 3796 H 373.422 1.98471 -3.95046 0
M  V30 3797 N 372.481 1.55866 -0.233164 0
M  V30 3798 C 373.391 2.24431 0.683217 0
M  V30 3799 C 374.407 1.2558 1.2044 0
M  V30 3800 O 375.583 1.58422 1.24356 0
M  V30 3801 C 372.648 2.91979 1.86947 0
M  V30 3802 C 371.709 4.06204 1.38912 0
M  V30 3803 C 370.942 4.70522 2.51883 0
M  V30 3804 O 371.165 4.33865 3.70293 0
M  V30 3805 O 370.099 5.59296 2.22423 0
M  V30 3806 H 373.925 3.03426 0.129059 0
M  V30 3807 H 371.51 1.494 -0.0022283 0
M  V30 3808 H 373.392 3.34573 2.56201 0
M  V30 3809 H 372.067 2.15935 2.41151 0
M  V30 3810 H 370.974 3.68155 0.664259 0
M  V30 3811 H 372.307 4.84025 0.893328 0
M  V30 3812 N 373.959 -0.0401083 1.57549 0
M  V30 3813 C 375.205 -0.734211 1.89043 0
M  V30 3814 C 375.538 -1.75591 0.829535 0
M  V30 3815 O 374.813 -1.93868 -0.156706 0
M  V30 3816 C 375.096 -1.41374 3.31188 0
M  V30 3817 C 374.949 -0.406299 4.47961 0
M  V30 3818 C 376.268 -2.35061 3.72068 0
M  V30 3819 H 373.387 -0.265447 0.687537 0
M  V30 3820 H 376.029 0.00294087 1.9 0
M  V30 3821 H 374.179 -2.04206 3.30503 0
M  V30 3822 H 375.851 0.219255 4.60779 0
M  V30 3823 H 374.094 0.275485 4.32924 0
M  V30 3824 H 374.765 -0.920022 5.44279 0
M  V30 3825 H 377.241 -1.82282 3.74049 0
M  V30 3826 H 376.117 -2.79593 4.72355 0
M  V30 3827 H 376.378 -3.21258 3.0372 0
M  V30 3828 N 375.437 -1.54477 -0.31217 0
M  V30 3829 C 376.367 -1.87652 -1.38957 0
M  V30 3830 C 377.348 -0.734358 -1.53431 0
M  V30 3831 O 378.533 -0.98911 -1.67123 0
M  V30 3832 C 375.663 -2.11396 -2.75552 0
M  V30 3833 C 374.617 -3.27243 -2.75855 0
M  V30 3834 C 373.943 -3.36382 -4.15633 0
M  V30 3835 C 375.243 -4.64622 -2.38587 0
M  V30 3836 H 376.937 -2.77887 -1.11442 0
M  V30 3837 H 374.483 -1.33707 -0.534655 0
M  V30 3838 H 376.436 -2.33189 -3.51 0
M  V30 3839 H 375.16 -1.17921 -3.04569 0
M  V30 3840 H 373.819 -3.05356 -2.02863 0
M  V30 3841 H 373.467 -2.40445 -4.41809 0
M  V30 3842 H 373.167 -4.14249 -4.1674 0
M  V30 3843 H 374.691 -3.60422 -4.92877 0
M  V30 3844 H 376.105 -4.86219 -3.03749 0
M  V30 3845 H 374.502 -5.45121 -2.50925 0
M  V30 3846 H 375.572 -4.66097 -1.33723 0
M  V30 3847 N 376.915 0.57481 -1.46744 0
M  V30 3848 C 378.192 1.3352 -1.4294 0
M  V30 3849 C 378.572 2.10775 -0.117009 0
M  V30 3850 O 377.92 2.09966 0.901474 0
M  V30 3851 C 378.13 2.25456 -2.66403 0
M  V30 3852 C 379.478 2.87035 -3.12883 0
M  V30 3853 O 380.502 2.35766 -2.67007 0
M  V30 3854 O 379.361 3.80179 -3.92589 0
M  V30 3855 H 376.455 0.600318 -0.568812 0
M  V30 3856 H 379.001 0.595171 -1.58921 0
M  V30 3857 H 377.773 1.67851 -3.53471 0
M  V30 3858 H 377.396 3.06785 -2.52921 0
M  V30 3859 N 378.394 1.34581 0.820102 0
M  V30 3860 C 379.671 1.17675 1.56244 0
M  V30 3861 C 380.051 -0.249541 2.0962 0
M  V30 3862 O 379.399 -1.25125 1.91196 0
M  V30 3863 C 379.609 2.23364 2.6816 0
M  V30 3864 C 380.957 2.58485 3.36854 0
M  V30 3865 O 381.981 2.22175 2.78418 0
M  V30 3866 O 380.84 3.20868 4.42386 0
M  V30 3867 H 377.934 0.456333 0.689702 0
M  V30 3868 H 380.48 1.46222 0.861231 0
M  V30 3869 H 379.252 3.19087 2.26493 0
M  V30 3870 H 378.875 1.96009 3.45928 0
M  V30 3871 N 379.872 -1.04064 1.18357 0
M  V30 3872 C 381.283 -1.58719 0.98312 0
M  V30 3873 C 381.634 -1.90556 -0.467193 0
M  V30 3874 O 380.759 -1.69561 -1.34454 0
M  V30 3875 C 381.354 -2.88379 1.77828 0
M  V30 3876 C 379.913 -3.3965 1.62218 0
M  V30 3877 C 379.06 -2.13235 1.77274 0
M  V30 3878 H 382.011 -0.867359 1.32901 0
M  V30 3879 H 382.032 -3.58773 1.26737 0
M  V30 3880 H 381.544 -2.65176 2.83379 0
M  V30 3881 H 379.645 -3.67866 0.592036 0
M  V30 3882 H 379.758 -4.13475 2.42023 0
M  V30 3883 H 378.122 -2.24542 1.20221 0
M  V30 3884 H 378.905 -1.92487 2.8426 0
M  V30 3885 N 381.35 -0.985608 -1.22978 0
M  V30 3886 C 382.298 -0.522631 -2.26652 0
M  V30 3887 C 383.292 0.422998 -1.64034 0
M  V30 3888 O 384.498 0.296319 -1.77544 0
M  V30 3889 H 380.873 -0.150597 -0.736766 0
M  V30 3890 H 382.844 -1.40863 -2.63059 0
M  V30 3891 C 381.593 0.154238 -3.47358 0
M  V30 3892 H 380.916 -0.564329 -3.95797 0
M  V30 3893 H 382.356 0.441744 -4.21693 0
M  V30 3894 C 380.815 1.38719 -3.07016 0
M  V30 3895 O 381.345 2.48307 -3.15764 0
M  V30 3896 N 379.551 1.25975 -2.61875 0
M  V30 3897 H 379.098 0.368068 -2.54957 0
M  V30 3898 H 379.056 2.08578 -2.3525 0
M  V30 3899 N 382.828 1.3818 -0.7579 0
M  V30 3900 C 383.738 2.3421 -0.135247 0
M  V30 3901 C 384.754 1.59487 0.695683 0
M  V30 3902 O 385.93 1.91657 0.618832 0
M  V30 3903 C 382.995 3.3862 0.744139 0
M  V30 3904 C 382.056 4.2918 -0.101658 0
M  V30 3905 C 381.289 5.28603 0.735851 0
M  V30 3906 O 381.512 5.35166 1.97366 0
M  V30 3907 O 380.446 6.01707 0.152372 0
M  V30 3908 H 384.272 2.8916 -0.928436 0
M  V30 3909 H 381.857 1.40101 -0.518855 0
M  V30 3910 H 383.739 4.02539 1.2466 0
M  V30 3911 H 382.414 2.86019 1.51575 0
M  V30 3912 H 381.321 3.68407 -0.650167 0
M  V30 3913 H 382.654 4.85048 -0.836024 0
M  V30 3914 N 384.306 0.507319 1.49211 0
M  V30 3915 C 385.583 -0.0982702 1.95353 0
M  V30 3916 C 385.963 -1.53516 1.449 0
M  V30 3917 O 385.311 -2.18594 0.66551 0
M  V30 3918 C 385.521 -0.00440283 3.49 0
M  V30 3919 C 386.869 -0.175147 4.24239 0
M  V30 3920 O 387.893 -0.0792891 3.56112 0
M  V30 3921 O 386.752 -0.37276 5.45227 0
M  V30 3922 H 383.846 -0.0918236 0.821887 0
M  V30 3923 H 386.392 0.570307 1.5983 0
M  V30 3924 H 385.164 0.997402 3.78375 0
M  V30 3925 H 384.787 -0.712845 3.91158 0
M  V30 3926 N 385.784 -1.5574 0.241426 0
M  V30 3927 C 386.734 -2.17803 -0.674233 0
M  V30 3928 C 387.718 -1.13225 -1.14319 0
M  V30 3929 O 388.91 -1.39153 -1.09387 0
M  V30 3930 C 386.039 -2.87682 -1.87333 0
M  V30 3931 C 385.125 -3.99509 -1.42313 0
M  V30 3932 N 385.516 -5.01115 -0.686798 0
M  V30 3933 C 383.814 -4.11964 -1.70885 0
M  V30 3934 C 384.515 -5.79922 -0.454456 0
M  V30 3935 N 383.491 -5.34001 -1.01705 0
M  V30 3936 H 387.293 -2.93718 -0.103447 0
M  V30 3937 H 384.807 -1.62342 0.0435095 0
M  V30 3938 H 386.804 -3.3057 -2.54026 0
M  V30 3939 H 385.464 -2.13269 -2.4484 0
M  V30 3940 H 386.475 -5.16799 -0.337459 0
M  V30 3941 H 383.152 -3.48718 -2.2957 0
M  V30 3942 H 384.542 -6.71768 0.132992 0
M  V30 3943 N 387.262 0.0317525 -1.57568 0
M  V30 3944 C 388.192 1.03274 -2.0942 0
M  V30 3945 C 389.173 1.3788 -0.996143 0
M  V30 3946 O 390.358 1.46811 -1.27122 0
M  V30 3947 C 387.488 2.33448 -2.57137 0
M  V30 3948 C 386.442 2.13091 -3.71182 0
M  V30 3949 C 385.768 3.49001 -4.05095 0
M  V30 3950 C 387.068 1.51928 -4.99715 0
M  V30 3951 H 388.762 0.60112 -2.93303 0
M  V30 3952 H 386.308 0.287705 -1.41097 0
M  V30 3953 H 388.261 3.03802 -2.92032 0
M  V30 3954 H 386.985 2.78665 -1.70333 0
M  V30 3955 H 385.644 1.45171 -3.36632 0
M  V30 3956 H 385.292 3.91862 -3.15362 0
M  V30 3957 H 384.992 3.36207 -4.81911 0
M  V30 3958 H 386.516 4.20721 -4.42522 0
M  V30 3959 H 387.93 2.12196 -5.32584 0
M  V30 3960 H 386.327 1.49716 -5.81124 0
M  V30 3961 H 387.397 0.484811 -4.8247 0
M  V30 3962 N 388.74 1.54641 0.303973 0
M  V30 3963 C 389.97 1.77511 1.05705 0
M  V30 3964 C 390.378 0.533228 1.81531 0
M  V30 3965 O 389.721 -0.506423 1.76582 0
M  V30 3966 C 389.783 2.92779 2.08617 0
M  V30 3967 C 389.447 4.30977 1.52013 0
M  V30 3968 C 390.444 5.11115 0.9517 0
M  V30 3969 C 388.129 4.77571 1.55665 0
M  V30 3970 C 390.123 6.35966 0.427327 0
M  V30 3971 C 387.81 6.02384 1.02841 0
M  V30 3972 C 388.808 6.81417 0.464713 0
M  V30 3973 O 388.496 8.03881 -0.0555283 0
M  V30 3974 H 388.228 0.59579 0.319391 0
M  V30 3975 H 390.782 2.02401 0.349712 0
M  V30 3976 H 389.012 2.63506 2.83022 0
M  V30 3977 H 390.701 3.03252 2.69802 0
M  V30 3978 H 391.467 4.76264 0.916407 0
M  V30 3979 H 387.346 4.16085 1.9848 0
M  V30 3980 H 390.89 6.97599 -0.0133062 0
M  V30 3981 H 386.787 6.36723 1.06084 0
M  V30 3982 H 387.555 8.18479 0.0580522 0
M  V30 3983 N 390.218 -0.567019 1.47046 0
M  V30 3984 C 391.151 -1.69016 1.53326 0
M  V30 3985 C 392.129 -1.57949 0.386126 0
M  V30 3986 O 393.313 -1.78945 0.592529 0
M  V30 3987 C 390.44 -3.07191 1.42658 0
M  V30 3988 C 389.486 -3.36733 2.6175 0
M  V30 3989 S 390.319 -3.27069 4.24012 0
M  V30 3990 C 391.475 -4.67755 4.1588 0
M  V30 3991 H 391.708 -1.63434 2.48348 0
M  V30 3992 H 389.241 -0.747048 1.35124 0
M  V30 3993 H 391.199 -3.86897 1.37191 0
M  V30 3994 H 389.86 -3.10249 0.490369 0
M  V30 3995 H 389.053 -4.37441 2.50323 0
M  V30 3996 H 388.655 -2.64627 2.64289 0
M  V30 3997 H 390.947 -5.58491 3.83529 0
M  V30 3998 H 391.89 -4.84239 5.16641 0
M  V30 3999 H 392.298 -4.45341 3.46889 0
M  V30 4000 N 391.696 -1.35014 -0.812953 0
M  V30 4001 C 392.942 -1.2812 -1.57204 0
M  V30 4002 C 393.275 0.145869 -1.93651 0
M  V30 4003 O 392.55 1.0937 -1.60836 0
M  V30 4004 C 392.833 -2.18162 -2.86492 0
M  V30 4005 C 392.686 -3.69454 -2.56561 0
M  V30 4006 C 394.005 -2.07439 -3.88145 0
M  V30 4007 H 391.124 -0.466746 -0.570366 0
M  V30 4008 H 393.766 -1.65357 -0.935783 0
M  V30 4009 H 391.916 -1.86535 -3.40789 0
M  V30 4010 H 393.588 -4.11493 -2.08497 0
M  V30 4011 H 391.831 -3.9005 -1.89851 0
M  V30 4012 H 392.502 -4.27835 -3.48799 0
M  V30 4013 H 394.978 -2.35228 -3.4323 0
M  V30 4014 H 393.854 -2.7265 -4.76396 0
M  V30 4015 H 394.115 -1.05439 -4.29343 0
M  V30 4016 N 393.175 1.03435 -1.18907 0
M  V30 4017 C 394.422 1.76743 -0.988334 0
M  V30 4018 C 394.75 1.88447 0.481441 0
M  V30 4019 O 394.005 1.39383 1.37371 0
M  V30 4020 C 394.304 3.19792 -1.59586 0
M  V30 4021 C 393.97 3.28108 -3.09283 0
M  V30 4022 C 392.632 3.30084 -3.5014 0
M  V30 4023 C 394.984 3.27696 -4.05296 0
M  V30 4024 C 392.312 3.29299 -4.85571 0
M  V30 4025 C 394.664 3.28451 -5.4065 0
M  V30 4026 C 393.328 3.28723 -5.80946 0
M  V30 4027 H 392.598 0.64675 -0.361657 0
M  V30 4028 H 395.245 1.21442 -1.48068 0
M  V30 4029 H 393.55 3.78136 -1.02568 0
M  V30 4030 H 395.247 3.75171 -1.41589 0
M  V30 4031 H 391.837 3.27294 -2.76725 0
M  V30 4032 H 396.021 3.25354 -3.74778 0
M  V30 4033 H 391.277 3.2783 -5.16079 0
M  V30 4034 H 395.451 3.27082 -6.14809 0
M  V30 4035 H 393.078 3.27868 -6.85862 0
M  V30 4036 N 394.653 0.992116 1.22453 0
M  V30 4037 C 395.563 0.55065 2.28046 0
M  V30 4038 C 396.579 -0.400189 1.69335 0
M  V30 4039 O 397.755 -0.267215 1.99619 0
M  V30 4040 C 394.82 -0.128496 3.46462 0
M  V30 4041 C 393.881 0.865208 4.20491 0
M  V30 4042 C 393.114 0.218377 5.33253 0
M  V30 4043 O 393.337 -0.987894 5.6178 0
M  V30 4044 O 392.271 0.922845 5.94783 0
M  V30 4045 H 396.097 1.4291 2.67975 0
M  V30 4046 H 393.682 0.760326 1.28606 0
M  V30 4047 H 395.564 -0.508947 4.18315 0
M  V30 4048 H 394.239 -0.981526 3.0846 0
M  V30 4049 H 393.146 1.29658 3.50913 0
M  V30 4050 H 394.479 1.68741 4.62371 0
M  V30 4051 N 396.131 -1.37776 0.765217 0
M  V30 4052 C 397.061 -2.32945 0.160953 0
M  V30 4053 C 398.042 -1.55454 -0.690516 0
M  V30 4054 O 399.227 -1.83721 -0.629318 0
M  V30 4055 C 396.357 -3.39669 -0.724031 0
M  V30 4056 C 395.311 -4.27992 0.0256173 0
M  V30 4057 C 394.637 -5.25673 -0.978383 0
M  V30 4058 C 395.937 -5.08309 1.20082 0
M  V30 4059 H 397.631 -2.83728 0.955969 0
M  V30 4060 H 395.177 -1.36416 0.461149 0
M  V30 4061 H 397.13 -4.05219 -1.15652 0
M  V30 4062 H 395.854 -2.87396 -1.5515 0
M  V30 4063 H 394.513 -3.63964 0.438812 0
M  V30 4064 H 394.161 -4.69682 -1.80022 0
M  V30 4065 H 393.861 -5.85625 -0.481378 0
M  V30 4066 H 395.385 -5.94098 -1.40995 0
M  V30 4067 H 396.799 -5.67034 0.845307 0
M  V30 4068 H 395.196 -5.77554 1.62947 0
M  V30 4069 H 396.266 -4.41365 2.00811 0
M  V30 4070 N 397.609 -0.515225 -1.4894 0
M  V30 4071 C 398.855 0.0242508 -2.02785 0
M  V30 4072 C 399.188 1.35323 -1.39289 0
M  V30 4073 O 398.463 1.87041 -0.533469 0
M  V30 4074 C 398.746 0.16184 -3.59736 0
M  V30 4075 C 398.599 -1.19127 -4.33738 0
M  V30 4076 C 399.918 0.895719 -4.30888 0
M  V30 4077 H 397.037 0.00733914 -0.736963 0
M  V30 4078 H 399.679 -0.669395 -1.77818 0
M  V30 4079 H 397.829 0.752624 -3.8114 0
M  V30 4080 H 399.501 -1.82202 -4.23792 0
M  V30 4081 H 397.744 -1.77695 -3.95736 0
M  V30 4082 H 398.415 -1.04815 -5.41957 0
M  V30 4083 H 400.891 0.394528 -4.14225 0
M  V30 4084 H 399.767 0.960859 -5.40425 0
M  V30 4085 H 400.028 1.9427 -3.97129 0
M  V30 4086 N 399.087 1.5561 -0.249682 0
M  V30 4087 C 400.035 2.22894 0.664906 0
M  V30 4088 C 401.029 1.21743 1.17792 0
M  V30 4089 O 402.235 1.39748 1.13449 0
M  V30 4090 H 398.61 0.715022 0.232912 0
M  V30 4091 H 400.581 2.98307 0.0742998 0
M  V30 4092 C 399.33 2.94424 1.84959 0
M  V30 4093 H 398.653 3.72031 1.46399 0
M  V30 4094 H 400.093 3.44862 2.4667 0
M  V30 4095 C 398.552 1.98454 2.72245 0
M  V30 4096 O 399.082 1.51939 3.71857 0
M  V30 4097 N 397.288 1.65496 2.38871 0
M  V30 4098 H 396.835 2.03517 1.57919 0
M  V30 4099 H 396.793 1.0155 2.97548 0
M  V30 4100 N 400.565 -0.0233959 1.57583 0
M  V30 4101 C 401.497 -1.04994 2.03737 0
M  V30 4102 C 402.51 -1.32125 0.951152 0
M  V30 4103 O 403.699 -1.29512 1.22837 0
M  V30 4104 C 400.799 -2.39026 2.40249 0
M  V30 4105 C 399.972 -2.31171 3.7132 0
M  V30 4106 C 399.031 -3.47698 3.94959 0
M  V30 4107 O 398.057 -3.26937 4.65941 0
M  V30 4108 N 399.259 -4.6976 3.41037 0
M  V30 4109 H 402.024 -0.656507 2.92421 0
M  V30 4110 H 399.585 -0.211235 1.60516 0
M  V30 4111 H 401.577 -3.15712 2.53196 0
M  V30 4112 H 400.147 -2.70194 1.57207 0
M  V30 4113 H 399.367 -1.39547 3.68674 0
M  V30 4114 H 400.655 -2.23071 4.57293 0
M  V30 4115 H 400.053 -4.89528 2.83512 0
M  V30 4116 H 398.61 -5.43791 3.59353 0
M  V30 4117 N 402.043 -1.548 -0.295768 0
M  V30 4118 C 403.291 -1.73985 -1.02828 0
M  V30 4119 C 403.612 -0.531406 -1.87619 0
M  V30 4120 O 402.882 0.454221 -1.90561 0
M  V30 4121 H 401.462 -0.641556 -0.382642 0
M  V30 4122 H 404.124 -1.92163 -0.325489 0
M  V30 4123 H 403.22 -2.63129 -1.67838 0
M  V30 4124 N 403.521 0.559213 -1.47345 0
M  V30 4125 C 404.932 1.14134 -1.47751 0
M  V30 4126 C 405.283 1.94834 -0.231103 0
M  V30 4127 O 404.408 2.05957 0.664137 0
M  V30 4128 C 405.003 2.07653 -2.67705 0
M  V30 4129 C 403.562 2.61141 -2.71076 0
M  V30 4130 C 402.709 1.3748 -2.40821 0
M  V30 4131 H 405.66 0.345917 -1.54884 0
M  V30 4132 H 405.681 2.91497 -2.44561 0
M  V30 4133 H 405.193 1.4889 -3.58404 0
M  V30 4134 H 403.294 3.23707 -1.84511 0
M  V30 4135 H 403.407 3.02272 -3.7171 0
M  V30 4136 H 401.771 1.68086 -1.91362 0
M  V30 4137 H 402.554 0.805135 -3.33725 0
M  V30 4138 N 404.999 1.35443 0.805782 0
M  V30 4139 C 406.245 1.28952 1.56522 0
M  V30 4140 C 406.578 -0.135597 1.93726 0
M  V30 4141 O 405.853 -1.08516 1.61414 0
M  V30 4142 C 406.136 2.19678 2.85331 0
M  V30 4143 C 405.989 3.7081 2.54598 0
M  V30 4144 C 407.308 2.09495 3.8704 0
M  V30 4145 H 404.427 0.469764 0.567883 0
M  V30 4146 H 407.069 1.65851 0.927001 0
M  V30 4147 H 405.219 1.8834 3.39795 0
M  V30 4148 H 406.891 4.12593 2.06312 0
M  V30 4149 H 405.134 3.91051 1.8778 0
M  V30 4150 H 405.805 4.29679 3.46525 0
M  V30 4151 H 408.281 2.37045 3.41978 0
M  V30 4152 H 407.157 2.75173 4.74943 0
M  V30 4153 H 407.418 1.07714 4.28777 0
M  V30 4154 N 406.477 -1.02803 1.19454 0
M  V30 4155 C 407.41 -2.107 0.876396 0
M  V30 4156 C 408.388 -1.61741 -0.166897 0
M  V30 4157 O 409.572 -1.88451 -0.0430195 0
M  V30 4158 C 406.699 -3.37262 0.311758 0
M  V30 4159 C 405.745 -4.05093 1.33424 0
M  V30 4160 S 406.578 -4.50498 2.89503 0
M  V30 4161 C 407.734 -5.80277 2.34584 0
M  V30 4162 H 407.967 -2.37362 1.79016 0
M  V30 4163 H 405.5 -1.15755 1.02177 0
M  V30 4164 H 407.458 -4.10499 -0.00748752 0
M  V30 4165 H 406.119 -3.08693 -0.58032 0
M  V30 4166 H 405.312 -4.9611 0.888302 0
M  V30 4167 H 404.914 -3.3803 1.60037 0
M  V30 4168 H 407.206 -6.54873 1.73633 0
M  V30 4169 H 408.149 -6.29651 3.23952 0
M  V30 4170 H 408.557 -5.3599 1.77131 0
M  V30 4171 N 407.956 -0.998596 -1.21925 0
M  V30 4172 C 408.866 -0.562736 -2.27751 0
M  V30 4173 C 409.882 0.391203 -1.69545 0
M  V30 4174 O 411.058 0.256625 -1.99758 0
M  V30 4175 C 408.123 0.11012 -3.46525 0
M  V30 4176 C 407.184 -0.887495 -4.20026 0
M  V30 4177 C 406.417 -0.246654 -5.3313 0
M  V30 4178 O 406.64 0.958088 -5.62296 0
M  V30 4179 O 405.574 -0.954374 -5.94286 0
M  V30 4180 H 409.4 -1.44329 -2.67213 0
M  V30 4181 H 406.985 -0.767135 -1.28201 0
M  V30 4182 H 408.867 0.486756 -4.18579 0
M  V30 4183 H 407.542 0.965154 -3.08976 0
M  V30 4184 H 406.449 -1.31517 -3.5022 0
M  V30 4185 H 407.782 -1.71191 -4.6147 0
M  V30 4186 N 409.434 1.37368 -0.772513 0
M  V30 4187 C 410.68 1.99969 -0.337681 0
M  V30 4188 C 411.013 1.61184 1.08321 0
M  V30 4189 O 410.288 0.858395 1.74533 0
M  V30 4190 C 410.571 3.56858 -0.482121 0
M  V30 4191 C 410.424 4.0555 -1.94549 0
M  V30 4192 C 411.743 4.39955 0.113143 0
M  V30 4193 H 408.862 0.726464 -0.124171 0
M  V30 4194 H 411.504 1.63034 -0.975699 0
M  V30 4195 H 409.654 3.88452 0.0610361 0
M  V30 4196 H 411.326 3.84518 -2.54841 0
M  V30 4197 H 409.569 3.57715 -2.45403 0
M  V30 4198 H 410.24 5.14587 -1.9976 0
M  V30 4199 H 412.716 4.14623 -0.35031 0
M  V30 4200 H 411.592 5.48897 -0.0180514 0
M  V30 4201 H 411.853 4.25403 1.20354 0
M  V30 4202 N 410.912 0.523116 1.48665 0
M  V30 4203 C 412.323 0.0808997 1.86525 0
M  V30 4204 C 412.674 -1.33975 1.43336 0
M  V30 4205 O 411.799 -2.00221 0.821009 0
M  V30 4206 C 412.394 0.140037 3.3851 0
M  V30 4207 C 410.953 -0.246948 3.75589 0
M  V30 4208 C 410.1 0.502845 2.72703 0
M  V30 4209 H 413.051 0.734736 1.40667 0
M  V30 4210 H 413.072 -0.649945 3.74908 0
M  V30 4211 H 412.584 1.17412 3.69914 0
M  V30 4212 H 410.685 -1.28343 3.49798 0
M  V30 4213 H 410.798 0.0878859 4.79019 0
M  V30 4214 H 409.162 -0.0500581 2.54651 0
M  V30 4215 H 409.945 1.53743 3.0695 0
M  V30 4216 N 412.39 -1.55475 0.257931 0
M  V30 4217 C 413.618 -2.03609 -0.367559 0
M  V30 4218 C 414.033 -1.13687 -1.50734 0
M  V30 4219 O 413.39 -0.153479 -1.81853 0
M  V30 4220 C 413.441 -3.51001 -0.864908 0
M  V30 4221 O 413.162 -4.37499 0.229465 0
M  V30 4222 C 414.663 -4.14946 -1.55997 0
M  V30 4223 H 411.883 -0.665459 -0.0860521 0
M  V30 4224 H 414.427 -2.00843 0.385014 0
M  V30 4225 H 412.582 -3.54266 -1.56762 0
M  V30 4226 H 412.996 -5.24286 -0.14998 0
M  V30 4227 H 414.47 -5.19735 -1.85956 0
M  V30 4228 H 414.947 -3.6209 -2.4857 0
M  V30 4229 H 415.553 -4.15635 -0.901543 0
M  V30 4230 N 413.868 0.0150385 -1.57593 0
M  V30 4231 C 414.798 1.01047 -2.10503 0
M  V30 4232 C 415.779 1.36816 -1.01071 0
M  V30 4233 O 416.964 1.45455 -1.28672 0
M  V30 4234 C 414.094 2.30708 -2.59598 0
M  V30 4235 C 413.048 2.09142 -3.73421 0
M  V30 4236 C 412.374 3.44685 -4.08774 0
M  V30 4237 C 413.674 1.46619 -5.01298 0
M  V30 4238 H 415.368 0.569978 -2.93925 0
M  V30 4239 H 412.914 0.272724 -1.41394 0
M  V30 4240 H 414.867 3.00687 -2.95238 0
M  V30 4241 H 413.591 2.76843 -1.73279 0
M  V30 4242 H 412.25 1.41592 -3.38153 0
M  V30 4243 H 411.898 3.88495 -3.195 0
M  V30 4244 H 411.598 3.31077 -4.8545 0
M  V30 4245 H 413.122 4.16004 -4.4696 0
M  V30 4246 H 414.536 2.06535 -5.34805 0
M  V30 4247 H 412.933 1.43544 -5.82679 0
M  V30 4248 H 414.003 0.433611 -4.82957 0
M  V30 4249 N 415.346 1.54954 0.287554 0
M  V30 4250 C 416.293 1.86834 1.35505 0
M  V30 4251 C 417.263 0.718452 1.49758 0
M  V30 4252 O 418.448 0.968358 1.644 0
M  V30 4253 C 415.588 2.13303 2.71286 0
M  V30 4254 C 414.701 3.40883 2.65373 0
M  V30 4255 C 413.836 3.57125 3.93236 0
M  V30 4256 C 412.875 4.78449 3.81776 0
M  V30 4257 N 412.012 4.91426 5.01443 0
M  V30 4258 H 416.852 2.77889 1.07619 0
M  V30 4259 H 414.389 1.37593 0.520241 0
M  V30 4260 H 416.347 2.26646 3.50267 0
M  V30 4261 H 414.977 1.25499 2.97405 0
M  V30 4262 H 414.029 3.36088 1.78182 0
M  V30 4263 H 415.341 4.29993 2.52799 0
M  V30 4264 H 414.495 3.70207 4.80658 0
M  V30 4265 H 413.234 2.66173 4.0866 0
M  V30 4266 H 412.239 4.65386 2.92738 0
M  V30 4267 H 413.464 5.70822 3.67884 0
M  V30 4268 H 411.41 4.03401 5.17304 0
M  V30 4269 H 411.327 5.74559 4.91343 0
M  V30 4270 H 412.595 5.08879 5.90477 0
M  V30 4271 N 416.824 -0.551391 1.4764 0
M  V30 4272 C 418.235 -1.13349 1.48354 0
M  V30 4273 C 418.586 -1.94709 0.241432 0
M  V30 4274 O 417.711 -2.06306 -0.653205 0
M  V30 4275 C 418.306 -2.0623 2.68802 0
M  V30 4276 C 416.865 -2.597 2.72457 0
M  V30 4277 C 416.012 -1.36201 2.41546 0
M  V30 4278 H 418.963 -0.337698 1.55065 0
M  V30 4279 H 418.984 -2.90196 2.46103 0
M  V30 4280 H 418.496 -1.46987 3.59188 0
M  V30 4281 H 416.597 -3.22724 1.86225 0
M  V30 4282 H 416.71 -3.00296 3.73308 0
M  V30 4283 H 415.074 -1.67068 1.9225 0
M  V30 4284 H 415.857 -0.787425 3.34147 0
M  V30 4285 N 418.302 -1.35869 -0.798587 0
M  V30 4286 C 419.232 -1.32118 -1.92528 0
M  V30 4287 C 420.213 -0.194209 -1.68988 0
M  V30 4288 O 421.398 -0.390426 -1.90235 0
M  V30 4289 C 418.528 -1.10047 -3.29404 0
M  V30 4290 C 417.482 -2.19471 -3.67446 0
M  V30 4291 C 416.808 -1.82555 -5.02571 0
M  V30 4292 C 418.108 -3.61495 -3.76987 0
M  V30 4293 H 419.802 -2.26394 -1.95924 0
M  V30 4294 H 417.348 -1.08981 -0.94123 0
M  V30 4295 H 419.301 -1.06061 -4.07835 0
M  V30 4296 H 418.025 -0.122195 -3.26371 0
M  V30 4297 H 416.684 -2.22568 -2.91306 0
M  V30 4298 H 416.332 -0.833249 -4.9605 0
M  V30 4299 H 416.032 -2.5581 -5.28995 0
M  V30 4300 H 417.556 -1.80108 -5.83432 0
M  V30 4301 H 418.97 -3.60676 -4.4563 0
M  V30 4302 H 417.367 -4.33577 -4.14887 0
M  V30 4303 H 418.437 -3.97065 -2.78329 0
M  V30 4304 N 419.78 1.02168 -1.19998 0
M  V30 4305 C 421.005 1.79833 -1.03319 0
M  V30 4306 C 421.43 1.83504 0.413281 0
M  V30 4307 O 420.788 1.26635 1.29743 0
M  V30 4308 C 420.836 3.22396 -1.61533 0
M  V30 4309 O 419.94 4.03555 -0.849519 0
M  V30 4310 H 419.281 0.554872 -0.364709 0
M  V30 4311 H 421.811 1.28542 -1.59179 0
M  V30 4312 H 421.821 3.73124 -1.65054 0
M  V30 4313 H 420.496 3.19039 -2.66809 0
M  V30 4314 H 419.073 3.62169 -0.888129 0
M  V30 4315 N 421.258 1.00505 1.21394 0
M  V30 4316 C 422.168 0.574806 2.27449 0
M  V30 4317 C 423.184 -0.382206 1.6975 0
M  V30 4318 O 424.36 -0.246027 1.99892 0
M  V30 4319 C 421.425 -0.0917414 3.46579 0
M  V30 4320 C 420.486 0.909758 4.1955 0
M  V30 4321 C 419.719 0.274924 5.32991 0
M  V30 4322 O 419.942 -0.928254 5.62796 0
M  V30 4323 O 418.876 0.985877 5.93771 0
M  V30 4324 H 422.702 1.45744 2.66444 0
M  V30 4325 H 420.287 0.773923 1.27792 0
M  V30 4326 H 422.169 -0.464551 4.18832 0
M  V30 4327 H 420.844 -0.948755 3.09484 0
M  V30 4328 H 419.751 1.33372 3.49518 0
M  V30 4329 H 421.084 1.73636 4.60555 0
M  V30 4330 N 422.737 -1.36956 0.779787 0
M  V30 4331 C 424.014 -1.93697 0.272156 0
M  V30 4332 C 424.394 -1.71267 -1.23413 0
M  V30 4333 O 423.742 -1.06607 -2.02107 0
M  V30 4334 C 423.952 -3.42812 0.654291 0
M  V30 4335 C 425.3 -4.19921 0.628602 0
M  V30 4336 O 426.324 -3.51209 0.594172 0
M  V30 4337 O 425.183 -5.42465 0.662864 0
M  V30 4338 H 422.277 -0.824447 0.0649286 0
M  V30 4339 H 424.823 -1.46196 0.861682 0
M  V30 4340 H 423.595 -3.52754 1.69353 0
M  V30 4341 H 423.218 -3.97582 0.0381369 0
M  V30 4342 N 424.215 -0.530993 -1.48385 0
M  V30 4343 C 425.147 0.268353 -2.27624 0
M  V30 4344 C 426.16 0.903525 -1.35426 0
M  V30 4345 O 427.349 0.781796 -1.60469 0
M  V30 4346 C 424.449 1.39535 -3.08842 0
M  V30 4347 C 423.622 0.861913 -4.28824 0
M  V30 4348 C 422.681 1.87016 -4.91845 0
M  V30 4349 O 421.707 1.4267 -5.5103 0
M  V30 4350 N 422.909 3.20238 -4.84178 0
M  V30 4351 H 425.674 -0.41123 -2.96865 0
M  V30 4352 H 423.235 -0.365387 -1.57723 0
M  V30 4353 H 425.227 2.06803 -3.47871 0
M  V30 4354 H 423.797 1.97859 -2.42014 0
M  V30 4355 H 423.017 0.0132126 -3.94198 0
M  V30 4356 H 424.305 0.484415 -5.06489 0
M  V30 4357 H 423.703 3.58932 -4.37246 0
M  V30 4358 H 422.26 3.83136 -5.27305 0
M  V30 4359 N 425.693 1.55336 -0.266172 0
M  V30 4360 C 426.656 2.20878 0.612001 0
M  V30 4361 C 427.656 1.18388 1.08816 0
M  V30 4362 O 428.846 1.4335 0.989774 0
M  V30 4363 C 425.978 2.86765 1.84332 0
M  V30 4364 H 427.171 2.99873 0.0398718 0
M  V30 4365 H 424.724 1.56291 -0.0167309 0
M  V30 4366 H 425.459 2.11759 2.45619 0
M  V30 4367 H 425.244 3.61862 1.5099 0
M  V30 4368 H 426.734 3.36867 2.46801 0
M  V30 4369 N 427.171 -0.0066808 1.57599 0
M  V30 4370 C 428.587 -0.36267 1.55425 0
M  V30 4371 C 428.787 -1.75209 0.995187 0
M  V30 4372 O 427.843 -2.44616 0.626058 0
M  V30 4373 C 429.156 -0.244017 2.99708 0
M  V30 4374 C 430.704 -0.319451 3.11366 0
M  V30 4375 C 431.179 -0.229998 4.57422 0
M  V30 4376 N 432.67 -0.288105 4.62303 0
M  V30 4377 C 433.405 -0.242127 5.72889 0
M  V30 4378 N 432.901 -0.147133 6.92644 0
M  V30 4379 N 434.694 -0.293502 5.61333 0
M  V30 4380 H 426.845 0.902314 1.92281 0
M  V30 4381 H 429.108 0.34525 0.882896 0
M  V30 4382 H 428.814 0.711678 3.44424 0
M  V30 4383 H 428.688 -1.02877 3.629 0
M  V30 4384 H 431.075 -1.26559 2.66584 0
M  V30 4385 H 431.156 0.495055 2.50964 0
M  V30 4386 H 430.8 0.712566 5.02877 0
M  V30 4387 H 430.73 -1.0629 5.15761 0
M  V30 4388 H 433.221 -0.363126 3.76151 0
M  V30 4389 H 433.534 -0.117763 7.7271 0
M  V30 4390 H 431.879 -0.112857 6.94908 0
M  V30 4391 H 435.07 -0.365864 4.66668 0
M  V30 4392 H 435.243 -0.254204 6.47501 0
M  V30 4393 N 428.649 -1.55105 -0.279332 0
M  V30 4394 C 429.896 -1.75412 -1.01177 0
M  V30 4395 C 430.224 -0.551728 -1.86511 0
M  V30 4396 O 429.479 0.465919 -1.90073 0
M  V30 4397 C 429.778 -3.0086 -1.92919 0
M  V30 4398 C 429.444 -4.33689 -1.23387 0
M  V30 4399 C 428.106 -4.69792 -1.04159 0
M  V30 4400 C 430.458 -5.15941 -0.738562 0
M  V30 4401 C 427.786 -5.85707 -0.341166 0
M  V30 4402 C 430.138 -6.32579 -0.0517636 0
M  V30 4403 C 428.802 -6.67326 0.152292 0
M  V30 4404 H 428.072 -0.641879 -0.370233 0
M  V30 4405 H 430.719 -1.89373 -0.284627 0
M  V30 4406 H 429.024 -2.81773 -2.72234 0
M  V30 4407 H 430.721 -3.13768 -2.49701 0
M  V30 4408 H 427.311 -4.05309 -1.39364 0
M  V30 4409 H 431.495 -4.8853 -0.874764 0
M  V30 4410 H 426.751 -6.11157 -0.172287 0
M  V30 4411 H 430.925 -6.9557 0.339828 0
M  V30 4412 H 428.552 -7.56998 0.697014 0
M  V30 4413 N 430.127 0.543554 -1.4793 0
M  V30 4414 C 431.357 1.32324 -1.58663 0
M  V30 4415 C 431.765 1.8766 -0.240896 0
M  V30 4416 O 431.108 1.66411 0.778011 0
M  V30 4417 C 431.17 2.52094 -2.56299 0
M  V30 4418 C 430.834 2.17944 -4.01683 0
M  V30 4419 C 431.831 1.74422 -4.89768 0
M  V30 4420 C 429.516 2.28884 -4.47121 0
M  V30 4421 C 431.51 1.42287 -6.21316 0
M  V30 4422 C 429.197 1.96361 -5.78693 0
M  V30 4423 C 430.195 1.53132 -6.65612 0
M  V30 4424 O 429.883 1.21029 -7.94737 0
M  V30 4425 H 429.615 0.409174 -0.538101 0
M  V30 4426 H 432.169 0.663887 -1.94375 0
M  V30 4427 H 430.399 3.20965 -2.15681 0
M  V30 4428 H 432.088 3.14165 -2.57012 0
M  V30 4429 H 432.854 1.65452 -4.55907 0
M  V30 4430 H 428.733 2.61488 -3.79664 0
M  V30 4431 H 432.277 1.08472 -6.89115 0
M  V30 4432 H 428.174 2.04967 -6.12094 0
M  V30 4433 H 428.942 1.34543 -8.07366 0
M  V30 4434 N 431.605 1.3629 0.791371 0
M  V30 4435 C 432.852 1.30412 1.54916 0
M  V30 4436 C 433.18 -0.117162 1.94147 0
M  V30 4437 O 432.435 -1.08599 1.62803 0
M  V30 4438 C 432.734 2.17068 2.8393 0
M  V30 4439 C 432.4 3.65645 2.63846 0
M  V30 4440 C 431.062 4.0614 2.58077 0
M  V30 4441 C 433.414 4.59855 2.45322 0
M  V30 4442 C 430.742 5.3899 2.31748 0
M  V30 4443 C 433.094 5.9292 2.2052 0
M  V30 4444 C 431.758 6.32542 2.13183 0
M  V30 4445 H 431.028 0.47721 0.566879 0
M  V30 4446 H 433.675 1.68325 0.913172 0
M  V30 4447 H 431.98 1.72085 3.51986 0
M  V30 4448 H 433.677 2.09846 3.4171 0
M  V30 4449 H 430.267 3.33518 2.69191 0
M  V30 4450 H 434.451 4.29443 2.48782 0
M  V30 4451 H 429.707 5.68672 2.24548 0
M  V30 4452 H 433.881 6.65487 2.05182 0
M  V30 4453 H 431.508 7.35412 1.92544 0
M  V30 4454 N 433.083 -1.0153 1.20538 0
M  V30 4455 C 434.015 -2.10224 0.913155 0
M  V30 4456 C 435.028 -1.62495 -0.0995998 0
M  V30 4457 O 436.217 -1.78014 0.131582 0
M  V30 4458 C 433.317 -3.37111 0.347717 0
M  V30 4459 C 432.49 -4.13971 1.41233 0
M  V30 4460 C 431.549 -5.19158 0.857976 0
M  V30 4461 O 430.575 -5.48 1.53897 0
M  V30 4462 N 431.777 -5.7955 -0.331966 0
M  V30 4463 H 434.542 -2.35879 1.84881 0
M  V30 4464 H 432.103 -1.17931 1.10923 0
M  V30 4465 H 434.095 -4.04683 -0.0373026 0
M  V30 4466 H 432.665 -3.08696 -0.492527 0
M  V30 4467 H 431.885 -3.41351 1.97163 0
M  V30 4468 H 433.173 -4.62103 2.12928 0
M  V30 4469 H 432.571 -5.58455 -0.902478 0
M  V30 4470 H 431.128 -6.48464 -0.65861 0
M  V30 4471 N 434.561 -1.01147 -1.20859 0
M  V30 4472 C 435.838 -0.613136 -1.85742 0
M  V30 4473 C 436.218 0.909004 -1.90526 0
M  V30 4474 O 435.566 1.79862 -1.40932 0
M  V30 4475 C 435.776 -1.255 -3.25654 0
M  V30 4476 C 437.124 -1.3672 -4.01986 0
M  V30 4477 O 438.148 -1.21082 -3.34989 0
M  V30 4478 O 437.007 -1.6194 -5.21956 0
M  V30 4479 H 434.101 -0.210878 -0.799662 0
M  V30 4480 H 436.647 -1.10853 -1.2849 0
M  V30 4481 H 435.419 -2.29532 -3.16908 0
M  V30 4482 H 435.042 -0.746369 -3.90532 0
M  V30 4483 N 436.039 1.36541 -0.78704 0
M  V30 4484 C 436.969 2.32659 -0.197992 0
M  V30 4485 C 437.95 1.56533 0.665697 0
M  V30 4486 O 439.135 1.84698 0.60001 0
M  V30 4487 C 436.265 3.40778 0.669901 0
M  V30 4488 C 435.219 4.27897 -0.0937039 0
M  V30 4489 C 434.545 5.27163 0.894629 0
M  V30 4490 C 435.845 5.06334 -1.28154 0
M  V30 4491 H 437.539 2.82171 -1.00099 0
M  V30 4492 H 435.085 1.35665 -0.482793 0
M  V30 4493 H 437.038 4.07008 1.09191 0
M  V30 4494 H 435.762 2.89827 1.50558 0
M  V30 4495 H 434.421 3.6322 -0.49666 0
M  V30 4496 H 434.069 4.72486 1.72527 0
M  V30 4497 H 433.769 5.86317 0.388149 0
M  V30 4498 H 435.293 5.96266 1.31525 0
M  V30 4499 H 436.707 5.65617 -0.93541 0
M  V30 4500 H 435.104 5.74888 -1.72115 0
M  V30 4501 H 436.174 4.38114 -2.07807 0
M  V30 4502 N 437.518 0.538854 1.48102 0
M  V30 4503 C 438.767 0.0059532 2.01699 0
M  V30 4504 C 439.08 -1.34476 1.42041 0
M  V30 4505 O 440.286 -1.96653 1.87189 0
M  V30 4506 C 438.742 -0.0397627 3.59878 0
M  V30 4507 C 438.35 1.30659 4.28523 0
M  V30 4508 C 440.094 -0.521024 4.2129 0
M  V30 4509 C 438.001 1.22098 5.78659 0
M  V30 4510 H 436.931 -0.00154456 0.753998 0
M  V30 4511 H 439.582 0.683963 1.70277 0
M  V30 4512 H 437.964 -0.783037 3.88181 0
M  V30 4513 H 439.138 2.06613 4.11883 0
M  V30 4514 H 437.453 1.7243 3.79021 0
M  V30 4515 H 440.05 -0.603184 5.31287 0
M  V30 4516 H 440.393 -1.52885 3.8721 0
M  V30 4517 H 440.926 0.166834 3.9745 0
M  V30 4518 H 437.665 2.20424 6.17328 0
M  V30 4519 H 437.185 0.50295 5.97688 0
M  V30 4520 H 438.864 0.915345 6.40492 0
M  V30 4521 N 438.996 -1.55193 0.274407 0
M  V30 4522 C 439.943 -2.225 -0.613374 0
M  V30 4523 C 440.913 -1.19823 -1.15029 0
M  V30 4524 O 442.098 -1.48362 -1.19973 0
M  V30 4525 C 439.238 -2.94927 -1.79199 0
M  V30 4526 C 438.351 -4.12322 -1.28899 0
M  V30 4527 C 437.486 -4.72394 -2.42934 0
M  V30 4528 C 436.525 -5.81984 -1.89634 0
M  V30 4529 N 435.662 -6.36123 -2.9714 0
M  V30 4530 H 440.502 -2.97982 -0.032756 0
M  V30 4531 H 438.039 -1.47099 -0.00440146 0
M  V30 4532 H 439.997 -3.35134 -2.48478 0
M  V30 4533 H 438.627 -2.2187 -2.34465 0
M  V30 4534 H 437.679 -3.7724 -0.489327 0
M  V30 4535 H 438.991 -4.91355 -0.858587 0
M  V30 4536 H 438.145 -5.15317 -3.20208 0
M  V30 4537 H 436.884 -3.92636 -2.8929 0
M  V30 4538 H 435.889 -5.38511 -1.1084 0
M  V30 4539 H 437.114 -6.6361 -1.44215 0
M  V30 4540 H 435.06 -5.59259 -3.42878 0
M  V30 4541 H 434.977 -7.10427 -2.58515 0
M  V30 4542 H 436.245 -6.83704 -3.74391 0
M  V30 4543 N 440.474 -0.00167713 -1.576 0
M  V30 4544 C 441.722 0.681471 -1.90264 0
M  V30 4545 C 442.043 1.7422 -0.875924 0
M  V30 4546 O 441.313 1.95709 0.0864412 0
M  V30 4547 H 439.893 0.254696 -0.702239 0
M  V30 4548 H 442.555 -0.0429996 -1.94853 0
M  V30 4549 H 441.651 1.15166 -2.90075 0
M  V30 4550 N 441.952 1.55251 0.271103 0
M  V30 4551 C 443.201 1.75151 1.00025 0
M  V30 4552 C 443.514 0.561041 1.87381 0
M  V30 4553 O 444.72 0.642506 2.63788 0
M  V30 4554 C 443.176 3.09999 1.82835 0
M  V30 4555 C 442.784 4.3662 1.00336 0
M  V30 4556 C 444.528 3.39249 2.55168 0
M  V30 4557 C 442.435 5.62506 1.82595 0
M  V30 4558 H 441.365 0.652877 0.377183 0
M  V30 4559 H 444.016 1.81708 0.255843 0
M  V30 4560 H 442.398 2.97485 2.61378 0
M  V30 4561 H 443.572 4.60055 0.261959 0
M  V30 4562 H 441.887 4.14527 0.394486 0
M  V30 4563 H 444.484 4.3051 3.1712 0
M  V30 4564 H 444.827 2.59467 3.2555 0
M  V30 4565 H 445.36 3.52869 1.83653 0
M  V30 4566 H 442.099 6.45041 1.16631 0
M  V30 4567 H 441.619 5.43211 2.54327 0
M  V30 4568 H 443.298 6.00875 2.39913 0
M  V30 4569 N 443.43 -0.535701 1.48216 0
M  V30 4570 C 444.34 -1.66785 1.64985 0
M  V30 4571 C 445.356 -1.65654 0.532414 0
M  V30 4572 O 446.532 -1.8471 0.80275 0
M  V30 4573 C 443.597 -3.0326 1.68031 0
M  V30 4574 C 442.658 -3.1529 2.9136 0
M  V30 4575 C 441.891 -4.45255 2.94252 0
M  V30 4576 O 442.114 -5.32011 2.05719 0
M  V30 4577 O 441.048 -4.6153 3.86359 0
M  V30 4578 H 444.874 -1.55576 2.60825 0
M  V30 4579 H 442.459 -0.70815 1.31551 0
M  V30 4580 H 444.341 -3.84436 1.72589 0
M  V30 4581 H 443.016 -3.14805 0.753628 0
M  V30 4582 H 441.923 -2.3343 2.92337 0
M  V30 4583 H 443.256 -3.08658 3.83394 0
M  V30 4584 N 444.908 -1.36708 -0.784132 0
M  V30 4585 C 446.138 -1.34203 -1.57077 0
M  V30 4586 C 446.546 0.0774945 -1.89041 0
M  V30 4587 O 445.889 1.04628 -1.50992 0
M  V30 4588 C 445.951 -2.10351 -2.91535 0
M  V30 4589 C 445.615 -3.59405 -2.82272 0
M  V30 4590 C 446.612 -4.53545 -2.54151 0
M  V30 4591 C 444.297 -4.02362 -3.00683 0
M  V30 4592 C 446.291 -5.8862 -2.44551 0
M  V30 4593 C 443.978 -5.37526 -2.90704 0
M  V30 4594 C 444.976 -6.30468 -2.62677 0
M  V30 4595 O 444.664 -7.63149 -2.52702 0
M  V30 4596 H 444.396 -0.461791 -0.493685 0
M  V30 4597 H 446.95 -1.80475 -0.980712 0
M  V30 4598 H 445.18 -1.5875 -3.52612 0
M  V30 4599 H 446.869 -2.00636 -3.52845 0
M  V30 4600 H 447.635 -4.21669 -2.39625 0
M  V30 4601 H 443.514 -3.30389 -3.21503 0
M  V30 4602 H 447.058 -6.61133 -2.22596 0
M  V30 4603 H 442.955 -5.69008 -3.04795 0
M  V30 4604 H 443.723 -7.73331 -2.68144 0
M  V30 4605 N 446.386 1.0089 -1.21074 0
M  V30 4606 C 447.316 2.1145 -0.990523 0
M  V30 4607 C 448.297 1.69897 0.0831699 0
M  V30 4608 O 449.482 1.94052 -0.0758853 0
M  V30 4609 C 446.612 3.42914 -0.550177 0
M  V30 4610 C 445.566 3.98244 -1.56799 0
M  V30 4611 C 444.892 5.25568 -0.984013 0
M  V30 4612 C 446.192 4.30752 -2.95381 0
M  V30 4613 H 447.886 2.3013 -1.91521 0
M  V30 4614 H 445.432 1.10592 -0.92225 0
M  V30 4615 H 447.385 4.19653 -0.383305 0
M  V30 4616 H 446.109 3.24014 0.41015 0
M  V30 4617 H 444.768 3.23621 -1.72236 0
M  V30 4618 H 444.416 5.02998 -0.0155216 0
M  V30 4619 H 444.116 5.63551 -1.66384 0
M  V30 4620 H 445.64 6.04955 -0.828378 0
M  V30 4621 H 447.054 4.98349 -2.8341 0
M  V30 4622 H 445.451 4.79869 -3.60341 0
M  V30 4623 H 446.521 3.39192 -3.46521 0
M  V30 4624 N 447.864 1.01787 1.20321 0
M  V30 4625 C 448.814 0.559976 2.21016 0
M  V30 4626 C 449.798 -0.385366 1.56217 0
M  V30 4627 O 450.99 -0.208126 1.75772 0
M  V30 4628 C 448.119 -0.0990553 3.43157 0
M  V30 4629 C 447.205 0.86807 4.15121 0
M  V30 4630 N 447.596 2.0261 4.63447 0
M  V30 4631 C 445.894 0.689162 4.40643 0
M  V30 4632 C 446.595 2.63518 5.18588 0
M  V30 4633 N 445.571 1.91569 5.08726 0
M  V30 4634 H 449.373 1.44281 2.56048 0
M  V30 4635 H 446.887 0.883381 1.36272 0
M  V30 4636 H 448.884 -0.444643 4.14522 0
M  V30 4637 H 447.544 -0.977709 3.0963 0
M  V30 4638 H 448.555 2.40598 4.58621 0
M  V30 4639 H 445.232 -0.14133 4.17261 0
M  V30 4640 H 446.622 3.61527 5.66346 0
M  V30 4641 N 449.342 -1.36122 0.79427 0
M  V30 4642 C 450.572 -2.03067 0.380437 0
M  V30 4643 C 450.98 -1.60018 -1.00949 0
M  V30 4644 O 450.323 -0.787425 -1.65968 0
M  V30 4645 C 450.385 -3.57587 0.37034 0
M  V30 4646 C 450.049 -4.23855 1.70867 0
M  V30 4647 C 451.046 -4.46404 2.66496 0
M  V30 4648 C 448.731 -4.61229 1.9893 0
M  V30 4649 C 450.725 -5.05412 3.88378 0
M  V30 4650 C 448.412 -5.19953 3.21079 0
M  V30 4651 C 449.41 -5.41985 4.15621 0
M  V30 4652 O 449.098 -5.99475 5.35616 0
M  V30 4653 H 448.83 -0.658168 0.154243 0
M  V30 4654 H 451.384 -1.7498 1.0757 0
M  V30 4655 H 449.614 -3.84814 -0.381444 0
M  V30 4656 H 451.303 -4.05895 -0.0194894 0
M  V30 4657 H 452.069 -4.17921 2.46103 0
M  V30 4658 H 447.948 -4.43402 1.26158 0
M  V30 4659 H 451.492 -5.22524 4.62185 0
M  V30 4660 H 447.389 -5.47862 3.41347 0
M  V30 4661 H 448.157 -6.17937 5.36745 0
M  V30 4662 N 450.82 -0.546701 -1.47814 0
M  V30 4663 C 451.752 0.244196 -2.27895 0
M  V30 4664 C 452.765 0.88911 -1.36377 0
M  V30 4665 O 453.954 0.764733 -1.61289 0
M  V30 4666 C 451.054 1.36252 -3.10304 0
M  V30 4667 C 450.227 0.816382 -4.29714 0
M  V30 4668 C 449.286 1.81789 -4.93801 0
M  V30 4669 O 448.312 1.36818 -5.52512 0
M  V30 4670 N 449.514 3.15085 -4.87547 0
M  V30 4671 H 452.279 -0.442694 -2.96412 0
M  V30 4672 H 449.84 -0.382095 -1.57327 0
M  V30 4673 H 451.832 2.03102 -3.50045 0
M  V30 4674 H 450.402 1.95281 -2.44099 0
M  V30 4675 H 449.622 -0.0285981 -3.9419 0
M  V30 4676 H 450.91 0.430668 -5.06974 0
M  V30 4677 H 450.308 3.54275 -4.41028 0
M  V30 4678 H 448.865 3.77522 -5.31339 0
M  V30 4679 N 452.299 1.55045 -0.282633 0
M  V30 4680 C 453.246 2.22822 0.601566 0
M  V30 4681 C 454.216 1.20431 1.14392 0
M  V30 4682 O 455.401 1.48996 1.19184 0
M  V30 4683 C 452.541 2.95873 1.77632 0
M  V30 4684 C 451.654 4.12999 1.26711 0
M  V30 4685 C 450.789 4.73676 2.40426 0
M  V30 4686 C 449.828 5.82981 1.86545 0
M  V30 4687 N 448.965 6.3769 2.93762 0
M  V30 4688 H 453.805 2.97995 0.0169528 0
M  V30 4689 H 451.342 1.471 -0.00339964 0
M  V30 4690 H 453.3 3.36447 2.46697 0
M  V30 4691 H 451.93 2.2311 2.33285 0
M  V30 4692 H 450.982 3.77494 0.469314 0
M  V30 4693 H 452.294 4.91803 0.832518 0
M  V30 4694 H 451.448 5.17008 3.17471 0
M  V30 4695 H 450.187 3.94164 2.87203 0
M  V30 4696 H 449.192 5.39092 1.07983 0
M  V30 4697 H 450.417 6.64366 1.40694 0
M  V30 4698 H 448.363 5.61069 3.39908 0
M  V30 4699 H 448.28 7.11788 2.54744 0
M  V30 4700 H 449.548 6.8568 3.7076 0
M  V30 4701 N 453.777 0.010035 1.57597 0
M  V30 4702 C 455.026 -0.671945 1.90178 0
M  V30 4703 C 455.339 -1.74376 0.886131 0
M  V30 4704 O 456.545 -2.48107 1.10252 0
M  V30 4705 C 455.001 -1.24636 3.3763 0
M  V30 4706 C 454.609 -0.208838 4.47513 0
M  V30 4707 C 456.353 -1.90595 3.79307 0
M  V30 4708 C 454.26 -0.793814 5.86048 0
M  V30 4709 H 453.19 -0.25474 0.709665 0
M  V30 4710 H 455.841 0.0722206 1.83358 0
M  V30 4711 H 454.223 -2.04152 3.3932 0
M  V30 4712 H 455.397 0.562463 4.57354 0
M  V30 4713 H 453.712 0.350889 4.14919 0
M  V30 4714 H 456.309 -2.35284 4.80151 0
M  V30 4715 H 456.652 -2.74074 3.13352 0
M  V30 4716 H 457.185 -1.17798 3.79958 0
M  V30 4717 H 453.924 0.00240855 6.555 0
M  V30 4718 H 453.444 -1.53404 5.79851 0
M  V30 4719 H 455.123 -1.2894 6.34022 0
M  V30 4720 N 455.255 -1.55392 -0.262866 0
M  V30 4721 C 456.504 -1.75679 -0.990943 0
M  V30 4722 C 456.817 -0.57097 -1.87081 0
M  V30 4723 O 458.023 -0.656486 -2.63444 0
M  V30 4724 C 456.479 -3.10964 -1.81188 0
M  V30 4725 C 456.087 -4.37146 -0.980188 0
M  V30 4726 C 457.831 -3.40597 -2.53365 0
M  V30 4727 C 455.738 -5.63466 -1.7961 0
M  V30 4728 H 454.668 -0.654868 -0.373716 0
M  V30 4729 H 457.319 -1.81841 -0.246203 0
M  V30 4730 H 455.701 -2.98867 -2.59797 0
M  V30 4731 H 456.875 -4.60187 -0.237558 0
M  V30 4732 H 455.19 -4.14731 -0.372497 0
M  V30 4733 H 457.787 -4.32186 -3.14833 0
M  V30 4734 H 458.13 -2.6119 -3.24169 0
M  V30 4735 H 458.663 -3.53838 -1.81779 0
M  V30 4736 H 455.402 -6.4565 -1.13209 0
M  V30 4737 H 454.922 -5.44552 -2.51443 0
M  V30 4738 H 456.601 -6.02139 -2.36723 0
M  V30 4739 N 456.733 0.527833 -1.48498 0
M  V30 4740 C 457.683 1.62844 -1.5958 0
M  V30 4741 C 458.667 1.54397 -0.452809 0
M  V30 4742 O 459.859 1.62381 -0.704364 0
M  V30 4743 C 456.988 3.01557 -1.64067 0
M  V30 4744 C 456.074 3.151 -2.83853 0
M  V30 4745 N 456.465 2.9861 -4.08247 0
M  V30 4746 C 454.763 3.46158 -2.8123 0
M  V30 4747 C 455.464 3.15626 -4.88626 0
M  V30 4748 N 454.44 3.43298 -4.21483 0
M  V30 4749 H 458.242 1.48708 -2.53502 0
M  V30 4750 H 455.756 0.733343 -1.44899 0
M  V30 4751 H 457.753 3.8062 -1.70101 0
M  V30 4752 H 456.413 3.16783 -0.712636 0
M  V30 4753 H 457.424 2.75329 -4.3865 0
M  V30 4754 H 454.101 3.67728 -1.97692 0
M  V30 4755 H 455.491 3.07596 -5.97356 0
M  V30 4756 N 458.211 1.37122 0.776871 0
M  V30 4757 C 459.627 1.1781 1.07671 0
M  V30 4758 C 459.827 0.0107454 2.01497 0
M  V30 4759 O 458.883 -0.650756 2.4397 0
M  V30 4760 C 460.196 2.49451 1.67913 0
M  V30 4761 C 461.744 2.55927 1.80195 0
M  V30 4762 C 462.219 3.87686 2.43851 0
M  V30 4763 N 463.71 3.891 2.51307 0
M  V30 4764 C 464.445 4.87797 3.014 0
M  V30 4765 N 463.941 5.96888 3.51705 0
M  V30 4766 N 465.734 4.75205 3.00227 0
M  V30 4767 H 457.885 2.11843 0.153778 0
M  V30 4768 H 460.148 0.938927 0.130844 0
M  V30 4769 H 459.854 3.35207 1.06439 0
M  V30 4770 H 459.728 2.66169 2.67271 0
M  V30 4771 H 462.115 1.70582 2.40803 0
M  V30 4772 H 462.196 2.43097 0.796069 0
M  V30 4773 H 461.84 4.73444 1.83884 0
M  V30 4774 H 461.77 3.97817 3.45035 0
M  V30 4775 H 464.261 3.10293 2.157 0
M  V30 4776 H 464.574 6.68155 3.88316 0
M  V30 4777 H 462.919 6.0054 3.49824 0
M  V30 4778 H 466.11 3.89103 2.60224 0
M  V30 4779 H 466.283 5.52279 3.38957 0
M  V30 4780 N 459.689 -1.00246 1.21608 0
M  V30 4781 C 460.966 -1.71336 0.943568 0
M  V30 4782 C 461.346 -2.03972 -0.543943 0
M  V30 4783 O 460.694 -1.71545 -1.50946 0
M  V30 4784 C 460.904 -2.97094 1.83128 0
M  V30 4785 C 462.252 -3.70071 2.08165 0
M  V30 4786 O 463.276 -3.07081 1.80498 0
M  V30 4787 O 462.135 -4.83376 2.54971 0
M  V30 4788 H 459.229 -0.747386 0.354039 0
M  V30 4789 H 461.775 -1.05967 1.32549 0
M  V30 4790 H 460.547 -2.69407 2.83788 0
M  V30 4791 H 460.17 -3.70204 1.45034 0
M  V30 4792 N 461.167 -1.02423 -1.1978 0
M  V30 4793 C 462.416 -0.713265 -1.88667 0
M  V30 4794 C 462.729 0.7609 -1.80193 0
M  V30 4795 O 463.935 1.18473 -2.44288 0
M  V30 4796 C 462.391 -1.22545 -3.38394 0
M  V30 4797 C 461.999 -2.72706 -3.55437 0
M  V30 4798 C 463.743 -0.990257 -4.12788 0
M  V30 4799 C 461.65 -3.17367 -4.99031 0
M  V30 4800 H 460.58 -0.263105 -0.706606 0
M  V30 4801 H 463.231 -1.23792 -1.35454 0
M  V30 4802 H 461.613 -0.628732 -3.90977 0
M  V30 4803 H 462.787 -3.37993 -3.13205 0
M  V30 4804 H 461.102 -2.94453 -2.94425 0
M  V30 4805 H 463.699 -1.29926 -5.18675 0
M  V30 4806 H 464.042 0.0730761 -4.16236 0
M  V30 4807 H 464.575 -1.55074 -3.66329 0
M  V30 4808 H 461.314 -4.23009 -5.00743 0
M  V30 4809 H 460.834 -2.56805 -5.42044 0
M  V30 4810 H 462.513 -3.10441 -5.67658 0
M  V30 4811 N 462.645 1.35699 -0.801477 0
M  V30 4812 C 463.592 2.29876 -0.206294 0
M  V30 4813 C 464.562 1.52565 0.656752 0
M  V30 4814 O 465.747 1.81024 0.602906 0
M  V30 4815 C 462.887 3.39052 0.643272 0
M  V30 4816 C 462 4.31335 -0.239644 0
M  V30 4817 C 461.135 5.27599 0.61744 0
M  V30 4818 C 460.174 6.11521 -0.26619 0
M  V30 4819 N 459.311 6.99938 0.550571 0
M  V30 4820 H 464.151 2.80187 -1.01484 0
M  V30 4821 H 461.688 1.37902 -0.511997 0
M  V30 4822 H 463.646 4.0101 1.15094 0
M  V30 4823 H 462.276 2.9003 1.41713 0
M  V30 4824 H 461.328 3.70426 -0.865381 0
M  V30 4825 H 462.64 4.90243 -0.919985 0
M  V30 4826 H 461.794 5.94906 1.19045 0
M  V30 4827 H 460.533 4.69176 1.33137 0
M  V30 4828 H 459.538 5.43166 -0.851507 0
M  V30 4829 H 460.763 6.72022 -0.9779 0
M  V30 4830 H 458.709 6.44008 1.24856 0
M  V30 4831 H 458.626 7.55966 -0.071832 0
M  V30 4832 H 459.894 7.71599 1.10702 0
M  V30 4833 N 464.123 0.554532 1.47522 0
M  V30 4834 C 465.534 0.120446 1.86311 0
M  V30 4835 C 465.885 -1.30904 1.46145 0
M  V30 4836 O 465.01 -1.98434 0.863294 0
M  V30 4837 C 465.605 0.211808 3.38137 0
M  V30 4838 C 464.164 -0.167224 3.76028 0
M  V30 4839 C 463.311 0.560576 2.71575 0
M  V30 4840 H 466.262 0.764408 1.39077 0
M  V30 4841 H 466.283 -0.570275 3.76202 0
M  V30 4842 H 465.795 1.25232 3.6734 0
M  V30 4843 H 463.896 -1.20894 3.52442 0
M  V30 4844 H 464.009 0.189473 4.78725 0
M  V30 4845 H 462.373 0.00396836 2.547 0
M  V30 4846 H 463.156 1.60219 3.0362 0
M  V30 4847 N 465.601 -1.54893 0.290851 0
M  V30 4848 C 466.826 -2.04804 -0.32712 0
M  V30 4849 C 467.251 -1.16721 -1.47506 0
M  V30 4850 O 466.609 -0.169107 -1.8051 0
M  V30 4851 C 466.657 -3.52268 -0.770689 0
M  V30 4852 O 465.761 -3.67236 -1.87647 0
M  V30 4853 H 465.102 -0.660789 -0.0652227 0
M  V30 4854 H 467.632 -2.00036 0.429739 0
M  V30 4855 H 467.642 -3.9393 -1.06223 0
M  V30 4856 H 466.317 -4.15843 0.069096 0
M  V30 4857 H 464.894 -3.37479 -1.58626 0
M  V30 4858 N 467.08 -0.0183926 -1.57589 0
M  V30 4859 C 468.028 0.985111 -2.10709 0
M  V30 4860 C 469.022 1.34397 -1.0312 0
M  V30 4861 O 470.228 1.32746 -1.21567 0
M  V30 4862 H 466.603 0.335418 -0.673052 0
M  V30 4863 H 468.574 0.511689 -2.9398 0
M  V30 4864 C 467.323 2.26202 -2.64061 0
M  V30 4865 H 466.646 1.9946 -3.4649 0
M  V30 4866 H 468.086 2.94652 -3.04887 0
M  V30 4867 C 466.545 2.98444 -1.5631 0
M  V30 4868 O 467.075 3.90142 -0.956674 0
M  V30 4869 N 465.281 2.6059 -1.28612 0
M  V30 4870 H 464.828 1.86101 -1.78112 0
M  V30 4871 H 464.786 3.09238 -0.567406 0
M  V30 4872 N 468.558 1.5553 0.254621 0
M  V30 4873 C 469.488 1.9268 1.31897 0
M  V30 4874 C 470.469 0.790797 1.506 0
M  V30 4875 O 471.654 1.05045 1.63337 0
M  V30 4876 C 468.784 2.21477 2.67517 0
M  V30 4877 C 467.738 3.37256 2.63519 0
M  V30 4878 C 467.064 3.51576 4.02862 0
M  V30 4879 C 468.364 4.73157 2.21179 0
M  V30 4880 H 470.058 2.81832 1.01051 0
M  V30 4881 H 467.604 1.35599 0.484662 0
M  V30 4882 H 469.557 2.46055 3.42104 0
M  V30 4883 H 468.281 1.29144 2.99982 0
M  V30 4884 H 466.94 3.12675 1.9139 0
M  V30 4885 H 466.588 2.56676 4.32581 0
M  V30 4886 H 466.288 4.2943 4.01078 0
M  V30 4887 H 467.812 3.78467 4.79161 0
M  V30 4888 H 469.226 4.97158 2.85494 0
M  V30 4889 H 467.623 5.54058 2.30521 0
M  V30 4890 H 468.693 4.70739 1.16332 0
M  V30 4891 N 470.036 -0.519951 1.48776 0
M  V30 4892 C 470.966 -1.63253 1.66945 0
M  V30 4893 C 471.947 -1.62014 0.518224 0
M  V30 4894 O 473.132 -1.79053 0.751919 0
M  V30 4895 C 470.262 -3.0181 1.71836 0
M  V30 4896 C 469.216 -3.17911 2.8656 0
M  V30 4897 C 468.542 -4.5763 2.76548 0
M  V30 4898 C 469.842 -2.99729 4.27738 0
M  V30 4899 H 471.536 -1.48302 2.6009 0
M  V30 4900 H 469.082 -0.712026 1.25165 0
M  V30 4901 H 471.035 -3.79525 1.83135 0
M  V30 4902 H 469.759 -3.17806 0.752775 0
M  V30 4903 H 468.418 -2.42616 2.74833 0
M  V30 4904 H 468.066 -4.70476 1.77937 0
M  V30 4905 H 467.766 -4.69346 3.53536 0
M  V30 4906 H 469.29 -5.37431 2.89828 0
M  V30 4907 H 470.704 -3.67228 4.40246 0
M  V30 4908 H 469.101 -3.22932 5.05801 0
M  V30 4909 H 470.171 -1.96047 4.43502 0
M  V30 4910 N 471.514 -1.37532 -0.769588 0
M  V30 4911 C 472.76 -1.33057 -1.53048 0
M  V30 4912 C 473.093 0.0841865 -1.94017 0
M  V30 4913 O 472.368 1.04198 -1.64235 0
M  V30 4914 C 472.651 -2.27166 -2.79406 0
M  V30 4915 C 472.504 -3.77429 -2.44677 0
M  V30 4916 C 473.823 -2.19683 -3.81349 0
M  V30 4917 H 470.942 -0.484655 -0.555228 0
M  V30 4918 H 473.584 -1.68251 -0.882702 0
M  V30 4919 H 471.734 -1.97283 -3.34682 0
M  V30 4920 H 473.406 -4.17918 -1.953 0
M  V30 4921 H 471.649 -3.95892 -1.77346 0
M  V30 4922 H 472.32 -4.38716 -3.35011 0
M  V30 4923 H 474.796 -2.46029 -3.35573 0
M  V30 4924 H 473.672 -2.87668 -4.67481 0
M  V30 4925 H 473.933 -1.19045 -4.25771 0
M  V30 4926 N 472.992 0.995999 -1.22138 0
M  V30 4927 C 474.24 1.73167 -1.042 0
M  V30 4928 C 474.561 1.90329 0.42423 0
M  V30 4929 O 473.831 1.4607 1.30539 0
M  V30 4930 H 472.411 0.641593 -0.38258 0
M  V30 4931 H 475.073 1.19974 -1.53598 0
M  V30 4932 H 474.169 2.72734 -1.51731 0
M  V30 4933 N 474.47 1.03057 1.19235 0
M  V30 4934 C 475.38 0.622922 2.26179 0
M  V30 4935 C 476.396 -0.346113 1.70523 0
M  V30 4936 O 477.572 -0.203572 2.00369 0
M  V30 4937 C 474.637 -0.0182063 3.46695 0
M  V30 4938 C 473.698 0.998546 4.17526 0
M  V30 4939 C 472.931 0.387917 5.32288 0
M  V30 4940 O 473.154 -0.808668 5.64639 0
M  V30 4941 O 472.088 1.1116 5.91546 0
M  V30 4942 H 475.914 1.51363 2.63292 0
M  V30 4943 H 473.499 0.800856 1.26122 0
M  V30 4944 H 475.381 -0.375606 4.19723 0
M  V30 4945 H 474.056 -0.882895 3.11427 0
M  V30 4946 H 472.963 1.40756 3.4661 0
M  V30 4947 H 474.296 1.83366 4.56769 0
M  V30 4948 N 475.948 -1.35272 0.808662 0
M  V30 4949 C 477.225 -1.93077 0.313181 0
M  V30 4950 C 477.605 -1.73847 -1.19752 0
M  V30 4951 O 476.953 -1.1087 -1.998 0
M  V30 4952 C 477.163 -3.41347 0.726859 0
M  V30 4953 C 478.511 -4.18493 0.717532 0
M  V30 4954 O 479.535 -3.4987 0.668535 0
M  V30 4955 O 478.394 -5.40937 0.777779 0
M  V30 4956 H 475.488 -0.822885 0.0824018 0
M  V30 4957 H 478.034 -1.44335 0.892499 0
M  V30 4958 H 476.806 -3.49082 1.76797 0
M  V30 4959 H 476.429 -3.97411 0.122461 0
M  V30 4960 N 477.426 -0.562348 -1.47226 0
M  V30 4961 C 478.674 -0.0401371 -2.0206 0
M  V30 4962 C 478.995 1.3165 -1.43852 0
M  V30 4963 O 478.265 1.85976 -0.615599 0
M  V30 4964 H 476.845 -0.0118479 -0.746906 0
M  V30 4965 H 479.507 -0.73352 -1.8057 0
M  V30 4966 H 478.603 0.0441254 -3.12069 0
M  V30 4967 N 478.904 1.54736 -0.299062 0
M  V30 4968 C 479.854 2.20155 0.592932 0
M  V30 4969 C 480.838 1.1739 1.10038 0
M  V30 4970 O 482.03 1.43116 1.04147 0
M  V30 4971 C 479.159 2.94437 1.76527 0
M  V30 4972 C 478.245 4.04516 1.27388 0
M  V30 4973 N 478.636 5.03319 0.500339 0
M  V30 4974 C 476.934 4.18022 1.55478 0
M  V30 4975 C 477.635 5.81209 0.238909 0
M  V30 4976 N 476.611 5.37408 0.818163 0
M  V30 4977 H 480.413 2.93899 -0.00563596 0
M  V30 4978 H 477.927 1.62068 -0.103732 0
M  V30 4979 H 479.924 3.3977 2.41582 0
M  V30 4980 H 478.584 2.22209 2.36756 0
M  V30 4981 H 479.595 5.17696 0.145419 0
M  V30 4982 H 476.272 3.56998 2.16469 0
M  V30 4983 H 477.662 6.70812 -0.382223 0
M  V30 4984 N 480.382 0.0267497 1.57577 0
M  V30 4985 C 481.631 -0.651736 1.9088 0
M  V30 4986 C 481.944 -1.73427 0.904576 0
M  V30 4987 O 483.15 -2.46923 1.12877 0
M  V30 4988 C 481.606 -1.21048 3.38933 0
M  V30 4989 C 481.214 -0.161362 4.47709 0
M  V30 4990 C 482.958 -1.86562 3.81307 0
M  V30 4991 C 480.865 -0.731611 5.86857 0
M  V30 4992 H 479.795 -0.247198 0.712326 0
M  V30 4993 H 482.446 0.0916641 1.83271 0
M  V30 4994 H 480.828 -2.00542 3.41466 0
M  V30 4995 H 482.002 0.61094 4.56732 0
M  V30 4996 H 480.317 0.394877 4.14523 0
M  V30 4997 H 482.914 -2.30178 4.8262 0
M  V30 4998 H 483.257 -2.70735 3.16241 0
M  V30 4999 H 483.79 -1.13762 3.81186 0
M  V30 5000 H 480.529 0.0719329 6.55461 0
M  V30 5001 H 480.049 -1.47245 5.81445 0
M  V30 5002 H 481.728 -1.22208 6.35354 0
M  V30 5003 N 481.861 -1.55662 -0.24637 0
M  V30 5004 C 482.808 -1.90361 -1.30504 0
M  V30 5005 C 483.778 -0.757905 -1.47801 0
M  V30 5006 O 484.963 -1.01161 -1.61775 0
M  V30 5007 C 482.103 -2.2042 -2.65535 0
M  V30 5008 C 481.216 -3.47799 -2.56242 0
M  V30 5009 C 480.351 -3.67426 -3.8363 0
M  V30 5010 C 479.39 -4.88403 -3.68956 0
M  V30 5011 N 478.527 -5.04548 -4.88237 0
M  V30 5012 H 483.367 -2.80645 -1.00213 0
M  V30 5013 H 480.904 -1.38924 -0.483577 0
M  V30 5014 H 482.862 -2.35853 -3.44135 0
M  V30 5015 H 481.492 -1.3334 -2.93973 0
M  V30 5016 H 480.544 -3.40694 -1.69208 0
M  V30 5017 H 481.856 -4.36544 -2.4131 0
M  V30 5018 H 481.01 -3.82821 -4.70673 0
M  V30 5019 H 479.749 -2.76914 -4.01459 0
M  V30 5020 H 478.754 -4.72984 -2.80296 0
M  V30 5021 H 479.979 -5.80375 -3.52621 0
M  V30 5022 H 477.925 -4.16974 -5.06427 0
M  V30 5023 H 477.842 -5.87384 -4.75937 0
M  V30 5024 H 479.11 -5.24355 -5.76777 0
M  V30 5025 N 483.339 0.512053 -1.4905 0
M  V30 5026 C 484.588 1.26343 -1.57227 0
M  V30 5027 C 484.901 1.93876 -0.259155 0
M  V30 5028 O 486.107 2.70612 -0.219358 0
M  V30 5029 C 484.563 2.29343 -2.77362 0
M  V30 5030 C 484.171 1.67799 -4.15388 0
M  V30 5031 C 485.915 3.05378 -2.94864 0
M  V30 5032 C 483.822 2.68845 -5.2676 0
M  V30 5033 H 482.752 0.475231 -0.585382 0
M  V30 5034 H 485.403 0.53862 -1.75417 0
M  V30 5035 H 483.785 3.04938 -2.52643 0
M  V30 5036 H 484.959 0.982715 -4.50199 0
M  V30 5037 H 483.274 1.04194 -4.03153 0
M  V30 5038 H 485.871 3.80921 -3.75238 0
M  V30 5039 H 486.214 3.62327 -2.05 0
M  V30 5040 H 486.747 2.36898 -3.19569 0
M  V30 5041 H 483.486 2.16692 -6.18647 0
M  V30 5042 H 483.006 3.36647 -4.96416 0
M  V30 5043 H 484.685 3.31487 -5.5563 0
M  V30 5044 N 484.817 1.37938 0.762283 0
M  V30 5045 C 485.78 1.34279 1.85747 0
M  V30 5046 C 486.78 0.244969 1.58923 0
M  V30 5047 O 487.97 0.501365 1.66829 0
M  V30 5048 C 485.102 1.08833 3.23061 0
M  V30 5049 H 486.295 2.31705 1.90401 0
M  V30 5050 H 483.848 1.23105 0.963057 0
M  V30 5051 H 484.583 0.119767 3.24079 0
M  V30 5052 H 484.368 1.88306 3.43923 0
M  V30 5053 H 485.858 1.08946 4.03138 0
M  V30 5054 N 486.295 -0.989507 1.22664 0
M  V30 5055 C 487.572 -1.70326 0.961688 0
M  V30 5056 C 487.952 -2.04537 -0.522279 0
M  V30 5057 O 487.3 -1.73136 -1.49118 0
M  V30 5058 C 487.51 -2.95135 1.86269 0
M  V30 5059 C 488.858 -3.67842 2.12078 0
M  V30 5060 O 489.882 -3.0515 1.83745 0
M  V30 5061 O 488.741 -4.80644 2.60083 0
M  V30 5062 H 485.835 -0.743589 0.361946 0
M  V30 5063 H 488.381 -1.04555 1.33665 0
M  V30 5064 H 487.153 -2.66382 2.8663 0
M  V30 5065 H 486.776 -3.68645 1.48952 0
M  V30 5066 N 487.773 -1.03688 -1.18687 0
M  V30 5067 C 489.02 -0.73803 -1.88572 0
M  V30 5068 C 489.348 0.733973 -1.8012 0
M  V30 5069 O 488.603 1.55098 -1.19344 0
M  V30 5070 C 488.902 -1.14477 -3.3857 0
M  V30 5071 C 488.568 -2.61641 -3.67226 0
M  V30 5072 C 487.23 -3.01846 -3.74757 0
M  V30 5073 C 489.582 -3.56812 -3.79914 0
M  V30 5074 C 486.91 -4.36118 -3.92451 0
M  V30 5075 C 489.262 -4.90799 -3.99123 0
M  V30 5076 C 487.926 -5.3068 -4.04888 0
M  V30 5077 H 487.196 -0.270064 -0.690034 0
M  V30 5078 H 489.843 -1.3012 -1.40503 0
M  V30 5079 H 488.148 -0.500337 -3.88592 0
M  V30 5080 H 489.845 -0.89095 -3.90977 0
M  V30 5081 H 486.435 -2.29498 -3.61979 0
M  V30 5082 H 490.619 -3.26899 -3.73431 0
M  V30 5083 H 485.875 -4.66542 -3.95157 0
M  V30 5084 H 490.049 -5.64451 -4.07882 0
M  V30 5085 H 487.676 -6.34733 -4.18351 0
M  V30 5086 N 489.251 1.34841 -0.815825 0
M  V30 5087 C 490.499 1.98107 -0.399744 0
M  V30 5088 C 490.82 1.65019 1.03894 0
M  V30 5089 O 490.09 0.937311 1.72021 0
M  V30 5090 H 488.67 0.732827 -0.144823 0
M  V30 5091 H 491.332 1.64599 -1.0437 0
M  V30 5092 H 490.428 3.07856 -0.512965 0
M  V30 5093 N 490.729 0.570148 1.46925 0
M  V30 5094 C 491.975 0.0510284 2.02736 0
M  V30 5095 C 492.308 -1.3006 1.44215 0
M  V30 5096 O 491.583 -1.84932 0.602521 0
M  V30 5097 C 491.866 -0.028215 3.60089 0
M  V30 5098 C 491.719 1.35142 4.29018 0
M  V30 5099 C 493.038 -0.735181 4.33916 0
M  V30 5100 H 490.157 0.0200178 0.736728 0
M  V30 5101 H 492.799 0.73493 1.75211 0
M  V30 5102 H 490.949 -0.610648 3.83671 0
M  V30 5103 H 492.621 1.97806 4.16738 0
M  V30 5104 H 490.864 1.9226 3.88868 0
M  V30 5105 H 491.535 1.24857 5.37694 0
M  V30 5106 H 494.011 -0.240519 4.15404 0
M  V30 5107 H 492.887 -0.759622 5.43618 0
M  V30 5108 H 493.148 -1.79397 4.04066 0
M  V30 5109 N 492.207 -1.54576 0.307264 0
M  V30 5110 C 493.432 -2.05139 -0.305379 0
M  V30 5111 C 493.857 -1.18278 -1.46259 0
M  V30 5112 O 493.215 -0.188243 -1.8032 0
M  V30 5113 C 493.263 -3.53066 -0.733283 0
M  V30 5114 O 492.367 -3.69206 -1.83741 0
M  V30 5115 H 491.708 -0.661444 -0.0582105 0
M  V30 5116 H 494.238 -1.99569 0.450931 0
M  V30 5117 H 494.248 -3.95034 -1.02039 0
M  V30 5118 H 492.923 -4.15746 0.113198 0
M  V30 5119 H 491.5 -3.39143 -1.55037 0
M  V30 5120 N 493.685 -0.035106 -1.57561 0
M  V30 5121 C 494.633 0.962707 -2.11742 0
M  V30 5122 C 495.627 1.33296 -1.0454 0
M  V30 5123 O 496.833 1.31449 -1.22968 0
M  V30 5124 H 493.208 0.32826 -0.676572 0
M  V30 5125 H 495.179 0.48048 -2.94506 0
M  V30 5126 C 493.928 2.23388 -2.66445 0
M  V30 5127 H 493.251 1.95774 -3.48587 0
M  V30 5128 H 494.691 2.91402 -3.07995 0
M  V30 5129 C 493.15 2.96769 -1.59467 0
M  V30 5130 O 493.68 3.89105 -0.998 0
M  V30 5131 N 491.886 2.59212 -1.31369 0
M  V30 5132 H 491.433 1.84202 -1.80076 0
M  V30 5133 H 491.391 3.08618 -0.600173 0
M  V30 5134 N 495.163 1.55791 0.238111 0
M  V30 5135 C 496.073 1.94196 1.31625 0
M  V30 5136 C 497.089 0.843545 1.52185 0
M  V30 5137 O 498.265 1.1457 1.65637 0
M  V30 5138 C 495.33 2.2365 2.64918 0
M  V30 5139 C 494.391 3.46971 2.52804 0
M  V30 5140 C 493.624 3.7501 3.79741 0
M  V30 5141 O 493.847 3.04982 4.82019 0
M  V30 5142 O 492.781 4.68525 3.77846 0
M  V30 5143 H 496.607 2.86044 1.02043 0
M  V30 5144 H 494.192 1.42786 0.439603 0
M  V30 5145 H 496.074 2.43863 3.4367 0
M  V30 5146 H 494.749 1.34979 2.94215 0
M  V30 5147 H 493.656 3.32055 1.72309 0
M  V30 5148 H 494.989 4.35971 2.28451 0
M  V30 5149 N 496.642 -0.504142 1.49319 0
M  V30 5150 C 497.889 -1.25846 1.58647 0
M  V30 5151 C 498.217 -1.92592 0.27177 0
M  V30 5152 O 497.472 -1.81167 -0.74007 0
M  V30 5153 C 497.771 -2.35021 2.69258 0
M  V30 5154 C 497.437 -1.85755 4.1086 0
M  V30 5155 C 496.099 -1.72038 4.49395 0
M  V30 5156 C 498.451 -1.48844 4.99495 0
M  V30 5157 C 495.779 -1.19783 5.74342 0
M  V30 5158 C 498.131 -0.980422 6.24956 0
M  V30 5159 C 496.795 -0.829622 6.62324 0
M  V30 5160 H 496.065 -0.460505 0.580531 0
M  V30 5161 H 498.712 -0.559716 1.83138 0
M  V30 5162 H 497.017 -3.10672 2.38726 0
M  V30 5163 H 498.714 -2.93083 2.73685 0
M  V30 5164 H 495.304 -1.9739 3.80441 0
M  V30 5165 H 499.488 -1.5829 4.70381 0
M  V30 5166 H 494.744 -1.06817 6.01997 0
M  V30 5167 H 498.918 -0.685608 6.93017 0
M  V30 5168 H 496.545 -0.42253 7.59025 0
M  V30 5169 N 498.12 -1.38341 -0.754957 0
M  V30 5170 C 499.067 -1.3546 -1.86867 0
M  V30 5171 C 500.037 -0.217369 -1.64672 0
M  V30 5172 O 501.222 -0.409383 -1.86356 0
M  V30 5173 C 498.362 -1.18413 -3.24149 0
M  V30 5174 C 497.475 -2.41511 -3.58185 0
M  V30 5175 C 496.61 -2.17205 -4.84763 0
M  V30 5176 C 495.649 -3.36081 -5.11582 0
M  V30 5177 N 494.786 -3.11219 -6.29354 0
M  V30 5178 H 499.626 -2.30672 -1.88664 0
M  V30 5179 H 497.163 -1.14607 -0.922154 0
M  V30 5180 H 499.121 -1.06545 -4.03366 0
M  V30 5181 H 497.751 -0.268397 -3.21682 0
M  V30 5182 H 496.803 -2.64056 -2.73822 0
M  V30 5183 H 498.115 -3.30115 -3.73932 0
M  V30 5184 H 497.269 -2.02465 -5.7192 0
M  V30 5185 H 496.008 -1.25964 -4.71152 0
M  V30 5186 H 495.013 -3.51341 -4.22894 0
M  V30 5187 H 496.238 -4.28196 -5.27091 0
M  V30 5188 H 494.184 -2.22624 -6.17069 0
M  V30 5189 H 494.101 -3.93373 -6.45596 0
M  V30 5190 H 495.369 -3.00132 -7.19403 0
M  V30 5191 N 499.598 0.982988 -1.23187 0
M  V30 5192 C 500.846 1.72052 -1.06031 0
M  V30 5193 C 501.167 1.90769 0.404019 0
M  V30 5194 O 500.437 1.47446 1.28982 0
M  V30 5195 H 499.017 0.637499 -0.389363 0
M  V30 5196 H 501.679 1.18338 -1.54862 0
M  V30 5197 H 500.775 2.7111 -1.54615 0
M  V30 5198 N 501.076 1.04316 1.18135 0
M  V30 5199 C 502.301 0.768047 1.92655 0
M  V30 5200 C 502.726 -0.66904 1.758 0
M  V30 5201 O 502.084 -1.46372 1.06981 0
M  V30 5202 C 502.132 1.14239 3.42026 0
M  V30 5203 O 501.236 0.269333 4.1152 0
M  V30 5204 H 500.577 0.282436 0.600937 0
M  V30 5205 H 503.107 1.39367 1.49793 0
M  V30 5206 H 503.117 1.10538 3.92741 0
M  V30 5207 H 501.792 2.18928 3.53615 0
M  V30 5208 H 500.369 0.366175 3.71098 0
M  V30 5209 N 502.554 -1.34406 0.822964 0
M  V30 5210 C 503.831 -1.92733 0.333641 0
M  V30 5211 C 504.211 -1.75107 -1.17901 0
M  V30 5212 O 503.559 -1.12983 -1.98613 0
M  V30 5213 C 503.769 -3.40557 0.763023 0
M  V30 5214 C 505.117 -4.17709 0.761879 0
M  V30 5215 O 506.141 -3.49141 0.705606 0
M  V30 5216 O 505 -5.40082 0.835109 0
M  V30 5217 H 502.094 -0.821964 0.0911249 0
M  V30 5218 H 504.64 -1.4338 0.907757 0
M  V30 5219 H 503.412 -3.47187 1.8049 0
M  V30 5220 H 503.035 -3.97259 0.164605 0
M  V30 5221 N 504.032 -0.577932 -1.46621 0
M  V30 5222 C 504.995 0.147805 -2.28723 0
M  V30 5223 C 505.995 0.823325 -1.38123 0
M  V30 5224 O 507.185 0.676011 -1.60548 0
M  V30 5225 C 504.317 1.21853 -3.18378 0
M  V30 5226 H 505.51 -0.573654 -2.94362 0
M  V30 5227 H 503.063 -0.335703 -1.52652 0
M  V30 5228 H 503.798 1.97173 -2.57475 0
M  V30 5229 H 503.583 0.738714 -3.85078 0
M  V30 5230 H 505.073 1.72768 -3.80186 0
M  V30 5231 N 505.51 1.54411 -0.315457 0
M  V30 5232 C 506.44 2.27002 0.547039 0
M  V30 5233 C 507.421 1.27492 1.12605 0
M  V30 5234 O 508.606 1.5629 1.15269 0
M  V30 5235 C 505.736 3.02171 1.71201 0
M  V30 5236 C 504.69 4.0895 1.26268 0
M  V30 5237 C 504.016 4.71915 2.51396 0
M  V30 5238 C 505.316 5.20891 0.383419 0
M  V30 5239 H 507.01 2.99343 -0.0584517 0
M  V30 5240 H 504.556 1.4397 -0.0295527 0
M  V30 5241 H 506.509 3.51681 2.32161 0
M  V30 5242 H 505.233 2.27433 2.34397 0
M  V30 5243 H 503.892 3.60312 0.676062 0
M  V30 5244 H 503.54 3.93801 3.12937 0
M  V30 5245 H 503.24 5.44039 2.22026 0
M  V30 5246 H 504.764 5.24195 3.13133 0
M  V30 5247 H 506.178 5.66206 0.899082 0
M  V30 5248 H 504.575 5.99821 0.182857 0
M  V30 5249 H 505.645 4.81324 -0.587821 0
M  V30 5250 N 506.988 0.0434614 1.5754 0
M  V30 5251 C 507.918 -0.931651 2.14109 0
M  V30 5252 C 508.899 -1.32971 1.06079 0
M  V30 5253 O 510.084 -1.40579 1.33982 0
M  V30 5254 C 507.214 -2.20914 2.67982 0
M  V30 5255 C 506.168 -1.95139 3.80926 0
M  V30 5256 C 505.494 -3.29276 4.21285 0
M  V30 5257 C 506.794 -1.27913 5.06395 0
M  V30 5258 H 508.488 -0.460497 2.95837 0
M  V30 5259 H 506.034 -0.220058 1.42309 0
M  V30 5260 H 507.987 -2.89522 3.06194 0
M  V30 5261 H 506.711 -2.70221 1.83434 0
M  V30 5262 H 505.37 -1.28945 3.43175 0
M  V30 5263 H 505.018 -3.76369 3.33699 0
M  V30 5264 H 504.718 -3.12831 4.97404 0
M  V30 5265 H 506.242 -3.99129 4.62091 0
M  V30 5266 H 507.656 -1.86544 5.42102 0
M  V30 5267 H 506.053 -1.2182 5.87605 0
M  V30 5268 H 507.123 -0.254066 4.84234 0
M  V30 5269 N 508.466 -1.55915 -0.229846 0
M  V30 5270 C 509.691 -1.8296 -0.976743 0
M  V30 5271 C 510.116 -0.622735 -1.77493 0
M  V30 5272 O 509.474 0.428431 -1.76165 0
M  V30 5273 C 509.522 -3.07916 -1.8767 0
M  V30 5274 O 508.626 -2.86028 -2.97088 0
M  V30 5275 H 507.967 -0.603453 -0.277021 0
M  V30 5276 H 510.497 -2.0312 -0.245669 0
M  V30 5277 H 510.507 -3.37802 -2.2881 0
M  V30 5278 H 509.182 -3.95389 -1.28996 0
M  V30 5279 H 507.759 -2.67355 -2.59954 0
M  V30 5280 N 509.944 0.496216 -1.49584 0
M  V30 5281 C 510.892 1.61805 -1.67098 0
M  V30 5282 C 511.886 1.60667 -0.536877 0
M  V30 5283 O 513.092 1.65118 -0.716654 0
M  V30 5284 H 509.467 0.53646 -0.526986 0
M  V30 5285 H 511.438 1.44187 -2.61252 0
M  V30 5286 C 510.187 2.99912 -1.75921 0
M  V30 5287 H 509.51 3.01496 -2.62565 0
M  V30 5288 H 510.95 3.77931 -1.92209 0
M  V30 5289 C 509.409 3.33092 -0.505088 0
M  V30 5290 O 509.939 4.00019 0.367085 0
M  V30 5291 N 508.145 2.88278 -0.366599 0
M  V30 5292 H 507.692 2.33989 -1.07735 0
M  V30 5293 H 507.65 3.10846 0.47142 0
M  V30 5294 N 511.423 1.38739 0.74761 0
M  V30 5295 C 512.651 1.38521 1.53686 0
M  V30 5296 C 513.066 -0.0235129 1.88785 0
M  V30 5297 O 512.423 -0.991662 1.53207 0
M  V30 5298 C 512.474 2.24641 2.83229 0
M  V30 5299 O 512.195 3.60026 2.49625 0
M  V30 5300 C 513.696 2.32669 3.77333 0
M  V30 5301 H 510.916 0.473589 0.475347 0
M  V30 5302 H 513.46 1.82395 0.924786 0
M  V30 5303 H 511.615 1.84213 3.40799 0
M  V30 5304 H 512.029 4.05435 3.3275 0
M  V30 5305 H 513.503 2.97201 4.65162 0
M  V30 5306 H 513.98 1.3421 4.18192 0
M  V30 5307 H 514.586 2.73512 3.25685 0
M  V30 5308 N 512.901 -0.976442 1.23707 0
M  V30 5309 C 514.147 -1.72081 1.07312 0
M  V30 5310 C 514.48 -1.90275 -0.388476 0
M  V30 5311 O 513.755 -1.4579 -1.28746 0
M  V30 5312 C 514.038 -3.11675 1.80363 0
M  V30 5313 C 513.891 -3.01027 3.3422 0
M  V30 5314 C 515.21 -4.1117 1.5693 0
M  V30 5315 H 512.329 -0.624583 0.391236 0
M  V30 5316 H 514.971 -1.13649 1.52263 0
M  V30 5317 H 513.121 -3.61559 1.42153 0
M  V30 5318 H 514.793 -2.58637 3.81975 0
M  V30 5319 H 513.036 -2.3744 3.63049 0
M  V30 5320 H 513.707 -3.9988 3.80525 0
M  V30 5321 H 516.183 -3.7011 1.90151 0
M  V30 5322 H 515.059 -5.06928 2.10513 0
M  V30 5323 H 515.32 -4.392 0.505548 0
M  V30 5324 N 514.379 -1.04941 -1.1758 0
M  V30 5325 C 515.627 -0.756492 -1.87408 0
M  V30 5326 C 515.948 0.718478 -1.81281 0
M  V30 5327 O 515.218 1.519 -1.23706 0
M  V30 5328 H 513.798 -0.276841 -0.693807 0
M  V30 5329 H 516.46 -1.32803 -1.42652 0
M  V30 5330 H 515.556 -1.06918 -2.93215 0
M  V30 5331 N 515.857 1.33968 -0.830081 0
M  V30 5332 C 517.085 2.0228 -0.434773 0
M  V30 5333 C 517.5 1.62487 0.961419 0
M  V30 5334 O 516.857 0.833849 1.62337 0
M  V30 5335 C 516.908 3.5751 -0.535625 0
M  V30 5336 O 516.629 3.95864 -1.87679 0
M  V30 5337 C 518.13 4.43091 -0.136137 0
M  V30 5338 H 515.35 0.648151 -0.173613 0
M  V30 5339 H 517.894 1.71089 -1.12022 0
M  V30 5340 H 516.049 3.87266 0.101817 0
M  V30 5341 H 516.463 4.9056 -1.85609 0
M  V30 5342 H 517.937 5.51398 -0.257772 0
M  V30 5343 H 518.414 4.29433 0.921076 0
M  V30 5344 H 519.02 4.18677 -0.747662 0
M  V30 5345 N 517.335 0.585699 1.46312 0
M  V30 5346 C 518.746 0.159938 1.86014 0
M  V30 5347 C 519.097 -1.27775 1.48889 0
M  V30 5348 O 518.222 -1.96559 0.90519 0
M  V30 5349 C 518.817 0.283485 3.37612 0
M  V30 5350 C 517.376 -0.0874256 3.76298 0
M  V30 5351 C 516.523 0.618055 2.70325 0
M  V30 5352 H 519.474 0.793737 1.37425 0
M  V30 5353 H 519.495 -0.490348 3.77327 0
M  V30 5354 H 519.007 1.32995 3.64601 0
M  V30 5355 H 517.108 -1.13391 3.54927 0
M  V30 5356 H 517.221 0.290975 4.78216 0
M  V30 5357 H 515.585 0.057993 2.54634 0
M  V30 5358 H 516.368 1.66623 3.00153 0
M  V30 5359 N 518.813 -1.54241 0.323641 0
M  V30 5360 C 519.776 -2.22997 -0.529602 0
M  V30 5361 C 520.776 -1.22345 -1.04347 0
M  V30 5362 O 521.966 -1.46924 -0.935889 0
M  V30 5363 C 519.098 -2.93409 -1.73562 0
M  V30 5364 H 520.291 -2.99815 0.0714518 0
M  V30 5365 H 517.844 -1.56121 0.0747258 0
M  V30 5366 H 518.579 -2.20729 -2.37591 0
M  V30 5367 H 518.364 -3.67217 -1.37456 0
M  V30 5368 H 519.854 -3.45794 -2.34128 0
M  V30 5369 N 520.291 -0.0518155 -1.57515 0
M  V30 5370 C 521.538 0.621823 -1.92716 0
M  V30 5371 C 521.866 1.70813 -0.930229 0
M  V30 5372 O 521.121 1.95616 0.0573708 0
M  V30 5373 C 521.42 1.25607 -3.34601 0
M  V30 5374 C 521.086 0.297901 -4.49915 0
M  V30 5375 C 519.748 0.034243 -4.81188 0
M  V30 5376 C 522.1 -0.358738 -5.19964 0
M  V30 5377 C 519.428 -0.893479 -5.79857 0
M  V30 5378 C 521.78 -1.27466 -6.19625 0
M  V30 5379 C 520.444 -1.54698 -6.49326 0
M  V30 5380 H 519.714 0.227541 -0.705199 0
M  V30 5381 H 522.361 -0.118432 -1.91133 0
M  V30 5382 H 520.666 2.07161 -3.32553 0
M  V30 5383 H 522.363 1.78424 -3.59118 0
M  V30 5384 H 518.953 0.513581 -4.25512 0
M  V30 5385 H 523.137 -0.168133 -4.96015 0
M  V30 5386 H 518.393 -1.11193 -6.01204 0
M  V30 5387 H 522.567 -1.78953 -6.73015 0
M  V30 5388 H 520.194 -2.26748 -7.25596 0
M  V30 5389 N 521.769 1.56035 0.221574 0
M  V30 5390 C 522.702 1.87427 1.30178 0
M  V30 5391 C 523.68 0.731658 1.45209 0
M  V30 5392 O 524.864 0.980016 1.61022 0
M  V30 5393 C 521.991 2.08127 2.67209 0
M  V30 5394 C 521.037 3.30813 2.69194 0
M  V30 5395 S 521.87 4.86738 2.23263 0
M  V30 5396 C 523.026 5.10474 3.62171 0
M  V30 5397 H 523.259 2.78756 1.03355 0
M  V30 5398 H 520.792 1.48469 0.423813 0
M  V30 5399 H 522.75 2.20736 3.46101 0
M  V30 5400 H 521.411 1.17595 2.91256 0
M  V30 5401 H 520.604 3.42341 3.6989 0
M  V30 5402 H 520.206 3.1706 1.98366 0
M  V30 5403 H 522.498 4.9937 4.5786 0
M  V30 5404 H 523.441 6.12359 3.55558 0
M  V30 5405 H 523.849 4.38208 3.55857 0
M  V30 5406 N 523.247 -0.488276 1.49845 0
M  V30 5407 C 524.21 -1.57069 1.66919 0
M  V30 5408 C 525.21 -1.51445 0.540479 0
M  V30 5409 O 526.4 -1.5437 0.807188 0
M  V30 5410 C 523.532 -2.96718 1.67844 0
M  V30 5411 H 524.725 -1.43254 2.63474 0
M  V30 5412 H 522.278 -0.713435 1.39068 0
M  V30 5413 H 523.013 -3.15996 0.7292 0
M  V30 5414 H 522.798 -3.02208 2.49826 0
M  V30 5415 H 524.288 -3.75335 1.83066 0
M  V30 5416 N 524.725 -1.39134 -0.740242 0
M  V30 5417 C 526.136 -1.32208 -1.31825 0
M  V30 5418 C 526.487 0.0159919 -1.96193 0
M  V30 5419 O 525.612 0.918111 -1.95958 0
M  V30 5420 C 526.207 -2.39436 -2.39699 0
M  V30 5421 C 524.766 -2.36048 -2.93187 0
M  V30 5422 C 523.913 -2.21599 -1.66701 0
M  V30 5423 H 526.864 -1.49298 -0.538133 0
M  V30 5424 H 526.885 -2.05922 -3.19963 0
M  V30 5425 H 526.397 -3.36811 -1.92821 0
M  V30 5426 H 524.498 -1.42295 -3.44359 0
M  V30 5427 H 524.611 -3.30704 -3.46658 0
M  V30 5428 H 522.975 -1.68681 -1.90837 0
M  V30 5429 H 523.758 -3.20936 -1.21882 0
M  V30 5430 N 526.204 0.969867 -1.24223 0
M  V30 5431 C 527.114 2.09806 -1.0497 0
M  V30 5432 C 528.13 1.73998 0.00886455 0
M  V30 5433 O 529.306 2.00513 -0.188848 0
M  V30 5434 C 526.371 3.40467 -0.654452 0
M  V30 5435 C 525.432 3.90236 -1.78926 0
M  V30 5436 C 524.665 5.14662 -1.41277 0
M  V30 5437 O 524.888 5.69602 -0.301632 0
M  V30 5438 O 523.822 5.58761 -2.23763 0
M  V30 5439 H 527.648 2.28942 -1.99548 0
M  V30 5440 H 525.233 1.08197 -1.03023 0
M  V30 5441 H 527.115 4.19039 -0.445452 0
M  V30 5442 H 525.79 3.22636 0.262216 0
M  V30 5443 H 524.697 3.12735 -2.05299 0
M  V30 5444 H 526.03 4.1254 -2.68462 0
M  V30 5445 N 527.682 1.05563 1.17022 0
M  V30 5446 C 528.907 0.788437 1.91829 0
M  V30 5447 C 529.332 -0.650356 1.76499 0
M  V30 5448 O 528.69 -1.45229 1.08527 0
M  V30 5449 C 528.738 1.1786 3.40795 0
M  V30 5450 O 527.842 0.312965 4.11211 0
M  V30 5451 H 527.183 0.288794 0.597908 0
M  V30 5452 H 529.713 1.40948 1.48307 0
M  V30 5453 H 529.723 1.14697 3.91546 0
M  V30 5454 H 528.398 2.22666 3.51273 0
M  V30 5455 H 526.975 0.405515 3.70689 0
M  V30 5456 N 529.16 -1.33526 0.837174 0
M  V30 5457 C 530.09 -2.31764 0.284206 0
M  V30 5458 C 531.071 -1.58896 -0.607142 0
M  V30 5459 O 532.256 -1.86798 -0.531047 0
M  V30 5460 C 529.386 -3.43029 -0.542962 0
M  V30 5461 C 528.34 -4.27255 0.252451 0
M  V30 5462 C 527.666 -5.3012 -0.69836 0
M  V30 5463 C 528.966 -5.01229 1.46858 0
M  V30 5464 H 530.66 -2.78262 1.10502 0
M  V30 5465 H 528.206 -1.3378 0.532812 0
M  V30 5466 H 530.159 -4.1078 -0.940096 0
M  V30 5467 H 528.883 -2.95216 -1.39697 0
M  V30 5468 H 527.542 -3.61127 0.631124 0
M  V30 5469 H 527.19 -4.78564 -1.54872 0
M  V30 5470 H 526.89 -5.87353 -0.170274 0
M  V30 5471 H 528.414 -6.00737 -1.09305 0
M  V30 5472 H 529.828 -5.61756 1.14469 0
M  V30 5473 H 528.225 -5.68104 1.93333 0
M  V30 5474 H 529.295 -4.301 2.23924 0
M  V30 5475 N 530.638 -0.59345 -1.46 0
M  V30 5476 C 531.863 -0.0872365 -2.07216 0
M  V30 5477 C 532.288 1.2131 -1.43755 0
M  V30 5478 O 531.646 1.73528 -0.525152 0
M  V30 5479 C 531.694 0.0538197 -3.6056 0
M  V30 5480 O 530.798 1.10765 -3.97247 0
M  V30 5481 H 530.139 -0.0676598 -0.660544 0
M  V30 5482 H 532.669 -0.819445 -1.87473 0
M  V30 5483 H 532.679 0.256567 -4.07193 0
M  V30 5484 H 531.354 -0.895739 -4.0614 0
M  V30 5485 H 529.931 0.882501 -3.62307 0
M  V30 5486 N 532.116 1.54067 -0.331816 0
M  V30 5487 C 533.026 2.28322 0.539104 0
M  V30 5488 C 534.042 1.32985 1.1221 0
M  V30 5489 O 535.218 1.6601 1.1403 0
M  V30 5490 C 532.283 3.03277 1.68 0
M  V30 5491 C 531.344 4.14216 1.12798 0
M  V30 5492 C 530.577 4.85588 2.2145 0
M  V30 5493 O 530.8 4.56536 3.41952 0
M  V30 5494 O 529.734 5.72309 1.86404 0
M  V30 5495 H 533.56 3.03632 -0.0641692 0
M  V30 5496 H 531.145 1.49083 -0.0972365 0
M  V30 5497 H 533.027 3.50189 2.34405 0
M  V30 5498 H 531.702 2.30834 2.2693 0
M  V30 5499 H 530.609 3.71635 0.428782 0
M  V30 5500 H 531.942 4.88727 0.583698 0
M  V30 5501 N 533.594 0.0601682 1.57485 0
M  V30 5502 C 534.822 -0.620937 1.97363 0
M  V30 5503 C 535.237 -1.63846 0.938082 0
M  V30 5504 O 534.594 -1.82339 -0.0766578 0
M  V30 5505 C 534.645 -1.29987 3.37321 0
M  V30 5506 O 534.366 -0.323081 4.36907 0
M  V30 5507 C 535.867 -2.06989 3.92008 0
M  V30 5508 H 533.087 -0.169135 0.649334 0
M  V30 5509 H 535.631 0.129132 2.04092 0
M  V30 5510 H 533.786 -2.0011 3.31715 0
M  V30 5511 H 534.2 -0.808754 5.18227 0
M  V30 5512 H 535.674 -2.49901 4.92192 0
M  V30 5513 H 536.151 -2.92173 3.2792 0
M  V30 5514 H 536.757 -1.41757 4.0098 0
M  V30 5515 N 535.072 -1.5615 -0.213296 0
M  V30 5516 C 536.488 -1.49327 -0.56336 0
M  V30 5517 C 536.688 -0.756826 -1.86747 0
M  V30 5518 O 535.744 -0.299866 -2.50713 0
M  V30 5519 C 537.057 -2.9392 -0.634944 0
M  V30 5520 C 538.605 -3.04487 -0.725013 0
M  V30 5521 C 539.08 -4.50456 -0.82787 0
M  V30 5522 N 540.571 -4.54533 -0.891876 0
M  V30 5523 C 541.306 -5.64766 -0.991315 0
M  V30 5524 N 540.802 -6.84733 -1.05419 0
M  V30 5525 N 542.595 -5.52637 -1.02709 0
M  V30 5526 H 534.746 -2.02453 0.642366 0
M  V30 5527 H 537.009 -0.920548 0.226487 0
M  V30 5528 H 536.715 -3.50783 0.253859 0
M  V30 5529 H 536.589 -3.46274 -1.49579 0
M  V30 5530 H 538.976 -2.47685 -1.60425 0
M  V30 5531 H 539.057 -2.55289 0.161669 0
M  V30 5532 H 538.701 -5.07878 0.0469464 0
M  V30 5533 H 538.631 -4.97369 -1.73009 0
M  V30 5534 H 541.122 -3.68141 -0.85327 0
M  V30 5535 H 541.435 -7.64493 -1.13007 0
M  V30 5536 H 539.78 -6.87427 -1.02318 0
M  V30 5537 H 542.971 -4.5784 -0.974687 0
M  V30 5538 H 543.144 -6.38576 -1.10113 0
M  V30 5539 N 536.55 0.480323 -1.50102 0
M  V30 5540 C 537.497 1.57946 -1.6829 0
M  V30 5541 C 538.467 1.57611 -0.524223 0
M  V30 5542 O 539.652 1.75282 -0.753709 0
M  V30 5543 C 536.792 2.95978 -1.77457 0
M  V30 5544 C 535.905 3.06173 -3.04766 0
M  V30 5545 C 535.04 4.35063 -3.04784 0
M  V30 5546 C 534.079 4.38966 -4.26586 0
M  V30 5547 N 533.216 5.59314 -4.24396 0
M  V30 5548 H 538.056 1.41743 -2.62131 0
M  V30 5549 H 535.593 0.689304 -1.2995 0
M  V30 5550 H 537.551 3.76011 -1.80752 0
M  V30 5551 H 536.181 3.10837 -0.870637 0
M  V30 5552 H 535.233 2.19071 -3.10986 0
M  V30 5553 H 536.545 3.04916 -3.9475 0
M  V30 5554 H 535.699 5.23436 -3.06757 0
M  V30 5555 H 534.438 4.38915 -2.12614 0
M  V30 5556 H 533.443 3.48992 -4.24835 0
M  V30 5557 H 534.668 4.36813 -5.19972 0
M  V30 5558 H 532.614 5.63969 -3.35074 0
M  V30 5559 H 532.531 5.5976 -5.08138 0
M  V30 5560 H 533.799 6.49837 -4.30502 0
M  V30 5561 N 538.028 1.39524 0.732853 0
M  V30 5562 C 539.277 1.36175 1.48792 0
M  V30 5563 C 539.59 -0.0388195 1.95561 0
M  V30 5564 O 540.796 -0.194899 2.708 0
M  V30 5565 C 539.252 2.39242 2.68871 0
M  V30 5566 C 538.86 3.85024 2.29042 0
M  V30 5567 C 540.604 2.44972 3.46683 0
M  V30 5568 C 538.511 4.79727 3.45856 0
M  V30 5569 H 537.441 0.506267 0.558757 0
M  V30 5570 H 540.092 1.65181 0.799226 0
M  V30 5571 H 538.474 2.0331 3.39825 0
M  V30 5572 H 539.648 4.30008 1.6562 0
M  V30 5573 H 537.963 3.82609 1.64316 0
M  V30 5574 H 540.56 3.12918 4.33574 0
M  V30 5575 H 540.903 1.4749 3.89297 0
M  V30 5576 H 541.436 2.79808 2.82759 0
M  V30 5577 H 538.175 5.78479 3.08289 0
M  V30 5578 H 537.695 4.39421 4.08251 0
M  V30 5579 H 539.374 4.98731 4.12161 0
M  V30 5580 N 539.506 -0.963266 1.24736 0
M  V30 5581 C 540.753 -1.7068 1.0897 0
M  V30 5582 C 541.081 -1.90934 -0.370751 0
M  V30 5583 O 540.336 -1.47155 -1.29011 0
M  V30 5584 C 540.635 -3.09944 1.7796 0
M  V30 5585 C 540.301 -3.09518 3.27887 0
M  V30 5586 C 538.963 -3.09109 3.68789 0
M  V30 5587 C 541.315 -3.03509 4.23712 0
M  V30 5588 C 538.643 -3.00429 5.03944 0
M  V30 5589 C 540.995 -2.96371 5.5888 0
M  V30 5590 C 539.659 -2.94293 5.99123 0
M  V30 5591 H 538.929 -0.624564 0.398749 0
M  V30 5592 H 541.576 -1.12603 1.54896 0
M  V30 5593 H 539.881 -3.71513 1.2444 0
M  V30 5594 H 541.578 -3.66278 1.63222 0
M  V30 5595 H 538.168 -3.10603 2.95337 0
M  V30 5596 H 542.352 -3.0295 3.93109 0
M  V30 5597 H 537.608 -2.97183 5.34314 0
M  V30 5598 H 541.782 -2.90681 6.32833 0
M  V30 5599 H 539.409 -2.87322 7.03811 0
M  V30 5600 N 540.985 -1.06182 -1.16461 0
M  V30 5601 C 542.21 -0.798599 -1.91408 0
M  V30 5602 C 542.635 0.640987 -1.76842 0
M  V30 5603 O 541.993 1.44652 -1.09296 0
M  V30 5604 C 542.041 -1.19665 -3.40165 0
M  V30 5605 O 541.145 -0.334768 -4.11039 0
M  V30 5606 H 540.486 -0.291961 -0.596368 0
M  V30 5607 H 543.016 -1.41732 -1.47557 0
M  V30 5608 H 543.026 -1.16772 -3.90933 0
M  V30 5609 H 541.701 -2.24526 -3.50087 0
M  V30 5610 H 540.278 -0.425168 -3.70468 0
M  V30 5611 N 542.463 1.3308 -0.844243 0
M  V30 5612 C 543.711 1.97215 -0.441676 0
M  V30 5613 C 544.032 1.67185 1.0037 0
M  V30 5614 O 543.302 0.973588 1.69994 0
M  V30 5615 H 541.882 0.72959 -0.160335 0
M  V30 5616 H 544.544 1.62348 -1.07838 0
M  V30 5617 H 543.64 3.06698 -0.57815 0
M  V30 5618 N 543.941 0.601185 1.45683 0
M  V30 5619 C 544.888 -0.121396 2.30481 0
M  V30 5620 C 545.858 -0.866232 1.41724 0
M  V30 5621 O 547.043 -0.85324 1.70659 0
M  V30 5622 C 544.183 -1.11704 3.26521 0
M  V30 5623 C 543.296 -0.373741 4.3038 0
M  V30 5624 C 542.431 -1.35854 5.13534 0
M  V30 5625 C 541.47 -0.602689 6.09126 0
M  V30 5626 N 540.607 -1.53645 6.85082 0
M  V30 5627 H 545.447 0.607732 2.91737 0
M  V30 5628 H 542.984 0.311502 1.43764 0
M  V30 5629 H 544.942 -1.70735 3.80664 0
M  V30 5630 H 543.572 -1.81366 2.67032 0
M  V30 5631 H 542.624 0.331962 3.78949 0
M  V30 5632 H 543.936 0.2163 4.98331 0
M  V30 5633 H 543.09 -2.02111 5.72046 0
M  V30 5634 H 541.829 -1.98251 4.45587 0
M  V30 5635 H 540.834 0.0735482 5.49751 0
M  V30 5636 H 542.059 0.0161467 6.79098 0
M  V30 5637 H 540.005 -2.14819 6.1983 0
M  V30 5638 H 539.922 -0.999688 7.49361 0
M  V30 5639 H 541.19 -2.1888 7.48139 0
M  V30 5640 N 545.419 -1.53889 0.339982 0
M  V30 5641 C 546.382 -2.23547 -0.50592 0
M  V30 5642 C 547.382 -1.23445 -1.03044 0
M  V30 5643 O 548.572 -1.47909 -0.920253 0
M  V30 5644 C 545.704 -2.95234 -1.7044 0
M  V30 5645 H 546.897 -2.99722 0.103247 0
M  V30 5646 H 544.45 -1.56033 0.0912804 0
M  V30 5647 H 545.185 -2.23236 -2.35236 0
M  V30 5648 H 544.97 -3.68654 -1.33553 0
M  V30 5649 H 546.46 -3.48258 -2.30447 0
M  V30 5650 N 546.897 -0.0685191 -1.57451 0
M  V30 5651 C 547.827 0.89747 -2.15564 0
M  V30 5652 C 548.808 1.31266 -1.08181 0
M  V30 5653 O 549.993 1.38429 -1.36202 0
M  V30 5654 C 547.123 2.16623 -2.71463 0
M  V30 5655 C 546.077 1.89054 -3.83982 0
M  V30 5656 C 545.403 3.22532 -4.26471 0
M  V30 5657 C 546.703 1.1984 -5.08366 0
M  V30 5658 H 548.397 0.413373 -2.96533 0
M  V30 5659 H 545.943 0.197391 -1.42641 0
M  V30 5660 H 547.896 2.84614 -3.10761 0
M  V30 5661 H 546.62 2.67269 -1.8771 0
M  V30 5662 H 545.279 1.23469 -3.45183 0
M  V30 5663 H 544.927 3.71013 -3.39644 0
M  V30 5664 H 544.627 3.04879 -5.02317 0
M  V30 5665 H 546.151 3.91727 -4.68383 0
M  V30 5666 H 547.565 1.77896 -5.45001 0
M  V30 5667 H 545.962 1.12456 -5.89469 0
M  V30 5668 H 547.032 0.176996 -4.84577 0
M  V30 5669 N 548.375 1.56261 0.205012 0
M  V30 5670 C 549.652 1.70856 0.952233 0
M  V30 5671 C 550.032 0.620501 2.01775 0
M  V30 5672 O 549.38 -0.370035 2.25484 0
M  V30 5673 C 549.59 3.12807 1.54767 0
M  V30 5674 C 550.938 3.72733 2.0336 0
M  V30 5675 O 551.962 3.15873 1.64629 0
M  V30 5676 O 550.821 4.72501 2.746 0
M  V30 5677 H 547.915 0.696496 0.445895 0
M  V30 5678 H 550.461 1.6857 0.195489 0
M  V30 5679 H 549.233 3.83465 0.779132 0
M  V30 5680 H 548.856 3.1928 2.36951 0
M  V30 5681 N 549.853 -0.472356 1.50355 0
M  V30 5682 C 551.099 -1.22634 1.6152 0
M  V30 5683 C 551.432 -1.91645 0.313995 0
M  V30 5684 O 550.707 -1.82059 -0.684446 0
M  V30 5685 C 550.99 -2.27099 2.7946 0
M  V30 5686 C 550.843 -1.62402 4.19459 0
M  V30 5687 C 552.162 -3.28421 2.92964 0
M  V30 5688 H 549.281 -0.444494 0.587873 0
M  V30 5689 H 551.923 -0.520321 1.82737 0
M  V30 5690 H 550.073 -2.87314 2.61501 0
M  V30 5691 H 551.745 -1.05793 4.49005 0
M  V30 5692 H 549.988 -0.927184 4.23776 0
M  V30 5693 H 550.659 -2.38309 4.97909 0
M  V30 5694 H 553.135 -2.78227 3.09401 0
M  V30 5695 H 552.011 -3.98845 3.77113 0
M  V30 5696 H 552.272 -3.92467 2.03525 0
M  V30 5697 N 551.331 -1.39911 -0.725443 0
M  V30 5698 C 552.577 -1.38862 -1.48624 0
M  V30 5699 C 552.932 0.0125913 -1.92396 0
M  V30 5700 O 552.225 0.981046 -1.64578 0
M  V30 5701 C 552.419 -2.30368 -2.7325 0
M  V30 5702 C 552.248 -3.79247 -2.41665 0
M  V30 5703 C 551.018 -4.48119 -2.3349 0
M  V30 5704 C 553.216 -4.70988 -2.06579 0
M  V30 5705 N 551.198 -5.82282 -1.94476 0
M  V30 5706 C 552.569 -5.93873 -1.78087 0
M  V30 5707 C 554.624 -4.58917 -1.9313 0
M  V30 5708 C 553.327 -7.06036 -1.37499 0
M  V30 5709 C 555.353 -5.71012 -1.53946 0
M  V30 5710 C 554.715 -6.92976 -1.26345 0
M  V30 5711 H 550.814 -0.563394 -0.54232 0
M  V30 5712 H 553.398 -1.75542 -0.842213 0
M  V30 5713 H 551.569 -1.95831 -3.35417 0
M  V30 5714 H 553.301 -2.20245 -3.39521 0
M  V30 5715 H 550.056 -4.01677 -2.50904 0
M  V30 5716 H 550.48 -6.53307 -1.77535 0
M  V30 5717 H 555.122 -3.65149 -2.13134 0
M  V30 5718 H 552.84 -7.99697 -1.16237 0
M  V30 5719 H 556.426 -5.63664 -1.44132 0
M  V30 5720 H 555.306 -7.78243 -0.964787 0
M  V30 5721 N 552.809 0.956637 -1.25245 0
M  V30 5722 C 553.772 2.03457 -1.05537 0
M  V30 5723 C 554.772 1.60798 -0.00886317 0
M  V30 5724 O 555.962 1.72384 -0.250865 0
M  V30 5725 C 553.094 3.35543 -0.601965 0
M  V30 5726 H 554.287 2.22372 -2.01223 0
M  V30 5727 H 551.84 1.13344 -1.07623 0
M  V30 5728 H 552.575 3.22323 0.357584 0
M  V30 5729 H 552.36 3.67854 -1.35743 0
M  V30 5730 H 553.85 4.14769 -0.485454 0
M  V30 5731 N 554.287 1.06798 1.15896 0
M  V30 5732 C 555.22 0.627503 2.19403 0
M  V30 5733 C 556.198 -0.352352 1.58736 0
M  V30 5734 O 557.382 -0.260111 1.86697 0
M  V30 5735 C 554.509 -0.079356 3.38607 0
M  V30 5736 C 553.555 0.858057 4.17779 0
M  V30 5737 S 554.388 2.35605 4.80885 0
M  V30 5738 C 555.544 1.66083 6.03463 0
M  V30 5739 H 555.777 1.50441 2.56427 0
M  V30 5740 H 553.31 0.881427 1.26768 0
M  V30 5741 H 555.268 -0.48095 4.07673 0
M  V30 5742 H 553.929 -0.932524 2.99938 0
M  V30 5743 H 553.122 0.310108 5.03045 0
M  V30 5744 H 552.724 1.19977 3.54234 0
M  V30 5745 H 555.016 0.969337 6.7053 0
M  V30 5746 H 555.959 2.49159 6.62816 0
M  V30 5747 H 556.367 1.14122 5.52844 0
M  V30 5748 N 555.766 -1.3263 0.851289 0
M  V30 5749 C 557.014 -1.96978 0.452128 0
M  V30 5750 C 557.335 -1.67715 -0.99482 0
M  V30 5751 O 556.605 -0.98259 -1.69476 0
M  V30 5752 H 555.185 -0.72873 0.164202 0
M  V30 5753 H 557.847 -1.61774 1.08698 0
M  V30 5754 H 556.943 -3.06387 0.594407 0
M  V30 5755 N 557.244 -0.608902 -1.45362 0
M  V30 5756 C 558.49 -0.104762 -2.02529 0
M  V30 5757 C 558.823 1.26191 -1.47613 0
M  V30 5758 O 558.098 1.8327 -0.65134 0
M  V30 5759 C 558.381 -0.0672661 -3.60037 0
M  V30 5760 C 558.234 -1.4647 -4.25284 0
M  V30 5761 C 559.553 0.619877 -4.35713 0
M  V30 5762 H 556.672 -0.0395438 -0.735938 0
M  V30 5763 H 559.314 -0.781126 -1.73201 0
M  V30 5764 H 557.464 0.50871 -3.85155 0
M  V30 5765 H 559.136 -2.08785 -4.11347 0
M  V30 5766 H 557.379 -2.02502 -3.83634 0
M  V30 5767 H 558.05 -1.39069 -5.34195 0
M  V30 5768 H 560.526 0.130297 -4.15896 0
M  V30 5769 H 559.402 0.615224 -5.45441 0
M  V30 5770 H 559.663 1.68621 -4.0868 0
M  V30 5771 N 558.722 1.53707 -0.348139 0
M  V30 5772 C 559.95 2.05406 0.248224 0
M  V30 5773 C 560.365 1.22282 1.43849 0
M  V30 5774 O 559.722 0.259244 1.80649 0
M  V30 5775 C 559.773 3.55446 0.658793 0
M  V30 5776 O 559.494 4.35417 -0.484149 0
M  V30 5777 C 560.995 4.23335 1.31539 0
M  V30 5778 H 558.215 0.669344 0.0471075 0
M  V30 5779 H 560.759 1.98257 -0.501456 0
M  V30 5780 H 558.914 3.62803 1.35841 0
M  V30 5781 H 559.328 5.24268 -0.155949 0
M  V30 5782 H 560.802 5.29692 1.55338 0
M  V30 5783 H 561.279 3.75967 2.27036 0
M  V30 5784 H 561.885 4.20184 0.657683 0
M  V30 5785 N 560.2 0.0768682 1.57412 0
M  V30 5786 C 561.13 -0.886026 2.16037 0
M  V30 5787 C 562.111 -1.30691 1.08876 0
M  V30 5788 O 563.296 -1.37705 1.36934 0
M  V30 5789 C 560.426 -2.1518 2.72608 0
M  V30 5790 C 559.38 -1.87015 3.8498 0
M  V30 5791 C 558.706 -3.20266 4.28175 0
M  V30 5792 C 560.006 -1.17143 5.08994 0
M  V30 5793 H 561.7 -0.397642 2.96748 0
M  V30 5794 H 559.246 -0.189823 1.42743 0
M  V30 5795 H 561.199 -2.82962 3.12266 0
M  V30 5796 H 559.923 -2.66269 1.89125 0
M  V30 5797 H 558.582 -1.21636 3.45833 0
M  V30 5798 H 558.23 -3.69207 3.41607 0
M  V30 5799 H 557.93 -3.0221 5.03927 0
M  V30 5800 H 559.454 -3.89237 4.70454 0
M  V30 5801 H 560.868 -1.75003 5.45937 0
M  V30 5802 H 559.265 -1.09328 5.90057 0
M  V30 5803 H 560.335 -0.151295 4.84664 0
M  V30 5804 N 561.678 -1.56367 -0.196722 0
M  V30 5805 C 562.908 -1.84371 -0.932254 0
M  V30 5806 C 563.316 -0.657013 -1.77426 0
M  V30 5807 O 562.659 0.383576 -1.79651 0
M  V30 5808 C 562.721 -3.06454 -1.87952 0
M  V30 5809 C 562.385 -4.40425 -1.21962 0
M  V30 5810 C 563.382 -5.16457 -0.597343 0
M  V30 5811 C 561.067 -4.8716 -1.22396 0
M  V30 5812 C 563.061 -6.37399 0.0117913 0
M  V30 5813 C 560.748 -6.08038 -0.610995 0
M  V30 5814 C 561.746 -6.83 0.00580487 0
M  V30 5815 O 561.434 -8.01589 0.609173 0
M  V30 5816 H 561.166 -0.616377 -0.277589 0
M  V30 5817 H 563.72 -2.04329 -0.209452 0
M  V30 5818 H 561.95 -2.82377 -2.64197 0
M  V30 5819 H 563.639 -3.21118 -2.48271 0
M  V30 5820 H 564.405 -4.81445 -0.586142 0
M  V30 5821 H 560.284 -4.2877 -1.69345 0
M  V30 5822 H 563.828 -6.9585 0.493836 0
M  V30 5823 H 559.725 -6.42519 -0.619693 0
M  V30 5824 H 560.493 -8.16935 0.505919 0
M  V30 5825 N 563.156 0.464375 -1.50603 0
M  V30 5826 C 564.396 1.22573 -1.6357 0
M  V30 5827 C 564.76 1.89111 -0.331834 0
M  V30 5828 O 565.961 2.66679 -0.336999 0
M  V30 5829 C 564.232 2.23643 -2.7878 0
M  V30 5830 S 565.791 3.08628 -3.1192 0
M  V30 5831 H 562.609 0.416058 -0.576556 0
M  V30 5832 H 565.211 0.521637 -1.88412 0
M  V30 5833 H 563.915 1.73354 -3.7199 0
M  V30 5834 H 563.446 2.98672 -2.56044 0
M  V30 5835 H 565.461 4.24904 -2.56264 0
M  V30 5836 N 564.634 1.40294 0.718013 0
M  V30 5837 C 565.881 1.3844 1.47786 0
M  V30 5838 C 566.209 -0.0140838 1.94495 0
M  V30 5839 O 565.464 -0.998165 1.68331 0
M  V30 5840 C 565.763 2.31814 2.72024 0
M  V30 5841 C 565.429 3.79117 2.44093 0
M  V30 5842 C 564.091 4.19249 2.36185 0
M  V30 5843 C 566.443 4.72212 2.20602 0
M  V30 5844 C 563.771 5.50516 2.02851 0
M  V30 5845 C 566.123 6.03775 1.88781 0
M  V30 5846 C 564.787 6.42953 1.79354 0
M  V30 5847 H 564.057 0.506588 0.540786 0
M  V30 5848 H 566.704 1.72929 0.822663 0
M  V30 5849 H 565.009 1.90501 3.42369 0
M  V30 5850 H 566.706 2.27664 3.30106 0
M  V30 5851 H 563.296 3.47318 2.51133 0
M  V30 5852 H 567.48 4.42026 2.25669 0
M  V30 5853 H 562.736 5.79776 1.94088 0
M  V30 5854 H 566.91 6.75428 1.69617 0
M  V30 5855 H 564.537 7.44584 1.53291 0
M  V30 5856 N 566.112 -0.949982 1.2575 0
M  V30 5857 C 567.358 -1.69766 1.10938 0
M  V30 5858 C 567.691 -1.91056 -0.348028 0
M  V30 5859 O 566.966 -1.48488 -1.25625 0
M  V30 5860 C 567.249 -3.07779 1.86933 0
M  V30 5861 C 567.102 -2.9387 3.4053 0
M  V30 5862 C 568.421 -4.07749 1.65616 0
M  V30 5863 H 565.54 -0.616144 0.404396 0
M  V30 5864 H 568.182 -1.10394 1.54639 0
M  V30 5865 H 566.332 -3.58462 1.4979 0
M  V30 5866 H 568.004 -2.50476 3.87375 0
M  V30 5867 H 566.247 -2.29686 3.68004 0
M  V30 5868 H 566.918 -3.91719 3.88922 0
M  V30 5869 H 569.394 -3.65994 1.97959 0
M  V30 5870 H 568.27 -5.02348 2.21218 0
M  V30 5871 H 568.531 -4.38029 0.598595 0
M  V30 5872 N 567.59 -1.07411 -1.15328 0
M  V30 5873 C 568.837 -0.797649 -1.86128 0
M  V30 5874 C 569.165 0.676298 -1.82364 0
M  V30 5875 O 568.42 1.51223 -1.24218 0
M  V30 5876 C 568.719 -1.25191 -3.34757 0
M  V30 5877 C 568.385 -2.73191 -3.58716 0
M  V30 5878 C 567.047 -3.13616 -3.64964 0
M  V30 5879 C 569.399 -3.68718 -3.6837 0
M  V30 5880 C 566.727 -4.48383 -3.78377 0
M  V30 5881 C 569.079 -5.03248 -3.83306 0
M  V30 5882 C 567.743 -5.43293 -3.878 0
M  V30 5883 H 567.013 -0.29188 -0.681092 0
M  V30 5884 H 569.66 -1.34524 -1.36292 0
M  V30 5885 H 567.965 -0.623712 -3.86804 0
M  V30 5886 H 569.662 -1.01489 -3.87945 0
M  V30 5887 H 566.252 -2.40898 -3.54494 0
M  V30 5888 H 570.436 -3.38614 -3.62842 0
M  V30 5889 H 565.692 -4.78877 -3.80114 0
M  V30 5890 H 569.866 -5.77142 -3.89718 0
M  V30 5891 H 567.493 -6.47721 -3.97946 0
M  V30 5892 N 569.068 1.32177 -0.85831 0
M  V30 5893 C 570.316 1.96735 -0.462568 0
M  V30 5894 C 570.637 1.6824 0.985911 0
M  V30 5895 O 569.907 0.991564 1.68952 0
M  V30 5896 H 568.487 0.727849 -0.168064 0
M  V30 5897 H 571.149 1.61195 -1.09554 0
M  V30 5898 H 570.245 3.06068 -0.610647 0
M  V30 5899 N 570.547 0.616602 1.45037 0
M  V30 5900 C 571.479 -0.135186 2.28801 0
M  V30 5901 C 572.492 -0.82303 1.40464 0
M  V30 5902 O 573.681 -0.686909 1.64754 0
M  V30 5903 C 570.781 -1.21292 3.16451 0
M  V30 5904 C 569.954 -0.61043 4.3312 0
M  V30 5905 C 569.013 -1.58022 5.01912 0
M  V30 5906 O 568.039 -1.10301 5.58411 0
M  V30 5907 N 569.241 -2.91464 5.02025 0
M  V30 5908 H 572.006 0.583612 2.93963 0
M  V30 5909 H 569.567 0.456723 1.55324 0
M  V30 5910 H 571.559 -1.86169 3.59337 0
M  V30 5911 H 570.129 -1.83412 2.53138 0
M  V30 5912 H 569.349 0.216638 3.93604 0
M  V30 5913 H 570.637 -0.188293 5.08451 0
M  V30 5914 H 570.035 -3.32829 4.57429 0
M  V30 5915 H 568.592 -3.51741 5.48745 0
M  V30 5916 N 572.025 -1.5352 0.356285 0
M  V30 5917 C 573.265 -2.03027 -0.23649 0
M  V30 5918 C 573.629 -1.23813 -1.46746 0
M  V30 5919 O 574.83 -1.63281 -2.13525 0
M  V30 5920 C 573.101 -3.53442 -0.530415 0
M  V30 5921 S 574.66 -4.24836 -1.09819 0
M  V30 5922 H 571.478 -0.707591 -0.0695378 0
M  V30 5923 H 574.08 -1.89077 0.496999 0
M  V30 5924 H 572.784 -4.087 0.373114 0
M  V30 5925 H 572.315 -3.71536 -1.29323 0
M  V30 5926 H 574.33 -4.35228 -2.38309 0
M  V30 5927 N 573.503 -0.0852151 -1.57369 0
M  V30 5928 C 574.914 0.445428 -1.81309 0
M  V30 5929 C 575.265 1.68795 -1.00013 0
M  V30 5930 O 574.39 2.15211 -0.226573 0
M  V30 5931 C 574.985 0.814887 -3.28854 0
M  V30 5932 C 573.544 1.29032 -3.53592 0
M  V30 5933 C 572.691 0.282089 -2.75861 0
M  V30 5934 H 575.642 -0.310771 -1.55627 0
M  V30 5935 H 575.663 1.67524 -3.41637 0
M  V30 5936 H 575.175 -0.0896309 -3.87996 0
M  V30 5937 H 573.276 2.21289 -2.9977 0
M  V30 5938 H 573.389 1.25898 -4.62262 0
M  V30 5939 H 571.753 0.762182 -2.43029 0
M  V30 5940 H 572.536 -0.614936 -3.37748 0
M  V30 5941 N 574.981 1.5647 0.188427 0
M  V30 5942 C 576.228 1.81013 0.907779 0
M  V30 5943 C 576.556 0.65953 1.82977 0
M  V30 5944 O 575.811 -0.354308 1.92466 0
M  V30 5945 C 576.11 3.11596 1.7505 0
M  V30 5946 C 575.776 4.40145 0.978922 0
M  V30 5947 C 574.438 4.75066 0.765912 0
M  V30 5948 C 576.79 5.19369 0.436498 0
M  V30 5949 C 574.118 5.867 -0.00089868 0
M  V30 5950 C 576.47 6.31805 -0.317136 0
M  V30 5951 C 575.134 6.65303 -0.541103 0
M  V30 5952 H 574.404 0.662373 0.33218 0
M  V30 5953 H 577.051 1.9071 0.173732 0
M  V30 5954 H 575.356 2.97165 2.55343 0
M  V30 5955 H 577.053 3.27793 2.30983 0
M  V30 5956 H 573.643 4.12745 1.15497 0
M  V30 5957 H 577.827 4.92799 0.588449 0
M  V30 5958 H 573.083 6.11122 -0.184329 0
M  V30 5959 H 577.257 6.92406 -0.744788 0
M  V30 5960 H 574.884 7.51646 -1.13718 0
M  V30 5961 N 576.459 -0.456382 1.50847 0
M  V30 5962 C 577.392 -1.57177 1.65441 0
M  V30 5963 C 578.37 -1.54649 0.502224 0
M  V30 5964 O 579.554 -1.74057 0.723633 0
M  V30 5965 C 576.681 -2.95763 1.65052 0
M  V30 5966 C 575.727 -3.16389 2.86007 0
M  V30 5967 S 576.56 -2.94716 4.47105 0
M  V30 5968 C 577.716 -4.35617 4.49432 0
M  V30 5969 H 577.949 -1.44561 2.59787 0
M  V30 5970 H 575.482 -0.644758 1.40293 0
M  V30 5971 H 577.44 -3.75654 1.65512 0
M  V30 5972 H 576.101 -3.05756 0.719153 0
M  V30 5973 H 575.294 -4.17667 2.82081 0
M  V30 5974 H 574.896 -2.44293 2.8319 0
M  V30 5975 H 577.188 -5.28503 4.239 0
M  V30 5976 H 578.131 -4.44582 5.51137 0
M  V30 5977 H 578.539 -4.18382 3.78967 0
M  V30 5978 N 577.937 -1.40673 -0.710563 0
M  V30 5979 C 579.214 -1.29718 -1.46398 0
M  V30 5980 C 579.594 0.082177 -2.1094 0
M  V30 5981 O 578.942 1.09536 -2.00534 0
M  V30 5982 C 579.152 -2.43967 -2.49562 0
M  V30 5983 C 580.5 -2.84436 -3.15248 0
M  V30 5984 O 581.524 -2.43597 -2.59883 0
M  V30 5985 O 580.383 -3.55008 -4.1549 0
M  V30 5986 H 577.477 -0.509697 -0.651258 0
M  V30 5987 H 580.023 -1.52603 -0.742312 0
M  V30 5988 H 578.795 -3.36076 -2.0042 0
M  V30 5989 H 578.418 -2.22879 -3.29258 0
M  V30 5990 N 579.415 0.9433 -1.26252 0
M  V30 5991 C 580.325 2.07532 -1.09397 0
M  V30 5992 C 581.341 1.73977 -0.0280449 0
M  V30 5993 O 582.517 2.00067 -0.231337 0
M  V30 5994 C 579.582 3.39002 -0.726523 0
M  V30 5995 C 578.643 3.86353 -1.87163 0
M  V30 5996 C 577.876 5.11549 -1.52162 0
M  V30 5997 O 578.099 5.68834 -0.422385 0
M  V30 5998 O 577.033 5.53889 -2.35565 0
M  V30 5999 H 580.859 2.24658 -2.04359 0
M  V30 6000 H 578.444 1.05988 -1.05295 0
M  V30 6001 H 580.326 4.18 -0.534236 0
M  V30 6002 H 579.001 3.2312 0.193721 0
M  V30 6003 H 577.908 3.0831 -2.11886 0
M  V30 6004 H 579.241 4.06752 -2.77152 0
M  V30 6005 N 580.893 1.08022 1.14757 0
M  V30 6006 C 582.309 0.807072 1.3769 0
M  V30 6007 C 582.509 -0.585504 1.92806 0
M  V30 6008 O 581.565 -1.34301 2.13821 0
M  V30 6009 C 582.878 1.88651 2.34161 0
M  V30 6010 C 584.426 1.91206 2.47809 0
M  V30 6011 C 584.901 2.98253 3.47576 0
M  V30 6012 N 586.392 2.974 3.55117 0
M  V30 6013 C 587.127 3.76872 4.32152 0
M  V30 6014 N 586.623 4.66212 5.12463 0
M  V30 6015 N 588.416 3.6519 4.27309 0
M  V30 6016 H 580.567 1.97824 0.77326 0
M  V30 6017 H 582.83 0.85826 0.402608 0
M  V30 6018 H 582.536 2.88749 2.00791 0
M  V30 6019 H 582.41 1.75244 3.3402 0
M  V30 6020 H 584.797 0.917564 2.80472 0
M  V30 6021 H 584.878 2.08691 1.47925 0
M  V30 6022 H 584.522 3.97907 3.15646 0
M  V30 6023 H 584.452 2.78014 4.47231 0
M  V30 6024 H 586.943 2.32643 2.97801 0
M  V30 6025 H 587.256 5.23468 5.68508 0
M  V30 6026 H 585.601 4.70257 5.11745 0
M  V30 6027 H 588.792 2.94765 3.63636 0
M  V30 6028 H 588.965 4.27366 4.87095 0
M  V30 6029 N 582.371 -1.3172 0.865308 0
M  V30 6030 C 583.62 -1.96145 0.470098 0
M  V30 6031 C 583.933 -1.69182 -0.981674 0
M  V30 6032 O 585.139 -2.27431 -1.48281 0
M  V30 6033 C 583.595 -3.51129 0.789732 0
M  V30 6034 C 583.203 -3.86938 2.25795 0
M  V30 6035 C 584.947 -4.2197 0.462765 0
M  V30 6036 C 582.854 -5.35012 2.52024 0
M  V30 6037 H 581.784 -0.734105 0.172065 0
M  V30 6038 H 584.435 -1.49959 1.05757 0
M  V30 6039 H 582.817 -3.95781 0.131571 0
M  V30 6040 H 583.991 -3.5326 2.95879 0
M  V30 6041 H 582.306 -3.29149 2.55049 0
M  V30 6042 H 584.903 -5.30904 0.636019 0
M  V30 6043 H 585.246 -4.12005 -0.59645 0
M  V30 6044 H 585.779 -3.82936 1.07727 0
M  V30 6045 H 582.518 -5.50008 3.56611 0
M  V30 6046 H 582.038 -5.70058 1.8653 0
M  V30 6047 H 583.717 -6.0222 2.36515 0
M  V30 6048 N 583.85 -0.624285 -1.44708 0
M  V30 6049 C 584.783 0.133905 -2.27807 0
M  V30 6050 C 585.76 0.857794 -1.38133 0
M  V30 6051 O 586.945 0.863277 -1.6757 0
M  V30 6052 C 584.072 1.19541 -3.16903 0
M  V30 6053 C 583.118 0.572813 -4.22636 0
M  V30 6054 S 583.951 -0.631953 -5.31758 0
M  V30 6055 C 585.106 0.429733 -6.24423 0
M  V30 6056 H 585.34 -0.571072 -2.91764 0
M  V30 6057 H 582.873 -0.412261 -1.48794 0
M  V30 6058 H 584.831 1.80293 -3.68788 0
M  V30 6059 H 583.492 1.87255 -2.5218 0
M  V30 6060 H 582.685 1.37205 -4.84965 0
M  V30 6061 H 582.287 0.0400641 -3.73979 0
M  V30 6062 H 584.579 1.30421 -6.64828 0
M  V30 6063 H 585.522 -0.157804 -7.07924 0
M  V30 6064 H 585.93 0.75256 -5.59461 0
M  V30 6065 N 585.328 1.53329 -0.364422 0
M  V30 6066 C 586.568 2.0315 0.22572 0
M  V30 6067 C 586.932 1.24589 1.46087 0
M  V30 6068 O 588.133 1.64411 2.12656 0
M  V30 6069 C 586.404 3.53718 0.511663 0
M  V30 6070 S 587.963 4.25412 1.07564 0
M  V30 6071 H 584.781 0.70795 0.0657843 0
M  V30 6072 H 587.383 1.88811 -0.507019 0
M  V30 6073 H 586.087 4.08497 -0.394784 0
M  V30 6074 H 585.618 3.72217 1.27351 0
M  V30 6075 H 587.633 4.36486 2.35997 0
M  V30 6076 N 586.806 0.0935595 1.57322 0
M  V30 6077 C 587.736 -0.863062 2.16964 0
M  V30 6078 C 588.717 -1.29528 1.10256 0
M  V30 6079 O 589.902 -1.36245 1.38387 0
M  V30 6080 C 587.032 -2.12276 2.74875 0
M  V30 6081 C 585.986 -1.82921 3.86942 0
M  V30 6082 C 585.312 -3.15707 4.31548 0
M  V30 6083 C 586.612 -1.11737 5.10208 0
M  V30 6084 H 588.306 -0.366145 2.97153 0
M  V30 6085 H 585.852 -0.174673 1.42937 0
M  V30 6086 H 587.805 -2.79634 3.1525 0
M  V30 6087 H 586.529 -2.64248 1.91938 0
M  V30 6088 H 585.188 -1.17961 3.47103 0
M  V30 6089 H 584.836 -3.65563 3.45504 0
M  V30 6090 H 584.536 -2.96849 5.07104 0
M  V30 6091 H 586.06 -3.84226 4.74555 0
M  V30 6092 H 587.474 -1.69203 5.47762 0
M  V30 6093 H 585.871 -1.03064 5.91183 0
M  V30 6094 H 586.941 -0.0998818 4.84797 0
M  V30 6095 N 588.284 -1.56567 -0.180126 0
M  V30 6096 C 589.234 -1.92132 -1.22756 0
M  V30 6097 C 590.218 -0.788639 -1.40247 0
M  V30 6098 O 591.41 -1.05171 -1.42366 0
M  V30 6099 C 588.539 -2.27719 -2.56902 0
M  V30 6100 C 587.625 -3.47481 -2.43142 0
M  V30 6101 N 588.016 -4.64973 -1.99082 0
M  V30 6102 C 586.314 -3.51914 -2.73994 0
M  V30 6103 C 587.015 -5.47119 -1.97574 0
M  V30 6104 N 585.991 -4.87925 -2.39645 0
M  V30 6105 H 589.793 -2.80464 -0.878478 0
M  V30 6106 H 587.307 -1.57686 -0.388463 0
M  V30 6107 H 589.304 -2.51389 -3.32579 0
M  V30 6108 H 587.964 -1.40722 -2.92621 0
M  V30 6109 H 588.975 -4.89358 -1.69557 0
M  V30 6110 H 585.652 -2.75372 -3.13809 0
M  V30 6111 H 587.042 -6.51254 -1.65282 0
M  V30 6112 N 589.762 0.448376 -1.51087 0
M  V30 6113 C 590.987 1.22605 -1.6728 0
M  V30 6114 C 591.412 1.84524 -0.365045 0
M  V30 6115 O 590.77 1.6832 0.673642 0
M  V30 6116 C 590.818 2.29393 -2.78229 0
M  V30 6117 O 589.922 3.34608 -2.41063 0
M  V30 6118 H 589.263 0.359705 -0.558129 0
M  V30 6119 H 591.793 0.530903 -1.97592 0
M  V30 6120 H 591.803 2.74352 -3.01986 0
M  V30 6121 H 590.478 1.83701 -3.73131 0
M  V30 6122 H 589.055 2.95202 -2.27838 0
M  V30 6123 N 591.24 1.41047 0.703093 0
M  V30 6124 C 592.187 1.42302 1.81711 0
M  V30 6125 C 593.157 0.278336 1.63751 0
M  V30 6126 O 594.342 0.478266 1.84709 0
M  V30 6127 C 591.482 1.30362 3.19531 0
M  V30 6128 C 590.595 2.54638 3.48975 0
M  V30 6129 C 589.73 2.35047 4.76368 0
M  V30 6130 C 588.769 3.54837 4.98756 0
M  V30 6131 N 587.906 3.34363 6.1737 0
M  V30 6132 H 592.746 2.37516 1.79973 0
M  V30 6133 H 590.283 1.1795 0.878983 0
M  V30 6134 H 592.241 1.21443 3.99134 0
M  V30 6135 H 590.871 0.387602 3.20464 0
M  V30 6136 H 589.923 2.74037 2.63833 0
M  V30 6137 H 591.235 3.43766 3.61423 0
M  V30 6138 H 590.389 2.23552 5.64012 0
M  V30 6139 H 589.128 1.43363 4.66153 0
M  V30 6140 H 588.133 3.66795 4.09563 0
M  V30 6141 H 589.358 4.47464 5.10835 0
M  V30 6142 H 587.304 2.45373 6.08382 0
M  V30 6143 H 587.221 4.17063 6.30551 0
M  V30 6144 H 588.489 3.26626 7.07768 0
M  V30 6145 N 592.718 -0.936591 1.26751 0
M  V30 6146 C 593.967 -1.67778 1.11953 0
M  V30 6147 C 594.28 -1.92694 -0.33589 0
M  V30 6148 O 595.486 -2.64682 -0.604618 0
M  V30 6149 C 593.942 -3.02138 1.95551 0
M  V30 6150 C 593.55 -2.84953 3.45696 0
M  V30 6151 C 595.294 -3.79917 1.89377 0
M  V30 6152 C 593.201 -4.14814 4.21525 0
M  V30 6153 H 592.131 -0.629275 0.415366 0
M  V30 6154 H 594.782 -1.04122 1.51099 0
M  V30 6155 H 593.164 -3.668 1.49243 0
M  V30 6156 H 594.338 -2.29112 3.99805 0
M  V30 6157 H 592.653 -2.20612 3.53156 0
M  V30 6158 H 595.25 -4.76134 2.43312 0
M  V30 6159 H 595.593 -4.07204 0.865464 0
M  V30 6160 H 596.126 -3.22037 2.33532 0
M  V30 6161 H 592.865 -3.92709 5.24843 0
M  V30 6162 H 592.385 -4.70352 3.72195 0
M  V30 6163 H 594.064 -4.83239 4.3022 0
M  V30 6164 N 594.196 -1.08629 -1.14182 0
M  V30 6165 C 595.143 -0.718299 -2.19338 0
M  V30 6166 C 596.113 0.296587 -1.63431 0
M  V30 6167 O 597.298 0.180079 -1.89948 0
M  V30 6168 C 594.438 -0.136203 -3.44831 0
M  V30 6169 C 593.551 -1.20414 -4.14879 0
M  V30 6170 C 592.686 -0.585666 -5.27962 0
M  V30 6171 C 591.725 -1.63548 -5.89846 0
M  V30 6172 N 590.862 -1.03864 -6.94375 0
M  V30 6173 H 595.702 -1.61932 -2.50164 0
M  V30 6174 H 593.239 -0.80919 -1.22844 0
M  V30 6175 H 595.197 0.219021 -4.16625 0
M  V30 6176 H 593.827 0.728121 -3.14481 0
M  V30 6177 H 592.879 -1.67676 -3.41451 0
M  V30 6178 H 594.191 -1.99959 -4.56966 0
M  V30 6179 H 593.345 -0.178818 -6.06436 0
M  V30 6180 H 592.084 0.24142 -4.87102 0
M  V30 6181 H 591.089 -2.05197 -5.10073 0
M  V30 6182 H 592.314 -2.46509 -6.3278 0
M  V30 6183 H 590.26 -0.232687 -6.55587 0
M  V30 6184 H 590.177 -1.77116 -7.3496 0
M  V30 6185 H 591.445 -0.657724 -7.7672 0
M  V30 6186 N 595.674 1.31259 -0.872281 0
M  V30 6187 C 596.899 2.0133 -0.498099 0
M  V30 6188 C 597.324 1.65031 0.902568 0
M  V30 6189 O 596.682 0.860164 1.59596 0
M  V30 6190 C 596.73 3.54411 -0.665205 0
M  V30 6191 O 595.834 4.11347 0.294473 0
M  V30 6192 H 595.175 0.633844 -0.197832 0
M  V30 6193 H 597.705 1.67402 -1.17633 0
M  V30 6194 H 597.715 4.04147 -0.559373 0
M  V30 6195 H 596.39 3.80171 -1.68651 0
M  V30 6196 H 594.967 3.72624 0.143403 0
M  V30 6197 N 597.152 0.631951 1.44375 0
M  V30 6198 C 598.084 -0.110911 2.28931 0
M  V30 6199 C 599.097 -0.808086 1.41329 0
M  V30 6200 O 600.286 -0.669396 1.65473 0
M  V30 6201 C 597.386 -1.17928 3.1772 0
M  V30 6202 C 596.559 -0.564458 4.33743 0
M  V30 6203 C 595.618 -1.5269 5.0356 0
M  V30 6204 O 594.644 -1.04372 5.59549 0
M  V30 6205 N 595.846 -2.86123 5.05088 0
M  V30 6206 H 598.611 0.614758 2.93327 0
M  V30 6207 H 596.172 0.473171 1.54831 0
M  V30 6208 H 598.164 -1.82348 3.61291 0
M  V30 6209 H 596.734 -1.80717 2.55069 0
M  V30 6210 H 595.954 0.258373 3.93352 0
M  V30 6211 H 597.242 -0.134355 5.08623 0
M  V30 6212 H 596.64 -3.27959 4.60933 0
M  V30 6213 H 595.197 -3.45901 5.52445 0
M  V30 6214 N 598.631 -1.53133 0.372548 0
M  V30 6215 C 599.594 -2.24569 -0.458389 0
M  V30 6216 C 600.594 -1.25603 -1.00402 0
M  V30 6217 O 601.784 -1.49827 -0.888672 0
M  V30 6218 C 598.916 -2.98783 -1.6414 0
M  V30 6219 H 600.109 -2.99436 0.166799 0
M  V30 6220 H 597.662 -1.55805 0.124357 0
M  V30 6221 H 598.397 -2.28176 -2.30448 0
M  V30 6222 H 598.182 -3.71404 -1.25704 0
M  V30 6223 H 599.672 -3.53068 -2.23008 0
M  V30 6224 N 600.109 -0.101901 -1.5727 0
M  V30 6225 C 601.039 0.851544 -2.17419 0
M  V30 6226 C 602.02 1.28942 -1.10941 0
M  V30 6227 O 603.205 1.35509 -1.39107 0
M  V30 6228 C 600.335 2.10816 -2.75996 0
M  V30 6229 C 599.289 1.80867 -3.87906 0
M  V30 6230 C 598.615 3.13413 -4.33216 0
M  V30 6231 C 599.915 1.0903 -5.10793 0
M  V30 6232 H 601.609 0.350381 -2.97343 0
M  V30 6233 H 599.155 0.16709 -1.43027 0
M  V30 6234 H 601.108 2.77959 -3.16729 0
M  V30 6235 H 599.832 2.63227 -1.93337 0
M  V30 6236 H 598.491 1.16119 -3.47724 0
M  V30 6237 H 598.139 3.63725 -3.47438 0
M  V30 6238 H 597.839 2.94155 -5.08671 0
M  V30 6239 H 599.363 3.81704 -4.76586 0
M  V30 6240 H 600.777 1.66295 -5.48652 0
M  V30 6241 H 599.174 0.99927 -5.91722 0
M  V30 6242 H 600.244 0.0741704 -4.84843 0
M  V30 6243 N 601.587 1.56661 0.17182 0
M  V30 6244 C 602.497 1.99604 1.2327 0
M  V30 6245 C 603.513 0.907333 1.4847 0
M  V30 6246 O 604.689 1.21492 1.60629 0
M  V30 6247 C 601.754 2.34685 2.55194 0
M  V30 6248 C 600.815 3.57381 2.3786 0
M  V30 6249 C 600.048 3.90779 3.63494 0
M  V30 6250 O 600.271 3.25152 4.6865 0
M  V30 6251 O 599.205 4.84129 3.57634 0
M  V30 6252 H 603.031 2.90114 0.898192 0
M  V30 6253 H 600.616 1.44522 0.378647 0
M  V30 6254 H 602.498 2.5822 3.33017 0
M  V30 6255 H 601.173 1.47336 2.88225 0
M  V30 6256 H 600.08 3.39064 1.5807 0
M  V30 6257 H 601.413 4.45268 2.09754 0
M  V30 6258 N 603.065 -0.440357 1.51323 0
M  V30 6259 C 604.312 -1.19004 1.63842 0
M  V30 6260 C 604.64 -1.91266 0.35321 0
M  V30 6261 O 603.895 -1.84143 -0.662565 0
M  V30 6262 C 604.194 -2.2339 2.78984 0
M  V30 6263 C 603.86 -1.68162 4.18369 0
M  V30 6264 C 602.522 -1.52823 4.56288 0
M  V30 6265 C 604.874 -1.27524 5.05358 0
M  V30 6266 C 602.202 -0.953157 5.78906 0
M  V30 6267 C 604.554 -0.714474 6.28552 0
M  V30 6268 C 603.218 -0.547961 6.65247 0
M  V30 6269 H 602.488 -0.435468 0.59954 0
M  V30 6270 H 605.135 -0.481538 1.85347 0
M  V30 6271 H 603.44 -3.00267 2.51688 0
M  V30 6272 H 605.137 -2.81211 2.85869 0
M  V30 6273 H 601.727 -1.81077 3.8847 0
M  V30 6274 H 605.911 -1.38197 4.76671 0
M  V30 6275 H 601.167 -0.811882 6.05986 0
M  V30 6276 H 605.341 -0.391059 6.95301 0
M  V30 6277 H 602.968 -0.100222 7.60134 0
M  V30 6278 N 604.543 -1.41418 -0.695603 0
M  V30 6279 C 605.954 -1.36335 -1.27552 0
M  V30 6280 C 606.305 -0.0464336 -1.96145 0
M  V30 6281 O 605.43 0.855304 -1.9878 0
M  V30 6282 C 606.025 -2.46941 -2.3196 0
M  V30 6283 C 604.584 -2.45256 -2.85529 0
M  V30 6284 C 603.731 -2.2679 -1.59566 0
M  V30 6285 H 606.682 -1.50934 -0.490362 0
M  V30 6286 H 606.703 -2.15997 -3.1325 0
M  V30 6287 H 606.215 -3.42775 -1.82008 0
M  V30 6288 H 604.316 -1.53179 -3.39657 0
M  V30 6289 H 604.429 -3.41565 -3.35961 0
M  V30 6290 H 602.793 -1.74667 -1.85374 0
M  V30 6291 H 603.576 -3.24651 -1.1161 0
M  V30 6292 N 606.021 0.929856 -1.27246 0
M  V30 6293 C 607.298 1.65544 -1.04186 0
M  V30 6294 C 607.678 2.06796 0.424097 0
M  V30 6295 O 607.026 1.80053 1.40688 0
M  V30 6296 C 607.236 2.85912 -2.00138 0
M  V30 6297 C 608.584 3.57305 -2.29387 0
M  V30 6298 O 609.608 2.96036 -1.98094 0
M  V30 6299 O 608.467 4.67688 -2.82719 0
M  V30 6300 H 605.561 0.725473 -0.397011 0
M  V30 6301 H 608.107 0.980583 -1.38501 0
M  V30 6302 H 606.879 2.52403 -2.99013 0
M  V30 6303 H 606.502 3.61118 -1.66371 0
M  V30 6304 N 607.499 1.09233 1.13605 0
M  V30 6305 C 608.431 0.687794 2.18637 0
M  V30 6306 C 609.444 -0.26936 1.60556 0
M  V30 6307 O 610.633 -0.0557162 1.78413 0
M  V30 6308 C 607.733 -0.00751901 3.38899 0
M  V30 6309 C 606.906 0.97067 4.26494 0
M  V30 6310 C 605.965 0.309129 5.25291 0
M  V30 6311 O 604.991 0.956149 5.61112 0
M  V30 6312 N 606.193 -0.937555 5.72879 0
M  V30 6313 H 608.958 1.59141 2.53957 0
M  V30 6314 H 606.519 0.979515 1.28907 0
M  V30 6315 H 608.511 -0.461238 4.02063 0
M  V30 6316 H 607.081 -0.813353 3.01833 0
M  V30 6317 H 606.301 1.603 3.60135 0
M  V30 6318 H 607.589 1.63323 4.81875 0
M  V30 6319 H 606.987 -1.48281 5.4592 0
M  V30 6320 H 605.544 -1.33463 6.3799 0
M  V30 6321 N 608.977 -1.30795 0.87923 0
M  V30 6322 C 610.388 -1.78535 0.546093 0
M  V30 6323 C 610.739 -1.72354 -0.937467 0
M  V30 6324 O 609.864 -1.2969 -1.73233 0
M  V30 6325 C 610.459 -3.24181 0.9845 0
M  V30 6326 C 609.018 -3.69779 0.702871 0
M  V30 6327 C 608.165 -2.51377 1.17068 0
M  V30 6328 H 611.116 -1.17746 1.06403 0
M  V30 6329 H 611.137 -3.79227 0.311045 0
M  V30 6330 H 610.649 -3.28647 2.06429 0
M  V30 6331 H 608.75 -3.70806 -0.365166 0
M  V30 6332 H 608.863 -4.61507 1.28639 0
M  V30 6333 H 607.227 -2.47768 0.590172 0
M  V30 6334 H 608.01 -2.58584 2.25808 0
M  V30 6335 N 610.455 -0.639598 -1.44038 0
M  V30 6336 C 611.732 -0.078012 -1.95444 0
M  V30 6337 C 612.112 1.39847 -1.58133 0
M  V30 6338 O 611.46 2.11714 -0.859614 0
M  V30 6339 C 611.67 -0.309832 -3.47622 0
M  V30 6340 C 613.018 -0.207521 -4.24093 0
M  V30 6341 O 614.042 -0.241653 -3.55379 0
M  V30 6342 O 612.901 -0.119641 -5.46369 0
M  V30 6343 H 609.995 0.0174534 -0.826816 0
M  V30 6344 H 612.541 -0.711891 -1.54046 0
M  V30 6345 H 611.313 -1.33401 -3.67858 0
M  V30 6346 H 610.936 0.357777 -3.95987 0
M  V30 6347 N 611.933 1.52934 -0.380664 0
M  V30 6348 C 613.182 2.00651 0.205477 0
M  V30 6349 C 613.495 1.27164 1.48623 0
M  V30 6350 O 614.701 1.65547 2.15189 0
M  V30 6351 C 613.157 3.57479 0.416726 0
M  V30 6352 C 612.765 4.39857 -0.850268 0
M  V30 6353 C 614.509 4.13509 0.959702 0
M  V30 6354 C 612.416 5.88269 -0.607773 0
M  V30 6355 H 611.346 0.749684 0.0805614 0
M  V30 6356 H 613.997 1.76508 -0.501732 0
M  V30 6357 H 612.379 3.77836 1.18557 0
M  V30 6358 H 613.553 4.31269 -1.62307 0
M  V30 6359 H 611.868 3.95005 -1.31756 0
M  V30 6360 H 614.465 5.22039 1.15669 0
M  V30 6361 H 614.808 3.69054 1.92626 0
M  V30 6362 H 615.341 3.9701 0.250645 0
M  V30 6363 H 612.08 6.3703 -1.54509 0
M  V30 6364 H 611.6 5.99667 0.126247 0
M  V30 6365 H 613.279 6.46558 -0.239014 0
M  V30 6366 N 613.412 0.11024 1.57214 0
M  V30 6367 C 614.375 -0.828808 2.1369 0
M  V30 6368 C 615.375 -1.20059 1.06969 0
M  V30 6369 O 616.565 -1.12754 1.32786 0
M  V30 6370 C 613.697 -2.11959 2.66994 0
M  V30 6371 H 614.89 -0.338146 2.97988 0
M  V30 6372 H 612.443 -0.138913 1.55681 0
M  V30 6373 H 613.178 -2.65476 1.8626 0
M  V30 6374 H 612.963 -1.86258 3.45037 0
M  V30 6375 H 614.453 -2.79105 3.10629 0
M  V30 6376 N 614.89 -1.56749 -0.16351 0
M  V30 6377 C 615.8 -2.00255 -1.2221 0
M  V30 6378 C 616.816 -0.915194 -1.47987 0
M  V30 6379 O 617.992 -1.22342 -1.59982 0
M  V30 6380 C 615.057 -2.36035 -2.53946 0
M  V30 6381 C 614.118 -3.58637 -2.35962 0
M  V30 6382 C 613.351 -3.92701 -3.61416 0
M  V30 6383 O 613.574 -3.27632 -4.66919 0
M  V30 6384 O 612.508 -4.86019 -3.55062 0
M  V30 6385 H 616.334 -2.90586 -0.882794 0
M  V30 6386 H 613.919 -1.44721 -0.370978 0
M  V30 6387 H 615.801 -2.59982 -3.31643 0
M  V30 6388 H 614.476 -1.48863 -2.8744 0
M  V30 6389 H 613.383 -3.39898 -1.5627 0
M  V30 6390 H 614.716 -4.46374 -2.0739 0
M  V30 6391 N 616.368 0.432326 -1.51554 0
M  V30 6392 C 617.645 1.19288 -1.55015 0
M  V30 6393 C 618.025 2.08701 -0.317375 0
M  V30 6394 O 617.373 2.17602 0.697243 0
M  V30 6395 C 617.583 1.99037 -2.86679 0
M  V30 6396 C 618.931 2.55907 -3.38817 0
M  V30 6397 O 619.955 2.09243 -2.88263 0
M  V30 6398 O 618.814 3.41029 -4.27038 0
M  V30 6399 H 615.908 0.543369 -0.623441 0
M  V30 6400 H 618.454 0.440988 -1.6387 0
M  V30 6401 H 617.226 1.33397 -3.6786 0
M  V30 6402 H 616.849 2.81281 -2.8101 0
M  V30 6403 N 617.846 1.41785 0.688094 0
M  V30 6404 C 618.776 1.47 1.8142 0
M  V30 6405 C 619.757 0.327881 1.6691 0
M  V30 6406 O 620.942 0.540362 1.86531 0
M  V30 6407 C 618.072 1.35876 3.19617 0
M  V30 6408 C 617.026 2.47976 3.48844 0
M  V30 6409 C 616.352 2.21915 4.86475 0
M  V30 6410 C 617.652 3.90309 3.47068 0
M  V30 6411 H 619.346 2.41247 1.77314 0
M  V30 6412 H 616.892 1.16116 0.851651 0
M  V30 6413 H 618.845 1.38134 3.98117 0
M  V30 6414 H 617.569 0.38116 3.24368 0
M  V30 6415 H 616.228 2.45013 2.72698 0
M  V30 6416 H 615.876 1.2248 4.8786 0
M  V30 6417 H 615.576 2.97037 5.06994 0
M  V30 6418 H 617.1 2.25901 5.67275 0
M  V30 6419 H 618.514 3.94947 4.1556 0
M  V30 6420 H 616.911 4.65175 3.7912 0
M  V30 6421 H 617.981 4.17927 2.45896 0
M  V30 6422 N 619.324 -0.923095 1.27737 0
M  V30 6423 C 620.271 -2.02432 1.1086 0
M  V30 6424 C 621.241 -1.66098 0.00835195 0
M  V30 6425 O 622.426 -1.90027 0.171542 0
M  V30 6426 C 619.566 -3.36476 0.766671 0
M  V30 6427 C 618.679 -3.85737 1.94501 0
M  V30 6428 C 617.814 -5.08249 1.54455 0
M  V30 6429 C 616.853 -5.49818 2.6901 0
M  V30 6430 N 615.99 -6.63524 2.29521 0
M  V30 6431 H 620.83 -2.16201 2.05089 0
M  V30 6432 H 618.367 -1.05909 1.02087 0
M  V30 6433 H 620.325 -4.13569 0.549223 0
M  V30 6434 H 618.955 -3.22502 -0.13867 0
M  V30 6435 H 618.007 -3.04883 2.27487 0
M  V30 6436 H 619.319 -4.12513 2.80419 0
M  V30 6437 H 618.473 -5.92857 1.28862 0
M  V30 6438 H 617.212 -4.83261 0.656534 0
M  V30 6439 H 616.217 -4.63757 2.95313 0
M  V30 6440 H 617.442 -5.76799 3.5844 0
M  V30 6441 H 615.388 -6.40185 1.43177 0
M  V30 6442 H 615.305 -6.89978 3.08977 0
M  V30 6443 H 616.573 -7.51461 2.07187 0
M  V30 6444 N 620.802 -1.09834 -1.13024 0
M  V30 6445 C 622.079 -0.749225 -1.80682 0
M  V30 6446 C 622.459 0.765171 -1.96744 0
M  V30 6447 O 621.807 1.68912 -1.53886 0
M  V30 6448 C 622.017 -1.49311 -3.15448 0
M  V30 6449 C 623.365 -1.66162 -3.90737 0
M  V30 6450 O 624.389 -1.45597 -3.25085 0
M  V30 6451 O 623.248 -2.00211 -5.08505 0
M  V30 6452 H 620.342 -0.269614 -0.781817 0
M  V30 6453 H 622.888 -1.20078 -1.19914 0
M  V30 6454 H 621.66 -2.52407 -2.99009 0
M  V30 6455 H 621.283 -1.034 -3.8392 0
M  V30 6456 N 622.28 1.30327 -0.886154 0
M  V30 6457 C 623.21 2.30549 -0.370028 0
M  V30 6458 C 624.191 1.61039 0.547751 0
M  V30 6459 O 625.376 1.8864 0.461353 0
M  V30 6460 C 622.506 3.44808 0.415275 0
M  V30 6461 C 621.46 4.26024 -0.41085 0
M  V30 6462 C 620.786 5.32347 0.501128 0
M  V30 6463 C 622.086 4.95433 -1.65359 0
M  V30 6464 H 623.78 2.73969 -1.20754 0
M  V30 6465 H 621.326 1.3171 -0.582097 0
M  V30 6466 H 623.279 4.13986 0.78699 0
M  V30 6467 H 622.003 3.00197 1.28644 0
M  V30 6468 H 620.662 3.58535 -0.764719 0
M  V30 6469 H 620.31 4.83982 1.37004 0
M  V30 6470 H 620.01 5.87581 -0.0478356 0
M  V30 6471 H 621.534 6.0438 0.869333 0
M  V30 6472 H 622.948 5.5712 -1.35239 0
M  V30 6473 H 621.345 5.60537 -2.14284 0
M  V30 6474 H 622.415 4.21493 -2.39733 0
M  V30 6475 N 623.758 0.647228 1.43697 0
M  V30 6476 C 625.007 0.155552 2.01099 0
M  V30 6477 C 625.32 -1.23569 1.51624 0
M  V30 6478 O 626.526 -1.82226 2.01261 0
M  V30 6479 C 624.982 0.227296 3.59182 0
M  V30 6480 C 624.59 1.62086 4.17651 0
M  V30 6481 C 626.334 -0.207085 4.23995 0
M  V30 6482 C 624.241 1.64685 5.68008 0
M  V30 6483 H 623.171 0.0543895 0.752036 0
M  V30 6484 H 625.822 0.808386 1.64734 0
M  V30 6485 H 624.204 -0.492937 3.9292 0
M  V30 6486 H 625.378 2.36597 3.95422 0
M  V30 6487 H 623.693 2.0007 3.65186 0
M  V30 6488 H 626.29 -0.207426 5.34298 0
M  V30 6489 H 626.633 -1.23742 3.97484 0
M  V30 6490 H 627.166 0.461193 3.95118 0
M  V30 6491 H 623.905 2.65608 5.99277 0
M  V30 6492 H 623.425 0.944914 5.9231 0
M  V30 6493 H 625.104 1.38792 6.31938 0
M  V30 6494 N 625.236 -1.5273 0.388769 0
M  V30 6495 C 626.464 -2.05992 -0.193677 0
M  V30 6496 C 626.879 -1.26053 -1.40557 0
M  V30 6497 O 626.236 -0.307049 -1.79898 0
M  V30 6498 C 626.287 -3.57068 -0.564321 0
M  V30 6499 O 626.008 -4.3398 0.599422 0
M  V30 6500 C 627.509 -4.26674 -1.20269 0
M  V30 6501 H 624.729 -0.670358 -0.0293445 0
M  V30 6502 H 627.273 -1.96857 0.553844 0
M  V30 6503 H 625.428 -3.66277 -1.26174 0
M  V30 6504 H 625.842 -5.2367 0.294895 0
M  V30 6505 H 627.316 -5.33625 -1.4124 0
M  V30 6506 H 627.793 -3.81854 -2.16989 0
M  V30 6507 H 628.399 -4.2178 -0.546047 0
M  V30 6508 N 626.714 -0.118576 -1.57153 0
M  V30 6509 C 628.13 0.238014 -1.57815 0
M  V30 6510 C 628.33 1.66747 -1.13127 0
M  V30 6511 O 627.386 2.38867 -0.818462 0
M  V30 6512 C 628.699 0.00508207 -3.007 0
M  V30 6513 C 630.247 0.0710139 -3.12919 0
M  V30 6514 C 630.722 -0.13422 -4.57803 0
M  V30 6515 N 632.213 -0.0801755 -4.63131 0
M  V30 6516 C 632.948 -0.213885 -5.73001 0
M  V30 6517 N 632.444 -0.403742 -6.91623 0
M  V30 6518 N 634.237 -0.15349 -5.6189 0
M  V30 6519 H 626.388 -1.05226 -1.84503 0
M  V30 6520 H 628.651 -0.414318 -0.852669 0
M  V30 6521 H 628.357 -0.983125 -3.3768 0
M  V30 6522 H 628.231 0.73714 -3.69927 0
M  V30 6523 H 630.618 1.04975 -2.75798 0
M  V30 6524 H 630.699 -0.692918 -2.46236 0
M  V30 6525 H 630.343 -1.10992 -4.95624 0
M  V30 6526 H 630.273 0.649692 -5.22577 0
M  V30 6527 H 632.764 0.0630689 -3.77847 0
M  V30 6528 H 633.077 -0.496645 -7.71202 0
M  V30 6529 H 631.422 -0.43971 -6.93608 0
M  V30 6530 H 634.613 -0.00613174 -4.681 0
M  V30 6531 H 634.786 -0.261138 -6.47474 0
M  V30 6532 N 628.193 1.56834 0.155195 0
M  V30 6533 C 629.126 1.9278 1.22111 0
M  V30 6534 C 630.104 0.792588 1.41975 0
M  V30 6535 O 631.288 1.04743 1.5672 0
M  V30 6536 C 628.415 2.19273 2.58142 0
M  V30 6537 C 627.461 3.41932 2.54921 0
M  V30 6538 S 628.294 4.95769 2.02418 0
M  V30 6539 C 629.45 5.25375 3.40194 0
M  V30 6540 H 629.683 2.82889 0.914393 0
M  V30 6541 H 627.216 1.50133 0.360461 0
M  V30 6542 H 629.174 2.35217 3.36427 0
M  V30 6543 H 627.835 1.29843 2.86007 0
M  V30 6544 H 627.028 3.57721 3.55038 0
M  V30 6545 H 626.63 3.25188 1.8474 0
M  V30 6546 H 628.922 5.1834 4.36268 0
M  V30 6547 H 629.865 6.26889 3.29266 0
M  V30 6548 H 630.273 4.52906 3.36951 0
M  V30 6549 N 629.671 -0.424282 1.51781 0
M  V30 6550 C 630.601 -1.52305 1.7699 0
M  V30 6551 C 631.582 -1.5839 0.620209 0
M  V30 6552 O 632.767 -1.73908 0.864268 0
M  V30 6553 C 629.897 -2.90271 1.90683 0
M  V30 6554 C 628.851 -2.99043 3.06198 0
M  V30 6555 C 628.177 -4.39116 3.05092 0
M  V30 6556 C 629.477 -2.7192 4.45934 0
M  V30 6557 H 631.171 -1.31461 2.68995 0
M  V30 6558 H 628.717 -0.630985 1.29439 0
M  V30 6559 H 630.67 -3.6711 2.06901 0
M  V30 6560 H 629.394 -3.12376 0.953365 0
M  V30 6561 H 628.053 -2.24646 2.89706 0
M  V30 6562 H 627.701 -4.58207 2.07498 0
M  V30 6563 H 627.401 -4.45912 3.82669 0
M  V30 6564 H 628.925 -5.17911 3.2342 0
M  V30 6565 H 630.339 -3.38487 4.62709 0
M  V30 6566 H 628.736 -2.90111 5.25315 0
M  V30 6567 H 629.806 -1.67445 4.55072 0
M  V30 6568 N 631.149 -1.42148 -0.680565 0
M  V30 6569 C 632.426 -1.32795 -1.43614 0
M  V30 6570 C 632.806 0.037415 -2.11067 0
M  V30 6571 O 632.154 1.05258 -2.02813 0
M  V30 6572 C 632.364 -2.49206 -2.44331 0
M  V30 6573 C 633.712 -2.91059 -3.09144 0
M  V30 6574 O 634.736 -2.49054 -2.54657 0
M  V30 6575 O 633.595 -3.63741 -4.07866 0
M  V30 6576 H 630.689 -0.523397 -0.640301 0
M  V30 6577 H 633.235 -1.54144 -0.709775 0
M  V30 6578 H 632.007 -3.40252 -1.93247 0
M  V30 6579 H 631.63 -2.29813 -3.24456 0
M  V30 6580 N 632.627 0.916307 -1.28225 0
M  V30 6581 C 633.574 2.01841 -1.11932 0
M  V30 6582 C 634.544 1.66091 -0.0171604 0
M  V30 6583 O 635.729 1.89934 -0.181617 0
M  V30 6584 C 632.869 3.36065 -0.784504 0
M  V30 6585 C 631.982 3.847 -1.96544 0
M  V30 6586 C 631.117 5.07423 -1.57149 0
M  V30 6587 C 630.156 5.48384 -2.71922 0
M  V30 6588 N 629.293 6.62298 -2.33037 0
M  V30 6589 H 634.133 2.1511 -2.06232 0
M  V30 6590 H 631.67 1.05366 -1.02647 0
M  V30 6591 H 633.628 4.13272 -0.571148 0
M  V30 6592 H 632.258 3.22571 0.121565 0
M  V30 6593 H 631.31 3.03673 -2.291 0
M  V30 6594 H 632.622 4.1102 -2.82603 0
M  V30 6595 H 631.776 5.92165 -1.32004 0
M  V30 6596 H 630.515 4.82906 -0.682153 0
M  V30 6597 H 629.52 4.62184 -2.97768 0
M  V30 6598 H 630.745 5.7489 -3.61494 0
M  V30 6599 H 628.691 6.39416 -1.4657 0
M  V30 6600 H 628.608 6.8833 -3.12631 0
M  V30 6601 H 629.876 7.50352 -2.11169 0
M  V30 6602 N 634.105 1.10431 1.1244 0
M  V30 6603 C 635.053 0.747974 2.20246 0
M  V30 6604 C 636.047 -0.255848 1.67457 0
M  V30 6605 O 637.253 -0.116221 1.79624 0
M  V30 6606 H 633.628 0.223946 0.71788 0
M  V30 6607 H 635.599 1.6661 2.47556 0
M  V30 6608 C 634.348 0.195957 3.47147 0
M  V30 6609 H 633.671 0.959606 3.88113 0
M  V30 6610 H 635.111 -0.0153154 4.23997 0
M  V30 6611 C 633.57 -1.07132 3.19413 0
M  V30 6612 O 634.1 -2.15284 3.3914 0
M  V30 6613 N 632.306 -0.98994 2.73219 0
M  V30 6614 H 631.853 -0.109736 2.57366 0
M  V30 6615 H 631.811 -1.83856 2.55038 0
M  V30 6616 N 635.583 -1.29855 0.893053 0
M  V30 6617 C 636.994 -1.77946 0.564998 0
M  V30 6618 C 637.345 -1.73339 -0.919134 0
M  V30 6619 O 636.47 -1.3152 -1.71847 0
M  V30 6620 C 637.065 -3.23118 1.01883 0
M  V30 6621 C 635.624 -3.69013 0.742051 0
M  V30 6622 C 634.771 -2.50121 1.19727 0
M  V30 6623 H 637.722 -1.16611 1.07646 0
M  V30 6624 H 637.743 -3.78875 0.351249 0
M  V30 6625 H 637.255 -3.26439 2.09903 0
M  V30 6626 H 635.356 -3.71173 -0.325816 0
M  V30 6627 H 635.469 -4.60117 1.33527 0
M  V30 6628 H 633.833 -2.47128 0.616418 0
M  V30 6629 H 634.616 -2.56174 2.28538 0
M  V30 6630 N 637.061 -0.65484 -1.43351 0
M  V30 6631 C 637.971 0.0363603 -2.34572 0
M  V30 6632 C 638.987 0.810432 -1.53974 0
M  V30 6633 O 640.163 0.757308 -1.86619 0
M  V30 6634 C 637.228 0.989733 -3.32273 0
M  V30 6635 C 636.289 0.212414 -4.28774 0
M  V30 6636 C 635.522 1.12038 -5.21808 0
M  V30 6637 O 635.745 2.35967 -5.19303 0
M  V30 6638 O 634.679 0.59191 -5.98982 0
M  V30 6639 H 638.505 -0.714527 -2.95175 0
M  V30 6640 H 636.09 -0.415029 -1.4352 0
M  V30 6641 H 637.972 1.53759 -3.92347 0
M  V30 6642 H 636.647 1.72082 -2.74171 0
M  V30 6643 H 635.554 -0.379062 -3.72175 0
M  V30 6644 H 636.887 -0.479138 -4.89862 0
M  V30 6645 N 638.539 1.52521 -0.396863 0
M  V30 6646 C 639.764 2.06571 0.185258 0
M  V30 6647 C 640.189 1.26605 1.39115 0
M  V30 6648 O 639.547 0.293055 1.78916 0
M  V30 6649 C 639.595 3.5674 0.526189 0
M  V30 6650 O 638.699 3.7929 1.61903 0
M  V30 6651 H 638.04 0.663712 0.0195474 0
M  V30 6652 H 640.57 1.966 -0.566519 0
M  V30 6653 H 640.58 4.00311 0.788338 0
M  V30 6654 H 639.255 4.14379 -0.355397 0
M  V30 6655 H 637.832 3.47605 1.35 0
M  V30 6656 N 640.017 0.126909 1.57088 0
M  V30 6657 C 641.433 -0.229641 1.57939 0
M  V30 6658 C 641.633 -1.66145 1.1401 0
M  V30 6659 O 640.689 -2.3843 0.831119 0
M  V30 6660 C 642.002 0.0108648 3.00698 0
M  V30 6661 C 643.55 -0.054418 3.12953 0
M  V30 6662 C 644.025 0.158497 4.57726 0
M  V30 6663 N 645.516 0.104735 4.63082 0
M  V30 6664 C 646.251 0.24427 5.72879 0
M  V30 6665 N 645.747 0.440415 6.91399 0
M  V30 6666 N 647.54 0.183286 5.61801 0
M  V30 6667 H 639.691 1.06203 1.83942 0
M  V30 6668 H 641.954 0.418834 0.85046 0
M  V30 6669 H 641.66 1.00102 3.37154 0
M  V30 6670 H 641.534 -0.717512 3.70313 0
M  V30 6671 H 643.921 -1.0351 2.7635 0
M  V30 6672 H 644.002 0.705967 2.45865 0
M  V30 6673 H 643.646 1.13619 4.95028 0
M  V30 6674 H 643.576 -0.62197 5.22914 0
M  V30 6675 H 646.067 -0.0430298 3.77876 0
M  V30 6676 H 646.38 0.537536 7.70928 0
M  V30 6677 H 644.725 0.476488 6.93365 0
M  V30 6678 H 647.916 0.0309561 4.6809 0
M  V30 6679 H 648.089 0.295471 6.47326 0
M  V30 6680 N 641.495 -1.56914 -0.146875 0
M  V30 6681 C 642.744 -1.82546 -0.857898 0
M  V30 6682 C 643.057 -0.708169 -1.8233 0
M  V30 6683 O 644.263 -0.850093 -2.57848 0
M  V30 6684 C 642.719 -3.23548 -1.57623 0
M  V30 6685 C 642.327 -4.43212 -0.653224 0
M  V30 6686 C 644.071 -3.58453 -2.27402 0
M  V30 6687 C 641.978 -5.75237 -1.37318 0
M  V30 6688 H 640.908 -0.680786 -0.32411 0
M  V30 6689 H 643.559 -1.83166 -0.110639 0
M  V30 6690 H 641.941 -3.17315 -2.36912 0
M  V30 6691 H 643.115 -4.60682 0.104452 0
M  V30 6692 H 641.43 -4.16351 -0.0638336 0
M  V30 6693 H 644.027 -4.54349 -2.81907 0
M  V30 6694 H 644.37 -2.84516 -3.03901 0
M  V30 6695 H 644.903 -3.66347 -1.55032 0
M  V30 6696 H 641.642 -6.52269 -0.650041 0
M  V30 6697 H 641.162 -5.61703 -2.10357 0
M  V30 6698 H 642.841 -6.18039 -1.91406 0
M  V30 6699 N 642.974 0.416227 -1.52004 0
M  V30 6700 C 644.22 1.16555 -1.6596 0
M  V30 6701 C 644.553 1.90347 -0.384906 0
M  V30 6702 O 643.828 1.84474 0.616405 0
M  V30 6703 C 644.111 2.1657 -2.87696 0
M  V30 6704 C 643.964 1.46722 -4.25197 0
M  V30 6705 C 645.283 3.17321 -3.04951 0
M  V30 6706 H 642.402 0.422369 -0.603965 0
M  V30 6707 H 645.044 0.452141 -1.84542 0
M  V30 6708 H 643.194 2.77411 -2.71985 0
M  V30 6709 H 644.866 0.89056 -4.52622 0
M  V30 6710 H 643.109 0.769263 -4.26925 0
M  V30 6711 H 643.78 2.19665 -5.0641 0
M  V30 6712 H 646.256 2.66552 -3.19514 0
M  V30 6713 H 645.132 3.84573 -3.91656 0
M  V30 6714 H 645.393 3.84643 -2.17951 0
M  V30 6715 N 644.452 1.42507 0.673017 0
M  V30 6716 C 645.698 1.43284 1.43519 0
M  V30 6717 C 646.031 0.049668 1.94136 0
M  V30 6718 O 645.306 -0.926369 1.71022 0
M  V30 6719 C 645.589 2.45874 2.63093 0
M  V30 6720 C 645.442 3.93388 2.18096 0
M  V30 6721 C 646.761 2.45431 3.6531 0
M  V30 6722 H 643.88 0.521752 0.520522 0
M  V30 6723 H 646.522 1.73932 0.764701 0
M  V30 6724 H 644.672 2.19869 3.20296 0
M  V30 6725 H 646.344 4.30379 1.66046 0
M  V30 6726 H 644.587 4.07169 1.49652 0
M  V30 6727 H 645.258 4.60752 3.03993 0
M  V30 6728 H 647.734 2.68561 3.17827 0
M  V30 6729 H 646.61 3.19189 4.46553 0
M  V30 6730 H 646.871 1.48092 4.16559 0
M  V30 6731 N 645.93 -0.909495 1.28709 0
M  V30 6732 C 647.341 -1.47419 1.14563 0
M  V30 6733 C 647.692 -1.94432 -0.262832 0
M  V30 6734 O 646.817 -1.82842 -1.15748 0
M  V30 6735 C 647.412 -2.67933 2.07358 0
M  V30 6736 C 645.971 -3.20568 1.97264 0
M  V30 6737 C 645.118 -1.93269 1.98852 0
M  V30 6738 H 648.069 -0.721787 1.41336 0
M  V30 6739 H 648.09 -3.43339 1.64007 0
M  V30 6740 H 647.602 -2.33685 3.09859 0
M  V30 6741 H 645.703 -3.59531 0.978157 0
M  V30 6742 H 645.816 -3.85529 2.84436 0
M  V30 6743 H 644.18 -2.10553 1.43317 0
M  V30 6744 H 644.963 -1.61312 3.0304 0
M  V30 6745 N 647.408 -1.11026 -1.11852 0
M  V30 6746 C 648.318 -0.777252 -2.2135 0
M  V30 6747 C 649.334 0.227821 -1.72502 0
M  V30 6748 O 650.51 0.0650587 -2.01295 0
M  V30 6749 C 647.575 -0.220668 -3.45997 0
M  V30 6750 C 646.636 -1.2838 -4.09655 0
M  V30 6751 C 645.869 -0.753678 -5.28352 0
M  V30 6752 O 646.092 0.417779 -5.68868 0
M  V30 6753 O 645.026 -1.51647 -5.82483 0
M  V30 6754 H 648.852 -1.69141 -2.5224 0
M  V30 6755 H 646.437 -0.885836 -1.20305 0
M  V30 6756 H 648.319 0.0855756 -4.21313 0
M  V30 6757 H 646.994 0.666262 -3.16769 0
M  V30 6758 H 645.901 -1.64299 -3.3609 0
M  V30 6759 H 647.234 -2.14396 -4.43052 0
M  V30 6760 N 648.886 1.2938 -0.899927 0
M  V30 6761 C 650.135 1.9483 -0.521937 0
M  V30 6762 C 650.448 1.71725 0.936473 0
M  V30 6763 O 651.654 2.31282 1.42199 0
M  V30 6764 C 650.11 3.48911 -0.88255 0
M  V30 6765 C 649.718 3.80815 -2.35974 0
M  V30 6766 C 651.462 4.20595 -0.57448 0
M  V30 6767 C 649.369 5.28142 -2.66121 0
M  V30 6768 H 648.299 0.729285 -0.191468 0
M  V30 6769 H 650.95 1.47103 -1.09695 0
M  V30 6770 H 649.332 3.95293 -0.236459 0
M  V30 6771 H 650.506 3.45291 -3.05141 0
M  V30 6772 H 648.821 3.22271 -2.63686 0
M  V30 6773 H 651.418 5.29031 -0.776556 0
M  V30 6774 H 651.761 4.13442 0.487005 0
M  V30 6775 H 652.294 3.79945 -1.17842 0
M  V30 6776 H 649.033 5.4036 -3.71068 0
M  V30 6777 H 648.553 5.64913 -2.01578 0
M  V30 6778 H 650.232 5.95738 -2.52399 0
M  V30 6779 N 650.364 0.662433 1.43002 0
M  V30 6780 C 651.311 -0.0235324 2.30788 0
M  V30 6781 C 652.281 -0.805342 1.4527 0
M  V30 6782 O 653.466 -0.78009 1.74124 0
M  V30 6783 C 650.606 -0.977545 3.30965 0
M  V30 6784 C 649.719 -0.190865 4.31578 0
M  V30 6785 C 648.854 -1.13951 5.18834 0
M  V30 6786 C 647.893 -0.343796 6.11134 0
M  V30 6787 N 647.03 -1.2445 6.90982 0
M  V30 6788 H 651.87 0.730921 2.88897 0
M  V30 6789 H 649.407 0.372197 1.42313 0
M  V30 6790 H 651.365 -1.54437 3.87563 0
M  V30 6791 H 649.995 -1.69877 2.74484 0
M  V30 6792 H 649.047 0.492388 3.772 0
M  V30 6793 H 650.359 0.427464 4.96965 0
M  V30 6794 H 649.513 -1.77666 5.80103 0
M  V30 6795 H 648.252 -1.79174 4.53595 0
M  V30 6796 H 647.257 0.30665 5.48944 0
M  V30 6797 H 648.482 0.304161 6.78419 0
M  V30 6798 H 646.428 -1.88336 6.28383 0
M  V30 6799 H 646.345 -0.680959 7.52927 0
M  V30 6800 H 647.613 -1.86952 7.56749 0
M  V30 6801 N 651.842 -1.52309 0.404946 0
M  V30 6802 C 652.772 -2.29805 -0.41376 0
M  V30 6803 C 653.753 -1.3384 -1.0498 0
M  V30 6804 O 654.938 -1.62745 -1.05961 0
M  V30 6805 C 652.068 -3.11639 -1.53292 0
M  V30 6806 C 651.022 -4.15616 -1.02211 0
M  V30 6807 C 650.348 -4.8577 -2.23455 0
M  V30 6808 C 651.648 -5.2224 -0.0790725 0
M  V30 6809 H 653.342 -2.98493 0.232878 0
M  V30 6810 H 650.888 -1.43552 0.113441 0
M  V30 6811 H 652.841 -3.64618 -2.11262 0
M  V30 6812 H 651.565 -2.40712 -2.20738 0
M  V30 6813 H 650.224 -3.63641 -0.46484 0
M  V30 6814 H 649.872 -4.11376 -2.89445 0
M  V30 6815 H 649.572 -5.56058 -1.89929 0
M  V30 6816 H 651.096 -5.4156 -2.82038 0
M  V30 6817 H 652.51 -5.70485 -0.567438 0
M  V30 6818 H 650.907 -5.99867 0.167167 0
M  V30 6819 H 651.977 -4.77078 0.867447 0
M  V30 6820 N 653.32 -0.135238 -1.57019 0
M  V30 6821 C 654.27 0.820408 -2.12728 0
M  V30 6822 C 655.254 1.21735 -1.05211 0
M  V30 6823 O 656.446 1.18574 -1.31413 0
M  V30 6824 C 653.575 2.06414 -2.74314 0
M  V30 6825 C 652.661 1.69083 -3.88937 0
M  V30 6826 N 653.052 1.0251 -4.95303 0
M  V30 6827 C 651.35 1.98434 -3.99425 0
M  V30 6828 C 652.051 0.846749 -5.75504 0
M  V30 6829 N 651.027 1.3769 -5.25873 0
M  V30 6830 H 654.829 0.302426 -2.9234 0
M  V30 6831 H 652.343 0.0667009 -1.62263 0
M  V30 6832 H 654.34 2.75863 -3.12579 0
M  V30 6833 H 653 2.58741 -1.96171 0
M  V30 6834 H 654.011 0.687207 -5.1332 0
M  V30 6835 H 650.688 2.52693 -3.32344 0
M  V30 6836 H 652.078 0.322949 -6.71123 0
M  V30 6837 N 654.798 1.5699 0.138552 0
M  V30 6838 C 656.209 1.73171 0.697754 0
M  V30 6839 C 656.56 0.750952 1.8126 0
M  V30 6840 O 655.685 -0.080549 2.1625 0
M  V30 6841 C 656.28 3.13996 1.27248 0
M  V30 6842 C 654.839 3.3175 1.77816 0
M  V30 6843 C 653.986 2.69084 0.669991 0
M  V30 6844 H 656.937 1.5846 -0.0871979 0
M  V30 6845 H 656.958 3.14463 2.14227 0
M  V30 6846 H 656.47 3.85354 0.460855 0
M  V30 6847 H 654.571 2.65403 2.61519 0
M  V30 6848 H 654.684 4.39768 1.90107 0
M  V30 6849 H 653.048 2.29782 1.09874 0
M  V30 6850 H 653.831 3.43053 -0.130329 0
M  V30 6851 N 656.276 -0.40816 1.52223 0
M  V30 6852 C 657.522 -1.15347 1.67531 0
M  V30 6853 C 657.877 -1.8818 0.400748 0
M  V30 6854 O 657.17 -1.81803 -0.604845 0
M  V30 6855 C 657.364 -2.17422 2.83659 0
M  V30 6856 C 657.193 -1.54611 4.22286 0
M  V30 6857 C 655.963 -1.31841 4.87797 0
M  V30 6858 C 658.161 -1.00648 5.04355 0
M  V30 6859 N 656.143 -0.649338 6.10456 0
M  V30 6860 C 657.514 -0.464384 6.18258 0
M  V30 6861 C 659.569 -0.901041 4.89679 0
M  V30 6862 C 658.272 0.172825 7.19092 0
M  V30 6863 C 660.298 -0.277684 5.90748 0
M  V30 6864 C 659.66 0.253734 7.03943 0
M  V30 6865 H 655.759 -0.408722 0.666686 0
M  V30 6866 H 658.343 -0.445713 1.8953 0
M  V30 6867 H 656.514 -2.85554 2.63274 0
M  V30 6868 H 658.246 -2.84321 2.87999 0
M  V30 6869 H 655.001 -1.58819 4.46176 0
M  V30 6870 H 655.425 -0.3314 6.76188 0
M  V30 6871 H 660.067 -1.29772 4.02392 0
M  V30 6872 H 657.785 0.581564 8.06005 0
M  V30 6873 H 661.371 -0.197605 5.81464 0
M  V30 6874 H 660.251 0.728482 7.80809 0
M  V30 6875 N 657.755 -1.42862 -0.66545 0
M  V30 6876 C 659.001 -1.44043 -1.42757 0
M  V30 6877 C 659.334 -0.0599629 -1.94107 0
M  V30 6878 O 658.609 0.917286 -1.71511 0
M  V30 6879 C 658.892 -2.47266 -2.61786 0
M  V30 6880 C 658.745 -3.94539 -2.16007 0
M  V30 6881 C 660.064 -2.47365 -3.64003 0
M  V30 6882 H 657.183 -0.524506 -0.517748 0
M  V30 6883 H 659.825 -1.74335 -0.755466 0
M  V30 6884 H 657.975 -2.21565 -3.19126 0
M  V30 6885 H 659.647 -4.31254 -1.63762 0
M  V30 6886 H 657.89 -4.07957 -1.47491 0
M  V30 6887 H 658.561 -4.62357 -3.01546 0
M  V30 6888 H 661.037 -2.70243 -3.16399 0
M  V30 6889 H 659.913 -3.21552 -4.44854 0
M  V30 6890 H 660.174 -1.50299 -4.15767 0
M  V30 6891 N 659.233 0.902656 -1.29189 0
M  V30 6892 C 660.461 1.68639 -1.19869 0
M  V30 6893 C 660.876 1.87254 0.241121 0
M  V30 6894 O 660.233 1.40745 1.16177 0
M  V30 6895 C 660.284 3.07251 -1.90471 0
M  V30 6896 O 660.005 2.89488 -3.28829 0
M  V30 6897 C 661.506 4.01653 -1.8759 0
M  V30 6898 H 658.726 0.526802 -0.415596 0
M  V30 6899 H 661.27 1.12901 -1.7051 0
M  V30 6900 H 659.425 3.59774 -1.43672 0
M  V30 6901 H 659.839 3.77296 -3.64346 0
M  V30 6902 H 661.313 4.96339 -2.4156 0
M  V30 6903 H 661.79 4.30881 -0.850756 0
M  V30 6904 H 662.396 3.55061 -2.34119 0
M  V30 6905 N 660.711 1.11618 1.11262 0
M  V30 6906 C 662.127 0.850468 1.35053 0
M  V30 6907 C 662.327 -0.523868 1.94571 0
M  V30 6908 O 661.383 -1.2743 2.17986 0
M  V30 6909 C 662.696 1.96005 2.28041 0
M  V30 6910 C 664.244 1.98993 2.416 0
M  V30 6911 C 664.719 3.0916 3.37911 0
M  V30 6912 N 666.21 3.08547 3.45475 0
M  V30 6913 C 666.945 3.9043 4.19943 0
M  V30 6914 N 666.441 4.8228 4.97371 0
M  V30 6915 N 668.234 3.786 4.15474 0
M  V30 6916 H 660.385 2.00184 0.709932 0
M  V30 6917 H 662.648 0.870635 0.375099 0
M  V30 6918 H 662.354 2.9499 1.91503 0
M  V30 6919 H 662.228 1.85782 3.28275 0
M  V30 6920 H 664.615 1.00633 2.77411 0
M  V30 6921 H 664.696 2.13292 1.4121 0
M  V30 6922 H 664.34 4.07748 3.02827 0
M  V30 6923 H 664.27 2.92102 4.3816 0
M  V30 6924 H 666.761 2.42 2.90249 0
M  V30 6925 H 667.074 5.41289 5.51567 0
M  V30 6926 H 665.419 4.863 4.96525 0
M  V30 6927 H 668.61 3.06185 3.54074 0
M  V30 6928 H 668.783 4.42647 4.73253 0
M  V30 6929 N 662.189 -1.289 0.906776 0
M  V30 6930 C 663.139 -2.25122 0.361109 0
M  V30 6931 C 664.123 -1.52169 -0.52283 0
M  V30 6932 O 665.315 -1.73223 -0.363691 0
M  V30 6933 C 662.444 -3.40915 -0.403982 0
M  V30 6934 C 661.53 -4.21198 0.495279 0
M  V30 6935 N 661.921 -4.79636 1.60572 0
M  V30 6936 C 660.219 -4.45027 0.294372 0
M  V30 6937 C 660.92 -5.39977 2.16332 0
M  V30 6938 N 659.896 -5.23753 1.45546 0
M  V30 6939 H 663.698 -2.67869 1.20927 0
M  V30 6940 H 661.212 -1.43592 0.758632 0
M  V30 6941 H 663.209 -4.08922 -0.811695 0
M  V30 6942 H 661.869 -2.99703 -1.24932 0
M  V30 6943 H 662.88 -4.78209 1.98838 0
M  V30 6944 H 659.557 -4.14348 -0.512021 0
M  V30 6945 H 660.947 -5.96266 3.09704 0
M  V30 6946 N 663.667 -0.670007 -1.42649 0
M  V30 6947 C 664.915 -0.18991 -2.01206 0
M  V30 6948 C 665.236 1.20617 -1.53221 0
M  V30 6949 O 664.506 1.80898 -0.751856 0
M  V30 6950 H 663.086 -0.0672189 -0.743969 0
M  V30 6951 H 665.748 -0.865442 -1.74631 0
M  V30 6952 H 664.844 -0.187481 -3.11536 0
M  V30 6953 N 665.145 1.52092 -0.413018 0
M  V30 6954 C 666.108 2.25706 0.398687 0
M  V30 6955 C 667.108 1.28221 0.970368 0
M  V30 6956 O 668.298 1.52131 0.848635 0
M  V30 6957 C 665.43 3.03029 1.5616 0
M  V30 6958 H 666.623 2.98888 -0.246131 0
M  V30 6959 H 664.176 1.5542 -0.165622 0
M  V30 6960 H 664.911 2.34205 2.24317 0
M  V30 6961 H 664.696 3.74606 1.15812 0
M  V30 6962 H 666.186 3.58857 2.13569 0
M  V30 6963 N 666.623 0.143563 1.56945 0
M  V30 6964 C 667.533 -0.810562 2.20152 0
M  V30 6965 C 668.549 -1.27431 1.1848 0
M  V30 6966 O 669.725 -1.33221 1.51044 0
M  V30 6967 C 666.79 -2.03353 2.80799 0
M  V30 6968 C 665.851 -1.61936 3.97587 0
M  V30 6969 C 665.084 -2.78403 4.55332 0
M  V30 6970 O 665.307 -3.94521 4.11958 0
M  V30 6971 O 664.241 -2.54073 5.45647 0
M  V30 6972 H 668.067 -0.30253 3.02189 0
M  V30 6973 H 665.652 -0.0832925 1.49168 0
M  V30 6974 H 667.534 -2.74932 3.19359 0
M  V30 6975 H 666.209 -2.53116 2.01777 0
M  V30 6976 H 665.116 -0.873904 3.6375 0
M  V30 6977 H 666.449 -1.16892 4.78118 0
M  V30 6978 N 668.101 -1.57061 -0.130224 0
M  V30 6979 C 669.512 -1.73539 -0.68856 0
M  V30 6980 C 669.863 -0.760554 -1.80859 0
M  V30 6981 O 668.988 0.0690796 -2.1629 0
M  V30 6982 C 669.583 -3.14666 -1.25581 0
M  V30 6983 C 668.142 -3.32689 -1.76055 0
M  V30 6984 C 667.289 -2.69436 -0.655712 0
M  V30 6985 H 670.24 -1.58412 0.0956002 0
M  V30 6986 H 670.261 -3.15595 -2.12556 0
M  V30 6987 H 669.773 -3.85593 -0.440412 0
M  V30 6988 H 667.874 -2.66786 -2.60108 0
M  V30 6989 H 667.987 -4.4077 -1.87772 0
M  V30 6990 H 666.351 -2.30362 -1.08654 0
M  V30 6991 H 667.134 -3.42979 0.14852 0
M  V30 6992 N 669.579 0.400081 -1.52437 0
M  V30 6993 C 670.509 1.4947 -1.7939 0
M  V30 6994 C 671.49 1.57383 -0.645329 0
M  V30 6995 O 672.675 1.72511 -0.891826 0
M  V30 6996 C 669.805 2.87201 -1.95276 0
M  V30 6997 C 668.759 2.94134 -3.10917 0
M  V30 6998 C 668.085 4.34207 -3.1204 0
M  V30 6999 C 669.385 2.64791 -4.50203 0
M  V30 7000 H 671.079 1.27165 -2.71052 0
M  V30 7001 H 668.625 0.610312 -1.30427 0
M  V30 7002 H 670.578 3.63772 -2.12715 0
M  V30 7003 H 669.302 3.10819 -1.00294 0
M  V30 7004 H 667.961 2.20009 -2.93243 0
M  V30 7005 H 667.609 4.54848 -2.14761 0
M  V30 7006 H 667.309 4.39768 -3.89715 0
M  V30 7007 H 668.833 5.127 -3.31619 0
M  V30 7008 H 670.247 3.31083 -4.68035 0
M  V30 7009 H 668.644 2.81717 -5.29864 0
M  V30 7010 H 669.714 1.60184 -4.57678 0
M  V30 7011 N 671.057 1.43213 0.657864 0
M  V30 7012 C 672.468 1.39669 1.23893 0
M  V30 7013 C 672.819 0.0984217 1.95953 0
M  V30 7014 O 671.944 -0.8023 2.00978 0
M  V30 7015 C 672.539 2.53004 2.25332 0
M  V30 7016 C 671.098 2.5274 2.78926 0
M  V30 7017 C 670.245 2.30941 1.53497 0
M  V30 7018 H 673.196 1.52181 0.450172 0
M  V30 7019 H 673.217 2.24226 3.07413 0
M  V30 7020 H 672.729 3.4748 1.72856 0
M  V30 7021 H 670.83 1.6213 3.35477 0
M  V30 7022 H 670.943 3.50352 3.26787 0
M  V30 7023 H 669.307 1.7952 1.80678 0
M  V30 7024 H 670.09 3.27496 1.02963 0
M  V30 7025 N 672.536 -0.895792 1.29666 0
M  V30 7026 C 673.761 -1.68528 1.20885 0
M  V30 7027 C 674.186 -1.8673 -0.226595 0
M  V30 7028 O 673.544 -1.39044 -1.16347 0
M  V30 7029 C 673.592 -3.04512 1.93144 0
M  V30 7030 O 672.696 -3.92963 1.25115 0
M  V30 7031 H 672.037 -0.515371 0.418675 0
M  V30 7032 H 674.567 -1.11878 1.71302 0
M  V30 7033 H 674.577 -3.54628 2.0175 0
M  V30 7034 H 673.252 -2.90582 2.97548 0
M  V30 7035 H 671.829 -3.51399 1.24794 0
M  V30 7036 N 674.014 -1.12206 -1.10668 0
M  V30 7037 C 674.924 -0.800686 -2.20513 0
M  V30 7038 C 675.94 0.209512 -1.72734 0
M  V30 7039 O 677.116 0.043705 -2.01353 0
M  V30 7040 C 674.181 -0.257353 -3.45744 0
M  V30 7041 C 673.242 -1.32718 -4.0827 0
M  V30 7042 C 672.475 -0.809674 -5.27522 0
M  V30 7043 O 672.698 0.35742 -5.69279 0
M  V30 7044 O 671.632 -1.57816 -5.80842 0
M  V30 7045 H 675.458 -1.71807 -2.50432 0
M  V30 7046 H 673.043 -0.898546 -1.19359 0
M  V30 7047 H 674.925 0.0408849 -4.2138 0
M  V30 7048 H 673.6 0.632627 -3.17458 0
M  V30 7049 H 672.507 -1.67855 -3.34329 0
M  V30 7050 H 673.84 -2.19083 -4.40753 0
M  V30 7051 N 675.492 1.28418 -0.913599 0
M  V30 7052 C 676.769 1.89977 -0.465619 0
M  V30 7053 C 677.149 1.82813 1.05559 0
M  V30 7054 O 676.497 1.26397 1.90358 0
M  V30 7055 C 676.707 3.34492 -0.995813 0
M  V30 7056 C 678.055 4.11468 -1.04782 0
M  V30 7057 O 679.079 3.43451 -0.944445 0
M  V30 7058 O 677.938 5.33046 -1.20518 0
M  V30 7059 H 675.032 0.813734 -0.147532 0
M  V30 7060 H 677.578 1.36786 -1.00437 0
M  V30 7061 H 676.35 3.33929 -2.03978 0
M  V30 7062 H 675.973 3.95181 -0.437878 0
M  V30 7063 N 676.97 0.677563 1.42291 0
M  V30 7064 C 677.88 0.000962654 2.346 0
M  V30 7065 C 678.896 -0.785833 1.55244 0
M  V30 7066 O 680.072 -0.727523 1.87801 0
M  V30 7067 C 677.137 -0.936746 3.33805 0
M  V30 7068 C 676.198 -0.144173 4.29058 0
M  V30 7069 C 675.431 -1.03722 5.23524 0
M  V30 7070 O 675.654 -2.27675 5.22992 0
M  V30 7071 O 674.588 -0.496542 5.99848 0
M  V30 7072 H 678.414 0.761397 2.94001 0
M  V30 7073 H 675.999 0.43781 1.42841 0
M  V30 7074 H 677.881 -1.47497 3.94744 0
M  V30 7075 H 676.556 -1.67698 2.76874 0
M  V30 7076 H 675.463 0.438224 3.71524 0
M  V30 7077 H 676.796 0.55701 4.89038 0
M  V30 7078 N 678.448 -1.51871 0.421078 0
M  V30 7079 C 679.396 -2.28903 -0.413066 0
M  V30 7080 C 680.39 -1.3408 -1.03532 0
M  V30 7081 O 681.596 -1.5149 -0.972146 0
M  V30 7082 H 677.971 -0.736478 -0.152003 0
M  V30 7083 H 679.942 -2.97285 0.257695 0
M  V30 7084 C 678.691 -3.13156 -1.51091 0
M  V30 7085 H 678.014 -3.85997 -1.04145 0
M  V30 7086 H 679.454 -3.7014 -2.06814 0
M  V30 7087 C 677.913 -2.27482 -2.48503 0
M  V30 7088 O 678.443 -1.92325 -3.52667 0
M  V30 7089 N 676.649 -1.91019 -2.18998 0
M  V30 7090 H 676.196 -2.19808 -1.34322 0
M  V30 7091 H 676.154 -1.3399 -2.84419 0
M  V30 7092 N 679.926 -0.151884 -1.56866 0
M  V30 7093 C 681.166 0.500695 -1.98173 0
M  V30 7094 C 681.53 1.61715 -1.03499 0
M  V30 7095 O 682.731 2.33093 -1.33869 0
M  V30 7096 C 681.002 0.989333 -3.43434 0
M  V30 7097 S 682.561 1.64583 -4.06765 0
M  V30 7098 H 679.379 0.16173 -0.692361 0
M  V30 7099 H 681.981 -0.244754 -1.93962 0
M  V30 7100 H 680.685 0.166072 -4.10064 0
M  V30 7101 H 680.216 1.76929 -3.51368 0
M  V30 7102 H 682.231 2.93326 -4.00218 0
M  V30 7103 N 681.404 1.57128 0.121893 0
M  V30 7104 C 682.632 1.88883 0.844451 0
M  V30 7105 C 683.047 0.742824 1.73573 0
M  V30 7106 O 682.404 -0.286475 1.80238 0
M  V30 7107 C 682.455 3.20076 1.68029 0
M  V30 7108 O 682.176 4.30264 0.824898 0
M  V30 7109 C 683.677 3.65515 2.50826 0
M  V30 7110 H 680.897 0.62549 0.242907 0
M  V30 7111 H 683.441 2.04219 0.107151 0
M  V30 7112 H 681.596 3.06418 2.37038 0
M  V30 7113 H 682.01 5.05439 1.40113 0
M  V30 7114 H 683.484 4.60081 3.05008 0
M  V30 7115 H 683.961 2.92029 3.28048 0
M  V30 7116 H 684.567 3.81952 1.87064 0
M  V30 7117 N 682.882 -0.391992 1.52647 0
M  V30 7118 C 683.812 -1.48517 1.8018 0
M  V30 7119 C 684.793 -1.57039 0.653667 0
M  V30 7120 O 685.978 -1.72036 0.900962 0
M  V30 7121 C 683.108 -2.86161 1.96797 0
M  V30 7122 C 682.062 -2.92481 3.12472 0
M  V30 7123 C 681.388 -4.32546 3.14338 0
M  V30 7124 C 682.688 -2.624 4.51601 0
M  V30 7125 H 684.382 -1.25726 2.71723 0
M  V30 7126 H 681.928 -0.603387 1.30749 0
M  V30 7127 H 683.881 -3.62639 2.14641 0
M  V30 7128 H 682.605 -3.10283 1.01941 0
M  V30 7129 H 681.264 -2.18451 2.94406 0
M  V30 7130 H 680.912 -4.53703 2.1717 0
M  V30 7131 H 680.612 -4.37695 3.92042 0
M  V30 7132 H 682.136 -5.10934 3.34333 0
M  V30 7133 H 683.55 -3.28596 4.69785 0
M  V30 7134 H 681.947 -2.78903 5.3135 0
M  V30 7135 H 683.017 -1.57754 4.58521 0
M  V30 7136 N 684.36 -1.4356 -0.65026 0
M  V30 7137 C 685.606 -1.45549 -1.41221 0
M  V30 7138 C 685.939 -0.0805472 -1.94033 0
M  V30 7139 O 685.214 0.899043 -1.72475 0
M  V30 7140 C 685.497 -2.50028 -2.59148 0
M  V30 7141 C 685.35 -3.96808 -2.1181 0
M  V30 7142 C 686.669 -2.51212 -3.61359 0
M  V30 7143 H 683.788 -0.529967 -0.512156 0
M  V30 7144 H 686.43 -1.75127 -0.736933 0
M  V30 7145 H 684.58 -2.24937 -3.16758 0
M  V30 7146 H 686.252 -4.32966 -1.59178 0
M  V30 7147 H 684.495 -4.09498 -1.43156 0
M  V30 7148 H 685.166 -4.6553 -2.96625 0
M  V30 7149 H 687.642 -2.73583 -3.13515 0
M  V30 7150 H 686.518 -3.26252 -4.41419 0
M  V30 7151 H 686.779 -1.54701 -4.1415 0
M  V30 7152 N 685.838 0.888903 -1.30139 0
M  V30 7153 C 686.748 2.02705 -1.18101 0
M  V30 7154 C 687.764 1.73702 -0.101809 0
M  V30 7155 O 688.94 1.98906 -0.315984 0
M  V30 7156 C 686.005 3.35616 -0.869651 0
M  V30 7157 C 685.066 3.78067 -2.03381 0
M  V30 7158 C 684.299 5.04635 -1.73721 0
M  V30 7159 O 684.522 5.66531 -0.663267 0
M  V30 7160 O 683.456 5.43399 -2.58845 0
M  V30 7161 H 687.282 2.15788 -2.13704 0
M  V30 7162 H 684.867 1.01426 -1.09695 0
M  V30 7163 H 686.749 4.15358 -0.711043 0
M  V30 7164 H 685.424 3.23651 0.0565002 0
M  V30 7165 H 684.331 2.99046 -2.24772 0
M  V30 7166 H 685.664 3.94631 -2.94155 0
M  V30 7167 N 687.317 1.12792 1.10072 0
M  V30 7168 C 688.563 0.886857 1.82381 0
M  V30 7169 C 688.896 -0.58576 1.85155 0
M  V30 7170 O 688.171 -1.43317 1.31493 0
M  V30 7171 C 688.454 1.46703 3.28862 0
M  V30 7172 C 688.307 3.00829 3.34398 0
M  V30 7173 C 689.626 1.12971 4.25353 0
M  V30 7174 H 686.745 0.32362 0.662148 0
M  V30 7175 H 689.387 1.39513 1.28982 0
M  V30 7176 H 687.537 1.03476 3.74466 0
M  V30 7177 H 689.209 3.52764 2.97247 0
M  V30 7178 H 687.452 3.36164 2.74183 0
M  V30 7179 H 688.123 3.36519 4.3756 0
M  V30 7180 H 690.599 1.50313 3.88001 0
M  V30 7181 H 689.475 1.56223 5.26199 0
M  V30 7182 H 689.736 0.0424452 4.4208 0
M  V30 7183 N 688.795 -1.27931 0.920396 0
M  V30 7184 C 690.023 -1.98805 0.573087 0
M  V30 7185 C 690.438 -1.68724 -0.847201 0
M  V30 7186 O 689.795 -0.943699 -1.56207 0
M  V30 7187 C 689.846 -3.52971 0.780633 0
M  V30 7188 O 689.567 -3.81994 2.14504 0
M  V30 7189 C 691.068 -4.411 0.44105 0
M  V30 7190 H 688.288 -0.634651 0.21785 0
M  V30 7191 H 690.832 -1.62965 1.23542 0
M  V30 7192 H 688.987 -3.87048 0.165204 0
M  V30 7193 H 689.401 -4.76609 2.18962 0
M  V30 7194 H 690.875 -5.48312 0.637006 0
M  V30 7195 H 691.352 -4.34758 -0.62306 0
M  V30 7196 H 691.958 -4.12532 1.0343 0
M  V30 7197 N 690.273 -0.685099 -1.4193 0
M  V30 7198 C 691.183 -0.013404 -2.34596 0
M  V30 7199 C 692.199 0.777589 -1.55658 0
M  V30 7200 O 693.375 0.717553 -1.88184 0
M  V30 7201 C 690.44 0.919031 -3.34297 0
M  V30 7202 C 689.501 0.121417 -4.29128 0
M  V30 7203 C 688.734 1.00944 -5.24067 0
M  V30 7204 O 688.957 2.24898 -5.24192 0
M  V30 7205 O 687.891 0.464724 -6.00103 0
M  V30 7206 H 691.717 -0.776978 -2.93593 0
M  V30 7207 H 689.302 -0.445379 -1.42607 0
M  V30 7208 H 691.184 1.45402 -3.9552 0
M  V30 7209 H 689.859 1.66228 -2.77759 0
M  V30 7210 H 688.766 -0.45792 -3.71287 0
M  V30 7211 H 690.099 -0.582937 -4.88736 0
M  V30 7212 N 691.751 1.51645 -0.429126 0
M  V30 7213 C 692.661 2.31288 0.392809 0
M  V30 7214 C 693.677 1.39852 1.03525 0
M  V30 7215 O 694.853 1.72926 1.03241 0
M  V30 7216 C 691.918 3.13347 1.48372 0
M  V30 7217 C 690.979 4.20551 0.862268 0
M  V30 7218 C 690.212 4.98688 1.9012 0
M  V30 7219 O 690.435 4.77359 3.12225 0
M  V30 7220 O 689.369 5.83005 1.4963 0
M  V30 7221 H 693.195 3.02609 -0.257138 0
M  V30 7222 H 690.78 1.48163 -0.191851 0
M  V30 7223 H 692.662 3.64387 2.1166 0
M  V30 7224 H 691.337 2.44799 2.1179 0
M  V30 7225 H 690.244 3.73609 0.191568 0
M  V30 7226 H 691.577 4.91449 0.271704 0
M  V30 7227 N 693.229 0.160201 1.56784 0
M  V30 7228 C 694.139 -0.787167 2.21 0
M  V30 7229 C 695.155 -1.26167 1.19825 0
M  V30 7230 O 696.331 -1.31611 1.52448 0
M  V30 7231 C 693.396 -2.00364 2.8294 0
M  V30 7232 C 692.457 -1.5771 3.99282 0
M  V30 7233 C 691.69 -2.73558 4.58259 0
M  V30 7234 O 691.913 -3.90129 4.16119 0
M  V30 7235 O 690.847 -2.48271 5.48311 0
M  V30 7236 H 694.673 -0.270462 3.02493 0
M  V30 7237 H 692.258 -0.0674666 1.49248 0
M  V30 7238 H 694.14 -2.71529 3.22257 0
M  V30 7239 H 692.815 -2.50961 2.04451 0
M  V30 7240 H 691.722 -0.835274 3.64656 0
M  V30 7241 H 693.055 -1.11815 4.79331 0
M  V30 7242 N 694.707 -1.5719 -0.113559 0
M  V30 7243 C 695.953 -1.85412 -0.821597 0
M  V30 7244 C 696.286 -0.746722 -1.7927 0
M  V30 7245 O 695.561 0.246971 -1.92926 0
M  V30 7246 C 695.844 -3.24233 -1.56669 0
M  V30 7247 C 695.697 -4.45578 -0.614823 0
M  V30 7248 C 697.016 -3.60697 -2.52161 0
M  V30 7249 H 694.135 -0.674406 -0.29723 0
M  V30 7250 H 696.777 -1.89807 -0.085694 0
M  V30 7251 H 694.927 -3.20617 -2.19401 0
M  V30 7252 H 696.599 -4.613 0.00407137 0
M  V30 7253 H 694.842 -4.33738 0.0732332 0
M  V30 7254 H 695.513 -5.39395 -1.17292 0
M  V30 7255 H 697.989 -3.65139 -1.99532 0
M  V30 7256 H 696.865 -4.58798 -3.01323 0
M  V30 7257 H 697.126 -2.88403 -3.35076 0
M  V30 7258 N 696.185 0.383891 -1.52853 0
M  V30 7259 C 697.095 1.49343 -1.80925 0
M  V30 7260 C 698.111 1.59458 -0.696348 0
M  V30 7261 O 699.287 1.75698 -0.984481 0
M  V30 7262 C 696.352 2.84819 -1.97684 0
M  V30 7263 C 695.413 2.84382 -3.21598 0
M  V30 7264 C 694.646 4.13397 -3.37548 0
M  V30 7265 O 694.869 5.08619 -2.58192 0
M  V30 7266 O 693.803 4.20325 -4.30826 0
M  V30 7267 H 697.629 1.2855 -2.75152 0
M  V30 7268 H 695.214 0.572229 -1.38007 0
M  V30 7269 H 697.096 3.65125 -2.10385 0
M  V30 7270 H 695.771 3.05627 -1.06647 0
M  V30 7271 H 694.678 2.0284 -3.14336 0
M  V30 7272 H 696.011 2.68526 -4.12498 0
M  V30 7273 N 697.663 1.43903 0.642637 0
M  V30 7274 C 698.611 1.50164 1.77634 0
M  V30 7275 C 699.605 0.374294 1.65213 0
M  V30 7276 O 700.811 0.548748 1.71431 0
M  V30 7277 H 697.186 0.470974 0.586249 0
M  V30 7278 H 699.157 2.45603 1.69474 0
M  V30 7279 C 697.906 1.45196 3.15933 0
M  V30 7280 H 697.229 2.31253 3.26132 0
M  V30 7281 H 698.669 1.53638 3.95185 0
M  V30 7282 C 697.128 0.171043 3.36466 0
M  V30 7283 O 697.658 -0.763413 3.94379 0
M  V30 7284 N 695.864 0.077847 2.90496 0
M  V30 7285 H 695.411 0.8391 2.43551 0
M  V30 7286 H 695.369 -0.778473 3.0461 0
M  V30 7287 N 699.141 -0.881989 1.30609 0
M  V30 7288 C 700.366 -1.67236 1.22665 0
M  V30 7289 C 700.791 -1.8696 -0.206777 0
M  V30 7290 O 700.149 -1.4027 -1.14865 0
M  V30 7291 C 700.197 -3.02446 1.96363 0
M  V30 7292 O 699.301 -3.91614 1.29276 0
M  V30 7293 H 698.642 -0.510902 0.424117 0
M  V30 7294 H 701.172 -1.10055 1.72479 0
M  V30 7295 H 701.182 -3.52468 2.055 0
M  V30 7296 H 699.857 -2.8741 3.00613 0
M  V30 7297 H 698.434 -3.50055 1.28514 0
M  V30 7298 N 700.619 -1.13374 -1.09472 0
M  V30 7299 C 701.865 -0.896516 -1.81908 0
M  V30 7300 C 702.198 0.575933 -1.85463 0
M  V30 7301 O 701.473 1.42618 -1.32251 0
M  V30 7302 C 701.756 -1.48445 -3.28079 0
M  V30 7303 C 701.609 -3.02598 -3.32798 0
M  V30 7304 C 702.928 -1.15226 -4.24748 0
M  V30 7305 H 700.047 -0.327127 -0.660422 0
M  V30 7306 H 702.689 -1.40195 -1.2824 0
M  V30 7307 H 700.839 -1.0546 -3.73912 0
M  V30 7308 H 702.511 -3.54335 -2.95372 0
M  V30 7309 H 700.754 -3.37613 -2.72397 0
M  V30 7310 H 701.425 -3.38835 -4.3577 0
M  V30 7311 H 703.901 -1.52369 -3.87199 0
M  V30 7312 H 702.777 -1.59012 -5.25363 0
M  V30 7313 H 703.038 -0.0658891 -4.42051 0
M  V30 7314 N 702.098 1.27442 -0.927168 0
M  V30 7315 C 703.045 2.26863 -0.424459 0
M  V30 7316 C 704.015 1.5813 0.508346 0
M  V30 7317 O 705.2 1.85946 0.42762 0
M  V30 7318 C 702.34 3.43639 0.31718 0
M  V30 7319 C 701.453 4.27087 -0.649675 0
M  V30 7320 C 700.588 5.31082 0.111753 0
M  V30 7321 C 699.627 6.062 -0.847843 0
M  V30 7322 N 698.764 7.01999 -0.119074 0
M  V30 7323 H 703.604 2.69239 -1.27728 0
M  V30 7324 H 701.141 1.32394 -0.641106 0
M  V30 7325 H 703.099 4.10155 0.763486 0
M  V30 7326 H 701.729 3.02217 1.13424 0
M  V30 7327 H 700.781 3.60491 -1.21451 0
M  V30 7328 H 702.093 4.79242 -1.38307 0
M  V30 7329 H 701.247 6.03544 0.618 0
M  V30 7330 H 699.986 4.7973 0.878114 0
M  V30 7331 H 698.991 5.32577 -1.36534 0
M  V30 7332 H 700.216 6.59642 -1.61398 0
M  V30 7333 H 698.162 6.52977 0.629051 0
M  V30 7334 H 698.079 7.5184 -0.792046 0
M  V30 7335 H 699.347 7.78638 0.366537 0
M  V30 7336 N 703.576 0.692616 1.41565 0
M  V30 7337 C 704.526 0.00231847 2.28 0
M  V30 7338 C 705.51 -0.755793 1.42044 0
M  V30 7339 O 706.702 -0.631772 1.65341 0
M  V30 7340 C 703.831 -0.935468 3.30309 0
M  V30 7341 C 702.917 -0.173761 4.23744 0
M  V30 7342 N 703.308 0.830872 4.98929 0
M  V30 7343 C 701.606 -0.409666 4.44115 0
M  V30 7344 C 702.307 1.28656 5.67294 0
M  V30 7345 N 701.283 0.613053 5.40132 0
M  V30 7346 H 705.085 0.772635 2.83562 0
M  V30 7347 H 702.599 0.523198 1.53741 0
M  V30 7348 H 704.596 -1.44513 3.91052 0
M  V30 7349 H 703.256 -1.70542 2.76307 0
M  V30 7350 H 704.267 1.21101 5.03542 0
M  V30 7351 H 700.944 -1.15773 4.01127 0
M  V30 7352 H 702.334 2.12006 6.37576 0
M  V30 7353 N 705.054 -1.51416 0.437162 0
M  V30 7354 C 706.303 -2.01275 -0.130865 0
M  V30 7355 C 706.616 -1.32593 -1.438 0
M  V30 7356 O 707.822 -1.7342 -2.08897 0
M  V30 7357 C 706.278 -3.5878 -0.283763 0
M  V30 7358 C 705.886 -4.36399 1.01293 0
M  V30 7359 C 707.63 -4.16786 -0.805569 0
M  V30 7360 C 705.537 -5.85608 0.825687 0
M  V30 7361 H 704.467 -0.752157 -0.0526818 0
M  V30 7362 H 707.118 -1.74524 0.566896 0
M  V30 7363 H 705.5 -3.81976 -1.04452 0
M  V30 7364 H 706.674 -4.24948 1.78201 0
M  V30 7365 H 704.989 -3.89843 1.46326 0
M  V30 7366 H 707.586 -5.25972 -0.962146 0
M  V30 7367 H 707.929 -3.75949 -1.78796 0
M  V30 7368 H 708.462 -3.97666 -0.103125 0
M  V30 7369 H 705.201 -6.30857 1.78045 0
M  V30 7370 H 704.721 -5.99723 0.0964029 0
M  V30 7371 H 706.4 -6.45226 0.478815 0
M  V30 7372 N 706.532 -0.168513 -1.56696 0
M  V30 7373 C 707.943 0.348694 -1.83415 0
M  V30 7374 C 708.294 1.63257 -1.0882 0
M  V30 7375 O 707.419 2.13707 -0.340333 0
M  V30 7376 C 708.014 0.639423 -3.32711 0
M  V30 7377 C 706.573 1.10108 -3.59935 0
M  V30 7378 C 705.72 0.135464 -2.76969 0
M  V30 7379 H 708.671 -0.392829 -1.53761 0
M  V30 7380 H 708.692 1.49179 -3.50037 0
M  V30 7381 H 708.204 -0.295173 -3.86976 0
M  V30 7382 H 706.305 2.05088 -3.11079 0
M  V30 7383 H 706.418 1.01218 -4.68286 0
M  V30 7384 H 704.782 0.632286 -2.46727 0
M  V30 7385 H 705.565 -0.793104 -3.34013 0
M  V30 7386 N 708.01 1.57248 0.105221 0
M  V30 7387 C 709.235 1.90143 0.828264 0
M  V30 7388 C 709.66 0.761811 1.71983 0
M  V30 7389 O 709.018 -0.287086 1.79013 0
M  V30 7390 C 709.066 3.21856 1.62608 0
M  V30 7391 O 708.17 3.08732 2.7342 0
M  V30 7392 H 707.511 0.623558 0.228192 0
M  V30 7393 H 710.041 2.0443 0.0834826 0
M  V30 7394 H 710.051 3.54916 2.01243 0
M  V30 7395 H 708.726 4.0439 0.971687 0
M  V30 7396 H 707.303 2.87167 2.37886 0
M  V30 7397 N 709.488 -0.375779 1.53054 0
M  V30 7398 C 710.418 -1.46598 1.81745 0
M  V30 7399 C 711.399 -1.56337 0.670286 0
M  V30 7400 O 712.584 -1.71071 0.919158 0
M  V30 7401 C 709.714 -2.84058 1.99821 0
M  V30 7402 C 708.668 -2.8915 3.15557 0
M  V30 7403 C 707.994 -4.29187 3.18908 0
M  V30 7404 C 709.294 -2.57595 4.54359 0
M  V30 7405 H 710.988 -1.22837 2.73041 0
M  V30 7406 H 708.534 -0.589485 1.31381 0
M  V30 7407 H 710.487 -3.60342 2.18475 0
M  V30 7408 H 709.211 -3.09184 1.05226 0
M  V30 7409 H 707.87 -2.15316 2.96706 0
M  V30 7410 H 707.518 -4.51374 2.2197 0
M  V30 7411 H 707.218 -4.33512 3.96662 0
M  V30 7412 H 708.742 -5.07359 3.39734 0
M  V30 7413 H 710.156 -3.23595 4.73243 0
M  V30 7414 H 708.553 -2.73252 5.34279 0
M  V30 7415 H 709.623 -1.52882 4.60169 0
M  V30 7416 N 710.966 -1.44241 -0.634997 0
M  V30 7417 C 711.929 -1.50457 -1.72903 0
M  V30 7418 C 712.929 -0.387058 -1.56072 0
M  V30 7419 O 714.119 -0.649531 -1.61638 0
M  V30 7420 C 711.251 -1.37477 -3.1195 0
M  V30 7421 H 712.444 -2.47907 -1.68767 0
M  V30 7422 H 709.997 -1.31276 -0.84831 0
M  V30 7423 H 710.732 -0.41106 -3.21684 0
M  V30 7424 H 710.517 -2.18506 -3.25573 0
M  V30 7425 H 712.007 -1.44799 -3.91692 0
M  V30 7426 N 712.444 0.87505 -1.31075 0
M  V30 7427 C 713.672 1.66058 -1.23419 0
M  V30 7428 C 714.087 1.87723 0.201347 0
M  V30 7429 O 713.444 1.43178 1.13165 0
M  V30 7430 C 713.495 3.03142 -1.96945 0
M  V30 7431 O 713.216 2.82448 -3.34895 0
M  V30 7432 C 714.717 3.97583 -1.96067 0
M  V30 7433 H 711.937 0.517868 -0.426677 0
M  V30 7434 H 714.481 1.09258 -1.72867 0
M  V30 7435 H 712.636 3.56645 -1.51271 0
M  V30 7436 H 713.05 3.69483 -3.72267 0
M  V30 7437 H 714.524 4.91104 -2.52034 0
M  V30 7438 H 715.001 4.2898 -0.941961 0
M  V30 7439 H 715.607 3.50015 -2.41597 0
M  V30 7440 N 713.922 1.13953 1.08869 0
M  V30 7441 C 715.168 0.906151 1.8143 0
M  V30 7442 C 715.501 -0.566089 1.85766 0
M  V30 7443 O 714.776 -1.41915 1.33006 0
M  V30 7444 C 715.059 1.50183 3.27287 0
M  V30 7445 C 714.912 3.04359 3.31189 0
M  V30 7446 C 716.231 1.17477 4.24131 0
M  V30 7447 H 713.35 0.330624 0.658678 0
M  V30 7448 H 715.992 1.40873 1.27495 0
M  V30 7449 H 714.142 1.07442 3.73348 0
M  V30 7450 H 715.814 3.55896 2.93488 0
M  V30 7451 H 714.057 3.39053 2.70602 0
M  V30 7452 H 714.728 3.41141 4.33966 0
M  V30 7453 H 717.204 1.5442 3.86385 0
M  V30 7454 H 716.08 1.61795 5.24513 0
M  V30 7455 H 716.341 0.0893312 4.4201 0
M  V30 7456 N 715.4 -1.26948 0.933913 0
M  V30 7457 C 716.649 -1.93378 0.573409 0
M  V30 7458 C 716.962 -1.74148 -0.890614 0
M  V30 7459 O 718.168 -2.34971 -1.36017 0
M  V30 7460 C 716.624 -3.46449 0.974747 0
M  V30 7461 C 716.232 -3.74425 2.45988 0
M  V30 7462 C 717.976 -4.18924 0.685791 0
M  V30 7463 C 715.883 -5.209 2.8003 0
M  V30 7464 H 714.813 -0.723952 0.210736 0
M  V30 7465 H 717.464 -1.44143 1.13557 0
M  V30 7466 H 715.846 -3.94528 0.341181 0
M  V30 7467 H 717.02 -3.37079 3.14188 0
M  V30 7468 H 715.335 -3.15167 2.72138 0
M  V30 7469 H 717.932 -5.26786 0.916546 0
M  V30 7470 H 718.275 -4.14587 -0.377217 0
M  V30 7471 H 718.808 -3.76687 1.27874 0
M  V30 7472 H 715.547 -5.30332 3.85264 0
M  V30 7473 H 715.067 -5.59369 2.16485 0
M  V30 7474 H 716.746 -5.88837 2.68105 0
M  V30 7475 N 716.879 -0.700114 -1.41195 0
M  V30 7476 C 717.809 -0.0521132 -2.33442 0
M  V30 7477 C 718.79 0.76228 -1.52063 0
M  V30 7478 O 719.975 0.714336 -1.80585 0
M  V30 7479 C 717.105 0.881693 -3.35922 0
M  V30 7480 C 716.059 0.174062 -4.27646 0
M  V30 7481 C 715.385 1.22254 -5.20536 0
M  V30 7482 C 716.685 -0.962396 -5.13357 0
M  V30 7483 H 718.379 -0.822574 -2.87879 0
M  V30 7484 H 715.925 -0.397011 -1.38419 0
M  V30 7485 H 717.878 1.34429 -3.99383 0
M  V30 7486 H 716.602 1.68387 -2.79845 0
M  V30 7487 H 715.261 -0.268551 -3.65615 0
M  V30 7488 H 714.909 2.01736 -4.60773 0
M  V30 7489 H 714.609 0.754038 -5.82742 0
M  V30 7490 H 716.133 1.68555 -5.86874 0
M  V30 7491 H 717.547 -0.579875 -5.7036 0
M  V30 7492 H 715.944 -1.35828 -5.84526 0
M  V30 7493 H 717.014 -1.80003 -4.50252 0
M  V30 7494 N 718.357 1.51182 -0.445186 0
M  V30 7495 C 719.603 2.02452 0.11882 0
M  V30 7496 C 719.936 1.32824 1.41673 0
M  V30 7497 O 719.211 0.445637 1.89326 0
M  V30 7498 C 719.494 3.5859 0.329475 0
M  V30 7499 C 719.347 4.38823 -0.987638 0
M  V30 7500 C 720.666 4.26241 1.09575 0
M  V30 7501 H 717.785 0.735819 0.0417092 0
M  V30 7502 H 720.427 1.80747 -0.585718 0
M  V30 7503 H 718.577 3.77214 0.9296 0
M  V30 7504 H 720.249 4.3183 -1.62235 0
M  V30 7505 H 718.492 4.03594 -1.59041 0
M  V30 7506 H 719.163 5.46257 -0.794192 0
M  V30 7507 H 721.639 4.11934 0.587328 0
M  V30 7508 H 720.515 5.35354 1.21191 0
M  V30 7509 H 720.776 3.87635 2.12584 0
M  V30 7510 N 719.835 0.176821 1.56605 0
M  V30 7511 C 720.782 -0.751312 2.18229 0
M  V30 7512 C 721.752 -1.22297 1.12395 0
M  V30 7513 O 722.937 -1.29015 1.40569 0
M  V30 7514 C 720.077 -1.97291 2.83143 0
M  V30 7515 C 719.19 -1.54431 4.03454 0
M  V30 7516 C 718.325 -2.72 4.56278 0
M  V30 7517 C 717.364 -2.25657 5.68986 0
M  V30 7518 N 716.501 -3.36338 6.16296 0
M  V30 7519 H 721.341 -0.219033 2.97194 0
M  V30 7520 H 718.878 -0.0963803 1.46784 0
M  V30 7521 H 720.836 -2.68949 3.1894 0
M  V30 7522 H 719.466 -2.4788 2.06773 0
M  V30 7523 H 718.518 -0.724273 3.73441 0
M  V30 7524 H 719.83 -1.16417 4.85024 0
M  V30 7525 H 718.984 -3.51806 4.94285 0
M  V30 7526 H 717.723 -3.13277 3.73777 0
M  V30 7527 H 716.728 -1.44299 5.30526 0
M  V30 7528 H 717.953 -1.85432 6.53293 0
M  V30 7529 H 715.899 -3.7718 5.36723 0
M  V30 7530 H 715.816 -3.02435 6.9287 0
M  V30 7531 H 717.084 -4.16413 6.58954 0
M  V30 7532 N 721.313 -1.57302 -0.09688 0
M  V30 7533 C 722.541 -1.90202 -0.814295 0
M  V30 7534 C 722.956 -0.770344 -1.72369 0
M  V30 7535 O 722.313 0.257764 -1.8067 0
M  V30 7536 C 722.364 -3.22708 -1.62916 0
M  V30 7537 O 722.085 -4.31522 -0.756343 0
M  V30 7538 C 723.586 -3.69459 -2.44979 0
M  V30 7539 H 720.806 -0.629275 -0.232925 0
M  V30 7540 H 723.35 -2.04364 -0.0746482 0
M  V30 7541 H 721.505 -3.1015 -2.32133 0
M  V30 7542 H 721.919 -5.07604 -1.32054 0
M  V30 7543 H 723.393 -4.64875 -2.9765 0
M  V30 7544 H 723.87 -2.97211 -3.23361 0
M  V30 7545 H 724.476 -3.84879 -1.80964 0
M  V30 7546 N 722.791 0.367657 -1.53252 0
M  V30 7547 C 723.724 1.47264 -1.74323 0
M  V30 7548 C 724.702 1.51458 -0.591535 0
M  V30 7549 O 725.886 1.69542 -0.823883 0
M  V30 7550 C 723.013 2.85637 -1.82015 0
M  V30 7551 C 722.059 2.99176 -3.03967 0
M  V30 7552 S 722.892 2.68147 -4.63527 0
M  V30 7553 C 724.048 4.08673 -4.74065 0
M  V30 7554 H 724.281 1.29169 -2.67773 0
M  V30 7555 H 721.814 0.561866 -1.43814 0
M  V30 7556 H 723.772 3.65365 -1.87132 0
M  V30 7557 H 722.433 3.01043 -0.896195 0
M  V30 7558 H 721.626 4.00511 -3.05953 0
M  V30 7559 H 721.228 2.27367 -2.96952 0
M  V30 7560 H 723.52 5.02889 -4.53992 0
M  V30 7561 H 724.463 4.11693 -5.7612 0
M  V30 7562 H 724.871 3.95576 -4.02716 0
M  V30 7563 N 724.269 1.44576 0.627338 0
M  V30 7564 C 725.518 1.46837 1.38281 0
M  V30 7565 C 725.831 0.10635 1.95311 0
M  V30 7566 O 727.037 0.00651084 2.71499 0
M  V30 7567 C 725.493 2.58527 2.50384 0
M  V30 7568 C 725.101 4.00953 1.99851 0
M  V30 7569 C 726.845 2.70013 3.27557 0
M  V30 7570 C 724.752 5.0406 3.09318 0
M  V30 7571 H 723.682 0.546319 0.519664 0
M  V30 7572 H 726.333 1.70654 0.674497 0
M  V30 7573 H 724.715 2.27957 3.23808 0
M  V30 7574 H 725.889 4.41108 1.33267 0
M  V30 7575 H 724.204 3.93743 1.35482 0
M  V30 7576 H 726.801 3.44217 4.09168 0
M  V30 7577 H 727.144 1.75961 3.77284 0
M  V30 7578 H 727.677 3.00011 2.61224 0
M  V30 7579 H 724.416 5.99753 2.6453 0
M  V30 7580 H 723.936 4.68493 3.74532 0
M  V30 7581 H 725.615 5.2793 3.74031 0
M  V30 7582 N 725.747 -0.868086 1.31537 0
M  V30 7583 C 727.163 -1.15414 1.10235 0
M  V30 7584 C 727.363 -2.01106 -0.125947 0
M  V30 7585 O 726.419 -2.38994 -0.814734 0
M  V30 7586 C 727.732 -1.84445 2.37488 0
M  V30 7587 C 729.28 -1.97139 2.43116 0
M  V30 7588 C 729.755 -2.69585 3.70254 0
M  V30 7589 N 731.246 -2.77119 3.71159 0
M  V30 7590 C 731.981 -3.33791 4.6623 0
M  V30 7591 N 731.477 -3.9138 5.71659 0
M  V30 7592 N 733.27 -3.31767 4.53747 0
M  V30 7593 H 725.421 -0.297109 2.10312 0
M  V30 7594 H 727.684 -0.194227 0.92789 0
M  V30 7595 H 727.39 -1.2893 3.27215 0
M  V30 7596 H 727.264 -2.84709 2.47428 0
M  V30 7597 H 729.651 -2.51818 1.53856 0
M  V30 7598 H 729.732 -0.95912 2.37138 0
M  V30 7599 H 729.376 -2.15572 4.59881 0
M  V30 7600 H 729.306 -3.71223 3.73499 0
M  V30 7601 H 731.797 -2.3625 2.94948 0
M  V30 7602 H 732.11 -4.3274 6.40278 0
M  V30 7603 H 730.455 -3.8975 5.7543 0
M  V30 7604 H 733.646 -2.86016 3.70557 0
M  V30 7605 H 733.819 -3.75636 5.28017 0
M  V30 7606 N 727.225 -1.14528 -1.08264 0
M  V30 7607 C 728.172 -0.833556 -2.15222 0
M  V30 7608 C 729.142 0.209539 -1.64773 0
M  V30 7609 O 730.327 0.0791388 -1.90636 0
M  V30 7610 C 727.467 -0.318799 -3.43624 0
M  V30 7611 C 726.58 -1.42237 -4.07913 0
M  V30 7612 C 725.715 -0.864704 -5.24115 0
M  V30 7613 C 724.754 -1.94585 -5.80347 0
M  V30 7614 N 723.891 -1.40525 -6.87893 0
M  V30 7615 H 728.731 -1.74965 -2.41228 0
M  V30 7616 H 726.268 -0.873169 -1.18381 0
M  V30 7617 H 728.226 -0.00213088 -4.172 0
M  V30 7618 H 726.856 0.560397 -3.17898 0
M  V30 7619 H 725.908 -1.8554 -3.32083 0
M  V30 7620 H 727.22 -2.23901 -4.45724 0
M  V30 7621 H 726.374 -0.500025 -6.04636 0
M  V30 7622 H 725.113 -0.0171219 -4.87697 0
M  V30 7623 H 724.118 -2.31946 -4.98479 0
M  V30 7624 H 725.343 -2.79704 -6.18823 0
M  V30 7625 H 723.289 -0.579873 -6.53432 0
M  V30 7626 H 723.206 -2.15825 -7.24538 0
M  V30 7627 H 724.474 -1.06852 -7.72142 0
M  V30 7628 N 728.703 1.26451 -0.940633 0
M  V30 7629 C 730.119 1.4608 -0.642859 0
M  V30 7630 C 730.319 1.84765 0.803998 0
M  V30 7631 O 729.375 1.96902 1.58069 0
M  V30 7632 C 730.688 2.54359 -1.60381 0
M  V30 7633 C 732.236 2.6821 -1.61345 0
M  V30 7634 C 732.711 3.79659 -2.56169 0
M  V30 7635 N 734.202 3.87051 -2.54452 0
M  V30 7636 C 734.937 4.72739 -3.24507 0
M  V30 7637 N 734.433 5.6282 -4.03987 0
M  V30 7638 N 736.226 4.66581 -3.13462 0
M  V30 7639 H 728.377 0.996289 -1.87584 0
M  V30 7640 H 730.64 0.498921 -0.80609 0
M  V30 7641 H 730.346 2.32758 -2.6366 0
M  V30 7642 H 730.22 3.52005 -1.35545 0
M  V30 7643 H 732.607 2.89184 -0.587913 0
M  V30 7644 H 732.688 1.7101 -1.90235 0
M  V30 7645 H 732.332 3.59438 -3.58841 0
M  V30 7646 H 732.262 4.76315 -2.2457 0
M  V30 7647 H 734.753 3.22649 -1.96739 0
M  V30 7648 H 735.066 6.25095 -4.54396 0
M  V30 7649 H 733.411 5.62574 -4.08088 0
M  V30 7650 H 736.602 3.9521 -2.50852 0
M  V30 7651 H 736.775 5.33141 -3.68327 0
M  V30 7652 N 730.181 0.707592 1.40822 0
M  V30 7653 C 731.406 0.251626 2.05868 0
M  V30 7654 C 731.831 -1.09503 1.5294 0
M  V30 7655 O 731.189 -1.68806 0.661385 0
M  V30 7656 C 731.237 0.23287 3.59847 0
M  V30 7657 O 730.341 -0.788477 4.04792 0
M  V30 7658 H 729.682 0.119936 0.653078 0
M  V30 7659 H 732.212 0.96583 1.80369 0
M  V30 7660 H 732.222 0.0678204 4.07944 0
M  V30 7661 H 730.897 1.21565 3.97737 0
M  V30 7662 H 729.474 -0.591802 3.68174 0
M  V30 7663 N 731.66 -1.50943 0.453197 0
M  V30 7664 C 732.907 -2.02212 -0.107922 0
M  V30 7665 C 733.235 -1.33639 -1.41318 0
M  V30 7666 O 732.49 -0.445154 -1.9057 0
M  V30 7667 C 732.789 -3.55603 -0.357944 0
M  V30 7668 C 732.455 -4.42556 0.863427 0
M  V30 7669 C 731.117 -4.6604 1.19834 0
M  V30 7670 C 733.469 -4.93468 1.67747 0
M  V30 7671 C 730.797 -5.37681 2.34768 0
M  V30 7672 C 733.149 -5.6637 2.81793 0
M  V30 7673 C 731.813 -5.88113 3.1572 0
M  V30 7674 H 731.083 -0.739947 -0.0394916 0
M  V30 7675 H 733.73 -1.81738 0.60363 0
M  V30 7676 H 732.035 -3.74495 -1.15156 0
M  V30 7677 H 733.732 -3.92821 -0.805781 0
M  V30 7678 H 730.322 -4.24485 0.592478 0
M  V30 7679 H 734.506 -4.75194 1.43192 0
M  V30 7680 H 729.762 -5.52727 2.61348 0
M  V30 7681 H 733.936 -6.04806 3.45229 0
M  V30 7682 H 731.563 -6.43404 4.04889 0
M  V30 7683 N 733.138 -0.185124 -1.56509 0
M  V30 7684 C 734.386 0.455357 -1.96903 0
M  V30 7685 C 734.707 1.62839 -1.07277 0
M  V30 7686 O 733.977 1.95385 -0.141966 0
M  V30 7687 H 732.557 0.171218 -0.727113 0
M  V30 7688 H 735.219 -0.26953 -1.93027 0
M  V30 7689 H 734.315 0.80616 -3.01509 0
M  V30 7690 N 734.616 1.57351 0.0885366 0
M  V30 7691 C 735.564 2.03542 1.12576 0
M  V30 7692 C 736.558 0.937668 1.41082 0
M  V30 7693 O 737.764 1.12283 1.40686 0
M  V30 7694 H 734.139 0.648752 0.380296 0
M  V30 7695 H 736.11 2.89833 0.709906 0
M  V30 7696 C 734.859 2.4811 2.43591 0
M  V30 7697 H 734.182 3.32164 2.22502 0
M  V30 7698 H 735.622 2.842 3.14653 0
M  V30 7699 C 734.081 1.35708 3.08359 0
M  V30 7700 O 734.611 0.689852 3.95732 0
M  V30 7701 N 732.817 1.10641 2.68713 0
M  V30 7702 H 732.364 1.6508 1.97753 0
M  V30 7703 H 732.322 0.356355 3.12374 0
M  V30 7704 N 736.094 -0.359525 1.53444 0
M  V30 7705 C 737.505 -0.936009 1.61542 0
M  V30 7706 C 737.856 -1.90069 0.486633 0
M  V30 7707 O 736.981 -2.12929 -0.386047 0
M  V30 7708 C 737.576 -1.70441 2.92806 0
M  V30 7709 C 736.135 -2.23015 3.03218 0
M  V30 7710 C 735.282 -1.04438 2.56881 0
M  V30 7711 H 738.233 -0.138134 1.58098 0
M  V30 7712 H 738.254 -2.56609 2.80948 0
M  V30 7713 H 737.766 -1.00205 3.74941 0
M  V30 7714 H 735.867 -2.96475 2.25684 0
M  V30 7715 H 735.98 -2.50481 4.08407 0
M  V30 7716 H 734.344 -1.41314 2.11902 0
M  V30 7717 H 735.127 -0.356905 3.4144 0
M  V30 7718 N 737.572 -1.44907 -0.619662 0
M  V30 7719 C 738.819 -1.48292 -1.37898 0
M  V30 7720 C 739.147 -0.119933 -1.9413 0
M  V30 7721 O 738.402 0.879834 -1.74807 0
M  V30 7722 C 738.701 -2.50002 -2.55409 0
M  V30 7723 C 738.367 -3.95031 -2.17397 0
M  V30 7724 C 737.029 -4.34524 -2.06743 0
M  V30 7725 C 739.381 -4.86287 -1.87548 0
M  V30 7726 C 736.709 -5.63183 -1.64445 0
M  V30 7727 C 739.061 -6.15346 -1.4674 0
M  V30 7728 C 737.725 -6.53781 -1.34636 0
M  V30 7729 H 736.995 -0.542638 -0.504603 0
M  V30 7730 H 739.642 -1.78186 -0.701581 0
M  V30 7731 H 737.947 -2.13634 -3.28433 0
M  V30 7732 H 739.644 -2.49864 -3.13639 0
M  V30 7733 H 736.234 -3.63793 -2.26611 0
M  V30 7734 H 740.418 -4.56522 -1.94682 0
M  V30 7735 H 735.674 -5.91769 -1.53687 0
M  V30 7736 H 739.848 -6.85508 -1.22685 0
M  V30 7737 H 737.475 -7.53375 -1.01634 0
M  V30 7738 N 739.05 0.861098 -1.31996 0
M  V30 7739 C 739.96 2.00154 -1.22374 0
M  V30 7740 C 740.976 1.73447 -0.138631 0
M  V30 7741 O 742.152 1.98191 -0.358104 0
M  V30 7742 C 739.217 3.33696 -0.940645 0
M  V30 7743 C 738.278 3.73668 -2.11355 0
M  V30 7744 C 737.511 5.00837 -1.84386 0
M  V30 7745 O 737.734 5.64996 -0.783287 0
M  V30 7746 O 736.668 5.37787 -2.70313 0
M  V30 7747 H 740.494 2.11207 -2.18233 0
M  V30 7748 H 738.079 0.990768 -1.11822 0
M  V30 7749 H 739.961 4.13756 -0.798987 0
M  V30 7750 H 738.636 3.23698 -0.0121636 0
M  V30 7751 H 737.543 2.94211 -2.31065 0
M  V30 7752 H 738.876 3.88303 -3.02459 0
M  V30 7753 N 740.528 1.15101 1.07655 0
M  V30 7754 C 741.776 0.922149 1.79836 0
M  V30 7755 C 742.097 -0.552346 1.87014 0
M  V30 7756 O 741.367 -1.40145 1.3688 0
M  V30 7757 H 739.947 0.338182 0.666064 0
M  V30 7758 H 742.609 1.45107 1.30115 0
M  V30 7759 H 741.705 1.32883 2.82398 0
M  V30 7760 N 742.006 -1.2595 0.947325 0
M  V30 7761 C 743.231 -1.98083 0.614633 0
M  V30 7762 C 743.656 -1.70013 -0.804815 0
M  V30 7763 O 743.014 -0.95175 -1.54309 0
M  V30 7764 C 743.062 -3.4993 0.870706 0
M  V30 7765 O 742.166 -4.12364 -0.0541451 0
M  V30 7766 H 741.507 -0.621232 0.234451 0
M  V30 7767 H 744.037 -1.60259 1.27193 0
M  V30 7768 H 744.047 -4.00198 0.794051 0
M  V30 7769 H 742.722 -3.69691 1.90529 0
M  V30 7770 H 741.299 -3.72826 0.0740917 0
M  V30 7771 N 743.484 -0.715051 -1.40445 0
M  V30 7772 C 744.9 -0.388555 -1.54798 0
M  V30 7773 C 745.1 1.10271 -1.68649 0
M  V30 7774 O 744.156 1.88875 -1.67578 0
M  V30 7775 C 745.469 -1.15414 -2.77669 0
M  V30 7776 C 747.017 -1.14039 -2.91486 0
M  V30 7777 C 747.492 -1.88812 -4.1727 0
M  V30 7778 N 748.983 -1.85878 -4.24268 0
M  V30 7779 C 749.718 -2.40558 -5.20499 0
M  V30 7780 N 749.214 -3.03791 -6.22642 0
M  V30 7781 N 751.007 -2.30703 -5.12574 0
M  V30 7782 H 743.158 -1.68201 -1.297 0
M  V30 7783 H 745.421 -0.710915 -0.627139 0
M  V30 7784 H 745.127 -2.20853 -2.7371 0
M  V30 7785 H 745.001 -0.745412 -3.69761 0
M  V30 7786 H 747.388 -0.0941996 -2.9495 0
M  V30 7787 H 747.469 -1.58834 -2.00513 0
M  V30 7788 H 747.113 -2.93422 -4.14568 0
M  V30 7789 H 747.043 -1.41438 -5.0725 0
M  V30 7790 H 749.534 -1.39794 -3.51093 0
M  V30 7791 H 749.847 -3.43032 -6.92495 0
M  V30 7792 H 748.192 -3.07875 -6.23087 0
M  V30 7793 H 751.383 -1.80961 -4.31707 0
M  V30 7794 H 751.556 -2.73618 -5.87398 0
M  V30 7795 N 744.962 1.50701 -0.461195 0
M  V30 7796 C 746.378 1.59187 -0.114786 0
M  V30 7797 C 746.578 1.4702 1.37794 0
M  V30 7798 O 745.634 1.32361 2.15027 0
M  V30 7799 C 746.947 2.93453 -0.656167 0
M  V30 7800 C 748.495 3.06824 -0.618715 0
M  V30 7801 C 748.97 4.4365 -1.13747 0
M  V30 7802 N 750.461 4.50035 -1.09646 0
M  V30 7803 C 751.196 5.54278 -1.46846 0
M  V30 7804 N 750.692 6.65822 -1.91448 0
M  V30 7805 N 752.485 5.44767 -1.38512 0
M  V30 7806 H 744.636 1.56853 -1.43216 0
M  V30 7807 H 746.899 0.740712 -0.59165 0
M  V30 7808 H 746.605 3.07802 -1.7015 0
M  V30 7809 H 746.479 3.77082 -0.0942261 0
M  V30 7810 H 748.866 2.92129 0.417685 0
M  V30 7811 H 748.947 2.24976 -1.21734 0
M  V30 7812 H 748.591 4.59093 -2.17245 0
M  V30 7813 H 748.521 5.24074 -0.515153 0
M  V30 7814 H 751.012 3.69988 -0.769217 0
M  V30 7815 H 751.325 7.41413 -2.18007 0
M  V30 7816 H 749.67 6.66968 -1.95393 0
M  V30 7817 H 752.861 4.56511 -1.03516 0
M  V30 7818 H 753.034 6.25889 -1.6783 0
M  V30 7819 N 746.441 0.193421 1.56409 0
M  V30 7820 C 747.351 -0.740112 2.2262 0
M  V30 7821 C 748.367 -1.23597 1.22474 0
M  V30 7822 O 749.543 -1.28348 1.55206 0
M  V30 7823 C 746.608 -1.94317 2.87127 0
M  V30 7824 C 745.669 -1.49205 4.02538 0
M  V30 7825 C 744.902 -2.63776 4.63959 0
M  V30 7826 O 745.125 -3.81215 4.24301 0
M  V30 7827 O 744.059 -2.36585 5.53454 0
M  V30 7828 H 747.885 -0.206238 3.02999 0
M  V30 7829 H 745.47 -0.0357938 1.49357 0
M  V30 7830 H 747.352 -2.64633 3.27944 0
M  V30 7831 H 746.027 -2.46568 2.09728 0
M  V30 7832 H 744.934 -0.757738 3.66346 0
M  V30 7833 H 746.267 -1.01622 4.81595 0
M  V30 7834 N 747.919 -1.57396 -0.0801906 0
M  V30 7835 C 748.829 -2.06451 -1.11423 0
M  V30 7836 C 749.845 -0.992352 -1.42928 0
M  V30 7837 O 751.021 -1.30651 -1.53272 0
M  V30 7838 C 748.086 -2.49164 -2.41077 0
M  V30 7839 C 747.147 -3.70641 -2.16619 0
M  V30 7840 C 746.38 -4.11307 -3.40092 0
M  V30 7841 O 746.603 -3.51922 -4.48895 0
M  V30 7842 O 745.537 -5.04157 -3.288 0
M  V30 7843 H 749.363 -2.94857 -0.727519 0
M  V30 7844 H 746.948 -1.46484 -0.293743 0
M  V30 7845 H 748.83 -2.77196 -3.17396 0
M  V30 7846 H 747.505 -1.6389 -2.79145 0
M  V30 7847 H 746.412 -3.47703 -1.38033 0
M  V30 7848 H 747.745 -4.5674 -1.83437 0
M  V30 7849 N 749.397 0.351382 -1.53633 0
M  V30 7850 C 750.813 0.693987 -1.43722 0
M  V30 7851 C 751.013 1.9274 -0.587669 0
M  V30 7852 O 750.069 2.52387 -0.0756082 0
M  V30 7853 C 751.382 0.893937 -2.87105 0
M  V30 7854 C 752.93 0.993051 -2.96829 0
M  V30 7855 C 753.405 1.22537 -4.41303 0
M  V30 7856 N 754.896 1.29275 -4.44795 0
M  V30 7857 C 755.631 1.48988 -5.53706 0
M  V30 7858 N 755.127 1.65924 -6.72637 0
M  V30 7859 N 756.92 1.51472 -5.41306 0
M  V30 7860 H 749.071 -0.459688 -2.07366 0
M  V30 7861 H 751.334 -0.143684 -0.937048 0
M  V30 7862 H 751.04 0.0592517 -3.5165 0
M  V30 7863 H 750.914 1.79795 -3.31592 0
M  V30 7864 H 753.301 1.81827 -2.32429 0
M  V30 7865 H 753.382 0.0661119 -2.55715 0
M  V30 7866 H 753.026 0.405117 -5.06282 0
M  V30 7867 H 752.956 2.16575 -4.80003 0
M  V30 7868 H 755.447 1.17743 -3.59089 0
M  V30 7869 H 755.76 1.80578 -7.51406 0
M  V30 7870 H 754.105 1.63075 -6.75597 0
M  V30 7871 H 757.296 1.37818 -4.47352 0
M  V30 7872 H 757.469 1.66493 -6.26246 0
M  V30 7873 N 750.875 1.45233 0.611969 0
M  V30 7874 C 752.1 1.52767 1.40274 0
M  V30 7875 C 752.525 0.159701 1.87421 0
M  V30 7876 O 751.883 -0.854837 1.59882 0
M  V30 7877 C 751.931 2.51286 2.58626 0
M  V30 7878 O 751.035 2.02764 3.59111 0
M  V30 7879 H 750.376 0.515141 0.418958 0
M  V30 7880 H 752.906 1.90547 0.745188 0
M  V30 7881 H 752.916 2.69949 3.05927 0
M  V30 7882 H 751.591 3.50641 2.23659 0
M  V30 7883 H 750.168 1.93957 3.18489 0
M  V30 7884 N 752.353 -0.854086 1.3245 0
M  V30 7885 C 753.283 -1.97827 1.24044 0
M  V30 7886 C 754.264 -1.69646 0.124166 0
M  V30 7887 O 755.449 -1.91687 0.31143 0
M  V30 7888 C 752.579 -3.33673 0.963324 0
M  V30 7889 C 751.533 -3.76207 2.04089 0
M  V30 7890 C 750.859 -5.0969 1.61618 0
M  V30 7891 C 752.159 -3.91612 3.45597 0
M  V30 7892 H 753.853 -2.05118 2.18099 0
M  V30 7893 H 751.399 -0.985489 1.04996 0
M  V30 7894 H 753.352 -4.11871 0.891061 0
M  V30 7895 H 752.076 -3.26597 -0.0128649 0
M  V30 7896 H 750.735 -3.0026 2.10332 0
M  V30 7897 H 750.383 -4.99072 0.627418 0
M  V30 7898 H 750.083 -5.3912 2.33717 0
M  V30 7899 H 751.607 -5.90381 1.55829 0
M  V30 7900 H 753.021 -4.60163 3.4194 0
M  V30 7901 H 751.418 -4.3246 4.16051 0
M  V30 7902 H 752.488 -2.9451 3.85217 0
M  V30 7903 N 753.831 -1.1567 -1.07043 0
M  V30 7904 C 755.056 -0.957946 -1.83952 0
M  V30 7905 C 755.481 0.488807 -1.81638 0
M  V30 7906 O 754.839 1.34869 -1.21162 0
M  V30 7907 C 754.887 -1.48064 -3.288 0
M  V30 7908 O 753.991 -0.681921 -4.06723 0
M  V30 7909 H 753.332 -0.341453 -0.569479 0
M  V30 7910 H 755.862 -1.53728 -1.35015 0
M  V30 7911 H 755.872 -1.49484 -3.7963 0
M  V30 7912 H 754.547 -2.53388 -3.29799 0
M  V30 7913 H 753.124 -0.737612 -3.65532 0
M  V30 7914 N 755.309 1.25446 -0.953992 0
M  V30 7915 C 756.272 2.24156 -0.478179 0
M  V30 7916 C 757.272 1.55278 0.417776 0
M  V30 7917 O 758.462 1.72866 0.215155 0
M  V30 7918 C 755.594 3.39495 0.309202 0
M  V30 7919 H 756.787 2.67764 -1.35064 0
M  V30 7920 H 754.34 1.37822 -0.737206 0
M  V30 7921 H 755.075 3.01307 1.19936 0
M  V30 7922 H 754.86 3.90679 -0.333562 0
M  V30 7923 H 756.35 4.12796 0.631594 0
M  V30 7924 N 756.787 0.722489 1.40064 0
M  V30 7925 C 758.198 0.336507 1.83642 0
M  V30 7926 C 758.549 -1.13002 1.6039 0
M  V30 7927 O 757.674 -1.87036 1.08842 0
M  V30 7928 C 758.269 0.603985 3.33373 0
M  V30 7929 C 756.828 0.271637 3.75419 0
M  V30 7930 C 755.975 0.872898 2.63203 0
M  V30 7931 H 758.926 0.921108 1.29233 0
M  V30 7932 H 758.947 -0.128471 3.80283 0
M  V30 7933 H 758.459 1.67141 3.50265 0
M  V30 7934 H 756.56 -0.790455 3.64119 0
M  V30 7935 H 756.673 0.745457 4.73265 0
M  V30 7936 H 755.037 0.300431 2.52922 0
M  V30 7937 H 755.82 1.94473 2.82905 0
M  V30 7938 N 758.265 -1.50454 0.469181 0
M  V30 7939 C 759.513 -2.01916 -0.0862982 0
M  V30 7940 C 759.834 -1.35337 -1.40388 0
M  V30 7941 O 759.104 -0.498096 -1.89462 0
M  V30 7942 H 757.684 -0.746185 -0.0348825 0
M  V30 7943 H 760.346 -1.84804 0.619167 0
M  V30 7944 H 759.442 -3.11182 -0.239189 0
M  V30 7945 N 759.743 -0.201713 -1.56304 0
M  V30 7946 C 760.691 0.733133 -2.20744 0
M  V30 7947 C 761.685 1.2148 -1.18064 0
M  V30 7948 O 762.891 1.17692 -1.36193 0
M  V30 7949 H 759.266 0.254789 -0.707521 0
M  V30 7950 H 761.237 0.165996 -2.97938 0
M  V30 7951 C 759.986 1.93925 -2.88597 0
M  V30 7952 H 759.309 1.5777 -3.67353 0
M  V30 7953 H 760.749 2.57158 -3.37114 0
M  V30 7954 C 759.208 2.78219 -1.89989 0
M  V30 7955 O 759.738 3.76353 -1.40432 0
M  V30 7956 N 757.944 2.43847 -1.58072 0
M  V30 7957 H 757.491 1.64103 -1.98565 0
M  V30 7958 H 757.449 3.0053 -0.923524 0
M  V30 7959 N 761.222 1.57436 0.0718424 0
M  V30 7960 C 762.152 2.06724 1.08571 0
M  V30 7961 C 763.133 0.960731 1.40371 0
M  V30 7962 O 764.318 1.23345 1.49999 0
M  V30 7963 C 761.448 2.51112 2.39916 0
M  V30 7964 C 760.402 3.65639 2.22469 0
M  V30 7965 C 759.728 3.96082 3.59198 0
M  V30 7966 C 761.028 4.95687 1.64596 0
M  V30 7967 H 762.722 2.91679 0.675569 0
M  V30 7968 H 760.268 1.40319 0.32352 0
M  V30 7969 H 762.221 2.84206 3.11135 0
M  V30 7970 H 760.945 1.63186 2.8291 0
M  V30 7971 H 759.604 3.32828 1.53691 0
M  V30 7972 H 759.252 3.05287 3.99761 0
M  V30 7973 H 758.952 4.73199 3.48362 0
M  V30 7974 H 760.476 4.31672 4.31847 0
M  V30 7975 H 761.89 5.27011 2.25681 0
M  V30 7976 H 760.287 5.77126 1.64457 0
M  V30 7977 H 761.357 4.8108 0.60744 0
M  V30 7978 N 762.7 -0.34323 1.53817 0
M  V30 7979 C 763.63 -1.42709 1.84814 0
M  V30 7980 C 764.611 -1.5488 0.703297 0
M  V30 7981 O 765.796 -1.69082 0.955237 0
M  V30 7982 C 762.926 -2.79756 2.05801 0
M  V30 7983 C 761.88 -2.82392 3.21619 0
M  V30 7984 C 761.206 -4.22326 3.2794 0
M  V30 7985 C 762.506 -2.479 4.59721 0
M  V30 7986 H 764.2 -1.17018 2.75585 0
M  V30 7987 H 761.746 -0.561485 1.32602 0
M  V30 7988 H 763.699 -3.55627 2.26069 0
M  V30 7989 H 762.423 -3.06883 1.11761 0
M  V30 7990 H 761.082 -2.08974 3.01207 0
M  V30 7991 H 760.73 -4.46564 2.31494 0
M  V30 7992 H 760.43 -4.25001 4.05768 0
M  V30 7993 H 761.954 -5.00039 3.50419 0
M  V30 7994 H 763.368 -3.13484 4.80001 0
M  V30 7995 H 761.765 -2.61857 5.39954 0
M  V30 7996 H 762.835 -1.43087 4.63308 0
M  V30 7997 N 764.178 -1.45556 -0.604258 0
M  V30 7998 C 765.406 -1.53278 -1.38973 0
M  V30 7999 C 765.821 -0.166509 -1.88064 0
M  V30 8000 O 765.178 0.832519 -1.62405 0
M  V30 8001 C 765.229 -2.51992 -2.59195 0
M  V30 8002 O 764.95 -3.8331 -2.12143 0
M  V30 8003 C 766.451 -2.69445 -3.52015 0
M  V30 8004 H 763.671 -0.519003 -0.425297 0
M  V30 8005 H 766.215 -1.90773 -0.736621 0
M  V30 8006 H 764.37 -2.17561 -3.2054 0
M  V30 8007 H 764.784 -4.3685 -2.90279 0
M  V30 8008 H 766.258 -3.42485 -4.32907 0
M  V30 8009 H 766.735 -1.75596 -4.0257 0
M  V30 8010 H 767.341 -3.04886 -2.9652 0
M  V30 8011 N 765.656 0.84705 -1.32902 0
M  V30 8012 C 766.603 1.95624 -1.22473 0
M  V30 8013 C 767.573 1.65767 -0.105178 0
M  V30 8014 O 768.758 1.88704 -0.282042 0
M  V30 8015 C 765.898 3.31434 -0.961542 0
M  V30 8016 C 765.011 3.73741 -2.1666 0
M  V30 8017 C 764.146 4.98379 -1.83825 0
M  V30 8018 C 763.185 5.33199 -3.00609 0
M  V30 8019 N 762.322 6.49014 -2.67816 0
M  V30 8020 H 767.162 2.03875 -2.17345 0
M  V30 8021 H 764.699 0.997764 -1.08088 0
M  V30 8022 H 766.657 4.09663 -0.789411 0
M  V30 8023 H 765.287 3.22762 -0.0495938 0
M  V30 8024 H 764.339 2.91102 -2.44875 0
M  V30 8025 H 765.651 3.95462 -3.03993 0
M  V30 8026 H 764.805 5.84336 -1.63208 0
M  V30 8027 H 763.544 4.78611 -0.937172 0
M  V30 8028 H 762.549 4.4575 -3.21849 0
M  V30 8029 H 763.774 5.5492 -3.9146 0
M  V30 8030 H 761.72 6.30748 -1.80258 0
M  V30 8031 H 761.637 6.7079 -3.48679 0
M  V30 8032 H 762.905 7.38103 -2.50647 0
M  V30 8033 N 767.134 1.16236 1.06428 0
M  V30 8034 C 768.081 0.86769 2.13869 0
M  V30 8035 C 769.051 -0.183298 1.65086 0
M  V30 8036 O 770.236 -0.0488002 1.90738 0
M  V30 8037 C 767.376 0.373427 3.43074 0
M  V30 8038 C 766.489 1.48708 4.05598 0
M  V30 8039 C 765.624 0.947977 5.22673 0
M  V30 8040 C 764.663 2.03793 5.77178 0
M  V30 8041 N 763.8 1.51451 6.85571 0
M  V30 8042 H 768.64 1.78781 2.38414 0
M  V30 8043 H 766.177 0.891892 1.16977 0
M  V30 8044 H 768.135 0.0685035 4.17144 0
M  V30 8045 H 766.765 -0.509752 3.1875 0
M  V30 8046 H 765.817 1.908 3.29089 0
M  V30 8047 H 767.129 2.30964 4.42105 0
M  V30 8048 H 766.283 0.596154 6.03764 0
M  V30 8049 H 765.022 0.0947081 4.87608 0
M  V30 8050 H 764.027 2.39847 4.94726 0
M  V30 8051 H 765.252 2.89514 6.14295 0
M  V30 8052 H 763.198 0.683755 6.52427 0
M  V30 8053 H 763.115 2.27325 7.21013 0
M  V30 8054 H 764.383 1.19123 7.70344 0
M  V30 8055 N 768.612 -1.24939 0.960631 0
M  V30 8056 C 770.023 -1.74701 0.658529 0
M  V30 8057 C 770.374 -1.77967 -0.825959 0
M  V30 8058 O 769.499 -1.40444 -1.64634 0
M  V30 8059 C 770.094 -3.17263 1.18867 0
M  V30 8060 C 768.653 -3.64561 0.936614 0
M  V30 8061 C 767.8 -2.43423 1.32817 0
M  V30 8062 H 770.751 -1.10741 1.13676 0
M  V30 8063 H 770.772 -3.76481 0.551589 0
M  V30 8064 H 770.284 -3.14854 2.26912 0
M  V30 8065 H 768.385 -3.72378 -0.128608 0
M  V30 8066 H 768.498 -4.52392 1.57729 0
M  V30 8067 H 766.862 -2.43513 0.746548 0
M  V30 8068 H 767.645 -2.437 2.41796 0
M  V30 8069 N 770.09 -0.729906 -1.39679 0
M  V30 8070 C 771.318 -0.285709 -2.04918 0
M  V30 8071 C 771.733 1.07765 -1.55023 0
M  V30 8072 O 771.09 1.67999 -0.712923 0
M  V30 8073 C 771.141 -0.272793 -3.60469 0
M  V30 8074 O 770.862 -1.58233 -4.08527 0
M  V30 8075 C 772.363 0.188199 -4.429 0
M  V30 8076 H 769.583 -0.125758 -0.65911 0
M  V30 8077 H 772.127 -0.992129 -1.78821 0
M  V30 8078 H 770.282 0.384699 -3.85485 0
M  V30 8079 H 770.696 -1.49245 -5.02818 0
M  V30 8080 H 772.17 0.14608 -5.51807 0
M  V30 8081 H 772.647 1.2326 -4.21549 0
M  V30 8082 H 773.253 -0.439541 -4.23023 0
M  V30 8083 N 771.568 1.50203 -0.477153 0
M  V30 8084 C 772.984 1.59056 -0.131663 0
M  V30 8085 C 773.184 1.48473 1.36227 0
M  V30 8086 O 772.24 1.34635 2.13611 0
M  V30 8087 C 773.553 2.92741 -0.687254 0
M  V30 8088 C 775.101 3.0615 -0.651223 0
M  V30 8089 C 775.576 4.42419 -1.18446 0
M  V30 8090 N 777.067 4.48847 -1.14413 0
M  V30 8091 C 777.802 5.52689 -1.52717 0
M  V30 8092 N 777.298 6.63754 -1.98499 0
M  V30 8093 N 779.091 5.43267 -1.44282 0
M  V30 8094 H 771.242 1.55325 -1.44872 0
M  V30 8095 H 773.505 0.734395 -0.599473 0
M  V30 8096 H 773.211 3.0598 -1.73405 0
M  V30 8097 H 773.085 3.76961 -0.134215 0
M  V30 8098 H 775.472 2.92556 0.386677 0
M  V30 8099 H 775.553 2.23673 -1.24114 0
M  V30 8100 H 775.197 4.56763 -2.22103 0
M  V30 8101 H 775.127 5.23498 -0.570709 0
M  V30 8102 H 777.618 3.69152 -0.808416 0
M  V30 8103 H 777.931 7.39059 -2.25859 0
M  V30 8104 H 776.276 6.64858 -2.02456 0
M  V30 8105 H 779.467 4.55387 -1.08352 0
M  V30 8106 H 779.64 6.24074 -1.74459 0
M  V30 8107 N 773.046 0.209999 1.56195 0
M  V30 8108 C 773.956 -0.716459 2.23392 0
M  V30 8109 C 774.972 -1.22291 1.23778 0
M  V30 8110 O 776.148 -1.26694 1.56558 0
M  V30 8111 C 773.213 -1.91261 2.89172 0
M  V30 8112 C 772.274 -1.44927 4.04097 0
M  V30 8113 C 771.507 -2.5884 4.66731 0
M  V30 8114 O 771.73 -3.76693 4.2832 0
M  V30 8115 O 770.664 -2.30701 5.55932 0
M  V30 8116 H 774.49 -0.174089 3.03201 0
M  V30 8117 H 772.075 -0.0199505 1.49387 0
M  V30 8118 H 773.957 -2.6114 3.30733 0
M  V30 8119 H 772.632 -2.4433 2.12331 0
M  V30 8120 H 771.539 -0.718839 3.67129 0
M  V30 8121 H 772.872 -0.965084 4.82646 0
M  V30 8122 N 774.524 -1.57472 -0.0634922 0
M  V30 8123 C 775.764 -1.89491 -0.766312 0
M  V30 8124 C 776.128 -0.80475 -1.74321 0
M  V30 8125 O 777.329 -1.00825 -2.49174 0
M  V30 8126 C 775.6 -3.26731 -1.44851 0
M  V30 8127 S 777.159 -3.80516 -2.18525 0
M  V30 8128 H 773.977 -0.663832 -0.254653 0
M  V30 8129 H 776.579 -1.95488 -0.0220867 0
M  V30 8130 H 775.283 -4.03967 -0.723824 0
M  V30 8131 H 774.814 -3.23953 -2.232 0
M  V30 8132 H 776.829 -3.5647 -3.45172 0
M  V30 8133 N 776.003 0.335068 -1.53997 0
M  V30 8134 C 776.913 1.43511 -1.85585 0
M  V30 8135 C 777.929 1.57162 -0.746726 0
M  V30 8136 O 779.105 1.72477 -1.03988 0
M  V30 8137 C 776.17 2.78386 -2.06646 0
M  V30 8138 C 775.231 2.74007 -3.30483 0
M  V30 8139 C 774.464 4.02449 -3.50529 0
M  V30 8140 O 774.687 5.00147 -2.74242 0
M  V30 8141 O 773.621 4.06405 -4.4398 0
M  V30 8142 H 777.447 1.19731 -2.79102 0
M  V30 8143 H 775.032 0.528033 -1.39758 0
M  V30 8144 H 776.914 3.58247 -2.21894 0
M  V30 8145 H 775.589 3.0208 -1.16317 0
M  V30 8146 H 774.496 1.92736 -3.2063 0
M  V30 8147 H 775.829 2.55267 -4.20832 0
M  V30 8148 N 777.481 1.45874 0.596531 0
M  V30 8149 C 778.706 1.54247 1.38646 0
M  V30 8150 C 779.131 0.179571 1.87241 0
M  V30 8151 O 778.489 -0.837831 1.6078 0
M  V30 8152 C 778.537 2.54015 2.55946 0
M  V30 8153 O 777.641 2.06561 3.5694 0
M  V30 8154 H 776.982 0.519555 0.413471 0
M  V30 8155 H 779.512 1.91327 0.724936 0
M  V30 8156 H 779.522 2.73179 3.03047 0
M  V30 8157 H 778.197 3.52994 2.19928 0
M  V30 8158 H 776.774 1.97324 3.16414 0
M  V30 8159 N 778.959 -0.83999 1.33349 0
M  V30 8160 C 779.889 -1.965 1.26135 0
M  V30 8161 C 780.87 -1.69505 0.142152 0
M  V30 8162 O 782.055 -1.91346 0.331743 0
M  V30 8163 C 779.185 -3.32632 0.99866 0
M  V30 8164 C 778.139 -3.74021 2.08068 0
M  V30 8165 C 777.465 -5.07947 1.67014 0
M  V30 8166 C 778.765 -3.87925 3.49731 0
M  V30 8167 H 780.459 -2.02793 2.20262 0
M  V30 8168 H 778.005 -0.974297 1.06035 0
M  V30 8169 H 779.958 -4.10903 0.934696 0
M  V30 8170 H 778.682 -3.26593 0.0217759 0
M  V30 8171 H 777.341 -2.98012 2.13505 0
M  V30 8172 H 776.989 -4.98378 0.680316 0
M  V30 8173 H 776.689 -5.36611 2.39422 0
M  V30 8174 H 778.213 -5.88695 1.62082 0
M  V30 8175 H 779.627 -4.5651 3.46802 0
M  V30 8176 H 778.024 -4.28023 4.20614 0
M  V30 8177 H 779.094 -2.90407 3.88319 0
M  V30 8178 N 780.437 -1.16799 -1.0581 0
M  V30 8179 C 781.662 -0.977402 -1.82925 0
M  V30 8180 C 782.087 0.469514 -1.82146 0
M  V30 8181 O 781.445 1.33576 -1.22585 0
M  V30 8182 C 781.493 -1.51543 -3.27211 0
M  V30 8183 O 780.597 -0.725021 -4.05977 0
M  V30 8184 H 779.938 -0.347474 -0.565825 0
M  V30 8185 H 782.468 -1.55151 -1.33376 0
M  V30 8186 H 782.478 -1.53502 -3.78023 0
M  V30 8187 H 781.153 -2.56872 -3.27093 0
M  V30 8188 H 779.73 -0.77634 -3.64729 0
M  V30 8189 N 781.915 1.24427 -0.967243 0
M  V30 8190 C 782.825 2.29109 -0.504592 0
M  V30 8191 C 783.841 1.68495 0.434224 0
M  V30 8192 O 785.017 1.99041 0.307379 0
M  V30 8193 C 782.082 3.46133 0.198273 0
M  V30 8194 C 781.143 4.22149 -0.780313 0
M  V30 8195 C 780.376 5.33585 -0.110896 0
M  V30 8196 O 780.599 5.59676 1.10088 0
M  V30 8197 O 779.533 5.96522 -0.802823 0
M  V30 8198 H 783.359 2.708 -1.37482 0
M  V30 8199 H 780.944 1.30111 -0.73426 0
M  V30 8200 H 782.826 4.17205 0.593124 0
M  V30 8201 H 781.501 3.0642 1.04347 0
M  V30 8202 H 780.408 3.53454 -1.22561 0
M  V30 8203 H 781.741 4.65677 -1.59392 0
M  V30 8204 N 783.393 0.737304 1.3929 0
M  V30 8205 C 784.323 0.113988 2.33222 0
M  V30 8206 C 785.304 -0.721695 1.54031 0
M  V30 8207 O 786.489 -0.666206 1.82415 0
M  V30 8208 C 783.619 -0.792319 3.38141 0
M  V30 8209 C 782.573 -0.0606178 4.27957 0
M  V30 8210 C 781.899 -1.08409 5.23595 0
M  V30 8211 C 783.199 1.09817 5.10625 0
M  V30 8212 H 784.893 0.898611 2.85596 0
M  V30 8213 H 782.439 0.433571 1.37318 0
M  V30 8214 H 784.392 -1.23793 4.02807 0
M  V30 8215 H 783.116 -1.60908 2.84211 0
M  V30 8216 H 781.775 0.365393 3.64775 0
M  V30 8217 H 781.423 -1.89449 4.6596 0
M  V30 8218 H 781.123 -0.599269 5.84536 0
M  V30 8219 H 782.647 -1.52936 5.91137 0
M  V30 8220 H 784.061 0.730892 5.68622 0
M  V30 8221 H 782.458 1.51278 5.80719 0
M  V30 8222 H 783.528 1.91878 4.45321 0
M  V30 8223 N 784.871 -1.49948 0.485112 0
M  V30 8224 C 785.818 -2.28819 -0.301729 0
M  V30 8225 C 786.788 -1.34496 -0.974683 0
M  V30 8226 O 787.973 -1.63444 -0.984418 0
M  V30 8227 C 785.113 -3.16758 -1.36961 0
M  V30 8228 C 784.226 -4.26125 -0.710027 0
M  V30 8229 C 783.361 -5.01302 -1.75699 0
M  V30 8230 C 782.4 -6.02525 -1.07841 0
M  V30 8231 N 781.537 -6.70927 -2.06886 0
M  V30 8232 H 786.377 -2.95604 0.377127 0
M  V30 8233 H 783.914 -1.45764 0.197826 0
M  V30 8234 H 785.872 -3.66106 -2.00056 0
M  V30 8235 H 784.502 -2.51991 -2.01744 0
M  V30 8236 H 783.554 -3.80385 0.0338278 0
M  V30 8237 H 784.866 -4.98493 -0.175079 0
M  V30 8238 H 784.02 -5.54438 -2.46339 0
M  V30 8239 H 782.759 -4.28672 -2.32577 0
M  V30 8240 H 781.764 -5.48635 -0.357706 0
M  V30 8241 H 782.989 -6.77134 -0.516345 0
M  V30 8242 H 780.935 -6.01079 -2.62755 0
M  V30 8243 H 780.852 -7.39216 -1.58414 0
M  V30 8244 H 782.12 -7.28675 -2.76863 0
M  V30 8245 N 786.349 -0.21828 -1.56081 0
M  V30 8246 C 787.259 0.704602 -2.23769 0
M  V30 8247 C 788.275 1.21633 -1.24425 0
M  V30 8248 O 789.451 1.25862 -1.57228 0
M  V30 8249 C 786.516 1.89725 -2.90182 0
M  V30 8250 C 785.577 1.42782 -4.0486 0
M  V30 8251 C 784.81 2.56361 -4.68097 0
M  V30 8252 O 785.033 3.74417 -4.30312 0
M  V30 8253 O 783.967 2.2775 -5.57148 0
M  V30 8254 H 787.793 0.158007 -3.03289 0
M  V30 8255 H 785.378 0.0120279 -1.49395 0
M  V30 8256 H 787.26 2.59382 -3.32113 0
M  V30 8257 H 785.935 2.432 -2.13624 0
M  V30 8258 H 784.842 0.699359 -3.67505 0
M  V30 8259 H 786.175 0.939474 -4.83151 0
M  V30 8260 N 787.827 1.57504 0.0551401 0
M  V30 8261 C 788.79 2.03826 1.04821 0
M  V30 8262 C 789.79 0.937968 1.30609 0
M  V30 8263 O 790.98 1.20237 1.2605 0
M  V30 8264 C 788.112 2.43309 2.38775 0
M  V30 8265 H 789.305 2.92802 0.6486 0
M  V30 8266 H 786.858 1.53368 0.301315 0
M  V30 8267 H 787.593 1.5741 2.83536 0
M  V30 8268 H 787.378 3.23615 2.21395 0
M  V30 8269 H 788.868 2.79666 3.10124 0
M  V30 8270 N 789.305 -0.326896 1.54172 0
M  V30 8271 C 790.721 -0.671034 1.44808 0
M  V30 8272 C 790.921 -1.91781 0.618258 0
M  V30 8273 O 789.977 -2.52235 0.115751 0
M  V30 8274 C 791.29 -0.848147 2.88491 0
M  V30 8275 C 792.838 -0.945702 2.98371 0
M  V30 8276 C 793.313 -1.15501 4.43197 0
M  V30 8277 N 794.804 -1.22183 4.46795 0
M  V30 8278 C 795.539 -1.4016 5.56006 0
M  V30 8279 N 795.035 -1.55202 6.75192 0
M  V30 8280 N 796.828 -1.42841 5.43648 0
M  V30 8281 H 788.979 0.49262 2.06608 0
M  V30 8282 H 791.242 0.158574 0.934643 0
M  V30 8283 H 790.948 -0.00329969 3.517 0
M  V30 8284 H 790.822 -1.74497 3.34411 0
M  V30 8285 H 793.209 -1.78106 2.35292 0
M  V30 8286 H 793.29 -0.0254215 2.55787 0
M  V30 8287 H 792.934 -0.324521 5.06862 0
M  V30 8288 H 792.864 -2.08911 4.83388 0
M  V30 8289 H 795.355 -1.12016 3.60917 0
M  V30 8290 H 795.668 -1.68601 7.54184 0
M  V30 8291 H 794.013 -1.52306 6.78106 0
M  V30 8292 H 797.204 -1.30683 4.49488 0
M  V30 8293 H 797.377 -1.56509 6.28816 0
M  V30 8294 N 790.784 -1.46188 -0.588786 0
M  V30 8295 C 791.716 -1.52319 -1.71265 0
M  V30 8296 C 792.729 -0.412096 -1.57498 0
M  V30 8297 O 793.918 -0.680146 -1.65034 0
M  V30 8298 C 791.018 -1.38164 -3.09458 0
M  V30 8299 C 790.191 -2.63284 -3.49286 0
M  V30 8300 C 789.25 -2.43415 -4.66514 0
M  V30 8301 O 788.276 -3.17113 -4.72682 0
M  V30 8302 N 789.478 -1.49187 -5.61002 0
M  V30 8303 H 792.243 -2.49219 -1.66463 0
M  V30 8304 H 789.804 -1.42167 -0.774601 0
M  V30 8305 H 791.796 -1.22653 -3.85666 0
M  V30 8306 H 790.366 -0.494678 -3.08661 0
M  V30 8307 H 789.586 -2.93779 -2.62845 0
M  V30 8308 H 790.874 -3.46413 -3.7266 0
M  V30 8309 H 790.272 -0.884027 -5.5875 0
M  V30 8310 H 788.829 -1.39642 -6.36666 0
M  V30 8311 N 792.262 0.832906 -1.33792 0
M  V30 8312 C 793.678 1.1245 -1.13257 0
M  V30 8313 C 793.878 2.01369 0.0725832 0
M  V30 8314 O 792.934 2.41071 0.751082 0
M  V30 8315 C 794.247 1.78084 -2.42294 0
M  V30 8316 C 795.795 1.90624 -2.48257 0
M  V30 8317 C 796.27 2.59673 -3.77271 0
M  V30 8318 N 797.761 2.67181 -3.78376 0
M  V30 8319 C 798.496 3.21313 -4.74916 0
M  V30 8320 N 797.992 3.76086 -5.81835 0
M  V30 8321 N 799.785 3.19621 -4.62384 0
M  V30 8322 H 791.936 0.241244 -2.11026 0
M  V30 8323 H 794.199 0.169557 -0.932713 0
M  V30 8324 H 793.905 1.20209 -3.30519 0
M  V30 8325 H 793.779 2.78049 -2.5489 0
M  V30 8326 H 796.166 2.4765 -1.60478 0
M  V30 8327 H 796.247 0.89591 -2.39598 0
M  V30 8328 H 795.891 2.03304 -4.65435 0
M  V30 8329 H 795.821 3.61189 -3.8321 0
M  V30 8330 H 798.312 2.28346 -3.01108 0
M  V30 8331 H 798.625 4.15612 -6.51526 0
M  V30 8332 H 796.97 3.74357 -5.85561 0
M  V30 8333 H 800.161 2.76091 -3.7801 0
M  V30 8334 H 800.334 3.61504 -5.37791 0
M  V30 8335 N 793.74 1.17359 1.05189 0
M  V30 8336 C 795.156 0.920861 1.30355 0
M  V30 8337 C 795.356 -0.419993 1.97074 0
M  V30 8338 O 794.412 -1.15696 2.24434 0
M  V30 8339 C 795.725 2.07818 2.1733 0
M  V30 8340 C 797.273 2.1152 2.30712 0
M  V30 8341 C 797.748 3.26637 3.21048 0
M  V30 8342 N 799.239 3.26426 3.28634 0
M  V30 8343 C 799.974 4.12141 3.98657 0
M  V30 8344 N 799.47 5.07966 4.71107 0
M  V30 8345 N 801.263 4.00091 3.94821 0
M  V30 8346 H 793.414 2.03666 0.602821 0
M  V30 8347 H 795.677 0.889294 0.328421 0
M  V30 8348 H 795.383 3.04727 1.75597 0
M  V30 8349 H 795.257 2.02922 3.17966 0
M  V30 8350 H 797.644 1.15196 2.71687 0
M  V30 8351 H 797.725 2.20477 1.29706 0
M  V30 8352 H 797.369 4.23227 2.80788 0
M  V30 8353 H 797.299 3.14917 4.2206 0
M  V30 8354 H 799.79 2.57045 2.77013 0
M  V30 8355 H 800.103 5.69766 5.22099 0
M  V30 8356 H 798.448 5.11936 4.7005 0
M  V30 8357 H 801.639 3.24523 3.37346 0
M  V30 8358 H 801.812 4.6711 4.49123 0
M  V30 8359 N 795.218 -1.23913 0.973828 0
M  V30 8360 C 796.15 -2.24397 0.466763 0
M  V30 8361 C 797.163 -1.57078 -0.427828 0
M  V30 8362 O 798.352 -1.76973 -0.233019 0
M  V30 8363 C 795.452 -3.37141 -0.344798 0
M  V30 8364 C 794.625 -4.34037 0.541349 0
M  V30 8365 C 793.684 -5.2576 -0.215243 0
M  V30 8366 O 792.71 -5.67842 0.39291 0
M  V30 8367 N 793.912 -5.60702 -1.5031 0
M  V30 8368 H 796.677 -2.68536 1.33074 0
M  V30 8369 H 794.238 -1.38017 0.846346 0
M  V30 8370 H 796.23 -3.95476 -0.859133 0
M  V30 8371 H 794.8 -2.92239 -1.10974 0
M  V30 8372 H 794.02 -3.74302 1.23659 0
M  V30 8373 H 795.308 -4.95738 1.1455 0
M  V30 8374 H 794.706 -5.28451 -2.01882 0
M  V30 8375 H 793.263 -6.21538 -1.96301 0
M  V30 8376 N 796.696 -0.74468 -1.38897 0
M  V30 8377 C 798.107 -0.36568 -1.83084 0
M  V30 8378 C 798.458 1.10436 -1.62168 0
M  V30 8379 O 797.583 1.85281 -1.11804 0
M  V30 8380 C 798.178 -0.656946 -3.3237 0
M  V30 8381 C 796.737 -0.331329 -3.74939 0
M  V30 8382 C 795.884 -0.914661 -2.61781 0
M  V30 8383 H 798.835 -0.941551 -1.27752 0
M  V30 8384 H 798.856 0.0679546 -3.80439 0
M  V30 8385 H 798.368 -1.72693 -3.47561 0
M  V30 8386 H 796.469 0.732426 -3.6533 0
M  V30 8387 H 796.582 -0.820655 -4.72019 0
M  V30 8388 H 794.946 -0.34063 -2.52412 0
M  V30 8389 H 795.729 -1.98949 -2.79775 0
M  V30 8390 N 798.174 1.49689 -0.493057 0
M  V30 8391 C 799.585 1.8665 -0.0433032 0
M  V30 8392 C 799.936 1.40607 1.36836 0
M  V30 8393 O 799.061 0.780503 2.01834 0
M  V30 8394 C 799.656 3.38724 -0.0718069 0
M  V30 8395 C 798.215 3.75015 0.32257 0
M  V30 8396 C 797.362 2.7366 -0.4478 0
M  V30 8397 H 800.313 1.42119 -0.706246 0
M  V30 8398 H 800.334 3.73522 0.725347 0
M  V30 8399 H 799.846 3.72204 -1.09935 0
M  V30 8400 H 797.947 3.47142 1.35364 0
M  V30 8401 H 798.06 4.79099 0.00864259 0
M  V30 8402 H 796.424 2.54498 0.101354 0
M  V30 8403 H 797.207 3.09985 -1.47527 0
M  V30 8404 N 799.652 0.226554 1.55963 0
M  V30 8405 C 800.9 -0.402991 1.98041 0
M  V30 8406 C 801.221 -1.59938 1.11557 0
M  V30 8407 O 800.491 -1.9494 0.193719 0
M  V30 8408 H 799.071 -0.15188 0.731397 0
M  V30 8409 H 801.733 0.320613 1.92245 0
M  V30 8410 H 800.829 -0.725937 3.0354 0
M  V30 8411 N 801.13 -1.57531 -0.0467866 0
M  V30 8412 C 802.08 -2.01845 -1.06031 0
M  V30 8413 C 803.064 -0.904662 -1.33059 0
M  V30 8414 O 804.256 -1.16858 -1.32941 0
M  V30 8415 C 801.385 -2.48673 -2.36679 0
M  V30 8416 C 800.471 -3.66837 -2.12818 0
M  V30 8417 N 800.862 -4.80172 -1.5896 0
M  V30 8418 C 799.16 -3.73869 -2.43183 0
M  V30 8419 C 799.861 -5.61895 -1.50494 0
M  V30 8420 N 798.837 -5.0648 -1.97431 0
M  V30 8421 H 802.639 -2.869 -0.637623 0
M  V30 8422 H 800.153 -1.6041 -0.253427 0
M  V30 8423 H 802.15 -2.78671 -3.10077 0
M  V30 8424 H 800.81 -1.65016 -2.79642 0
M  V30 8425 H 801.821 -5.01967 -1.27474 0
M  V30 8426 H 798.498 -3.00977 -2.89342 0
M  V30 8427 H 799.888 -6.62918 -1.09494 0
M  V30 8428 N 802.608 0.318715 -1.54344 0
M  V30 8429 C 804.024 0.663345 -1.45162 0
M  V30 8430 C 804.224 1.9145 -0.62842 0
M  V30 8431 O 803.28 2.5217 -0.129126 0
M  V30 8432 C 804.593 0.832836 -2.88937 0
M  V30 8433 C 806.141 0.929866 -2.98869 0
M  V30 8434 C 806.616 1.13149 -4.43803 0
M  V30 8435 N 808.107 1.19811 -4.47437 0
M  V30 8436 C 808.842 1.37209 -5.56742 0
M  V30 8437 N 808.338 1.51619 -6.76006 0
M  V30 8438 N 810.131 1.39956 -5.44398 0
M  V30 8439 H 802.282 -0.50357 -2.06344 0
M  V30 8440 H 804.545 -0.163528 -0.933789 0
M  V30 8441 H 804.251 -0.0153519 -3.51697 0
M  V30 8442 H 804.125 1.72721 -3.35332 0
M  V30 8443 H 806.512 1.76855 -2.36233 0
M  V30 8444 H 806.593 0.0118561 -2.55797 0
M  V30 8445 H 806.237 0.297636 -5.07027 0
M  V30 8446 H 806.167 2.06345 -4.84489 0
M  V30 8447 H 808.658 1.101 -3.61506 0
M  V30 8448 H 808.971 1.64599 -7.55067 0
M  V30 8449 H 807.316 1.48708 -6.78904 0
M  V30 8450 H 810.507 1.28298 -4.50175 0
M  V30 8451 H 810.68 1.53172 -6.29637 0
M  V30 8452 N 804.086 1.46499 0.581025 0
M  V30 8453 C 805.497 1.4604 1.16315 0
M  V30 8454 C 805.848 0.202154 1.95156 0
M  V30 8455 O 804.973 -0.694638 2.04948 0
M  V30 8456 C 805.568 2.64593 2.11604 0
M  V30 8457 C 804.127 2.6717 2.65136 0
M  V30 8458 C 803.274 2.38753 1.4104 0
M  V30 8459 H 806.225 1.54354 0.368871 0
M  V30 8460 H 806.246 2.40207 2.95095 0
M  V30 8461 H 805.758 3.56154 1.54194 0
M  V30 8462 H 803.859 1.79685 3.26411 0
M  V30 8463 H 803.972 3.67182 3.07757 0
M  V30 8464 H 802.336 1.88845 1.70908 0
M  V30 8465 H 803.119 3.32493 0.854588 0
M  V30 8466 N 805.565 -0.825799 1.34232 0
M  V30 8467 C 806.528 -1.91808 1.25468 0
M  V30 8468 C 807.528 -1.59893 0.170567 0
M  V30 8469 O 808.718 -1.68986 0.422996 0
M  V30 8470 C 805.85 -3.27786 0.93644 0
M  V30 8471 H 807.043 -2.01003 2.22571 0
M  V30 8472 H 804.596 -1.01944 1.18479 0
M  V30 8473 H 805.331 -3.24285 -0.0315408 0
M  V30 8474 H 805.116 -3.52333 1.72057 0
M  V30 8475 H 806.606 -4.07782 0.900214 0
M  V30 8476 N 807.043 -1.17915 -1.04565 0
M  V30 8477 C 808.454 -0.976383 -1.59134 0
M  V30 8478 C 808.805 0.475267 -1.90357 0
M  V30 8479 O 807.93 1.35172 -1.6899 0
M  V30 8480 C 808.525 -1.76604 -2.89131 0
M  V30 8481 C 807.084 -1.60777 -3.40335 0
M  V30 8482 C 806.231 -1.76369 -2.13985 0
M  V30 8483 H 809.182 -1.32532 -0.872985 0
M  V30 8484 H 809.203 -1.25215 -3.59307 0
M  V30 8485 H 808.715 -2.82252 -2.66375 0
M  V30 8486 H 806.816 -0.576436 -3.68114 0
M  V30 8487 H 806.929 -2.40268 -4.14497 0
M  V30 8488 H 805.293 -1.19268 -2.25049 0
M  V30 8489 H 806.076 -2.83441 -1.9369 0
M  V30 8490 N 808.521 1.23394 -0.980386 0
M  V30 8491 C 809.937 1.43961 -0.689008 0
M  V30 8492 C 810.137 1.87229 0.744809 0
M  V30 8493 O 809.193 2.01831 1.51725 0
M  V30 8494 C 810.506 2.49128 -1.68392 0
M  V30 8495 C 812.054 2.62941 -1.69796 0
M  V30 8496 C 812.529 3.71317 -2.68118 0
M  V30 8497 N 814.02 3.7876 -2.66636 0
M  V30 8498 C 814.755 4.62176 -3.39383 0
M  V30 8499 N 814.251 5.49682 -4.21688 0
M  V30 8500 N 816.044 4.56372 -3.28147 0
M  V30 8501 H 808.195 0.936106 -1.90659 0
M  V30 8502 H 810.458 0.473023 -0.821555 0
M  V30 8503 H 810.164 2.24252 -2.70931 0
M  V30 8504 H 810.038 3.47514 -1.46675 0
M  V30 8505 H 812.425 2.87168 -0.679617 0
M  V30 8506 H 812.506 1.64871 -1.95579 0
M  V30 8507 H 812.15 3.4784 -3.70095 0
M  V30 8508 H 812.08 4.68929 -2.3961 0
M  V30 8509 H 814.571 3.16226 -2.06904 0
M  V30 8510 H 814.884 6.10323 -4.74053 0
M  V30 8511 H 813.229 5.49306 -4.25779 0
M  V30 8512 H 816.42 3.87029 -2.63299 0
M  V30 8513 H 816.593 5.21153 -3.85102 0
M  V30 8514 N 809.999 0.752036 1.385 0
M  V30 8515 C 811.247 0.306895 1.99756 0
M  V30 8516 C 811.568 -1.11478 1.59992 0
M  V30 8517 O 810.838 -1.76206 0.856045 0
M  V30 8518 H 809.418 0.11048 0.738785 0
M  V30 8519 H 812.08 0.965785 1.69289 0
M  V30 8520 H 811.176 0.368797 3.09913 0
M  V30 8521 N 811.477 -1.49425 0.500989 0
M  V30 8522 C 812.725 -2.02053 -0.0434495 0
M  V30 8523 C 813.046 -1.38285 -1.37486 0
M  V30 8524 O 812.316 -0.538171 -1.88363 0
M  V30 8525 H 810.896 -0.746757 -0.0190469 0
M  V30 8526 H 813.558 -1.83449 0.658227 0
M  V30 8527 H 812.654 -3.11619 -0.173129 0
M  V30 8528 N 812.955 -0.234822 -1.55841 0
M  V30 8529 C 814.203 0.392483 -1.98252 0
M  V30 8530 C 814.524 1.59344 -1.12404 0
M  V30 8531 O 813.794 1.94834 -0.204055 0
M  V30 8532 H 812.374 0.147999 -0.732192 0
M  V30 8533 H 815.036 -0.330804 -1.92072 0
M  V30 8534 H 814.132 0.709829 -3.03921 0
M  V30 8535 N 814.433 1.57553 0.0384317 0
M  V30 8536 C 815.681 1.88468 0.729672 0
M  V30 8537 C 816.002 0.831302 1.76393 0
M  V30 8538 O 815.272 -0.13622 1.95426 0
M  V30 8539 H 813.852 0.695529 0.272485 0
M  V30 8540 H 816.514 1.94899 0.0066032 0
M  V30 8541 H 815.61 2.8705 1.22511 0
M  V30 8542 N 815.911 -0.310526 1.54511 0
M  V30 8543 C 817.136 -1.07046 1.7764 0
M  V30 8544 C 817.561 -1.80488 0.529696 0
M  V30 8545 O 816.919 -1.73702 -0.519361 0
M  V30 8546 C 816.967 -2.03411 2.97752 0
M  V30 8547 O 816.071 -3.11545 2.7021 0
M  V30 8548 H 815.412 -0.307994 0.588248 0
M  V30 8549 H 817.942 -0.350848 2.01569 0
M  V30 8550 H 817.952 -2.46048 3.2546 0
M  V30 8551 H 816.627 -1.49361 3.88155 0
M  V30 8552 H 815.204 -2.7349 2.53491 0
M  V30 8553 N 817.389 -1.46805 -0.573248 0
M  V30 8554 C 818.352 -1.57655 -1.66366 0
M  V30 8555 C 819.352 -0.452905 -1.5429 0
M  V30 8556 O 820.542 -0.717502 -1.58737 0
M  V30 8557 C 817.674 -1.50584 -3.05839 0
M  V30 8558 H 818.867 -2.54842 -1.581 0
M  V30 8559 H 816.42 -1.34756 -0.791868 0
M  V30 8560 H 817.155 -0.547127 -3.19651 0
M  V30 8561 H 816.94 -2.32118 -3.16012 0
M  V30 8562 H 818.43 -1.61282 -3.85199 0
M  V30 8563 N 818.867 0.818669 -1.34668 0
M  V30 8564 C 819.797 1.94468 -1.29245 0
M  V30 8565 C 820.778 1.69257 -0.169101 0
M  V30 8566 O 821.963 1.90794 -0.362143 0
M  V30 8567 C 819.093 3.31001 -1.05145 0
M  V30 8568 C 818.047 3.70663 -2.13992 0
M  V30 8569 C 817.373 5.05226 -1.75074 0
M  V30 8570 C 818.673 3.82312 -3.55858 0
M  V30 8571 H 820.367 1.99263 -2.2346 0
M  V30 8572 H 817.913 0.957304 -1.07572 0
M  V30 8573 H 819.866 4.09364 -0.999949 0
M  V30 8574 H 818.59 3.26517 -0.0737312 0
M  V30 8575 H 817.249 2.94578 -2.18219 0
M  V30 8576 H 816.897 4.97233 -0.759518 0
M  V30 8577 H 816.597 5.32734 -2.47928 0
M  V30 8578 H 818.121 5.86042 -1.71427 0
M  V30 8579 H 819.535 4.50935 -3.5402 0
M  V30 8580 H 817.932 4.21278 -4.2737 0
M  V30 8581 H 819.002 2.84193 -3.9289 0
M  V30 8582 N 820.346 1.18468 1.03938 0
M  V30 8583 C 821.592 0.982286 1.77423 0
M  V30 8584 C 821.925 -0.48679 1.88 0
M  V30 8585 O 821.2 -1.36146 1.38905 0
M  V30 8586 C 821.483 1.63929 3.20623 0
M  V30 8587 C 821.336 3.18132 3.17982 0
M  V30 8588 C 822.655 1.3536 4.18767 0
M  V30 8589 H 819.774 0.358264 0.644062 0
M  V30 8590 H 822.416 1.46154 1.21405 0
M  V30 8591 H 820.566 1.2318 3.68455 0
M  V30 8592 H 822.238 3.68024 2.78129 0
M  V30 8593 H 820.481 3.50225 2.55978 0
M  V30 8594 H 821.152 3.5924 4.19107 0
M  V30 8595 H 823.628 1.70669 3.79488 0
M  V30 8596 H 822.504 1.83896 5.17178 0
M  V30 8597 H 822.765 0.276722 4.41233 0
M  V30 8598 N 821.824 -1.22873 0.986916 0
M  V30 8599 C 823.24 -1.43594 0.696633 0
M  V30 8600 C 823.44 -1.87622 -0.734869 0
M  V30 8601 O 822.496 -2.02633 -1.50652 0
M  V30 8602 C 823.809 -2.48231 1.69711 0
M  V30 8603 C 825.357 -2.62037 1.71188 0
M  V30 8604 C 825.832 -3.6989 2.70084 0
M  V30 8605 N 827.323 -3.77341 2.68641 0
M  V30 8606 C 828.058 -4.6037 3.41829 0
M  V30 8607 N 827.554 -5.47438 4.24598 0
M  V30 8608 N 829.347 -4.54626 3.30563 0
M  V30 8609 H 821.498 -0.925982 1.91153 0
M  V30 8610 H 823.761 -0.46866 0.824052 0
M  V30 8611 H 823.467 -2.22812 2.72117 0
M  V30 8612 H 823.341 -3.46731 1.48516 0
M  V30 8613 H 825.728 -2.86803 0.694837 0
M  V30 8614 H 825.809 -1.63831 1.96451 0
M  V30 8615 H 825.453 -3.45872 3.71934 0
M  V30 8616 H 825.383 -4.67652 2.42093 0
M  V30 8617 H 827.874 -3.15124 2.08578 0
M  V30 8618 H 828.187 -6.078 4.77283 0
M  V30 8619 H 826.532 -5.4704 4.28687 0
M  V30 8620 H 829.723 -3.85627 2.65347 0
M  V30 8621 H 829.896 -5.19103 3.8786 0
M  V30 8622 N 823.302 -0.75937 -1.38099 0
M  V30 8623 C 824.55 -0.317485 -1.99591 0
M  V30 8624 C 824.871 1.10628 -1.60581 0
M  V30 8625 O 824.141 1.7575 -0.865378 0
M  V30 8626 H 822.721 -0.114397 -0.738189 0
M  V30 8627 H 825.383 -0.974749 -1.68774 0
M  V30 8628 H 824.479 -0.385227 -3.09713 0
M  V30 8629 N 824.78 1.49157 -0.508906 0
M  V30 8630 C 826.005 2.07376 0.0315182 0
M  V30 8631 C 826.43 1.36575 1.2934 0
M  V30 8632 O 825.788 0.424963 1.76249 0
M  V30 8633 C 825.836 3.59661 0.260118 0
M  V30 8634 O 824.94 3.90255 1.33322 0
M  V30 8635 H 824.281 0.663334 -0.029739 0
M  V30 8636 H 826.811 1.91857 -0.710791 0
M  V30 8637 H 826.821 4.05056 0.489225 0
M  V30 8638 H 825.496 4.10601 -0.661794 0
M  V30 8639 H 824.073 3.56661 1.08844 0
M  V30 8640 N 826.258 0.243083 1.55714 0
M  V30 8641 C 827.669 -0.260788 1.8487 0
M  V30 8642 C 828.02 -1.57879 1.16485 0
M  V30 8643 O 827.145 -2.1184 0.441908 0
M  V30 8644 C 827.74 -0.479954 3.35383 0
M  V30 8645 C 826.299 -0.928096 3.64778 0
M  V30 8646 C 825.446 -0.00316416 2.773 0
M  V30 8647 H 828.397 0.465743 1.51712 0
M  V30 8648 H 828.418 -1.32308 3.56756 0
M  V30 8649 H 827.93 0.479468 3.85127 0
M  V30 8650 H 826.031 -1.90012 3.20509 0
M  V30 8651 H 826.144 -0.7876 4.72582 0
M  V30 8652 H 824.508 -0.513849 2.49463 0
M  V30 8653 H 825.291 0.951562 3.29849 0
M  V30 8654 N 827.736 -1.57571 -0.0300757 0
M  V30 8655 C 828.976 -1.91074 -0.725946 0
M  V30 8656 C 829.34 -0.841545 -1.72575 0
M  V30 8657 O 830.541 -1.06088 -2.46979 0
M  V30 8658 C 828.812 -3.2973 -1.37888 0
M  V30 8659 S 830.371 -3.85065 -2.10405 0
M  V30 8660 H 827.189 -0.669084 -0.240515 0
M  V30 8661 H 829.791 -1.9549 0.019384 0
M  V30 8662 H 828.495 -4.05411 -0.637974 0
M  V30 8663 H 828.026 -3.28614 -2.16278 0
M  V30 8664 H 830.041 -3.63711 -3.37533 0
M  V30 8665 N 829.214 0.302327 -1.54673 0
M  V30 8666 C 830.46 1.03924 -1.74149 0
M  V30 8667 C 830.793 1.86968 -0.525041 0
M  V30 8668 O 830.068 1.88538 0.477868 0
M  V30 8669 C 830.351 1.94633 -3.02969 0
M  V30 8670 C 830.204 1.14778 -4.34909 0
M  V30 8671 C 831.523 2.93826 -3.27649 0
M  V30 8672 H 828.642 0.376405 -0.633631 0
M  V30 8673 H 831.284 0.314007 -1.87387 0
M  V30 8674 H 829.434 2.56471 -2.91813 0
M  V30 8675 H 831.106 0.552363 -4.57981 0
M  V30 8676 H 829.349 0.450462 -4.31455 0
M  V30 8677 H 830.02 1.81495 -5.21309 0
M  V30 8678 H 832.496 2.42117 -3.38406 0
M  V30 8679 H 831.372 3.54462 -4.19104 0
M  V30 8680 H 831.633 3.67416 -2.45882 0
M  V30 8681 N 830.692 1.47107 0.565454 0
M  V30 8682 C 831.602 1.61591 1.70075 0
M  V30 8683 C 832.618 0.498931 1.66693 0
M  V30 8684 O 833.794 0.765372 1.8629 0
M  V30 8685 C 830.859 1.61887 3.06583 0
M  V30 8686 C 829.92 2.84949 3.21096 0
M  V30 8687 C 829.153 2.85221 4.51093 0
M  V30 8688 O 829.376 1.94959 5.36048 0
M  V30 8689 O 828.31 3.76982 4.69221 0
M  V30 8690 H 832.136 2.57638 1.60799 0
M  V30 8691 H 829.721 1.30097 0.73451 0
M  V30 8692 H 831.603 1.64809 3.87835 0
M  V30 8693 H 830.278 0.69005 3.16259 0
M  V30 8694 H 829.185 2.87575 2.39273 0
M  V30 8695 H 830.518 3.77098 3.1632 0
M  V30 8696 N 832.17 -0.811516 1.35101 0
M  V30 8697 C 833.395 -1.60499 1.31358 0
M  V30 8698 C 833.82 -1.87793 -0.107383 0
M  V30 8699 O 833.178 -1.46161 -1.07268 0
M  V30 8700 C 833.226 -2.91612 2.12119 0
M  V30 8701 O 832.33 -3.84211 1.49853 0
M  V30 8702 H 831.671 -0.487702 0.450603 0
M  V30 8703 H 834.201 -1.00758 1.7807 0
M  V30 8704 H 834.211 -3.4108 2.23894 0
M  V30 8705 H 832.886 -2.71071 3.15426 0
M  V30 8706 H 831.463 -3.42751 1.46889 0
M  V30 8707 N 833.648 -1.19017 -1.03309 0
M  V30 8708 C 834.888 -1.00129 -1.78195 0
M  V30 8709 C 835.252 0.460236 -1.86402 0
M  V30 8710 O 836.453 0.768802 -2.57571 0
M  V30 8711 C 834.724 -1.64703 -3.17187 0
M  V30 8712 S 836.283 -1.60695 -4.08317 0
M  V30 8713 H 833.101 -0.359395 -0.613479 0
M  V30 8714 H 835.703 -1.51293 -1.23818 0
M  V30 8715 H 834.407 -2.70283 -3.08829 0
M  V30 8716 H 833.938 -1.136 -3.76641 0
M  V30 8717 H 835.953 -0.628171 -4.92208 0
M  V30 8718 N 835.127 1.22348 -0.993418 0
M  V30 8719 C 836.373 1.91689 -0.680217 0
M  V30 8720 C 836.728 1.75912 0.779269 0
M  V30 8721 O 836.021 1.11761 1.55628 0
M  V30 8722 C 836.215 3.42477 -1.02197 0
M  V30 8723 C 836.044 3.72923 -2.51313 0
M  V30 8724 C 834.814 3.9291 -3.17726 0
M  V30 8725 C 837.012 3.7736 -3.49434 0
M  V30 8726 N 834.994 4.10672 -4.56313 0
M  V30 8727 C 836.365 4.00269 -4.73481 0
M  V30 8728 C 838.42 3.60211 -3.43733 0
M  V30 8729 C 837.123 4.0781 -5.92523 0
M  V30 8730 C 839.149 3.69011 -4.62152 0
M  V30 8731 C 838.511 3.92371 -5.85 0
M  V30 8732 H 834.61 0.722086 -0.300193 0
M  V30 8733 H 837.194 1.47273 -1.27353 0
M  V30 8734 H 835.365 3.85699 -0.457223 0
M  V30 8735 H 837.097 3.99204 -0.664702 0
M  V30 8736 H 833.852 3.90345 -2.68193 0
M  V30 8737 H 834.276 4.2348 -5.28199 0
M  V30 8738 H 838.918 3.41137 -2.49771 0
M  V30 8739 H 836.636 4.25688 -6.86888 0
M  V30 8740 H 840.222 3.5708 -4.59331 0
M  V30 8741 H 839.102 3.9901 -6.75101 0
M  V30 8742 N 836.605 0.766683 1.37694 0
M  V30 8743 C 837.568 0.155849 2.2867 0
M  V30 8744 C 838.568 -0.633509 1.47795 0
M  V30 8745 O 839.758 -0.457844 1.68076 0
M  V30 8746 C 836.89 -0.786965 3.31692 0
M  V30 8747 H 838.083 0.957748 2.84196 0
M  V30 8748 H 835.636 0.534554 1.46875 0
M  V30 8749 H 836.371 -1.61406 2.8128 0
M  V30 8750 H 836.156 -0.223182 3.91464 0
M  V30 8751 H 837.646 -1.20994 3.99688 0
M  V30 8752 N 838.083 -1.48885 0.516809 0
M  V30 8753 C 839.494 -1.86557 0.0729921 0
M  V30 8754 C 839.845 -1.42767 -1.34581 0
M  V30 8755 O 838.97 -0.812514 -2.00567 0
M  V30 8756 C 839.565 -3.38567 0.125686 0
M  V30 8757 C 838.124 -3.75481 -0.262867 0
M  V30 8758 C 837.271 -2.72913 0.491281 0
M  V30 8759 H 840.222 -1.40978 0.728767 0
M  V30 8760 H 840.243 -3.74629 -0.665831 0
M  V30 8761 H 839.755 -3.70408 1.15842 0
M  V30 8762 H 837.856 -3.49251 -1.29824 0
M  V30 8763 H 837.969 -4.79052 0.067579 0
M  V30 8764 H 836.333 -2.54627 -0.0608525 0
M  V30 8765 H 837.116 -3.07599 1.5244 0
M  V30 8766 N 839.561 -0.251338 -1.55583 0
M  V30 8767 C 840.524 0.63305 -2.20284 0
M  V30 8768 C 841.524 1.09941 -1.17344 0
M  V30 8769 O 842.714 1.00341 -1.42399 0
M  V30 8770 C 839.846 1.8706 -2.84993 0
M  V30 8771 H 841.039 0.0684846 -2.99822 0
M  V30 8772 H 838.592 -0.00181653 -1.563 0
M  V30 8773 H 839.327 2.47629 -2.09405 0
M  V30 8774 H 839.112 1.54436 -3.60405 0
M  V30 8775 H 840.602 2.50004 -3.34496 0
M  V30 8776 N 841.039 1.57585 0.0217189 0
M  V30 8777 C 842.45 1.7787 0.567377 0
M  V30 8778 C 842.801 0.883337 1.7519 0
M  V30 8779 O 841.926 0.0800819 2.16252 0
M  V30 8780 C 842.521 3.2257 1.03606 0
M  V30 8781 C 841.08 3.44026 1.52718 0
M  V30 8782 C 840.227 2.73313 0.468545 0
M  V30 8783 H 843.178 1.57377 -0.2045 0
M  V30 8784 H 843.199 3.29488 1.9031 0
M  V30 8785 H 842.711 3.87711 0.173739 0
M  V30 8786 H 840.812 2.8407 2.41111 0
M  V30 8787 H 840.925 4.52659 1.56962 0
M  V30 8788 H 839.289 2.37299 0.925263 0
M  V30 8789 H 840.072 3.41141 -0.384438 0
M  V30 8790 N 842.517 -0.29412 1.54831 0
M  V30 8791 C 843.765 -1.02643 1.74094 0
M  V30 8792 C 844.086 -1.87563 0.533402 0
M  V30 8793 O 843.356 -1.9061 -0.452192 0
M  V30 8794 H 841.936 -0.381959 0.641963 0
M  V30 8795 H 844.598 -0.323444 1.92197 0
M  V30 8796 H 843.694 -1.67558 2.63307 0
M  V30 8797 N 843.995 -1.47404 -0.557645 0
M  V30 8798 C 845.22 -1.57868 -1.34508 0
M  V30 8799 C 845.645 -0.229151 -1.86699 0
M  V30 8800 O 845.003 0.794908 -1.62944 0
M  V30 8801 C 845.051 -2.60712 -2.49122 0
M  V30 8802 O 844.155 -2.15952 -3.51338 0
M  V30 8803 H 843.496 -0.530335 -0.399551 0
M  V30 8804 H 846.026 -1.93181 -0.673954 0
M  V30 8805 H 846.036 -2.81118 -2.95697 0
M  V30 8806 H 844.711 -3.58701 -2.10491 0
M  V30 8807 H 843.288 -2.05644 -3.11071 0
M  V30 8808 N 845.473 0.80434 -1.35529 0
M  V30 8809 C 846.884 1.37849 -1.25915 0
M  V30 8810 C 847.235 1.95905 0.107495 0
M  V30 8811 O 846.36 1.91462 1.00852 0
M  V30 8812 C 846.955 2.50608 -2.27994 0
M  V30 8813 C 845.514 3.03879 -2.22114 0
M  V30 8814 C 844.661 1.76856 -2.13582 0
M  V30 8815 H 847.612 0.607192 -1.46625 0
M  V30 8816 H 847.633 3.29221 -1.90772 0
M  V30 8817 H 847.145 2.08323 -3.27449 0
M  V30 8818 H 845.246 3.50622 -1.26077 0
M  V30 8819 H 845.359 3.61707 -3.14173 0
M  V30 8820 H 843.723 1.98498 -1.59595 0
M  V30 8821 H 844.506 1.36721 -3.14901 0
M  V30 8822 N 846.951 1.19563 1.02676 0
M  V30 8823 C 847.914 0.937182 2.09164 0
M  V30 8824 C 848.914 -0.0831927 1.60585 0
M  V30 8825 O 850.104 0.15178 1.73538 0
M  V30 8826 C 847.236 0.408912 3.38439 0
M  V30 8827 H 848.429 1.88164 2.33526 0
M  V30 8828 H 845.982 1.00959 1.19319 0
M  V30 8829 H 846.717 -0.541497 3.19747 0
M  V30 8830 H 846.502 1.14464 3.7502 0
M  V30 8831 H 847.992 0.247242 4.16867 0
M  V30 8832 N 848.429 -1.21819 0.999893 0
M  V30 8833 C 849.845 -1.42847 0.711824 0
M  V30 8834 C 850.045 -1.88391 -0.714928 0
M  V30 8835 O 849.101 -2.0422 -1.48494 0
M  V30 8836 C 850.414 -2.46417 1.72334 0
M  V30 8837 C 851.962 -2.60207 1.73958 0
M  V30 8838 C 852.437 -3.67005 2.73992 0
M  V30 8839 N 853.928 -3.7447 2.72628 0
M  V30 8840 C 854.663 -4.56718 3.46693 0
M  V30 8841 N 854.159 -5.42904 4.3038 0
M  V30 8842 N 855.952 -4.51094 3.35366 0
M  V30 8843 H 848.103 -0.905656 1.92124 0
M  V30 8844 H 850.366 -0.459893 0.828977 0
M  V30 8845 H 850.072 -2.19914 2.74465 0
M  V30 8846 H 849.946 -3.45137 1.52186 0
M  V30 8847 H 852.333 -2.8605 0.725217 0
M  V30 8848 H 852.414 -1.61739 1.98177 0
M  V30 8849 H 852.058 -3.41908 3.75582 0
M  V30 8850 H 851.988 -4.65058 2.4704 0
M  V30 8851 H 854.479 -3.12895 2.11909 0
M  V30 8852 H 854.792 -6.02704 4.83702 0
M  V30 8853 H 853.137 -5.42463 4.34464 0
M  V30 8854 H 856.328 -3.82791 2.69423 0
M  V30 8855 H 856.501 -5.1496 3.93344 0
M  V30 8856 N 849.908 -0.773975 -1.37286 0
M  V30 8857 C 850.841 -0.108019 -2.27944 0
M  V30 8858 C 851.819 0.706737 -1.46438 0
M  V30 8859 O 853.003 0.681025 -1.75768 0
M  V30 8860 C 850.13 0.853199 -3.27778 0
M  V30 8861 C 849.176 0.122164 -4.26325 0
M  V30 8862 S 850.009 -1.19136 -5.22079 0
M  V30 8863 C 851.165 -0.233737 -6.25463 0
M  V30 8864 H 851.398 -0.876743 -2.84078 0
M  V30 8865 H 848.931 -0.567468 -1.43594 0
M  V30 8866 H 850.889 1.40238 -3.85803 0
M  V30 8867 H 849.55 1.59505 -2.70586 0
M  V30 8868 H 848.743 0.850926 -4.96765 0
M  V30 8869 H 848.345 -0.356079 -3.72301 0
M  V30 8870 H 850.637 0.59305 -6.74899 0
M  V30 8871 H 851.58 -0.906373 -7.02275 0
M  V30 8872 H 851.988 0.156048 -5.64284 0
M  V30 8873 N 851.386 1.48609 -0.524698 0
M  V30 8874 C 852.336 2.26505 0.260696 0
M  V30 8875 C 853.32 1.32378 0.914597 0
M  V30 8876 O 854.512 1.5695 0.818277 0
M  V30 8877 C 851.641 3.17313 1.31024 0
M  V30 8878 C 850.727 4.18911 0.661391 0
M  V30 8879 N 851.118 5.05183 -0.24981 0
M  V30 8880 C 849.416 4.36425 0.91922 0
M  V30 8881 C 850.117 5.78348 -0.623598 0
M  V30 8882 N 849.093 5.43598 0.0140839 0
M  V30 8883 H 852.895 2.90582 -0.440388 0
M  V30 8884 H 850.409 1.5875 -0.342364 0
M  V30 8885 H 852.406 3.71772 1.88656 0
M  V30 8886 H 851.066 2.54791 2.01275 0
M  V30 8887 H 852.077 5.1415 -0.622093 0
M  V30 8888 H 848.754 3.85095 1.6127 0
M  V30 8889 H 850.144 6.57775 -1.37046 0
M  V30 8890 N 852.864 0.259585 1.55447 0
M  V30 8891 C 854.275 -0.241165 1.85136 0
M  V30 8892 C 854.626 -1.56634 1.18153 0
M  V30 8893 O 853.751 -2.11359 0.464351 0
M  V30 8894 C 854.346 -0.444355 3.35873 0
M  V30 8895 C 852.905 -0.889354 3.65742 0
M  V30 8896 C 852.052 0.0262474 2.77288 0
M  V30 8897 H 855.003 0.481808 1.51209 0
M  V30 8898 H 855.024 -1.28517 3.58139 0
M  V30 8899 H 854.536 0.520289 3.84597 0
M  V30 8900 H 852.637 -1.86602 3.22507 0
M  V30 8901 H 852.75 -0.737432 4.73391 0
M  V30 8902 H 851.114 -0.487361 2.49994 0
M  V30 8903 H 851.897 0.986494 3.28821 0
M  V30 8904 N 854.342 -1.57594 -0.0133615 0
M  V30 8905 C 855.272 -2.10611 -1.00823 0
M  V30 8906 C 856.253 -1.01217 -1.36708 0
M  V30 8907 O 857.438 -1.28827 -1.45318 0
M  V30 8908 C 854.568 -2.59844 -2.30431 0
M  V30 8909 C 853.522 -3.73644 -2.08745 0
M  V30 8910 C 852.848 -4.09141 -3.4425 0
M  V30 8911 C 854.148 -5.01454 -1.46086 0
M  V30 8912 H 855.842 -2.93985 -0.566849 0
M  V30 8913 H 853.388 -1.41423 -0.271219 0
M  V30 8914 H 855.341 -2.95557 -3.00373 0
M  V30 8915 H 854.065 -1.73573 -2.76658 0
M  V30 8916 H 852.724 -3.38303 -1.41232 0
M  V30 8917 H 852.372 -3.19914 -3.88155 0
M  V30 8918 H 852.072 -4.85802 -3.3056 0
M  V30 8919 H 853.596 -4.47402 -4.15528 0
M  V30 8920 H 855.01 -5.35024 -2.05966 0
M  V30 8921 H 853.407 -5.82832 -1.42924 0
M  V30 8922 H 854.477 -4.83003 -0.428471 0
M  V30 8923 N 855.82 0.285905 -1.54985 0
M  V30 8924 C 857.236 0.632405 -1.46536 0
M  V30 8925 C 857.436 1.90074 -0.668888 0
M  V30 8926 O 856.492 2.51839 -0.182586 0
M  V30 8927 C 857.805 0.771361 -2.90638 0
M  V30 8928 C 859.353 0.866262 -3.00774 0
M  V30 8929 C 859.828 1.0371 -4.46103 0
M  V30 8930 N 861.319 1.10294 -4.49877 0
M  V30 8931 C 862.054 1.25369 -5.59527 0
M  V30 8932 N 861.55 1.37246 -6.7907 0
M  V30 8933 N 863.343 1.28377 -5.47244 0
M  V30 8934 H 855.494 -0.547226 -2.0523 0
M  V30 8935 H 857.757 -0.183298 -0.930111 0
M  V30 8936 H 857.463 -0.0899485 -3.51585 0
M  V30 8937 H 857.337 1.65569 -3.3892 0
M  V30 8938 H 859.724 1.71805 -2.39931 0
M  V30 8939 H 859.805 -0.0424049 -2.55765 0
M  V30 8940 H 859.449 0.190021 -5.07544 0
M  V30 8941 H 859.379 1.96022 -4.88757 0
M  V30 8942 H 861.87 1.02407 -3.6376 0
M  V30 8943 H 862.183 1.48546 -7.58389 0
M  V30 8944 H 860.528 1.34274 -6.81906 0
M  V30 8945 H 863.719 1.1872 -4.52795 0
M  V30 8946 H 863.892 1.39782 -6.32744 0
M  V30 8947 N 857.298 1.47698 0.54982 0
M  V30 8948 C 858.709 1.48474 1.13191 0
M  V30 8949 C 859.06 0.243504 1.94683 0
M  V30 8950 O 858.185 -0.651009 2.06375 0
M  V30 8951 C 858.78 2.69022 2.05944 0
M  V30 8952 C 857.339 2.72733 2.5941 0
M  V30 8953 C 856.486 2.41691 1.35944 0
M  V30 8954 H 859.437 1.55101 0.336048 0
M  V30 8955 H 859.458 2.46412 2.89934 0
M  V30 8956 H 858.97 3.59345 1.46605 0
M  V30 8957 H 857.071 1.86568 3.22526 0
M  V30 8958 H 857.184 3.73628 2.99899 0
M  V30 8959 H 855.548 1.92428 1.66864 0
M  V30 8960 H 856.331 3.34231 0.783869 0
M  V30 8961 N 858.776 -0.797141 1.35954 0
M  V30 8962 C 859.686 -1.94088 1.31784 0
M  V30 8963 C 860.702 -1.72588 0.221227 0
M  V30 8964 O 861.878 -1.96256 0.452255 0
M  V30 8965 C 858.943 -3.28828 1.09878 0
M  V30 8966 C 858.004 -3.63158 2.28942 0
M  V30 8967 C 857.237 -4.91469 2.08072 0
M  V30 8968 O 857.46 -5.60616 1.05196 0
M  V30 8969 O 856.394 -5.24277 2.95664 0
M  V30 8970 H 860.22 -2.00554 2.28061 0
M  V30 8971 H 857.805 -0.936288 1.16422 0
M  V30 8972 H 859.687 -4.09473 0.995485 0
M  V30 8973 H 858.362 -3.23271 0.16659 0
M  V30 8974 H 857.269 -2.82851 2.44839 0
M  V30 8975 H 858.602 -3.7343 3.20641 0
M  V30 8976 N 860.254 -1.20106 -1.0204 0
M  V30 8977 C 861.164 -0.962051 -2.13967 0
M  V30 8978 C 862.18 0.0808053 -1.73812 0
M  V30 8979 O 863.356 -0.105774 -2.01122 0
M  V30 8980 C 860.421 -0.513108 -3.42882 0
M  V30 8981 C 859.482 -1.62636 -3.97301 0
M  V30 8982 C 858.715 -1.19875 -5.20063 0
M  V30 8983 O 858.938 -0.0658423 -5.70362 0
M  V30 8984 O 857.872 -2.00467 -5.67536 0
M  V30 8985 H 861.698 -1.8991 -2.36998 0
M  V30 8986 H 859.283 -0.984608 -1.12365 0
M  V30 8987 H 861.165 -0.271797 -4.20523 0
M  V30 8988 H 859.84 0.395402 -3.21276 0
M  V30 8989 H 858.747 -1.92192 -3.20957 0
M  V30 8990 H 860.08 -2.51174 -4.23288 0
M  V30 8991 N 861.732 1.21287 -1.00634 0
M  V30 8992 C 862.695 2.21927 -0.572821 0
M  V30 8993 C 863.695 1.5691 0.351541 0
M  V30 8994 O 864.885 1.73623 0.141643 0
M  V30 8995 C 862.017 3.40501 0.164932 0
M  V30 8996 H 863.21 2.61795 -1.463 0
M  V30 8997 H 860.763 1.34571 -0.794998 0
M  V30 8998 H 861.498 3.06123 1.07049 0
M  V30 8999 H 861.283 3.88912 -0.498962 0
M  V30 9000 H 862.773 4.15103 0.455945 0
M  V30 9001 N 863.21 0.781244 1.36873 0
M  V30 9002 C 864.143 0.120106 2.27884 0
M  V30 9003 C 865.121 -0.698961 1.4681 0
M  V30 9004 O 866.305 -0.671694 1.76126 0
M  V30 9005 C 863.432 -0.835804 3.28226 0
M  V30 9006 C 862.478 -0.0995527 4.26384 0
M  V30 9007 S 863.311 1.21903 5.2144 0
M  V30 9008 C 864.467 0.266904 6.25331 0
M  V30 9009 H 864.7 0.891796 2.83609 0
M  V30 9010 H 862.233 0.575075 1.43291 0
M  V30 9011 H 864.191 -1.3819 3.86541 0
M  V30 9012 H 862.852 -1.58068 2.71428 0
M  V30 9013 H 862.045 -0.82457 4.97209 0
M  V30 9014 H 861.647 0.375818 3.72107 0
M  V30 9015 H 863.939 -0.55725 6.75204 0
M  V30 9016 H 864.882 0.943603 7.01785 0
M  V30 9017 H 865.29 -0.126121 5.64359 0
M  V30 9018 N 864.689 -1.48329 0.532571 0
M  V30 9019 C 865.599 -2.33445 -0.232546 0
M  V30 9020 C 866.615 -1.46651 -0.93645 0
M  V30 9021 O 867.791 -1.79627 -0.910834 0
M  V30 9022 C 864.856 -3.22824 -1.26434 0
M  V30 9023 C 863.917 -4.25492 -0.570511 0
M  V30 9024 C 863.15 -5.10601 -1.55315 0
M  V30 9025 O 863.373 -4.97733 -2.78599 0
M  V30 9026 O 862.307 -5.91927 -1.09112 0
M  V30 9027 H 866.133 -3.00119 0.464988 0
M  V30 9028 H 863.718 -1.46489 0.293462 0
M  V30 9029 H 865.6 -3.78103 -1.86055 0
M  V30 9030 H 864.275 -2.58807 -1.94424 0
M  V30 9031 H 863.182 -3.74041 0.0662587 0
M  V30 9032 H 864.515 -4.92154 0.0674904 0
M  V30 9033 N 866.167 -0.267825 -1.55308 0
M  V30 9034 C 867.578 0.231344 -1.85261 0
M  V30 9035 C 867.929 1.56006 -1.18982 0
M  V30 9036 O 867.054 2.1111 -0.475554 0
M  V30 9037 C 867.649 0.426537 -3.36104 0
M  V30 9038 C 866.208 0.869945 -3.66209 0
M  V30 9039 C 865.355 -0.0409522 -2.7727 0
M  V30 9040 H 868.306 -0.489821 -1.50952 0
M  V30 9041 H 868.327 1.26616 -3.58816 0
M  V30 9042 H 867.839 -0.540678 -3.84315 0
M  V30 9043 H 865.94 1.84889 -3.23492 0
M  V30 9044 H 866.053 0.712316 -4.73775 0
M  V30 9045 H 864.417 0.474097 -2.50249 0
M  V30 9046 H 865.2 -1.00392 -3.28293 0
M  V30 9047 N 867.645 1.57599 0.00500368 0
M  V30 9048 C 868.555 2.11532 1.01446 0
M  V30 9049 C 869.571 1.05941 1.3803 0
M  V30 9050 O 870.747 1.37815 1.46864 0
M  V30 9051 C 867.812 2.60382 2.28915 0
M  V30 9052 C 866.873 3.80554 1.98689 0
M  V30 9053 C 866.106 4.27064 3.20081 0
M  V30 9054 O 866.329 3.72939 4.31593 0
M  V30 9055 O 865.263 5.1927 3.04371 0
M  V30 9056 H 869.089 2.97993 0.586011 0
M  V30 9057 H 866.674 1.47718 0.223519 0
M  V30 9058 H 868.556 2.92024 3.03809 0
M  V30 9059 H 867.231 1.77022 2.71007 0
M  V30 9060 H 866.138 3.53893 1.21286 0
M  V30 9061 H 867.471 4.64972 1.61437 0
M  V30 9062 O 869.162 -0.147371 1.60826 0
M  V30 9063 H 869.853 -0.78165 1.77228 0
M  V30 END ATOM
M  V30 BEGIN BOND
M  V30 END BOND
M  V30 END CTAB
M  END
$$$$
