drugbank_target|P9WQ77 Probable L-lysine-epsilon aminotransferase (DB08071)
 OpenBabel12092120473D

  0  0  0     0  0            999 V3000
M  V30 BEGIN CTAB
M  V30 COUNTS 6882 6958 0 0 0
M  V30 BEGIN ATOM
M  V30 1 H -0.908 1.98254 -0.117106 0
M  V30 2 N 0 1.576 0 0
M  V30 3 C 0.933 2.03868 1.02534 0
M  V30 4 C 1.911 0.928543 1.3348 0
M  V30 5 O 3.095 1.19667 1.45644 0
M  V30 6 C 0.222 2.43627 2.35294 0
M  V30 7 C -0.732 3.65373 2.2001 0
M  V30 8 S 0.101 5.13292 1.52614 0
M  V30 9 C 1.257 5.56322 2.86805 0
M  V30 10 H 1.49 2.90518 0.631377 0
M  V30 11 H -0.977 1.52953 0.210867 0
M  V30 12 H 0.981 2.67203 3.11629 0
M  V30 13 H -0.358 1.57376 2.7183 0
M  V30 14 H -1.165 3.90944 3.18086 0
M  V30 15 H -1.563 3.418 1.51819 0
M  V30 16 H 0.729 5.58782 3.83104 0
M  V30 17 H 1.672 6.56266 2.65933 0
M  V30 18 H 2.08 4.83886 2.90714 0
M  V30 19 N 1.4781 -0.272755 1.55222 0
M  V30 20 C 2.4411 -1.32041 1.87344 0
M  V30 21 C 3.4411 -1.42342 0.74803 0
M  V30 22 O 4.6311 -1.41488 1.0162 0
M  V30 23 C 1.7631 -2.70173 2.07893 0
M  V30 24 H 2.9561 -1.04789 2.80997 0
M  V30 25 H 0.5091 -0.51083 1.47717 0
M  V30 26 H 1.2441 -3.02605 1.16622 0
M  V30 27 H 1.0291 -2.64082 2.89833 0
M  V30 28 H 2.5191 -3.45869 2.34017 0
M  V30 29 N 2.9562 -1.48159 -0.537278 0
M  V30 30 C 3.9192 -1.61665 -1.62472 0
M  V30 31 C 4.9192 -0.490395 -1.5314 0
M  V30 32 O 6.1092 -0.755998 -1.5694 0
M  V30 33 C 3.2412 -1.57997 -3.02076 0
M  V30 34 H 4.4342 -2.58621 -1.51839 0
M  V30 35 H 1.9872 -1.36647 -0.758771 0
M  V30 36 H 2.7222 -0.624913 -3.18222 0
M  V30 37 H 2.5072 -2.39755 -3.10258 0
M  V30 38 H 3.9972 -1.70627 -3.81151 0
M  V30 39 N 4.4343 0.785586 -1.36625 0
M  V30 40 C 5.6803 1.54591 -1.31261 0
M  V30 41 C 6.0133 1.93906 0.106823 0
M  V30 42 O 5.2883 1.63007 1.06108 0
M  V30 43 C 5.5713 2.82038 -2.23889 0
M  V30 44 C 5.4243 2.49066 -3.74548 0
M  V30 45 C 6.7433 3.83887 -2.15217 0
M  V30 46 H 3.8623 0.560846 -0.478143 0
M  V30 47 H 6.5043 0.902278 -1.67209 0
M  V30 48 H 4.6543 3.36961 -1.93363 0
M  V30 49 H 6.3263 2.00164 -4.15611 0
M  V30 50 H 4.5693 1.81954 -3.93796 0
M  V30 51 H 5.2403 3.40109 -4.34776 0
M  V30 52 H 7.7163 3.38421 -2.42096 0
M  V30 53 H 6.5923 4.70806 -2.82193 0
M  V30 54 H 6.8533 4.27131 -1.14068 0
M  V30 55 N 5.9124 1.20967 1.01018 0
M  V30 56 C 7.1584 1.02526 1.74975 0
M  V30 57 C 7.4914 -0.4408 1.89131 0
M  V30 58 O 6.7664 -1.32718 1.42184 0
M  V30 59 C 7.0494 1.71699 3.1653 0
M  V30 60 C 6.9024 3.25791 3.10129 0
M  V30 61 C 8.2214 1.45531 4.15342 0
M  V30 62 H 5.3404 0.373863 0.635134 0
M  V30 63 H 7.9824 1.49071 1.17805 0
M  V30 64 H 6.1324 1.32128 3.65341 0
M  V30 65 H 7.8044 3.74697 2.69072 0
M  V30 66 H 6.0474 3.56363 2.47362 0
M  V30 67 H 6.7184 3.69353 4.10222 0
M  V30 68 H 9.1944 1.79872 3.75213 0
M  V30 69 H 8.0704 1.96453 5.1254 0
M  V30 70 H 8.3314 0.384237 4.40427 0
M  V30 71 N 7.3905 -1.2043 1.01659 0
M  V30 72 C 8.3375 -2.23215 0.586822 0
M  V30 73 C 9.3075 -1.61382 -0.393085 0
M  V30 74 O 10.4925 -1.88544 -0.292525 0
M  V30 75 C 7.6325 -3.45032 -0.0687464 0
M  V30 76 C 6.7455 -4.21296 0.955724 0
M  V30 77 C 5.8805 -5.30507 0.271208 0
M  V30 78 C 4.9195 -5.98515 1.28244 0
M  V30 79 N 4.0565 -6.99316 0.62459 0
M  V30 80 H 8.8965 -2.59336 1.46796 0
M  V30 81 H 6.4335 -1.27431 0.734836 0
M  V30 82 H 8.3915 -4.1459 -0.465965 0
M  V30 83 H 7.0215 -3.09604 -0.913529 0
M  V30 84 H 6.0735 -3.50803 1.4711 0
M  V30 85 H 7.3855 -4.6803 1.72479 0
M  V30 86 H 6.5395 -6.06428 -0.18151 0
M  V30 87 H 5.2785 -4.8481 -0.530163 0
M  V30 88 H 4.2835 -5.21355 1.74554 0
M  V30 89 H 5.5085 -6.46298 2.08509 0
M  V30 90 H 3.4545 -6.55812 -0.156914 0
M  V30 91 H 3.3715 -7.44178 1.33172 0
M  V30 92 H 4.6395 -7.79255 0.195462 0
M  V30 93 N 8.8686 -0.792821 -1.36206 0
M  V30 94 C 10.0936 -0.377701 -2.03932 0
M  V30 95 C 10.5186 0.998947 -1.59382 0
M  V30 96 O 9.8766 1.64421 -0.763903 0
M  V30 97 C 9.9246 -0.453635 -3.57735 0
M  V30 98 O 9.0286 0.538151 -4.08874 0
M  V30 99 H 8.3696 -0.159855 -0.644471 0
M  V30 100 H 10.8996 -1.07488 -1.7409 0
M  V30 101 H 10.9096 -0.318464 -4.06755 0
M  V30 102 H 9.5846 -1.45784 -3.89512 0
M  V30 103 H 8.1616 0.364359 -3.71116 0
M  V30 104 N 10.3467 1.47872 -0.545128 0
M  V30 105 C 11.5927 2.02793 -0.0166104 0
M  V30 106 C 11.9257 1.41987 1.32489 0
M  V30 107 O 11.2007 0.571045 1.85928 0
M  V30 108 C 11.4837 3.59989 0.0893294 0
M  V30 109 C 11.3367 4.3125 -1.27841 0
M  V30 110 C 12.6557 4.32606 0.808724 0
M  V30 111 H 9.7747 0.736962 -0.00751035 0
M  V30 112 H 12.4167 1.76433 -0.705085 0
M  V30 113 H 10.5667 3.82579 0.675681 0
M  V30 114 H 12.2387 4.20035 -1.90704 0
M  V30 115 H 10.4817 3.92076 -1.85632 0
M  V30 116 H 11.1527 5.39736 -1.15713 0
M  V30 117 H 13.6287 4.14936 0.310992 0
M  V30 118 H 12.5047 5.42251 0.851782 0
M  V30 119 H 12.7657 4.00963 1.86229 0
M  V30 120 N 11.8248 0.280983 1.55075 0
M  V30 121 C 12.7878 -0.590896 2.21452 0
M  V30 122 C 13.7878 -1.07682 1.19421 0
M  V30 123 O 14.9778 -0.97605 1.44288 0
M  V30 124 C 12.1098 -1.81587 2.88511 0
M  V30 125 H 13.3028 -0.0112554 2.99898 0
M  V30 126 H 10.8558 0.0316438 1.56268 0
M  V30 127 H 11.5908 -2.43587 2.14093 0
M  V30 128 H 11.3758 -1.4753 3.63287 0
M  V30 129 H 12.8658 -2.43575 3.39206 0
M  V30 130 N 13.3029 -1.57598 0.00835791 0
M  V30 131 C 14.2329 -2.1198 -0.979113 0
M  V30 132 C 15.2139 -1.03091 -1.35301 0
M  V30 133 O 16.3989 -1.30818 -1.43528 0
M  V30 134 C 13.5289 -2.62995 -2.26828 0
M  V30 135 C 12.4829 -3.76485 -2.03576 0
M  V30 136 C 11.8089 -4.13846 -3.38579 0
M  V30 137 C 13.1089 -5.0342 -1.39161 0
M  V30 138 H 14.8029 -2.94738 -0.526281 0
M  V30 139 H 12.3489 -1.41783 -0.251704 0
M  V30 140 H 14.3019 -2.99669 -2.96271 0
M  V30 141 H 13.0259 -1.7737 -2.7424 0
M  V30 142 H 11.6849 -3.40217 -1.36557 0
M  V30 143 H 11.3329 -3.25232 -3.83709 0
M  V30 144 H 11.0329 -4.90312 -3.23834 0
M  V30 145 H 12.5569 -4.53086 -4.09323 0
M  V30 146 H 13.9709 -5.37812 -1.98573 0
M  V30 147 H 12.3679 -5.84746 -1.34878 0
M  V30 148 H 13.4379 -4.83548 -0.361868 0
M  V30 149 N 14.781 0.264519 -1.55364 0
M  V30 150 C 15.744 1.31046 -1.88042 0
M  V30 151 C 16.744 1.41943 -0.755569 0
M  V30 152 O 17.934 1.40947 -1.02369 0
M  V30 153 C 15.066 2.69067 -2.09323 0
M  V30 154 H 16.259 1.03297 -2.81549 0
M  V30 155 H 13.812 0.502989 -1.47986 0
M  V30 156 H 14.547 3.01982 -1.18226 0
M  V30 157 H 14.332 2.62542 -2.91229 0
M  V30 158 H 15.822 3.44623 -2.35848 0
M  V30 159 N 16.2591 1.48442 0.529413 0
M  V30 160 C 17.5071 1.56179 1.28267 0
M  V30 161 C 17.8281 0.237721 1.93546 0
M  V30 162 O 17.0981 -0.740779 1.81354 0
M  V30 163 H 15.6781 0.575367 0.476405 0
M  V30 164 H 18.3401 1.84909 0.61602 0
M  V30 165 H 17.4361 2.34312 2.06165 0
M  V30 166 N 17.7372 -0.778329 1.37039 0
M  V30 167 C 19.1532 -1.07796 1.17695 0
M  V30 168 C 19.3532 -2.01498 0.00860115 0
M  V30 169 O 18.4092 -2.43901 -0.653352 0
M  V30 170 C 19.7222 -1.68178 2.49272 0
M  V30 171 C 21.2702 -1.80467 2.55735 0
M  V30 172 C 21.7452 -2.44263 3.87427 0
M  V30 173 N 23.2362 -2.51721 3.88833 0
M  V30 174 C 23.9712 -3.01919 4.87476 0
M  V30 175 N 23.4672 -3.5234 5.96513 0
M  V30 176 N 25.2602 -3.00733 4.74885 0
M  V30 177 H 17.4112 -0.156032 2.11826 0
M  V30 178 H 19.6742 -0.131844 0.938787 0
M  V30 179 H 19.3802 -1.06796 3.35093 0
M  V30 180 H 19.2542 -2.67554 2.65885 0
M  V30 181 H 21.6412 -2.40984 1.70325 0
M  V30 182 H 21.7222 -0.798656 2.43013 0
M  V30 183 H 21.3662 -1.84388 4.73248 0
M  V30 184 H 21.2962 -3.45458 3.9745 0
M  V30 185 H 23.7872 -2.1603 3.10063 0
M  V30 186 H 24.1002 -3.89027 6.67741 0
M  V30 187 H 22.4452 -3.50462 6.00168 0
M  V30 188 H 25.6362 -2.60638 3.88826 0
M  V30 189 H 25.8092 -3.39545 5.51918 0
M  V30 190 N 19.2153 -1.21501 -1.00376 0
M  V30 191 C 20.6263 -1.03146 -1.55621 0
M  V30 192 C 20.9773 0.408375 -1.91903 0
M  V30 193 O 20.1023 1.29177 -1.73616 0
M  V30 194 C 20.6973 -1.86612 -2.82775 0
M  V30 195 C 19.2563 -1.72586 -3.34501 0
M  V30 196 C 18.4033 -1.83747 -2.07683 0
M  V30 197 H 21.3543 -1.35505 -0.826081 0
M  V30 198 H 21.3753 -1.3771 -3.54706 0
M  V30 199 H 20.8873 -2.91399 -2.56336 0
M  V30 200 H 18.9883 -0.704877 -3.65872 0
M  V30 201 H 19.1013 -2.54623 -4.05837 0
M  V30 202 H 17.4653 -1.27069 -2.20739 0
M  V30 203 H 18.2483 -2.90044 -1.83655 0
M  V30 204 N 20.6934 1.19889 -1.02296 0
M  V30 205 C 21.9214 1.9339 -0.735399 0
M  V30 206 C 22.3364 1.75148 0.704887 0
M  V30 207 O 21.6934 1.06954 1.47875 0
M  V30 208 C 21.7444 3.45313 -1.06962 0
M  V30 209 O 21.4654 3.62964 -2.45334 0
M  V30 210 C 22.9664 4.35948 -0.804021 0
M  V30 211 H 20.1864 0.61448 -0.269546 0
M  V30 212 H 22.7304 1.522 -1.36585 0
M  V30 213 H 20.8854 3.84359 -0.484455 0
M  V30 214 H 21.2994 4.56886 -2.57595 0
M  V30 215 H 22.7734 5.41174 -1.0879 0
M  V30 216 H 23.2504 4.3842 0.261691 0
M  V30 217 H 23.8564 4.02574 -1.37164 0
M  V30 218 N 22.1715 0.800033 1.35784 0
M  V30 219 C 23.3995 0.389606 2.03199 0
M  V30 220 C 23.8145 -0.997375 1.60306 0
M  V30 221 O 23.1715 -1.64154 0.797481 0
M  V30 222 C 23.2225 0.455855 3.58614 0
M  V30 223 O 22.9435 1.78815 3.99946 0
M  V30 224 C 24.4445 0.0374032 4.43284 0
M  V30 225 H 21.6645 0.159132 0.651857 0
M  V30 226 H 24.2085 1.08183 1.73541 0
M  V30 227 H 22.3635 -0.188057 3.86943 0
M  V30 228 H 22.7775 1.74636 4.94573 0
M  V30 229 H 24.2515 0.134882 5.51835 0
M  V30 230 H 24.7285 -1.01651 4.27275 0
M  V30 231 H 25.3345 0.654215 4.20238 0
M  V30 232 N 23.6496 -1.47581 0.552962 0
M  V30 233 C 25.0606 -1.86324 0.118463 0
M  V30 234 C 25.4116 -1.46006 -1.3106 0
M  V30 235 O 24.5366 -0.861182 -1.98526 0
M  V30 236 C 25.1316 -3.3816 0.20821 0
M  V30 237 C 23.6906 -3.7601 -0.171226 0
M  V30 238 C 22.8376 -2.71634 0.557686 0
M  V30 239 H 25.7886 -1.39159 0.762928 0
M  V30 240 H 25.8096 -3.76141 -0.574278 0
M  V30 241 H 25.3216 -3.67473 1.24841 0
M  V30 242 H 23.4226 -3.52313 -1.21269 0
M  V30 243 H 23.5356 -4.78745 0.184379 0
M  V30 244 H 21.8996 -2.547 0.00125792 0
M  V30 245 H 22.6826 -3.0379 1.59896 0
M  V30 246 N 25.1277 -0.289203 -1.54924 0
M  V30 247 C 26.4047 0.376032 -1.91951 0
M  V30 248 C 26.7847 1.72622 -1.21511 0
M  V30 249 O 26.1327 2.25853 -0.346767 0
M  V30 250 C 26.3427 0.502378 -3.45365 0
M  V30 251 C 27.6907 0.778741 -4.17398 0
M  V30 252 O 28.7147 0.586647 -3.51336 0
M  V30 253 O 27.5737 1.14698 -5.34328 0
M  V30 254 H 24.6677 0.208167 -0.800372 0
M  V30 255 H 27.2137 -0.336394 -1.66332 0
M  V30 256 H 25.9857 -0.447255 -3.88736 0
M  V30 257 H 25.6087 1.26373 -3.76982 0
M  V30 258 N 26.6058 1.57591 -0.0167156 0
M  V30 259 C 28.0218 1.55946 0.339557 0
M  V30 260 C 28.2218 1.02109 1.73713 0
M  V30 261 O 27.2778 0.662303 2.43659 0
M  V30 262 C 28.5908 3.00037 0.199499 0
M  V30 263 C 30.1388 3.11805 0.273193 0
M  V30 264 C 30.6138 4.57713 0.162068 0
M  V30 265 N 32.1048 4.6268 0.219444 0
M  V30 266 C 32.8398 5.73185 0.157054 0
M  V30 267 N 32.3358 6.92786 0.0442936 0
M  V30 268 N 34.1288 5.61707 0.21014 0
M  V30 269 H 26.2798 1.90921 -0.930758 0
M  V30 270 H 28.5428 0.877674 -0.358319 0
M  V30 271 H 28.2488 3.4333 -0.76273 0
M  V30 272 H 28.1228 3.64387 0.974786 0
M  V30 273 H 30.5098 2.68433 1.22587 0
M  V30 274 H 30.5908 2.50201 -0.532256 0
M  V30 275 H 30.2348 5.01763 -0.78714 0
M  V30 276 H 30.1648 5.17283 0.986222 0
M  V30 277 H 32.6558 3.76649 0.307246 0
M  V30 278 H 32.9688 7.728 0.00304069 0
M  V30 279 H 31.3138 6.94999 0.00968457 0
M  V30 280 H 34.5048 4.6716 0.296546 0
M  V30 281 H 34.6778 6.47807 0.158054 0
M  V30 282 N 28.0839 -0.256276 1.55502 0
M  V30 283 C 29.3299 -0.987079 1.77157 0
M  V30 284 C 29.6629 -1.85327 0.580315 0
M  V30 285 O 28.9379 -1.89874 -0.421686 0
M  V30 286 C 29.2209 -1.85553 3.08613 0
M  V30 287 C 29.0739 -1.01816 4.38125 0
M  V30 288 C 30.3929 -2.8397 3.36228 0
M  V30 289 H 27.5119 -0.357428 0.644526 0
M  V30 290 H 30.1539 -0.258239 1.88237 0
M  V30 291 H 28.3039 -2.47695 2.99298 0
M  V30 292 H 29.9759 -0.416159 4.59419 0
M  V30 293 H 28.2189 -0.322178 4.32602 0
M  V30 294 H 28.8899 -1.65939 5.26468 0
M  V30 295 H 31.3659 -2.31964 3.45445 0
M  V30 296 H 30.2419 -3.41864 4.29442 0
M  V30 297 H 30.5029 -3.59955 2.56681 0
M  V30 298 N 29.562 -1.4872 -0.521534 0
M  V30 299 C 30.512 -1.60269 -1.62166 0
M  V30 300 C 31.496 -0.45935 -1.54204 0
M  V30 301 O 32.688 -0.711241 -1.62081 0
M  V30 302 C 29.817 -1.65344 -3.00859 0
M  V30 303 C 28.903 -2.85187 -3.13894 0
M  V30 304 N 29.294 -4.09509 -2.96877 0
M  V30 305 C 27.592 -2.82695 -3.44963 0
M  V30 306 C 28.293 -4.89959 -3.13552 0
M  V30 307 N 27.269 -4.22934 -3.41508 0
M  V30 308 H 31.071 -2.5413 -1.47632 0
M  V30 309 H 28.585 -1.45209 -0.727194 0
M  V30 310 H 30.582 -1.71713 -3.79895 0
M  V30 311 H 29.242 -0.726058 -3.16478 0
M  V30 312 H 30.253 -4.39814 -2.73467 0
M  V30 313 H 26.93 -1.99249 -3.66887 0
M  V30 314 H 28.32 -5.98654 -3.05061 0
M  V30 315 N 31.0401 0.771051 -1.3745 0
M  V30 316 C 31.9501 1.91538 -1.35464 0
M  V30 317 C 32.9661 1.72134 -0.254123 0
M  V30 318 O 34.1421 1.95358 -0.489626 0
M  V30 319 C 31.2071 3.26671 -1.16134 0
M  V30 320 C 30.2681 3.58723 -2.35831 0
M  V30 321 C 29.5011 4.87409 -2.17413 0
M  V30 322 O 29.7241 5.58506 -1.15876 0
M  V30 323 O 28.6581 5.18539 -3.05615 0
M  V30 324 H 32.4841 1.96165 -2.31847 0
M  V30 325 H 30.0691 0.9139 -1.18187 0
M  V30 326 H 31.9511 4.07499 -1.07345 0
M  V30 327 H 30.6261 3.22894 -0.228251 0
M  V30 328 H 29.5331 2.78127 -2.50192 0
M  V30 329 H 30.8661 3.67243 -3.27709 0
M  V30 330 N 32.5182 1.22032 0.997298 0
M  V30 331 C 33.7642 1.04376 1.73878 0
M  V30 332 C 34.0972 -0.420716 1.89588 0
M  V30 333 O 33.3722 -1.31202 1.43583 0
M  V30 334 C 33.6552 1.75047 3.14691 0
M  V30 335 C 33.5082 3.29062 3.06656 0
M  V30 336 C 34.8272 1.49928 4.13775 0
M  V30 337 H 31.9462 0.380578 0.631133 0
M  V30 338 H 34.5882 1.50312 1.16217 0
M  V30 339 H 32.7382 1.35996 3.63919 0
M  V30 340 H 34.4102 3.7753 2.65083 0
M  V30 341 H 32.6532 3.58967 2.43568 0
M  V30 342 H 33.3242 3.73683 4.06282 0
M  V30 343 H 35.8002 1.83842 3.73285 0
M  V30 344 H 34.6762 2.01878 5.10428 0
M  V30 345 H 34.9372 0.430929 4.39995 0
M  V30 346 N 33.9963 -1.19345 1.0293 0
M  V30 347 C 34.9263 -2.2481 0.631105 0
M  V30 348 C 35.9073 -1.66245 -0.360104 0
M  V30 349 O 37.0923 -1.92677 -0.242726 0
M  V30 350 C 34.2223 -3.47295 -0.0184607 0
M  V30 351 C 33.1763 -4.18536 0.895073 0
M  V30 352 C 32.5023 -5.34586 0.110592 0
M  V30 353 C 33.8023 -4.73287 2.209 0
M  V30 354 H 35.4963 -2.58372 1.51275 0
M  V30 355 H 33.0423 -1.24194 0.728818 0
M  V30 356 H 34.9953 -4.20268 -0.308675 0
M  V30 357 H 33.7193 -3.12933 -0.934907 0
M  V30 358 H 32.3783 -3.47446 1.16949 0
M  V30 359 H 32.0263 -4.96469 -0.807902 0
M  V30 360 H 31.7263 -5.83183 0.719087 0
M  V30 361 H 33.2503 -6.10355 -0.172871 0
M  V30 362 H 34.6643 -5.38013 1.98028 0
M  V30 363 H 33.0613 -5.32373 2.76946 0
M  V30 364 H 34.1313 -3.91331 2.86336 0
M  V30 365 N 35.4744 -0.807222 -1.35358 0
M  V30 366 C 36.7224 -0.387122 -1.98358 0
M  V30 367 C 37.0434 1.04942 -1.64354 0
M  V30 368 O 36.3134 1.72615 -0.926339 0
M  V30 369 H 34.8934 -0.140154 -0.733734 0
M  V30 370 H 37.5554 -1.0332 -1.6526 0
M  V30 371 H 36.6514 -0.493352 -3.08176 0
M  V30 372 N 36.9525 1.47285 -0.560781 0
M  V30 373 C 38.3685 1.58065 -0.22081 0
M  V30 374 C 38.5685 1.55892 1.27671 0
M  V30 375 O 37.6245 1.46422 2.0571 0
M  V30 376 C 38.9375 2.88418 -0.850625 0
M  V30 377 C 40.4855 3.02009 -0.822184 0
M  V30 378 C 40.9605 4.35066 -1.43113 0
M  V30 379 N 42.4515 4.41711 -1.39448 0
M  V30 380 C 43.1865 5.43237 -1.83525 0
M  V30 381 N 42.6825 6.51555 -2.35474 0
M  V30 382 N 44.4755 5.34304 -1.74574 0
M  V30 383 H 36.6265 1.46941 -1.53369 0
M  V30 384 H 38.8895 0.699558 -0.639783 0
M  V30 385 H 38.5955 2.95755 -1.9032 0
M  V30 386 H 38.4695 3.75612 -0.345773 0
M  V30 387 H 40.8565 2.94266 0.221714 0
M  V30 388 H 40.9375 2.16347 -1.36483 0
M  V30 389 H 40.5815 4.43565 -2.47412 0
M  V30 390 H 40.5115 5.19465 -0.863899 0
M  V30 391 H 43.0025 3.64027 -1.01452 0
M  V30 392 H 43.3155 7.25203 -2.67021 0
M  V30 393 H 41.6605 6.52435 -2.39487 0
M  V30 394 H 44.8515 4.48581 -1.33763 0
M  V30 395 H 45.0245 6.13288 -2.09242 0
M  V30 396 N 38.4306 0.297415 1.54768 0
M  V30 397 C 39.6556 -0.318435 2.04941 0
M  V30 398 C 40.0806 -1.4701 1.17345 0
M  V30 399 O 39.4386 -1.80436 0.176758 0
M  V30 400 C 39.4866 -0.755749 3.52592 0
M  V30 401 O 38.5906 -1.86088 3.68028 0
M  V30 402 H 37.9316 -0.062421 0.661059 0
M  V30 403 H 40.4616 0.438215 1.99852 0
M  V30 404 H 40.4716 -1.04552 3.94376 0
M  V30 405 H 39.1466 0.0867233 4.1581 0
M  V30 406 H 37.7236 -1.57193 3.38149 0
M  V30 407 N 39.9087 -1.5758 0.0250728 0
M  V30 408 C 40.8417 -2.05473 -0.992777 0
M  V30 409 C 41.8197 -0.949661 -1.31986 0
M  V30 410 O 43.0037 -1.21969 -1.43722 0
M  V30 411 C 40.1307 -2.4734 -2.31389 0
M  V30 412 C 39.1767 -3.68827 -2.1417 0
M  V30 413 S 40.0097 -5.15655 -1.44429 0
M  V30 414 C 41.1657 -5.60814 -2.77918 0
M  V30 415 H 41.3987 -2.91486 -0.585078 0
M  V30 416 H 38.9317 -1.53269 -0.186507 0
M  V30 417 H 40.8897 -2.72127 -3.07339 0
M  V30 418 H 39.5507 -1.6168 -2.69292 0
M  V30 419 H 38.7437 -3.95955 -3.11826 0
M  V30 420 H 38.3457 -3.44172 -1.46362 0
M  V30 421 H 40.6377 -5.64806 -3.74166 0
M  V30 422 H 41.5807 -6.60414 -2.55459 0
M  V30 423 H 41.9887 -4.8845 -2.82979 0
M  V30 424 N 41.3868 0.248026 -1.55636 0
M  V30 425 C 42.3168 1.31079 -1.93237 0
M  V30 426 C 43.2978 1.50264 -0.797174 0
M  V30 427 O 44.4828 1.62891 -1.05737 0
M  V30 428 C 41.6128 2.66575 -2.22609 0
M  V30 429 C 40.5668 2.62087 -3.3837 0
M  V30 430 C 39.8928 4.01369 -3.53281 0
M  V30 431 C 41.1928 2.19171 -4.7409 0
M  V30 432 H 42.8868 0.998556 -2.82257 0
M  V30 433 H 40.4328 0.47891 -1.35803 0
M  V30 434 H 42.3858 3.41057 -2.47503 0
M  V30 435 H 41.1098 2.99432 -1.30414 0
M  V30 436 H 39.7688 1.90063 -3.13483 0
M  V30 437 H 39.4168 4.31489 -2.58508 0
M  V30 438 H 39.1168 3.99254 -4.31127 0
M  V30 439 H 40.6408 4.77552 -3.80495 0
M  V30 440 H 42.0548 2.83384 -4.98363 0
M  V30 441 H 40.4518 2.2817 -5.5503 0
M  V30 442 H 41.5218 1.14336 -4.71227 0
M  V30 443 N 42.8649 1.48995 0.513639 0
M  V30 444 C 44.1109 1.58076 1.27042 0
M  V30 445 C 44.4439 0.261026 1.92438 0
M  V30 446 O 43.7189 -0.734393 1.80103 0
M  V30 447 C 44.0019 2.73091 2.34719 0
M  V30 448 C 43.8549 4.14821 1.73907 0
M  V30 449 C 45.1739 2.83796 3.36375 0
M  V30 450 H 42.2929 0.575391 0.460536 0
M  V30 451 H 44.9349 1.81232 0.570516 0
M  V30 452 H 43.0849 2.53479 2.94416 0
M  V30 453 H 44.7569 4.45917 1.18135 0
M  V30 454 H 42.9999 4.21058 1.0437 0
M  V30 455 H 43.6709 4.91147 2.51949 0
M  V30 456 H 46.1469 3.01611 2.86653 0
M  V30 457 H 45.0229 3.65971 4.09093 0
M  V30 458 H 45.2839 1.92624 3.9793 0
M  V30 459 N 44.343 -0.763751 1.37857 0
M  V30 460 C 45.62 -1.51244 1.24035 0
M  V30 461 C 46 -2.10472 -0.162649 0
M  V30 462 O 45.348 -1.96206 -1.17112 0
M  V30 463 C 45.558 -2.58694 2.34261 0
M  V30 464 C 46.906 -3.25878 2.72193 0
M  V30 465 O 47.93 -2.68993 2.33497 0
M  V30 466 O 46.789 -4.2874 3.38887 0
M  V30 467 H 43.883 -0.670243 0.484462 0
M  V30 468 H 46.429 -0.800031 1.49658 0
M  V30 469 H 45.201 -2.13105 3.2818 0
M  V30 470 H 44.824 -3.37527 2.10146 0
M  V30 471 N 45.8211 -1.22559 -0.990812 0
M  V30 472 C 47.0691 -1.04933 -1.72724 0
M  V30 473 C 47.3901 0.416158 -1.90508 0
M  V30 474 O 46.6601 1.29918 -1.46622 0
M  V30 475 H 45.2401 -0.385296 -0.639965 0
M  V30 476 H 47.9021 -1.54105 -1.19322 0
M  V30 477 H 46.9981 -1.52886 -2.72089 0
M  V30 478 N 47.2992 1.18797 -1.03562 0
M  V30 479 C 48.2292 2.24472 -0.643019 0
M  V30 480 C 49.2102 1.66433 0.351283 0
M  V30 481 O 50.3952 1.92803 0.232505 0
M  V30 482 C 47.5252 3.473 4.24935e-05 0
M  V30 483 C 46.4792 4.18055 -0.917257 0
M  V30 484 C 45.8052 5.34519 -0.138941 0
M  V30 485 C 47.1052 4.72109 -2.23407 0
M  V30 486 H 48.7992 2.57566 -1.52643 0
M  V30 487 H 46.3452 1.23806 -0.735394 0
M  V30 488 H 48.2982 4.20426 0.286383 0
M  V30 489 H 47.0222 3.13424 0.918299 0
M  V30 490 H 45.6812 3.46821 -1.1879 0
M  V30 491 H 45.3292 4.96891 0.781562 0
M  V30 492 H 45.0292 5.82794 -0.750005 0
M  V30 493 H 46.5532 6.10438 0.1405 0
M  V30 494 H 47.9672 5.36955 -2.00879 0
M  V30 495 H 46.3642 5.30897 -2.79765 0
M  V30 496 H 47.4342 3.89807 -2.88407 0
M  V30 497 N 48.7773 0.814389 1.34928 0
M  V30 498 C 50.0543 0.321363 1.92942 0
M  V30 499 C 50.4343 -1.19014 1.74353 0
M  V30 500 O 49.7823 -1.99328 1.11716 0
M  V30 501 C 49.9923 0.741323 3.41036 0
M  V30 502 C 51.3403 0.735266 4.18185 0
M  V30 503 O 52.3643 0.68336 3.49584 0
M  V30 504 O 51.2233 0.800703 5.40602 0
M  V30 505 H 48.3173 0.0858893 0.822528 0
M  V30 506 H 50.8633 0.898609 1.43955 0
M  V30 507 H 49.6353 1.78276 3.4833 0
M  V30 508 H 49.2583 0.139307 3.97356 0
M  V30 509 N 50.2554 -1.46986 0.568584 0
M  V30 510 C 51.5044 -2.01646 0.0465894 0
M  V30 511 C 51.8174 -1.44721 -1.31587 0
M  V30 512 O 53.0234 -1.91113 -1.92842 0
M  V30 513 C 51.4794 -3.59885 0.032752 0
M  V30 514 C 51.0874 -4.25804 1.39266 0
M  V30 515 C 52.8314 -4.22255 -0.436038 0
M  V30 516 C 50.7384 -5.76081 1.33732 0
M  V30 517 H 49.6684 -0.753876 0.013647 0
M  V30 518 H 52.3194 -1.68864 0.718131 0
M  V30 519 H 50.7014 -3.8968 -0.704669 0
M  V30 520 H 51.8754 -4.07637 2.1487 0
M  V30 521 H 50.1904 -3.7547 1.80032 0
M  V30 522 H 52.7874 -5.32394 -0.49602 0
M  V30 523 H 53.1304 -3.90212 -1.45053 0
M  V30 524 H 53.6634 -3.97033 0.246877 0
M  V30 525 H 50.4024 -6.12761 2.32817 0
M  V30 526 H 49.9224 -5.96553 0.623267 0
M  V30 527 H 51.6014 -6.38518 1.0442 0
M  V30 528 N 51.7335 -0.305618 -1.54608 0
M  V30 529 C 52.9795 0.302746 -2.00528 0
M  V30 530 C 53.3125 1.53184 -1.19367 0
M  V30 531 O 52.5875 1.92598 -0.271321 0
M  V30 532 C 52.8705 0.654756 -3.54097 0
M  V30 533 C 52.7235 -0.583793 -4.45995 0
M  V30 534 C 54.0425 1.47947 -4.14487 0
M  V30 535 H 51.1615 0.108564 -0.72896 0
M  V30 536 H 53.8035 -0.418634 -1.85331 0
M  V30 537 H 51.9535 1.26935 -3.67178 0
M  V30 538 H 53.6255 -1.22224 -4.44814 0
M  V30 539 H 51.8685 -1.21615 -4.16404 0
M  V30 540 H 52.5395 -0.293287 -5.5122 0
M  V30 541 H 55.0155 0.96013 -4.04871 0
M  V30 542 H 53.8915 1.69454 -5.22088 0
M  V30 543 H 54.1525 2.47011 -3.66658 0
M  V30 544 N 53.2116 1.57565 -0.0334293 0
M  V30 545 C 54.1416 2.13511 0.945265 0
M  V30 546 C 55.1226 1.05231 1.33643 0
M  V30 547 O 56.3076 1.33084 1.41429 0
M  V30 548 C 53.4376 2.6657 2.22616 0
M  V30 549 C 52.3916 3.79676 1.97561 0
M  V30 550 C 51.7176 4.1918 3.31952 0
M  V30 551 C 53.0176 5.0557 1.31135 0
M  V30 552 H 54.7116 2.95538 0.479325 0
M  V30 553 H 52.2576 1.42166 0.229115 0
M  V30 554 H 54.2106 3.04344 2.91466 0
M  V30 555 H 52.9346 1.8171 2.71384 0
M  V30 556 H 51.5936 3.42347 1.31127 0
M  V30 557 H 51.2416 3.31296 3.78487 0
M  V30 558 H 50.9416 4.95402 3.15992 0
M  V30 559 H 52.4656 4.59541 4.02063 0
M  V30 560 H 53.8796 5.40903 1.89992 0
M  V30 561 H 52.2766 5.86818 1.25559 0
M  V30 562 H 53.3466 4.84062 0.284894 0
M  V30 563 N 54.6897 -0.239769 1.55765 0
M  V30 564 C 55.9667 -0.990056 1.68693 0
M  V30 565 C 56.3467 -2.03107 0.5754 0
M  V30 566 O 55.6947 -2.24604 -0.42017 0
M  V30 567 C 55.9047 -1.61696 3.09282 0
M  V30 568 C 57.2527 -2.11613 3.6811 0
M  V30 569 O 58.2767 -1.71624 3.12127 0
M  V30 570 O 57.1357 -2.85057 4.66267 0
M  V30 571 H 54.2297 -0.461299 0.686391 0
M  V30 572 H 56.7757 -0.232991 1.68093 0
M  V30 573 H 55.5477 -0.864357 3.81634 0
M  V30 574 H 55.1707 -2.44005 3.13923 0
M  V30 575 N 56.1678 -1.49265 -0.50573 0
M  V30 576 C 57.0978 -1.68495 -1.61653 0
M  V30 577 C 58.0788 -0.53366 -1.61512 0
M  V30 578 O 59.2638 -0.76897 -1.78327 0
M  V30 579 C 56.3938 -1.74709 -3.00157 0
M  V30 580 C 55.3478 -2.89581 -3.15162 0
M  V30 581 C 54.6738 -2.80903 -4.5497 0
M  V30 582 C 55.9738 -4.30578 -2.95634 0
M  V30 583 H 57.6678 -2.61493 -1.45814 0
M  V30 584 H 55.2138 -1.25838 -0.70005 0
M  V30 585 H 57.1668 -1.86748 -3.77761 0
M  V30 586 H 55.8908 -0.783067 -3.17074 0
M  V30 587 H 54.5498 -2.77136 -2.39982 0
M  V30 588 H 54.1978 -1.82419 -4.68756 0
M  V30 589 H 53.8978 -3.57999 -4.65951 0
M  V30 590 H 55.4218 -2.94944 -5.34641 0
M  V30 591 H 56.8358 -4.4373 -3.63011 0
M  V30 592 H 55.2328 -5.0886 -3.18091 0
M  V30 593 H 56.3028 -4.45352 -1.91806 0
M  V30 594 N 57.6459 0.756429 -1.3826 0
M  V30 595 C 58.8739 1.54565 -1.3754 0
M  V30 596 C 59.2889 1.88767 0.0355331 0
M  V30 597 O 58.6459 1.52572 1.0014 0
M  V30 598 C 58.6969 2.84654 -2.22833 0
M  V30 599 O 58.4179 2.51912 -3.5843 0
M  V30 600 C 59.9189 3.78807 -2.30261 0
M  V30 601 H 57.1389 0.478353 -0.470553 0
M  V30 602 H 59.6829 0.936381 -1.81803 0
M  V30 603 H 57.8379 3.41965 -1.8204 0
M  V30 604 H 58.2519 3.35325 -4.03308 0
M  V30 605 H 59.7259 4.67045 -2.94233 0
M  V30 606 H 60.2029 4.19038 -1.31545 0
M  V30 607 H 60.8089 3.2742 -2.71433 0
M  V30 608 N 59.124 1.23083 0.984299 0
M  V30 609 C 60.54 0.992637 1.24975 0
M  V30 610 C 60.74 -0.308618 1.99123 0
M  V30 611 O 59.796 -1.02905 2.30579 0
M  V30 612 C 61.109 2.19698 2.05312 0
M  V30 613 C 62.657 2.24147 2.18465 0
M  V30 614 C 63.132 3.44157 3.02192 0
M  V30 615 N 64.623 3.44372 3.09777 0
M  V30 616 C 65.358 4.33886 3.74874 0
M  V30 617 N 64.854 5.3363 4.41827 0
M  V30 618 N 66.647 4.21639 3.71721 0
M  V30 619 H 58.798 2.06731 0.487453 0
M  V30 620 H 61.061 0.906339 0.277944 0
M  V30 621 H 60.767 3.1411 1.58201 0
M  V30 622 H 60.641 2.20465 3.06064 0
M  V30 623 H 63.028 1.30277 2.64786 0
M  V30 624 H 63.109 2.27415 1.17115 0
M  V30 625 H 62.753 4.38332 2.56568 0
M  V30 626 H 62.683 3.3813 4.03702 0
M  V30 627 H 65.174 2.72201 2.62135 0
M  V30 628 H 65.487 5.98196 4.89266 0
M  V30 629 H 63.832 5.37534 4.40548 0
M  V30 630 H 67.023 3.42962 3.18582 0
M  V30 631 H 67.196 4.91604 4.22173 0
M  V30 632 N 60.6021 -1.18246 1.0419 0
M  V30 633 C 61.8271 -1.92736 0.765996 0
M  V30 634 C 62.2521 -1.75728 -0.67091 0
M  V30 635 O 61.6101 -1.06825 -1.46486 0
M  V30 636 C 61.6581 -3.42148 1.13875 0
M  V30 637 O 60.7621 -4.11548 0.264954 0
M  V30 638 H 60.1031 -0.601238 0.281797 0
M  V30 639 H 62.6331 -1.49942 1.39207 0
M  V30 640 H 62.6431 -3.92858 1.1012 0
M  V30 641 H 61.3181 -3.53848 2.18551 0
M  V30 642 H 59.8951 -3.71137 0.362226 0
M  V30 643 N 62.0802 -0.821533 -1.34494 0
M  V30 644 C 63.3282 -0.408139 -1.97936 0
M  V30 645 C 63.6492 1.03193 -1.65457 0
M  V30 646 O 62.9192 1.71622 -0.944595 0
M  V30 647 H 61.4992 -0.147928 -0.732206 0
M  V30 648 H 64.1612 -1.05067 -1.64155 0
M  V30 649 H 63.2572 -0.52601 -3.07635 0
M  V30 650 N 63.5583 1.46682 -0.576371 0
M  V30 651 C 64.8063 2.02013 -0.0594163 0
M  V30 652 C 65.1273 1.45101 1.30271 0
M  V30 653 O 64.3973 0.633317 1.8538 0
M  V30 654 H 62.9773 0.746759 -0.0189745 0
M  V30 655 H 65.6393 1.79862 -0.750717 0
M  V30 656 H 64.7353 3.12097 0.014345 0
M  V30 657 N 65.0364 0.313813 1.54444 0
M  V30 658 C 66.2614 -0.296681 2.05267 0
M  V30 659 C 66.6864 -1.45757 1.18897 0
M  V30 660 O 66.0444 -1.80239 0.195886 0
M  V30 661 C 66.0924 -0.71831 3.53373 0
M  V30 662 O 65.1964 -1.82175 3.69981 0
M  V30 663 H 64.5374 -0.0554061 0.661684 0
M  V30 664 H 67.0674 0.459387 1.99376 0
M  V30 665 H 67.0774 -1.00364 3.95463 0
M  V30 666 H 65.7524 0.130821 4.15694 0
M  V30 667 H 64.3294 -1.53598 3.39797 0
M  V30 668 N 66.5145 -1.57545 0.0417849 0
M  V30 669 C 67.7445 -1.96339 -0.642995 0
M  V30 670 C 68.1525 -0.917536 -1.65463 0
M  V30 671 O 67.4955 0.107747 -1.83384 0
M  V30 672 C 67.5575 -3.31333 -1.39494 0
M  V30 673 C 67.2215 -4.53796 -0.540204 0
M  V30 674 C 68.2185 -5.19553 0.189806 0
M  V30 675 C 65.9035 -5.0006 -0.473886 0
M  V30 676 C 67.8975 -6.29904 0.974674 0
M  V30 677 C 65.5845 -6.10289 0.314677 0
M  V30 678 C 66.5825 -6.75072 1.03765 0
M  V30 679 O 66.2705 -7.83183 1.81327 0
M  V30 680 H 66.0025 -0.651241 -0.181277 0
M  V30 681 H 68.5565 -2.05148 0.101665 0
M  V30 682 H 66.7865 -3.19052 -2.18502 0
M  V30 683 H 68.4755 -3.54942 -1.96904 0
M  V30 684 H 69.2415 -4.84774 0.147981 0
M  V30 685 H 65.1205 -4.49433 -1.0262 0
M  V30 686 H 68.6645 -6.80401 1.5395 0
M  V30 687 H 64.5615 -6.44506 0.358174 0
M  V30 688 H 65.3295 -7.99913 1.73438 0
M  V30 689 N 67.9926 0.231505 -1.5589 0
M  V30 690 C 68.9226 1.29022 -1.94617 0
M  V30 691 C 69.9036 1.4941 -0.813067 0
M  V30 692 O 71.0886 1.6176 -1.07459 0
M  V30 693 C 68.2186 2.64199 -2.25424 0
M  V30 694 C 67.1726 2.58484 -3.41131 0
M  V30 695 C 66.4986 3.97599 -3.57518 0
M  V30 696 C 67.7986 2.1413 -4.76388 0
M  V30 697 H 69.4926 0.968563 -2.83301 0
M  V30 698 H 67.0386 0.464479 -1.36303 0
M  V30 699 H 68.9916 3.38413 -2.51107 0
M  V30 700 H 67.7156 2.98032 -1.33583 0
M  V30 701 H 66.3746 1.86727 -3.15481 0
M  V30 702 H 66.0226 4.28723 -2.6307 0
M  V30 703 H 65.7226 3.94659 -4.35337 0
M  V30 704 H 67.2466 4.7349 -3.85538 0
M  V30 705 H 68.6606 2.78083 -5.01341 0
M  V30 706 H 67.0576 2.2227 -5.57419 0
M  V30 707 H 68.1276 1.09331 -4.72414 0
M  V30 708 N 69.4707 1.49531 0.497807 0
M  V30 709 C 70.7167 1.59415 1.25358 0
M  V30 710 C 71.0497 0.281422 1.9215 0
M  V30 711 O 70.3247 -0.715249 1.80871 0
M  V30 712 C 70.6077 2.75566 2.3181 0
M  V30 713 C 70.4607 4.16642 1.69498 0
M  V30 714 C 71.7797 2.87347 3.33346 0
M  V30 715 H 68.8987 0.580244 0.454408 0
M  V30 716 H 71.5407 1.81827 0.551262 0
M  V30 717 H 69.6907 2.56587 2.91711 0
M  V30 718 H 71.3627 4.47145 1.13399 0
M  V30 719 H 69.6057 4.22141 0.998978 0
M  V30 720 H 70.2767 4.93792 2.46725 0
M  V30 721 H 72.7527 3.04634 2.83438 0
M  V30 722 H 71.6287 3.70289 4.05188 0
M  V30 723 H 71.8897 1.96834 3.95865 0
M  V30 724 N 70.9488 -0.749086 1.3866 0
M  V30 725 C 72.2258 -1.4992 1.25632 0
M  V30 726 C 72.6058 -2.10633 -0.140317 0
M  V30 727 O 71.9538 -1.97437 -1.15025 0
M  V30 728 C 72.1638 -2.56195 2.36992 0
M  V30 729 C 73.5118 -3.22972 2.75634 0
M  V30 730 O 74.5358 -2.66502 2.36337 0
M  V30 731 O 73.3948 -4.25122 3.43415 0
M  V30 732 H 70.4888 -0.665067 0.491544 0
M  V30 733 H 73.0348 -0.784113 1.50498 0
M  V30 734 H 71.8068 -2.09612 3.30422 0
M  V30 735 H 71.4298 -3.35279 2.13714 0
M  V30 736 N 72.4269 -1.23603 -0.977757 0
M  V30 737 C 73.3899 -1.02069 -2.05218 0
M  V30 738 C 74.3899 0.0184305 -1.60789 0
M  V30 739 O 75.5799 -0.221569 -1.72785 0
M  V30 740 C 72.7119 -0.544926 -3.36517 0
M  V30 741 H 73.9049 -1.9742 -2.25755 0
M  V30 742 H 71.4579 -1.05684 -1.15155 0
M  V30 743 H 72.1929 0.412241 -3.21669 0
M  V30 744 H 71.9779 -1.2948 -3.70105 0
M  V30 745 H 73.4679 -0.414985 -4.15533 0
M  V30 746 N 73.905 1.17692 -1.04816 0
M  V30 747 C 75.154 1.87192 -0.751132 0
M  V30 748 C 75.467 1.8169 0.724441 0
M  V30 749 O 76.673 2.46625 1.13527 0
M  V30 750 C 75.129 3.35857 -1.29338 0
M  V30 751 C 74.737 3.4987 -2.79812 0
M  V30 752 C 76.481 4.10709 -1.07322 0
M  V30 753 C 74.388 4.92536 -3.27356 0
M  V30 754 H 73.318 0.701162 -0.277288 0
M  V30 755 H 75.969 1.32932 -1.26496 0
M  V30 756 H 74.351 3.89631 -0.707376 0
M  V30 757 H 75.525 3.06332 -3.44235 0
M  V30 758 H 73.84 2.88433 -3.00325 0
M  V30 759 H 76.437 5.15952 -1.4035 0
M  V30 760 H 76.78 4.16299 -0.0108001 0
M  V30 761 H 77.313 3.6313 -1.62423 0
M  V30 762 H 74.052 4.92119 -4.33012 0
M  V30 763 H 73.572 5.3676 -2.67673 0
M  V30 764 H 75.251 5.61288 -3.21815 0
M  V30 765 N 75.3831 0.828654 1.34056 0
M  V30 766 C 76.6111 0.43262 2.02326 0
M  V30 767 C 77.0261 -0.963147 1.62385 0
M  V30 768 O 76.3831 -1.62425 0.832121 0
M  V30 769 C 76.4341 0.53182 3.57567 0
M  V30 770 O 76.1551 1.87258 3.96063 0
M  V30 771 C 77.6561 0.131422 4.43105 0
M  V30 772 H 74.8761 0.172923 0.648335 0
M  V30 773 H 77.4201 1.1184 1.71208 0
M  V30 774 H 75.5751 -0.105938 3.87255 0
M  V30 775 H 75.9891 1.85087 4.90758 0
M  V30 776 H 77.4631 0.251904 5.51425 0
M  V30 777 H 77.9401 -0.925645 4.29335 0
M  V30 778 H 78.5461 0.743207 4.18756 0
M  V30 779 N 76.8612 -1.46375 0.584142 0
M  V30 780 C 78.1092 -2.01978 0.0701287 0
M  V30 781 C 78.4302 -1.4579 -1.295 0
M  V30 782 O 77.7002 -0.64314 -1.85042 0
M  V30 783 H 76.2802 -0.746648 0.0229345 0
M  V30 784 H 78.9422 -1.79461 0.760245 0
M  V30 785 H 78.0382 -3.121 0.0022064 0
M  V30 786 N 78.3393 -0.321999 -1.54275 0
M  V30 787 C 79.7553 0.0306999 -1.5957 0
M  V30 788 C 79.9553 1.50614 -1.33857 0
M  V30 789 O 79.0113 2.2619 -1.12223 0
M  V30 790 C 80.3243 -0.386122 -2.98211 0
M  V30 791 C 81.8723 -0.336647 -3.11184 0
M  V30 792 C 82.3473 -0.728607 -4.52167 0
M  V30 793 N 83.8383 -0.681952 -4.58152 0
M  V30 794 C 84.5733 -0.957449 -5.6535 0
M  V30 795 N 84.0693 -1.3 -6.80494 0
M  V30 796 N 85.8623 -0.883113 -5.55119 0
M  V30 797 H 78.0133 -1.28332 -1.69247 0
M  V30 798 H 80.2763 -0.521716 -0.791528 0
M  V30 799 H 79.9823 -1.41404 -3.22022 0
M  V30 800 H 79.8563 0.249662 -3.76373 0
M  V30 801 H 82.2433 0.682058 -2.8711 0
M  V30 802 H 82.3243 -1.00734 -2.3513 0
M  V30 803 H 81.9683 -1.74522 -4.76974 0
M  V30 804 H 81.8983 -0.0356152 -5.26588 0
M  V30 805 H 84.3893 -0.428985 -3.75457 0
M  V30 806 H 84.7023 -1.49563 -7.58189 0
M  V30 807 H 83.0473 -1.33824 -6.81994 0
M  V30 808 H 86.2383 -0.615001 -4.64042 0
M  V30 809 H 86.4113 -1.10118 -6.38575 0
M  V30 810 N 79.8174 1.5752 -0.0501392 0
M  V30 811 C 81.2334 1.56631 0.306402 0
M  V30 812 C 81.4334 1.0577 1.71508 0
M  V30 813 O 80.4894 0.713837 2.422 0
M  V30 814 C 81.8024 3.00393 0.135811 0
M  V30 815 C 83.3504 3.12315 0.206993 0
M  V30 816 C 83.8254 4.57954 0.064944 0
M  V30 817 N 85.3164 4.63041 0.121254 0
M  V30 818 C 86.0514 5.73389 0.0354381 0
M  V30 819 N 85.5474 6.92724 -0.102666 0
M  V30 820 N 87.3404 5.62026 0.090946 0
M  V30 821 H 79.4914 1.88903 -0.971046 0
M  V30 822 H 81.7544 0.869876 -0.376855 0
M  V30 823 H 81.4604 3.41635 -0.835384 0
M  V30 824 H 81.3344 3.66373 0.897275 0
M  V30 825 H 83.7214 2.70973 1.16866 0
M  V30 826 H 83.8024 2.49016 -0.585208 0
M  V30 827 H 83.4464 4.99981 -0.893394 0
M  V30 828 H 83.3764 5.19258 0.876277 0
M  V30 829 H 85.8674 3.77216 0.227284 0
M  V30 830 H 86.1804 7.72633 -0.160882 0
M  V30 831 H 84.5254 6.94864 -0.137737 0
M  V30 832 H 87.7164 4.67684 0.197388 0
M  V30 833 H 87.8894 6.47997 0.0206089 0
M  V30 834 N 81.2955 -0.223234 1.56011 0
M  V30 835 C 82.5255 -0.963413 1.82762 0
M  V30 836 C 82.9335 -1.78516 0.626804 0
M  V30 837 O 82.2765 -1.78974 -0.414014 0
M  V30 838 C 82.3385 -1.93126 3.0322 0
M  V30 839 C 82.0025 -1.2942 4.38291 0
M  V30 840 C 82.9995 -0.684916 5.15369 0
M  V30 841 C 80.6845 -1.30647 4.85012 0
M  V30 842 C 82.6785 -0.0963971 6.37327 0
M  V30 843 C 80.3655 -0.71411 6.06913 0
M  V30 844 C 81.3635 -0.110123 6.82911 0
M  V30 845 O 81.0515 0.47303 8.02507 0
M  V30 846 H 80.7835 -0.288011 0.611576 0
M  V30 847 H 83.3375 -0.244103 2.03944 0
M  V30 848 H 81.5675 -2.68952 2.77852 0
M  V30 849 H 83.2565 -2.53685 3.16857 0
M  V30 850 H 84.0225 -0.667774 4.80381 0
M  V30 851 H 79.9015 -1.76598 4.25833 0
M  V30 852 H 83.4455 0.375657 6.96588 0
M  V30 853 H 79.3425 -0.728659 6.41374 0
M  V30 854 H 80.1105 0.367186 8.17676 0
M  V30 855 N 82.7736 -1.49793 -0.48987 0
M  V30 856 C 83.7036 -1.70201 -1.59856 0
M  V30 857 C 84.6846 -0.55076 -1.60937 0
M  V30 858 O 85.8696 -0.787841 -1.77501 0
M  V30 859 C 82.9996 -1.77882 -2.98287 0
M  V30 860 C 81.9536 -2.92907 -3.12073 0
M  V30 861 C 81.2796 -2.85712 -4.51965 0
M  V30 862 C 82.5796 -4.3369 -2.91051 0
M  V30 863 H 84.2736 -2.63025 -1.43032 0
M  V30 864 H 81.8196 -1.26574 -0.686664 0
M  V30 865 H 83.7726 -1.90744 -3.75759 0
M  V30 866 H 82.4966 -0.816653 -3.16225 0
M  V30 867 H 81.1556 -2.79665 -2.37029 0
M  V30 868 H 80.8036 -1.8738 -4.66795 0
M  V30 869 H 80.5036 -3.62921 -4.62128 0
M  V30 870 H 82.0276 -3.00598 -5.31482 0
M  V30 871 H 83.4416 -4.47555 -3.58284 0
M  V30 872 H 81.8386 -5.12205 -3.12675 0
M  V30 873 H 82.9086 -4.47362 -1.87071 0
M  V30 874 N 84.2517 0.741722 -1.39055 0
M  V30 875 C 85.5287 1.49252 -1.26425 0
M  V30 876 C 85.9087 2.10705 0.129144 0
M  V30 877 O 85.2567 1.98045 1.13976 0
M  V30 878 C 85.4667 2.54934 -2.38347 0
M  V30 879 C 86.8147 3.21506 -2.77343 0
M  V30 880 O 87.8387 2.65245 -2.37747 0
M  V30 881 O 86.6977 4.23294 -3.45665 0
M  V30 882 H 83.7917 0.662451 -0.495064 0
M  V30 883 H 86.3377 0.776121 -1.50912 0
M  V30 884 H 85.1097 2.07857 -3.31529 0
M  V30 885 H 84.7327 3.34141 -2.15489 0
M  V30 886 N 85.7298 1.2412 0.971189 0
M  V30 887 C 86.6628 0.97373 2.06382 0
M  V30 888 C 87.6408 -0.0912662 1.62344 0
M  V30 889 O 88.8248 0.0449365 1.88446 0
M  V30 890 C 85.9518 0.468746 3.35441 0
M  V30 891 C 84.9978 1.52176 3.98428 0
M  V30 892 S 85.8308 3.10203 4.36503 0
M  V30 893 C 86.9868 2.61398 5.68702 0
M  V30 894 H 87.2198 1.89893 2.28753 0
M  V30 895 H 84.7528 1.07466 1.10862 0
M  V30 896 H 86.7108 0.184012 4.10087 0
M  V30 897 H 85.3718 -0.435688 3.11064 0
M  V30 898 H 84.5648 1.11876 4.91426 0
M  V30 899 H 84.1668 1.75632 3.30196 0
M  V30 900 H 86.4588 2.03992 6.4606 0
M  V30 901 H 87.4018 3.52972 6.13854 0
M  V30 902 H 87.8098 2.01941 5.27143 0
M  V30 903 N 87.2079 -1.17134 1.05439 0
M  V30 904 C 88.4549 -1.87456 0.765942 0
M  V30 905 C 88.7829 -1.81189 -0.707153 0
M  V30 906 O 88.0379 -1.21633 -1.5331 0
M  V30 907 C 88.3369 -3.36833 1.19491 0
M  V30 908 C 88.0029 -3.63301 2.67063 0
M  V30 909 C 86.6649 -3.70234 3.07376 0
M  V30 910 C 89.0169 -3.74575 3.62413 0
M  V30 911 C 86.3449 -3.85933 4.41896 0
M  V30 912 C 88.6969 -3.91793 4.9667 0
M  V30 913 C 87.3609 -3.96966 5.36633 0
M  V30 914 H 86.6309 -0.685948 0.280278 0
M  V30 915 H 89.2779 -1.38556 1.32192 0
M  V30 916 H 87.5829 -3.87807 0.557969 0
M  V30 917 H 89.2799 -3.89611 0.948893 0
M  V30 918 H 85.8699 -3.58532 2.34846 0
M  V30 919 H 90.0539 -3.68537 3.32406 0
M  V30 920 H 85.3099 -3.88187 4.72357 0
M  V30 921 H 89.4839 -3.99458 5.70444 0
M  V30 922 H 87.1109 -4.08883 6.40874 0
M  V30 923 N 88.686 -0.835752 -1.33615 0
M  V30 924 C 89.914 -0.443344 -2.02094 0
M  V30 925 C 90.329 0.954522 -1.62894 0
M  V30 926 O 89.686 1.61982 -0.840723 0
M  V30 927 C 89.737 -0.550775 -3.5728 0
M  V30 928 O 89.458 -1.89356 -3.95065 0
M  V30 929 C 90.959 -0.154919 -4.43029 0
M  V30 930 H 88.179 -0.176359 -0.647409 0
M  V30 931 H 90.723 -1.12746 -1.70612 0
M  V30 932 H 88.878 0.0853997 -3.87306 0
M  V30 933 H 89.292 -1.87687 -4.89769 0
M  V30 934 H 90.766 -0.281144 -5.51284 0
M  V30 935 H 91.243 0.902863 -4.2982 0
M  V30 936 H 91.849 -0.765404 -4.18356 0
M  V30 937 N 90.1641 1.46063 -0.591896 0
M  V30 938 C 91.4111 2.02338 -0.0809991 0
M  V30 939 C 91.7391 1.46228 1.28249 0
M  V30 940 O 90.9941 0.620818 1.85592 0
M  V30 941 C 91.2931 3.57391 0.0249813 0
M  V30 942 C 90.9591 4.32583 -1.27211 0
M  V30 943 C 89.6211 4.52844 -1.62745 0
M  V30 944 C 91.9731 4.75687 -2.13005 0
M  V30 945 C 89.3011 5.13462 -2.83855 0
M  V30 946 C 91.6531 5.37644 -3.3335 0
M  V30 947 C 90.3171 5.5613 -3.69155 0
M  V30 948 H 89.5871 0.740407 -0.0296397 0
M  V30 949 H 92.2341 1.75321 -0.770374 0
M  V30 950 H 90.5391 3.83597 0.797537 0
M  V30 951 H 92.2361 3.98621 0.436184 0
M  V30 952 H 88.8261 4.17116 -0.985499 0
M  V30 953 H 93.0101 4.59782 -1.86855 0
M  V30 954 H 88.2661 5.25965 -3.11722 0
M  V30 955 H 92.4401 5.7 -4.00092 0
M  V30 956 H 90.0671 6.0287 -4.63089 0
M  V30 957 N 91.6422 0.330177 1.54103 0
M  V30 958 C 92.8882 -0.270806 2.00984 0
M  V30 959 C 93.2212 -1.51265 1.21789 0
M  V30 960 O 92.4962 -1.92142 0.301927 0
M  V30 961 C 92.7792 -0.598339 3.55094 0
M  V30 962 C 92.6322 0.654674 4.4501 0
M  V30 963 C 93.9512 -1.41334 4.16789 0
M  V30 964 H 91.0702 -0.0969531 0.730595 0
M  V30 965 H 93.7122 0.448066 1.84641 0
M  V30 966 H 91.8622 -1.21078 3.69151 0
M  V30 967 H 93.5342 1.29285 4.42813 0
M  V30 968 H 91.7772 1.28224 4.14416 0
M  V30 969 H 92.4482 0.380944 5.50684 0
M  V30 970 H 94.9242 -0.895597 4.06347 0
M  V30 971 H 93.8002 -1.61127 5.24718 0
M  V30 972 H 94.0612 -2.41146 3.70541 0
M  V30 973 N 93.1203 -1.57491 0.0584922 0
M  V30 974 C 94.0833 -2.1085 -0.898617 0
M  V30 975 C 95.0833 -1.02964 -1.23511 0
M  V30 976 O 96.2733 -1.29007 -1.17059 0
M  V30 977 C 93.4053 -2.59881 -2.20623 0
M  V30 978 H 94.5983 -2.96715 -0.435936 0
M  V30 979 H 92.1513 -1.55141 -0.190023 0
M  V30 980 H 92.8863 -1.77431 -2.71457 0
M  V30 981 H 92.6713 -3.38727 -1.97501 0
M  V30 982 H 94.1613 -3.01285 -2.89166 0
M  V30 983 N 94.5984 0.214957 -1.56127 0
M  V30 984 C 95.8234 0.95924 -1.83884 0
M  V30 985 C 96.2484 1.7689 -0.639644 0
M  V30 986 O 95.6064 1.76566 0.411601 0
M  V30 987 C 95.6544 1.84723 -3.09693 0
M  V30 988 O 94.7584 2.94346 -2.8885 0
M  V30 989 H 94.0994 0.27125 -0.606069 0
M  V30 990 H 96.6294 0.226276 -2.03345 0
M  V30 991 H 96.6394 2.25576 -3.39969 0
M  V30 992 H 95.3144 1.25218 -3.96602 0
M  V30 993 H 93.8914 2.57391 -2.69823 0
M  V30 994 N 96.0765 1.50051 0.48192 0
M  V30 995 C 97.3015 1.64508 1.26301 0
M  V30 996 C 97.7265 0.323851 1.85291 0
M  V30 997 O 97.0845 -0.710969 1.66778 0
M  V30 998 C 97.1325 2.7305 2.35533 0
M  V30 999 O 96.2365 2.3355 3.39895 0
M  V30 1000 H 95.5775 0.549978 0.372048 0
M  V30 1001 H 98.1075 1.9636 0.574786 0
M  V30 1002 H 98.1175 2.95799 2.8101 0
M  V30 1003 H 96.7925 3.68946 1.91967 0
M  V30 1004 H 95.3695 2.21205 3.00204 0
M  V30 1005 N 97.5546 -0.734337 1.39446 0
M  V30 1006 C 98.5176 -1.83004 1.37994 0
M  V30 1007 C 99.5176 -1.58397 0.276938 0
M  V30 1008 O 100.708 -1.65785 0.534875 0
M  V30 1009 C 97.8396 -3.20802 1.1532 0
M  V30 1010 H 99.0326 -1.85694 2.35494 0
M  V30 1011 H 96.5856 -0.938059 1.25021 0
M  V30 1012 H 97.3206 -3.23772 0.185036 0
M  V30 1013 H 97.1056 -3.4006 1.95197 0
M  V30 1014 H 98.5956 -4.00862 1.17046 0
M  V30 1015 N 99.0327 -1.24633 -0.964593 0
M  V30 1016 C 99.9627 -1.06611 -2.07741 0
M  V30 1017 C 100.944 0.0218666 -1.70086 0
M  V30 1018 O 102.129 -0.145793 -1.93652 0
M  V30 1019 C 99.2587 -0.673444 -3.40708 0
M  V30 1020 C 98.2127 -1.71054 -3.92332 0
M  V30 1021 C 97.5387 -1.17285 -5.21678 0
M  V30 1022 C 98.8387 -3.10718 -4.19824 0
M  V30 1023 H 100.533 -1.99693 -2.23076 0
M  V30 1024 H 98.0787 -0.96152 -1.07195 0
M  V30 1025 H 100.032 -0.534345 -4.17998 0
M  V30 1026 H 98.7557 0.293073 -3.25282 0
M  V30 1027 H 97.4147 -1.83791 -3.17201 0
M  V30 1028 H 97.0627 -0.196847 -5.02615 0
M  V30 1029 H 96.7627 -1.86592 -5.57187 0
M  V30 1030 H 98.2867 -1.04593 -6.01575 0
M  V30 1031 H 99.7007 -3.01192 -4.87808 0
M  V30 1032 H 98.0977 -3.77406 -4.66567 0
M  V30 1033 H 99.1677 -3.58524 -3.26479 0
M  V30 1034 N 100.511 1.16574 -1.06058 0
M  V30 1035 C 101.759 1.86677 -0.77434 0
M  V30 1036 C 102.08 1.81959 0.701147 0
M  V30 1037 O 101.35 1.2515 1.50713 0
M  V30 1038 H 99.9298 0.691134 -0.283449 0
M  V30 1039 H 102.592 1.41378 -1.34158 0
M  V30 1040 H 101.688 2.92181 -1.09711 0
M  V30 1041 N 101.989 0.842826 1.3317 0
M  V30 1042 C 102.922 0.223862 2.27099 0
M  V30 1043 C 103.9 -0.631311 1.49844 0
M  V30 1044 O 105.084 -0.590708 1.79005 0
M  V30 1045 C 102.211 -0.685313 3.31694 0
M  V30 1046 C 101.257 0.094919 4.26394 0
M  V30 1047 S 102.09 1.45546 5.15341 0
M  V30 1048 C 103.246 0.551685 6.23464 0
M  V30 1049 H 103.479 1.02015 2.79249 0
M  V30 1050 H 101.012 0.639797 1.4052 0
M  V30 1051 H 102.97 -1.20426 3.92438 0
M  V30 1052 H 101.631 -1.4553 2.78352 0
M  V30 1053 H 100.824 -0.597059 5.00451 0
M  V30 1054 H 100.426 0.545054 3.70007 0
M  V30 1055 H 102.718 -0.248877 6.77043 0
M  V30 1056 H 103.661 1.26253 6.96754 0
M  V30 1057 H 104.069 0.131275 5.64347 0
M  V30 1058 N 103.467 -1.45747 0.599634 0
M  V30 1059 C 104.415 -2.322 -0.136426 0
M  V30 1060 C 105.409 -1.45497 -0.867583 0
M  V30 1061 O 106.615 -1.62027 -0.78405 0
M  V30 1062 H 102.99 -0.749368 -0.0628588 0
M  V30 1063 H 104.961 -2.92072 0.611281 0
M  V30 1064 C 103.71 -3.28974 -1.12567 0
M  V30 1065 H 103.033 -3.9568 -0.572484 0
M  V30 1066 H 104.473 -3.92212 -1.61077 0
M  V30 1067 C 102.932 -2.55561 -2.19523 0
M  V30 1068 O 103.462 -2.33111 -3.27143 0
M  V30 1069 N 101.668 -2.15832 -1.94589 0
M  V30 1070 H 101.215 -2.3429 -1.07078 0
M  V30 1071 H 101.173 -1.67034 -2.66359 0
M  V30 1072 N 104.945 -0.338344 -1.53925 0
M  V30 1073 C 106.356 0.146651 -1.86123 0
M  V30 1074 C 106.707 1.5042 -1.2597 0
M  V30 1075 O 105.832 2.08723 -0.571294 0
M  V30 1076 C 106.427 0.272879 -3.37699 0
M  V30 1077 C 104.986 0.702103 -3.69794 0
M  V30 1078 C 104.133 -0.167304 -2.76795 0
M  V30 1079 H 107.084 -0.558123 -1.48562 0
M  V30 1080 H 107.105 1.10128 -3.64214 0
M  V30 1081 H 106.617 -0.715307 -3.81451 0
M  V30 1082 H 104.718 1.6995 -3.31584 0
M  V30 1083 H 104.831 0.495604 -4.7653 0
M  V30 1084 H 103.195 0.359527 -2.5215 0
M  V30 1085 H 103.978 -1.15253 -3.23375 0
M  V30 1086 N 106.423 1.57458 -0.0668435 0
M  V30 1087 C 107.834 1.80776 0.466558 0
M  V30 1088 C 108.185 0.980361 1.69951 0
M  V30 1089 O 107.31 0.201441 2.1546 0
M  V30 1090 C 107.905 3.27881 0.85321 0
M  V30 1091 C 106.464 3.52062 1.3315 0
M  V30 1092 C 105.611 2.75513 0.314264 0
M  V30 1093 H 108.562 1.5598 -0.292588 0
M  V30 1094 H 108.583 3.39659 1.715 0
M  V30 1095 H 108.095 3.88075 -0.0443439 0
M  V30 1096 H 106.196 2.97167 2.24772 0
M  V30 1097 H 106.309 4.60762 1.31285 0
M  V30 1098 H 104.673 2.42123 0.790492 0
M  V30 1099 H 105.456 3.38442 -0.575477 0
M  V30 1100 N 107.901 -0.206675 1.56239 0
M  V30 1101 C 108.864 -1.23976 1.92776 0
M  V30 1102 C 109.864 -1.39041 0.807729 0
M  V30 1103 O 111.054 -1.37051 1.0753 0
M  V30 1104 C 108.186 -2.61112 2.19165 0
M  V30 1105 H 109.379 -0.927764 2.85189 0
M  V30 1106 H 106.932 -0.447718 1.4975 0
M  V30 1107 H 107.667 -2.97386 1.29352 0
M  V30 1108 H 107.452 -2.51552 3.00772 0
M  V30 1109 H 108.942 -3.35633 2.48476 0
M  V30 1110 N 109.379 -1.50304 -0.473955 0
M  V30 1111 C 110.309 -1.71886 -1.58042 0
M  V30 1112 C 111.29 -0.567799 -1.60344 0
M  V30 1113 O 112.475 -0.806623 -1.76656 0
M  V30 1114 C 109.605 -1.81036 -2.96384 0
M  V30 1115 C 108.559 -2.962 -3.08949 0
M  V30 1116 C 107.885 -2.9049 -4.48909 0
M  V30 1117 C 109.185 -4.36752 -2.86434 0
M  V30 1118 H 110.879 -2.64527 -1.40234 0
M  V30 1119 H 108.425 -1.27295 -0.673201 0
M  V30 1120 H 110.378 -1.94719 -3.73714 0
M  V30 1121 H 109.102 -0.850147 -3.15341 0
M  V30 1122 H 107.761 -2.82164 -2.3405 0
M  V30 1123 H 107.409 -1.92321 -4.64781 0
M  V30 1124 H 107.109 -3.67802 -4.58253 0
M  V30 1125 H 108.633 -3.06218 -5.28264 0
M  V30 1126 H 110.047 -4.5133 -3.53517 0
M  V30 1127 H 108.444 -5.15493 -3.07225 0
M  V30 1128 H 109.514 -4.49321 -1.82316 0
M  V30 1129 N 110.857 0.726932 -1.39834 0
M  V30 1130 C 112.103 1.48884 -1.377 0
M  V30 1131 C 112.436 1.94185 0.0244852 0
M  V30 1132 O 111.711 1.67361 0.990986 0
M  V30 1133 C 111.994 2.72288 -2.3565 0
M  V30 1134 C 111.847 2.32956 -3.84775 0
M  V30 1135 C 113.166 3.74414 -2.31306 0
M  V30 1136 H 110.285 0.540062 -0.5015 0
M  V30 1137 H 112.927 0.830547 -1.70886 0
M  V30 1138 H 111.077 3.28457 -2.07481 0
M  V30 1139 H 112.749 1.82356 -4.23726 0
M  V30 1140 H 110.992 1.65088 -4.01159 0
M  V30 1141 H 111.663 3.21362 -4.4881 0
M  V30 1142 H 114.139 3.27849 -2.56231 0
M  V30 1143 H 113.015 4.58414 -3.01907 0
M  V30 1144 H 113.276 4.21909 -1.32081 0
M  V30 1145 N 112.336 1.25143 0.95797 0
M  V30 1146 C 113.613 1.00472 1.67823 0
M  V30 1147 C 113.993 -0.470056 2.058 0
M  V30 1148 O 113.341 -1.44663 1.76875 0
M  V30 1149 C 113.551 1.9372 2.90299 0
M  V30 1150 C 114.899 2.21371 3.62326 0
M  V30 1151 O 115.923 1.91451 3.00375 0
M  V30 1152 O 114.782 2.72231 4.7387 0
M  V30 1153 H 111.876 0.380752 0.734137 0
M  V30 1154 H 114.422 1.36283 1.01119 0
M  V30 1155 H 113.194 2.93316 2.59001 0
M  V30 1156 H 112.817 1.58286 3.64735 0
M  V30 1157 N 113.814 -1.1601 1.06675 0
M  V30 1158 C 115.091 -1.82679 0.699114 0
M  V30 1159 C 115.471 -1.94559 -0.819137 0
M  V30 1160 O 114.819 -1.49169 -1.73092 0
M  V30 1161 C 115.029 -3.19445 1.40555 0
M  V30 1162 C 116.377 -3.95171 1.55323 0
M  V30 1163 O 117.401 -3.28976 1.36577 0
M  V30 1164 O 116.26 -5.13833 1.86112 0
M  V30 1165 H 113.354 -0.788954 0.247951 0
M  V30 1166 H 115.9 -1.23179 1.16726 0
M  V30 1167 H 114.672 -3.05856 2.44065 0
M  V30 1168 H 114.295 -3.86625 0.927733 0
M  V30 1169 N 115.292 -0.849877 -1.32721 0
M  V30 1170 C 116.708 -0.539102 -1.50219 0
M  V30 1171 C 116.908 0.931271 -1.78689 0
M  V30 1172 O 115.964 1.71455 -1.85363 0
M  V30 1173 C 117.277 -1.42196 -2.64954 0
M  V30 1174 C 118.825 -1.42189 -2.78839 0
M  V30 1175 C 119.3 -2.28985 -3.96648 0
M  V30 1176 N 120.791 -2.26754 -4.03902 0
M  V30 1177 C 121.526 -2.90644 -4.94281 0
M  V30 1178 N 121.022 -3.63629 -5.897 0
M  V30 1179 N 122.815 -2.80057 -4.87365 0
M  V30 1180 H 114.966 -1.80156 -1.12506 0
M  V30 1181 H 117.229 -0.769217 -0.554085 0
M  V30 1182 H 116.935 -2.46733 -2.50631 0
M  V30 1183 H 116.809 -1.10591 -3.60624 0
M  V30 1184 H 119.196 -0.38419 -2.92588 0
M  V30 1185 H 119.277 -1.77807 -1.83898 0
M  V30 1186 H 118.921 -3.32819 -3.83658 0
M  V30 1187 H 118.851 -1.90702 -4.90857 0
M  V30 1188 H 121.342 -1.73688 -3.3562 0
M  V30 1189 H 121.655 -4.09558 -6.55349 0
M  V30 1190 H 120 -3.67737 -5.89741 0
M  V30 1191 H 123.191 -2.22593 -4.11789 0
M  V30 1192 H 123.364 -3.30132 -5.57599 0
M  V30 1193 N 116.77 1.45427 -0.607355 0
M  V30 1194 C 117.68 2.34325 0.113463 0
M  V30 1195 C 118.696 1.51226 0.860617 0
M  V30 1196 O 119.872 1.84029 0.818255 0
M  V30 1197 C 116.937 3.28839 1.09844 0
M  V30 1198 C 115.998 4.27844 0.353271 0
M  V30 1199 C 115.231 5.17842 1.29133 0
M  V30 1200 O 115.454 5.11264 2.52913 0
M  V30 1201 O 114.388 5.96713 0.788523 0
M  V30 1202 H 118.214 2.97364 -0.617094 0
M  V30 1203 H 115.799 1.44807 -0.367619 0
M  V30 1204 H 117.681 3.8708 1.66575 0
M  V30 1205 H 116.356 2.68365 1.81003 0
M  V30 1206 H 115.263 3.7322 -0.256494 0
M  V30 1207 H 116.596 4.91173 -0.317822 0
M  V30 1208 N 118.248 0.346503 1.53744 0
M  V30 1209 C 119.495 -0.249104 2.00962 0
M  V30 1210 C 119.823 -1.5032 1.23426 0
M  V30 1211 O 119.078 -1.93217 0.310761 0
M  V30 1212 C 119.377 -0.605809 3.52228 0
M  V30 1213 C 119.043 0.551747 4.47512 0
M  V30 1214 C 117.705 0.86941 4.73281 0
M  V30 1215 C 120.057 1.32818 5.03993 0
M  V30 1216 C 117.385 1.96582 5.52786 0
M  V30 1217 C 119.737 2.41486 5.84694 0
M  V30 1218 C 118.401 2.73808 6.08757 0
M  V30 1219 H 117.671 -0.0911538 0.735372 0
M  V30 1220 H 120.318 0.475027 1.85515 0
M  V30 1221 H 118.623 -1.4107 3.65522 0
M  V30 1222 H 120.32 -1.07858 3.86222 0
M  V30 1223 H 116.91 0.294102 4.2759 0
M  V30 1224 H 121.094 1.09602 4.84047 0
M  V30 1225 H 116.35 2.22045 5.69654 0
M  V30 1226 H 120.524 3.02078 6.27473 0
M  V30 1227 H 118.151 3.58892 6.7015 0
M  V30 1228 N 119.726 -1.57421 0.075193 0
M  V30 1229 C 120.676 -2.09441 -0.901025 0
M  V30 1230 C 121.66 -1.00486 -1.25663 0
M  V30 1231 O 122.852 -1.2679 -1.23504 0
M  V30 1232 C 119.981 -2.66233 -2.16737 0
M  V30 1233 C 119.067 -3.82198 -1.83808 0
M  V30 1234 N 119.458 -4.91028 -1.21345 0
M  V30 1235 C 117.756 -3.91558 -2.13538 0
M  V30 1236 C 118.457 -5.71852 -1.06585 0
M  V30 1237 N 117.433 -5.20233 -1.57667 0
M  V30 1238 H 121.235 -2.90972 -0.413815 0
M  V30 1239 H 118.749 -1.6189 -0.128601 0
M  V30 1240 H 120.746 -3.01819 -2.87595 0
M  V30 1241 H 119.406 -1.8615 -2.66042 0
M  V30 1242 H 120.417 -5.10323 -0.88268 0
M  V30 1243 H 117.094 -3.22454 -2.65197 0
M  V30 1244 H 118.484 -6.69401 -0.578933 0
M  V30 1245 N 121.204 0.198386 -1.56346 0
M  V30 1246 C 122.167 1.22952 -1.93431 0
M  V30 1247 C 123.167 1.38611 -0.815092 0
M  V30 1248 O 124.357 1.36479 -1.08255 0
M  V30 1249 C 121.489 2.59946 -2.20546 0
M  V30 1250 H 122.682 0.912626 -2.85677 0
M  V30 1251 H 120.235 0.43977 -1.49986 0
M  V30 1252 H 120.97 2.96696 -1.30927 0
M  V30 1253 H 120.755 2.49953 -3.02102 0
M  V30 1254 H 122.245 3.3431 -2.50253 0
M  V30 1255 N 122.682 1.50554 0.465978 0
M  V30 1256 C 123.592 1.72585 1.58907 0
M  V30 1257 C 124.608 0.60911 1.6299 0
M  V30 1258 O 125.784 0.88804 1.80765 0
M  V30 1259 C 122.849 1.81995 2.95091 0
M  V30 1260 C 121.91 3.05751 3.01355 0
M  V30 1261 C 121.143 3.14702 4.31043 0
M  V30 1262 O 121.366 2.30313 5.21835 0
M  V30 1263 O 120.3 4.07468 4.43005 0
M  V30 1264 H 124.126 2.67799 1.43239 0
M  V30 1265 H 121.711 1.34711 0.646013 0
M  V30 1266 H 123.593 1.90335 3.75966 0
M  V30 1267 H 122.268 0.899659 3.10947 0
M  V30 1268 H 121.175 3.02908 2.19539 0
M  V30 1269 H 122.508 3.97375 2.90437 0
M  V30 1270 N 124.16 -0.719506 1.40217 0
M  V30 1271 C 125.09 -1.8465 1.42922 0
M  V30 1272 C 126.071 -1.67599 0.29062 0
M  V30 1273 O 127.256 -1.87688 0.498677 0
M  V30 1274 C 124.386 -3.22565 1.28722 0
M  V30 1275 C 123.34 -3.54281 2.40144 0
M  V30 1276 C 122.666 -4.91298 2.11023 0
M  V30 1277 C 123.966 -3.55676 3.82481 0
M  V30 1278 H 125.66 -1.82644 2.37237 0
M  V30 1279 H 123.206 -0.877305 1.1419 0
M  V30 1280 H 125.159 -4.01095 1.29232 0
M  V30 1281 H 123.883 -3.25137 0.308811 0
M  V30 1282 H 122.542 -2.78088 2.38877 0
M  V30 1283 H 122.19 -4.90468 1.11582 0
M  V30 1284 H 121.89 -5.13485 2.8567 0
M  V30 1285 H 123.414 -5.72166 2.13209 0
M  V30 1286 H 124.828 -4.24254 3.85592 0
M  V30 1287 H 123.225 -3.89388 4.56614 0
M  V30 1288 H 124.295 -2.55144 4.12346 0
M  V30 1289 N 125.638 -1.25649 -0.95132 0
M  V30 1290 C 126.571 -1.00644 -2.04807 0
M  V30 1291 C 127.549 0.0654271 -1.62468 0
M  V30 1292 O 128.733 -0.074911 -1.88351 0
M  V30 1293 C 125.86 -0.522052 -3.34653 0
M  V30 1294 C 124.906 -1.58495 -3.95957 0
M  V30 1295 S 125.739 -3.17108 -4.31512 0
M  V30 1296 C 126.895 -2.70412 -5.64471 0
M  V30 1297 H 127.128 -1.93508 -2.25703 0
M  V30 1298 H 124.661 -1.09216 -1.09139 0
M  V30 1299 H 126.619 -0.24923 -4.09743 0
M  V30 1300 H 125.28 0.386146 -3.11717 0
M  V30 1301 H 124.473 -1.1968 -4.89584 0
M  V30 1302 H 124.075 -1.80862 -3.2736 0
M  V30 1303 H 126.367 -2.14245 -6.42733 0
M  V30 1304 H 127.31 -3.62693 -6.08161 0
M  V30 1305 H 127.718 -2.10302 -5.23864 0
M  V30 1306 N 127.117 1.15442 -1.07289 0
M  V30 1307 C 128.049 2.19773 -0.650585 0
M  V30 1308 C 129.062 1.60076 0.296572 0
M  V30 1309 O 130.251 1.78293 0.0859905 0
M  V30 1310 C 127.351 3.38838 0.0650398 0
M  V30 1311 C 126.524 4.2808 -0.898141 0
M  V30 1312 C 125.583 5.2574 -0.219926 0
M  V30 1313 O 124.609 5.62654 -0.860773 0
M  V30 1314 N 125.811 5.71205 1.03466 0
M  V30 1315 H 128.576 2.56622 -1.54808 0
M  V30 1316 H 126.137 1.30551 -0.957494 0
M  V30 1317 H 128.129 4.01222 0.529415 0
M  V30 1318 H 126.699 3.00409 0.864466 0
M  V30 1319 H 125.919 3.62804 -1.54165 0
M  V30 1320 H 127.207 4.84577 -1.5512 0
M  V30 1321 H 126.605 5.43325 1.57526 0
M  V30 1322 H 125.162 6.35633 1.44272 0
M  V30 1323 N 128.595 0.856903 1.32268 0
M  V30 1324 C 129.558 0.308171 2.27119 0
M  V30 1325 C 130.558 -0.533421 1.51695 0
M  V30 1326 O 131.748 -0.344607 1.70757 0
M  V30 1327 C 128.88 -0.563757 3.36206 0
M  V30 1328 H 130.073 1.14535 2.77167 0
M  V30 1329 H 127.626 0.631421 1.42978 0
M  V30 1330 H 128.361 -1.42266 2.91429 0
M  V30 1331 H 128.146 0.0386749 3.92081 0
M  V30 1332 H 129.636 -0.940386 4.06874 0
M  V30 1333 N 130.073 -1.45103 0.615059 0
M  V30 1334 C 131.036 -2.29025 -0.0895485 0
M  V30 1335 C 132.036 -1.40174 -0.787906 0
M  V30 1336 O 133.226 -1.62217 -0.634933 0
M  V30 1337 C 130.358 -3.21376 -1.13711 0
M  V30 1338 H 131.551 -2.92807 0.648382 0
M  V30 1339 H 129.104 -1.51749 0.374444 0
M  V30 1340 H 129.839 -2.6241 -1.90556 0
M  V30 1341 H 129.624 -3.86834 -0.640475 0
M  V30 1342 H 131.114 -3.84459 -1.63036 0
M  V30 1343 N 131.551 -0.354651 -1.53558 0
M  V30 1344 C 132.481 0.489091 -2.2832 0
M  V30 1345 C 133.462 1.09324 -1.30316 0
M  V30 1346 O 134.647 1.11255 -1.59173 0
M  V30 1347 C 131.777 1.63456 -3.0643 0
M  V30 1348 C 130.731 1.1582 -4.12031 0
M  V30 1349 C 130.057 2.39305 -4.7816 0
M  V30 1350 C 131.357 0.250731 -5.21698 0
M  V30 1351 H 133.051 -0.134614 -2.99097 0
M  V30 1352 H 130.597 -0.0661826 -1.43848 0
M  V30 1353 H 132.55 2.23136 -3.57475 0
M  V30 1354 H 131.274 2.28533 -2.33325 0
M  V30 1355 H 129.933 0.584146 -3.61916 0
M  V30 1356 H 129.581 3.02814 -4.01637 0
M  V30 1357 H 129.281 2.08109 -5.49513 0
M  V30 1358 H 130.805 2.99691 -5.31994 0
M  V30 1359 H 132.219 0.754695 -5.68311 0
M  V30 1360 H 130.616 0.0301468 -6.00092 0
M  V30 1361 H 131.686 -0.710125 -4.79672 0
M  V30 1362 N 133.029 1.57378 -0.0835403 0
M  V30 1363 C 133.977 2.14602 0.89714 0
M  V30 1364 C 134.971 1.08589 1.30018 0
M  V30 1365 O 136.177 1.26952 1.27606 0
M  V30 1366 H 132.552 0.686346 0.3073 0
M  V30 1367 H 134.523 2.95845 0.38969 0
M  V30 1368 C 133.272 2.73188 2.15089 0
M  V30 1369 H 132.595 3.54442 1.84962 0
M  V30 1370 H 134.035 3.1681 2.81793 0
M  V30 1371 C 132.494 1.68517 2.91725 0
M  V30 1372 O 133.024 1.11718 3.85852 0
M  V30 1373 N 131.23 1.39277 2.55049 0
M  V30 1374 H 130.777 1.85655 1.78577 0
M  V30 1375 H 130.735 0.694791 3.06627 0
M  V30 1376 N 134.507 -0.190092 1.56449 0
M  V30 1377 C 135.454 -1.23557 1.94942 0
M  V30 1378 C 136.424 -1.44972 0.810696 0
M  V30 1379 O 137.609 -1.58023 1.06927 0
M  V30 1380 C 134.749 -2.57416 2.2985 0
M  V30 1381 C 133.862 -2.43537 3.5681 0
M  V30 1382 C 132.997 -3.70134 3.81017 0
M  V30 1383 C 132.036 -3.51109 5.01387 0
M  V30 1384 N 131.173 -4.6973 5.21822 0
M  V30 1385 H 136.013 -0.900304 2.84075 0
M  V30 1386 H 133.55 -0.43318 1.40577 0
M  V30 1387 H 135.508 -3.35409 2.48106 0
M  V30 1388 H 134.138 -2.88975 1.43852 0
M  V30 1389 H 133.19 -1.56816 3.46573 0
M  V30 1390 H 134.502 -2.25415 4.4496 0
M  V30 1391 H 133.656 -4.56566 3.9954 0
M  V30 1392 H 132.395 -3.91215 2.91207 0
M  V30 1393 H 131.4 -2.63063 4.82782 0
M  V30 1394 H 132.625 -3.31468 5.9271 0
M  V30 1395 H 130.571 -4.91065 4.34961 0
M  V30 1396 H 130.488 -4.54452 6.0416 0
M  V30 1397 H 131.756 -5.57499 5.44808 0
M  V30 1398 N 135.985 -1.50799 -0.457987 0
M  V30 1399 C 137.396 -1.55152 -1.0385 0
M  V30 1400 C 137.747 -0.362719 -1.92818 0
M  V30 1401 O 136.872 0.522915 -2.09987 0
M  V30 1402 C 137.467 -2.81173 -1.89017 0
M  V30 1403 C 136.026 -2.88164 -2.42154 0
M  V30 1404 C 135.173 -2.49591 -1.20829 0
M  V30 1405 H 138.124 -1.56874 -0.240068 0
M  V30 1406 H 138.145 -2.63769 -2.74238 0
M  V30 1407 H 137.657 -3.67677 -1.24238 0
M  V30 1408 H 135.758 -2.06042 -3.10447 0
M  V30 1409 H 135.871 -3.91356 -2.76364 0
M  V30 1410 H 134.235 -2.02322 -1.54719 0
M  V30 1411 H 135.018 -3.38418 -0.576927 0
M  V30 1412 N 137.463 0.71206 -1.40597 0
M  V30 1413 C 138.688 1.50617 -1.42581 0
M  V30 1414 C 139.113 1.88079 -0.0282102 0
M  V30 1415 O 138.471 1.53511 0.964579 0
M  V30 1416 C 138.519 2.7557 -2.3258 0
M  V30 1417 O 137.623 3.72414 -1.77148 0
M  V30 1418 H 136.964 0.453966 -0.484573 0
M  V30 1419 H 139.494 0.876649 -1.84868 0
M  V30 1420 H 139.504 3.2406 -2.47889 0
M  V30 1421 H 138.179 2.47639 -3.34138 0
M  V30 1422 H 136.756 3.31276 -1.71204 0
M  V30 1423 N 138.941 1.26152 0.944643 0
M  V30 1424 C 139.889 1.07215 2.06417 0
M  V30 1425 C 140.883 9.2007e-05 1.694 0
M  V30 1426 O 142.089 0.1565 1.79318 0
M  V30 1427 H 138.464 0.329837 0.675805 0
M  V30 1428 H 140.435 2.02099 2.19541 0
M  V30 1429 C 139.184 0.718197 3.40202 0
M  V30 1430 H 138.507 1.53497 3.69159 0
M  V30 1431 H 139.947 0.625459 4.19361 0
M  V30 1432 C 138.406 -0.576435 3.31932 0
M  V30 1433 O 138.936 -1.61574 3.67773 0
M  V30 1434 N 137.142 -0.565781 2.85039 0
M  V30 1435 H 136.689 0.280367 2.5607 0
M  V30 1436 H 136.647 -1.43213 2.79888 0
M  V30 1437 N 140.419 -1.14872 1.07899 0
M  V30 1438 C 141.644 -1.90202 0.826926 0
M  V30 1439 C 142.069 -1.77774 -0.614664 0
M  V30 1440 O 141.427 -1.11431 -1.43013 0
M  V30 1441 C 141.475 -3.38352 1.24702 0
M  V30 1442 O 140.579 -4.10497 0.39575 0
M  V30 1443 H 139.92 -0.591968 0.300782 0
M  V30 1444 H 142.45 -1.45437 1.43907 0
M  V30 1445 H 142.46 -3.89156 1.22563 0
M  V30 1446 H 141.135 -3.46715 2.29698 0
M  V30 1447 H 139.712 -3.69796 0.480117 0
M  V30 1448 N 141.898 -0.863906 -1.31812 0
M  V30 1449 C 143.175 -0.39275 -1.91616 0
M  V30 1450 C 143.555 1.12461 -1.7865 0
M  V30 1451 O 142.903 1.95045 -1.19037 0
M  V30 1452 C 143.113 -0.867385 -3.38049 0
M  V30 1453 C 144.461 -0.889966 -4.15168 0
M  V30 1454 O 145.485 -0.812635 -3.46806 0
M  V30 1455 O 144.344 -1.00079 -5.37258 0
M  V30 1456 H 141.438 -0.116358 -0.818773 0
M  V30 1457 H 143.984 -0.951418 -1.40521 0
M  V30 1458 H 142.756 -1.91081 -3.41473 0
M  V30 1459 H 142.379 -0.286687 -3.96565 0
M  V30 1460 N 143.376 1.44774 -0.622745 0
M  V30 1461 C 144.622 2.0242 -0.124083 0
M  V30 1462 C 144.955 1.4881 1.24777 0
M  V30 1463 O 144.23 0.668799 1.8264 0
M  V30 1464 C 144.513 3.59957 -0.101619 0
M  V30 1465 C 144.366 4.23867 -1.50521 0
M  V30 1466 C 145.685 4.36284 0.578272 0
M  V30 1467 H 142.804 0.735528 -0.0465645 0
M  V30 1468 H 145.446 1.72447 -0.797617 0
M  V30 1469 H 143.596 3.85623 0.471934 0
M  V30 1470 H 145.268 4.09336 -2.12701 0
M  V30 1471 H 143.511 3.81684 -2.06154 0
M  V30 1472 H 144.182 5.32843 -1.4416 0
M  V30 1473 H 146.658 4.16001 0.0906057 0
M  V30 1474 H 145.534 5.46004 0.563149 0
M  V30 1475 H 145.795 4.10271 1.64713 0
M  V30 1476 N 144.854 0.36279 1.53368 0
M  V30 1477 C 146.084 -0.228281 2.05335 0
M  V30 1478 C 146.492 -1.43226 1.23625 0
M  V30 1479 O 145.835 -1.81717 0.269206 0
M  V30 1480 C 145.897 -0.688549 3.52845 0
M  V30 1481 C 145.561 0.398362 4.5526 0
M  V30 1482 C 146.558 1.24732 5.04716 0
M  V30 1483 C 144.243 0.557805 4.99193 0
M  V30 1484 C 146.237 2.2411 5.96702 0
M  V30 1485 C 143.924 1.55495 5.90986 0
M  V30 1486 C 144.922 2.39503 6.39631 0
M  V30 1487 O 144.61 3.37517 7.29615 0
M  V30 1488 H 144.342 -0.044395 0.674541 0
M  V30 1489 H 146.896 0.518668 1.98744 0
M  V30 1490 H 145.126 -1.48706 3.56964 0
M  V30 1491 H 146.815 -1.20231 3.87685 0
M  V30 1492 H 147.581 1.13532 4.71525 0
M  V30 1493 H 143.46 -0.0862959 4.60919 0
M  V30 1494 H 147.004 2.89718 6.34594 0
M  V30 1495 H 142.901 1.66744 6.23592 0
M  V30 1496 H 143.669 3.33213 7.47604 0
M  V30 1497 N 146.332 -1.57332 0.0918853 0
M  V30 1498 C 147.557 -1.98995 -0.584442 0
M  V30 1499 C 147.982 -0.970528 -1.61128 0
M  V30 1500 O 147.34 0.0613904 -1.81196 0
M  V30 1501 C 147.388 -3.39636 -1.21161 0
M  V30 1502 O 146.492 -3.40447 -2.32744 0
M  V30 1503 H 145.833 -0.647165 -0.148572 0
M  V30 1504 H 148.363 -2.03873 0.172347 0
M  V30 1505 H 148.373 -3.7726 -1.55367 0
M  V30 1506 H 147.048 -4.13356 -0.459313 0
M  V30 1507 H 145.625 -3.14614 -2.0018 0
M  V30 1508 N 147.81 0.181792 -1.56548 0
M  V30 1509 C 149.056 0.901431 -1.81665 0
M  V30 1510 C 149.389 1.82347 -0.668075 0
M  V30 1511 O 148.664 1.91669 0.330615 0
M  V30 1512 C 148.947 1.70618 -3.17115 0
M  V30 1513 C 148.8 0.807964 -4.42484 0
M  V30 1514 C 150.119 2.67605 -3.49393 0
M  V30 1515 H 147.238 0.32627 -0.660846 0
M  V30 1516 H 149.88 0.168134 -1.89255 0
M  V30 1517 H 148.03 2.33133 -3.10775 0
M  V30 1518 H 149.702 0.19649 -4.60881 0
M  V30 1519 H 147.945 0.115411 -4.33646 0
M  V30 1520 H 148.616 1.40632 -5.33785 0
M  V30 1521 H 151.092 2.15218 -3.56118 0
M  V30 1522 H 149.968 3.20985 -4.45264 0
M  V30 1523 H 150.229 3.47298 -2.73563 0
M  V30 1524 N 149.288 1.51039 0.449983 0
M  V30 1525 C 150.251 1.70863 1.5277 0
M  V30 1526 C 151.251 0.578846 1.5002 0
M  V30 1527 O 152.441 0.846213 1.52266 0
M  V30 1528 C 149.573 1.75341 2.9235 0
M  V30 1529 H 150.766 2.67034 1.36502 0
M  V30 1530 H 148.319 1.40838 0.677812 0
M  V30 1531 H 149.054 0.809383 3.14037 0
M  V30 1532 H 148.839 2.57436 2.95752 0
M  V30 1533 H 150.329 1.92559 3.70555 0
M  V30 1534 N 150.766 -0.704594 1.40972 0
M  V30 1535 C 151.699 -1.82861 1.36518 0
M  V30 1536 C 152.677 -1.6091 0.23382 0
M  V30 1537 O 153.861 -1.83778 0.419271 0
M  V30 1538 C 150.988 -3.1939 1.12729 0
M  V30 1539 C 150.034 -3.60148 2.28463 0
M  V30 1540 S 150.867 -3.65994 3.90907 0
M  V30 1541 C 152.023 -5.05264 3.69403 0
M  V30 1542 H 152.256 -1.86361 2.3164 0
M  V30 1543 H 149.789 -0.872439 1.27389 0
M  V30 1544 H 151.747 -3.98211 0.996893 0
M  V30 1545 H 150.408 -3.1351 0.192427 0
M  V30 1546 H 149.601 -4.59309 2.07489 0
M  V30 1547 H 149.203 -2.88612 2.37863 0
M  V30 1548 H 151.495 -5.92504 3.28551 0
M  V30 1549 H 152.438 -5.31278 4.68134 0
M  V30 1550 H 152.846 -4.76377 3.02862 0
M  V30 1551 N 152.244 -1.26651 -0.937939 0
M  V30 1552 C 153.207 -1.08546 -2.01867 0
M  V30 1553 C 154.207 -0.0327327 -1.60767 0
M  V30 1554 O 155.397 -0.276427 -1.71993 0
M  V30 1555 C 152.529 -0.651711 -3.34613 0
M  V30 1556 H 153.722 -2.04502 -2.1936 0
M  V30 1557 H 151.275 -1.09294 -1.11734 0
M  V30 1558 H 152.01 0.309696 -3.22818 0
M  V30 1559 H 151.795 -1.41189 -3.65798 0
M  V30 1560 H 153.285 -0.546973 -4.14002 0
M  V30 1561 N 153.722 1.14298 -1.08507 0
M  V30 1562 C 155.138 1.37347 -0.812901 0
M  V30 1563 C 155.338 1.93052 0.577325 0
M  V30 1564 O 154.394 2.14389 1.33393 0
M  V30 1565 C 155.707 2.33359 -1.89642 0
M  V30 1566 C 157.255 2.46996 -1.92255 0
M  V30 1567 C 157.73 3.46309 -2.99724 0
M  V30 1568 N 159.221 3.53853 -2.98902 0
M  V30 1569 C 159.956 4.3055 -3.787 0
M  V30 1570 N 159.452 5.10482 -4.6838 0
M  V30 1571 N 161.245 4.25757 -3.66998 0
M  V30 1572 H 153.396 0.764867 -1.9815 0
M  V30 1573 H 155.659 0.398966 -0.859959 0
M  V30 1574 H 155.365 1.99565 -2.89597 0
M  V30 1575 H 155.239 3.33274 -1.76659 0
M  V30 1576 H 157.626 2.80081 -0.929445 0
M  V30 1577 H 157.707 1.47039 -2.09316 0
M  V30 1578 H 157.351 3.13957 -3.99241 0
M  V30 1579 H 157.281 4.46049 -2.79907 0
M  V30 1580 H 159.772 2.96812 -2.33904 0
M  V30 1581 H 160.085 5.66284 -5.25873 0
M  V30 1582 H 158.43 5.09747 -4.72422 0
M  V30 1583 H 161.621 3.62383 -2.96304 0
M  V30 1584 H 161.794 4.85279 -4.29427 0
M  V30 1585 N 155.201 0.870884 1.31352 0
M  V30 1586 C 156.448 0.482273 1.96673 0
M  V30 1587 C 156.776 -0.965638 1.68836 0
M  V30 1588 O 156.031 -1.69514 0.977937 0
M  V30 1589 C 156.33 0.687157 3.50732 0
M  V30 1590 C 155.996 2.108 3.9859 0
M  V30 1591 C 154.658 2.49656 4.1137 0
M  V30 1592 C 157.01 3.03459 4.23748 0
M  V30 1593 C 154.338 3.80412 4.46659 0
M  V30 1594 C 156.69 4.3373 4.60501 0
M  V30 1595 C 155.354 4.725 4.71487 0
M  V30 1596 H 154.624 0.176476 0.719679 0
M  V30 1597 H 157.271 1.10405 1.56471 0
M  V30 1598 H 155.576 -0.0177476 3.91796 0
M  V30 1599 H 157.273 0.366284 3.99324 0
M  V30 1600 H 153.863 1.79633 3.8914 0
M  V30 1601 H 158.047 2.74665 4.13368 0
M  V30 1602 H 153.303 4.1021 4.53362 0
M  V30 1603 H 157.477 5.05578 4.78919 0
M  V30 1604 H 155.104 5.73859 4.98588 0
M  V30 1605 N 156.679 -1.44442 0.630414 0
M  V30 1606 C 157.925 -2.02351 0.134816 0
M  V30 1607 C 158.258 -1.4947 -1.23986 0
M  V30 1608 O 157.533 -0.678475 -1.82283 0
M  V30 1609 C 157.816 -3.59898 0.120707 0
M  V30 1610 C 157.669 -4.23063 1.52767 0
M  V30 1611 C 158.988 -4.36585 -0.555127 0
M  V30 1612 H 156.107 -0.73527 0.0504646 0
M  V30 1613 H 158.749 -1.72022 0.806751 0
M  V30 1614 H 156.899 -3.85868 -0.451477 0
M  V30 1615 H 158.571 -4.08202 2.14869 0
M  V30 1616 H 156.814 -3.80586 2.08175 0
M  V30 1617 H 157.485 -5.32071 1.46984 0
M  V30 1618 H 159.961 -4.16044 -0.0685429 0
M  V30 1619 H 158.837 -5.46294 -0.534185 0
M  V30 1620 H 159.098 -4.11138 -1.62535 0
M  V30 1621 N 158.157 -0.370918 -1.53173 0
M  V30 1622 C 159.067 0.480823 -2.2962 0
M  V30 1623 C 160.083 1.08789 -1.35798 0
M  V30 1624 O 161.259 1.09768 -1.68858 0
M  V30 1625 C 158.324 1.60227 -3.07454 0
M  V30 1626 C 157.385 1.0222 -4.16953 0
M  V30 1627 C 156.618 2.0902 -4.91066 0
M  V30 1628 O 156.841 3.30222 -4.65091 0
M  V30 1629 O 155.775 1.71778 -5.76867 0
M  V30 1630 H 159.601 -0.141421 -3.03371 0
M  V30 1631 H 157.186 -0.135146 -1.48787 0
M  V30 1632 H 159.068 2.25417 -3.56041 0
M  V30 1633 H 157.743 2.20982 -2.36535 0
M  V30 1634 H 156.65 0.334064 -3.72605 0
M  V30 1635 H 157.983 0.459131 -4.90054 0
M  V30 1636 N 159.635 1.57281 -0.100228 0
M  V30 1637 C 160.863 1.98879 0.570509 0
M  V30 1638 C 161.278 0.979476 1.61405 0
M  V30 1639 O 160.635 -0.0302288 1.82475 0
M  V30 1640 C 160.686 3.4052 1.2136 0
M  V30 1641 O 160.407 4.37588 0.211786 0
M  V30 1642 C 161.908 3.97149 1.96945 0
M  V30 1643 H 159.128 0.653428 0.152555 0
M  V30 1644 H 161.672 2.03697 -0.18103 0
M  V30 1645 H 159.827 3.367 1.91603 0
M  V30 1646 H 160.241 5.20118 0.676607 0
M  V30 1647 H 161.715 4.98393 2.37294 0
M  V30 1648 H 162.192 3.3525 2.83733 0
M  V30 1649 H 162.798 4.04458 1.31506 0
M  V30 1650 N 161.113 -0.173488 1.56642 0
M  V30 1651 C 162.36 -0.890465 1.81871 0
M  V30 1652 C 162.688 -1.82339 0.67696 0
M  V30 1653 O 161.943 -1.92795 -0.335926 0
M  V30 1654 C 162.242 -1.72069 3.13252 0
M  V30 1655 C 161.908 -0.936878 4.41059 0
M  V30 1656 C 160.57 -0.720545 4.75775 0
M  V30 1657 C 162.922 -0.386919 5.19762 0
M  V30 1658 C 160.25 0.0568829 5.86672 0
M  V30 1659 C 162.602 0.37741 6.31473 0
M  V30 1660 C 161.266 0.604563 6.64757 0
M  V30 1661 H 160.536 -0.325844 0.665512 0
M  V30 1662 H 163.183 -0.155527 1.90867 0
M  V30 1663 H 161.488 -2.52496 2.99588 0
M  V30 1664 H 163.185 -2.27844 3.29982 0
M  V30 1665 H 159.775 -1.11553 4.13828 0
M  V30 1666 H 163.959 -0.541398 4.93338 0
M  V30 1667 H 159.215 0.242635 6.10918 0
M  V30 1668 H 163.389 0.810825 6.91664 0
M  V30 1669 H 161.016 1.20885 7.50527 0
M  V30 1670 N 162.591 -1.51276 -0.441967 0
M  V30 1671 C 163.554 -1.7167 -1.51862 0
M  V30 1672 C 164.554 -0.586793 -1.49711 0
M  V30 1673 O 165.744 -0.854276 -1.51815 0
M  V30 1674 C 162.876 -1.76889 -2.91416 0
M  V30 1675 H 164.069 -2.67754 -1.35084 0
M  V30 1676 H 161.622 -1.41196 -0.670333 0
M  V30 1677 H 162.357 -0.826026 -3.13604 0
M  V30 1678 H 162.142 -2.59001 -2.94382 0
M  V30 1679 H 163.632 -1.94522 -3.69528 0
M  V30 1680 N 164.069 0.697108 -1.41344 0
M  V30 1681 C 165.485 1.00751 -1.2378 0
M  V30 1682 C 165.685 2.01105 -0.126066 0
M  V30 1683 O 164.741 2.47295 0.51004 0
M  V30 1684 C 166.054 1.53359 -2.58653 0
M  V30 1685 C 167.602 1.6525 -2.65822 0
M  V30 1686 C 168.077 2.2126 -4.01009 0
M  V30 1687 N 169.568 2.28622 -4.02847 0
M  V30 1688 C 170.303 2.72984 -5.04249 0
M  V30 1689 N 169.799 3.16962 -6.16041 0
M  V30 1690 N 171.592 2.72534 -4.91611 0
M  V30 1691 H 163.743 0.0322662 -2.12375 0
M  V30 1692 H 166.006 0.0768853 -0.944877 0
M  V30 1693 H 165.712 0.870773 -3.4075 0
M  V30 1694 H 165.586 2.51597 -2.81032 0
M  V30 1695 H 167.973 2.30644 -1.84086 0
M  V30 1696 H 168.054 0.655614 -2.47256 0
M  V30 1697 H 167.698 1.56482 -4.83193 0
M  V30 1698 H 167.628 3.21698 -4.16915 0
M  V30 1699 H 170.119 1.97585 -3.22131 0
M  V30 1700 H 170.432 3.49434 -6.89287 0
M  V30 1701 H 168.777 3.14875 -6.1958 0
M  V30 1702 H 171.968 2.37525 -4.0336 0
M  V30 1703 H 172.141 3.06789 -5.70775 0
M  V30 1704 N 165.547 1.27147 0.931209 0
M  V30 1705 C 166.793 1.13446 1.68101 0
M  V30 1706 C 167.126 -0.319628 1.91552 0
M  V30 1707 O 166.401 -1.23407 1.50336 0
M  V30 1708 C 166.684 1.91482 3.0497 0
M  V30 1709 C 166.537 3.44855 2.88782 0
M  V30 1710 C 167.856 1.71651 4.05246 0
M  V30 1711 H 164.975 0.413498 0.610072 0
M  V30 1712 H 167.617 1.56261 1.08086 0
M  V30 1713 H 165.767 1.55095 3.56199 0
M  V30 1714 H 167.439 3.9105 2.44698 0
M  V30 1715 H 165.682 3.71373 2.24198 0
M  V30 1716 H 166.353 3.94694 3.85902 0
M  V30 1717 H 168.829 2.0337 3.63015 0
M  V30 1718 H 167.705 2.28651 4.99009 0
M  V30 1719 H 167.966 0.663555 4.37092 0
M  V30 1720 N 167.025 -1.13721 1.09112 0
M  V30 1721 C 167.955 -2.21148 0.749385 0
M  V30 1722 C 168.936 -1.6792 -0.271475 0
M  V30 1723 O 170.121 -1.93693 -0.140251 0
M  V30 1724 C 167.251 -3.46905 0.165659 0
M  V30 1725 C 166.205 -4.13203 1.11567 0
M  V30 1726 C 165.531 -5.33248 0.393809 0
M  V30 1727 C 166.831 -4.60912 2.45678 0
M  V30 1728 H 168.525 -2.4999 1.64758 0
M  V30 1729 H 166.071 -1.20156 0.793626 0
M  V30 1730 H 168.024 -4.21313 -0.085466 0
M  V30 1731 H 166.748 -3.17449 -0.767714 0
M  V30 1732 H 165.407 -3.40758 1.35202 0
M  V30 1733 H 165.055 -5.00054 -0.543599 0
M  V30 1734 H 164.755 -5.78552 1.02721 0
M  V30 1735 H 166.279 -6.10413 0.150908 0
M  V30 1736 H 167.693 -5.26759 2.26269 0
M  V30 1737 H 166.09 -5.16944 3.04776 0
M  V30 1738 H 167.16 -3.75603 3.06677 0
M  V30 1739 N 168.503 -0.877838 -1.30888 0
M  V30 1740 C 169.751 -0.491723 -1.96027 0
M  V30 1741 C 170.072 0.960827 -1.69685 0
M  V30 1742 O 169.342 1.67462 -1.01654 0
M  V30 1743 H 167.922 -0.17885 -0.725273 0
M  V30 1744 H 170.584 -1.11935 -1.59551 0
M  V30 1745 H 169.68 -0.656016 -3.05128 0
M  V30 1746 N 169.982 1.44106 -0.638065 0
M  V30 1747 C 171.259 1.95453 -0.0759321 0
M  V30 1748 C 171.639 1.57984 1.40015 0
M  V30 1749 O 170.987 0.857361 2.11806 0
M  V30 1750 C 171.197 3.47655 -0.306132 0
M  V30 1751 C 172.545 4.24114 -0.203008 0
M  V30 1752 O 173.569 3.55405 -0.237871 0
M  V30 1753 O 172.428 5.46381 -0.113827 0
M  V30 1754 H 169.522 0.826797 0.0183332 0
M  V30 1755 H 172.068 1.54122 -0.710251 0
M  V30 1756 H 170.84 3.68 -1.3301 0
M  V30 1757 H 170.463 3.95949 0.361991 0
M  V30 1758 N 171.46 0.379036 1.52974 0
M  V30 1759 C 172.871 -0.0972525 1.86447 0
M  V30 1760 C 173.222 -1.47027 1.29914 0
M  V30 1761 O 172.347 -2.07135 0.626433 0
M  V30 1762 C 172.942 -0.183248 3.38304 0
M  V30 1763 C 171.501 -0.603812 3.71525 0
M  V30 1764 C 170.648 0.240632 2.76254 0
M  V30 1765 H 173.599 0.597316 1.4703 0
M  V30 1766 H 173.62 -1.00432 3.67006 0
M  V30 1767 H 173.132 0.816191 3.79421 0
M  V30 1768 H 171.233 -1.61099 3.35973 0
M  V30 1769 H 171.346 -0.369086 4.77676 0
M  V30 1770 H 169.71 -0.292548 2.53014 0
M  V30 1771 H 170.493 1.23786 3.20206 0
M  V30 1772 N 172.938 -1.57226 0.108567 0
M  V30 1773 C 173.901 -2.13602 -0.831082 0
M  V30 1774 C 174.901 -1.06841 -1.20173 0
M  V30 1775 O 176.091 -1.32666 -1.12895 0
M  V30 1776 C 173.223 -2.66769 -2.12243 0
M  V30 1777 H 174.416 -2.97951 -0.341317 0
M  V30 1778 H 171.969 -1.55667 -0.14057 0
M  V30 1779 H 172.704 -1.85977 -2.65675 0
M  V30 1780 H 172.489 -3.44839 -1.86625 0
M  V30 1781 H 173.979 -3.10332 -2.79435 0
M  V30 1782 N 174.416 0.165178 -1.56732 0
M  V30 1783 C 175.346 1.20651 -1.99914 0
M  V30 1784 C 176.327 1.45827 -0.875705 0
M  V30 1785 O 177.512 1.57057 -1.14223 0
M  V30 1786 C 174.642 2.54401 -2.36427 0
M  V30 1787 C 173.596 2.43782 -3.51787 0
M  V30 1788 C 172.922 3.82078 -3.7406 0
M  V30 1789 C 174.222 1.93732 -4.85041 0
M  V30 1790 H 175.916 0.847534 -2.87154 0
M  V30 1791 H 173.462 0.40625 -1.38151 0
M  V30 1792 H 175.415 3.27458 -2.65234 0
M  V30 1793 H 174.139 2.92098 -1.46103 0
M  V30 1794 H 172.798 1.73178 -3.23117 0
M  V30 1795 H 172.446 4.17179 -2.81017 0
M  V30 1796 H 172.146 3.7584 -4.51684 0
M  V30 1797 H 173.67 4.56712 -4.05274 0
M  V30 1798 H 175.084 2.56569 -5.12684 0
M  V30 1799 H 173.481 1.98428 -5.66345 0
M  V30 1800 H 174.551 0.891962 -4.76626 0
M  V30 1801 N 175.894 1.51508 0.433938 0
M  V30 1802 C 177.305 1.56784 1.01369 0
M  V30 1803 C 177.656 0.393349 1.92217 0
M  V30 1804 O 176.781 -0.489441 2.10792 0
M  V30 1805 C 177.376 2.84144 1.8452 0
M  V30 1806 C 175.935 2.9198 2.37539 0
M  V30 1807 C 175.082 2.51482 1.16843 0
M  V30 1808 H 178.033 1.57236 0.215081 0
M  V30 1809 H 178.054 2.68098 2.70007 0
M  V30 1810 H 177.566 3.69607 1.18373 0
M  V30 1811 H 175.667 2.10955 3.0713 0
M  V30 1812 H 175.78 3.95704 2.70103 0
M  V30 1813 H 174.144 2.04758 1.51481 0
M  V30 1814 H 174.927 3.39293 0.523015 0
M  V30 1815 N 177.372 -0.689602 1.41712 0
M  V30 1816 C 178.322 -1.79571 1.40493 0
M  V30 1817 C 179.306 -1.58473 0.278409 0
M  V30 1818 O 180.498 -1.69204 0.519532 0
M  V30 1819 C 177.627 -3.17923 1.29536 0
M  V30 1820 C 176.713 -3.44695 2.47075 0
M  V30 1821 N 177.104 -3.42132 3.72531 0
M  V30 1822 C 175.402 -3.75269 2.41017 0
M  V30 1823 C 176.103 -3.67976 4.50521 0
M  V30 1824 N 175.079 -3.88014 3.80718 0
M  V30 1825 H 178.881 -1.75961 2.35404 0
M  V30 1826 H 176.395 -0.889839 1.35851 0
M  V30 1827 H 178.392 -3.97167 1.26745 0
M  V30 1828 H 177.052 -3.22741 0.356153 0
M  V30 1829 H 178.063 -3.22375 4.05333 0
M  V30 1830 H 174.74 -3.87421 1.55599 0
M  V30 1831 H 176.13 -3.7208 5.59469 0
M  V30 1832 N 178.85 -1.27639 -0.924453 0
M  V30 1833 C 179.78 -1.13166 -2.04244 0
M  V30 1834 C 180.761 -0.032256 -1.70069 0
M  V30 1835 O 181.946 -0.207328 -1.9309 0
M  V30 1836 C 179.076 -0.781496 -3.38393 0
M  V30 1837 C 178.03 -1.83449 -3.86692 0
M  V30 1838 C 177.356 -1.33822 -5.17683 0
M  V30 1839 C 178.656 -3.23917 -4.09726 0
M  V30 1840 H 180.35 -2.06689 -2.1661 0
M  V30 1841 H 177.896 -0.995136 -1.04082 0
M  V30 1842 H 179.849 -0.667057 -4.16087 0
M  V30 1843 H 178.573 0.189439 -3.2605 0
M  V30 1844 H 177.232 -1.93789 -3.11193 0
M  V30 1845 H 176.88 -0.35665 -5.01734 0
M  V30 1846 H 176.58 -2.04224 -5.50968 0
M  V30 1847 H 178.104 -1.23679 -5.97943 0
M  V30 1848 H 179.518 -3.16559 -4.77978 0
M  V30 1849 H 177.915 -3.92059 -4.54324 0
M  V30 1850 H 178.985 -3.68729 -3.14908 0
M  V30 1851 N 180.328 1.1314 -1.09713 0
M  V30 1852 C 181.575 1.84484 -0.834987 0
M  V30 1853 C 181.903 1.83689 0.639418 0
M  V30 1854 O 181.158 1.2724 1.4869 0
M  V30 1855 C 181.457 3.32167 -1.3191 0
M  V30 1856 C 181.123 3.53139 -2.80363 0
M  V30 1857 C 179.785 3.58571 -3.20905 0
M  V30 1858 C 182.137 3.60866 -3.76065 0
M  V30 1859 C 179.465 3.69267 -4.55916 0
M  V30 1860 C 181.817 3.73089 -5.10869 0
M  V30 1861 C 180.481 3.76775 -5.50996 0
M  V30 1862 H 179.751 0.675073 -0.305544 0
M  V30 1863 H 182.398 1.33554 -1.37243 0
M  V30 1864 H 180.703 3.85469 -0.701517 0
M  V30 1865 H 182.4 3.85821 -1.09284 0
M  V30 1866 H 178.99 3.49569 -2.47991 0
M  V30 1867 H 183.174 3.55946 -3.45855 0
M  V30 1868 H 178.43 3.70388 -4.86438 0
M  V30 1869 H 182.604 3.78011 -5.84877 0
M  V30 1870 H 180.231 3.84815 -6.55608 0
M  V30 1871 N 181.806 0.884767 1.30421 0
M  V30 1872 C 183.053 0.503105 1.96151 0
M  V30 1873 C 183.381 -0.947676 1.69851 0
M  V30 1874 O 182.636 -1.68467 0.995861 0
M  V30 1875 C 182.935 0.724318 3.49983 0
M  V30 1876 C 182.601 2.15015 3.96332 0
M  V30 1877 C 181.263 2.54005 4.08699 0
M  V30 1878 C 183.615 3.07936 4.20505 0
M  V30 1879 C 180.943 3.85128 4.42599 0
M  V30 1880 C 183.295 4.3859 4.55874 0
M  V30 1881 C 181.959 4.77474 4.66449 0
M  V30 1882 H 181.229 0.184099 0.717766 0
M  V30 1883 H 183.876 1.12058 1.55291 0
M  V30 1884 H 182.181 0.0238086 3.91793 0
M  V30 1885 H 183.878 0.408617 3.98913 0
M  V30 1886 H 180.468 1.8375 3.87213 0
M  V30 1887 H 184.652 2.79033 4.10431 0
M  V30 1888 H 179.908 4.14996 4.48986 0
M  V30 1889 H 184.082 5.10629 4.7353 0
M  V30 1890 H 181.709 5.79115 4.92473 0
M  V30 1891 N 183.284 -1.43765 0.645699 0
M  V30 1892 C 184.53 -2.02197 0.156271 0
M  V30 1893 C 184.863 -1.50776 -1.22393 0
M  V30 1894 O 184.138 -0.697771 -1.81553 0
M  V30 1895 C 184.421 -3.59749 0.158872 0
M  V30 1896 C 184.274 -4.21419 1.57245 0
M  V30 1897 C 185.593 -4.37149 -0.50879 0
M  V30 1898 H 182.712 -0.734694 0.0582602 0
M  V30 1899 H 185.354 -1.71157 0.824951 0
M  V30 1900 H 183.504 -3.86325 -0.410525 0
M  V30 1901 H 185.176 -4.059 2.19186 0
M  V30 1902 H 183.419 -3.78356 2.122 0
M  V30 1903 H 184.09 -5.30482 1.52619 0
M  V30 1904 H 186.566 -4.16093 -0.024412 0
M  V30 1905 H 185.442 -5.4683 -0.476213 0
M  V30 1906 H 185.703 -4.12839 -1.58165 0
M  V30 1907 N 184.763 -0.387143 -1.52771 0
M  V30 1908 C 185.673 0.456442 -2.30117 0
M  V30 1909 C 186.689 1.07342 -1.36944 0
M  V30 1910 O 187.865 1.07971 -1.70013 0
M  V30 1911 C 184.93 1.56957 -3.09136 0
M  V30 1912 C 183.991 0.977916 -4.18014 0
M  V30 1913 C 183.224 2.038 -4.93256 0
M  V30 1914 O 183.447 3.25271 -4.68567 0
M  V30 1915 O 182.381 1.6565 -5.78657 0
M  V30 1916 H 186.207 -0.17359 -3.03203 0
M  V30 1917 H 183.792 -0.150919 -1.48636 0
M  V30 1918 H 185.674 2.21628 -3.58412 0
M  V30 1919 H 184.349 2.18461 -2.38865 0
M  V30 1920 H 183.256 0.294525 -3.72939 0
M  V30 1921 H 184.589 0.407128 -4.90513 0
M  V30 1922 N 186.241 1.57166 -0.116904 0
M  V30 1923 C 187.489 1.94737 0.540533 0
M  V30 1924 C 187.81 1.00096 1.67349 0
M  V30 1925 O 187.08 0.0568854 1.95817 0
M  V30 1926 H 185.66 0.718981 0.202669 0
M  V30 1927 H 188.322 1.94017 -0.185353 0
M  V30 1928 H 187.418 2.97719 0.936483 0
M  V30 1929 N 187.719 -0.156864 1.56817 0
M  V30 1930 C 188.967 -0.869404 1.82444 0
M  V30 1931 C 189.288 -1.82147 0.69623 0
M  V30 1932 O 188.558 -1.93847 -0.28287 0
M  V30 1933 H 187.138 -0.324043 0.673056 0
M  V30 1934 H 189.8 -0.153224 1.94297 0
M  V30 1935 H 188.896 -1.43761 2.77019 0
M  V30 1936 N 189.197 -1.51736 -0.425897 0
M  V30 1937 C 190.16 -1.73271 -1.50032 0
M  V30 1938 C 191.16 -0.602639 -1.4908 0
M  V30 1939 O 192.35 -0.87033 -1.509 0
M  V30 1940 C 189.482 -1.79969 -2.89523 0
M  V30 1941 H 190.675 -2.69172 -1.32237 0
M  V30 1942 H 188.228 -1.41899 -0.65532 0
M  V30 1943 H 188.963 -0.859241 -3.1271 0
M  V30 1944 H 188.748 -2.62109 -2.91619 0
M  V30 1945 H 190.238 -1.9843 -3.67444 0
M  V30 1946 N 190.675 0.682077 -1.42076 0
M  V30 1947 C 191.605 1.80796 -1.47767 0
M  V30 1948 C 192.586 1.6677 -0.334954 0
M  V30 1949 O 193.771 1.863 -0.548264 0
M  V30 1950 C 190.901 3.19038 -1.37229 0
M  V30 1951 C 189.855 3.47789 -2.49453 0
M  V30 1952 C 189.181 4.8553 -2.23975 0
M  V30 1953 C 190.481 3.45411 -3.91776 0
M  V30 1954 H 192.175 1.7629 -2.41997 0
M  V30 1955 H 189.721 0.846721 -1.16476 0
M  V30 1956 H 191.674 3.97528 -1.39821 0
M  V30 1957 H 190.398 3.24204 -0.394907 0
M  V30 1958 H 189.057 2.71657 -2.46166 0
M  V30 1959 H 188.705 4.87337 -1.24547 0
M  V30 1960 H 188.405 5.0573 -2.99184 0
M  V30 1961 H 189.929 5.66312 -2.28304 0
M  V30 1962 H 191.343 4.13882 -3.96705 0
M  V30 1963 H 189.74 3.77145 -4.66778 0
M  V30 1964 H 190.81 2.44122 -4.18966 0
M  V30 1965 N 192.153 1.28127 0.917671 0
M  V30 1966 C 193.116 1.11744 2.00115 0
M  V30 1967 C 194.116 0.0583052 1.60694 0
M  V30 1968 O 195.306 0.303755 1.71531 0
M  V30 1969 C 192.438 0.704862 3.33533 0
M  V30 1970 H 193.631 2.07966 2.16079 0
M  V30 1971 H 191.184 1.11058 1.09981 0
M  V30 1972 H 191.919 -0.258299 3.2327 0
M  V30 1973 H 191.704 1.4699 3.63505 0
M  V30 1974 H 193.194 0.612768 4.1308 0
M  V30 1975 N 193.631 -1.12557 1.10312 0
M  V30 1976 C 194.877 -1.84311 0.846011 0
M  V30 1977 C 195.21 -1.83805 -0.626859 0
M  V30 1978 O 194.485 -1.28268 -1.46211 0
M  V30 1979 C 194.768 -3.32048 1.39341 0
M  V30 1980 C 194.621 -3.41016 2.93305 0
M  V30 1981 C 195.94 -4.27764 1.03468 0
M  V30 1982 H 193.059 -0.669192 0.30879 0
M  V30 1983 H 195.701 -1.32057 1.36605 0
M  V30 1984 H 193.851 -3.76678 0.951087 0
M  V30 1985 H 195.523 -3.05031 3.46055 0
M  V30 1986 H 193.766 -2.81603 3.29973 0
M  V30 1987 H 194.437 -4.44948 3.26689 0
M  V30 1988 H 196.913 -3.91253 1.41633 0
M  V30 1989 H 195.789 -5.29549 1.44463 0
M  V30 1990 H 196.05 -4.42064 -0.0560404 0
M  V30 1991 N 195.109 -0.891671 -1.2995 0
M  V30 1992 C 196.019 -0.367691 -2.31701 0
M  V30 1993 C 197.035 0.533486 -1.6562 0
M  V30 1994 O 198.211 0.424997 -1.96865 0
M  V30 1995 C 195.276 0.403406 -3.44345 0
M  V30 1996 C 194.337 -0.528328 -4.26037 0
M  V30 1997 C 193.57 0.206063 -5.33302 0
M  V30 1998 O 193.793 1.43119 -5.52153 0
M  V30 1999 O 192.727 -0.447281 -6.00236 0
M  V30 2000 H 196.553 -1.21163 -2.78484 0
M  V30 2001 H 194.138 -0.655725 -1.34241 0
M  V30 2002 H 196.02 0.839753 -4.12948 0
M  V30 2003 H 194.695 1.22354 -2.99685 0
M  V30 2004 H 193.602 -1.01362 -3.60106 0
M  V30 2005 H 194.935 -1.31465 -4.74318 0
M  V30 2006 N 196.587 1.43421 -0.653314 0
M  V30 2007 C 197.535 2.32546 0.0501531 0
M  V30 2008 C 198.529 1.48617 0.812985 0
M  V30 2009 O 199.735 1.64825 0.723375 0
M  V30 2010 H 196.11 0.751185 0.0350032 0
M  V30 2011 H 198.081 2.89602 -0.719261 0
M  V30 2012 C 196.83 3.32925 1.00279 0
M  V30 2013 H 196.153 3.97532 0.425236 0
M  V30 2014 H 197.593 3.9792 1.46409 0
M  V30 2015 C 196.052 2.63532 2.09886 0
M  V30 2016 O 196.582 2.45092 3.18265 0
M  V30 2017 N 194.788 2.22905 1.86445 0
M  V30 2018 H 194.335 2.38103 0.98309 0
M  V30 2019 H 194.293 1.76805 2.59976 0
M  V30 2020 N 198.065 0.39524 1.52563 0
M  V30 2021 C 199.028 -0.425001 2.25225 0
M  V30 2022 C 200.028 -0.985266 1.27079 0
M  V30 2023 O 201.218 -0.866332 1.5113 0
M  V30 2024 C 198.35 -1.59686 3.01186 0
M  V30 2025 H 199.543 0.211233 2.99155 0
M  V30 2026 H 197.096 0.147472 1.55603 0
M  V30 2027 H 197.831 -2.27035 2.31572 0
M  V30 2028 H 197.616 -1.20176 3.73229 0
M  V30 2029 H 199.106 -2.17743 3.5634 0
M  V30 2030 N 199.544 -1.57102 0.125237 0
M  V30 2031 C 200.474 -2.18659 -0.819174 0
M  V30 2032 C 201.455 -1.12843 -1.27281 0
M  V30 2033 O 202.64 -1.41104 -1.33429 0
M  V30 2034 C 199.77 -2.79096 -2.06695 0
M  V30 2035 C 198.724 -3.90548 -1.75088 0
M  V30 2036 C 198.05 -4.37821 -3.06948 0
M  V30 2037 C 199.35 -5.12356 -1.01435 0
M  V30 2038 H 201.044 -2.9783 -0.306202 0
M  V30 2039 H 198.59 -1.4326 -0.145839 0
M  V30 2040 H 200.543 -3.2082 -2.73226 0
M  V30 2041 H 199.267 -1.97223 -2.60328 0
M  V30 2042 H 197.926 -3.49409 -1.10944 0
M  V30 2043 H 197.574 -3.52799 -3.58527 0
M  V30 2044 H 197.274 -5.12982 -2.86571 0
M  V30 2045 H 198.798 -4.822 -3.74587 0
M  V30 2046 H 200.212 -5.5106 -1.58132 0
M  V30 2047 H 198.609 -5.9314 -0.911319 0
M  V30 2048 H 199.679 -4.849 -0.00218681 0
M  V30 2049 N 201.022 0.148545 -1.56898 0
M  V30 2050 C 201.969 1.18345 -1.98149 0
M  V30 2051 C 202.939 1.42772 -0.848848 0
M  V30 2052 O 204.124 1.55132 -1.11079 0
M  V30 2053 C 201.264 2.51231 -2.36594 0
M  V30 2054 C 200.377 2.33991 -3.63142 0
M  V30 2055 C 199.512 3.59902 -3.90697 0
M  V30 2056 C 198.551 3.37692 -5.1052 0
M  V30 2057 N 197.688 4.5573 -5.34092 0
M  V30 2058 H 202.528 0.82467 -2.86362 0
M  V30 2059 H 200.065 0.395756 -1.41676 0
M  V30 2060 H 202.023 3.28713 -2.56912 0
M  V30 2061 H 200.653 2.85059 -1.51463 0
M  V30 2062 H 199.705 1.47572 -3.50609 0
M  V30 2063 H 201.017 2.13539 -4.5078 0
M  V30 2064 H 200.171 4.45813 -4.11505 0
M  V30 2065 H 198.91 3.83357 -3.01477 0
M  V30 2066 H 197.915 2.5017 -4.89587 0
M  V30 2067 H 199.14 3.15637 -6.0129 0
M  V30 2068 H 197.086 4.79361 -4.47827 0
M  V30 2069 H 197.003 4.38274 -6.15996 0
M  V30 2070 H 198.271 5.42858 -5.59397 0
M  V30 2071 N 202.5 1.5196 0.417844 0
M  V30 2072 C 203.463 1.74065 1.49111 0
M  V30 2073 C 204.463 0.610537 1.48758 0
M  V30 2074 O 205.653 0.87832 1.50437 0
M  V30 2075 C 202.785 1.81502 2.88565 0
M  V30 2076 H 203.978 2.69869 1.30807 0
M  V30 2077 H 201.531 1.42244 0.647785 0
M  V30 2078 H 202.266 0.875813 3.1225 0
M  V30 2079 H 202.051 2.63651 2.90225 0
M  V30 2080 H 203.541 2.00376 3.66387 0
M  V30 2081 N 203.978 -0.674533 1.42435 0
M  V30 2082 C 204.941 -1.76986 1.45632 0
M  V30 2083 C 205.941 -1.5708 0.343871 0
M  V30 2084 O 207.131 -1.63367 0.604709 0
M  V30 2085 C 204.263 -3.15623 1.28822 0
M  V30 2086 H 205.456 -1.75539 2.43158 0
M  V30 2087 H 203.009 -0.884189 1.28887 0
M  V30 2088 H 203.744 -3.22696 0.322193 0
M  V30 2089 H 203.529 -3.31475 2.09444 0
M  V30 2090 H 205.019 -3.95537 1.33942 0
M  V30 2091 N 205.456 -1.28612 -0.910864 0
M  V30 2092 C 206.703 -1.15934 -1.66029 0
M  V30 2093 C 207.031 0.291483 -1.92303 0
M  V30 2094 O 206.286 1.22816 -1.52364 0
M  V30 2095 C 206.585 -1.90624 -3.0232 0
M  V30 2096 C 206.251 -3.40405 -2.95695 0
M  V30 2097 C 204.913 -3.81255 -2.93595 0
M  V30 2098 C 207.265 -4.359 -2.85728 0
M  V30 2099 C 204.593 -5.15936 -2.79334 0
M  V30 2100 C 206.945 -5.70657 -2.73007 0
M  V30 2101 C 205.609 -6.10779 -2.69267 0
M  V30 2102 H 204.879 -0.424234 -0.607541 0
M  V30 2103 H 207.526 -1.5942 -1.06101 0
M  V30 2104 H 205.831 -1.39696 -3.6605 0
M  V30 2105 H 207.528 -1.78228 -3.59215 0
M  V30 2106 H 204.118 -3.07927 -2.98125 0
M  V30 2107 H 208.302 -4.053 -2.86436 0
M  V30 2108 H 203.558 -5.46146 -2.74835 0
M  V30 2109 H 207.732 -6.44311 -2.64264 0
M  V30 2110 H 205.359 -7.1509 -2.57974 0
M  V30 2111 N 206.934 1.1197 -1.10907 0
M  V30 2112 C 208.211 1.79959 -0.766432 0
M  V30 2113 C 208.591 1.97466 0.746363 0
M  V30 2114 O 207.939 1.55491 1.67436 0
M  V30 2115 C 208.149 3.14009 -1.52314 0
M  V30 2116 C 209.497 3.89134 -1.69883 0
M  V30 2117 O 210.521 3.2368 -1.48692 0
M  V30 2118 O 209.38 5.06572 -2.05054 0
M  V30 2119 H 206.474 0.779208 -0.277062 0
M  V30 2120 H 209.02 1.18762 -1.21217 0
M  V30 2121 H 207.792 2.96587 -2.55249 0
M  V30 2122 H 207.415 3.82915 -1.07059 0
M  V30 2123 N 208.412 0.89855 1.29475 0
M  V30 2124 C 209.658 0.534065 1.96263 0
M  V30 2125 C 210.013 -0.909415 1.69551 0
M  V30 2126 O 209.306 -1.63596 0.997349 0
M  V30 2127 C 209.5 0.761398 3.49195 0
M  V30 2128 C 209.329 2.22542 3.90775 0
M  V30 2129 C 208.099 2.87264 4.15701 0
M  V30 2130 C 210.297 3.20051 4.02581 0
M  V30 2131 N 208.279 4.24121 4.4384 0
M  V30 2132 C 209.65 4.42023 4.34759 0
M  V30 2133 C 211.705 3.15657 3.85052 0
M  V30 2134 C 210.408 5.60161 4.51235 0
M  V30 2135 C 212.434 4.33078 4.02737 0
M  V30 2136 C 211.796 5.5382 4.35273 0
M  V30 2137 H 207.895 0.245013 0.742625 0
M  V30 2138 H 210.479 1.15912 1.56437 0
M  V30 2139 H 208.65 0.165732 3.88046 0
M  V30 2140 H 210.382 0.362462 4.03074 0
M  V30 2141 H 207.137 2.38064 4.09417 0
M  V30 2142 H 207.561 4.94839 4.6202 0
M  V30 2143 H 212.203 2.23396 3.58962 0
M  V30 2144 H 209.921 6.52913 4.76162 0
M  V30 2145 H 213.507 4.31163 3.90628 0
M  V30 2146 H 212.387 6.43166 4.48672 0
M  V30 2147 N 209.89 -1.43072 0.660911 0
M  V30 2148 C 210.837 -2.30785 -0.0259884 0
M  V30 2149 C 211.807 -1.45184 -0.806888 0
M  V30 2150 O 212.992 -1.74041 -0.781943 0
M  V30 2151 C 210.132 -3.30861 -0.981067 0
M  V30 2152 C 209.245 -4.31558 -0.195458 0
M  V30 2153 C 208.38 -5.18712 -1.14503 0
M  V30 2154 C 207.419 -6.11097 -0.350299 0
M  V30 2155 N 206.556 -6.90849 -1.25186 0
M  V30 2156 H 211.396 -2.88975 0.727846 0
M  V30 2157 H 208.933 -1.42353 0.370682 0
M  V30 2158 H 210.891 -3.87399 -1.54849 0
M  V30 2159 H 209.521 -2.74304 -1.70169 0
M  V30 2160 H 208.573 -3.77252 0.488374 0
M  V30 2161 H 209.885 -4.9701 0.422176 0
M  V30 2162 H 209.039 -5.79914 -1.78284 0
M  V30 2163 H 207.778 -4.53404 -1.79656 0
M  V30 2164 H 206.783 -5.48976 0.300808 0
M  V30 2165 H 208.008 -6.7845 0.296941 0
M  V30 2166 H 205.954 -6.28182 -1.89005 0
M  V30 2167 H 205.871 -7.52854 -0.688971 0
M  V30 2168 H 207.139 -7.5655 -1.87757 0
M  V30 2169 N 211.368 -0.403325 -1.52352 0
M  V30 2170 C 212.593 0.176499 -2.06648 0
M  V30 2171 C 213.018 1.38577 -1.27193 0
M  V30 2172 O 212.376 1.7879 -0.300637 0
M  V30 2173 C 212.424 0.511061 -3.5696 0
M  V30 2174 O 211.528 1.60294 -3.79973 0
M  V30 2175 H 210.869 0.0167337 -0.663789 0
M  V30 2176 H 213.399 -0.574848 -1.96359 0
M  V30 2177 H 213.409 0.771362 -4.00642 0
M  V30 2178 H 212.084 -0.37296 -4.14224 0
M  V30 2179 H 210.661 1.33526 -3.48174 0
M  V30 2180 N 212.846 1.57033 -0.133567 0
M  V30 2181 C 214.262 1.58035 0.222944 0
M  V30 2182 C 214.462 1.14713 1.6566 0
M  V30 2183 O 213.518 0.841218 2.38075 0
M  V30 2184 C 214.831 3.00691 -0.0236116 0
M  V30 2185 C 216.379 3.12973 0.0411512 0
M  V30 2186 C 216.854 4.57654 -0.177899 0
M  V30 2187 N 218.345 4.63033 -0.124365 0
M  V30 2188 C 219.08 5.72771 -0.268553 0
M  V30 2189 N 218.576 6.91206 -0.46972 0
M  V30 2190 N 220.369 5.61718 -0.2071 0
M  V30 2191 H 212.52 1.8349 -1.06981 0
M  V30 2192 H 214.783 0.848677 -0.422436 0
M  V30 2193 H 214.489 3.36726 -1.0153 0
M  V30 2194 H 214.363 3.70614 0.701808 0
M  V30 2195 H 216.75 2.76787 1.02338 0
M  V30 2196 H 216.831 2.45564 -0.716383 0
M  V30 2197 H 216.475 4.94542 -1.15717 0
M  V30 2198 H 216.405 5.23173 0.599797 0
M  V30 2199 H 218.896 3.7789 0.027011 0
M  V30 2200 H 219.209 7.70693 -0.570212 0
M  V30 2201 H 217.554 6.93156 -0.505876 0
M  V30 2202 H 220.745 4.68072 -0.0507986 0
M  V30 2203 H 220.918 6.47195 -0.322909 0
M  V30 2204 N 214.325 -0.140222 1.56975 0
M  V30 2205 C 215.275 -1.17827 1.95194 0
M  V30 2206 C 216.259 -1.38195 0.824075 0
M  V30 2207 O 217.451 -1.39643 1.0876 0
M  V30 2208 C 214.58 -2.51024 2.34184 0
M  V30 2209 C 213.666 -2.3422 3.53556 0
M  V30 2210 N 214.057 -1.87185 4.69889 0
M  V30 2211 C 212.355 -2.64949 3.58773 0
M  V30 2212 C 213.056 -1.83586 5.5197 0
M  V30 2213 N 212.032 -2.2715 4.93866 0
M  V30 2214 H 215.834 -0.806817 2.82609 0
M  V30 2215 H 213.348 -0.348208 1.58623 0
M  V30 2216 H 215.345 -3.26074 2.59772 0
M  V30 2217 H 214.005 -2.88945 1.48124 0
M  V30 2218 H 215.016 -1.57048 4.93514 0
M  V30 2219 H 211.693 -3.067 2.8327 0
M  V30 2220 H 213.083 -1.48655 6.55249 0
M  V30 2221 N 215.803 -1.52179 -0.40978 0
M  V30 2222 C 216.751 -1.76086 -1.51975 0
M  V30 2223 C 217.745 -0.627964 -1.57331 0
M  V30 2224 O 218.951 -0.809993 -1.60745 0
M  V30 2225 H 215.326 -0.556829 -0.505416 0
M  V30 2226 H 217.297 -2.69077 -1.28996 0
M  V30 2227 C 216.046 -1.92799 -2.8935 0
M  V30 2228 H 215.369 -2.79392 -2.85972 0
M  V30 2229 H 216.809 -2.13527 -3.66309 0
M  V30 2230 C 215.268 -0.694923 -3.29655 0
M  V30 2231 O 215.798 0.13751 -4.01465 0
M  V30 2232 N 214.004 -0.53101 -2.85707 0
M  V30 2233 H 213.551 -1.20952 -2.27439 0
M  V30 2234 H 213.509 0.292718 -3.13034 0
M  V30 2235 N 217.281 0.66697 -1.42791 0
M  V30 2236 C 218.213 1.7925 -1.42836 0
M  V30 2237 C 219.226 1.59496 -0.326333 0
M  V30 2238 O 220.415 1.6847 -0.589916 0
M  V30 2239 C 217.515 3.16476 -1.21229 0
M  V30 2240 C 216.688 3.63011 -2.44013 0
M  V30 2241 C 215.747 4.78993 -2.17834 0
M  V30 2242 O 214.773 4.89137 -2.91091 0
M  V30 2243 N 215.975 5.68248 -1.18635 0
M  V30 2244 H 218.74 1.79695 -2.39854 0
M  V30 2245 H 216.301 0.850338 -1.37771 0
M  V30 2246 H 218.293 3.91734 -1.01621 0
M  V30 2247 H 216.863 3.10884 -0.32706 0
M  V30 2248 H 216.083 2.78346 -2.79137 0
M  V30 2249 H 217.371 3.90845 -3.25757 0
M  V30 2250 H 216.769 5.62712 -0.580615 0
M  V30 2251 H 215.326 6.43285 -1.05013 0
M  V30 2252 N 218.759 1.29093 0.90403 0
M  V30 2253 C 219.722 1.1386 1.98919 0
M  V30 2254 C 220.722 0.0753457 1.60623 0
M  V30 2255 O 221.912 0.321931 1.71199 0
M  V30 2256 C 219.044 0.740198 3.32767 0
M  V30 2257 H 220.237 2.10246 2.13861 0
M  V30 2258 H 217.79 1.12218 1.08797 0
M  V30 2259 H 218.525 -0.223997 3.23525 0
M  V30 2260 H 218.31 1.50838 3.61926 0
M  V30 2261 H 219.8 0.656546 4.12407 0
M  V30 2262 N 220.237 -1.11381 1.11499 0
M  V30 2263 C 221.187 -2.15555 0.74298 0
M  V30 2264 C 222.171 -1.58894 -0.253276 0
M  V30 2265 O 223.363 -1.76897 -0.0602918 0
M  V30 2266 C 220.492 -3.42782 0.188481 0
M  V30 2267 C 219.578 -4.064 1.21244 0
M  V30 2268 N 219.969 -4.44864 2.40685 0
M  V30 2269 C 218.267 -4.3333 1.05552 0
M  V30 2270 C 218.968 -4.94715 3.05994 0
M  V30 2271 N 217.944 -4.90909 2.33472 0
M  V30 2272 H 221.746 -2.43074 1.65203 0
M  V30 2273 H 219.26 -1.28401 0.994329 0
M  V30 2274 H 221.257 -4.16789 -0.0961693 0
M  V30 2275 H 219.917 -3.16727 -0.715149 0
M  V30 2276 H 220.928 -4.36876 2.78136 0
M  V30 2277 H 217.605 -4.1698 0.208372 0
M  V30 2278 H 218.995 -5.34103 4.07656 0
M  V30 2279 N 221.715 -0.905404 -1.28997 0
M  V30 2280 C 222.963 -0.533192 -1.9494 0
M  V30 2281 C 223.284 0.924618 -1.71685 0
M  V30 2282 O 222.554 1.65268 -1.05183 0
M  V30 2283 H 221.134 -0.194194 -0.721317 0
M  V30 2284 H 223.796 -1.15294 -1.57141 0
M  V30 2285 H 222.892 -0.72059 -3.03667 0
M  V30 2286 N 223.193 1.4272 -0.668489 0
M  V30 2287 C 224.442 2.00846 -0.185389 0
M  V30 2288 C 224.755 1.53442 1.21305 0
M  V30 2289 O 225.961 2.03944 1.79218 0
M  V30 2290 C 224.417 3.58805 -0.280591 0
M  V30 2291 C 224.025 4.15198 -1.68268 0
M  V30 2292 C 225.769 4.24255 0.14412 0
M  V30 2293 C 223.676 5.655 -1.73099 0
M  V30 2294 H 222.606 0.751145 -0.0655475 0
M  V30 2295 H 225.257 1.63516 -0.832752 0
M  V30 2296 H 223.639 3.93608 0.434553 0
M  V30 2297 H 224.813 3.91866 -2.42441 0
M  V30 2298 H 223.128 3.62176 -2.05469 0
M  V30 2299 H 225.725 5.34547 0.128086 0
M  V30 2300 H 226.068 3.99277 1.17827 0
M  V30 2301 H 226.601 3.94389 -0.519798 0
M  V30 2302 H 223.34 5.95268 -2.74475 0
M  V30 2303 H 222.86 5.90842 -1.03274 0
M  V30 2304 H 224.539 6.29808 -1.48158 0
M  V30 2305 N 224.671 0.411399 1.52136 0
M  V30 2306 C 225.948 -0.222308 1.94333 0
M  V30 2307 C 226.328 -1.6242 1.34844 0
M  V30 2308 O 225.676 -2.22384 0.525145 0
M  V30 2309 C 225.886 -0.226345 3.48265 0
M  V30 2310 C 227.234 -0.444592 4.22266 0
M  V30 2311 O 228.258 -0.305602 3.54887 0
M  V30 2312 O 227.117 -0.718749 5.41753 0
M  V30 2313 H 224.211 -0.143907 0.814383 0
M  V30 2314 H 226.757 0.467506 1.63133 0
M  V30 2315 H 225.529 0.75475 3.83952 0
M  V30 2316 H 225.152 -0.960163 3.85832 0
M  V30 2317 N 226.149 -1.5696 0.141893 0
M  V30 2318 C 227.56 -1.82797 -0.379776 0
M  V30 2319 C 227.911 -1.06033 -1.6508 0
M  V30 2320 O 227.036 -0.304011 -2.14254 0
M  V30 2321 C 227.631 -3.31578 -0.695802 0
M  V30 2322 C 226.19 -3.58014 -1.16201 0
M  V30 2323 C 225.337 -2.76699 -0.182455 0
M  V30 2324 H 228.288 -1.54406 0.366675 0
M  V30 2325 H 228.309 -3.47454 -1.55099 0
M  V30 2326 H 227.821 -3.87421 0.229449 0
M  V30 2327 H 225.922 -3.07553 -2.10338 0
M  V30 2328 H 226.035 -4.66501 -1.09151 0
M  V30 2329 H 224.399 -2.45618 -0.674072 0
M  V30 2330 H 225.182 -3.35311 0.736297 0
M  V30 2331 N 227.627 0.131896 -1.57047 0
M  V30 2332 C 228.59 1.14638 -1.98471 0
M  V30 2333 C 229.59 1.35029 -0.873148 0
M  V30 2334 O 230.78 1.31764 -1.13946 0
M  V30 2335 C 227.912 2.50358 -2.31373 0
M  V30 2336 H 229.105 0.79064 -2.8929 0
M  V30 2337 H 226.658 0.375761 -1.51716 0
M  V30 2338 H 227.393 2.90876 -1.43393 0
M  V30 2339 H 227.178 2.36915 -3.12432 0
M  V30 2340 H 228.668 3.23395 -2.64207 0
M  V30 2341 N 229.106 1.52395 0.401703 0
M  V30 2342 C 230.036 1.79231 1.49661 0
M  V30 2343 C 231.017 0.643654 1.57452 0
M  V30 2344 O 232.202 0.889989 1.72606 0
M  V30 2345 C 229.332 1.94971 2.87409 0
M  V30 2346 C 228.286 3.10604 2.94465 0
M  V30 2347 C 227.612 3.11577 4.34538 0
M  V30 2348 C 228.912 4.49921 2.6527 0
M  V30 2349 H 230.606 2.70917 1.27454 0
M  V30 2350 H 228.152 1.30362 0.6117 0
M  V30 2351 H 230.105 2.12328 3.63999 0
M  V30 2352 H 228.829 0.999632 3.10926 0
M  V30 2353 H 227.488 2.93009 2.20321 0
M  V30 2354 H 227.136 2.14277 4.55076 0
M  V30 2355 H 226.836 3.89247 4.40183 0
M  V30 2356 H 228.36 3.31073 5.13053 0
M  V30 2357 H 229.774 4.67683 3.31581 0
M  V30 2358 H 228.171 5.29564 2.82281 0
M  V30 2359 H 229.241 4.57507 1.60671 0
M  V30 2360 N 230.584 -0.659388 1.43143 0
M  V30 2361 C 231.832 -1.41654 1.44147 0
M  V30 2362 C 232.153 -1.94893 0.0645739 0
M  V30 2363 O 231.423 -1.74044 -0.899198 0
M  V30 2364 H 230.003 -0.525708 0.530697 0
M  V30 2365 H 232.665 -0.778097 1.78694 0
M  V30 2366 H 231.761 -2.26195 2.1504 0
M  V30 2367 N 232.062 -1.29571 -0.897171 0
M  V30 2368 C 233.29 -1.20583 -1.68129 0
M  V30 2369 C 233.705 0.233181 -1.87354 0
M  V30 2370 O 233.062 1.15579 -1.41236 0
M  V30 2371 C 233.113 -1.91772 -3.06441 0
M  V30 2372 O 232.834 -3.30053 -2.88091 0
M  V30 2373 C 234.335 -1.89291 -4.00854 0
M  V30 2374 H 231.555 -0.417826 -0.525036 0
M  V30 2375 H 234.099 -1.70987 -1.12177 0
M  V30 2376 H 232.254 -1.45196 -3.59161 0
M  V30 2377 H 232.668 -3.65942 -3.75748 0
M  V30 2378 H 234.142 -2.43662 -4.95311 0
M  V30 2379 H 234.619 -0.869014 -4.30517 0
M  V30 2380 H 235.225 -2.35622 -3.54066 0
M  V30 2381 N 233.54 1.10788 -1.12088 0
M  V30 2382 C 234.472 2.16816 -0.743213 0
M  V30 2383 C 235.485 1.6119 0.228412 0
M  V30 2384 O 236.674 1.78497 0.0102931 0
M  V30 2385 C 233.774 3.38809 -0.0787313 0
M  V30 2386 C 232.947 4.23885 -1.0789 0
M  V30 2387 C 232.006 5.24334 -0.442713 0
M  V30 2388 O 231.032 5.58497 -1.09864 0
M  V30 2389 N 232.234 5.75079 0.791457 0
M  V30 2390 H 234.999 2.49825 -1.65552 0
M  V30 2391 H 232.56 1.26373 -1.012 0
M  V30 2392 H 234.552 4.03107 0.358766 0
M  V30 2393 H 233.122 3.03805 0.736275 0
M  V30 2394 H 232.342 3.55939 -1.69414 0
M  V30 2395 H 233.63 4.77562 -1.75533 0
M  V30 2396 H 233.028 5.49517 1.3434 0
M  V30 2397 H 231.585 6.4118 1.17183 0
M  V30 2398 N 235.018 0.912232 1.28515 0
M  V30 2399 C 236.264 0.545405 1.95328 0
M  V30 2400 C 236.597 -0.908313 1.71649 0
M  V30 2401 O 235.872 -1.64575 1.03659 0
M  V30 2402 C 236.155 0.853483 3.4984 0
M  V30 2403 C 236.008 2.35982 3.82926 0
M  V30 2404 C 237.327 0.348589 4.38717 0
M  V30 2405 H 234.446 0.199626 0.709449 0
M  V30 2406 H 237.088 1.1412 1.5191 0
M  V30 2407 H 235.238 0.34643 3.86952 0
M  V30 2408 H 236.91 2.93738 3.55691 0
M  V30 2409 H 235.153 2.81543 3.30024 0
M  V30 2410 H 235.824 2.52593 4.90816 0
M  V30 2411 H 238.3 0.78294 4.08668 0
M  V30 2412 H 237.176 0.593242 5.45685 0
M  V30 2413 H 237.437 -0.751049 4.35674 0
M  V30 2414 N 236.496 -1.42363 0.676048 0
M  V30 2415 C 237.426 -2.33497 0.0124832 0
M  V30 2416 C 238.407 -1.50748 -0.787981 0
M  V30 2417 O 239.592 -1.79346 -0.744884 0
M  V30 2418 C 236.722 -3.34377 -0.938582 0
M  V30 2419 C 235.676 -4.27289 -0.246622 0
M  V30 2420 C 235.002 -5.18386 -1.31071 0
M  V30 2421 C 236.302 -5.14916 0.875125 0
M  V30 2422 H 237.996 -2.89233 0.773593 0
M  V30 2423 H 235.542 -1.39073 0.37346 0
M  V30 2424 H 237.495 -3.97044 -1.41188 0
M  V30 2425 H 236.219 -2.76947 -1.73113 0
M  V30 2426 H 234.878 -3.66018 0.206456 0
M  V30 2427 H 234.526 -4.57282 -2.09528 0
M  V30 2428 H 234.226 -5.81378 -0.852839 0
M  V30 2429 H 235.75 -5.83929 -1.78492 0
M  V30 2430 H 237.164 -5.71262 0.482983 0
M  V30 2431 H 235.561 -5.86747 1.25887 0
M  V30 2432 H 236.631 -4.53242 1.72335 0
M  V30 2433 N 237.974 -0.419461 -1.51915 0
M  V30 2434 C 238.924 0.418496 -2.24126 0
M  V30 2435 C 239.908 1.00495 -1.25656 0
M  V30 2436 O 241.1 0.926058 -1.50842 0
M  V30 2437 C 238.229 1.52899 -3.07371 0
M  V30 2438 C 237.315 0.952797 -4.13258 0
M  V30 2439 N 237.706 0.104175 -5.05693 0
M  V30 2440 C 236.004 1.22224 -4.28926 0
M  V30 2441 C 236.705 -0.21752 -5.81293 0
M  V30 2442 N 235.681 0.394293 -5.42168 0
M  V30 2443 H 239.483 -0.236048 -2.92951 0
M  V30 2444 H 236.997 -0.230481 -1.60756 0
M  V30 2445 H 238.994 2.14199 -3.57665 0
M  V30 2446 H 237.654 2.18605 -2.40088 0
M  V30 2447 H 238.665 -0.260924 -5.17242 0
M  V30 2448 H 235.342 1.87812 -3.72871 0
M  V30 2449 H 236.732 -0.906992 -6.6575 0
M  V30 2450 N 239.452 1.56882 -0.150215 0
M  V30 2451 C 240.382 2.19935 0.784284 0
M  V30 2452 C 241.363 1.14854 1.25469 0
M  V30 2453 O 242.548 1.43209 1.31168 0
M  V30 2454 C 239.678 2.82349 2.02229 0
M  V30 2455 C 238.632 3.93285 1.68853 0
M  V30 2456 C 237.958 4.42649 2.99944 0
M  V30 2457 C 239.258 5.13904 0.932714 0
M  V30 2458 H 240.952 2.9828 0.258781 0
M  V30 2459 H 238.498 1.43473 0.123029 0
M  V30 2460 H 240.451 3.25126 2.68088 0
M  V30 2461 H 239.175 2.0134 2.57157 0
M  V30 2462 H 237.834 3.5113 1.05371 0
M  V30 2463 H 237.482 3.58458 3.52869 0
M  V30 2464 H 237.182 5.17476 2.78374 0
M  V30 2465 H 238.706 4.88099 3.66868 0
M  V30 2466 H 240.12 5.53506 1.49345 0
M  V30 2467 H 238.517 5.94515 0.81684 0
M  V30 2468 H 239.587 4.84842 -0.0749568 0
M  V30 2469 N 240.93 -0.123565 1.57115 0
M  V30 2470 C 242.346 -0.476961 1.52306 0
M  V30 2471 C 242.546 -1.82109 0.86248 0
M  V30 2472 O 241.602 -2.48586 0.442884 0
M  V30 2473 C 242.915 -0.465661 2.97073 0
M  V30 2474 C 244.463 -0.549534 3.08138 0
M  V30 2475 C 244.938 -0.568669 4.54456 0
M  V30 2476 N 246.429 -0.630237 4.58892 0
M  V30 2477 C 247.164 -0.666415 5.69514 0
M  V30 2478 N 246.66 -0.660514 6.89644 0
M  V30 2479 N 248.453 -0.709077 5.5761 0
M  V30 2480 H 240.604 0.757198 1.98445 0
M  V30 2481 H 242.867 0.278808 0.906074 0
M  V30 2482 H 242.573 0.454232 3.48754 0
M  V30 2483 H 242.447 -1.29513 3.54269 0
M  V30 2484 H 244.834 -1.45985 2.56461 0
M  V30 2485 H 244.915 0.307532 2.53945 0
M  V30 2486 H 244.559 0.337581 5.06777 0
M  V30 2487 H 244.489 -1.44256 5.06456 0
M  V30 2488 H 246.98 -0.641146 3.72421 0
M  V30 2489 H 247.293 -0.690616 7.69708 0
M  V30 2490 H 245.638 -0.628012 6.92157 0
M  V30 2491 H 248.829 -0.711019 4.62668 0
M  V30 2492 H 249.002 -0.733804 6.43832 0
M  V30 2493 N 242.408 -1.52605 -0.393616 0
M  V30 2494 C 243.656 -1.67093 -1.13685 0
M  V30 2495 C 243.977 -0.411011 -1.90619 0
M  V30 2496 O 243.247 0.574491 -1.87287 0
M  V30 2497 H 241.827 -0.615923 -0.422668 0
M  V30 2498 H 244.489 -1.89704 -0.447039 0
M  V30 2499 H 243.585 -2.51922 -1.84232 0
M  V30 2500 N 243.887 0.651787 -1.4349 0
M  V30 2501 C 244.85 1.74647 -1.48429 0
M  V30 2502 C 245.85 1.56513 -0.368817 0
M  V30 2503 O 247.04 1.62385 -0.630623 0
M  V30 2504 C 244.172 3.13533 -1.33827 0
M  V30 2505 H 245.365 1.71649 -2.4592 0
M  V30 2506 H 242.918 0.863573 -1.30277 0
M  V30 2507 H 243.653 3.22142 -0.37349 0
M  V30 2508 H 243.438 3.28101 -2.14691 0
M  V30 2509 H 244.928 3.93356 -1.40218 0
M  V30 2510 N 245.365 1.30045 0.890287 0
M  V30 2511 C 246.612 1.18561 1.64163 0
M  V30 2512 C 246.94 -0.260852 1.92743 0
M  V30 2513 O 246.195 -1.20376 1.54299 0
M  V30 2514 C 246.494 1.95409 2.99249 0
M  V30 2515 C 246.16 3.45066 2.90242 0
M  V30 2516 C 244.822 3.85878 2.87492 0
M  V30 2517 C 247.174 4.4039 2.78758 0
M  V30 2518 C 244.502 5.20314 2.7109 0
M  V30 2519 C 246.854 5.74928 2.63894 0
M  V30 2520 C 245.518 6.14986 2.59516 0
M  V30 2521 H 244.788 0.433846 0.600715 0
M  V30 2522 H 247.435 1.61088 1.03552 0
M  V30 2523 H 245.74 1.45501 3.63781 0
M  V30 2524 H 247.437 1.8392 3.56334 0
M  V30 2525 H 244.027 3.12631 2.93189 0
M  V30 2526 H 248.211 4.09806 2.79952 0
M  V30 2527 H 243.467 5.50449 2.66112 0
M  V30 2528 H 247.641 6.48434 2.53981 0
M  V30 2529 H 245.268 7.19104 2.46565 0
M  V30 2530 N 246.843 -1.10192 1.12674 0
M  V30 2531 C 247.793 -2.14754 0.765801 0
M  V30 2532 C 248.777 -1.59154 -0.236409 0
M  V30 2533 O 249.969 -1.76951 -0.0415261 0
M  V30 2534 C 247.098 -3.42563 0.224827 0
M  V30 2535 C 246.184 -4.05091 1.25548 0
M  V30 2536 N 246.575 -4.42287 2.4539 0
M  V30 2537 C 244.873 -4.32186 1.10142 0
M  V30 2538 C 245.574 -4.91441 3.11224 0
M  V30 2539 N 244.55 -4.88405 2.38666 0
M  V30 2540 H 248.352 -2.41309 1.67772 0
M  V30 2541 H 245.866 -1.27339 1.00789 0
M  V30 2542 H 247.863 -4.16868 -0.0519578 0
M  V30 2543 H 246.523 -3.17467 -0.681515 0
M  V30 2544 H 247.534 -4.33902 2.82754 0
M  V30 2545 H 244.211 -4.16735 0.252587 0
M  V30 2546 H 245.601 -5.29749 4.13298 0
M  V30 2547 N 248.321 -0.919034 -1.28029 0
M  V30 2548 C 249.569 -0.553838 -1.94363 0
M  V30 2549 C 249.89 0.906357 -1.72656 0
M  V30 2550 O 249.16 1.64143 -1.0693 0
M  V30 2551 H 247.74 -0.201834 -0.719216 0
M  V30 2552 H 250.402 -1.16954 -1.55909 0
M  V30 2553 H 249.498 -0.752758 -3.02886 0
M  V30 2554 N 249.799 1.42003 -0.683588 0
M  V30 2555 C 251.215 1.55625 -0.353976 0
M  V30 2556 C 251.415 1.66151 1.14 0
M  V30 2557 O 250.471 1.63329 1.92561 0
M  V30 2558 C 251.784 2.80171 -1.092 0
M  V30 2559 C 253.332 2.93954 -1.07518 0
M  V30 2560 C 253.807 4.21372 -1.79471 0
M  V30 2561 N 255.298 4.28303 -1.76381 0
M  V30 2562 C 256.033 5.25729 -2.28904 0
M  V30 2563 N 255.529 6.29254 -2.89846 0
M  V30 2564 N 257.322 5.17586 -2.19228 0
M  V30 2565 H 249.473 1.33415 -1.6527 0
M  V30 2566 H 251.736 0.64282 -0.696769 0
M  V30 2567 H 251.442 2.78561 -2.14701 0
M  V30 2568 H 251.316 3.7133 -0.662862 0
M  V30 2569 H 253.703 2.95086 -0.028475 0
M  V30 2570 H 253.784 2.04002 -1.54328 0
M  V30 2571 H 253.428 4.21001 -2.84114 0
M  V30 2572 H 253.358 5.10275 -1.30104 0
M  V30 2573 H 255.849 3.54119 -1.31939 0
M  V30 2574 H 256.162 6.99964 -3.27522 0
M  V30 2575 H 254.507 6.29791 -2.93919 0
M  V30 2576 H 257.698 4.35631 -1.71299 0
M  V30 2577 H 257.871 5.93348 -2.60466 0
M  V30 2578 N 251.277 0.427512 1.51691 0
M  V30 2579 C 252.502 -0.143601 2.06902 0
M  V30 2580 C 252.927 -1.36536 1.29382 0
M  V30 2581 O 252.285 -1.78289 0.329043 0
M  V30 2582 C 252.333 -0.454207 3.57728 0
M  V30 2583 O 251.437 -1.54228 3.82475 0
M  V30 2584 H 250.778 -0.00617128 0.663971 0
M  V30 2585 H 253.308 0.606014 1.95419 0
M  V30 2586 H 253.318 -0.707525 4.01818 0
M  V30 2587 H 251.993 0.438812 4.13579 0
M  V30 2588 H 250.57 -1.2797 3.50254 0
M  V30 2589 N 252.755 -1.56801 0.158532 0
M  V30 2590 C 254.003 -1.96102 -0.488712 0
M  V30 2591 C 254.324 -1.04498 -1.64636 0
M  V30 2592 O 253.594 -0.108783 -1.95598 0
M  V30 2593 H 252.174 -0.724102 -0.183535 0
M  V30 2594 H 254.836 -1.93457 0.236728 0
M  V30 2595 H 253.932 -3.00097 -0.857219 0
M  V30 2596 N 254.233 0.115231 -1.57178 0
M  V30 2597 C 255.463 0.835224 -1.88964 0
M  V30 2598 C 255.871 1.73774 -0.74829 0
M  V30 2599 O 255.214 1.81401 0.289739 0
M  V30 2600 C 255.276 1.7178 -3.15804 0
M  V30 2601 C 254.94 0.989198 -4.46166 0
M  V30 2602 C 255.937 0.328263 -5.18863 0
M  V30 2603 C 253.622 0.969256 -4.9286 0
M  V30 2604 C 255.616 -0.342873 -6.36477 0
M  V30 2605 C 253.303 0.294324 -6.10391 0
M  V30 2606 C 254.301 -0.360582 -6.82048 0
M  V30 2607 O 253.989 -1.02474 -7.97342 0
M  V30 2608 H 253.721 0.245197 -0.629964 0
M  V30 2609 H 256.275 0.10303 -2.05141 0
M  V30 2610 H 254.505 2.49173 -2.95719 0
M  V30 2611 H 256.194 2.31255 -3.33581 0
M  V30 2612 H 256.96 0.335263 -4.8384 0
M  V30 2613 H 252.839 1.46844 -4.36987 0
M  V30 2614 H 256.383 -0.854629 -6.92345 0
M  V30 2615 H 252.28 0.285099 -6.4487 0
M  V30 2616 H 253.048 -0.929594 -8.13204 0
M  V30 2617 N 255.711 1.52812 0.385517 0
M  V30 2618 C 256.939 1.71907 1.15133 0
M  V30 2619 C 257.354 0.439004 1.83625 0
M  V30 2620 O 256.711 -0.586765 1.7281 0
M  V30 2621 C 256.762 2.87099 2.19673 0
M  V30 2622 O 256.483 4.10151 1.53973 0
M  V30 2623 C 257.984 3.17902 3.08955 0
M  V30 2624 H 255.204 0.575479 0.345057 0
M  V30 2625 H 257.748 1.99476 0.45052 0
M  V30 2626 H 255.903 2.61982 2.85384 0
M  V30 2627 H 256.317 4.74514 2.23465 0
M  V30 2628 H 257.791 4.01959 3.7833 0
M  V30 2629 H 258.268 2.3243 3.72657 0
M  V30 2630 H 258.874 3.44871 2.48885 0
M  V30 2631 N 257.189 -0.644168 1.43834 0
M  V30 2632 C 258.119 -1.76814 1.52509 0
M  V30 2633 C 259.1 -1.65823 0.379052 0
M  V30 2634 O 260.285 -1.84781 0.597466 0
M  V30 2635 C 257.415 -3.15288 1.4564 0
M  V30 2636 C 256.369 -3.41053 2.58586 0
M  V30 2637 C 255.695 -4.79421 2.36769 0
M  V30 2638 C 256.995 -3.34902 4.00797 0
M  V30 2639 H 258.689 -1.69812 2.46586 0
M  V30 2640 H 256.235 -0.815542 1.1868 0
M  V30 2641 H 258.188 -3.93681 1.50311 0
M  V30 2642 H 256.912 -3.23043 0.480725 0
M  V30 2643 H 255.571 -2.65035 2.53282 0
M  V30 2644 H 255.219 -4.83863 1.37424 0
M  V30 2645 H 254.919 -4.9762 3.12487 0
M  V30 2646 H 256.443 -5.6006 2.43238 0
M  V30 2647 H 257.857 -4.03218 4.07539 0
M  V30 2648 H 256.254 -3.64637 4.76613 0
M  V30 2649 H 257.324 -2.32928 4.25291 0
M  V30 2650 N 258.668 -1.30515 -0.883378 0
M  V30 2651 C 259.893 -1.22487 -1.67367 0
M  V30 2652 C 260.318 0.208767 -1.86938 0
M  V30 2653 O 259.676 1.15015 -1.40148 0
M  V30 2654 C 259.724 -1.96041 -3.02655 0
M  V30 2655 O 258.828 -1.28859 -3.91751 0
M  V30 2656 H 258.169 -0.423573 -0.511353 0
M  V30 2657 H 260.699 -1.72362 -1.10239 0
M  V30 2658 H 260.709 -2.05124 -3.52687 0
M  V30 2659 H 259.384 -3.00307 -2.8773 0
M  V30 2660 H 257.961 -1.28141 -3.50192 0
M  V30 2661 N 260.146 1.09593 -1.13257 0
M  V30 2662 C 261.076 2.18214 -0.830946 0
M  V30 2663 C 262.057 1.68812 0.208966 0
M  V30 2664 O 263.242 1.9408 0.0682666 0
M  V30 2665 C 260.372 3.46051 -0.294296 0
M  V30 2666 C 259.326 4.08778 -1.26826 0
M  V30 2667 C 258.652 5.31419 -0.591449 0
M  V30 2668 C 259.952 4.51476 -2.62615 0
M  V30 2669 H 261.646 2.43703 -1.73923 0
M  V30 2670 H 259.192 1.17128 -0.837675 0
M  V30 2671 H 261.145 4.2134 -0.0709606 0
M  V30 2672 H 259.869 3.20079 0.649366 0
M  V30 2673 H 258.528 3.35505 -1.47756 0
M  V30 2674 H 258.176 5.01727 0.357633 0
M  V30 2675 H 257.876 5.74341 -1.24123 0
M  V30 2676 H 259.4 6.09433 -0.377355 0
M  V30 2677 H 260.814 5.17999 -2.45663 0
M  V30 2678 H 259.211 5.05277 -3.23752 0
M  V30 2679 H 260.281 3.63962 -3.20406 0
M  V30 2680 N 261.624 0.925811 1.2754 0
M  V30 2681 C 262.852 0.581509 1.9856 0
M  V30 2682 C 263.267 -0.840041 1.69082 0
M  V30 2683 O 262.624 -1.55805 0.950312 0
M  V30 2684 C 262.675 0.795589 3.52637 0
M  V30 2685 O 262.396 2.16121 3.81082 0
M  V30 2686 C 263.897 0.459744 4.4091 0
M  V30 2687 H 261.117 0.220538 0.633722 0
M  V30 2688 H 263.661 1.24232 1.6244 0
M  V30 2689 H 261.816 0.18161 3.86974 0
M  V30 2690 H 262.23 2.2098 4.75676 0
M  V30 2691 H 263.704 0.660244 5.48037 0
M  V30 2692 H 264.181 -0.604625 4.35018 0
M  V30 2693 H 264.787 1.05178 4.12089 0
M  V30 2694 N 263.102 -1.41638 0.69111 0
M  V30 2695 C 264.05 -2.32597 0.0115199 0
M  V30 2696 C 265.044 -1.5072 -0.773296 0
M  V30 2697 O 266.25 -1.66685 -0.67942 0
M  V30 2698 H 262.625 -0.751849 -0.0150746 0
M  V30 2699 H 264.596 -2.87593 0.795791 0
M  V30 2700 C 263.345 -3.35467 -0.914172 0
M  V30 2701 H 262.668 -3.9852 -0.319687 0
M  V30 2702 H 264.108 -4.01662 -1.35808 0
M  V30 2703 C 262.567 -2.69004 -2.02826 0
M  V30 2704 O 263.097 -2.53444 -3.11655 0
M  V30 2705 N 261.303 -2.2777 -1.80469 0
M  V30 2706 H 260.85 -2.40626 -0.919615 0
M  V30 2707 H 260.808 -1.83635 -2.55197 0
M  V30 2708 N 264.58 -0.43555 -1.51462 0
M  V30 2709 C 265.808 0.130242 -2.0649 0
M  V30 2710 C 266.223 1.36614 -1.30315 0
M  V30 2711 O 265.58 1.78869 -0.362223 0
M  V30 2712 C 265.631 0.454253 -3.58635 0
M  V30 2713 O 265.352 -0.73259 -4.31931 0
M  V30 2714 C 266.853 1.07091 -4.3017 0
M  V30 2715 H 264.073 0.00871669 -0.670943 0
M  V30 2716 H 266.617 -0.614117 -1.95061 0
M  V30 2717 H 264.772 1.14851 -3.69984 0
M  V30 2718 H 265.186 -0.455787 -5.22516 0
M  V30 2719 H 266.66 1.24764 -5.37716 0
M  V30 2720 H 267.137 2.05144 -3.88346 0
M  V30 2721 H 267.743 0.416089 -4.2326 0
M  V30 2722 N 266.058 1.56714 -0.166846 0
M  V30 2723 C 267.005 2.17746 0.765193 0
M  V30 2724 C 267.975 1.11614 1.23011 0
M  V30 2725 O 269.16 1.39745 1.29908 0
M  V30 2726 C 266.3 2.81882 1.9909 0
M  V30 2727 C 265.413 4.02462 1.56997 0
M  V30 2728 C 264.548 4.54537 2.749 0
M  V30 2729 C 263.587 5.67538 2.29275 0
M  V30 2730 N 262.724 6.14142 3.40255 0
M  V30 2731 H 267.564 2.97048 0.237952 0
M  V30 2732 H 265.101 1.4672 0.105725 0
M  V30 2733 H 267.059 3.17221 2.70974 0
M  V30 2734 H 265.689 2.05191 2.49192 0
M  V30 2735 H 264.741 3.72973 0.748037 0
M  V30 2736 H 266.053 4.84273 1.19503 0
M  V30 2737 H 265.207 4.92035 3.54946 0
M  V30 2738 H 263.946 3.71774 3.1565 0
M  V30 2739 H 262.951 5.29597 1.47674 0
M  V30 2740 H 264.176 6.52099 1.89588 0
M  V30 2741 H 262.122 5.3431 3.8059 0
M  V30 2742 H 262.039 6.9093 3.06841 0
M  V30 2743 H 263.307 6.56289 4.206 0
M  V30 2744 N 267.536 -0.106894 1.57237 0
M  V30 2745 C 268.947 -0.662723 1.74542 0
M  V30 2746 C 269.298 -1.7971 0.787319 0
M  V30 2747 O 268.423 -2.16368 -0.0369636 0
M  V30 2748 C 269.018 -1.20896 3.16496 0
M  V30 2749 C 267.577 -1.71096 3.35266 0
M  V30 2750 C 266.724 -0.615642 2.7038 0
M  V30 2751 H 269.675 0.119106 1.58252 0
M  V30 2752 H 269.696 -2.07847 3.18716 0
M  V30 2753 H 269.208 -0.383122 3.86204 0
M  V30 2754 H 267.309 -2.56119 2.70618 0
M  V30 2755 H 267.422 -1.81208 4.43509 0
M  V30 2756 H 265.786 -1.05222 2.31949 0
M  V30 2757 H 266.569 0.199419 3.4272 0
M  V30 2758 N 269.014 -1.53014 -0.377408 0
M  V30 2759 C 270.242 -1.72515 -1.14219 0
M  V30 2760 C 270.657 -0.448735 -1.8339 0
M  V30 2761 O 270.014 0.577592 -1.73119 0
M  V30 2762 C 270.065 -2.8826 -2.18148 0
M  V30 2763 O 269.786 -4.10962 -1.51795 0
M  V30 2764 C 271.287 -3.19536 -3.07264 0
M  V30 2765 H 268.507 -0.577301 -0.342001 0
M  V30 2766 H 271.051 -1.99712 -0.439935 0
M  V30 2767 H 269.206 -2.63492 -2.83991 0
M  V30 2768 H 269.62 -4.75693 -2.20945 0
M  V30 2769 H 271.094 -4.03959 -3.76193 0
M  V30 2770 H 271.571 -2.34403 -3.71419 0
M  V30 2771 H 272.177 -3.46186 -2.47053 0
M  V30 2772 N 270.492 0.636531 -1.44174 0
M  V30 2773 C 271.741 1.39213 -1.45954 0
M  V30 2774 C 272.054 1.95374 -0.0939119 0
M  V30 2775 O 273.26 2.71498 0.0107767 0
M  V30 2776 C 271.716 2.52025 -2.56927 0
M  V30 2777 C 271.324 2.024 -3.99673 0
M  V30 2778 C 273.068 3.29269 -2.67922 0
M  V30 2779 C 270.975 3.12521 -5.0208 0
M  V30 2780 H 269.905 0.523132 -0.542999 0
M  V30 2781 H 272.556 0.685349 -1.70221 0
M  V30 2782 H 270.938 3.25253 -2.25891 0
M  V30 2783 H 272.112 1.36073 -4.40251 0
M  V30 2784 H 270.427 1.37987 -3.92872 0
M  V30 2785 H 273.024 4.11352 -3.41605 0
M  V30 2786 H 273.367 3.78397 -1.73555 0
M  V30 2787 H 273.9 2.63129 -2.98342 0
M  V30 2788 H 270.639 2.68343 -5.98057 0
M  V30 2789 H 270.159 3.77507 -4.66099 0
M  V30 2790 H 271.838 3.77385 -5.25538 0
M  V30 2791 N 271.97 1.30982 0.876444 0
M  V30 2792 C 273.198 1.23242 1.6619 0
M  V30 2793 C 273.613 -0.203345 1.87702 0
M  V30 2794 O 272.97 -1.13317 1.43057 0
M  V30 2795 C 273.021 1.96623 3.03351 0
M  V30 2796 O 272.742 3.34594 2.82804 0
M  V30 2797 C 274.243 1.95644 3.97792 0
M  V30 2798 H 271.463 0.426126 0.518322 0
M  V30 2799 H 274.007 1.7275 1.09442 0
M  V30 2800 H 272.162 1.50892 3.56806 0
M  V30 2801 H 272.576 3.71873 3.69879 0
M  V30 2802 H 274.05 2.51511 4.91372 0
M  V30 2803 H 274.527 0.937395 4.2908 0
M  V30 2804 H 275.133 2.41225 3.50272 0
M  V30 2805 N 273.449 -1.08991 1.13837 0
M  V30 2806 C 274.412 -2.13925 0.822715 0
M  V30 2807 C 275.412 -1.599 -0.1699 0
M  V30 2808 O 276.602 -1.74104 0.0577251 0
M  V30 2809 C 273.734 -3.40155 0.225318 0
M  V30 2810 H 274.927 -2.43358 1.75262 0
M  V30 2811 H 272.48 -1.24603 0.943594 0
M  V30 2812 H 273.215 -3.16352 -0.713594 0
M  V30 2813 H 273 -3.80661 0.940193 0
M  V30 2814 H 274.49 -4.17594 0.0214784 0
M  V30 2815 N 274.927 -0.932562 -1.27047 0
M  V30 2816 C 276.343 -0.633544 -1.46487 0
M  V30 2817 C 276.543 0.815746 -1.84249 0
M  V30 2818 O 275.599 1.59319 -1.95892 0
M  V30 2819 C 276.912 -1.58758 -2.55375 0
M  V30 2820 C 278.46 -1.59634 -2.69232 0
M  V30 2821 C 278.935 -2.53747 -3.81283 0
M  V30 2822 N 280.426 -2.51982 -3.88664 0
M  V30 2823 C 281.161 -3.21491 -4.74796 0
M  V30 2824 N 280.657 -4.00395 -5.65381 0
M  V30 2825 N 282.45 -3.10485 -4.68568 0
M  V30 2826 H 274.601 -1.86946 -1.00821 0
M  V30 2827 H 276.864 -0.802897 -0.504044 0
M  V30 2828 H 276.57 -2.62172 -2.34432 0
M  V30 2829 H 276.444 -1.33301 -3.52861 0
M  V30 2830 H 278.831 -0.569488 -2.89553 0
M  V30 2831 H 278.912 -1.89142 -1.72218 0
M  V30 2832 H 278.556 -3.56545 -3.61715 0
M  V30 2833 H 278.486 -2.21532 -4.77735 0
M  V30 2834 H 280.977 -1.94681 -3.23895 0
M  V30 2835 H 281.29 -4.50406 -6.27976 0
M  V30 2836 H 279.635 -4.04498 -5.65161 0
M  V30 2837 H 282.826 -2.48331 -3.96799 0
M  V30 2838 H 282.999 -3.64925 -5.35475 0
M  V30 2839 N 276.405 1.4127 -0.698611 0
M  V30 2840 C 277.652 2.0118 -0.230865 0
M  V30 2841 C 277.98 1.55338 1.17049 0
M  V30 2842 O 277.235 0.756775 1.80475 0
M  V30 2843 C 277.534 3.56592 -0.240192 0
M  V30 2844 C 277.2 4.21955 -1.58948 0
M  V30 2845 C 275.862 4.39524 -1.95887 0
M  V30 2846 C 278.214 4.58576 -2.47704 0
M  V30 2847 C 275.542 4.90992 -3.2116 0
M  V30 2848 C 277.894 5.11435 -3.72313 0
M  V30 2849 C 276.558 5.27215 -4.0939 0
M  V30 2850 H 275.828 0.736169 -0.0844796 0
M  V30 2851 H 278.475 1.69124 -0.8983 0
M  V30 2852 H 276.78 3.88456 0.510797 0
M  V30 2853 H 278.477 4.00758 0.139296 0
M  V30 2854 H 275.067 4.08657 -1.29219 0
M  V30 2855 H 279.251 4.44654 -2.20445 0
M  V30 2856 H 274.507 5.01393 -3.49878 0
M  V30 2857 H 278.681 5.38752 -4.4127 0
M  V30 2858 H 276.308 5.66859 -5.06533 0
M  V30 2859 N 277.883 0.443576 1.51229 0
M  V30 2860 C 279.294 -0.0180867 1.86691 0
M  V30 2861 C 279.645 -1.41384 1.36033 0
M  V30 2862 O 278.77 -2.04291 0.713722 0
M  V30 2863 C 279.365 -0.039597 3.38777 0
M  V30 2864 C 277.924 -0.445692 3.73752 0
M  V30 2865 C 277.071 0.357584 2.74985 0
M  V30 2866 H 280.022 0.659138 1.44364 0
M  V30 2867 H 280.043 -0.847761 3.70936 0
M  V30 2868 H 279.555 0.976382 3.75617 0
M  V30 2869 H 277.656 -1.46704 3.42503 0
M  V30 2870 H 277.769 -0.166155 4.78812 0
M  V30 2871 H 276.133 -0.184973 2.54027 0
M  V30 2872 H 276.916 1.37256 3.14668 0
M  V30 2873 N 279.361 -1.56624 0.175154 0
M  V30 2874 C 280.308 -2.18149 -0.753634 0
M  V30 2875 C 281.278 -1.12265 -1.22417 0
M  V30 2876 O 282.463 -1.40432 -1.29165 0
M  V30 2877 C 279.603 -2.82933 -1.97592 0
M  V30 2878 C 278.716 -4.03289 -1.5486 0
M  V30 2879 C 277.851 -4.55988 -2.72485 0
M  V30 2880 C 276.89 -5.68746 -2.26262 0
M  V30 2881 N 276.027 -6.15938 -3.36994 0
M  V30 2882 H 280.867 -2.9717 -0.222195 0
M  V30 2883 H 278.404 -1.46774 -0.0979422 0
M  V30 2884 H 280.362 -3.18653 -2.69288 0
M  V30 2885 H 278.992 -2.06509 -2.481 0
M  V30 2886 H 278.044 -3.73364 -0.728246 0
M  V30 2887 H 279.356 -4.849 -1.16933 0
M  V30 2888 H 278.51 -4.9391 -3.52332 0
M  V30 2889 H 277.249 -3.73443 -3.13674 0
M  V30 2890 H 276.254 -5.30372 -1.44863 0
M  V30 2891 H 277.479 -6.53095 -1.86127 0
M  V30 2892 H 275.425 -5.36321 -3.77751 0
M  V30 2893 H 275.342 -6.92548 -3.03172 0
M  V30 2894 H 276.61 -6.58511 -4.17114 0
M  V30 2895 N 280.839 0.0985539 -1.57292 0
M  V30 2896 C 282.086 0.802678 -1.85912 0
M  V30 2897 C 282.414 1.78901 -0.763186 0
M  V30 2898 O 281.669 1.94178 0.243559 0
M  V30 2899 C 281.968 1.56927 -3.21105 0
M  V30 2900 C 281.634 0.725376 -4.45027 0
M  V30 2901 C 280.296 0.492726 -4.78671 0
M  V30 2902 C 282.648 0.138493 -5.21016 0
M  V30 2903 C 279.976 -0.336727 -5.85733 0
M  V30 2904 C 282.328 -0.678264 -6.28953 0
M  V30 2905 C 280.992 -0.921039 -6.61115 0
M  V30 2906 H 280.262 0.293721 -0.680301 0
M  V30 2907 H 282.909 0.0642841 -1.91392 0
M  V30 2908 H 281.214 2.37914 -3.11294 0
M  V30 2909 H 282.911 2.11841 -3.40477 0
M  V30 2910 H 279.501 0.916815 -4.18679 0
M  V30 2911 H 283.685 0.305404 -4.95359 0
M  V30 2912 H 278.941 -0.533836 -6.09065 0
M  V30 2913 H 283.115 -1.1399 -6.87007 0
M  V30 2914 H 280.742 -1.56556 -7.43905 0
M  V30 2915 N 282.317 1.53212 0.369288 0
M  V30 2916 C 283.594 1.59815 1.12776 0
M  V30 2917 C 283.974 0.403402 2.0721 0
M  V30 2918 O 283.322 -0.606667 2.20299 0
M  V30 2919 C 283.532 2.94664 1.87013 0
M  V30 2920 C 284.88 3.49109 2.41677 0
M  V30 2921 O 285.904 2.96669 1.97144 0
M  V30 2922 O 284.763 4.40775 3.23079 0
M  V30 2923 H 281.857 0.645376 0.517125 0
M  V30 2924 H 284.403 1.65553 0.37285 0
M  V30 2925 H 283.175 3.73061 1.18071 0
M  V30 2926 H 282.798 2.92401 2.69421 0
M  V30 2927 N 283.795 -0.628877 1.44509 0
M  V30 2928 C 285.041 -1.38863 1.48623 0
M  V30 2929 C 285.396 -1.92038 0.117933 0
M  V30 2930 O 284.689 -1.70853 -0.86716 0
M  V30 2931 C 284.883 -2.56995 2.48371 0
M  V30 2932 C 284.712 -2.15385 3.94765 0
M  V30 2933 C 283.482 -2.02558 4.62924 0
M  V30 2934 C 285.68 -1.74158 4.83915 0
M  V30 2935 N 283.662 -1.54534 5.94132 0
M  V30 2936 C 285.033 -1.37396 6.04584 0
M  V30 2937 C 287.088 -1.61559 4.7096 0
M  V30 2938 C 285.791 -0.892948 7.13736 0
M  V30 2939 C 287.817 -1.14862 5.80139 0
M  V30 2940 C 287.179 -0.790516 6.9995 0
M  V30 2941 H 283.278 -0.502858 0.59888 0
M  V30 2942 H 285.862 -0.72121 1.8085 0
M  V30 2943 H 284.033 -3.21362 2.1813 0
M  V30 2944 H 285.765 -3.23801 2.42766 0
M  V30 2945 H 282.52 -2.23082 4.1777 0
M  V30 2946 H 282.944 -1.32815 6.63844 0
M  V30 2947 H 287.586 -1.87876 3.78764 0
M  V30 2948 H 285.304 -0.617291 8.05739 0
M  V30 2949 H 288.89 -1.05569 5.72142 0
M  V30 2950 H 287.77 -0.434713 7.82994 0
M  V30 2951 N 285.273 -1.31445 -0.869486 0
M  V30 2952 C 286.684 -1.19042 -1.43826 0
M  V30 2953 C 287.035 0.202919 -1.95148 0
M  V30 2954 O 286.16 1.10071 -1.86315 0
M  V30 2955 C 286.755 -2.15499 -2.6143 0
M  V30 2956 C 285.314 -2.07028 -3.14351 0
M  V30 2957 C 284.461 -2.04701 -1.87063 0
M  V30 2958 H 287.412 -1.43489 -0.677984 0
M  V30 2959 H 287.433 -1.74488 -3.38134 0
M  V30 2960 H 286.945 -3.16899 -2.24046 0
M  V30 2961 H 285.046 -1.08825 -3.56354 0
M  V30 2962 H 285.159 -2.96157 -3.766 0
M  V30 2963 H 283.523 -1.49724 -2.06046 0
M  V30 2964 H 284.306 -3.07857 -1.51917 0
M  V30 2965 N 286.751 1.08385 -1.14413 0
M  V30 2966 C 288.167 1.32844 -0.884563 0
M  V30 2967 C 288.367 1.95841 0.474181 0
M  V30 2968 O 287.423 2.21158 1.21842 0
M  V30 2969 C 288.736 2.22978 -2.01745 0
M  V30 2970 C 290.284 2.36458 -2.05077 0
M  V30 2971 C 290.759 3.29934 -3.1766 0
M  V30 2972 N 292.25 3.37511 -3.17239 0
M  V30 2973 C 292.985 4.09871 -4.0099 0
M  V30 2974 N 292.481 4.84936 -4.94781 0
M  V30 2975 N 294.274 4.05704 -3.89051 0
M  V30 2976 H 286.425 0.658756 -2.01926 0
M  V30 2977 H 288.688 0.352821 -0.879899 0
M  V30 2978 H 288.394 1.83934 -2.99769 0
M  V30 2979 H 288.268 3.23441 -1.94077 0
M  V30 2980 H 290.655 2.7476 -1.0766 0
M  V30 2981 H 290.736 1.35736 -2.16816 0
M  V30 2982 H 290.38 2.92352 -4.15322 0
M  V30 2983 H 290.31 4.30584 -3.03158 0
M  V30 2984 H 292.801 2.83996 -2.49308 0
M  V30 2985 H 293.114 5.37612 -5.55151 0
M  V30 2986 H 291.459 4.83988 -4.98779 0
M  V30 2987 H 294.65 3.46167 -3.15097 0
M  V30 2988 H 294.823 4.61834 -4.54547 0
M  V30 2989 N 288.23 0.939286 1.26551 0
M  V30 2990 C 289.479 0.581601 1.93133 0
M  V30 2991 C 289.792 -0.883224 1.74524 0
M  V30 2992 O 290.998 -1.3502 2.35546 0
M  V30 2993 C 289.454 0.989425 3.46032 0
M  V30 2994 C 289.062 2.47573 3.73379 0
M  V30 2995 C 290.806 0.703544 4.18629 0
M  V30 2996 C 288.713 2.82235 5.19709 0
M  V30 2997 H 287.643 0.213803 0.723052 0
M  V30 2998 H 290.294 1.14167 1.4366 0
M  V30 2999 H 288.676 0.357902 3.94379 0
M  V30 3000 H 289.85 3.15614 3.35744 0
M  V30 3001 H 288.165 2.73471 3.1401 0
M  V30 3002 H 290.762 0.938869 5.26393 0
M  V30 3003 H 291.105 -0.359639 4.14744 0
M  V30 3004 H 291.638 1.2947 3.76141 0
M  V30 3005 H 288.377 3.87509 5.28694 0
M  V30 3006 H 287.897 2.18854 5.58447 0
M  V30 3007 H 289.576 2.70599 5.87695 0
M  V30 3008 N 289.708 -1.40897 0.706093 0
M  V30 3009 C 290.985 -1.94868 0.169099 0
M  V30 3010 C 291.365 -1.64485 -1.32318 0
M  V30 3011 O 290.713 -0.95744 -2.07474 0
M  V30 3012 C 290.923 -3.45798 0.471654 0
M  V30 3013 C 292.271 -4.22663 0.405127 0
M  V30 3014 O 293.295 -3.53865 0.407168 0
M  V30 3015 O 292.154 -5.45216 0.374383 0
M  V30 3016 H 289.248 -0.82673 0.0211352 0
M  V30 3017 H 291.794 -1.50558 0.782976 0
M  V30 3018 H 290.566 -3.61235 1.50416 0
M  V30 3019 H 290.189 -3.97225 -0.172666 0
M  V30 3020 N 291.186 -0.45159 -1.50991 0
M  V30 3021 C 292.149 0.341117 -2.26647 0
M  V30 3022 C 293.149 0.937422 -1.30649 0
M  V30 3023 O 294.339 0.809644 -1.54241 0
M  V30 3024 C 291.471 1.48398 -3.06905 0
M  V30 3025 H 292.664 -0.322117 -2.98165 0
M  V30 3026 H 290.217 -0.205122 -1.54948 0
M  V30 3027 H 290.952 2.18284 -2.39838 0
M  V30 3028 H 290.737 1.06241 -3.77432 0
M  V30 3029 H 292.227 2.04367 -3.64176 0
M  V30 3030 N 292.664 1.56529 -0.183458 0
M  V30 3031 C 294.075 1.83739 0.331177 0
M  V30 3032 C 294.426 1.10373 1.62211 0
M  V30 3033 O 293.551 0.36071 2.13373 0
M  V30 3034 C 294.146 3.33306 0.607646 0
M  V30 3035 C 292.705 3.60969 1.06668 0
M  V30 3036 C 291.852 2.77086 0.109029 0
M  V30 3037 H 294.803 1.53379 -0.407484 0
M  V30 3038 H 294.824 3.51444 1.45832 0
M  V30 3039 H 294.336 3.86677 -0.332086 0
M  V30 3040 H 292.437 3.13021 2.0211 0
M  V30 3041 H 292.55 4.69231 0.967447 0
M  V30 3042 H 290.914 2.47319 0.608714 0
M  V30 3043 H 291.697 3.33241 -0.82494 0
M  V30 3044 N 294.142 -0.090211 1.57342 0
M  V30 3045 C 295.372 -0.805055 1.90269 0
M  V30 3046 C 295.78 -1.72561 0.775842 0
M  V30 3047 O 295.123 -1.81839 -0.260843 0
M  V30 3048 C 295.185 -1.66734 3.18497 0
M  V30 3049 C 294.849 -0.918092 4.47683 0
M  V30 3050 C 295.846 -0.245674 5.19319 0
M  V30 3051 C 293.531 -0.890724 4.94339 0
M  V30 3052 C 295.525 0.444088 6.35851 0
M  V30 3053 C 293.212 -0.197179 6.10782 0
M  V30 3054 C 294.21 0.469044 6.81388 0
M  V30 3055 O 293.898 1.15146 7.95611 0
M  V30 3056 H 293.63 -0.235143 0.633785 0
M  V30 3057 H 296.184 -0.0703805 2.05279 0
M  V30 3058 H 294.414 -2.44437 2.99646 0
M  V30 3059 H 296.103 -2.25919 3.37217 0
M  V30 3060 H 296.869 -0.258246 4.84312 0
M  V30 3061 H 292.748 -1.39873 4.39268 0
M  V30 3062 H 296.292 0.964667 6.90898 0
M  V30 3063 H 292.189 -0.18247 6.45242 0
M  V30 3064 H 292.957 1.05885 8.11622 0
M  V30 3065 N 295.62 -1.53406 -0.361157 0
M  V30 3066 C 296.553 -1.74946 -1.46524 0
M  V30 3067 C 297.531 -0.59795 -1.51206 0
M  V30 3068 O 298.715 -0.831062 -1.69191 0
M  V30 3069 C 295.842 -1.83224 -2.84863 0
M  V30 3070 C 294.888 -3.05233 -2.97885 0
M  V30 3071 S 295.721 -4.6466 -2.66179 0
M  V30 3072 C 296.877 -4.75793 -4.06659 0
M  V30 3073 H 297.11 -2.68319 -1.28033 0
M  V30 3074 H 294.643 -1.44051 -0.555764 0
M  V30 3075 H 296.601 -1.88679 -3.64569 0
M  V30 3076 H 295.262 -0.908948 -3.00661 0
M  V30 3077 H 294.455 -3.07648 -3.9921 0
M  V30 3078 H 294.057 -2.97913 -2.26106 0
M  V30 3079 H 296.349 -4.5612 -5.0096 0
M  V30 3080 H 297.292 -5.7786 -4.09247 0
M  V30 3081 H 297.7 -4.04389 -3.93865 0
M  V30 3082 N 297.098 0.621204 -1.44841 0
M  V30 3083 C 298.514 0.94048 -1.28946 0
M  V30 3084 C 298.714 2.00154 -0.23249 0
M  V30 3085 O 297.77 2.49651 0.378237 0
M  V30 3086 C 299.083 1.39433 -2.66419 0
M  V30 3087 C 300.631 1.50927 -2.74208 0
M  V30 3088 C 301.106 1.99692 -4.12174 0
M  V30 3089 N 302.597 2.06947 -4.144 0
M  V30 3090 C 303.332 2.45871 -5.1801 0
M  V30 3091 N 302.828 2.83862 -6.31977 0
M  V30 3092 N 304.621 2.46092 -5.05366 0
M  V30 3093 H 296.772 -0.0803548 -2.12248 0
M  V30 3094 H 299.035 0.0266913 -0.947624 0
M  V30 3095 H 298.741 0.688925 -3.44887 0
M  V30 3096 H 298.615 2.36347 -2.93973 0
M  V30 3097 H 301.002 2.20561 -1.96053 0
M  V30 3098 H 301.083 0.523627 -2.50383 0
M  V30 3099 H 300.727 1.30649 -4.90809 0
M  V30 3100 H 300.657 2.99146 -4.33381 0
M  V30 3101 H 303.148 1.80232 -3.32152 0
M  V30 3102 H 303.461 3.12405 -7.0684 0
M  V30 3103 H 301.806 2.8159 -6.35399 0
M  V30 3104 H 304.997 2.1581 -4.15384 0
M  V30 3105 H 305.17 2.76102 -5.86235 0
M  V30 3106 N 298.576 1.31904 0.862503 0
M  V30 3107 C 299.987 1.19803 1.43193 0
M  V30 3108 C 300.338 -0.192567 1.95253 0
M  V30 3109 O 299.463 -1.09081 1.86896 0
M  V30 3110 C 300.058 2.16883 2.60283 0
M  V30 3111 C 298.617 2.08692 3.13248 0
M  V30 3112 C 297.764 2.05691 1.85975 0
M  V30 3113 H 300.715 1.43846 0.670365 0
M  V30 3114 H 300.736 1.76278 3.37204 0
M  V30 3115 H 300.248 3.18083 2.22363 0
M  V30 3116 H 298.349 1.10713 3.55771 0
M  V30 3117 H 298.462 2.9815 3.75025 0
M  V30 3118 H 296.826 1.50814 2.05249 0
M  V30 3119 H 297.609 3.08659 1.50282 0
M  V30 3120 N 300.054 -1.07777 1.14986 0
M  V30 3121 C 301.302 -1.79934 0.920235 0
M  V30 3122 C 301.623 -1.86955 -0.554336 0
M  V30 3123 O 300.893 -1.36731 -1.40291 0
M  V30 3124 H 299.473 -0.666424 0.337473 0
M  V30 3125 H 302.135 -1.3027 1.44968 0
M  V30 3126 H 301.231 -2.82539 1.32583 0
M  V30 3127 N 301.532 -0.945985 -1.26051 0
M  V30 3128 C 302.462 -0.477172 -2.28572 0
M  V30 3129 C 303.443 0.472032 -1.63419 0
M  V30 3130 O 304.628 0.372853 -1.90587 0
M  V30 3131 C 301.758 0.253975 -3.4637 0
M  V30 3132 C 300.712 -0.609135 -4.23643 0
M  V30 3133 C 300.038 0.252252 -5.34105 0
M  V30 3134 C 301.338 -1.8829 -4.8718 0
M  V30 3135 H 303.032 -1.33402 -2.68038 0
M  V30 3136 H 300.578 -0.642904 -1.28852 0
M  V30 3137 H 302.531 0.593016 -4.17207 0
M  V30 3138 H 301.255 1.145 -3.05871 0
M  V30 3139 H 299.914 -0.931138 -3.54578 0
M  V30 3140 H 299.562 1.14278 -4.89846 0
M  V30 3141 H 299.262 -0.32188 -5.86718 0
M  V30 3142 H 300.786 0.586454 -6.07777 0
M  V30 3143 H 302.2 -1.61081 -5.50205 0
M  V30 3144 H 300.597 -2.40199 -5.49931 0
M  V30 3145 H 301.667 -2.59134 -4.09851 0
M  V30 3146 N 303.011 1.40521 -0.713556 0
M  V30 3147 C 304.288 1.94775 -0.17943 0
M  V30 3148 C 304.668 1.65184 1.31444 0
M  V30 3149 O 304.016 0.968429 2.06963 0
M  V30 3150 C 304.226 3.45543 -0.489986 0
M  V30 3151 C 305.574 4.22442 -0.427536 0
M  V30 3152 O 306.598 3.53644 -0.425929 0
M  V30 3153 O 305.457 5.4501 -0.403292 0
M  V30 3154 H 302.551 0.826606 -0.0255192 0
M  V30 3155 H 305.097 1.5014 -0.790949 0
M  V30 3156 H 303.869 3.60432 -1.5233 0
M  V30 3157 H 303.492 3.97311 0.151598 0
M  V30 3158 N 304.489 0.459591 1.5075 0
M  V30 3159 C 305.399 -0.34613 2.32033 0
M  V30 3160 C 306.415 -1.00686 1.41909 0
M  V30 3161 O 307.591 -0.997361 1.7497 0
M  V30 3162 C 304.656 -1.42029 3.16273 0
M  V30 3163 C 303.717 -0.777362 4.22203 0
M  V30 3164 C 302.95 -1.80034 5.02418 0
M  V30 3165 O 303.173 -3.02544 4.83553 0
M  V30 3166 O 302.107 -1.37853 5.85901 0
M  V30 3167 H 305.933 0.318054 3.0203 0
M  V30 3168 H 303.518 0.221663 1.47746 0
M  V30 3169 H 305.4 -2.04275 3.68578 0
M  V30 3170 H 304.075 -2.06815 2.49016 0
M  V30 3171 H 302.982 -0.116256 3.73919 0
M  V30 3172 H 304.315 -0.172634 4.91897 0
M  V30 3173 N 305.967 -1.56429 0.191757 0
M  V30 3174 C 307.378 -1.83912 -0.321428 0
M  V30 3175 C 307.729 -1.11231 -1.61623 0
M  V30 3176 O 306.854 -0.37202 -2.13178 0
M  V30 3177 C 307.449 -3.33624 -0.589961 0
M  V30 3178 C 306.008 -3.6153 -1.04753 0
M  V30 3179 C 305.155 -2.7714 -0.0943327 0
M  V30 3180 H 308.106 -1.53161 0.415612 0
M  V30 3181 H 308.127 -3.52213 -1.43966 0
M  V30 3182 H 307.639 -3.86495 0.352588 0
M  V30 3183 H 305.74 -3.14089 -2.00447 0
M  V30 3184 H 305.853 -4.69737 -0.942549 0
M  V30 3185 H 304.217 -2.47638 -0.595589 0
M  V30 3186 H 305 -3.32799 0.842601 0
M  V30 3187 N 307.445 0.0818655 -1.57387 0
M  V30 3188 C 308.408 1.08265 -2.02018 0
M  V30 3189 C 309.408 1.32183 -0.915664 0
M  V30 3190 O 310.598 1.28073 -1.18081 0
M  V30 3191 C 307.73 2.42871 -2.39221 0
M  V30 3192 H 308.923 0.698204 -2.91659 0
M  V30 3193 H 306.476 0.327303 -1.52835 0
M  V30 3194 H 307.211 2.86167 -1.52575 0
M  V30 3195 H 306.996 2.26855 -3.19811 0
M  V30 3196 H 308.486 3.14826 -2.74362 0
M  V30 3197 N 308.923 1.53595 0.353017 0
M  V30 3198 C 309.856 1.7572 1.45594 0
M  V30 3199 C 310.834 0.605961 1.50887 0
M  V30 3200 O 312.018 0.840023 1.68748 0
M  V30 3201 C 309.145 1.84732 2.83887 0
M  V30 3202 C 308.191 3.06808 2.96262 0
M  V30 3203 S 309.024 4.66065 2.63711 0
M  V30 3204 C 310.18 4.77943 4.04131 0
M  V30 3205 H 310.413 2.68994 1.26608 0
M  V30 3206 H 307.946 1.44343 0.548117 0
M  V30 3207 H 309.904 1.9061 3.63563 0
M  V30 3208 H 308.565 0.92488 3.00175 0
M  V30 3209 H 307.758 3.09761 3.97573 0
M  V30 3210 H 307.36 2.99108 2.24523 0
M  V30 3211 H 309.652 4.5877 4.98534 0
M  V30 3212 H 310.595 5.80022 4.06177 0
M  V30 3213 H 311.003 4.06472 3.91715 0
M  V30 3214 N 310.401 -0.613514 1.45168 0
M  V30 3215 C 311.364 -1.7065 1.53007 0
M  V30 3216 C 312.364 -1.5548 0.410184 0
M  V30 3217 O 313.554 -1.60656 0.673455 0
M  V30 3218 C 310.686 -3.09875 1.42093 0
M  V30 3219 H 311.879 -1.65068 2.50385 0
M  V30 3220 H 309.432 -0.828728 1.32521 0
M  V30 3221 H 310.167 -3.21039 0.458769 0
M  V30 3222 H 309.952 -3.22293 2.23315 0
M  V30 3223 H 311.442 -3.895 1.50598 0
M  V30 3224 N 311.879 -1.3236 -0.855495 0
M  V30 3225 C 312.842 -1.21164 -1.94556 0
M  V30 3226 C 313.842 -0.134908 -1.60233 0
M  V30 3227 O 315.032 -0.385249 -1.69887 0
M  V30 3228 C 312.164 -0.863192 -3.29791 0
M  V30 3229 H 313.357 -2.18038 -2.05911 0
M  V30 3230 H 310.91 -1.16179 -1.04557 0
M  V30 3231 H 311.645 0.103769 -3.24134 0
M  V30 3232 H 311.43 -1.64166 -3.56078 0
M  V30 3233 H 312.92 -0.809156 -4.09686 0
M  V30 3234 N 313.357 1.07166 -1.15556 0
M  V30 3235 C 314.287 2.16403 -0.877046 0
M  V30 3236 C 315.268 1.69217 0.173111 0
M  V30 3237 O 316.453 1.94181 0.027084 0
M  V30 3238 C 313.583 3.45349 -0.367632 0
M  V30 3239 C 312.537 4.05995 -1.35468 0
M  V30 3240 C 311.863 5.30045 -0.704038 0
M  V30 3241 C 313.163 4.45804 -2.72132 0
M  V30 3242 H 314.857 2.39959 -1.79053 0
M  V30 3243 H 312.403 1.15325 -0.862331 0
M  V30 3244 H 314.356 4.21095 -0.160317 0
M  V30 3245 H 313.08 3.21385 0.581326 0
M  V30 3246 H 311.739 3.32296 -1.54839 0
M  V30 3247 H 311.387 5.02373 0.251128 0
M  V30 3248 H 311.087 5.71579 -1.36277 0
M  V30 3249 H 312.611 6.08495 -0.50654 0
M  V30 3250 H 314.025 5.12671 -2.56595 0
M  V30 3251 H 312.422 4.98296 -3.34397 0
M  V30 3252 H 313.492 3.57083 -3.28054 0
M  V30 3253 N 314.835 0.952656 1.25548 0
M  V30 3254 C 315.745 0.47782 2.29682 0
M  V30 3255 C 316.761 -0.453859 1.67977 0
M  V30 3256 O 317.937 -0.330587 1.98668 0
M  V30 3257 C 315.002 -0.238655 3.45878 0
M  V30 3258 C 314.063 0.730994 4.23031 0
M  V30 3259 C 313.296 0.0486165 5.33678 0
M  V30 3260 O 313.519 -1.16612 5.58353 0
M  V30 3261 O 312.453 0.733152 5.97418 0
M  V30 3262 H 316.279 1.34312 2.72386 0
M  V30 3263 H 313.864 0.719026 1.30959 0
M  V30 3264 H 315.746 -0.641774 4.16484 0
M  V30 3265 H 314.421 -1.07916 3.05181 0
M  V30 3266 H 313.328 1.18428 3.5486 0
M  V30 3267 H 314.661 1.53946 4.67506 0
M  V30 3268 N 316.313 -1.40141 0.720998 0
M  V30 3269 C 317.276 -2.29058 0.0805834 0
M  V30 3270 C 318.276 -1.45632 -0.681758 0
M  V30 3271 O 319.466 -1.6648 -0.512856 0
M  V30 3272 C 316.598 -3.28925 -0.895593 0
M  V30 3273 H 317.791 -2.87191 0.863793 0
M  V30 3274 H 315.344 -1.48553 0.485975 0
M  V30 3275 H 316.079 -2.75822 -1.70566 0
M  V30 3276 H 315.864 -3.90519 -0.351766 0
M  V30 3277 H 317.354 -3.95494 -1.34069 0
M  V30 3278 N 317.792 -0.46758 -1.50504 0
M  V30 3279 C 318.702 0.33382 -2.32213 0
M  V30 3280 C 319.718 0.999323 -1.42441 0
M  V30 3281 O 320.894 0.988068 -1.75497 0
M  V30 3282 C 317.959 1.4035 -3.17022 0
M  V30 3283 C 317.02 0.754961 -4.2261 0
M  V30 3284 C 316.253 1.77367 -5.03365 0
M  V30 3285 O 316.476 2.99976 -4.8515 0
M  V30 3286 O 315.41 1.34744 -5.86624 0
M  V30 3287 H 319.236 -0.334067 -3.01857 0
M  V30 3288 H 316.821 -0.229496 -1.47627 0
M  V30 3289 H 318.703 2.02318 -3.69656 0
M  V30 3290 H 317.378 2.05492 -2.5011 0
M  V30 3291 H 316.285 0.0964244 -3.73976 0
M  V30 3292 H 317.618 0.146545 -4.91982 0
M  V30 3293 N 319.27 1.56325 -0.20005 0
M  V30 3294 C 320.233 2.18084 0.705132 0
M  V30 3295 C 321.233 1.13666 1.1374 0
M  V30 3296 O 322.423 1.39023 1.04968 0
M  V30 3297 C 319.555 2.78689 1.96329 0
M  V30 3298 H 320.748 2.99435 0.167023 0
M  V30 3299 H 318.301 1.56221 0.0495725 0
M  V30 3300 H 319.036 2.0115 2.5438 0
M  V30 3301 H 318.821 3.55133 1.66202 0
M  V30 3302 H 320.311 3.26096 2.60866 0
M  V30 3303 N 320.748 -0.0735177 1.57428 0
M  V30 3304 C 321.678 -1.0879 2.06608 0
M  V30 3305 C 322.659 -1.40473 0.959237 0
M  V30 3306 O 323.844 -1.5013 1.23185 0
M  V30 3307 C 320.974 -2.40183 2.50857 0
M  V30 3308 C 319.928 -2.22858 3.65402 0
M  V30 3309 C 319.254 -3.59619 3.957 0
M  V30 3310 C 320.554 -1.65123 4.95511 0
M  V30 3311 H 322.248 -0.678673 2.91607 0
M  V30 3312 H 319.794 -0.325013 1.40284 0
M  V30 3313 H 321.747 -3.11437 2.83874 0
M  V30 3314 H 320.471 -2.83083 1.62885 0
M  V30 3315 H 319.13 -1.54045 3.32664 0
M  V30 3316 H 318.778 -4.00086 3.04861 0
M  V30 3317 H 318.478 -3.48866 4.72828 0
M  V30 3318 H 320.002 -4.32306 4.31212 0
M  V30 3319 H 321.416 -2.26241 5.26771 0
M  V30 3320 H 319.813 -1.65071 5.7695 0
M  V30 3321 H 320.883 -0.612559 4.81015 0
M  V30 3322 N 322.226 -1.5378 -0.344866 0
M  V30 3323 C 323.642 -1.44015 -0.687888 0
M  V30 3324 C 323.842 -0.595834 -1.92489 0
M  V30 3325 O 322.898 -0.0863064 -2.52352 0
M  V30 3326 C 324.211 -2.87481 -0.881758 0
M  V30 3327 C 325.759 -2.97247 -0.980459 0
M  V30 3328 C 326.234 -4.41819 -1.20665 0
M  V30 3329 N 327.725 -4.45339 -1.27389 0
M  V30 3330 C 328.46 -5.54333 -1.46639 0
M  V30 3331 N 327.956 -6.73335 -1.63071 0
M  V30 3332 N 329.749 -5.41944 -1.49176 0
M  V30 3333 H 321.9 -2.07169 0.468475 0
M  V30 3334 H 324.163 -0.93643 0.147655 0
M  V30 3335 H 323.869 -3.51672 -0.0443444 0
M  V30 3336 H 323.743 -3.32352 -1.78388 0
M  V30 3337 H 326.13 -2.33197 -1.8084 0
M  V30 3338 H 326.211 -2.5574 -0.0552713 0
M  V30 3339 H 325.855 -5.06449 -0.383652 0
M  V30 3340 H 325.785 -4.80917 -2.14539 0
M  V30 3341 H 328.276 -3.59585 -1.1622 0
M  V30 3342 H 328.589 -7.52165 -1.77391 0
M  V30 3343 H 326.934 -6.76282 -1.60209 0
M  V30 3344 H 330.125 -4.47932 -1.3592 0
M  V30 3345 H 330.298 -6.26946 -1.63837 0
M  V30 3346 N 323.704 0.605807 -1.45491 0
M  V30 3347 C 324.636 1.73031 -1.5031 0
M  V30 3348 C 325.649 1.57968 -0.393687 0
M  V30 3349 O 326.838 1.65817 -0.660839 0
M  V30 3350 C 323.938 3.11049 -1.34543 0
M  V30 3351 C 323.111 3.52334 -2.59189 0
M  V30 3352 C 322.17 4.69323 -2.37954 0
M  V30 3353 O 321.196 4.7635 -3.11575 0
M  V30 3354 N 322.398 5.62705 -1.4263 0
M  V30 3355 H 325.163 1.6936 -2.4726 0
M  V30 3356 H 322.724 0.79114 -1.41254 0
M  V30 3357 H 324.716 3.87071 -1.18144 0
M  V30 3358 H 323.286 3.09217 -0.458623 0
M  V30 3359 H 322.506 2.66256 -2.90691 0
M  V30 3360 H 323.794 3.76677 -3.42041 0
M  V30 3361 H 323.192 5.59744 -0.818758 0
M  V30 3362 H 321.749 6.38252 -1.32202 0
M  V30 3363 N 325.182 1.32811 0.848464 0
M  V30 3364 C 326.145 1.22194 1.9391 0
M  V30 3365 C 327.145 0.143404 1.60159 0
M  V30 3366 O 328.335 0.394253 1.6968 0
M  V30 3367 C 325.467 0.88067 3.29328 0
M  V30 3368 H 326.66 2.19127 2.04752 0
M  V30 3369 H 324.213 1.16731 1.0394 0
M  V30 3370 H 324.948 -0.0865776 3.24184 0
M  V30 3371 H 324.733 1.66052 3.55203 0
M  V30 3372 H 326.223 0.830871 4.09251 0
M  V30 3373 N 326.66 -1.06551 1.16123 0
M  V30 3374 C 328.076 -1.3142 0.905585 0
M  V30 3375 C 328.276 -1.96571 -0.442964 0
M  V30 3376 O 327.332 -2.23068 -1.18308 0
M  V30 3377 C 328.645 -2.19741 2.05267 0
M  V30 3378 C 330.193 -2.33165 2.08813 0
M  V30 3379 C 330.668 -3.24838 3.22868 0
M  V30 3380 N 332.159 -3.32421 3.22568 0
M  V30 3381 C 332.894 -4.0344 4.0746 0
M  V30 3382 N 332.39 -4.77003 5.02434 0
M  V30 3383 N 334.183 -3.99464 3.95456 0
M  V30 3384 H 326.334 -0.626548 2.02949 0
M  V30 3385 H 328.597 -0.338777 0.8854 0
M  V30 3386 H 328.303 -1.79142 3.02657 0
M  V30 3387 H 328.177 -3.20313 1.99198 0
M  V30 3388 H 330.564 -2.73013 1.12018 0
M  V30 3389 H 330.645 -1.3227 2.18948 0
M  V30 3390 H 330.289 -2.85708 4.19921 0
M  V30 3391 H 330.219 -4.25707 3.0997 0
M  V30 3392 H 332.71 -2.79994 2.53795 0
M  V30 3393 H 333.023 -5.28712 5.63634 0
M  V30 3394 H 331.368 -4.75992 5.06415 0
M  V30 3395 H 334.559 -3.4111 3.20564 0
M  V30 3396 H 334.732 -4.54544 4.61837 0
M  V30 3397 N 328.138 -0.959301 -1.25041 0
M  V30 3398 C 329.101 -0.487677 -2.23952 0
M  V30 3399 C 330.101 0.41119 -1.55454 0
M  V30 3400 O 331.291 0.207825 -1.72956 0
M  V30 3401 C 328.423 0.294807 -3.39623 0
M  V30 3402 H 329.616 -1.36198 -2.67189 0
M  V30 3403 H 327.169 -0.743042 -1.37508 0
M  V30 3404 H 327.904 1.18658 -3.01813 0
M  V30 3405 H 327.689 -0.35012 -3.90534 0
M  V30 3406 H 329.179 0.614089 -4.1306 0
M  V30 3407 N 329.616 1.39756 -0.72842 0
M  V30 3408 C 330.579 2.29012 -0.0927297 0
M  V30 3409 C 331.579 1.45992 0.674025 0
M  V30 3410 O 332.769 1.66749 0.50402 0
M  V30 3411 C 329.901 3.29396 0.878137 0
M  V30 3412 H 331.094 2.86729 -0.879011 0
M  V30 3413 H 328.647 1.48293 -0.493847 0
M  V30 3414 H 329.382 2.76722 1.69101 0
M  V30 3415 H 329.167 3.907 0.331051 0
M  V30 3416 H 330.657 3.96199 1.3197 0
M  V30 3417 N 331.094 0.475555 1.50254 0
M  V30 3418 C 332.341 -0.0778919 2.0235 0
M  V30 3419 C 332.669 -1.39319 1.35722 0
M  V30 3420 O 331.924 -1.89888 0.473395 0
M  V30 3421 C 332.223 -0.305114 3.56095 0
M  V30 3422 C 331.889 0.92903 4.41225 0
M  V30 3423 C 330.551 1.26739 4.6421 0
M  V30 3424 C 332.903 1.75054 4.90923 0
M  V30 3425 C 330.231 2.42724 5.34137 0
M  V30 3426 C 332.583 2.9017 5.62125 0
M  V30 3427 C 331.247 3.24416 5.83362 0
M  V30 3428 H 330.517 -0.0285027 0.740452 0
M  V30 3429 H 333.164 0.630543 1.80821 0
M  V30 3430 H 331.469 -1.09584 3.76163 0
M  V30 3431 H 333.166 -0.747377 3.93974 0
M  V30 3432 H 329.756 0.655428 4.23559 0
M  V30 3433 H 333.94 1.50231 4.73016 0
M  V30 3434 H 329.196 2.69525 5.48786 0
M  V30 3435 H 333.37 3.54169 5.99614 0
M  V30 3436 H 330.997 4.14396 6.37323 0
M  V30 3437 N 332.573 -1.56217 0.208337 0
M  V30 3438 C 333.483 -2.23316 -0.718836 0
M  V30 3439 C 334.499 -1.23648 -1.22422 0
M  V30 3440 O 335.675 -1.56423 -1.26861 0
M  V30 3441 C 332.74 -2.88968 -1.91568 0
M  V30 3442 C 331.801 -4.03943 -1.45357 0
M  V30 3443 C 331.034 -4.66455 -2.59337 0
M  V30 3444 O 331.257 -4.27919 -3.77149 0
M  V30 3445 O 330.191 -5.55686 -2.31293 0
M  V30 3446 H 334.017 -3.03182 -0.177315 0
M  V30 3447 H 331.602 -1.49384 -0.0215402 0
M  V30 3448 H 333.484 -3.30455 -2.61491 0
M  V30 3449 H 332.159 -2.12071 -2.44556 0
M  V30 3450 H 331.066 -3.67052 -0.722746 0
M  V30 3451 H 332.399 -4.82543 -0.970219 0
M  V30 3452 N 334.051 0.0651679 -1.57465 0
M  V30 3453 C 335.279 0.775808 -1.91804 0
M  V30 3454 C 335.694 1.70782 -0.804916 0
M  V30 3455 O 335.051 1.81153 0.221311 0
M  V30 3456 C 335.102 1.56381 -3.25925 0
M  V30 3457 O 334.823 0.669248 -4.32958 0
M  V30 3458 C 336.324 2.37485 -3.7432 0
M  V30 3459 H 333.544 0.2202 -0.63384 0
M  V30 3460 H 336.088 0.0334587 -2.04473 0
M  V30 3461 H 334.243 2.25837 -3.14764 0
M  V30 3462 H 334.657 1.21801 -5.10162 0
M  V30 3463 H 336.131 2.88223 -4.70778 0
M  V30 3464 H 336.608 3.17307 -3.03666 0
M  V30 3465 H 337.214 1.73173 -3.88447 0
M  V30 3466 N 335.529 1.53961 0.336706 0
M  V30 3467 C 336.945 1.44378 0.680241 0
M  V30 3468 C 337.145 0.606034 1.9217 0
M  V30 3469 O 336.201 0.099688 2.52303 0
M  V30 3470 C 337.514 2.87945 0.8665 0
M  V30 3471 C 339.062 2.97763 0.964682 0
M  V30 3472 C 339.537 4.42453 1.18321 0
M  V30 3473 N 341.028 4.46008 1.25025 0
M  V30 3474 C 341.763 5.55102 1.43697 0
M  V30 3475 N 341.259 6.7419 1.59498 0
M  V30 3476 N 343.052 5.42727 1.463 0
M  V30 3477 H 335.203 2.06918 -0.479455 0
M  V30 3478 H 337.466 0.935634 -0.152619 0
M  V30 3479 H 337.172 3.51691 0.0256937 0
M  V30 3480 H 337.046 3.33293 1.76623 0
M  V30 3481 H 339.433 2.34153 1.796 0
M  V30 3482 H 339.514 2.55766 0.041708 0
M  V30 3483 H 339.158 5.06645 0.356788 0
M  V30 3484 H 339.088 4.82048 2.11985 0
M  V30 3485 H 341.579 3.60196 1.14312 0
M  V30 3486 H 341.892 7.53095 1.734 0
M  V30 3487 H 340.237 6.77123 1.56621 0
M  V30 3488 H 343.428 4.48647 1.33543 0
M  V30 3489 H 343.601 6.27806 1.6051 0
M  V30 3490 N 337.007 -0.598083 1.45811 0
M  V30 3491 C 338.418 -1.18011 1.44673 0
M  V30 3492 C 338.769 -1.95378 0.179364 0
M  V30 3493 O 337.894 -2.04124 -0.718509 0
M  V30 3494 C 338.489 -2.14677 2.62105 0
M  V30 3495 C 337.048 -2.68236 2.64057 0
M  V30 3496 C 336.195 -1.43816 2.37091 0
M  V30 3497 H 339.146 -0.38686 1.53913 0
M  V30 3498 H 339.167 -2.97878 2.36746 0
M  V30 3499 H 338.679 -1.5834 3.5433 0
M  V30 3500 H 336.78 -3.28486 1.75864 0
M  V30 3501 H 336.893 -3.12021 3.63566 0
M  V30 3502 H 335.257 -1.731 1.86838 0
M  V30 3503 H 336.04 -0.893333 3.31473 0
M  V30 3504 N 338.485 -1.33259 -0.841409 0
M  V30 3505 C 339.435 -1.19872 -1.93945 0
M  V30 3506 C 340.419 -0.102269 -1.60575 0
M  V30 3507 O 341.611 -0.330114 -1.73894 0
M  V30 3508 C 338.74 -0.937517 -3.30251 0
M  V30 3509 C 337.826 -2.07629 -3.69799 0
M  V30 3510 N 338.217 -3.32604 -3.81062 0
M  V30 3511 C 336.515 -1.98242 -3.9952 0
M  V30 3512 C 337.216 -4.07275 -4.15333 0
M  V30 3513 N 336.192 -3.35691 -4.27566 0
M  V30 3514 H 339.994 -2.14604 -2.00805 0
M  V30 3515 H 337.508 -1.2523 -1.03398 0
M  V30 3516 H 339.505 -0.822545 -4.08705 0
M  V30 3517 H 338.165 0.00128798 -3.247 0
M  V30 3518 H 339.176 -3.67382 -3.65035 0
M  V30 3519 H 335.853 -1.12005 -4.02195 0
M  V30 3520 H 337.243 -5.1511 -4.31406 0
M  V30 3521 N 339.963 1.05934 -1.16686 0
M  V30 3522 C 341.24 1.75643 -0.860747 0
M  V30 3523 C 341.62 2.01144 0.640641 0
M  V30 3524 O 340.968 1.64147 1.58959 0
M  V30 3525 C 341.178 3.05493 -1.68745 0
M  V30 3526 C 342.526 3.79581 -1.90271 0
M  V30 3527 O 343.55 3.15344 -1.65641 0
M  V30 3528 O 342.409 4.9499 -2.31618 0
M  V30 3529 H 339.503 0.763426 -0.317977 0
M  V30 3530 H 342.049 1.1217 -1.27342 0
M  V30 3531 H 340.821 2.8264 -2.70611 0
M  V30 3532 H 340.444 3.76702 -1.27206 0
M  V30 3533 N 341.441 0.965919 1.2453 0
M  V30 3534 C 342.69 0.622437 1.91856 0
M  V30 3535 C 343.003 -0.846006 1.76358 0
M  V30 3536 O 344.209 -1.29993 2.38357 0
M  V30 3537 C 342.665 1.0626 3.43856 0
M  V30 3538 C 342.273 2.55437 3.68043 0
M  V30 3539 C 344.017 0.792183 4.17043 0
M  V30 3540 C 341.924 2.93196 5.13605 0
M  V30 3541 H 340.854 0.229092 0.718354 0
M  V30 3542 H 343.505 1.17189 1.41206 0
M  V30 3543 H 341.887 0.441476 3.93531 0
M  V30 3544 H 343.061 3.22665 3.28974 0
M  V30 3545 H 341.376 2.8007 3.08139 0
M  V30 3546 H 343.973 1.05031 5.24283 0
M  V30 3547 H 344.316 -0.271584 4.15413 0
M  V30 3548 H 344.849 1.37419 3.73311 0
M  V30 3549 H 341.588 3.98636 5.20355 0
M  V30 3550 H 341.108 2.30651 5.53679 0
M  V30 3551 H 342.787 2.83004 5.81823 0
M  V30 3552 N 342.919 -1.39368 0.735821 0
M  V30 3553 C 343.882 -2.2896 0.104874 0
M  V30 3554 C 344.882 -1.46347 -0.666274 0
M  V30 3555 O 346.072 -1.67014 -0.49517 0
M  V30 3556 C 343.204 -3.29857 -0.860656 0
M  V30 3557 H 344.397 -2.86259 0.894205 0
M  V30 3558 H 341.95 -1.48029 0.501704 0
M  V30 3559 H 342.685 -2.77615 -1.67631 0
M  V30 3560 H 342.47 -3.9087 -0.310327 0
M  V30 3561 H 343.96 -3.96893 -1.29867 0
M  V30 3562 N 344.397 -0.483516 -1.5 0
M  V30 3563 C 345.637 0.0657469 -2.04294 0
M  V30 3564 C 346.001 1.35869 -1.35659 0
M  V30 3565 O 347.202 1.99111 -1.80578 0
M  V30 3566 C 345.473 0.232758 -3.56641 0
M  V30 3567 S 347.032 0.738788 -4.32536 0
M  V30 3568 H 343.85 0.0100755 -0.710929 0
M  V30 3569 H 346.452 -0.653494 -1.84254 0
M  V30 3570 H 345.156 -0.713847 -4.04144 0
M  V30 3571 H 344.687 0.977751 -3.81056 0
M  V30 3572 H 346.702 2.01048 -4.53645 0
M  V30 3573 N 345.875 1.56104 -0.216619 0
M  V30 3574 C 347.122 1.98172 0.416416 0
M  V30 3575 C 347.45 1.10413 1.60122 0
M  V30 3576 O 346.705 0.147967 1.9514 0
M  V30 3577 C 347.004 3.45923 0.898464 0
M  V30 3578 C 346.67 4.50559 -0.175288 0
M  V30 3579 C 345.332 4.78897 -0.470271 0
M  V30 3580 C 347.684 5.1334 -0.901728 0
M  V30 3581 C 345.012 5.67299 -1.4963 0
M  V30 3582 C 347.364 6.02853 -1.91705 0
M  V30 3583 C 346.028 6.29537 -2.21901 0
M  V30 3584 H 345.298 0.725164 0.152377 0
M  V30 3585 H 347.945 1.88839 -0.318103 0
M  V30 3586 H 346.25 3.52434 1.71165 0
M  V30 3587 H 347.947 3.75841 1.39803 0
M  V30 3588 H 344.537 4.28551 0.0647806 0
M  V30 3589 H 348.721 4.91521 -0.687072 0
M  V30 3590 H 343.977 5.86239 -1.73592 0
M  V30 3591 H 348.151 6.50552 -2.48505 0
M  V30 3592 H 345.778 6.97835 -3.01548 0
M  V30 3593 N 347.353 -0.0568162 1.57498 0
M  V30 3594 C 348.599 -0.75422 1.88253 0
M  V30 3595 C 348.932 -1.76461 0.810865 0
M  V30 3596 O 348.207 -1.93691 -0.177259 0
M  V30 3597 C 348.49 -1.44878 3.2967 0
M  V30 3598 C 348.343 -0.453789 4.47505 0
M  V30 3599 C 349.662 -2.38994 3.69554 0
M  V30 3600 H 346.781 -0.272724 0.684683 0
M  V30 3601 H 349.423 -0.0172113 1.89992 0
M  V30 3602 H 347.573 -2.077 3.28318 0
M  V30 3603 H 349.245 0.170371 4.60985 0
M  V30 3604 H 347.488 0.229552 4.33192 0
M  V30 3605 H 348.159 -0.977699 5.43273 0
M  V30 3606 H 350.635 -1.86239 3.72095 0
M  V30 3607 H 349.511 -2.84587 4.69363 0
M  V30 3608 H 349.772 -3.24461 3.00296 0
M  V30 3609 N 348.832 -1.54138 -0.328536 0
M  V30 3610 C 349.795 -1.82462 -1.38709 0
M  V30 3611 C 350.795 -0.696229 -1.44946 0
M  V30 3612 O 351.985 -0.964535 -1.4506 0
M  V30 3613 C 349.117 -1.98018 -2.77492 0
M  V30 3614 H 350.31 -2.77037 -1.14851 0
M  V30 3615 H 347.863 -1.45779 -0.563751 0
M  V30 3616 H 348.598 -1.05637 -3.06613 0
M  V30 3617 H 348.383 -2.80124 -2.74359 0
M  V30 3618 H 349.873 -2.21396 -3.54081 0
M  V30 3619 N 350.31 0.590341 -1.46126 0
M  V30 3620 C 351.22 1.72793 -1.58681 0
M  V30 3621 C 352.236 1.67516 -0.470566 0
M  V30 3622 O 353.412 1.87562 -0.733642 0
M  V30 3623 C 350.477 3.09287 -1.5666 0
M  V30 3624 C 349.538 3.25886 -2.79458 0
M  V30 3625 C 348.771 4.55869 -2.77524 0
M  V30 3626 O 348.994 5.3928 -1.85832 0
M  V30 3627 O 347.928 4.75552 -3.68964 0
M  V30 3628 H 351.754 1.65149 -2.54872 0
M  V30 3629 H 349.339 0.756486 -1.28832 0
M  V30 3630 H 351.221 3.90577 -1.58202 0
M  V30 3631 H 349.896 3.17385 -0.636271 0
M  V30 3632 H 348.803 2.44119 -2.83472 0
M  V30 3633 H 350.136 3.22675 -3.71674 0
M  V30 3634 N 351.788 1.33704 0.83433 0
M  V30 3635 C 353.199 1.22813 1.4062 0
M  V30 3636 C 353.55 -0.151107 1.95617 0
M  V30 3637 O 352.675 -1.05092 1.89168 0
M  V30 3638 C 353.27 2.22355 2.55624 0
M  V30 3639 C 351.829 2.1529 3.08751 0
M  V30 3640 C 350.976 2.09589 1.8157 0
M  V30 3641 H 353.927 1.45236 0.639702 0
M  V30 3642 H 353.948 1.83391 3.33389 0
M  V30 3643 H 353.46 3.22728 2.15566 0
M  V30 3644 H 351.561 1.18235 3.53343 0
M  V30 3645 H 351.674 3.06038 3.68616 0
M  V30 3646 H 350.038 1.55134 2.02004 0
M  V30 3647 H 350.821 3.11777 1.43701 0
M  V30 3648 N 353.266 -1.05314 1.17247 0
M  V30 3649 C 354.515 -1.77685 0.954521 0
M  V30 3650 C 354.828 -1.88616 -0.518025 0
M  V30 3651 O 356.034 -2.57714 -0.854144 0
M  V30 3652 C 354.49 -3.19402 1.65863 0
M  V30 3653 C 354.098 -3.16605 3.16963 0
M  V30 3654 C 355.842 -3.96237 1.52303 0
M  V30 3655 C 353.749 -4.53103 3.80068 0
M  V30 3656 H 352.679 -0.666 0.353496 0
M  V30 3657 H 355.33 -1.1805 1.40486 0
M  V30 3658 H 353.712 -3.79355 1.13602 0
M  V30 3659 H 354.886 -2.66176 3.76148 0
M  V30 3660 H 353.201 -2.53268 3.30521 0
M  V30 3661 H 355.798 -4.97157 1.96822 0
M  V30 3662 H 356.141 -4.136 0.473401 0
M  V30 3663 H 356.674 -3.42829 2.01775 0
M  V30 3664 H 353.413 -4.40946 4.85023 0
M  V30 3665 H 352.933 -5.03686 3.2567 0
M  V30 3666 H 354.612 -5.22045 3.82202 0
M  V30 3667 N 354.744 -0.972509 -1.24016 0
M  V30 3668 C 355.676 -0.464375 -2.24446 0
M  V30 3669 C 356.689 0.4295 -1.57032 0
M  V30 3670 O 357.878 0.234902 -1.76948 0
M  V30 3671 C 354.978 0.348385 -3.37105 0
M  V30 3672 C 354.151 -0.53673 -4.34094 0
M  V30 3673 C 353.21 0.220838 -5.25736 0
M  V30 3674 O 352.236 -0.386867 -5.67884 0
M  V30 3675 N 353.438 1.50907 -5.60542 0
M  V30 3676 H 356.203 -1.32788 -2.68677 0
M  V30 3677 H 353.764 -0.844877 -1.38107 0
M  V30 3678 H 355.756 0.863341 -3.95384 0
M  V30 3679 H 354.326 1.11285 -2.92121 0
M  V30 3680 H 353.546 -1.23261 -3.74433 0
M  V30 3681 H 354.834 -1.14022 -4.95859 0
M  V30 3682 H 354.232 2.02444 -5.28236 0
M  V30 3683 H 352.789 1.96962 -6.21329 0
M  V30 3684 N 356.222 1.38976 -0.743202 0
M  V30 3685 C 357.47 1.99948 -0.29417 0
M  V30 3686 C 357.791 1.59279 1.12495 0
M  V30 3687 O 357.061 0.844808 1.76748 0
M  V30 3688 H 355.641 0.739473 -0.105774 0
M  V30 3689 H 358.303 1.699 -0.954986 0
M  V30 3690 H 357.399 3.10142 -0.349056 0
M  V30 3691 N 357.7 0.491464 1.49741 0
M  V30 3692 C 358.61 -0.296835 2.32715 0
M  V30 3693 C 359.626 -0.976536 1.44013 0
M  V30 3694 O 360.802 -0.960023 1.77047 0
M  V30 3695 C 357.867 -1.35288 3.19215 0
M  V30 3696 C 356.928 -0.687632 4.23757 0
M  V30 3697 C 356.161 -1.69336 5.06123 0
M  V30 3698 O 356.384 -2.92219 4.89861 0
M  V30 3699 O 355.318 -1.25394 5.88693 0
M  V30 3700 H 359.144 0.382048 3.01287 0
M  V30 3701 H 356.729 0.252953 1.47243 0
M  V30 3702 H 358.611 -1.96411 3.72828 0
M  V30 3703 H 357.286 -2.01487 2.53347 0
M  V30 3704 H 356.193 -0.0369159 3.74082 0
M  V30 3705 H 357.526 -0.0682566 4.92153 0
M  V30 3706 N 359.178 -1.55987 0.224894 0
M  V30 3707 C 360.426 -1.97998 -0.405099 0
M  V30 3708 C 360.747 -1.11387 -1.60056 0
M  V30 3709 O 360.017 -0.191645 -1.9496 0
M  V30 3710 H 358.597 -0.731235 -0.152658 0
M  V30 3711 H 361.259 -1.92279 0.318567 0
M  V30 3712 H 360.355 -3.03463 -0.729167 0
M  V30 3713 N 360.656 0.0484629 -1.57525 0
M  V30 3714 C 361.904 0.741657 -1.88 0
M  V30 3715 C 362.225 1.76918 -0.820054 0
M  V30 3716 O 361.495 1.95335 0.148661 0
M  V30 3717 H 360.075 0.276908 -0.69378 0
M  V30 3718 H 362.737 0.019013 -1.94891 0
M  V30 3719 H 361.833 1.24336 -2.86264 0
M  V30 3720 N 362.134 1.5431 0.320358 0
M  V30 3721 C 363.411 1.63322 1.07635 0
M  V30 3722 C 363.791 0.46912 2.05821 0
M  V30 3723 O 363.139 -0.536274 2.22118 0
M  V30 3724 C 363.349 3.00465 1.77544 0
M  V30 3725 C 364.697 3.56621 2.30449 0
M  V30 3726 O 365.721 3.02791 1.87606 0
M  V30 3727 O 364.58 4.5083 3.08892 0
M  V30 3728 H 361.674 0.661502 0.496331 0
M  V30 3729 H 364.22 1.66656 0.319992 0
M  V30 3730 H 362.992 3.76629 1.06143 0
M  V30 3731 H 362.615 3.00824 2.59982 0
M  V30 3732 N 363.613 -0.582584 1.46437 0
M  V30 3733 C 365.029 -0.905962 1.31394 0
M  V30 3734 C 365.229 -1.99468 0.285476 0
M  V30 3735 O 364.285 -2.50566 -0.311914 0
M  V30 3736 C 365.598 -1.3232 2.70022 0
M  V30 3737 C 367.146 -1.43604 2.78113 0
M  V30 3738 C 367.621 -1.88694 4.17323 0
M  V30 3739 N 369.112 -1.95887 4.19741 0
M  V30 3740 C 369.847 -2.32051 5.24347 0
M  V30 3741 N 369.343 -2.67006 6.39281 0
M  V30 3742 N 371.136 -2.32606 5.11713 0
M  V30 3743 H 363.287 0.1366 2.1196 0
M  V30 3744 H 365.55 -0.00155736 0.947999 0
M  V30 3745 H 365.256 -0.597242 3.46592 0
M  V30 3746 H 365.13 -2.28469 3.00136 0
M  V30 3747 H 367.517 -2.15286 2.01832 0
M  V30 3748 H 367.598 -0.457059 2.51684 0
M  V30 3749 H 367.242 -1.1759 4.941 0
M  V30 3750 H 367.172 -2.8755 4.4116 0
M  V30 3751 H 369.663 -1.71362 3.36814 0
M  V30 3752 H 369.976 -2.93554 7.14875 0
M  V30 3753 H 368.321 -2.64644 6.42642 0
M  V30 3754 H 371.512 -2.04721 4.2096 0
M  V30 3755 H 371.685 -2.60462 5.93349 0
M  V30 3756 N 365.091 -1.34144 -0.827227 0
M  V30 3757 C 366.041 -1.21923 -1.92663 0
M  V30 3758 C 367.025 -0.119294 -1.60457 0
M  V30 3759 O 368.217 -0.348539 -1.73534 0
M  V30 3760 C 365.346 -0.972492 -3.29238 0
M  V30 3761 C 364.432 -2.1154 -3.67576 0
M  V30 3762 N 364.823 -3.36627 -3.77512 0
M  V30 3763 C 363.121 -2.02468 -3.97395 0
M  V30 3764 C 363.822 -4.11658 -4.1099 0
M  V30 3765 N 362.798 -3.40207 -4.23981 0
M  V30 3766 H 366.6 -2.16721 -1.98517 0
M  V30 3767 H 364.114 -1.2632 -1.02064 0
M  V30 3768 H 366.111 -0.865847 -4.0781 0
M  V30 3769 H 364.771 -0.0331509 -3.24683 0
M  V30 3770 H 365.782 -3.71234 -3.61118 0
M  V30 3771 H 362.459 -1.16265 -4.00985 0
M  V30 3772 H 363.849 -5.19657 -4.25918 0
M  V30 3773 N 366.569 1.04691 -1.17803 0
M  V30 3774 C 367.816 1.77782 -0.969532 0
M  V30 3775 C 368.144 1.87926 0.501401 0
M  V30 3776 O 367.399 1.37918 1.38842 0
M  V30 3777 C 367.698 3.21467 -1.56186 0
M  V30 3778 C 367.364 3.3137 -3.05786 0
M  V30 3779 C 366.026 3.3378 -3.46619 0
M  V30 3780 C 368.378 3.31976 -4.01797 0
M  V30 3781 C 365.706 3.34431 -4.82051 0
M  V30 3782 C 368.058 3.34167 -5.37136 0
M  V30 3783 C 366.722 3.34866 -5.77426 0
M  V30 3784 H 365.992 0.650549 -0.354777 0
M  V30 3785 H 368.639 1.23006 -1.46772 0
M  V30 3786 H 366.944 3.79203 -0.985515 0
M  V30 3787 H 368.641 3.76652 -1.37602 0
M  V30 3788 H 365.231 3.3021 -2.73238 0
M  V30 3789 H 369.415 3.29311 -3.71306 0
M  V30 3790 H 364.671 3.33285 -5.12573 0
M  V30 3791 H 368.845 3.33585 -6.11305 0
M  V30 3792 H 366.472 3.35124 -6.82346 0
M  V30 3793 N 368.047 0.979072 1.23499 0
M  V30 3794 C 369.463 0.687475 1.44034 0
M  V30 3795 C 369.663 -0.746801 1.8715 0
M  V30 3796 O 368.719 -1.51939 2.0167 0
M  V30 3797 C 370.032 1.68127 2.49307 0
M  V30 3798 C 371.58 1.69516 2.63122 0
M  V30 3799 C 372.055 2.67723 3.71603 0
M  V30 3800 N 373.546 2.66233 3.79044 0
M  V30 3801 C 374.281 3.38891 4.62537 0
M  V30 3802 N 373.777 4.21103 5.50131 0
M  V30 3803 N 375.57 3.27661 4.56721 0
M  V30 3804 H 367.721 1.90559 0.938135 0
M  V30 3805 H 369.984 0.821051 0.473897 0
M  V30 3806 H 369.69 2.70693 2.2454 0
M  V30 3807 H 369.564 1.46306 3.4767 0
M  V30 3808 H 371.951 0.676561 2.8724 0
M  V30 3809 H 372.032 1.95404 1.65079 0
M  V30 3810 H 371.676 3.69724 3.48233 0
M  V30 3811 H 371.606 2.39111 4.69184 0
M  V30 3812 H 374.097 2.06568 3.16446 0
M  V30 3813 H 374.41 4.73403 6.10827 0
M  V30 3814 H 372.755 4.25195 5.49759 0
M  V30 3815 H 375.946 2.62887 3.87309 0
M  V30 3816 H 376.119 3.84547 5.21562 0
M  V30 3817 N 369.525 -1.3858 0.750561 0
M  V30 3818 C 370.936 -1.82927 0.373438 0
M  V30 3819 C 371.287 -1.62634 -1.09748 0
M  V30 3820 O 370.412 -1.12588 -1.84805 0
M  V30 3821 C 371.007 -3.32088 0.671029 0
M  V30 3822 C 369.566 -3.74795 0.34722 0
M  V30 3823 C 368.713 -2.61391 0.92575 0
M  V30 3824 H 371.664 -1.27351 0.946958 0
M  V30 3825 H 371.685 -3.80465 -0.0518269 0
M  V30 3826 H 371.197 -3.46826 1.74164 0
M  V30 3827 H 369.298 -3.65638 -0.716933 0
M  V30 3828 H 369.411 -4.71667 0.840656 0
M  V30 3829 H 367.775 -2.52265 0.351327 0
M  V30 3830 H 368.558 -2.78929 2.00133 0
M  V30 3831 N 371.003 -0.499398 -1.49478 0
M  V30 3832 C 371.913 0.284489 -2.32869 0
M  V30 3833 C 372.929 0.968885 -1.44529 0
M  V30 3834 O 374.105 0.95062 -1.77553 0
M  V30 3835 C 371.17 1.33594 -3.19928 0
M  V30 3836 C 370.231 0.665149 -4.24116 0
M  V30 3837 C 369.464 1.6665 -5.07014 0
M  V30 3838 O 369.687 2.89618 -4.91404 0
M  V30 3839 O 368.621 1.22271 -5.8935 0
M  V30 3840 H 372.447 -0.39802 -3.01081 0
M  V30 3841 H 370.032 -0.260758 -1.47107 0
M  V30 3842 H 371.914 1.94431 -3.73864 0
M  V30 3843 H 370.589 2.0014 -2.54412 0
M  V30 3844 H 369.496 0.0170769 -3.74096 0
M  V30 3845 H 370.829 0.0421555 -4.92182 0
M  V30 3846 N 372.481 1.55866 -0.233164 0
M  V30 3847 C 373.728 1.98603 0.395374 0
M  V30 3848 C 374.056 1.12105 1.58942 0
M  V30 3849 O 373.311 0.168656 1.94972 0
M  V30 3850 C 373.61 3.46856 0.861724 0
M  V30 3851 C 373.276 4.50348 -0.223066 0
M  V30 3852 C 371.938 4.78371 -0.521038 0
M  V30 3853 C 374.29 5.12355 -0.956124 0
M  V30 3854 C 371.618 5.6568 -1.55638 0
M  V30 3855 C 373.97 6.00786 -1.98089 0
M  V30 3856 C 372.634 6.27148 -2.28565 0
M  V30 3857 H 371.904 0.726739 0.144677 0
M  V30 3858 H 374.551 1.88491 -0.338114 0
M  V30 3859 H 372.856 3.5423 1.67418 0
M  V30 3860 H 374.553 3.77302 1.35809 0
M  V30 3861 H 371.143 4.28596 0.0193234 0
M  V30 3862 H 375.327 4.90765 -0.739166 0
M  V30 3863 H 370.583 5.84365 -1.798 0
M  V30 3864 H 374.757 6.4788 -2.55391 0
M  V30 3865 H 372.384 6.94597 -3.08932 0
M  V30 3866 N 373.959 -0.0401083 1.57549 0
M  V30 3867 C 375.206 -0.733125 1.88763 0
M  V30 3868 C 375.534 -1.75946 0.829058 0
M  V30 3869 O 374.789 -1.94949 -0.171323 0
M  V30 3870 C 375.088 -1.44902 3.26708 0
M  V30 3871 C 374.754 -0.559707 4.47413 0
M  V30 3872 C 373.416 -0.314731 4.8017 0
M  V30 3873 C 375.768 0.0549743 5.21171 0
M  V30 3874 C 373.096 0.553886 5.8408 0
M  V30 3875 C 375.448 0.911229 6.26003 0
M  V30 3876 C 374.112 1.16577 6.57241 0
M  V30 3877 H 373.382 -0.268269 0.690733 0
M  V30 3878 H 376.029 0.00679408 1.91499 0
M  V30 3879 H 374.334 -2.26197 3.1991 0
M  V30 3880 H 376.031 -1.99058 3.48105 0
M  V30 3881 H 372.621 -0.760793 4.21794 0
M  V30 3882 H 376.805 -0.121344 4.96152 0
M  V30 3883 H 372.061 0.759518 6.06664 0
M  V30 3884 H 376.235 1.3941 6.82303 0
M  V30 3885 H 373.862 1.84058 7.37582 0
M  V30 3886 N 375.437 -1.54477 -0.31217 0
M  V30 3887 C 376.4 -1.83923 -1.36766 0
M  V30 3888 C 377.4 -0.711563 -1.44199 0
M  V30 3889 O 378.59 -0.979866 -1.44029 0
M  V30 3890 C 375.722 -2.0095 -2.75376 0
M  V30 3891 H 376.915 -2.78239 -1.11906 0
M  V30 3892 H 374.468 -1.46369 -0.548257 0
M  V30 3893 H 375.203 -1.08883 -3.05475 0
M  V30 3894 H 374.988 -2.83018 -2.71373 0
M  V30 3895 H 376.478 -2.2514 -3.51713 0
M  V30 3896 N 376.915 0.57481 -1.46744 0
M  V30 3897 C 377.878 1.66533 -1.57478 0
M  V30 3898 C 378.878 1.54338 -0.451263 0
M  V30 3899 O 380.068 1.58814 -0.715813 0
M  V30 3900 C 377.2 3.05999 -1.50259 0
M  V30 3901 H 378.393 1.58372 -2.54673 0
M  V30 3902 H 375.946 0.793301 -1.34672 0
M  V30 3903 H 376.681 3.19709 -0.543725 0
M  V30 3904 H 376.466 3.16259 -2.31781 0
M  V30 3905 H 377.956 3.8537 -1.60872 0
M  V30 3906 N 378.394 1.34581 0.820102 0
M  V30 3907 C 379.327 1.20735 1.93644 0
M  V30 3908 C 380.305 0.0983343 1.62302 0
M  V30 3909 O 381.489 0.263997 1.86642 0
M  V30 3910 C 378.616 0.856037 3.27704 0
M  V30 3911 C 377.662 1.97521 3.78005 0
M  V30 3912 S 378.495 3.58906 3.97425 0
M  V30 3913 C 379.651 3.25822 5.34407 0
M  V30 3914 H 379.884 2.15231 2.05093 0
M  V30 3915 H 377.417 1.1964 0.97599 0
M  V30 3916 H 379.375 0.660133 4.05157 0
M  V30 3917 H 378.036 -0.0706253 3.14021 0
M  V30 3918 H 377.229 1.68321 4.75062 0
M  V30 3919 H 376.831 2.12875 3.07507 0
M  V30 3920 H 379.123 2.77812 6.17922 0
M  V30 3921 H 380.066 4.22029 5.68592 0
M  V30 3922 H 380.474 2.61932 5.00052 0
M  V30 3923 N 379.872 -1.04064 1.18357 0
M  V30 3924 C 381.288 -1.2947 0.933258 0
M  V30 3925 C 381.488 -1.97466 -0.401169 0
M  V30 3926 O 380.544 -2.25528 -1.13549 0
M  V30 3927 C 381.857 -2.15337 2.09882 0
M  V30 3928 C 383.405 -2.28683 2.13712 0
M  V30 3929 C 383.88 -3.17917 3.29686 0
M  V30 3930 N 385.371 -3.25504 3.29547 0
M  V30 3931 C 386.106 -3.94706 4.15926 0
M  V30 3932 N 385.602 -4.66239 5.12439 0
M  V30 3933 N 387.395 -3.90986 4.0384 0
M  V30 3934 H 379.546 -0.583359 2.04232 0
M  V30 3935 H 381.809 -0.319921 0.892387 0
M  V30 3936 H 381.515 -1.72682 3.06389 0
M  V30 3937 H 381.389 -3.16015 2.05947 0
M  V30 3938 H 383.776 -2.70575 1.17784 0
M  V30 3939 H 383.857 -1.27596 2.21705 0
M  V30 3940 H 383.501 -2.76736 4.25887 0
M  V30 3941 H 383.431 -4.19036 3.1893 0
M  V30 3942 H 385.922 -2.74547 2.59677 0
M  V30 3943 H 386.235 -5.16638 5.74722 0
M  V30 3944 H 384.58 -4.65143 5.16398 0
M  V30 3945 H 387.771 -3.34234 3.27727 0
M  V30 3946 H 387.944 -4.44646 4.71375 0
M  V30 3947 N 381.35 -0.985608 -1.22978 0
M  V30 3948 C 382.26 -0.538548 -2.28335 0
M  V30 3949 C 383.276 0.409163 -1.69121 0
M  V30 3950 O 384.452 0.277797 -1.99475 0
M  V30 3951 C 381.517 0.146867 -3.46389 0
M  V30 3952 C 380.578 -0.842896 -4.20944 0
M  V30 3953 C 379.811 -0.190095 -5.33361 0
M  V30 3954 O 380.034 1.01767 -5.61248 0
M  V30 3955 O 378.968 -0.891289 -5.95264 0
M  V30 3956 H 382.794 -1.41487 -2.68729 0
M  V30 3957 H 380.379 -0.753495 -1.29007 0
M  V30 3958 H 382.261 0.531125 -4.1804 0
M  V30 3959 H 380.936 0.997871 -3.07935 0
M  V30 3960 H 379.843 -1.27795 -3.51595 0
M  V30 3961 H 381.176 -1.66287 -4.6326 0
M  V30 3962 N 382.828 1.3818 -0.7579 0
M  V30 3963 C 383.758 2.33027 -0.148597 0
M  V30 3964 C 384.739 1.55085 0.69875 0
M  V30 3965 O 385.924 1.83384 0.639053 0
M  V30 3966 C 383.054 3.3928 0.742034 0
M  V30 3967 C 382.008 4.28 -0.00291946 0
M  V30 3968 C 381.334 5.25146 1.00625 0
M  V30 3969 C 382.634 5.08938 -1.17385 0
M  V30 3970 H 384.328 2.84231 -0.940909 0
M  V30 3971 H 381.874 1.36659 -0.453908 0
M  V30 3972 H 383.827 4.046 1.17799 0
M  V30 3973 H 382.551 2.86569 1.56671 0
M  V30 3974 H 381.21 3.64192 -0.419504 0
M  V30 3975 H 380.858 4.68721 1.8251 0
M  V30 3976 H 380.558 5.85361 0.512428 0
M  V30 3977 H 382.082 5.93342 1.44143 0
M  V30 3978 H 383.496 5.67474 -0.815224 0
M  V30 3979 H 381.893 5.7841 -1.59882 0
M  V30 3980 H 382.963 4.42424 -1.98468 0
M  V30 3981 N 384.306 0.507319 1.49211 0
M  V30 3982 C 385.546 -0.0332372 2.04373 0
M  V30 3983 C 385.91 -1.33694 1.37804 0
M  V30 3984 O 387.111 -1.96213 1.83722 0
M  V30 3985 C 385.382 -0.17599 3.56966 0
M  V30 3986 S 386.941 -0.669882 4.33657 0
M  V30 3987 H 383.759 0.00123603 0.710999 0
M  V30 3988 H 386.361 0.682725 1.83191 0
M  V30 3989 H 385.065 0.778053 4.02957 0
M  V30 3990 H 384.596 -0.917005 3.82563 0
M  V30 3991 H 386.611 -1.93806 4.56786 0
M  V30 3992 N 385.784 -1.5574 0.241426 0
M  V30 3993 C 387.061 -1.90704 -0.434881 0
M  V30 3994 C 387.441 -1.16145 -1.76277 0
M  V30 3995 O 386.789 -0.277152 -2.26813 0
M  V30 3996 C 386.999 -3.43657 -0.608343 0
M  V30 3997 C 388.347 -4.14806 -0.906725 0
M  V30 3998 O 389.371 -3.49366 -0.694408 0
M  V30 3999 O 388.23 -5.30548 -1.31075 0
M  V30 4000 H 385.324 -0.793592 -0.23268 0
M  V30 4001 H 387.87 -1.67288 0.285086 0
M  V30 4002 H 386.642 -3.89927 0.327505 0
M  V30 4003 H 386.265 -3.72918 -1.37906 0
M  V30 4004 N 387.262 0.0317525 -1.57568 0
M  V30 4005 C 388.172 1.05021 -2.0978 0
M  V30 4006 C 389.188 1.39809 -1.03583 0
M  V30 4007 O 390.364 1.49182 -1.35302 0
M  V30 4008 C 387.429 2.33301 -2.56459 0
M  V30 4009 C 386.49 2.0512 -3.77127 0
M  V30 4010 C 385.723 3.27283 -4.2157 0
M  V30 4011 O 385.946 4.37861 -3.65559 0
M  V30 4012 O 384.88 3.13141 -5.14029 0
M  V30 4013 H 388.706 0.636505 -2.96955 0
M  V30 4014 H 386.291 0.248559 -1.47318 0
M  V30 4015 H 388.173 3.08722 -2.86825 0
M  V30 4016 H 386.848 2.73973 -1.72397 0
M  V30 4017 H 385.755 1.27276 -3.51784 0
M  V30 4018 H 387.088 1.69305 -4.62165 0
M  V30 4019 N 388.74 1.54641 0.303973 0
M  V30 4020 C 389.987 1.7378 1.03955 0
M  V30 4021 C 390.315 0.521986 1.87365 0
M  V30 4022 O 389.57 -0.496099 1.89308 0
M  V30 4023 C 389.869 2.97753 1.97681 0
M  V30 4024 C 389.535 4.31671 1.30271 0
M  V30 4025 C 388.197 4.68075 1.11619 0
M  V30 4026 C 390.549 5.147 0.82055 0
M  V30 4027 C 387.877 5.8509 0.434304 0
M  V30 4028 C 390.229 6.32416 0.152395 0
M  V30 4029 C 388.893 6.67484 -0.0461067 0
M  V30 4030 H 388.163 0.635908 0.380398 0
M  V30 4031 H 390.81 1.88896 0.314718 0
M  V30 4032 H 389.115 2.77406 2.76682 0
M  V30 4033 H 390.812 3.09756 2.54661 0
M  V30 4034 H 387.402 4.03041 1.45795 0
M  V30 4035 H 391.586 4.87077 0.952374 0
M  V30 4036 H 386.842 6.10806 0.269495 0
M  V30 4037 H 391.016 6.96023 -0.229126 0
M  V30 4038 H 388.643 7.58011 -0.576494 0
M  V30 4039 N 390.218 -0.567019 1.47046 0
M  V30 4040 C 391.495 -1.3276 1.43646 0
M  V30 4041 C 391.875 -2.1071 0.128186 0
M  V30 4042 O 391.223 -2.10441 -0.890326 0
M  V30 4043 C 391.433 -2.2404 2.67595 0
M  V30 4044 C 392.781 -2.85372 3.14401 0
M  V30 4045 O 393.805 -2.34346 2.68254 0
M  V30 4046 O 392.664 -3.78091 3.946 0
M  V30 4047 H 389.758 -0.597293 0.571988 0
M  V30 4048 H 392.304 -0.586735 1.59234 0
M  V30 4049 H 391.076 -1.65975 3.54356 0
M  V30 4050 H 390.699 -3.05439 2.54544 0
M  V30 4051 N 391.696 -1.35014 -0.812953 0
M  V30 4052 C 392.659 -1.27292 -1.90602 0
M  V30 4053 C 393.659 -0.185817 -1.59723 0
M  V30 4054 O 394.849 -0.439102 -1.68575 0
M  V30 4055 C 391.981 -0.967676 -3.26877 0
M  V30 4056 H 393.174 -2.24479 -1.9887 0
M  V30 4057 H 390.727 -1.19446 -1.00808 0
M  V30 4058 H 391.462 0.0005954 -3.243 0
M  V30 4059 H 391.247 -1.75412 -3.50675 0
M  V30 4060 H 392.737 -0.939085 -4.06904 0
M  V30 4061 N 393.175 1.03435 -1.18907 0
M  V30 4062 C 394.105 2.13503 -0.945448 0
M  V30 4063 C 395.086 1.69682 0.119189 0
M  V30 4064 O 396.271 1.94169 -0.034707 0
M  V30 4065 C 393.401 3.44004 -0.477316 0
M  V30 4066 C 392.355 4.0148 -1.48316 0
M  V30 4067 C 391.681 5.27537 -0.872311 0
M  V30 4068 C 392.981 4.36921 -2.86177 0
M  V30 4069 H 394.675 2.34141 -1.86597 0
M  V30 4070 H 392.221 1.12523 -0.898584 0
M  V30 4071 H 394.174 4.20372 -0.294204 0
M  V30 4072 H 392.898 3.23072 0.478786 0
M  V30 4073 H 391.557 3.27201 -1.65332 0
M  V30 4074 H 391.205 5.02917 0.0911752 0
M  V30 4075 H 390.905 5.66954 -1.54393 0
M  V30 4076 H 392.429 6.06576 -0.699871 0
M  V30 4077 H 393.843 5.04248 -2.72776 0
M  V30 4078 H 392.24 4.87405 -3.50081 0
M  V30 4079 H 393.31 3.46466 -3.39248 0
M  V30 4080 N 394.653 0.992116 1.22453 0
M  V30 4081 C 395.583 0.561677 2.26644 0
M  V30 4082 C 396.564 -0.411055 1.65059 0
M  V30 4083 O 397.749 -0.301861 1.9184 0
M  V30 4084 C 394.879 -0.125247 3.47074 0
M  V30 4085 C 393.833 0.765948 4.21091 0
M  V30 4086 C 393.159 -0.0538484 5.34673 0
M  V30 4087 C 394.459 2.06242 4.79856 0
M  V30 4088 H 396.153 1.43259 2.62902 0
M  V30 4089 H 393.699 0.690283 1.26377 0
M  V30 4090 H 395.652 -0.437764 4.1912 0
M  V30 4091 H 394.376 -1.03069 3.0991 0
M  V30 4092 H 393.035 1.0621 3.50878 0
M  V30 4093 H 392.683 -0.960188 4.9375 0
M  V30 4094 H 392.383 0.539415 5.85119 0
M  V30 4095 H 393.907 -0.360477 6.09535 0
M  V30 4096 H 395.321 1.8139 5.43848 0
M  V30 4097 H 393.718 2.60444 5.40638 0
M  V30 4098 H 394.788 2.74167 3.99951 0
M  V30 4099 N 396.131 -1.37776 0.765217 0
M  V30 4100 C 397.38 -1.99092 0.323307 0
M  V30 4101 C 397.693 -1.61434 -1.10446 0
M  V30 4102 O 398.899 -2.15805 -1.64743 0
M  V30 4103 C 397.355 -3.56019 0.527098 0
M  V30 4104 C 396.963 -4.0262 1.96471 0
M  V30 4105 C 398.707 -4.2424 0.148483 0
M  V30 4106 C 396.614 -5.52233 2.11644 0
M  V30 4107 H 395.544 -0.744846 0.117137 0
M  V30 4108 H 398.195 -1.57391 0.943417 0
M  V30 4109 H 396.577 -3.95667 -0.162372 0
M  V30 4110 H 397.751 -3.74234 2.68859 0
M  V30 4111 H 396.066 -3.47161 2.29931 0
M  V30 4112 H 398.663 -5.34159 0.240456 0
M  V30 4113 H 399.006 -4.06446 -0.900422 0
M  V30 4114 H 399.539 -3.89872 0.79025 0
M  V30 4115 H 396.278 -5.74945 3.1483 0
M  V30 4116 H 395.798 -5.82324 1.4373 0
M  V30 4117 H 397.477 -6.18106 1.91193 0
M  V30 4118 N 397.609 -0.515225 -1.4894 0
M  V30 4119 C 398.856 0.024215 -2.02486 0
M  V30 4120 C 399.184 1.35671 -1.39368 0
M  V30 4121 O 398.439 1.88566 -0.523574 0
M  V30 4122 C 398.738 0.210595 -3.56779 0
M  V30 4123 C 398.404 -1.04569 -4.38607 0
M  V30 4124 C 397.066 -1.39002 -4.60686 0
M  V30 4125 C 399.418 -1.88008 -4.86109 0
M  V30 4126 C 396.746 -2.568 -5.27514 0
M  V30 4127 C 399.098 -3.04972 -5.54234 0
M  V30 4128 C 397.762 -3.39768 -5.74555 0
M  V30 4129 H 397.032 0.00886088 -0.740947 0
M  V30 4130 H 399.679 -0.678263 -1.79086 0
M  V30 4131 H 397.984 0.99572 -3.78936 0
M  V30 4132 H 399.681 0.642659 -3.95817 0
M  V30 4133 H 396.271 -0.767497 -4.21672 0
M  V30 4134 H 400.455 -1.62719 -4.68867 0
M  V30 4135 H 395.711 -2.8398 -5.41447 0
M  V30 4136 H 399.885 -3.69943 -5.90013 0
M  V30 4137 H 397.512 -4.31148 -6.26112 0
M  V30 4138 N 399.087 1.5561 -0.249682 0
M  V30 4139 C 400.364 1.90932 0.424761 0
M  V30 4140 C 400.744 1.17078 1.75658 0
M  V30 4141 O 400.092 0.289176 2.26663 0
M  V30 4142 C 400.302 3.43975 0.590109 0
M  V30 4143 C 401.65 4.15281 0.884714 0
M  V30 4144 O 402.674 3.49729 0.67587 0
M  V30 4145 O 401.533 5.31236 1.28259 0
M  V30 4146 H 398.627 0.794815 0.228468 0
M  V30 4147 H 401.173 1.67135 -0.293954 0
M  V30 4148 H 399.945 3.89748 -0.34818 0
M  V30 4149 H 399.568 3.73644 1.35926 0
M  V30 4150 N 400.565 -0.0233959 1.57583 0
M  V30 4151 C 401.475 -1.03907 2.10334 0
M  V30 4152 C 402.491 -1.39257 1.04323 0
M  V30 4153 O 403.667 -1.48462 1.36091 0
M  V30 4154 C 400.732 -2.31938 2.57693 0
M  V30 4155 C 399.793 -2.03117 3.78209 0
M  V30 4156 C 399.026 -3.25043 4.233 0
M  V30 4157 O 399.249 -4.35916 3.67876 0
M  V30 4158 O 398.183 -3.10411 5.15683 0
M  V30 4159 H 402.009 -0.620748 2.97288 0
M  V30 4160 H 399.594 -0.240743 1.47448 0
M  V30 4161 H 401.476 -3.07196 2.88458 0
M  V30 4162 H 400.151 -2.73055 1.73847 0
M  V30 4163 H 399.058 -1.25408 3.52454 0
M  V30 4164 H 400.391 -1.66852 4.63056 0
M  V30 4165 N 402.043 -1.548 -0.295768 0
M  V30 4166 C 403.289 -1.74588 -1.03184 0
M  V30 4167 C 403.622 -0.532962 -1.86744 0
M  V30 4168 O 402.897 0.469872 -1.88739 0
M  V30 4169 C 403.18 -3.03791 -1.93347 0
M  V30 4170 C 403.033 -4.35392 -1.12933 0
M  V30 4171 C 404.352 -3.28892 -2.92435 0
M  V30 4172 H 401.471 -0.635221 -0.373715 0
M  V30 4173 H 404.113 -1.87519 -0.30606 0
M  V30 4174 H 402.263 -2.92898 -2.55232 0
M  V30 4175 H 403.935 -4.58211 -0.532943 0
M  V30 4176 H 402.178 -4.31642 -0.432168 0
M  V30 4177 H 402.849 -5.22074 -1.79284 0
M  V30 4178 H 405.325 -3.39429 -2.4068 0
M  V30 4179 H 404.201 -4.20603 -3.52682 0
M  V30 4180 H 404.462 -2.47437 -3.6637 0
M  V30 4181 N 403.521 0.559213 -1.47345 0
M  V30 4182 C 404.453 1.68161 -1.55738 0
M  V30 4183 C 405.466 1.56636 -0.443744 0
M  V30 4184 O 406.655 1.6363 -0.713258 0
M  V30 4185 C 403.755 3.06611 -1.4437 0
M  V30 4186 C 402.928 3.4391 -2.70268 0
M  V30 4187 C 401.987 4.61515 -2.52765 0
M  V30 4188 O 401.013 4.66197 -3.26572 0
M  V30 4189 N 402.215 5.57883 -1.6046 0
M  V30 4190 H 404.98 1.61408 -2.52522 0
M  V30 4191 H 402.541 0.7458 -1.43699 0
M  V30 4192 H 404.533 3.83117 -1.30398 0
M  V30 4193 H 403.103 3.07602 -0.556766 0
M  V30 4194 H 402.323 2.56873 -2.99015 0
M  V30 4195 H 403.611 3.65605 -3.53851 0
M  V30 4196 H 403.009 5.56855 -0.996422 0
M  V30 4197 H 401.566 6.33723 -1.52441 0
M  V30 4198 N 404.999 1.35443 0.805782 0
M  V30 4199 C 406.227 1.31878 1.59423 0
M  V30 4200 C 406.642 -0.103562 1.88516 0
M  V30 4201 O 405.999 -1.05575 1.48863 0
M  V30 4202 C 406.05 2.12426 2.92502 0
M  V30 4203 O 405.771 3.49115 2.6467 0
M  V30 4204 C 407.272 2.16455 3.86862 0
M  V30 4205 H 404.492 0.453002 0.495005 0
M  V30 4206 H 407.036 1.78309 1.00131 0
M  V30 4207 H 405.191 1.69593 3.48306 0
M  V30 4208 H 405.605 3.90957 3.49647 0
M  V30 4209 H 407.079 2.77204 4.77349 0
M  V30 4210 H 407.556 1.16352 4.23508 0
M  V30 4211 H 408.162 2.59453 3.36993 0
M  V30 4212 N 406.477 -1.02803 1.19454 0
M  V30 4213 C 407.725 -1.75869 0.995722 0
M  V30 4214 C 408.046 -1.89138 -0.474543 0
M  V30 4215 O 407.316 -1.42558 -1.34366 0
M  V30 4216 H 405.896 -0.651511 0.365435 0
M  V30 4217 H 408.558 -1.24004 1.50363 0
M  V30 4218 H 407.654 -2.76661 1.44447 0
M  V30 4219 N 407.956 -0.998596 -1.21925 0
M  V30 4220 C 409.196 -0.685948 -1.92546 0
M  V30 4221 C 409.56 0.768441 -1.75952 0
M  V30 4222 O 410.761 1.19277 -2.40887 0
M  V30 4223 C 409.032 -1.08767 -3.40448 0
M  V30 4224 S 410.591 -0.894251 -4.29591 0
M  V30 4225 H 407.409 -0.250622 -0.665364 0
M  V30 4226 H 410.011 -1.28207 -1.47591 0
M  V30 4227 H 408.715 -2.14242 -3.50041 0
M  V30 4228 H 408.246 -0.48357 -3.90417 0
M  V30 4229 H 410.261 0.212149 -4.95746 0
M  V30 4230 N 409.434 1.37368 -0.772513 0
M  V30 4231 C 410.682 1.99279 -0.336516 0
M  V30 4232 C 411.003 1.6163 1.09091 0
M  V30 4233 O 410.273 0.882109 1.74916 0
M  V30 4234 H 408.853 0.737063 -0.121435 0
M  V30 4235 H 411.515 1.67836 -0.990809 0
M  V30 4236 H 410.611 3.09332 -0.414763 0
M  V30 4237 N 410.912 0.523116 1.48665 0
M  V30 4238 C 411.842 -0.23231 2.32342 0
M  V30 4239 C 412.823 -0.941637 1.41659 0
M  V30 4240 O 414.008 -0.928751 1.70552 0
M  V30 4241 C 411.138 -1.28387 3.22698 0
M  V30 4242 C 410.092 -0.693098 4.22351 0
M  V30 4243 C 409.418 -1.8468 5.01794 0
M  V30 4244 C 410.718 0.33063 5.21252 0
M  V30 4245 H 412.412 0.466192 2.95748 0
M  V30 4246 H 409.958 0.225643 1.42221 0
M  V30 4247 H 411.911 -1.82024 3.80059 0
M  V30 4248 H 410.635 -2.01186 2.57278 0
M  V30 4249 H 409.294 -0.178299 3.66166 0
M  V30 4250 H 408.942 -2.56301 4.32804 0
M  V30 4251 H 408.642 -1.45747 5.69238 0
M  V30 4252 H 410.166 -2.38709 5.62006 0
M  V30 4253 H 411.58 -0.118407 5.73178 0
M  V30 4254 H 409.977 0.636974 5.9671 0
M  V30 4255 H 411.047 1.23883 4.68808 0
M  V30 4256 N 412.39 -1.55475 0.257931 0
M  V30 4257 C 413.618 -2.03609 -0.367559 0
M  V30 4258 C 414.033 -1.13687 -1.50734 0
M  V30 4259 O 413.39 -0.153479 -1.81853 0
M  V30 4260 C 413.441 -3.51001 -0.864908 0
M  V30 4261 O 413.162 -4.37499 0.229465 0
M  V30 4262 C 414.663 -4.14946 -1.55997 0
M  V30 4263 H 411.883 -0.665459 -0.0860521 0
M  V30 4264 H 414.427 -2.00843 0.385014 0
M  V30 4265 H 412.582 -3.54266 -1.56762 0
M  V30 4266 H 412.996 -5.24286 -0.14998 0
M  V30 4267 H 414.47 -5.19735 -1.85956 0
M  V30 4268 H 414.947 -3.6209 -2.4857 0
M  V30 4269 H 415.553 -4.15635 -0.901543 0
M  V30 4270 N 413.868 0.0150385 -1.57593 0
M  V30 4271 C 415.116 0.701613 -1.8953 0
M  V30 4272 C 415.437 1.75139 -0.857396 0
M  V30 4273 O 414.707 1.95607 0.107194 0
M  V30 4274 H 413.287 0.26213 -0.699498 0
M  V30 4275 H 415.949 -0.0223304 -1.94887 0
M  V30 4276 H 415.045 1.18236 -2.88837 0
M  V30 4277 N 415.346 1.54954 0.287554 0
M  V30 4278 C 416.574 1.78881 1.03967 0
M  V30 4279 C 416.989 0.554894 1.80462 0
M  V30 4280 O 416.346 -0.475676 1.76192 0
M  V30 4281 C 416.397 3.00488 2.0097 0
M  V30 4282 O 416.118 4.19113 1.27577 0
M  V30 4283 C 417.619 3.36907 2.88112 0
M  V30 4284 H 414.839 0.596259 0.307761 0
M  V30 4285 H 417.383 2.01937 0.322749 0
M  V30 4286 H 415.538 2.79601 2.68145 0
M  V30 4287 H 415.952 4.87765 1.92835 0
M  V30 4288 H 417.426 4.25205 3.52001 0
M  V30 4289 H 417.903 2.55659 3.57121 0
M  V30 4290 H 418.509 3.60001 2.26449 0
M  V30 4291 N 416.824 -0.551391 1.4764 0
M  V30 4292 C 417.787 -1.64007 1.60107 0
M  V30 4293 C 418.787 -1.53601 0.47576 0
M  V30 4294 O 419.977 -1.57655 0.740988 0
M  V30 4295 C 417.109 -3.03569 1.55108 0
M  V30 4296 H 418.302 -1.543 2.57161 0
M  V30 4297 H 415.855 -0.771776 1.35917 0
M  V30 4298 H 416.59 -3.18804 0.594519 0
M  V30 4299 H 416.375 -3.12532 2.36783 0
M  V30 4300 H 417.865 -3.82762 1.66982 0
M  V30 4301 N 418.302 -1.35869 -0.798587 0
M  V30 4302 C 419.548 -1.30788 -1.55775 0
M  V30 4303 C 419.903 0.114558 -1.92059 0
M  V30 4304 O 419.196 1.06691 -1.59147 0
M  V30 4305 C 419.39 -2.1556 -2.85077 0
M  V30 4306 C 419.219 -3.65904 -2.61428 0
M  V30 4307 C 417.989 -4.35112 -2.56915 0
M  V30 4308 C 420.187 -4.59375 -2.31255 0
M  V30 4309 N 418.169 -5.71155 -2.25068 0
M  V30 4310 C 419.54 -5.83598 -2.09316 0
M  V30 4311 C 421.595 -4.48035 -2.17185 0
M  V30 4312 C 420.298 -6.97755 -1.74731 0
M  V30 4313 C 422.324 -5.62049 -1.83998 0
M  V30 4314 C 421.686 -6.85305 -1.629 0
M  V30 4315 H 417.785 -0.533855 -0.571422 0
M  V30 4316 H 420.369 -1.7083 -0.934079 0
M  V30 4317 H 418.54 -1.77776 -3.45326 0
M  V30 4318 H 420.272 -2.01938 -3.50718 0
M  V30 4319 H 417.027 -3.87812 -2.71843 0
M  V30 4320 H 417.451 -6.42978 -2.11916 0
M  V30 4321 H 422.093 -3.53338 -2.3219 0
M  V30 4322 H 419.811 -7.92411 -1.58464 0
M  V30 4323 H 423.397 -5.55232 -1.73808 0
M  V30 4324 H 422.277 -7.72034 -1.37596 0
M  V30 4325 N 419.78 1.02168 -1.19998 0
M  V30 4326 C 420.743 2.08765 -0.94604 0
M  V30 4327 C 421.743 1.60618 0.0763846 0
M  V30 4328 O 422.933 1.73472 -0.159135 0
M  V30 4329 C 420.065 3.38262 -0.423255 0
M  V30 4330 H 421.258 2.32726 -1.89153 0
M  V30 4331 H 418.811 1.1889 -1.01464 0
M  V30 4332 H 419.546 3.19974 0.527938 0
M  V30 4333 H 419.331 3.74532 -1.16053 0
M  V30 4334 H 420.821 4.16759 -0.264911 0
M  V30 4335 N 421.258 1.00505 1.21394 0
M  V30 4336 C 422.488 0.705584 1.94178 0
M  V30 4337 C 422.896 -0.735846 1.74304 0
M  V30 4338 O 422.239 -1.50954 1.04683 0
M  V30 4339 C 422.301 0.94689 3.46806 0
M  V30 4340 C 421.965 2.37517 3.90429 0
M  V30 4341 C 422.962 3.35539 3.97127 0
M  V30 4342 C 420.647 2.71284 4.22742 0
M  V30 4343 C 422.641 4.65395 4.3553 0
M  V30 4344 C 420.328 4.01356 4.60822 0
M  V30 4345 C 421.326 4.98223 4.67186 0
M  V30 4346 O 421.014 6.25969 5.04399 0
M  V30 4347 H 420.746 0.259216 0.624326 0
M  V30 4348 H 423.3 1.34592 1.55159 0
M  V30 4349 H 421.53 0.249386 3.85895 0
M  V30 4350 H 423.219 0.640804 4.0081 0
M  V30 4351 H 423.985 3.10786 3.7234 0
M  V30 4352 H 419.864 1.96581 4.16985 0
M  V30 4353 H 423.408 5.41002 4.40412 0
M  V30 4354 H 419.305 4.25893 4.85063 0
M  V30 4355 H 420.073 6.30085 5.22431 0
M  V30 4356 N 422.737 -1.36956 0.779787 0
M  V30 4357 C 423.669 -2.28833 0.129639 0
M  V30 4358 C 424.682 -1.4902 -0.655511 0
M  V30 4359 O 425.871 -1.71578 -0.492279 0
M  V30 4360 C 422.971 -3.2833 -0.839792 0
M  V30 4361 C 422.144 -4.3727 -0.10675 0
M  V30 4362 C 421.203 -5.16789 -0.990717 0
M  V30 4363 O 420.229 -5.67406 -0.451516 0
M  V30 4364 N 421.431 -5.32294 -2.3161 0
M  V30 4365 H 424.196 -2.85268 0.918803 0
M  V30 4366 H 421.757 -1.49019 0.632841 0
M  V30 4367 H 423.749 -3.78413 -1.43477 0
M  V30 4368 H 422.319 -2.72605 -1.52988 0
M  V30 4369 H 421.539 -3.88478 0.669216 0
M  V30 4370 H 422.827 -5.07229 0.399464 0
M  V30 4371 H 422.225 -4.92768 -2.77843 0
M  V30 4372 H 420.782 -5.85656 -2.86095 0
M  V30 4373 N 424.215 -0.530993 -1.48385 0
M  V30 4374 C 425.147 0.268353 -2.27624 0
M  V30 4375 C 426.16 0.903525 -1.35426 0
M  V30 4376 O 427.349 0.781796 -1.60469 0
M  V30 4377 C 424.449 1.39535 -3.08842 0
M  V30 4378 C 423.622 0.861913 -4.28824 0
M  V30 4379 C 422.681 1.87016 -4.91845 0
M  V30 4380 O 421.707 1.4267 -5.5103 0
M  V30 4381 N 422.909 3.20238 -4.84178 0
M  V30 4382 H 425.674 -0.41123 -2.96865 0
M  V30 4383 H 423.235 -0.365387 -1.57723 0
M  V30 4384 H 425.227 2.06803 -3.47871 0
M  V30 4385 H 423.797 1.97859 -2.42014 0
M  V30 4386 H 423.017 0.0132126 -3.94198 0
M  V30 4387 H 424.305 0.484415 -5.06489 0
M  V30 4388 H 423.703 3.58932 -4.37246 0
M  V30 4389 H 422.26 3.83136 -5.27305 0
M  V30 4390 N 425.693 1.55336 -0.266172 0
M  V30 4391 C 426.623 2.25146 0.618981 0
M  V30 4392 C 427.604 1.23845 1.16604 0
M  V30 4393 O 428.789 1.52544 1.20183 0
M  V30 4394 C 425.919 2.96572 1.80728 0
M  V30 4395 C 424.873 4.04726 1.39215 0
M  V30 4396 C 424.199 4.63678 2.66283 0
M  V30 4397 C 425.499 5.19407 0.548942 0
M  V30 4398 H 427.193 2.99377 0.0368116 0
M  V30 4399 H 424.739 1.43991 0.0162651 0
M  V30 4400 H 426.692 3.44116 2.43232 0
M  V30 4401 H 425.416 2.19861 2.41514 0
M  V30 4402 H 424.075 3.57979 0.790351 0
M  V30 4403 H 423.723 3.83646 3.25308 0
M  V30 4404 H 423.423 5.367 2.39222 0
M  V30 4405 H 424.947 5.13967 3.29651 0
M  V30 4406 H 426.361 5.63059 1.07876 0
M  V30 4407 H 424.758 5.98936 0.373593 0
M  V30 4408 H 425.828 4.8295 -0.434394 0
M  V30 4409 N 427.171 -0.0066808 1.57599 0
M  V30 4410 C 428.448 -0.729586 1.81484 0
M  V30 4411 C 428.828 -1.92359 0.869558 0
M  V30 4412 O 428.176 -2.28348 -0.0832533 0
M  V30 4413 C 428.386 -1.1416 3.29801 0
M  V30 4414 C 429.734 -1.54823 3.95367 0
M  V30 4415 O 430.758 -1.23558 3.34084 0
M  V30 4416 O 429.617 -2.12937 5.03309 0
M  V30 4417 H 426.711 -0.354674 0.747085 0
M  V30 4418 H 429.257 0.0182609 1.6969 0
M  V30 4419 H 428.029 -0.290231 3.90222 0
M  V30 4420 H 427.652 -1.94876 3.46568 0
M  V30 4421 N 428.649 -1.55105 -0.279332 0
M  V30 4422 C 429.895 -1.75672 -1.01327 0
M  V30 4423 C 430.228 -0.552739 -1.86168 0
M  V30 4424 O 429.503 0.449827 -1.89227 0
M  V30 4425 C 429.786 -3.05825 -1.90114 0
M  V30 4426 C 429.639 -4.36565 -1.08309 0
M  V30 4427 C 430.958 -3.31975 -2.8893 0
M  V30 4428 H 428.077 -0.639149 -0.366957 0
M  V30 4429 H 430.719 -1.87833 -0.286154 0
M  V30 4430 H 428.869 -2.95588 -2.52111 0
M  V30 4431 H 430.541 -4.58751 -0.484314 0
M  V30 4432 H 428.784 -4.32076 -0.386362 0
M  V30 4433 H 429.455 -5.23946 -1.73737 0
M  V30 4434 H 431.931 -3.41963 -2.37067 0
M  V30 4435 H 430.807 -4.2432 -3.48201 0
M  V30 4436 H 431.068 -2.51309 -3.63725 0
M  V30 4437 N 430.127 0.543554 -1.4793 0
M  V30 4438 C 431.09 1.63156 -1.60975 0
M  V30 4439 C 432.09 1.53346 -0.483899 0
M  V30 4440 O 433.28 1.5726 -0.749339 0
M  V30 4441 C 430.412 3.02743 -1.56716 0
M  V30 4442 H 431.605 1.52934 -2.57975 0
M  V30 4443 H 429.158 0.764557 -1.36324 0
M  V30 4444 H 429.893 3.18484 -0.611418 0
M  V30 4445 H 429.678 3.11272 -2.38438 0
M  V30 4446 H 431.168 3.81871 -1.6901 0
M  V30 4447 N 431.605 1.3629 0.791371 0
M  V30 4448 C 433.016 1.27225 1.36641 0
M  V30 4449 C 433.367 -0.0887968 1.95999 0
M  V30 4450 O 432.492 -0.990207 1.92416 0
M  V30 4451 C 433.087 2.30375 2.48421 0
M  V30 4452 C 431.646 2.25004 3.01746 0
M  V30 4453 C 430.793 2.15259 1.7481 0
M  V30 4454 H 433.744 1.47198 0.593173 0
M  V30 4455 H 433.765 1.93905 3.27385 0
M  V30 4456 H 433.277 3.29422 2.05189 0
M  V30 4457 H 431.378 1.29417 3.49403 0
M  V30 4458 H 431.491 3.1761 3.58693 0
M  V30 4459 H 429.855 1.61482 1.96966 0
M  V30 4460 H 430.638 3.16191 1.33709 0
M  V30 4461 N 433.083 -1.0153 1.20538 0
M  V30 4462 C 434.36 -1.72327 0.925343 0
M  V30 4463 C 434.74 -2.03383 -0.565547 0
M  V30 4464 O 434.088 -1.69934 -1.52757 0
M  V30 4465 C 434.298 -2.9902 1.79967 0
M  V30 4466 C 435.646 -3.72258 2.04228 0
M  V30 4467 O 436.67 -3.08979 1.77231 0
M  V30 4468 O 435.529 -4.86053 2.4983 0
M  V30 4469 H 432.623 -0.751099 0.346092 0
M  V30 4470 H 435.169 -1.07366 1.31417 0
M  V30 4471 H 433.941 -2.72402 2.80915 0
M  V30 4472 H 433.564 -3.71721 1.41099 0
M  V30 4473 N 434.561 -1.01147 -1.20859 0
M  V30 4474 C 435.81 -0.693214 -1.89413 0
M  V30 4475 C 436.123 0.779969 -1.79376 0
M  V30 4476 O 437.329 1.21057 -2.43017 0
M  V30 4477 C 435.785 -1.18949 -3.39675 0
M  V30 4478 C 435.393 -2.68921 -3.58309 0
M  V30 4479 C 437.137 -0.94642 -4.13815 0
M  V30 4480 C 435.044 -3.12056 -5.0237 0
M  V30 4481 H 433.974 -0.255595 -0.709357 0
M  V30 4482 H 436.625 -1.22349 -1.36759 0
M  V30 4483 H 435.007 -0.587228 -3.91622 0
M  V30 4484 H 436.181 -3.34652 -3.16772 0
M  V30 4485 H 434.496 -2.91314 -2.97532 0
M  V30 4486 H 437.093 -1.24417 -5.20023 0
M  V30 4487 H 437.436 0.117219 -4.16135 0
M  V30 4488 H 437.969 -1.5118 -3.67953 0
M  V30 4489 H 434.708 -4.17674 -5.05202 0
M  V30 4490 H 434.228 -2.51041 -5.44737 0
M  V30 4491 H 435.907 -3.04403 -5.70918 0
M  V30 4492 N 436.039 1.36541 -0.78704 0
M  V30 4493 C 437.285 1.99599 -0.358872 0
M  V30 4494 C 437.618 1.62323 1.06606 0
M  V30 4495 O 436.893 0.876858 1.73613 0
M  V30 4496 C 437.176 3.56327 -0.519944 0
M  V30 4497 C 437.029 4.03464 -1.98839 0
M  V30 4498 C 438.348 4.4005 0.0664737 0
M  V30 4499 H 435.467 0.725107 -0.131869 0
M  V30 4500 H 438.109 1.6199 -0.992936 0
M  V30 4501 H 436.259 3.88495 0.0198321 0
M  V30 4502 H 437.931 3.81793 -2.58905 0
M  V30 4503 H 436.174 3.55092 -2.49183 0
M  V30 4504 H 436.845 5.12439 -2.05207 0
M  V30 4505 H 439.321 4.14228 -0.394267 0
M  V30 4506 H 438.197 5.48847 -0.0762682 0
M  V30 4507 H 438.458 4.26655 1.15835 0
M  V30 4508 N 437.518 0.538854 1.48102 0
M  V30 4509 C 438.481 -0.208395 2.28251 0
M  V30 4510 C 439.481 -0.859656 1.35892 0
M  V30 4511 O 440.671 -0.71834 1.58699 0
M  V30 4512 C 437.803 -1.30252 3.15035 0
M  V30 4513 H 438.996 0.495407 2.9578 0
M  V30 4514 H 436.549 0.295112 1.53489 0
M  V30 4515 H 437.284 -2.0393 2.52157 0
M  V30 4516 H 437.069 -0.840551 3.82985 0
M  V30 4517 H 438.559 -1.82787 3.75471 0
M  V30 4518 N 438.996 -1.55193 0.274407 0
M  V30 4519 C 440.243 -1.99581 -0.342579 0
M  V30 4520 C 440.571 -1.1628 -1.55914 0
M  V30 4521 O 439.826 -0.22029 -1.94456 0
M  V30 4522 C 440.125 -3.49019 -0.769458 0
M  V30 4523 C 439.791 -4.49598 0.342389 0
M  V30 4524 C 438.453 -4.76821 0.647686 0
M  V30 4525 C 440.805 -5.0964 1.09163 0
M  V30 4526 C 438.133 -5.61354 1.70581 0
M  V30 4527 C 440.485 -5.95323 2.13948 0
M  V30 4528 C 439.149 -6.20867 2.45113 0
M  V30 4529 H 438.419 -0.730319 -0.125358 0
M  V30 4530 H 441.066 -1.87529 0.387971 0
M  V30 4531 H 439.371 -3.58544 -1.57967 0
M  V30 4532 H 441.068 -3.8077 -1.25757 0
M  V30 4533 H 437.658 -4.28496 0.094318 0
M  V30 4534 H 441.842 -4.88632 0.869024 0
M  V30 4535 H 437.098 -5.79392 1.9523 0
M  V30 4536 H 441.272 -6.40881 2.72478 0
M  V30 4537 H 438.899 -6.86162 3.27239 0
M  V30 4538 N 440.474 -0.00167713 -1.576 0
M  V30 4539 C 441.722 0.681471 -1.90264 0
M  V30 4540 C 442.043 1.7422 -0.875924 0
M  V30 4541 O 441.313 1.95709 0.0864412 0
M  V30 4542 H 439.893 0.254696 -0.702239 0
M  V30 4543 H 442.555 -0.0429996 -1.94853 0
M  V30 4544 H 441.651 1.15166 -2.90075 0
M  V30 4545 N 441.952 1.55251 0.271103 0
M  V30 4546 C 442.899 1.88261 1.33516 0
M  V30 4547 C 443.869 0.734296 1.48988 0
M  V30 4548 O 445.054 0.985741 1.63364 0
M  V30 4549 C 442.194 2.16168 2.69008 0
M  V30 4550 C 441.307 3.43678 2.61743 0
M  V30 4551 C 440.442 3.61276 3.89427 0
M  V30 4552 C 439.481 4.82472 3.7668 0
M  V30 4553 N 438.618 4.96717 4.96202 0
M  V30 4554 H 443.458 2.79015 1.04665 0
M  V30 4555 H 440.995 1.38137 0.505618 0
M  V30 4556 H 442.953 2.30349 3.47844 0
M  V30 4557 H 441.583 1.28646 2.96057 0
M  V30 4558 H 440.635 3.37959 1.74607 0
M  V30 4559 H 441.947 4.3265 2.48224 0
M  V30 4560 H 441.101 3.75284 4.76704 0
M  V30 4561 H 439.84 2.70492 4.05814 0
M  V30 4562 H 438.845 4.68465 2.87786 0
M  V30 4563 H 440.07 5.74692 3.61809 0
M  V30 4564 H 438.016 4.08865 5.12997 0
M  V30 4565 H 437.933 5.79738 4.85222 0
M  V30 4566 H 439.201 5.15113 5.85046 0
M  V30 4567 N 443.43 -0.535701 1.48216 0
M  V30 4568 C 444.377 -1.64083 1.62312 0
M  V30 4569 C 445.347 -1.59448 0.465365 0
M  V30 4570 O 446.532 -1.77959 0.688135 0
M  V30 4571 C 443.672 -3.0236 1.66349 0
M  V30 4572 C 442.785 -3.17273 2.93193 0
M  V30 4573 C 441.92 -4.46075 2.88427 0
M  V30 4574 C 440.959 -4.54496 4.1 0
M  V30 4575 N 440.096 -5.7468 4.03345 0
M  V30 4576 H 444.936 -1.51374 2.5669 0
M  V30 4577 H 442.473 -0.737059 1.27302 0
M  V30 4578 H 444.431 -3.82461 1.66672 0
M  V30 4579 H 443.061 -3.13854 0.754672 0
M  V30 4580 H 442.113 -2.30462 3.02641 0
M  V30 4581 H 443.425 -3.19357 3.83162 0
M  V30 4582 H 442.579 -5.3446 2.87119 0
M  V30 4583 H 441.318 -4.46504 1.96177 0
M  V30 4584 H 440.323 -3.64519 4.11589 0
M  V30 4585 H 441.548 -4.5581 5.03402 0
M  V30 4586 H 439.494 -5.76017 3.13912 0
M  V30 4587 H 439.411 -5.78234 4.87013 0
M  V30 4588 H 440.679 -6.65367 4.06087 0
M  V30 4589 N 444.908 -1.36708 -0.784132 0
M  V30 4590 C 446.136 -1.34398 -1.57305 0
M  V30 4591 C 446.551 0.0735577 -1.88657 0
M  V30 4592 O 445.908 1.03193 -1.50524 0
M  V30 4593 C 445.959 -2.17053 -2.89085 0
M  V30 4594 O 445.68 -3.53281 -2.59083 0
M  V30 4595 C 447.181 -2.22583 -3.83369 0
M  V30 4596 H 444.401 -0.460819 -0.487736 0
M  V30 4597 H 446.945 -1.79879 -0.972819 0
M  V30 4598 H 445.1 -1.75113 -3.45564 0
M  V30 4599 H 445.514 -3.9647 -3.43383 0
M  V30 4600 H 446.988 -2.84763 -4.72878 0
M  V30 4601 H 447.465 -1.23075 -4.21603 0
M  V30 4602 H 448.071 -2.64781 -3.32823 0
M  V30 4603 N 446.386 1.0089 -1.21074 0
M  V30 4604 C 447.318 2.09737 -0.924291 0
M  V30 4605 C 448.331 1.62546 0.0909809 0
M  V30 4606 O 449.52 1.77942 -0.141021 0
M  V30 4607 C 446.62 3.36922 -0.36559 0
M  V30 4608 C 445.793 4.13216 -1.43426 0
M  V30 4609 C 444.852 5.18696 -0.885496 0
M  V30 4610 O 443.878 5.47176 -1.56801 0
M  V30 4611 N 445.08 5.79718 0.301227 0
M  V30 4612 H 447.845 2.34895 -1.8613 0
M  V30 4613 H 445.406 1.17341 -1.11546 0
M  V30 4614 H 447.398 4.04697 0.0158407 0
M  V30 4615 H 445.968 3.08952 0.476149 0
M  V30 4616 H 445.188 3.40301 -1.9897 0
M  V30 4617 H 446.476 4.60967 -2.15376 0
M  V30 4618 H 445.874 5.58926 0.872849 0
M  V30 4619 H 444.431 6.48804 0.624211 0
M  V30 4620 N 447.864 1.01787 1.20321 0
M  V30 4621 C 449.11 0.708985 1.90003 0
M  V30 4622 C 449.443 -0.759572 1.78729 0
M  V30 4623 O 448.718 -1.55198 1.17234 0
M  V30 4624 C 449.001 1.1469 3.41348 0
M  V30 4625 C 448.854 2.67586 3.61549 0
M  V30 4626 C 450.173 0.71915 4.34185 0
M  V30 4627 H 447.292 0.259034 0.689978 0
M  V30 4628 H 449.934 1.26584 1.41692 0
M  V30 4629 H 448.084 0.673128 3.82624 0
M  V30 4630 H 449.756 3.22826 3.29517 0
M  V30 4631 H 447.999 3.085 3.04976 0
M  V30 4632 H 448.67 2.93281 4.67643 0
M  V30 4633 H 451.146 1.12647 4.00562 0
M  V30 4634 H 450.022 1.05358 5.38694 0
M  V30 4635 H 450.283 -0.379111 4.40472 0
M  V30 4636 N 449.342 -1.36122 0.79427 0
M  V30 4637 C 450.582 -2.00942 0.374376 0
M  V30 4638 C 450.946 -1.61666 -1.03577 0
M  V30 4639 O 452.147 -2.19113 -1.55701 0
M  V30 4640 C 450.418 -3.53323 0.538327 0
M  V30 4641 S 451.977 -4.38311 0.20703 0
M  V30 4642 H 448.795 -0.696515 0.142785 0
M  V30 4643 H 451.397 -1.65929 1.03382 0
M  V30 4644 H 450.101 -3.79395 1.56484 0
M  V30 4645 H 449.632 -3.93162 -0.136882 0
M  V30 4646 H 451.647 -4.8623 -0.989695 0
M  V30 4647 N 450.82 -0.546701 -1.47814 0
M  V30 4648 C 452.068 -0.0187037 -2.02091 0
M  V30 4649 C 452.389 1.33168 -1.42447 0
M  V30 4650 O 451.659 1.86619 -0.595839 0
M  V30 4651 H 450.239 -0.00392531 -0.74699 0
M  V30 4652 H 452.901 -0.714327 -1.81338 0
M  V30 4653 H 451.997 0.0772219 -3.12004 0
M  V30 4654 N 452.299 1.55045 -0.282633 0
M  V30 4655 C 453.545 2.00056 0.332481 0
M  V30 4656 C 453.878 1.1708 1.54939 0
M  V30 4657 O 453.153 0.2427 1.9298 0
M  V30 4658 C 453.436 3.53086 0.70725 0
M  V30 4659 C 453.289 4.46813 -0.517521 0
M  V30 4660 C 454.608 4.12245 1.54084 0
M  V30 4661 H 451.727 0.727268 0.119373 0
M  V30 4662 H 454.369 1.85932 -0.391076 0
M  V30 4663 H 452.519 3.65253 1.32372 0
M  V30 4664 H 454.191 4.46579 -1.15607 0
M  V30 4665 H 452.434 4.18163 -1.1542 0
M  V30 4666 H 453.105 5.51595 -0.211426 0
M  V30 4667 H 455.581 4.03401 1.02013 0
M  V30 4668 H 454.457 5.19515 1.77186 0
M  V30 4669 H 454.718 3.62951 2.52427 0
M  V30 4670 N 453.777 0.010035 1.57597 0
M  V30 4671 C 454.71 -1.01234 2.04516 0
M  V30 4672 C 455.688 -1.32886 0.937024 0
M  V30 4673 O 456.872 -1.44879 1.20592 0
M  V30 4674 C 453.999 -2.33738 2.45121 0
M  V30 4675 C 453.045 -2.17679 3.66767 0
M  V30 4676 S 453.878 -1.49343 5.14254 0
M  V30 4677 C 455.034 -2.83256 5.58137 0
M  V30 4678 H 455.267 -0.612866 2.90914 0
M  V30 4679 H 452.8 -0.201124 1.53084 0
M  V30 4680 H 454.758 -3.09922 2.69182 0
M  V30 4681 H 453.419 -2.70823 1.59103 0
M  V30 4682 H 452.612 -3.1559 3.92962 0
M  V30 4683 H 452.214 -1.4964 3.42759 0
M  V30 4684 H 454.506 -3.79538 5.6121 0
M  V30 4685 H 455.449 -2.61749 6.57946 0
M  V30 4686 H 455.857 -2.87627 4.85727 0
M  V30 4687 N 455.255 -1.55392 -0.262866 0
M  V30 4688 C 456.218 -1.88181 -1.30846 0
M  V30 4689 C 457.218 -0.757079 -1.41862 0
M  V30 4690 O 458.408 -1.02519 -1.40838 0
M  V30 4691 C 455.54 -2.09609 -2.68844 0
M  V30 4692 H 456.733 -2.81659 -1.02997 0
M  V30 4693 H 454.286 -1.48039 -0.501414 0
M  V30 4694 H 455.021 -1.18547 -3.01856 0
M  V30 4695 H 454.806 -2.91508 -2.62231 0
M  V30 4696 H 456.296 -2.36215 -3.44372 0
M  V30 4697 N 456.733 0.527833 -1.48498 0
M  V30 4698 C 457.981 1.28101 -1.56316 0
M  V30 4699 C 458.302 1.9352 -0.239781 0
M  V30 4700 O 457.572 1.81433 0.738849 0
M  V30 4701 H 456.152 0.475793 -0.575873 0
M  V30 4702 H 458.814 0.614052 -1.84974 0
M  V30 4703 H 457.91 2.05916 -2.34532 0
M  V30 4704 N 458.211 1.37122 0.776871 0
M  V30 4705 C 459.627 1.1781 1.07671 0
M  V30 4706 C 459.827 0.0107454 2.01497 0
M  V30 4707 O 458.883 -0.650756 2.4397 0
M  V30 4708 C 460.196 2.49451 1.67913 0
M  V30 4709 C 461.744 2.55927 1.80195 0
M  V30 4710 C 462.219 3.87686 2.43851 0
M  V30 4711 N 463.71 3.891 2.51307 0
M  V30 4712 C 464.445 4.87797 3.014 0
M  V30 4713 N 463.941 5.96888 3.51705 0
M  V30 4714 N 465.734 4.75205 3.00227 0
M  V30 4715 H 457.885 2.11843 0.153778 0
M  V30 4716 H 460.148 0.938927 0.130844 0
M  V30 4717 H 459.854 3.35207 1.06439 0
M  V30 4718 H 459.728 2.66169 2.67271 0
M  V30 4719 H 462.115 1.70582 2.40803 0
M  V30 4720 H 462.196 2.43097 0.796069 0
M  V30 4721 H 461.84 4.73444 1.83884 0
M  V30 4722 H 461.77 3.97817 3.45035 0
M  V30 4723 H 464.261 3.10293 2.157 0
M  V30 4724 H 464.574 6.68155 3.88316 0
M  V30 4725 H 462.919 6.0054 3.49824 0
M  V30 4726 H 466.11 3.89103 2.60224 0
M  V30 4727 H 466.283 5.52279 3.38957 0
M  V30 4728 N 459.689 -1.00246 1.21608 0
M  V30 4729 C 461.105 -1.26435 0.973975 0
M  V30 4730 C 461.305 -1.98642 -0.338143 0
M  V30 4731 O 460.361 -2.29026 -1.06317 0
M  V30 4732 C 461.674 -2.08551 2.16626 0
M  V30 4733 C 463.222 -2.21769 2.20879 0
M  V30 4734 C 463.697 -3.07267 3.39633 0
M  V30 4735 N 465.188 -3.14855 3.39736 0
M  V30 4736 C 465.923 -3.81274 4.28273 0
M  V30 4737 N 465.419 -4.497 5.27012 0
M  V30 4738 N 467.212 -3.7794 4.16074 0
M  V30 4739 H 459.363 -0.518089 2.05984 0
M  V30 4740 H 461.626 -0.291368 0.902113 0
M  V30 4741 H 461.332 -1.62847 3.11727 0
M  V30 4742 H 461.206 -3.09303 2.15897 0
M  V30 4743 H 463.593 -2.66691 1.26332 0
M  V30 4744 H 463.674 -1.20478 2.25652 0
M  V30 4745 H 463.318 -2.63047 4.34475 0
M  V30 4746 H 463.248 -4.08678 3.321 0
M  V30 4747 H 465.739 -2.66147 2.6828 0
M  V30 4748 H 466.052 -4.98092 5.90867 0
M  V30 4749 H 464.397 -4.48479 5.30935 0
M  V30 4750 H 467.588 -3.23638 3.38195 0
M  V30 4751 H 467.761 -4.29424 4.85282 0
M  V30 4752 N 461.167 -1.02423 -1.1978 0
M  V30 4753 C 462.413 -0.719051 -1.89625 0
M  V30 4754 C 462.746 0.750083 -1.7913 0
M  V30 4755 O 462.021 1.54574 -1.18056 0
M  V30 4756 C 462.304 -1.16499 -3.40735 0
M  V30 4757 C 462.157 -2.695 -3.60125 0
M  V30 4758 C 463.476 -0.742166 -4.33797 0
M  V30 4759 H 460.595 -0.26269 -0.688595 0
M  V30 4760 H 463.237 -1.27333 -1.41018 0
M  V30 4761 H 461.387 -0.69341 -3.82262 0
M  V30 4762 H 463.059 -3.24569 -3.278 0
M  V30 4763 H 461.302 -3.10113 -3.03336 0
M  V30 4764 H 461.973 -2.95757 -4.66081 0
M  V30 4765 H 464.449 -1.1477 -3.99959 0
M  V30 4766 H 463.325 -1.08213 -5.38127 0
M  V30 4767 H 463.586 0.355747 -4.40666 0
M  V30 4768 N 462.645 1.35699 -0.801477 0
M  V30 4769 C 463.922 1.9324 -0.302937 0
M  V30 4770 C 464.302 1.73209 1.20672 0
M  V30 4771 O 463.65 1.09809 2.00385 0
M  V30 4772 C 463.86 3.41728 -0.708747 0
M  V30 4773 C 465.208 4.18868 -0.695328 0
M  V30 4774 O 466.232 3.5022 -0.649971 0
M  V30 4775 O 465.091 5.41342 -0.749081 0
M  V30 4776 H 462.185 0.82331 -0.0780367 0
M  V30 4777 H 464.731 1.44806 -0.884832 0
M  V30 4778 H 463.503 3.50015 -1.74944 0
M  V30 4779 H 463.126 3.97471 -0.101384 0
M  V30 4780 N 464.123 0.554532 1.47522 0
M  V30 4781 C 465.033 -0.197865 2.33764 0
M  V30 4782 C 466.049 -0.914576 1.48025 0
M  V30 4783 O 467.225 -0.884067 1.80959 0
M  V30 4784 C 464.29 -1.21628 3.24665 0
M  V30 4785 C 463.351 -0.507283 4.26292 0
M  V30 4786 C 462.584 -1.47718 5.1285 0
M  V30 4787 O 462.807 -2.7118 5.01814 0
M  V30 4788 O 461.741 -1.00313 5.93482 0
M  V30 4789 H 465.567 0.50949 2.99396 0
M  V30 4790 H 463.152 0.315176 1.46038 0
M  V30 4791 H 465.034 -1.80421 3.80823 0
M  V30 4792 H 463.709 -1.9056 2.61665 0
M  V30 4793 H 462.616 0.121778 3.73902 0
M  V30 4794 H 463.949 0.140544 4.91999 0
M  V30 4795 N 465.601 -1.54893 0.290851 0
M  V30 4796 C 466.847 -2.0023 -0.321867 0
M  V30 4797 C 467.18 -1.179 -1.54316 0
M  V30 4798 O 466.455 -0.25293 -1.92848 0
M  V30 4799 C 466.738 -3.53456 -0.688515 0
M  V30 4800 C 466.591 -4.46532 0.541209 0
M  V30 4801 C 467.91 -4.13057 -1.51895 0
M  V30 4802 H 465.029 -0.727891 -0.115515 0
M  V30 4803 H 467.671 -1.85722 0.400931 0
M  V30 4804 H 465.821 -3.6595 -1.30433 0
M  V30 4805 H 467.493 -4.4596 1.17973 0
M  V30 4806 H 465.736 -4.17545 1.17636 0
M  V30 4807 H 466.407 -5.51475 0.240675 0
M  V30 4808 H 468.883 -4.03937 -0.99872 0
M  V30 4809 H 467.759 -5.20448 -1.74429 0
M  V30 4810 H 468.02 -3.64284 -2.50498 0
M  V30 4811 N 467.08 -0.0183926 -1.57589 0
M  V30 4812 C 468.043 0.951986 -2.08494 0
M  V30 4813 C 469.043 1.26092 -0.997874 0
M  V30 4814 O 470.233 1.20304 -1.25987 0
M  V30 4815 C 467.365 2.27165 -2.54182 0
M  V30 4816 H 468.558 0.511307 -2.95509 0
M  V30 4817 H 466.111 0.229444 -1.54607 0
M  V30 4818 H 466.846 2.75884 -1.70465 0
M  V30 4819 H 466.631 2.06057 -3.33591 0
M  V30 4820 H 468.121 2.9674 -2.93828 0
M  V30 4821 N 468.558 1.5553 0.254621 0
M  V30 4822 C 469.835 1.6774 1.00611 0
M  V30 4823 C 470.215 0.555993 2.03647 0
M  V30 4824 O 469.563 -0.441583 2.24193 0
M  V30 4825 C 469.773 3.07725 1.6464 0
M  V30 4826 C 471.121 3.66074 2.15116 0
M  V30 4827 O 472.145 3.10476 1.74595 0
M  V30 4828 O 471.004 4.63526 2.89493 0
M  V30 4829 H 468.098 0.681958 0.467828 0
M  V30 4830 H 470.644 1.67863 0.24902 0
M  V30 4831 H 469.416 3.80792 0.900734 0
M  V30 4832 H 469.039 3.1158 2.46989 0
M  V30 4833 N 470.036 -0.519951 1.48776 0
M  V30 4834 C 470.984 -1.64443 1.64503 0
M  V30 4835 C 471.978 -1.61501 0.511248 0
M  V30 4836 O 473.184 -1.66238 0.690294 0
M  V30 4837 H 469.559 -0.544776 0.518385 0
M  V30 4838 H 471.53 -1.48325 2.58925 0
M  V30 4839 C 470.279 -3.02673 1.71127 0
M  V30 4840 H 469.602 -3.05635 2.57735 0
M  V30 4841 H 471.042 -3.80941 1.86172 0
M  V30 4842 C 469.501 -3.33854 0.452032 0
M  V30 4843 O 470.031 -3.99385 -0.430678 0
M  V30 4844 N 468.237 -2.88825 0.32069 0
M  V30 4845 H 467.784 -2.35674 1.03998 0
M  V30 4846 H 467.742 -3.10056 -0.520814 0
M  V30 4847 N 471.514 -1.37532 -0.769588 0
M  V30 4848 C 472.76 -1.33057 -1.53048 0
M  V30 4849 C 473.093 0.0841865 -1.94017 0
M  V30 4850 O 472.368 1.04198 -1.64235 0
M  V30 4851 C 472.651 -2.27166 -2.79406 0
M  V30 4852 C 472.504 -3.77429 -2.44677 0
M  V30 4853 C 473.823 -2.19683 -3.81349 0
M  V30 4854 H 470.942 -0.484655 -0.555228 0
M  V30 4855 H 473.584 -1.68251 -0.882702 0
M  V30 4856 H 471.734 -1.97283 -3.34682 0
M  V30 4857 H 473.406 -4.17918 -1.953 0
M  V30 4858 H 471.649 -3.95892 -1.77346 0
M  V30 4859 H 472.32 -4.38716 -3.35011 0
M  V30 4860 H 474.796 -2.46029 -3.35573 0
M  V30 4861 H 473.672 -2.87668 -4.67481 0
M  V30 4862 H 473.933 -1.19045 -4.25771 0
M  V30 4863 N 472.992 0.995999 -1.22138 0
M  V30 4864 C 474.239 1.7351 -1.04406 0
M  V30 4865 C 474.567 1.89884 0.421244 0
M  V30 4866 O 473.822 1.43683 1.32867 0
M  V30 4867 C 474.121 3.14553 -1.6968 0
M  V30 4868 C 473.787 3.18102 -3.19565 0
M  V30 4869 C 472.449 3.18778 -3.60464 0
M  V30 4870 C 474.801 3.14636 -4.15516 0
M  V30 4871 C 472.129 3.13684 -4.95801 0
M  V30 4872 C 474.481 3.11084 -5.50826 0
M  V30 4873 C 473.145 3.10074 -5.91109 0
M  V30 4874 H 472.415 0.634916 -0.38205 0
M  V30 4875 H 475.062 1.1667 -1.51857 0
M  V30 4876 H 473.367 3.74682 -1.14546 0
M  V30 4877 H 475.064 3.70477 -1.53454 0
M  V30 4878 H 471.654 3.18324 -2.86998 0
M  V30 4879 H 475.838 3.13266 -3.84939 0
M  V30 4880 H 471.094 3.11245 -5.26247 0
M  V30 4881 H 475.268 3.07357 -6.24904 0
M  V30 4882 H 472.895 3.05882 -6.95946 0
M  V30 4883 N 474.47 1.03057 1.19235 0
M  V30 4884 C 475.433 0.617418 2.20727 0
M  V30 4885 C 476.433 -0.319856 1.57587 0
M  V30 4886 O 477.623 -0.106633 1.73873 0
M  V30 4887 C 474.755 -0.096296 3.40764 0
M  V30 4888 H 475.948 1.51544 2.58794 0
M  V30 4889 H 473.501 0.821949 1.32942 0
M  V30 4890 H 474.236 -1.00859 3.08217 0
M  V30 4891 H 474.021 0.577217 3.87828 0
M  V30 4892 H 475.511 -0.372219 4.15938 0
M  V30 4893 N 475.948 -1.35272 0.808662 0
M  V30 4894 C 477.194 -1.99003 0.390581 0
M  V30 4895 C 477.527 -1.63999 -1.0401 0
M  V30 4896 O 476.802 -0.904368 -1.72196 0
M  V30 4897 C 477.085 -3.55454 0.576566 0
M  V30 4898 C 476.938 -4.00249 2.05233 0
M  V30 4899 C 478.257 -4.401 0.00354277 0
M  V30 4900 H 475.376 -0.722917 0.143388 0
M  V30 4901 H 478.018 -1.6039 1.01858 0
M  V30 4902 H 476.168 -3.88477 0.0419766 0
M  V30 4903 H 477.84 -3.77626 2.64946 0
M  V30 4904 H 476.083 -3.51082 2.54801 0
M  V30 4905 H 476.754 -5.0911 2.13333 0
M  V30 4906 H 479.23 -4.13548 0.460117 0
M  V30 4907 H 478.106 -5.48656 0.163575 0
M  V30 4908 H 478.367 -4.28444 -1.09032 0
M  V30 4909 N 477.426 -0.562348 -1.47226 0
M  V30 4910 C 478.837 -0.130325 -1.86245 0
M  V30 4911 C 479.188 1.30128 -1.46838 0
M  V30 4912 O 478.313 1.97974 -0.873805 0
M  V30 4913 C 478.908 -0.229738 -3.3802 0
M  V30 4914 C 477.467 0.14728 -3.76112 0
M  V30 4915 C 476.614 -0.574971 -2.71274 0
M  V30 4916 H 479.565 -0.771773 -1.3867 0
M  V30 4917 H 479.586 0.550316 -3.76499 0
M  V30 4918 H 479.098 -1.27178 -3.66671 0
M  V30 4919 H 477.199 1.19023 -3.53078 0
M  V30 4920 H 477.312 -0.214858 -4.78618 0
M  V30 4921 H 475.676 -0.0174756 -2.54694 0
M  V30 4922 H 476.459 -1.61827 -3.02766 0
M  V30 4923 N 478.904 1.54736 -0.299062 0
M  V30 4924 C 480.129 2.04975 0.316254 0
M  V30 4925 C 480.554 1.17501 1.46885 0
M  V30 4926 O 479.912 0.178678 1.80417 0
M  V30 4927 C 479.96 3.52672 0.751997 0
M  V30 4928 O 479.064 3.68226 1.85697 0
M  V30 4929 H 478.405 0.661126 0.0617175 0
M  V30 4930 H 480.935 1.99805 -0.440341 0
M  V30 4931 H 480.945 3.94488 1.04133 0
M  V30 4932 H 479.62 4.158 -0.0911482 0
M  V30 4933 H 478.197 3.38316 1.56834 0
M  V30 4934 N 480.382 0.0267497 1.57577 0
M  V30 4935 C 481.798 -0.32962 1.56159 0
M  V30 4936 C 481.998 -1.73059 1.03213 0
M  V30 4937 O 481.054 -2.43233 0.677804 0
M  V30 4938 C 482.367 -0.18039 3.00158 0
M  V30 4939 C 483.915 -0.253334 3.11973 0
M  V30 4940 C 484.39 -0.132921 4.57807 0
M  V30 4941 N 485.881 -0.189979 4.6281 0
M  V30 4942 C 486.616 -0.120554 5.73273 0
M  V30 4943 N 486.112 -0.000180315 6.928 0
M  V30 4944 N 487.905 -0.174369 5.61829 0
M  V30 4945 H 480.056 0.942896 1.90324 0
M  V30 4946 H 482.319 0.3639 0.875375 0
M  V30 4947 H 482.025 0.784576 3.42837 0
M  V30 4948 H 481.899 -0.951565 3.65 0
M  V30 4949 H 484.286 -1.20876 2.69208 0
M  V30 4950 H 484.367 0.548177 2.49857 0
M  V30 4951 H 484.011 0.819073 5.01252 0
M  V30 4952 H 483.941 -0.953264 5.179 0
M  V30 4953 H 486.432 -0.283257 3.76837 0
M  V30 4954 H 486.745 0.0461666 7.72786 0
M  V30 4955 H 485.09 0.034569 6.94991 0
M  V30 4956 H 488.281 -0.266794 4.67339 0
M  V30 4957 H 488.454 -0.116802 6.47895 0
M  V30 4958 N 481.861 -1.55662 -0.24637 0
M  V30 4959 C 482.791 -1.93377 -1.30873 0
M  V30 4960 C 483.772 -0.798773 -1.50179 0
M  V30 4961 O 484.957 -1.0591 -1.62778 0
M  V30 4962 C 482.087 -2.22893 -2.66338 0
M  V30 4963 C 481.041 -3.38649 -2.61727 0
M  V30 4964 C 480.367 -3.53708 -4.00992 0
M  V30 4965 C 481.667 -4.74323 -2.18666 0
M  V30 4966 H 483.361 -2.82363 -0.995552 0
M  V30 4967 H 480.907 -1.35854 -0.477464 0
M  V30 4968 H 482.86 -2.47866 -3.40794 0
M  V30 4969 H 481.584 -1.30733 -2.99293 0
M  V30 4970 H 480.243 -3.13685 -1.89729 0
M  V30 4971 H 479.891 -2.58967 -4.31214 0
M  V30 4972 H 479.591 -4.31551 -3.98795 0
M  V30 4973 H 481.115 -3.81003 -4.77147 0
M  V30 4974 H 482.529 -4.98665 -2.82854 0
M  V30 4975 H 480.926 -5.55273 -2.27579 0
M  V30 4976 H 481.996 -4.71349 -1.13834 0
M  V30 4977 N 483.339 0.512053 -1.4905 0
M  V30 4978 C 484.287 1.63568 -1.65373 0
M  V30 4979 C 485.281 1.61228 -0.519806 0
M  V30 4980 O 486.487 1.65869 -0.699101 0
M  V30 4981 H 482.862 0.542019 -0.521267 0
M  V30 4982 H 484.833 1.4695 -2.59708 0
M  V30 4983 C 483.582 3.01761 -1.7273 0
M  V30 4984 H 482.905 3.04263 -2.59353 0
M  V30 4985 H 484.345 3.79948 -1.8819 0
M  V30 4986 C 482.804 3.33609 -0.46973 0
M  V30 4987 O 483.334 3.99607 0.409492 0
M  V30 4988 N 481.54 2.88651 -0.336003 0
M  V30 4989 H 481.087 2.35119 -1.05247 0
M  V30 4990 H 481.045 3.10328 0.504363 0
M  V30 4991 N 484.817 1.37938 0.762283 0
M  V30 4992 C 486.042 1.37059 1.55659 0
M  V30 4993 C 486.467 -0.0396123 1.88058 0
M  V30 4994 O 485.825 -1.01929 1.49934 0
M  V30 4995 C 485.873 2.22494 2.83776 0
M  V30 4996 O 484.977 1.63607 3.78559 0
M  V30 4997 H 484.318 0.467892 0.47114 0
M  V30 4998 H 486.848 1.81587 0.942725 0
M  V30 4999 H 486.858 2.36045 3.32786 0
M  V30 5000 H 485.533 3.24993 2.59524 0
M  V30 5001 H 484.11 1.5915 3.37233 0
M  V30 5002 N 486.295 -0.989507 1.22664 0
M  V30 5003 C 487.523 -1.76496 1.07967 0
M  V30 5004 C 487.938 -1.85148 -0.369543 0
M  V30 5005 O 487.295 -1.32408 -1.25596 0
M  V30 5006 C 487.346 -3.19642 1.68853 0
M  V30 5007 O 487.067 -3.11453 3.08105 0
M  V30 5008 C 488.568 -4.13621 1.59475 0
M  V30 5009 H 485.788 -0.55418 0.378319 0
M  V30 5010 H 488.332 -1.24378 1.62328 0
M  V30 5011 H 486.487 -3.68816 1.18547 0
M  V30 5012 H 486.901 -4.01499 3.37489 0
M  V30 5013 H 488.375 -5.11801 2.06795 0
M  V30 5014 H 488.852 -4.35718 0.55191 0
M  V30 5015 H 489.458 -3.70346 2.09103 0
M  V30 5016 N 487.773 -1.03688 -1.18687 0
M  V30 5017 C 489.019 -0.74888 -1.89112 0
M  V30 5018 C 489.374 0.715345 -1.78607 0
M  V30 5019 O 488.667 1.51498 -1.17299 0
M  V30 5020 C 488.861 -1.14477 -3.3857 0
M  V30 5021 C 488.69 -2.64594 -3.63621 0
M  V30 5022 C 487.46 -3.31685 -3.812 0
M  V30 5023 C 489.658 -3.62811 -3.64517 0
M  V30 5024 N 487.64 -4.70822 -3.93955 0
M  V30 5025 C 489.011 -4.87603 -3.8294 0
M  V30 5026 C 491.066 -3.56495 -3.47585 0
M  V30 5027 C 489.769 -6.0684 -3.86184 0
M  V30 5028 C 491.795 -4.75155 -3.52111 0
M  V30 5029 C 491.157 -5.98765 -3.71026 0
M  V30 5030 H 487.256 -0.32603 -0.710794 0
M  V30 5031 H 489.84 -1.3258 -1.42586 0
M  V30 5032 H 488.011 -0.595974 -3.838 0
M  V30 5033 H 489.743 -0.808187 -3.96548 0
M  V30 5034 H 486.498 -2.82091 -3.80423 0
M  V30 5035 H 486.922 -5.43122 -4.04163 0
M  V30 5036 H 491.564 -2.61907 -3.31911 0
M  V30 5037 H 489.282 -7.01788 -4.00648 0
M  V30 5038 H 492.868 -4.71905 -3.40289 0
M  V30 5039 H 491.748 -6.89047 -3.74412 0
M  V30 5040 N 489.251 1.34841 -0.815825 0
M  V30 5041 C 490.499 1.98107 -0.399744 0
M  V30 5042 C 490.82 1.65019 1.03894 0
M  V30 5043 O 490.09 0.937311 1.72021 0
M  V30 5044 H 488.67 0.732827 -0.144823 0
M  V30 5045 H 491.332 1.64599 -1.0437 0
M  V30 5046 H 490.428 3.07856 -0.512965 0
M  V30 5047 N 490.729 0.570148 1.46925 0
M  V30 5048 C 491.977 0.0508523 2.02036 0
M  V30 5049 C 492.298 -1.30885 1.44548 0
M  V30 5050 O 491.568 -1.85647 0.625453 0
M  V30 5051 H 490.148 0.0158088 0.746833 0
M  V30 5052 H 492.81 0.743086 1.80178 0
M  V30 5053 H 491.906 -0.027575 3.12088 0
M  V30 5054 N 492.207 -1.54576 0.307264 0
M  V30 5055 C 493.155 -2.25208 -0.581723 0
M  V30 5056 C 494.149 -1.26031 -1.13192 0
M  V30 5057 O 495.355 -1.43862 -1.08184 0
M  V30 5058 H 491.73 -0.723173 -0.206214 0
M  V30 5059 H 493.701 -2.98378 0.0364663 0
M  V30 5060 C 492.45 -3.01086 -1.73904 0
M  V30 5061 H 491.773 -3.77208 -1.32491 0
M  V30 5062 H 493.213 -3.5378 -2.33701 0
M  V30 5063 C 491.672 -2.08422 -2.64692 0
M  V30 5064 O 492.202 -1.65636 -3.65961 0
M  V30 5065 N 490.408 -1.74247 -2.32564 0
M  V30 5066 H 489.955 -2.09238 -1.50257 0
M  V30 5067 H 489.913 -1.12524 -2.93574 0
M  V30 5068 N 493.685 -0.035106 -1.57561 0
M  V30 5069 C 494.615 0.942993 -2.13612 0
M  V30 5070 C 495.596 1.33531 -1.05373 0
M  V30 5071 O 496.781 1.41287 -1.33235 0
M  V30 5072 C 493.911 2.22332 -2.66807 0
M  V30 5073 C 492.865 1.97156 -3.79886 0
M  V30 5074 C 492.191 3.31506 -4.19533 0
M  V30 5075 C 493.491 1.30596 -5.05709 0
M  V30 5076 H 495.185 0.476179 -2.95589 0
M  V30 5077 H 492.731 0.227602 -1.4219 0
M  V30 5078 H 494.684 2.91142 -3.04654 0
M  V30 5079 H 493.408 2.7119 -1.81999 0
M  V30 5080 H 492.067 1.30763 -3.42486 0
M  V30 5081 H 491.715 3.78134 -3.31698 0
M  V30 5082 H 491.415 3.15465 -4.95738 0
M  V30 5083 H 492.939 4.01574 -4.59968 0
M  V30 5084 H 494.353 1.89416 -5.41105 0
M  V30 5085 H 492.75 1.24934 -5.86951 0
M  V30 5086 H 493.82 0.279742 -4.84092 0
M  V30 5087 N 495.163 1.55791 0.238111 0
M  V30 5088 C 496.391 1.82098 0.982233 0
M  V30 5089 C 496.806 0.612025 1.78605 0
M  V30 5090 O 496.163 -0.419381 1.77616 0
M  V30 5091 C 496.214 3.0673 1.91309 0
M  V30 5092 O 495.935 4.2296 1.14179 0
M  V30 5093 C 497.436 3.45903 2.77248 0
M  V30 5094 H 494.656 0.605748 0.288635 0
M  V30 5095 H 497.2 2.02862 0.258341 0
M  V30 5096 H 495.355 2.87991 2.59114 0
M  V30 5097 H 495.769 4.93653 1.7722 0
M  V30 5098 H 497.243 4.36189 3.38295 0
M  V30 5099 H 497.72 2.66891 3.48806 0
M  V30 5100 H 498.326 3.67024 2.14881 0
M  V30 5101 N 496.642 -0.504142 1.49319 0
M  V30 5102 C 497.919 -1.26548 1.49147 0
M  V30 5103 C 498.299 -2.09977 0.21744 0
M  V30 5104 O 497.647 -2.14028 -0.800269 0
M  V30 5105 C 497.857 -2.12489 2.76857 0
M  V30 5106 C 499.205 -2.7178 3.26222 0
M  V30 5107 O 500.229 -2.22758 2.77952 0
M  V30 5108 O 499.088 -3.61015 4.10281 0
M  V30 5109 H 496.182 -0.572495 0.596806 0
M  V30 5110 H 498.728 -0.51867 1.61579 0
M  V30 5111 H 497.5 -1.50796 3.61077 0
M  V30 5112 H 497.123 -2.94368 2.6727 0
M  V30 5113 N 498.12 -1.38341 -0.754957 0
M  V30 5114 C 499.053 -1.29837 -1.87663 0
M  V30 5115 C 500.031 -0.175659 -1.61648 0
M  V30 5116 O 501.215 -0.352745 -1.8517 0
M  V30 5117 C 498.342 -1.01141 -3.23246 0
M  V30 5118 C 497.388 -2.15331 -3.6815 0
M  V30 5119 S 498.221 -3.77459 -3.79849 0
M  V30 5120 C 499.377 -3.50948 -5.18253 0
M  V30 5121 H 499.61 -2.24771 -1.9459 0
M  V30 5122 H 497.143 -1.24161 -0.917796 0
M  V30 5123 H 499.101 -0.852687 -4.01546 0
M  V30 5124 H 497.762 -0.0792784 -3.14 0
M  V30 5125 H 496.955 -1.90795 -4.6649 0
M  V30 5126 H 496.557 -2.27304 -2.97 0
M  V30 5127 H 498.849 -3.06977 -6.03963 0
M  V30 5128 H 499.792 -4.48677 -5.47809 0
M  V30 5129 H 500.2 -2.85492 -4.86985 0
M  V30 5130 N 499.598 0.982988 -1.23187 0
M  V30 5131 C 500.844 1.72648 -1.06398 0
M  V30 5132 C 501.177 1.90066 0.398561 0
M  V30 5133 O 500.452 1.45105 1.29518 0
M  V30 5134 C 500.735 3.12627 -1.78707 0
M  V30 5135 C 500.588 3.02795 -3.32618 0
M  V30 5136 C 501.907 4.11997 -1.54747 0
M  V30 5137 H 499.026 0.626649 -0.387918 0
M  V30 5138 H 501.668 1.14455 -1.51658 0
M  V30 5139 H 499.818 3.62308 -1.40234 0
M  V30 5140 H 501.49 2.60659 -3.80598 0
M  V30 5141 H 499.733 2.39362 -3.61785 0
M  V30 5142 H 500.404 4.01893 -3.78399 0
M  V30 5143 H 502.88 3.71114 -1.88186 0
M  V30 5144 H 501.756 5.08037 -2.07821 0
M  V30 5145 H 502.017 4.39462 -0.482249 0
M  V30 5146 N 501.076 1.04316 1.18135 0
M  V30 5147 C 502.492 0.762858 1.40188 0
M  V30 5148 C 502.692 -0.646547 1.90846 0
M  V30 5149 O 501.748 -1.41036 2.0944 0
M  V30 5150 C 503.061 1.81106 2.40044 0
M  V30 5151 C 504.609 1.83226 2.53766 0
M  V30 5152 C 505.084 2.87044 3.56889 0
M  V30 5153 N 506.575 2.85951 3.64398 0
M  V30 5154 C 507.31 3.62932 4.43923 0
M  V30 5155 N 506.806 4.49672 5.27036 0
M  V30 5156 N 508.599 3.51411 4.38711 0
M  V30 5157 H 500.75 1.95264 0.835805 0
M  V30 5158 H 503.013 0.845017 0.429709 0
M  V30 5159 H 502.719 2.82214 2.09876 0
M  V30 5160 H 502.593 1.64529 3.39426 0
M  V30 5161 H 504.98 0.827869 2.8325 0
M  V30 5162 H 505.061 2.03879 1.54489 0
M  V30 5163 H 504.705 3.87663 3.28145 0
M  V30 5164 H 504.635 2.63645 4.5585 0
M  V30 5165 H 507.126 2.23051 3.05052 0
M  V30 5166 H 507.439 5.05116 5.84874 0
M  V30 5167 H 505.784 4.53738 5.26447 0
M  V30 5168 H 508.975 2.83047 3.72829 0
M  V30 5169 H 509.148 4.11654 5.00445 0
M  V30 5170 N 502.554 -1.34406 0.822964 0
M  V30 5171 C 503.517 -2.2783 0.250271 0
M  V30 5172 C 504.517 -1.50288 -0.571854 0
M  V30 5173 O 505.707 -1.69825 -0.387952 0
M  V30 5174 C 502.839 -3.34663 -0.649137 0
M  V30 5175 H 504.032 -2.79992 1.07444 0
M  V30 5176 H 501.585 -1.44539 0.594829 0
M  V30 5177 H 502.32 -2.87714 -1.49637 0
M  V30 5178 H 502.105 -3.92052 -0.0611199 0
M  V30 5179 H 503.595 -4.04349 -1.04363 0
M  V30 5180 N 504.032 -0.577932 -1.46621 0
M  V30 5181 C 505.448 -0.239242 -1.57797 0
M  V30 5182 C 505.648 1.25843 -1.57371 0
M  V30 5183 O 504.704 2.03988 -1.48813 0
M  V30 5184 C 506.017 -0.884227 -2.87405 0
M  V30 5185 C 507.565 -0.857373 -3.01028 0
M  V30 5186 C 508.04 -1.48181 -4.33366 0
M  V30 5187 N 509.531 -1.44593 -4.40053 0
M  V30 5188 C 510.266 -1.89852 -5.41058 0
M  V30 5189 N 509.762 -2.43062 -6.48762 0
M  V30 5190 N 511.555 -1.80797 -5.3223 0
M  V30 5191 H 503.706 -1.55073 -1.45142 0
M  V30 5192 H 505.969 -0.647903 -0.692044 0
M  V30 5193 H 505.675 -1.93759 -2.93514 0
M  V30 5194 H 505.549 -0.389585 -3.75183 0
M  V30 5195 H 507.936 0.187357 -2.94505 0
M  V30 5196 H 508.017 -1.38999 -2.14739 0
M  V30 5197 H 507.661 -2.52572 -4.40647 0
M  V30 5198 H 507.591 -0.924464 -5.18422 0
M  V30 5199 H 510.082 -1.05694 -3.62819 0
M  V30 5200 H 510.395 -2.75466 -7.22038 0
M  V30 5201 H 508.74 -2.47085 -6.49595 0
M  V30 5202 H 511.931 -1.38989 -4.46989 0
M  V30 5203 H 512.104 -2.16385 -6.10804 0
M  V30 5204 N 505.51 1.54411 -0.315457 0
M  V30 5205 C 506.926 1.59556 0.037464 0
M  V30 5206 C 507.126 1.33217 1.5118 0
M  V30 5207 O 506.182 1.11264 2.26664 0
M  V30 5208 C 507.495 2.98372 -0.373477 0
M  V30 5209 C 509.043 3.11324 -0.323452 0
M  V30 5210 C 509.518 4.52472 -0.709433 0
M  V30 5211 N 511.009 4.58437 -0.662524 0
M  V30 5212 C 511.744 5.65751 -0.933474 0
M  V30 5213 N 511.24 6.81039 -1.27114 0
M  V30 5214 N 513.033 5.55489 -0.859573 0
M  V30 5215 H 505.184 1.6979 -1.27614 0
M  V30 5216 H 507.447 0.793732 -0.518356 0
M  V30 5217 H 507.153 3.22618 -1.40037 0
M  V30 5218 H 507.027 3.76264 0.265615 0
M  V30 5219 H 509.414 2.86818 0.694223 0
M  V30 5220 H 509.495 2.35555 -0.997367 0
M  V30 5221 H 509.139 4.7771 -1.72498 0
M  V30 5222 H 509.069 5.26598 -0.0132923 0
M  V30 5223 H 511.56 3.75636 -0.413065 0
M  V30 5224 H 511.873 7.58816 -1.46348 0
M  V30 5225 H 510.218 6.82555 -1.30932 0
M  V30 5226 H 513.409 4.64299 -0.595324 0
M  V30 5227 H 513.582 6.39036 -1.0741 0
M  V30 5228 N 506.988 0.0434614 1.5754 0
M  V30 5229 C 508.237 -0.631454 1.91561 0
M  V30 5230 C 508.55 -1.72457 0.92292 0
M  V30 5231 O 509.756 -2.45712 1.15489 0
M  V30 5232 C 508.212 -1.17447 3.40197 0
M  V30 5233 C 507.82 -0.113867 4.47855 0
M  V30 5234 C 509.564 -1.82507 3.83264 0
M  V30 5235 C 507.471 -0.669326 5.876 0
M  V30 5236 H 506.401 -0.239629 0.714908 0
M  V30 5237 H 509.052 0.111097 1.83163 0
M  V30 5238 H 507.434 -1.96909 3.43574 0
M  V30 5239 H 508.608 0.659348 4.56058 0
M  V30 5240 H 506.923 0.438821 4.14081 0
M  V30 5241 H 509.52 -2.25047 4.85034 0
M  V30 5242 H 509.863 -2.67365 3.19095 0
M  V30 5243 H 510.396 -1.09712 3.82372 0
M  V30 5244 H 507.135 0.141449 6.55347 0
M  V30 5245 H 506.655 -1.4107 5.82974 0
M  V30 5246 H 508.334 -1.15463 6.36614 0
M  V30 5247 N 508.466 -1.55915 -0.229846 0
M  V30 5248 C 509.396 -1.94754 -1.28815 0
M  V30 5249 C 510.377 -0.814657 -1.49323 0
M  V30 5250 O 511.562 -1.07631 -1.61645 0
M  V30 5251 C 508.692 -2.25705 -2.63959 0
M  V30 5252 C 507.646 -3.41406 -2.5812 0
M  V30 5253 C 506.972 -3.57941 -3.97218 0
M  V30 5254 C 508.272 -4.76616 -2.13623 0
M  V30 5255 H 509.966 -2.83404 -0.965547 0
M  V30 5256 H 507.512 -1.36353 -0.463028 0
M  V30 5257 H 509.465 -2.51467 -3.38146 0
M  V30 5258 H 508.189 -1.339 -2.9789 0
M  V30 5259 H 506.848 -3.1568 -1.86391 0
M  V30 5260 H 506.496 -2.63526 -4.28443 0
M  V30 5261 H 506.196 -4.35757 -3.94195 0
M  V30 5262 H 507.72 -3.86042 -4.73079 0
M  V30 5263 H 509.134 -5.01637 -2.77549 0
M  V30 5264 H 507.531 -5.57655 -2.21677 0
M  V30 5265 H 508.601 -4.7253 -1.08829 0
M  V30 5266 N 509.944 0.496216 -1.49584 0
M  V30 5267 C 510.854 1.62352 -1.69349 0
M  V30 5268 C 511.87 1.64184 -0.576147 0
M  V30 5269 O 513.046 1.82517 -0.85144 0
M  V30 5270 C 510.111 2.98698 -1.76013 0
M  V30 5271 C 509.172 3.07454 -2.99617 0
M  V30 5272 C 508.405 4.37296 -3.05953 0
M  V30 5273 O 508.628 5.2637 -2.19752 0
M  V30 5274 O 507.562 4.51124 -3.9846 0
M  V30 5275 H 511.388 1.48606 -2.64859 0
M  V30 5276 H 508.973 0.673022 -1.33382 0
M  V30 5277 H 510.855 3.79725 -1.82721 0
M  V30 5278 H 509.53 3.12696 -0.836828 0
M  V30 5279 H 508.437 2.25597 -2.98424 0
M  V30 5280 H 509.77 2.98385 -3.91443 0
M  V30 5281 N 511.423 1.38739 0.74761 0
M  V30 5282 C 512.669 1.35475 1.50912 0
M  V30 5283 C 513.002 -0.0533093 1.94127 0
M  V30 5284 O 512.277 -1.01572 1.65871 0
M  V30 5285 C 512.56 2.31582 2.75757 0
M  V30 5286 C 512.413 3.81274 2.38642 0
M  V30 5287 C 513.732 2.25722 3.77806 0
M  V30 5288 H 510.851 0.493427 0.547447 0
M  V30 5289 H 513.493 1.69634 0.855823 0
M  V30 5290 H 511.643 2.02582 3.31501 0
M  V30 5291 H 513.315 4.20972 1.88626 0
M  V30 5292 H 511.558 3.98664 1.71025 0
M  V30 5293 H 512.229 4.4399 3.27989 0
M  V30 5294 H 514.705 2.51336 3.31616 0
M  V30 5295 H 513.581 2.95069 4.62845 0
M  V30 5296 H 513.842 1.25803 4.23823 0
M  V30 5297 N 512.901 -0.976442 1.23707 0
M  V30 5298 C 514.15 -1.71254 1.06559 0
M  V30 5299 C 514.463 -1.91528 -0.397024 0
M  V30 5300 O 515.669 -2.62625 -0.688518 0
M  V30 5301 C 514.125 -3.08207 1.8584 0
M  V30 5302 C 513.733 -2.95806 3.36456 0
M  V30 5303 C 515.477 -3.85749 1.77194 0
M  V30 5304 C 513.384 -4.28015 4.08114 0
M  V30 5305 H 512.314 -0.642171 0.395136 0
M  V30 5306 H 514.965 -1.08877 1.4771 0
M  V30 5307 H 513.347 -3.71363 1.37498 0
M  V30 5308 H 514.521 -2.41716 3.92314 0
M  V30 5309 H 512.836 -2.31736 3.45959 0
M  V30 5310 H 515.433 -4.83633 2.28041 0
M  V30 5311 H 515.776 -4.09752 0.735477 0
M  V30 5312 H 516.309 -3.29303 2.23169 0
M  V30 5313 H 513.048 -4.09208 5.12083 0
M  V30 5314 H 512.568 -4.81955 3.57043 0
M  V30 5315 H 514.247 -4.96681 4.14629 0
M  V30 5316 N 514.379 -1.04941 -1.1758 0
M  V30 5317 C 515.289 -0.658826 -2.25159 0
M  V30 5318 C 516.305 0.318941 -1.71052 0
M  V30 5319 O 517.481 0.171669 -2.00667 0
M  V30 5320 C 514.546 -0.0369522 -3.4668 0
M  V30 5321 C 513.607 -1.06484 -4.15884 0
M  V30 5322 C 512.84 -0.472551 -5.31604 0
M  V30 5323 O 513.063 0.718736 -5.65854 0
M  V30 5324 O 511.997 -1.20557 -5.89703 0
M  V30 5325 H 515.823 -1.55533 -2.60851 0
M  V30 5326 H 513.408 -0.820819 -1.24832 0
M  V30 5327 H 515.29 0.308784 -4.20267 0
M  V30 5328 H 513.965 0.833238 -3.12792 0
M  V30 5329 H 512.872 -1.46253 -3.44327 0
M  V30 5330 H 514.205 -1.9061 -4.53794 0
M  V30 5331 N 515.857 1.33968 -0.830081 0
M  V30 5332 C 516.82 2.27694 -0.26235 0
M  V30 5333 C 517.82 1.50589 0.563876 0
M  V30 5334 O 519.01 1.70028 0.378941 0
M  V30 5335 C 516.142 3.35002 0.63138 0
M  V30 5336 H 517.335 2.79419 -1.08928 0
M  V30 5337 H 514.888 1.44221 -0.602486 0
M  V30 5338 H 515.623 2.88504 1.48109 0
M  V30 5339 H 515.408 3.92079 0.0403276 0
M  V30 5340 H 516.898 4.04897 1.02217 0
M  V30 5341 N 517.335 0.585699 1.46312 0
M  V30 5342 C 518.245 -0.148236 2.34131 0
M  V30 5343 C 519.261 -0.882972 1.49932 0
M  V30 5344 O 520.437 -0.845484 1.82794 0
M  V30 5345 C 517.502 -1.14714 3.27172 0
M  V30 5346 C 516.563 -0.416746 4.27272 0
M  V30 5347 C 515.796 -1.36806 5.15868 0
M  V30 5348 O 516.019 -2.60475 5.07454 0
M  V30 5349 O 514.953 -0.877018 5.95476 0
M  V30 5350 H 518.779 0.572882 2.98248 0
M  V30 5351 H 516.364 0.346082 1.45336 0
M  V30 5352 H 518.246 -1.72303 3.84564 0
M  V30 5353 H 516.921 -1.84967 2.65648 0
M  V30 5354 H 515.828 0.201061 3.73559 0
M  V30 5355 H 517.161 0.244872 4.9159 0
M  V30 5356 N 518.813 -1.54241 0.323641 0
M  V30 5357 C 520.061 -2.00174 -0.278359 0
M  V30 5358 C 520.382 -1.2134 -1.52648 0
M  V30 5359 O 519.652 -0.315244 -1.93347 0
M  V30 5360 H 518.232 -0.739463 -0.105845 0
M  V30 5361 H 520.894 -1.89864 0.440204 0
M  V30 5362 H 519.99 -3.07486 -0.5347 0
M  V30 5363 N 520.291 -0.0518155 -1.57515 0
M  V30 5364 C 521.221 0.920283 -2.146 0
M  V30 5365 C 522.202 1.32406 -1.06783 0
M  V30 5366 O 523.387 1.39866 -1.34726 0
M  V30 5367 C 520.517 2.1949 -2.6915 0
M  V30 5368 C 519.471 1.93116 -3.81956 0
M  V30 5369 C 518.797 3.27037 -4.23026 0
M  V30 5370 C 520.097 1.25225 -5.07066 0
M  V30 5371 H 521.791 0.444801 -2.96077 0
M  V30 5372 H 519.337 0.212508 -1.42423 0
M  V30 5373 H 521.29 2.87894 -3.07725 0
M  V30 5374 H 520.014 2.69244 -1.84865 0
M  V30 5375 H 518.673 1.27123 -3.43854 0
M  V30 5376 H 518.321 3.74595 -3.3569 0
M  V30 5377 H 518.021 3.10189 -4.99056 0
M  V30 5378 H 519.545 3.96673 -4.64202 0
M  V30 5379 H 520.959 1.83666 -5.43083 0
M  V30 5380 H 519.356 1.18702 -5.88243 0
M  V30 5381 H 520.426 0.228382 -4.84362 0
M  V30 5382 N 521.769 1.56035 0.221574 0
M  V30 5383 C 523.016 1.79047 0.94597 0
M  V30 5384 C 523.344 0.62057 1.84334 0
M  V30 5385 O 522.599 -0.395053 1.91671 0
M  V30 5386 C 522.898 3.07813 1.8162 0
M  V30 5387 C 522.564 4.3797 1.07206 0
M  V30 5388 C 521.226 4.73334 0.866508 0
M  V30 5389 C 523.578 5.18326 0.546565 0
M  V30 5390 C 520.906 5.8657 0.123549 0
M  V30 5391 C 523.258 6.32335 -0.18305 0
M  V30 5392 C 521.922 6.66301 -0.399861 0
M  V30 5393 H 521.192 0.655178 0.346155 0
M  V30 5394 H 523.839 1.90299 0.214146 0
M  V30 5395 H 522.144 2.91682 2.61589 0
M  V30 5396 H 523.841 3.2282 2.37884 0
M  V30 5397 H 520.431 4.10202 1.24226 0
M  V30 5398 H 524.615 4.9144 0.692847 0
M  V30 5399 H 519.871 6.11376 -0.0546591 0
M  V30 5400 H 524.045 6.9383 -0.59775 0
M  V30 5401 H 521.672 7.53889 -0.977489 0
M  V30 5402 N 523.247 -0.488276 1.49845 0
M  V30 5403 C 524.157 -1.61451 1.70207 0
M  V30 5404 C 525.173 -1.63877 0.584846 0
M  V30 5405 O 526.349 -1.82063 0.861107 0
M  V30 5406 C 523.414 -2.9776 1.77594 0
M  V30 5407 C 522.475 -3.05861 3.01243 0
M  V30 5408 C 521.708 -4.35668 3.08268 0
M  V30 5409 O 521.931 -5.25197 2.22541 0
M  V30 5410 O 520.865 -4.49005 4.00847 0
M  V30 5411 H 524.691 -1.47199 2.65643 0
M  V30 5412 H 522.276 -0.665939 1.33737 0
M  V30 5413 H 524.158 -3.7875 1.84732 0
M  V30 5414 H 522.833 -3.12248 0.8534 0
M  V30 5415 H 521.74 -2.24012 2.99616 0
M  V30 5416 H 523.073 -2.96304 3.9302 0
M  V30 5417 N 524.725 -1.39134 -0.740242 0
M  V30 5418 C 526.141 -1.20623 -1.0451 0
M  V30 5419 C 526.341 -0.0641651 -2.01398 0
M  V30 5420 O 525.397 0.585843 -2.4561 0
M  V30 5421 C 526.71 -2.53815 -1.6124 0
M  V30 5422 C 528.258 -2.60615 -1.73346 0
M  V30 5423 C 528.733 -3.94015 -2.33486 0
M  V30 5424 N 530.224 -3.95627 -2.40902 0
M  V30 5425 C 530.959 -4.95616 -2.88361 0
M  V30 5426 N 530.455 -6.06003 -3.35756 0
M  V30 5427 N 532.248 -4.82998 -2.87523 0
M  V30 5428 H 524.399 -2.12176 -0.0975576 0
M  V30 5429 H 526.662 -0.942066 -0.105904 0
M  V30 5430 H 526.368 -3.37911 -0.975144 0
M  V30 5431 H 526.242 -2.73162 -2.6012 0
M  V30 5432 H 528.629 -1.76906 -2.36195 0
M  V30 5433 H 528.71 -2.45123 -0.731336 0
M  V30 5434 H 528.354 -4.78153 -1.71267 0
M  V30 5435 H 528.284 -4.06825 -3.34366 0
M  V30 5436 H 530.775 -3.15903 -2.07398 0
M  V30 5437 H 531.088 -6.78215 -3.70464 0
M  V30 5438 H 529.433 -6.09604 -3.33778 0
M  V30 5439 H 532.624 -3.95866 -2.49816 0
M  V30 5440 H 532.797 -5.61072 -3.24196 0
M  V30 5441 N 526.204 0.969867 -1.24223 0
M  V30 5442 C 527.167 2.04564 -1.03373 0
M  V30 5443 C 528.167 1.60798 0.00819206 0
M  V30 5444 O 529.357 1.72641 -0.232567 0
M  V30 5445 C 526.489 3.36163 -0.566343 0
M  V30 5446 H 527.682 2.24494 -1.98853 0
M  V30 5447 H 525.235 1.1448 -1.06415 0
M  V30 5448 H 525.97 3.21925 0.391751 0
M  V30 5449 H 525.755 3.69273 -1.31834 0
M  V30 5450 H 527.245 4.1526 -0.441435 0
M  V30 5451 N 527.682 1.05563 1.17022 0
M  V30 5452 C 528.928 0.769074 1.87652 0
M  V30 5453 C 529.261 -0.702326 1.81055 0
M  V30 5454 O 528.536 -1.5139 1.22112 0
M  V30 5455 C 528.819 1.25492 3.37526 0
M  V30 5456 C 528.672 2.78953 3.52853 0
M  V30 5457 C 529.991 0.856919 4.31677 0
M  V30 5458 H 527.11 0.280854 0.681388 0
M  V30 5459 H 529.752 1.31027 1.37593 0
M  V30 5460 H 527.902 0.794516 3.80289 0
M  V30 5461 H 529.574 3.33146 3.19079 0
M  V30 5462 H 527.817 3.18046 2.95007 0
M  V30 5463 H 528.488 3.08011 4.58076 0
M  V30 5464 H 530.964 1.25334 3.96775 0
M  V30 5465 H 529.84 1.22443 5.35069 0
M  V30 5466 H 530.101 -0.238787 4.41455 0
M  V30 5467 N 529.16 -1.33526 0.837174 0
M  V30 5468 C 530.092 -2.28077 0.226579 0
M  V30 5469 C 531.105 -1.51666 -0.591717 0
M  V30 5470 O 532.294 -1.73511 -0.419064 0
M  V30 5471 C 529.394 -3.31597 -0.69978 0
M  V30 5472 C 528.567 -4.37329 0.0788067 0
M  V30 5473 C 527.626 -5.20526 -0.770637 0
M  V30 5474 O 526.652 -5.68811 -0.210453 0
M  V30 5475 N 527.854 -5.41639 -2.08825 0
M  V30 5476 H 530.619 -2.81115 1.03897 0
M  V30 5477 H 528.18 -1.46201 0.695476 0
M  V30 5478 H 530.172 -3.84158 -1.27298 0
M  V30 5479 H 528.742 -2.78848 -1.41288 0
M  V30 5480 H 527.962 -3.8529 0.833381 0
M  V30 5481 H 529.25 -5.05079 0.614238 0
M  V30 5482 H 528.648 -5.04108 -2.56693 0
M  V30 5483 H 527.205 -5.97263 -2.60998 0
M  V30 5484 N 530.638 -0.59345 -1.46 0
M  V30 5485 C 531.588 0.154751 -2.27474 0
M  V30 5486 C 532.572 0.851849 -1.365 0
M  V30 5487 O 533.764 0.744171 -1.60596 0
M  V30 5488 C 530.893 1.16079 -3.2308 0
M  V30 5489 C 529.979 0.465256 -4.2154 0
M  V30 5490 N 530.37 -0.485197 -5.03467 0
M  V30 5491 C 528.668 0.714634 -4.40237 0
M  V30 5492 C 529.369 -0.892709 -5.74809 0
M  V30 5493 N 528.345 -0.239511 -5.43072 0
M  V30 5494 H 532.147 -0.57546 -2.88211 0
M  V30 5495 H 529.661 -0.416046 -1.5698 0
M  V30 5496 H 531.658 1.71108 -3.80168 0
M  V30 5497 H 530.318 1.89171 -2.63903 0
M  V30 5498 H 531.329 -0.861258 -5.10689 0
M  V30 5499 H 528.006 1.43131 -3.92199 0
M  V30 5500 H 529.396 -1.67581 -6.50666 0
M  V30 5501 N 532.116 1.54067 -0.331816 0
M  V30 5502 C 533.364 2.00319 0.267739 0
M  V30 5503 C 533.685 1.22148 1.52003 0
M  V30 5504 O 532.955 0.325494 1.93177 0
M  V30 5505 H 531.535 0.740014 0.101922 0
M  V30 5506 H 534.197 1.89628 -0.450267 0
M  V30 5507 H 533.293 3.07765 0.518385 0
M  V30 5508 N 533.594 0.0601682 1.57485 0
M  V30 5509 C 534.541 -0.91112 2.12055 0
M  V30 5510 C 535.511 -1.30298 1.03013 0
M  V30 5511 O 536.696 -1.39087 1.30612 0
M  V30 5512 C 533.836 -2.1775 2.67729 0
M  V30 5513 C 532.949 -1.83933 3.90887 0
M  V30 5514 C 532.084 -3.05096 4.34845 0
M  V30 5515 C 531.123 -2.67241 5.5068 0
M  V30 5516 N 530.26 -3.81127 5.8965 0
M  V30 5517 H 535.1 -0.43888 2.9475 0
M  V30 5518 H 532.637 -0.204995 1.45665 0
M  V30 5519 H 534.595 -2.91866 2.98111 0
M  V30 5520 H 533.225 -2.62535 1.87816 0
M  V30 5521 H 532.277 -0.999287 3.6704 0
M  V30 5522 H 533.589 -1.52074 4.75052 0
M  V30 5523 H 532.743 -3.87502 4.66827 0
M  V30 5524 H 531.482 -3.40139 3.49509 0
M  V30 5525 H 530.487 -1.83254 5.18361 0
M  V30 5526 H 531.712 -2.3338 6.37738 0
M  V30 5527 H 529.658 -4.15954 5.07266 0
M  V30 5528 H 529.575 -3.52997 6.68528 0
M  V30 5529 H 530.843 -4.64145 6.2625 0
M  V30 5530 N 535.072 -1.5615 -0.213296 0
M  V30 5531 C 536.302 -1.83372 -0.951757 0
M  V30 5532 C 536.71 -0.638158 -1.78113 0
M  V30 5533 O 536.053 0.402609 -1.79234 0
M  V30 5534 C 536.115 -3.04444 -1.91192 0
M  V30 5535 C 535.779 -4.39107 -1.26627 0
M  V30 5536 C 536.776 -5.15794 -0.652087 0
M  V30 5537 C 534.461 -4.85834 -1.27556 0
M  V30 5538 C 536.455 -6.37376 -0.055814 0
M  V30 5539 C 534.142 -6.07356 -0.675451 0
M  V30 5540 C 535.14 -6.82967 -0.0666367 0
M  V30 5541 O 534.828 -8.0219 0.524119 0
M  V30 5542 H 534.56 -0.613398 -0.284111 0
M  V30 5543 H 537.114 -2.04096 -0.231112 0
M  V30 5544 H 535.344 -2.79559 -2.67178 0
M  V30 5545 H 537.033 -3.18466 -2.51662 0
M  V30 5546 H 537.799 -4.80796 -0.637172 0
M  V30 5547 H 533.678 -4.26949 -1.73883 0
M  V30 5548 H 537.222 -6.96334 0.420004 0
M  V30 5549 H 533.119 -6.41825 -0.687806 0
M  V30 5550 H 533.887 -8.17426 0.419243 0
M  V30 5551 N 536.55 0.480323 -1.50102 0
M  V30 5552 C 537.48 1.58769 -1.71215 0
M  V30 5553 C 538.461 1.60583 -0.560997 0
M  V30 5554 O 539.646 1.76996 -0.799127 0
M  V30 5555 C 536.776 2.97148 -1.79778 0
M  V30 5556 C 535.73 3.10201 -2.94888 0
M  V30 5557 C 535.056 4.50137 -2.88584 0
M  V30 5558 C 536.356 2.88283 -4.35534 0
M  V30 5559 H 538.05 1.41354 -2.6393 0
M  V30 5560 H 535.596 0.678591 -1.27008 0
M  V30 5561 H 537.549 3.74536 -1.93133 0
M  V30 5562 H 536.273 3.15699 -0.836772 0
M  V30 5563 H 534.932 2.35244 -2.81169 0
M  V30 5564 H 534.58 4.65593 -1.90349 0
M  V30 5565 H 534.28 4.59808 -3.65856 0
M  V30 5566 H 535.804 5.29558 -3.03976 0
M  V30 5567 H 537.218 3.55427 -4.49827 0
M  V30 5568 H 535.615 3.09408 -5.14186 0
M  V30 5569 H 536.685 1.84219 -4.48544 0
M  V30 5570 N 538.028 1.39524 0.732853 0
M  V30 5571 C 539.444 1.21176 1.03868 0
M  V30 5572 C 539.644 0.0748448 2.01361 0
M  V30 5573 O 538.7 -0.57281 2.45917 0
M  V30 5574 C 540.013 2.54667 1.59892 0
M  V30 5575 C 541.561 2.6153 1.71962 0
M  V30 5576 C 542.036 3.95248 2.31394 0
M  V30 5577 N 543.527 3.96899 2.38801 0
M  V30 5578 C 544.262 4.97138 2.85729 0
M  V30 5579 N 543.758 6.07775 3.32537 0
M  V30 5580 N 545.551 4.84516 2.84957 0
M  V30 5581 H 537.702 2.12225 0.086304 0
M  V30 5582 H 539.965 0.942614 0.100907 0
M  V30 5583 H 539.671 3.38423 0.95721 0
M  V30 5584 H 539.545 2.74538 2.58668 0
M  V30 5585 H 541.932 1.78156 2.35254 0
M  V30 5586 H 542.013 2.45507 0.718327 0
M  V30 5587 H 541.657 4.79054 1.68729 0
M  V30 5588 H 541.587 4.08593 3.32204 0
M  V30 5589 H 544.078 3.16998 2.05719 0
M  V30 5590 H 544.391 6.8017 3.66862 0
M  V30 5591 H 542.736 6.11366 3.30541 0
M  V30 5592 H 545.927 3.97185 2.47713 0
M  V30 5593 H 546.1 5.62783 3.21215 0
M  V30 5594 N 539.506 -0.963266 1.24736 0
M  V30 5595 C 540.469 -2.04013 1.04457 0
M  V30 5596 C 541.469 -1.608 0.000335555 0
M  V30 5597 O 542.659 -1.72515 0.241719 0
M  V30 5598 C 539.791 -3.35858 0.584162 0
M  V30 5599 H 540.984 -2.23436 2.00041 0
M  V30 5600 H 538.537 -1.13914 1.07021 0
M  V30 5601 H 539.272 -3.22128 -0.374673 0
M  V30 5602 H 539.057 -3.68568 1.3379 0
M  V30 5603 H 540.547 -4.1502 0.463451 0
M  V30 5604 N 540.985 -1.06182 -1.16461 0
M  V30 5605 C 542.401 -0.785065 -1.38956 0
M  V30 5606 C 542.601 0.616103 -1.9185 0
M  V30 5607 O 541.657 1.37686 -2.11657 0
M  V30 5608 C 542.97 -1.84902 -2.37132 0
M  V30 5609 C 544.518 -1.8724 -2.50819 0
M  V30 5610 C 544.993 -2.92686 -3.52277 0
M  V30 5611 N 546.484 -2.91712 -3.59803 0
M  V30 5612 C 547.219 -3.69949 -4.38093 0
M  V30 5613 N 546.715 -4.58 -5.19815 0
M  V30 5614 N 548.508 -3.58346 -4.33064 0
M  V30 5615 H 540.659 -1.96569 -0.804634 0
M  V30 5616 H 542.922 -0.851747 -0.416211 0
M  V30 5617 H 542.628 -2.85518 -2.0536 0
M  V30 5618 H 542.502 -1.69908 -3.36766 0
M  V30 5619 H 544.889 -0.872827 -2.81897 0
M  V30 5620 H 544.97 -2.06311 -1.51226 0
M  V30 5621 H 544.614 -3.92835 -3.21937 0
M  V30 5622 H 544.544 -2.70864 -4.51598 0
M  V30 5623 H 547.035 -2.27876 -3.01464 0
M  V30 5624 H 547.348 -5.14357 -5.76764 0
M  V30 5625 H 545.693 -4.62056 -5.19162 0
M  V30 5626 H 548.884 -2.88943 -3.68279 0
M  V30 5627 H 549.057 -4.19563 -4.93833 0
M  V30 5628 N 542.463 1.3308 -0.844243 0
M  V30 5629 C 543.393 2.3161 -0.296493 0
M  V30 5630 C 544.374 1.59215 0.598707 0
M  V30 5631 O 545.559 1.87077 0.521134 0
M  V30 5632 C 542.689 3.43313 0.524762 0
M  V30 5633 C 541.643 4.27115 -0.275106 0
M  V30 5634 C 540.969 5.30483 0.670236 0
M  V30 5635 C 542.269 5.00443 -1.49514 0
M  V30 5636 H 543.963 2.77672 -1.11976 0
M  V30 5637 H 541.509 1.33496 -0.539899 0
M  V30 5638 H 543.462 4.11273 0.918298 0
M  V30 5639 H 542.186 2.95952 1.3813 0
M  V30 5640 H 540.845 3.60787 -0.650267 0
M  V30 5641 H 540.493 4.79379 1.52332 0
M  V30 5642 H 540.193 5.87435 0.139123 0
M  V30 5643 H 541.717 6.01308 1.06117 0
M  V30 5644 H 543.131 5.61141 -1.17447 0
M  V30 5645 H 541.528 5.67071 -1.96343 0
M  V30 5646 H 542.598 4.28906 -2.26202 0
M  V30 5647 N 543.941 0.601185 1.45683 0
M  V30 5648 C 545.218 0.0261659 1.95582 0
M  V30 5649 C 545.598 -1.4399 1.5437 0
M  V30 5650 O 544.946 -2.13919 0.80318 0
M  V30 5651 C 545.156 0.217557 3.48321 0
M  V30 5652 C 546.504 0.0950076 4.24494 0
M  V30 5653 O 547.528 0.147345 3.55895 0
M  V30 5654 O 546.387 -0.025261 5.46494 0
M  V30 5655 H 543.481 -0.0393688 0.826062 0
M  V30 5656 H 546.027 0.670798 1.55879 0
M  V30 5657 H 544.799 1.23601 3.71266 0
M  V30 5658 H 544.422 -0.46264 3.94899 0
M  V30 5659 N 545.419 -1.53889 0.339982 0
M  V30 5660 C 546.329 -2.28604 -0.526988 0
M  V30 5661 C 547.345 -1.33578 -1.11503 0
M  V30 5662 O 548.521 -1.66612 -1.13148 0
M  V30 5663 C 545.586 -3.04164 -1.66389 0
M  V30 5664 C 544.647 -4.14809 -1.10599 0
M  V30 5665 C 543.88 -4.86756 -2.18871 0
M  V30 5666 O 544.103 -4.58343 -3.39526 0
M  V30 5667 O 543.037 -5.73289 -1.83366 0
M  V30 5668 H 546.863 -3.03594 0.0802707 0
M  V30 5669 H 544.448 -1.4903 0.105141 0
M  V30 5670 H 546.33 -3.51427 -2.32544 0
M  V30 5671 H 545.005 -2.32035 -2.25703 0
M  V30 5672 H 543.912 -3.71857 -0.409067 0
M  V30 5673 H 545.245 -4.89029 -0.557771 0
M  V30 5674 N 546.897 -0.0685191 -1.57451 0
M  V30 5675 C 547.827 0.89747 -2.15564 0
M  V30 5676 C 548.808 1.31266 -1.08181 0
M  V30 5677 O 549.993 1.38429 -1.36202 0
M  V30 5678 C 547.123 2.16623 -2.71463 0
M  V30 5679 C 546.077 1.89054 -3.83982 0
M  V30 5680 C 545.403 3.22532 -4.26471 0
M  V30 5681 C 546.703 1.1984 -5.08366 0
M  V30 5682 H 548.397 0.413373 -2.96533 0
M  V30 5683 H 545.943 0.197391 -1.42641 0
M  V30 5684 H 547.896 2.84614 -3.10761 0
M  V30 5685 H 546.62 2.67269 -1.8771 0
M  V30 5686 H 545.279 1.23469 -3.45183 0
M  V30 5687 H 544.927 3.71013 -3.39644 0
M  V30 5688 H 544.627 3.04879 -5.02317 0
M  V30 5689 H 546.151 3.91727 -4.68383 0
M  V30 5690 H 547.565 1.77896 -5.45001 0
M  V30 5691 H 545.962 1.12456 -5.89469 0
M  V30 5692 H 547.032 0.176996 -4.84577 0
M  V30 5693 N 548.375 1.56261 0.205012 0
M  V30 5694 C 549.338 1.92908 1.23771 0
M  V30 5695 C 550.338 0.809208 1.38955 0
M  V30 5696 O 551.528 1.07676 1.36936 0
M  V30 5697 C 548.66 2.19442 2.60879 0
M  V30 5698 H 549.853 2.85287 0.924728 0
M  V30 5699 H 547.406 1.49798 0.446125 0
M  V30 5700 H 548.141 1.29668 2.97248 0
M  V30 5701 H 547.926 3.0104 2.51232 0
M  V30 5702 H 549.416 2.48833 3.35368 0
M  V30 5703 N 549.853 -0.472356 1.50355 0
M  V30 5704 C 550.816 -1.5529 1.68576 0
M  V30 5705 C 551.816 -1.50863 0.556511 0
M  V30 5706 O 553.006 -1.53505 0.823516 0
M  V30 5707 C 550.138 -2.94921 1.70981 0
M  V30 5708 H 551.331 -1.40451 2.64978 0
M  V30 5709 H 548.884 -0.698645 1.39816 0
M  V30 5710 H 549.619 -3.15204 0.762675 0
M  V30 5711 H 549.404 -2.99541 2.53017 0
M  V30 5712 H 550.894 -3.73372 1.87037 0
M  V30 5713 N 551.331 -1.39911 -0.725443 0
M  V30 5714 C 552.608 -1.28158 -1.47766 0
M  V30 5715 C 552.988 0.104545 -2.10841 0
M  V30 5716 O 552.336 1.11657 -1.99361 0
M  V30 5717 C 552.546 -2.41306 -2.52135 0
M  V30 5718 C 553.894 -2.81076 -3.18247 0
M  V30 5719 O 554.918 -2.40827 -2.62452 0
M  V30 5720 O 553.777 -3.50581 -4.19231 0
M  V30 5721 H 550.871 -0.502761 -0.656628 0
M  V30 5722 H 553.417 -1.51808 -0.758456 0
M  V30 5723 H 552.189 -3.33932 -2.03974 0
M  V30 5724 H 551.812 -2.19374 -3.31603 0
M  V30 5725 N 552.809 0.956637 -1.25245 0
M  V30 5726 C 554.056 1.701 -1.09874 0
M  V30 5727 C 554.384 1.91128 0.36062 0
M  V30 5728 O 553.639 1.47837 1.28229 0
M  V30 5729 C 553.938 3.08996 -1.79601 0
M  V30 5730 C 553.604 3.07774 -3.29523 0
M  V30 5731 C 552.266 3.07149 -3.70423 0
M  V30 5732 C 554.618 3.01257 -4.25316 0
M  V30 5733 C 551.946 2.97752 -5.0553 0
M  V30 5734 C 554.298 2.93403 -5.60444 0
M  V30 5735 C 552.962 2.91111 -6.00675 0
M  V30 5736 H 552.232 0.62244 -0.402056 0
M  V30 5737 H 554.879 1.1178 -1.55491 0
M  V30 5738 H 553.184 3.70848 -1.26408 0
M  V30 5739 H 554.881 3.65407 -1.65162 0
M  V30 5740 H 551.471 3.09032 -2.9698 0
M  V30 5741 H 555.655 3.00861 -3.9471 0
M  V30 5742 H 550.911 2.94346 -5.35883 0
M  V30 5743 H 555.085 2.87321 -6.34366 0
M  V30 5744 H 552.712 2.83586 -7.05325 0
M  V30 5745 N 554.287 1.06798 1.15896 0
M  V30 5746 C 555.698 0.811355 1.68149 0
M  V30 5747 C 556.049 -0.664339 1.8461 0
M  V30 5748 O 555.174 -1.51485 1.54535 0
M  V30 5749 C 555.769 1.46624 3.05429 0
M  V30 5750 C 554.328 1.25726 3.54781 0
M  V30 5751 C 553.475 1.53949 2.3064 0
M  V30 5752 H 556.426 1.23078 1.00187 0
M  V30 5753 H 556.447 0.88437 3.7008 0
M  V30 5754 H 555.959 2.54025 2.93416 0
M  V30 5755 H 554.06 0.20322 3.72045 0
M  V30 5756 H 554.173 1.97354 4.36564 0
M  V30 5757 H 552.537 0.96025 2.35905 0
M  V30 5758 H 553.32 2.6252 2.2122 0
M  V30 5759 N 555.766 -1.3263 0.851289 0
M  V30 5760 C 556.729 -2.27247 0.298541 0
M  V30 5761 C 557.729 -1.51467 -0.539847 0
M  V30 5762 O 558.919 -1.7061 -0.351843 0
M  V30 5763 C 556.051 -3.35964 -0.578004 0
M  V30 5764 H 557.244 -2.7765 1.13359 0
M  V30 5765 H 554.797 -1.43245 0.625354 0
M  V30 5766 H 555.532 -2.90823 -1.435 0
M  V30 5767 H 555.317 -3.92094 0.0220539 0
M  V30 5768 H 556.807 -4.06472 -0.957626 0
M  V30 5769 N 557.244 -0.608902 -1.45362 0
M  V30 5770 C 558.49 -0.104762 -2.02529 0
M  V30 5771 C 558.823 1.26191 -1.47613 0
M  V30 5772 O 558.098 1.8327 -0.65134 0
M  V30 5773 C 558.381 -0.0672661 -3.60037 0
M  V30 5774 C 558.234 -1.4647 -4.25284 0
M  V30 5775 C 559.553 0.619877 -4.35713 0
M  V30 5776 H 556.672 -0.0395438 -0.735938 0
M  V30 5777 H 559.314 -0.781126 -1.73201 0
M  V30 5778 H 557.464 0.50871 -3.85155 0
M  V30 5779 H 559.136 -2.08785 -4.11347 0
M  V30 5780 H 557.379 -2.02502 -3.83634 0
M  V30 5781 H 558.05 -1.39069 -5.34195 0
M  V30 5782 H 560.526 0.130297 -4.15896 0
M  V30 5783 H 559.402 0.615224 -5.45441 0
M  V30 5784 H 559.663 1.68621 -4.0868 0
M  V30 5785 N 558.722 1.53707 -0.348139 0
M  V30 5786 C 559.968 2.01286 0.247332 0
M  V30 5787 C 560.301 1.23546 1.49834 0
M  V30 5788 O 559.576 0.324331 1.91777 0
M  V30 5789 C 559.859 3.55768 0.556858 0
M  V30 5790 C 559.712 4.44216 -0.706564 0
M  V30 5791 C 561.031 4.1841 1.3646 0
M  V30 5792 H 558.15 0.731677 0.0884201 0
M  V30 5793 H 560.792 1.84106 -0.469584 0
M  V30 5794 H 558.942 3.70539 1.16761 0
M  V30 5795 H 560.614 4.41274 -1.34444 0
M  V30 5796 H 558.857 4.12892 -1.33052 0
M  V30 5797 H 559.528 5.50202 -0.445186 0
M  V30 5798 H 562.004 4.07365 0.848113 0
M  V30 5799 H 560.88 5.26563 1.54992 0
M  V30 5800 H 561.141 3.7333 2.36805 0
M  V30 5801 N 560.2 0.0768682 1.57412 0
M  V30 5802 C 561.13 -0.886026 2.16037 0
M  V30 5803 C 562.111 -1.30691 1.08876 0
M  V30 5804 O 563.296 -1.37705 1.36934 0
M  V30 5805 C 560.426 -2.1518 2.72608 0
M  V30 5806 C 559.38 -1.87015 3.8498 0
M  V30 5807 C 558.706 -3.20266 4.28175 0
M  V30 5808 C 560.006 -1.17143 5.08994 0
M  V30 5809 H 561.7 -0.397642 2.96748 0
M  V30 5810 H 559.246 -0.189823 1.42743 0
M  V30 5811 H 561.199 -2.82962 3.12266 0
M  V30 5812 H 559.923 -2.66269 1.89125 0
M  V30 5813 H 558.582 -1.21636 3.45833 0
M  V30 5814 H 558.23 -3.69207 3.41607 0
M  V30 5815 H 557.93 -3.0221 5.03927 0
M  V30 5816 H 559.454 -3.89237 4.70454 0
M  V30 5817 H 560.868 -1.75003 5.45937 0
M  V30 5818 H 559.265 -1.09328 5.90057 0
M  V30 5819 H 560.335 -0.151295 4.84664 0
M  V30 5820 N 561.678 -1.56367 -0.196722 0
M  V30 5821 C 562.955 -1.71359 -0.943159 0
M  V30 5822 C 563.335 -0.631192 -2.01443 0
M  V30 5823 O 562.683 0.358071 -2.25677 0
M  V30 5824 C 562.893 -3.13623 -1.53106 0
M  V30 5825 C 564.241 -3.73806 -2.01381 0
M  V30 5826 O 565.265 -3.16742 -1.62951 0
M  V30 5827 O 564.124 -4.73951 -2.7209 0
M  V30 5828 H 561.218 -0.698851 -0.442195 0
M  V30 5829 H 563.764 -1.68672 -0.186547 0
M  V30 5830 H 562.536 -3.83873 -0.758785 0
M  V30 5831 H 562.159 -3.20532 -2.35255 0
M  V30 5832 N 563.156 0.464375 -1.50603 0
M  V30 5833 C 564.567 1.04507 -1.5471 0
M  V30 5834 C 564.918 1.9297 -0.354542 0
M  V30 5835 O 564.043 2.09763 0.531812 0
M  V30 5836 C 564.638 1.90207 -2.80369 0
M  V30 5837 C 563.197 2.43373 -2.87135 0
M  V30 5838 C 562.344 1.21886 -2.49076 0
M  V30 5839 H 565.295 0.246716 -1.56771 0
M  V30 5840 H 565.316 2.75353 -2.62604 0
M  V30 5841 H 564.828 1.25796 -3.67147 0
M  V30 5842 H 562.929 3.11318 -2.04724 0
M  V30 5843 H 563.042 2.7802 -3.90181 0
M  V30 5844 H 561.406 1.55575 -2.01664 0
M  V30 5845 H 562.189 0.591268 -3.3817 0
M  V30 5846 N 564.634 1.40294 0.718013 0
M  V30 5847 C 566.05 1.2227 1.02577 0
M  V30 5848 C 566.25 0.0961976 2.0127 0
M  V30 5849 O 565.306 -0.546695 2.46511 0
M  V30 5850 C 566.619 2.56348 1.57182 0
M  V30 5851 C 568.167 2.6334 1.69178 0
M  V30 5852 C 568.642 3.9768 2.27188 0
M  V30 5853 N 570.133 3.99409 2.34578 0
M  V30 5854 C 570.868 5.00141 2.8044 0
M  V30 5855 N 570.364 6.11268 3.26073 0
M  V30 5856 N 572.157 4.87511 2.79802 0
M  V30 5857 H 564.308 2.12304 0.0637899 0
M  V30 5858 H 566.571 0.943632 0.0909036 0
M  V30 5859 H 566.277 3.3942 0.921262 0
M  V30 5860 H 566.151 2.77266 2.55741 0
M  V30 5861 H 568.538 1.80641 2.33351 0
M  V30 5862 H 568.619 2.46255 0.692247 0
M  V30 5863 H 568.263 4.80817 1.63638 0
M  V30 5864 H 568.193 4.12093 3.27852 0
M  V30 5865 H 570.684 3.19162 2.02346 0
M  V30 5866 H 570.997 6.84023 3.59628 0
M  V30 5867 H 569.342 6.14837 3.24038 0
M  V30 5868 H 572.533 3.9979 2.43487 0
M  V30 5869 H 572.706 5.66158 3.15228 0
M  V30 5870 N 566.112 -0.949982 1.2575 0
M  V30 5871 C 567.36 -1.6918 1.10555 0
M  V30 5872 C 567.681 -1.91773 -0.353298 0
M  V30 5873 O 566.951 -1.50814 -1.25027 0
M  V30 5874 H 565.531 -0.626952 0.406129 0
M  V30 5875 H 568.193 -1.1419 1.57945 0
M  V30 5876 H 567.289 -2.66915 1.61749 0
M  V30 5877 N 567.59 -1.07411 -1.15328 0
M  V30 5878 C 569.006 -0.799759 -1.38116 0
M  V30 5879 C 569.206 0.59572 -1.92493 0
M  V30 5880 O 568.262 1.35433 -2.13106 0
M  V30 5881 C 569.575 -1.87407 -2.35158 0
M  V30 5882 C 571.123 -1.89889 -2.48819 0
M  V30 5883 C 571.598 -2.96406 -3.49153 0
M  V30 5884 N 573.089 -2.95512 -3.56689 0
M  V30 5885 C 573.824 -3.74575 -4.34144 0
M  V30 5886 N 573.32 -4.63488 -5.14928 0
M  V30 5887 N 575.113 -3.62919 -4.29239 0
M  V30 5888 H 567.264 -1.97411 -0.78374 0
M  V30 5889 H 569.527 -0.856113 -0.407154 0
M  V30 5890 H 569.233 -2.8768 -2.0232 0
M  V30 5891 H 569.107 -1.73471 -3.34944 0
M  V30 5892 H 571.494 -0.902677 -2.80955 0
M  V30 5893 H 571.575 -2.07904 -1.49029 0
M  V30 5894 H 571.219 -3.96227 -3.17752 0
M  V30 5895 H 571.149 -2.75638 -4.48699 0
M  V30 5896 H 573.64 -2.31061 -2.99031 0
M  V30 5897 H 573.953 -5.20445 -5.71276 0
M  V30 5898 H 572.298 -4.67537 -5.14232 0
M  V30 5899 H 575.489 -2.92833 -3.65194 0
M  V30 5900 H 575.662 -4.24777 -4.89355 0
M  V30 5901 N 569.068 1.32177 -0.85831 0
M  V30 5902 C 570.316 1.96735 -0.462568 0
M  V30 5903 C 570.637 1.6824 0.985911 0
M  V30 5904 O 569.907 0.991564 1.68952 0
M  V30 5905 H 568.487 0.727849 -0.168064 0
M  V30 5906 H 571.149 1.61195 -1.09554 0
M  V30 5907 H 570.245 3.06068 -0.610647 0
M  V30 5908 N 570.547 0.616602 1.45037 0
M  V30 5909 C 571.477 -0.0840787 2.33349 0
M  V30 5910 C 572.458 -0.849641 1.4736 0
M  V30 5911 O 573.643 -0.818407 1.76113 0
M  V30 5912 C 570.773 -1.07604 3.3021 0
M  V30 5913 C 569.727 -0.423096 4.25904 0
M  V30 5914 C 569.053 -1.52394 5.12523 0
M  V30 5915 C 570.353 0.661457 5.18095 0
M  V30 5916 H 572.047 0.653333 2.92185 0
M  V30 5917 H 569.593 0.315634 1.40498 0
M  V30 5918 H 571.546 -1.57485 3.90866 0
M  V30 5919 H 570.27 -1.84416 2.69552 0
M  V30 5920 H 568.929 0.05493 3.66559 0
M  V30 5921 H 568.577 -2.28257 4.48227 0
M  V30 5922 H 568.277 -1.09251 5.77354 0
M  V30 5923 H 569.801 -2.02485 5.76049 0
M  V30 5924 H 571.215 0.246353 5.7277 0
M  V30 5925 H 569.612 1.01517 5.91451 0
M  V30 5926 H 570.682 1.53446 4.59981 0
M  V30 5927 N 572.025 -1.5352 0.356285 0
M  V30 5928 C 572.958 -2.2177 -0.537913 0
M  V30 5929 C 573.936 -1.20626 -1.09033 0
M  V30 5930 O 575.12 -1.49494 -1.1482 0
M  V30 5931 C 572.247 -2.90513 -1.74126 0
M  V30 5932 C 571.293 -4.05652 -1.31715 0
M  V30 5933 S 572.126 -5.34505 -0.326236 0
M  V30 5934 C 573.282 -6.06757 -1.53612 0
M  V30 5935 H 573.515 -2.97271 0.0417411 0
M  V30 5936 H 571.048 -1.53761 0.140372 0
M  V30 5937 H 573.006 -3.30735 -2.43155 0
M  V30 5938 H 571.667 -2.14754 -2.29215 0
M  V30 5939 H 570.86 -4.52733 -2.21471 0
M  V30 5940 H 570.462 -3.67272 -0.706183 0
M  V30 5941 H 572.754 -6.30924 -2.46863 0
M  V30 5942 H 573.697 -6.99395 -1.10687 0
M  V30 5943 H 574.105 -5.3708 -1.73796 0
M  V30 5944 N 573.503 -0.0852151 -1.57369 0
M  V30 5945 C 574.743 0.584297 -1.95871 0
M  V30 5946 C 575.107 1.6596 -0.965473 0
M  V30 5947 O 576.308 2.38561 -1.23862 0
M  V30 5948 C 574.579 1.13411 -3.38929 0
M  V30 5949 S 576.138 1.81687 -3.99419 0
M  V30 5950 H 572.956 0.19095 -0.684879 0
M  V30 5951 H 575.558 -0.162267 -1.94825 0
M  V30 5952 H 574.262 0.339845 -4.0899 0
M  V30 5953 H 573.793 1.91672 -3.43548 0
M  V30 5954 H 575.808 3.10037 -3.87417 0
M  V30 5955 N 574.981 1.5647 0.188427 0
M  V30 5956 C 575.944 1.9421 1.21718 0
M  V30 5957 C 576.944 0.823901 1.38089 0
M  V30 5958 O 578.134 1.09122 1.35787 0
M  V30 5959 C 575.266 2.22197 2.58537 0
M  V30 5960 H 576.459 2.86252 0.894418 0
M  V30 5961 H 574.012 1.50263 0.430211 0
M  V30 5962 H 574.747 1.32814 2.95856 0
M  V30 5963 H 574.532 3.03688 2.48025 0
M  V30 5964 H 576.022 2.52376 3.3271 0
M  V30 5965 N 576.459 -0.456382 1.50847 0
M  V30 5966 C 577.706 -1.20736 1.62571 0
M  V30 5967 C 578.034 -1.9163 0.332904 0
M  V30 5968 O 577.289 -1.8343 -0.682058 0
M  V30 5969 C 577.588 -2.26336 2.76599 0
M  V30 5970 C 577.254 -1.7259 4.16562 0
M  V30 5971 C 575.916 -1.57654 4.54641 0
M  V30 5972 C 578.268 -1.32877 5.03977 0
M  V30 5973 C 575.596 -1.0145 5.77862 0
M  V30 5974 C 577.948 -0.7811 6.27759 0
M  V30 5975 C 576.612 -0.618488 6.64628 0
M  V30 5976 H 575.882 -0.441803 0.594888 0
M  V30 5977 H 578.529 -0.501169 1.84826 0
M  V30 5978 H 576.834 -3.0292 2.48489 0
M  V30 5979 H 578.531 -2.84227 2.82871 0
M  V30 5980 H 575.121 -1.85187 3.86528 0
M  V30 5981 H 579.305 -1.43245 4.75179 0
M  V30 5982 H 574.561 -0.876109 6.0509 0
M  V30 5983 H 578.735 -0.464783 6.94847 0
M  V30 5984 H 576.362 -0.180838 7.59985 0
M  V30 5985 N 577.937 -1.40673 -0.710563 0
M  V30 5986 C 579.162 -1.42741 -1.50465 0
M  V30 5987 C 579.587 -0.0302116 -1.88076 0
M  V30 5988 O 578.945 0.962945 -1.53613 0
M  V30 5989 C 578.993 -2.32873 -2.75322 0
M  V30 5990 O 578.097 -1.77544 -3.72226 0
M  V30 5991 H 577.438 -0.485056 -0.45345 0
M  V30 5992 H 579.968 -1.84961 -0.874681 0
M  V30 5993 H 579.978 -2.48233 -3.23797 0
M  V30 5994 H 578.653 -3.34401 -2.47283 0
M  V30 5995 H 577.23 -1.71556 -3.31093 0
M  V30 5996 N 579.415 0.9433 -1.26252 0
M  V30 5997 C 580.345 2.05902 -1.10122 0
M  V30 5998 C 581.326 1.70099 -0.00700552 0
M  V30 5999 O 582.511 1.93377 -0.178641 0
M  V30 6000 C 579.641 3.39516 -0.731175 0
M  V30 6001 C 578.595 3.89372 -1.77688 0
M  V30 6002 C 577.921 5.19613 -1.26122 0
M  V30 6003 C 579.221 4.14489 -3.17799 0
M  V30 6004 H 580.915 2.19655 -2.03451 0
M  V30 6005 H 578.461 1.05548 -0.979576 0
M  V30 6006 H 580.414 4.17031 -0.605215 0
M  V30 6007 H 579.138 3.25733 0.23782 0
M  V30 6008 H 577.797 3.14036 -1.89148 0
M  V30 6009 H 577.445 5.02208 -0.282128 0
M  V30 6010 H 577.145 5.53939 -1.96023 0
M  V30 6011 H 578.669 5.99713 -1.14789 0
M  V30 6012 H 580.083 4.82625 -3.09428 0
M  V30 6013 H 578.48 4.60094 -3.85271 0
M  V30 6014 H 579.55 3.20347 -3.64014 0
M  V30 6015 N 580.893 1.08022 1.14757 0
M  V30 6016 C 582.304 0.829144 1.67279 0
M  V30 6017 C 582.655 -0.644721 1.85305 0
M  V30 6018 O 581.78 -1.49838 1.56133 0
M  V30 6019 C 582.375 1.49855 3.03857 0
M  V30 6020 C 580.934 1.29482 3.53428 0
M  V30 6021 C 580.081 1.56386 2.28995 0
M  V30 6022 H 583.032 1.24134 0.988762 0
M  V30 6023 H 583.053 0.923572 3.69121 0
M  V30 6024 H 582.565 2.57123 2.90705 0
M  V30 6025 H 580.666 0.242669 3.71809 0
M  V30 6026 H 580.779 2.01974 4.34446 0
M  V30 6027 H 579.143 0.985217 2.34874 0
M  V30 6028 H 579.926 2.64851 2.18423 0
M  V30 6029 N 582.371 -1.3172 0.865308 0
M  V30 6030 C 583.599 -2.01057 0.488251 0
M  V30 6031 C 584.014 -1.64979 -0.918 0
M  V30 6032 O 583.371 -0.876597 -1.60069 0
M  V30 6033 C 583.422 -3.55964 0.630224 0
M  V30 6034 O 583.143 -3.90749 1.98109 0
M  V30 6035 C 584.644 -4.42574 0.253567 0
M  V30 6036 H 581.864 -0.64332 0.190736 0
M  V30 6037 H 584.408 -1.68058 1.16519 0
M  V30 6038 H 582.563 -3.874 0.000895422 0
M  V30 6039 H 582.977 -4.85467 1.9855 0
M  V30 6040 H 584.451 -5.50521 0.403875 0
M  V30 6041 H 584.928 -4.31724 -0.806895 0
M  V30 6042 H 585.534 -4.16547 0.858404 0
M  V30 6043 N 583.85 -0.624285 -1.44708 0
M  V30 6044 C 585.077 -0.132919 -2.06473 0
M  V30 6045 C 585.493 1.18967 -1.46602 0
M  V30 6046 O 584.85 1.72824 -0.586341 0
M  V30 6047 C 584.901 -0.00465418 -3.615 0
M  V30 6048 O 584.622 -1.27494 -4.19138 0
M  V30 6049 C 586.123 0.516213 -4.40284 0
M  V30 6050 H 583.343 -0.0765201 -0.666623 0
M  V30 6051 H 585.887 -0.856751 -1.85688 0
M  V30 6052 H 584.042 0.669583 -3.8157 0
M  V30 6053 H 584.456 -1.11536 -5.12504 0
M  V30 6054 H 585.93 0.554994 -5.49203 0
M  V30 6055 H 586.407 1.5419 -4.11245 0
M  V30 6056 H 587.013 -0.124542 -4.25118 0
M  V30 6057 N 585.328 1.53329 -0.364422 0
M  V30 6058 C 586.291 2.24323 0.470292 0
M  V30 6059 C 587.291 1.25068 1.01067 0
M  V30 6060 O 588.481 1.49354 0.896605 0
M  V30 6061 C 585.613 2.97908 1.65722 0
M  V30 6062 H 586.806 2.9952 -0.150917 0
M  V30 6063 H 584.359 1.55868 -0.116092 0
M  V30 6064 H 585.094 2.2695 2.31655 0
M  V30 6065 H 584.879 3.70732 1.27671 0
M  V30 6066 H 586.369 3.5188 2.24878 0
M  V30 6067 N 586.806 0.0935595 1.57322 0
M  V30 6068 C 588.083 -0.612692 1.85756 0
M  V30 6069 C 588.463 -1.86439 0.99013 0
M  V30 6070 O 587.811 -2.28416 0.0621362 0
M  V30 6071 C 588.021 -0.929547 3.36393 0
M  V30 6072 C 589.369 -1.29366 4.04413 0
M  V30 6073 O 590.393 -1.02061 3.41265 0
M  V30 6074 O 589.252 -1.80498 5.15832 0
M  V30 6075 H 586.346 -0.306444 0.768128 0
M  V30 6076 H 588.892 0.126141 1.69231 0
M  V30 6077 H 587.664 -0.0414766 3.91278 0
M  V30 6078 H 587.287 -1.72441 3.5826 0
M  V30 6079 N 588.284 -1.56567 -0.180126 0
M  V30 6080 C 589.7 -1.50488 -0.531559 0
M  V30 6081 C 589.9 -0.796267 -1.851 0
M  V30 6082 O 588.956 -0.352978 -2.50021 0
M  V30 6083 C 590.269 -2.95201 -0.572456 0
M  V30 6084 C 591.817 -3.05957 -0.660264 0
M  V30 6085 C 592.292 -4.5211 -0.732135 0
M  V30 6086 N 593.783 -4.56322 -0.795262 0
M  V30 6087 C 594.518 -5.66742 -0.871296 0
M  V30 6088 N 594.014 -6.86815 -0.908708 0
M  V30 6089 N 595.807 -5.54691 -0.909639 0
M  V30 6090 H 587.958 -2.01045 0.685165 0
M  V30 6091 H 590.221 -0.915536 0.245962 0
M  V30 6092 H 589.927 -3.50165 0.328208 0
M  V30 6093 H 589.801 -3.49369 -1.422 0
M  V30 6094 H 592.188 -2.51032 -1.55136 0
M  V30 6095 H 592.269 -2.54888 0.215783 0
M  V30 6096 H 591.913 -5.07664 0.154664 0
M  V30 6097 H 591.843 -5.00926 -1.6242 0
M  V30 6098 H 594.334 -3.69868 -0.77499 0
M  V30 6099 H 594.647 -7.66718 -0.967654 0
M  V30 6100 H 592.992 -6.89443 -0.877132 0
M  V30 6101 H 596.183 -4.59804 -0.877353 0
M  V30 6102 H 596.356 -6.40768 -0.965434 0
M  V30 6103 N 589.762 0.448376 -1.51087 0
M  V30 6104 C 591.039 1.20926 -1.53741 0
M  V30 6105 C 591.419 2.09025 -0.295222 0
M  V30 6106 O 590.767 2.16851 0.720283 0
M  V30 6107 C 590.977 2.02067 -2.84552 0
M  V30 6108 C 592.325 2.59486 -3.36084 0
M  V30 6109 O 593.349 2.12289 -2.86028 0
M  V30 6110 O 592.208 3.45539 -4.23397 0
M  V30 6111 H 589.302 0.549951 -0.617643 0
M  V30 6112 H 591.848 0.458344 -1.63393 0
M  V30 6113 H 590.62 1.37291 -3.66425 0
M  V30 6114 H 590.243 2.84246 -2.78011 0
M  V30 6115 N 591.24 1.41047 0.703093 0
M  V30 6116 C 592.15 1.44645 1.84703 0
M  V30 6117 C 593.166 0.337778 1.7069 0
M  V30 6118 O 594.342 0.584327 1.92737 0
M  V30 6119 C 591.407 1.31928 3.20618 0
M  V30 6120 C 590.468 2.53047 3.46794 0
M  V30 6121 C 589.701 2.40927 4.76224 0
M  V30 6122 O 589.924 1.42978 5.5219 0
M  V30 6123 O 588.858 3.30543 5.03016 0
M  V30 6124 H 592.684 2.41139 1.84624 0
M  V30 6125 H 590.269 1.22504 0.855167 0
M  V30 6126 H 592.151 1.27092 4.01778 0
M  V30 6127 H 590.826 0.385469 3.21397 0
M  V30 6128 H 589.733 2.6346 2.65593 0
M  V30 6129 H 591.066 3.45231 3.50822 0
M  V30 6130 N 592.718 -0.936591 1.26751 0
M  V30 6131 C 593.648 -2.05315 1.11212 0
M  V30 6132 C 594.629 -1.70092 0.0160262 0
M  V30 6133 O 595.814 -1.93279 0.188894 0
M  V30 6134 C 592.944 -3.39123 0.749171 0
M  V30 6135 C 591.898 -3.88425 1.79751 0
M  V30 6136 C 591.224 -5.18936 1.28876 0
M  V30 6137 C 592.524 -4.12798 3.19992 0
M  V30 6138 H 594.218 -2.18573 2.04613 0
M  V30 6139 H 591.764 -1.05027 0.985159 0
M  V30 6140 H 593.717 -4.16704 0.627323 0
M  V30 6141 H 592.441 -3.25855 -0.220543 0
M  V30 6142 H 591.1 -3.13028 1.90811 0
M  V30 6143 H 590.748 -5.02051 0.308757 0
M  V30 6144 H 590.448 -5.52892 1.98958 0
M  V30 6145 H 591.972 -5.99096 1.17967 0
M  V30 6146 H 593.386 -4.80977 3.11983 0
M  V30 6147 H 591.783 -4.58044 3.87705 0
M  V30 6148 H 592.853 -3.18412 3.65707 0
M  V30 6149 N 594.196 -1.08629 -1.14182 0
M  V30 6150 C 595.445 -0.812271 -1.84621 0
M  V30 6151 C 595.758 0.664313 -1.83973 0
M  V30 6152 O 596.964 1.05357 -2.50224 0
M  V30 6153 C 595.42 -1.4031 -3.31423 0
M  V30 6154 C 595.028 -2.91164 -3.40481 0
M  V30 6155 C 596.772 -1.20767 -4.06959 0
M  V30 6156 C 594.679 -3.43373 -4.81507 0
M  V30 6157 H 593.609 -0.30019 -0.691666 0
M  V30 6158 H 596.26 -1.30798 -1.28701 0
M  V30 6159 H 594.642 -0.835096 -3.87094 0
M  V30 6160 H 595.816 -3.5412 -2.94848 0
M  V30 6161 H 594.131 -3.09646 -2.78403 0
M  V30 6162 H 596.728 -1.57237 -5.11058 0
M  V30 6163 H 597.071 -0.147664 -4.16038 0
M  V30 6164 H 597.604 -1.74274 -3.57594 0
M  V30 6165 H 594.343 -4.48958 -4.77616 0
M  V30 6166 H 593.863 -2.85176 -5.27669 0
M  V30 6167 H 595.542 -3.40095 -5.50404 0
M  V30 6168 N 595.674 1.31259 -0.872281 0
M  V30 6169 C 597.09 1.49283 -0.564521 0
M  V30 6170 C 597.29 1.80243 0.900807 0
M  V30 6171 O 596.346 1.88246 1.68284 0
M  V30 6172 C 597.659 2.62503 -1.46673 0
M  V30 6173 C 599.207 2.76386 -1.46901 0
M  V30 6174 C 599.682 3.92705 -2.35684 0
M  V30 6175 N 601.173 3.99995 -2.33577 0
M  V30 6176 C 601.908 4.89276 -2.98992 0
M  V30 6177 N 601.404 5.83443 -3.73585 0
M  V30 6178 N 603.197 4.82541 -2.88289 0
M  V30 6179 H 595.348 1.09432 -1.82039 0
M  V30 6180 H 597.611 0.540949 -0.77851 0
M  V30 6181 H 597.317 2.46407 -2.50951 0
M  V30 6182 H 597.191 3.58695 -1.16696 0
M  V30 6183 H 599.578 2.91894 -0.433796 0
M  V30 6184 H 599.659 1.80853 -1.80903 0
M  V30 6185 H 599.303 3.77954 -3.39283 0
M  V30 6186 H 599.233 4.87549 -1.99006 0
M  V30 6187 H 601.724 3.32624 -1.7936 0
M  V30 6188 H 602.037 6.48303 -4.20622 0
M  V30 6189 H 600.382 5.83415 -3.77694 0
M  V30 6190 H 603.573 4.07951 -2.2955 0
M  V30 6191 H 603.746 5.51916 -3.39549 0
M  V30 6192 N 597.152 0.631951 1.44375 0
M  V30 6193 C 598.084 -0.110911 2.28931 0
M  V30 6194 C 599.097 -0.808086 1.41329 0
M  V30 6195 O 600.286 -0.669396 1.65473 0
M  V30 6196 C 597.386 -1.17928 3.1772 0
M  V30 6197 C 596.559 -0.564458 4.33743 0
M  V30 6198 C 595.618 -1.5269 5.0356 0
M  V30 6199 O 594.644 -1.04372 5.59549 0
M  V30 6200 N 595.846 -2.86123 5.05088 0
M  V30 6201 H 598.611 0.614758 2.93327 0
M  V30 6202 H 596.172 0.473171 1.54831 0
M  V30 6203 H 598.164 -1.82348 3.61291 0
M  V30 6204 H 596.734 -1.80717 2.55069 0
M  V30 6205 H 595.954 0.258373 3.93352 0
M  V30 6206 H 597.242 -0.134355 5.08623 0
M  V30 6207 H 596.64 -3.27959 4.60933 0
M  V30 6208 H 595.197 -3.45901 5.52445 0
M  V30 6209 N 598.631 -1.53133 0.372548 0
M  V30 6210 C 599.561 -2.28876 -0.462412 0
M  V30 6211 C 600.542 -1.31583 -1.07796 0
M  V30 6212 O 601.727 -1.60461 -1.09389 0
M  V30 6213 C 598.857 -3.08317 -1.59868 0
M  V30 6214 C 597.811 -4.13355 -1.11003 0
M  V30 6215 C 597.137 -4.8092 -2.33708 0
M  V30 6216 C 598.437 -5.21955 -0.18983 0
M  V30 6217 H 600.131 -2.9892 0.169511 0
M  V30 6218 H 597.677 -1.43761 0.0829658 0
M  V30 6219 H 599.63 -3.60055 -2.18949 0
M  V30 6220 H 598.354 -2.35976 -2.25794 0
M  V30 6221 H 597.013 -3.62573 -0.541869 0
M  V30 6222 H 596.661 -4.05144 -2.98106 0
M  V30 6223 H 596.361 -5.51904 -2.01682 0
M  V30 6224 H 597.885 -5.35455 -2.93462 0
M  V30 6225 H 599.299 -5.69153 -0.688319 0
M  V30 6226 H 597.696 -6.00087 0.0398887 0
M  V30 6227 H 598.766 -4.78811 0.766057 0
M  V30 6228 N 600.109 -0.101901 -1.5727 0
M  V30 6229 C 601.355 0.554864 -1.95686 0
M  V30 6230 C 601.71 1.65368 -0.983415 0
M  V30 6231 O 601.003 1.91597 -0.0105374 0
M  V30 6232 C 601.197 1.14898 -3.38427 0
M  V30 6233 C 601.026 0.109251 -4.49567 0
M  V30 6234 C 599.796 -0.316633 -5.04307 0
M  V30 6235 C 601.994 -0.665196 -5.0998 0
M  V30 6236 N 599.976 -1.34393 -5.99009 0
M  V30 6237 C 601.347 -1.54413 -6.00464 0
M  V30 6238 C 603.402 -0.717966 -4.92696 0
M  V30 6239 C 602.105 -2.47122 -6.75517 0
M  V30 6240 C 604.131 -1.63268 -5.68417 0
M  V30 6241 C 603.493 -2.49923 -6.58572 0
M  V30 6242 H 599.592 0.17317 -0.762585 0
M  V30 6243 H 602.176 -0.18605 -1.93809 0
M  V30 6244 H 600.347 1.85969 -3.40984 0
M  V30 6245 H 602.079 1.76867 -3.64006 0
M  V30 6246 H 598.834 0.0724419 -4.73545 0
M  V30 6247 H 599.258 -1.85598 -6.51062 0
M  V30 6248 H 603.9 -0.0621637 -4.22754 0
M  V30 6249 H 601.618 -3.13724 -7.44717 0
M  V30 6250 H 605.204 -1.67874 -5.57054 0
M  V30 6251 H 604.084 -3.19553 -7.16139 0
M  V30 6252 N 601.587 1.56661 0.17182 0
M  V30 6253 C 602.519 1.92934 1.2373 0
M  V30 6254 C 603.532 0.822385 1.40502 0
M  V30 6255 O 604.721 1.10083 1.40514 0
M  V30 6256 C 601.821 2.16651 2.60607 0
M  V30 6257 C 600.994 3.47878 2.6514 0
M  V30 6258 C 600.053 3.60429 3.83377 0
M  V30 6259 O 599.079 4.33051 3.69398 0
M  V30 6260 N 600.281 2.95241 4.99813 0
M  V30 6261 H 603.046 2.84931 0.929205 0
M  V30 6262 H 600.607 1.5781 0.361588 0
M  V30 6263 H 602.599 2.22312 3.38171 0
M  V30 6264 H 601.169 1.3104 2.83809 0
M  V30 6265 H 600.389 3.53879 1.73675 0
M  V30 6266 H 601.677 4.34232 2.6518 0
M  V30 6267 H 601.075 2.3611 5.14071 0
M  V30 6268 H 599.632 3.06499 5.75241 0
M  V30 6269 N 603.065 -0.440357 1.51323 0
M  V30 6270 C 604.481 -0.7766 1.39431 0
M  V30 6271 C 604.681 -1.95838 0.474296 0
M  V30 6272 O 603.737 -2.52398 -0.0716692 0
M  V30 6273 C 605.05 -1.05981 2.81405 0
M  V30 6274 C 606.598 -1.16442 2.90534 0
M  V30 6275 C 607.073 -1.48058 4.33408 0
M  V30 6276 N 608.564 -1.54988 4.36501 0
M  V30 6277 C 609.299 -1.81017 5.44078 0
M  V30 6278 N 608.795 -2.04858 6.61819 0
M  V30 6279 N 610.588 -1.82774 5.31554 0
M  V30 6280 H 602.739 0.338006 2.09693 0
M  V30 6281 H 605.002 0.0888072 0.943831 0
M  V30 6282 H 604.708 -0.264173 3.50706 0
M  V30 6283 H 604.582 -1.98822 3.20546 0
M  V30 6284 H 606.969 -1.95068 2.21432 0
M  V30 6285 H 607.05 -0.215088 2.54894 0
M  V30 6286 H 606.694 -0.699605 5.03059 0
M  V30 6287 H 606.624 -2.44192 4.66559 0
M  V30 6288 H 609.115 -1.38479 3.51613 0
M  V30 6289 H 609.428 -2.2408 7.396 0
M  V30 6290 H 607.773 -2.02187 6.6494 0
M  V30 6291 H 610.964 -1.63665 4.38556 0
M  V30 6292 H 611.137 -2.02722 6.15474 0
M  V30 6293 N 604.543 -1.41418 -0.695603 0
M  V30 6294 C 605.506 -1.42988 -1.79129 0
M  V30 6295 C 606.506 -0.320514 -1.57573 0
M  V30 6296 O 607.696 -0.58039 -1.64247 0
M  V30 6297 C 604.828 -1.24122 -3.175 0
M  V30 6298 H 606.021 -2.40526 -1.7913 0
M  V30 6299 H 603.574 -1.2756 -0.903225 0
M  V30 6300 H 604.309 -0.274253 -3.23138 0
M  V30 6301 H 604.094 -2.045 -3.34547 0
M  V30 6302 H 605.584 -1.28056 -3.97481 0
M  V30 6303 N 606.021 0.929856 -1.27246 0
M  V30 6304 C 607.267 1.6798 -1.13625 0
M  V30 6305 C 607.6 1.91586 0.317589 0
M  V30 6306 O 606.875 1.50467 1.23247 0
M  V30 6307 C 607.158 3.04766 -1.91806 0
M  V30 6308 C 607.011 2.88415 -3.45162 0
M  V30 6309 C 608.33 4.05063 -1.72082 0
M  V30 6310 H 605.449 0.609632 -0.414147 0
M  V30 6311 H 608.091 1.0792 -1.56376 0
M  V30 6312 H 606.241 3.56034 -1.55474 0
M  V30 6313 H 607.913 2.44282 -3.91311 0
M  V30 6314 H 606.156 2.23802 -3.71611 0
M  V30 6315 H 606.827 3.85482 -3.95105 0
M  V30 6316 H 609.303 3.62798 -2.03757 0
M  V30 6317 H 608.179 4.98765 -2.29182 0
M  V30 6318 H 608.44 4.37021 -0.668206 0
M  V30 6319 N 607.499 1.09233 1.13605 0
M  V30 6320 C 608.748 0.82205 1.84188 0
M  V30 6321 C 609.061 -0.654548 1.84323 0
M  V30 6322 O 610.267 -1.04029 2.50779 0
M  V30 6323 C 608.723 1.42066 3.30674 0
M  V30 6324 C 608.331 2.92965 3.38933 0
M  V30 6325 C 610.075 1.22924 4.06313 0
M  V30 6326 C 607.982 3.45922 4.79679 0
M  V30 6327 H 606.912 0.303854 0.690064 0
M  V30 6328 H 609.563 1.31479 1.28006 0
M  V30 6329 H 607.945 0.855613 3.86646 0
M  V30 6330 H 609.119 3.55679 2.92966 0
M  V30 6331 H 607.434 3.11118 2.76757 0
M  V30 6332 H 610.031 1.59945 5.10217 0
M  V30 6333 H 610.374 0.169726 4.15954 0
M  V30 6334 H 610.907 1.76168 3.56665 0
M  V30 6335 H 607.646 4.51484 4.75229 0
M  V30 6336 H 607.166 2.87971 5.26149 0
M  V30 6337 H 608.845 3.43009 5.48592 0
M  V30 6338 N 608.977 -1.30795 0.87923 0
M  V30 6339 C 610.223 -1.96653 0.495519 0
M  V30 6340 C 610.556 -1.69282 -0.951703 0
M  V30 6341 O 609.831 -0.994374 -1.6716 0
M  V30 6342 C 610.114 -3.51898 0.764174 0
M  V30 6343 C 609.967 -3.88808 2.2616 0
M  V30 6344 C 611.286 -4.39462 0.236825 0
M  V30 6345 H 608.405 -0.7143 0.181507 0
M  V30 6346 H 611.047 -1.54765 1.10217 0
M  V30 6347 H 609.197 -3.87709 0.247841 0
M  V30 6348 H 610.869 -3.63051 2.8459 0
M  V30 6349 H 609.112 -3.37082 2.73053 0
M  V30 6350 H 609.783 -4.97086 2.4002 0
M  V30 6351 H 612.259 -4.10528 0.678683 0
M  V30 6352 H 611.135 -5.47018 0.454176 0
M  V30 6353 H 611.396 -4.33621 -0.861683 0
M  V30 6354 N 610.455 -0.639598 -1.44038 0
M  V30 6355 C 611.385 0.0469443 -2.33453 0
M  V30 6356 C 612.366 0.82609 -1.48694 0
M  V30 6357 O 613.551 0.790285 -1.77393 0
M  V30 6358 C 610.681 1.02338 -3.3188 0
M  V30 6359 C 609.635 0.355284 -4.26523 0
M  V30 6360 C 608.961 1.44221 -5.14883 0
M  V30 6361 C 610.261 -0.743798 -5.16977 0
M  V30 6362 H 611.955 -0.699735 -2.91108 0
M  V30 6363 H 609.501 -0.337946 -1.39978 0
M  V30 6364 H 611.454 1.51247 -3.93322 0
M  V30 6365 H 610.178 1.80105 -2.72451 0
M  V30 6366 H 608.837 -0.113239 -3.66425 0
M  V30 6367 H 608.485 2.21097 -4.51802 0
M  V30 6368 H 608.185 1.00052 -5.79019 0
M  V30 6369 H 609.709 1.93295 -5.79197 0
M  V30 6370 H 611.123 -0.337444 -5.72306 0
M  V30 6371 H 609.52 -1.10914 -5.89761 0
M  V30 6372 H 610.59 -1.60745 -4.57481 0
M  V30 6373 N 611.933 1.52934 -0.380664 0
M  V30 6374 C 613.344 1.86457 0.0952684 0
M  V30 6375 C 613.695 1.3007 1.46889 0
M  V30 6376 O 612.82 0.628636 2.07068 0
M  V30 6377 C 613.415 3.38323 0.179648 0
M  V30 6378 C 611.974 3.71589 0.599858 0
M  V30 6379 C 611.121 2.76228 -0.243572 0
M  V30 6380 H 614.072 1.46966 -0.59888 0
M  V30 6381 H 614.093 3.67113 1.00042 0
M  V30 6382 H 613.605 3.79333 -0.820228 0
M  V30 6383 H 611.706 3.36144 1.60742 0
M  V30 6384 H 611.819 4.77715 0.364003 0
M  V30 6385 H 610.183 2.53045 0.289855 0
M  V30 6386 H 610.966 3.20074 -1.24127 0
M  V30 6387 N 613.412 0.11024 1.57214 0
M  V30 6388 C 614.375 -0.828808 2.1369 0
M  V30 6389 C 615.375 -1.20059 1.06969 0
M  V30 6390 O 616.565 -1.12754 1.32786 0
M  V30 6391 C 613.697 -2.11959 2.66994 0
M  V30 6392 H 614.89 -0.338146 2.97988 0
M  V30 6393 H 612.443 -0.138913 1.55681 0
M  V30 6394 H 613.178 -2.65476 1.8626 0
M  V30 6395 H 612.963 -1.86258 3.45037 0
M  V30 6396 H 614.453 -2.79105 3.10629 0
M  V30 6397 N 614.89 -1.56749 -0.16351 0
M  V30 6398 C 616.138 -1.82074 -0.87713 0
M  V30 6399 C 616.459 -0.688503 -1.82441 0
M  V30 6400 O 615.729 0.291085 -1.93725 0
M  V30 6401 H 614.309 -0.671677 -0.326893 0
M  V30 6402 H 616.971 -1.9423 -0.161459 0
M  V30 6403 H 616.067 -2.76407 -1.44934 0
M  V30 6404 N 616.368 0.432326 -1.51554 0
M  V30 6405 C 617.331 1.50765 -1.72634 0
M  V30 6406 C 618.331 1.49334 -0.596314 0
M  V30 6407 O 619.521 1.51268 -0.863925 0
M  V30 6408 C 616.653 2.90284 -1.7874 0
M  V30 6409 H 617.846 1.33377 -2.68609 0
M  V30 6410 H 615.399 0.661329 -1.4162 0
M  V30 6411 H 616.134 3.13071 -0.845977 0
M  V30 6412 H 615.919 2.92727 -2.6087 0
M  V30 6413 H 617.409 3.68282 -1.96871 0
M  V30 6414 N 617.846 1.41785 0.688094 0
M  V30 6415 C 619.123 1.32031 1.44316 0
M  V30 6416 C 619.503 -0.0486079 2.11044 0
M  V30 6417 O 618.851 -1.06332 2.02252 0
M  V30 6418 C 619.061 2.47906 2.45649 0
M  V30 6419 C 620.409 2.89415 3.10683 0
M  V30 6420 O 621.433 2.477 2.55975 0
M  V30 6421 O 620.292 3.61573 4.09789 0
M  V30 6422 H 617.386 0.519994 0.643067 0
M  V30 6423 H 619.932 1.53765 0.71794 0
M  V30 6424 H 618.704 3.39222 1.95048 0
M  V30 6425 H 618.327 2.28089 3.25671 0
M  V30 6426 N 619.324 -0.923095 1.27737 0
M  V30 6427 C 620.552 -1.70525 1.17171 0
M  V30 6428 C 620.967 -1.86847 -0.270881 0
M  V30 6429 O 620.324 -1.38879 -1.18401 0
M  V30 6430 C 620.375 -3.10242 1.85559 0
M  V30 6431 O 620.096 -2.94683 3.24182 0
M  V30 6432 C 621.597 -4.04586 1.81176 0
M  V30 6433 H 618.817 -0.533347 0.407163 0
M  V30 6434 H 621.361 -1.15599 1.68692 0
M  V30 6435 H 619.516 -3.62014 1.3793 0
M  V30 6436 H 619.93 -3.83045 3.58297 0
M  V30 6437 H 621.404 -5.00119 2.33633 0
M  V30 6438 H 621.881 -4.3218 0.782099 0
M  V30 6439 H 622.487 -3.58741 2.2844 0
M  V30 6440 N 620.802 -1.09834 -1.13024 0
M  V30 6441 C 622.048 -0.83819 -1.84668 0
M  V30 6442 C 622.381 0.634645 -1.83537 0
M  V30 6443 O 621.656 1.46753 -1.27647 0
M  V30 6444 C 621.939 -1.37933 -3.32636 0
M  V30 6445 C 621.792 -2.91857 -3.42257 0
M  V30 6446 C 623.111 -1.01654 -4.28199 0
M  V30 6447 H 620.23 -0.30595 -0.670495 0
M  V30 6448 H 622.872 -1.36044 -1.32635 0
M  V30 6449 H 621.022 -0.935111 -3.77078 0
M  V30 6450 H 622.694 -3.44759 -3.06495 0
M  V30 6451 H 620.937 -3.28776 -2.83 0
M  V30 6452 H 621.608 -3.24799 -4.46329 0
M  V30 6453 H 624.084 -1.39973 -3.9185 0
M  V30 6454 H 622.96 -1.42217 -5.30156 0
M  V30 6455 H 623.221 0.0747794 -4.42037 0
M  V30 6456 N 622.28 1.30327 -0.886154 0
M  V30 6457 C 623.696 1.48676 -0.580323 0
M  V30 6458 C 623.896 1.81189 0.881639 0
M  V30 6459 O 622.952 1.90021 1.66278 0
M  V30 6460 C 624.265 2.60932 -1.49449 0
M  V30 6461 C 625.813 2.74812 -1.49824 0
M  V30 6462 C 626.288 3.90183 -2.39836 0
M  V30 6463 N 627.779 3.97495 -2.37806 0
M  V30 6464 C 628.514 4.86078 -3.04165 0
M  V30 6465 N 628.01 5.79448 -3.79753 0
M  V30 6466 N 629.803 4.79456 -2.93391 0
M  V30 6467 H 621.954 1.07495 -1.8319 0
M  V30 6468 H 624.217 0.532661 -0.784204 0
M  V30 6469 H 623.923 2.43731 -2.5355 0
M  V30 6470 H 623.797 3.57437 -1.20494 0
M  V30 6471 H 626.184 2.91418 -0.464731 0
M  V30 6472 H 626.265 1.78924 -1.82811 0
M  V30 6473 H 625.909 3.74334 -3.43273 0
M  V30 6474 H 625.839 4.85411 -2.04166 0
M  V30 6475 H 628.33 3.30703 -1.82877 0
M  V30 6476 H 628.643 6.43805 -4.27475 0
M  V30 6477 H 626.988 5.79376 -3.8386 0
M  V30 6478 H 630.179 4.05494 -2.33864 0
M  V30 6479 H 630.352 5.48283 -3.45383 0
M  V30 6480 N 623.758 0.647228 1.43697 0
M  V30 6481 C 625.005 0.158188 2.01881 0
M  V30 6482 C 625.333 -1.22573 1.51017 0
M  V30 6483 O 624.588 -1.83086 0.69122 0
M  V30 6484 C 624.887 0.111481 3.57226 0
M  V30 6485 C 624.553 1.43633 4.27411 0
M  V30 6486 C 623.215 1.79915 4.463 0
M  V30 6487 C 625.567 2.31011 4.67208 0
M  V30 6488 C 622.895 3.03251 5.02251 0
M  V30 6489 C 625.247 3.53633 5.24525 0
M  V30 6490 C 623.911 3.90118 5.41631 0
M  V30 6491 H 623.181 0.0578851 0.738736 0
M  V30 6492 H 625.828 0.836746 1.72252 0
M  V30 6493 H 624.133 -0.650507 3.86362 0
M  V30 6494 H 625.83 -0.283682 3.99995 0
M  V30 6495 H 622.42 1.14403 4.1305 0
M  V30 6496 H 626.604 2.04272 4.52313 0
M  V30 6497 H 621.86 3.31575 5.13681 0
M  V30 6498 H 626.034 4.21561 5.5431 0
M  V30 6499 H 623.661 4.85768 5.84751 0
M  V30 6500 N 625.236 -1.5273 0.388769 0
M  V30 6501 C 626.652 -1.59553 0.0387049 0
M  V30 6502 C 626.852 -1.40278 -1.44652 0
M  V30 6503 O 625.908 -1.21951 -2.21098 0
M  V30 6504 C 627.221 -2.9625 0.515409 0
M  V30 6505 C 628.769 -3.09426 0.471621 0
M  V30 6506 C 629.244 -4.48572 0.924505 0
M  V30 6507 N 630.735 -4.54754 0.880496 0
M  V30 6508 C 631.47 -5.60653 1.20234 0
M  V30 6509 N 630.966 -6.74198 1.59463 0
M  V30 6510 N 632.759 -5.50755 1.12363 0
M  V30 6511 H 624.91 -1.63508 1.35569 0
M  V30 6512 H 627.173 -0.768097 0.555636 0
M  V30 6513 H 626.879 -3.15569 1.5527 0
M  V30 6514 H 626.753 -3.77102 -0.085792 0
M  V30 6515 H 629.14 -2.89804 -0.556588 0
M  V30 6516 H 629.221 -2.30528 1.10862 0
M  V30 6517 H 628.865 -4.68936 1.95094 0
M  V30 6518 H 628.795 -5.25935 0.264524 0
M  V30 6519 H 631.286 -3.73237 0.591815 0
M  V30 6520 H 631.599 -7.5097 1.82385 0
M  V30 6521 H 629.944 -6.75531 1.63349 0
M  V30 6522 H 633.135 -4.6093 0.816169 0
M  V30 6523 H 633.308 -6.33184 1.37777 0
M  V30 6524 N 626.714 -0.118576 -1.57153 0
M  V30 6525 C 628.125 0.40687 -1.82213 0
M  V30 6526 C 628.476 1.66636 -1.03571 0
M  V30 6527 O 627.601 2.14682 -0.272171 0
M  V30 6528 C 628.196 0.744949 -3.30509 0
M  V30 6529 C 626.755 1.21503 -3.5625 0
M  V30 6530 C 625.902 0.223511 -2.76398 0
M  V30 6531 H 628.853 -0.343712 -1.54933 0
M  V30 6532 H 628.874 1.6024 -3.45114 0
M  V30 6533 H 628.386 -0.171911 -3.87719 0
M  V30 6534 H 626.487 2.1488 -3.04396 0
M  V30 6535 H 626.6 1.16065 -4.64829 0
M  V30 6536 H 624.964 0.71046 -2.44591 0
M  V30 6537 H 625.747 -0.686439 -3.36367 0
M  V30 6538 N 628.193 1.56834 0.155195 0
M  V30 6539 C 629.604 1.72421 0.716082 0
M  V30 6540 C 629.955 0.731685 1.82046 0
M  V30 6541 O 629.08 -0.103481 2.16152 0
M  V30 6542 C 629.675 3.12629 1.30571 0
M  V30 6543 C 628.234 3.29846 1.81325 0
M  V30 6544 C 627.381 2.68359 0.698494 0
M  V30 6545 H 630.332 1.58544 -0.0703861 0
M  V30 6546 H 630.353 3.12174 2.1755 0
M  V30 6547 H 629.865 3.84844 0.501701 0
M  V30 6548 H 627.966 2.62614 2.64319 0
M  V30 6549 H 628.079 4.37727 1.9476 0
M  V30 6550 H 626.443 2.28604 1.12305 0
M  V30 6551 H 627.226 3.43171 -0.0939366 0
M  V30 6552 N 629.671 -0.424282 1.51781 0
M  V30 6553 C 630.601 -1.52305 1.7699 0
M  V30 6554 C 631.582 -1.5839 0.620209 0
M  V30 6555 O 632.767 -1.73908 0.864268 0
M  V30 6556 C 629.897 -2.90271 1.90683 0
M  V30 6557 C 628.851 -2.99043 3.06198 0
M  V30 6558 C 628.177 -4.39116 3.05092 0
M  V30 6559 C 629.477 -2.7192 4.45934 0
M  V30 6560 H 631.171 -1.31461 2.68995 0
M  V30 6561 H 628.717 -0.630985 1.29439 0
M  V30 6562 H 630.67 -3.6711 2.06901 0
M  V30 6563 H 629.394 -3.12376 0.953365 0
M  V30 6564 H 628.053 -2.24646 2.89706 0
M  V30 6565 H 627.701 -4.58207 2.07498 0
M  V30 6566 H 627.401 -4.45912 3.82669 0
M  V30 6567 H 628.925 -5.17911 3.2342 0
M  V30 6568 H 630.339 -3.38487 4.62709 0
M  V30 6569 H 628.736 -2.90111 5.25315 0
M  V30 6570 H 629.806 -1.67445 4.55072 0
M  V30 6571 N 631.149 -1.42148 -0.680565 0
M  V30 6572 C 632.377 -1.45696 -1.46902 0
M  V30 6573 C 632.792 -0.0665858 -1.88683 0
M  V30 6574 O 632.149 0.917436 -1.57764 0
M  V30 6575 C 632.2 -2.37898 -2.72188 0
M  V30 6576 O 631.921 -3.71526 -2.32163 0
M  V30 6577 C 633.422 -2.50407 -3.65802 0
M  V30 6578 H 630.642 -0.495729 -0.45221 0
M  V30 6579 H 633.186 -1.866 -0.836709 0
M  V30 6580 H 631.341 -2.00263 -3.31622 0
M  V30 6581 H 631.755 -4.20849 -3.13027 0
M  V30 6582 H 633.229 -3.19056 -4.50452 0
M  V30 6583 H 633.706 -1.5401 -4.11312 0
M  V30 6584 H 634.312 -2.8874 -3.12265 0
M  V30 6585 N 632.627 0.916307 -1.28225 0
M  V30 6586 C 633.873 1.66765 -1.154 0
M  V30 6587 C 634.206 1.91912 0.297251 0
M  V30 6588 O 633.481 1.51766 1.21644 0
M  V30 6589 C 633.764 3.02715 -1.95028 0
M  V30 6590 C 633.617 2.84738 -3.48201 0
M  V30 6591 C 634.936 4.03215 -1.76369 0
M  V30 6592 H 632.055 0.605205 -0.42059 0
M  V30 6593 H 634.697 1.06255 -1.57512 0
M  V30 6594 H 632.847 3.54365 -1.59242 0
M  V30 6595 H 634.519 2.40118 -3.9388 0
M  V30 6596 H 632.762 2.19848 -3.73964 0
M  V30 6597 H 633.433 3.8127 -3.99171 0
M  V30 6598 H 635.909 3.60617 -2.07593 0
M  V30 6599 H 634.785 4.96306 -2.34459 0
M  V30 6600 H 635.046 4.36288 -0.71452 0
M  V30 6601 N 634.105 1.10431 1.1244 0
M  V30 6602 C 635.33 0.869089 1.88313 0
M  V30 6603 C 635.755 -0.574912 1.79099 0
M  V30 6604 O 635.113 -1.40496 1.14589 0
M  V30 6605 C 635.161 1.32208 3.3549 0
M  V30 6606 O 634.265 0.487092 4.09513 0
M  V30 6607 H 633.606 0.313894 0.585121 0
M  V30 6608 H 636.136 1.47111 1.42195 0
M  V30 6609 H 636.146 1.31201 3.86329 0
M  V30 6610 H 634.821 2.37364 3.41513 0
M  V30 6611 H 633.398 0.562372 3.68635 0
M  V30 6612 N 635.583 -1.29855 0.893053 0
M  V30 6613 C 636.811 -1.99976 0.530788 0
M  V30 6614 C 637.226 -1.66889 -0.882799 0
M  V30 6615 O 636.583 -0.910352 -1.58173 0
M  V30 6616 C 636.634 -3.54547 0.705587 0
M  V30 6617 O 636.355 -3.86458 2.06353 0
M  V30 6618 C 637.856 -4.41937 0.347387 0
M  V30 6619 H 635.076 -0.639129 0.204339 0
M  V30 6620 H 637.62 -1.65549 1.20057 0
M  V30 6621 H 635.775 -3.87311 0.0830685 0
M  V30 6622 H 636.189 -4.81146 2.08803 0
M  V30 6623 H 637.663 -5.4954 0.520557 0
M  V30 6624 H 638.14 -4.33339 -0.715139 0
M  V30 6625 H 638.746 -4.14633 0.946567 0
M  V30 6626 N 637.061 -0.65484 -1.43351 0
M  V30 6627 C 638.024 0.0263562 -2.29185 0
M  V30 6628 C 639.024 0.748951 -1.42293 0
M  V30 6629 O 640.214 0.589957 -1.63906 0
M  V30 6630 C 637.346 1.04806 -3.2439 0
M  V30 6631 H 638.539 -0.728883 -2.90908 0
M  V30 6632 H 636.092 -0.416149 -1.50658 0
M  V30 6633 H 636.827 1.83247 -2.67565 0
M  V30 6634 H 636.612 0.533554 -3.88453 0
M  V30 6635 H 638.102 1.52372 -3.88809 0
M  V30 6636 N 638.539 1.52521 -0.396863 0
M  V30 6637 C 639.449 2.30403 0.44178 0
M  V30 6638 C 640.465 1.37625 1.06468 0
M  V30 6639 O 641.641 1.70697 1.06886 0
M  V30 6640 C 638.706 3.1013 1.54986 0
M  V30 6641 C 637.767 4.18628 0.951279 0
M  V30 6642 C 637 4.94543 2.00655 0
M  V30 6643 O 637.223 4.70629 3.22281 0
M  V30 6644 O 636.157 5.797 1.61962 0
M  V30 6645 H 639.983 3.03087 -0.192892 0
M  V30 6646 H 637.568 1.48537 -0.16038 0
M  V30 6647 H 639.45 3.59816 2.19341 0
M  V30 6648 H 638.125 2.40251 2.16935 0
M  V30 6649 H 637.032 3.73119 0.270773 0
M  V30 6650 H 638.365 4.90763 0.375887 0
M  V30 6651 N 640.017 0.126909 1.57088 0
M  V30 6652 C 641.266 -0.529024 1.94639 0
M  V30 6653 C 641.579 -1.67323 1.01304 0
M  V30 6654 O 642.785 -2.39245 1.28352 0
M  V30 6655 C 641.241 -0.992483 3.45945 0
M  V30 6656 C 640.849 0.123691 4.47829 0
M  V30 6657 C 642.593 -1.61934 3.924 0
M  V30 6658 C 640.5 -0.356911 5.90322 0
M  V30 6659 H 639.43 -0.201397 0.726605 0
M  V30 6660 H 642.081 0.208032 1.82317 0
M  V30 6661 H 640.463 -1.7842 3.53528 0
M  V30 6662 H 641.637 0.900168 4.51922 0
M  V30 6663 H 639.952 0.657699 4.11173 0
M  V30 6664 H 642.549 -1.9902 4.96281 0
M  V30 6665 H 642.892 -2.50075 3.32819 0
M  V30 6666 H 643.425 -0.892894 3.8765 0
M  V30 6667 H 640.164 0.488636 6.53676 0
M  V30 6668 H 639.684 -1.0997 5.89633 0
M  V30 6669 H 641.363 -0.815547 6.41839 0
M  V30 6670 N 641.495 -1.56914 -0.146875 0
M  V30 6671 C 642.772 -1.74273 -0.888165 0
M  V30 6672 C 643.152 -0.69496 -1.99333 0
M  V30 6673 O 642.5 0.286093 -2.26702 0
M  V30 6674 C 642.71 -3.18336 -1.43051 0
M  V30 6675 C 644.058 -3.80024 -1.89387 0
M  V30 6676 O 645.082 -3.21765 -1.52792 0
M  V30 6677 O 643.941 -4.82367 -2.56874 0
M  V30 6678 H 641.035 -0.712565 -0.419738 0
M  V30 6679 H 643.581 -1.6918 -0.132791 0
M  V30 6680 H 642.353 -3.86092 -0.636274 0
M  V30 6681 H 641.976 -3.27854 -2.24938 0
M  V30 6682 N 642.974 0.416227 -1.52004 0
M  V30 6683 C 643.937 1.48926 -1.74223 0
M  V30 6684 C 644.937 1.48693 -0.612119 0
M  V30 6685 O 646.127 1.50343 -0.879921 0
M  V30 6686 C 643.259 2.88372 -1.81809 0
M  V30 6687 H 644.452 1.3052 -2.70008 0
M  V30 6688 H 642.005 0.646271 -1.42313 0
M  V30 6689 H 642.74 3.12157 -0.879135 0
M  V30 6690 H 642.525 2.89944 -2.6396 0
M  V30 6691 H 644.015 3.66173 -2.00766 0
M  V30 6692 N 644.452 1.42507 0.673017 0
M  V30 6693 C 645.415 1.4582 1.76831 0
M  V30 6694 C 646.415 0.345542 1.57043 0
M  V30 6695 O 647.605 0.606447 1.63303 0
M  V30 6696 C 644.737 1.29158 3.15485 0
M  V30 6697 H 645.93 2.43345 1.7528 0
M  V30 6698 H 643.483 1.28981 0.882817 0
M  V30 6699 H 644.218 0.325626 3.22661 0
M  V30 6700 H 644.003 2.09797 3.31252 0
M  V30 6701 H 645.493 1.34363 3.95394 0
M  V30 6702 N 645.93 -0.909495 1.28709 0
M  V30 6703 C 647.179 -1.65365 1.15487 0
M  V30 6704 C 647.492 -1.93364 -0.294941 0
M  V30 6705 O 648.698 -2.65905 -0.548338 0
M  V30 6706 C 647.154 -2.97923 2.01916 0
M  V30 6707 C 646.762 -2.77556 3.51663 0
M  V30 6708 C 648.506 -3.75814 1.97393 0
M  V30 6709 C 646.413 -4.0578 4.30229 0
M  V30 6710 H 645.343 -0.620323 0.42862 0
M  V30 6711 H 647.994 -1.00894 1.53273 0
M  V30 6712 H 646.376 -3.63552 1.5699 0
M  V30 6713 H 647.55 -2.2058 4.04575 0
M  V30 6714 H 645.865 -2.13072 3.57756 0
M  V30 6715 H 648.462 -4.70866 2.53357 0
M  V30 6716 H 648.805 -4.05277 0.951643 0
M  V30 6717 H 649.338 -3.1701 2.40311 0
M  V30 6718 H 646.077 -3.81488 5.33055 0
M  V30 6719 H 645.597 -4.62351 3.82089 0
M  V30 6720 H 647.276 -4.74004 4.40374 0
M  V30 6721 N 647.408 -1.11026 -1.11852 0
M  V30 6722 C 648.371 -0.768006 -2.1595 0
M  V30 6723 C 649.371 0.210538 -1.59416 0
M  V30 6724 O 650.561 -0.0133978 -1.74195 0
M  V30 6725 C 647.693 -0.138678 -3.40618 0
M  V30 6726 H 648.886 -1.69012 -2.4774 0
M  V30 6727 H 646.439 -0.911578 -1.26964 0
M  V30 6728 H 647.174 0.793872 -3.14433 0
M  V30 6729 H 646.959 -0.843012 -3.8293 0
M  V30 6730 H 648.449 0.0848039 -4.17514 0
M  V30 6731 N 648.886 1.2938 -0.899927 0
M  V30 6732 C 649.849 2.25983 -0.382677 0
M  V30 6733 C 650.849 1.53366 0.483259 0
M  V30 6734 O 652.039 1.71798 0.28828 0
M  V30 6735 C 649.171 3.37878 0.452915 0
M  V30 6736 H 650.364 2.73252 -1.23586 0
M  V30 6737 H 647.917 1.40825 -0.678088 0
M  V30 6738 H 648.652 2.95949 1.32608 0
M  V30 6739 H 648.437 3.91742 -0.167562 0
M  V30 6740 H 649.927 4.09746 0.806107 0
M  V30 6741 N 650.364 0.662433 1.43002 0
M  V30 6742 C 651.61 0.179857 2.02001 0
M  V30 6743 C 651.943 -1.20625 1.52195 0
M  V30 6744 O 651.218 -1.80726 0.718911 0
M  V30 6745 C 651.501 0.200845 3.59539 0
M  V30 6746 C 651.354 1.62153 4.19555 0
M  V30 6747 C 652.673 -0.457738 4.37713 0
M  V30 6748 H 649.792 0.0668305 0.733964 0
M  V30 6749 H 652.434 0.84487 1.70182 0
M  V30 6750 H 650.584 -0.365411 3.86778 0
M  V30 6751 H 652.256 2.23908 4.03315 0
M  V30 6752 H 650.499 2.16601 3.75854 0
M  V30 6753 H 651.17 1.58799 5.28665 0
M  V30 6754 H 653.646 0.0241495 4.16093 0
M  V30 6755 H 652.522 -0.412363 5.47349 0
M  V30 6756 H 652.783 -1.53336 4.14657 0
M  V30 6757 N 651.842 -1.52309 0.404946 0
M  V30 6758 C 653.258 -1.59503 0.0556255 0
M  V30 6759 C 653.458 -1.41805 -1.43156 0
M  V30 6760 O 652.514 -1.2429 -2.19792 0
M  V30 6761 C 653.827 -2.95687 0.546801 0
M  V30 6762 C 655.375 -3.08909 0.504413 0
M  V30 6763 C 655.85 -4.47566 0.97203 0
M  V30 6764 N 657.341 -4.53795 0.928679 0
M  V30 6765 C 658.076 -5.59346 1.26174 0
M  V30 6766 N 657.572 -6.72469 1.66604 0
M  V30 6767 N 659.365 -5.49532 1.18198 0
M  V30 6768 H 651.516 -1.6206 1.37296 0
M  V30 6769 H 653.779 -0.762161 0.563751 0
M  V30 6770 H 653.485 -3.13905 1.58609 0
M  V30 6771 H 653.359 -3.77172 -0.0457905 0
M  V30 6772 H 655.746 -2.90378 -0.525819 0
M  V30 6773 H 655.827 -2.2934 1.13301 0
M  V30 6774 H 655.471 -4.6684 2.00057 0
M  V30 6775 H 655.401 -5.25625 0.320292 0
M  V30 6776 H 657.892 -3.72588 0.631369 0
M  V30 6777 H 658.205 -7.48993 1.9034 0
M  V30 6778 H 656.55 -6.73761 1.70504 0
M  V30 6779 H 659.741 -4.60038 0.865011 0
M  V30 6780 H 659.914 -6.31687 1.44485 0
M  V30 6781 N 653.32 -0.135238 -1.57019 0
M  V30 6782 C 654.545 0.529343 -2.00531 0
M  V30 6783 C 654.97 1.58391 -1.01459 0
M  V30 6784 O 654.328 1.81296 0.0113986 0
M  V30 6785 C 654.376 1.11748 -3.42848 0
M  V30 6786 O 653.48 2.23267 -3.46736 0
M  V30 6787 H 652.821 0.130669 -0.651016 0
M  V30 6788 H 655.351 -0.228503 -2.0332 0
M  V30 6789 H 655.361 1.44905 -3.81401 0
M  V30 6790 H 654.036 0.345147 -4.14465 0
M  V30 6791 H 652.613 1.91428 -3.20015 0
M  V30 6792 N 654.798 1.5699 0.138552 0
M  V30 6793 C 655.761 1.97984 1.15478 0
M  V30 6794 C 656.761 0.867416 1.35398 0
M  V30 6795 O 657.951 1.13387 1.32246 0
M  V30 6796 C 655.083 2.3031 2.51337 0
M  V30 6797 H 656.276 2.88953 0.802896 0
M  V30 6798 H 653.829 1.51555 0.382189 0
M  V30 6799 H 654.564 1.42159 2.91481 0
M  V30 6800 H 654.349 3.11425 2.38237 0
M  V30 6801 H 655.839 2.62834 3.24512 0
M  V30 6802 N 656.276 -0.40816 1.52223 0
M  V30 6803 C 657.206 -1.5042 1.78595 0
M  V30 6804 C 658.187 -1.57723 0.636974 0
M  V30 6805 O 659.372 -1.72982 0.882664 0
M  V30 6806 C 656.502 -2.88232 1.93751 0
M  V30 6807 C 655.456 -2.95779 3.09352 0
M  V30 6808 C 654.782 -4.35855 3.09732 0
M  V30 6809 C 656.082 -2.67175 4.48793 0
M  V30 6810 H 657.776 -1.28601 2.70374 0
M  V30 6811 H 655.322 -0.617221 1.30101 0
M  V30 6812 H 657.275 -3.64895 2.10783 0
M  V30 6813 H 655.999 -3.11347 0.986443 0
M  V30 6814 H 654.658 -2.21561 2.92072 0
M  V30 6815 H 654.306 -4.55981 2.12346 0
M  V30 6816 H 654.006 -4.41829 3.87377 0
M  V30 6817 H 655.53 -5.14451 3.28895 0
M  V30 6818 H 656.944 -3.3356 4.66273 0
M  V30 6819 H 655.341 -2.84523 5.28362 0
M  V30 6820 H 656.411 -1.62609 4.56822 0
M  V30 6821 N 657.755 -1.42862 -0.66545 0
M  V30 6822 C 659.166 -1.3901 -1.24632 0
M  V30 6823 C 659.517 -0.0880285 -1.96002 0
M  V30 6824 O 658.642 0.812947 -2.0055 0
M  V30 6825 C 659.237 -2.51806 -2.2667 0
M  V30 6826 C 657.796 -2.51257 -2.80262 0
M  V30 6827 C 656.943 -2.30124 -1.5472 0
M  V30 6828 H 659.894 -1.5194 -0.458237 0
M  V30 6829 H 659.915 -2.22593 -3.08598 0
M  V30 6830 H 659.427 -3.46558 -1.74697 0
M  V30 6831 H 657.528 -1.60349 -3.36332 0
M  V30 6832 H 657.641 -3.48614 -3.28641 0
M  V30 6833 H 656.005 -1.7856 -1.81627 0
M  V30 6834 H 656.788 -3.26945 -1.04699 0
M  V30 6835 N 659.233 0.902656 -1.29189 0
M  V30 6836 C 660.479 1.65532 -1.17163 0
M  V30 6837 C 660.812 1.92216 0.276879 0
M  V30 6838 O 660.087 1.53048 1.20027 0
M  V30 6839 C 660.37 3.00629 -1.98228 0
M  V30 6840 C 660.223 2.81029 -3.51202 0
M  V30 6841 C 661.542 4.01321 -1.80635 0
M  V30 6842 H 658.661 0.60071 -0.426985 0
M  V30 6843 H 661.303 1.04578 -1.5863 0
M  V30 6844 H 659.453 3.52656 -1.62991 0
M  V30 6845 H 661.125 2.35927 -3.96404 0
M  V30 6846 H 659.368 2.1587 -3.76275 0
M  V30 6847 H 660.039 3.77014 -4.03192 0
M  V30 6848 H 662.515 3.58394 -2.11406 0
M  V30 6849 H 661.391 4.93792 -2.3971 0
M  V30 6850 H 661.652 4.35505 -0.760754 0
M  V30 6851 N 660.711 1.11618 1.11262 0
M  V30 6852 C 661.957 0.867463 1.83311 0
M  V30 6853 C 662.29 -0.605366 1.84524 0
M  V30 6854 O 661.565 -1.44704 1.29965 0
M  V30 6855 C 661.848 1.43207 3.30399 0
M  V30 6856 C 661.701 2.97265 3.3757 0
M  V30 6857 C 663.02 1.08454 4.26528 0
M  V30 6858 H 660.139 0.316578 0.665543 0
M  V30 6859 H 662.781 1.38137 1.30454 0
M  V30 6860 H 660.931 0.994982 3.75543 0
M  V30 6861 H 662.603 3.49591 3.00971 0
M  V30 6862 H 660.846 3.33237 2.77733 0
M  V30 6863 H 661.517 3.31859 4.41105 0
M  V30 6864 H 663.993 1.4619 3.89574 0
M  V30 6865 H 662.869 1.50633 5.27826 0
M  V30 6866 H 663.13 -0.00444568 4.421 0
M  V30 6867 N 662.189 -1.289 0.906776 0
M  V30 6868 C 663.417 -1.99401 0.551969 0
M  V30 6869 C 663.832 -1.67816 -0.865048 0
M  V30 6870 O 663.189 -0.927078 -1.57199 0
M  V30 6871 C 663.24 -3.53779 0.743152 0
M  V30 6872 O 662.961 -3.84248 2.1044 0
M  V30 6873 C 664.462 -4.41543 0.39424 0
M  V30 6874 H 661.682 -0.636926 0.211106 0
M  V30 6875 H 664.226 -1.64266 1.21807 0
M  V30 6876 H 662.381 -3.87201 0.124143 0
M  V30 6877 H 662.795 -4.78904 2.13895 0
M  V30 6878 H 664.269 -5.48957 0.578814 0
M  V30 6879 H 664.746 -4.34073 -0.669137 0
M  V30 6880 H 665.352 -4.13605 0.990491 0
M  V30 6881 O 663.706 -0.809245 -1.39762 0
M  V30 6882 H 664.397 -0.38643 -1.89806 0
M  V30 END ATOM
M  V30 BEGIN BOND
M  V30 END BOND
M  V30 END CTAB
M  END
$$$$
