drugbank_target|P24941 Cyclin-dependent kinase 2 (DB01888; DB02010; DB02052; DB02091; DB02116; DB02197; DB02297; DB02407; DB02538; DB02603; DB02647; DB02733; DB02833; DB02898; DB02915; DB02950; DB02963; DB02973; DB03019; DB03307; DB03365; DB03428; DB03490; DB03496; DB03583; DB03663; DB03737; DB03801; DB04006; DB04101; DB04186; DB04288; DB04407; DB04518; DB04607; DB04662; DB04669; DB06195; DB06616; DB06844; DB06888; DB06944; DB06948; DB06976; DB06983; DB07024; DB07054; DB07065; DB07126; DB07137; DB07163; DB07164; DB07179; DB07203; DB07210; DB07220; DB07431; DB07471; DB07493; DB07501; DB07504; DB07529; DB07531; DB07533; DB07534; DB07538; DB07539; DB07540; DB07562; DB07595; DB07606; DB07612; DB07618; DB07622; DB07685; DB07686; DB07687; DB07688; DB07731; DB07750; DB07751; DB07755; DB07761; DB07790; DB07791; DB07852; DB07889; DB07936; DB07982; DB08066; DB08094; DB08122; DB08123; DB08124; DB08125; DB08126; DB08132; DB08133; DB08134; DB08135; DB08136; DB08137; DB08138; DB08139; DB08140; DB08141; DB08142; DB08178; DB08182; DB08218; DB08219; DB08233; DB08241; DB08247; DB08248; DB08285; DB08309; DB08312; DB08355; DB08441; DB08463; DB08527; DB08531; DB08532; DB08533; DB08534; DB08535; DB08536; DB08537; DB08538; DB08539; DB08572; DB08673; DB08677; DB08694; DB08768)
 OpenBabel12092119473D

  0  0  0     0  0            999 V3000
M  V30 BEGIN CTAB
M  V30 COUNTS 4848 4910 0 0 0
M  V30 BEGIN ATOM
M  V30 1 H -0.908 1.98254 -0.117106 0
M  V30 2 N 0 1.576 0 0
M  V30 3 C 0.933 2.03868 1.02534 0
M  V30 4 C 1.911 0.928543 1.3348 0
M  V30 5 O 3.095 1.19667 1.45644 0
M  V30 6 C 0.222 2.43627 2.35294 0
M  V30 7 C -0.732 3.65373 2.2001 0
M  V30 8 S 0.101 5.13292 1.52614 0
M  V30 9 C 1.257 5.56322 2.86805 0
M  V30 10 H 1.49 2.90518 0.631377 0
M  V30 11 H -0.977 1.52953 0.210867 0
M  V30 12 H 0.981 2.67203 3.11629 0
M  V30 13 H -0.358 1.57376 2.7183 0
M  V30 14 H -1.165 3.90944 3.18086 0
M  V30 15 H -1.563 3.418 1.51819 0
M  V30 16 H 0.729 5.58782 3.83104 0
M  V30 17 H 1.672 6.56266 2.65933 0
M  V30 18 H 2.08 4.83886 2.90714 0
M  V30 19 N 1.4781 -0.272755 1.55222 0
M  V30 20 C 2.3881 -1.35918 1.91216 0
M  V30 21 C 3.4041 -1.54026 0.809436 0
M  V30 22 O 4.5801 -1.68148 1.10852 0
M  V30 23 C 1.6451 -2.69834 2.17693 0
M  V30 24 C 0.7061 -2.6047 3.41253 0
M  V30 25 C -0.0609 -3.88 3.66458 0
M  V30 26 O 0.1621 -4.88693 2.94169 0
M  V30 27 O -0.9039 -3.88189 4.59992 0
M  V30 28 H 2.9221 -1.0839 2.83699 0
M  V30 29 H 0.5071 -0.471301 1.41771 0
M  V30 30 H 2.3891 -3.49017 2.36147 0
M  V30 31 H 1.0641 -2.97148 1.28392 0
M  V30 32 H -0.0289 -1.79663 3.28134 0
M  V30 33 H 1.3041 -2.38106 4.30774 0
M  V30 34 N 2.9562 -1.48159 -0.537278 0
M  V30 35 C 3.9042 -1.62573 -1.66352 0
M  V30 36 C 4.8982 -0.492366 -1.62087 0
M  V30 37 O 6.1042 -0.670847 -1.67032 0
M  V30 38 H 2.4792 -0.511992 -0.550789 0
M  V30 39 H 4.4502 -2.57176 -1.51337 0
M  V30 40 C 3.1992 -1.67583 -3.04649 0
M  V30 41 H 2.5222 -2.54151 -3.08622 0
M  V30 42 H 3.9622 -1.81713 -3.83088 0
M  V30 43 C 2.4212 -0.413039 -3.34358 0
M  V30 44 O 2.9512 0.477259 -3.98855 0
M  V30 45 N 1.1572 -0.286961 -2.8918 0
M  V30 46 H 0.7042 -1.01241 -2.36871 0
M  V30 47 H 0.6622 0.556963 -3.09427 0
M  V30 48 N 4.4343 0.785586 -1.36625 0
M  V30 49 C 5.6813 1.54362 -1.31067 0
M  V30 50 C 6.0093 1.94195 0.10893 0
M  V30 51 O 5.2643 1.63262 1.07908 0
M  V30 52 C 5.5633 2.83007 -2.1827 0
M  V30 53 C 5.2293 2.62294 -3.6676 0
M  V30 54 C 3.8913 2.56353 -4.0723 0
M  V30 55 C 6.2433 2.43371 -4.6089 0
M  V30 56 C 3.5713 2.29461 -5.39967 0
M  V30 57 C 5.9233 2.18005 -5.93849 0
M  V30 58 C 4.5873 2.105 -6.3344 0
M  V30 59 H 3.8573 0.564851 -0.479609 0
M  V30 60 H 6.5043 0.906028 -1.68711 0
M  V30 61 H 4.8093 3.51253 -1.73576 0
M  V30 62 H 6.5063 3.40817 -2.11292 0
M  V30 63 H 3.0963 2.67774 -3.34656 0
M  V30 64 H 7.2803 2.46959 -4.30494 0
M  V30 65 H 2.5363 2.22135 -5.69619 0
M  V30 66 H 6.7103 2.02359 -6.66351 0
M  V30 67 H 4.3373 1.89425 -7.36222 0
M  V30 68 N 5.9124 1.20967 1.01018 0
M  V30 69 C 6.8444 0.922059 2.09835 0
M  V30 70 C 7.8574 -0.0927106 1.62536 0
M  V30 71 O 9.0464 0.139127 1.77957 0
M  V30 72 C 6.1464 0.362004 3.36961 0
M  V30 73 C 5.3194 1.42986 4.13369 0
M  V30 74 C 4.3784 0.879976 5.1879 0
M  V30 75 O 3.4044 1.56219 5.47343 0
M  V30 76 N 4.6064 -0.307396 5.79686 0
M  V30 77 H 7.3714 1.8588 2.35093 0
M  V30 78 H 4.9324 1.11422 1.1746 0
M  V30 79 H 6.9244 -0.0201474 4.04695 0
M  V30 80 H 5.4944 -0.479437 3.08902 0
M  V30 81 H 4.7144 1.98608 3.40512 0
M  V30 82 H 6.0024 2.14885 4.61196 0
M  V30 83 H 5.4004 -0.878796 5.58832 0
M  V30 84 H 3.9574 -0.631115 6.48737 0
M  V30 85 N 7.3905 -1.2043 1.01659 0
M  V30 86 C 8.3375 -2.23215 0.586822 0
M  V30 87 C 9.3075 -1.61382 -0.393085 0
M  V30 88 O 10.4925 -1.88544 -0.292525 0
M  V30 89 C 7.6325 -3.45032 -0.0687464 0
M  V30 90 C 6.7455 -4.21296 0.955724 0
M  V30 91 C 5.8805 -5.30507 0.271208 0
M  V30 92 C 4.9195 -5.98515 1.28244 0
M  V30 93 N 4.0565 -6.99316 0.62459 0
M  V30 94 H 8.8965 -2.59336 1.46796 0
M  V30 95 H 6.4335 -1.27431 0.734836 0
M  V30 96 H 8.3915 -4.1459 -0.465965 0
M  V30 97 H 7.0215 -3.09604 -0.913529 0
M  V30 98 H 6.0735 -3.50803 1.4711 0
M  V30 99 H 7.3855 -4.6803 1.72479 0
M  V30 100 H 6.5395 -6.06428 -0.18151 0
M  V30 101 H 5.2785 -4.8481 -0.530163 0
M  V30 102 H 4.2835 -5.21355 1.74554 0
M  V30 103 H 5.5085 -6.46298 2.08509 0
M  V30 104 H 3.4545 -6.55812 -0.156914 0
M  V30 105 H 3.3715 -7.44178 1.33172 0
M  V30 106 H 4.6395 -7.79255 0.195462 0
M  V30 107 N 8.8686 -0.792821 -1.36206 0
M  V30 108 C 10.1146 -0.36733 -1.99446 0
M  V30 109 C 10.4476 1.05917 -1.62774 0
M  V30 110 O 9.7226 1.7324 -0.88421 0
M  V30 111 C 10.0056 -0.535044 -3.56103 0
M  V30 112 C 9.8586 -2.00548 -4.02617 0
M  V30 113 C 11.1776 0.0478191 -4.40074 0
M  V30 114 H 8.2966 -0.134941 -0.724541 0
M  V30 115 H 10.9386 -0.999794 -1.61568 0
M  V30 116 H 9.0886 0.00336329 -3.885 0
M  V30 117 H 10.7606 -2.60521 -3.80692 0
M  V30 118 H 9.0036 -2.50686 -3.54032 0
M  V30 119 H 9.6746 -2.07377 -5.11565 0
M  V30 120 H 12.1506 -0.411822 -4.14057 0
M  V30 121 H 11.0266 -0.0995336 -5.4881 0
M  V30 122 H 11.2876 1.14025 -4.27142 0
M  V30 123 N 10.3467 1.47872 -0.545128 0
M  V30 124 C 11.2567 2.33633 0.212746 0
M  V30 125 C 12.2727 1.4744 0.923983 0
M  V30 126 O 13.4487 1.80393 0.895572 0
M  V30 127 C 10.5137 3.23884 1.23693 0
M  V30 128 C 9.5747 4.25961 0.534417 0
M  V30 129 C 8.8077 5.11899 1.5098 0
M  V30 130 O 9.0307 5.00077 2.7437 0
M  V30 131 O 7.9647 5.92831 1.0409 0
M  V30 132 H 11.7907 2.99714 -0.490416 0
M  V30 133 H 9.3757 1.46235 -0.305871 0
M  V30 134 H 11.2577 3.79666 1.82843 0
M  V30 135 H 9.9327 2.60446 1.92222 0
M  V30 136 H 8.8397 3.73972 -0.0979679 0
M  V30 137 H 10.1727 4.92079 -0.109213 0
M  V30 138 N 11.8248 0.280983 1.55075 0
M  V30 139 C 12.7718 -0.603937 2.22758 0
M  V30 140 C 13.7418 -1.1452 1.20309 0
M  V30 141 O 14.9268 -1.19343 1.48869 0
M  V30 142 C 12.0668 -1.77947 2.95684 0
M  V30 143 C 11.1798 -1.2715 4.12864 0
M  V30 144 C 10.3148 -2.4093 4.7342 0
M  V30 145 C 9.3538 -1.87165 5.82783 0
M  V30 146 N 8.4908 -2.94441 6.37377 0
M  V30 147 H 13.3308 -0.020124 2.97993 0
M  V30 148 H 10.8678 0.00183425 1.471 0
M  V30 149 H 12.8258 -2.47055 3.36184 0
M  V30 150 H 11.4558 -2.33522 2.22861 0
M  V30 151 H 10.5078 -0.473331 3.77444 0
M  V30 152 H 11.8198 -0.837751 4.91715 0
M  V30 153 H 10.9738 -3.18021 5.1667 0
M  V30 154 H 9.7128 -2.87623 3.93859 0
M  V30 155 H 8.7178 -1.08556 5.38976 0
M  V30 156 H 9.9428 -1.41401 6.64216 0
M  V30 157 H 7.8888 -3.40505 5.60707 0
M  V30 158 H 7.8058 -2.55501 7.11516 0
M  V30 159 H 9.0738 -3.71489 6.85285 0
M  V30 160 N 13.3029 -1.57598 0.00835791 0
M  V30 161 C 14.5519 -1.90107 -0.673968 0
M  V30 162 C 14.8649 -0.884275 -1.7447 0
M  V30 163 O 16.0709 -1.09987 -2.48224 0
M  V30 164 C 14.5269 -3.37497 -1.24995 0
M  V30 165 C 14.1349 -4.47491 -0.2136 0
M  V30 166 C 15.8789 -3.79104 -1.90999 0
M  V30 167 C 13.7859 -5.85963 -0.80005 0
M  V30 168 H 12.7159 -0.709393 -0.255495 0
M  V30 169 H 15.3669 -1.83365 0.0702693 0
M  V30 170 H 13.7489 -3.39102 -2.04513 0
M  V30 171 H 14.9229 -4.57414 0.557596 0
M  V30 172 H 13.2379 -4.14956 0.346474 0
M  V30 173 H 15.8349 -4.79901 -2.35795 0
M  V30 174 H 16.1779 -3.1306 -2.74407 0
M  V30 175 H 16.7109 -3.79833 -1.18203 0
M  V30 176 H 13.4499 -6.555 -0.00456708 0
M  V30 177 H 12.9699 -5.79687 -1.54021 0
M  V30 178 H 14.6489 -6.33884 -1.29615 0
M  V30 179 N 14.781 0.264519 -1.55364 0
M  V30 180 C 16.029 0.993021 -1.76021 0
M  V30 181 C 16.35 1.86511 -0.569099 0
M  V30 182 O 15.62 1.91438 0.415735 0
M  V30 183 H 14.2 0.369639 -0.649135 0
M  V30 184 H 16.862 0.286707 -1.9278 0
M  V30 185 H 15.958 1.62502 -2.66457 0
M  V30 186 N 16.2591 1.48442 0.529413 0
M  V30 187 C 17.1691 1.6569 1.66084 0
M  V30 188 C 18.1851 0.539432 1.65427 0
M  V30 189 O 19.3611 0.810572 1.84368 0
M  V30 190 C 16.4261 1.69315 3.02545 0
M  V30 191 C 15.4871 2.92694 3.14052 0
M  V30 192 C 14.7201 2.96137 4.44003 0
M  V30 193 O 14.9431 2.07973 5.31134 0
M  V30 194 O 13.8771 3.88312 4.59888 0
M  V30 195 H 17.7031 2.61483 1.54469 0
M  V30 196 H 15.2881 1.3185 0.702567 0
M  V30 197 H 17.1701 1.74217 3.83701 0
M  V30 198 H 15.8451 0.766966 3.14483 0
M  V30 199 H 14.7521 2.93324 2.32189 0
M  V30 200 H 16.0851 3.84699 3.0703 0
M  V30 201 N 17.7372 -0.778329 1.37039 0
M  V30 202 C 18.9852 -1.53361 1.31623 0
M  V30 203 C 19.3062 -1.94739 -0.100831 0
M  V30 204 O 18.5762 -1.65797 -1.04347 0
M  V30 205 H 17.1562 -0.568794 0.484234 0
M  V30 206 H 19.8182 -0.926742 1.71457 0
M  V30 207 H 18.9142 -2.43606 1.95096 0
M  V30 208 N 19.2153 -1.21501 -1.00376 0
M  V30 209 C 20.4433 -1.059 -1.77744 0
M  V30 210 C 20.8583 0.391125 -1.84704 0
M  V30 211 O 20.2153 1.27133 -1.30933 0
M  V30 212 C 20.2663 -1.65111 -3.21591 0
M  V30 213 O 19.9873 -3.0445 -3.15027 0
M  V30 214 C 21.4883 -1.54637 -4.15454 0
M  V30 215 H 18.7083 -0.371825 -0.558558 0
M  V30 216 H 21.2523 -1.60865 -1.26264 0
M  V30 217 H 19.4073 -1.14235 -3.70175 0
M  V30 218 H 19.8213 -3.3278 -4.0541 0
M  V30 219 H 21.2953 -2.00808 -5.14179 0
M  V30 220 H 21.7723 -0.501022 -4.36333 0
M  V30 221 H 22.3783 -2.04767 -3.72761 0
M  V30 222 N 20.6934 1.19889 -1.02296 0
M  V30 223 C 21.9234 1.93109 -0.734332 0
M  V30 224 C 22.3314 1.75377 0.709889 0
M  V30 225 O 21.6744 1.06912 1.49384 0
M  V30 226 C 21.7364 3.45362 -0.99827 0
M  V30 227 C 21.4004 3.8686 -2.43287 0
M  V30 228 C 22.3974 3.92102 -3.41397 0
M  V30 229 C 20.0824 4.18668 -2.77529 0
M  V30 230 C 22.0764 4.28573 -4.71809 0
M  V30 231 C 19.7634 4.54813 -4.08153 0
M  V30 232 C 20.7614 4.59739 -5.05103 0
M  V30 233 O 20.4494 4.95051 -6.33388 0
M  V30 234 H 20.1814 0.620409 -0.268456 0
M  V30 235 H 22.7354 1.53144 -1.3688 0
M  V30 236 H 20.9654 3.85482 -0.306645 0
M  V30 237 H 22.6544 3.99814 -0.700234 0
M  V30 238 H 23.4204 3.67685 -3.1628 0
M  V30 239 H 19.2994 4.14021 -2.0275 0
M  V30 240 H 22.8434 4.32333 -5.4748 0
M  V30 241 H 18.7404 4.78687 -4.33047 0
M  V30 242 H 19.5084 5.1302 -6.37772 0
M  V30 243 N 22.1715 0.800033 1.35784 0
M  V30 244 C 23.4195 0.376597 1.9856 0
M  V30 245 C 23.7405 -1.05812 1.63795 0
M  V30 246 O 23.0105 -1.73103 0.917171 0
M  V30 247 H 21.5905 0.136261 0.734467 0
M  V30 248 H 24.2525 1.02442 1.65806 0
M  V30 249 H 23.3485 0.477002 3.08433 0
M  V30 250 N 23.6496 -1.47581 0.552962 0
M  V30 251 C 24.8956 -2.02782 0.0273648 0
M  V30 252 C 25.2286 -1.42687 -1.31734 0
M  V30 253 O 24.5036 -0.580897 -1.85623 0
M  V30 254 C 24.7866 -3.60031 -0.0702371 0
M  V30 255 C 24.6396 -4.30566 1.30126 0
M  V30 256 C 25.9586 -4.33028 -0.785771 0
M  V30 257 H 23.0776 -0.736912 0.0114185 0
M  V30 258 H 25.7196 -1.76056 0.714432 0
M  V30 259 H 23.8696 -3.82932 -0.655382 0
M  V30 260 H 25.5416 -4.19018 1.92929 0
M  V30 261 H 23.7846 -3.91086 1.87709 0
M  V30 262 H 24.4556 -5.39114 1.18573 0
M  V30 263 H 26.9316 -4.15095 -0.288982 0
M  V30 264 H 25.8076 -5.42695 -0.823013 0
M  V30 265 H 26.0686 -4.01945 -1.841 0
M  V30 266 N 25.1277 -0.289203 -1.54924 0
M  V30 267 C 26.3737 0.323998 -2.00195 0
M  V30 268 C 26.7067 1.54441 -1.17735 0
M  V30 269 O 25.9817 1.92875 -0.250878 0
M  V30 270 C 26.2647 0.692276 -3.53383 0
M  V30 271 C 26.1177 -0.536457 -4.46589 0
M  V30 272 C 27.4367 1.52335 -4.12895 0
M  V30 273 H 24.5557 0.116289 -0.727768 0
M  V30 274 H 27.1977 -0.398954 -1.85764 0
M  V30 275 H 25.3477 1.30822 -3.65811 0
M  V30 276 H 27.0197 -1.17499 -4.46085 0
M  V30 277 H 25.2627 -1.17192 -4.1767 0
M  V30 278 H 25.9337 -0.234806 -5.515 0
M  V30 279 H 28.4097 1.00302 -4.0383 0
M  V30 280 H 27.2857 1.74982 -5.20262 0
M  V30 281 H 27.5467 2.50886 -3.64018 0
M  V30 282 N 26.6058 1.57591 -0.0167156 0
M  V30 283 C 27.8358 1.95292 0.674149 0
M  V30 284 C 28.2438 0.891097 1.66901 0
M  V30 285 O 27.5868 -0.136908 1.83189 0
M  V30 286 C 27.6488 3.29072 1.44747 0
M  V30 287 C 27.3128 4.52879 0.612331 0
M  V30 288 C 28.3098 5.1979 -0.107126 0
M  V30 289 C 25.9948 4.99242 0.553381 0
M  V30 290 C 27.9888 6.31375 -0.874339 0
M  V30 291 C 25.6758 6.10713 -0.217546 0
M  V30 292 C 26.6738 6.76637 -0.930123 0
M  V30 293 O 26.3618 7.85969 -1.68844 0
M  V30 294 H 26.0938 0.648275 0.191615 0
M  V30 295 H 28.6478 2.05284 -0.0690148 0
M  V30 296 H 26.8778 3.15535 2.2355 0
M  V30 297 H 28.5668 3.51764 2.02526 0
M  V30 298 H 29.3328 4.84948 -0.0708392 0
M  V30 299 H 25.2118 4.47744 1.09757 0
M  V30 300 H 28.7558 6.82764 -1.43106 0
M  V30 301 H 24.6528 6.44994 -0.255593 0
M  V30 302 H 25.4208 8.02571 -1.6069 0
M  V30 303 N 28.0839 -0.256276 1.55502 0
M  V30 304 C 29.0309 -1.31714 1.89526 0
M  V30 305 C 30.0009 -1.4828 0.748479 0
M  V30 306 O 31.1859 -1.62416 1.00128 0
M  V30 307 C 28.3259 -2.66933 2.18725 0
M  V30 308 C 27.4389 -2.58452 3.4616 0
M  V30 309 C 26.5739 -3.85961 3.64976 0
M  V30 310 C 25.6129 -3.72059 4.86044 0
M  V30 311 N 24.7499 -4.9144 5.01429 0
M  V30 312 H 29.5899 -1.01998 2.80001 0
M  V30 313 H 27.1269 -0.492413 1.38613 0
M  V30 314 H 29.0849 -3.4563 2.33657 0
M  V30 315 H 27.7149 -2.94816 1.31466 0
M  V30 316 H 26.7669 -1.71374 3.3961 0
M  V30 317 H 28.0789 -2.44085 4.34999 0
M  V30 318 H 27.2329 -4.73101 3.79816 0
M  V30 319 H 25.9719 -4.03215 2.74353 0
M  V30 320 H 24.9769 -2.83302 4.7119 0
M  V30 321 H 26.2019 -3.56309 5.78118 0
M  V30 322 H 24.1479 -5.09072 4.13741 0
M  V30 323 H 24.0649 -4.79668 5.84341 0
M  V30 324 H 25.3329 -5.80104 5.20672 0
M  V30 325 N 29.562 -1.4872 -0.521534 0
M  V30 326 C 30.525 -1.63379 -1.60748 0
M  V30 327 C 31.525 -0.50661 -1.52611 0
M  V30 328 O 32.715 -0.772601 -1.5613 0
M  V30 329 C 29.847 -1.61192 -3.00383 0
M  V30 330 H 31.04 -2.60217 -1.49087 0
M  V30 331 H 28.593 -1.37444 -0.744235 0
M  V30 332 H 29.328 -0.65863 -3.17541 0
M  V30 333 H 29.113 -2.43032 -3.07698 0
M  V30 334 H 30.603 -1.7466 -3.7932 0
M  V30 335 N 31.0401 0.771051 -1.3745 0
M  V30 336 C 32.4561 1.07171 -1.18265 0
M  V30 337 C 32.6561 2.01491 -0.019287 0
M  V30 338 O 31.7121 2.44244 0.640408 0
M  V30 339 C 33.0251 1.66854 -2.50161 0
M  V30 340 C 34.5731 1.79109 -2.56689 0
M  V30 341 C 35.0481 2.42205 -3.88717 0
M  V30 342 N 36.5391 2.49655 -3.90162 0
M  V30 343 C 37.2741 2.9933 -4.8907 0
M  V30 344 N 36.7701 3.49172 -5.98374 0
M  V30 345 N 38.5631 2.9821 -4.76474 0
M  V30 346 H 30.7141 0.144796 -2.11906 0
M  V30 347 H 32.9771 0.126863 -0.939473 0
M  V30 348 H 32.6831 1.05017 -3.35655 0
M  V30 349 H 32.5571 2.6614 -2.673 0
M  V30 350 H 34.9441 2.40077 -1.71601 0
M  V30 351 H 35.0251 0.785757 -2.43433 0
M  V30 352 H 34.6691 1.81875 -4.74219 0
M  V30 353 H 34.5991 3.43345 -3.99276 0
M  V30 354 H 37.0901 2.14383 -3.11205 0
M  V30 355 H 37.4031 3.8548 -6.69795 0
M  V30 356 H 35.7481 3.47275 -6.02018 0
M  V30 357 H 38.9391 2.58572 -3.90203 0
M  V30 358 H 39.1121 3.36613 -5.53711 0
M  V30 359 N 32.5182 1.22032 0.997298 0
M  V30 360 C 33.4662 0.983634 2.10778 0
M  V30 361 C 34.4602 -0.0717564 1.69248 0
M  V30 362 O 35.6662 0.080304 1.79821 0
M  V30 363 H 32.0412 0.300877 0.689186 0
M  V30 364 H 34.0122 1.92606 2.27916 0
M  V30 365 C 32.7612 0.57326 3.42942 0
M  V30 366 H 32.0842 1.37702 3.75338 0
M  V30 367 H 33.5242 0.447031 4.21637 0
M  V30 368 C 31.9832 -0.7167 3.29188 0
M  V30 369 O 32.5132 -1.77027 3.60589 0
M  V30 370 N 30.7192 -0.686167 2.82383 0
M  V30 371 H 30.2662 0.171507 2.57028 0
M  V30 372 H 30.2242 -1.54955 2.73562 0
M  V30 373 N 33.9963 -1.19345 1.0293 0
M  V30 374 C 34.9433 -2.2258 0.610464 0
M  V30 375 C 35.9133 -1.6179 -0.375946 0
M  V30 376 O 37.0983 -1.88844 -0.272511 0
M  V30 377 C 34.2383 -3.45085 -0.0321473 0
M  V30 378 C 33.3513 -4.20258 1.00035 0
M  V30 379 C 32.4863 -5.3019 0.32746 0
M  V30 380 C 31.5253 -5.97121 1.34584 0
M  V30 381 N 30.6623 -6.98615 0.698726 0
M  V30 382 H 35.5023 -2.57764 1.49538 0
M  V30 383 H 33.0393 -1.26644 0.748311 0
M  V30 384 H 34.9973 -4.15061 -0.421966 0
M  V30 385 H 33.6273 -3.10555 -0.88064 0
M  V30 386 H 32.6793 -3.49223 1.50823 0
M  V30 387 H 33.9913 -4.66175 1.77433 0
M  V30 388 H 33.1453 -6.06587 -0.11718 0
M  V30 389 H 31.8843 -4.85345 -0.478713 0
M  V30 390 H 30.8893 -5.19474 1.80074 0
M  V30 391 H 32.1143 -6.4405 2.15352 0
M  V30 392 H 30.0603 -6.55942 -0.0873471 0
M  V30 393 H 29.9773 -7.42724 1.41058 0
M  V30 394 H 31.2453 -7.79004 0.278102 0
M  V30 395 N 35.4744 -0.807222 -1.35358 0
M  V30 396 C 36.4044 -0.232509 -2.3234 0
M  V30 397 C 37.3854 0.642386 -1.57504 0
M  V30 398 O 38.5704 0.572526 -1.85569 0
M  V30 399 C 35.7004 0.619238 -3.41735 0
M  V30 400 C 34.6544 -0.157215 -4.27711 0
M  V30 401 C 33.9804 0.816273 -5.28433 0
M  V30 402 C 35.2804 -1.35656 -5.04376 0
M  V30 403 H 36.9744 -1.04276 -2.80654 0
M  V30 404 H 34.5204 -0.50288 -1.34934 0
M  V30 405 H 36.4734 1.03137 -4.08584 0
M  V30 406 H 35.1974 1.46239 -2.92031 0
M  V30 407 H 33.8564 -0.550525 -3.62443 0
M  V30 408 H 33.5044 1.65494 -4.74996 0
M  V30 409 H 33.2044 0.301067 -5.86828 0
M  V30 410 H 34.7284 1.22659 -5.98153 0
M  V30 411 H 36.1424 -1.01927 -5.64166 0
M  V30 412 H 34.5394 -1.8063 -5.7227 0
M  V30 413 H 35.6094 -2.14288 -4.34981 0
M  V30 414 N 36.9525 1.47285 -0.560781 0
M  V30 415 C 38.1805 2.06855 -0.0430262 0
M  V30 416 C 38.5955 1.41291 1.25229 0
M  V30 417 O 37.9525 0.510648 1.7521 0
M  V30 418 C 38.0035 3.61178 0.152518 0
M  V30 419 O 37.7245 4.24285 -1.0915 0
M  V30 420 C 39.2255 4.37624 0.707145 0
M  V30 421 H 36.4455 0.669319 -0.0474652 0
M  V30 422 H 38.9895 1.89237 -0.77521 0
M  V30 423 H 37.1445 3.78298 0.834843 0
M  V30 424 H 37.5585 5.16868 -0.891482 0
M  V30 425 H 39.0325 5.46271 0.793244 0
M  V30 426 H 39.5095 4.04152 1.71923 0
M  V30 427 H 40.1155 4.25257 0.0604027 0
M  V30 428 N 38.4306 0.297415 1.54768 0
M  V30 429 C 39.6786 -0.312295 1.99673 0
M  V30 430 C 39.9996 -1.54686 1.18732 0
M  V30 431 O 39.2696 -1.93854 0.282382 0
M  V30 432 H 37.8496 -0.118381 0.73756 0
M  V30 433 H 40.5116 0.407915 1.90583 0
M  V30 434 H 39.6076 -0.586813 3.06534 0
M  V30 435 N 39.9087 -1.5758 0.0250728 0
M  V30 436 C 40.8187 -2.1343 -0.973905 0
M  V30 437 C 41.8347 -1.08556 -1.35984 0
M  V30 438 O 43.0107 -1.40592 -1.44207 0
M  V30 439 C 40.0757 -2.64703 -2.23904 0
M  V30 440 C 39.1367 -3.84276 -1.91391 0
M  V30 441 C 38.3697 -4.33095 -3.11873 0
M  V30 442 O 38.5927 -3.81107 -4.24398 0
M  V30 443 O 37.5267 -5.24984 -2.94406 0
M  V30 444 H 41.3527 -2.99057 -0.529036 0
M  V30 445 H 38.9377 -1.48118 -0.195288 0
M  V30 446 H 40.8197 -2.97769 -2.98181 0
M  V30 447 H 39.4947 -1.82161 -2.6758 0
M  V30 448 H 38.4017 -3.56143 -1.14511 0
M  V30 449 H 39.7347 -4.67968 -1.52534 0
M  V30 450 N 41.3868 0.248026 -1.55636 0
M  V30 451 C 42.6328 0.97767 -1.77678 0
M  V30 452 C 42.9658 1.85016 -0.590135 0
M  V30 453 O 42.2408 1.90095 0.411611 0
M  V30 454 C 42.5238 1.83914 -3.09593 0
M  V30 455 C 42.3768 0.99491 -4.38659 0
M  V30 456 C 43.6958 2.82183 -3.37729 0
M  V30 457 H 40.8148 0.354005 -0.646413 0
M  V30 458 H 43.4568 0.248253 -1.88371 0
M  V30 459 H 41.6068 2.46104 -3.00608 0
M  V30 460 H 43.2788 0.391789 -4.59633 0
M  V30 461 H 41.5218 0.299231 -4.32767 0
M  V30 462 H 42.1928 1.63145 -5.2734 0
M  V30 463 H 44.6688 2.30129 -3.4667 0
M  V30 464 H 43.5448 3.39582 -4.31249 0
M  V30 465 H 43.8058 3.58588 -2.58586 0
M  V30 466 N 42.8649 1.48995 0.513639 0
M  V30 467 C 44.1109 1.58076 1.27042 0
M  V30 468 C 44.4439 0.261026 1.92438 0
M  V30 469 O 43.7189 -0.734393 1.80103 0
M  V30 470 C 44.0019 2.73091 2.34719 0
M  V30 471 C 43.8549 4.14821 1.73907 0
M  V30 472 C 45.1739 2.83796 3.36375 0
M  V30 473 H 42.2929 0.575391 0.460536 0
M  V30 474 H 44.9349 1.81232 0.570516 0
M  V30 475 H 43.0849 2.53479 2.94416 0
M  V30 476 H 44.7569 4.45917 1.18135 0
M  V30 477 H 42.9999 4.21058 1.0437 0
M  V30 478 H 43.6709 4.91147 2.51949 0
M  V30 479 H 46.1469 3.01611 2.86653 0
M  V30 480 H 45.0229 3.65971 4.09093 0
M  V30 481 H 45.2839 1.92624 3.9793 0
M  V30 482 N 44.343 -0.763751 1.37857 0
M  V30 483 C 45.306 -1.85889 1.34081 0
M  V30 484 C 46.306 -1.58949 0.243277 0
M  V30 485 O 47.496 -1.66882 0.499589 0
M  V30 486 C 44.628 -3.23176 1.08489 0
M  V30 487 H 45.821 -1.90648 2.31502 0
M  V30 488 H 43.374 -0.964367 1.23003 0
M  V30 489 H 44.109 -3.24091 0.116318 0
M  V30 490 H 43.894 -3.44124 1.8794 0
M  V30 491 H 45.384 -4.03254 1.08517 0
M  V30 492 N 45.8211 -1.22559 -0.990812 0
M  V30 493 C 46.7511 -1.0218 -2.09956 0
M  V30 494 C 47.7321 0.0579394 -1.70001 0
M  V30 495 O 48.9171 -0.104684 -1.93918 0
M  V30 496 C 46.0471 -0.601023 -3.4206 0
M  V30 497 C 45.0011 -1.62694 -3.95872 0
M  V30 498 C 44.3271 -1.06193 -5.24049 0
M  V30 499 C 45.6271 -3.01743 -4.2632 0
M  V30 500 H 47.3211 -1.94916 -2.27262 0
M  V30 501 H 44.8671 -0.938566 -1.09211 0
M  V30 502 H 46.8201 -0.445561 -4.19038 0
M  V30 503 H 45.5441 0.362005 -3.24588 0
M  V30 504 H 44.2031 -1.77021 -3.21028 0
M  V30 505 H 43.8511 -0.0901903 -5.02919 0
M  V30 506 H 43.5511 -1.74732 -5.61019 0
M  V30 507 H 45.0751 -0.918092 -6.03658 0
M  V30 508 H 46.4891 -2.90777 -4.94087 0
M  V30 509 H 44.8861 -3.67425 -4.74467 0
M  V30 510 H 45.9561 -3.51518 -3.34011 0
M  V30 511 N 47.2992 1.18797 -1.03562 0
M  V30 512 C 48.2462 2.22253 -0.622259 0
M  V30 513 C 49.2162 1.61987 0.36736 0
M  V30 514 O 50.4012 1.88986 0.262492 0
M  V30 515 C 47.5412 3.45097 0.0138462 0
M  V30 516 C 46.6542 4.19722 -1.02263 0
M  V30 517 C 45.7892 5.30009 -0.355573 0
M  V30 518 C 44.8282 5.96399 -1.37749 0
M  V30 519 N 43.9652 6.98234 -0.735766 0
M  V30 520 H 48.8052 2.56968 -1.50903 0
M  V30 521 H 46.3422 1.26245 -0.755017 0
M  V30 522 H 48.3002 4.15279 0.399948 0
M  V30 523 H 46.9302 3.11018 0.864158 0
M  V30 524 H 45.9822 3.48418 -1.52673 0
M  V30 525 H 47.2942 4.65227 -1.79903 0
M  V30 526 H 46.4482 6.0664 0.0850095 0
M  V30 527 H 45.1872 4.85592 0.452967 0
M  V30 528 H 44.1922 5.18512 -1.82826 0
M  V30 529 H 45.4172 6.42899 -2.18764 0
M  V30 530 H 43.3632 6.55979 0.0525597 0
M  V30 531 H 43.2802 7.41965 -1.44995 0
M  V30 532 H 44.5482 7.78845 -0.31941 0
M  V30 533 N 48.7773 0.814389 1.34928 0
M  V30 534 C 49.7243 0.22822 2.29669 0
M  V30 535 C 50.6943 -0.642164 1.53184 0
M  V30 536 O 51.8793 -0.585605 1.81591 0
M  V30 537 C 49.0193 -0.61089 3.3965 0
M  V30 538 C 48.1323 0.280792 4.31086 0
M  V30 539 C 47.2673 -0.567067 5.28165 0
M  V30 540 C 46.3063 0.324531 6.11239 0
M  V30 541 N 45.4433 -0.483756 7.00431 0
M  V30 542 H 50.2833 1.04153 2.79206 0
M  V30 543 H 47.8203 0.525133 1.37407 0
M  V30 544 H 49.7783 -1.11263 4.0209 0
M  V30 545 H 48.4083 -1.38939 2.91369 0
M  V30 546 H 47.4603 0.900688 3.69583 0
M  V30 547 H 48.7723 0.966723 4.89342 0
M  V30 548 H 47.9263 -1.13363 5.96015 0
M  V30 549 H 46.6653 -1.28654 4.70425 0
M  V30 550 H 45.6703 0.903298 5.42329 0
M  V30 551 H 46.8953 1.04198 6.71059 0
M  V30 552 H 44.8413 -1.18706 6.45171 0
M  V30 553 H 44.7583 0.143965 7.55863 0
M  V30 554 H 46.0263 -1.03334 7.7262 0
M  V30 555 N 50.2554 -1.46986 0.568584 0
M  V30 556 C 51.5044 -2.01646 0.0465894 0
M  V30 557 C 51.8174 -1.44721 -1.31587 0
M  V30 558 O 53.0234 -1.91113 -1.92842 0
M  V30 559 C 51.4794 -3.59885 0.032752 0
M  V30 560 C 51.0874 -4.25804 1.39266 0
M  V30 561 C 52.8314 -4.22255 -0.436038 0
M  V30 562 C 50.7384 -5.76081 1.33732 0
M  V30 563 H 49.6684 -0.753876 0.013647 0
M  V30 564 H 52.3194 -1.68864 0.718131 0
M  V30 565 H 50.7014 -3.8968 -0.704669 0
M  V30 566 H 51.8754 -4.07637 2.1487 0
M  V30 567 H 50.1904 -3.7547 1.80032 0
M  V30 568 H 52.7874 -5.32394 -0.49602 0
M  V30 569 H 53.1304 -3.90212 -1.45053 0
M  V30 570 H 53.6634 -3.97033 0.246877 0
M  V30 571 H 50.4024 -6.12761 2.32817 0
M  V30 572 H 49.9224 -5.96553 0.623267 0
M  V30 573 H 51.6014 -6.38518 1.0442 0
M  V30 574 N 51.7335 -0.305618 -1.54608 0
M  V30 575 C 53.1495 0.0476228 -1.59529 0
M  V30 576 C 53.3495 1.52025 -1.32252 0
M  V30 577 O 52.4055 2.27368 -1.09818 0
M  V30 578 C 53.7185 -0.354471 -2.98603 0
M  V30 579 C 55.2665 -0.303622 -3.11524 0
M  V30 580 C 55.7415 -0.680608 -4.52915 0
M  V30 581 N 57.2325 -0.63332 -4.5885 0
M  V30 582 C 57.9675 -0.897432 -5.66334 0
M  V30 583 N 57.4635 -1.22775 -6.81834 0
M  V30 584 N 59.2565 -0.824186 -5.56025 0
M  V30 585 H 51.4075 -1.2653 -1.70599 0
M  V30 586 H 53.6705 -0.513291 -0.797017 0
M  V30 587 H 53.3765 -1.3798 -3.23503 0
M  V30 588 H 53.2505 0.289568 -3.76087 0
M  V30 589 H 55.6375 0.712472 -2.8637 0
M  V30 590 H 55.7185 -0.982348 -2.36185 0
M  V30 591 H 55.3625 -1.69453 -4.78799 0
M  V30 592 H 55.2925 0.0202385 -5.26596 0
M  V30 593 H 57.7835 -0.389138 -3.75891 0
M  V30 594 H 58.0965 -1.41513 -7.59733 0
M  V30 595 H 56.4415 -1.26583 -6.83375 0
M  V30 596 H 59.6325 -0.565748 -4.64669 0
M  V30 597 H 59.8055 -1.03338 -6.39707 0
M  V30 598 N 53.2116 1.57565 -0.0334293 0
M  V30 599 C 54.1416 2.13511 0.945265 0
M  V30 600 C 55.1226 1.05231 1.33643 0
M  V30 601 O 56.3076 1.33084 1.41429 0
M  V30 602 C 53.4376 2.6657 2.22616 0
M  V30 603 C 52.3916 3.79676 1.97561 0
M  V30 604 C 51.7176 4.1918 3.31952 0
M  V30 605 C 53.0176 5.0557 1.31135 0
M  V30 606 H 54.7116 2.95538 0.479325 0
M  V30 607 H 52.2576 1.42166 0.229115 0
M  V30 608 H 54.2106 3.04344 2.91466 0
M  V30 609 H 52.9346 1.8171 2.71384 0
M  V30 610 H 51.5936 3.42347 1.31127 0
M  V30 611 H 51.2416 3.31296 3.78487 0
M  V30 612 H 50.9416 4.95402 3.15992 0
M  V30 613 H 52.4656 4.59541 4.02063 0
M  V30 614 H 53.8796 5.40903 1.89992 0
M  V30 615 H 52.2766 5.86818 1.25559 0
M  V30 616 H 53.3466 4.84062 0.284894 0
M  V30 617 N 54.6897 -0.239769 1.55765 0
M  V30 618 C 55.9667 -0.990056 1.68693 0
M  V30 619 C 56.3467 -2.03107 0.5754 0
M  V30 620 O 55.6947 -2.24604 -0.42017 0
M  V30 621 C 55.9047 -1.61696 3.09282 0
M  V30 622 C 57.2527 -2.11613 3.6811 0
M  V30 623 O 58.2767 -1.71624 3.12127 0
M  V30 624 O 57.1357 -2.85057 4.66267 0
M  V30 625 H 54.2297 -0.461299 0.686391 0
M  V30 626 H 56.7757 -0.232991 1.68093 0
M  V30 627 H 55.5477 -0.864357 3.81634 0
M  V30 628 H 55.1707 -2.44005 3.13923 0
M  V30 629 N 56.1678 -1.49265 -0.50573 0
M  V30 630 C 57.3958 -1.62215 -1.28429 0
M  V30 631 C 57.8108 -0.291697 -1.86533 0
M  V30 632 O 57.1678 0.722233 -1.67601 0
M  V30 633 C 57.2188 -2.68735 -2.41793 0
M  V30 634 O 56.9398 -3.96619 -1.86078 0
M  V30 635 C 58.4408 -2.92346 -3.3324 0
M  V30 636 H 55.6608 -0.546239 -0.389697 0
M  V30 637 H 58.2048 -1.95265 -0.607609 0
M  V30 638 H 56.3598 -2.38476 -3.053 0
M  V30 639 H 56.7738 -4.55256 -2.60465 0
M  V30 640 H 58.2478 -3.70623 -4.09075 0
M  V30 641 H 58.7248 -2.02081 -3.89948 0
M  V30 642 H 59.3308 -3.24003 -2.75503 0
M  V30 643 N 57.6459 0.756429 -1.3826 0
M  V30 644 C 58.5559 1.9009 -1.37488 0
M  V30 645 C 59.5719 1.71855 -0.272366 0
M  V30 646 O 60.7479 1.94827 -0.510318 0
M  V30 647 C 57.8129 3.25421 -1.19592 0
M  V30 648 C 56.8739 3.56202 -2.39622 0
M  V30 649 C 56.1069 4.85075 -2.2257 0
M  V30 650 O 56.3299 5.57246 -1.21793 0
M  V30 651 O 55.2639 5.15269 -3.11098 0
M  V30 652 H 59.0899 1.93695 -2.33914 0
M  V30 653 H 56.6749 0.901313 -1.1915 0
M  V30 654 H 58.5569 4.06337 -1.11661 0
M  V30 655 H 57.2319 3.22634 -0.262486 0
M  V30 656 H 56.1389 2.75458 -2.53128 0
M  V30 657 H 57.4719 3.63747 -3.31586 0
M  V30 658 N 59.124 1.23083 0.984299 0
M  V30 659 C 60.352 1.08714 1.76037 0
M  V30 660 C 60.767 -0.361691 1.85303 0
M  V30 661 O 60.124 -1.25034 1.32939 0
M  V30 662 C 60.175 1.70206 3.18923 0
M  V30 663 O 59.896 3.09423 3.10144 0
M  V30 664 C 61.397 1.61227 4.12941 0
M  V30 665 H 58.617 0.380664 0.552572 0
M  V30 666 H 61.161 1.62853 1.23689 0
M  V30 667 H 59.316 1.20109 3.6831 0
M  V30 668 H 59.73 3.39188 4.00065 0
M  V30 669 H 61.204 2.08962 5.10919 0
M  V30 670 H 61.681 0.570375 4.35481 0
M  V30 671 H 62.287 2.10671 3.69456 0
M  V30 672 N 60.6021 -1.18246 1.0419 0
M  V30 673 C 61.5121 -2.25574 0.644476 0
M  V30 674 C 62.5281 -1.70845 -0.329826 0
M  V30 675 O 63.7041 -2.00554 -0.184443 0
M  V30 676 C 60.7691 -3.46697 0.014877 0
M  V30 677 C 59.8301 -4.16554 1.03834 0
M  V30 678 C 59.0631 -5.31894 0.438692 0
M  V30 679 O 59.2861 -5.65385 -0.754752 0
M  V30 680 O 58.2201 -5.90459 1.168 0
M  V30 681 H 62.0461 -2.61836 1.53869 0
M  V30 682 H 59.6311 -1.25352 0.812854 0
M  V30 683 H 61.5131 -4.20062 -0.335538 0
M  V30 684 H 60.1881 -3.12255 -0.853138 0
M  V30 685 H 59.0951 -3.45251 1.44057 0
M  V30 686 H 60.4281 -4.54998 1.87716 0
M  V30 687 N 62.0802 -0.821533 -1.34494 0
M  V30 688 C 63.3282 -0.408139 -1.97936 0
M  V30 689 C 63.6492 1.03193 -1.65457 0
M  V30 690 O 62.9192 1.71622 -0.944595 0
M  V30 691 H 61.4992 -0.147928 -0.732206 0
M  V30 692 H 64.1612 -1.05067 -1.64155 0
M  V30 693 H 63.2572 -0.52601 -3.07635 0
M  V30 694 N 63.5583 1.46682 -0.576371 0
M  V30 695 C 64.8043 2.02712 -0.0596221 0
M  V30 696 C 65.1373 1.44765 1.29448 0
M  V30 697 O 64.4123 0.610355 1.84675 0
M  V30 698 C 64.6953 3.60098 0.0129503 0
M  V30 699 C 64.5483 4.28441 -1.3696 0
M  V30 700 C 65.8673 4.34224 0.71678 0
M  V30 701 H 62.9863 0.736637 -0.0231407 0
M  V30 702 H 65.6283 1.74898 -0.742351 0
M  V30 703 H 63.7783 3.83926 0.594378 0
M  V30 704 H 65.4503 4.15896 -1.9957 0
M  V30 705 H 63.6933 3.8805 -1.93907 0
M  V30 706 H 64.3643 5.3716 -1.27135 0
M  V30 707 H 66.8403 4.15503 0.222908 0
M  V30 708 H 65.7163 5.43936 0.73657 0
M  V30 709 H 65.9773 4.04823 1.77682 0
M  V30 710 N 65.0364 0.313813 1.54444 0
M  V30 711 C 66.4474 -0.176243 1.85866 0
M  V30 712 C 66.7984 -1.52405 1.23561 0
M  V30 713 O 65.9234 -2.09605 0.538016 0
M  V30 714 C 66.5184 -0.32657 3.37222 0
M  V30 715 C 65.0774 -0.760846 3.6863 0
M  V30 716 C 64.2244 0.123247 2.77026 0
M  V30 717 H 67.1754 0.534418 1.49431 0
M  V30 718 H 67.1964 -1.15908 3.62416 0
M  V30 719 H 66.7084 0.654531 3.82541 0
M  V30 720 H 64.8094 -1.75204 3.28838 0
M  V30 721 H 64.9224 -0.571353 4.75681 0
M  V30 722 H 63.2864 -0.399597 2.51546 0
M  V30 723 H 64.0694 1.10094 3.25168 0
M  V30 724 N 66.5145 -1.57545 0.0417849 0
M  V30 725 C 67.7395 -1.97035 -0.647455 0
M  V30 726 C 68.1645 -0.918775 -1.64135 0
M  V30 727 O 67.5225 0.119006 -1.80909 0
M  V30 728 C 67.5705 -3.35609 -1.31905 0
M  V30 729 O 66.6745 -3.3287 -2.43457 0
M  V30 730 H 66.0155 -0.64211 -0.169086 0
M  V30 731 H 68.5455 -2.04318 0.107399 0
M  V30 732 H 68.5555 -3.72126 -1.67291 0
M  V30 733 H 67.2305 -4.11685 -0.590586 0
M  V30 734 H 65.8075 -3.08087 -2.10088 0
M  V30 735 N 67.9926 0.231505 -1.5589 0
M  V30 736 C 69.2206 0.974505 -1.82513 0
M  V30 737 C 69.6356 1.78344 -0.619591 0
M  V30 738 O 68.9926 1.77792 0.411848 0
M  V30 739 C 69.0436 1.90007 -3.07538 0
M  V30 740 O 68.7646 1.12385 -4.2344 0
M  V30 741 C 70.2656 2.75779 -3.47075 0
M  V30 742 H 67.4856 0.286065 -0.606966 0
M  V30 743 H 70.0296 0.249739 -2.02969 0
M  V30 744 H 68.1846 2.57891 -2.89086 0
M  V30 745 H 68.5986 1.75125 -4.944 0
M  V30 746 H 70.0726 3.36443 -4.37619 0
M  V30 747 H 70.5496 3.47672 -2.68367 0
M  V30 748 H 71.1556 2.13323 -3.67931 0
M  V30 749 N 69.4707 1.49531 0.497807 0
M  V30 750 C 70.4337 1.65916 1.58128 0
M  V30 751 C 71.4337 0.530825 1.51786 0
M  V30 752 O 72.6237 0.797342 1.54881 0
M  V30 753 C 69.7557 1.65951 2.9778 0
M  V30 754 H 70.9487 2.62556 1.44929 0
M  V30 755 H 68.5017 1.38611 0.722275 0
M  V30 756 H 69.2367 0.709065 3.16453 0
M  V30 757 H 69.0217 2.47897 3.03792 0
M  V30 758 H 70.5117 1.80673 3.76493 0
M  V30 759 N 70.9488 -0.749086 1.3866 0
M  V30 760 C 72.1978 -1.50371 1.3443 0
M  V30 761 C 72.5108 -1.95503 -0.0616397 0
M  V30 762 O 73.7168 -2.70554 -0.226489 0
M  V30 763 C 72.1728 -2.71644 2.36088 0
M  V30 764 C 71.7808 -2.3352 3.82325 0
M  V30 765 C 73.5248 -3.49518 2.40909 0
M  V30 766 C 71.4318 -3.51431 4.75658 0
M  V30 767 H 70.3618 -0.564628 0.499712 0
M  V30 768 H 73.0128 -0.818449 1.64237 0
M  V30 769 H 71.3948 -3.42175 1.9933 0
M  V30 770 H 72.5688 -1.70627 4.28046 0
M  V30 771 H 70.8838 -1.6877 3.80665 0
M  V30 772 H 73.4808 -4.37197 3.07836 0
M  V30 773 H 73.8238 -3.90992 1.42937 0
M  V30 774 H 74.3568 -2.86005 2.76489 0
M  V30 775 H 71.0958 -3.15019 5.74842 0
M  V30 776 H 70.6158 -4.13352 4.34627 0
M  V30 777 H 72.2948 -4.17953 4.93887 0
M  V30 778 N 72.4269 -1.23603 -0.977757 0
M  V30 779 C 73.8429 -0.999251 -1.24447 0
M  V30 780 C 74.0429 0.298053 -1.99283 0
M  V30 781 O 73.0989 1.01681 -2.31122 0
M  V30 782 C 74.4119 -2.20784 -2.04144 0
M  V30 783 C 75.9599 -2.25303 -2.17273 0
M  V30 784 C 76.4349 -3.45755 -3.00362 0
M  V30 785 N 77.9259 -3.4601 -3.07947 0
M  V30 786 C 78.6609 -4.35868 -3.72568 0
M  V30 787 N 78.1569 -5.35966 -4.38991 0
M  V30 788 N 79.9499 -4.23605 -3.6948 0
M  V30 789 H 72.1009 -2.06986 -0.476483 0
M  V30 790 H 74.3639 -0.907801 -0.273134 0
M  V30 791 H 74.0699 -3.14945 -1.56533 0
M  V30 792 H 73.9439 -2.22085 -3.04891 0
M  V30 793 H 76.3309 -1.3168 -2.64092 0
M  V30 794 H 76.4119 -2.28033 -1.15907 0
M  V30 795 H 76.0559 -4.39687 -2.5424 0
M  V30 796 H 75.9859 -3.40266 -4.01904 0
M  V30 797 H 78.4769 -2.73588 -2.60688 0
M  V30 798 H 78.7899 -6.00783 -4.86086 0
M  V30 799 H 77.1349 -5.39863 -4.37691 0
M  V30 800 H 80.3259 -3.44647 -3.16759 0
M  V30 801 H 80.4989 -4.93836 -4.1956 0
M  V30 802 N 73.905 1.17692 -1.04816 0
M  V30 803 C 74.815 2.25229 -0.65643 0
M  V30 804 C 75.831 1.71018 0.320761 0
M  V30 805 O 77.007 2.00649 0.173805 0
M  V30 806 C 74.072 3.46684 -0.0332629 0
M  V30 807 C 73.133 4.15997 -1.06042 0
M  V30 808 C 72.366 5.31654 -0.466893 0
M  V30 809 O 72.589 5.65777 0.724758 0
M  V30 810 O 71.523 5.89831 -1.1993 0
M  V30 811 H 75.349 2.61016 -1.55255 0
M  V30 812 H 72.934 1.24919 -0.81949 0
M  V30 813 H 74.816 4.20234 0.313256 0
M  V30 814 H 73.491 3.12703 0.836566 0
M  V30 815 H 72.398 3.44482 -1.45886 0
M  V30 816 H 73.731 4.53996 -1.90127 0
M  V30 817 N 75.3831 0.828654 1.34056 0
M  V30 818 C 76.6321 0.415828 1.97367 0
M  V30 819 C 76.9451 -1.02796 1.6641 0
M  V30 820 O 78.1511 -1.54497 2.23255 0
M  V30 821 C 76.6071 0.692601 3.53173 0
M  V30 822 C 76.2151 2.15038 3.93017 0
M  V30 823 C 77.9591 0.346222 4.23086 0
M  V30 824 C 75.8661 2.37174 5.41758 0
M  V30 825 H 74.7961 0.151755 0.738571 0
M  V30 826 H 77.4471 1.01581 1.52819 0
M  V30 827 H 75.8291 0.0223764 3.95994 0
M  V30 828 H 77.0031 2.86024 3.61285 0
M  V30 829 H 75.3181 2.45875 3.36057 0
M  V30 830 H 77.9151 0.48937 5.32456 0
M  V30 831 H 78.2581 -0.709842 4.10204 0
M  V30 832 H 78.7911 0.971258 3.85761 0
M  V30 833 H 75.5301 3.41308 5.59633 0
M  V30 834 H 75.0501 1.70738 5.74986 0
M  V30 835 H 76.7291 2.19818 6.08514 0
M  V30 836 N 76.8612 -1.46375 0.584142 0
M  V30 837 C 78.0862 -2.07268 0.0740405 0
M  V30 838 C 78.5112 -1.42979 -1.22223 0
M  V30 839 O 77.8692 -0.514092 -1.73859 0
M  V30 840 C 77.9172 -3.60518 -0.0767769 0
M  V30 841 O 77.0212 -3.96533 -1.13292 0
M  V30 842 H 76.3622 -0.660961 0.0634524 0
M  V30 843 H 78.8922 -1.87991 0.807492 0
M  V30 844 H 78.9022 -4.07021 -0.282489 0
M  V30 845 H 77.5772 -4.06702 0.86986 0
M  V30 846 H 76.1542 -3.61738 -0.905553 0
M  V30 847 N 78.3393 -0.321999 -1.54275 0
M  V30 848 C 79.2693 0.537411 -2.27231 0
M  V30 849 C 80.2503 1.12064 -1.27968 0
M  V30 850 O 81.4353 1.14606 -1.56777 0
M  V30 851 C 78.5653 1.69919 -3.02894 0
M  V30 852 C 77.5193 1.24534 -4.09482 0
M  V30 853 C 76.8453 2.49394 -4.72977 0
M  V30 854 C 78.1453 0.361335 -5.21049 0
M  V30 855 H 79.8393 -0.0711406 -2.99315 0
M  V30 856 H 77.3853 -0.0356555 -1.43956 0
M  V30 857 H 79.3383 2.30668 -3.52662 0
M  V30 858 H 78.0623 2.33431 -2.28424 0
M  V30 859 H 76.7213 0.660782 -3.60596 0
M  V30 860 H 76.3693 3.11265 -3.95124 0
M  V30 861 H 76.0693 2.19718 -5.44975 0
M  V30 862 H 77.5933 3.10908 -5.25517 0
M  V30 863 H 79.0073 0.875072 -5.66582 0
M  V30 864 H 77.4043 0.157428 -5.99893 0
M  V30 865 H 78.4743 -0.60822 -4.8107 0
M  V30 866 N 79.8174 1.5752 -0.0501392 0
M  V30 867 C 80.7474 2.14502 0.922566 0
M  V30 868 C 81.7284 1.06642 1.3252 0
M  V30 869 O 82.9134 1.34577 1.4001 0
M  V30 870 C 80.0434 2.68916 2.19776 0
M  V30 871 C 78.9974 3.8175 1.93523 0
M  V30 872 C 78.3234 4.22677 3.27487 0
M  V30 873 C 79.6234 5.06932 1.25765 0
M  V30 874 H 81.3174 2.9603 0.447952 0
M  V30 875 H 78.8634 1.42401 0.214024 0
M  V30 876 H 80.8164 3.07419 2.88222 0
M  V30 877 H 79.5404 1.84578 2.69441 0
M  V30 878 H 78.1994 3.43718 1.27489 0
M  V30 879 H 77.8474 3.35291 3.74952 0
M  V30 880 H 77.5474 4.98725 3.1072 0
M  V30 881 H 79.0714 4.63779 3.97166 0
M  V30 882 H 80.4854 5.42888 1.84244 0
M  V30 883 H 78.8824 5.88116 1.19328 0
M  V30 884 H 79.9524 4.84337 0.233536 0
M  V30 885 N 81.2955 -0.223234 1.56011 0
M  V30 886 C 82.2425 -1.27664 1.92277 0
M  V30 887 C 83.2125 -1.46659 0.779763 0
M  V30 888 O 84.3975 -1.60256 1.03551 0
M  V30 889 C 81.5375 -2.62234 2.24338 0
M  V30 890 C 80.6505 -2.51051 3.51564 0
M  V30 891 C 79.7855 -3.78133 3.7308 0
M  V30 892 C 78.8245 -3.61665 4.93827 0
M  V30 893 N 77.9615 -4.80693 5.11741 0
M  V30 894 H 82.8015 -0.960358 2.82101 0
M  V30 895 H 80.3385 -0.462901 1.39627 0
M  V30 896 H 82.2965 -3.40596 2.40936 0
M  V30 897 H 80.9265 -2.91961 1.3769 0
M  V30 898 H 79.9785 -1.64132 3.43169 0
M  V30 899 H 81.2905 -2.34803 4.40079 0
M  V30 900 H 80.4445 -4.64938 3.89766 0
M  V30 901 H 79.1835 -3.97304 2.82844 0
M  V30 902 H 78.1885 -2.73244 4.77093 0
M  V30 903 H 79.4135 -3.43966 5.85546 0
M  V30 904 H 77.3595 -5.00181 4.24446 0
M  V30 905 H 77.2765 -4.67165 5.94384 0
M  V30 906 H 78.5445 -5.6893 5.3286 0
M  V30 907 N 82.7736 -1.49793 -0.48987 0
M  V30 908 C 83.6836 -1.70036 -1.61632 0
M  V30 909 C 84.6996 -0.583102 -1.63939 0
M  V30 910 O 85.8756 -0.859169 -1.82154 0
M  V30 911 C 82.9406 -1.77277 -2.97949 0
M  V30 912 C 82.0016 -3.00918 -3.06181 0
M  V30 913 C 81.2346 -3.07804 -4.35996 0
M  V30 914 O 81.4576 -2.21982 -5.25433 0
M  V30 915 O 80.3916 -4.00369 -4.49431 0
M  V30 916 H 84.2176 -2.65486 -1.47482 0
M  V30 917 H 81.8026 -1.33666 -0.667362 0
M  V30 918 H 83.6846 -1.84329 -3.78947 0
M  V30 919 H 82.3596 -0.850076 -3.12339 0
M  V30 920 H 81.2666 -2.99377 -2.2433 0
M  V30 921 H 82.5996 -3.92704 -2.96723 0
M  V30 922 N 84.2517 0.741722 -1.39055 0
M  V30 923 C 85.1817 1.869 -1.39966 0
M  V30 924 C 86.1627 1.6804 -0.26392 0
M  V30 925 O 87.3477 1.88458 -0.468755 0
M  V30 926 C 84.4777 3.24572 -1.23574 0
M  V30 927 C 83.4317 3.58056 -2.34477 0
M  V30 928 C 82.7577 4.94593 -2.0318 0
M  V30 929 C 84.0577 3.61716 -3.76774 0
M  V30 930 H 85.7517 1.86395 -2.34302 0
M  V30 931 H 83.2977 0.895361 -1.1278 0
M  V30 932 H 85.2507 4.031 -1.22834 0
M  V30 933 H 83.9747 3.25587 -0.257045 0
M  V30 934 H 82.6337 2.81854 -2.34423 0
M  V30 935 H 82.2817 4.92181 -1.03765 0
M  V30 936 H 81.9817 5.17964 -2.77465 0
M  V30 937 H 83.5057 5.75486 -2.04079 0
M  V30 938 H 84.9197 4.30335 -3.78794 0
M  V30 939 H 83.3167 3.96603 -4.50362 0
M  V30 940 H 84.3867 2.61672 -4.08235 0
M  V30 941 N 85.7298 1.2412 0.971189 0
M  V30 942 C 86.6778 1.02812 2.08644 0
M  V30 943 C 87.6718 -0.0358403 1.69362 0
M  V30 944 O 88.8778 0.118429 1.7961 0
M  V30 945 H 85.2528 0.315428 0.682649 0
M  V30 946 H 87.2238 1.97397 2.23779 0
M  V30 947 C 85.9728 0.645874 3.41649 0
M  V30 948 H 85.2958 1.45632 3.72332 0
M  V30 949 H 86.7358 0.536366 4.20594 0
M  V30 950 C 85.1948 -0.646713 3.30635 0
M  V30 951 O 85.7248 -1.69338 3.64263 0
M  V30 952 N 83.9308 -0.626115 2.83775 0
M  V30 953 H 83.4778 0.225988 2.56607 0
M  V30 954 H 83.4358 -1.49117 2.76788 0
M  V30 955 N 87.2079 -1.17134 1.05439 0
M  V30 956 C 88.1579 -2.1919 0.627675 0
M  V30 957 C 89.1419 -1.57328 -0.337147 0
M  V30 958 O 90.3339 -1.76329 -0.153976 0
M  V30 959 C 87.4629 -3.43299 0.00651435 0
M  V30 960 C 86.5489 -4.12255 0.995312 0
M  V30 961 N 86.9399 -4.56997 2.16765 0
M  V30 962 C 85.2379 -4.38316 0.824336 0
M  V30 963 C 85.9389 -5.10239 2.7934 0
M  V30 964 N 84.9149 -5.02595 2.07122 0
M  V30 965 H 88.7169 -2.5149 1.52086 0
M  V30 966 H 86.2309 -1.33491 0.924868 0
M  V30 967 H 88.2279 -4.15693 -0.316965 0
M  V30 968 H 86.8879 -3.1249 -0.882033 0
M  V30 969 H 87.8989 -4.51006 2.54587 0
M  V30 970 H 84.5759 -4.17498 -0.0129526 0
M  V30 971 H 85.9659 -5.54961 3.78772 0
M  V30 972 N 88.686 -0.835752 -1.33615 0
M  V30 973 C 90.097 -0.487099 -1.80234 0
M  V30 974 C 90.448 0.993627 -1.69179 0
M  V30 975 O 89.573 1.77403 -1.23924 0
M  V30 976 C 90.168 -0.877385 -3.27242 0
M  V30 977 C 88.727 -0.580915 -3.7189 0
M  V30 978 C 87.874 -1.0874 -2.5509 0
M  V30 979 H 90.825 -1.02474 -1.2118 0
M  V30 980 H 90.846 -0.186195 -3.80044 0
M  V30 981 H 90.358 -1.95512 -3.35256 0
M  V30 982 H 88.459 0.486881 -3.69405 0
M  V30 983 H 88.572 -1.13396 -4.65487 0
M  V30 984 H 86.936 -0.508392 -2.49575 0
M  V30 985 H 87.719 -2.17184 -2.65868 0
M  V30 986 N 90.1641 1.46063 -0.591896 0
M  V30 987 C 91.1121 2.32124 0.148739 0
M  V30 988 C 92.1061 1.45035 0.875286 0
M  V30 989 O 93.3121 1.61609 0.792632 0
M  V30 990 H 89.6871 0.749024 0.066832 0
M  V30 991 H 91.6581 2.92392 -0.595783 0
M  V30 992 C 90.4071 3.28373 1.1431 0
M  V30 993 H 89.7301 3.95371 0.59346 0
M  V30 994 H 91.1701 3.91352 1.63155 0
M  V30 995 C 89.6291 2.54393 2.20875 0
M  V30 996 O 90.1591 2.31373 3.28374 0
M  V30 997 N 88.3651 2.14797 1.95731 0
M  V30 998 H 87.9121 2.33719 1.08319 0
M  V30 999 H 87.8701 1.65619 2.67241 0
M  V30 1000 N 91.6422 0.330177 1.54103 0
M  V30 1001 C 92.8912 -0.271336 1.99867 0
M  V30 1002 C 93.2042 -1.52723 1.22209 0
M  V30 1003 O 94.4102 -2.20515 1.58383 0
M  V30 1004 C 92.8662 -0.534032 3.55916 0
M  V30 1005 C 92.4742 0.705193 4.42415 0
M  V30 1006 C 94.2182 -1.09514 4.1013 0
M  V30 1007 C 92.1252 0.414035 5.89949 0
M  V30 1008 H 91.0552 -0.105166 0.74663 0
M  V30 1009 H 93.7062 0.443429 1.78062 0
M  V30 1010 H 92.0882 -1.30915 3.73734 0
M  V30 1011 H 93.2622 1.4804 4.36372 0
M  V30 1012 H 91.5772 1.18698 3.99124 0
M  V30 1013 H 94.1742 -1.3277 5.17954 0
M  V30 1014 H 94.5172 -2.04656 3.62521 0
M  V30 1015 H 95.0502 -0.381038 3.95971 0
M  V30 1016 H 91.7892 1.33481 6.41766 0
M  V30 1017 H 91.3092 -0.323336 5.98928 0
M  V30 1018 H 92.9882 0.0263105 6.46995 0
M  V30 1019 N 93.1203 -1.57491 0.0584922 0
M  V30 1020 C 94.3663 -1.93264 -0.614558 0
M  V30 1021 C 94.6993 -0.937717 -1.7006 0
M  V30 1022 O 93.9743 0.0351652 -1.94468 0
M  V30 1023 C 94.2573 -3.3938 -1.20386 0
M  V30 1024 C 94.1103 -4.49625 -0.125375 0
M  V30 1025 C 95.4293 -3.86039 -2.11334 0
M  V30 1026 H 92.5483 -0.702791 -0.221933 0
M  V30 1027 H 95.1903 -1.8961 0.12175 0
M  V30 1028 H 93.3403 -3.42626 -1.83139 0
M  V30 1029 H 95.0123 -4.58506 0.506971 0
M  V30 1030 H 93.2553 -4.30354 0.545672 0
M  V30 1031 H 93.9263 -5.48967 -0.577861 0
M  V30 1032 H 96.4023 -3.84716 -1.58534 0
M  V30 1033 H 95.2783 -4.88914 -2.49507 0
M  V30 1034 H 95.5393 -3.23215 -3.01636 0
M  V30 1035 N 94.5984 0.214957 -1.56127 0
M  V30 1036 C 95.5454 1.26642 -1.92952 0
M  V30 1037 C 96.5154 1.46244 -0.78753 0
M  V30 1038 O 97.7004 1.59704 -1.04399 0
M  V30 1039 C 94.8404 2.6104 -2.25726 0
M  V30 1040 C 93.9534 2.49183 -3.52891 0
M  V30 1041 C 93.0884 3.76149 -3.7508 0
M  V30 1042 C 92.1274 3.59041 -4.95738 0
M  V30 1043 N 91.2644 4.77972 -5.14283 0
M  V30 1044 H 96.1044 0.945384 -2.82607 0
M  V30 1045 H 93.6414 0.455489 -1.3987 0
M  V30 1046 H 95.5994 3.39313 -2.42739 0
M  V30 1047 H 94.2294 2.91227 -1.39236 0
M  V30 1048 H 93.2814 1.6231 -3.44034 0
M  V30 1049 H 94.5934 2.32466 -4.41318 0
M  V30 1050 H 93.7474 4.62865 -3.92226 0
M  V30 1051 H 92.4864 3.95799 -2.84947 0
M  V30 1052 H 91.4914 2.7071 -4.78535 0
M  V30 1053 H 92.7164 3.40856 -5.87362 0
M  V30 1054 H 90.6624 4.97923 -4.27093 0
M  V30 1055 H 90.5794 4.64006 -5.96853 0
M  V30 1056 H 91.8474 5.66096 -5.35869 0
M  V30 1057 N 96.0765 1.50051 0.48192 0
M  V30 1058 C 97.0065 1.71046 1.58951 0
M  V30 1059 C 97.9875 0.559288 1.60642 0
M  V30 1060 O 99.1725 0.797243 1.77081 0
M  V30 1061 C 96.3025 1.79462 2.97339 0
M  V30 1062 C 95.2565 2.94558 3.10515 0
M  V30 1063 C 94.5825 2.88105 4.50444 0
M  V30 1064 C 95.8825 4.35227 2.88747 0
M  V30 1065 H 97.5765 2.6378 1.41635 0
M  V30 1066 H 95.1225 1.26936 0.679942 0
M  V30 1067 H 97.0755 1.92734 3.74742 0
M  V30 1068 H 95.7995 0.833412 3.15788 0
M  V30 1069 H 94.4585 2.80918 2.35543 0
M  V30 1070 H 94.1065 1.89853 4.65795 0
M  V30 1071 H 93.8065 3.65366 4.60197 0
M  V30 1072 H 95.3305 3.03412 5.29881 0
M  V30 1073 H 96.7445 4.49449 3.55905 0
M  V30 1074 H 95.1415 5.13856 3.09955 0
M  V30 1075 H 96.2115 4.48347 1.84696 0
M  V30 1076 N 97.5546 -0.734337 1.39446 0
M  V30 1077 C 98.4846 -1.86155 1.40955 0
M  V30 1078 C 99.4656 -1.67898 0.272827 0
M  V30 1079 O 100.651 -1.88207 0.478743 0
M  V30 1080 C 97.7806 -3.23912 1.25294 0
M  V30 1081 C 96.7346 -3.56808 2.36373 0
M  V30 1082 C 96.0606 -4.93508 2.058 0
M  V30 1083 C 97.3606 -3.59713 3.78687 0
M  V30 1084 H 99.0546 -1.8515 2.35287 0
M  V30 1085 H 96.6006 -0.889367 1.13253 0
M  V30 1086 H 98.5536 -4.02443 1.2497 0
M  V30 1087 H 97.2776 -3.25446 0.274308 0
M  V30 1088 H 95.9366 -2.80606 2.35914 0
M  V30 1089 H 95.5846 -4.91623 1.06374 0
M  V30 1090 H 95.2846 -5.16486 2.80208 0
M  V30 1091 H 96.8086 -5.74396 2.07128 0
M  V30 1092 H 98.2226 -4.2832 3.81071 0
M  V30 1093 H 96.6196 -3.94209 4.52459 0
M  V30 1094 H 97.6896 -2.59504 4.09617 0
M  V30 1095 N 99.0327 -1.24633 -0.964593 0
M  V30 1096 C 100.31 -0.995809 -1.68354 0
M  V30 1097 C 100.69 0.480964 -2.05548 0
M  V30 1098 O 100.038 1.45599 -1.76105 0
M  V30 1099 C 100.248 -1.92177 -2.91323 0
M  V30 1100 C 101.596 -2.19446 -3.63495 0
M  V30 1101 O 102.62 -1.89855 -3.01386 0
M  V30 1102 O 101.479 -2.69714 -4.75307 0
M  V30 1103 H 98.5727 -0.376854 -0.736146 0
M  V30 1104 H 101.119 -1.35745 -1.0184 0
M  V30 1105 H 99.8907 -2.91938 -2.60553 0
M  V30 1106 H 99.5137 -1.56349 -3.65569 0
M  V30 1107 N 100.511 1.16574 -1.06058 0
M  V30 1108 C 101.757 1.87324 -0.777022 0
M  V30 1109 C 102.09 1.81351 0.694645 0
M  V30 1110 O 101.365 1.22753 1.50871 0
M  V30 1111 C 101.648 3.36991 -1.26922 0
M  V30 1112 C 101.501 3.51667 -2.80447 0
M  V30 1113 C 102.82 4.3131 -0.87521 0
M  V30 1114 H 99.9388 0.680191 -0.28374 0
M  V30 1115 H 102.581 1.37036 -1.3161 0
M  V30 1116 H 100.731 3.79949 -0.81063 0
M  V30 1117 H 102.403 3.17664 -3.34495 0
M  V30 1118 H 100.646 2.93656 -3.19294 0
M  V30 1119 H 101.317 4.56766 -3.0995 0
M  V30 1120 H 103.793 3.9624 -1.27014 0
M  V30 1121 H 102.669 5.34545 -1.2471 0
M  V30 1122 H 102.93 4.41552 0.220071 0
M  V30 1123 N 101.989 0.842826 1.3317 0
M  V30 1124 C 103.238 0.436738 1.96915 0
M  V30 1125 C 103.551 -1.01025 1.67491 0
M  V30 1126 O 104.757 -1.5212 2.24881 0
M  V30 1127 C 103.213 0.730021 3.52418 0
M  V30 1128 C 102.821 2.19195 3.90714 0
M  V30 1129 C 104.565 0.391076 4.22695 0
M  V30 1130 C 102.472 2.42907 5.39212 0
M  V30 1131 H 101.402 0.15958 0.736919 0
M  V30 1132 H 104.053 1.03196 1.51733 0
M  V30 1133 H 102.435 0.0643755 3.95948 0
M  V30 1134 H 103.609 2.8984 3.58231 0
M  V30 1135 H 101.924 2.49425 3.33431 0
M  V30 1136 H 104.521 0.545817 5.31907 0
M  V30 1137 H 104.864 -0.666294 4.10933 0
M  V30 1138 H 105.397 1.01212 3.84709 0
M  V30 1139 H 102.136 3.47224 5.55982 0
M  V30 1140 H 101.656 1.76827 5.73142 0
M  V30 1141 H 103.335 2.2626 6.06148 0
M  V30 1142 N 103.467 -1.45747 0.599634 0
M  V30 1143 C 104.417 -2.27538 -0.145107 0
M  V30 1144 C 105.401 -1.3686 -0.846055 0
M  V30 1145 O 106.593 -1.6091 -0.737357 0
M  V30 1146 C 103.722 -3.23569 -1.14708 0
M  V30 1147 C 102.808 -4.21734 -0.447383 0
M  V30 1148 N 103.199 -5.03257 0.506535 0
M  V30 1149 C 101.497 -4.40536 -0.695966 0
M  V30 1150 C 102.198 -5.74426 0.917068 0
M  V30 1151 N 101.174 -5.42966 0.26253 0
M  V30 1152 H 104.976 -2.87965 0.587672 0
M  V30 1153 H 102.49 -1.56803 0.422697 0
M  V30 1154 H 104.487 -3.8089 -1.69495 0
M  V30 1155 H 103.147 -2.64702 -1.8805 0
M  V30 1156 H 104.158 -5.10319 0.882899 0
M  V30 1157 H 100.835 -3.92802 -1.41467 0
M  V30 1158 H 102.225 -6.4995 1.70338 0
M  V30 1159 N 104.945 -0.338344 -1.53925 0
M  V30 1160 C 106.173 0.261298 -2.05243 0
M  V30 1161 C 106.588 1.44625 -1.21363 0
M  V30 1162 O 105.945 1.80811 -0.247736 0
M  V30 1163 C 105.996 0.681412 -3.5502 0
M  V30 1164 O 105.717 -0.456414 -4.35716 0
M  V30 1165 C 107.218 1.34232 -4.22489 0
M  V30 1166 H 104.438 0.0513685 -0.669031 0
M  V30 1167 H 106.982 -0.488822 -1.98572 0
M  V30 1168 H 105.137 1.38148 -3.61931 0
M  V30 1169 H 105.551 -0.122564 -5.24357 0
M  V30 1170 H 107.025 1.58708 -5.28693 0
M  V30 1171 H 107.502 2.29426 -3.74514 0
M  V30 1172 H 108.108 0.684424 -4.19757 0
M  V30 1173 N 106.423 1.57458 -0.0668435 0
M  V30 1174 C 107.333 2.15937 0.916975 0
M  V30 1175 C 108.349 1.12123 1.33058 0
M  V30 1176 O 109.525 1.44366 1.40429 0
M  V30 1177 C 106.59 2.70547 2.16807 0
M  V30 1178 C 105.651 3.89215 1.81135 0
M  V30 1179 C 104.884 4.41211 3.0028 0
M  V30 1180 O 105.107 3.92225 4.14144 0
M  V30 1181 O 104.041 5.32605 2.80384 0
M  V30 1182 H 107.867 3.00354 0.449561 0
M  V30 1183 H 105.452 1.48584 0.155949 0
M  V30 1184 H 107.334 3.0557 2.90181 0
M  V30 1185 H 106.009 1.89192 2.62656 0
M  V30 1186 H 104.916 3.59054 1.05028 0
M  V30 1187 H 106.249 4.71848 1.40073 0
M  V30 1188 N 107.901 -0.206675 1.56239 0
M  V30 1189 C 108.849 -1.27571 1.94495 0
M  V30 1190 C 109.843 -1.47737 0.828862 0
M  V30 1191 O 111.049 -1.48735 1.0138 0
M  V30 1192 H 107.424 -0.428029 0.6183 0
M  V30 1193 H 109.395 -0.925961 2.8367 0
M  V30 1194 C 108.144 -2.61568 2.29079 0
M  V30 1195 H 107.467 -2.46863 3.14482 0
M  V30 1196 H 108.907 -3.35144 2.5972 0
M  V30 1197 C 107.366 -3.17695 1.12123 0
M  V30 1198 O 107.896 -3.99801 0.390153 0
M  V30 1199 N 106.102 -2.76276 0.901097 0
M  V30 1200 H 105.649 -2.09613 1.49733 0
M  V30 1201 H 105.607 -3.1417 0.120319 0
M  V30 1202 N 109.379 -1.50304 -0.473955 0
M  V30 1203 C 110.326 -1.68959 -1.57231 0
M  V30 1204 C 111.296 -0.530899 -1.57387 0
M  V30 1205 O 112.481 -0.761133 -1.74961 0
M  V30 1206 C 109.621 -1.7871 -2.95223 0
M  V30 1207 C 108.734 -3.06061 -3.04878 0
M  V30 1208 C 107.869 -3.06626 -4.33767 0
M  V30 1209 C 106.908 -4.28443 -4.37154 0
M  V30 1210 N 106.045 -4.26763 -5.5751 0
M  V30 1211 H 110.885 -2.6273 -1.40631 0
M  V30 1212 H 108.422 -1.30241 -0.683789 0
M  V30 1213 H 110.38 -1.82344 -3.75242 0
M  V30 1214 H 109.01 -0.883806 -3.10465 0
M  V30 1215 H 108.062 -3.11911 -2.17751 0
M  V30 1216 H 109.374 -3.96039 -3.0324 0
M  V30 1217 H 108.528 -3.08973 -5.22131 0
M  V30 1218 H 107.267 -2.14473 -4.3801 0
M  V30 1219 H 106.272 -4.2631 -3.47188 0
M  V30 1220 H 107.497 -5.2182 -4.34605 0
M  V30 1221 H 105.443 -3.37462 -5.62544 0
M  V30 1222 H 105.36 -5.10507 -5.57601 0
M  V30 1223 H 106.628 -4.33253 -6.48006 0
M  V30 1224 N 110.857 0.726932 -1.39834 0
M  V30 1225 C 111.787 1.85405 -1.41941 0
M  V30 1226 C 112.768 1.67751 -0.281728 0
M  V30 1227 O 113.953 1.8795 -0.488717 0
M  V30 1228 C 111.083 3.23243 -1.2701 0
M  V30 1229 C 110.037 3.55549 -2.38262 0
M  V30 1230 C 109.363 4.9241 -2.08415 0
M  V30 1231 C 110.663 3.577 -3.80589 0
M  V30 1232 H 112.357 1.83899 -2.36266 0
M  V30 1233 H 109.903 0.883349 -1.13723 0
M  V30 1234 H 111.856 4.01775 -1.27103 0
M  V30 1235 H 110.58 3.25296 -0.291564 0
M  V30 1236 H 109.239 2.79351 -2.37399 0
M  V30 1237 H 108.887 4.91052 -1.0898 0
M  V30 1238 H 108.587 5.14992 -2.82943 0
M  V30 1239 H 110.111 5.73289 -2.10171 0
M  V30 1240 H 111.525 4.26293 -3.83337 0
M  V30 1241 H 109.922 3.91804 -4.54543 0
M  V30 1242 H 110.992 2.57328 -4.10987 0
M  V30 1243 N 112.336 1.25143 0.95797 0
M  V30 1244 C 113.566 1.12261 1.73439 0
M  V30 1245 C 113.974 -0.326715 1.86358 0
M  V30 1246 O 113.317 -1.2367 1.35836 0
M  V30 1247 C 113.379 1.69966 3.16784 0
M  V30 1248 C 113.043 3.18936 3.27305 0
M  V30 1249 C 114.04 4.15968 3.11877 0
M  V30 1250 C 111.725 3.59083 3.51234 0
M  V30 1251 C 113.719 5.51126 3.20217 0
M  V30 1252 C 111.406 4.9438 3.5921 0
M  V30 1253 C 112.404 5.90211 3.43716 0
M  V30 1254 O 112.092 7.23046 3.51368 0
M  V30 1255 H 111.824 0.392476 0.550399 0
M  V30 1256 H 114.378 1.65927 1.21068 0
M  V30 1257 H 112.608 1.10744 3.70503 0
M  V30 1258 H 114.297 1.52232 3.76272 0
M  V30 1259 H 115.063 3.86292 2.93264 0
M  V30 1260 H 110.942 2.84989 3.62356 0
M  V30 1261 H 114.486 6.25905 3.0804 0
M  V30 1262 H 110.383 5.23723 3.77339 0
M  V30 1263 H 111.151 7.31097 3.6802 0
M  V30 1264 N 113.814 -1.1601 1.06675 0
M  V30 1265 C 114.744 -2.22688 0.702307 0
M  V30 1266 C 115.725 -1.67306 -0.307032 0
M  V30 1267 O 116.91 -1.93352 -0.181305 0
M  V30 1268 C 114.04 -3.47178 0.092038 0
M  V30 1269 C 112.994 -4.15477 1.02777 0
M  V30 1270 C 112.32 -5.33963 0.28061 0
M  V30 1271 C 113.62 -4.66019 2.35846 0
M  V30 1272 H 115.314 -2.53429 1.59419 0
M  V30 1273 H 112.86 -1.21813 0.767961 0
M  V30 1274 H 114.813 -4.21037 -0.174814 0
M  V30 1275 H 113.537 -3.15749 -0.834877 0
M  V30 1276 H 112.196 -3.43549 1.27944 0
M  V30 1277 H 111.844 -4.98788 -0.649545 0
M  V30 1278 H 111.544 -5.806 0.904258 0
M  V30 1279 H 113.068 -6.10596 0.021396 0
M  V30 1280 H 114.482 -5.3144 2.15045 0
M  V30 1281 H 112.879 -5.23293 2.93743 0
M  V30 1282 H 113.949 -3.82023 2.98641 0
M  V30 1283 N 115.292 -0.849877 -1.32721 0
M  V30 1284 C 116.538 -0.451591 -1.97708 0
M  V30 1285 C 116.871 0.989175 -1.6712 0
M  V30 1286 O 116.146 1.69334 -0.956891 0
M  V30 1287 C 116.429 -0.685598 -3.53513 0
M  V30 1288 C 116.282 -2.17444 -3.93749 0
M  V30 1289 C 117.601 -0.138874 -4.39881 0
M  V30 1290 H 114.72 -0.16555 -0.718166 0
M  V30 1291 H 117.362 -1.06742 -1.57182 0
M  V30 1292 H 115.512 -0.161416 -3.88165 0
M  V30 1293 H 117.184 -2.76433 -3.693 0
M  V30 1294 H 115.427 -2.65476 -3.43081 0
M  V30 1295 H 116.098 -2.28888 -5.02309 0
M  V30 1296 H 118.574 -0.587068 -4.11938 0
M  V30 1297 H 117.45 -0.332213 -5.47894 0
M  V30 1298 H 117.711 0.95806 -4.31594 0
M  V30 1299 N 116.77 1.45427 -0.607355 0
M  V30 1300 C 118.017 2.02241 -0.102455 0
M  V30 1301 C 118.345 1.4758 1.26691 0
M  V30 1302 O 117.6 0.640468 1.84923 0
M  V30 1303 C 117.899 3.57398 -0.0129263 0
M  V30 1304 C 117.565 4.3121 -1.31792 0
M  V30 1305 C 116.227 4.51092 -1.67539 0
M  V30 1306 C 118.579 4.73401 -2.18039 0
M  V30 1307 C 115.907 5.10422 -2.89285 0
M  V30 1308 C 118.259 5.34078 -3.39034 0
M  V30 1309 C 116.923 5.52184 -3.75033 0
M  V30 1310 H 116.193 0.740051 -0.037491 0
M  V30 1311 H 118.84 1.74494 -0.788926 0
M  V30 1312 H 117.145 3.84421 0.756806 0
M  V30 1313 H 118.842 3.99061 0.393881 0
M  V30 1314 H 115.432 4.16047 -1.02968 0
M  V30 1315 H 119.616 4.57774 -1.91721 0
M  V30 1316 H 114.872 5.22629 -3.17283 0
M  V30 1317 H 119.046 5.65724 -4.06115 0
M  V30 1318 H 116.673 5.97925 -4.69457 0
M  V30 1319 N 118.248 0.346503 1.53744 0
M  V30 1320 C 119.158 -0.517293 2.28826 0
M  V30 1321 C 120.174 -1.10935 1.3405 0
M  V30 1322 O 121.35 -1.1244 1.6709 0
M  V30 1323 C 118.415 -1.65098 3.04866 0
M  V30 1324 C 117.476 -1.0884 4.15274 0
M  V30 1325 C 116.709 -2.16806 4.87679 0
M  V30 1326 O 116.932 -3.3758 4.59778 0
M  V30 1327 O 115.866 -1.80934 5.74061 0
M  V30 1328 H 119.692 0.0931396 3.03557 0
M  V30 1329 H 117.277 0.111458 1.48984 0
M  V30 1330 H 119.159 -2.31053 3.5241 0
M  V30 1331 H 117.834 -2.24717 2.32989 0
M  V30 1332 H 116.741 -0.3933 3.72027 0
M  V30 1333 H 118.074 -0.537036 4.89261 0
M  V30 1334 N 119.726 -1.57421 0.075193 0
M  V30 1335 C 120.973 -1.93618 -0.593146 0
M  V30 1336 C 121.301 -0.955484 -1.69413 0
M  V30 1337 O 120.556 0.0283251 -1.9568 0
M  V30 1338 C 120.855 -3.36428 -1.20626 0
M  V30 1339 C 120.521 -4.50307 -0.231078 0
M  V30 1340 C 119.183 -4.81186 0.0371936 0
M  V30 1341 C 121.535 -5.19374 0.435888 0
M  V30 1342 C 118.863 -5.78466 0.979461 0
M  V30 1343 C 121.215 -6.17665 1.3665 0
M  V30 1344 C 119.879 -6.46958 1.6432 0
M  V30 1345 H 119.149 -0.708499 -0.217047 0
M  V30 1346 H 121.796 -1.90937 0.146793 0
M  V30 1347 H 120.101 -3.35592 -2.02201 0
M  V30 1348 H 121.798 -3.61727 -1.73073 0
M  V30 1349 H 118.388 -4.26227 -0.450357 0
M  V30 1350 H 122.572 -4.95711 0.241748 0
M  V30 1351 H 117.828 -5.99487 1.20106 0
M  V30 1352 H 122.002 -6.70284 1.88924 0
M  V30 1353 H 119.629 -7.2215 2.37494 0
M  V30 1354 N 121.204 0.198386 -1.56346 0
M  V30 1355 C 122.134 1.24865 -1.9731 0
M  V30 1356 C 123.115 1.47651 -0.844576 0
M  V30 1357 O 124.3 1.59444 -1.10866 0
M  V30 1358 C 121.43 2.59358 -2.30977 0
M  V30 1359 C 120.384 2.5119 -3.46537 0
M  V30 1360 C 119.71 3.89926 -3.65871 0
M  V30 1361 C 121.01 2.03977 -4.80823 0
M  V30 1362 H 122.704 0.908252 -2.85291 0
M  V30 1363 H 120.25 0.435462 -1.37258 0
M  V30 1364 H 122.203 3.33011 -2.58228 0
M  V30 1365 H 120.927 2.95132 -1.39874 0
M  V30 1366 H 119.586 1.79993 -3.19371 0
M  V30 1367 H 119.234 4.23046 -2.72105 0
M  V30 1368 H 118.934 3.85336 -4.4361 0
M  V30 1369 H 120.458 4.65205 -3.95495 0
M  V30 1370 H 121.872 2.67386 -5.07127 0
M  V30 1371 H 120.269 2.10397 -5.62008 0
M  V30 1372 H 121.339 0.992861 -4.74626 0
M  V30 1373 N 122.682 1.50554 0.465978 0
M  V30 1374 C 123.632 1.66177 1.56106 0
M  V30 1375 C 124.616 0.516265 1.52393 0
M  V30 1376 O 125.808 0.770906 1.5933 0
M  V30 1377 C 122.937 1.76396 2.94515 0
M  V30 1378 C 122.023 2.9664 3.03093 0
M  V30 1379 N 122.414 4.20245 2.81474 0
M  V30 1380 C 120.712 2.95304 3.34233 0
M  V30 1381 C 121.413 5.01259 2.95151 0
M  V30 1382 N 120.389 4.35318 3.25576 0
M  V30 1383 H 124.191 2.59434 1.38099 0
M  V30 1384 H 121.705 1.47808 0.6728 0
M  V30 1385 H 123.702 1.85694 3.73261 0
M  V30 1386 H 122.362 0.843017 3.13565 0
M  V30 1387 H 123.373 4.4966 2.56956 0
M  V30 1388 H 120.05 2.12729 3.59239 0
M  V30 1389 H 121.44 6.09564 2.82632 0
M  V30 1390 N 124.16 -0.719506 1.40217 0
M  V30 1391 C 125.092 -1.84428 1.36084 0
M  V30 1392 C 126.105 -1.60597 0.266913 0
M  V30 1393 O 127.294 -1.70544 0.526983 0
M  V30 1394 C 124.394 -3.20757 1.094 0
M  V30 1395 C 123.567 -3.71817 2.30372 0
M  V30 1396 C 122.626 -4.86748 1.99907 0
M  V30 1397 O 121.652 -4.99603 2.72737 0
M  V30 1398 N 122.854 -5.7226 0.974635 0
M  V30 1399 H 125.619 -1.88473 2.33019 0
M  V30 1400 H 123.18 -0.900885 1.3452 0
M  V30 1401 H 125.172 -3.95235 0.870116 0
M  V30 1402 H 123.742 -3.11884 0.211452 0
M  V30 1403 H 122.962 -2.88514 2.68614 0
M  V30 1404 H 124.25 -4.02666 3.11026 0
M  V30 1405 H 123.648 -5.6448 0.371368 0
M  V30 1406 H 122.205 -6.46739 0.810656 0
M  V30 1407 N 125.638 -1.25649 -0.95132 0
M  V30 1408 C 126.915 -1.01361 -1.67288 0
M  V30 1409 C 127.295 0.459135 -2.06046 0
M  V30 1410 O 126.643 1.43723 -1.7764 0
M  V30 1411 C 126.853 -1.95256 -2.89268 0
M  V30 1412 C 128.201 -2.23289 -3.61147 0
M  V30 1413 O 129.225 -1.93041 -2.99355 0
M  V30 1414 O 128.084 -2.74741 -4.72419 0
M  V30 1415 H 125.178 -0.38464 -0.732107 0
M  V30 1416 H 127.724 -1.36817 -1.00395 0
M  V30 1417 H 126.496 -2.94685 -2.57442 0
M  V30 1418 H 126.119 -1.60218 -3.6389 0
M  V30 1419 N 127.117 1.15442 -1.07289 0
M  V30 1420 C 128.047 2.22312 -0.714107 0
M  V30 1421 C 129.028 1.67467 0.298155 0
M  V30 1422 O 130.213 1.93445 0.171048 0
M  V30 1423 C 127.343 3.47124 -0.110448 0
M  V30 1424 C 126.297 4.14926 -1.04979 0
M  V30 1425 C 125.623 5.33807 -0.308924 0
M  V30 1426 C 126.923 4.64762 -2.38314 0
M  V30 1427 H 128.617 2.5258 -1.6076 0
M  V30 1428 H 126.163 1.21404 -0.77441 0
M  V30 1429 H 128.116 4.21124 0.152482 0
M  V30 1430 H 126.84 3.16187 0.81812 0
M  V30 1431 H 125.499 3.42866 -1.29764 0
M  V30 1432 H 125.147 4.99126 0.623084 0
M  V30 1433 H 124.847 5.80113 -0.935036 0
M  V30 1434 H 126.371 6.10576 -0.0537771 0
M  V30 1435 H 127.785 5.30292 -2.1786 0
M  V30 1436 H 126.182 5.21728 -2.96514 0
M  V30 1437 H 127.252 3.80434 -3.00663 0
M  V30 1438 N 128.595 0.856903 1.32268 0
M  V30 1439 C 129.542 0.301172 2.28827 0
M  V30 1440 C 130.512 -0.593104 1.5515 0
M  V30 1441 O 131.697 -0.527537 1.83362 0
M  V30 1442 C 128.837 -0.502523 3.41422 0
M  V30 1443 C 127.95 0.417797 4.29975 0
M  V30 1444 C 127.085 -0.398749 5.29701 0
M  V30 1445 C 126.124 0.518827 6.09897 0
M  V30 1446 N 125.261 -0.260674 7.01616 0
M  V30 1447 H 130.101 1.12983 2.75751 0
M  V30 1448 H 127.638 0.568582 1.35667 0
M  V30 1449 H 129.596 -0.984141 4.05426 0
M  V30 1450 H 128.226 -1.29599 2.95642 0
M  V30 1451 H 127.278 1.01781 3.66531 0
M  V30 1452 H 128.59 1.12191 4.86019 0
M  V30 1453 H 127.744 -0.943435 5.9932 0
M  V30 1454 H 126.483 -1.13622 4.7428 0
M  V30 1455 H 125.488 1.07538 5.39181 0
M  V30 1456 H 126.713 1.25495 6.67404 0
M  V30 1457 H 124.659 -0.981198 6.4862 0
M  V30 1458 H 124.576 0.384364 7.55022 0
M  V30 1459 H 125.844 -0.787014 7.75517 0
M  V30 1460 N 130.073 -1.45103 0.615059 0
M  V30 1461 C 131.02 -2.30586 -0.0993978 0
M  V30 1462 C 131.99 -1.42544 -0.852669 0
M  V30 1463 O 133.175 -1.71465 -0.836917 0
M  V30 1464 C 130.315 -3.27572 -1.08583 0
M  V30 1465 C 129.428 -4.30717 -0.332656 0
M  V30 1466 C 128.563 -5.14807 -1.30947 0
M  V30 1467 C 127.602 -6.09673 -0.544538 0
M  V30 1468 N 126.739 -6.86517 -1.47101 0
M  V30 1469 H 131.579 -2.91144 0.635542 0
M  V30 1470 H 129.116 -1.4346 0.325206 0
M  V30 1471 H 131.074 -3.82276 -1.67095 0
M  V30 1472 H 129.704 -2.68751 -1.78809 0
M  V30 1473 H 128.756 -3.78615 0.368107 0
M  V30 1474 H 130.068 -4.98102 0.263842 0
M  V30 1475 H 129.222 -5.73948 -1.96643 0
M  V30 1476 H 127.961 -4.47458 -1.9399 0
M  V30 1477 H 126.966 -5.49656 0.126003 0
M  V30 1478 H 128.191 -6.79052 0.080947 0
M  V30 1479 H 126.137 -6.21851 -2.08895 0
M  V30 1480 H 126.054 -7.50281 -0.928137 0
M  V30 1481 H 127.322 -7.50194 -2.11731 0
M  V30 1482 N 131.551 -0.354651 -1.53558 0
M  V30 1483 C 132.798 0.238443 -2.01091 0
M  V30 1484 C 133.126 1.49663 -1.24222 0
M  V30 1485 O 132.381 1.93049 -0.321003 0
M  V30 1486 C 132.68 0.587121 -3.52545 0
M  V30 1487 C 132.346 -0.575472 -4.47213 0
M  V30 1488 C 131.008 -0.894497 -4.72813 0
M  V30 1489 C 133.36 -1.35489 -5.03281 0
M  V30 1490 C 130.688 -1.99511 -5.51736 0
M  V30 1491 C 133.04 -2.44583 -5.83405 0
M  V30 1492 C 131.704 -2.77033 -6.07296 0
M  V30 1493 H 130.974 0.0872526 -0.735845 0
M  V30 1494 H 133.621 -0.484859 -1.8526 0
M  V30 1495 H 131.926 1.39129 -3.66265 0
M  V30 1496 H 133.623 1.05809 -3.86789 0
M  V30 1497 H 130.213 -0.316774 -4.27428 0
M  V30 1498 H 134.397 -1.12167 -4.83459 0
M  V30 1499 H 129.653 -2.25063 -5.68469 0
M  V30 1500 H 133.827 -3.05401 -6.25862 0
M  V30 1501 H 131.454 -3.6244 -6.68237 0
M  V30 1502 N 133.029 1.57378 -0.0835403 0
M  V30 1503 C 133.962 2.09016 0.915833 0
M  V30 1504 C 134.94 0.997993 1.2837 0
M  V30 1505 O 136.124 1.27219 1.39096 0
M  V30 1506 C 133.251 2.55757 2.22049 0
M  V30 1507 C 132.297 3.76522 2.00333 0
M  V30 1508 S 133.13 5.20661 1.25191 0
M  V30 1509 C 134.286 5.70743 2.56912 0
M  V30 1510 H 134.519 2.93457 0.476492 0
M  V30 1511 H 132.052 1.53856 0.129493 0
M  V30 1512 H 134.01 2.83346 2.97027 0
M  V30 1513 H 132.671 1.71564 2.63106 0
M  V30 1514 H 131.864 4.07256 2.96916 0
M  V30 1515 H 131.466 3.49367 1.33488 0
M  V30 1516 H 133.758 5.78304 3.52946 0
M  V30 1517 H 134.701 6.6944 2.30772 0
M  V30 1518 H 135.109 4.98616 2.64655 0
M  V30 1519 N 134.507 -0.190092 1.56449 0
M  V30 1520 C 135.784 -0.935886 1.71757 0
M  V30 1521 C 136.164 -2.01173 0.639726 0
M  V30 1522 O 135.512 -2.25827 -0.348502 0
M  V30 1523 C 135.722 -1.51775 3.1427 0
M  V30 1524 C 137.07 -1.99794 3.74656 0
M  V30 1525 O 138.094 -1.61607 3.1743 0
M  V30 1526 O 136.953 -2.70079 4.751 0
M  V30 1527 H 134.047 -0.439229 0.700719 0
M  V30 1528 H 136.593 -0.179395 1.68749 0
M  V30 1529 H 135.365 -0.742505 3.84191 0
M  V30 1530 H 134.988 -2.33894 3.21527 0
M  V30 1531 N 135.985 -1.50799 -0.457987 0
M  V30 1532 C 136.948 -1.7005 -1.53674 0
M  V30 1533 C 137.948 -0.570881 -1.50325 0
M  V30 1534 O 139.138 -0.838126 -1.52712 0
M  V30 1535 C 136.27 -1.73788 -2.93276 0
M  V30 1536 H 137.463 -2.66306 -1.37917 0
M  V30 1537 H 135.016 -1.40477 -0.685271 0
M  V30 1538 H 135.751 -0.792717 -3.14462 0
M  V30 1539 H 135.536 -2.55864 -2.97113 0
M  V30 1540 H 137.026 -1.90591 -3.71571 0
M  V30 1541 N 137.463 0.71206 -1.40597 0
M  V30 1542 C 138.688 1.50617 -1.42581 0
M  V30 1543 C 139.113 1.88079 -0.0282102 0
M  V30 1544 O 138.471 1.53511 0.964579 0
M  V30 1545 C 138.519 2.7557 -2.3258 0
M  V30 1546 O 137.623 3.72414 -1.77148 0
M  V30 1547 H 136.964 0.453966 -0.484573 0
M  V30 1548 H 139.494 0.876649 -1.84868 0
M  V30 1549 H 139.504 3.2406 -2.47889 0
M  V30 1550 H 138.179 2.47639 -3.34138 0
M  V30 1551 H 136.756 3.31276 -1.71204 0
M  V30 1552 N 138.941 1.26152 0.944643 0
M  V30 1553 C 139.904 1.07474 2.0244 0
M  V30 1554 C 140.904 0.0242064 1.60782 0
M  V30 1555 O 142.094 0.267302 1.72137 0
M  V30 1556 C 139.226 0.633956 3.34953 0
M  V30 1557 H 140.419 2.03336 2.20442 0
M  V30 1558 H 137.972 1.087 1.12312 0
M  V30 1559 H 138.707 -0.326811 3.22649 0
M  V30 1560 H 138.492 1.39247 3.66542 0
M  V30 1561 H 139.982 0.52501 4.14287 0
M  V30 1562 N 140.419 -1.14872 1.07899 0
M  V30 1563 C 141.349 -2.2193 0.725887 0
M  V30 1564 C 142.33 -1.67622 -0.28927 0
M  V30 1565 O 143.515 -1.93533 -0.160787 0
M  V30 1566 C 140.645 -3.47061 0.128856 0
M  V30 1567 C 139.599 -4.14363 1.07178 0
M  V30 1568 C 138.925 -5.33636 0.337229 0
M  V30 1569 C 140.225 -4.63492 2.40775 0
M  V30 1570 H 141.919 -2.51724 1.62097 0
M  V30 1571 H 139.465 -1.20991 0.780838 0
M  V30 1572 H 141.418 -4.21199 -0.130147 0
M  V30 1573 H 140.142 -3.16617 -0.80134 0
M  V30 1574 H 138.801 -3.42173 1.3158 0
M  V30 1575 H 138.449 -4.99449 -0.596606 0
M  V30 1576 H 138.149 -5.79609 0.965788 0
M  V30 1577 H 139.673 -6.10539 0.0861567 0
M  V30 1578 H 141.087 -5.2913 2.20669 0
M  V30 1579 H 139.484 -5.20148 2.99276 0
M  V30 1580 H 140.554 -3.78834 3.02676 0
M  V30 1581 N 141.898 -0.863906 -1.31812 0
M  V30 1582 C 143.126 -0.486111 -2.01108 0
M  V30 1583 C 143.541 0.919755 -1.64882 0
M  V30 1584 O 142.898 1.60162 -0.874893 0
M  V30 1585 C 142.949 -0.626435 -3.56031 0
M  V30 1586 O 142.67 -1.97693 -3.90959 0
M  V30 1587 C 144.171 -0.248857 -4.42601 0
M  V30 1588 H 141.391 -0.190052 -0.643523 0
M  V30 1589 H 143.935 -1.1634 -1.68182 0
M  V30 1590 H 142.09 0.00322717 -3.874 0
M  V30 1591 H 142.504 -1.98034 -4.85678 0
M  V30 1592 H 143.978 -0.398016 -5.50563 0
M  V30 1593 H 144.455 0.811489 -4.31638 0
M  V30 1594 H 145.061 -0.853971 -4.16638 0
M  V30 1595 N 143.376 1.44774 -0.622745 0
M  V30 1596 C 144.624 2.01721 -0.123655 0
M  V30 1597 C 144.945 1.49172 1.25589 0
M  V30 1598 O 144.215 0.691974 1.83272 0
M  V30 1599 H 142.795 0.745777 -0.0427225 0
M  V30 1600 H 145.457 1.77382 -0.807559 0
M  V30 1601 H 144.553 3.11984 -0.0849534 0
M  V30 1602 N 144.854 0.36279 1.53368 0
M  V30 1603 C 146.103 -0.22888 2.00397 0
M  V30 1604 C 146.416 -1.50096 1.25421 0
M  V30 1605 O 147.622 -2.17106 1.63025 0
M  V30 1606 C 146.078 -0.458417 3.56969 0
M  V30 1607 C 145.686 0.798877 4.4082 0
M  V30 1608 C 147.43 -1.00789 4.12361 0
M  V30 1609 C 145.337 0.539078 5.88938 0
M  V30 1610 H 144.267 -0.089305 0.748693 0
M  V30 1611 H 146.918 0.481099 1.77081 0
M  V30 1612 H 145.3 -1.22959 3.76427 0
M  V30 1613 H 146.474 1.57262 4.33134 0
M  V30 1614 H 144.789 1.27137 3.96516 0
M  V30 1615 H 147.386 -1.21754 5.20653 0
M  V30 1616 H 147.729 -1.9692 3.66781 0
M  V30 1617 H 148.262 -0.296961 3.9669 0
M  V30 1618 H 145.001 1.47064 6.3879 0
M  V30 1619 H 144.521 -0.196222 5.99479 0
M  V30 1620 H 146.2 0.163542 6.46793 0
M  V30 1621 N 146.332 -1.57332 0.0918853 0
M  V30 1622 C 147.743 -1.81496 -0.437739 0
M  V30 1623 C 148.094 -1.00727 -1.6837 0
M  V30 1624 O 147.219 -0.235694 -2.15113 0
M  V30 1625 C 147.814 -3.29197 -0.800939 0
M  V30 1626 C 146.373 -3.54136 -1.27532 0
M  V30 1627 C 145.52 -2.75979 -0.270392 0
M  V30 1628 H 148.471 -1.55494 0.317366 0
M  V30 1629 H 148.492 -3.42344 -1.66074 0
M  V30 1630 H 148.004 -3.87955 0.106078 0
M  V30 1631 H 146.105 -3.00705 -2.20016 0
M  V30 1632 H 146.218 -4.62792 -1.23938 0
M  V30 1633 H 144.582 -2.43349 -0.751872 0
M  V30 1634 H 145.365 -3.37484 0.629248 0
M  V30 1635 N 147.81 0.181792 -1.56548 0
M  V30 1636 C 148.74 1.22765 -1.98623 0
M  V30 1637 C 149.721 1.46747 -0.860189 0
M  V30 1638 O 150.906 1.58259 -1.12551 0
M  V30 1639 C 148.036 2.56894 -2.33715 0
M  V30 1640 C 146.99 2.475 -3.49182 0
M  V30 1641 C 146.316 3.86023 -3.69986 0
M  V30 1642 C 147.616 1.98866 -4.82959 0
M  V30 1643 H 149.31 0.877942 -2.86239 0
M  V30 1644 H 146.856 0.42088 -1.37712 0
M  V30 1645 H 148.809 3.30253 -2.61746 0
M  V30 1646 H 147.533 2.93632 -1.42997 0
M  V30 1647 H 146.192 1.76596 -3.21262 0
M  V30 1648 H 145.84 4.20136 -2.76576 0
M  V30 1649 H 145.54 3.80609 -4.47672 0
M  V30 1650 H 147.064 4.60984 -4.00407 0
M  V30 1651 H 148.478 2.61992 -5.09934 0
M  V30 1652 H 146.875 2.04424 -5.64208 0
M  V30 1653 H 147.945 0.942465 -4.75653 0
M  V30 1654 N 149.288 1.51039 0.449983 0
M  V30 1655 C 150.699 1.557 1.03026 0
M  V30 1656 C 151.05 0.372939 1.92623 0
M  V30 1657 O 150.175 -0.511771 2.10261 0
M  V30 1658 C 150.77 2.82171 1.87523 0
M  V30 1659 C 149.329 2.89444 2.40622 0
M  V30 1660 C 148.476 2.50228 1.19504 0
M  V30 1661 H 151.427 1.56999 0.231745 0
M  V30 1662 H 151.448 2.65219 2.72835 0
M  V30 1663 H 150.96 3.68331 1.22286 0
M  V30 1664 H 149.061 2.07685 3.0935 0
M  V30 1665 H 149.174 3.92816 2.74285 0
M  V30 1666 H 147.538 2.03139 1.53644 0
M  V30 1667 H 148.321 3.38719 0.558972 0
M  V30 1668 N 150.766 -0.704594 1.40972 0
M  V30 1669 C 151.696 -1.83124 1.44872 0
M  V30 1670 C 152.677 -1.67281 0.30838 0
M  V30 1671 O 153.862 -1.87149 0.518556 0
M  V30 1672 C 150.992 -3.21181 1.32136 0
M  V30 1673 C 149.946 -3.51714 2.43888 0
M  V30 1674 C 149.272 -4.89032 2.16222 0
M  V30 1675 C 150.572 -3.516 3.86232 0
M  V30 1676 H 152.266 -1.80117 2.39161 0
M  V30 1677 H 149.812 -0.865145 1.15114 0
M  V30 1678 H 151.765 -3.99702 1.33479 0
M  V30 1679 H 150.489 -3.24791 0.343279 0
M  V30 1680 H 149.148 -2.75539 2.41813 0
M  V30 1681 H 148.796 -4.89256 1.16778 0
M  V30 1682 H 148.496 -5.10426 2.911 0
M  V30 1683 H 150.02 -5.69873 2.19265 0
M  V30 1684 H 151.434 -4.2014 3.9007 0
M  V30 1685 H 149.831 -3.84523 4.60719 0
M  V30 1686 H 150.901 -2.50757 4.15029 0
M  V30 1687 N 152.244 -1.26651 -0.937939 0
M  V30 1688 C 153.493 -1.11775 -1.67897 0
M  V30 1689 C 153.806 0.33794 -1.92659 0
M  V30 1690 O 155.012 0.607434 -2.64618 0
M  V30 1691 C 153.468 -1.9523 -3.02346 0
M  V30 1692 C 153.076 -3.45393 -2.8532 0
M  V30 1693 C 154.82 -1.88972 -3.80118 0
M  V30 1694 C 152.727 -4.21083 -4.15263 0
M  V30 1695 H 151.657 -0.414696 -0.629717 0
M  V30 1696 H 154.308 -1.50988 -1.04283 0
M  V30 1697 H 152.69 -1.48853 -3.66959 0
M  V30 1698 H 153.864 -3.99561 -2.29537 0
M  V30 1699 H 152.179 -3.52921 -2.20988 0
M  V30 1700 H 154.776 -2.42805 -4.76392 0
M  V30 1701 H 155.119 -0.86113 -4.07296 0
M  V30 1702 H 155.652 -2.33189 -3.22285 0
M  V30 1703 H 152.391 -5.24425 -3.93267 0
M  V30 1704 H 151.911 -3.71695 -4.70747 0
M  V30 1705 H 153.59 -4.29706 -4.83696 0
M  V30 1706 N 153.722 1.14298 -1.08507 0
M  V30 1707 C 154.669 2.19414 -0.715965 0
M  V30 1708 C 155.639 1.63399 0.298326 0
M  V30 1709 O 156.824 1.89929 0.182101 0
M  V30 1710 C 153.964 3.44845 -0.132534 0
M  V30 1711 C 153.077 4.15007 -1.19973 0
M  V30 1712 C 152.212 5.28024 -0.580048 0
M  V30 1713 C 151.251 5.9002 -1.62921 0
M  V30 1714 N 150.388 6.94485 -1.03125 0
M  V30 1715 H 155.228 2.50336 -1.61666 0
M  V30 1716 H 152.765 1.2293 -0.807882 0
M  V30 1717 H 154.723 4.16601 0.223454 0
M  V30 1718 H 153.353 3.14403 0.731467 0
M  V30 1719 H 152.405 3.41629 -1.67313 0
M  V30 1720 H 153.717 4.57178 -1.99473 0
M  V30 1721 H 152.871 6.06455 -0.172364 0
M  V30 1722 H 151.61 4.87076 0.246603 0
M  V30 1723 H 150.615 5.10291 -2.04654 0
M  V30 1724 H 151.84 6.33042 -2.45835 0
M  V30 1725 H 149.786 6.55612 -0.225711 0
M  V30 1726 H 149.703 7.35148 -1.76334 0
M  V30 1727 H 150.971 7.7679 -0.649458 0
M  V30 1728 N 155.201 0.870884 1.31352 0
M  V30 1729 C 156.426 0.495957 2.01383 0
M  V30 1730 C 156.851 -0.904324 1.64935 0
M  V30 1731 O 156.209 -1.59687 0.858466 0
M  V30 1732 C 156.257 0.661433 3.54482 0
M  V30 1733 O 155.361 -0.298851 4.11316 0
M  V30 1734 H 154.702 0.197158 0.634054 0
M  V30 1735 H 157.232 1.17455 1.67527 0
M  V30 1736 H 157.242 0.555072 4.04207 0
M  V30 1737 H 155.917 1.68246 3.8035 0
M  V30 1738 H 154.494 -0.147368 3.72609 0
M  V30 1739 N 156.679 -1.44442 0.630414 0
M  V30 1740 C 157.909 -2.06115 0.141465 0
M  V30 1741 C 158.317 -1.47179 -1.1889 0
M  V30 1742 O 157.66 -0.588873 -1.74006 0
M  V30 1743 C 157.722 -3.59467 -0.0484355 0
M  V30 1744 C 157.386 -4.40864 1.20366 0
M  V30 1745 C 158.383 -4.74391 2.12719 0
M  V30 1746 C 156.068 -4.8125 1.43887 0
M  V30 1747 C 158.062 -5.47186 3.26904 0
M  V30 1748 C 155.749 -5.53795 2.5837 0
M  V30 1749 C 156.747 -5.86682 3.49705 0
M  V30 1750 O 156.435 -6.57749 4.62191 0
M  V30 1751 H 156.167 -0.671648 0.0765792 0
M  V30 1752 H 158.721 -1.86312 0.864695 0
M  V30 1753 H 156.951 -3.77758 -0.826803 0
M  V30 1754 H 158.64 -4.02909 -0.491849 0
M  V30 1755 H 159.406 -4.43728 1.95781 0
M  V30 1756 H 155.285 -4.55073 0.736853 0
M  V30 1757 H 158.829 -5.72773 3.98217 0
M  V30 1758 H 154.726 -5.83872 2.75251 0
M  V30 1759 H 155.494 -6.76217 4.61164 0
M  V30 1760 N 158.157 -0.370918 -1.53173 0
M  V30 1761 C 159.087 0.464847 -2.28826 0
M  V30 1762 C 160.068 1.07936 -1.31468 0
M  V30 1763 O 161.253 1.0956 -1.60344 0
M  V30 1764 C 158.383 1.60196 -3.08147 0
M  V30 1765 C 157.337 1.11443 -4.13237 0
M  V30 1766 C 156.663 2.3422 -4.80672 0
M  V30 1767 C 157.963 0.195384 -5.21934 0
M  V30 1768 H 159.657 -0.166329 -2.98938 0
M  V30 1769 H 157.203 -0.0814359 -1.4377 0
M  V30 1770 H 159.156 2.19332 -3.59822 0
M  V30 1771 H 157.88 2.26045 -2.35735 0
M  V30 1772 H 156.539 0.545727 -3.62515 0
M  V30 1773 H 156.187 2.98537 -4.04827 0
M  V30 1774 H 155.887 2.02269 -5.51689 0
M  V30 1775 H 157.411 2.94032 -5.35143 0
M  V30 1776 H 158.825 0.694375 -5.69079 0
M  V30 1777 H 157.222 -0.0335027 -6.00091 0
M  V30 1778 H 158.292 -0.760961 -4.78892 0
M  V30 1779 N 159.635 1.57281 -0.100228 0
M  V30 1780 C 160.882 1.94537 0.562268 0
M  V30 1781 C 161.21 0.982315 1.67871 0
M  V30 1782 O 160.465 0.00280936 1.957 0
M  V30 1783 C 160.764 3.38305 1.15259 0
M  V30 1784 C 160.43 4.50618 0.159409 0
M  V30 1785 C 159.092 4.81066 -0.113741 0
M  V30 1786 C 161.444 5.18615 -0.518461 0
M  V30 1787 C 158.772 5.76835 -1.07137 0
M  V30 1788 C 161.124 6.15412 -1.46459 0
M  V30 1789 C 159.788 6.44262 -1.74592 0
M  V30 1790 H 159.058 0.711863 0.205748 0
M  V30 1791 H 161.705 1.90679 -0.17715 0
M  V30 1792 H 160.01 3.38766 1.96836 0
M  V30 1793 H 161.707 3.64435 1.67297 0
M  V30 1794 H 158.297 4.2689 0.382491 0
M  V30 1795 H 162.481 4.95264 -0.320581 0
M  V30 1796 H 157.737 5.975 -1.29628 0
M  V30 1797 H 161.911 6.67194 -1.99564 0
M  V30 1798 H 159.538 7.1828 -2.48953 0
M  V30 1799 N 161.113 -0.173488 1.56642 0
M  V30 1800 C 162.045 -1.23935 1.92802 0
M  V30 1801 C 163.058 -1.40589 0.820889 0
M  V30 1802 O 164.247 -1.40631 1.09933 0
M  V30 1803 C 161.347 -2.60837 2.16373 0
M  V30 1804 C 160.52 -2.6551 3.47596 0
M  V30 1805 C 159.579 -3.8376 3.60021 0
M  V30 1806 O 158.605 -3.69859 4.32658 0
M  V30 1807 N 159.807 -5.00127 2.94709 0
M  V30 1808 H 162.572 -0.932236 2.84832 0
M  V30 1809 H 160.133 -0.363268 1.57772 0
M  V30 1810 H 162.125 -3.38407 2.21952 0
M  V30 1811 H 160.695 -2.83948 1.30738 0
M  V30 1812 H 159.915 -1.74052 3.53694 0
M  V30 1813 H 161.203 -2.65641 4.33949 0
M  V30 1814 H 160.601 -5.14322 2.35563 0
M  V30 1815 H 159.158 -5.75567 3.05886 0
M  V30 1816 N 162.591 -1.51276 -0.441967 0
M  V30 1817 C 163.521 -1.752 -1.54361 0
M  V30 1818 C 164.502 -0.601682 -1.59103 0
M  V30 1819 O 165.687 -0.843913 -1.74905 0
M  V30 1820 C 162.817 -1.87282 -2.92477 0
M  V30 1821 C 161.771 -3.02687 -3.02596 0
M  V30 1822 C 161.097 -2.99947 -4.42647 0
M  V30 1823 C 162.397 -4.4273 -2.77106 0
M  V30 1824 H 164.091 -2.67442 -1.34592 0
M  V30 1825 H 161.637 -1.28694 -0.646048 0
M  V30 1826 H 163.59 -2.02602 -3.695 0
M  V30 1827 H 162.314 -0.916844 -3.13467 0
M  V30 1828 H 160.973 -2.87065 -2.28012 0
M  V30 1829 H 160.621 -2.02136 -4.60597 0
M  V30 1830 H 160.321 -3.77439 -4.50348 0
M  V30 1831 H 161.845 -3.17354 -5.2165 0
M  V30 1832 H 163.259 -4.58727 -3.43864 0
M  V30 1833 H 161.656 -5.21893 -2.96222 0
M  V30 1834 H 162.726 -4.53087 -1.72744 0
M  V30 1835 N 164.069 0.697108 -1.41344 0
M  V30 1836 C 164.999 1.82353 -1.45841 0
M  V30 1837 C 165.98 1.67115 -0.317247 0
M  V30 1838 O 167.165 1.86871 -0.528474 0
M  V30 1839 C 164.295 3.20476 -1.33838 0
M  V30 1840 C 163.249 3.50415 -2.4575 0
M  V30 1841 C 162.575 4.87878 -2.18813 0
M  V30 1842 C 163.875 3.49546 -3.88091 0
M  V30 1843 H 165.569 1.78846 -2.40113 0
M  V30 1844 H 163.115 0.859028 -1.15571 0
M  V30 1845 H 165.068 3.98988 -1.35596 0
M  V30 1846 H 163.792 3.24604 -0.360498 0
M  V30 1847 H 162.451 2.74253 -2.43271 0
M  V30 1848 H 162.099 4.8863 -1.19371 0
M  V30 1849 H 161.799 5.08875 -2.93803 0
M  V30 1850 H 163.323 5.68702 -2.22284 0
M  V30 1851 H 164.737 4.18066 -3.92293 0
M  V30 1852 H 163.134 3.82075 -4.62751 0
M  V30 1853 H 164.204 2.48552 -4.16353 0
M  V30 1854 N 165.547 1.27147 0.931209 0
M  V30 1855 C 166.479 1.05364 2.03546 0
M  V30 1856 C 167.492 0.0108438 1.62796 0
M  V30 1857 O 168.681 0.25202 1.76712 0
M  V30 1858 C 165.781 0.575566 3.33977 0
M  V30 1859 C 164.954 1.68985 4.03439 0
M  V30 1860 C 164.013 1.20813 5.12143 0
M  V30 1861 O 163.039 1.90712 5.363 0
M  V30 1862 N 164.241 0.0618851 5.80467 0
M  V30 1863 H 167.006 2.00454 2.22796 0
M  V30 1864 H 164.567 1.18666 1.10136 0
M  V30 1865 H 166.559 0.237264 4.04004 0
M  V30 1866 H 165.129 -0.282016 3.11325 0
M  V30 1867 H 164.349 2.19861 3.27192 0
M  V30 1868 H 165.637 2.4378 4.46597 0
M  V30 1869 H 165.035 -0.521621 5.6329 0
M  V30 1870 H 163.592 -0.217264 6.51438 0
M  V30 1871 N 167.025 -1.13721 1.09112 0
M  V30 1872 C 168.273 -1.84559 0.823562 0
M  V30 1873 C 168.594 -1.83754 -0.652658 0
M  V30 1874 O 167.864 -1.29102 -1.47342 0
M  V30 1875 H 166.444 -0.683376 0.301673 0
M  V30 1876 H 169.106 -1.37771 1.37859 0
M  V30 1877 H 168.202 -2.8917 1.17419 0
M  V30 1878 N 168.503 -0.877838 -1.30888 0
M  V30 1879 C 169.433 -0.35534 -2.3078 0
M  V30 1880 C 170.414 0.557994 -1.60687 0
M  V30 1881 O 171.599 0.473355 -1.88343 0
M  V30 1882 C 168.729 0.437221 -3.44537 0
M  V30 1883 C 167.683 -0.383715 -4.26276 0
M  V30 1884 C 167.009 0.535014 -5.32017 0
M  V30 1885 C 168.309 -1.62201 -4.96476 0
M  V30 1886 H 170.003 -1.19007 -2.74732 0
M  V30 1887 H 167.549 -0.573698 -1.32078 0
M  V30 1888 H 169.502 0.813334 -4.13477 0
M  V30 1889 H 168.226 1.30553 -2.99372 0
M  V30 1890 H 166.885 -0.741874 -3.59015 0
M  V30 1891 H 166.533 1.40083 -4.831 0
M  V30 1892 H 166.233 -0.0104211 -5.87599 0
M  V30 1893 H 167.757 0.907799 -6.03814 0
M  V30 1894 H 169.171 -1.31689 -5.5797 0
M  V30 1895 H 167.568 -2.10711 -5.61891 0
M  V30 1896 H 168.638 -2.37044 -4.23011 0
M  V30 1897 N 169.982 1.44106 -0.638065 0
M  V30 1898 C 170.945 2.29138 0.0531013 0
M  V30 1899 C 171.945 1.41409 0.765506 0
M  V30 1900 O 173.135 1.63206 0.609046 0
M  V30 1901 C 170.267 3.23144 1.08584 0
M  V30 1902 H 171.46 2.91739 -0.694883 0
M  V30 1903 H 169.013 1.51134 -0.398538 0
M  V30 1904 H 169.748 2.65408 1.86357 0
M  V30 1905 H 169.533 3.87804 0.578852 0
M  V30 1906 H 171.023 3.87004 1.56899 0
M  V30 1907 N 171.46 0.379036 1.52974 0
M  V30 1908 C 172.707 -0.206421 2.01445 0
M  V30 1909 C 173.035 -1.47668 1.26587 0
M  V30 1910 O 172.29 -1.92514 0.351675 0
M  V30 1911 C 172.589 -0.53096 3.53434 0
M  V30 1912 C 172.255 0.646546 4.46241 0
M  V30 1913 C 170.917 0.969604 4.7133 0
M  V30 1914 C 173.269 1.43479 5.01062 0
M  V30 1915 C 170.597 2.08263 5.48492 0
M  V30 1916 C 172.949 2.53834 5.7944 0
M  V30 1917 C 171.613 2.86659 6.02812 0
M  V30 1918 H 170.883 -0.0755349 0.73714 0
M  V30 1919 H 173.53 0.514271 1.84465 0
M  V30 1920 H 171.835 -1.33285 3.68432 0
M  V30 1921 H 173.532 -0.996417 3.88423 0
M  V30 1922 H 170.122 0.384734 4.2687 0
M  V30 1923 H 174.306 1.19844 4.81613 0
M  V30 1924 H 169.562 2.34078 5.64816 0
M  V30 1925 H 173.736 3.15319 6.20924 0
M  V30 1926 H 171.363 3.73026 6.62387 0
M  V30 1927 N 172.938 -1.57226 0.108567 0
M  V30 1928 C 174.178 -1.96717 -0.555155 0
M  V30 1929 C 174.542 -0.990003 -1.64508 0
M  V30 1930 O 175.743 -1.2739 -2.36696 0
M  V30 1931 C 174.014 -3.40575 -1.08367 0
M  V30 1932 S 175.573 -4.02072 -1.75737 0
M  V30 1933 H 172.391 -0.687638 -0.180762 0
M  V30 1934 H 174.993 -1.94563 0.191172 0
M  V30 1935 H 173.697 -4.0945 -0.279092 0
M  V30 1936 H 173.228 -3.46356 -1.86551 0
M  V30 1937 H 175.243 -3.91977 -3.04251 0
M  V30 1938 N 174.416 0.165178 -1.56732 0
M  V30 1939 C 175.366 1.20917 -1.93295 0
M  V30 1940 C 176.35 1.39488 -0.801985 0
M  V30 1941 O 177.542 1.41356 -1.06525 0
M  V30 1942 C 174.671 2.54718 -2.3016 0
M  V30 1943 C 173.757 2.39815 -3.49785 0
M  V30 1944 N 174.148 1.94637 -4.66851 0
M  V30 1945 C 172.446 2.70623 -3.54513 0
M  V30 1946 C 173.147 1.92344 -5.4898 0
M  V30 1947 N 172.123 2.34978 -4.9019 0
M  V30 1948 H 175.925 0.851675 -2.81289 0
M  V30 1949 H 173.439 0.373399 -1.58049 0
M  V30 1950 H 175.436 3.30165 -2.54552 0
M  V30 1951 H 174.096 2.91265 -1.43508 0
M  V30 1952 H 175.107 1.6488 -4.90953 0
M  V30 1953 H 171.784 3.11167 -2.78354 0
M  V30 1954 H 173.174 1.5906 -6.52801 0
M  V30 1955 N 175.894 1.51508 0.433938 0
M  V30 1956 C 177.119 1.68443 1.21003 0
M  V30 1957 C 177.544 0.382636 1.84167 0
M  V30 1958 O 176.902 -0.65755 1.68956 0
M  V30 1959 C 176.95 2.80405 2.26727 0
M  V30 1960 O 176.054 2.44245 3.32292 0
M  V30 1961 H 175.395 0.561536 0.354363 0
M  V30 1962 H 177.925 1.9809 0.512024 0
M  V30 1963 H 177.935 3.0459 2.71457 0
M  V30 1964 H 176.61 3.74867 1.80132 0
M  V30 1965 H 175.187 2.30644 2.93015 0
M  V30 1966 N 177.372 -0.689602 1.41712 0
M  V30 1967 C 178.322 -1.79571 1.40493 0
M  V30 1968 C 179.306 -1.58473 0.278409 0
M  V30 1969 O 180.498 -1.69204 0.519532 0
M  V30 1970 C 177.627 -3.17923 1.29536 0
M  V30 1971 C 176.713 -3.44695 2.47075 0
M  V30 1972 N 177.104 -3.42132 3.72531 0
M  V30 1973 C 175.402 -3.75269 2.41017 0
M  V30 1974 C 176.103 -3.67976 4.50521 0
M  V30 1975 N 175.079 -3.88014 3.80718 0
M  V30 1976 H 178.881 -1.75961 2.35404 0
M  V30 1977 H 176.395 -0.889839 1.35851 0
M  V30 1978 H 178.392 -3.97167 1.26745 0
M  V30 1979 H 177.052 -3.22741 0.356153 0
M  V30 1980 H 178.063 -3.22375 4.05333 0
M  V30 1981 H 174.74 -3.87421 1.55599 0
M  V30 1982 H 176.13 -3.7208 5.59469 0
M  V30 1983 N 178.85 -1.27639 -0.924453 0
M  V30 1984 C 180.266 -1.05113 -1.20097 0
M  V30 1985 C 180.466 0.213262 -2.00368 0
M  V30 1986 O 179.522 0.91787 -2.35226 0
M  V30 1987 C 180.835 -2.29244 -1.94596 0
M  V30 1988 C 182.383 -2.34315 -2.07522 0
M  V30 1989 C 182.858 -3.58183 -2.85427 0
M  V30 1990 N 184.349 -3.5876 -2.92994 0
M  V30 1991 C 185.084 -4.51277 -3.53746 0
M  V30 1992 N 184.58 -5.54102 -4.15863 0
M  V30 1993 N 186.373 -4.38894 -3.51181 0
M  V30 1994 H 178.524 -2.08821 -0.388264 0
M  V30 1995 H 180.787 -0.918568 -0.234385 0
M  V30 1996 H 180.493 -3.21301 -1.43034 0
M  V30 1997 H 180.367 -2.34816 -2.95197 0
M  V30 1998 H 182.754 -1.42762 -2.58269 0
M  V30 1999 H 182.835 -2.32744 -1.06131 0
M  V30 2000 H 182.479 -4.50074 -2.35363 0
M  V30 2001 H 182.409 -3.57006 -3.8711 0
M  V30 2002 H 184.9 -2.84398 -2.4885 0
M  V30 2003 H 185.213 -6.20859 -4.60168 0
M  V30 2004 H 183.558 -5.57941 -4.144 0
M  V30 2005 H 186.749 -3.57772 -3.01856 0
M  V30 2006 H 186.922 -5.11186 -3.98237 0
M  V30 2007 N 180.328 1.1314 -1.09713 0
M  V30 2008 C 181.574 1.84757 -0.836224 0
M  V30 2009 C 181.907 1.8347 0.636598 0
M  V30 2010 O 181.182 1.27491 1.46889 0
M  V30 2011 C 181.465 3.32782 -1.37578 0
M  V30 2012 C 181.318 3.42567 -2.91493 0
M  V30 2013 C 182.637 4.28307 -1.01198 0
M  V30 2014 H 179.756 0.67082 -0.305236 0
M  V30 2015 H 182.398 1.3278 -1.35903 0
M  V30 2016 H 180.548 3.77177 -0.931097 0
M  V30 2017 H 182.22 3.06862 -3.44432 0
M  V30 2018 H 180.463 2.83349 -3.28475 0
M  V30 2019 H 181.134 4.46674 -3.24324 0
M  V30 2020 H 183.61 3.91999 -1.39556 0
M  V30 2021 H 182.486 5.30307 -1.41653 0
M  V30 2022 H 182.747 4.42029 0.0794833 0
M  V30 2023 N 181.806 0.884767 1.30421 0
M  V30 2024 C 182.736 0.367574 2.30589 0
M  V30 2025 C 183.717 -0.549464 1.60981 0
M  V30 2026 O 184.902 -0.46336 1.88591 0
M  V30 2027 C 182.032 -0.418944 3.44764 0
M  V30 2028 C 180.986 0.406316 4.26067 0
M  V30 2029 C 180.312 -0.506793 5.32293 0
M  V30 2030 C 181.612 1.64832 4.95608 0
M  V30 2031 H 183.306 1.20462 2.74097 0
M  V30 2032 H 180.852 0.580695 1.31772 0
M  V30 2033 H 182.805 -0.791395 4.13902 0
M  V30 2034 H 181.529 -1.28964 3.0006 0
M  V30 2035 H 180.188 0.760903 3.58617 0
M  V30 2036 H 179.836 -1.37519 4.83836 0
M  V30 2037 H 179.536 0.0415828 5.87585 0
M  V30 2038 H 181.06 -0.875764 6.04287 0
M  V30 2039 H 182.474 1.34646 5.57264 0
M  V30 2040 H 180.871 2.13688 5.60765 0
M  V30 2041 H 181.941 2.39284 4.21748 0
M  V30 2042 N 183.284 -1.43765 0.645699 0
M  V30 2043 C 184.234 -2.27884 -0.0726442 0
M  V30 2044 C 185.218 -1.39483 -0.802086 0
M  V30 2045 O 186.41 -1.63174 -0.685791 0
M  V30 2046 C 183.539 -3.27055 -1.04356 0
M  V30 2047 C 182.625 -4.22944 -0.312985 0
M  V30 2048 N 183.016 -5.01391 0.666386 0
M  V30 2049 C 181.314 -4.42528 -0.55546 0
M  V30 2050 C 182.015 -5.71217 1.09935 0
M  V30 2051 N 180.991 -5.41856 0.435137 0
M  V30 2052 H 184.793 -2.85949 0.678988 0
M  V30 2053 H 182.307 -1.55378 0.472368 0
M  V30 2054 H 184.304 -3.86089 -1.57292 0
M  V30 2055 H 182.964 -2.70551 -1.79534 0
M  V30 2056 H 183.975 -5.07252 1.04481 0
M  V30 2057 H 180.652 -3.97104 -1.28899 0
M  V30 2058 H 182.042 -6.44202 1.90929 0
M  V30 2059 N 184.763 -0.387143 -1.52771 0
M  V30 2060 C 186.179 -0.037007 -1.59557 0
M  V30 2061 C 186.379 1.44801 -1.40124 0
M  V30 2062 O 185.435 2.21227 -1.21716 0
M  V30 2063 C 186.748 -0.512256 -2.96305 0
M  V30 2064 C 188.296 -0.468328 -3.09476 0
M  V30 2065 C 188.771 -0.919731 -4.4867 0
M  V30 2066 N 190.262 -0.875656 -4.54848 0
M  V30 2067 C 190.997 -1.19637 -5.6078 0
M  V30 2068 N 190.493 -1.58745 -6.74368 0
M  V30 2069 N 192.286 -1.11776 -5.50874 0
M  V30 2070 H 184.437 -1.35395 -1.63652 0
M  V30 2071 H 186.7 -0.554818 -0.768688 0
M  V30 2072 H 186.406 -1.54935 -3.15734 0
M  V30 2073 H 186.28 0.089805 -3.77093 0
M  V30 2074 H 188.667 0.559671 -2.89744 0
M  V30 2075 H 188.748 -1.10616 -2.30646 0
M  V30 2076 H 188.392 -1.94595 -4.69143 0
M  V30 2077 H 188.322 -0.258927 -5.25963 0
M  V30 2078 H 190.813 -0.587843 -3.733 0
M  V30 2079 H 191.126 -1.81586 -7.51163 0
M  V30 2080 H 189.471 -1.6263 -6.75705 0
M  V30 2081 H 192.662 -0.811264 -4.61016 0
M  V30 2082 H 192.835 -1.37103 -6.3333 0
M  V30 2083 N 186.241 1.57166 -0.116904 0
M  V30 2084 C 187.518 1.86645 0.585049 0
M  V30 2085 C 187.898 1.0177 1.84949 0
M  V30 2086 O 187.246 0.0960379 2.28298 0
M  V30 2087 C 187.456 3.37736 0.879507 0
M  V30 2088 C 188.804 4.06289 1.23348 0
M  V30 2089 O 189.828 3.42743 0.969836 0
M  V30 2090 O 188.687 5.18455 1.7282 0
M  V30 2091 H 185.781 0.772593 0.295007 0
M  V30 2092 H 188.327 1.69025 -0.151249 0
M  V30 2093 H 187.099 3.91296 -0.0166136 0
M  V30 2094 H 186.722 3.6078 1.67103 0
M  V30 2095 N 187.719 -0.156864 1.56817 0
M  V30 2096 C 188.649 -1.19589 2.00551 0
M  V30 2097 C 189.63 -1.4536 0.883426 0
M  V30 2098 O 190.815 -1.56449 1.15054 0
M  V30 2099 C 187.945 -2.53143 2.37773 0
M  V30 2100 C 186.899 -2.41913 3.53075 0
M  V30 2101 C 186.225 -3.80088 3.76081 0
M  V30 2102 C 187.525 -1.91157 4.86062 0
M  V30 2103 H 189.219 -0.832293 2.87599 0
M  V30 2104 H 186.765 -0.398918 1.38364 0
M  V30 2105 H 188.718 -3.26047 2.66967 0
M  V30 2106 H 187.442 -2.91319 1.4765 0
M  V30 2107 H 186.101 -1.71462 3.24031 0
M  V30 2108 H 185.749 -4.15683 2.83225 0
M  V30 2109 H 185.449 -3.73439 4.53671 0
M  V30 2110 H 186.973 -4.54556 4.0769 0
M  V30 2111 H 188.387 -2.53846 5.14038 0
M  V30 2112 H 186.784 -1.95422 5.67389 0
M  V30 2113 H 187.854 -0.866673 4.77092 0
M  V30 2114 N 189.197 -1.51736 -0.425897 0
M  V30 2115 C 190.144 -1.73875 -1.51776 0
M  V30 2116 C 191.114 -0.580702 -1.55618 0
M  V30 2117 O 192.299 -0.81641 -1.72451 0
M  V30 2118 C 189.439 -1.88012 -2.89388 0
M  V30 2119 C 188.552 -3.15606 -2.94986 0
M  V30 2120 C 187.687 -3.20271 -4.23793 0
M  V30 2121 C 186.726 -4.42134 -4.23302 0
M  V30 2122 N 185.863 -4.44284 -5.43651 0
M  V30 2123 H 190.703 -2.67071 -1.32201 0
M  V30 2124 H 188.24 -1.32351 -0.642008 0
M  V30 2125 H 190.198 -1.9419 -3.69251 0
M  V30 2126 H 188.828 -0.98213 -3.07496 0
M  V30 2127 H 187.88 -3.18681 -2.07717 0
M  V30 2128 H 189.192 -4.05486 -2.90486 0
M  V30 2129 H 188.346 -3.25428 -5.12036 0
M  V30 2130 H 187.085 -2.28299 -4.30965 0
M  V30 2131 H 186.09 -4.3714 -3.3345 0
M  V30 2132 H 187.315 -5.35382 -4.17783 0
M  V30 2133 H 185.261 -3.55188 -5.51523 0
M  V30 2134 H 185.178 -5.27988 -5.41078 0
M  V30 2135 H 186.446 -4.53649 -6.33895 0
M  V30 2136 N 190.675 0.682077 -1.42076 0
M  V30 2137 C 192.086 1.26246 -1.37546 0
M  V30 2138 C 192.437 1.96092 -0.0651481 0
M  V30 2139 O 191.562 1.99587 0.836297 0
M  V30 2140 C 192.157 2.29594 -2.49143 0
M  V30 2141 C 190.716 2.83175 -2.47969 0
M  V30 2142 C 189.863 1.57395 -2.28303 0
M  V30 2143 H 192.814 0.475937 -1.51395 0
M  V30 2144 H 192.835 3.11175 -2.18976 0
M  V30 2145 H 192.347 1.78729 -3.44496 0
M  V30 2146 H 190.448 3.3818 -1.56413 0
M  V30 2147 H 190.561 3.32687 -3.44755 0
M  V30 2148 H 188.925 1.83699 -1.76428 0
M  V30 2149 H 189.708 1.08507 -3.25701 0
M  V30 2150 N 192.153 1.28127 0.917671 0
M  V30 2151 C 193.085 1.07517 2.02417 0
M  V30 2152 C 194.098 0.0281099 1.62776 0
M  V30 2153 O 195.287 0.270748 1.76435 0
M  V30 2154 C 192.387 0.610957 3.33347 0
M  V30 2155 C 191.56 1.73255 4.01624 0
M  V30 2156 C 190.619 1.26238 5.10833 0
M  V30 2157 O 189.645 1.96389 5.34247 0
M  V30 2158 N 190.847 0.123448 5.80369 0
M  V30 2159 H 193.612 2.02806 2.20658 0
M  V30 2160 H 191.173 1.19827 1.08871 0
M  V30 2161 H 193.165 0.280101 4.0373 0
M  V30 2162 H 191.735 -0.24898 3.11607 0
M  V30 2163 H 190.955 2.23319 3.24842 0
M  V30 2164 H 192.243 2.48503 4.43986 0
M  V30 2165 H 191.641 -0.461847 5.63812 0
M  V30 2166 H 190.198 -0.148158 6.51632 0
M  V30 2167 N 193.631 -1.12557 1.10312 0
M  V30 2168 C 194.579 -2.20325 0.745629 0
M  V30 2169 C 195.573 -1.67429 -0.25763 0
M  V30 2170 O 196.779 -1.79612 -0.118132 0
M  V30 2171 H 193.154 -0.718118 0.223182 0
M  V30 2172 H 195.125 -2.47733 1.66346 0
M  V30 2173 C 193.874 -3.47168 0.192262 0
M  V30 2174 H 193.197 -3.88215 0.955475 0
M  V30 2175 H 194.637 -4.23995 -0.0198274 0
M  V30 2176 C 193.096 -3.19298 -1.07472 0
M  V30 2177 O 193.626 -3.3891 -2.15645 0
M  V30 2178 N 191.832 -2.73113 -0.992847 0
M  V30 2179 H 191.379 -2.57354 -0.112474 0
M  V30 2180 H 191.337 -2.54842 -1.84127 0
M  V30 2181 N 195.109 -0.891671 -1.2995 0
M  V30 2182 C 196.039 -0.379797 -2.30391 0
M  V30 2183 C 197.02 0.540919 -1.6127 0
M  V30 2184 O 198.205 0.453352 -1.88834 0
M  V30 2185 C 195.335 0.400654 -3.44981 0
M  V30 2186 C 194.289 -0.428905 -4.25846 0
M  V30 2187 C 193.615 0.478557 -5.32554 0
M  V30 2188 C 194.915 -1.67458 -4.94727 0
M  V30 2189 H 196.609 -1.21914 -2.73454 0
M  V30 2190 H 194.155 -0.587675 -1.31462 0
M  V30 2191 H 196.108 0.769434 -4.14316 0
M  V30 2192 H 194.832 1.27371 -3.0074 0
M  V30 2193 H 193.491 -0.779911 -3.58208 0
M  V30 2194 H 193.139 1.34951 -4.84559 0
M  V30 2195 H 192.839 -0.0727433 -5.87555 0
M  V30 2196 H 194.363 0.843705 -6.04743 0
M  V30 2197 H 195.777 -1.376 -5.56542 0
M  V30 2198 H 194.174 -2.16659 -5.59624 0
M  V30 2199 H 195.244 -2.41518 -4.20473 0
M  V30 2200 N 196.587 1.43421 -0.653314 0
M  V30 2201 C 197.517 2.33487 0.0246656 0
M  V30 2202 C 198.498 1.49475 0.811863 0
M  V30 2203 O 199.683 1.78139 0.773322 0
M  V30 2204 C 196.813 3.32841 0.99166 0
M  V30 2205 C 195.767 4.26842 0.314568 0
M  V30 2206 C 195.093 5.16236 1.39302 0
M  V30 2207 C 196.393 5.16243 -0.793095 0
M  V30 2208 H 198.087 2.90427 -0.727481 0
M  V30 2209 H 195.633 1.39649 -0.351287 0
M  V30 2210 H 197.586 3.94747 1.47487 0
M  V30 2211 H 196.31 2.74158 1.77497 0
M  V30 2212 H 194.969 3.663 -0.148199 0
M  V30 2213 H 194.617 4.53891 2.16776 0
M  V30 2214 H 194.317 5.79948 0.945223 0
M  V30 2215 H 195.841 5.81015 1.87759 0
M  V30 2216 H 197.255 5.71958 -0.392039 0
M  V30 2217 H 195.652 5.88676 -1.16536 0
M  V30 2218 H 196.722 4.55927 -1.65103 0
M  V30 2219 N 198.065 0.39524 1.52563 0
M  V30 2220 C 199.314 -0.186321 2.00838 0
M  V30 2221 C 199.627 -1.47402 1.28577 0
M  V30 2222 O 200.833 -2.13599 1.67593 0
M  V30 2223 C 199.289 -0.382595 3.57861 0
M  V30 2224 C 198.897 0.892202 4.39026 0
M  V30 2225 C 200.641 -0.9202 4.14406 0
M  V30 2226 C 198.548 0.66388 5.87662 0
M  V30 2227 H 197.478 -0.0734041 0.750418 0
M  V30 2228 H 200.129 0.518552 1.76021 0
M  V30 2229 H 198.511 -1.14946 3.7895 0
M  V30 2230 H 199.685 1.66414 4.29701 0
M  V30 2231 H 198 1.35519 3.9373 0
M  V30 2232 H 200.597 -1.10683 5.23119 0
M  V30 2233 H 200.94 -1.89096 3.70875 0
M  V30 2234 H 201.473 -0.212751 3.97231 0
M  V30 2235 H 198.212 1.6058 6.35527 0
M  V30 2236 H 197.732 -0.0690193 5.9976 0
M  V30 2237 H 199.411 0.300699 6.46301 0
M  V30 2238 N 199.544 -1.57102 0.125237 0
M  V30 2239 C 200.492 -2.16905 -0.839927 0
M  V30 2240 C 201.486 -1.11998 -1.27094 0
M  V30 2241 O 202.692 -1.3029 -1.24195 0
M  V30 2242 H 199.067 -0.694252 -0.288995 0
M  V30 2243 H 201.038 -2.96774 -0.311115 0
M  V30 2244 C 199.787 -2.78795 -2.07771 0
M  V30 2245 H 199.11 -3.59221 -1.755 0
M  V30 2246 H 200.55 -3.2417 -2.73295 0
M  V30 2247 C 199.009 -1.76193 -2.87155 0
M  V30 2248 O 199.539 -1.21909 -3.82755 0
M  V30 2249 N 197.745 -1.45991 -2.51267 0
M  V30 2250 H 197.292 -1.90325 -1.73592 0
M  V30 2251 H 197.25 -0.775844 -3.04677 0
M  V30 2252 N 201.022 0.148545 -1.56898 0
M  V30 2253 C 202.25 0.876389 -1.87422 0
M  V30 2254 C 202.665 1.74809 -0.713256 0
M  V30 2255 O 202.022 1.79725 0.317025 0
M  V30 2256 C 202.073 1.73438 -3.17178 0
M  V30 2257 O 201.794 0.897809 -4.28802 0
M  V30 2258 C 203.295 2.56993 -3.61205 0
M  V30 2259 H 200.515 0.253489 -0.621277 0
M  V30 2260 H 203.059 0.141798 -2.04008 0
M  V30 2261 H 201.214 2.42205 -3.0235 0
M  V30 2262 H 201.628 1.48672 -5.02988 0
M  V30 2263 H 203.102 3.12773 -4.54838 0
M  V30 2264 H 203.579 3.32958 -2.86419 0
M  V30 2265 H 204.185 1.9352 -3.78722 0
M  V30 2266 N 202.5 1.5196 0.417844 0
M  V30 2267 C 203.41 1.77554 1.53336 0
M  V30 2268 C 204.426 0.660655 1.6097 0
M  V30 2269 O 205.602 0.945099 1.77848 0
M  V30 2270 C 202.667 1.91291 2.89152 0
M  V30 2271 C 201.728 3.15183 2.91475 0
M  V30 2272 C 200.961 3.28256 4.20813 0
M  V30 2273 O 201.184 2.46798 5.14244 0
M  V30 2274 O 200.118 4.21356 4.29817 0
M  V30 2275 H 203.944 2.7222 1.34647 0
M  V30 2276 H 201.529 1.36698 0.602828 0
M  V30 2277 H 203.411 2.02199 3.69721 0
M  V30 2278 H 202.086 0.998129 3.07927 0
M  V30 2279 H 200.993 3.09739 2.09791 0
M  V30 2280 H 202.326 4.06414 2.77648 0
M  V30 2281 N 203.978 -0.674533 1.42435 0
M  V30 2282 C 205.226 -1.43175 1.42637 0
M  V30 2283 C 205.547 -1.94951 0.0438992 0
M  V30 2284 O 204.817 -1.7308 -0.917607 0
M  V30 2285 H 203.397 -0.531307 0.525092 0
M  V30 2286 H 206.059 -0.797006 1.77859 0
M  V30 2287 H 205.155 -2.28463 2.12629 0
M  V30 2288 N 205.456 -1.28612 -0.910864 0
M  V30 2289 C 206.419 -1.12803 -1.9952 0
M  V30 2290 C 207.419 -0.0668264 -1.60661 0
M  V30 2291 O 208.609 -0.312847 -1.71368 0
M  V30 2292 C 205.741 -0.72254 -3.33155 0
M  V30 2293 H 206.934 -2.09109 -2.14973 0
M  V30 2294 H 204.487 -1.11639 -1.09391 0
M  V30 2295 H 205.222 0.241152 -3.23402 0
M  V30 2296 H 205.007 -1.48916 -3.62721 0
M  V30 2297 H 206.497 -0.634666 -4.12749 0
M  V30 2298 N 206.934 1.1197 -1.10907 0
M  V30 2299 C 208.183 1.82947 -0.849302 0
M  V30 2300 C 208.496 1.85275 0.627112 0
M  V30 2301 O 209.702 2.52296 1.00295 0
M  V30 2302 C 208.158 3.28529 -1.46959 0
M  V30 2303 C 207.766 3.34546 -2.97965 0
M  V30 2304 C 209.51 4.04443 -1.28942 0
M  V30 2305 C 207.417 4.74491 -3.53004 0
M  V30 2306 H 206.347 0.685477 -0.314065 0
M  V30 2307 H 208.998 1.2604 -1.33365 0
M  V30 2308 H 207.38 3.85333 -0.912917 0
M  V30 2309 H 208.554 2.87654 -3.59989 0
M  V30 2310 H 206.869 2.72108 -3.15192 0
M  V30 2311 H 209.466 5.07787 -1.67502 0
M  V30 2312 H 209.809 4.15656 -0.231456 0
M  V30 2313 H 210.342 3.5401 -1.81443 0
M  V30 2314 H 207.081 4.68474 -4.58489 0
M  V30 2315 H 206.601 5.21816 -2.9575 0
M  V30 2316 H 208.28 5.4344 -3.51115 0
M  V30 2317 N 208.412 0.89855 1.29475 0
M  V30 2318 C 209.359 0.373819 2.27753 0
M  V30 2319 C 210.329 -0.543444 1.56958 0
M  V30 2320 O 211.514 -0.468934 1.84948 0
M  V30 2321 C 208.654 -0.393648 3.42848 0
M  V30 2322 C 207.767 0.554379 4.28428 0
M  V30 2323 C 206.902 -0.230026 5.30702 0
M  V30 2324 C 205.941 0.712599 6.07938 0
M  V30 2325 N 205.078 -0.0373283 7.0209 0
M  V30 2326 H 209.918 1.21699 2.72017 0
M  V30 2327 H 207.455 0.611456 1.33789 0
M  V30 2328 H 209.413 -0.85466 4.08352 0
M  V30 2329 H 208.043 -1.20128 2.99615 0
M  V30 2330 H 207.095 1.13391 3.63107 0
M  V30 2331 H 208.407 1.27597 4.82204 0
M  V30 2332 H 207.561 -0.752288 6.02018 0
M  V30 2333 H 206.3 -0.984758 4.77654 0
M  V30 2334 H 205.305 1.24637 5.35486 0
M  V30 2335 H 206.53 1.46664 6.63074 0
M  V30 2336 H 204.476 -0.774348 6.51414 0
M  V30 2337 H 204.393 0.624374 7.53417 0
M  V30 2338 H 205.661 -0.539891 7.77628 0
M  V30 2339 N 209.89 -1.43072 0.660911 0
M  V30 2340 C 210.82 -2.33497 -0.0122829 0
M  V30 2341 C 211.801 -1.49903 -0.803925 0
M  V30 2342 O 212.986 -1.78546 -0.763864 0
M  V30 2343 C 210.116 -3.33363 -0.973994 0
M  V30 2344 C 209.07 -4.27003 -0.291928 0
M  V30 2345 C 208.396 -5.16967 -1.36562 0
M  V30 2346 C 209.696 -5.15816 0.820462 0
M  V30 2347 H 211.39 -2.90038 0.742873 0
M  V30 2348 H 208.936 -1.39461 0.358688 0
M  V30 2349 H 210.889 -3.95524 -1.45392 0
M  V30 2350 H 209.613 -2.75095 -1.7604 0
M  V30 2351 H 208.272 -3.66217 0.167623 0
M  V30 2352 H 207.92 -4.55034 -2.14366 0
M  V30 2353 H 207.62 -5.80441 -0.914454 0
M  V30 2354 H 209.144 -5.82003 -1.84675 0
M  V30 2355 H 210.558 -5.71742 0.422366 0
M  V30 2356 H 208.955 -5.8805 1.19656 0
M  V30 2357 H 210.025 -4.55045 1.67518 0
M  V30 2358 N 211.368 -0.403325 -1.52352 0
M  V30 2359 C 212.331 0.413051 -2.25447 0
M  V30 2360 C 213.331 0.978513 -1.276 0
M  V30 2361 O 214.521 0.858305 -1.51587 0
M  V30 2362 C 211.653 1.58087 -3.02029 0
M  V30 2363 H 212.846 -0.227094 -2.99039 0
M  V30 2364 H 210.399 -0.155722 -1.55522 0
M  V30 2365 H 211.134 2.25804 -2.32772 0
M  V30 2366 H 210.919 1.18195 -3.73861 0
M  V30 2367 H 212.409 2.1585 -3.57489 0
M  V30 2368 N 212.846 1.57033 -0.133567 0
M  V30 2369 C 214.123 1.87256 0.56522 0
M  V30 2370 C 214.503 1.03726 1.83859 0
M  V30 2371 O 213.851 0.120247 2.28183 0
M  V30 2372 C 214.061 3.3865 0.843636 0
M  V30 2373 C 215.409 4.07574 1.19032 0
M  V30 2374 O 216.433 3.43752 0.933429 0
M  V30 2375 O 215.292 5.20259 1.67312 0
M  V30 2376 H 212.386 0.775678 0.286796 0
M  V30 2377 H 214.932 1.68855 -0.169168 0
M  V30 2378 H 213.704 3.91257 -0.0581149 0
M  V30 2379 H 213.327 3.62532 1.63268 0
M  V30 2380 N 214.325 -0.140222 1.56975 0
M  V30 2381 C 215.572 -0.851687 1.83719 0
M  V30 2382 C 215.9 -1.80862 0.715485 0
M  V30 2383 O 215.155 -1.93464 -0.294956 0
M  V30 2384 C 215.454 -1.65386 3.16832 0
M  V30 2385 C 215.12 -0.843112 4.42947 0
M  V30 2386 C 213.782 -0.619464 4.77196 0
M  V30 2387 C 216.134 -0.276582 5.20466 0
M  V30 2388 C 213.462 0.181312 5.8642 0
M  V30 2389 C 215.814 0.51127 6.30531 0
M  V30 2390 C 214.478 0.745432 6.63325 0
M  V30 2391 H 213.748 -0.311654 0.672274 0
M  V30 2392 H 216.395 -0.115006 1.91154 0
M  V30 2393 H 214.7 -2.46084 3.04877 0
M  V30 2394 H 216.397 -2.20793 3.34741 0
M  V30 2395 H 212.987 -1.0275 4.16101 0
M  V30 2396 H 217.171 -0.436632 4.94376 0
M  V30 2397 H 212.427 0.372165 6.10266 0
M  V30 2398 H 216.601 0.957354 6.89788 0
M  V30 2399 H 214.228 1.36778 7.47794 0
M  V30 2400 N 215.803 -1.52179 -0.40978 0
M  V30 2401 C 217.051 -1.65878 -1.15451 0
M  V30 2402 C 217.372 -0.390771 -1.91044 0
M  V30 2403 O 216.642 0.594323 -1.86667 0
M  V30 2404 H 215.222 -0.611405 -0.429177 0
M  V30 2405 H 217.884 -1.89219 -0.467134 0
M  V30 2406 H 216.98 -2.49954 -1.86894 0
M  V30 2407 N 217.281 0.66697 -1.42791 0
M  V30 2408 C 218.211 1.79218 -1.49677 0
M  V30 2409 C 219.192 1.66405 -0.352623 0
M  V30 2410 O 220.377 1.85708 -0.567993 0
M  V30 2411 C 217.507 3.17565 -1.40605 0
M  V30 2412 C 216.461 3.45124 -2.53127 0
M  V30 2413 C 215.787 4.83127 -2.29112 0
M  V30 2414 C 217.087 3.41236 -3.95418 0
M  V30 2415 H 218.781 1.73713 -2.43853 0
M  V30 2416 H 216.327 0.83432 -1.17367 0
M  V30 2417 H 218.28 3.96022 -1.44029 0
M  V30 2418 H 217.004 3.23767 -0.429271 0
M  V30 2419 H 215.663 2.69031 -2.49034 0
M  V30 2420 H 215.311 4.85988 -1.29709 0
M  V30 2421 H 215.011 5.02528 -3.04531 0
M  V30 2422 H 216.535 5.63859 -2.34297 0
M  V30 2423 H 217.949 4.09651 -4.01073 0
M  V30 2424 H 216.346 3.72173 -4.70752 0
M  V30 2425 H 217.416 2.39665 -4.21532 0
M  V30 2426 N 218.759 1.29093 0.90403 0
M  V30 2427 C 219.722 1.1386 1.98919 0
M  V30 2428 C 220.722 0.0753457 1.60623 0
M  V30 2429 O 221.912 0.321931 1.71199 0
M  V30 2430 C 219.044 0.740198 3.32767 0
M  V30 2431 H 220.237 2.10246 2.13861 0
M  V30 2432 H 217.79 1.12218 1.08797 0
M  V30 2433 H 218.525 -0.223997 3.23525 0
M  V30 2434 H 218.31 1.50838 3.61926 0
M  V30 2435 H 219.8 0.656546 4.12407 0
M  V30 2436 N 220.237 -1.11381 1.11499 0
M  V30 2437 C 221.653 -1.35143 0.849031 0
M  V30 2438 C 221.853 -1.94515 -0.525938 0
M  V30 2439 O 220.909 -2.1785 -1.27662 0
M  V30 2440 C 222.222 -2.28249 1.95762 0
M  V30 2441 C 223.77 -2.41812 1.98736 0
M  V30 2442 C 224.245 -3.3824 3.088 0
M  V30 2443 N 225.736 -3.45803 3.08179 0
M  V30 2444 C 226.471 -4.20358 3.89982 0
M  V30 2445 N 225.967 -4.97884 4.8175 0
M  V30 2446 N 227.76 -4.15877 3.78157 0
M  V30 2447 H 219.911 -0.712062 2.00109 0
M  V30 2448 H 222.174 -0.376025 0.870235 0
M  V30 2449 H 221.88 -1.91817 2.94787 0
M  V30 2450 H 221.754 -3.28473 1.85433 0
M  V30 2451 H 224.141 -2.77518 1.00338 0
M  V30 2452 H 224.222 -1.41437 2.13141 0
M  V30 2453 H 223.866 -3.03261 4.07425 0
M  V30 2454 H 223.796 -4.38471 2.91635 0
M  V30 2455 H 226.287 -2.90506 2.41691 0
M  V30 2456 H 226.6 -5.52142 5.40702 0
M  V30 2457 H 224.945 -4.97043 4.85771 0
M  V30 2458 H 228.136 -3.544 3.05808 0
M  V30 2459 H 228.309 -4.73723 4.42143 0
M  V30 2460 N 221.715 -0.905404 -1.28997 0
M  V30 2461 C 222.678 -0.392253 -2.25819 0
M  V30 2462 C 223.678 0.476753 -1.5357 0
M  V30 2463 O 224.868 0.280994 -1.71919 0
M  V30 2464 C 222 0.438588 -3.38067 0
M  V30 2465 H 223.193 -1.24743 -2.72725 0
M  V30 2466 H 220.746 -0.684051 -1.40536 0
M  V30 2467 H 221.481 1.31352 -2.96508 0
M  V30 2468 H 221.266 -0.184167 -3.91667 0
M  V30 2469 H 222.756 0.78873 -4.10084 0
M  V30 2470 N 223.193 1.4272 -0.668489 0
M  V30 2471 C 224.44 2.01624 -0.18814 0
M  V30 2472 C 224.768 1.5282 1.20317 0
M  V30 2473 O 224.023 0.718323 1.8204 0
M  V30 2474 C 224.322 3.57021 -0.164499 0
M  V30 2475 C 223.988 4.25232 -1.49962 0
M  V30 2476 C 222.65 4.4358 -1.8652 0
M  V30 2477 C 225.002 4.63727 -2.37921 0
M  V30 2478 C 222.33 4.97694 -3.10674 0
M  V30 2479 C 224.682 5.19218 -3.6138 0
M  V30 2480 C 223.346 5.3578 -3.98115 0
M  V30 2481 H 222.616 0.737795 -0.0688454 0
M  V30 2482 H 225.263 1.70991 -0.862225 0
M  V30 2483 H 223.568 3.87285 0.593079 0
M  V30 2484 H 225.265 4.00372 0.224271 0
M  V30 2485 H 221.855 4.11306 -1.20522 0
M  V30 2486 H 226.039 4.4923 -2.10964 0
M  V30 2487 H 221.295 5.08702 -3.39164 0
M  V30 2488 H 225.469 5.4799 -4.29743 0
M  V30 2489 H 223.096 5.77475 -4.94395 0
M  V30 2490 N 224.671 0.411399 1.52136 0
M  V30 2491 C 225.919 -0.163322 2.01439 0
M  V30 2492 C 226.24 -1.45453 1.29879 0
M  V30 2493 O 225.51 -1.91225 0.4254 0
M  V30 2494 H 224.09 -0.0633447 0.744309 0
M  V30 2495 H 226.752 0.548161 1.87033 0
M  V30 2496 H 225.848 -0.357817 3.10042 0
M  V30 2497 N 226.149 -1.5696 0.141893 0
M  V30 2498 C 227.395 -1.9625 -0.511248 0
M  V30 2499 C 227.728 -1.02654 -1.64851 0
M  V30 2500 O 227.003 -0.0679676 -1.94381 0
M  V30 2501 C 227.286 -3.45285 -1.02227 0
M  V30 2502 C 227.139 -4.49658 0.113138 0
M  V30 2503 C 228.458 -3.96698 -1.90574 0
M  V30 2504 H 225.577 -0.713567 -0.184367 0
M  V30 2505 H 228.219 -1.88698 0.222087 0
M  V30 2506 H 226.369 -3.51852 -1.64719 0
M  V30 2507 H 228.041 -4.55174 0.749302 0
M  V30 2508 H 226.284 -4.26857 0.773026 0
M  V30 2509 H 226.955 -5.51258 -0.286053 0
M  V30 2510 H 229.431 -3.92578 -1.37918 0
M  V30 2511 H 228.307 -5.01453 -2.2324 0
M  V30 2512 H 228.568 -3.3875 -2.84079 0
M  V30 2513 N 227.627 0.131896 -1.57047 0
M  V30 2514 C 229.038 0.690407 -1.73465 0
M  V30 2515 C 229.389 1.8094 -0.758629 0
M  V30 2516 O 228.514 2.16282 0.0713813 0
M  V30 2517 C 229.109 1.25916 -3.14532 0
M  V30 2518 C 227.668 1.76409 -3.32501 0
M  V30 2519 C 226.815 0.658579 -2.69366 0
M  V30 2520 H 229.766 -0.0939144 -1.58422 0
M  V30 2521 H 229.787 2.12892 -3.15369 0
M  V30 2522 H 229.299 0.444515 -3.85546 0
M  V30 2523 H 227.4 2.60391 -2.66509 0
M  V30 2524 H 227.513 1.88241 -4.4057 0
M  V30 2525 H 225.877 1.08899 -2.30246 0
M  V30 2526 H 226.66 -0.14487 -3.42994 0
M  V30 2527 N 229.106 1.52395 0.401703 0
M  V30 2528 C 230.352 1.67065 1.14966 0
M  V30 2529 C 230.685 0.403052 1.89971 0
M  V30 2530 O 229.96 -0.598774 1.85054 0
M  V30 2531 C 230.243 2.8975 2.13815 0
M  V30 2532 C 230.096 4.26578 1.42658 0
M  V30 2533 C 231.415 3.07965 3.14397 0
M  V30 2534 H 228.534 0.607968 0.416587 0
M  V30 2535 H 231.176 1.84965 0.434511 0
M  V30 2536 H 229.326 2.74619 2.74803 0
M  V30 2537 H 230.998 4.53451 0.847329 0
M  V30 2538 H 229.241 4.27639 0.72849 0
M  V30 2539 H 229.912 5.08483 2.14823 0
M  V30 2540 H 232.388 3.22043 2.63491 0
M  V30 2541 H 231.264 3.95308 3.80819 0
M  V30 2542 H 231.525 2.21611 3.82545 0
M  V30 2543 N 230.584 -0.659388 1.43143 0
M  V30 2544 C 232 -0.974337 1.26407 0
M  V30 2545 C 232.2 -2.007 0.179341 0
M  V30 2546 O 231.256 -2.4856 -0.444295 0
M  V30 2547 C 232.569 -1.46447 2.62628 0
M  V30 2548 C 234.117 -1.58144 2.7011 0
M  V30 2549 C 234.592 -2.1055 4.06734 0
M  V30 2550 N 236.083 -2.17861 4.08767 0
M  V30 2551 C 236.818 -2.59519 5.1131 0
M  V30 2552 N 236.314 -3.00518 6.24228 0
M  V30 2553 N 238.107 -2.59404 4.98664 0
M  V30 2554 H 230.258 0.0240528 2.12386 0
M  V30 2555 H 232.521 -0.0518065 0.946583 0
M  V30 2556 H 232.227 -0.780123 3.42939 0
M  V30 2557 H 232.101 -2.44058 2.87603 0
M  V30 2558 H 234.488 -2.25682 1.90136 0
M  V30 2559 H 234.569 -0.589828 2.48907 0
M  V30 2560 H 234.213 -1.43616 4.87172 0
M  V30 2561 H 234.143 -3.10531 4.25298 0
M  V30 2562 H 236.634 -1.88975 3.27257 0
M  V30 2563 H 236.947 -3.31036 6.98309 0
M  V30 2564 H 235.292 -2.98337 6.2771 0
M  V30 2565 H 238.483 -2.26747 4.09516 0
M  V30 2566 H 238.656 -2.91548 5.78709 0
M  V30 2567 N 232.062 -1.29571 -0.897171 0
M  V30 2568 C 233.29 -1.20583 -1.68129 0
M  V30 2569 C 233.705 0.233181 -1.87354 0
M  V30 2570 O 233.062 1.15579 -1.41236 0
M  V30 2571 C 233.113 -1.91772 -3.06441 0
M  V30 2572 O 232.834 -3.30053 -2.88091 0
M  V30 2573 C 234.335 -1.89291 -4.00854 0
M  V30 2574 H 231.555 -0.417826 -0.525036 0
M  V30 2575 H 234.099 -1.70987 -1.12177 0
M  V30 2576 H 232.254 -1.45196 -3.59161 0
M  V30 2577 H 232.668 -3.65942 -3.75748 0
M  V30 2578 H 234.142 -2.43662 -4.95311 0
M  V30 2579 H 234.619 -0.869014 -4.30517 0
M  V30 2580 H 235.225 -2.35622 -3.54066 0
M  V30 2581 N 233.54 1.10788 -1.12088 0
M  V30 2582 C 234.77 1.86191 -0.895351 0
M  V30 2583 C 235.178 1.80763 0.558702 0
M  V30 2584 O 234.521 1.19188 1.39785 0
M  V30 2585 C 234.583 3.35659 -1.28737 0
M  V30 2586 C 234.247 3.64849 -2.75198 0
M  V30 2587 C 235.244 3.61757 -3.734 0
M  V30 2588 C 232.929 3.93641 -3.12013 0
M  V30 2589 C 234.923 3.87045 -5.06434 0
M  V30 2590 C 232.61 4.18585 -4.4523 0
M  V30 2591 C 233.608 4.15277 -5.42249 0
M  V30 2592 O 233.296 4.3959 -6.73065 0
M  V30 2593 H 233.028 0.595425 -0.32007 0
M  V30 2594 H 235.582 1.40992 -1.49367 0
M  V30 2595 H 233.812 3.81497 -0.63224 0
M  V30 2596 H 235.501 3.92441 -1.03656 0
M  V30 2597 H 236.267 3.39557 -3.46303 0
M  V30 2598 H 232.146 3.95348 -2.37109 0
M  V30 2599 H 235.69 3.84378 -5.82151 0
M  V30 2600 H 231.587 4.40264 -4.72057 0
M  V30 2601 H 232.355 4.57123 -6.78956 0
M  V30 2602 N 235.018 0.912232 1.28515 0
M  V30 2603 C 236.246 0.560416 1.99166 0
M  V30 2604 C 236.661 -0.857927 1.68182 0
M  V30 2605 O 236.018 -1.56805 0.933733 0
M  V30 2606 C 236.069 0.758142 3.53461 0
M  V30 2607 O 235.79 2.12067 3.83352 0
M  V30 2608 C 237.291 0.412954 4.41372 0
M  V30 2609 H 234.511 0.213805 0.636026 0
M  V30 2610 H 237.055 1.22502 1.63749 0
M  V30 2611 H 235.21 0.140556 3.87145 0
M  V30 2612 H 235.624 2.15923 4.77993 0
M  V30 2613 H 237.098 0.60208 5.48707 0
M  V30 2614 H 237.575 -0.65073 4.34353 0
M  V30 2615 H 238.181 1.00802 4.13182 0
M  V30 2616 N 236.496 -1.42363 0.676048 0
M  V30 2617 C 237.446 -2.27987 -0.0242903 0
M  V30 2618 C 238.43 -1.41153 -0.772319 0
M  V30 2619 O 239.622 -1.64592 -0.651025 0
M  V30 2620 C 236.751 -3.29195 -0.973953 0
M  V30 2621 C 235.837 -4.23512 -0.223202 0
M  V30 2622 N 236.228 -4.99865 0.772589 0
M  V30 2623 C 234.526 -4.43606 -0.461469 0
M  V30 2624 C 235.227 -5.68757 1.22027 0
M  V30 2625 N 234.203 -5.40811 0.549975 0
M  V30 2626 H 238.005 -2.84445 0.73949 0
M  V30 2627 H 235.519 -1.54341 0.50522 0
M  V30 2628 H 237.516 -3.89339 -1.49067 0
M  V30 2629 H 236.176 -2.74298 -1.73755 0
M  V30 2630 H 237.187 -5.04921 1.15217 0
M  V30 2631 H 233.864 -3.99749 -1.20446 0
M  V30 2632 H 235.254 -6.40007 2.0455 0
M  V30 2633 N 237.974 -0.419461 -1.51915 0
M  V30 2634 C 238.884 0.407528 -2.31033 0
M  V30 2635 C 239.9 1.04413 -1.3919 0
M  V30 2636 O 241.076 1.0434 -1.72265 0
M  V30 2637 C 238.141 1.50365 -3.12396 0
M  V30 2638 C 237.202 0.889029 -4.19994 0
M  V30 2639 C 236.435 1.93291 -4.97468 0
M  V30 2640 O 236.658 3.15259 -4.75361 0
M  V30 2641 O 235.592 1.53339 -5.8204 0
M  V30 2642 H 239.418 -0.237865 -3.02767 0
M  V30 2643 H 237.003 -0.182413 -1.48282 0
M  V30 2644 H 238.885 2.13975 -3.63032 0
M  V30 2645 H 237.56 2.13345 -2.43445 0
M  V30 2646 H 236.467 0.215353 -3.7348 0
M  V30 2647 H 237.8 0.302991 -4.91267 0
M  V30 2648 N 239.452 1.56882 -0.150215 0
M  V30 2649 C 240.698 1.96518 0.500834 0
M  V30 2650 C 241.031 1.03527 1.64304 0
M  V30 2651 O 240.306 0.0782751 1.94342 0
M  V30 2652 C 240.589 3.45822 1.00395 0
M  V30 2653 C 240.442 4.49591 -0.136983 0
M  V30 2654 C 241.761 3.97704 1.88467 0
M  V30 2655 H 238.88 0.714535 0.18058 0
M  V30 2656 H 241.522 1.88577 -0.232091 0
M  V30 2657 H 239.672 3.5272 1.62851 0
M  V30 2658 H 241.344 4.5477 -0.77343 0
M  V30 2659 H 239.587 4.26441 -0.795652 0
M  V30 2660 H 240.258 5.51402 0.256815 0
M  V30 2661 H 242.734 3.93304 1.35834 0
M  V30 2662 H 241.61 5.0263 2.20578 0
M  V30 2663 H 241.871 3.40252 2.82279 0
M  V30 2664 N 240.93 -0.123565 1.57115 0
M  V30 2665 C 242.176 -0.833386 1.84885 0
M  V30 2666 C 242.509 -1.79742 0.735292 0
M  V30 2667 O 241.784 -1.92764 -0.25925 0
M  V30 2668 C 242.067 -1.5873 3.23228 0
M  V30 2669 C 241.92 -0.643183 4.45178 0
M  V30 2670 C 243.239 -2.54453 3.59085 0
M  V30 2671 H 240.358 -0.301518 0.6725 0
M  V30 2672 H 243 -0.097778 1.89748 0
M  V30 2673 H 241.15 -2.21438 3.19214 0
M  V30 2674 H 242.822 -0.0253015 4.61293 0
M  V30 2675 H 241.065 0.0456139 4.33776 0
M  V30 2676 H 241.736 -1.20724 5.38637 0
M  V30 2677 H 244.212 -2.01853 3.63861 0
M  V30 2678 H 243.088 -3.04238 4.5687 0
M  V30 2679 H 243.349 -3.36906 2.86264 0
M  V30 2680 N 242.408 -1.52605 -0.393616 0
M  V30 2681 C 243.636 -1.71294 -1.16043 0
M  V30 2682 C 244.051 -0.429259 -1.83855 0
M  V30 2683 O 243.408 0.595921 -1.72496 0
M  V30 2684 C 243.459 -2.8593 -2.21193 0
M  V30 2685 O 243.18 -4.09329 -1.56146 0
M  V30 2686 C 244.681 -3.16259 -3.10636 0
M  V30 2687 H 241.901 -0.573641 -0.348104 0
M  V30 2688 H 244.445 -1.99234 -0.461092 0
M  V30 2689 H 242.6 -2.60465 -2.86769 0
M  V30 2690 H 243.014 -4.73323 -2.25978 0
M  V30 2691 H 244.488 -3.99946 -3.80456 0
M  V30 2692 H 244.965 -2.3045 -3.73884 0
M  V30 2693 H 245.571 -3.43547 -2.50711 0
M  V30 2694 N 243.887 0.651787 -1.4349 0
M  V30 2695 C 244.817 1.77621 -1.51569 0
M  V30 2696 C 245.798 1.66022 -0.370253 0
M  V30 2697 O 246.983 1.85095 -0.587658 0
M  V30 2698 C 244.113 3.16056 -1.43966 0
M  V30 2699 C 243.067 3.4242 -2.56774 0
M  V30 2700 C 242.393 4.8067 -2.34223 0
M  V30 2701 C 243.693 3.37023 -3.99015 0
M  V30 2702 H 245.387 1.71117 -2.45681 0
M  V30 2703 H 242.933 0.821825 -1.18246 0
M  V30 2704 H 244.886 3.94472 -1.48221 0
M  V30 2705 H 243.61 3.23293 -0.463586 0
M  V30 2706 H 242.269 2.66375 -2.51873 0
M  V30 2707 H 241.917 4.84585 -1.34856 0
M  V30 2708 H 241.617 4.9927 -3.09844 0
M  V30 2709 H 243.141 5.61342 -2.40265 0
M  V30 2710 H 244.555 4.05374 -4.05395 0
M  V30 2711 H 242.952 3.67159 -4.74673 0
M  V30 2712 H 244.022 2.3518 -4.2405 0
M  V30 2713 N 245.365 1.30045 0.890287 0
M  V30 2714 C 246.611 1.19747 1.64415 0
M  V30 2715 C 246.966 -0.246591 1.90813 0
M  V30 2716 O 246.259 -1.174 1.51419 0
M  V30 2717 C 246.453 1.95409 2.99249 0
M  V30 2718 C 246.282 3.47025 2.86013 0
M  V30 2719 C 245.052 4.1638 2.86279 0
M  V30 2720 C 247.25 4.42353 2.62351 0
M  V30 2721 N 245.232 5.54293 2.63879 0
M  V30 2722 C 246.603 5.67792 2.49022 0
M  V30 2723 C 248.658 4.32009 2.47533 0
M  V30 2724 C 247.361 6.8406 2.22383 0
M  V30 2725 C 249.387 5.48038 2.22279 0
M  V30 2726 C 248.749 6.72455 2.09722 0
M  V30 2727 H 244.848 0.493223 0.60684 0
M  V30 2728 H 247.432 1.6399 1.04954 0
M  V30 2729 H 245.603 1.53565 3.56752 0
M  V30 2730 H 247.335 1.77298 3.63796 0
M  V30 2731 H 244.09 3.68164 2.97913 0
M  V30 2732 H 244.514 6.26852 2.55706 0
M  V30 2733 H 249.156 3.36503 2.55979 0
M  V30 2734 H 246.874 7.79612 2.12675 0
M  V30 2735 H 250.46 5.41939 2.11643 0
M  V30 2736 H 249.34 7.60722 1.90453 0
M  V30 2737 N 246.843 -1.10192 1.12674 0
M  V30 2738 C 248.073 -1.85713 0.905213 0
M  V30 2739 C 248.481 -1.81056 -0.549108 0
M  V30 2740 O 247.824 -1.19927 -1.39151 0
M  V30 2741 C 247.886 -3.34972 1.30516 0
M  V30 2742 C 247.55 -3.63385 2.77129 0
M  V30 2743 C 248.547 -3.59772 3.75313 0
M  V30 2744 C 246.232 -3.91981 3.14096 0
M  V30 2745 C 248.226 -3.84354 5.08479 0
M  V30 2746 C 245.913 -4.16218 4.47443 0
M  V30 2747 C 246.911 -4.12395 5.44444 0
M  V30 2748 O 246.599 -4.36014 6.75387 0
M  V30 2749 H 246.331 -0.593719 0.323223 0
M  V30 2750 H 248.885 -1.40198 1.50112 0
M  V30 2751 H 247.115 -3.81156 0.652463 0
M  V30 2752 H 248.804 -3.91886 1.05736 0
M  V30 2753 H 249.57 -3.37716 3.48099 0
M  V30 2754 H 245.449 -3.94085 2.39202 0
M  V30 2755 H 248.993 -3.81285 5.84181 0
M  V30 2756 H 244.89 -4.37754 4.74386 0
M  V30 2757 H 245.658 -4.53516 6.8137 0
M  V30 2758 N 248.321 -0.919034 -1.28029 0
M  V30 2759 C 249.737 -0.617972 -1.4715 0
M  V30 2760 C 249.937 0.835242 -1.83374 0
M  V30 2761 O 248.993 1.61388 -1.94191 0
M  V30 2762 C 250.306 -1.56041 -2.57044 0
M  V30 2763 C 251.854 -1.56769 -2.7091 0
M  V30 2764 C 252.329 -2.49688 -3.83953 0
M  V30 2765 N 253.82 -2.47845 -3.91314 0
M  V30 2766 C 254.555 -3.16437 -4.78179 0
M  V30 2767 N 254.051 -3.94376 -5.69596 0
M  V30 2768 N 255.844 -3.05498 -4.71834 0
M  V30 2769 H 247.995 -1.85866 -1.02798 0
M  V30 2770 H 250.258 -0.797506 -0.512531 0
M  V30 2771 H 249.964 -2.59671 -2.372 0
M  V30 2772 H 249.838 -1.29551 -3.54255 0
M  V30 2773 H 252.225 -0.538745 -2.90141 0
M  V30 2774 H 252.306 -1.87305 -1.74214 0
M  V30 2775 H 251.95 -3.52688 -3.65477 0
M  V30 2776 H 251.88 -2.16453 -4.80058 0
M  V30 2777 H 254.371 -1.91234 -3.25941 0
M  V30 2778 H 254.684 -4.43721 -6.32718 0
M  V30 2779 H 253.029 -3.98481 -5.69419 0
M  V30 2780 H 256.22 -2.44108 -3.99411 0
M  V30 2781 H 256.393 -3.59225 -5.39316 0
M  V30 2782 N 249.799 1.42003 -0.683588 0
M  V30 2783 C 250.762 2.29191 -0.0198243 0
M  V30 2784 C 251.762 1.43773 0.72013 0
M  V30 2785 O 252.952 1.65061 0.556815 0
M  V30 2786 C 250.084 3.26435 0.982487 0
M  V30 2787 H 251.277 2.8938 -0.787345 0
M  V30 2788 H 248.83 1.49789 -0.446418 0
M  V30 2789 H 249.565 2.71203 1.77819 0
M  V30 2790 H 249.35 3.89449 0.455182 0
M  V30 2791 H 250.84 3.918 1.44508 0
M  V30 2792 N 251.277 0.427512 1.51691 0
M  V30 2793 C 252.688 -0.0378867 1.86662 0
M  V30 2794 C 253.039 -1.42819 1.34525 0
M  V30 2795 O 252.164 -2.05037 0.692014 0
M  V30 2796 C 252.759 -0.0755266 3.38716 0
M  V30 2797 C 251.318 -0.485309 3.73258 0
M  V30 2798 C 250.465 0.328399 2.75349 0
M  V30 2799 H 253.416 0.64379 1.45055 0
M  V30 2800 H 253.437 -0.887056 3.70016 0
M  V30 2801 H 252.949 0.936487 3.76632 0
M  V30 2802 H 251.05 -1.50329 3.40928 0
M  V30 2803 H 251.163 -0.21693 4.78609 0
M  V30 2804 H 249.527 -0.211905 2.53817 0
M  V30 2805 H 250.31 1.3391 3.16106 0
M  V30 2806 N 252.755 -1.56801 0.158532 0
M  V30 2807 C 253.665 -2.20916 -0.789518 0
M  V30 2808 C 254.681 -1.1969 -1.26294 0
M  V30 2809 O 255.857 -1.52308 -1.31773 0
M  V30 2810 C 252.922 -2.82727 -2.00665 0
M  V30 2811 C 251.983 -3.99114 -1.58134 0
M  V30 2812 C 251.216 -4.57968 -2.74045 0
M  V30 2813 O 251.439 -4.15704 -3.90572 0
M  V30 2814 O 250.373 -5.48047 -2.48855 0
M  V30 2815 H 254.199 -3.02464 -0.273681 0
M  V30 2816 H 251.784 -1.4924 -0.0690548 0
M  V30 2817 H 253.666 -3.21968 -2.71872 0
M  V30 2818 H 252.341 -2.04184 -2.51179 0
M  V30 2819 H 251.248 -3.64567 -0.839155 0
M  V30 2820 H 252.581 -4.79212 -1.12325 0
M  V30 2821 N 254.233 0.115231 -1.57178 0
M  V30 2822 C 255.482 0.820945 -1.84237 0
M  V30 2823 C 255.795 1.80866 -0.744761 0
M  V30 2824 O 257.001 2.56083 -0.901871 0
M  V30 2825 C 255.457 1.51072 -3.26658 0
M  V30 2826 C 255.065 0.563795 -4.44438 0
M  V30 2827 C 256.809 2.20134 -3.62962 0
M  V30 2828 C 254.716 1.25701 -5.77887 0
M  V30 2829 H 253.646 0.310328 -0.687177 0
M  V30 2830 H 256.297 0.0737134 -1.83352 0
M  V30 2831 H 254.679 2.30471 -3.22024 0
M  V30 2832 H 255.853 -0.197247 -4.60378 0
M  V30 2833 H 254.168 -0.0200638 -4.16395 0
M  V30 2834 H 256.765 2.72696 -4.59936 0
M  V30 2835 H 257.108 2.98107 -2.90582 0
M  V30 2836 H 257.641 1.47619 -3.69396 0
M  V30 2837 H 254.38 0.518493 -6.53446 0
M  V30 2838 H 253.9 1.98997 -5.65827 0
M  V30 2839 H 255.579 1.78915 -6.2177 0
M  V30 2840 N 255.711 1.52812 0.385517 0
M  V30 2841 C 256.641 1.80808 1.47752 0
M  V30 2842 C 257.622 0.660318 1.5676 0
M  V30 2843 O 258.807 0.908246 1.71652 0
M  V30 2844 C 255.937 1.98008 2.85324 0
M  V30 2845 C 254.891 3.13709 2.91154 0
M  V30 2846 C 254.217 3.16169 4.31209 0
M  V30 2847 C 255.517 4.52709 2.60483 0
M  V30 2848 H 257.211 2.72253 1.24573 0
M  V30 2849 H 254.757 1.31003 0.597839 0
M  V30 2850 H 256.71 2.16176 3.61726 0
M  V30 2851 H 255.434 1.03255 3.09848 0
M  V30 2852 H 254.093 2.95329 2.17201 0
M  V30 2853 H 253.741 2.19092 4.52778 0
M  V30 2854 H 253.441 3.93894 4.36029 0
M  V30 2855 H 254.965 3.36496 5.09512 0
M  V30 2856 H 256.379 4.71173 3.26602 0
M  V30 2857 H 254.776 5.32528 2.76648 0
M  V30 2858 H 255.846 4.59186 1.55809 0
M  V30 2859 N 257.189 -0.644168 1.43834 0
M  V30 2860 C 258.119 -1.76814 1.52509 0
M  V30 2861 C 259.1 -1.65823 0.379052 0
M  V30 2862 O 260.285 -1.84781 0.597466 0
M  V30 2863 C 257.415 -3.15288 1.4564 0
M  V30 2864 C 256.369 -3.41053 2.58586 0
M  V30 2865 C 255.695 -4.79421 2.36769 0
M  V30 2866 C 256.995 -3.34902 4.00797 0
M  V30 2867 H 258.689 -1.69812 2.46586 0
M  V30 2868 H 256.235 -0.815542 1.1868 0
M  V30 2869 H 258.188 -3.93681 1.50311 0
M  V30 2870 H 256.912 -3.23043 0.480725 0
M  V30 2871 H 255.571 -2.65035 2.53282 0
M  V30 2872 H 255.219 -4.83863 1.37424 0
M  V30 2873 H 254.919 -4.9762 3.12487 0
M  V30 2874 H 256.443 -5.6006 2.43238 0
M  V30 2875 H 257.857 -4.03218 4.07539 0
M  V30 2876 H 256.254 -3.64637 4.76613 0
M  V30 2877 H 257.324 -2.32928 4.25291 0
M  V30 2878 N 258.668 -1.30515 -0.883378 0
M  V30 2879 C 259.916 -1.19194 -1.63209 0
M  V30 2880 C 260.237 0.253205 -1.93349 0
M  V30 2881 O 259.507 1.17025 -1.57105 0
M  V30 2882 H 258.087 -0.438148 -0.605009 0
M  V30 2883 H 260.749 -1.63663 -1.05832 0
M  V30 2884 H 259.845 -1.75396 -2.58153 0
M  V30 2885 N 260.146 1.09593 -1.13257 0
M  V30 2886 C 261.386 1.83349 -0.903472 0
M  V30 2887 C 261.75 1.83641 0.560351 0
M  V30 2888 O 262.951 2.53037 0.906947 0
M  V30 2889 C 261.222 3.25629 -1.47311 0
M  V30 2890 S 262.781 4.16408 -1.38382 0
M  V30 2891 H 259.599 0.632014 -0.325699 0
M  V30 2892 H 262.201 1.31817 -1.44376 0
M  V30 2893 H 260.905 3.22991 -2.53189 0
M  V30 2894 H 260.436 3.82233 -0.930689 0
M  V30 2895 H 262.451 4.94884 -0.361113 0
M  V30 2896 N 261.624 0.925811 1.2754 0
M  V30 2897 C 262.571 0.422045 2.26908 0
M  V30 2898 C 263.541 -0.510029 1.58076 0
M  V30 2899 O 264.726 -0.429599 1.85901 0
M  V30 2900 C 261.866 -0.320837 3.43605 0
M  V30 2901 C 260.979 0.64513 4.27156 0
M  V30 2902 C 260.114 -0.117405 5.3107 0
M  V30 2903 C 259.153 0.841391 6.0629 0
M  V30 2904 N 258.29 0.111604 7.02011 0
M  V30 2905 H 263.13 1.27441 2.69375 0
M  V30 2906 H 260.667 0.639697 1.32462 0
M  V30 2907 H 262.625 -0.76785 4.10073 0
M  V30 2908 H 261.255 -1.13745 3.02096 0
M  V30 2909 H 260.307 1.21067 3.6062 0
M  V30 2910 H 261.619 1.37797 4.79389 0
M  V30 2911 H 260.773 -0.624422 6.03478 0
M  V30 2912 H 259.512 -0.883219 4.79636 0
M  V30 2913 H 258.517 1.35967 5.32722 0
M  V30 2914 H 259.742 1.60696 6.59813 0
M  V30 2915 H 257.688 -0.635999 6.5291 0
M  V30 2916 H 257.605 0.784044 7.51923 0
M  V30 2917 H 258.873 -0.374823 7.78598 0
M  V30 2918 N 263.102 -1.41638 0.69111 0
M  V30 2919 C 264.332 -2.0533 0.228758 0
M  V30 2920 C 264.74 -1.52089 -1.12541 0
M  V30 2921 O 264.083 -0.662145 -1.71351 0
M  V30 2922 C 264.145 -3.59349 0.10407 0
M  V30 2923 C 263.809 -4.35362 1.38956 0
M  V30 2924 C 264.806 -4.64942 2.32648 0
M  V30 2925 C 262.491 -4.74714 1.64169 0
M  V30 2926 C 264.485 -5.32828 3.49818 0
M  V30 2927 C 262.172 -5.42338 2.81625 0
M  V30 2928 C 263.17 -5.71322 3.74273 0
M  V30 2929 O 262.858 -6.37554 4.89673 0
M  V30 2930 H 262.59 -0.667796 0.104997 0
M  V30 2931 H 265.144 -1.82477 0.942938 0
M  V30 2932 H 263.374 -3.80924 -0.665839 0
M  V30 2933 H 265.063 -4.04633 -0.320519 0
M  V30 2934 H 265.829 -4.35025 2.14425 0
M  V30 2935 H 261.708 -4.51538 0.929202 0
M  V30 2936 H 265.252 -5.55368 4.22152 0
M  V30 2937 H 261.149 -5.71673 2.99768 0
M  V30 2938 H 261.917 -6.56049 4.8943 0
M  V30 2939 N 264.58 -0.43555 -1.51462 0
M  V30 2940 C 265.81 0.130053 -2.0619 0
M  V30 2941 C 266.218 1.37164 -1.30317 0
M  V30 2942 O 265.561 1.80225 -0.355598 0
M  V30 2943 C 265.623 0.519418 -3.55728 0
M  V30 2944 C 265.287 -0.615119 -4.52841 0
M  V30 2945 C 266.284 -1.48671 -4.9819 0
M  V30 2946 C 263.969 -0.795341 -4.95963 0
M  V30 2947 C 265.963 -2.52324 -5.8533 0
M  V30 2948 C 263.65 -1.83514 -5.82894 0
M  V30 2949 C 264.648 -2.69748 -6.27475 0
M  V30 2950 O 264.336 -3.71944 -7.1268 0
M  V30 2951 H 264.068 0.0121612 -0.675891 0
M  V30 2952 H 266.622 -0.6129 -1.96043 0
M  V30 2953 H 264.852 1.31505 -3.63653 0
M  V30 2954 H 266.541 1.01597 -3.92979 0
M  V30 2955 H 267.307 -1.359 -4.65571 0
M  V30 2956 H 263.186 -0.133713 -4.60806 0
M  V30 2957 H 266.73 -3.19665 -6.20048 0
M  V30 2958 H 262.627 -1.96306 -6.14926 0
M  V30 2959 H 263.395 -3.68503 -7.30854 0
M  V30 2960 N 266.058 1.56714 -0.166846 0
M  V30 2961 C 267.283 2.01557 0.488833 0
M  V30 2962 C 267.708 1.0463 1.56314 0
M  V30 2963 O 267.066 0.0251304 1.81283 0
M  V30 2964 C 267.114 3.4503 1.04818 0
M  V30 2965 O 266.218 3.51163 2.16236 0
M  V30 2966 H 265.559 0.653516 0.117526 0
M  V30 2967 H 268.089 2.02818 -0.269421 0
M  V30 2968 H 268.099 3.84243 1.37191 0
M  V30 2969 H 266.774 4.15077 0.261572 0
M  V30 2970 H 265.351 3.23807 1.84942 0
M  V30 2971 N 267.536 -0.106894 1.57237 0
M  V30 2972 C 268.764 -0.826389 1.8968 0
M  V30 2973 C 269.179 -1.72856 0.759353 0
M  V30 2974 O 268.536 -1.80503 -0.269263 0
M  V30 2975 C 268.587 -1.64967 3.21665 0
M  V30 2976 O 268.308 -0.783804 4.31031 0
M  V30 2977 C 269.809 -2.47326 3.67892 0
M  V30 2978 H 267.029 -0.236927 0.627779 0
M  V30 2979 H 269.573 -0.0876593 2.04312 0
M  V30 2980 H 267.728 -2.34103 3.08666 0
M  V30 2981 H 268.142 -1.35284 5.06753 0
M  V30 2982 H 269.616 -3.00604 4.6297 0
M  V30 2983 H 270.093 -3.25247 2.95146 0
M  V30 2984 H 270.699 -1.83411 3.83719 0
M  V30 2985 N 269.014 -1.53014 -0.377408 0
M  V30 2986 C 269.977 -1.77957 -1.44444 0
M  V30 2987 C 270.977 -0.649763 -1.47087 0
M  V30 2988 O 272.167 -0.917897 -1.48055 0
M  V30 2989 C 269.299 -1.89089 -2.83651 0
M  V30 2990 H 270.492 -2.73243 -1.23606 0
M  V30 2991 H 268.045 -1.43912 -0.609844 0
M  V30 2992 H 268.78 -0.958293 -3.09818 0
M  V30 2993 H 268.565 -2.71254 -2.83132 0
M  V30 2994 H 270.055 -2.1002 -3.60945 0
M  V30 2995 N 270.492 0.636531 -1.44174 0
M  V30 2996 C 271.738 1.39826 -1.4689 0
M  V30 2997 C 272.071 1.93947 -0.0990585 0
M  V30 2998 O 271.346 1.73325 0.882544 0
M  V30 2999 C 271.629 2.56751 -2.5249 0
M  V30 3000 C 271.482 2.08014 -3.98811 0
M  V30 3001 C 272.801 3.58946 -2.54649 0
M  V30 3002 H 269.92 0.507075 -0.53483 0
M  V30 3003 H 272.562 0.720188 -1.75822 0
M  V30 3004 H 270.712 3.14597 -2.2795 0
M  V30 3005 H 272.384 1.5504 -4.34466 0
M  V30 3006 H 270.627 1.39242 -4.10846 0
M  V30 3007 H 271.298 2.92169 -4.68339 0
M  V30 3008 H 273.774 3.1089 -2.76563 0
M  V30 3009 H 272.65 4.38286 -3.3045 0
M  V30 3010 H 272.911 4.12655 -1.58646 0
M  V30 3011 N 271.97 1.30982 0.876444 0
M  V30 3012 C 273.247 1.10942 1.61094 0
M  V30 3013 C 273.627 -0.338223 2.08373 0
M  V30 3014 O 272.975 -1.33122 1.85717 0
M  V30 3015 C 273.185 2.11789 2.77392 0
M  V30 3016 C 274.533 2.43965 3.47514 0
M  V30 3017 O 275.557 2.10166 2.87591 0
M  V30 3018 O 274.416 3.01817 4.55597 0
M  V30 3019 H 271.51 0.42667 0.708436 0
M  V30 3020 H 274.056 1.42438 0.922474 0
M  V30 3021 H 272.828 3.09194 2.39823 0
M  V30 3022 H 272.451 1.81161 3.5393 0
M  V30 3023 N 273.449 -1.08991 1.13837 0
M  V30 3024 C 274.698 -1.80631 0.897509 0
M  V30 3025 C 275.011 -1.86872 -0.57777 0
M  V30 3026 O 276.217 -2.54866 -0.935701 0
M  V30 3027 C 274.673 -3.24517 1.55618 0
M  V30 3028 C 274.281 -3.26529 3.0673 0
M  V30 3029 C 276.025 -4.00882 1.3962 0
M  V30 3030 C 273.932 -4.64965 3.65461 0
M  V30 3031 H 272.862 -0.67691 0.332129 0
M  V30 3032 H 275.513 -1.2246 1.3666 0
M  V30 3033 H 273.895 -3.82778 1.01476 0
M  V30 3034 H 275.069 -2.78008 3.67489 0
M  V30 3035 H 273.384 -2.63656 3.22296 0
M  V30 3036 H 275.981 -5.03167 1.80906 0
M  V30 3037 H 276.324 -4.14896 0.341578 0
M  V30 3038 H 276.857 -3.49075 1.90766 0
M  V30 3039 H 273.596 -4.56153 4.70749 0
M  V30 3040 H 273.116 -5.13792 3.09481 0
M  V30 3041 H 274.795 -5.3394 3.654 0
M  V30 3042 N 274.927 -0.932562 -1.27047 0
M  V30 3043 C 276.173 -0.585913 -1.94778 0
M  V30 3044 C 276.528 0.864142 -1.71902 0
M  V30 3045 O 275.821 1.60894 -1.04037 0
M  V30 3046 C 276.015 -0.853713 -3.47054 0
M  V30 3047 C 275.844 -2.32825 -3.84737 0
M  V30 3048 C 274.614 -2.98184 -4.07939 0
M  V30 3049 C 276.812 -3.30612 -3.93954 0
M  V30 3050 N 274.794 -4.3574 -4.3244 0
M  V30 3051 C 276.165 -4.53395 -4.22887 0
M  V30 3052 C 278.22 -3.25755 -3.76548 0
M  V30 3053 C 276.923 -5.71927 -4.36224 0
M  V30 3054 C 278.949 -4.43604 -3.91113 0
M  V30 3055 C 278.311 -5.65166 -4.20437 0
M  V30 3056 H 274.41 -0.264617 -0.735868 0
M  V30 3057 H 276.994 -1.20019 -1.53309 0
M  V30 3058 H 275.165 -0.268557 -3.8747 0
M  V30 3059 H 276.897 -0.469202 -4.01971 0
M  V30 3060 H 273.652 -2.48835 -4.02961 0
M  V30 3061 H 274.076 -5.06915 -4.48738 0
M  V30 3062 H 278.718 -2.32835 -3.52913 0
M  V30 3063 H 276.436 -6.65308 -4.58683 0
M  V30 3064 H 280.022 -4.41368 -3.79059 0
M  V30 3065 H 278.902 -6.54836 -4.31462 0
M  V30 3066 N 276.405 1.4127 -0.698611 0
M  V30 3067 C 277.63 2.06024 -0.238512 0
M  V30 3068 C 278.055 1.5224 1.10475 0
M  V30 3069 O 277.413 0.650623 1.69223 0
M  V30 3070 C 277.461 3.59988 -0.209952 0
M  V30 3071 O 276.565 4.04282 0.814235 0
M  V30 3072 H 275.906 0.653829 -0.115775 0
M  V30 3073 H 278.436 1.8098 -0.954326 0
M  V30 3074 H 278.446 4.07979 -0.0418436 0
M  V30 3075 H 277.121 3.98503 -1.1903 0
M  V30 3076 H 275.698 3.6779 0.615234 0
M  V30 3077 N 277.883 0.443576 1.51229 0
M  V30 3078 C 278.813 -0.355142 2.30783 0
M  V30 3079 C 279.794 -1.0154 1.36468 0
M  V30 3080 O 280.979 -1.01785 1.65389 0
M  V30 3081 C 278.109 -1.45312 3.15439 0
M  V30 3082 C 277.063 -0.916002 4.18083 0
M  V30 3083 C 276.389 -2.1102 4.91299 0
M  V30 3084 C 277.689 0.0538602 5.22272 0
M  V30 3085 H 279.383 0.308767 2.97804 0
M  V30 3086 H 276.929 0.149937 1.43217 0
M  V30 3087 H 278.882 -2.01914 3.69876 0
M  V30 3088 H 277.606 -2.14541 2.46252 0
M  V30 3089 H 276.265 -0.372145 3.64706 0
M  V30 3090 H 275.913 -2.78882 4.18609 0
M  V30 3091 H 275.613 -1.75717 5.60712 0
M  V30 3092 H 277.137 -2.68164 5.48562 0
M  V30 3093 H 278.551 -0.422069 5.71744 0
M  V30 3094 H 276.948 0.319776 5.99247 0
M  V30 3095 H 278.018 0.98858 4.74716 0
M  V30 3096 N 279.361 -1.56624 0.175154 0
M  V30 3097 C 280.609 -1.96609 -0.467885 0
M  V30 3098 C 280.93 -1.06238 -1.63519 0
M  V30 3099 O 280.2 -0.129523 -1.95471 0
M  V30 3100 H 278.78 -0.726008 -0.175845 0
M  V30 3101 H 281.442 -1.93195 0.257234 0
M  V30 3102 H 280.538 -3.00989 -0.825342 0
M  V30 3103 N 280.839 0.0985539 -1.57292 0
M  V30 3104 C 282.079 0.808332 -1.87737 0
M  V30 3105 C 282.443 1.7607 -0.76572 0
M  V30 3106 O 283.644 2.51358 -0.952499 0
M  V30 3107 C 281.915 1.52093 -3.23423 0
M  V30 3108 S 283.474 2.26947 -3.75554 0
M  V30 3109 H 280.292 0.269377 -0.657995 0
M  V30 3110 H 282.894 0.0656269 -1.9539 0
M  V30 3111 H 281.598 0.81363 -4.02254 0
M  V30 3112 H 281.129 2.30361 -3.189 0
M  V30 3113 H 283.144 3.53027 -3.48692 0
M  V30 3114 N 282.317 1.53212 0.369288 0
M  V30 3115 C 283.566 1.68436 1.10961 0
M  V30 3116 C 283.879 0.440738 1.9057 0
M  V30 3117 O 285.085 0.473446 2.6734 0
M  V30 3118 C 283.541 2.97744 2.0218 0
M  V30 3119 C 283.149 4.29355 1.279 0
M  V30 3120 C 284.893 3.22334 2.76226 0
M  V30 3121 C 282.8 5.49755 2.17999 0
M  V30 3122 H 281.73 0.627568 0.41794 0
M  V30 3123 H 284.381 1.79713 0.370884 0
M  V30 3124 H 282.763 2.8026 2.79768 0
M  V30 3125 H 283.937 4.57458 0.554007 0
M  V30 3126 H 282.252 4.11179 0.657311 0
M  V30 3127 H 284.849 4.09471 3.43857 0
M  V30 3128 H 285.192 2.38238 3.41392 0
M  V30 3129 H 285.725 3.40475 2.05723 0
M  V30 3130 H 282.464 6.36318 1.57417 0
M  V30 3131 H 281.984 5.25937 2.88359 0
M  V30 3132 H 283.663 5.84401 2.77641 0
M  V30 3133 N 283.795 -0.628877 1.44509 0
M  V30 3134 C 285.042 -1.38839 1.47411 0
M  V30 3135 C 285.37 -1.94202 0.10757 0
M  V30 3136 O 284.625 -1.74243 -0.890947 0
M  V30 3137 C 284.924 -2.56995 2.48371 0
M  V30 3138 C 284.59 -2.19908 3.93639 0
M  V30 3139 C 283.252 -2.09506 4.33198 0
M  V30 3140 C 285.604 -1.9064 4.85083 0
M  V30 3141 C 282.932 -1.68028 5.62124 0
M  V30 3142 C 285.284 -1.50655 6.14399 0
M  V30 3143 C 283.948 -1.38796 6.5291 0
M  V30 3144 H 283.218 -0.508048 0.539414 0
M  V30 3145 H 285.865 -0.712913 1.77735 0
M  V30 3146 H 284.17 -3.29786 2.11538 0
M  V30 3147 H 285.867 -3.15223 2.47861 0
M  V30 3148 H 282.457 -2.28922 3.62343 0
M  V30 3149 H 286.641 -1.97585 4.55273 0
M  V30 3150 H 281.897 -1.57452 5.90778 0
M  V30 3151 H 286.071 -1.27048 6.84713 0
M  V30 3152 H 283.698 -1.06429 7.52713 0
M  V30 3153 N 285.273 -1.31445 -0.869486 0
M  V30 3154 C 286.236 -1.19094 -1.9583 0
M  V30 3155 C 287.236 -0.117906 -1.60367 0
M  V30 3156 O 288.426 -0.367208 -1.70286 0
M  V30 3157 C 285.558 -0.828165 -3.30688 0
M  V30 3158 H 286.751 -2.15842 -2.08212 0
M  V30 3159 H 284.304 -1.15063 -1.05784 0
M  V30 3160 H 285.039 0.138142 -3.24006 0
M  V30 3161 H 284.824 -1.6038 -3.578 0
M  V30 3162 H 286.314 -0.765658 -4.10521 0
M  V30 3163 N 286.751 1.08385 -1.14413 0
M  V30 3164 C 287.661 2.18856 -0.844951 0
M  V30 3165 C 288.677 1.73121 0.174668 0
M  V30 3166 O 289.853 2.014 0.00312857 0
M  V30 3167 C 286.918 3.45155 -0.32696 0
M  V30 3168 C 285.979 4.05513 -1.40916 0
M  V30 3169 C 285.212 5.25784 -0.915793 0
M  V30 3170 O 285.435 5.69884 0.242651 0
M  V30 3171 O 284.369 5.77545 -1.69487 0
M  V30 3172 H 288.195 2.46919 -1.76818 0
M  V30 3173 H 285.78 1.17524 -0.922411 0
M  V30 3174 H 287.662 4.21377 -0.0440211 0
M  V30 3175 H 286.337 3.18668 0.568539 0
M  V30 3176 H 285.244 3.30879 -1.74556 0
M  V30 3177 H 286.577 4.3625 -2.27919 0
M  V30 3178 N 288.23 0.939286 1.26551 0
M  V30 3179 C 289.163 0.391702 2.24813 0
M  V30 3180 C 290.141 -0.518421 1.54114 0
M  V30 3181 O 291.325 -0.456299 1.82894 0
M  V30 3182 C 288.452 -0.437382 3.35864 0
M  V30 3183 C 287.498 0.410946 4.24516 0
M  V30 3184 S 288.331 1.83372 5.03125 0
M  V30 3185 C 289.487 1.01264 6.17654 0
M  V30 3186 H 289.72 1.22448 2.70913 0
M  V30 3187 H 287.253 0.742269 1.35387 0
M  V30 3188 H 289.211 -0.909837 4.0029 0
M  V30 3189 H 287.872 -1.24482 2.8838 0
M  V30 3190 H 287.065 -0.224191 5.03501 0
M  V30 3191 H 286.667 0.818014 3.64945 0
M  V30 3192 H 288.959 0.254023 6.77024 0
M  V30 3193 H 289.902 1.77589 6.85469 0
M  V30 3194 H 290.31 0.549532 5.61819 0
M  V30 3195 N 289.708 -1.40897 0.706093 0
M  V30 3196 C 290.954 -2.01352 0.241889 0
M  V30 3197 C 291.287 -1.55832 -1.15888 0
M  V30 3198 O 290.562 -0.774145 -1.7843 0
M  V30 3199 C 290.845 -3.58752 0.311311 0
M  V30 3200 C 290.698 -4.1437 1.74978 0
M  V30 3201 C 292.017 -4.38914 -0.322922 0
M  V30 3202 H 289.136 -0.731562 0.0893687 0
M  V30 3203 H 291.778 -1.67504 0.896802 0
M  V30 3204 H 289.928 -3.87718 -0.246302 0
M  V30 3205 H 291.6 -3.96239 2.36205 0
M  V30 3206 H 289.843 -3.69016 2.28057 0
M  V30 3207 H 290.514 -5.23532 1.74981 0
M  V30 3208 H 292.99 -4.15822 0.152089 0
M  V30 3209 H 291.866 -5.48358 -0.243855 0
M  V30 3210 H 292.127 -4.19176 -1.40513 0
M  V30 3211 N 291.186 -0.45159 -1.50991 0
M  V30 3212 C 292.414 0.108334 -2.06616 0
M  V30 3213 C 292.829 1.35224 -1.31757 0
M  V30 3214 O 292.186 1.78475 -0.381174 0
M  V30 3215 C 292.237 0.41619 -3.59096 0
M  V30 3216 O 291.958 -0.778361 -4.3113 0
M  V30 3217 C 293.459 1.02523 -4.31282 0
M  V30 3218 H 290.679 0.00159995 -0.670998 0
M  V30 3219 H 293.223 -0.634771 -1.94399 0
M  V30 3220 H 291.378 1.10921 -3.71181 0
M  V30 3221 H 291.792 -0.511181 -5.22003 0
M  V30 3222 H 293.266 1.19053 -5.39009 0
M  V30 3223 H 293.743 2.01013 -3.905 0
M  V30 3224 H 294.349 0.371173 -4.23677 0
M  V30 3225 N 292.664 1.56529 -0.183458 0
M  V30 3226 C 294.08 1.58664 0.172554 0
M  V30 3227 C 294.28 1.19925 1.61926 0
M  V30 3228 O 293.336 0.916534 2.35278 0
M  V30 3229 C 294.649 3.00463 -0.119262 0
M  V30 3230 C 296.197 3.12945 -0.0584396 0
M  V30 3231 C 296.672 4.56857 -0.323408 0
M  V30 3232 N 298.163 4.62403 -0.271612 0
M  V30 3233 C 298.898 5.71626 -0.450639 0
M  V30 3234 N 298.394 6.89362 -0.689384 0
M  V30 3235 N 300.187 5.60775 -0.385701 0
M  V30 3236 H 292.338 1.79994 -1.12765 0
M  V30 3237 H 294.601 0.834808 -0.449222 0
M  V30 3238 H 294.307 3.33326 -1.12192 0
M  V30 3239 H 294.181 3.72659 0.583544 0
M  V30 3240 H 296.568 2.79902 0.934805 0
M  V30 3241 H 296.649 2.4316 -0.794144 0
M  V30 3242 H 296.293 4.9061 -1.31392 0
M  V30 3243 H 296.223 5.24816 0.43305 0
M  V30 3244 H 298.714 3.77785 -0.0932256 0
M  V30 3245 H 299.027 7.68489 -0.815113 0
M  V30 3246 H 297.372 6.91196 -0.726142 0
M  V30 3247 H 300.563 4.67674 -0.199687 0
M  V30 3248 H 300.736 6.4584 -0.528646 0
M  V30 3249 N 294.142 -0.090211 1.57342 0
M  V30 3250 C 295.558 -0.444547 1.53284 0
M  V30 3251 C 295.758 -1.80238 0.900914 0
M  V30 3252 O 294.814 -2.4759 0.495513 0
M  V30 3253 C 296.127 -0.402543 2.97993 0
M  V30 3254 C 297.675 -0.48405 3.09234 0
M  V30 3255 C 298.15 -0.472144 4.5556 0
M  V30 3256 N 299.641 -0.532757 4.60126 0
M  V30 3257 C 300.376 -0.545462 5.708 0
M  V30 3258 N 299.872 -0.514082 6.9089 0
M  V30 3259 N 301.665 -0.59064 5.58988 0
M  V30 3260 H 293.816 0.799121 1.96794 0
M  V30 3261 H 296.079 0.297965 0.899956 0
M  V30 3262 H 295.785 0.528106 3.47712 0
M  V30 3263 H 295.659 -1.21969 3.56936 0
M  V30 3264 H 298.046 -1.40512 2.595 0
M  V30 3265 H 298.127 0.361328 2.53235 0
M  V30 3266 H 297.771 0.445 5.05947 0
M  V30 3267 H 297.701 -1.3348 5.09402 0
M  V30 3268 H 300.192 -0.562006 3.73698 0
M  V30 3269 H 300.505 -0.527195 7.71 0
M  V30 3270 H 298.85 -0.481054 6.93333 0
M  V30 3271 H 302.041 -0.61272 4.64073 0
M  V30 3272 H 302.214 -0.597073 6.45243 0
M  V30 3273 N 295.62 -1.53406 -0.361157 0
M  V30 3274 C 296.583 -1.79479 -1.42548 0
M  V30 3275 C 297.583 -0.665327 -1.4639 0
M  V30 3276 O 298.773 -0.933549 -1.47073 0
M  V30 3277 C 295.905 -1.92087 -2.8163 0
M  V30 3278 H 297.098 -2.74538 -1.20701 0
M  V30 3279 H 294.651 -1.4455 -0.594546 0
M  V30 3280 H 295.386 -0.991099 -3.08784 0
M  V30 3281 H 295.171 -2.74241 -2.80239 0
M  V30 3282 H 296.661 -2.13836 -3.58697 0
M  V30 3283 N 297.098 0.621204 -1.44841 0
M  V30 3284 C 298.028 1.74366 -1.55303 0
M  V30 3285 C 299.009 1.65199 -0.405385 0
M  V30 3286 O 300.194 1.83807 -0.626787 0
M  V30 3287 C 297.324 3.12931 -1.50637 0
M  V30 3288 C 296.278 3.36896 -2.63979 0
M  V30 3289 C 295.604 4.75594 -2.44366 0
M  V30 3290 C 296.904 3.28483 -4.06074 0
M  V30 3291 H 298.598 1.65867 -2.49256 0
M  V30 3292 H 296.144 0.796558 -1.19962 0
M  V30 3293 H 298.097 3.9124 -1.56555 0
M  V30 3294 H 296.821 3.22237 -0.532057 0
M  V30 3295 H 295.48 2.60972 -2.57467 0
M  V30 3296 H 295.128 4.81616 -1.45105 0
M  V30 3297 H 294.828 4.92586 -3.20364 0
M  V30 3298 H 296.352 5.5612 -2.52117 0
M  V30 3299 H 297.766 3.96684 -4.13902 0
M  V30 3300 H 296.163 3.57008 -4.82354 0
M  V30 3301 H 297.233 2.26133 -4.28943 0
M  V30 3302 N 298.576 1.31904 0.862503 0
M  V30 3303 C 299.823 1.22017 1.61611 0
M  V30 3304 C 300.151 -0.21991 1.93253 0
M  V30 3305 O 299.406 -1.17076 1.56817 0
M  V30 3306 C 299.705 2.01713 2.95037 0
M  V30 3307 C 299.371 3.51145 2.82857 0
M  V30 3308 C 298.033 3.91889 2.79243 0
M  V30 3309 C 300.385 4.46204 2.69353 0
M  V30 3310 C 297.713 5.25947 2.59993 0
M  V30 3311 C 300.065 5.80397 2.5164 0
M  V30 3312 C 298.729 6.20352 2.46413 0
M  V30 3313 H 297.999 0.44649 0.591378 0
M  V30 3314 H 300.646 1.63248 1.00111 0
M  V30 3315 H 298.951 1.53185 3.60613 0
M  V30 3316 H 300.648 1.91437 3.52353 0
M  V30 3317 H 297.238 3.1878 2.86491 0
M  V30 3318 H 301.422 4.15652 2.71196 0
M  V30 3319 H 296.678 5.5597 2.54376 0
M  V30 3320 H 300.852 6.53676 2.40169 0
M  V30 3321 H 298.479 7.24172 2.31256 0
M  V30 3322 N 300.054 -1.07777 1.14986 0
M  V30 3323 C 301.465 -1.61766 0.932127 0
M  V30 3324 C 301.816 -1.88974 -0.527581 0
M  V30 3325 O 300.941 -1.65198 -1.39781 0
M  V30 3326 C 301.536 -2.93891 1.68563 0
M  V30 3327 C 300.095 -3.44639 1.5133 0
M  V30 3328 C 299.242 -2.18767 1.704 0
M  V30 3329 H 302.193 -0.909201 1.30074 0
M  V30 3330 H 302.214 -3.62623 1.15259 0
M  V30 3331 H 301.726 -2.74057 2.74799 0
M  V30 3332 H 299.827 -3.69564 0.474702 0
M  V30 3333 H 299.94 -4.20966 2.28746 0
M  V30 3334 H 298.304 -2.28253 1.13016 0
M  V30 3335 H 299.087 -2.01433 2.77992 0
M  V30 3336 N 301.532 -0.945985 -1.26051 0
M  V30 3337 C 302.78 -0.594941 -1.93145 0
M  V30 3338 C 303.101 0.86953 -1.7454 0
M  V30 3339 O 302.371 1.61838 -1.10387 0
M  V30 3340 H 300.951 -0.217044 -0.714773 0
M  V30 3341 H 303.613 -1.20235 -1.53393 0
M  V30 3342 H 302.709 -0.816835 -3.01221 0
M  V30 3343 N 303.011 1.40521 -0.713556 0
M  V30 3344 C 304.288 1.94775 -0.17943 0
M  V30 3345 C 304.668 1.65184 1.31444 0
M  V30 3346 O 304.016 0.968429 2.06963 0
M  V30 3347 C 304.226 3.45543 -0.489986 0
M  V30 3348 C 305.574 4.22442 -0.427536 0
M  V30 3349 O 306.598 3.53644 -0.425929 0
M  V30 3350 O 305.457 5.4501 -0.403292 0
M  V30 3351 H 302.551 0.826606 -0.0255192 0
M  V30 3352 H 305.097 1.5014 -0.790949 0
M  V30 3353 H 303.869 3.60432 -1.5233 0
M  V30 3354 H 303.492 3.97311 0.151598 0
M  V30 3355 N 304.489 0.459591 1.5075 0
M  V30 3356 C 305.714 -0.0996819 2.0716 0
M  V30 3357 C 306.139 -1.33761 1.32249 0
M  V30 3358 O 305.497 -1.77551 0.366786 0
M  V30 3359 C 305.545 -0.378226 3.58611 0
M  V30 3360 O 304.649 -1.46081 3.85661 0
M  V30 3361 H 303.99 0.00791392 0.663953 0
M  V30 3362 H 306.52 0.647329 1.9409 0
M  V30 3363 H 306.53 -0.622135 4.03229 0
M  V30 3364 H 305.205 0.526439 4.12555 0
M  V30 3365 H 303.782 -1.20511 3.5289 0
M  V30 3366 N 305.967 -1.56429 0.191757 0
M  V30 3367 C 306.877 -2.22541 -0.742481 0
M  V30 3368 C 307.893 -1.22342 -1.23727 0
M  V30 3369 O 309.069 -1.55069 -1.28513 0
M  V30 3370 C 306.134 -2.8692 -1.94623 0
M  V30 3371 C 305.195 -4.02378 -1.49633 0
M  V30 3372 C 304.428 -4.63678 -2.6427 0
M  V30 3373 O 304.651 -4.23895 -3.81666 0
M  V30 3374 O 303.585 -5.53202 -2.37174 0
M  V30 3375 H 307.411 -3.02977 -0.209462 0
M  V30 3376 H 304.996 -1.49353 -0.0373832 0
M  V30 3377 H 306.878 -3.27663 -2.64982 0
M  V30 3378 H 305.553 -2.09466 -2.46791 0
M  V30 3379 H 304.46 -3.66265 -0.761636 0
M  V30 3380 H 305.793 -4.81487 -1.02134 0
M  V30 3381 N 307.445 0.0818655 -1.57387 0
M  V30 3382 C 308.694 0.781681 -1.85937 0
M  V30 3383 C 309.007 1.79246 -0.782957 0
M  V30 3384 O 310.213 2.54112 -0.955987 0
M  V30 3385 C 308.669 1.44109 -3.29789 0
M  V30 3386 C 308.277 0.469396 -4.45534 0
M  V30 3387 C 310.021 2.12386 -3.67549 0
M  V30 3388 C 307.928 1.13415 -5.80423 0
M  V30 3389 H 306.858 0.295682 -0.693605 0
M  V30 3390 H 309.509 0.0348051 -1.83467 0
M  V30 3391 H 307.891 2.23588 -3.2684 0
M  V30 3392 H 309.065 -0.294856 -4.59856 0
M  V30 3393 H 307.38 -0.108383 -4.16259 0
M  V30 3394 H 309.977 2.62878 -4.65617 0
M  V30 3395 H 310.32 2.91877 -2.96839 0
M  V30 3396 H 310.853 1.39751 -3.72444 0
M  V30 3397 H 307.592 0.379771 -6.54399 0
M  V30 3398 H 307.112 1.8695 -5.69921 0
M  V30 3399 H 308.791 1.65686 -6.25426 0
M  V30 3400 N 308.923 1.53595 0.353017 0
M  V30 3401 C 310.2 1.61002 1.11075 0
M  V30 3402 C 310.58 0.425356 2.0677 0
M  V30 3403 O 309.928 -0.583267 2.2093 0
M  V30 3404 C 310.138 2.96631 1.83877 0
M  V30 3405 C 311.486 3.51653 2.37961 0
M  V30 3406 O 312.51 2.98743 1.93987 0
M  V30 3407 O 311.369 4.44177 3.18386 0
M  V30 3408 H 308.463 0.650825 0.510251 0
M  V30 3409 H 311.009 1.6594 0.35527 0
M  V30 3410 H 309.781 3.74293 1.14108 0
M  V30 3411 H 309.404 2.95242 2.66304 0
M  V30 3412 N 310.401 -0.613514 1.45168 0
M  V30 3413 C 311.333 -1.73825 1.4939 0
M  V30 3414 C 312.346 -1.58175 0.385304 0
M  V30 3415 O 313.535 -1.66165 0.652036 0
M  V30 3416 C 310.635 -3.11758 1.32891 0
M  V30 3417 C 309.808 -3.53704 2.57317 0
M  V30 3418 C 308.867 -4.70579 2.35462 0
M  V30 3419 O 307.893 -4.77996 3.09044 0
M  V30 3420 N 309.095 -5.63454 1.39644 0
M  V30 3421 H 311.86 -1.70669 2.46358 0
M  V30 3422 H 309.421 -0.79862 1.40832 0
M  V30 3423 H 311.413 -3.87692 1.1609 0
M  V30 3424 H 309.983 -3.09456 0.442218 0
M  V30 3425 H 309.203 -2.67794 2.89275 0
M  V30 3426 H 310.491 -3.78486 3.40038 0
M  V30 3427 H 309.889 -5.6017 0.789062 0
M  V30 3428 H 308.446 -6.38944 1.28816 0
M  V30 3429 N 311.879 -1.3236 -0.855495 0
M  V30 3430 C 312.809 -1.23833 -1.97958 0
M  V30 3431 C 313.79 -0.122361 -1.69659 0
M  V30 3432 O 314.975 -0.30939 -1.9172 0
M  V30 3433 C 312.105 -0.959772 -3.33775 0
M  V30 3434 C 311.059 -2.03689 -3.76424 0
M  V30 3435 C 310.385 -1.61075 -5.09862 0
M  V30 3436 C 311.685 -3.4518 -3.9198 0
M  V30 3437 H 313.379 -2.1788 -2.0535 0
M  V30 3438 H 310.925 -1.04891 -0.986605 0
M  V30 3439 H 312.878 -0.886678 -4.11966 0
M  V30 3440 H 311.602 0.0163404 -3.26596 0
M  V30 3441 H 310.261 -2.10012 -3.00484 0
M  V30 3442 H 309.909 -0.622107 -4.99138 0
M  V30 3443 H 309.609 -2.33143 -5.39368 0
M  V30 3444 H 311.133 -1.55201 -5.90546 0
M  V30 3445 H 312.547 -3.4145 -4.60526 0
M  V30 3446 H 310.944 -4.1559 -4.32903 0
M  V30 3447 H 312.014 -3.84903 -2.94919 0
M  V30 3448 N 313.357 1.07166 -1.15556 0
M  V30 3449 C 314.604 1.79798 -0.931604 0
M  V30 3450 C 314.932 1.8682 0.54115 0
M  V30 3451 O 314.187 1.34942 1.41736 0
M  V30 3452 C 314.486 3.24707 -1.49332 0
M  V30 3453 C 314.152 3.37781 -2.98688 0
M  V30 3454 C 312.814 3.41057 -3.39461 0
M  V30 3455 C 315.166 3.40424 -3.94665 0
M  V30 3456 C 312.494 3.4458 -4.74849 0
M  V30 3457 C 314.846 3.45485 -5.29927 0
M  V30 3458 C 313.51 3.47039 -5.70193 0
M  V30 3459 H 312.78 0.657928 -0.340898 0
M  V30 3460 H 315.427 1.26091 -1.44129 0
M  V30 3461 H 313.732 3.81208 -0.904859 0
M  V30 3462 H 315.429 3.79486 -1.29582 0
M  V30 3463 H 312.019 3.35932 -2.66172 0
M  V30 3464 H 316.203 3.37113 -3.64237 0
M  V30 3465 H 311.459 3.44083 -5.05388 0
M  V30 3466 H 315.633 3.46476 -6.04092 0
M  V30 3467 H 313.26 3.49522 -6.75084 0
M  V30 3468 N 314.835 0.952656 1.25548 0
M  V30 3469 C 316.251 0.656769 1.4546 0
M  V30 3470 C 316.451 -0.78633 1.85524 0
M  V30 3471 O 315.507 -1.56183 1.98402 0
M  V30 3472 C 316.82 1.62801 2.52817 0
M  V30 3473 C 318.368 1.63897 2.66659 0
M  V30 3474 C 318.843 2.5978 3.77198 0
M  V30 3475 N 320.334 2.58133 3.84606 0
M  V30 3476 C 321.069 3.29003 4.69621 0
M  V30 3477 N 320.565 4.09339 5.58939 0
M  V30 3478 N 322.358 3.179 4.63569 0
M  V30 3479 H 314.509 1.88526 0.978344 0
M  V30 3480 H 316.772 0.810815 0.491206 0
M  V30 3481 H 316.478 2.65869 2.30232 0
M  V30 3482 H 316.352 1.38898 3.50695 0
M  V30 3483 H 318.739 0.615481 2.8861 0
M  V30 3484 H 318.82 1.91858 1.69187 0
M  V30 3485 H 318.464 3.62254 3.55997 0
M  V30 3486 H 318.394 2.29105 4.7415 0
M  V30 3487 H 320.885 1.99809 3.20757 0
M  V30 3488 H 321.198 4.6034 6.20731 0
M  V30 3489 H 319.543 4.13438 5.58654 0
M  V30 3490 H 322.734 2.54612 3.92798 0
M  V30 3491 H 322.907 3.73398 5.29602 0
M  V30 3492 N 316.313 -1.40141 0.720998 0
M  V30 3493 C 317.562 -2.0002 0.259804 0
M  V30 3494 C 317.875 -1.57839 -1.15526 0
M  V30 3495 O 319.081 -2.10455 -1.71525 0
M  V30 3496 C 317.537 -3.57516 0.413566 0
M  V30 3497 C 317.145 -4.08667 1.83562 0
M  V30 3498 C 318.889 -4.24498 0.0134387 0
M  V30 3499 C 316.796 -5.58686 1.93968 0
M  V30 3500 H 315.726 -0.748195 0.0933806 0
M  V30 3501 H 318.377 -1.60313 0.892866 0
M  V30 3502 H 316.759 -3.9495 -0.288169 0
M  V30 3503 H 317.933 -3.82598 2.56817 0
M  V30 3504 H 316.248 -3.543 2.1877 0
M  V30 3505 H 318.845 -5.34654 0.0703954 0
M  V30 3506 H 319.188 -4.03375 -1.02927 0
M  V30 3507 H 319.721 -3.92188 0.665815 0
M  V30 3508 H 316.46 -5.8467 2.96379 0
M  V30 3509 H 315.98 -5.86602 1.25131 0
M  V30 3510 H 317.659 -6.23875 1.71431 0
M  V30 3511 N 317.792 -0.46758 -1.50504 0
M  V30 3512 C 319.039 0.0886219 -2.02306 0
M  V30 3513 C 319.367 1.40037 -1.34981 0
M  V30 3514 O 318.622 1.90136 -0.463318 0
M  V30 3515 C 318.921 0.323995 -3.55928 0
M  V30 3516 C 318.587 -0.905618 -4.41712 0
M  V30 3517 C 317.249 -1.24275 -4.64875 0
M  V30 3518 C 319.601 -1.72448 -4.91845 0
M  V30 3519 C 316.929 -2.39888 -5.35417 0
M  V30 3520 C 319.281 -2.87185 -5.63656 0
M  V30 3521 C 317.945 -3.21317 -5.85074 0
M  V30 3522 H 317.215 0.0324291 -0.74029 0
M  V30 3523 H 319.862 -0.620945 -1.81153 0
M  V30 3524 H 318.167 1.11577 -3.75577 0
M  V30 3525 H 319.864 0.76826 -3.93572 0
M  V30 3526 H 316.454 -0.632956 -4.239 0
M  V30 3527 H 320.638 -1.4772 -4.73806 0
M  V30 3528 H 315.894 -2.66611 -5.50208 0
M  V30 3529 H 320.068 -3.50985 -6.01484 0
M  V30 3530 H 317.695 -4.1101 -6.39511 0
M  V30 3531 N 319.27 1.56325 -0.20005 0
M  V30 3532 C 320.686 1.58839 0.155716 0
M  V30 3533 C 320.886 1.21636 1.60645 0
M  V30 3534 O 319.942 0.941437 2.34293 0
M  V30 3535 C 321.255 3.0032 -0.151124 0
M  V30 3536 C 322.803 3.12866 -0.0916284 0
M  V30 3537 C 323.278 4.56488 -0.371845 0
M  V30 3538 N 324.769 4.62089 -0.320641 0
M  V30 3539 C 325.504 5.71116 -0.511243 0
M  V30 3540 N 325 6.88592 -0.762461 0
M  V30 3541 N 326.793 5.60335 -0.445157 0
M  V30 3542 H 318.944 1.78788 -1.14668 0
M  V30 3543 H 321.207 0.829996 -0.458051 0
M  V30 3544 H 320.913 3.32117 -1.15721 0
M  V30 3545 H 320.787 3.73257 0.543986 0
M  V30 3546 H 323.174 2.80878 0.905065 0
M  V30 3547 H 323.255 2.42304 -0.81989 0
M  V30 3548 H 322.899 4.89189 -1.36588 0
M  V30 3549 H 322.829 5.25246 0.377362 0
M  V30 3550 H 325.32 3.77665 -0.13329 0
M  V30 3551 H 325.633 7.67581 -0.896576 0
M  V30 3552 H 323.978 6.90387 -0.799412 0
M  V30 3553 H 327.169 4.67436 -0.249278 0
M  V30 3554 H 327.342 6.45243 -0.597116 0
M  V30 3555 N 320.748 -0.0735177 1.57428 0
M  V30 3556 C 321.976 -0.785969 1.9139 0
M  V30 3557 C 322.391 -1.71207 0.795847 0
M  V30 3558 O 321.748 -1.81033 -0.230915 0
M  V30 3559 C 321.799 -1.58107 3.25091 0
M  V30 3560 O 321.52 -0.6922 4.32597 0
M  V30 3561 C 323.021 -2.39467 3.73055 0
M  V30 3562 H 320.241 -0.223558 0.632663 0
M  V30 3563 H 322.785 -0.044302 2.04452 0
M  V30 3564 H 320.94 -2.27503 3.13562 0
M  V30 3565 H 321.354 -1.24504 5.09508 0
M  V30 3566 H 322.828 -2.90716 4.69242 0
M  V30 3567 H 323.305 -3.18913 3.01979 0
M  V30 3568 H 323.911 -1.7523 3.87523 0
M  V30 3569 N 322.226 -1.5378 -0.344866 0
M  V30 3570 C 323.156 -1.84662 -1.42906 0
M  V30 3571 C 324.137 -0.701648 -1.54955 0
M  V30 3572 O 325.322 -0.953438 -1.69184 0
M  V30 3573 C 322.452 -2.05503 -2.79974 0
M  V30 3574 C 321.406 -3.21318 -2.82734 0
M  V30 3575 C 320.732 -3.2749 -4.22675 0
M  V30 3576 C 322.032 -4.59456 -2.48389 0
M  V30 3577 H 323.726 -2.75461 -1.17311 0
M  V30 3578 H 321.272 -1.32542 -0.562896 0
M  V30 3579 H 323.225 -2.25691 -3.55867 0
M  V30 3580 H 321.949 -1.11434 -3.07002 0
M  V30 3581 H 320.608 -3.00984 -2.09294 0
M  V30 3582 H 320.256 -2.31019 -4.4681 0
M  V30 3583 H 319.956 -4.05316 -4.25433 0
M  V30 3584 H 321.48 -3.49887 -5.00412 0
M  V30 3585 H 322.894 -4.79667 -3.13995 0
M  V30 3586 H 321.291 -5.39675 -2.62432 0
M  V30 3587 H 322.361 -4.63155 -1.4358 0
M  V30 3588 N 323.704 0.605807 -1.45491 0
M  V30 3589 C 324.952 1.36207 -1.49305 0
M  V30 3590 C 325.273 1.94519 -0.136863 0
M  V30 3591 O 324.543 1.77261 0.833983 0
M  V30 3592 H 323.123 0.50565 -0.549843 0
M  V30 3593 H 325.785 0.711239 -1.81459 0
M  V30 3594 H 324.881 2.18058 -2.23287 0
M  V30 3595 N 325.182 1.32811 0.848464 0
M  V30 3596 C 326.41 1.26739 1.63538 0
M  V30 3597 C 326.825 -0.163484 1.88091 0
M  V30 3598 O 326.182 -1.10258 1.45429 0
M  V30 3599 C 326.233 2.03013 2.99112 0
M  V30 3600 O 325.954 3.40518 2.75643 0
M  V30 3601 C 327.455 2.04038 3.93552 0
M  V30 3602 H 324.675 0.437024 0.509167 0
M  V30 3603 H 327.219 1.75033 1.05753 0
M  V30 3604 H 325.374 1.58426 3.53525 0
M  V30 3605 H 325.788 3.79635 3.61908 0
M  V30 3606 H 327.262 2.61877 4.85926 0
M  V30 3607 H 327.739 1.0282 4.26995 0
M  V30 3608 H 328.345 2.486 3.45077 0
M  V30 3609 N 326.66 -1.06551 1.16123 0
M  V30 3610 C 328.071 -1.60768 0.949232 0
M  V30 3611 C 328.422 -1.89523 -0.507508 0
M  V30 3612 O 327.547 -1.66671 -1.38021 0
M  V30 3613 C 328.142 -2.92086 1.71671 0
M  V30 3614 C 326.701 -3.43015 1.54977 0
M  V30 3615 C 325.848 -2.16947 1.72711 0
M  V30 3616 H 328.799 -0.895354 1.31031 0
M  V30 3617 H 328.82 -3.6138 1.19099 0
M  V30 3618 H 328.332 -2.71127 2.7769 0
M  V30 3619 H 326.433 -3.69039 0.513873 0
M  V30 3620 H 326.546 -4.18516 2.33198 0
M  V30 3621 H 324.91 -2.27041 1.15431 0
M  V30 3622 H 325.693 -1.98473 2.80113 0
M  V30 3623 N 328.138 -0.959301 -1.25041 0
M  V30 3624 C 329.415 -0.533805 -1.88175 0
M  V30 3625 C 329.795 0.988994 -1.865 0
M  V30 3626 O 329.143 1.85677 -1.33177 0
M  V30 3627 C 329.353 -1.11575 -3.30684 0
M  V30 3628 C 330.701 -1.19548 -4.07423 0
M  V30 3629 O 331.725 -1.06765 -3.39823 0
M  V30 3630 O 330.584 -1.39656 -5.28354 0
M  V30 3631 H 327.678 -0.176772 -0.807887 0
M  V30 3632 H 330.224 -1.05303 -1.33076 0
M  V30 3633 H 328.996 -2.15884 -3.26358 0
M  V30 3634 H 328.619 -0.580059 -3.93346 0
M  V30 3635 N 329.616 1.39756 -0.72842 0
M  V30 3636 C 330.526 2.34444 -0.0855374 0
M  V30 3637 C 331.542 1.57976 0.729356 0
M  V30 3638 O 332.718 1.90301 0.659346 0
M  V30 3639 C 329.783 3.36965 0.815798 0
M  V30 3640 C 328.844 4.29299 -0.0105996 0
M  V30 3641 C 328.077 5.26923 0.84781 0
M  V30 3642 O 328.3 5.30859 2.08673 0
M  V30 3643 O 327.234 6.01249 0.279969 0
M  V30 3644 H 331.06 2.91065 -0.866892 0
M  V30 3645 H 328.645 1.4117 -0.48902 0
M  V30 3646 H 330.527 3.99804 1.33171 0
M  V30 3647 H 329.202 2.82739 1.57608 0
M  V30 3648 H 328.109 3.69703 -0.571877 0
M  V30 3649 H 329.442 4.86712 -0.73295 0
M  V30 3650 N 331.094 0.475555 1.50254 0
M  V30 3651 C 332.34 -0.0780073 2.0265 0
M  V30 3652 C 332.673 -1.38968 1.35652 0
M  V30 3653 O 331.948 -1.8839 0.483691 0
M  V30 3654 C 332.231 -0.257161 3.59181 0
M  V30 3655 C 332.084 1.07585 4.36744 0
M  V30 3656 C 333.403 -1.00965 4.28362 0
M  V30 3657 H 330.522 -0.0268758 0.73651 0
M  V30 3658 H 333.164 0.622015 1.7953 0
M  V30 3659 H 331.314 -0.853412 3.79011 0
M  V30 3660 H 332.986 1.70902 4.28474 0
M  V30 3661 H 331.229 1.6714 4.00308 0
M  V30 3662 H 331.9 0.904088 5.44546 0
M  V30 3663 H 334.376 -0.504214 4.13034 0
M  V30 3664 H 333.252 -1.10381 5.37687 0
M  V30 3665 H 333.513 -2.04731 3.91839 0
M  V30 3666 N 332.573 -1.56217 0.208337 0
M  V30 3667 C 333.819 -1.98242 -0.427552 0
M  V30 3668 C 334.152 -1.09554 -1.60348 0
M  V30 3669 O 333.427 -0.15035 -1.93918 0
M  V30 3670 C 333.71 -3.4931 -0.874907 0
M  V30 3671 C 333.563 -4.48773 0.303751 0
M  V30 3672 C 334.882 -4.04424 -1.73577 0
M  V30 3673 H 332.001 -0.720744 -0.153936 0
M  V30 3674 H 334.643 -1.87586 0.30192 0
M  V30 3675 H 332.793 -3.58522 -1.49648 0
M  V30 3676 H 334.465 -4.51586 0.941682 0
M  V30 3677 H 332.708 -4.23194 0.953375 0
M  V30 3678 H 333.379 -5.51976 -0.0519883 0
M  V30 3679 H 335.855 -3.98075 -1.21143 0
M  V30 3680 H 334.731 -5.1047 -2.01771 0
M  V30 3681 H 334.992 -3.50494 -2.69456 0
M  V30 3682 N 334.051 0.0651679 -1.57465 0
M  V30 3683 C 335.297 0.758912 -1.88712 0
M  V30 3684 C 335.652 1.7485 -0.802819 0
M  V30 3685 O 334.945 1.90632 0.192359 0
M  V30 3686 C 335.139 1.50081 -3.24362 0
M  V30 3687 C 334.968 0.584579 -4.45884 0
M  V30 3688 C 333.738 0.219039 -5.04825 0
M  V30 3689 C 335.936 -0.121559 -5.14156 0
M  V30 3690 N 333.918 -0.702222 -6.09871 0
M  V30 3691 C 335.289 -0.899767 -6.13436 0
M  V30 3692 C 337.344 -0.192331 -4.97528 0
M  V30 3693 C 336.047 -1.74218 -6.97883 0
M  V30 3694 C 338.073 -1.02174 -5.82507 0
M  V30 3695 C 337.435 -1.78798 -6.8133 0
M  V30 3696 H 333.534 0.25293 -0.739967 0
M  V30 3697 H 336.118 0.0201744 -1.9469 0
M  V30 3698 H 334.289 2.21023 -3.1938 0
M  V30 3699 H 336.021 2.14409 -3.43236 0
M  V30 3700 H 332.776 0.57336 -4.70117 0
M  V30 3701 H 333.2 -1.15629 -6.67052 0
M  V30 3702 H 337.842 0.385741 -4.21037 0
M  V30 3703 H 335.56 -2.3312 -7.73745 0
M  V30 3704 H 339.146 -1.07957 -5.71696 0
M  V30 3705 H 338.026 -2.41942 -7.45945 0
M  V30 3706 N 335.529 1.53961 0.336706 0
M  V30 3707 C 336.94 1.62914 0.911925 0
M  V30 3708 C 337.291 0.514795 1.89326 0
M  V30 3709 O 336.416 -0.354395 2.13478 0
M  V30 3710 C 337.011 2.95304 1.66076 0
M  V30 3711 C 335.57 3.06496 2.18489 0
M  V30 3712 C 334.717 2.58403 1.00613 0
M  V30 3713 H 337.668 1.58285 0.114649 0
M  V30 3714 H 337.689 2.84727 2.5241 0
M  V30 3715 H 337.201 3.76387 0.946276 0
M  V30 3716 H 335.302 2.3006 2.93092 0
M  V30 3717 H 335.415 4.1208 2.44391 0
M  V30 3718 H 333.779 2.13977 1.38152 0
M  V30 3719 H 334.562 3.41932 0.306179 0
M  V30 3720 N 337.007 -0.598083 1.45811 0
M  V30 3721 C 338.255 -1.35413 1.50026 0
M  V30 3722 C 338.576 -1.94444 0.147177 0
M  V30 3723 O 337.846 -1.77701 -0.824571 0
M  V30 3724 H 336.426 -0.502727 0.552517 0
M  V30 3725 H 339.088 -0.701606 1.81834 0
M  V30 3726 H 338.184 -2.16871 2.2444 0
M  V30 3727 N 338.485 -1.33259 -0.841409 0
M  V30 3728 C 339.731 -1.24757 -1.59886 0
M  V30 3729 C 340.064 0.186913 -1.93298 0
M  V30 3730 O 339.339 1.12757 -1.5848 0
M  V30 3731 C 339.622 -2.12036 -2.91055 0
M  V30 3732 C 339.475 -3.63929 -2.6434 0
M  V30 3733 C 340.794 -1.9916 -3.92458 0
M  V30 3734 H 337.913 -0.454542 -0.580138 0
M  V30 3735 H 340.555 -1.63335 -0.970647 0
M  V30 3736 H 338.705 -1.79265 -3.44669 0
M  V30 3737 H 340.377 -4.06978 -2.17178 0
M  V30 3738 H 338.62 -3.85935 -1.98082 0
M  V30 3739 H 339.291 -4.20341 -3.57796 0
M  V30 3740 H 341.767 -2.27895 -3.48143 0
M  V30 3741 H 340.643 -2.62484 -4.82072 0
M  V30 3742 H 340.904 -0.963082 -4.31482 0
M  V30 3743 N 339.963 1.05934 -1.16686 0
M  V30 3744 C 341.191 1.8249 -0.974929 0
M  V30 3745 C 341.606 1.82679 0.476861 0
M  V30 3746 O 340.963 1.2486 1.33103 0
M  V30 3747 C 341.014 3.28943 -1.49929 0
M  V30 3748 O 340.735 3.28886 -2.89423 0
M  V30 3749 C 342.236 4.22215 -1.35089 0
M  V30 3750 H 339.456 0.575295 -0.345365 0
M  V30 3751 H 342 1.33631 -1.548 0
M  V30 3752 H 340.155 3.751 -0.968423 0
M  V30 3753 H 340.569 4.20493 -3.13506 0
M  V30 3754 H 342.043 5.22987 -1.76603 0
M  V30 3755 H 342.52 4.38195 -0.296935 0
M  V30 3756 H 343.126 3.81907 -1.87155 0
M  V30 3757 N 341.441 0.965919 1.2453 0
M  V30 3758 C 342.666 0.643971 1.97149 0
M  V30 3759 C 343.091 -0.779487 1.71189 0
M  V30 3760 O 342.449 -1.5288 0.974553 0
M  V30 3761 C 342.497 0.922557 3.48599 0
M  V30 3762 O 341.601 0.00707672 4.12399 0
M  V30 3763 H 340.942 0.243647 0.617683 0
M  V30 3764 H 343.472 1.29558 1.58353 0
M  V30 3765 H 343.482 0.853373 3.98976 0
M  V30 3766 H 342.157 1.95996 3.66822 0
M  V30 3767 H 340.734 0.12943 3.72675 0
M  V30 3768 N 342.919 -1.39368 0.735821 0
M  V30 3769 C 343.852 -2.28155 0.0451175 0
M  V30 3770 C 344.83 -1.44433 -0.746852 0
M  V30 3771 O 346.014 -1.73823 -0.729237 0
M  V30 3772 C 343.141 -3.253 -0.943266 0
M  V30 3773 C 342.187 -4.25826 -0.239685 0
M  V30 3774 S 343.02 -5.25166 1.04693 0
M  V30 3775 C 344.176 -6.2587 0.0611639 0
M  V30 3776 H 344.409 -2.86388 0.79807 0
M  V30 3777 H 341.942 -1.45104 0.527653 0
M  V30 3778 H 343.9 -3.81789 -1.50824 0
M  V30 3779 H 342.561 -2.66085 -1.66906 0
M  V30 3780 H 341.754 -4.94229 -0.987596 0
M  V30 3781 H 341.356 -3.73141 0.253274 0
M  V30 3782 H 343.648 -6.73007 -0.778941 0
M  V30 3783 H 344.591 -7.04508 0.712362 0
M  V30 3784 H 344.999 -5.63639 -0.311602 0
M  V30 3785 N 344.397 -0.483516 -1.5 0
M  V30 3786 C 345.808 -0.0314176 -1.86674 0
M  V30 3787 C 346.159 1.37728 -1.39733 0
M  V30 3788 O 345.284 2.02327 -0.767635 0
M  V30 3789 C 345.879 -0.0502376 -3.38763 0
M  V30 3790 C 344.438 0.346442 -3.74802 0
M  V30 3791 C 343.585 -0.430366 -2.7394 0
M  V30 3792 H 346.536 -0.697182 -1.42566 0
M  V30 3793 H 346.557 0.749116 -3.73053 0
M  V30 3794 H 346.069 -1.07563 -3.72897 0
M  V30 3795 H 344.17 1.37572 -3.46273 0
M  V30 3796 H 344.283 0.0391486 -4.79084 0
M  V30 3797 H 342.647 0.117557 -2.54429 0
M  V30 3798 H 343.43 -1.4555 -3.10918 0
M  V30 3799 N 345.875 1.56104 -0.216619 0
M  V30 3800 C 347.152 1.89988 0.465165 0
M  V30 3801 C 347.532 1.13326 1.78102 0
M  V30 3802 O 346.88 0.241033 2.27225 0
M  V30 3803 C 347.09 3.42646 0.662939 0
M  V30 3804 C 348.438 4.13311 0.972602 0
M  V30 3805 O 349.462 3.48217 0.749901 0
M  V30 3806 O 348.321 5.28396 1.39499 0
M  V30 3807 H 345.415 0.78979 0.245276 0
M  V30 3808 H 347.961 1.67721 -0.258436 0
M  V30 3809 H 346.733 3.90399 -0.26543 0
M  V30 3810 H 346.356 3.70677 1.43821 0
M  V30 3811 N 347.353 -0.0568162 1.57498 0
M  V30 3812 C 348.583 -0.764515 1.91934 0
M  V30 3813 C 348.991 -1.70877 0.81227 0
M  V30 3814 O 348.334 -1.82351 -0.222213 0
M  V30 3815 C 348.396 -1.5994 3.21962 0
M  V30 3816 C 348.06 -0.822925 4.4953 0
M  V30 3817 C 349.057 -0.135464 5.19723 0
M  V30 3818 C 346.742 -0.785666 4.96117 0
M  V30 3819 C 348.736 0.578861 6.34766 0
M  V30 3820 C 346.423 -0.0675784 6.11063 0
M  V30 3821 C 347.421 0.613471 6.80239 0
M  V30 3822 O 347.109 1.31996 7.92989 0
M  V30 3823 H 346.841 -0.221647 0.63863 0
M  V30 3824 H 349.395 -0.0268218 2.05382 0
M  V30 3825 H 347.625 -2.38026 3.04763 0
M  V30 3826 H 349.314 -2.18715 3.41934 0
M  V30 3827 H 350.08 -0.155458 4.84751 0
M  V30 3828 H 345.959 -1.30524 4.42136 0
M  V30 3829 H 349.503 1.111 6.88696 0
M  V30 3830 H 345.4 -0.0455636 6.45484 0
M  V30 3831 H 346.168 1.23077 8.09194 0
M  V30 3832 N 348.832 -1.54138 -0.328536 0
M  V30 3833 C 349.779 -1.83176 -1.40411 0
M  V30 3834 C 350.749 -0.678494 -1.5161 0
M  V30 3835 O 351.934 -0.92443 -1.6691 0
M  V30 3836 C 349.074 -2.06035 -2.76846 0
M  V30 3837 C 348.187 -3.33727 -2.74318 0
M  V30 3838 C 347.322 -3.46574 -4.02567 0
M  V30 3839 C 346.361 -4.68159 -3.94327 0
M  V30 3840 N 345.498 -4.77959 -5.14296 0
M  V30 3841 H 350.338 -2.74938 -1.14948 0
M  V30 3842 H 347.875 -1.36166 -0.556538 0
M  V30 3843 H 349.833 -2.1728 -3.56153 0
M  V30 3844 H 348.463 -1.1757 -3.00628 0
M  V30 3845 H 347.515 -3.31246 -1.8703 0
M  V30 3846 H 348.827 -4.23139 -2.64111 0
M  V30 3847 H 347.981 -3.57333 -4.90304 0
M  V30 3848 H 346.72 -2.55245 -4.15574 0
M  V30 3849 H 345.725 -4.57461 -3.04974 0
M  V30 3850 H 346.95 -5.60868 -3.82889 0
M  V30 3851 H 344.896 -3.89544 -5.27818 0
M  V30 3852 H 344.813 -5.6133 -5.06404 0
M  V30 3853 H 346.081 -4.93044 -6.03761 0
M  V30 3854 N 350.31 0.590341 -1.46126 0
M  V30 3855 C 351.721 1.17243 -1.45296 0
M  V30 3856 C 352.072 1.95281 -0.189723 0
M  V30 3857 O 351.197 2.04502 0.707674 0
M  V30 3858 C 351.792 2.13284 -2.6324 0
M  V30 3859 C 350.351 2.66832 -2.65476 0
M  V30 3860 C 349.498 1.42557 -2.3785 0
M  V30 3861 H 352.449 0.378692 -1.54116 0
M  V30 3862 H 352.47 2.96619 -2.38323 0
M  V30 3863 H 351.982 1.56459 -3.55165 0
M  V30 3864 H 350.083 3.27548 -1.77603 0
M  V30 3865 H 350.196 3.10088 -3.65215 0
M  V30 3866 H 348.56 1.72107 -1.87753 0
M  V30 3867 H 349.343 0.875741 -3.31942 0
M  V30 3868 N 351.788 1.33704 0.83433 0
M  V30 3869 C 353.013 1.28615 1.62705 0
M  V30 3870 C 353.438 -0.139242 1.87584 0
M  V30 3871 O 352.796 -1.09734 1.4432 0
M  V30 3872 C 352.844 2.07139 2.95171 0
M  V30 3873 O 351.948 1.4331 3.86699 0
M  V30 3874 H 351.289 0.44226 0.49528 0
M  V30 3875 H 353.819 1.76335 1.03766 0
M  V30 3876 H 353.829 2.18073 3.44831 0
M  V30 3877 H 352.504 3.10779 2.76386 0
M  V30 3878 H 351.081 1.4105 3.45195 0
M  V30 3879 N 353.266 -1.05314 1.17247 0
M  V30 3880 C 354.513 -1.78293 0.960091 0
M  V30 3881 C 354.841 -1.87658 -0.51136 0
M  V30 3882 O 354.096 -1.3718 -1.39571 0
M  V30 3883 C 354.395 -3.2229 1.54479 0
M  V30 3884 C 354.061 -3.32987 3.04024 0
M  V30 3885 C 352.723 -3.35613 3.44844 0
M  V30 3886 C 355.075 -3.34102 4.00031 0
M  V30 3887 C 352.403 -3.36982 4.8027 0
M  V30 3888 C 354.755 -3.3701 5.35357 0
M  V30 3889 C 353.419 -3.37923 5.75642 0
M  V30 3890 H 352.689 -0.652422 0.351322 0
M  V30 3891 H 355.336 -1.23782 1.46117 0
M  V30 3892 H 353.641 -3.7972 0.965391 0
M  V30 3893 H 355.338 -3.77376 1.35603 0
M  V30 3894 H 351.928 -3.31655 2.71483 0
M  V30 3895 H 356.112 -3.31276 3.69554 0
M  V30 3896 H 351.368 -3.35999 5.10798 0
M  V30 3897 H 355.542 -3.36822 6.09528 0
M  V30 3898 H 353.169 -3.38738 6.80559 0
M  V30 3899 N 354.744 -0.972509 -1.24016 0
M  V30 3900 C 356.155 -0.67517 -1.74064 0
M  V30 3901 C 356.506 0.808939 -1.78747 0
M  V30 3902 O 355.631 1.63286 -1.42009 0
M  V30 3903 C 356.226 -1.21889 -3.16115 0
M  V30 3904 C 354.785 -0.971358 -3.6365 0
M  V30 3905 C 353.932 -1.35134 -2.42145 0
M  V30 3906 H 356.883 -1.14727 -1.09651 0
M  V30 3907 H 356.904 -0.587489 -3.75937 0
M  V30 3908 H 356.416 -2.29906 -3.12674 0
M  V30 3909 H 354.517 0.0930686 -3.72484 0
M  V30 3910 H 354.63 -1.62039 -4.50866 0
M  V30 3911 H 352.994 -0.769751 -2.4279 0
M  V30 3912 H 353.777 -2.4411 -2.41381 0
M  V30 3913 N 356.222 1.38976 -0.743202 0
M  V30 3914 C 357.169 2.30544 -0.10861 0
M  V30 3915 C 358.139 1.49642 0.720869 0
M  V30 3916 O 359.324 1.78304 0.679142 0
M  V30 3917 C 356.464 3.36018 0.786496 0
M  V30 3918 C 355.577 4.31963 -0.0564849 0
M  V30 3919 C 354.712 5.24506 0.840657 0
M  V30 3920 C 353.751 6.121 -0.00658363 0
M  V30 3921 N 352.888 6.96973 0.846943 0
M  V30 3922 H 357.728 2.8424 -0.895088 0
M  V30 3923 H 355.265 1.3995 -0.453048 0
M  V30 3924 H 357.223 3.95768 1.31999 0
M  V30 3925 H 355.853 2.83758 1.53887 0
M  V30 3926 H 354.905 3.73763 -0.707492 0
M  V30 3927 H 356.217 4.93703 -0.711229 0
M  V30 3928 H 355.371 5.89322 1.4417 0
M  V30 3929 H 354.11 4.63107 1.52916 0
M  V30 3930 H 353.115 5.46289 -0.620366 0
M  V30 3931 H 354.34 6.75565 -0.691992 0
M  V30 3932 H 352.286 6.38133 1.52059 0
M  V30 3933 H 352.203 7.5559 0.248864 0
M  V30 3934 H 353.471 7.6621 1.43328 0
M  V30 3935 N 357.7 0.491464 1.49741 0
M  V30 3936 C 358.946 -0.0485431 2.03342 0
M  V30 3937 C 359.301 -1.35566 1.36527 0
M  V30 3938 O 358.594 -1.85262 0.488729 0
M  V30 3939 C 358.788 -0.267329 3.56399 0
M  V30 3940 C 358.617 1.01703 4.38049 0
M  V30 3941 C 357.387 1.56614 4.80417 0
M  V30 3942 C 359.585 1.91782 4.77204 0
M  V30 3943 N 357.567 2.7974 5.4646 0
M  V30 3944 C 358.938 2.99489 5.42868 0
M  V30 3945 C 360.993 1.92575 4.5915 0
M  V30 3946 C 359.696 4.08005 5.92389 0
M  V30 3947 C 361.722 3.0006 5.09626 0
M  V30 3948 C 361.084 4.06485 5.75282 0
M  V30 3949 H 357.183 0.0227779 0.781668 0
M  V30 3950 H 359.767 0.664204 1.8302 0
M  V30 3951 H 357.938 -0.949126 3.76625 0
M  V30 3952 H 359.67 -0.803492 3.96644 0
M  V30 3953 H 356.425 1.11256 4.60347 0
M  V30 3954 H 356.849 3.42323 5.84075 0
M  V30 3955 H 361.491 1.11605 4.07804 0
M  V30 3956 H 359.209 4.89779 6.42761 0
M  V30 3957 H 362.795 3.01681 4.97473 0
M  V30 3958 H 361.675 4.88287 6.13633 0
M  V30 3959 N 359.178 -1.55987 0.224894 0
M  V30 3960 C 360.141 -2.19178 -0.670348 0
M  V30 3961 C 361.141 -1.15461 -1.11917 0
M  V30 3962 O 362.331 -1.40675 -1.02743 0
M  V30 3963 C 359.463 -2.81777 -1.9187 0
M  V30 3964 H 360.656 -2.99662 -0.119364 0
M  V30 3965 H 358.209 -1.5628 -0.0247128 0
M  V30 3966 H 358.944 -2.05172 -2.51147 0
M  V30 3967 H 358.729 -3.57732 -1.60531 0
M  V30 3968 H 360.219 -3.30205 -2.55645 0
M  V30 3969 N 360.656 0.0484629 -1.57525 0
M  V30 3970 C 362.072 0.40375 -1.54409 0
M  V30 3971 C 362.272 1.77786 -0.948384 0
M  V30 3972 O 361.328 2.46189 -0.560983 0
M  V30 3973 C 362.641 0.323394 -2.98956 0
M  V30 3974 C 364.189 0.401892 -3.10409 0
M  V30 3975 C 364.664 0.351195 -4.56652 0
M  V30 3976 N 366.155 0.410576 -4.61377 0
M  V30 3977 C 366.89 0.393933 -5.72045 0
M  V30 3978 N 366.386 0.330724 -6.9201 0
M  V30 3979 N 368.179 0.442227 -5.60358 0
M  V30 3980 H 360.33 -0.851016 -1.94606 0
M  V30 3981 H 362.593 -0.321721 -0.89174 0
M  V30 3982 H 362.299 -0.62011 -3.4619 0
M  V30 3983 H 362.173 1.12463 -3.60044 0
M  V30 3984 H 364.56 1.33582 -2.63134 0
M  V30 3985 H 364.641 -0.428342 -2.52188 0
M  V30 3986 H 364.285 -0.578987 -5.04589 0
M  V30 3987 H 364.215 1.19928 -5.12762 0
M  V30 3988 H 366.706 0.462729 -3.75056 0
M  V30 3989 H 367.019 0.322592 -7.72126 0
M  V30 3990 H 365.364 0.29706 -6.94365 0
M  V30 3991 H 368.555 0.489464 -4.65534 0
M  V30 3992 H 368.728 0.425788 -6.466 0
M  V30 3993 N 362.134 1.5431 0.320358 0
M  V30 3994 C 363.066 1.80262 1.41556 0
M  V30 3995 C 364.079 0.684723 1.477 0
M  V30 3996 O 365.268 0.961886 1.50366 0
M  V30 3997 C 362.368 1.90825 2.8007 0
M  V30 3998 C 361.541 3.21023 2.97091 0
M  V30 3999 C 360.6 3.22247 4.15985 0
M  V30 4000 O 359.626 3.95871 4.08992 0
M  V30 4001 N 360.828 2.46258 5.25678 0
M  V30 4002 H 363.593 2.74778 1.19655 0
M  V30 4003 H 361.154 1.53646 0.510358 0
M  V30 4004 H 363.146 1.89067 3.57821 0
M  V30 4005 H 361.716 1.03392 2.95006 0
M  V30 4006 H 360.936 3.35715 2.06614 0
M  V30 4007 H 362.224 4.0698 3.05361 0
M  V30 4008 H 361.622 1.86037 5.34235 0
M  V30 4009 H 360.179 2.50275 6.01835 0
M  V30 4010 N 363.613 -0.582584 1.46437 0
M  V30 4011 C 364.89 -1.34276 1.4223 0
M  V30 4012 C 365.27 -2.10835 0.10583 0
M  V30 4013 O 364.618 -2.09485 -0.912596 0
M  V30 4014 C 364.828 -2.26865 2.65204 0
M  V30 4015 C 366.176 -2.88691 3.11356 0
M  V30 4016 O 367.2 -2.37178 2.65753 0
M  V30 4017 O 366.059 -3.82255 3.90568 0
M  V30 4018 H 363.153 -0.603326 0.565621 0
M  V30 4019 H 365.699 -0.603591 1.58603 0
M  V30 4020 H 364.471 -1.69724 3.52576 0
M  V30 4021 H 364.094 -3.08122 2.5129 0
M  V30 4022 N 365.091 -1.34144 -0.827227 0
M  V30 4023 C 366.338 -1.26258 -1.58319 0
M  V30 4024 C 366.666 0.168595 -1.93768 0
M  V30 4025 O 365.921 1.12877 -1.59866 0
M  V30 4026 C 366.22 -2.09464 -2.89585 0
M  V30 4027 C 365.886 -3.58521 -2.73448 0
M  V30 4028 C 364.548 -3.99155 -2.68754 0
M  V30 4029 C 366.9 -4.53189 -2.57428 0
M  V30 4030 C 364.228 -5.32656 -2.45957 0
M  V30 4031 C 366.58 -5.86864 -2.36163 0
M  V30 4032 C 365.244 -6.26667 -2.29879 0
M  V30 4033 H 364.514 -0.462013 -0.579332 0
M  V30 4034 H 367.161 -1.65845 -0.95748 0
M  V30 4035 H 365.466 -1.62692 -3.56425 0
M  V30 4036 H 367.163 -2.00712 -3.47154 0
M  V30 4037 H 363.753 -3.26264 -2.77939 0
M  V30 4038 H 367.937 -4.22696 -2.60081 0
M  V30 4039 H 363.193 -5.62519 -2.39546 0
M  V30 4040 H 367.367 -6.59813 -2.22754 0
M  V30 4041 H 364.994 -7.30049 -2.11975 0
M  V30 4042 N 366.569 1.04691 -1.17803 0
M  V30 4043 C 367.794 1.81984 -0.994813 0
M  V30 4044 C 368.219 1.82586 0.452112 0
M  V30 4045 O 367.577 1.23854 1.324 0
M  V30 4046 C 367.625 3.2575 -1.54659 0
M  V30 4047 O 366.729 4.05267 -0.763728 0
M  V30 4048 H 366.07 0.562483 -0.352857 0
M  V30 4049 H 368.6 1.3189 -1.56417 0
M  V30 4050 H 368.61 3.76541 -1.57102 0
M  V30 4051 H 367.285 3.24627 -2.59981 0
M  V30 4052 H 365.862 3.63972 -0.811108 0
M  V30 4053 N 368.047 0.979072 1.23499 0
M  V30 4054 C 368.994 0.517904 2.24914 0
M  V30 4055 C 369.964 -0.442525 1.60097 0
M  V30 4056 O 371.149 -0.350365 1.87556 0
M  V30 4057 C 368.289 -0.174813 3.44657 0
M  V30 4058 C 367.402 0.825721 4.24035 0
M  V30 4059 C 366.537 0.107946 5.3109 0
M  V30 4060 C 365.576 1.09778 6.02175 0
M  V30 4061 N 364.713 0.40925 7.00906 0
M  V30 4062 H 369.553 1.38751 2.63727 0
M  V30 4063 H 367.09 0.695303 1.2963 0
M  V30 4064 H 369.048 -0.593233 4.12961 0
M  V30 4065 H 367.678 -1.0083 3.06648 0
M  V30 4066 H 366.73 1.36253 3.55161 0
M  V30 4067 H 368.042 1.58005 4.73113 0
M  V30 4068 H 367.196 -0.367904 6.05583 0
M  V30 4069 H 365.935 -0.678994 4.8295 0
M  V30 4070 H 364.94 1.5844 5.26476 0
M  V30 4071 H 366.165 1.88536 6.52404 0
M  V30 4072 H 364.111 -0.358506 6.5502 0
M  V30 4073 H 364.028 1.10226 7.47921 0
M  V30 4074 H 365.296 -0.0442557 7.79487 0
M  V30 4075 N 369.525 -1.3858 0.750561 0
M  V30 4076 C 370.771 -2.00481 0.305825 0
M  V30 4077 C 371.104 -1.5944 -1.10872 0
M  V30 4078 O 370.379 -0.83052 -1.75877 0
M  V30 4079 C 370.662 -3.5758 0.425287 0
M  V30 4080 C 370.515 -4.08594 1.88072 0
M  V30 4081 C 371.834 -4.39719 -0.183122 0
M  V30 4082 H 368.953 -0.728348 0.112598 0
M  V30 4083 H 371.595 -1.64566 0.949638 0
M  V30 4084 H 369.745 -3.88306 -0.122828 0
M  V30 4085 H 371.417 -3.88523 2.48691 0
M  V30 4086 H 369.66 -3.61574 2.39681 0
M  V30 4087 H 370.331 -5.177 1.91548 0
M  V30 4088 H 372.807 -4.15128 0.284303 0
M  V30 4089 H 371.683 -5.48856 -0.0692757 0
M  V30 4090 H 371.944 -4.23434 -1.27106 0
M  V30 4091 N 371.003 -0.499398 -1.49478 0
M  V30 4092 C 372.249 0.0457576 -2.02748 0
M  V30 4093 C 372.582 1.36793 -1.37846 0
M  V30 4094 O 371.857 1.87596 -0.513601 0
M  V30 4095 C 372.14 0.199986 -3.59544 0
M  V30 4096 C 371.993 -1.1452 -4.34977 0
M  V30 4097 C 373.312 0.94137 -4.29914 0
M  V30 4098 H 370.431 0.0151552 -0.736844 0
M  V30 4099 H 373.073 -0.650498 -1.78518 0
M  V30 4100 H 371.223 0.793007 -3.8032 0
M  V30 4101 H 372.895 -1.77697 -4.25701 0
M  V30 4102 H 371.138 -1.73488 -3.97598 0
M  V30 4103 H 371.809 -0.990607 -5.43039 0
M  V30 4104 H 374.285 0.43844 -4.13784 0
M  V30 4105 H 373.161 1.01812 -5.39375 0
M  V30 4106 H 373.422 1.98471 -3.95046 0
M  V30 4107 N 372.481 1.55866 -0.233164 0
M  V30 4108 C 373.892 1.847 0.272554 0
M  V30 4109 C 374.243 1.15477 1.58617 0
M  V30 4110 O 373.368 0.42841 2.12117 0
M  V30 4111 C 373.963 3.35071 0.501299 0
M  V30 4112 C 372.522 3.6418 0.951304 0
M  V30 4113 C 371.669 2.77292 0.0208209 0
M  V30 4114 H 374.62 1.52005 -0.456074 0
M  V30 4115 H 374.641 3.55906 1.34577 0
M  V30 4116 H 374.153 3.85424 -0.454936 0
M  V30 4117 H 372.254 3.19293 1.92049 0
M  V30 4118 H 372.367 4.72071 0.817675 0
M  V30 4119 H 370.731 2.49131 0.529723 0
M  V30 4120 H 371.514 3.30448 -0.93054 0
M  V30 4121 N 373.959 -0.0401083 1.57549 0
M  V30 4122 C 375.37 -0.588097 1.77196 0
M  V30 4123 C 375.721 -1.76209 0.862832 0
M  V30 4124 O 374.846 -2.16331 0.0548389 0
M  V30 4125 C 375.441 -1.07363 3.21339 0
M  V30 4126 C 374 -1.56723 3.42221 0
M  V30 4127 C 373.147 -0.50041 2.72747 0
M  V30 4128 H 376.098 0.186119 1.57605 0
M  V30 4129 H 376.119 -1.94143 3.27244 0
M  V30 4130 H 375.631 -0.218975 3.87482 0
M  V30 4131 H 373.732 -2.4441 2.81237 0
M  V30 4132 H 373.845 -1.62234 4.50796 0
M  V30 4133 H 372.209 -0.952894 2.36203 0
M  V30 4134 H 372.992 0.344599 3.41566 0
M  V30 4135 N 375.437 -1.54477 -0.31217 0
M  V30 4136 C 376.367 -1.87652 -1.38957 0
M  V30 4137 C 377.348 -0.734358 -1.53431 0
M  V30 4138 O 378.533 -0.98911 -1.67123 0
M  V30 4139 C 375.663 -2.11396 -2.75552 0
M  V30 4140 C 374.617 -3.27243 -2.75855 0
M  V30 4141 C 373.943 -3.36382 -4.15633 0
M  V30 4142 C 375.243 -4.64622 -2.38587 0
M  V30 4143 H 376.937 -2.77887 -1.11442 0
M  V30 4144 H 374.483 -1.33707 -0.534655 0
M  V30 4145 H 376.436 -2.33189 -3.51 0
M  V30 4146 H 375.16 -1.17921 -3.04569 0
M  V30 4147 H 373.819 -3.05356 -2.02863 0
M  V30 4148 H 373.467 -2.40445 -4.41809 0
M  V30 4149 H 373.167 -4.14249 -4.1674 0
M  V30 4150 H 374.691 -3.60422 -4.92877 0
M  V30 4151 H 376.105 -4.86219 -3.03749 0
M  V30 4152 H 374.502 -5.45121 -2.50925 0
M  V30 4153 H 375.572 -4.66097 -1.33723 0
M  V30 4154 N 376.915 0.57481 -1.46744 0
M  V30 4155 C 378.192 1.3352 -1.4294 0
M  V30 4156 C 378.572 2.10775 -0.117009 0
M  V30 4157 O 377.92 2.09966 0.901474 0
M  V30 4158 C 378.13 2.25456 -2.66403 0
M  V30 4159 C 379.478 2.87035 -3.12883 0
M  V30 4160 O 380.502 2.35766 -2.67007 0
M  V30 4161 O 379.361 3.80179 -3.92589 0
M  V30 4162 H 376.455 0.600318 -0.568812 0
M  V30 4163 H 379.001 0.595171 -1.58921 0
M  V30 4164 H 377.773 1.67851 -3.53471 0
M  V30 4165 H 377.396 3.06785 -2.52921 0
M  V30 4166 N 378.394 1.34581 0.820102 0
M  V30 4167 C 379.304 1.28471 1.96297 0
M  V30 4168 C 380.32 0.191902 1.72939 0
M  V30 4169 O 381.496 0.418879 1.96996 0
M  V30 4170 C 378.561 1.04281 3.30645 0
M  V30 4171 C 377.622 2.22745 3.66992 0
M  V30 4172 C 376.855 1.997 4.9493 0
M  V30 4173 O 377.078 0.956656 5.6232 0
M  V30 4174 O 376.012 2.86723 5.2922 0
M  V30 4175 H 379.838 2.24624 2.04396 0
M  V30 4176 H 377.423 1.14816 0.955913 0
M  V30 4177 H 379.305 0.925841 4.11104 0
M  V30 4178 H 377.98 0.111697 3.23507 0
M  V30 4179 H 376.887 2.40003 2.86966 0
M  V30 4180 H 378.22 3.14257 3.78819 0
M  V30 4181 N 379.872 -1.04064 1.18357 0
M  V30 4182 C 381.149 -1.74252 0.888581 0
M  V30 4183 C 381.529 -2.02138 -0.60856 0
M  V30 4184 O 380.877 -1.66656 -1.56327 0
M  V30 4185 C 381.087 -3.0277 1.73584 0
M  V30 4186 C 382.435 -3.76506 1.96286 0
M  V30 4187 O 383.459 -3.12668 1.70637 0
M  V30 4188 O 382.318 -4.91243 2.39464 0
M  V30 4189 H 379.412 -0.758271 0.330082 0
M  V30 4190 H 381.958 -1.1013 1.2911 0
M  V30 4191 H 380.73 -2.78299 2.75073 0
M  V30 4192 H 380.353 -3.74631 1.33183 0
M  V30 4193 N 381.35 -0.985608 -1.22978 0
M  V30 4194 C 382.598 -0.656087 -1.91154 0
M  V30 4195 C 382.919 0.813561 -1.77218 0
M  V30 4196 O 382.189 1.58244 -1.1548 0
M  V30 4197 H 380.769 -0.239674 -0.707506 0
M  V30 4198 H 383.431 -1.25054 -1.49491 0
M  V30 4199 H 382.527 -0.912253 -2.9847 0
M  V30 4200 N 382.828 1.3818 -0.7579 0
M  V30 4201 C 384.244 1.5353 -0.435972 0
M  V30 4202 C 384.444 1.71961 1.05032 0
M  V30 4203 O 383.5 1.73307 1.83633 0
M  V30 4204 C 384.813 2.73989 -1.23898 0
M  V30 4205 C 386.361 2.87841 -1.22949 0
M  V30 4206 C 386.836 4.11266 -2.01554 0
M  V30 4207 N 388.327 4.18352 -1.98837 0
M  V30 4208 C 389.062 5.12856 -2.5645 0
M  V30 4209 N 388.558 6.13005 -3.22794 0
M  V30 4210 N 390.351 5.05238 -2.46356 0
M  V30 4211 H 382.502 1.24467 -1.7211 0
M  V30 4212 H 384.765 0.604982 -0.729864 0
M  V30 4213 H 384.471 2.66789 -2.29165 0
M  V30 4214 H 384.345 3.67294 -0.858764 0
M  V30 4215 H 386.732 2.9452 -0.184854 0
M  V30 4216 H 386.813 1.95534 -1.64924 0
M  V30 4217 H 386.457 4.05349 -3.06031 0
M  V30 4218 H 386.387 5.02661 -1.5697 0
M  V30 4219 H 388.878 3.46628 -1.50524 0
M  V30 4220 H 389.191 6.81619 -3.64165 0
M  V30 4221 H 387.536 6.13325 -3.2689 0
M  V30 4222 H 390.727 4.25938 -1.9415 0
M  V30 4223 H 390.9 5.78707 -2.91552 0
M  V30 4224 N 384.306 0.507319 1.49211 0
M  V30 4225 C 385.531 -0.033725 2.07373 0
M  V30 4226 C 385.956 -1.29485 1.36437 0
M  V30 4227 O 385.314 -1.76294 0.423087 0
M  V30 4228 C 385.362 -0.263945 3.59633 0
M  V30 4229 O 384.466 -1.33737 3.90113 0
M  V30 4230 H 383.807 0.0290331 0.663365 0
M  V30 4231 H 386.337 0.708749 1.91932 0
M  V30 4232 H 386.347 -0.493536 4.05004 0
M  V30 4233 H 385.022 0.657424 4.10671 0
M  V30 4234 H 383.599 -1.09224 3.56545 0
M  V30 4235 N 385.784 -1.5574 0.241426 0
M  V30 4236 C 386.714 -2.24133 -0.654722 0
M  V30 4237 C 387.695 -1.21974 -1.1856 0
M  V30 4238 O 388.88 -1.50612 -1.22595 0
M  V30 4239 C 386.01 -2.93659 -1.85423 0
M  V30 4240 C 384.964 -4.0246 -1.45636 0
M  V30 4241 C 384.29 -4.59383 -2.73626 0
M  V30 4242 C 385.59 -5.18468 -0.631506 0
M  V30 4243 H 387.284 -2.99281 -0.0844353 0
M  V30 4244 H 384.83 -1.43947 -0.0391707 0
M  V30 4245 H 386.783 -3.40203 -2.48676 0
M  V30 4246 H 385.507 -2.15991 -2.44981 0
M  V30 4247 H 384.166 -3.56676 -0.847202 0
M  V30 4248 H 383.814 -3.78422 -3.3137 0
M  V30 4249 H 383.514 -5.32826 -2.4773 0
M  V30 4250 H 385.038 -5.08658 -3.37786 0
M  V30 4251 H 386.452 -5.61272 -1.1682 0
M  V30 4252 H 384.849 -5.98266 -0.468831 0
M  V30 4253 H 385.919 -4.8358 0.357506 0
M  V30 4254 N 387.262 0.0317525 -1.57568 0
M  V30 4255 C 388.192 1.03274 -2.0942 0
M  V30 4256 C 389.173 1.3788 -0.996143 0
M  V30 4257 O 390.358 1.46811 -1.27122 0
M  V30 4258 C 387.488 2.33448 -2.57137 0
M  V30 4259 C 386.442 2.13091 -3.71182 0
M  V30 4260 C 385.768 3.49001 -4.05095 0
M  V30 4261 C 387.068 1.51928 -4.99715 0
M  V30 4262 H 388.762 0.60112 -2.93303 0
M  V30 4263 H 386.308 0.287705 -1.41097 0
M  V30 4264 H 388.261 3.03802 -2.92032 0
M  V30 4265 H 386.985 2.78665 -1.70333 0
M  V30 4266 H 385.644 1.45171 -3.36632 0
M  V30 4267 H 385.292 3.91862 -3.15362 0
M  V30 4268 H 384.992 3.36207 -4.81911 0
M  V30 4269 H 386.516 4.20721 -4.42522 0
M  V30 4270 H 387.93 2.12196 -5.32584 0
M  V30 4271 H 386.327 1.49716 -5.81124 0
M  V30 4272 H 387.397 0.484811 -4.8247 0
M  V30 4273 N 388.74 1.54641 0.303973 0
M  V30 4274 C 389.965 1.78092 1.06292 0
M  V30 4275 C 390.39 0.537342 1.80262 0
M  V30 4276 O 389.748 -0.511993 1.7392 0
M  V30 4277 C 389.796 2.98612 2.02147 0
M  V30 4278 O 388.9 2.71528 3.10397 0
M  V30 4279 H 388.241 0.589548 0.305497 0
M  V30 4280 H 390.771 2.01716 0.3423 0
M  V30 4281 H 390.781 3.265 2.44667 0
M  V30 4282 H 389.456 3.88785 1.47714 0
M  V30 4283 H 388.033 2.54648 2.72413 0
M  V30 4284 N 390.218 -0.567019 1.47046 0
M  V30 4285 C 391.15 -1.68985 1.54844 0
M  V30 4286 C 392.163 -1.56869 0.435431 0
M  V30 4287 O 393.352 -1.64006 0.70457 0
M  V30 4288 C 390.452 -3.07373 1.42742 0
M  V30 4289 C 389.625 -3.45339 2.6844 0
M  V30 4290 C 388.684 -4.62849 2.50314 0
M  V30 4291 O 387.71 -4.67922 3.24095 0
M  V30 4292 N 388.912 -5.58726 1.57499 0
M  V30 4293 H 391.677 -1.62745 2.51663 0
M  V30 4294 H 389.238 -0.753411 1.43302 0
M  V30 4295 H 391.23 -3.83803 1.28365 0
M  V30 4296 H 389.8 -3.07893 0.540445 0
M  V30 4297 H 389.02 -2.58455 2.97648 0
M  V30 4298 H 390.308 -3.67476 3.51907 0
M  V30 4299 H 389.706 -5.57376 0.966876 0
M  V30 4300 H 388.263 -6.34523 1.49078 0
M  V30 4301 N 391.696 -1.35014 -0.812953 0
M  V30 4302 C 392.629 -1.21761 -1.93001 0
M  V30 4303 C 393.607 -0.10694 -1.62248 0
M  V30 4304 O 394.791 -0.273891 -1.865 0
M  V30 4305 C 391.918 -0.873404 -3.27245 0
M  V30 4306 C 390.964 -1.99523 -3.76952 0
M  V30 4307 S 391.797 -3.61009 -3.95516 0
M  V30 4308 C 392.953 -3.28651 -5.32672 0
M  V30 4309 H 393.186 -2.16315 -2.03948 0
M  V30 4310 H 390.719 -1.20156 -0.969631 0
M  V30 4311 H 392.677 -0.68161 -4.04802 0
M  V30 4312 H 391.338 0.053971 -3.14054 0
M  V30 4313 H 390.531 -1.70838 -4.74163 0
M  V30 4314 H 390.133 -2.14503 -3.06373 0
M  V30 4315 H 392.425 -2.81085 -6.1644 0
M  V30 4316 H 393.368 -4.25039 -5.66346 0
M  V30 4317 H 393.776 -2.6458 -4.98656 0
M  V30 4318 N 393.175 1.03435 -1.18907 0
M  V30 4319 C 394.105 2.13503 -0.945448 0
M  V30 4320 C 395.086 1.69682 0.119189 0
M  V30 4321 O 396.271 1.94169 -0.034707 0
M  V30 4322 C 393.401 3.44004 -0.477316 0
M  V30 4323 C 392.355 4.0148 -1.48316 0
M  V30 4324 C 391.681 5.27537 -0.872311 0
M  V30 4325 C 392.981 4.36921 -2.86177 0
M  V30 4326 H 394.675 2.34141 -1.86597 0
M  V30 4327 H 392.221 1.12523 -0.898584 0
M  V30 4328 H 394.174 4.20372 -0.294204 0
M  V30 4329 H 392.898 3.23072 0.478786 0
M  V30 4330 H 391.557 3.27201 -1.65332 0
M  V30 4331 H 391.205 5.02917 0.0911752 0
M  V30 4332 H 390.905 5.66954 -1.54393 0
M  V30 4333 H 392.429 6.06576 -0.699871 0
M  V30 4334 H 393.843 5.04248 -2.72776 0
M  V30 4335 H 392.24 4.87405 -3.50081 0
M  V30 4336 H 393.31 3.46466 -3.39248 0
M  V30 4337 N 394.653 0.992116 1.22453 0
M  V30 4338 C 395.603 0.512969 2.22155 0
M  V30 4339 C 396.587 -0.418416 1.55364 0
M  V30 4340 O 397.779 -0.245363 1.75291 0
M  V30 4341 C 394.908 -0.171822 3.4287 0
M  V30 4342 C 393.994 0.779822 4.16869 0
M  V30 4343 N 394.385 1.92734 4.6764 0
M  V30 4344 C 392.683 0.59554 4.42006 0
M  V30 4345 C 393.384 2.52458 5.24061 0
M  V30 4346 N 392.36 1.80735 5.12675 0
M  V30 4347 H 396.162 1.38817 2.5905 0
M  V30 4348 H 393.676 0.854277 1.38115 0
M  V30 4349 H 395.673 -0.532469 4.13486 0
M  V30 4350 H 394.333 -1.04317 3.07487 0
M  V30 4351 H 395.344 2.30816 4.63621 0
M  V30 4352 H 392.021 -0.229805 4.16867 0
M  V30 4353 H 393.411 3.49433 5.73887 0
M  V30 4354 N 396.131 -1.37776 0.765217 0
M  V30 4355 C 397.361 -2.03828 0.337277 0
M  V30 4356 C 397.769 -1.57841 -1.04321 0
M  V30 4357 O 397.112 -0.752043 -1.67601 0
M  V30 4358 C 397.174 -3.58292 0.294407 0
M  V30 4359 C 396.838 -4.27384 1.61838 0
M  V30 4360 C 397.835 -4.51956 2.56967 0
M  V30 4361 C 395.52 -4.65345 1.89102 0
M  V30 4362 C 397.514 -5.13536 3.77571 0
M  V30 4363 C 395.201 -5.26647 3.09978 0
M  V30 4364 C 396.199 -5.50679 4.04032 0
M  V30 4365 O 395.887 -6.10702 5.2278 0
M  V30 4366 H 395.619 -0.661292 0.140248 0
M  V30 4367 H 398.173 -1.77222 1.03834 0
M  V30 4368 H 396.403 -3.83918 -0.462983 0
M  V30 4369 H 398.092 -4.05763 -0.105581 0
M  V30 4370 H 398.858 -4.23048 2.37183 0
M  V30 4371 H 394.737 -4.45978 1.16725 0
M  V30 4372 H 398.281 -5.3221 4.50997 0
M  V30 4373 H 394.178 -5.54979 3.29649 0
M  V30 4374 H 394.946 -6.29183 5.23517 0
M  V30 4375 N 397.609 -0.515225 -1.4894 0
M  V30 4376 C 398.886 0.0879088 -1.95402 0
M  V30 4377 C 399.266 1.52745 -1.45712 0
M  V30 4378 O 398.614 2.18238 -0.677093 0
M  V30 4379 C 398.824 -0.0141055 -3.48997 0
M  V30 4380 C 400.172 0.152646 -4.24326 0
M  V30 4381 O 401.196 0.0604025 -3.56149 0
M  V30 4382 O 400.055 0.34384 -5.45417 0
M  V30 4383 H 397.149 0.0874636 -0.822362 0
M  V30 4384 H 399.695 -0.578775 -1.59525 0
M  V30 4385 H 398.467 -1.01745 -3.77841 0
M  V30 4386 H 398.09 0.692091 -3.9153 0
M  V30 4387 N 399.087 1.5561 -0.249682 0
M  V30 4388 C 400.498 1.84979 0.252949 0
M  V30 4389 C 400.849 1.17153 1.57384 0
M  V30 4390 O 399.974 0.450884 2.11651 0
M  V30 4391 C 400.569 3.35584 0.465732 0
M  V30 4392 C 399.128 3.65169 0.912624 0
M  V30 4393 C 398.275 2.77299 -0.00859085 0
M  V30 4394 H 401.226 1.51513 -0.47217 0
M  V30 4395 H 401.247 3.57313 1.30795 0
M  V30 4396 H 400.759 3.8492 -0.49579 0
M  V30 4397 H 398.86 3.21312 1.88652 0
M  V30 4398 H 398.973 4.72912 0.767559 0
M  V30 4399 H 397.337 2.49678 0.50327 0
M  V30 4400 H 398.12 3.29442 -0.965537 0
M  V30 4401 N 400.565 -0.0233959 1.57583 0
M  V30 4402 C 401.513 -1.04063 2.08023 0
M  V30 4403 C 402.507 -1.37084 0.995204 0
M  V30 4404 O 403.713 -1.35923 1.18004 0
M  V30 4405 H 400.088 -0.353144 0.663922 0
M  V30 4406 H 402.059 -0.589453 2.9252 0
M  V30 4407 C 400.808 -2.33123 2.57971 0
M  V30 4408 H 400.131 -2.08577 3.4108 0
M  V30 4409 H 401.571 -3.02632 2.96967 0
M  V30 4410 C 400.03 -3.02483 1.48342 0
M  V30 4411 O 400.56 -3.92541 0.852898 0
M  V30 4412 N 398.766 -2.63909 1.21658 0
M  V30 4413 H 398.313 -1.90758 1.73116 0
M  V30 4414 H 398.271 -3.10633 0.485218 0
M  V30 4415 N 402.043 -1.548 -0.295768 0
M  V30 4416 C 402.99 -1.86113 -1.36494 0
M  V30 4417 C 403.96 -0.7105 -1.50137 0
M  V30 4418 O 405.145 -0.959626 -1.64912 0
M  V30 4419 C 402.285 -2.11861 -2.72413 0
M  V30 4420 C 401.398 -3.39471 -2.67177 0
M  V30 4421 C 400.533 -3.55035 -3.95125 0
M  V30 4422 C 399.572 -4.76418 -3.84308 0
M  V30 4423 N 398.709 -4.8876 -5.04042 0
M  V30 4424 H 403.549 -2.77314 -1.09091 0
M  V30 4425 H 401.086 -1.37315 -0.52753 0
M  V30 4426 H 403.044 -2.24786 -3.51464 0
M  V30 4427 H 401.674 -1.2392 -2.98066 0
M  V30 4428 H 400.726 -3.35139 -1.79962 0
M  V30 4429 H 402.038 -4.28646 -2.55076 0
M  V30 4430 H 401.192 -3.67653 -4.82614 0
M  V30 4431 H 399.931 -2.64002 -4.10066 0
M  V30 4432 H 398.936 -4.63827 -2.95202 0
M  V30 4433 H 400.161 -5.68863 -3.70906 0
M  V30 4434 H 398.107 -4.00652 -5.19436 0
M  V30 4435 H 398.024 -5.71945 -4.94384 0
M  V30 4436 H 399.292 -5.0574 -5.93167 0
M  V30 4437 N 403.521 0.559213 -1.47345 0
M  V30 4438 C 404.937 0.884943 -1.32819 0
M  V30 4439 C 405.137 1.98988 -0.317173 0
M  V30 4440 O 404.193 2.51031 0.272011 0
M  V30 4441 C 405.506 1.28007 -2.72093 0
M  V30 4442 C 407.054 1.39161 -2.80363 0
M  V30 4443 C 407.529 1.82031 -4.20272 0
M  V30 4444 N 409.02 1.89185 -4.22804 0
M  V30 4445 C 409.755 2.2368 -5.27973 0
M  V30 4446 N 409.251 2.56802 -6.43447 0
M  V30 4447 N 411.044 2.24436 -5.15349 0
M  V30 4448 H 403.195 -0.170304 -2.11716 0
M  V30 4449 H 405.458 -0.0135247 -0.947904 0
M  V30 4450 H 405.164 0.542027 -3.47498 0
M  V30 4451 H 405.038 2.23665 -3.03733 0
M  V30 4452 H 407.425 2.12048 -2.05231 0
M  V30 4453 H 407.506 0.41696 -2.52379 0
M  V30 4454 H 407.15 1.09715 -4.95908 0
M  V30 4455 H 407.08 2.80495 -4.45679 0
M  V30 4456 H 409.571 1.65982 -3.39497 0
M  V30 4457 H 409.884 2.82144 -7.19454 0
M  V30 4458 H 408.229 2.54387 -6.46771 0
M  V30 4459 H 411.42 1.97998 -4.24163 0
M  V30 4460 H 411.593 2.50989 -5.97418 0
M  V30 4461 N 404.999 1.35443 0.805782 0
M  V30 4462 C 406.248 1.28097 1.55801 0
M  V30 4463 C 406.561 -0.142428 1.95081 0
M  V30 4464 O 407.767 -0.33817 2.69386 0
M  V30 4465 C 406.223 2.24653 2.81174 0
M  V30 4466 C 405.831 3.72342 2.49129 0
M  V30 4467 C 407.575 2.2625 3.59181 0
M  V30 4468 C 405.482 4.60719 3.70799 0
M  V30 4469 H 404.412 0.475937 0.584808 0
M  V30 4470 H 407.063 1.60712 0.885661 0
M  V30 4471 H 405.445 1.85011 3.50124 0
M  V30 4472 H 406.619 4.20624 1.88181 0
M  V30 4473 H 404.934 3.73361 1.84366 0
M  V30 4474 H 407.531 2.89495 4.49552 0
M  V30 4475 H 407.874 1.26647 3.96568 0
M  V30 4476 H 408.407 2.64426 2.97193 0
M  V30 4477 H 405.146 5.61324 3.3852 0
M  V30 4478 H 404.666 4.17163 4.3097 0
M  V30 4479 H 406.345 4.76182 4.38018 0
M  V30 4480 N 406.477 -1.02803 1.19454 0
M  V30 4481 C 407.702 -1.80378 1.02364 0
M  V30 4482 C 408.127 -1.83282 -0.423007 0
M  V30 4483 O 407.485 -1.25945 -1.30413 0
M  V30 4484 C 407.533 -3.23248 1.59821 0
M  V30 4485 O 406.637 -4.04 0.828105 0
M  V30 4486 H 405.978 -0.556799 0.361761 0
M  V30 4487 H 408.508 -1.29385 1.58495 0
M  V30 4488 H 408.518 -3.73994 1.63073 0
M  V30 4489 H 407.193 -3.2045 2.65113 0
M  V30 4490 H 405.77 -3.62635 0.86891 0
M  V30 4491 N 407.956 -0.998596 -1.21925 0
M  V30 4492 C 408.919 -0.558679 -2.22287 0
M  V30 4493 C 409.919 0.361525 -1.56683 0
M  V30 4494 O 411.109 0.152695 -1.73529 0
M  V30 4495 C 408.241 0.18661 -3.40389 0
M  V30 4496 H 409.434 -1.4463 -2.62721 0
M  V30 4497 H 406.987 -0.786413 -1.35075 0
M  V30 4498 H 407.722 1.08996 -3.05435 0
M  V30 4499 H 407.507 -0.474188 -3.89222 0
M  V30 4500 H 408.997 0.482367 -4.14805 0
M  V30 4501 N 409.434 1.37368 -0.772513 0
M  V30 4502 C 410.381 2.30262 -0.157488 0
M  V30 4503 C 411.351 1.51137 0.688965 0
M  V30 4504 O 412.536 1.79704 0.641168 0
M  V30 4505 C 409.676 3.37611 0.715045 0
M  V30 4506 C 408.789 4.31746 -0.148098 0
M  V30 4507 C 407.924 5.26171 0.729213 0
M  V30 4508 C 406.963 6.11948 -0.136418 0
M  V30 4509 N 406.1 6.98613 0.698914 0
M  V30 4510 H 410.94 2.82277 -0.955179 0
M  V30 4511 H 408.477 1.38957 -0.482631 0
M  V30 4512 H 410.435 3.98479 1.23575 0
M  V30 4513 H 409.065 2.86959 1.47833 0
M  V30 4514 H 408.117 3.72178 -0.786613 0
M  V30 4515 H 409.429 4.92084 -0.81579 0
M  V30 4516 H 408.583 5.92247 1.31637 0
M  V30 4517 H 407.322 4.66246 1.43059 0
M  V30 4518 H 406.327 5.4485 -0.736102 0
M  V30 4519 H 407.552 6.73945 -0.835134 0
M  V30 4520 H 405.498 6.41215 1.38489 0
M  V30 4521 H 405.415 7.55948 0.0885358 0
M  V30 4522 H 406.683 7.69077 1.27044 0
M  V30 4523 N 410.912 0.523116 1.48665 0
M  V30 4524 C 411.875 -0.232592 2.28017 0
M  V30 4525 C 412.875 -0.874021 1.34972 0
M  V30 4526 O 414.065 -0.735132 1.57929 0
M  V30 4527 C 411.197 -1.33586 3.13636 0
M  V30 4528 H 412.39 0.464008 2.96289 0
M  V30 4529 H 409.943 0.278816 1.53793 0
M  V30 4530 H 410.678 -2.06593 2.4998 0
M  V30 4531 H 410.463 -0.881125 3.82071 0
M  V30 4532 H 411.953 -1.86759 3.73511 0
M  V30 4533 N 412.39 -1.55475 0.257931 0
M  V30 4534 C 413.353 -2.20551 -0.623706 0
M  V30 4535 C 414.353 -1.17809 -1.09443 0
M  V30 4536 O 415.543 -1.42823 -0.997362 0
M  V30 4537 C 412.675 -2.85784 -1.8585 0
M  V30 4538 H 413.868 -2.99848 -0.0557743 0
M  V30 4539 H 411.421 -1.56298 0.0084422 0
M  V30 4540 H 412.156 -2.10453 -2.46739 0
M  V30 4541 H 411.941 -3.61057 -1.52907 0
M  V30 4542 H 413.431 -3.35553 -2.48584 0
M  V30 4543 N 413.868 0.0150385 -1.57593 0
M  V30 4544 C 414.798 1.01047 -2.10503 0
M  V30 4545 C 415.779 1.36816 -1.01071 0
M  V30 4546 O 416.964 1.45455 -1.28672 0
M  V30 4547 C 414.094 2.30708 -2.59598 0
M  V30 4548 C 413.048 2.09142 -3.73421 0
M  V30 4549 C 412.374 3.44685 -4.08774 0
M  V30 4550 C 413.674 1.46619 -5.01298 0
M  V30 4551 H 415.368 0.569978 -2.93925 0
M  V30 4552 H 412.914 0.272724 -1.41394 0
M  V30 4553 H 414.867 3.00687 -2.95238 0
M  V30 4554 H 413.591 2.76843 -1.73279 0
M  V30 4555 H 412.25 1.41592 -3.38153 0
M  V30 4556 H 411.898 3.88495 -3.195 0
M  V30 4557 H 411.598 3.31077 -4.8545 0
M  V30 4558 H 413.122 4.16004 -4.4696 0
M  V30 4559 H 414.536 2.06535 -5.34805 0
M  V30 4560 H 412.933 1.43544 -5.82679 0
M  V30 4561 H 414.003 0.433611 -4.82957 0
M  V30 4562 N 415.346 1.54954 0.287554 0
M  V30 4563 C 416.309 1.86076 1.33823 0
M  V30 4564 C 417.309 0.734414 1.43049 0
M  V30 4565 O 418.499 1.00266 1.42452 0
M  V30 4566 C 415.631 2.05305 2.72144 0
M  V30 4567 H 416.824 2.79984 1.07465 0
M  V30 4568 H 414.377 1.47223 0.524902 0
M  V30 4569 H 415.112 1.1373 3.03704 0
M  V30 4570 H 414.897 2.873 2.66836 0
M  V30 4571 H 416.387 2.30706 3.48087 0
M  V30 4572 N 416.824 -0.551391 1.4764 0
M  V30 4573 C 417.774 -1.65362 1.56969 0
M  V30 4574 C 418.758 -1.55098 0.428189 0
M  V30 4575 O 419.95 -1.63481 0.678441 0
M  V30 4576 C 417.079 -3.04129 1.59249 0
M  V30 4577 C 416.165 -3.19576 2.78804 0
M  V30 4578 N 416.556 -3.05067 4.03445 0
M  V30 4579 C 414.854 -3.50588 2.75688 0
M  V30 4580 C 415.555 -3.2336 4.83543 0
M  V30 4581 N 414.531 -3.4996 4.15968 0
M  V30 4582 H 418.333 -1.52722 2.51104 0
M  V30 4583 H 415.847 -0.756303 1.43714 0
M  V30 4584 H 417.844 -3.83278 1.64024 0
M  V30 4585 H 416.504 -3.17877 0.662148 0
M  V30 4586 H 417.515 -2.82273 4.34215 0
M  V30 4587 H 414.192 -3.70827 1.91817 0
M  V30 4588 H 415.582 -3.17061 5.92387 0
M  V30 4589 N 418.302 -1.35869 -0.798587 0
M  V30 4590 C 419.713 -1.26498 -1.37314 0
M  V30 4591 C 420.064 0.0991899 -1.95949 0
M  V30 4592 O 419.189 1.0004 -1.91888 0
M  V30 4593 C 419.784 -2.29054 -2.49639 0
M  V30 4594 C 418.343 -2.234 -3.02935 0
M  V30 4595 C 417.49 -2.14329 -1.75949 0
M  V30 4596 H 420.441 -1.46881 -0.600971 0
M  V30 4597 H 420.462 -1.92166 -3.28409 0
M  V30 4598 H 419.974 -3.2833 -2.06933 0
M  V30 4599 H 418.075 -1.27562 -3.50084 0
M  V30 4600 H 418.188 -3.15703 -3.60372 0
M  V30 4601 H 416.552 -1.60435 -1.9782 0
M  V30 4602 H 417.335 -3.15477 -1.35384 0
M  V30 4603 N 419.78 1.02168 -1.19998 0
M  V30 4604 C 421.027 1.75685 -1.00702 0
M  V30 4605 C 421.355 1.88947 0.461426 0
M  V30 4606 O 420.61 1.40832 1.35885 0
M  V30 4607 C 420.909 3.18081 -1.62969 0
M  V30 4608 C 420.575 3.24809 -3.12746 0
M  V30 4609 C 419.237 3.26352 -3.53621 0
M  V30 4610 C 421.589 3.23379 -4.08749 0
M  V30 4611 C 418.917 3.2413 -4.89036 0
M  V30 4612 C 421.269 3.22698 -5.44104 0
M  V30 4613 C 419.933 3.22542 -5.84399 0
M  V30 4614 H 419.203 0.642877 -0.368496 0
M  V30 4615 H 421.85 1.19865 -1.49348 0
M  V30 4616 H 420.155 3.77027 -1.06573 0
M  V30 4617 H 421.852 3.73648 -1.45561 0
M  V30 4618 H 418.442 3.2434 -2.80181 0
M  V30 4619 H 422.626 3.21361 -3.78207 0
M  V30 4620 H 417.882 3.22338 -5.19527 0
M  V30 4621 H 422.056 3.20543 -6.18244 0
M  V30 4622 H 419.683 3.20575 -6.89301 0
M  V30 4623 N 421.258 1.00505 1.21394 0
M  V30 4624 C 422.505 0.687774 1.90462 0
M  V30 4625 C 422.833 -0.78147 1.7811 0
M  V30 4626 O 422.088 -1.58208 1.1519 0
M  V30 4627 C 422.387 1.0546 3.41486 0
M  V30 4628 C 422.053 2.51812 3.74034 0
M  V30 4629 C 420.715 2.91804 3.82628 0
M  V30 4630 C 423.067 3.46614 3.8924 0
M  V30 4631 C 420.395 4.2556 4.03876 0
M  V30 4632 C 422.747 4.80044 4.11995 0
M  V30 4633 C 421.411 5.19759 4.18816 0
M  V30 4634 H 420.681 0.251674 0.696951 0
M  V30 4635 H 423.328 1.26349 1.43903 0
M  V30 4636 H 421.633 0.397133 3.89782 0
M  V30 4637 H 423.33 0.786976 3.93202 0
M  V30 4638 H 419.92 2.1982 3.67936 0
M  V30 4639 H 424.104 3.16883 3.81967 0
M  V30 4640 H 419.36 4.55901 4.07387 0
M  V30 4641 H 423.534 5.53439 4.22704 0
M  V30 4642 H 421.161 6.23418 4.35033 0
M  V30 4643 N 422.737 -1.36956 0.779787 0
M  V30 4644 C 423.669 -2.28833 0.129639 0
M  V30 4645 C 424.682 -1.4902 -0.655511 0
M  V30 4646 O 425.871 -1.71578 -0.492279 0
M  V30 4647 C 422.971 -3.2833 -0.839792 0
M  V30 4648 C 422.144 -4.3727 -0.10675 0
M  V30 4649 C 421.203 -5.16789 -0.990717 0
M  V30 4650 O 420.229 -5.67406 -0.451516 0
M  V30 4651 N 421.431 -5.32294 -2.3161 0
M  V30 4652 H 424.196 -2.85268 0.918803 0
M  V30 4653 H 421.757 -1.49019 0.632841 0
M  V30 4654 H 423.749 -3.78413 -1.43477 0
M  V30 4655 H 422.319 -2.72605 -1.52988 0
M  V30 4656 H 421.539 -3.88478 0.669216 0
M  V30 4657 H 422.827 -5.07229 0.399464 0
M  V30 4658 H 422.225 -4.92768 -2.77843 0
M  V30 4659 H 420.782 -5.85656 -2.86095 0
M  V30 4660 N 424.215 -0.530993 -1.48385 0
M  V30 4661 C 425.492 0.0671788 -1.95485 0
M  V30 4662 C 425.872 1.51191 -1.47324 0
M  V30 4663 O 425.22 2.17507 -0.700202 0
M  V30 4664 C 425.43 -0.0511206 -3.48963 0
M  V30 4665 C 426.778 0.107632 -4.24464 0
M  V30 4666 O 427.802 0.0226248 -3.56193 0
M  V30 4667 O 426.661 0.285972 -5.45751 0
M  V30 4668 H 423.755 0.0787365 -0.823243 0
M  V30 4669 H 426.301 -0.595662 -1.58902 0
M  V30 4670 H 425.073 -1.05747 -3.7674 0
M  V30 4671 H 424.696 0.650525 -3.92242 0
M  V30 4672 N 425.693 1.55336 -0.266172 0
M  V30 4673 C 426.939 1.99692 0.353681 0
M  V30 4674 C 427.272 1.1543 1.56172 0
M  V30 4675 O 426.547 0.222218 1.93226 0
M  V30 4676 C 426.83 3.52316 0.74466 0
M  V30 4677 C 426.683 4.47337 -0.470101 0
M  V30 4678 C 428.002 4.10588 1.58447 0
M  V30 4679 H 425.121 0.725961 0.12708 0
M  V30 4680 H 427.763 1.86336 -0.371333 0
M  V30 4681 H 425.913 3.63829 1.36239 0
M  V30 4682 H 427.585 4.4778 -1.10864 0
M  V30 4683 H 425.828 4.19364 -1.10978 0
M  V30 4684 H 426.499 5.51788 -0.15291 0
M  V30 4685 H 428.975 4.02297 1.06286 0
M  V30 4686 H 427.851 5.17607 1.82686 0
M  V30 4687 H 428.112 3.60253 2.56262 0
M  V30 4688 N 427.171 -0.0066808 1.57599 0
M  V30 4689 C 428.399 -0.704087 1.94551 0
M  V30 4690 C 428.814 -1.67677 0.867746 0
M  V30 4691 O 428.171 -1.8185 -0.153925 0
M  V30 4692 C 428.222 -1.44177 3.31505 0
M  V30 4693 O 427.943 -0.508097 4.35144 0
M  V30 4694 C 429.444 -2.23429 3.82876 0
M  V30 4695 H 426.664 -0.196523 0.641576 0
M  V30 4696 H 429.208 0.042453 2.04456 0
M  V30 4697 H 427.363 -2.13999 3.22929 0
M  V30 4698 H 427.777 -1.02782 5.14331 0
M  V30 4699 H 429.251 -2.70552 4.8115 0
M  V30 4700 H 429.728 -3.05818 3.15233 0
M  V30 4701 H 430.334 -1.58636 3.94607 0
M  V30 4702 N 428.649 -1.55105 -0.279332 0
M  V30 4703 C 429.596 -1.8755 -1.34513 0
M  V30 4704 C 430.566 -0.726384 -1.49375 0
M  V30 4705 O 431.751 -0.977063 -1.63884 0
M  V30 4706 C 428.891 -2.14738 -2.70151 0
M  V30 4707 C 428.004 -3.42285 -2.63562 0
M  V30 4708 C 427.139 -3.59206 -3.91337 0
M  V30 4709 C 426.178 -4.80467 -3.79233 0
M  V30 4710 N 425.315 -4.94079 -4.98829 0
M  V30 4711 H 430.155 -2.78456 -1.06143 0
M  V30 4712 H 427.692 -1.37867 -0.512936 0
M  V30 4713 H 429.65 -2.28501 -3.49061 0
M  V30 4714 H 428.28 -1.27075 -2.96735 0
M  V30 4715 H 427.332 -3.37029 -1.76397 0
M  V30 4716 H 428.644 -4.31328 -2.50515 0
M  V30 4717 H 427.798 -3.72751 -4.78687 0
M  V30 4718 H 426.537 -2.68337 -4.07243 0
M  V30 4719 H 425.542 -4.66932 -2.90266 0
M  V30 4720 H 426.767 -5.72765 -3.64852 0
M  V30 4721 H 424.713 -4.06139 -5.15158 0
M  V30 4722 H 424.63 -5.77156 -4.8829 0
M  V30 4723 H 425.898 -5.12003 -5.8777 0
M  V30 4724 N 430.127 0.543554 -1.4793 0
M  V30 4725 C 431.538 1.12561 -1.48953 0
M  V30 4726 C 431.889 1.94578 -0.251754 0
M  V30 4727 O 431.014 2.0665 0.642255 0
M  V30 4728 C 431.609 2.04801 -2.69892 0
M  V30 4729 C 430.168 2.58251 -2.73831 0
M  V30 4730 C 429.315 1.34918 -2.42265 0
M  V30 4731 H 432.266 0.32947 -1.55242 0
M  V30 4732 H 432.287 2.88886 -2.47639 0
M  V30 4733 H 431.799 1.4508 -3.59963 0
M  V30 4734 H 429.9 3.21732 -1.87934 0
M  V30 4735 H 430.013 2.98312 -3.74895 0
M  V30 4736 H 428.377 1.66046 -1.93134 0
M  V30 4737 H 429.16 0.769693 -3.3456 0
M  V30 4738 N 431.605 1.3629 0.791371 0
M  V30 4739 C 432.851 1.30605 1.55146 0
M  V30 4740 C 433.184 -0.115042 1.93859 0
M  V30 4741 O 432.459 -1.06798 1.62556 0
M  V30 4742 C 432.742 2.22692 2.82985 0
M  V30 4743 C 432.595 3.73489 2.50651 0
M  V30 4744 C 433.914 2.13588 3.84796 0
M  V30 4745 H 431.033 0.475761 0.562868 0
M  V30 4746 H 433.675 1.66825 0.909358 0
M  V30 4747 H 431.825 1.91933 3.37778 0
M  V30 4748 H 433.497 4.14758 2.01924 0
M  V30 4749 H 431.74 3.93021 1.83622 0
M  V30 4750 H 432.411 4.3333 3.41949 0
M  V30 4751 H 434.887 2.40659 3.39445 0
M  V30 4752 H 433.763 2.80195 4.71998 0
M  V30 4753 H 434.024 1.12256 4.27611 0
M  V30 4754 N 433.083 -1.0153 1.20538 0
M  V30 4755 C 434.494 -1.56598 1.01657 0
M  V30 4756 C 434.845 -1.91505 -0.426668 0
M  V30 4757 O 433.97 -1.72375 -1.30827 0
M  V30 4758 C 434.565 -2.84542 1.83905 0
M  V30 4759 C 433.124 -3.36133 1.69386 0
M  V30 4760 C 432.271 -2.09427 1.81757 0
M  V30 4761 H 435.222 -0.838974 1.34711 0
M  V30 4762 H 435.243 -3.56004 1.34319 0
M  V30 4763 H 434.755 -2.59105 2.8894 0
M  V30 4764 H 432.856 -3.66528 0.669933 0
M  V30 4765 H 432.969 -4.08248 2.50739 0
M  V30 4766 H 431.333 -2.21941 1.24957 0
M  V30 4767 H 432.116 -1.86414 2.88279 0
M  V30 4768 N 434.561 -1.01147 -1.20859 0
M  V30 4769 C 435.511 -0.548247 -2.2131 0
M  V30 4770 C 436.495 0.393646 -1.5601 0
M  V30 4771 O 437.687 0.217445 -1.75659 0
M  V30 4772 C 434.816 0.117252 -3.431 0
M  V30 4773 C 433.902 -0.846043 -4.15575 0
M  V30 4774 N 434.293 -2.00149 -4.64515 0
M  V30 4775 C 432.591 -0.665783 -4.41003 0
M  V30 4776 C 433.292 -2.60764 -5.19978 0
M  V30 4777 N 432.268 -1.88868 -5.09735 0
M  V30 4778 H 436.07 -1.42921 -2.56809 0
M  V30 4779 H 433.584 -0.876142 -1.36739 0
M  V30 4780 H 435.581 0.46662 -4.1428 0
M  V30 4781 H 434.241 0.994115 -3.09107 0
M  V30 4782 H 435.252 -2.38162 -4.5989 0
M  V30 4783 H 431.929 0.163456 -4.1718 0
M  V30 4784 H 433.319 -3.58519 -5.68255 0
M  V30 4785 N 436.039 1.36541 -0.78704 0
M  V30 4786 C 436.969 2.32659 -0.197992 0
M  V30 4787 C 437.95 1.56533 0.665697 0
M  V30 4788 O 439.135 1.84698 0.60001 0
M  V30 4789 C 436.265 3.40778 0.669901 0
M  V30 4790 C 435.219 4.27897 -0.0937039 0
M  V30 4791 C 434.545 5.27163 0.894629 0
M  V30 4792 C 435.845 5.06334 -1.28154 0
M  V30 4793 H 437.539 2.82171 -1.00099 0
M  V30 4794 H 435.085 1.35665 -0.482793 0
M  V30 4795 H 437.038 4.07008 1.09191 0
M  V30 4796 H 435.762 2.89827 1.50558 0
M  V30 4797 H 434.421 3.6322 -0.49666 0
M  V30 4798 H 434.069 4.72486 1.72527 0
M  V30 4799 H 433.769 5.86317 0.388149 0
M  V30 4800 H 435.293 5.96266 1.31525 0
M  V30 4801 H 436.707 5.65617 -0.93541 0
M  V30 4802 H 435.104 5.74888 -1.72115 0
M  V30 4803 H 436.174 4.38114 -2.07807 0
M  V30 4804 N 437.518 0.538854 1.48102 0
M  V30 4805 C 438.934 0.19732 1.58376 0
M  V30 4806 C 439.134 -1.29971 1.5398 0
M  V30 4807 O 438.19 -2.07861 1.43352 0
M  V30 4808 C 439.503 0.807716 2.89649 0
M  V30 4809 C 441.051 0.77726 3.03196 0
M  V30 4810 C 441.526 1.36639 4.37143 0
M  V30 4811 N 443.017 1.32875 4.43732 0
M  V30 4812 C 443.752 1.7544 5.45901 0
M  V30 4813 N 443.248 2.25776 6.54979 0
M  V30 4814 N 445.041 1.66623 5.36836 0
M  V30 4815 H 437.192 1.5117 1.49202 0
M  V30 4816 H 439.455 0.629327 0.708979 0
M  V30 4817 H 439.161 1.85909 2.98548 0
M  V30 4818 H 439.035 0.289975 3.76084 0
M  V30 4819 H 441.422 -0.265374 2.93904 0
M  V30 4820 H 441.503 1.33256 2.18349 0
M  V30 4821 H 441.147 2.408 4.47189 0
M  V30 4822 H 441.077 0.786689 5.20691 0
M  V30 4823 H 443.568 0.96037 3.65493 0
M  V30 4824 H 443.881 2.56226 7.29087 0
M  V30 4825 H 442.226 2.29775 6.55918 0
M  V30 4826 H 445.417 1.27089 4.50517 0
M  V30 4827 H 445.59 2.00115 6.16326 0
M  V30 4828 N 438.996 -1.55193 0.274407 0
M  V30 4829 C 439.926 -2.25471 -0.607032 0
M  V30 4830 C 440.907 -1.24461 -1.15946 0
M  V30 4831 O 442.092 -1.53179 -1.19373 0
M  V30 4832 C 439.222 -2.97526 -1.79153 0
M  V30 4833 C 438.176 -4.05459 -1.37067 0
M  V30 4834 C 437.502 -4.65084 -2.6382 0
M  V30 4835 C 438.802 -5.19691 -0.521389 0
M  V30 4836 H 440.496 -2.99393 -0.0209343 0
M  V30 4837 H 438.042 -1.43997 -0.00862866 0
M  V30 4838 H 439.995 -3.45402 -2.41404 0
M  V30 4839 H 438.719 -2.21138 -2.40344 0
M  V30 4840 H 437.378 -3.58393 -0.771355 0
M  V30 4841 H 437.026 -3.85365 -3.23268 0
M  V30 4842 H 436.726 -5.37961 -2.36372 0
M  V30 4843 H 438.25 -5.15708 -3.26921 0
M  V30 4844 H 439.664 -5.63623 -1.04889 0
M  V30 4845 H 438.061 -5.99126 -0.341825 0
M  V30 4846 H 439.131 -4.82713 0.46 0
M  V30 4847 O 440.513 -0.140013 -1.60892 0
M  V30 4848 H 441.204 0.455152 -1.88277 0
M  V30 END ATOM
M  V30 BEGIN BOND
M  V30 END BOND
M  V30 END CTAB
M  END
$$$$
