drugbank_target|Q04230 TrwB (DB04395)
 OpenBabel12092120273D

  0  0  0     0  0            999 V3000
M  V30 BEGIN CTAB
M  V30 COUNTS 8024 8106 0 0 0
M  V30 BEGIN ATOM
M  V30 1 H -0.908 1.98254 -0.117106 0
M  V30 2 N 0 1.576 0 0
M  V30 3 C 0.933 2.03868 1.02534 0
M  V30 4 C 1.911 0.928543 1.3348 0
M  V30 5 O 3.095 1.19667 1.45644 0
M  V30 6 C 0.222 2.43627 2.35294 0
M  V30 7 C -0.732 3.65373 2.2001 0
M  V30 8 S 0.101 5.13292 1.52614 0
M  V30 9 C 1.257 5.56322 2.86805 0
M  V30 10 H 1.49 2.90518 0.631377 0
M  V30 11 H -0.977 1.52953 0.210867 0
M  V30 12 H 0.981 2.67203 3.11629 0
M  V30 13 H -0.358 1.57376 2.7183 0
M  V30 14 H -1.165 3.90944 3.18086 0
M  V30 15 H -1.563 3.418 1.51819 0
M  V30 16 H 0.729 5.58782 3.83104 0
M  V30 17 H 1.672 6.56266 2.65933 0
M  V30 18 H 2.08 4.83886 2.90714 0
M  V30 19 N 1.4781 -0.272755 1.55222 0
M  V30 20 C 2.4281 -1.33946 1.84506 0
M  V30 21 C 3.4121 -1.44682 0.70399 0
M  V30 22 O 4.6041 -1.48358 0.965338 0
M  V30 23 C 1.7331 -2.69968 2.12067 0
M  V30 24 C 0.8191 -2.63341 3.32434 0
M  V30 25 N 1.2101 -2.26335 4.52334 0
M  V30 26 C -0.4919 -2.94402 3.35028 0
M  V30 27 C 0.2091 -2.29705 5.34425 0
M  V30 28 N -0.8149 -2.68188 4.72838 0
M  V30 29 H 2.9871 -1.04343 2.74754 0
M  V30 30 H 0.5011 -0.481389 1.55101 0
M  V30 31 H 2.4981 -3.46916 2.31202 0
M  V30 32 H 1.1581 -3.00459 1.23103 0
M  V30 33 H 2.1691 -1.98309 4.78429 0
M  V30 34 H -1.1539 -3.29603 2.56257 0
M  V30 35 H 0.2361 -2.03653 6.40293 0
M  V30 36 N 2.9562 -1.48159 -0.537278 0
M  V30 37 C 4.3672 -1.49429 -1.11928 0
M  V30 38 C 4.7182 -0.26 -1.9447 0
M  V30 39 O 3.8432 0.633489 -2.0692 0
M  V30 40 C 4.4382 -2.70758 -2.03656 0
M  V30 41 C 2.9972 -2.74923 -2.57088 0
M  V30 42 C 2.1442 -2.42835 -1.3389 0
M  V30 43 H 5.0952 -1.55381 -0.322886 0
M  V30 44 H 5.1162 -2.48861 -2.87834 0
M  V30 45 H 4.6282 -3.60575 -1.43553 0
M  V30 46 H 2.7292 -1.89296 -3.20933 0
M  V30 47 H 2.8422 -3.76157 -2.9672 0
M  V30 48 H 1.2062 -1.93836 -1.65226 0
M  V30 49 H 1.9892 -3.34884 -0.755504 0
M  V30 50 N 4.4343 0.785586 -1.36625 0
M  V30 51 C 5.7113 1.53198 -1.21613 0
M  V30 52 C 6.0913 2.10187 0.196113 0
M  V30 53 O 5.4393 1.94318 1.20219 0
M  V30 54 C 5.6493 2.62388 -2.30116 0
M  V30 55 C 6.9973 3.30167 -2.66974 0
M  V30 56 O 8.0213 2.72674 -2.29188 0
M  V30 57 O 6.8803 4.34077 -3.32023 0
M  V30 58 H 3.9743 0.677865 -0.473738 0
M  V30 59 H 6.5203 0.823739 -1.48367 0
M  V30 60 H 5.2923 2.18299 -3.24748 0
M  V30 61 H 4.9153 3.40827 -2.0475 0
M  V30 62 N 5.9124 1.20967 1.01018 0
M  V30 63 C 7.1894 0.93264 1.71934 0
M  V30 64 C 7.5694 -0.55692 2.03621 0
M  V30 65 O 6.9174 -1.52035 1.7058 0
M  V30 66 C 7.1274 1.81233 2.98254 0
M  V30 67 C 8.4754 2.05804 3.71389 0
M  V30 68 O 9.4994 1.78539 3.08225 0
M  V30 69 O 8.3584 2.51888 4.84989 0
M  V30 70 H 5.4524 0.349272 0.749625 0
M  V30 71 H 7.9984 1.31871 1.06808 0
M  V30 72 H 6.7704 2.82067 2.71208 0
M  V30 73 H 6.3934 1.42674 3.7112 0
M  V30 74 N 7.3905 -1.2043 1.01659 0
M  V30 75 C 8.3225 -2.22626 0.544988 0
M  V30 76 C 9.3355 -1.58479 -0.372609 0
M  V30 77 O 10.5245 -1.77679 -0.170958 0
M  V30 78 C 7.6245 -3.38141 -0.22663 0
M  V30 79 C 6.7975 -4.31877 0.692876 0
M  V30 80 C 5.8565 -5.26191 -0.0311616 0
M  V30 81 O 4.8825 -5.6612 0.591343 0
M  V30 82 N 6.0845 -5.65618 -1.30601 0
M  V30 83 H 8.8495 -2.63716 1.42388 0
M  V30 84 H 6.4105 -1.34971 0.894116 0
M  V30 85 H 8.4025 -3.98239 -0.72024 0
M  V30 86 H 6.9725 -2.95943 -1.00681 0
M  V30 87 H 6.1925 -3.69746 1.36679 0
M  V30 88 H 7.4805 -4.91426 1.31824 0
M  V30 89 H 6.8785 -5.3519 -1.83269 0
M  V30 90 H 5.4355 -6.28025 -1.74435 0
M  V30 91 N 8.8686 -0.792821 -1.36206 0
M  V30 92 C 10.2846 -0.474903 -1.52371 0
M  V30 93 C 10.4846 1.00622 -1.74578 0
M  V30 94 O 9.5406 1.79162 -1.77924 0
M  V30 95 C 10.8536 -1.3083 -2.70747 0
M  V30 96 C 12.4016 -1.30234 -2.84619 0
M  V30 97 C 12.8766 -2.11956 -4.06004 0
M  V30 98 N 14.3676 -2.09419 -4.13156 0
M  V30 99 C 15.1026 -2.69419 -5.06163 0
M  V30 100 N 14.5986 -3.3829 -6.04592 0
M  V30 101 N 16.3916 -2.59134 -4.98804 0
M  V30 102 H 8.5426 -1.75222 -1.20046 0
M  V30 103 H 10.8056 -0.745024 -0.586211 0
M  V30 104 H 10.5116 -2.35881 -2.6087 0
M  V30 105 H 10.3856 -0.95196 -3.6499 0
M  V30 106 H 12.7726 -0.259748 -2.93955 0
M  V30 107 H 12.8536 -1.69847 -1.91274 0
M  V30 108 H 12.4976 -3.16248 -3.97429 0
M  V30 109 H 12.4276 -1.69711 -4.98503 0
M  V30 110 H 14.9186 -1.59297 -3.42685 0
M  V30 111 H 15.2316 -3.81394 -6.7213 0
M  V30 112 H 13.5766 -3.42393 -6.04807 0
M  V30 113 H 16.7676 -2.04927 -4.20859 0
M  V30 114 H 16.9406 -3.06185 -5.711 0
M  V30 115 N 10.3467 1.47872 -0.545128 0
M  V30 116 C 11.2937 2.29849 0.2093 0
M  V30 117 C 12.2637 1.38313 0.919707 0
M  V30 118 O 13.4487 1.67277 0.917772 0
M  V30 119 C 10.5887 3.22019 1.24088 0
M  V30 120 C 9.7017 4.2864 0.537778 0
M  V30 121 C 8.8367 5.07973 1.5536 0
M  V30 122 C 7.8757 6.06381 0.8348 0
M  V30 123 N 7.0127 6.78717 1.79688 0
M  V30 124 H 11.8527 2.93845 -0.49591 0
M  V30 125 H 9.3897 1.44848 -0.256389 0
M  V30 126 H 11.3477 3.73868 1.85144 0
M  V30 127 H 9.9777 2.59914 1.91428 0
M  V30 128 H 9.0297 3.7994 -0.187046 0
M  V30 129 H 10.3417 4.98793 -0.0258907 0
M  V30 130 H 9.4957 5.63912 2.23803 0
M  V30 131 H 8.2347 4.37693 2.15118 0
M  V30 132 H 7.2397 5.49631 0.136388 0
M  V30 133 H 8.4647 6.78665 0.24313 0
M  V30 134 H 6.4107 6.11177 2.38326 0
M  V30 135 H 6.3277 7.44998 1.28505 0
M  V30 136 H 7.5957 7.39237 2.47282 0
M  V30 137 N 11.8248 0.280983 1.55075 0
M  V30 138 C 13.0708 -0.33461 2.00021 0
M  V30 139 C 13.4038 -1.55063 1.16915 0
M  V30 140 O 12.6788 -1.93006 0.240646 0
M  V30 141 C 12.9618 -0.711007 3.53011 0
M  V30 142 C 12.8148 0.512766 4.46868 0
M  V30 143 C 14.1338 -1.54522 4.12081 0
M  V30 144 H 11.2528 -0.120147 0.727141 0
M  V30 145 H 13.8948 0.389097 1.85973 0
M  V30 146 H 12.0448 -1.32761 3.65112 0
M  V30 147 H 13.7168 1.15131 4.46702 0
M  V30 148 H 11.9598 1.14975 4.18286 0
M  V30 149 H 12.6308 0.205556 5.51617 0
M  V30 150 H 15.1068 -1.02442 4.03293 0
M  V30 151 H 13.9828 -1.77739 5.19327 0
M  V30 152 H 14.2438 -2.52813 3.62682 0
M  V30 153 N 13.3029 -1.57598 0.00835791 0
M  V30 154 C 14.5279 -1.95617 -0.689103 0
M  V30 155 C 14.9529 -0.883753 -1.66046 0
M  V30 156 O 14.3109 0.157352 -1.80616 0
M  V30 157 C 14.3589 -3.32736 -1.38994 0
M  V30 158 O 13.4629 -3.27631 -2.50463 0
M  V30 159 H 12.8039 -0.638379 -0.182668 0
M  V30 160 H 15.3339 -2.045 0.064036 0
M  V30 161 H 15.3439 -3.68494 -1.75147 0
M  V30 162 H 14.0189 -4.1034 -0.677778 0
M  V30 163 H 12.5959 -3.03561 -2.16576 0
M  V30 164 N 14.781 0.264519 -1.55364 0
M  V30 165 C 15.744 1.31046 -1.88042 0
M  V30 166 C 16.744 1.41943 -0.755569 0
M  V30 167 O 17.934 1.40947 -1.02369 0
M  V30 168 C 15.066 2.69067 -2.09323 0
M  V30 169 H 16.259 1.03297 -2.81549 0
M  V30 170 H 13.812 0.502989 -1.47986 0
M  V30 171 H 14.547 3.01982 -1.18226 0
M  V30 172 H 14.332 2.62542 -2.91229 0
M  V30 173 H 15.822 3.44623 -2.35848 0
M  V30 174 N 16.2591 1.48442 0.529413 0
M  V30 175 C 17.5071 1.56179 1.28267 0
M  V30 176 C 17.8281 0.237721 1.93546 0
M  V30 177 O 17.0981 -0.740779 1.81354 0
M  V30 178 H 15.6781 0.575367 0.476405 0
M  V30 179 H 18.3401 1.84909 0.61602 0
M  V30 180 H 17.4361 2.34312 2.06165 0
M  V30 181 N 17.7372 -0.778329 1.37039 0
M  V30 182 C 18.9862 -1.53189 1.3121 0
M  V30 183 C 19.2992 -1.95328 -0.103095 0
M  V30 184 O 20.5052 -2.70012 -0.283826 0
M  V30 185 C 18.9612 -2.76591 2.30272 0
M  V30 186 C 18.5692 -2.41577 3.77286 0
M  V30 187 C 20.3132 -3.5455 2.33441 0
M  V30 188 C 18.2202 -3.61441 4.68096 0
M  V30 189 H 17.1502 -0.5751 0.487622 0
M  V30 190 H 19.8012 -0.853101 1.62464 0
M  V30 191 H 18.1832 -3.46326 1.92027 0
M  V30 192 H 19.3572 -1.79668 4.2433 0
M  V30 193 H 17.6722 -1.76806 3.76999 0
M  V30 194 H 20.2692 -4.43628 2.98493 0
M  V30 195 H 20.6122 -3.93936 1.34611 0
M  V30 196 H 21.1452 -2.91805 2.7036 0
M  V30 197 H 17.8842 -3.27142 5.6803 0
M  V30 198 H 17.4042 -4.22478 4.25761 0
M  V30 199 H 19.0832 -4.28335 4.8491 0
M  V30 200 N 19.2153 -1.21501 -1.00376 0
M  V30 201 C 20.4613 -1.03452 -1.74429 0
M  V30 202 C 20.7943 0.430764 -1.89362 0
M  V30 203 O 20.0693 1.31962 -1.42886 0
M  V30 204 C 20.3523 -1.73375 -3.15615 0
M  V30 205 C 20.2053 -3.27431 -3.08397 0
M  V30 206 C 21.5243 -1.47732 -4.14564 0
M  V30 207 H 18.6433 -0.377226 -0.633143 0
M  V30 208 H 21.2853 -1.49693 -1.17013 0
M  V30 209 H 19.4353 -1.34064 -3.64636 0
M  V30 210 H 21.1073 -3.76119 -2.67081 0
M  V30 211 H 19.3503 -3.5767 -2.45468 0
M  V30 212 H 20.0213 -3.71524 -4.08258 0
M  V30 213 H 22.4973 -1.8186 -3.74254 0
M  V30 214 H 21.3733 -1.99169 -5.11491 0
M  V30 215 H 21.6343 -0.407589 -4.40217 0
M  V30 216 N 20.6934 1.19889 -1.02296 0
M  V30 217 C 21.9424 1.88743 -0.711257 0
M  V30 218 C 22.2554 1.80112 0.762817 0
M  V30 219 O 23.4614 2.44161 1.18733 0
M  V30 220 C 21.9174 3.38525 -1.22185 0
M  V30 221 C 21.5254 3.55727 -2.72328 0
M  V30 222 C 23.2694 4.12893 -0.985864 0
M  V30 223 C 21.1764 4.99369 -3.16835 0
M  V30 224 H 20.1064 0.706885 -0.262353 0
M  V30 225 H 22.7574 1.35586 -1.23648 0
M  V30 226 H 21.1394 3.91044 -0.624571 0
M  V30 227 H 22.3134 3.13564 -3.3766 0
M  V30 228 H 20.6284 2.94739 -2.9414 0
M  V30 229 H 23.2254 5.18813 -1.29374 0
M  V30 230 H 23.5684 4.16228 0.0775055 0
M  V30 231 H 24.1014 3.66494 -1.54684 0
M  V30 232 H 20.8404 5.01193 -4.22476 0
M  V30 233 H 20.3604 5.42317 -2.56228 0
M  V30 234 H 22.0394 5.67988 -3.09837 0
M  V30 235 N 22.1715 0.800033 1.35784 0
M  V30 236 C 23.4175 0.377901 1.99248 0
M  V30 237 C 23.7505 -1.05052 1.63333 0
M  V30 238 O 23.0255 -1.72768 0.893385 0
M  V30 239 C 23.3085 0.553922 3.55814 0
M  V30 240 C 23.1615 2.0268 4.01548 0
M  V30 241 C 24.4805 -0.0244802 4.40093 0
M  V30 242 H 21.5995 0.138782 0.723815 0
M  V30 243 H 24.2415 1.00835 1.61035 0
M  V30 244 H 22.3915 0.0172398 3.88496 0
M  V30 245 H 24.0635 2.62536 3.79305 0
M  V30 246 H 22.3065 2.5256 3.52698 0
M  V30 247 H 22.9775 2.10087 5.10458 0
M  V30 248 H 25.4535 0.433775 4.13833 0
M  V30 249 H 24.3295 0.128637 5.48749 0
M  V30 250 H 24.5905 -1.11758 4.27741 0
M  V30 251 N 23.6496 -1.47581 0.552962 0
M  V30 252 C 24.5796 -2.32762 -0.185451 0
M  V30 253 C 25.5606 -1.43527 -0.912905 0
M  V30 254 O 26.7456 -1.72388 -0.894201 0
M  V30 255 C 23.8756 -3.25219 -1.21859 0
M  V30 256 C 22.8296 -4.23661 -0.607864 0
M  V30 257 C 22.1556 -5.05413 -1.74533 0
M  V30 258 C 23.4556 -5.20481 0.435582 0
M  V30 259 H 25.1496 -2.94749 0.525684 0
M  V30 260 H 22.6956 -1.41738 0.254251 0
M  V30 261 H 24.6486 -3.8365 -1.7433 0
M  V30 262 H 23.3726 -2.61279 -1.95961 0
M  V30 263 H 22.0316 -3.66451 -0.104489 0
M  V30 264 H 21.6796 -4.3788 -2.47529 0
M  V30 265 H 21.3796 -5.72059 -1.34249 0
M  V30 266 H 22.9036 -5.66701 -2.27338 0
M  V30 267 H 24.3176 -5.733 -0.00290157 0
M  V30 268 H 22.7146 -5.95305 0.757067 0
M  V30 269 H 23.7846 -4.66217 1.33303 0
M  V30 270 N 25.1277 -0.289203 -1.54924 0
M  V30 271 C 26.5387 0.205791 -1.85562 0
M  V30 272 C 26.8897 1.54351 -1.2112 0
M  V30 273 O 26.0147 2.10435 -0.504601 0
M  V30 274 C 26.6097 0.380177 -3.3666 0
M  V30 275 C 25.1687 0.819395 -3.67373 0
M  V30 276 C 24.3157 -0.079159 -2.77187 0
M  V30 277 H 27.2667 -0.510577 -1.50262 0
M  V30 278 H 27.2877 1.21659 -3.60526 0
M  V30 279 H 26.7997 -0.593589 -3.83534 0
M  V30 280 H 24.9007 1.80413 -3.26009 0
M  V30 281 H 25.0137 0.646957 -4.74712 0
M  V30 282 H 23.3777 0.439565 -2.50878 0
M  V30 283 H 24.1607 -1.04906 -3.26878 0
M  V30 284 N 26.6058 1.57591 -0.0167156 0
M  V30 285 C 27.5358 2.12496 0.967858 0
M  V30 286 C 28.5168 1.03807 1.34752 0
M  V30 287 O 29.7018 1.31577 1.42833 0
M  V30 288 C 26.8318 2.64194 2.25431 0
M  V30 289 C 25.7858 3.77559 2.01576 0
M  V30 290 C 25.1118 4.15636 3.36379 0
M  V30 291 C 26.4118 5.04151 1.36489 0
M  V30 292 H 28.1058 2.95013 0.510643 0
M  V30 293 H 25.6518 1.41915 0.244181 0
M  V30 294 H 27.6048 3.01236 2.94678 0
M  V30 295 H 26.3288 1.78821 2.73296 0
M  V30 296 H 24.9878 3.40937 1.34751 0
M  V30 297 H 24.6358 3.27263 3.81979 0
M  V30 298 H 24.3358 4.92022 3.21229 0
M  V30 299 H 25.8598 4.5525 4.06915 0
M  V30 300 H 27.2738 5.38857 1.95718 0
M  V30 301 H 25.6708 5.85453 1.31776 0
M  V30 302 H 26.7408 4.83733 0.336219 0
M  V30 303 N 28.0839 -0.256276 1.55502 0
M  V30 304 C 29.3329 -0.983486 1.76098 0
M  V30 305 C 29.6459 -1.86837 0.578896 0
M  V30 306 O 30.8519 -2.63163 0.667648 0
M  V30 307 C 29.3079 -1.79868 3.1173 0
M  V30 308 C 28.9159 -0.961648 4.37557 0
M  V30 309 C 30.6599 -2.51919 3.41668 0
M  V30 310 C 28.5669 -1.77219 5.64223 0
M  V30 311 H 27.4969 -0.370936 0.656447 0
M  V30 312 H 30.1479 -0.238492 1.81944 0
M  V30 313 H 28.5299 -2.58527 2.99966 0
M  V30 314 H 29.7039 -0.218048 4.60284 0
M  V30 315 H 28.0189 -0.354913 4.14885 0
M  V30 316 H 30.6159 -3.12998 4.33516 0
M  V30 317 H 30.9589 -3.23059 2.62562 0
M  V30 318 H 31.4919 -1.80278 3.54605 0
M  V30 319 H 28.2309 -1.10471 6.46124 0
M  V30 320 H 27.7509 -2.49132 5.45613 0
M  V30 321 H 29.4299 -2.34169 6.03137 0
M  V30 322 N 29.562 -1.4872 -0.521534 0
M  V30 323 C 30.809 -1.57168 -1.27689 0
M  V30 324 C 31.137 -0.249275 -1.92896 0
M  V30 325 O 30.392 0.761162 -1.80291 0
M  V30 326 C 30.691 -2.66497 -2.38148 0
M  V30 327 C 30.357 -4.08664 -1.90538 0
M  V30 328 C 29.019 -4.47357 -1.77271 0
M  V30 329 C 31.371 -4.97724 -1.54663 0
M  V30 330 C 28.699 -5.72905 -1.26478 0
M  V30 331 C 31.051 -6.2377 -1.05329 0
M  V30 332 C 29.715 -6.61311 -0.906861 0
M  V30 333 H 28.985 -0.575117 -0.467249 0
M  V30 334 H 31.632 -1.82472 -0.581051 0
M  V30 335 H 29.937 -2.35085 -3.13437 0
M  V30 336 H 31.634 -2.70246 -2.96257 0
M  V30 337 H 28.224 -3.78111 -2.01816 0
M  V30 338 H 32.408 -4.68501 -1.63768 0
M  V30 339 H 27.664 -6.00709 -1.13835 0
M  V30 340 H 31.838 -6.9217 -0.76644 0
M  V30 341 H 29.465 -7.5848 -0.511083 0
M  V30 342 N 31.0401 0.771051 -1.3745 0
M  V30 343 C 32.2861 1.53109 -1.339 0
M  V30 344 C 32.6411 1.9225 0.0758401 0
M  V30 345 O 31.9341 1.61264 1.03463 0
M  V30 346 C 32.1281 2.80676 -2.2126 0
M  V30 347 C 31.9571 2.54003 -3.71096 0
M  V30 348 C 30.7271 2.48097 -4.402 0
M  V30 349 C 32.9251 2.21953 -4.63941 0
M  V30 350 N 30.9071 2.13515 -5.75573 0
M  V30 351 C 32.2781 1.97516 -5.87697 0
M  V30 352 C 34.3331 2.08114 -4.5232 0
M  V30 353 C 33.0361 1.60638 -7.01133 0
M  V30 354 C 35.0621 1.72636 -5.65642 0
M  V30 355 C 34.4241 1.4906 -6.88448 0
M  V30 356 H 30.5231 0.56055 -0.54526 0
M  V30 357 H 33.1071 0.899472 -1.72678 0
M  V30 358 H 31.2781 3.41674 -1.84698 0
M  V30 359 H 33.0101 3.46578 -2.08963 0
M  V30 360 H 29.7651 2.63974 -3.93211 0
M  V30 361 H 30.1891 1.98919 -6.47117 0
M  V30 362 H 34.8311 2.25024 -3.57944 0
M  V30 363 H 32.5491 1.42467 -7.95443 0
M  V30 364 H 36.1351 1.62586 -5.58621 0
M  V30 365 H 35.0151 1.22014 -7.7465 0
M  V30 366 N 32.5182 1.22032 0.997298 0
M  V30 367 C 33.7672 1.03637 1.73038 0
M  V30 368 C 34.0802 -0.429475 1.90827 0
M  V30 369 O 35.2862 -0.732995 2.61418 0
M  V30 370 C 33.7422 1.80582 3.11317 0
M  V30 371 C 33.3502 3.31387 3.01474 0
M  V30 372 C 35.0942 1.70621 3.88701 0
M  V30 373 C 33.0012 4.00791 4.3488 0
M  V30 374 H 31.9312 0.384179 0.648785 0
M  V30 375 H 34.5822 1.4584 1.11368 0
M  V30 376 H 32.9642 1.31175 3.73643 0
M  V30 377 H 34.1382 3.88155 2.4834 0
M  V30 378 H 32.4532 3.41976 2.37575 0
M  V30 379 H 35.0502 2.19799 4.87434 0
M  V30 380 H 35.3932 0.665823 4.10941 0
M  V30 381 H 35.9262 2.17547 3.33044 0
M  V30 382 H 32.6652 5.05064 4.1784 0
M  V30 383 H 32.1852 3.48811 4.87945 0
M  V30 384 H 33.8642 4.06139 5.03647 0
M  V30 385 N 33.9963 -1.19345 1.0293 0
M  V30 386 C 35.2243 -1.92997 0.745644 0
M  V30 387 C 35.6393 -1.75519 -0.695589 0
M  V30 388 O 34.9963 -1.07737 -1.47306 0
M  V30 389 C 35.0473 -3.44741 1.08792 0
M  V30 390 O 34.7683 -3.61658 2.47256 0
M  V30 391 C 36.2693 -4.35515 0.827129 0
M  V30 392 H 33.4893 -0.613042 0.272801 0
M  V30 393 H 36.0333 -1.51473 1.3739 0
M  V30 394 H 34.1883 -3.84097 0.504832 0
M  V30 395 H 34.6023 -4.55514 2.60015 0
M  V30 396 H 36.0763 -5.40589 1.11658 0
M  V30 397 H 36.5533 -4.38552 -0.238436 0
M  V30 398 H 37.1593 -4.01841 1.39297 0
M  V30 399 N 35.4744 -0.807222 -1.35358 0
M  V30 400 C 36.4374 -0.223665 -2.28106 0
M  V30 401 C 37.4374 0.589354 -1.4961 0
M  V30 402 O 38.6274 0.407745 -1.69361 0
M  V30 403 C 35.7594 0.688149 -3.33882 0
M  V30 404 H 36.9524 -1.04169 -2.81227 0
M  V30 405 H 34.5054 -0.577921 -1.45223 0
M  V30 406 H 35.2404 1.52984 -2.85948 0
M  V30 407 H 35.0254 0.10687 -3.91954 0
M  V30 408 H 36.5154 1.09075 -4.03104 0
M  V30 409 N 36.9525 1.47285 -0.560781 0
M  V30 410 C 38.1985 2.02764 -0.0381184 0
M  V30 411 C 38.5315 1.43384 1.30976 0
M  V30 412 O 37.8065 0.590733 1.85312 0
M  V30 413 C 38.0895 3.60064 0.0511427 0
M  V30 414 C 37.9425 4.2987 -1.32408 0
M  V30 415 C 39.2615 4.33439 0.762795 0
M  V30 416 H 36.3805 0.736841 -0.0153264 0
M  V30 417 H 39.0225 1.75675 -0.723759 0
M  V30 418 H 37.1725 3.83274 0.635065 0
M  V30 419 H 38.8445 4.17989 -1.95148 0
M  V30 420 H 37.0875 3.90085 -1.8978 0
M  V30 421 H 37.7585 5.38478 -1.21431 0
M  V30 422 H 40.2345 4.15243 0.266965 0
M  V30 423 H 39.1105 5.43124 0.794221 0
M  V30 424 H 39.3715 4.02915 1.81966 0
M  V30 425 N 38.4306 0.297415 1.54768 0
M  V30 426 C 39.3626 -0.613881 2.20826 0
M  V30 427 C 40.3756 -1.10032 1.19987 0
M  V30 428 O 41.5646 -1.01839 1.46598 0
M  V30 429 C 38.6646 -1.852 2.83821 0
M  V30 430 C 37.8376 -1.50865 4.10559 0
M  V30 431 C 36.8966 -2.60154 4.57391 0
M  V30 432 O 35.9226 -2.25398 5.2267 0
M  V30 433 N 37.1246 -3.90629 4.29406 0
M  V30 434 H 39.8896 -0.048389 2.99661 0
M  V30 435 H 37.4506 0.11946 1.61459 0
M  V30 436 H 39.4426 -2.57652 3.12086 0
M  V30 437 H 38.0126 -2.32597 2.08847 0
M  V30 438 H 37.2326 -0.616925 3.89343 0
M  V30 439 H 38.5206 -1.25458 4.9309 0
M  V30 440 H 37.9186 -4.21677 3.77101 0
M  V30 441 H 36.4756 -4.59391 4.62388 0
M  V30 442 N 39.9087 -1.5758 0.0250728 0
M  V30 443 C 40.8557 -2.09973 -0.958129 0
M  V30 444 C 41.8257 -1.00085 -1.3256 0
M  V30 445 O 43.0107 -1.27481 -1.41962 0
M  V30 446 C 40.1507 -2.62812 -2.2366 0
M  V30 447 C 39.2637 -3.86693 -1.92594 0
M  V30 448 C 38.3987 -4.27941 -3.14707 0
M  V30 449 C 37.4377 -5.44591 -2.79442 0
M  V30 450 N 36.5747 -5.81014 -3.94167 0
M  V30 451 H 41.4147 -2.937 -0.504428 0
M  V30 452 H 38.9517 -1.45172 -0.237392 0
M  V30 453 H 40.9097 -2.91536 -2.98434 0
M  V30 454 H 39.5397 -1.81922 -2.66654 0
M  V30 455 H 38.5917 -3.64723 -1.0808 0
M  V30 456 H 39.9037 -4.71547 -1.62619 0
M  V30 457 H 39.0577 -4.58079 -3.97804 0
M  V30 458 H 37.7967 -3.41845 -3.4784 0
M  V30 459 H 36.8017 -5.1415 -1.94755 0
M  V30 460 H 38.0267 -6.32382 -2.47528 0
M  V30 461 H 35.9727 -4.97874 -4.2715 0
M  V30 462 H 35.8897 -6.60498 -3.67801 0
M  V30 463 H 37.1577 -6.15756 -4.7798 0
M  V30 464 N 41.3868 0.248026 -1.55636 0
M  V30 465 C 42.6148 0.993808 -1.81469 0
M  V30 466 C 43.0298 1.78991 -0.60064 0
M  V30 467 O 42.3868 1.77345 0.430682 0
M  V30 468 C 42.4378 1.93258 -3.05506 0
M  V30 469 O 42.1588 1.16869 -4.22224 0
M  V30 470 C 43.6598 2.79444 -3.4413 0
M  V30 471 H 40.8798 0.292486 -0.603898 0
M  V30 472 H 43.4238 0.271253 -2.02693 0
M  V30 473 H 41.5788 2.60943 -2.86335 0
M  V30 474 H 41.9928 1.80359 -4.92515 0
M  V30 475 H 43.4668 3.41066 -4.34026 0
M  V30 476 H 43.9438 3.50499 -2.64665 0
M  V30 477 H 44.5498 2.17214 -3.65648 0
M  V30 478 N 42.8649 1.48995 0.513639 0
M  V30 479 C 43.7749 1.67443 1.64317 0
M  V30 480 C 44.7909 0.556947 1.64846 0
M  V30 481 O 45.9669 0.830082 1.83498 0
M  V30 482 C 43.0319 1.72515 3.00732 0
M  V30 483 C 42.0929 2.96009 3.1093 0
M  V30 484 C 41.3259 3.00829 4.40837 0
M  V30 485 O 41.5489 2.13594 5.28898 0
M  V30 486 O 40.4829 3.93168 4.55744 0
M  V30 487 H 44.3089 2.63106 1.51687 0
M  V30 488 H 41.8939 1.32588 0.688543 0
M  V30 489 H 43.7759 1.78277 3.81831 0
M  V30 490 H 42.4509 0.800278 3.13651 0
M  V30 491 H 41.3579 2.9577 2.29065 0
M  V30 492 H 42.6909 3.87934 3.02933 0
M  V30 493 N 44.343 -0.763751 1.37857 0
M  V30 494 C 45.589 -1.52483 1.33704 0
M  V30 495 C 45.922 -1.94051 -0.0759612 0
M  V30 496 O 45.197 -1.64675 -1.03501 0
M  V30 497 C 45.48 -2.78441 2.28348 0
M  V30 498 C 45.333 -2.43075 3.78463 0
M  V30 499 C 46.652 -3.80415 2.21298 0
M  V30 500 H 43.771 -0.553169 0.487005 0
M  V30 501 H 46.413 -0.875562 1.68624 0
M  V30 502 H 44.563 -3.33842 1.987 0
M  V30 503 H 46.235 -1.93527 4.18742 0
M  V30 504 H 44.478 -1.75666 3.96641 0
M  V30 505 H 45.149 -3.33149 4.40132 0
M  V30 506 H 47.625 -3.34527 2.47449 0
M  V30 507 H 46.501 -4.66257 2.89647 0
M  V30 508 H 46.762 -4.25262 1.20849 0
M  V30 509 N 45.8211 -1.22559 -0.990812 0
M  V30 510 C 46.7511 -1.0218 -2.09956 0
M  V30 511 C 47.7321 0.0579394 -1.70001 0
M  V30 512 O 48.9171 -0.104684 -1.93918 0
M  V30 513 C 46.0471 -0.601023 -3.4206 0
M  V30 514 C 45.0011 -1.62694 -3.95872 0
M  V30 515 C 44.3271 -1.06193 -5.24049 0
M  V30 516 C 45.6271 -3.01743 -4.2632 0
M  V30 517 H 47.3211 -1.94916 -2.27262 0
M  V30 518 H 44.8671 -0.938566 -1.09211 0
M  V30 519 H 46.8201 -0.445561 -4.19038 0
M  V30 520 H 45.5441 0.362005 -3.24588 0
M  V30 521 H 44.2031 -1.77021 -3.21028 0
M  V30 522 H 43.8511 -0.0901903 -5.02919 0
M  V30 523 H 43.5511 -1.74732 -5.61019 0
M  V30 524 H 45.0751 -0.918092 -6.03658 0
M  V30 525 H 46.4891 -2.90777 -4.94087 0
M  V30 526 H 44.8861 -3.67425 -4.74467 0
M  V30 527 H 45.9561 -3.51518 -3.34011 0
M  V30 528 N 47.2992 1.18797 -1.03562 0
M  V30 529 C 48.5472 1.88278 -0.734569 0
M  V30 530 C 48.8682 1.8043 0.739586 0
M  V30 531 O 48.1382 1.21925 1.53333 0
M  V30 532 H 46.7182 0.696991 -0.268725 0
M  V30 533 H 49.3802 1.44192 -1.31129 0
M  V30 534 H 48.4762 2.94443 -1.03489 0
M  V30 535 N 48.7773 0.814389 1.34928 0
M  V30 536 C 50.0023 0.410097 2.03305 0
M  V30 537 C 50.4273 -0.973464 1.60951 0
M  V30 538 O 49.7853 -1.63185 0.789964 0
M  V30 539 C 49.8333 0.51049 3.56968 0
M  V30 540 O 48.9373 -0.473035 4.09678 0
M  V30 541 H 48.2783 0.170088 0.641846 0
M  V30 542 H 50.8083 1.10244 1.72358 0
M  V30 543 H 50.8183 0.383135 4.06197 0
M  V30 544 H 49.4933 1.51963 3.87144 0
M  V30 545 H 48.0703 -0.305272 3.71648 0
M  V30 546 N 50.2554 -1.46986 0.568584 0
M  V30 547 C 51.6664 -1.86188 0.138219 0
M  V30 548 C 52.0174 -1.47388 -1.29504 0
M  V30 549 O 51.1424 -0.88219 -1.97602 0
M  V30 550 C 51.7374 -3.3792 0.244065 0
M  V30 551 C 50.2964 -3.76171 -0.131335 0
M  V30 552 C 49.4434 -2.71027 0.586465 0
M  V30 553 H 52.3944 -1.38342 0.777645 0
M  V30 554 H 52.4154 -3.76729 -0.534351 0
M  V30 555 H 51.9274 -3.66128 1.28731 0
M  V30 556 H 50.0284 -3.5358 -1.17526 0
M  V30 557 H 50.1414 -4.78523 0.235146 0
M  V30 558 H 48.5054 -2.54684 0.0282722 0
M  V30 559 H 49.2884 -3.02077 1.63109 0
M  V30 560 N 51.7335 -0.305618 -1.54608 0
M  V30 561 C 52.6805 0.568421 -2.23691 0
M  V30 562 C 53.6505 1.12592 -1.22116 0
M  V30 563 O 54.8355 1.16959 -1.50749 0
M  V30 564 C 51.9755 1.7322 -2.98477 0
M  V30 565 C 51.0885 1.20566 -4.14835 0
M  V30 566 C 50.2235 2.33368 -4.77193 0
M  V30 567 C 49.2625 1.7787 -5.85686 0
M  V30 568 N 48.3995 2.84263 -6.4198 0
M  V30 569 H 53.2395 -0.0272867 -2.97988 0
M  V30 570 H 50.7765 -0.0252363 -1.47078 0
M  V30 571 H 52.7345 2.41675 -3.40072 0
M  V30 572 H 51.3645 2.29947 -2.26548 0
M  V30 573 H 50.4165 0.413223 -3.78149 0
M  V30 574 H 51.7285 0.759417 -4.92985 0
M  V30 575 H 50.8825 3.09761 -5.21664 0
M  V30 576 H 49.6215 2.8132 -3.98385 0
M  V30 577 H 48.6265 0.99968 -5.40635 0
M  V30 578 H 49.8515 1.30816 -6.66381 0
M  V30 579 H 47.7975 3.31541 -5.66053 0
M  V30 580 H 47.7145 2.44149 -7.15491 0
M  V30 581 H 48.9825 3.6054 -6.91109 0
M  V30 582 N 53.2116 1.57565 -0.0334293 0
M  V30 583 C 54.1416 2.13511 0.945265 0
M  V30 584 C 55.1226 1.05231 1.33643 0
M  V30 585 O 56.3076 1.33084 1.41429 0
M  V30 586 C 53.4376 2.6657 2.22616 0
M  V30 587 C 52.3916 3.79676 1.97561 0
M  V30 588 C 51.7176 4.1918 3.31952 0
M  V30 589 C 53.0176 5.0557 1.31135 0
M  V30 590 H 54.7116 2.95538 0.479325 0
M  V30 591 H 52.2576 1.42166 0.229115 0
M  V30 592 H 54.2106 3.04344 2.91466 0
M  V30 593 H 52.9346 1.8171 2.71384 0
M  V30 594 H 51.5936 3.42347 1.31127 0
M  V30 595 H 51.2416 3.31296 3.78487 0
M  V30 596 H 50.9416 4.95402 3.15992 0
M  V30 597 H 52.4656 4.59541 4.02063 0
M  V30 598 H 53.8796 5.40903 1.89992 0
M  V30 599 H 52.2766 5.86818 1.25559 0
M  V30 600 H 53.3466 4.84062 0.284894 0
M  V30 601 N 54.6897 -0.239769 1.55765 0
M  V30 602 C 55.6197 -1.30052 1.9393 0
M  V30 603 C 56.6007 -1.49839 0.805132 0
M  V30 604 O 57.7857 -1.62328 1.06599 0
M  V30 605 C 54.9157 -2.65391 2.2402 0
M  V30 606 C 53.8697 -2.60289 3.39755 0
M  V30 607 C 53.1957 -3.99489 3.55405 0
M  V30 608 C 54.4957 -2.16654 4.75246 0
M  V30 609 H 56.1897 -0.983573 2.82783 0
M  V30 610 H 53.7357 -0.471701 1.36055 0
M  V30 611 H 55.6887 -3.3974 2.49308 0
M  V30 612 H 54.4127 -2.98736 1.32 0
M  V30 613 H 53.0717 -1.88398 3.14487 0
M  V30 614 H 52.7197 -4.30112 2.60793 0
M  V30 615 H 52.4197 -3.96962 4.33238 0
M  V30 616 H 53.9437 -4.75528 3.83022 0
M  V30 617 H 55.3577 -2.80737 4.99859 0
M  V30 618 H 53.7547 -2.25223 5.56232 0
M  V30 619 H 54.8247 -1.11835 4.71827 0
M  V30 620 N 56.1678 -1.49265 -0.50573 0
M  V30 621 C 57.1308 -1.65075 -1.59006 0
M  V30 622 C 58.1308 -0.522768 -1.52065 0
M  V30 623 O 59.3208 -0.789117 -1.55302 0
M  V30 624 C 56.4528 -1.64369 -2.98656 0
M  V30 625 H 57.6458 -2.61784 -1.46319 0
M  V30 626 H 55.1988 -1.38226 -0.729616 0
M  V30 627 H 55.9338 -0.692272 -3.16825 0
M  V30 628 H 55.7188 -2.46282 -3.05103 0
M  V30 629 H 57.2088 -1.78674 -3.77446 0
M  V30 630 N 57.6459 0.756429 -1.3826 0
M  V30 631 C 58.5759 1.88374 -1.37976 0
M  V30 632 C 59.5569 1.68311 -0.246082 0
M  V30 633 O 60.7419 1.88944 -0.44874 0
M  V30 634 C 57.8719 3.25864 -1.20125 0
M  V30 635 C 56.8259 3.60523 -2.30666 0
M  V30 636 C 56.1519 4.9672 -1.97923 0
M  V30 637 C 57.4519 3.65692 -3.72916 0
M  V30 638 H 59.1459 1.88869 -2.32312 0
M  V30 639 H 56.6919 0.907272 -1.11824 0
M  V30 640 H 58.6449 4.0438 -1.18552 0
M  V30 641 H 57.3689 3.25841 -0.222498 0
M  V30 642 H 56.0279 2.84324 -2.3142 0
M  V30 643 H 55.6759 4.93253 -0.985393 0
M  V30 644 H 55.3759 5.20878 -2.71955 0
M  V30 645 H 56.8999 5.77618 -1.97964 0
M  V30 646 H 58.3139 4.34328 -3.74208 0
M  V30 647 H 56.7109 4.01358 -4.4613 0
M  V30 648 H 57.7809 2.65987 -4.05436 0
M  V30 649 N 59.124 1.23083 0.984299 0
M  V30 650 C 60.37 1.07221 1.72845 0
M  V30 651 C 60.725 -0.387453 1.88458 0
M  V30 652 O 60.018 -1.28309 1.42293 0
M  V30 653 C 60.212 1.72673 3.1292 0
M  V30 654 C 60.041 3.24853 3.10967 0
M  V30 655 C 58.811 3.93998 3.16376 0
M  V30 656 C 61.009 4.21674 2.94441 0
M  V30 657 N 58.991 5.33192 3.04268 0
M  V30 658 C 60.362 5.47756 2.90453 0
M  V30 659 C 62.417 4.12457 2.78897 0
M  V30 660 C 61.12 6.6568 2.72512 0
M  V30 661 C 63.146 5.3004 2.62319 0
M  V30 662 C 62.508 6.55046 2.59026 0
M  V30 663 H 58.607 0.44685 0.641755 0
M  V30 664 H 61.191 1.55753 1.16829 0
M  V30 665 H 59.362 1.26679 3.67161 0
M  V30 666 H 61.094 1.49824 3.75945 0
M  V30 667 H 57.849 3.45052 3.24401 0
M  V30 668 H 58.273 6.06157 3.015 0
M  V30 669 H 62.915 3.16588 2.80235 0
M  V30 670 H 60.633 7.61689 2.69919 0
M  V30 671 H 64.219 5.24747 2.5126 0
M  V30 672 H 63.099 7.44498 2.46357 0
M  V30 673 N 60.6021 -1.18246 1.0419 0
M  V30 674 C 61.5121 -2.25574 0.644476 0
M  V30 675 C 62.5281 -1.70845 -0.329826 0
M  V30 676 O 63.7041 -2.00554 -0.184443 0
M  V30 677 C 60.7691 -3.46697 0.014877 0
M  V30 678 C 59.8301 -4.16554 1.03834 0
M  V30 679 C 59.0631 -5.31894 0.438692 0
M  V30 680 O 59.2861 -5.65385 -0.754752 0
M  V30 681 O 58.2201 -5.90459 1.168 0
M  V30 682 H 62.0461 -2.61836 1.53869 0
M  V30 683 H 59.6311 -1.25352 0.812854 0
M  V30 684 H 61.5131 -4.20062 -0.335538 0
M  V30 685 H 60.1881 -3.12255 -0.853138 0
M  V30 686 H 59.0951 -3.45251 1.44057 0
M  V30 687 H 60.4281 -4.54998 1.87716 0
M  V30 688 N 62.0802 -0.821533 -1.34494 0
M  V30 689 C 63.0102 -0.257138 -2.3208 0
M  V30 690 C 63.9912 0.625645 -1.58176 0
M  V30 691 O 65.1762 0.552811 -1.86166 0
M  V30 692 C 62.3062 0.582958 -3.42372 0
M  V30 693 C 61.2602 -0.202571 -4.2752 0
M  V30 694 C 60.5862 0.760179 -5.29269 0
M  V30 695 C 61.8862 -1.40998 -5.02908 0
M  V30 696 H 63.5802 -1.07247 -2.79532 0
M  V30 697 H 61.1262 -0.517163 -1.34393 0
M  V30 698 H 63.0792 0.987972 -4.09655 0
M  V30 699 H 61.8032 1.43133 -2.93565 0
M  V30 700 H 60.4622 -0.588936 -3.61838 0
M  V30 701 H 60.1102 1.60447 -4.76724 0
M  V30 702 H 59.8102 0.238809 -5.87115 0
M  V30 703 H 61.3342 1.16308 -5.9942 0
M  V30 704 H 62.7482 -1.07905 -5.63054 0
M  V30 705 H 61.1452 -1.86689 -5.70322 0
M  V30 706 H 62.2152 -2.1889 -4.32684 0
M  V30 707 N 63.5583 1.46682 -0.576371 0
M  V30 708 C 64.4913 2.27243 0.208731 0
M  V30 709 C 65.4693 1.35238 0.902746 0
M  V30 710 O 66.6533 1.64641 0.917904 0
M  V30 711 C 63.7803 3.12802 1.29896 0
M  V30 712 C 62.8263 4.20524 0.711457 0
M  V30 713 S 63.6593 5.33548 -0.456781 0
M  V30 714 C 64.8153 6.22673 0.634798 0
M  V30 715 H 65.0483 2.93484 -0.474838 0
M  V30 716 H 62.5813 1.50069 -0.363118 0
M  V30 717 H 64.5393 3.62661 1.92321 0
M  V30 718 H 63.2003 2.45887 1.95444 0
M  V30 719 H 62.3933 4.80191 1.53076 0
M  V30 720 H 61.9953 3.73645 0.162999 0
M  V30 721 H 64.2873 6.60181 1.52209 0
M  V30 722 H 65.2303 7.0806 0.0750311 0
M  V30 723 H 65.6383 5.56684 0.936092 0
M  V30 724 N 65.0364 0.313813 1.54444 0
M  V30 725 C 65.9834 -0.55655 2.23989 0
M  V30 726 C 66.9534 -1.11943 1.22711 0
M  V30 727 O 68.1384 -1.16158 1.51367 0
M  V30 728 C 65.2784 -1.71635 2.99392 0
M  V30 729 C 64.3914 -1.18364 4.15468 0
M  V30 730 C 63.5264 -2.30834 4.78424 0
M  V30 731 C 62.5654 -1.74762 5.86622 0
M  V30 732 N 61.7024 -2.80855 6.43479 0
M  V30 733 H 66.5424 0.0430893 2.97969 0
M  V30 734 H 64.0794 0.0330359 1.47063 0
M  V30 735 H 66.0374 -2.39868 3.41349 0
M  V30 736 H 64.6674 -2.28742 2.27765 0
M  V30 737 H 63.7194 -0.393163 3.78363 0
M  V30 738 H 65.0314 -0.733262 4.93381 0
M  V30 739 H 64.1854 -3.0699 5.23299 0
M  V30 740 H 62.9244 -2.79204 3.99871 0
M  V30 741 H 61.9294 -0.970995 5.41158 0
M  V30 742 H 63.1544 -1.2728 6.67066 0
M  V30 743 H 61.1004 -3.28535 5.67804 0
M  V30 744 H 61.0174 -2.40351 7.16776 0
M  V30 745 H 62.2854 -3.5687 6.93011 0
M  V30 746 N 66.5145 -1.57545 0.0417849 0
M  V30 747 C 67.4445 -2.14009 -0.933929 0
M  V30 748 C 68.4255 -1.05938 -1.33083 0
M  V30 749 O 69.6105 -1.33833 -1.40721 0
M  V30 750 C 66.7405 -2.67747 -2.21199 0
M  V30 751 C 65.6945 -3.80718 -1.95544 0
M  V30 752 C 65.0205 -4.20935 -3.29724 0
M  V30 753 C 66.3205 -5.06258 -1.28452 0
M  V30 754 H 68.0145 -2.95788 -0.463645 0
M  V30 755 H 65.5605 -1.42285 -0.221573 0
M  V30 756 H 67.5135 -3.05886 -2.89848 0
M  V30 757 H 66.2375 -1.83147 -2.70416 0
M  V30 758 H 64.8965 -3.43037 -1.2931 0
M  V30 759 H 64.5445 -3.33298 -3.76724 0
M  V30 760 H 64.2445 -4.9707 -3.13361 0
M  V30 761 H 65.7685 -4.61666 -3.9962 0
M  V30 762 H 67.1825 -5.41903 -1.8712 0
M  V30 763 H 65.5795 -5.87475 -1.22445 0
M  V30 764 H 66.6495 -4.84207 -0.259219 0
M  V30 765 N 67.9926 0.231505 -1.5589 0
M  V30 766 C 69.2206 0.974505 -1.82513 0
M  V30 767 C 69.6356 1.78344 -0.619591 0
M  V30 768 O 68.9926 1.77792 0.411848 0
M  V30 769 C 69.0436 1.90007 -3.07538 0
M  V30 770 O 68.7646 1.12385 -4.2344 0
M  V30 771 C 70.2656 2.75779 -3.47075 0
M  V30 772 H 67.4856 0.286065 -0.606966 0
M  V30 773 H 70.0296 0.249739 -2.02969 0
M  V30 774 H 68.1846 2.57891 -2.89086 0
M  V30 775 H 68.5986 1.75125 -4.944 0
M  V30 776 H 70.0726 3.36443 -4.37619 0
M  V30 777 H 70.5496 3.47672 -2.68367 0
M  V30 778 H 71.1556 2.13323 -3.67931 0
M  V30 779 N 69.4707 1.49531 0.497807 0
M  V30 780 C 70.8817 1.52344 1.07927 0
M  V30 781 C 71.2327 0.311469 1.93712 0
M  V30 782 O 70.3577 -0.578405 2.08527 0
M  V30 783 C 70.9527 2.76062 1.96405 0
M  V30 784 C 69.5117 2.81643 2.49709 0
M  V30 785 C 68.6587 2.46299 1.27404 0
M  V30 786 H 71.6097 1.56182 0.281576 0
M  V30 787 H 71.6307 2.56405 2.81135 0
M  V30 788 H 71.1427 3.64254 1.33943 0
M  V30 789 H 69.2437 1.97739 3.15801 0
M  V30 790 H 69.3567 3.83891 2.86643 0
M  V30 791 H 67.7207 1.98148 1.60029 0
M  V30 792 H 68.5037 3.36769 0.66645 0
M  V30 793 N 70.9488 -0.749086 1.3866 0
M  V30 794 C 71.8808 -1.87273 1.32142 0
M  V30 795 C 72.8938 -1.61127 0.232787 0
M  V30 796 O 74.0828 -1.71623 0.49069 0
M  V30 797 C 71.1828 -3.23005 1.02571 0
M  V30 798 C 70.3558 -3.7662 2.22433 0
M  V30 799 C 69.4148 -4.90879 1.89537 0
M  V30 800 O 68.4408 -5.05276 2.62078 0
M  V30 801 N 69.6428 -5.74198 0.853031 0
M  V30 802 H 72.4078 -1.93373 2.28969 0
M  V30 803 H 69.9688 -0.929216 1.32579 0
M  V30 804 H 71.9608 -3.96992 0.786085 0
M  V30 805 H 70.5308 -3.12262 0.145249 0
M  V30 806 H 69.7508 -2.94147 2.62434 0
M  V30 807 H 71.0388 -4.09173 3.02415 0
M  V30 808 H 70.4368 -5.6514 0.25155 0
M  V30 809 H 68.9938 -6.48313 0.67329 0
M  V30 810 N 72.4269 -1.23603 -0.977757 0
M  V30 811 C 73.3739 -1.01954 -2.07061 0
M  V30 812 C 74.3439 0.0638697 -1.65977 0
M  V30 813 O 75.5289 -0.0887624 -1.90593 0
M  V30 814 C 72.6689 -0.619658 -3.39491 0
M  V30 815 C 71.7819 -1.77547 -3.93829 0
M  V30 816 C 70.9169 -1.32212 -5.14484 0
M  V30 817 C 69.9559 -2.44852 -5.60994 0
M  V30 818 N 69.0929 -2.00456 -6.72876 0
M  V30 819 H 73.9329 -1.95495 -2.24913 0
M  V30 820 H 71.4699 -0.973861 -1.10247 0
M  V30 821 H 73.4279 -0.368898 -4.15566 0
M  V30 822 H 72.0579 0.278752 -3.21594 0
M  V30 823 H 71.1099 -2.14016 -3.14486 0
M  V30 824 H 72.4219 -2.62219 -4.24314 0
M  V30 825 H 71.5759 -1.02965 -5.97899 0
M  V30 826 H 70.3149 -0.445808 -4.85658 0
M  V30 827 H 69.3199 -2.74871 -4.76157 0
M  V30 828 H 70.5449 -3.33024 -5.91837 0
M  V30 829 H 68.4909 -1.15208 -6.45804 0
M  V30 830 H 68.4079 -2.78687 -7.02759 0
M  V30 831 H 69.6759 -1.7432 -7.59758 0
M  V30 832 N 73.905 1.17692 -1.04816 0
M  V30 833 C 75.316 1.69501 -0.782698 0
M  V30 834 C 75.667 1.83456 0.695577 0
M  V30 835 O 74.792 1.51942 1.54086 0
M  V30 836 C 75.387 3.07874 -1.41419 0
M  V30 837 C 73.946 3.56864 -1.19686 0
M  V30 838 C 73.093 2.3322 -1.50012 0
M  V30 839 H 76.044 1.02262 -1.2136 0
M  V30 840 H 76.065 3.71528 -0.821428 0
M  V30 841 H 75.577 2.97685 -2.49009 0
M  V30 842 H 73.678 3.72337 -0.140043 0
M  V30 843 H 73.791 4.39851 -1.89916 0
M  V30 844 H 72.155 2.37501 -0.920071 0
M  V30 845 H 72.938 2.25644 -2.58727 0
M  V30 846 N 75.3831 0.828654 1.34056 0
M  V30 847 C 76.6321 0.415828 1.97367 0
M  V30 848 C 76.9451 -1.02796 1.6641 0
M  V30 849 O 78.1511 -1.54497 2.23255 0
M  V30 850 C 76.6071 0.692601 3.53173 0
M  V30 851 C 76.2151 2.15038 3.93017 0
M  V30 852 C 77.9591 0.346222 4.23086 0
M  V30 853 C 75.8661 2.37174 5.41758 0
M  V30 854 H 74.7961 0.151755 0.738571 0
M  V30 855 H 77.4471 1.01581 1.52819 0
M  V30 856 H 75.8291 0.0223764 3.95994 0
M  V30 857 H 77.0031 2.86024 3.61285 0
M  V30 858 H 75.3181 2.45875 3.36057 0
M  V30 859 H 77.9151 0.48937 5.32456 0
M  V30 860 H 78.2581 -0.709842 4.10204 0
M  V30 861 H 78.7911 0.971258 3.85761 0
M  V30 862 H 75.5301 3.41308 5.59633 0
M  V30 863 H 75.0501 1.70738 5.74986 0
M  V30 864 H 76.7291 2.19818 6.08514 0
M  V30 865 N 76.8612 -1.46375 0.584142 0
M  V30 866 C 77.7912 -2.33103 -0.136037 0
M  V30 867 C 78.7722 -1.45431 -0.882255 0
M  V30 868 O 79.9572 -1.74246 -0.857434 0
M  V30 869 C 77.0872 -3.27731 -1.14933 0
M  V30 870 C 76.0412 -4.24855 -0.517862 0
M  V30 871 C 75.3672 -5.09001 -1.63773 0
M  V30 872 C 76.6672 -5.19439 0.545886 0
M  V30 873 H 78.3612 -2.93568 0.588086 0
M  V30 874 H 75.9072 -1.41166 0.284259 0
M  V30 875 H 77.8602 -3.87261 -1.66153 0
M  V30 876 H 76.5842 -2.65377 -1.90375 0
M  V30 877 H 75.2432 -3.6659 -0.0267361 0
M  V30 878 H 74.8912 -4.43031 -2.38185 0
M  V30 879 H 74.5912 -5.74777 -1.22085 0
M  V30 880 H 76.1152 -5.71396 -2.15266 0
M  V30 881 H 77.5292 -5.73177 0.118704 0
M  V30 882 H 75.9262 -5.93566 0.88317 0
M  V30 883 H 76.9962 -4.63285 1.43162 0
M  V30 884 N 78.3393 -0.321999 -1.54275 0
M  V30 885 C 79.2693 0.537411 -2.27231 0
M  V30 886 C 80.2503 1.12064 -1.27968 0
M  V30 887 O 81.4353 1.14606 -1.56777 0
M  V30 888 C 78.5653 1.69919 -3.02894 0
M  V30 889 C 77.5193 1.24534 -4.09482 0
M  V30 890 C 76.8453 2.49394 -4.72977 0
M  V30 891 C 78.1453 0.361335 -5.21049 0
M  V30 892 H 79.8393 -0.0711406 -2.99315 0
M  V30 893 H 77.3853 -0.0356555 -1.43956 0
M  V30 894 H 79.3383 2.30668 -3.52662 0
M  V30 895 H 78.0623 2.33431 -2.28424 0
M  V30 896 H 76.7213 0.660782 -3.60596 0
M  V30 897 H 76.3693 3.11265 -3.95124 0
M  V30 898 H 76.0693 2.19718 -5.44975 0
M  V30 899 H 77.5933 3.10908 -5.25517 0
M  V30 900 H 79.0073 0.875072 -5.66582 0
M  V30 901 H 77.4043 0.157428 -5.99893 0
M  V30 902 H 78.4743 -0.60822 -4.8107 0
M  V30 903 N 79.8174 1.5752 -0.0501392 0
M  V30 904 C 80.7474 2.14502 0.922566 0
M  V30 905 C 81.7284 1.06642 1.3252 0
M  V30 906 O 82.9134 1.34577 1.4001 0
M  V30 907 C 80.0434 2.68916 2.19776 0
M  V30 908 C 78.9974 3.8175 1.93523 0
M  V30 909 C 78.3234 4.22677 3.27487 0
M  V30 910 C 79.6234 5.06932 1.25765 0
M  V30 911 H 81.3174 2.9603 0.447952 0
M  V30 912 H 78.8634 1.42401 0.214024 0
M  V30 913 H 80.8164 3.07419 2.88222 0
M  V30 914 H 79.5404 1.84578 2.69441 0
M  V30 915 H 78.1994 3.43718 1.27489 0
M  V30 916 H 77.8474 3.35291 3.74952 0
M  V30 917 H 77.5474 4.98725 3.1072 0
M  V30 918 H 79.0714 4.63779 3.97166 0
M  V30 919 H 80.4854 5.42888 1.84244 0
M  V30 920 H 78.8824 5.88116 1.19328 0
M  V30 921 H 79.9524 4.84337 0.233536 0
M  V30 922 N 81.2955 -0.223234 1.56011 0
M  V30 923 C 82.5205 -0.968978 1.83373 0
M  V30 924 C 82.9455 -1.77227 0.630254 0
M  V30 925 O 82.3035 -1.76345 -0.420959 0
M  V30 926 C 82.3515 -1.86363 3.08709 0
M  V30 927 O 81.4555 -2.95873 2.87285 0
M  V30 928 H 80.7965 -0.274461 0.604622 0
M  V30 929 H 83.3265 -0.237056 2.03222 0
M  V30 930 H 83.3365 -2.27376 3.38768 0
M  V30 931 H 82.0115 -1.27319 3.95933 0
M  V30 932 H 80.5885 -2.58818 2.68454 0
M  V30 933 N 82.7736 -1.49793 -0.48987 0
M  V30 934 C 83.7366 -1.66752 -1.57246 0
M  V30 935 C 84.7366 -0.538867 -1.51502 0
M  V30 936 O 85.9266 -0.805545 -1.54456 0
M  V30 937 C 83.0586 -1.67528 -2.96896 0
M  V30 938 H 84.2516 -2.63321 -1.43534 0
M  V30 939 H 81.8046 -1.38992 -0.714914 0
M  V30 940 H 82.5396 -0.725837 -3.16073 0
M  V30 941 H 82.3246 -2.49504 -3.02473 0
M  V30 942 H 83.8146 -1.82667 -3.7553 0
M  V30 943 N 84.2517 0.741722 -1.39055 0
M  V30 944 C 85.1817 1.869 -1.39966 0
M  V30 945 C 86.1627 1.6804 -0.26392 0
M  V30 946 O 87.3477 1.88458 -0.468755 0
M  V30 947 C 84.4777 3.24572 -1.23574 0
M  V30 948 C 83.4317 3.58056 -2.34477 0
M  V30 949 C 82.7577 4.94593 -2.0318 0
M  V30 950 C 84.0577 3.61716 -3.76774 0
M  V30 951 H 85.7517 1.86395 -2.34302 0
M  V30 952 H 83.2977 0.895361 -1.1278 0
M  V30 953 H 85.2507 4.031 -1.22834 0
M  V30 954 H 83.9747 3.25587 -0.257045 0
M  V30 955 H 82.6337 2.81854 -2.34423 0
M  V30 956 H 82.2817 4.92181 -1.03765 0
M  V30 957 H 81.9817 5.17964 -2.77465 0
M  V30 958 H 83.5057 5.75486 -2.04079 0
M  V30 959 H 84.9197 4.30335 -3.78794 0
M  V30 960 H 83.3167 3.96603 -4.50362 0
M  V30 961 H 84.3867 2.61672 -4.08235 0
M  V30 962 N 85.7298 1.2412 0.971189 0
M  V30 963 C 86.9778 1.07668 1.71032 0
M  V30 964 C 87.2988 -0.385797 1.91146 0
M  V30 965 O 86.5688 -1.27569 1.4867 0
M  V30 966 H 85.1488 0.395429 0.633755 0
M  V30 967 H 87.8108 1.55984 1.16855 0
M  V30 968 H 86.9068 1.57195 2.69622 0
M  V30 969 N 87.2079 -1.17134 1.05439 0
M  V30 970 C 88.4559 -1.87085 0.764429 0
M  V30 971 C 88.7769 -1.81584 -0.710787 0
M  V30 972 O 88.0469 -1.24349 -1.51374 0
M  V30 973 H 86.6269 -0.692627 0.279779 0
M  V30 974 H 89.2889 -1.42087 1.33406 0
M  V30 975 H 88.3849 -2.92759 1.0816 0
M  V30 976 N 88.686 -0.835752 -1.33615 0
M  V30 977 C 89.616 -0.281739 -2.31794 0
M  V30 978 C 90.597 0.608833 -1.58831 0
M  V30 979 O 91.782 0.533035 -1.86741 0
M  V30 980 C 88.912 0.546612 -3.42971 0
M  V30 981 C 87.866 -0.247904 -4.27281 0
M  V30 982 C 87.192 0.704001 -5.30045 0
M  V30 983 C 88.492 -1.46324 -5.01385 0
M  V30 984 H 90.186 -1.10206 -2.78379 0
M  V30 985 H 87.732 -0.531388 -1.33837 0
M  V30 986 H 89.685 0.944467 -4.1068 0
M  V30 987 H 88.409 1.40011 -2.95067 0
M  V30 988 H 87.068 -0.627281 -3.61194 0
M  V30 989 H 86.716 1.55381 -4.78399 0
M  V30 990 H 86.416 0.176524 -5.87335 0
M  V30 991 H 87.94 1.09944 -6.0062 0
M  V30 992 H 89.354 -1.13871 -5.61877 0
M  V30 993 H 87.751 -1.92728 -5.6831 0
M  V30 994 H 88.821 -2.23467 -4.30338 0
M  V30 995 N 90.1641 1.46063 -0.591896 0
M  V30 996 C 91.1271 2.28854 0.125973 0
M  V30 997 C 92.1271 1.38903 0.810107 0
M  V30 998 O 93.3171 1.61186 0.66066 0
M  V30 999 C 90.4491 3.19526 1.1881 0
M  V30 1000 H 91.6421 2.93802 -0.601717 0
M  V30 1001 H 89.1951 1.52325 -0.350254 0
M  V30 1002 H 89.9301 2.59345 1.94707 0
M  V30 1003 H 89.7151 3.85766 0.701936 0
M  V30 1004 H 91.2051 3.81817 1.69132 0
M  V30 1005 N 91.6422 0.330177 1.54103 0
M  V30 1006 C 92.8882 -0.270806 2.00984 0
M  V30 1007 C 93.2212 -1.51265 1.21789 0
M  V30 1008 O 92.4962 -1.92142 0.301927 0
M  V30 1009 C 92.7792 -0.598339 3.55094 0
M  V30 1010 C 92.6322 0.654674 4.4501 0
M  V30 1011 C 93.9512 -1.41334 4.16789 0
M  V30 1012 H 91.0702 -0.0969531 0.730595 0
M  V30 1013 H 93.7122 0.448066 1.84641 0
M  V30 1014 H 91.8622 -1.21078 3.69151 0
M  V30 1015 H 93.5342 1.29285 4.42813 0
M  V30 1016 H 91.7772 1.28224 4.14416 0
M  V30 1017 H 92.4482 0.380944 5.50684 0
M  V30 1018 H 94.9242 -0.895597 4.06347 0
M  V30 1019 H 93.8002 -1.61127 5.24718 0
M  V30 1020 H 94.0612 -2.41146 3.70541 0
M  V30 1021 N 93.1203 -1.57491 0.0584922 0
M  V30 1022 C 94.3683 -1.92597 -0.612436 0
M  V30 1023 C 94.6893 -0.938162 -1.70949 0
M  V30 1024 O 93.9593 0.0158301 -1.95894 0
M  V30 1025 H 92.5393 -0.710964 -0.229214 0
M  V30 1026 H 95.2013 -1.94571 0.113218 0
M  V30 1027 H 94.2973 -2.94038 -1.04633 0
M  V30 1028 N 94.5984 0.214957 -1.56127 0
M  V30 1029 C 95.8444 0.939762 -1.79712 0
M  V30 1030 C 96.1774 1.83723 -0.629247 0
M  V30 1031 O 95.4524 1.90925 0.371197 0
M  V30 1032 C 95.7354 1.77306 -3.13424 0
M  V30 1033 C 95.5884 0.90164 -4.40671 0
M  V30 1034 C 96.9074 2.74956 -3.43638 0
M  V30 1035 H 94.0264 0.340214 -0.653776 0
M  V30 1036 H 96.6684 0.20824 -1.88855 0
M  V30 1037 H 94.8184 2.39673 -3.0576 0
M  V30 1038 H 96.4904 0.294206 -4.60361 0
M  V30 1039 H 94.7334 0.207368 -4.33304 0
M  V30 1040 H 95.4044 1.51923 -5.30682 0
M  V30 1041 H 97.8804 2.22724 -3.51473 0
M  V30 1042 H 96.7564 3.30358 -4.38355 0
M  V30 1043 H 97.0174 3.53023 -2.66134 0
M  V30 1044 N 96.0765 1.50051 0.48192 0
M  V30 1045 C 97.0065 1.71046 1.58951 0
M  V30 1046 C 97.9875 0.559288 1.60642 0
M  V30 1047 O 99.1725 0.797243 1.77081 0
M  V30 1048 C 96.3025 1.79462 2.97339 0
M  V30 1049 C 95.2565 2.94558 3.10515 0
M  V30 1050 C 94.5825 2.88105 4.50444 0
M  V30 1051 C 95.8825 4.35227 2.88747 0
M  V30 1052 H 97.5765 2.6378 1.41635 0
M  V30 1053 H 95.1225 1.26936 0.679942 0
M  V30 1054 H 97.0755 1.92734 3.74742 0
M  V30 1055 H 95.7995 0.833412 3.15788 0
M  V30 1056 H 94.4585 2.80918 2.35543 0
M  V30 1057 H 94.1065 1.89853 4.65795 0
M  V30 1058 H 93.8065 3.65366 4.60197 0
M  V30 1059 H 95.3305 3.03412 5.29881 0
M  V30 1060 H 96.7445 4.49449 3.55905 0
M  V30 1061 H 95.1415 5.13856 3.09955 0
M  V30 1062 H 96.2115 4.48347 1.84696 0
M  V30 1063 N 97.5546 -0.734337 1.39446 0
M  V30 1064 C 98.8016 -1.49391 1.36706 0
M  V30 1065 C 99.1296 -1.94465 -0.0367813 0
M  V30 1066 O 98.3846 -1.67154 -1.01774 0
M  V30 1067 C 98.6836 -2.74711 2.28623 0
M  V30 1068 C 98.3496 -2.48501 3.76242 0
M  V30 1069 C 97.0116 -2.41062 4.16464 0
M  V30 1070 C 99.3636 -2.26098 4.69606 0
M  V30 1071 C 96.6916 -2.09262 5.48112 0
M  V30 1072 C 99.0436 -1.95814 6.01531 0
M  V30 1073 C 97.7076 -1.86845 6.40816 0
M  V30 1074 H 96.9776 -0.546661 0.500243 0
M  V30 1075 H 99.6246 -0.842788 1.71957 0
M  V30 1076 H 97.9296 -3.44569 1.86492 0
M  V30 1077 H 99.6266 -3.32741 2.23796 0
M  V30 1078 H 96.2166 -2.55169 3.44364 0
M  V30 1079 H 100.401 -2.30812 4.39363 0
M  V30 1080 H 95.6566 -2.00841 5.77471 0
M  V30 1081 H 99.8306 -1.77488 6.73403 0
M  V30 1082 H 97.4576 -1.6197 7.42745 0
M  V30 1083 N 99.0327 -1.24633 -0.964593 0
M  V30 1084 C 100.279 -1.08949 -1.71049 0
M  V30 1085 C 100.612 0.370302 -1.90637 0
M  V30 1086 O 99.8867 1.27349 -1.47011 0
M  V30 1087 C 100.17 -1.83329 -3.0994 0
M  V30 1088 C 100.023 -3.37077 -2.97824 0
M  V30 1089 C 101.342 -1.60846 -4.09654 0
M  V30 1090 H 98.4607 -0.397178 -0.620821 0
M  V30 1091 H 101.103 -1.5334 -1.12191 0
M  V30 1092 H 99.2527 -1.45597 -3.60186 0
M  V30 1093 H 100.925 -3.84425 -2.5498 0
M  V30 1094 H 99.1677 -3.65298 -2.33965 0
M  V30 1095 H 99.8387 -3.84324 -3.96231 0
M  V30 1096 H 102.315 -1.93674 -3.68279 0
M  V30 1097 H 101.191 -2.1534 -5.04896 0
M  V30 1098 H 101.452 -0.547434 -4.38698 0
M  V30 1099 N 100.511 1.16574 -1.06058 0
M  V30 1100 C 101.757 1.87565 -0.78683 0
M  V30 1101 C 102.112 1.80012 0.679214 0
M  V30 1102 O 101.405 1.20327 1.49104 0
M  V30 1103 C 101.599 3.36195 -1.21275 0
M  V30 1104 C 101.428 3.58216 -2.71866 0
M  V30 1105 C 100.198 3.7444 -3.39298 0
M  V30 1106 C 102.396 3.57134 -3.70081 0
M  V30 1107 N 100.378 3.84389 -4.78663 0
M  V30 1108 C 101.749 3.73038 -4.9522 0
M  V30 1109 C 103.804 3.40332 -3.63426 0
M  V30 1110 C 102.507 3.73879 -6.14497 0
M  V30 1111 C 104.533 3.42466 -4.82153 0
M  V30 1112 C 103.895 3.58887 -6.06118 0
M  V30 1113 H 99.9938 0.704081 -0.340284 0
M  V30 1114 H 102.578 1.39885 -1.35426 0
M  V30 1115 H 100.749 3.82522 -0.673179 0
M  V30 1116 H 102.481 3.94839 -0.887917 0
M  V30 1117 H 99.2358 3.74662 -2.89699 0
M  V30 1118 H 99.6598 3.93138 -5.51155 0
M  V30 1119 H 104.302 3.26566 -2.68541 0
M  V30 1120 H 102.02 3.86427 -7.09718 0
M  V30 1121 H 105.606 3.30712 -4.78666 0
M  V30 1122 H 104.486 3.60454 -6.9645 0
M  V30 1123 N 101.989 0.842826 1.3317 0
M  V30 1124 C 102.919 0.294028 2.31641 0
M  V30 1125 C 103.9 -0.600401 1.59151 0
M  V30 1126 O 105.085 -0.523124 1.87022 0
M  V30 1127 C 102.215 -0.528416 3.43257 0
M  V30 1128 C 101.169 0.27056 4.27144 0
M  V30 1129 C 100.495 -0.675881 5.30411 0
M  V30 1130 C 101.795 1.48981 5.00602 0
M  V30 1131 H 103.489 1.11681 2.77791 0
M  V30 1132 H 101.035 0.538478 1.33553 0
M  V30 1133 H 102.988 -0.922674 4.11175 0
M  V30 1134 H 101.712 -1.38445 2.95805 0
M  V30 1135 H 100.371 0.646427 3.60856 0
M  V30 1136 H 100.019 -1.52842 4.79216 0
M  V30 1137 H 99.7189 -0.145374 5.8742 0
M  V30 1138 H 101.243 -1.06757 6.01195 0
M  V30 1139 H 102.657 1.16849 5.61266 0
M  V30 1140 H 101.054 1.95739 5.6728 0
M  V30 1141 H 102.124 2.25746 4.29147 0
M  V30 1142 N 103.467 -1.45747 0.599634 0
M  V30 1143 C 104.397 -2.33235 -0.111306 0
M  V30 1144 C 105.378 -1.46359 -0.866781 0
M  V30 1145 O 106.563 -1.75146 -0.838904 0
M  V30 1146 C 103.693 -3.28932 -1.11451 0
M  V30 1147 C 102.647 -4.25381 -0.472772 0
M  V30 1148 C 101.973 -5.1071 -1.58365 0
M  V30 1149 C 103.273 -5.18831 0.600948 0
M  V30 1150 H 104.967 -2.92927 0.61919 0
M  V30 1151 H 102.513 -1.40857 0.299215 0
M  V30 1152 H 104.466 -3.89002 -1.62036 0
M  V30 1153 H 103.19 -2.67381 -1.8755 0
M  V30 1154 H 101.849 -3.66598 0.0121472 0
M  V30 1155 H 101.497 -4.45533 -2.33473 0
M  V30 1156 H 101.197 -5.7604 -1.15982 0
M  V30 1157 H 102.721 -5.73647 -2.09194 0
M  V30 1158 H 104.135 -5.73019 0.179491 0
M  V30 1159 H 102.532 -5.92595 0.946076 0
M  V30 1160 H 103.602 -4.6174 1.48068 0
M  V30 1161 N 104.945 -0.338344 -1.53925 0
M  V30 1162 C 105.893 0.536231 -2.26335 0
M  V30 1163 C 106.887 1.1063 -1.28286 0
M  V30 1164 O 108.093 1.05264 -1.46012 0
M  V30 1165 H 104.468 0.191602 -0.727181 0
M  V30 1166 H 106.439 -0.0965747 -2.98244 0
M  V30 1167 C 105.188 1.67803 -3.04528 0
M  V30 1168 H 104.511 1.24864 -3.79801 0
M  V30 1169 H 105.951 2.26526 -3.58416 0
M  V30 1170 C 104.41 2.60439 -2.13712 0
M  V30 1171 O 104.94 3.6255 -1.72975 0
M  V30 1172 N 103.146 2.29006 -1.78898 0
M  V30 1173 H 102.693 1.46011 -2.12223 0
M  V30 1174 H 102.651 2.91248 -1.18416 0
M  V30 1175 N 106.423 1.57458 -0.0668435 0
M  V30 1176 C 107.648 1.9804 0.616027 0
M  V30 1177 C 108.073 0.944771 1.62652 0
M  V30 1178 O 107.431 -0.0902094 1.81075 0
M  V30 1179 C 107.479 3.37665 1.26549 0
M  V30 1180 O 106.583 3.36701 2.38131 0
M  V30 1181 H 105.924 0.644719 0.158849 0
M  V30 1182 H 108.454 2.04121 -0.139891 0
M  V30 1183 H 108.464 3.7474 1.6135 0
M  V30 1184 H 107.139 4.12573 0.525016 0
M  V30 1185 H 105.716 3.1139 2.0516 0
M  V30 1186 N 107.901 -0.206675 1.56239 0
M  V30 1187 C 109.147 -0.930218 1.80208 0
M  V30 1188 C 109.48 -1.83387 0.638981 0
M  V30 1189 O 108.755 -1.91119 -0.361066 0
M  V30 1190 C 109.038 -1.75641 3.1436 0
M  V30 1191 C 108.891 -0.878257 4.41142 0
M  V30 1192 C 110.21 -2.73129 3.45092 0
M  V30 1193 H 107.329 -0.336742 0.655571 0
M  V30 1194 H 109.971 -0.198222 1.88963 0
M  V30 1195 H 108.121 -2.38048 3.07027 0
M  V30 1196 H 109.793 -0.269787 4.6051 0
M  V30 1197 H 108.036 -0.184385 4.33408 0
M  V30 1198 H 108.707 -1.49106 5.3148 0
M  V30 1199 H 111.183 -2.20856 3.52649 0
M  V30 1200 H 110.059 -3.28028 4.40101 0
M  V30 1201 H 110.32 -3.51606 2.68003 0
M  V30 1202 N 109.379 -1.50304 -0.473955 0
M  V30 1203 C 110.627 -1.60832 -1.22382 0
M  V30 1204 C 110.948 -0.30939 -1.9253 0
M  V30 1205 O 110.218 0.67296 -1.83978 0
M  V30 1206 H 108.798 -0.592652 -0.454723 0
M  V30 1207 H 111.46 -1.87068 -0.546968 0
M  V30 1208 H 110.556 -2.41803 -1.97327 0
M  V30 1209 N 110.857 0.726932 -1.39834 0
M  V30 1210 C 111.789 1.85147 -1.35104 0
M  V30 1211 C 112.802 1.60736 -0.258392 0
M  V30 1212 O 113.991 1.70821 -0.517931 0
M  V30 1213 C 111.091 3.21332 -1.07697 0
M  V30 1214 C 110.264 3.73033 -2.28396 0
M  V30 1215 C 109.323 4.87802 -1.97322 0
M  V30 1216 O 108.349 5.01043 -2.70083 0
M  V30 1217 N 109.551 5.72768 -0.944273 0
M  V30 1218 H 112.316 1.89706 -2.32017 0
M  V30 1219 H 109.877 0.908006 -1.3404 0
M  V30 1220 H 111.869 3.95691 -0.849144 0
M  V30 1221 H 110.439 3.11992 -0.194909 0
M  V30 1222 H 109.659 2.89934 -2.6708 0
M  V30 1223 H 110.947 4.0431 -3.08887 0
M  V30 1224 H 110.345 5.64669 -0.341427 0
M  V30 1225 H 108.902 6.4716 -0.776346 0
M  V30 1226 N 112.336 1.25143 0.95797 0
M  V30 1227 C 113.584 1.09476 1.69881 0
M  V30 1228 C 113.905 -0.365502 1.91544 0
M  V30 1229 O 113.175 -1.25985 1.50015 0
M  V30 1230 H 111.755 0.402128 0.629525 0
M  V30 1231 H 114.417 1.57214 1.15194 0
M  V30 1232 H 113.513 1.60046 2.6794 0
M  V30 1233 N 113.814 -1.1601 1.06675 0
M  V30 1234 C 114.724 -2.24156 0.692179 0
M  V30 1235 C 115.74 -1.71507 -0.293513 0
M  V30 1236 O 116.916 -2.009 -0.141861 0
M  V30 1237 C 113.981 -3.46587 0.0884131 0
M  V30 1238 C 113.042 -4.14257 1.12646 0
M  V30 1239 C 112.275 -5.30844 0.551416 0
M  V30 1240 O 112.498 -5.66858 -0.634656 0
M  V30 1241 O 111.432 -5.87848 1.29298 0
M  V30 1242 H 115.258 -2.58513 1.59388 0
M  V30 1243 H 112.843 -1.23599 0.83926 0
M  V30 1244 H 114.725 -4.20679 -0.246361 0
M  V30 1245 H 113.4 -3.13994 -0.786712 0
M  V30 1246 H 112.307 -3.42118 1.51348 0
M  V30 1247 H 113.64 -4.50914 1.97325 0
M  V30 1248 N 115.292 -0.849877 -1.32721 0
M  V30 1249 C 116.539 -0.450923 -1.97416 0
M  V30 1250 C 116.867 0.992376 -1.67279 0
M  V30 1251 O 116.122 1.71048 -0.950845 0
M  V30 1252 C 116.421 -0.631272 -3.51781 0
M  V30 1253 C 116.087 -2.04432 -4.01894 0
M  V30 1254 C 114.749 -2.4308 -4.1529 0
M  V30 1255 C 117.101 -2.96679 -4.28522 0
M  V30 1256 C 114.429 -3.73257 -4.52654 0
M  V30 1257 C 116.781 -4.26349 -4.67343 0
M  V30 1258 C 115.445 -4.64939 -4.78945 0
M  V30 1259 H 114.715 -0.165004 -0.722395 0
M  V30 1260 H 117.362 -1.07901 -1.58207 0
M  V30 1261 H 115.667 0.0800767 -3.91718 0
M  V30 1262 H 117.364 -0.302709 -3.99856 0
M  V30 1263 H 113.954 -1.73419 -3.91949 0
M  V30 1264 H 118.138 -2.68054 -4.17685 0
M  V30 1265 H 113.394 -4.02946 -4.59831 0
M  V30 1266 H 117.568 -4.97895 -4.86902 0
M  V30 1267 H 115.195 -5.65855 -5.07654 0
M  V30 1268 N 116.77 1.45427 -0.607355 0
M  V30 1269 C 118.018 2.01841 -0.102253 0
M  V30 1270 C 118.339 1.47832 1.27164 0
M  V30 1271 O 117.609 0.672497 1.83995 0
M  V30 1272 H 116.189 0.746188 -0.0348101 0
M  V30 1273 H 118.851 1.78229 -0.7887 0
M  V30 1274 H 117.947 3.12057 -0.0518585 0
M  V30 1275 N 118.248 0.346503 1.53744 0
M  V30 1276 C 119.496 -0.248612 2.00565 0
M  V30 1277 C 119.817 -1.5083 1.23593 0
M  V30 1278 O 119.087 -1.92858 0.343912 0
M  V30 1279 H 117.667 -0.0948564 0.740953 0
M  V30 1280 H 120.329 0.468341 1.89189 0
M  V30 1281 H 119.425 -0.488994 3.08245 0
M  V30 1282 N 119.726 -1.57421 0.075193 0
M  V30 1283 C 120.689 -2.11791 -0.876203 0
M  V30 1284 C 121.689 -1.04268 -1.22412 0
M  V30 1285 O 122.879 -1.30242 -1.15684 0
M  V30 1286 C 120.011 -2.62207 -2.17854 0
M  V30 1287 H 121.204 -2.9716 -0.40444 0
M  V30 1288 H 118.757 -1.55333 -0.173557 0
M  V30 1289 H 119.492 -1.803 -2.6956 0
M  V30 1290 H 119.277 -3.40802 -1.93897 0
M  V30 1291 H 120.767 -3.04335 -2.85955 0
M  V30 1292 N 121.204 0.198386 -1.56346 0
M  V30 1293 C 122.615 0.763358 -1.70381 0
M  V30 1294 C 122.966 1.83995 -0.681203 0
M  V30 1295 O 122.091 2.15785 0.16305 0
M  V30 1296 C 122.686 1.39143 -3.08909 0
M  V30 1297 C 121.245 1.90352 -3.2472 0
M  V30 1298 C 120.392 0.772233 -2.6633 0
M  V30 1299 H 123.343 -0.0266377 -1.58678 0
M  V30 1300 H 123.364 2.26076 -3.06055 0
M  V30 1301 H 122.876 0.607638 -3.83314 0
M  V30 1302 H 120.977 2.71461 -2.55225 0
M  V30 1303 H 121.09 2.06757 -4.3219 0
M  V30 1304 H 119.454 1.18566 -2.2542 0
M  V30 1305 H 120.237 0.00073556 -3.433 0
M  V30 1306 N 122.682 1.50554 0.465978 0
M  V30 1307 C 123.929 1.61798 1.21768 0
M  V30 1308 C 124.257 0.320696 1.91838 0
M  V30 1309 O 123.512 -0.693724 1.82992 0
M  V30 1310 C 123.811 2.75152 2.28093 0
M  V30 1311 C 123.477 4.15454 1.75239 0
M  V30 1312 C 122.139 4.53628 1.60546 0
M  V30 1313 C 124.491 5.03121 1.36083 0
M  V30 1314 C 121.819 5.77204 1.05128 0
M  V30 1315 C 124.171 6.27249 0.821056 0
M  V30 1316 C 122.835 6.64221 0.660795 0
M  V30 1317 H 122.105 0.592063 0.445582 0
M  V30 1318 H 124.752 1.84503 0.512927 0
M  V30 1319 H 123.057 2.46556 3.04496 0
M  V30 1320 H 124.754 2.81055 2.86023 0
M  V30 1321 H 121.344 3.85341 1.87644 0
M  V30 1322 H 125.528 4.74257 1.46267 0
M  V30 1323 H 120.784 6.0452 0.91462 0
M  V30 1324 H 124.958 6.94537 0.509018 0
M  V30 1325 H 122.585 7.59854 0.229226 0
M  V30 1326 N 124.16 -0.719506 1.40217 0
M  V30 1327 C 125.107 -1.83359 1.40172 0
M  V30 1328 C 126.077 -1.64065 0.259206 0
M  V30 1329 O 127.262 -1.85254 0.456677 0
M  V30 1330 C 124.402 -3.2103 1.26624 0
M  V30 1331 C 123.515 -3.51923 2.50548 0
M  V30 1332 C 122.65 -4.79079 2.29471 0
M  V30 1333 C 121.689 -5.02863 3.48992 0
M  V30 1334 N 120.826 -6.2123 3.27135 0
M  V30 1335 H 125.666 -1.82733 2.35399 0
M  V30 1336 H 123.203 -0.892688 1.16917 0
M  V30 1337 H 125.161 -4.00524 1.16776 0
M  V30 1338 H 123.791 -3.20895 0.350176 0
M  V30 1339 H 122.843 -2.67014 2.70939 0
M  V30 1340 H 124.155 -3.6541 3.39525 0
M  V30 1341 H 123.309 -5.66582 2.16955 0
M  V30 1342 H 122.048 -4.67794 1.37913 0
M  V30 1343 H 121.053 -4.13816 3.6199 0
M  V30 1344 H 122.278 -5.16023 4.41472 0
M  V30 1345 H 120.224 -6.11204 2.38256 0
M  V30 1346 H 120.141 -6.35375 4.09675 0
M  V30 1347 H 121.409 -7.11532 3.18344 0
M  V30 1348 N 125.638 -1.25649 -0.95132 0
M  V30 1349 C 127.054 -1.02542 -1.223 0
M  V30 1350 C 127.254 0.255715 -1.99871 0
M  V30 1351 O 126.31 0.967558 -2.33226 0
M  V30 1352 C 127.623 -2.25065 -1.99415 0
M  V30 1353 C 129.171 -2.29861 -2.12446 0
M  V30 1354 C 129.646 -3.52048 -2.92961 0
M  V30 1355 N 131.137 -3.52465 -3.00538 0
M  V30 1356 C 131.872 -4.43672 -3.63239 0
M  V30 1357 N 131.368 -5.45157 -4.27523 0
M  V30 1358 N 133.161 -4.31346 -3.60412 0
M  V30 1359 H 125.312 -2.07951 -0.432471 0
M  V30 1360 H 127.575 -0.91339 -0.253816 0
M  V30 1361 H 127.281 -3.18194 -1.49817 0
M  V30 1362 H 127.155 -2.28502 -3.00111 0
M  V30 1363 H 129.542 -1.37252 -2.61239 0
M  V30 1364 H 129.623 -2.3044 -1.11044 0
M  V30 1365 H 129.267 -4.44981 -2.44856 0
M  V30 1366 H 129.197 -3.48715 -3.94596 0
M  V30 1367 H 131.688 -2.79056 -2.54826 0
M  V30 1368 H 132.001 -6.10958 -4.73234 0
M  V30 1369 H 130.346 -5.49025 -4.26141 0
M  V30 1370 H 133.537 -3.51288 -3.09377 0
M  V30 1371 H 133.71 -5.02624 -4.0899 0
M  V30 1372 N 127.117 1.15442 -1.07289 0
M  V30 1373 C 128.364 1.86213 -0.795668 0
M  V30 1374 C 128.692 1.82291 0.678238 0
M  V30 1375 O 127.947 1.24057 1.51355 0
M  V30 1376 C 128.246 3.3489 -1.24834 0
M  V30 1377 C 127.912 3.59007 -2.72809 0
M  V30 1378 C 126.574 3.65298 -3.13227 0
M  V30 1379 C 128.926 3.68762 -3.68326 0
M  V30 1380 C 126.254 3.78854 -4.4798 0
M  V30 1381 C 128.606 3.83842 -5.0284 0
M  V30 1382 C 127.27 3.88378 -5.4288 0
M  V30 1383 H 126.54 0.681403 -0.291155 0
M  V30 1384 H 129.187 1.36435 -1.34379 0
M  V30 1385 H 127.492 3.8687 -0.619595 0
M  V30 1386 H 129.189 3.88052 -1.01076 0
M  V30 1387 H 125.779 3.5475 -2.40521 0
M  V30 1388 H 129.963 3.63202 -3.38227 0
M  V30 1389 H 125.219 3.80623 -4.78472 0
M  V30 1390 H 129.393 3.90332 -5.76727 0
M  V30 1391 H 127.02 3.98635 -6.47298 0
M  V30 1392 N 128.595 0.856903 1.32268 0
M  V30 1393 C 129.525 0.31858 2.31316 0
M  V30 1394 C 130.506 -0.583487 1.59779 0
M  V30 1395 O 131.691 -0.503259 1.87566 0
M  V30 1396 C 128.821 -0.491979 3.43798 0
M  V30 1397 C 127.775 0.315849 4.26833 0
M  V30 1398 C 127.101 -0.619586 5.31098 0
M  V30 1399 C 128.401 1.54282 4.98993 0
M  V30 1400 H 130.095 1.14621 2.76591 0
M  V30 1401 H 127.641 0.552613 1.32974 0
M  V30 1402 H 129.594 -0.879012 4.1213 0
M  V30 1403 H 128.318 -1.35299 2.97257 0
M  V30 1404 H 126.977 0.684664 3.6015 0
M  V30 1405 H 126.625 -1.47751 4.8081 0
M  V30 1406 H 126.325 -0.0830621 5.87541 0
M  V30 1407 H 127.849 -1.00375 6.02293 0
M  V30 1408 H 129.263 1.22796 5.59995 0
M  V30 1409 H 127.66 2.01745 5.65172 0
M  V30 1410 H 128.73 2.30285 4.26728 0
M  V30 1411 N 130.073 -1.45103 0.615059 0
M  V30 1412 C 131.489 -1.57137 0.279322 0
M  V30 1413 C 131.689 -1.60523 -1.21797 0
M  V30 1414 O 130.745 -1.53956 -2.00134 0
M  V30 1415 C 132.058 -2.85062 0.957083 0
M  V30 1416 C 133.606 -2.98749 0.933706 0
M  V30 1417 C 134.081 -4.29455 1.59162 0
M  V30 1418 N 135.572 -4.36231 1.55746 0
M  V30 1419 C 136.307 -5.36051 2.0356 0
M  V30 1420 N 135.803 -6.42367 2.59494 0
M  V30 1421 N 137.596 -5.27456 1.94284 0
M  V30 1422 H 129.747 -1.41148 1.58717 0
M  V30 1423 H 132.01 -0.675331 0.665306 0
M  V30 1424 H 131.716 -2.88488 2.01166 0
M  V30 1425 H 131.59 -3.7407 0.48494 0
M  V30 1426 H 133.977 -2.94886 -0.112347 0
M  V30 1427 H 134.058 -2.11132 1.44419 0
M  V30 1428 H 133.702 -4.34077 2.63704 0
M  V30 1429 H 133.632 -5.15901 1.0561 0
M  V30 1430 H 136.123 -3.60011 1.14893 0
M  V30 1431 H 136.436 -7.14793 2.93752 0
M  V30 1432 H 134.781 -6.43097 2.63537 0
M  V30 1433 H 137.972 -4.43308 1.5032 0
M  V30 1434 H 138.145 -6.05099 2.3186 0
M  V30 1435 N 131.551 -0.354651 -1.53558 0
M  V30 1436 C 132.799 0.237972 -2.00694 0
M  V30 1437 C 133.12 1.50173 -1.24391 0
M  V30 1438 O 132.39 1.92673 -0.354135 0
M  V30 1439 H 130.97 0.0909256 -0.741446 0
M  V30 1440 H 133.632 -0.478368 -1.88938 0
M  V30 1441 H 132.728 0.47264 -3.085 0
M  V30 1442 N 133.029 1.57378 -0.0835403 0
M  V30 1443 C 134.257 1.98263 0.59157 0
M  V30 1444 C 134.672 0.962302 1.62435 0
M  V30 1445 O 134.029 -0.049581 1.82433 0
M  V30 1446 C 134.08 3.39214 1.24965 0
M  V30 1447 O 133.801 4.37339 0.258186 0
M  V30 1448 C 135.302 3.95038 2.01147 0
M  V30 1449 H 132.522 0.651773 0.159477 0
M  V30 1450 H 135.066 2.03878 -0.159415 0
M  V30 1451 H 133.221 3.34649 1.95164 0
M  V30 1452 H 133.635 5.19371 0.731734 0
M  V30 1453 H 135.109 4.95848 2.42567 0
M  V30 1454 H 135.586 3.32222 2.87272 0
M  V30 1455 H 136.192 4.0304 1.35789 0
M  V30 1456 N 134.507 -0.190092 1.56449 0
M  V30 1457 C 135.923 -0.54113 1.50146 0
M  V30 1458 C 136.123 -1.85603 0.784465 0
M  V30 1459 O 135.179 -2.5024 0.337051 0
M  V30 1460 C 136.492 -0.591241 2.9483 0
M  V30 1461 C 138.04 -0.679732 3.0553 0
M  V30 1462 C 138.515 -0.760908 4.51635 0
M  V30 1463 N 140.006 -0.824302 4.55806 0
M  V30 1464 C 140.741 -0.907365 5.66175 0
M  V30 1465 N 140.237 -0.952422 6.86222 0
M  V30 1466 N 142.03 -0.94494 5.541 0
M  V30 1467 H 134.181 0.67235 2.01478 0
M  V30 1468 H 136.444 0.240127 0.917084 0
M  V30 1469 H 136.15 0.305905 3.50367 0
M  V30 1470 H 136.024 -1.44422 3.48457 0
M  V30 1471 H 138.411 -1.56731 2.50039 0
M  V30 1472 H 138.492 0.199549 2.5502 0
M  V30 1473 H 138.136 0.122336 5.07753 0
M  V30 1474 H 138.066 -1.65606 4.99882 0
M  V30 1475 H 140.557 -0.798526 3.69367 0
M  V30 1476 H 140.87 -1.01645 7.66086 0
M  V30 1477 H 139.215 -0.921014 6.8887 0
M  V30 1478 H 142.406 -0.906612 4.59236 0
M  V30 1479 H 142.579 -1.00622 6.4014 0
M  V30 1480 N 135.985 -1.50799 -0.457987 0
M  V30 1481 C 137.234 -1.6168 -1.20593 0
M  V30 1482 C 137.547 -0.32888 -1.92815 0
M  V30 1483 O 138.753 -0.316773 -2.69646 0
M  V30 1484 C 137.209 -2.8545 -2.19195 0
M  V30 1485 C 136.817 -4.21168 -1.52715 0
M  V30 1486 C 138.561 -3.05681 -2.94549 0
M  V30 1487 C 136.468 -5.3611 -2.4968 0
M  V30 1488 H 135.398 -0.602134 -0.453818 0
M  V30 1489 H 138.049 -1.77245 -0.475031 0
M  V30 1490 H 136.431 -2.63472 -2.95632 0
M  V30 1491 H 137.605 -4.53449 -0.819775 0
M  V30 1492 H 135.92 -4.06648 -0.895922 0
M  V30 1493 H 138.517 -3.88727 -3.67145 0
M  V30 1494 H 138.86 -2.17929 -3.54701 0
M  V30 1495 H 139.393 -3.27901 -2.25223 0
M  V30 1496 H 136.132 -6.26057 -1.94249 0
M  V30 1497 H 135.652 -5.0823 -3.18532 0
M  V30 1498 H 137.331 -5.6722 -3.11241 0
M  V30 1499 N 137.463 0.71206 -1.40597 0
M  V30 1500 C 138.709 1.47416 -1.39271 0
M  V30 1501 C 139.042 1.942 0.00388791 0
M  V30 1502 O 138.317 1.68403 0.973179 0
M  V30 1503 C 138.6 2.69774 -2.38525 0
M  V30 1504 C 138.453 2.28861 -3.87224 0
M  V30 1505 C 139.772 3.71939 -2.35264 0
M  V30 1506 H 136.891 0.534713 -0.5072 0
M  V30 1507 H 139.533 0.812375 -1.71757 0
M  V30 1508 H 137.683 3.26238 -2.10953 0
M  V30 1509 H 139.355 1.77852 -4.25636 0
M  V30 1510 H 137.598 1.60824 -4.02887 0
M  V30 1511 H 138.269 3.16584 -4.52193 0
M  V30 1512 H 140.745 3.25113 -2.59694 0
M  V30 1513 H 139.621 4.55186 -3.06753 0
M  V30 1514 H 139.882 4.20484 -1.36549 0
M  V30 1515 N 138.941 1.26152 0.944643 0
M  V30 1516 C 140.166 1.14363 1.7302 0
M  V30 1517 C 140.591 -0.29772 1.85729 0
M  V30 1518 O 139.949 -1.2157 1.34501 0
M  V30 1519 C 139.997 1.81378 3.11664 0
M  V30 1520 O 139.101 1.10022 3.97453 0
M  V30 1521 H 138.442 0.398694 0.53098 0
M  V30 1522 H 140.972 1.66906 1.18337 0
M  V30 1523 H 140.982 1.88064 3.62072 0
M  V30 1524 H 139.657 2.86237 3.0173 0
M  V30 1525 H 138.234 1.11287 3.55907 0
M  V30 1526 N 140.419 -1.14872 1.07899 0
M  V30 1527 C 141.667 -1.85422 0.803941 0
M  V30 1528 C 141.988 -1.83051 -0.67211 0
M  V30 1529 O 141.258 -1.27532 -1.48703 0
M  V30 1530 H 139.838 -0.686537 0.294408 0
M  V30 1531 H 142.5 -1.39226 1.3639 0
M  V30 1532 H 141.596 -2.90399 1.14346 0
M  V30 1533 N 141.898 -0.863906 -1.31812 0
M  V30 1534 C 143.146 -0.470904 -1.96537 0
M  V30 1535 C 143.467 0.978771 -1.68657 0
M  V30 1536 O 142.737 1.6853 -0.998717 0
M  V30 1537 H 141.317 -0.171148 -0.72713 0
M  V30 1538 H 143.979 -1.10236 -1.60729 0
M  V30 1539 H 143.075 -0.623616 -3.05806 0
M  V30 1540 N 143.376 1.44774 -0.622745 0
M  V30 1541 C 144.323 2.30635 0.0871679 0
M  V30 1542 C 145.293 1.42994 0.845097 0
M  V30 1543 O 146.478 1.71907 0.827812 0
M  V30 1544 C 143.618 3.28144 1.06844 0
M  V30 1545 C 142.731 4.30888 0.309809 0
M  V30 1546 C 141.866 5.15494 1.28215 0
M  V30 1547 C 140.905 6.09953 0.512198 0
M  V30 1548 N 140.042 6.87287 1.43458 0
M  V30 1549 H 144.882 2.90803 -0.650974 0
M  V30 1550 H 142.419 1.43286 -0.33281 0
M  V30 1551 H 144.377 3.83157 1.65066 0
M  V30 1552 H 143.007 2.69695 1.77382 0
M  V30 1553 H 142.059 3.78414 -0.388181 0
M  V30 1554 H 143.371 4.97955 -0.290254 0
M  V30 1555 H 142.525 5.74983 1.93596 0
M  V30 1556 H 141.264 4.48481 1.91614 0
M  V30 1557 H 140.269 5.49581 -0.155151 0
M  V30 1558 H 141.494 6.78999 -0.116958 0
M  V30 1559 H 139.44 6.2295 2.05594 0
M  V30 1560 H 139.357 7.50763 0.888335 0
M  V30 1561 H 140.625 7.51306 2.07749 0
M  V30 1562 N 144.854 0.36279 1.53368 0
M  V30 1563 C 145.784 -0.476976 2.28576 0
M  V30 1564 C 146.765 -1.08631 1.30894 0
M  V30 1565 O 147.95 -1.10409 1.59761 0
M  V30 1566 C 145.08 -1.61828 3.07293 0
M  V30 1567 C 144.034 -1.13633 4.1264 0
M  V30 1568 C 143.36 -2.36766 4.79423 0
M  V30 1569 C 144.66 -0.223061 5.21823 0
M  V30 1570 H 146.354 0.150474 2.99022 0
M  V30 1571 H 143.9 0.0738103 1.43811 0
M  V30 1572 H 145.853 -2.21237 3.58653 0
M  V30 1573 H 144.577 -2.27292 2.34533 0
M  V30 1574 H 143.236 -0.564945 3.62221 0
M  V30 1575 H 142.884 -3.0068 4.03238 0
M  V30 1576 H 142.584 -2.05192 5.50609 0
M  V30 1577 H 144.108 -2.96865 5.33576 0
M  V30 1578 H 145.522 -0.724545 5.68703 0
M  V30 1579 H 143.919 0.001678 6.001 0
M  V30 1580 H 144.989 0.735553 4.79289 0
M  V30 1581 N 146.332 -1.57332 0.0918853 0
M  V30 1582 C 147.279 -2.13847 -0.868211 0
M  V30 1583 C 148.249 -1.05618 -1.28196 0
M  V30 1584 O 149.434 -1.33387 -1.36427 0
M  V30 1585 C 146.574 -2.72062 -2.12312 0
M  V30 1586 C 145.687 -3.94514 -1.7602 0
M  V30 1587 C 144.822 -4.40903 -2.96273 0
M  V30 1588 C 143.861 -5.55953 -2.56092 0
M  V30 1589 N 142.998 -5.97209 -3.69169 0
M  V30 1590 H 147.838 -2.95575 -0.379406 0
M  V30 1591 H 145.375 -1.46048 -0.175606 0
M  V30 1592 H 147.333 -3.03931 -2.858 0
M  V30 1593 H 145.963 -1.93068 -2.58698 0
M  V30 1594 H 145.015 -3.68979 -0.925135 0
M  V30 1595 H 146.327 -4.7802 -1.42472 0
M  V30 1596 H 145.481 -4.74539 -3.78018 0
M  V30 1597 H 144.22 -3.56291 -3.33029 0
M  V30 1598 H 143.225 -5.21948 -1.72773 0
M  V30 1599 H 144.45 -6.42311 -2.20484 0
M  V30 1600 H 142.396 -5.15543 -4.05649 0
M  V30 1601 H 142.313 -6.75504 -3.39456 0
M  V30 1602 H 143.581 -6.35475 -4.51434 0
M  V30 1603 N 147.81 0.181792 -1.56548 0
M  V30 1604 C 149.226 0.53316 -1.50431 0
M  V30 1605 C 149.426 1.85184 -0.794297 0
M  V30 1606 O 148.482 2.50058 -0.350318 0
M  V30 1607 C 149.795 0.575597 -2.9514 0
M  V30 1608 C 151.343 0.663519 -3.05886 0
M  V30 1609 C 151.818 0.736946 -4.52032 0
M  V30 1610 N 153.309 0.800118 -4.56237 0
M  V30 1611 C 154.044 0.877327 -5.66649 0
M  V30 1612 N 153.54 0.916016 -6.86718 0
M  V30 1613 N 155.333 0.915542 -5.54594 0
M  V30 1614 H 147.484 -0.683025 -2.01118 0
M  V30 1615 H 149.747 -0.244988 -0.915797 0
M  V30 1616 H 149.453 -0.324482 -3.502 0
M  V30 1617 H 149.327 1.42572 -3.49218 0
M  V30 1618 H 151.714 1.55403 -2.50867 0
M  V30 1619 H 151.795 -0.21307 -2.54911 0
M  V30 1620 H 151.439 -0.149262 -5.07681 0
M  V30 1621 H 151.369 1.62953 -5.00753 0
M  V30 1622 H 153.86 0.778926 -3.69785 0
M  V30 1623 H 154.173 0.975813 -7.66614 0
M  V30 1624 H 152.518 0.884469 -6.89349 0
M  V30 1625 H 155.709 0.882245 -4.59711 0
M  V30 1626 H 155.882 0.972253 -6.40665 0
M  V30 1627 N 149.288 1.51039 0.449983 0
M  V30 1628 C 150.221 1.66105 1.56474 0
M  V30 1629 C 151.199 0.508776 1.54435 0
M  V30 1630 O 152.383 0.731005 1.73749 0
M  V30 1631 C 149.51 1.66304 2.9506 0
M  V30 1632 C 148.556 2.87346 3.15174 0
M  V30 1633 S 149.389 4.4835 2.92818 0
M  V30 1634 C 150.545 4.51274 4.33708 0
M  V30 1635 H 150.778 2.60397 1.43459 0
M  V30 1636 H 148.311 1.40565 0.638805 0
M  V30 1637 H 150.269 1.67103 3.74949 0
M  V30 1638 H 148.93 0.732108 3.05449 0
M  V30 1639 H 148.123 2.83849 4.16468 0
M  V30 1640 H 147.725 2.84223 2.43091 0
M  V30 1641 H 150.017 4.26136 5.26701 0
M  V30 1642 H 150.96 5.53017 4.42242 0
M  V30 1643 H 151.368 3.80738 4.16772 0
M  V30 1644 N 150.766 -0.704594 1.40972 0
M  V30 1645 C 151.994 -1.49354 1.43182 0
M  V30 1646 C 152.409 -1.88768 0.0345508 0
M  V30 1647 O 151.766 -1.56184 -0.944081 0
M  V30 1648 C 151.817 -2.76187 2.33244 0
M  V30 1649 O 151.538 -2.38436 3.67532 0
M  V30 1650 C 153.039 -3.7 2.44162 0
M  V30 1651 H 150.259 -0.460559 0.487982 0
M  V30 1652 H 152.803 -0.868261 1.85153 0
M  V30 1653 H 150.958 -3.34974 1.94606 0
M  V30 1654 H 151.372 -3.20126 4.15475 0
M  V30 1655 H 152.846 -4.55803 3.11364 0
M  V30 1656 H 153.323 -4.13867 1.47006 0
M  V30 1657 H 153.929 -3.17121 2.83398 0
M  V30 1658 N 152.244 -1.26651 -0.937939 0
M  V30 1659 C 153.66 -1.03834 -1.21205 0
M  V30 1660 C 153.86 0.234502 -2.00131 0
M  V30 1661 O 152.916 0.942767 -2.3424 0
M  V30 1662 C 154.229 -2.27167 -1.97017 0
M  V30 1663 C 155.777 -2.32101 -2.09996 0
M  V30 1664 C 156.252 -3.55136 -2.8921 0
M  V30 1665 N 157.743 -3.55632 -2.96783 0
M  V30 1666 C 158.478 -4.475 -3.58512 0
M  V30 1667 N 157.974 -5.4966 -4.21717 0
M  V30 1668 N 159.767 -4.35145 -3.55816 0
M  V30 1669 H 151.918 -2.08398 -0.410391 0
M  V30 1670 H 154.181 -0.916031 -0.244114 0
M  V30 1671 H 153.887 -3.19765 -1.46434 0
M  V30 1672 H 153.761 -2.31672 -2.97671 0
M  V30 1673 H 156.148 -1.40015 -2.59769 0
M  V30 1674 H 156.229 -2.31605 -1.08594 0
M  V30 1675 H 155.873 -4.47553 -2.40123 0
M  V30 1676 H 155.803 -3.5288 -3.90875 0
M  V30 1677 H 158.294 -2.81743 -2.51852 0
M  V30 1678 H 158.607 -6.15943 -4.66727 0
M  V30 1679 H 156.952 -5.53514 -4.20294 0
M  V30 1680 H 160.143 -3.5455 -3.05634 0
M  V30 1681 H 160.316 -5.06934 -4.03636 0
M  V30 1682 N 153.722 1.14298 -1.08507 0
M  V30 1683 C 154.632 2.23027 -0.727753 0
M  V30 1684 C 155.648 1.71952 0.26619 0
M  V30 1685 O 156.824 2.011 0.109882 0
M  V30 1686 C 153.889 3.46403 -0.143541 0
M  V30 1687 C 152.95 4.12413 -1.19223 0
M  V30 1688 C 152.183 5.29899 -0.635798 0
M  V30 1689 O 152.406 5.67796 0.544393 0
M  V30 1690 O 151.34 5.85717 -1.38634 0
M  V30 1691 H 155.166 2.55945 -1.63481 0
M  V30 1692 H 152.751 1.22248 -0.858817 0
M  V30 1693 H 154.633 4.21018 0.179404 0
M  V30 1694 H 153.308 3.15206 0.736659 0
M  V30 1695 H 152.215 3.39667 -1.56772 0
M  V30 1696 H 153.548 4.47718 -2.04474 0
M  V30 1697 N 155.201 0.870884 1.31352 0
M  V30 1698 C 156.148 0.325425 2.28494 0
M  V30 1699 C 157.118 -0.576615 1.5577 0
M  V30 1700 O 158.303 -0.508059 1.83911 0
M  V30 1701 C 155.443 -0.466283 3.41935 0
M  V30 1702 C 154.556 0.463378 4.29508 0
M  V30 1703 C 153.691 -0.342544 5.30094 0
M  V30 1704 C 152.73 0.583486 6.09313 0
M  V30 1705 N 151.867 -0.186244 7.01853 0
M  V30 1706 H 156.707 1.15901 2.74538 0
M  V30 1707 H 154.244 0.58294 1.35056 0
M  V30 1708 H 156.202 -0.941085 4.06447 0
M  V30 1709 H 154.832 -1.26456 2.97 0
M  V30 1710 H 153.884 1.05663 3.65431 0
M  V30 1711 H 155.196 1.1734 4.84802 0
M  V30 1712 H 154.35 -0.879816 6.00287 0
M  V30 1713 H 153.089 -1.08585 4.75458 0
M  V30 1714 H 152.094 1.13251 5.3801 0
M  V30 1715 H 153.319 1.32566 6.66035 0
M  V30 1716 H 151.265 -0.912348 6.49625 0
M  V30 1717 H 151.182 0.464422 7.54572 0
M  V30 1718 H 152.45 -0.704716 7.76308 0
M  V30 1719 N 156.679 -1.44442 0.630414 0
M  V30 1720 C 157.642 -2.29107 -0.0652523 0
M  V30 1721 C 158.642 -1.41002 -0.772995 0
M  V30 1722 O 159.832 -1.62881 -0.617692 0
M  V30 1723 C 156.964 -3.22564 -1.10296 0
M  V30 1724 H 158.157 -2.92103 0.679401 0
M  V30 1725 H 155.71 -1.51343 0.390517 0
M  V30 1726 H 156.445 -2.64416 -1.87762 0
M  V30 1727 H 156.23 -3.87491 -0.59941 0
M  V30 1728 H 157.72 -3.86167 -1.5895 0
M  V30 1729 N 158.157 -0.370918 -1.53173 0
M  V30 1730 C 159.104 0.473035 -2.259 0
M  V30 1731 C 160.074 1.07311 -1.26781 0
M  V30 1732 O 161.259 1.1046 -1.55574 0
M  V30 1733 C 158.399 1.60405 -3.05556 0
M  V30 1734 C 157.512 1.02863 -4.19575 0
M  V30 1735 C 156.647 2.12918 -4.86661 0
M  V30 1736 C 155.686 1.52869 -5.92704 0
M  V30 1737 N 154.823 2.56779 -6.53459 0
M  V30 1738 H 159.663 -0.153649 -2.97604 0
M  V30 1739 H 157.2 -0.0875946 -1.46839 0
M  V30 1740 H 159.158 2.27034 -3.50016 0
M  V30 1741 H 157.788 2.20131 -2.36097 0
M  V30 1742 H 156.84 0.252465 -3.79561 0
M  V30 1743 H 158.152 0.549642 -4.95762 0
M  V30 1744 H 157.306 2.87356 -5.34333 0
M  V30 1745 H 156.045 2.6417 -4.09958 0
M  V30 1746 H 155.05 0.769479 -5.44389 0
M  V30 1747 H 156.275 1.02435 -6.7133 0
M  V30 1748 H 154.221 3.07235 -5.79606 0
M  V30 1749 H 154.138 2.13583 -7.25202 0
M  V30 1750 H 155.406 3.30903 -7.05779 0
M  V30 1751 N 159.635 1.57281 -0.100228 0
M  V30 1752 C 160.567 2.11342 0.886972 0
M  V30 1753 C 161.58 1.05182 1.24261 0
M  V30 1754 O 162.769 1.32613 1.19483 0
M  V30 1755 C 159.869 2.5825 2.19454 0
M  V30 1756 C 159.042 3.88302 2.01346 0
M  V30 1757 C 158.101 4.21004 3.15661 0
M  V30 1758 O 157.127 4.9014 2.89398 0
M  V30 1759 N 158.329 3.76818 4.41575 0
M  V30 1760 H 161.094 2.96668 0.425216 0
M  V30 1761 H 158.655 1.61678 0.0847334 0
M  V30 1762 H 160.647 2.7717 2.94888 0
M  V30 1763 H 159.217 1.77907 2.57037 0
M  V30 1764 H 158.437 3.7848 1.10212 0
M  V30 1765 H 159.725 4.73375 1.8653 0
M  V30 1766 H 159.123 3.2102 4.65792 0
M  V30 1767 H 157.68 4.00882 5.13942 0
M  V30 1768 N 161.113 -0.173488 1.56642 0
M  V30 1769 C 162.359 -0.891784 1.8214 0
M  V30 1770 C 162.692 -1.8199 0.677736 0
M  V30 1771 O 161.967 -1.91842 -0.320446 0
M  V30 1772 C 162.25 -1.68933 3.18015 0
M  V30 1773 C 162.103 -0.784487 4.42906 0
M  V30 1774 C 163.422 -2.65748 3.50808 0
M  V30 1775 H 160.541 -0.322761 0.662567 0
M  V30 1776 H 163.183 -0.158095 1.89341 0
M  V30 1777 H 161.333 -2.31482 3.12007 0
M  V30 1778 H 163.005 -0.172046 4.60979 0
M  V30 1779 H 161.248 -0.0924117 4.33702 0
M  V30 1780 H 161.919 -1.37799 5.34524 0
M  V30 1781 H 164.395 -2.13327 3.57255 0
M  V30 1782 H 163.271 -3.18619 4.4696 0
M  V30 1783 H 163.532 -3.45842 2.75401 0
M  V30 1784 N 162.591 -1.51276 -0.441967 0
M  V30 1785 C 163.819 -1.67516 -1.21434 0
M  V30 1786 C 164.234 -0.37055 -1.85128 0
M  V30 1787 O 163.591 0.650498 -1.70513 0
M  V30 1788 C 163.642 -2.78748 -2.30177 0
M  V30 1789 O 163.363 -4.04154 -1.69089 0
M  V30 1790 C 164.864 -3.06217 -3.20541 0
M  V30 1791 H 162.084 -0.562276 -0.366178 0
M  V30 1792 H 164.628 -1.97666 -0.524244 0
M  V30 1793 H 162.783 -2.5121 -2.94911 0
M  V30 1794 H 163.197 -4.65894 -2.40922 0
M  V30 1795 H 164.671 -3.8764 -3.92987 0
M  V30 1796 H 165.148 -2.18439 -3.81026 0
M  V30 1797 H 165.754 -3.35397 -2.61513 0
M  V30 1798 N 164.069 0.697108 -1.41344 0
M  V30 1799 C 165.315 1.4593 -1.40827 0
M  V30 1800 C 165.648 1.94193 -0.0167098 0
M  V30 1801 O 164.923 1.69425 0.955263 0
M  V30 1802 C 165.206 2.67229 -2.41373 0
M  V30 1803 C 165.059 2.24741 -3.8963 0
M  V30 1804 C 166.378 3.69423 -2.39196 0
M  V30 1805 H 163.497 0.529303 -0.512842 0
M  V30 1806 H 166.139 0.794112 -1.72609 0
M  V30 1807 H 164.289 3.23982 -2.14401 0
M  V30 1808 H 165.961 1.73327 -4.27499 0
M  V30 1809 H 164.204 1.56542 -4.0457 0
M  V30 1810 H 164.875 3.1177 -4.55525 0
M  V30 1811 H 167.351 3.2234 -2.63128 0
M  V30 1812 H 166.227 4.51907 -3.11563 0
M  V30 1813 H 166.488 4.19012 -1.41001 0
M  V30 1814 N 165.547 1.27147 0.931209 0
M  V30 1815 C 166.51 1.09615 2.01289 0
M  V30 1816 C 167.51 0.0412581 1.60747 0
M  V30 1817 O 168.7 0.285545 1.71844 0
M  V30 1818 C 165.832 0.669447 3.34262 0
M  V30 1819 H 167.025 2.05662 2.18273 0
M  V30 1820 H 164.578 1.09885 1.11153 0
M  V30 1821 H 165.313 -0.292572 3.22978 0
M  V30 1822 H 165.098 1.43127 3.65044 0
M  V30 1823 H 166.588 0.568921 4.13706 0
M  V30 1824 N 167.025 -1.13721 1.09112 0
M  V30 1825 C 168.273 -1.84559 0.823562 0
M  V30 1826 C 168.594 -1.83754 -0.652658 0
M  V30 1827 O 167.864 -1.29102 -1.47342 0
M  V30 1828 H 166.444 -0.683376 0.301673 0
M  V30 1829 H 169.106 -1.37771 1.37859 0
M  V30 1830 H 168.202 -2.8917 1.17419 0
M  V30 1831 N 168.503 -0.877838 -1.30888 0
M  V30 1832 C 169.749 -0.493426 -1.96706 0
M  V30 1833 C 170.082 0.953504 -1.6918 0
M  V30 1834 O 169.357 1.67266 -0.992594 0
M  V30 1835 C 169.64 -0.760429 -3.51979 0
M  V30 1836 C 169.493 -2.25747 -3.89048 0
M  V30 1837 C 170.812 -0.232148 -4.39487 0
M  V30 1838 H 167.931 -0.180746 -0.714493 0
M  V30 1839 H 170.573 -1.10052 -1.54882 0
M  V30 1840 H 168.723 -0.243715 -3.87735 0
M  V30 1841 H 170.395 -2.84204 -3.63354 0
M  V30 1842 H 168.638 -2.72694 -3.37373 0
M  V30 1843 H 169.309 -2.39491 -4.97341 0
M  V30 1844 H 171.785 -0.674314 -4.106 0
M  V30 1845 H 170.661 -0.448355 -5.47066 0
M  V30 1846 H 170.922 0.866297 -4.33529 0
M  V30 1847 N 169.982 1.44106 -0.638065 0
M  V30 1848 C 171.393 1.85316 -0.226894 0
M  V30 1849 C 171.744 1.53399 1.22324 0
M  V30 1850 O 170.869 0.975463 1.93167 0
M  V30 1851 C 171.464 3.3637 -0.405013 0
M  V30 1852 C 170.023 3.76369 -0.0482902 0
M  V30 1853 C 169.17 2.67921 -0.715108 0
M  V30 1854 H 172.121 1.34474 -0.842764 0
M  V30 1855 H 172.142 3.7885 0.354 0
M  V30 1856 H 171.654 3.59569 -1.46053 0
M  V30 1857 H 169.755 3.58784 1.00522 0
M  V30 1858 H 169.868 4.76856 -0.463187 0
M  V30 1859 H 168.232 2.54259 -0.149753 0
M  V30 1860 H 169.015 2.93951 -1.77335 0
M  V30 1861 N 171.46 0.379036 1.52974 0
M  V30 1862 C 172.393 -0.504932 2.22544 0
M  V30 1863 C 173.371 -1.0723 1.22231 0
M  V30 1864 O 174.555 -1.12589 1.51182 0
M  V30 1865 C 171.682 -1.69794 2.93066 0
M  V30 1866 C 170.728 -1.25678 4.07563 0
M  V30 1867 S 171.561 -0.246852 5.34931 0
M  V30 1868 C 172.717 -1.44588 6.08971 0
M  V30 1869 H 172.95 0.0858666 2.97176 0
M  V30 1870 H 170.483 0.163183 1.53535 0
M  V30 1871 H 172.441 -2.38219 3.34308 0
M  V30 1872 H 171.102 -2.26002 2.18133 0
M  V30 1873 H 170.295 -2.14725 4.5597 0
M  V30 1874 H 169.897 -0.651584 3.6828 0
M  V30 1875 H 172.189 -2.37469 6.34519 0
M  V30 1876 H 173.132 -1.00292 7.00962 0
M  V30 1877 H 173.54 -1.65804 5.39601 0
M  V30 1878 N 172.938 -1.57226 0.108567 0
M  V30 1879 C 174.349 -1.8195 -0.418464 0
M  V30 1880 C 174.7 -1.02508 -1.67292 0
M  V30 1881 O 173.825 -0.258496 -2.14851 0
M  V30 1882 C 174.42 -3.30028 -0.765979 0
M  V30 1883 C 172.979 -3.55469 -1.23769 0
M  V30 1884 C 172.126 -2.7625 -0.241106 0
M  V30 1885 H 175.077 -1.55149 0.33384 0
M  V30 1886 H 175.098 -3.44086 -1.62434 0
M  V30 1887 H 174.61 -3.87821 0.147219 0
M  V30 1888 H 172.711 -3.03022 -2.16814 0
M  V30 1889 H 172.824 -4.6408 -1.19022 0
M  V30 1890 H 171.188 -2.44133 -0.72602 0
M  V30 1891 H 171.971 -3.36797 0.665007 0
M  V30 1892 N 174.416 0.165178 -1.56732 0
M  V30 1893 C 175.832 0.517174 -1.50988 0
M  V30 1894 C 176.032 1.84331 -0.813894 0
M  V30 1895 O 175.088 2.49672 -0.37682 0
M  V30 1896 C 176.401 0.544261 -2.95733 0
M  V30 1897 C 177.949 0.631039 -3.06573 0
M  V30 1898 C 178.424 0.68896 -4.52788 0
M  V30 1899 N 179.915 0.751683 -4.5706 0
M  V30 1900 C 180.65 0.817177 -5.67547 0
M  V30 1901 N 180.146 0.843129 -6.8765 0
M  V30 1902 N 181.939 0.856668 -5.55534 0
M  V30 1903 H 174.09 -0.704318 -2.00382 0
M  V30 1904 H 176.353 -0.254687 -0.913148 0
M  V30 1905 H 176.059 -0.361607 -3.49836 0
M  V30 1906 H 175.933 1.3886 -3.5071 0
M  V30 1907 H 178.32 1.52733 -2.52501 0
M  V30 1908 H 178.401 -0.240095 -2.54671 0
M  V30 1909 H 178.045 -0.2031 -5.07494 0
M  V30 1910 H 177.975 1.57633 -5.02454 0
M  V30 1911 H 180.466 0.739661 -3.70591 0
M  V30 1912 H 180.779 0.894448 -7.67606 0
M  V30 1913 H 179.124 0.811304 -6.90248 0
M  V30 1914 H 182.315 0.833437 -4.60621 0
M  V30 1915 H 182.488 0.904247 -6.4166 0
M  V30 1916 N 175.894 1.51508 0.433938 0
M  V30 1917 C 177.171 1.54888 1.19453 0
M  V30 1918 C 177.551 0.315154 2.08734 0
M  V30 1919 O 176.899 -0.699558 2.17528 0
M  V30 1920 C 177.109 2.86467 1.99342 0
M  V30 1921 C 178.457 3.38545 2.56267 0
M  V30 1922 O 179.481 2.88041 2.0955 0
M  V30 1923 O 178.34 4.26675 3.41483 0
M  V30 1924 H 175.434 0.622863 0.544032 0
M  V30 1925 H 177.98 1.63823 0.442732 0
M  V30 1926 H 176.752 3.67718 1.33788 0
M  V30 1927 H 176.375 2.8071 2.8158 0
M  V30 1928 N 177.372 -0.689602 1.41712 0
M  V30 1929 C 178.335 -1.78521 1.43746 0
M  V30 1930 C 179.335 -1.57436 0.327191 0
M  V30 1931 O 180.525 -1.64 0.587348 0
M  V30 1932 C 177.657 -3.16971 1.25467 0
M  V30 1933 H 178.85 -1.78108 2.41283 0
M  V30 1934 H 176.403 -0.89781 1.27942 0
M  V30 1935 H 177.138 -3.23019 0.287948 0
M  V30 1936 H 176.923 -3.33678 2.05917 0
M  V30 1937 H 178.413 -3.96935 1.2974 0
M  V30 1938 N 178.85 -1.27639 -0.924453 0
M  V30 1939 C 179.76 -1.12466 -2.05885 0
M  V30 1940 C 180.776 -0.053869 -1.73917 0
M  V30 1941 O 181.952 -0.261012 -1.99702 0
M  V30 1942 C 179.017 -0.776768 -3.37886 0
M  V30 1943 C 178.078 -1.92878 -3.83532 0
M  V30 1944 C 177.311 -1.59739 -5.09234 0
M  V30 1945 O 177.534 -0.506782 -5.68144 0
M  V30 1946 O 176.468 -2.43761 -5.50331 0
M  V30 1947 H 180.294 -2.07671 -2.21599 0
M  V30 1948 H 177.879 -1.06857 -1.04413 0
M  V30 1949 H 179.761 -0.596229 -4.17161 0
M  V30 1950 H 178.436 0.145732 -3.23372 0
M  V30 1951 H 177.343 -2.1644 -3.0513 0
M  V30 1952 H 178.676 -2.8316 -4.02593 0
M  V30 1953 N 180.328 1.1314 -1.09713 0
M  V30 1954 C 181.739 1.66029 -0.853885 0
M  V30 1955 C 182.09 1.86241 0.617142 0
M  V30 1956 O 181.215 1.5834 1.47503 0
M  V30 1957 C 181.81 3.01599 -1.5435 0
M  V30 1958 C 180.369 3.51467 -1.34714 0
M  V30 1959 C 179.516 2.26648 -1.59769 0
M  V30 1960 H 182.467 0.970226 -1.25588 0
M  V30 1961 H 182.488 3.67709 -0.978267 0
M  V30 1962 H 182 2.86856 -2.6141 0
M  V30 1963 H 180.101 3.71408 -0.297838 0
M  V30 1964 H 180.214 4.314 -2.08401 0
M  V30 1965 H 178.578 2.33385 -1.01998 0
M  V30 1966 H 179.361 2.14467 -2.68065 0
M  V30 1967 N 181.806 0.884767 1.30421 0
M  V30 1968 C 183.222 0.57874 1.48737 0
M  V30 1969 C 183.422 -0.883567 1.81095 0
M  V30 1970 O 182.478 -1.6648 1.89844 0
M  V30 1971 C 183.791 1.49171 2.61091 0
M  V30 1972 C 185.339 1.49532 2.74971 0
M  V30 1973 C 185.814 2.39421 3.90438 0
M  V30 1974 N 187.305 2.37383 3.97748 0
M  V30 1975 C 188.04 3.03647 4.86401 0
M  V30 1976 N 187.536 3.79136 5.79852 0
M  V30 1977 N 189.329 2.9288 4.79768 0
M  V30 1978 H 181.48 1.83075 1.0769 0
M  V30 1979 H 183.743 0.783637 0.533495 0
M  V30 1980 H 183.449 2.53291 2.44001 0
M  V30 1981 H 183.323 1.20113 3.57565 0
M  V30 1982 H 185.71 0.46163 2.91467 0
M  V30 1983 H 185.791 1.8262 1.79119 0
M  V30 1984 H 185.435 3.42874 3.74699 0
M  V30 1985 H 185.365 2.03649 4.85628 0
M  V30 1986 H 187.856 1.82525 3.30897 0
M  V30 1987 H 188.169 4.26789 6.4426 0
M  V30 1988 H 186.514 3.83243 5.79784 0
M  V30 1989 H 189.705 2.33433 4.05742 0
M  V30 1990 H 189.878 3.448 5.4865 0
M  V30 1991 N 183.284 -1.43765 0.645699 0
M  V30 1992 C 184.234 -2.27884 -0.0726442 0
M  V30 1993 C 185.218 -1.39483 -0.802086 0
M  V30 1994 O 186.41 -1.63174 -0.685791 0
M  V30 1995 C 183.539 -3.27055 -1.04356 0
M  V30 1996 C 182.625 -4.22944 -0.312985 0
M  V30 1997 N 183.016 -5.01391 0.666386 0
M  V30 1998 C 181.314 -4.42528 -0.55546 0
M  V30 1999 C 182.015 -5.71217 1.09935 0
M  V30 2000 N 180.991 -5.41856 0.435137 0
M  V30 2001 H 184.793 -2.85949 0.678988 0
M  V30 2002 H 182.307 -1.55378 0.472368 0
M  V30 2003 H 184.304 -3.86089 -1.57292 0
M  V30 2004 H 182.964 -2.70551 -1.79534 0
M  V30 2005 H 183.975 -5.07252 1.04481 0
M  V30 2006 H 180.652 -3.97104 -1.28899 0
M  V30 2007 H 182.042 -6.44202 1.90929 0
M  V30 2008 N 184.763 -0.387143 -1.52771 0
M  V30 2009 C 185.693 0.440551 -2.29306 0
M  V30 2010 C 186.674 1.06535 -1.32606 0
M  V30 2011 O 187.859 1.07853 -1.61497 0
M  V30 2012 C 184.989 1.56919 -3.09829 0
M  V30 2013 C 183.943 1.07054 -4.14395 0
M  V30 2014 C 183.269 2.29109 -4.83129 0
M  V30 2015 C 184.569 0.140015 -5.22112 0
M  V30 2016 H 186.263 -0.198026 -2.98744 0
M  V30 2017 H 183.809 -0.09668 -1.43675 0
M  V30 2018 H 185.762 2.15503 -3.62128 0
M  V30 2019 H 184.486 2.23532 -2.3812 0
M  V30 2020 H 183.145 0.507247 -3.63074 0
M  V30 2021 H 182.793 2.94227 -4.0797 0
M  V30 2022 H 182.493 1.96406 -5.53804 0
M  V30 2023 H 184.017 2.88339 -5.38231 0
M  V30 2024 H 185.431 0.633978 -5.69784 0
M  V30 2025 H 183.828 -0.0971485 -6.00021 0
M  V30 2026 H 184.898 -0.811711 -4.78058 0
M  V30 2027 N 186.241 1.57166 -0.116904 0
M  V30 2028 C 187.171 2.18222 0.830759 0
M  V30 2029 C 188.152 1.12167 1.27877 0
M  V30 2030 O 189.337 1.40394 1.34176 0
M  V30 2031 C 186.467 2.77996 2.08172 0
M  V30 2032 C 185.421 3.89614 1.77157 0
M  V30 2033 C 184.747 4.36187 3.09265 0
M  V30 2034 C 186.047 5.1181 1.04151 0
M  V30 2035 H 187.741 2.97664 0.321992 0
M  V30 2036 H 185.287 1.4318 0.153434 0
M  V30 2037 H 187.24 3.19366 2.74924 0
M  V30 2038 H 185.964 1.9584 2.6137 0
M  V30 2039 H 184.623 3.48816 1.12796 0
M  V30 2040 H 184.271 3.50893 3.60393 0
M  V30 2041 H 183.971 5.11455 2.89288 0
M  V30 2042 H 185.495 4.80207 3.77139 0
M  V30 2043 H 186.909 5.50214 1.61052 0
M  V30 2044 H 185.306 5.92648 0.942762 0
M  V30 2045 H 186.376 4.84892 0.0279022 0
M  V30 2046 N 187.719 -0.156864 1.56817 0
M  V30 2047 C 188.965 -0.872416 1.83076 0
M  V30 2048 C 189.298 -1.81261 0.697001 0
M  V30 2049 O 188.573 -1.92171 -0.30008 0
M  V30 2050 C 188.856 -1.65551 3.19789 0
M  V30 2051 C 188.709 -0.737467 4.43713 0
M  V30 2052 C 190.028 -2.62012 3.53606 0
M  V30 2053 H 187.147 -0.315715 0.665953 0
M  V30 2054 H 189.789 -0.138004 1.89498 0
M  V30 2055 H 187.939 -2.28159 3.14445 0
M  V30 2056 H 189.611 -0.123143 4.61136 0
M  V30 2057 H 187.854 -0.0464067 4.33775 0
M  V30 2058 H 188.525 -1.32122 5.35955 0
M  V30 2059 H 191.001 -2.09525 3.59497 0
M  V30 2060 H 189.877 -3.13861 4.50314 0
M  V30 2061 H 190.138 -3.42902 2.79053 0
M  V30 2062 N 189.197 -1.51736 -0.425897 0
M  V30 2063 C 190.145 -1.74464 -1.53834 0
M  V30 2064 C 191.139 -0.611241 -1.57988 0
M  V30 2065 O 192.345 -0.792899 -1.61596 0
M  V30 2066 H 188.72 -0.551437 -0.511293 0
M  V30 2067 H 190.691 -2.67694 -1.31843 0
M  V30 2068 C 189.44 -1.8972 -2.91379 0
M  V30 2069 H 188.763 -2.76344 -2.88919 0
M  V30 2070 H 190.203 -2.09629 -3.68553 0
M  V30 2071 C 188.662 -0.65992 -3.30374 0
M  V30 2072 O 189.192 0.180083 -4.01296 0
M  V30 2073 N 187.398 -0.500677 -2.86254 0
M  V30 2074 H 186.945 -1.18532 -2.28709 0
M  V30 2075 H 186.903 0.325903 -3.12706 0
M  V30 2076 N 190.675 0.682077 -1.42076 0
M  V30 2077 C 191.923 1.4393 -1.41876 0
M  V30 2078 C 192.244 1.94971 -0.0335599 0
M  V30 2079 O 191.514 1.72591 0.926773 0
M  V30 2080 H 190.094 0.534085 -0.522267 0
M  V30 2081 H 192.756 0.806427 -1.77434 0
M  V30 2082 H 191.852 2.29588 -2.11414 0
M  V30 2083 N 192.153 1.28127 0.917671 0
M  V30 2084 C 193.116 1.11744 2.00115 0
M  V30 2085 C 194.116 0.0583052 1.60694 0
M  V30 2086 O 195.306 0.303755 1.71531 0
M  V30 2087 C 192.438 0.704862 3.33533 0
M  V30 2088 H 193.631 2.07966 2.16079 0
M  V30 2089 H 191.184 1.11058 1.09981 0
M  V30 2090 H 191.919 -0.258299 3.2327 0
M  V30 2091 H 191.704 1.4699 3.63505 0
M  V30 2092 H 193.194 0.612768 4.1308 0
M  V30 2093 N 193.631 -1.12557 1.10312 0
M  V30 2094 C 194.859 -1.87864 0.866873 0
M  V30 2095 C 195.274 -1.79588 -0.582557 0
M  V30 2096 O 194.631 -1.16887 -1.40156 0
M  V30 2097 C 194.682 -3.37125 1.30496 0
M  V30 2098 O 194.403 -3.45201 2.69755 0
M  V30 2099 C 195.904 -4.29373 1.10243 0
M  V30 2100 H 193.124 -0.594452 0.311236 0
M  V30 2101 H 195.668 -1.42429 1.46745 0
M  V30 2102 H 193.823 -3.80109 0.748081 0
M  V30 2103 H 194.237 -4.38056 2.88457 0
M  V30 2104 H 195.711 -5.32394 1.45811 0
M  V30 2105 H 196.188 -4.39181 0.0409492 0
M  V30 2106 H 196.794 -3.92169 1.64571 0
M  V30 2107 N 195.109 -0.891671 -1.2995 0
M  V30 2108 C 196.357 -0.512486 -1.95494 0
M  V30 2109 C 196.678 0.942776 -1.70695 0
M  V30 2110 O 195.948 1.66374 -1.03424 0
M  V30 2111 H 194.528 -0.186533 -0.723336 0
M  V30 2112 H 197.19 -1.13621 -1.58355 0
M  V30 2113 H 196.286 -0.688342 -3.04415 0
M  V30 2114 N 196.587 1.43421 -0.653314 0
M  V30 2115 C 197.815 2.06163 -0.174491 0
M  V30 2116 C 198.23 1.48969 1.1599 0
M  V30 2117 O 197.587 0.621042 1.71608 0
M  V30 2118 C 197.638 3.61417 -0.0774865 0
M  V30 2119 O 197.359 4.16485 -1.35912 0
M  V30 2120 C 198.86 4.41235 0.427402 0
M  V30 2121 H 196.08 0.664946 -0.0899353 0
M  V30 2122 H 198.624 1.83924 -0.893988 0
M  V30 2123 H 196.779 3.82841 0.59257 0
M  V30 2124 H 197.193 5.10153 -1.21839 0
M  V30 2125 H 198.667 5.5021 0.44423 0
M  V30 2126 H 199.144 4.14268 1.45873 0
M  V30 2127 H 199.75 4.2478 -0.210167 0
M  V30 2128 N 198.065 0.39524 1.52563 0
M  V30 2129 C 199.313 -0.184678 2.01254 0
M  V30 2130 C 199.634 -1.46822 1.28329 0
M  V30 2131 O 198.904 -1.91666 0.405094 0
M  V30 2132 H 197.484 -0.0712355 0.743596 0
M  V30 2133 H 200.146 0.528293 1.87603 0
M  V30 2134 H 199.242 -0.390681 3.09645 0
M  V30 2135 N 199.544 -1.57102 0.125237 0
M  V30 2136 C 200.491 -2.15641 -0.822655 0
M  V30 2137 C 201.461 -1.08313 -1.25927 0
M  V30 2138 O 202.646 -1.36251 -1.33567 0
M  V30 2139 C 199.786 -2.76504 -2.06494 0
M  V30 2140 C 198.899 -3.98158 -1.67612 0
M  V30 2141 C 198.034 -4.47088 -2.86854 0
M  V30 2142 C 197.073 -5.6126 -2.44242 0
M  V30 2143 N 196.21 -6.04905 -3.56419 0
M  V30 2144 H 201.05 -2.96313 -0.316625 0
M  V30 2145 H 198.587 -1.46388 -0.144588 0
M  V30 2146 H 200.545 -3.09925 -2.79289 0
M  V30 2147 H 199.175 -1.98512 -2.54545 0
M  V30 2148 H 198.227 -3.70858 -0.846661 0
M  V30 2149 H 199.539 -4.80934 -1.32301 0
M  V30 2150 H 198.693 -4.82451 -3.67867 0
M  V30 2151 H 197.432 -3.63275 -3.25396 0
M  V30 2152 H 196.437 -5.25495 -1.61663 0
M  V30 2153 H 197.662 -6.46843 -2.0681 0
M  V30 2154 H 195.608 -5.24032 -3.94623 0
M  V30 2155 H 195.525 -6.82552 -3.25051 0
M  V30 2156 H 196.793 -6.44907 -4.37853 0
M  V30 2157 N 201.022 0.148545 -1.56898 0
M  V30 2158 C 202.247 0.880385 -1.87787 0
M  V30 2159 C 202.672 1.74018 -0.714093 0
M  V30 2160 O 202.03 1.78153 0.336343 0
M  V30 2161 C 202.078 1.71422 -3.17249 0
M  V30 2162 O 201.182 2.8183 -3.01074 0
M  V30 2163 H 200.523 0.245301 -0.617028 0
M  V30 2164 H 203.053 0.139826 -2.04122 0
M  V30 2165 H 203.063 2.10954 -3.49231 0
M  V30 2166 H 201.738 1.08284 -4.01556 0
M  V30 2167 H 200.315 2.45715 -2.80497 0
M  V30 2168 N 202.5 1.5196 0.417844 0
M  V30 2169 C 203.746 1.65836 1.16732 0
M  V30 2170 C 204.079 0.382881 1.90388 0
M  V30 2171 O 203.354 -0.618368 1.84408 0
M  V30 2172 C 203.637 2.87466 2.16876 0
M  V30 2173 C 203.49 4.25041 1.47174 0
M  V30 2174 C 204.809 3.04613 3.17646 0
M  V30 2175 H 201.928 0.603515 0.423011 0
M  V30 2176 H 204.57 1.84494 0.454105 0
M  V30 2177 H 202.72 2.71689 2.777 0
M  V30 2178 H 204.392 4.52527 0.895376 0
M  V30 2179 H 202.635 4.26843 0.773806 0
M  V30 2180 H 203.306 5.06176 2.20204 0
M  V30 2181 H 205.782 3.1923 2.66892 0
M  V30 2182 H 204.658 3.91247 3.8499 0
M  V30 2183 H 204.919 2.17541 3.84874 0
M  V30 2184 N 203.978 -0.674533 1.42435 0
M  V30 2185 C 204.908 -1.80009 1.48724 0
M  V30 2186 C 205.889 -1.6659 0.343793 0
M  V30 2187 O 207.074 -1.86007 0.558137 0
M  V30 2188 C 204.204 -3.18306 1.38919 0
M  V30 2189 C 203.158 -3.46461 2.51294 0
M  V30 2190 C 202.484 -4.84335 2.26547 0
M  V30 2191 C 203.784 -3.43328 3.93603 0
M  V30 2192 H 205.478 -1.75004 2.42928 0
M  V30 2193 H 203.024 -0.840533 1.16923 0
M  V30 2194 H 204.977 -3.9678 1.41927 0
M  V30 2195 H 203.701 -3.2399 0.412094 0
M  V30 2196 H 202.36 -2.70348 2.47604 0
M  V30 2197 H 202.008 -4.86669 1.2713 0
M  V30 2198 H 201.708 -5.04136 3.01861 0
M  V30 2199 H 203.232 -5.65094 2.31304 0
M  V30 2200 H 204.646 -4.11772 3.98894 0
M  V30 2201 H 203.043 -3.74664 4.68771 0
M  V30 2202 H 204.113 -2.41897 4.20255 0
M  V30 2203 N 205.456 -1.28612 -0.910864 0
M  V30 2204 C 206.386 -1.15326 -2.03032 0
M  V30 2205 C 207.367 -0.0502924 -1.70026 0
M  V30 2206 O 208.552 -0.227797 -1.92859 0
M  V30 2207 C 205.682 -0.817343 -3.37545 0
M  V30 2208 C 204.636 -1.8754 -3.84724 0
M  V30 2209 C 203.962 -1.39305 -5.16235 0
M  V30 2210 C 205.262 -3.28244 -4.06267 0
M  V30 2211 H 206.956 -2.08975 -2.14406 0
M  V30 2212 H 204.502 -1.00612 -1.03021 0
M  V30 2213 H 206.455 -0.711151 -4.15356 0
M  V30 2214 H 205.179 0.154846 -3.26233 0
M  V30 2215 H 203.838 -1.97079 -3.09121 0
M  V30 2216 H 203.486 -0.409846 -5.01328 0
M  V30 2217 H 203.186 -2.10057 -5.48771 0
M  V30 2218 H 204.71 -1.30014 -5.96598 0
M  V30 2219 H 206.124 -3.21611 -4.74594 0
M  V30 2220 H 204.521 -3.96855 -4.5014 0
M  V30 2221 H 205.591 -3.72048 -3.10979 0
M  V30 2222 N 206.934 1.1197 -1.10907 0
M  V30 2223 C 208.35 1.35591 -0.841852 0
M  V30 2224 C 208.55 1.94233 0.536246 0
M  V30 2225 O 207.606 2.1717 1.28816 0
M  V30 2226 C 208.919 2.29284 -1.94549 0
M  V30 2227 C 210.467 2.42862 -1.97451 0
M  V30 2228 C 210.942 3.39873 -3.07002 0
M  V30 2229 N 212.433 3.47433 -3.06341 0
M  V30 2230 C 213.168 4.22421 -3.87748 0
M  V30 2231 N 212.664 5.00432 -4.79103 0
M  V30 2232 N 214.457 4.17876 -3.75946 0
M  V30 2233 H 206.608 0.722664 -1.99728 0
M  V30 2234 H 208.871 0.380635 -0.868229 0
M  V30 2235 H 208.577 1.93378 -2.93765 0
M  V30 2236 H 208.451 3.29452 -1.83688 0
M  V30 2237 H 210.838 2.78046 -0.988645 0
M  V30 2238 H 210.919 1.42566 -2.12388 0
M  V30 2239 H 210.563 3.05417 -4.05811 0
M  V30 2240 H 210.493 4.40011 -2.89306 0
M  V30 2241 H 212.984 2.91784 -2.40147 0
M  V30 2242 H 213.297 5.55002 -5.37766 0
M  V30 2243 H 211.642 4.99612 -4.83128 0
M  V30 2244 H 214.833 3.56016 -3.03924 0
M  V30 2245 H 215.006 4.76061 -4.39624 0
M  V30 2246 N 208.412 0.89855 1.29475 0
M  V30 2247 C 209.322 0.379974 2.31502 0
M  V30 2248 C 210.338 -0.524695 1.659 0
M  V30 2249 O 211.514 -0.414551 1.97087 0
M  V30 2250 C 208.579 -0.385138 3.44554 0
M  V30 2251 C 207.64 0.550914 4.2575 0
M  V30 2252 C 206.873 -0.177778 5.33404 0
M  V30 2253 O 207.096 -1.40189 5.52904 0
M  V30 2254 O 206.03 0.479106 5.9999 0
M  V30 2255 H 209.856 1.22639 2.77837 0
M  V30 2256 H 207.441 0.662834 1.33891 0
M  V30 2257 H 209.323 -0.817841 4.13388 0
M  V30 2258 H 207.998 -1.20763 3.0033 0
M  V30 2259 H 206.905 1.03271 3.59564 0
M  V30 2260 H 208.238 1.33979 4.73614 0
M  V30 2261 N 209.89 -1.43072 0.660911 0
M  V30 2262 C 210.82 -2.33497 -0.0122829 0
M  V30 2263 C 211.801 -1.49903 -0.803925 0
M  V30 2264 O 212.986 -1.78546 -0.763864 0
M  V30 2265 C 210.116 -3.33363 -0.973994 0
M  V30 2266 C 209.07 -4.27003 -0.291928 0
M  V30 2267 C 208.396 -5.16967 -1.36562 0
M  V30 2268 C 209.696 -5.15816 0.820462 0
M  V30 2269 H 211.39 -2.90038 0.742873 0
M  V30 2270 H 208.936 -1.39461 0.358688 0
M  V30 2271 H 210.889 -3.95524 -1.45392 0
M  V30 2272 H 209.613 -2.75095 -1.7604 0
M  V30 2273 H 208.272 -3.66217 0.167623 0
M  V30 2274 H 207.92 -4.55034 -2.14366 0
M  V30 2275 H 207.62 -5.80441 -0.914454 0
M  V30 2276 H 209.144 -5.82003 -1.84675 0
M  V30 2277 H 210.558 -5.71742 0.422366 0
M  V30 2278 H 208.955 -5.8805 1.19656 0
M  V30 2279 H 210.025 -4.55045 1.67518 0
M  V30 2280 N 211.368 -0.403325 -1.52352 0
M  V30 2281 C 212.331 0.413051 -2.25447 0
M  V30 2282 C 213.331 0.978513 -1.276 0
M  V30 2283 O 214.521 0.858305 -1.51587 0
M  V30 2284 C 211.653 1.58087 -3.02029 0
M  V30 2285 H 212.846 -0.227094 -2.99039 0
M  V30 2286 H 210.399 -0.155722 -1.55522 0
M  V30 2287 H 211.134 2.25804 -2.32772 0
M  V30 2288 H 210.919 1.18195 -3.73861 0
M  V30 2289 H 212.409 2.1585 -3.57489 0
M  V30 2290 N 212.846 1.57033 -0.133567 0
M  V30 2291 C 214.076 1.99754 0.527429 0
M  V30 2292 C 214.484 1.01245 1.59832 0
M  V30 2293 O 213.827 -0.000645496 1.837 0
M  V30 2294 C 213.889 3.38903 1.19939 0
M  V30 2295 C 213.553 4.56174 0.274709 0
M  V30 2296 C 214.55 5.17563 -0.492398 0
M  V30 2297 C 212.235 5.01972 0.18153 0
M  V30 2298 C 214.229 6.2315 -1.34027 0
M  V30 2299 C 211.916 6.07416 -0.669958 0
M  V30 2300 C 212.914 6.67874 -1.42947 0
M  V30 2301 O 212.602 7.71279 -2.2668 0
M  V30 2302 H 212.334 0.660702 0.142999 0
M  V30 2303 H 214.888 2.04207 -0.221099 0
M  V30 2304 H 213.118 3.31248 1.99528 0
M  V30 2305 H 214.807 3.65818 1.75875 0
M  V30 2306 H 215.573 4.83087 -0.430367 0
M  V30 2307 H 211.452 4.54652 0.762422 0
M  V30 2308 H 214.996 6.70268 -1.93357 0
M  V30 2309 H 210.893 6.41321 -0.73333 0
M  V30 2310 H 211.661 7.88441 -2.1978 0
M  V30 2311 N 214.325 -0.140222 1.56975 0
M  V30 2312 C 215.553 -0.866437 1.87884 0
M  V30 2313 C 215.968 -1.74428 0.722517 0
M  V30 2314 O 215.325 -1.79891 -0.30749 0
M  V30 2315 C 215.376 -1.71753 3.18093 0
M  V30 2316 O 215.097 -0.875056 4.29272 0
M  V30 2317 C 216.598 -2.55074 3.62563 0
M  V30 2318 H 213.818 -0.25019 0.622612 0
M  V30 2319 H 216.362 -0.130977 2.0408 0
M  V30 2320 H 214.517 -2.40598 3.03631 0
M  V30 2321 H 214.931 -1.46002 5.03769 0
M  V30 2322 H 216.405 -3.10356 4.5649 0
M  V30 2323 H 216.882 -3.31434 2.88181 0
M  V30 2324 H 217.488 -1.91509 3.79743 0
M  V30 2325 N 215.803 -1.52179 -0.40978 0
M  V30 2326 C 217.051 -1.65878 -1.15451 0
M  V30 2327 C 217.372 -0.390771 -1.91044 0
M  V30 2328 O 216.642 0.594323 -1.86667 0
M  V30 2329 H 215.222 -0.611405 -0.429177 0
M  V30 2330 H 217.884 -1.89219 -0.467134 0
M  V30 2331 H 216.98 -2.49954 -1.86894 0
M  V30 2332 N 217.281 0.66697 -1.42791 0
M  V30 2333 C 218.211 1.79218 -1.49677 0
M  V30 2334 C 219.192 1.66405 -0.352623 0
M  V30 2335 O 220.377 1.85708 -0.567993 0
M  V30 2336 C 217.507 3.17565 -1.40605 0
M  V30 2337 C 216.461 3.45124 -2.53127 0
M  V30 2338 C 215.787 4.83127 -2.29112 0
M  V30 2339 C 217.087 3.41236 -3.95418 0
M  V30 2340 H 218.781 1.73713 -2.43853 0
M  V30 2341 H 216.327 0.83432 -1.17367 0
M  V30 2342 H 218.28 3.96022 -1.44029 0
M  V30 2343 H 217.004 3.23767 -0.429271 0
M  V30 2344 H 215.663 2.69031 -2.49034 0
M  V30 2345 H 215.311 4.85988 -1.29709 0
M  V30 2346 H 215.011 5.02528 -3.04531 0
M  V30 2347 H 216.535 5.63859 -2.34297 0
M  V30 2348 H 217.949 4.09651 -4.01073 0
M  V30 2349 H 216.346 3.72173 -4.70752 0
M  V30 2350 H 217.416 2.39665 -4.21532 0
M  V30 2351 N 218.759 1.29093 0.90403 0
M  V30 2352 C 219.689 1.16401 2.02418 0
M  V30 2353 C 220.67 0.0593085 1.69997 0
M  V30 2354 O 221.855 0.238021 1.92736 0
M  V30 2355 C 218.985 0.835233 3.37107 0
M  V30 2356 C 217.939 1.89578 3.83724 0
M  V30 2357 C 217.265 1.42041 5.15489 0
M  V30 2358 C 218.565 3.30394 4.04521 0
M  V30 2359 H 220.259 2.10109 2.13295 0
M  V30 2360 H 217.805 1.01157 1.02486 0
M  V30 2361 H 219.758 0.733169 4.14973 0
M  V30 2362 H 218.482 -0.137543 3.2631 0
M  V30 2363 H 217.141 1.98715 3.08071 0
M  V30 2364 H 216.789 0.436426 5.01103 0
M  V30 2365 H 216.489 2.12964 5.4765 0
M  V30 2366 H 218.013 1.33176 5.959 0
M  V30 2367 H 219.427 3.24123 4.72882 0
M  V30 2368 H 217.824 3.99237 4.48029 0
M  V30 2369 H 218.894 3.73692 3.09002 0
M  V30 2370 N 220.237 -1.11381 1.11499 0
M  V30 2371 C 221.653 -1.35143 0.849031 0
M  V30 2372 C 221.853 -1.94515 -0.525938 0
M  V30 2373 O 220.909 -2.1785 -1.27662 0
M  V30 2374 C 222.222 -2.28249 1.95762 0
M  V30 2375 C 223.77 -2.41812 1.98736 0
M  V30 2376 C 224.245 -3.3824 3.088 0
M  V30 2377 N 225.736 -3.45803 3.08179 0
M  V30 2378 C 226.471 -4.20358 3.89982 0
M  V30 2379 N 225.967 -4.97884 4.8175 0
M  V30 2380 N 227.76 -4.15877 3.78157 0
M  V30 2381 H 219.911 -0.712062 2.00109 0
M  V30 2382 H 222.174 -0.376025 0.870235 0
M  V30 2383 H 221.88 -1.91817 2.94787 0
M  V30 2384 H 221.754 -3.28473 1.85433 0
M  V30 2385 H 224.141 -2.77518 1.00338 0
M  V30 2386 H 224.222 -1.41437 2.13141 0
M  V30 2387 H 223.866 -3.03261 4.07425 0
M  V30 2388 H 223.796 -4.38471 2.91635 0
M  V30 2389 H 226.287 -2.90506 2.41691 0
M  V30 2390 H 226.6 -5.52142 5.40702 0
M  V30 2391 H 224.945 -4.97043 4.85771 0
M  V30 2392 H 228.136 -3.544 3.05808 0
M  V30 2393 H 228.309 -4.73723 4.42143 0
M  V30 2394 N 221.715 -0.905404 -1.28997 0
M  V30 2395 C 222.963 -0.533192 -1.9494 0
M  V30 2396 C 223.284 0.924618 -1.71685 0
M  V30 2397 O 222.554 1.65268 -1.05183 0
M  V30 2398 H 221.134 -0.194194 -0.721317 0
M  V30 2399 H 223.796 -1.15294 -1.57141 0
M  V30 2400 H 222.892 -0.72059 -3.03667 0
M  V30 2401 N 223.193 1.4272 -0.668489 0
M  V30 2402 C 224.47 1.95248 -0.117373 0
M  V30 2403 C 224.85 1.60919 1.36632 0
M  V30 2404 O 224.198 0.902095 2.09939 0
M  V30 2405 C 224.408 3.46927 -0.379806 0
M  V30 2406 C 225.756 4.23588 -0.292923 0
M  V30 2407 O 226.78 3.5482 -0.313204 0
M  V30 2408 O 225.639 5.46017 -0.229697 0
M  V30 2409 H 222.733 0.827 0.00079152 0
M  V30 2410 H 225.279 1.52581 -0.742783 0
M  V30 2411 H 224.051 3.65096 -1.40786 0
M  V30 2412 H 223.674 3.96627 0.277923 0
M  V30 2413 N 224.671 0.411399 1.52136 0
M  V30 2414 C 226.087 0.0623865 1.59478 0
M  V30 2415 C 226.287 -1.42554 1.4241 0
M  V30 2416 O 225.343 -2.19263 1.2522 0
M  V30 2417 C 226.656 0.559331 2.95452 0
M  V30 2418 C 228.204 0.517503 3.08692 0
M  V30 2419 C 228.679 0.990994 4.4715 0
M  V30 2420 N 230.17 0.947908 4.53397 0
M  V30 2421 C 230.905 1.28544 5.58806 0
M  V30 2422 N 230.401 1.69454 6.71757 0
M  V30 2423 N 232.194 1.20526 5.49026 0
M  V30 2424 H 224.345 1.37982 1.61477 0
M  V30 2425 H 226.608 0.566977 0.759764 0
M  V30 2426 H 226.314 1.59938 3.1323 0
M  V30 2427 H 226.188 -0.0298014 3.77188 0
M  V30 2428 H 228.575 -0.513505 2.90598 0
M  V30 2429 H 228.656 1.14272 2.28857 0
M  V30 2430 H 228.3 2.02034 4.65988 0
M  V30 2431 H 228.23 0.34257 5.25485 0
M  V30 2432 H 230.721 0.647157 3.72317 0
M  V30 2433 H 231.034 1.93513 7.48179 0
M  V30 2434 H 229.379 1.73359 6.73032 0
M  V30 2435 H 232.57 0.884505 4.59667 0
M  V30 2436 H 232.743 1.47161 6.31069 0
M  V30 2437 N 226.149 -1.5696 0.141893 0
M  V30 2438 C 227.082 -2.12271 -0.837627 0
M  V30 2439 C 228.06 -1.04495 -1.24578 0
M  V30 2440 O 229.244 -1.32293 -1.34278 0
M  V30 2441 C 226.371 -2.63822 -2.12404 0
M  V30 2442 C 225.417 -3.83698 -1.86221 0
M  V30 2443 S 226.25 -5.24948 -1.05781 0
M  V30 2444 C 227.406 -5.79884 -2.35552 0
M  V30 2445 H 227.639 -2.95023 -0.367249 0
M  V30 2446 H 225.172 -1.54231 -0.0723014 0
M  V30 2447 H 227.13 -2.94175 -2.86307 0
M  V30 2448 H 225.791 -1.8121 -2.56557 0
M  V30 2449 H 224.984 -4.17995 -2.81596 0
M  V30 2450 H 224.586 -3.5408 -1.20429 0
M  V30 2451 H 226.878 -5.91005 -3.31239 0
M  V30 2452 H 227.821 -6.77544 -2.05767 0
M  V30 2453 H 228.229 -5.08095 -2.45967 0
M  V30 2454 N 227.627 0.131896 -1.57047 0
M  V30 2455 C 228.873 0.843179 -1.84441 0
M  V30 2456 C 229.206 1.80129 -0.725749 0
M  V30 2457 O 228.481 1.92624 0.269469 0
M  V30 2458 C 228.764 1.60442 -3.22382 0
M  V30 2459 C 228.617 0.666782 -4.4483 0
M  V30 2460 C 229.936 2.56354 -3.5773 0
M  V30 2461 H 227.055 0.305081 -0.670891 0
M  V30 2462 H 229.697 0.107839 -1.89694 0
M  V30 2463 H 227.847 2.23128 -3.18035 0
M  V30 2464 H 229.519 0.0497646 -4.61273 0
M  V30 2465 H 227.762 -0.022609 -4.33794 0
M  V30 2466 H 228.433 1.23579 -5.37989 0
M  V30 2467 H 230.909 2.0378 -3.62785 0
M  V30 2468 H 229.785 3.06657 -4.5525 0
M  V30 2469 H 230.046 3.38419 -2.84473 0
M  V30 2470 N 229.106 1.52395 0.401703 0
M  V30 2471 C 230.355 1.66044 1.14509 0
M  V30 2472 C 230.668 0.400216 1.91462 0
M  V30 2473 O 231.874 0.416632 2.68284 0
M  V30 2474 C 230.33 2.93388 2.0845 0
M  V30 2475 C 229.938 4.26545 1.36978 0
M  V30 2476 C 231.682 3.16402 2.83001 0
M  V30 2477 C 229.589 5.45007 2.29611 0
M  V30 2478 H 228.519 0.618562 0.431158 0
M  V30 2479 H 231.17 1.78886 0.40892 0
M  V30 2480 H 229.552 2.74263 2.8565 0
M  V30 2481 H 230.726 4.56179 0.650916 0
M  V30 2482 H 229.041 4.09692 0.74438 0
M  V30 2483 H 231.638 4.02085 3.52465 0
M  V30 2484 H 231.981 2.30943 3.46368 0
M  V30 2485 H 232.514 3.36034 2.12898 0
M  V30 2486 H 229.253 6.32835 1.70879 0
M  V30 2487 H 228.773 5.19702 2.9945 0
M  V30 2488 H 230.452 5.7838 2.89974 0
M  V30 2489 N 230.584 -0.659388 1.43143 0
M  V30 2490 C 231.83 -1.42145 1.44647 0
M  V30 2491 C 232.163 -1.9408 0.0681907 0
M  V30 2492 O 231.438 -1.71899 -0.910007 0
M  V30 2493 C 231.721 -2.60735 2.48373 0
M  V30 2494 C 231.574 -2.14332 3.95451 0
M  V30 2495 C 232.893 -3.62951 2.48906 0
M  V30 2496 H 230.012 -0.51552 0.526696 0
M  V30 2497 H 232.654 -0.748069 1.74654 0
M  V30 2498 H 230.804 -3.18184 2.22916 0
M  V30 2499 H 232.476 -1.61932 4.31944 0
M  V30 2500 H 230.719 -1.4576 4.08578 0
M  V30 2501 H 231.39 -2.99583 4.63631 0
M  V30 2502 H 233.866 -3.1525 2.71582 0
M  V30 2503 H 232.742 -4.43487 3.23435 0
M  V30 2504 H 233.003 -4.15126 1.52061 0
M  V30 2505 N 232.062 -1.29571 -0.897171 0
M  V30 2506 C 233.339 -1.08365 -1.62839 0
M  V30 2507 C 233.719 0.371331 -2.07808 0
M  V30 2508 O 233.067 1.3606 -1.83576 0
M  V30 2509 C 233.277 -2.0735 -2.80726 0
M  V30 2510 C 234.625 -2.38406 -3.51351 0
M  V30 2511 O 235.649 -2.05564 -2.90898 0
M  V30 2512 O 234.508 -2.9453 -4.60341 0
M  V30 2513 H 231.602 -0.415345 -0.715134 0
M  V30 2514 H 234.148 -1.40952 -0.945018 0
M  V30 2515 H 232.92 -3.05339 -2.44711 0
M  V30 2516 H 232.543 -1.75507 -3.56767 0
M  V30 2517 N 233.54 1.10788 -1.12088 0
M  V30 2518 C 234.951 1.64181 -0.88891 0
M  V30 2519 C 235.302 1.87508 0.577498 0
M  V30 2520 O 234.427 1.61434 1.44112 0
M  V30 2521 C 235.022 2.98257 -1.60712 0
M  V30 2522 C 233.581 3.4853 -1.42139 0
M  V30 2523 C 232.728 2.23208 -1.6454 0
M  V30 2524 H 235.679 0.943368 -1.27618 0
M  V30 2525 H 235.7 3.65552 -1.05604 0
M  V30 2526 H 235.212 2.81246 -2.67436 0
M  V30 2527 H 233.313 3.70692 -0.376552 0
M  V30 2528 H 233.426 4.26882 -2.17505 0
M  V30 2529 H 231.79 2.31169 -1.06925 0
M  V30 2530 H 232.573 2.08733 -2.72554 0
M  V30 2531 N 235.018 0.912232 1.28515 0
M  V30 2532 C 235.966 0.389597 2.29314 0
M  V30 2533 C 236.96 -0.517915 1.61289 0
M  V30 2534 O 238.166 -0.399328 1.75515 0
M  V30 2535 H 234.541 0.107386 0.744293 0
M  V30 2536 H 236.512 1.25286 2.70825 0
M  V30 2537 C 235.261 -0.356496 3.45868 0
M  V30 2538 H 234.584 0.332608 3.98414 0
M  V30 2539 H 236.024 -0.686851 4.184 0
M  V30 2540 C 234.483 -1.56383 2.98406 0
M  V30 2541 O 235.013 -2.66294 3.00749 0
M  V30 2542 N 233.219 -1.41029 2.54085 0
M  V30 2543 H 232.766 -0.516089 2.52377 0
M  V30 2544 H 232.724 -2.21939 2.22689 0
M  V30 2545 N 236.496 -1.42363 0.676048 0
M  V30 2546 C 237.744 -2.01123 0.198437 0
M  V30 2547 C 238.065 -1.53731 -1.19966 0
M  V30 2548 O 237.335 -0.759518 -1.80577 0
M  V30 2549 H 235.915 -0.743678 0.0703721 0
M  V30 2550 H 238.577 -1.74263 0.872837 0
M  V30 2551 H 237.673 -3.11454 0.200686 0
M  V30 2552 N 237.974 -0.419461 -1.51915 0
M  V30 2553 C 239.251 0.211999 -1.94448 0
M  V30 2554 C 239.631 1.61703 -1.35703 0
M  V30 2555 O 238.979 2.22102 -0.536931 0
M  V30 2556 C 239.189 0.207872 -3.4838 0
M  V30 2557 C 240.537 0.422192 -4.22496 0
M  V30 2558 O 241.561 0.286778 -3.55044 0
M  V30 2559 O 240.42 0.690009 -5.42126 0
M  V30 2560 H 237.514 0.139586 -0.815135 0
M  V30 2561 H 240.06 -0.476151 -1.62883 0
M  V30 2562 H 238.832 -0.775102 -3.83546 0
M  V30 2563 H 238.455 0.939688 -3.86336 0
M  V30 2564 N 239.452 1.56882 -0.150215 0
M  V30 2565 C 240.385 2.12712 0.826358 0
M  V30 2566 C 241.363 1.05154 1.24022 0
M  V30 2567 O 242.547 1.33004 1.33575 0
M  V30 2568 C 239.674 2.64945 2.11002 0
M  V30 2569 C 238.72 3.8468 1.84183 0
M  V30 2570 S 239.553 5.25502 1.02995 0
M  V30 2571 C 240.709 5.81125 2.32474 0
M  V30 2572 H 240.942 2.95214 0.351598 0
M  V30 2573 H 238.475 1.54267 0.0641211 0
M  V30 2574 H 240.433 2.95689 2.84742 0
M  V30 2575 H 239.094 1.82568 2.55593 0
M  V30 2576 H 238.287 4.19482 2.79375 0
M  V30 2577 H 237.889 3.54714 1.1855 0
M  V30 2578 H 240.181 5.92753 3.281 0
M  V30 2579 H 241.124 6.78625 2.02171 0
M  V30 2580 H 241.532 5.09392 2.43269 0
M  V30 2581 N 240.93 -0.123565 1.57115 0
M  V30 2582 C 241.86 -1.15309 2.03042 0
M  V30 2583 C 242.841 -1.43454 0.914061 0
M  V30 2584 O 244.026 -1.53973 1.18347 0
M  V30 2585 C 241.156 -2.48043 2.43089 0
M  V30 2586 C 240.11 -2.3437 3.58127 0
M  V30 2587 C 239.436 -3.72026 3.84059 0
M  V30 2588 C 240.736 -1.80804 4.90007 0
M  V30 2589 H 242.43 -0.771102 2.893 0
M  V30 2590 H 239.976 -0.369479 1.39179 0
M  V30 2591 H 241.929 -3.20311 2.73823 0
M  V30 2592 H 240.653 -2.88122 1.53796 0
M  V30 2593 H 239.312 -1.64551 3.27595 0
M  V30 2594 H 238.96 -4.09582 2.91979 0
M  V30 2595 H 238.66 -3.63732 4.6149 0
M  V30 2596 H 240.184 -4.45806 4.1724 0
M  V30 2597 H 241.598 -2.42886 5.19307 0
M  V30 2598 H 239.995 -1.83343 5.71407 0
M  V30 2599 H 241.065 -0.76528 4.78823 0
M  V30 2600 N 242.408 -1.52605 -0.393616 0
M  V30 2601 C 243.633 -1.71592 -1.16495 0
M  V30 2602 C 244.058 -0.43133 -1.83088 0
M  V30 2603 O 243.416 0.612523 -1.7064 0
M  V30 2604 C 243.464 -2.86318 -2.19213 0
M  V30 2605 O 242.568 -2.52969 -3.257 0
M  V30 2606 H 241.909 -0.570734 -0.33935 0
M  V30 2607 H 244.439 -1.99377 -0.459324 0
M  V30 2608 H 244.449 -3.1168 -2.63286 0
M  V30 2609 H 243.124 -3.79511 -1.7013 0
M  V30 2610 H 241.701 -2.38332 -2.86797 0
M  V30 2611 N 243.887 0.651787 -1.4349 0
M  V30 2612 C 244.834 1.76462 -1.4876 0
M  V30 2613 C 245.804 1.62641 -0.337189 0
M  V30 2614 O 246.989 1.82864 -0.544544 0
M  V30 2615 C 244.129 3.14623 -1.41796 0
M  V30 2616 C 243.242 3.39568 -2.67053 0
M  V30 2617 C 242.377 4.67585 -2.52068 0
M  V30 2618 C 241.416 4.85639 -3.72587 0
M  V30 2619 N 240.553 6.04915 -3.56402 0
M  V30 2620 H 245.393 1.71293 -2.43849 0
M  V30 2621 H 242.93 0.835889 -1.21043 0
M  V30 2622 H 244.888 3.94496 -1.35753 0
M  V30 2623 H 243.518 3.18859 -0.50288 0
M  V30 2624 H 242.57 2.53783 -2.8337 0
M  V30 2625 H 243.882 3.48795 -3.56572 0
M  V30 2626 H 243.036 5.55586 -2.4374 0
M  V30 2627 H 241.775 4.60681 -1.60075 0
M  V30 2628 H 240.78 3.96073 -3.81321 0
M  V30 2629 H 242.005 4.94372 -4.65589 0
M  V30 2630 H 239.951 5.9914 -2.67146 0
M  V30 2631 H 239.868 6.15106 -4.39524 0
M  V30 2632 H 241.136 6.95533 -3.51929 0
M  V30 2633 N 245.365 1.30045 0.890287 0
M  V30 2634 C 246.612 1.18561 1.64163 0
M  V30 2635 C 246.94 -0.260852 1.92743 0
M  V30 2636 O 246.195 -1.20376 1.54299 0
M  V30 2637 C 246.494 1.95409 2.99249 0
M  V30 2638 C 246.16 3.45066 2.90242 0
M  V30 2639 C 244.822 3.85878 2.87492 0
M  V30 2640 C 247.174 4.4039 2.78758 0
M  V30 2641 C 244.502 5.20314 2.7109 0
M  V30 2642 C 246.854 5.74928 2.63894 0
M  V30 2643 C 245.518 6.14986 2.59516 0
M  V30 2644 H 244.788 0.433846 0.600715 0
M  V30 2645 H 247.435 1.61088 1.03552 0
M  V30 2646 H 245.74 1.45501 3.63781 0
M  V30 2647 H 247.437 1.8392 3.56334 0
M  V30 2648 H 244.027 3.12631 2.93189 0
M  V30 2649 H 248.211 4.09806 2.79952 0
M  V30 2650 H 243.467 5.50449 2.66112 0
M  V30 2651 H 247.641 6.48434 2.53981 0
M  V30 2652 H 245.268 7.19104 2.46565 0
M  V30 2653 N 246.843 -1.10192 1.12674 0
M  V30 2654 C 248.091 -1.81845 0.881861 0
M  V30 2655 C 248.412 -1.85737 -0.593867 0
M  V30 2656 O 247.682 -1.33724 -1.4316 0
M  V30 2657 H 246.262 -0.673432 0.323261 0
M  V30 2658 H 248.924 -1.33316 1.42172 0
M  V30 2659 H 248.02 -2.85288 1.2656 0
M  V30 2660 N 248.321 -0.919034 -1.28029 0
M  V30 2661 C 249.737 -0.617972 -1.4715 0
M  V30 2662 C 249.937 0.835242 -1.83374 0
M  V30 2663 O 248.993 1.61388 -1.94191 0
M  V30 2664 C 250.306 -1.56041 -2.57044 0
M  V30 2665 C 251.854 -1.56769 -2.7091 0
M  V30 2666 C 252.329 -2.49688 -3.83953 0
M  V30 2667 N 253.82 -2.47845 -3.91314 0
M  V30 2668 C 254.555 -3.16437 -4.78179 0
M  V30 2669 N 254.051 -3.94376 -5.69596 0
M  V30 2670 N 255.844 -3.05498 -4.71834 0
M  V30 2671 H 247.995 -1.85866 -1.02798 0
M  V30 2672 H 250.258 -0.797506 -0.512531 0
M  V30 2673 H 249.964 -2.59671 -2.372 0
M  V30 2674 H 249.838 -1.29551 -3.54255 0
M  V30 2675 H 252.225 -0.538745 -2.90141 0
M  V30 2676 H 252.306 -1.87305 -1.74214 0
M  V30 2677 H 251.95 -3.52688 -3.65477 0
M  V30 2678 H 251.88 -2.16453 -4.80058 0
M  V30 2679 H 254.371 -1.91234 -3.25941 0
M  V30 2680 H 254.684 -4.43721 -6.32718 0
M  V30 2681 H 253.029 -3.98481 -5.69419 0
M  V30 2682 H 256.22 -2.44108 -3.99411 0
M  V30 2683 H 256.393 -3.59225 -5.39316 0
M  V30 2684 N 249.799 1.42003 -0.683588 0
M  V30 2685 C 251.076 1.95112 -0.138075 0
M  V30 2686 C 251.456 1.62359 1.34918 0
M  V30 2687 O 250.804 0.924311 2.08971 0
M  V30 2688 C 251.014 3.46505 -0.416581 0
M  V30 2689 C 252.362 4.23254 -0.337834 0
M  V30 2690 O 253.386 3.54468 -0.35082 0
M  V30 2691 O 252.245 5.45743 -0.287596 0
M  V30 2692 H 249.339 0.826961 -0.00797996 0
M  V30 2693 H 251.885 1.51784 -0.758924 0
M  V30 2694 H 250.657 3.63582 -1.4465 0
M  V30 2695 H 250.28 3.969 0.235839 0
M  V30 2696 N 251.277 0.427512 1.51691 0
M  V30 2697 C 252.224 -0.388867 2.275 0
M  V30 2698 C 253.194 -1.02532 1.30677 0
M  V30 2699 O 254.379 -1.0461 1.59566 0
M  V30 2700 C 251.519 -1.48954 3.11298 0
M  V30 2701 C 250.632 -0.872194 4.23104 0
M  V30 2702 C 249.767 -1.94709 4.94228 0
M  V30 2703 C 248.806 -1.30766 5.97969 0
M  V30 2704 N 247.943 -2.32349 6.62539 0
M  V30 2705 H 252.783 0.263997 2.96828 0
M  V30 2706 H 250.32 0.142033 1.46413 0
M  V30 2707 H 252.278 -2.13887 3.58201 0
M  V30 2708 H 250.908 -2.11217 2.44105 0
M  V30 2709 H 249.96 -0.111419 3.80237 0
M  V30 2710 H 251.272 -0.365264 4.97461 0
M  V30 2711 H 250.426 -2.67327 5.44629 0
M  V30 2712 H 249.165 -2.48773 4.1948 0
M  V30 2713 H 248.17 -0.566902 5.4687 0
M  V30 2714 H 249.395 -0.774483 6.74669 0
M  V30 2715 H 247.341 -2.85511 5.90609 0
M  V30 2716 H 247.258 -1.8652 7.3263 0
M  V30 2717 H 248.526 -3.04481 7.17574 0
M  V30 2718 N 252.755 -1.56801 0.158532 0
M  V30 2719 C 254.032 -1.88131 -0.535357 0
M  V30 2720 C 254.412 -1.06638 -1.82186 0
M  V30 2721 O 253.76 -0.156533 -2.27963 0
M  V30 2722 C 253.97 -3.39949 -0.789653 0
M  V30 2723 C 255.318 -4.09416 -1.12533 0
M  V30 2724 O 256.342 -3.45194 -0.878622 0
M  V30 2725 O 255.201 -5.22855 -1.59014 0
M  V30 2726 H 252.295 -0.780143 -0.27442 0
M  V30 2727 H 254.841 -1.68564 0.19601 0
M  V30 2728 H 253.613 -3.91115 0.120353 0
M  V30 2729 H 253.236 -3.65084 -1.57479 0
M  V30 2730 N 254.233 0.115231 -1.57178 0
M  V30 2731 C 255.482 0.820945 -1.84237 0
M  V30 2732 C 255.795 1.80866 -0.744761 0
M  V30 2733 O 257.001 2.56083 -0.901871 0
M  V30 2734 C 255.457 1.51072 -3.26658 0
M  V30 2735 C 255.065 0.563795 -4.44438 0
M  V30 2736 C 256.809 2.20134 -3.62962 0
M  V30 2737 C 254.716 1.25701 -5.77887 0
M  V30 2738 H 253.646 0.310328 -0.687177 0
M  V30 2739 H 256.297 0.0737134 -1.83352 0
M  V30 2740 H 254.679 2.30471 -3.22024 0
M  V30 2741 H 255.853 -0.197247 -4.60378 0
M  V30 2742 H 254.168 -0.0200638 -4.16395 0
M  V30 2743 H 256.765 2.72696 -4.59936 0
M  V30 2744 H 257.108 2.98107 -2.90582 0
M  V30 2745 H 257.641 1.47619 -3.69396 0
M  V30 2746 H 254.38 0.518493 -6.53446 0
M  V30 2747 H 253.9 1.98997 -5.65827 0
M  V30 2748 H 255.579 1.78915 -6.2177 0
M  V30 2749 N 255.711 1.52812 0.385517 0
M  V30 2750 C 256.96 1.67249 1.12741 0
M  V30 2751 C 257.273 0.4205 1.91027 0
M  V30 2752 O 258.479 0.445064 2.67827 0
M  V30 2753 C 256.935 2.95583 2.05326 0
M  V30 2754 C 256.543 4.27974 1.32447 0
M  V30 2755 C 258.287 3.19386 2.7963 0
M  V30 2756 C 256.194 5.47412 2.23818 0
M  V30 2757 H 255.124 0.6231 0.424573 0
M  V30 2758 H 257.775 1.79309 0.389924 0
M  V30 2759 H 256.157 2.77277 2.82725 0
M  V30 2760 H 257.331 4.56844 0.602495 0
M  V30 2761 H 255.646 4.10459 0.700885 0
M  V30 2762 H 258.243 4.05801 3.48181 0
M  V30 2763 H 258.586 2.34604 3.43899 0
M  V30 2764 H 259.119 3.38274 2.09322 0
M  V30 2765 H 255.858 6.34612 1.64157 0
M  V30 2766 H 255.378 5.22849 2.93921 0
M  V30 2767 H 257.057 5.81423 2.83824 0
M  V30 2768 N 257.189 -0.644168 1.43834 0
M  V30 2769 C 258.119 -1.76814 1.52509 0
M  V30 2770 C 259.1 -1.65823 0.379052 0
M  V30 2771 O 260.285 -1.84781 0.597466 0
M  V30 2772 C 257.415 -3.15288 1.4564 0
M  V30 2773 C 256.369 -3.41053 2.58586 0
M  V30 2774 C 255.695 -4.79421 2.36769 0
M  V30 2775 C 256.995 -3.34902 4.00797 0
M  V30 2776 H 258.689 -1.69812 2.46586 0
M  V30 2777 H 256.235 -0.815542 1.1868 0
M  V30 2778 H 258.188 -3.93681 1.50311 0
M  V30 2779 H 256.912 -3.23043 0.480725 0
M  V30 2780 H 255.571 -2.65035 2.53282 0
M  V30 2781 H 255.219 -4.83863 1.37424 0
M  V30 2782 H 254.919 -4.9762 3.12487 0
M  V30 2783 H 256.443 -5.6006 2.43238 0
M  V30 2784 H 257.857 -4.03218 4.07539 0
M  V30 2785 H 256.254 -3.64637 4.76613 0
M  V30 2786 H 257.324 -2.32928 4.25291 0
M  V30 2787 N 258.668 -1.30515 -0.883378 0
M  V30 2788 C 259.616 -1.16941 -2.01066 0
M  V30 2789 C 260.61 -0.0809148 -1.69207 0
M  V30 2790 O 261.816 -0.241877 -1.78367 0
M  V30 2791 H 258.191 -0.361705 -0.659298 0
M  V30 2792 H 260.162 -2.12344 -2.09649 0
M  V30 2793 C 258.911 -0.879694 -3.36388 0
M  V30 2794 H 258.234 -1.70936 -3.61415 0
M  V30 2795 H 259.674 -0.82483 -4.159 0
M  V30 2796 C 258.133 0.417409 -3.34304 0
M  V30 2797 O 258.663 1.43843 -3.75063 0
M  V30 2798 N 256.869 0.429141 -2.87414 0
M  V30 2799 H 256.416 -0.402222 -2.5444 0
M  V30 2800 H 256.374 1.29696 -2.86403 0
M  V30 2801 N 260.146 1.09593 -1.13257 0
M  V30 2802 C 261.557 1.63229 -0.906274 0
M  V30 2803 C 261.908 1.8811 0.557578 0
M  V30 2804 O 261.033 1.62953 1.42391 0
M  V30 2805 C 261.628 2.96535 -1.63867 0
M  V30 2806 C 260.187 3.47003 -1.45828 0
M  V30 2807 C 259.334 2.2145 -1.66898 0
M  V30 2808 H 262.285 0.92978 -1.28611 0
M  V30 2809 H 262.306 3.64411 -1.09476 0
M  V30 2810 H 261.818 2.78394 -2.70404 0
M  V30 2811 H 259.919 3.70272 -0.415848 0
M  V30 2812 H 260.032 4.24551 -2.2202 0
M  V30 2813 H 258.396 2.30022 -1.09371 0
M  V30 2814 H 259.179 2.0583 -2.74752 0
M  V30 2815 N 261.624 0.925811 1.2754 0
M  V30 2816 C 262.854 0.580666 1.98272 0
M  V30 2817 C 263.262 -0.845207 1.69272 0
M  V30 2818 O 262.605 -1.57306 0.948707 0
M  V30 2819 C 262.667 0.724418 3.52126 0
M  V30 2820 C 262.331 2.12206 4.04744 0
M  V30 2821 C 263.328 3.09604 4.17662 0
M  V30 2822 C 261.013 2.4385 4.39138 0
M  V30 2823 C 263.007 4.36755 4.64246 0
M  V30 2824 C 260.694 3.71237 4.85414 0
M  V30 2825 C 261.692 4.67503 4.97926 0
M  V30 2826 O 261.38 5.92624 5.43187 0
M  V30 2827 H 261.112 0.218987 0.639547 0
M  V30 2828 H 263.666 1.24452 1.63404 0
M  V30 2829 H 261.896 0.0034663 3.867 0
M  V30 2830 H 263.585 0.384607 4.04074 0
M  V30 2831 H 264.351 2.86478 3.91351 0
M  V30 2832 H 260.23 1.69665 4.28643 0
M  V30 2833 H 263.774 5.11898 4.73927 0
M  V30 2834 H 259.671 3.94182 5.11166 0
M  V30 2835 H 260.439 5.95585 5.61445 0
M  V30 2836 N 263.102 -1.41638 0.69111 0
M  V30 2837 C 264.379 -1.95036 0.148421 0
M  V30 2838 C 264.759 -1.63072 -1.34055 0
M  V30 2839 O 264.107 -0.93538 -2.08478 0
M  V30 2840 C 264.317 -3.46279 0.434951 0
M  V30 2841 C 265.665 -4.23069 0.360275 0
M  V30 2842 O 266.689 -3.54277 0.369613 0
M  V30 2843 O 265.548 -5.45583 0.316534 0
M  V30 2844 H 262.642 -0.826908 0.0123654 0
M  V30 2845 H 265.188 -1.5138 0.766963 0
M  V30 2846 H 263.96 -3.6281 1.46576 0
M  V30 2847 H 263.583 -3.97019 -0.214787 0
M  V30 2848 N 264.58 -0.43555 -1.51462 0
M  V30 2849 C 265.512 0.41257 -2.25456 0
M  V30 2850 C 266.525 0.987822 -1.29406 0
M  V30 2851 O 267.714 0.882266 -1.55172 0
M  V30 2852 C 264.814 1.58894 -2.99342 0
M  V30 2853 C 263.987 1.13288 -4.22474 0
M  V30 2854 C 263.046 2.17917 -4.78956 0
M  V30 2855 O 262.072 1.77425 -5.40841 0
M  V30 2856 N 263.274 3.50382 -4.62832 0
M  V30 2857 H 266.039 -0.221603 -2.9888 0
M  V30 2858 H 263.6 -0.264342 -1.59727 0
M  V30 2859 H 265.592 2.28508 -3.34015 0
M  V30 2860 H 264.162 2.12849 -2.28941 0
M  V30 2861 H 263.382 0.263881 -3.93316 0
M  V30 2862 H 264.67 0.805542 -5.02383 0
M  V30 2863 H 264.068 3.86013 -4.13534 0
M  V30 2864 H 262.625 4.15895 -5.01871 0
M  V30 2865 N 266.058 1.56714 -0.166846 0
M  V30 2866 C 267.474 1.58473 0.189372 0
M  V30 2867 C 267.674 1.18201 1.63189 0
M  V30 2868 O 266.73 0.891528 2.36237 0
M  V30 2869 C 268.043 3.00573 -0.0873872 0
M  V30 2870 C 269.591 3.1299 -0.0252443 0
M  V30 2871 C 270.066 4.57174 -0.274934 0
M  V30 2872 N 271.557 4.62665 -0.222553 0
M  V30 2873 C 272.292 5.72072 -0.389985 0
M  V30 2874 N 271.788 6.90054 -0.616229 0
M  V30 2875 N 273.581 5.61153 -0.326202 0
M  V30 2876 H 265.732 1.8118 -1.10849 0
M  V30 2877 H 267.995 0.839525 -0.440342 0
M  V30 2878 H 267.701 3.34497 -1.0865 0
M  V30 2879 H 267.575 3.72019 0.623037 0
M  V30 2880 H 269.962 2.78895 0.96444 0
M  V30 2881 H 270.043 2.43989 -0.768309 0
M  V30 2882 H 269.687 4.91976 -1.26181 0
M  V30 2883 H 269.617 5.24328 0.48869 0
M  V30 2884 H 272.108 3.77863 -0.0531512 0
M  V30 2885 H 272.421 7.69311 -0.733559 0
M  V30 2886 H 270.766 6.91927 -0.652791 0
M  V30 2887 H 273.957 4.67859 -0.150072 0
M  V30 2888 H 274.13 6.46364 -0.460116 0
M  V30 2889 N 267.536 -0.106894 1.57237 0
M  V30 2890 C 268.764 -0.826389 1.8968 0
M  V30 2891 C 269.179 -1.72856 0.759353 0
M  V30 2892 O 268.536 -1.80503 -0.269263 0
M  V30 2893 C 268.587 -1.64967 3.21665 0
M  V30 2894 O 268.308 -0.783804 4.31031 0
M  V30 2895 C 269.809 -2.47326 3.67892 0
M  V30 2896 H 267.029 -0.236927 0.627779 0
M  V30 2897 H 269.573 -0.0876593 2.04312 0
M  V30 2898 H 267.728 -2.34103 3.08666 0
M  V30 2899 H 268.142 -1.35284 5.06753 0
M  V30 2900 H 269.616 -3.00604 4.6297 0
M  V30 2901 H 270.093 -3.25247 2.95146 0
M  V30 2902 H 270.699 -1.83411 3.83719 0
M  V30 2903 N 269.014 -1.53014 -0.377408 0
M  V30 2904 C 269.961 -1.78616 -1.46168 0
M  V30 2905 C 270.931 -0.629917 -1.53692 0
M  V30 2906 O 272.116 -0.870861 -1.69766 0
M  V30 2907 C 269.256 -1.97123 -2.8326 0
M  V30 2908 C 268.369 -3.24831 -2.84796 0
M  V30 2909 C 267.504 -3.33591 -4.13389 0
M  V30 2910 C 266.543 -4.55377 -4.09021 0
M  V30 2911 N 265.68 -4.61355 -5.29241 0
M  V30 2912 H 270.52 -2.71142 -1.23637 0
M  V30 2913 H 268.057 -1.34326 -0.599577 0
M  V30 2914 H 270.015 -2.05839 -3.62886 0
M  V30 2915 H 268.645 -1.07946 -3.04216 0
M  V30 2916 H 267.697 -3.25128 -1.97474 0
M  V30 2917 H 269.009 -4.14523 -2.77439 0
M  V30 2918 H 268.163 -3.41554 -5.01424 0
M  V30 2919 H 266.902 -2.41894 -4.23484 0
M  V30 2920 H 265.907 -4.47527 -3.19373 0
M  V30 2921 H 267.132 -5.48402 -4.00539 0
M  V30 2922 H 265.078 -3.72554 -5.39944 0
M  V30 2923 H 264.995 -5.44935 -5.24006 0
M  V30 2924 H 266.263 -4.73586 -6.19141 0
M  V30 2925 N 270.492 0.636531 -1.44174 0
M  V30 2926 C 271.74 1.39343 -1.46383 0
M  V30 2927 C 272.061 1.94766 -0.0955715 0
M  V30 2928 O 271.331 1.75452 0.871395 0
M  V30 2929 H 269.911 0.517199 -0.538994 0
M  V30 2930 H 272.573 0.74957 -1.7991 0
M  V30 2931 H 271.669 2.22746 -2.18611 0
M  V30 2932 N 271.97 1.30982 0.876444 0
M  V30 2933 C 273.216 1.21484 1.63136 0
M  V30 2934 C 273.571 -0.226339 1.91064 0
M  V30 2935 O 272.864 -1.15788 1.52656 0
M  V30 2936 C 273.058 1.98572 2.9716 0
M  V30 2937 C 272.887 3.50039 2.82317 0
M  V30 2938 C 271.657 4.19393 2.81847 0
M  V30 2939 C 273.855 4.45111 2.57644 0
M  V30 2940 N 271.837 5.57061 2.57985 0
M  V30 2941 C 273.208 5.70402 2.42986 0
M  V30 2942 C 275.263 4.3461 2.42937 0
M  V30 2943 C 273.966 6.8638 2.15115 0
M  V30 2944 C 275.992 5.50365 2.16454 0
M  V30 2945 C 275.354 6.74642 2.02578 0
M  V30 2946 H 271.453 0.499632 0.601575 0
M  V30 2947 H 274.037 1.65094 1.03209 0
M  V30 2948 H 272.208 1.5734 3.55104 0
M  V30 2949 H 273.94 1.81146 3.61895 0
M  V30 2950 H 270.695 3.71303 2.93991 0
M  V30 2951 H 271.119 6.29529 2.49043 0
M  V30 2952 H 275.761 3.39199 2.52396 0
M  V30 2953 H 273.479 7.81824 2.04394 0
M  V30 2954 H 277.065 5.44154 2.05884 0
M  V30 2955 H 275.945 7.62699 1.82374 0
M  V30 2956 N 273.449 -1.08991 1.13837 0
M  V30 2957 C 274.674 -1.85551 0.926585 0
M  V30 2958 C 275.099 -1.80782 -0.519566 0
M  V30 2959 O 274.457 -1.18855 -1.36906 0
M  V30 2960 C 274.505 -3.31266 1.42462 0
M  V30 2961 O 273.609 -4.07822 0.612789 0
M  V30 2962 H 272.95 -0.575192 0.331738 0
M  V30 2963 H 275.48 -1.37604 1.51414 0
M  V30 2964 H 275.49 -3.82112 1.43019 0
M  V30 2965 H 274.165 -3.34052 2.47754 0
M  V30 2966 H 272.742 -3.66731 0.675463 0
M  V30 2967 N 274.927 -0.932562 -1.27047 0
M  V30 2968 C 276.174 -0.575559 -1.94148 0
M  V30 2969 C 276.502 0.883984 -1.73251 0
M  V30 2970 O 275.757 1.64655 -1.0577 0
M  V30 2971 C 276.056 -0.853713 -3.47054 0
M  V30 2972 C 275.722 -2.29577 -3.88079 0
M  V30 2973 C 274.384 -2.68999 -3.9899 0
M  V30 2974 C 276.736 -3.23331 -4.08787 0
M  V30 2975 C 274.064 -4.01289 -4.28 0
M  V30 2976 C 276.416 -4.55207 -4.39282 0
M  V30 2977 C 275.08 -4.94457 -4.48407 0
M  V30 2978 H 274.35 -0.210612 -0.710439 0
M  V30 2979 H 276.997 -1.17744 -1.51025 0
M  V30 2980 H 275.302 -0.169204 -3.91434 0
M  V30 2981 H 276.999 -0.55639 -3.97121 0
M  V30 2982 H 273.589 -1.97994 -3.80127 0
M  V30 2983 H 277.773 -2.94074 -3.99793 0
M  V30 2984 H 273.029 -4.31374 -4.33275 0
M  V30 2985 H 277.203 -5.27852 -4.54252 0
M  V30 2986 H 274.83 -5.96994 -4.7064 0
M  V30 2987 N 276.405 1.4127 -0.698611 0
M  V30 2988 C 277.652 2.0118 -0.230865 0
M  V30 2989 C 277.98 1.55338 1.17049 0
M  V30 2990 O 277.235 0.756775 1.80475 0
M  V30 2991 C 277.534 3.56592 -0.240192 0
M  V30 2992 C 277.2 4.21955 -1.58948 0
M  V30 2993 C 275.862 4.39524 -1.95887 0
M  V30 2994 C 278.214 4.58576 -2.47704 0
M  V30 2995 C 275.542 4.90992 -3.2116 0
M  V30 2996 C 277.894 5.11435 -3.72313 0
M  V30 2997 C 276.558 5.27215 -4.0939 0
M  V30 2998 H 275.828 0.736169 -0.0844796 0
M  V30 2999 H 278.475 1.69124 -0.8983 0
M  V30 3000 H 276.78 3.88456 0.510797 0
M  V30 3001 H 278.477 4.00758 0.139296 0
M  V30 3002 H 275.067 4.08657 -1.29219 0
M  V30 3003 H 279.251 4.44654 -2.20445 0
M  V30 3004 H 274.507 5.01393 -3.49878 0
M  V30 3005 H 278.681 5.38752 -4.4127 0
M  V30 3006 H 276.308 5.66859 -5.06533 0
M  V30 3007 N 277.883 0.443576 1.51229 0
M  V30 3008 C 278.831 -0.37904 2.29491 0
M  V30 3009 C 279.825 -1.0153 1.35603 0
M  V30 3010 O 281.031 -0.94955 1.52917 0
M  V30 3011 H 277.406 -0.141053 0.738653 0
M  V30 3012 H 279.377 0.301799 2.9687 0
M  V30 3013 C 278.126 -1.46426 3.15364 0
M  V30 3014 H 277.449 -0.984037 3.87501 0
M  V30 3015 H 278.889 -2.01297 3.7317 0
M  V30 3016 C 277.348 -2.45099 2.31146 0
M  V30 3017 O 277.878 -3.49773 1.9754 0
M  V30 3018 N 276.084 -2.16139 1.94249 0
M  V30 3019 H 275.631 -1.31044 2.21777 0
M  V30 3020 H 275.589 -2.82398 1.38198 0
M  V30 3021 N 279.361 -1.56624 0.175154 0
M  V30 3022 C 280.271 -2.21741 -0.766042 0
M  V30 3023 C 281.287 -1.21023 -1.25018 0
M  V30 3024 O 282.463 -1.53697 -1.3015 0
M  V30 3025 C 279.528 -2.84839 -1.97655 0
M  V30 3026 C 278.589 -4.00769 -1.53892 0
M  V30 3027 C 277.822 -4.60849 -2.69173 0
M  V30 3028 O 278.045 -4.19823 -3.86141 0
M  V30 3029 O 276.979 -5.50655 -2.43028 0
M  V30 3030 H 280.805 -3.02738 -0.241585 0
M  V30 3031 H 278.39 -1.49305 -0.053222 0
M  V30 3032 H 280.272 -3.24834 -2.68442 0
M  V30 3033 H 278.947 -2.06836 -2.48999 0
M  V30 3034 H 277.854 -3.65436 -0.80044 0
M  V30 3035 H 279.187 -4.80376 -1.07236 0
M  V30 3036 N 280.839 0.0985539 -1.57292 0
M  V30 3037 C 282.088 0.801358 -1.85098 0
M  V30 3038 C 282.401 1.80066 -0.763902 0
M  V30 3039 O 283.607 2.55112 -0.928981 0
M  V30 3040 C 282.063 1.47599 -3.28242 0
M  V30 3041 C 281.671 0.516624 -4.45011 0
M  V30 3042 C 283.415 2.16272 -3.65276 0
M  V30 3043 C 281.322 1.19564 -5.79188 0
M  V30 3044 H 280.252 0.303022 -0.69043 0
M  V30 3045 H 282.903 0.0542623 -1.8342 0
M  V30 3046 H 281.285 2.27042 -3.2445 0
M  V30 3047 H 282.459 -0.246065 -4.60143 0
M  V30 3048 H 280.774 -0.064227 -4.1635 0
M  V30 3049 H 283.371 2.67802 -4.62803 0
M  V30 3050 H 283.714 2.95009 -2.93727 0
M  V30 3051 H 284.247 1.43693 -3.70941 0
M  V30 3052 H 280.986 0.449157 -6.53959 0
M  V30 3053 H 280.506 1.92984 -5.67906 0
M  V30 3054 H 282.185 1.7231 -6.23633 0
M  V30 3055 N 282.317 1.53212 0.369288 0
M  V30 3056 C 283.733 1.42902 0.710712 0
M  V30 3057 C 283.933 0.565135 1.93413 0
M  V30 3058 O 282.989 0.0461484 2.52458 0
M  V30 3059 C 284.302 2.86042 0.927382 0
M  V30 3060 C 285.85 2.9565 1.02762 0
M  V30 3061 C 286.325 4.39843 1.27679 0
M  V30 3062 N 287.816 4.43256 1.34457 0
M  V30 3063 C 288.551 5.51929 1.55439 0
M  V30 3064 N 288.047 6.70655 1.73762 0
M  V30 3065 N 289.84 5.39502 1.57779 0
M  V30 3066 H 281.991 2.07888 -0.435457 0
M  V30 3067 H 284.254 0.938661 -0.132739 0
M  V30 3068 H 283.96 3.51557 0.100287 0
M  V30 3069 H 283.834 3.29472 1.83653 0
M  V30 3070 H 286.221 2.30291 1.84527 0
M  V30 3071 H 286.302 2.5562 0.0959504 0
M  V30 3072 H 285.946 5.05774 0.464175 0
M  V30 3073 H 285.876 4.77443 2.22162 0
M  V30 3074 H 288.367 3.5769 1.21926 0
M  V30 3075 H 288.68 7.49248 1.89335 0
M  V30 3076 H 287.025 6.73648 1.70948 0
M  V30 3077 H 290.216 4.45713 1.43029 0
M  V30 3078 H 290.389 6.2426 1.7379 0
M  V30 3079 N 283.795 -0.628877 1.44509 0
M  V30 3080 C 284.743 -1.76193 1.51852 0
M  V30 3081 C 285.737 -1.64849 0.390042 0
M  V30 3082 O 286.943 -1.709 0.565082 0
M  V30 3083 H 283.318 -0.581728 0.476547 0
M  V30 3084 H 285.289 -1.67123 2.47209 0
M  V30 3085 C 284.038 -3.14533 1.48204 0
M  V30 3086 H 283.361 -3.23911 2.34354 0
M  V30 3087 H 284.801 -3.93701 1.57402 0
M  V30 3088 C 283.26 -3.36287 0.203142 0
M  V30 3089 O 283.79 -3.9509 -0.725745 0
M  V30 3090 N 281.996 -2.90408 0.105563 0
M  V30 3091 H 281.543 -2.42739 0.862301 0
M  V30 3092 H 281.501 -3.05339 -0.749371 0
M  V30 3093 N 285.273 -1.31445 -0.869486 0
M  V30 3094 C 286.55 -1.11795 -1.60503 0
M  V30 3095 C 286.93 0.327168 -2.08549 0
M  V30 3096 O 286.278 1.32135 -1.8642 0
M  V30 3097 C 286.488 -2.13258 -2.76265 0
M  V30 3098 C 287.836 -2.45805 -3.46215 0
M  V30 3099 O 288.86 -2.11688 -2.86473 0
M  V30 3100 O 287.719 -3.04228 -4.5399 0
M  V30 3101 H 284.813 -0.430421 -0.706163 0
M  V30 3102 H 287.359 -1.42925 -0.914907 0
M  V30 3103 H 286.131 -3.10461 -2.3818 0
M  V30 3104 H 285.754 -1.83035 -3.52964 0
M  V30 3105 N 286.751 1.08385 -1.14413 0
M  V30 3106 C 287.981 1.8425 -0.934644 0
M  V30 3107 C 288.389 1.81907 0.520234 0
M  V30 3108 O 287.732 1.22126 1.37226 0
M  V30 3109 C 287.794 3.32853 -1.35828 0
M  V30 3110 C 287.458 3.5893 -2.82875 0
M  V30 3111 C 288.455 3.53756 -3.80989 0
M  V30 3112 C 286.14 3.86934 -3.20293 0
M  V30 3113 C 288.134 3.76216 -5.14529 0
M  V30 3114 C 285.821 4.09047 -4.54008 0
M  V30 3115 C 286.819 4.03682 -5.50936 0
M  V30 3116 O 286.507 4.25214 -6.82238 0
M  V30 3117 H 286.239 0.588502 -0.332628 0
M  V30 3118 H 288.793 1.37792 -1.52324 0
M  V30 3119 H 287.023 3.8007 -0.713019 0
M  V30 3120 H 288.712 3.90154 -1.11957 0
M  V30 3121 H 289.478 3.32135 -3.53428 0
M  V30 3122 H 285.357 3.9023 -2.45442 0
M  V30 3123 H 288.901 3.71943 -5.90173 0
M  V30 3124 H 284.798 4.30151 -4.8129 0
M  V30 3125 H 285.566 4.42619 -6.88499 0
M  V30 3126 N 288.23 0.939286 1.26551 0
M  V30 3127 C 289.507 0.5038 1.89001 0
M  V30 3128 C 289.887 -1.01854 1.84903 0
M  V30 3129 O 289.235 -1.87773 1.30206 0
M  V30 3130 C 289.445 1.063 3.32417 0
M  V30 3131 C 290.793 1.13051 4.09273 0
M  V30 3132 O 291.817 1.01345 3.41479 0
M  V30 3133 O 290.676 1.31233 5.30509 0
M  V30 3134 H 287.77 0.163897 0.810597 0
M  V30 3135 H 290.316 1.03173 1.34735 0
M  V30 3136 H 289.088 2.10665 3.29752 0
M  V30 3137 H 288.711 0.517408 3.94219 0
M  V30 3138 N 289.708 -1.40897 0.706093 0
M  V30 3139 C 290.954 -2.01849 0.250681 0
M  V30 3140 C 291.309 -1.5496 -1.14041 0
M  V30 3141 O 290.602 -0.755566 -1.76073 0
M  V30 3142 C 290.796 -3.5646 0.259099 0
M  V30 3143 C 290.625 -4.18357 1.64947 0
M  V30 3144 C 289.395 -4.522 2.25485 0
M  V30 3145 C 291.593 -4.43856 2.598 0
M  V30 3146 N 289.575 -4.9944 3.56977 0
M  V30 3147 C 290.946 -4.92986 3.75985 0
M  V30 3148 C 293.001 -4.25882 2.57933 0
M  V30 3149 C 291.704 -5.2603 4.90597 0
M  V30 3150 C 293.73 -4.6002 3.71665 0
M  V30 3151 C 293.092 -5.09331 4.86581 0
M  V30 3152 H 289.191 -0.769843 0.137353 0
M  V30 3153 H 291.775 -1.71278 0.925845 0
M  V30 3154 H 289.946 -3.86481 -0.385592 0
M  V30 3155 H 291.678 -4.04144 -0.21213 0
M  V30 3156 H 288.433 -4.3901 1.77671 0
M  V30 3157 H 288.857 -5.27454 4.24407 0
M  V30 3158 H 293.499 -3.86986 1.70298 0
M  V30 3159 H 291.217 -5.63843 5.78884 0
M  V30 3160 H 294.803 -4.47762 3.71484 0
M  V30 3161 H 293.683 -5.35251 5.73129 0
M  V30 3162 N 291.186 -0.45159 -1.50991 0
M  V30 3163 C 292.118 0.388634 -2.25881 0
M  V30 3164 C 293.131 0.974041 -1.30446 0
M  V30 3165 O 294.32 0.865758 -1.56099 0
M  V30 3166 C 291.42 1.5571 -3.01011 0
M  V30 3167 C 290.593 1.08801 -4.23652 0
M  V30 3168 C 289.652 2.12825 -4.8124 0
M  V30 3169 O 288.678 1.71678 -5.42693 0
M  V30 3170 N 289.88 3.45453 -4.66522 0
M  V30 3171 H 292.645 -0.25329 -2.98628 0
M  V30 3172 H 290.206 -0.281268 -1.59438 0
M  V30 3173 H 292.198 2.24952 -3.3642 0
M  V30 3174 H 290.768 2.10409 -2.31186 0
M  V30 3175 H 289.988 0.22215 -3.93574 0
M  V30 3176 H 291.276 0.752213 -5.03209 0
M  V30 3177 H 290.674 3.81605 -4.17605 0
M  V30 3178 H 289.231 4.10549 -5.06254 0
M  V30 3179 N 292.664 1.56529 -0.183458 0
M  V30 3180 C 294.08 1.58664 0.172554 0
M  V30 3181 C 294.28 1.19925 1.61926 0
M  V30 3182 O 293.336 0.916534 2.35278 0
M  V30 3183 C 294.649 3.00463 -0.119262 0
M  V30 3184 C 296.197 3.12945 -0.0584396 0
M  V30 3185 C 296.672 4.56857 -0.323408 0
M  V30 3186 N 298.163 4.62403 -0.271612 0
M  V30 3187 C 298.898 5.71626 -0.450639 0
M  V30 3188 N 298.394 6.89362 -0.689384 0
M  V30 3189 N 300.187 5.60775 -0.385701 0
M  V30 3190 H 292.338 1.79994 -1.12765 0
M  V30 3191 H 294.601 0.834808 -0.449222 0
M  V30 3192 H 294.307 3.33326 -1.12192 0
M  V30 3193 H 294.181 3.72659 0.583544 0
M  V30 3194 H 296.568 2.79902 0.934805 0
M  V30 3195 H 296.649 2.4316 -0.794144 0
M  V30 3196 H 296.293 4.9061 -1.31392 0
M  V30 3197 H 296.223 5.24816 0.43305 0
M  V30 3198 H 298.714 3.77785 -0.0932256 0
M  V30 3199 H 299.027 7.68489 -0.815113 0
M  V30 3200 H 297.372 6.91196 -0.726142 0
M  V30 3201 H 300.563 4.67674 -0.199687 0
M  V30 3202 H 300.736 6.4584 -0.528646 0
M  V30 3203 N 294.142 -0.090211 1.57342 0
M  V30 3204 C 295.372 -0.805055 1.90269 0
M  V30 3205 C 295.78 -1.72561 0.775842 0
M  V30 3206 O 295.123 -1.81839 -0.260843 0
M  V30 3207 C 295.185 -1.66734 3.18497 0
M  V30 3208 C 294.849 -0.918092 4.47683 0
M  V30 3209 C 295.846 -0.245674 5.19319 0
M  V30 3210 C 293.531 -0.890724 4.94339 0
M  V30 3211 C 295.525 0.444088 6.35851 0
M  V30 3212 C 293.212 -0.197179 6.10782 0
M  V30 3213 C 294.21 0.469044 6.81388 0
M  V30 3214 O 293.898 1.15146 7.95611 0
M  V30 3215 H 293.63 -0.235143 0.633785 0
M  V30 3216 H 296.184 -0.0703805 2.05279 0
M  V30 3217 H 294.414 -2.44437 2.99646 0
M  V30 3218 H 296.103 -2.25919 3.37217 0
M  V30 3219 H 296.869 -0.258246 4.84312 0
M  V30 3220 H 292.748 -1.39873 4.39268 0
M  V30 3221 H 296.292 0.964667 6.90898 0
M  V30 3222 H 292.189 -0.18247 6.45242 0
M  V30 3223 H 292.957 1.05885 8.11622 0
M  V30 3224 N 295.62 -1.53406 -0.361157 0
M  V30 3225 C 296.583 -1.79479 -1.42548 0
M  V30 3226 C 297.583 -0.665327 -1.4639 0
M  V30 3227 O 298.773 -0.933549 -1.47073 0
M  V30 3228 C 295.905 -1.92087 -2.8163 0
M  V30 3229 H 297.098 -2.74538 -1.20701 0
M  V30 3230 H 294.651 -1.4455 -0.594546 0
M  V30 3231 H 295.386 -0.991099 -3.08784 0
M  V30 3232 H 295.171 -2.74241 -2.80239 0
M  V30 3233 H 296.661 -2.13836 -3.58697 0
M  V30 3234 N 297.098 0.621204 -1.44841 0
M  V30 3235 C 298.028 1.74366 -1.55303 0
M  V30 3236 C 299.009 1.65199 -0.405385 0
M  V30 3237 O 300.194 1.83807 -0.626787 0
M  V30 3238 C 297.324 3.12931 -1.50637 0
M  V30 3239 C 296.278 3.36896 -2.63979 0
M  V30 3240 C 295.604 4.75594 -2.44366 0
M  V30 3241 C 296.904 3.28483 -4.06074 0
M  V30 3242 H 298.598 1.65867 -2.49256 0
M  V30 3243 H 296.144 0.796558 -1.19962 0
M  V30 3244 H 298.097 3.9124 -1.56555 0
M  V30 3245 H 296.821 3.22237 -0.532057 0
M  V30 3246 H 295.48 2.60972 -2.57467 0
M  V30 3247 H 295.128 4.81616 -1.45105 0
M  V30 3248 H 294.828 4.92586 -3.20364 0
M  V30 3249 H 296.352 5.5612 -2.52117 0
M  V30 3250 H 297.766 3.96684 -4.13902 0
M  V30 3251 H 296.163 3.57008 -4.82354 0
M  V30 3252 H 297.233 2.26133 -4.28943 0
M  V30 3253 N 298.576 1.31904 0.862503 0
M  V30 3254 C 299.801 1.25135 1.65397 0
M  V30 3255 C 300.226 -0.179 1.87246 0
M  V30 3256 O 299.584 -1.1277 1.4196 0
M  V30 3257 C 299.632 2.00832 2.99498 0
M  V30 3258 O 298.736 1.35075 3.89652 0
M  V30 3259 H 298.077 0.431655 0.504549 0
M  V30 3260 H 300.607 1.74094 1.07483 0
M  V30 3261 H 300.617 2.10709 3.49379 0
M  V30 3262 H 299.292 3.04847 2.82916 0
M  V30 3263 H 297.869 1.33696 3.48109 0
M  V30 3264 N 300.054 -1.07777 1.14986 0
M  V30 3265 C 301.3 -1.80557 0.923422 0
M  V30 3266 C 301.633 -1.86298 -0.548337 0
M  V30 3267 O 300.908 -1.34354 -1.40639 0
M  V30 3268 C 301.191 -3.25839 1.53299 0
M  V30 3269 C 301.044 -3.28269 3.07505 0
M  V30 3270 C 302.363 -4.22991 1.21518 0
M  V30 3271 H 299.482 -0.655493 0.336894 0
M  V30 3272 H 302.124 -1.26144 1.42083 0
M  V30 3273 H 300.274 -3.72306 1.10999 0
M  V30 3274 H 301.946 -2.90079 3.58681 0
M  V30 3275 H 300.189 -2.67355 3.4162 0
M  V30 3276 H 300.86 -4.30691 3.45266 0
M  V30 3277 H 303.336 -3.84894 1.581 0
M  V30 3278 H 302.212 -5.22945 1.66793 0
M  V30 3279 H 302.473 -4.41904 0.131505 0
M  V30 3280 N 301.532 -0.945985 -1.26051 0
M  V30 3281 C 302.778 -0.597002 -1.93814 0
M  V30 3282 C 303.111 0.862484 -1.73997 0
M  V30 3283 O 302.386 1.61769 -1.07986 0
M  V30 3284 C 302.669 -0.945937 -3.47454 0
M  V30 3285 C 302.522 -2.46052 -3.76535 0
M  V30 3286 C 303.841 -0.464785 -4.37639 0
M  V30 3287 H 300.96 -0.218366 -0.703907 0
M  V30 3288 H 303.602 -1.18107 -1.48831 0
M  V30 3289 H 301.752 -0.448902 -3.85898 0
M  V30 3290 H 303.424 -3.03065 -3.47778 0
M  V30 3291 H 301.667 -2.90194 -3.22444 0
M  V30 3292 H 302.338 -2.65517 -4.83947 0
M  V30 3293 H 304.814 -0.891016 -4.06448 0
M  V30 3294 H 303.69 -0.737712 -5.4392 0
M  V30 3295 H 303.951 0.635274 -4.37512 0
M  V30 3296 N 303.011 1.40521 -0.713556 0
M  V30 3297 C 304.422 1.83853 -0.324807 0
M  V30 3298 C 304.773 1.59667 1.14021 0
M  V30 3299 O 303.898 1.07649 1.87725 0
M  V30 3300 C 304.493 3.33751 -0.582746 0
M  V30 3301 C 303.052 3.75584 -0.247727 0
M  V30 3302 C 302.199 2.63753 -0.856121 0
M  V30 3303 H 305.15 1.29817 -0.91286 0
M  V30 3304 H 305.171 3.80194 0.152682 0
M  V30 3305 H 304.683 3.51322 -1.64908 0
M  V30 3306 H 302.784 3.63608 0.813624 0
M  V30 3307 H 302.897 4.7373 -0.715307 0
M  V30 3308 H 301.261 2.53108 -0.28432 0
M  V30 3309 H 302.044 2.84137 -1.92668 0
M  V30 3310 N 304.489 0.459591 1.5075 0
M  V30 3311 C 305.905 0.113092 1.59199 0
M  V30 3312 C 306.105 -1.37951 1.46874 0
M  V30 3313 O 305.161 -2.15168 1.32132 0
M  V30 3314 C 306.474 0.653043 2.93523 0
M  V30 3315 C 308.022 0.615449 3.0689 0
M  V30 3316 C 308.497 1.13275 4.43771 0
M  V30 3317 N 309.988 1.09167 4.50152 0
M  V30 3318 C 310.723 1.46256 5.54434 0
M  V30 3319 N 310.219 1.90739 6.66026 0
M  V30 3320 N 312.012 1.37932 5.44914 0
M  V30 3321 H 304.163 1.43049 1.57005 0
M  V30 3322 H 306.426 0.590861 0.741341 0
M  V30 3323 H 306.132 1.69822 3.07983 0
M  V30 3324 H 306.006 0.0902132 3.77092 0
M  V30 3325 H 308.393 -0.420793 2.92084 0
M  V30 3326 H 308.474 1.21495 2.25106 0
M  V30 3327 H 308.118 2.16757 4.59324 0
M  V30 3328 H 308.048 0.509576 5.24129 0
M  V30 3329 H 310.539 0.76528 3.7007 0
M  V30 3330 H 310.852 2.17218 7.41644 0
M  V30 3331 H 309.197 1.94683 6.67176 0
M  V30 3332 H 312.388 1.0303 4.56621 0
M  V30 3333 H 312.561 1.67164 6.26067 0
M  V30 3334 N 305.967 -1.56429 0.191757 0
M  V30 3335 C 307.215 -1.97095 -0.447006 0
M  V30 3336 C 307.536 -1.07967 -1.62383 0
M  V30 3337 O 306.806 -0.150248 -1.95323 0
M  V30 3338 H 305.386 -0.727832 -0.168135 0
M  V30 3339 H 308.048 -1.92911 0.27771 0
M  V30 3340 H 307.144 -3.01848 -0.793371 0
M  V30 3341 N 307.445 0.0818655 -1.57387 0
M  V30 3342 C 308.392 1.09834 -2.0299 0
M  V30 3343 C 309.362 1.39043 -0.908639 0
M  V30 3344 O 310.547 1.50282 -1.17559 0
M  V30 3345 C 307.687 2.40971 -2.47037 0
M  V30 3346 C 306.8 2.18379 -3.7274 0
M  V30 3347 C 305.935 3.43008 -4.0561 0
M  V30 3348 C 304.974 3.15736 -5.24383 0
M  V30 3349 N 304.111 4.32667 -5.52941 0
M  V30 3350 H 308.951 0.702472 -2.89602 0
M  V30 3351 H 306.488 0.33531 -1.43227 0
M  V30 3352 H 308.446 3.1752 -2.70623 0
M  V30 3353 H 307.076 2.78379 -1.63417 0
M  V30 3354 H 306.128 1.32569 -3.56552 0
M  V30 3355 H 307.44 1.94227 -4.59431 0
M  V30 3356 H 306.594 4.27958 -4.30043 0
M  V30 3357 H 305.333 3.70225 -3.17466 0
M  V30 3358 H 304.338 2.2918 -4.99757 0
M  V30 3359 H 305.563 2.8985 -6.14136 0
M  V30 3360 H 303.509 4.59935 -4.67756 0
M  V30 3361 H 303.426 4.11753 -6.34031 0
M  V30 3362 H 304.694 5.18644 -5.81918 0
M  V30 3363 N 308.923 1.53595 0.353017 0
M  V30 3364 C 310.151 1.74311 1.1146 0
M  V30 3365 C 310.566 0.477854 1.82653 0
M  V30 3366 O 309.923 -0.549977 1.74016 0
M  V30 3367 C 309.974 2.91694 2.13534 0
M  V30 3368 O 309.695 4.13325 1.45238 0
M  V30 3369 C 311.196 3.24384 3.02142 0
M  V30 3370 H 308.416 0.582669 0.332773 0
M  V30 3371 H 310.96 2.00386 0.408107 0
M  V30 3372 H 309.115 2.67977 2.79763 0
M  V30 3373 H 309.529 4.79148 2.13349 0
M  V30 3374 H 311.003 4.09893 3.69718 0
M  V30 3375 H 311.48 2.40282 3.67643 0
M  V30 3376 H 312.086 3.50073 2.41514 0
M  V30 3377 N 310.401 -0.613514 1.45168 0
M  V30 3378 C 311.678 -1.37263 1.39349 0
M  V30 3379 C 312.058 -2.11012 0.0610848 0
M  V30 3380 O 311.406 -2.07502 -0.956825 0
M  V30 3381 C 311.616 -2.3244 2.60332 0
M  V30 3382 C 312.964 -2.9523 3.05163 0
M  V30 3383 O 313.988 -2.42762 2.60663 0
M  V30 3384 O 312.847 -3.90454 3.82372 0
M  V30 3385 H 309.941 -0.615188 0.552696 0
M  V30 3386 H 312.487 -0.637097 1.57287 0
M  V30 3387 H 311.259 -1.77164 3.48896 0
M  V30 3388 H 310.882 -3.13383 2.44698 0
M  V30 3389 N 311.879 -1.3236 -0.855495 0
M  V30 3390 C 312.789 -1.23221 -1.99634 0
M  V30 3391 C 313.805 -0.145983 -1.73387 0
M  V30 3392 O 314.981 -0.366502 -1.98037 0
M  V30 3393 C 312.046 -0.954782 -3.33294 0
M  V30 3394 C 311.107 -2.12937 -3.72769 0
M  V30 3395 C 310.34 -1.86508 -5.00051 0
M  V30 3396 O 310.563 -0.807231 -5.64659 0
M  V30 3397 O 309.497 -2.72591 -5.36636 0
M  V30 3398 H 313.323 -2.19126 -2.1028 0
M  V30 3399 H 310.908 -1.12241 -0.986018 0
M  V30 3400 H 312.79 -0.816519 -4.13414 0
M  V30 3401 H 311.465 -0.0258854 -3.2369 0
M  V30 3402 H 310.372 -2.3231 -2.93228 0
M  V30 3403 H 311.705 -3.04102 -3.87018 0
M  V30 3404 N 313.357 1.07166 -1.15556 0
M  V30 3405 C 314.32 2.12589 -0.856644 0
M  V30 3406 C 315.32 1.6015 0.14444 0
M  V30 3407 O 316.51 1.7399 -0.0854163 0
M  V30 3408 C 313.642 3.39753 -0.279405 0
M  V30 3409 H 314.835 2.40539 -1.79112 0
M  V30 3410 H 312.388 1.23086 -0.963298 0
M  V30 3411 H 313.123 3.17447 0.663174 0
M  V30 3412 H 312.908 3.79117 -1.00063 0
M  V30 3413 H 314.398 4.17507 -0.0879113 0
M  V30 3414 N 314.835 0.952656 1.25548 0
M  V30 3415 C 315.745 0.47782 2.29682 0
M  V30 3416 C 316.761 -0.453859 1.67977 0
M  V30 3417 O 317.937 -0.330587 1.98668 0
M  V30 3418 C 315.002 -0.238655 3.45878 0
M  V30 3419 C 314.063 0.730994 4.23031 0
M  V30 3420 C 313.296 0.0486165 5.33678 0
M  V30 3421 O 313.519 -1.16612 5.58353 0
M  V30 3422 O 312.453 0.733152 5.97418 0
M  V30 3423 H 316.279 1.34312 2.72386 0
M  V30 3424 H 313.864 0.719026 1.30959 0
M  V30 3425 H 315.746 -0.641774 4.16484 0
M  V30 3426 H 314.421 -1.07916 3.05181 0
M  V30 3427 H 313.328 1.18428 3.5486 0
M  V30 3428 H 314.661 1.53946 4.67506 0
M  V30 3429 N 316.313 -1.40141 0.720998 0
M  V30 3430 C 317.223 -2.34486 0.0731031 0
M  V30 3431 C 318.239 -1.57587 -0.737723 0
M  V30 3432 O 319.415 -1.89949 -0.669429 0
M  V30 3433 C 316.48 -3.36528 -0.833656 0
M  V30 3434 C 315.541 -4.29298 -0.0121673 0
M  V30 3435 C 314.774 -5.26466 -0.875742 0
M  V30 3436 O 314.997 -5.29745 -2.11485 0
M  V30 3437 O 313.931 -6.01092 -0.31185 0
M  V30 3438 H 317.757 -2.9152 0.851444 0
M  V30 3439 H 315.342 -1.41427 0.481527 0
M  V30 3440 H 317.224 -3.99093 -1.35289 0
M  V30 3441 H 315.899 -2.81899 -1.59105 0
M  V30 3442 H 314.806 -3.70001 0.552262 0
M  V30 3443 H 316.139 -4.87094 0.707129 0
M  V30 3444 N 317.792 -0.46758 -1.50504 0
M  V30 3445 C 319.038 0.0808869 -2.03239 0
M  V30 3446 C 319.393 1.37721 -1.34353 0
M  V30 3447 O 318.686 1.86016 -0.459194 0
M  V30 3448 C 318.88 0.323995 -3.55928 0
M  V30 3449 C 318.709 -0.947215 -4.39611 0
M  V30 3450 C 317.479 -1.48951 -4.82848 0
M  V30 3451 C 319.677 -1.84166 -4.80195 0
M  V30 3452 N 317.659 -2.71011 -5.50842 0
M  V30 3453 C 319.03 -2.90815 -5.47564 0
M  V30 3454 C 321.085 -1.85246 -4.62156 0
M  V30 3455 C 319.788 -3.98529 -5.98805 0
M  V30 3456 C 321.814 -2.91914 -5.14335 0
M  V30 3457 C 321.176 -3.97282 -5.81676 0
M  V30 3458 H 317.275 -0.0103394 -0.781932 0
M  V30 3459 H 319.859 -0.635003 -1.84054 0
M  V30 3460 H 318.03 1.00892 -3.75067 0
M  V30 3461 H 319.762 0.866492 -3.95315 0
M  V30 3462 H 316.517 -1.03918 -4.62058 0
M  V30 3463 H 316.941 -3.32988 -5.89447 0
M  V30 3464 H 321.583 -1.05103 -4.09528 0
M  V30 3465 H 319.301 -4.79491 -6.50472 0
M  V30 3466 H 322.887 -2.93729 -5.0221 0
M  V30 3467 H 321.767 -4.78462 -6.21324 0
M  V30 3468 N 319.27 1.56325 -0.20005 0
M  V30 3469 C 320.233 2.18084 0.705132 0
M  V30 3470 C 321.233 1.13666 1.1374 0
M  V30 3471 O 322.423 1.39023 1.04968 0
M  V30 3472 C 319.555 2.78689 1.96329 0
M  V30 3473 H 320.748 2.99435 0.167023 0
M  V30 3474 H 318.301 1.56221 0.0495725 0
M  V30 3475 H 319.036 2.0115 2.5438 0
M  V30 3476 H 318.821 3.55133 1.66202 0
M  V30 3477 H 320.311 3.26096 2.60866 0
M  V30 3478 N 320.748 -0.0735177 1.57428 0
M  V30 3479 C 321.973 -0.789787 1.91774 0
M  V30 3480 C 322.398 -1.70413 0.796306 0
M  V30 3481 O 321.756 -1.79555 -0.250961 0
M  V30 3482 C 321.804 -1.5609 3.25067 0
M  V30 3483 O 320.908 -2.67144 3.14178 0
M  V30 3484 H 320.249 -0.215582 0.628029 0
M  V30 3485 H 322.779 -0.0422781 2.04556 0
M  V30 3486 H 322.789 -1.94052 3.58898 0
M  V30 3487 H 321.464 -0.890015 4.06265 0
M  V30 3488 H 320.041 -2.32052 2.91901 0
M  V30 3489 N 322.226 -1.5378 -0.344866 0
M  V30 3490 C 323.456 -1.74646 -1.10374 0
M  V30 3491 C 323.864 -0.48491 -1.8288 0
M  V30 3492 O 323.207 0.553062 -1.75177 0
M  V30 3493 C 323.269 -2.87145 -2.16306 0
M  V30 3494 C 322.933 -4.26795 -1.63386 0
M  V30 3495 C 323.93 -5.08412 -1.08688 0
M  V30 3496 C 321.615 -4.73276 -1.68272 0
M  V30 3497 C 323.609 -6.34609 -0.595792 0
M  V30 3498 C 321.296 -5.99446 -1.18776 0
M  V30 3499 C 322.294 -6.79946 -0.645215 0
M  V30 3500 O 321.982 -8.03745 -0.157626 0
M  V30 3501 H 321.714 -0.587112 -0.335075 0
M  V30 3502 H 324.268 -2.01403 -0.403252 0
M  V30 3503 H 322.498 -2.55909 -2.89909 0
M  V30 3504 H 324.187 -2.95992 -2.77747 0
M  V30 3505 H 324.953 -4.73666 -1.04236 0
M  V30 3506 H 320.832 -4.10677 -2.09442 0
M  V30 3507 H 324.376 -6.97389 -0.171654 0
M  V30 3508 H 320.273 -6.33687 -1.22928 0
M  V30 3509 H 321.041 -8.18038 -0.275037 0
M  V30 3510 N 323.704 0.605807 -1.45491 0
M  V30 3511 C 324.952 1.36207 -1.49305 0
M  V30 3512 C 325.273 1.94519 -0.136863 0
M  V30 3513 O 324.543 1.77261 0.833983 0
M  V30 3514 H 323.123 0.50565 -0.549843 0
M  V30 3515 H 325.785 0.711239 -1.81459 0
M  V30 3516 H 324.881 2.18058 -2.23287 0
M  V30 3517 N 325.182 1.32811 0.848464 0
M  V30 3518 C 326.598 1.11937 1.13764 0
M  V30 3519 C 326.798 -0.0960789 2.01271 0
M  V30 3520 O 325.854 -0.779165 2.40178 0
M  V30 3521 C 327.167 2.402 1.809 0
M  V30 3522 C 328.715 2.46016 1.93508 0
M  V30 3523 C 329.19 3.74215 2.64059 0
M  V30 3524 N 330.681 3.75232 2.71579 0
M  V30 3525 C 331.416 4.71134 3.26833 0
M  V30 3526 N 330.912 5.77406 3.8285 0
M  V30 3527 N 332.705 4.58623 3.24995 0
M  V30 3528 H 324.856 2.1073 0.265855 0
M  V30 3529 H 327.119 0.930671 0.180431 0
M  V30 3530 H 326.825 3.29093 1.24058 0
M  V30 3531 H 326.699 2.51628 2.81004 0
M  V30 3532 H 329.086 1.57577 2.49506 0
M  V30 3533 H 329.167 2.38536 0.923811 0
M  V30 3534 H 328.811 4.63031 2.08722 0
M  V30 3535 H 328.741 3.78968 3.65637 0
M  V30 3536 H 331.232 2.98423 2.31845 0
M  V30 3537 H 331.545 6.46632 4.23187 0
M  V30 3538 H 329.89 5.81152 3.81165 0
M  V30 3539 H 333.081 3.74762 2.80484 0
M  V30 3540 H 333.254 5.33535 3.67756 0
M  V30 3541 N 326.66 -1.06551 1.16123 0
M  V30 3542 C 327.59 -2.15935 0.88851 0
M  V30 3543 C 328.571 -1.69306 -0.164135 0
M  V30 3544 O 329.756 -1.94193 -0.0167857 0
M  V30 3545 C 326.886 -3.45149 0.385942 0
M  V30 3546 C 325.84 -4.05271 1.3762 0
M  V30 3547 C 325.166 -5.29664 0.732137 0
M  V30 3548 C 326.466 -4.44355 2.74493 0
M  V30 3549 H 328.16 -2.39006 1.80323 0
M  V30 3550 H 325.706 -1.14866 0.868435 0
M  V30 3551 H 327.659 -4.21004 0.182647 0
M  V30 3552 H 326.383 -3.21689 -0.564274 0
M  V30 3553 H 325.042 -3.3147 1.56599 0
M  V30 3554 H 324.69 -5.02499 -0.224483 0
M  V30 3555 H 324.39 -5.70848 1.39307 0
M  V30 3556 H 325.914 -6.08218 0.538802 0
M  V30 3557 H 327.328 -5.11303 2.59311 0
M  V30 3558 H 325.725 -4.96515 3.37035 0
M  V30 3559 H 326.795 -3.55339 3.29943 0
M  V30 3560 N 328.138 -0.959301 -1.25041 0
M  V30 3561 C 329.068 -0.501388 -2.28053 0
M  V30 3562 C 330.049 0.454673 -1.63911 0
M  V30 3563 O 331.234 0.352618 -1.90972 0
M  V30 3564 C 328.364 0.217224 -3.4662 0
M  V30 3565 C 327.318 -0.654034 -4.22973 0
M  V30 3566 C 326.644 0.195589 -5.34342 0
M  V30 3567 C 327.944 -1.93447 -4.85155 0
M  V30 3568 H 329.638 -1.36238 -2.66608 0
M  V30 3569 H 327.184 -0.656534 -1.28163 0
M  V30 3570 H 329.137 0.548732 -4.17812 0
M  V30 3571 H 327.861 1.1125 -3.07068 0
M  V30 3572 H 326.52 -0.968693 -3.5357 0
M  V30 3573 H 326.168 1.09076 -4.91031 0
M  V30 3574 H 325.868 -0.384091 -5.86343 0
M  V30 3575 H 327.392 0.521958 -6.08365 0
M  V30 3576 H 328.806 -1.66908 -5.48466 0
M  V30 3577 H 327.203 -2.46018 -5.47353 0
M  V30 3578 H 328.273 -2.63466 -4.07079 0
M  V30 3579 N 329.616 1.39756 -0.72842 0
M  V30 3580 C 330.546 2.33289 -0.0991354 0
M  V30 3581 C 331.527 1.53568 0.731489 0
M  V30 3582 O 332.712 1.81987 0.677807 0
M  V30 3583 C 329.842 3.3763 0.813834 0
M  V30 3584 C 328.796 4.2791 0.0878663 0
M  V30 3585 C 328.122 5.22894 1.11741 0
M  V30 3586 C 329.422 5.11314 -1.06563 0
M  V30 3587 H 331.116 2.86163 -0.880408 0
M  V30 3588 H 328.662 1.37591 -0.424819 0
M  V30 3589 H 330.615 4.0201 1.26355 0
M  V30 3590 H 329.339 2.83181 1.62715 0
M  V30 3591 H 327.998 3.65 -0.342159 0
M  V30 3592 H 327.646 4.64744 1.92412 0
M  V30 3593 H 327.346 5.84143 0.636477 0
M  V30 3594 H 328.87 5.90151 1.56697 0
M  V30 3595 H 330.284 5.69076 -0.694671 0
M  V30 3596 H 328.681 5.81671 -1.47577 0
M  V30 3597 H 329.751 4.46534 -1.89038 0
M  V30 3598 N 331.094 0.475555 1.50254 0
M  V30 3599 C 332.51 0.12997 1.5907 0
M  V30 3600 C 332.71 -1.36385 1.48328 0
M  V30 3601 O 331.766 -2.13754 1.34407 0
M  V30 3602 C 333.079 0.684139 2.92814 0
M  V30 3603 C 334.627 0.647965 3.0622 0
M  V30 3604 C 335.102 1.17975 4.42545 0
M  V30 3605 N 336.593 1.13936 4.48969 0
M  V30 3606 C 337.328 1.52129 5.52851 0
M  V30 3607 N 336.824 1.97793 6.63965 0
M  V30 3608 N 338.617 1.43704 5.4342 0
M  V30 3609 H 330.768 1.44706 1.55479 0
M  V30 3610 H 333.031 0.598691 0.735033 0
M  V30 3611 H 332.737 1.73079 3.06164 0
M  V30 3612 H 332.611 0.130204 3.76975 0
M  V30 3613 H 334.998 -0.38979 2.92514 0
M  V30 3614 H 335.079 1.23876 2.23805 0
M  V30 3615 H 334.723 2.21616 4.57 0
M  V30 3616 H 334.653 0.565138 5.23559 0
M  V30 3617 H 337.144 0.804488 3.69238 0
M  V30 3618 H 337.457 2.25072 7.39299 0
M  V30 3619 H 335.802 2.01749 6.65073 0
M  V30 3620 H 338.993 1.07867 4.55502 0
M  V30 3621 H 339.166 1.73794 6.24259 0
M  V30 3622 N 332.573 -1.56217 0.208337 0
M  V30 3623 C 333.483 -2.23316 -0.718836 0
M  V30 3624 C 334.499 -1.23648 -1.22422 0
M  V30 3625 O 335.675 -1.56423 -1.26861 0
M  V30 3626 C 332.74 -2.88968 -1.91568 0
M  V30 3627 C 331.801 -4.03943 -1.45357 0
M  V30 3628 C 331.034 -4.66455 -2.59337 0
M  V30 3629 O 331.257 -4.27919 -3.77149 0
M  V30 3630 O 330.191 -5.55686 -2.31293 0
M  V30 3631 H 334.017 -3.03182 -0.177315 0
M  V30 3632 H 331.602 -1.49384 -0.0215402 0
M  V30 3633 H 333.484 -3.30455 -2.61491 0
M  V30 3634 H 332.159 -2.12071 -2.44556 0
M  V30 3635 H 331.066 -3.67052 -0.722746 0
M  V30 3636 H 332.399 -4.82543 -0.970219 0
M  V30 3637 N 334.051 0.0651679 -1.57465 0
M  V30 3638 C 335.279 0.775808 -1.91804 0
M  V30 3639 C 335.694 1.70782 -0.804916 0
M  V30 3640 O 335.051 1.81153 0.221311 0
M  V30 3641 C 335.102 1.56381 -3.25925 0
M  V30 3642 O 334.823 0.669248 -4.32958 0
M  V30 3643 C 336.324 2.37485 -3.7432 0
M  V30 3644 H 333.544 0.2202 -0.63384 0
M  V30 3645 H 336.088 0.0334587 -2.04473 0
M  V30 3646 H 334.243 2.25837 -3.14764 0
M  V30 3647 H 334.657 1.21801 -5.10162 0
M  V30 3648 H 336.131 2.88223 -4.70778 0
M  V30 3649 H 336.608 3.17307 -3.03666 0
M  V30 3650 H 337.214 1.73173 -3.88447 0
M  V30 3651 N 335.529 1.53961 0.336706 0
M  V30 3652 C 336.492 1.81724 1.39675 0
M  V30 3653 C 337.492 0.688532 1.45313 0
M  V30 3654 O 338.682 0.956829 1.45569 0
M  V30 3655 C 335.814 1.96543 2.78538 0
M  V30 3656 H 337.007 2.76424 1.16318 0
M  V30 3657 H 334.56 1.45478 0.571474 0
M  V30 3658 H 335.295 1.0401 3.07168 0
M  V30 3659 H 335.08 2.78665 2.75841 0
M  V30 3660 H 336.57 2.19516 3.5525 0
M  V30 3661 N 337.007 -0.598083 1.45811 0
M  V30 3662 C 337.954 -1.7082 1.55207 0
M  V30 3663 C 338.924 -1.61278 0.39732 0
M  V30 3664 O 340.109 -1.80717 0.612038 0
M  V30 3665 C 337.249 -3.09144 1.53376 0
M  V30 3666 C 336.362 -3.29423 2.79472 0
M  V30 3667 C 335.497 -4.57907 2.69248 0
M  V30 3668 C 334.536 -4.71476 3.90354 0
M  V30 3669 N 333.673 -5.9127 3.78608 0
M  V30 3670 H 338.513 -1.62125 2.50039 0
M  V30 3671 H 336.05 -0.790389 1.24062 0
M  V30 3672 H 338.008 -3.89186 1.50301 0
M  V30 3673 H 336.638 -3.16773 0.620876 0
M  V30 3674 H 335.69 -2.43091 2.92594 0
M  V30 3675 H 337.002 -3.3532 3.69272 0
M  V30 3676 H 336.156 -5.46157 2.64192 0
M  V30 3677 H 334.895 -4.54423 1.77063 0
M  V30 3678 H 333.9 -3.81648 3.95759 0
M  V30 3679 H 335.125 -4.76751 4.83617 0
M  V30 3680 H 333.071 -5.88813 2.89199 0
M  V30 3681 H 332.988 -5.98369 4.6205 0
M  V30 3682 H 334.256 -6.81992 3.77501 0
M  V30 3683 N 338.485 -1.33259 -0.841409 0
M  V30 3684 C 339.432 -1.23302 -1.95103 0
M  V30 3685 C 340.402 -0.112204 -1.65721 0
M  V30 3686 O 341.587 -0.290038 -1.88583 0
M  V30 3687 C 338.727 -0.975583 -3.31023 0
M  V30 3688 C 337.84 -2.18243 -3.72819 0
M  V30 3689 C 336.975 -1.85936 -4.97595 0
M  V30 3690 C 336.014 -3.02866 -5.3192 0
M  V30 3691 N 335.151 -2.70565 -6.47873 0
M  V30 3692 H 339.991 -2.18207 -2.02952 0
M  V30 3693 H 337.528 -1.0851 -0.993173 0
M  V30 3694 H 339.486 -0.80677 -4.09325 0
M  V30 3695 H 338.116 -0.0632755 -3.22738 0
M  V30 3696 H 337.168 -2.46107 -2.90061 0
M  V30 3697 H 338.48 -3.05666 -3.94169 0
M  V30 3698 H 337.634 -1.65684 -5.83638 0
M  V30 3699 H 336.373 -0.957452 -4.78209 0
M  V30 3700 H 335.378 -3.23736 -4.44382 0
M  V30 3701 H 336.603 -3.93809 -5.53255 0
M  V30 3702 H 334.549 -1.8293 -6.29978 0
M  V30 3703 H 334.466 -3.51519 -6.69306 0
M  V30 3704 H 335.734 -2.53774 -7.37034 0
M  V30 3705 N 339.963 1.05934 -1.16686 0
M  V30 3706 C 340.893 2.1546 -0.899949 0
M  V30 3707 C 341.874 1.69391 0.155154 0
M  V30 3708 O 343.059 1.94199 0.00648693 0
M  V30 3709 C 340.189 3.44939 -0.404241 0
M  V30 3710 C 339.143 4.04536 -1.39767 0
M  V30 3711 C 338.469 5.29268 -0.760216 0
M  V30 3712 C 339.769 4.42893 -2.76845 0
M  V30 3713 H 341.463 2.38046 -1.81588 0
M  V30 3714 H 339.009 1.14404 -0.874514 0
M  V30 3715 H 340.962 4.20901 -0.204971 0
M  V30 3716 H 339.686 3.21983 0.547206 0
M  V30 3717 H 338.345 3.30635 -1.58355 0
M  V30 3718 H 337.993 5.02611 0.197831 0
M  V30 3719 H 337.693 5.70101 -1.42332 0
M  V30 3720 H 339.217 6.07924 -0.57105 0
M  V30 3721 H 340.631 5.09921 -2.62019 0
M  V30 3722 H 339.028 4.94721 -3.39663 0
M  V30 3723 H 340.098 3.53584 -3.31823 0
M  V30 3724 N 341.441 0.965919 1.2453 0
M  V30 3725 C 342.404 0.499547 2.2369 0
M  V30 3726 C 343.404 -0.40294 1.5567 0
M  V30 3727 O 344.594 -0.19865 1.73064 0
M  V30 3728 C 341.726 -0.276792 3.39774 0
M  V30 3729 H 342.919 1.37613 2.66463 0
M  V30 3730 H 340.472 0.750324 1.37112 0
M  V30 3731 H 341.207 -1.17055 3.02438 0
M  V30 3732 H 340.992 0.370826 3.90343 0
M  V30 3733 H 342.482 -0.592175 4.1338 0
M  V30 3734 N 342.919 -1.39368 0.735821 0
M  V30 3735 C 343.849 -2.33234 0.111506 0
M  V30 3736 C 344.83 -1.53954 -0.723334 0
M  V30 3737 O 346.015 -1.82344 -0.668147 0
M  V30 3738 C 343.145 -3.38057 -0.795917 0
M  V30 3739 C 342.099 -4.2795 -0.065172 0
M  V30 3740 C 341.425 -5.23479 -1.08967 0
M  V30 3741 C 342.725 -5.10741 1.09273 0
M  V30 3742 H 344.419 -2.85692 0.895571 0
M  V30 3743 H 341.965 -1.37364 0.432109 0
M  V30 3744 H 343.918 -4.02675 -1.24221 0
M  V30 3745 H 342.642 -2.8404 -1.61211 0
M  V30 3746 H 341.301 -3.64813 0.361511 0
M  V30 3747 H 340.949 -4.65758 -1.89944 0
M  V30 3748 H 340.649 -5.84472 -0.605489 0
M  V30 3749 H 342.173 -5.90974 -1.53565 0
M  V30 3750 H 343.587 -5.68699 0.724841 0
M  V30 3751 H 341.984 -5.8088 1.50659 0
M  V30 3752 H 343.054 -4.45525 1.91404 0
M  V30 3753 N 344.397 -0.483516 -1.5 0
M  V30 3754 C 345.646 0.0689102 -2.01582 0
M  V30 3755 C 345.959 1.39655 -1.36952 0
M  V30 3756 O 347.165 2.03465 -1.79762 0
M  V30 3757 C 345.621 0.173302 -3.59483 0
M  V30 3758 C 345.229 -1.14665 -4.33077 0
M  V30 3759 C 346.973 0.677024 -4.19066 0
M  V30 3760 C 344.88 -1.00537 -5.82792 0
M  V30 3761 H 343.81 0.0295277 -0.753422 0
M  V30 3762 H 346.461 -0.620295 -1.72698 0
M  V30 3763 H 344.843 0.926569 -3.85007 0
M  V30 3764 H 346.017 -1.91184 -4.19268 0
M  V30 3765 H 344.332 -1.58244 -3.85159 0
M  V30 3766 H 346.929 0.799952 -5.28682 0
M  V30 3767 H 347.272 1.67151 -3.81269 0
M  V30 3768 H 347.805 -0.0192083 -3.97795 0
M  V30 3769 H 344.544 -1.9736 -6.25083 0
M  V30 3770 H 344.064 -0.280776 -5.99142 0
M  V30 3771 H 345.743 -0.677 -6.43448 0
M  V30 3772 N 345.875 1.56104 -0.216619 0
M  V30 3773 C 347.123 1.97781 0.415593 0
M  V30 3774 C 347.444 1.10536 1.60645 0
M  V30 3775 O 346.714 0.181303 1.95059 0
M  V30 3776 H 345.294 0.730415 0.156534 0
M  V30 3777 H 347.956 1.92445 -0.308366 0
M  V30 3778 H 347.052 3.03072 0.74525 0
M  V30 3779 N 347.353 -0.0568162 1.57498 0
M  V30 3780 C 348.581 -0.765626 1.92213 0
M  V30 3781 C 348.996 -1.70353 0.813961 0
M  V30 3782 O 348.353 -1.81268 -0.211701 0
M  V30 3783 C 348.404 -1.5465 3.2675 0
M  V30 3784 O 348.125 -0.646278 4.33307 0
M  V30 3785 C 349.626 -2.35497 3.75574 0
M  V30 3786 H 346.846 -0.216835 0.634999 0
M  V30 3787 H 349.39 -0.0226146 2.04487 0
M  V30 3788 H 347.545 -2.24165 3.15957 0
M  V30 3789 H 347.959 -1.19093 5.108 0
M  V30 3790 H 349.433 -2.85722 4.72299 0
M  V30 3791 H 349.91 -3.15692 3.05344 0
M  V30 3792 H 350.516 -1.7111 3.8936 0
M  V30 3793 N 348.832 -1.54138 -0.328536 0
M  V30 3794 C 350.243 -1.63395 -0.903272 0
M  V30 3795 C 350.594 -0.524828 -1.8905 0
M  V30 3796 O 349.719 0.343068 -2.13663 0
M  V30 3797 C 350.314 -2.9618 -1.64507 0
M  V30 3798 C 348.873 -3.0765 -2.1686 0
M  V30 3799 C 348.02 -2.58933 -0.992416 0
M  V30 3800 H 350.971 -1.58344 -0.106253 0
M  V30 3801 H 350.992 -2.86061 -2.50897 0
M  V30 3802 H 350.504 -3.76884 -0.926302 0
M  V30 3803 H 348.605 -2.31611 -2.91868 0
M  V30 3804 H 348.718 -4.1337 -2.42202 0
M  V30 3805 H 347.082 -2.14706 -1.37016 0
M  V30 3806 H 347.865 -3.42089 -0.288041 0
M  V30 3807 N 350.31 0.590341 -1.46126 0
M  V30 3808 C 351.535 1.37991 -1.54833 0
M  V30 3809 C 351.96 1.87163 -0.187506 0
M  V30 3810 O 351.318 1.61133 0.831008 0
M  V30 3811 C 351.366 2.54867 -2.55098 0
M  V30 3812 O 350.47 3.56061 -2.08073 0
M  V30 3813 H 349.811 0.411265 -0.521303 0
M  V30 3814 H 352.341 0.716819 -1.91632 0
M  V30 3815 H 352.351 3.01886 -2.74461 0
M  V30 3816 H 351.026 2.18429 -3.53923 0
M  V30 3817 H 349.603 3.15574 -1.98664 0
M  V30 3818 N 351.788 1.33704 0.83433 0
M  V30 3819 C 352.721 1.18675 1.94914 0
M  V30 3820 C 353.699 0.0811145 1.62398 0
M  V30 3821 O 354.883 0.244186 1.86912 0
M  V30 3822 C 352.01 0.821231 3.28593 0
M  V30 3823 C 351.056 1.93501 3.80079 0
M  V30 3824 S 351.889 3.54671 4.01209 0
M  V30 3825 C 353.045 3.20136 5.37833 0
M  V30 3826 H 353.278 2.13043 2.07364 0
M  V30 3827 H 350.811 1.18598 0.988624 0
M  V30 3828 H 352.769 0.617123 4.05835 0
M  V30 3829 H 351.43 -0.103927 3.13928 0
M  V30 3830 H 350.623 1.63273 4.76821 0
M  V30 3831 H 350.225 2.09601 3.09747 0
M  V30 3832 H 352.517 2.71242 6.20833 0
M  V30 3833 H 353.46 4.15975 5.73036 0
M  V30 3834 H 353.868 2.56613 5.02802 0
M  V30 3835 N 353.266 -1.05314 1.17247 0
M  V30 3836 C 354.682 -1.30452 0.919473 0
M  V30 3837 C 354.882 -1.9703 -0.42209 0
M  V30 3838 O 353.938 -2.24311 -1.15935 0
M  V30 3839 C 355.251 -2.17551 2.07586 0
M  V30 3840 C 356.799 -2.30937 2.11275 0
M  V30 3841 C 357.274 -3.21396 3.26296 0
M  V30 3842 N 358.765 -3.28981 3.26076 0
M  V30 3843 C 359.5 -3.99095 4.11716 0
M  V30 3844 N 358.996 -4.71648 5.07465 0
M  V30 3845 N 360.789 -3.95247 3.9967 0
M  V30 3846 H 352.94 -0.604988 2.03602 0
M  V30 3847 H 355.203 -0.329368 0.888944 0
M  V30 3848 H 354.909 -1.75921 3.0454 0
M  V30 3849 H 354.783 -3.18182 2.02584 0
M  V30 3850 H 357.17 -2.71809 1.14907 0
M  V30 3851 H 357.251 -1.2994 2.20339 0
M  V30 3852 H 356.895 -2.81238 4.22927 0
M  V30 3853 H 356.825 -4.22395 3.14467 0
M  V30 3854 H 359.316 -2.77286 2.5675 0
M  V30 3855 H 359.629 -5.22705 5.6921 0
M  V30 3856 H 357.974 -4.70594 5.11435 0
M  V30 3857 H 361.165 -3.37691 3.24164 0
M  V30 3858 H 361.338 -4.4962 4.66632 0
M  V30 3859 N 354.744 -0.972509 -1.24016 0
M  V30 3860 C 355.654 -0.5143 -2.28893 0
M  V30 3861 C 356.67 0.427078 -1.68677 0
M  V30 3862 O 357.846 0.298939 -1.99169 0
M  V30 3863 C 354.911 0.183598 -3.46214 0
M  V30 3864 C 353.972 -0.798202 -4.21814 0
M  V30 3865 C 353.205 -0.133514 -5.33533 0
M  V30 3866 O 353.428 1.07714 -5.60137 0
M  V30 3867 O 352.362 -0.828103 -5.96176 0
M  V30 3868 H 356.188 -1.38629 -2.70214 0
M  V30 3869 H 353.773 -0.739769 -1.29799 0
M  V30 3870 H 355.655 0.575433 -4.17453 0
M  V30 3871 H 354.33 1.03048 -3.0686 0
M  V30 3872 H 353.237 -1.24059 -3.52931 0
M  V30 3873 H 354.57 -1.61364 -4.64997 0
M  V30 3874 N 356.222 1.38976 -0.743202 0
M  V30 3875 C 357.152 2.33171 -0.123873 0
M  V30 3876 C 358.133 1.54336 0.71516 0
M  V30 3877 O 359.318 1.82696 0.658467 0
M  V30 3878 C 356.448 3.38474 0.777978 0
M  V30 3879 C 355.402 4.27979 0.0424758 0
M  V30 3880 C 354.728 5.2405 1.06189 0
M  V30 3881 C 356.028 5.10155 -1.1198 0
M  V30 3882 H 357.722 2.85213 -0.910709 0
M  V30 3883 H 355.268 1.37133 -0.439388 0
M  V30 3884 H 357.221 4.03328 1.22084 0
M  V30 3885 H 355.945 2.84891 1.59702 0
M  V30 3886 H 354.604 3.64616 -0.380853 0
M  V30 3887 H 354.252 4.66758 1.87472 0
M  V30 3888 H 353.952 5.84785 0.574485 0
M  V30 3889 H 355.476 5.9178 1.50428 0
M  V30 3890 H 356.89 5.68307 -0.75499 0
M  V30 3891 H 355.287 5.80073 -1.53738 0
M  V30 3892 H 356.357 4.44504 -1.93764 0
M  V30 3893 N 357.7 0.491464 1.49741 0
M  V30 3894 C 358.947 -0.0564256 2.02421 0
M  V30 3895 C 359.275 -1.37872 1.37192 0
M  V30 3896 O 358.53 -1.89375 0.493508 0
M  V30 3897 C 358.829 -0.267329 3.56399 0
M  V30 3898 C 358.495 0.975775 4.40215 0
M  V30 3899 C 357.157 1.31655 4.62839 0
M  V30 3900 C 359.509 1.80251 4.89039 0
M  V30 3901 C 356.837 2.48375 5.31532 0
M  V30 3902 C 359.189 2.96116 5.59015 0
M  V30 3903 C 357.853 3.30585 5.79888 0
M  V30 3904 H 357.123 -0.0206476 0.740712 0
M  V30 3905 H 359.77 0.649686 1.80143 0
M  V30 3906 H 358.075 -1.05588 3.77304 0
M  V30 3907 H 359.772 -0.705549 3.94744 0
M  V30 3908 H 356.362 0.700315 4.2284 0
M  V30 3909 H 360.546 1.55239 4.71396 0
M  V30 3910 H 355.802 2.7533 5.45897 0
M  V30 3911 H 359.976 3.60509 5.95824 0
M  V30 3912 H 357.603 4.21132 6.32892 0
M  V30 3913 N 359.178 -1.55987 0.224894 0
M  V30 3914 C 360.128 -2.17076 -0.697296 0
M  V30 3915 C 361.112 -1.12006 -1.15514 0
M  V30 3916 O 362.304 -1.37985 -1.10857 0
M  V30 3917 C 359.433 -2.85679 -1.90374 0
M  V30 3918 C 358.519 -3.97977 -1.46543 0
M  V30 3919 N 358.91 -5.00359 -0.739909 0
M  V30 3920 C 357.208 -4.10128 -1.75245 0
M  V30 3921 C 357.909 -5.79407 -0.515939 0
M  V30 3922 N 356.885 -5.32892 -1.07364 0
M  V30 3923 H 360.687 -2.93592 -0.134594 0
M  V30 3924 H 358.201 -1.62379 0.0262885 0
M  V30 3925 H 360.198 -3.27857 -2.57518 0
M  V30 3926 H 358.858 -2.1066 -2.47088 0
M  V30 3927 H 359.869 -5.16412 -0.392253 0
M  V30 3928 H 356.546 -3.46263 -2.33255 0
M  V30 3929 H 357.936 -6.71872 0.0617349 0
M  V30 3930 N 360.656 0.0484629 -1.57525 0
M  V30 3931 C 361.902 0.738854 -1.89506 0
M  V30 3932 C 362.257 1.73989 -0.821319 0
M  V30 3933 O 361.55 1.90825 0.172129 0
M  V30 3934 C 361.744 1.46632 -3.25935 0
M  V30 3935 C 361.573 0.537254 -4.46479 0
M  V30 3936 C 360.343 0.165484 -5.05029 0
M  V30 3937 C 362.541 -0.176085 -5.13998 0
M  V30 3938 N 360.523 -0.766868 -6.09091 0
M  V30 3939 C 361.894 -0.96478 -6.12448 0
M  V30 3940 C 363.949 -0.24509 -4.97296 0
M  V30 3941 C 362.652 -1.8161 -6.95996 0
M  V30 3942 C 364.678 -1.08347 -5.81391 0
M  V30 3943 C 364.04 -1.86014 -6.79395 0
M  V30 3944 H 360.139 0.245067 -0.742608 0
M  V30 3945 H 362.723 -0.000476161 -1.947 0
M  V30 3946 H 360.894 2.17623 -3.21706 0
M  V30 3947 H 362.626 2.10757 -3.45491 0
M  V30 3948 H 359.381 0.523466 -4.70698 0
M  V30 3949 H 359.805 -1.22698 -6.65788 0
M  V30 3950 H 364.447 0.341063 -4.21422 0
M  V30 3951 H 362.165 -2.41313 -7.71229 0
M  V30 3952 H 365.751 -1.14014 -5.70519 0
M  V30 3953 H 364.631 -2.4984 -7.43337 0
M  V30 3954 N 362.134 1.5431 0.320358 0
M  V30 3955 C 363.362 1.76636 1.07738 0
M  V30 3956 C 363.777 0.51649 1.81598 0
M  V30 3957 O 363.134 -0.512942 1.75143 0
M  V30 3958 C 363.185 2.96158 2.07299 0
M  V30 3959 O 362.906 4.16313 1.36438 0
M  V30 3960 C 364.407 3.3072 2.95193 0
M  V30 3961 H 361.627 0.589597 0.320339 0
M  V30 3962 H 364.171 2.01207 0.36551 0
M  V30 3963 H 362.326 2.73851 2.74016 0
M  V30 3964 H 362.74 4.83565 2.03138 0
M  V30 3965 H 364.214 4.17643 3.60941 0
M  V30 3966 H 364.691 2.48026 3.62463 0
M  V30 3967 H 365.297 3.55117 2.34034 0
M  V30 3968 N 363.613 -0.582584 1.46437 0
M  V30 3969 C 364.841 -1.36682 1.55324 0
M  V30 3970 C 365.256 -1.87796 0.194409 0
M  V30 3971 O 364.613 -1.63623 -0.808318 0
M  V30 3972 C 364.664 -2.55426 2.55812 0
M  V30 3973 O 364.385 -2.0643 3.86417 0
M  V30 3974 C 365.886 -3.47976 2.74641 0
M  V30 3975 H 363.106 -0.417545 0.525259 0
M  V30 3976 H 365.65 -0.708219 1.91845 0
M  V30 3977 H 363.805 -3.17275 2.22295 0
M  V30 3978 H 364.219 -2.83762 4.41111 0
M  V30 3979 H 365.693 -4.27775 3.48874 0
M  V30 3980 H 366.17 -3.99919 1.81553 0
M  V30 3981 H 366.776 -2.91962 3.09255 0
M  V30 3982 N 365.091 -1.34144 -0.827227 0
M  V30 3983 C 366.34 -1.25602 -1.5782 0
M  V30 3984 C 366.653 0.173445 -1.94829 0
M  V30 3985 O 367.859 0.380984 -2.68814 0
M  V30 3986 C 366.315 -2.20151 -2.84713 0
M  V30 3987 C 365.923 -3.68331 -2.55021 0
M  V30 3988 C 367.667 -2.20508 -3.62735 0
M  V30 3989 C 365.574 -4.54762 -3.78082 0
M  V30 3990 H 364.504 -0.466573 -0.592306 0
M  V30 3991 H 367.155 -1.59283 -0.911116 0
M  V30 3992 H 365.537 -1.79417 -3.53023 0
M  V30 3993 H 366.711 -4.17577 -1.94849 0
M  V30 3994 H 365.026 -3.7038 -1.90283 0
M  V30 3995 H 367.623 -2.82306 -4.54101 0
M  V30 3996 H 367.966 -1.20322 -3.98533 0
M  V30 3997 H 368.499 -2.59664 -3.01362 0
M  V30 3998 H 365.238 -5.55867 -3.47407 0
M  V30 3999 H 364.758 -4.10254 -4.37552 0
M  V30 4000 H 366.437 -4.69153 -4.45538 0
M  V30 4001 N 366.569 1.04691 -1.17803 0
M  V30 4002 C 367.532 2.10724 -0.901545 0
M  V30 4003 C 368.532 1.6042 0.110437 0
M  V30 4004 O 369.722 1.7377 -0.122303 0
M  V30 4005 C 366.854 3.39084 -0.351409 0
M  V30 4006 H 368.047 2.36686 -1.84174 0
M  V30 4007 H 365.6 1.21015 -0.98919 0
M  V30 4008 H 366.335 3.18782 0.59569 0
M  V30 4009 H 366.12 3.76909 -1.08083 0
M  V30 4010 H 367.61 4.17227 -0.176451 0
M  V30 4011 N 368.047 0.979072 1.23499 0
M  V30 4012 C 369.275 0.665202 1.95915 0
M  V30 4013 C 369.69 -0.767571 1.72493 0
M  V30 4014 O 369.047 -1.51635 1.01554 0
M  V30 4015 C 369.098 0.944438 3.48945 0
M  V30 4016 O 368.819 2.3209 3.71572 0
M  V30 4017 C 370.32 0.646336 4.38563 0
M  V30 4018 H 367.54 0.247218 0.623798 0
M  V30 4019 H 370.084 1.31009 1.57025 0
M  V30 4020 H 368.239 0.345575 3.85856 0
M  V30 4021 H 368.653 2.40957 4.65876 0
M  V30 4022 H 370.127 0.892091 5.44744 0
M  V30 4023 H 370.604 -0.419575 4.37191 0
M  V30 4024 H 371.21 1.22562 4.07258 0
M  V30 4025 N 369.525 -1.3858 0.750561 0
M  V30 4026 C 370.772 -2.00184 0.305373 0
M  V30 4027 C 371.1 -1.59575 -1.11203 0
M  V30 4028 O 370.355 -0.823236 -1.77542 0
M  V30 4029 C 370.654 -3.55455 0.372373 0
M  V30 4030 C 370.32 -4.15765 1.745 0
M  V30 4031 C 368.982 -4.31951 2.12065 0
M  V30 4032 C 371.334 -4.49067 2.64553 0
M  V30 4033 C 368.662 -4.78734 3.39162 0
M  V30 4034 C 371.014 -4.97265 3.91038 0
M  V30 4035 C 369.678 -5.11658 4.28676 0
M  V30 4036 H 368.948 -0.732526 0.111744 0
M  V30 4037 H 371.595 -1.65673 0.960451 0
M  V30 4038 H 369.9 -3.90084 -0.366272 0
M  V30 4039 H 371.597 -4.00999 0.00953918 0
M  V30 4040 H 368.187 -4.03579 1.44297 0
M  V30 4041 H 372.371 -4.36166 2.36796 0
M  V30 4042 H 367.627 -4.88062 3.68246 0
M  V30 4043 H 371.801 -5.22003 4.60962 0
M  V30 4044 H 369.428 -5.47668 5.27222 0
M  V30 4045 N 371.003 -0.499398 -1.49478 0
M  V30 4046 C 372.28 0.108629 -1.95298 0
M  V30 4047 C 372.66 1.54282 -1.44084 0
M  V30 4048 O 372.008 2.18944 -0.653908 0
M  V30 4049 C 372.218 0.0229111 -3.48992 0
M  V30 4050 C 373.566 0.197643 -4.2414 0
M  V30 4051 O 374.59 0.0981735 -3.56065 0
M  V30 4052 O 373.449 0.401669 -5.45022 0
M  V30 4053 H 370.543 0.096181 -0.821388 0
M  V30 4054 H 373.089 -0.561822 -1.6013 0
M  V30 4055 H 371.861 -0.977321 -3.78899 0
M  V30 4056 H 371.484 0.733579 -3.90774 0
M  V30 4057 N 372.481 1.55866 -0.233164 0
M  V30 4058 C 373.758 1.90471 0.444988 0
M  V30 4059 C 374.138 1.15209 1.7689 0
M  V30 4060 O 373.486 0.265119 2.26957 0
M  V30 4061 C 373.696 3.4333 0.626559 0
M  V30 4062 C 375.044 4.14319 0.92871 0
M  V30 4063 O 376.068 3.48993 0.712926 0
M  V30 4064 O 374.927 5.29846 1.33887 0
M  V30 4065 H 372.021 0.792347 0.236885 0
M  V30 4066 H 374.567 1.67437 -0.276211 0
M  V30 4067 H 373.339 3.90095 -0.306822 0
M  V30 4068 H 372.962 3.72181 1.39881 0
M  V30 4069 N 373.959 -0.0401083 1.57549 0
M  V30 4070 C 374.889 -1.04384 2.08869 0
M  V30 4071 C 375.87 -1.38407 0.988817 0
M  V30 4072 O 377.055 -1.47483 1.26342 0
M  V30 4073 C 374.185 -2.34808 2.55895 0
M  V30 4074 C 373.139 -2.15057 3.70047 0
M  V30 4075 C 372.465 -3.51145 4.03239 0
M  V30 4076 C 373.765 -1.54576 4.98902 0
M  V30 4077 H 375.459 -0.616666 2.92981 0
M  V30 4078 H 373.005 -0.295184 1.40942 0
M  V30 4079 H 374.958 -3.05346 2.90417 0
M  V30 4080 H 373.682 -2.79565 1.68853 0
M  V30 4081 H 372.341 -1.46954 3.35857 0
M  V30 4082 H 371.989 -3.93529 3.13279 0
M  V30 4083 H 371.689 -3.38758 4.80122 0
M  V30 4084 H 373.213 -4.23062 4.40285 0
M  V30 4085 H 374.627 -2.15017 5.31451 0
M  V30 4086 H 373.024 -1.52796 5.80322 0
M  V30 4087 H 374.094 -0.51039 4.82206 0
M  V30 4088 N 375.437 -1.54477 -0.31217 0
M  V30 4089 C 376.853 -1.45442 -0.657185 0
M  V30 4090 C 377.053 -0.63653 -1.91182 0
M  V30 4091 O 376.109 -0.139815 -2.52113 0
M  V30 4092 C 377.422 -2.89287 -0.82058 0
M  V30 4093 C 378.97 -2.9926 -0.917188 0
M  V30 4094 C 379.445 -4.44279 -1.11267 0
M  V30 4095 N 380.936 -4.4794 -1.17914 0
M  V30 4096 C 381.671 -5.57318 -1.34848 0
M  V30 4097 N 381.167 -6.76642 -1.48752 0
M  V30 4098 N 382.96 -5.44986 -1.37647 0
M  V30 4099 H 375.111 -2.06129 0.512313 0
M  V30 4100 H 377.374 -0.933088 0.167485 0
M  V30 4101 H 377.08 -3.51687 0.0302604 0
M  V30 4102 H 376.954 -3.36061 -1.71298 0
M  V30 4103 H 379.341 -2.36981 -1.75852 0
M  V30 4104 H 379.422 -2.558 -0.00101257 0
M  V30 4105 H 379.066 -5.07149 -0.27614 0
M  V30 4106 H 378.996 -4.85359 -2.04289 0
M  V30 4107 H 381.487 -3.61969 -1.08567 0
M  V30 4108 H 381.8 -7.55758 -1.61397 0
M  V30 4109 H 380.145 -6.79529 -1.45828 0
M  V30 4110 H 383.336 -4.50715 -1.26388 0
M  V30 4111 H 383.509 -6.3028 -1.50501 0
M  V30 4112 N 376.915 0.57481 -1.46744 0
M  V30 4113 C 378.163 1.33009 -1.52161 0
M  V30 4114 C 378.484 1.94185 -0.178092 0
M  V30 4115 O 377.754 1.7899 0.796196 0
M  V30 4116 H 376.334 0.493873 -0.560445 0
M  V30 4117 H 378.996 0.672589 -1.82927 0
M  V30 4118 H 378.092 2.13273 -2.27862 0
M  V30 4119 N 378.394 1.34581 0.820102 0
M  V30 4120 C 379.641 1.27096 1.57648 0
M  V30 4121 C 379.969 -0.158317 1.93855 0
M  V30 4122 O 379.224 -1.12028 1.60463 0
M  V30 4123 C 379.523 2.10997 2.8847 0
M  V30 4124 C 379.189 3.59966 2.71543 0
M  V30 4125 C 377.851 4.00575 2.66634 0
M  V30 4126 C 380.203 4.54548 2.55021 0
M  V30 4127 C 377.531 5.33953 2.43128 0
M  V30 4128 C 379.883 5.88109 2.33047 0
M  V30 4129 C 378.547 6.27878 2.26552 0
M  V30 4130 H 377.817 0.465078 0.576874 0
M  V30 4131 H 380.464 1.6635 0.948671 0
M  V30 4132 H 378.769 1.6458 3.55557 0
M  V30 4133 H 380.466 2.0255 3.46084 0
M  V30 4134 H 377.056 3.27733 2.76205 0
M  V30 4135 H 381.24 4.24069 2.57835 0
M  V30 4136 H 376.496 5.63781 2.3656 0
M  V30 4137 H 380.67 6.60985 2.19251 0
M  V30 4138 H 378.297 7.31162 2.081 0
M  V30 4139 N 379.872 -1.04064 1.18357 0
M  V30 4140 C 380.802 -2.14001 0.934113 0
M  V30 4141 C 381.783 -1.69616 -0.128186 0
M  V30 4142 O 382.968 -1.94185 0.0244093 0
M  V30 4143 C 380.098 -3.44253 0.459066 0
M  V30 4144 C 379.052 -4.02261 1.46185 0
M  V30 4145 C 378.378 -5.27992 0.844322 0
M  V30 4146 C 379.678 -4.38432 2.83856 0
M  V30 4147 H 381.372 -2.35127 1.85352 0
M  V30 4148 H 378.918 -1.12998 0.892604 0
M  V30 4149 H 380.871 -4.20522 0.271907 0
M  V30 4150 H 379.595 -3.22813 -0.495912 0
M  V30 4151 H 378.254 -3.28074 1.63595 0
M  V30 4152 H 377.902 -5.02862 -0.117845 0
M  V30 4153 H 377.602 -5.67765 1.51384 0
M  V30 4154 H 379.126 -6.06938 0.667693 0
M  V30 4155 H 380.54 -5.05688 2.70098 0
M  V30 4156 H 378.937 -4.89254 3.47491 0
M  V30 4157 H 380.007 -3.4826 3.37406 0
M  V30 4158 N 381.35 -0.985608 -1.22978 0
M  V30 4159 C 382.26 -0.538548 -2.28335 0
M  V30 4160 C 383.276 0.409163 -1.69121 0
M  V30 4161 O 384.452 0.277797 -1.99475 0
M  V30 4162 C 381.517 0.146867 -3.46389 0
M  V30 4163 C 380.578 -0.842896 -4.20944 0
M  V30 4164 C 379.811 -0.190095 -5.33361 0
M  V30 4165 O 380.034 1.01767 -5.61248 0
M  V30 4166 O 378.968 -0.891289 -5.95264 0
M  V30 4167 H 382.794 -1.41487 -2.68729 0
M  V30 4168 H 380.379 -0.753495 -1.29007 0
M  V30 4169 H 382.261 0.531125 -4.1804 0
M  V30 4170 H 380.936 0.997871 -3.07935 0
M  V30 4171 H 379.843 -1.27795 -3.51595 0
M  V30 4172 H 381.176 -1.66287 -4.6326 0
M  V30 4173 N 382.828 1.3818 -0.7579 0
M  V30 4174 C 384.076 1.99624 -0.315361 0
M  V30 4175 C 384.397 1.60464 1.10799 0
M  V30 4176 O 383.667 0.863507 1.75842 0
M  V30 4177 H 382.247 0.73831 -0.113611 0
M  V30 4178 H 384.909 1.68878 -0.972952 0
M  V30 4179 H 384.005 3.09754 -0.381931 0
M  V30 4180 N 384.306 0.507319 1.49211 0
M  V30 4181 C 385.534 -0.0315749 2.06876 0
M  V30 4182 C 385.949 -1.30241 1.36685 0
M  V30 4183 O 385.306 -1.76937 0.447152 0
M  V30 4184 C 385.357 -0.282627 3.60393 0
M  V30 4185 O 385.078 0.937835 4.27944 0
M  V30 4186 C 386.579 -0.864453 4.3479 0
M  V30 4187 H 383.799 0.0233048 0.670595 0
M  V30 4188 H 386.343 0.706484 1.91909 0
M  V30 4189 H 384.498 -0.97068 3.75042 0
M  V30 4190 H 384.912 0.704567 5.19746 0
M  V30 4191 H 386.386 -0.989664 5.43056 0
M  V30 4192 H 386.863 -1.86382 3.97692 0
M  V30 4193 H 387.469 -0.213672 4.24763 0
M  V30 4194 N 385.784 -1.5574 0.241426 0
M  V30 4195 C 386.714 -2.24133 -0.654722 0
M  V30 4196 C 387.695 -1.21974 -1.1856 0
M  V30 4197 O 388.88 -1.50612 -1.22595 0
M  V30 4198 C 386.01 -2.93659 -1.85423 0
M  V30 4199 C 384.964 -4.0246 -1.45636 0
M  V30 4200 C 384.29 -4.59383 -2.73626 0
M  V30 4201 C 385.59 -5.18468 -0.631506 0
M  V30 4202 H 387.284 -2.99281 -0.0844353 0
M  V30 4203 H 384.83 -1.43947 -0.0391707 0
M  V30 4204 H 386.783 -3.40203 -2.48676 0
M  V30 4205 H 385.507 -2.15991 -2.44981 0
M  V30 4206 H 384.166 -3.56676 -0.847202 0
M  V30 4207 H 383.814 -3.78422 -3.3137 0
M  V30 4208 H 383.514 -5.32826 -2.4773 0
M  V30 4209 H 385.038 -5.08658 -3.37786 0
M  V30 4210 H 386.452 -5.61272 -1.1682 0
M  V30 4211 H 384.849 -5.98266 -0.468831 0
M  V30 4212 H 385.919 -4.8358 0.357506 0
M  V30 4213 N 387.262 0.0317525 -1.57568 0
M  V30 4214 C 388.225 1.01783 -2.0536 0
M  V30 4215 C 389.225 1.29203 -0.957253 0
M  V30 4216 O 390.415 1.24251 -1.22095 0
M  V30 4217 C 387.547 2.35137 -2.46827 0
M  V30 4218 H 388.74 0.605062 -2.93733 0
M  V30 4219 H 386.293 0.278514 -1.53799 0
M  V30 4220 H 387.028 2.81168 -1.61602 0
M  V30 4221 H 386.813 2.16566 -3.26866 0
M  V30 4222 H 388.303 3.05938 -2.84239 0
M  V30 4223 N 388.74 1.54641 0.303973 0
M  V30 4224 C 389.65 1.88439 1.39743 0
M  V30 4225 C 390.666 0.778239 1.55626 0
M  V30 4226 O 391.842 1.07442 1.70347 0
M  V30 4227 C 388.907 2.12212 2.74166 0
M  V30 4228 C 387.968 3.35936 2.67293 0
M  V30 4229 C 387.201 3.58566 3.95305 0
M  V30 4230 O 387.424 2.84263 4.9452 0
M  V30 4231 O 386.358 4.52078 3.97378 0
M  V30 4232 H 390.184 2.81458 1.14083 0
M  V30 4233 H 387.769 1.40793 0.499768 0
M  V30 4234 H 389.651 2.29067 3.53704 0
M  V30 4235 H 388.326 1.22379 2.99675 0
M  V30 4236 H 387.233 3.24448 1.86237 0
M  V30 4237 H 388.566 4.2589 2.46736 0
M  V30 4238 N 390.218 -0.567019 1.47046 0
M  V30 4239 C 391.443 -1.3551 1.57009 0
M  V30 4240 C 391.868 -1.86841 0.217259 0
M  V30 4241 O 391.226 -1.62435 -0.805268 0
M  V30 4242 C 391.274 -2.50777 2.5912 0
M  V30 4243 O 390.378 -3.52706 2.13711 0
M  V30 4244 H 389.719 -0.402919 0.52778 0
M  V30 4245 H 392.249 -0.686241 1.92748 0
M  V30 4246 H 392.259 -2.97481 2.79229 0
M  V30 4247 H 390.934 -2.12771 3.57353 0
M  V30 4248 H 389.511 -3.12374 2.03659 0
M  V30 4249 N 391.696 -1.35014 -0.812953 0
M  V30 4250 C 392.626 -1.30069 -1.93919 0
M  V30 4251 C 393.607 -0.176275 -1.69184 0
M  V30 4252 O 394.792 -0.370227 -1.90638 0
M  V30 4253 C 391.922 -1.06547 -3.30552 0
M  V30 4254 C 390.876 -2.15561 -3.69753 0
M  V30 4255 C 390.202 -1.77214 -5.04479 0
M  V30 4256 C 391.502 -3.57476 -3.808 0
M  V30 4257 H 393.196 -2.24303 -1.98314 0
M  V30 4258 H 390.742 -1.07977 -0.952736 0
M  V30 4259 H 392.695 -1.01729 -4.08937 0
M  V30 4260 H 391.419 -0.0875719 -3.26483 0
M  V30 4261 H 390.078 -2.19466 -2.9365 0
M  V30 4262 H 389.726 -0.780589 -4.96906 0
M  V30 4263 H 389.426 -2.50184 -5.31678 0
M  V30 4264 H 390.95 -1.7391 -5.8531 0
M  V30 4265 H 392.364 -3.55929 -4.4943 0
M  V30 4266 H 390.761 -4.29152 -4.19462 0
M  V30 4267 H 391.831 -3.94091 -2.82525 0
M  V30 4268 N 393.175 1.03435 -1.18907 0
M  V30 4269 C 394.422 1.76743 -0.988334 0
M  V30 4270 C 394.75 1.88447 0.481441 0
M  V30 4271 O 394.005 1.39383 1.37371 0
M  V30 4272 C 394.304 3.19792 -1.59586 0
M  V30 4273 C 393.97 3.28108 -3.09283 0
M  V30 4274 C 392.632 3.30084 -3.5014 0
M  V30 4275 C 394.984 3.27696 -4.05296 0
M  V30 4276 C 392.312 3.29299 -4.85571 0
M  V30 4277 C 394.664 3.28451 -5.4065 0
M  V30 4278 C 393.328 3.28723 -5.80946 0
M  V30 4279 H 392.598 0.64675 -0.361657 0
M  V30 4280 H 395.245 1.21442 -1.48068 0
M  V30 4281 H 393.55 3.78136 -1.02568 0
M  V30 4282 H 395.247 3.75171 -1.41589 0
M  V30 4283 H 391.837 3.27294 -2.76725 0
M  V30 4284 H 396.021 3.25354 -3.74778 0
M  V30 4285 H 391.277 3.2783 -5.16079 0
M  V30 4286 H 395.451 3.27082 -6.14809 0
M  V30 4287 H 393.078 3.27868 -6.85862 0
M  V30 4288 N 394.653 0.992116 1.22453 0
M  V30 4289 C 395.616 0.546883 2.2258 0
M  V30 4290 C 396.616 -0.369829 1.56489 0
M  V30 4291 O 397.806 -0.161896 1.73446 0
M  V30 4292 C 394.938 -0.204659 3.40285 0
M  V30 4293 H 396.131 1.43234 2.63484 0
M  V30 4294 H 393.684 0.779239 1.3549 0
M  V30 4295 H 394.419 -1.10614 3.04853 0
M  V30 4296 H 394.204 0.45354 3.89468 0
M  V30 4297 H 395.694 -0.504358 4.14543 0
M  V30 4298 N 396.131 -1.37776 0.765217 0
M  V30 4299 C 397.379 -1.99454 0.325943 0
M  V30 4300 C 397.7 -1.61049 -1.09947 0
M  V30 4301 O 396.97 -0.872821 -1.75381 0
M  V30 4302 H 395.55 -0.737697 0.117525 0
M  V30 4303 H 398.212 -1.68359 0.981895 0
M  V30 4304 H 397.308 -3.09547 0.398353 0
M  V30 4305 N 397.609 -0.515225 -1.4894 0
M  V30 4306 C 398.834 0.022727 -2.07388 0
M  V30 4307 C 399.259 1.2876 -1.37122 0
M  V30 4308 O 398.617 1.76067 -0.432431 0
M  V30 4309 C 398.665 0.244869 -3.59768 0
M  V30 4310 O 397.769 1.31667 -3.90817 0
M  V30 4311 H 397.11 -0.0325506 -0.663202 0
M  V30 4312 H 399.64 -0.718918 -1.91553 0
M  V30 4313 H 399.65 0.47205 -4.0526 0
M  V30 4314 H 398.325 -0.679194 -4.10317 0
M  V30 4315 H 396.902 1.07331 -3.5712 0
M  V30 4316 N 399.087 1.5561 -0.249682 0
M  V30 4317 C 400.035 2.22894 0.664906 0
M  V30 4318 C 401.029 1.21743 1.17792 0
M  V30 4319 O 402.235 1.39748 1.13449 0
M  V30 4320 H 398.61 0.715022 0.232912 0
M  V30 4321 H 400.581 2.98307 0.0742998 0
M  V30 4322 C 399.33 2.94424 1.84959 0
M  V30 4323 H 398.653 3.72031 1.46399 0
M  V30 4324 H 400.093 3.44862 2.4667 0
M  V30 4325 C 398.552 1.98454 2.72245 0
M  V30 4326 O 399.082 1.51939 3.71857 0
M  V30 4327 N 397.288 1.65496 2.38871 0
M  V30 4328 H 396.835 2.03517 1.57919 0
M  V30 4329 H 396.793 1.0155 2.97548 0
M  V30 4330 N 400.565 -0.0233959 1.57583 0
M  V30 4331 C 401.475 -1.03907 2.10334 0
M  V30 4332 C 402.491 -1.39257 1.04323 0
M  V30 4333 O 403.667 -1.48462 1.36091 0
M  V30 4334 C 400.732 -2.31938 2.57693 0
M  V30 4335 C 399.793 -2.03117 3.78209 0
M  V30 4336 C 399.026 -3.25043 4.233 0
M  V30 4337 O 399.249 -4.35916 3.67876 0
M  V30 4338 O 398.183 -3.10411 5.15683 0
M  V30 4339 H 402.009 -0.620748 2.97288 0
M  V30 4340 H 399.594 -0.240743 1.47448 0
M  V30 4341 H 401.476 -3.07196 2.88458 0
M  V30 4342 H 400.151 -2.73055 1.73847 0
M  V30 4343 H 399.058 -1.25408 3.52454 0
M  V30 4344 H 400.391 -1.66852 4.63056 0
M  V30 4345 N 402.043 -1.548 -0.295768 0
M  V30 4346 C 403.006 -1.85363 -1.34808 0
M  V30 4347 C 404.006 -0.726817 -1.43436 0
M  V30 4348 O 405.196 -0.995088 -1.42981 0
M  V30 4349 C 402.328 -2.03859 -2.73229 0
M  V30 4350 H 403.521 -2.7941 -1.08949 0
M  V30 4351 H 401.074 -1.46942 -0.532702 0
M  V30 4352 H 401.809 -1.12117 -3.04303 0
M  V30 4353 H 401.594 -2.8588 -2.68356 0
M  V30 4354 H 403.084 -2.28857 -3.49305 0
M  V30 4355 N 403.521 0.559213 -1.47345 0
M  V30 4356 C 404.746 1.34676 -1.57725 0
M  V30 4357 C 405.171 1.86723 -0.227164 0
M  V30 4358 O 404.529 1.6286 0.796642 0
M  V30 4359 C 404.577 2.49399 -2.60447 0
M  V30 4360 O 403.681 3.51567 -2.15578 0
M  V30 4361 H 403.022 0.400115 -0.52991 0
M  V30 4362 H 405.552 0.676009 -1.93109 0
M  V30 4363 H 405.562 2.95996 -2.80803 0
M  V30 4364 H 404.237 2.10873 -3.58477 0
M  V30 4365 H 402.814 3.11289 -2.05313 0
M  V30 4366 N 404.999 1.35443 0.805782 0
M  V30 4367 C 405.946 1.28431 1.91766 0
M  V30 4368 C 406.916 0.156102 1.65365 0
M  V30 4369 O 408.101 0.339936 1.87747 0
M  V30 4370 C 405.241 1.06301 3.2832 0
M  V30 4371 C 404.354 2.2805 3.66902 0
M  V30 4372 C 403.489 1.99064 4.92491 0
M  V30 4373 C 402.528 3.16863 5.23703 0
M  V30 4374 N 401.665 2.87647 6.40471 0
M  V30 4375 H 406.505 2.23511 1.97096 0
M  V30 4376 H 404.042 1.11105 0.964054 0
M  V30 4377 H 406 0.915012 4.07042 0
M  V30 4378 H 404.63 0.148822 3.22457 0
M  V30 4379 H 403.682 2.53711 2.83434 0
M  V30 4380 H 404.994 3.1601 3.85927 0
M  V30 4381 H 404.148 1.81099 5.7904 0
M  V30 4382 H 402.887 1.0839 4.75503 0
M  V30 4383 H 401.892 3.35404 4.35642 0
M  V30 4384 H 403.117 4.08339 5.4262 0
M  V30 4385 H 401.063 1.99568 6.24907 0
M  V30 4386 H 400.98 3.69141 6.59751 0
M  V30 4387 H 402.248 2.73226 7.30047 0
M  V30 4388 N 406.477 -1.02803 1.19454 0
M  V30 4389 C 407.44 -2.09264 0.934955 0
M  V30 4390 C 408.44 -1.60576 -0.0849015 0
M  V30 4391 O 409.63 -1.73554 0.149933 0
M  V30 4392 C 406.762 -3.38482 0.40531 0
M  V30 4393 H 407.955 -2.33726 1.87916 0
M  V30 4394 H 405.508 -1.19426 1.00832 0
M  V30 4395 H 406.243 -3.19689 -0.544899 0
M  V30 4396 H 406.028 -3.75142 1.14065 0
M  V30 4397 H 407.518 -4.16894 0.242806 0
M  V30 4398 N 407.956 -0.998596 -1.21925 0
M  V30 4399 C 408.886 -0.573688 -2.26343 0
M  V30 4400 C 409.867 0.402296 -1.65274 0
M  V30 4401 O 411.052 0.291683 -1.91997 0
M  V30 4402 C 408.182 0.106839 -3.47136 0
M  V30 4403 C 407.136 -0.788269 -4.20678 0
M  V30 4404 C 406.462 0.0254927 -5.34694 0
M  V30 4405 C 407.762 -2.08784 -4.78755 0
M  V30 4406 H 409.456 -1.44651 -2.62138 0
M  V30 4407 H 407.002 -0.696975 -1.26009 0
M  V30 4408 H 408.955 0.415531 -4.19346 0
M  V30 4409 H 407.679 1.01424 -3.10452 0
M  V30 4410 H 406.338 -1.08069 -3.50309 0
M  V30 4411 H 405.986 0.933989 -4.94253 0
M  V30 4412 H 405.686 -0.570437 -5.84825 0
M  V30 4413 H 407.21 0.328147 -6.09718 0
M  V30 4414 H 408.624 -1.84272 -5.42878 0
M  V30 4415 H 407.021 -2.63307 -5.39249 0
M  V30 4416 H 408.091 -2.76284 -3.98491 0
M  V30 4417 N 409.434 1.37368 -0.772513 0
M  V30 4418 C 410.662 2.03942 -0.348588 0
M  V30 4419 C 411.077 1.58264 1.02947 0
M  V30 4420 O 410.434 0.764246 1.65727 0
M  V30 4421 C 410.485 3.5946 -0.38351 0
M  V30 4422 O 410.206 4.03468 -1.70721 0
M  V30 4423 C 411.707 4.4327 0.0519152 0
M  V30 4424 H 408.927 0.654931 -0.145966 0
M  V30 4425 H 411.471 1.75686 -1.04665 0
M  V30 4426 H 409.626 3.86486 0.265978 0
M  V30 4427 H 410.04 4.97991 -1.64636 0
M  V30 4428 H 411.514 5.51995 -0.0236733 0
M  V30 4429 H 411.991 4.2514 1.10238 0
M  V30 4430 H 412.597 4.21471 -0.569415 0
M  V30 4431 N 410.912 0.523116 1.48665 0
M  V30 4432 C 412.137 -0.0117284 2.07397 0
M  V30 4433 C 412.562 -1.28031 1.37803 0
M  V30 4434 O 411.92 -1.75836 0.441762 0
M  V30 4435 C 411.968 -0.225786 3.59892 0
M  V30 4436 O 411.072 -1.29592 3.91509 0
M  V30 4437 H 410.413 0.0360673 0.66302 0
M  V30 4438 H 412.943 0.729066 1.9117 0
M  V30 4439 H 412.953 -0.450552 4.05505 0
M  V30 4440 H 411.628 0.700944 4.09951 0
M  V30 4441 H 410.205 -1.05436 3.57684 0
M  V30 4442 N 412.39 -1.55475 0.257931 0
M  V30 4443 C 413.353 -2.20551 -0.623706 0
M  V30 4444 C 414.353 -1.17809 -1.09443 0
M  V30 4445 O 415.543 -1.42823 -0.997362 0
M  V30 4446 C 412.675 -2.85784 -1.8585 0
M  V30 4447 H 413.868 -2.99848 -0.0557743 0
M  V30 4448 H 411.421 -1.56298 0.0084422 0
M  V30 4449 H 412.156 -2.10453 -2.46739 0
M  V30 4450 H 411.941 -3.61057 -1.52907 0
M  V30 4451 H 413.431 -3.35553 -2.48584 0
M  V30 4452 N 413.868 0.0150385 -1.57593 0
M  V30 4453 C 415.284 0.370907 -1.5523 0
M  V30 4454 C 415.484 1.75735 -0.985882 0
M  V30 4455 O 414.54 2.44944 -0.613077 0
M  V30 4456 C 415.853 0.259908 -2.99575 0
M  V30 4457 C 417.401 0.335959 -3.11192 0
M  V30 4458 C 417.876 0.254253 -4.57294 0
M  V30 4459 N 419.367 0.312618 -4.62144 0
M  V30 4460 C 420.102 0.272505 -5.72752 0
M  V30 4461 N 419.598 0.183864 -6.92556 0
M  V30 4462 N 421.391 0.323267 -5.6117 0
M  V30 4463 H 413.542 -0.892104 -1.92757 0
M  V30 4464 H 415.805 -0.340563 -0.884715 0
M  V30 4465 H 415.511 -0.693403 -3.44797 0
M  V30 4466 H 415.385 1.048 -3.62349 0
M  V30 4467 H 417.772 1.27971 -2.65909 0
M  V30 4468 H 417.853 -0.481739 -2.51223 0
M  V30 4469 H 417.497 -0.685887 -5.03247 0
M  V30 4470 H 417.427 1.09024 -5.15191 0
M  V30 4471 H 419.918 0.38307 -3.75953 0
M  V30 4472 H 420.231 0.15874 -7.72637 0
M  V30 4473 H 418.576 0.149708 -6.94839 0
M  V30 4474 H 421.767 0.390607 -4.66467 0
M  V30 4475 H 421.94 0.288539 -6.47357 0
M  V30 4476 N 415.346 1.54954 0.287554 0
M  V30 4477 C 416.593 1.74873 1.02106 0
M  V30 4478 C 416.921 0.541829 1.86801 0
M  V30 4479 O 416.176 -0.475992 1.89823 0
M  V30 4480 C 416.475 2.99833 1.94512 0
M  V30 4481 C 416.141 4.33029 1.25686 0
M  V30 4482 C 414.803 4.69233 1.06649 0
M  V30 4483 C 417.155 5.15542 0.765913 0
M  V30 4484 C 414.483 5.85518 0.372222 0
M  V30 4485 C 416.835 6.32542 0.0853101 0
M  V30 4486 C 415.499 6.67398 -0.1169 0
M  V30 4487 H 414.769 0.639906 0.373632 0
M  V30 4488 H 417.416 1.89219 0.294665 0
M  V30 4489 H 415.721 2.80325 2.73725 0
M  V30 4490 H 417.418 3.1244 2.51361 0
M  V30 4491 H 414.008 4.04564 1.41512 0
M  V30 4492 H 418.192 4.88059 0.90066 0
M  V30 4493 H 413.448 6.11057 0.204695 0
M  V30 4494 H 417.622 6.95741 -0.302936 0
M  V30 4495 H 415.249 7.57357 -0.656859 0
M  V30 4496 N 416.824 -0.551391 1.4764 0
M  V30 4497 C 418.07 -1.31024 1.54792 0
M  V30 4498 C 418.403 -1.9304 0.211967 0
M  V30 4499 O 417.678 -1.78175 -0.77999 0
M  V30 4500 C 417.961 -2.41593 2.67029 0
M  V30 4501 C 417.814 -1.84408 4.10261 0
M  V30 4502 C 419.133 -3.43488 2.75143 0
M  V30 4503 H 416.252 -0.475031 0.563485 0
M  V30 4504 H 418.894 -0.616454 1.79722 0
M  V30 4505 H 417.044 -3.00772 2.45904 0
M  V30 4506 H 418.716 -1.29445 4.42766 0
M  V30 4507 H 416.959 -1.15051 4.18265 0
M  V30 4508 H 417.63 -2.64367 4.84576 0
M  V30 4509 H 420.106 -2.94236 2.94218 0
M  V30 4510 H 418.982 -4.18274 3.55441 0
M  V30 4511 H 419.243 -4.02703 1.82435 0
M  V30 4512 N 418.302 -1.35869 -0.798587 0
M  V30 4513 C 419.232 -1.32118 -1.92528 0
M  V30 4514 C 420.213 -0.194209 -1.68988 0
M  V30 4515 O 421.398 -0.390426 -1.90235 0
M  V30 4516 C 418.528 -1.10047 -3.29404 0
M  V30 4517 C 417.482 -2.19471 -3.67446 0
M  V30 4518 C 416.808 -1.82555 -5.02571 0
M  V30 4519 C 418.108 -3.61495 -3.76987 0
M  V30 4520 H 419.802 -2.26394 -1.95924 0
M  V30 4521 H 417.348 -1.08981 -0.94123 0
M  V30 4522 H 419.301 -1.06061 -4.07835 0
M  V30 4523 H 418.025 -0.122195 -3.26371 0
M  V30 4524 H 416.684 -2.22568 -2.91306 0
M  V30 4525 H 416.332 -0.833249 -4.9605 0
M  V30 4526 H 416.032 -2.5581 -5.28995 0
M  V30 4527 H 417.556 -1.80108 -5.83432 0
M  V30 4528 H 418.97 -3.60676 -4.4563 0
M  V30 4529 H 417.367 -4.33577 -4.14887 0
M  V30 4530 H 418.437 -3.97065 -2.78329 0
M  V30 4531 N 419.78 1.02168 -1.19998 0
M  V30 4532 C 421.005 1.79833 -1.03319 0
M  V30 4533 C 421.43 1.83504 0.413281 0
M  V30 4534 O 420.788 1.26635 1.29743 0
M  V30 4535 C 420.836 3.22396 -1.61533 0
M  V30 4536 O 419.94 4.03555 -0.849519 0
M  V30 4537 H 419.281 0.554872 -0.364709 0
M  V30 4538 H 421.811 1.28542 -1.59179 0
M  V30 4539 H 421.821 3.73124 -1.65054 0
M  V30 4540 H 420.496 3.19039 -2.66809 0
M  V30 4541 H 419.073 3.62169 -0.888129 0
M  V30 4542 N 421.258 1.00505 1.21394 0
M  V30 4543 C 422.535 0.603277 1.86064 0
M  V30 4544 C 422.915 -0.919095 1.90042 0
M  V30 4545 O 422.263 -1.80607 1.39977 0
M  V30 4546 C 422.473 1.23772 3.26315 0
M  V30 4547 C 423.821 1.34586 4.02705 0
M  V30 4548 O 424.845 1.19304 3.35626 0
M  V30 4549 O 423.704 1.59169 5.22807 0
M  V30 4550 H 420.798 0.206634 0.800769 0
M  V30 4551 H 423.344 1.1017 1.29076 0
M  V30 4552 H 422.116 2.27848 3.18121 0
M  V30 4553 H 421.739 0.725648 3.90922 0
M  V30 4554 N 422.737 -1.36956 0.779787 0
M  V30 4555 C 423.684 -2.30175 0.169697 0
M  V30 4556 C 424.654 -1.51501 -0.68094 0
M  V30 4557 O 425.839 -1.80042 -0.631629 0
M  V30 4558 C 422.979 -3.37985 -0.697131 0
M  V30 4559 C 422.092 -4.31661 0.170992 0
M  V30 4560 C 421.227 -5.2655 -0.701298 0
M  V30 4561 C 420.266 -6.11867 0.168869 0
M  V30 4562 N 419.403 -6.98973 -0.661855 0
M  V30 4563 H 424.243 -2.81767 0.970135 0
M  V30 4564 H 421.78 -1.38699 0.489994 0
M  V30 4565 H 423.738 -3.99128 -1.2146 0
M  V30 4566 H 422.368 -2.87739 -1.46309 0
M  V30 4567 H 421.42 -3.71756 0.80634 0
M  V30 4568 H 422.732 -4.91644 0.841875 0
M  V30 4569 H 421.886 -5.92937 -1.28494 0
M  V30 4570 H 420.625 -4.66998 -1.40584 0
M  V30 4571 H 419.63 -5.44452 0.764986 0
M  V30 4572 H 420.855 -6.73493 0.870863 0
M  V30 4573 H 418.801 -6.41941 -1.35086 0
M  V30 4574 H 418.718 -7.55984 -0.0484447 0
M  V30 4575 H 419.986 -7.6974 -1.22963 0
M  V30 4576 N 424.215 -0.530993 -1.48385 0
M  V30 4577 C 425.145 0.219985 -2.32461 0
M  V30 4578 C 426.126 0.934111 -1.42156 0
M  V30 4579 O 427.311 0.919694 -1.71042 0
M  V30 4580 C 424.441 1.26674 -3.23375 0
M  V30 4581 C 423.395 0.67069 -4.22712 0
M  V30 4582 C 422.721 1.82017 -5.02766 0
M  V30 4583 C 424.021 -0.358268 -5.2107 0
M  V30 4584 H 425.715 -0.48187 -2.95497 0
M  V30 4585 H 423.261 -0.233182 -1.42099 0
M  V30 4586 H 425.214 1.80006 -3.81019 0
M  V30 4587 H 423.938 1.99818 -2.58341 0
M  V30 4588 H 422.597 0.158878 -3.66256 0
M  V30 4589 H 422.245 2.54002 -4.34157 0
M  V30 4590 H 421.945 1.42727 -5.70003 0
M  V30 4591 H 423.469 2.35725 -5.63264 0
M  V30 4592 H 424.883 0.0880081 -5.73232 0
M  V30 4593 H 423.28 -0.66861 -5.96364 0
M  V30 4594 H 424.35 -1.26367 -4.68145 0
M  V30 4595 N 425.693 1.55336 -0.266172 0
M  V30 4596 C 427.104 1.85236 0.233315 0
M  V30 4597 C 427.455 1.18816 1.56132 0
M  V30 4598 O 426.58 0.473307 2.11161 0
M  V30 4599 C 427.175 3.36059 0.430113 0
M  V30 4600 C 425.734 3.66116 0.873842 0
M  V30 4601 C 424.881 2.77274 -0.0380016 0
M  V30 4602 H 427.832 1.51004 -0.488214 0
M  V30 4603 H 427.853 3.58681 1.26998 0
M  V30 4604 H 427.365 3.84373 -0.536588 0
M  V30 4605 H 425.466 3.23295 1.85233 0
M  V30 4606 H 425.579 4.73699 0.717358 0
M  V30 4607 H 423.943 2.50198 0.476759 0
M  V30 4608 H 424.726 3.284 -1.00042 0
M  V30 4609 N 427.171 -0.0066808 1.57599 0
M  V30 4610 C 428.081 -1.01671 2.11424 0
M  V30 4611 C 429.097 -1.38143 1.05795 0
M  V30 4612 O 430.273 -1.47011 1.37658 0
M  V30 4613 C 427.338 -2.29192 2.60139 0
M  V30 4614 C 426.399 -1.99094 3.80342 0
M  V30 4615 C 425.632 -3.20535 4.26724 0
M  V30 4616 O 425.855 -4.3199 3.72479 0
M  V30 4617 O 424.789 -3.04924 5.18946 0
M  V30 4618 H 428.615 -0.589181 2.9793 0
M  V30 4619 H 426.2 -0.225091 1.47695 0
M  V30 4620 H 428.082 -3.0412 2.917 0
M  V30 4621 H 426.757 -2.71195 1.76733 0
M  V30 4622 H 425.664 -1.21663 3.53764 0
M  V30 4623 H 426.997 -1.61931 4.648 0
M  V30 4624 N 428.649 -1.55105 -0.279332 0
M  V30 4625 C 429.599 -1.83937 -1.34727 0
M  V30 4626 C 430.583 -0.69785 -1.44979 0
M  V30 4627 O 431.775 -0.95904 -1.48766 0
M  V30 4628 C 428.904 -2.1092 -2.70864 0
M  V30 4629 C 427.99 -3.31314 -2.64748 0
M  V30 4630 N 428.381 -4.51371 -2.2825 0
M  V30 4631 C 426.679 -3.33777 -2.95819 0
M  V30 4632 C 427.38 -5.33447 -2.31969 0
M  V30 4633 N 426.356 -4.71697 -2.7019 0
M  V30 4634 H 430.158 -2.74309 -1.05506 0
M  V30 4635 H 427.672 -1.54896 -0.487959 0
M  V30 4636 H 429.669 -2.2973 -3.47893 0
M  V30 4637 H 428.329 -1.21828 -3.00979 0
M  V30 4638 H 429.34 -4.77584 -2.00335 0
M  V30 4639 H 426.017 -2.54858 -3.30687 0
M  V30 4640 H 427.407 -6.39424 -2.06365 0
M  V30 4641 N 430.127 0.543554 -1.4793 0
M  V30 4642 C 431.373 1.30201 -1.55485 0
M  V30 4643 C 431.706 1.92925 -0.222201 0
M  V30 4644 O 430.981 1.78586 0.77053 0
M  V30 4645 C 431.264 2.40174 -2.68307 0
M  V30 4646 C 431.117 1.8223 -4.11233 0
M  V30 4647 C 432.436 3.42024 -2.76961 0
M  V30 4648 H 429.555 0.472036 -0.565996 0
M  V30 4649 H 432.197 0.606914 -1.80046 0
M  V30 4650 H 430.347 2.99463 -2.47495 0
M  V30 4651 H 432.019 1.27096 -4.43446 0
M  V30 4652 H 430.262 1.12832 -4.18869 0
M  V30 4653 H 430.933 2.61793 -4.85972 0
M  V30 4654 H 433.409 2.92672 -2.95774 0
M  V30 4655 H 432.285 4.16383 -3.57654 0
M  V30 4656 H 432.546 4.0173 -1.84568 0
M  V30 4657 N 431.605 1.3629 0.791371 0
M  V30 4658 C 432.833 1.33562 1.58016 0
M  V30 4659 C 433.248 -0.0835616 1.88615 0
M  V30 4660 O 432.605 -1.0399 1.49974 0
M  V30 4661 C 432.656 2.15517 2.90232 0
M  V30 4662 O 432.377 3.51902 2.60953 0
M  V30 4663 C 433.878 2.20546 3.84544 0
M  V30 4664 H 431.098 0.458226 0.490173 0
M  V30 4665 H 433.642 1.79361 0.982345 0
M  V30 4666 H 431.797 1.73278 3.46487 0
M  V30 4667 H 432.211 3.94644 3.4548 0
M  V30 4668 H 433.685 2.82252 4.74382 0
M  V30 4669 H 434.162 1.20838 4.2225 0
M  V30 4670 H 434.768 2.63013 3.34222 0
M  V30 4671 N 433.083 -1.0153 1.20538 0
M  V30 4672 C 434.016 -2.09759 0.898695 0
M  V30 4673 C 434.994 -1.61909 -0.149733 0
M  V30 4674 O 436.178 -1.88486 -0.0230293 0
M  V30 4675 C 433.305 -3.36913 0.347512 0
M  V30 4676 C 432.351 -4.03655 1.37713 0
M  V30 4677 S 433.184 -4.47402 2.94265 0
M  V30 4678 C 434.34 -5.77756 2.40726 0
M  V30 4679 H 434.573 -2.3545 1.81523 0
M  V30 4680 H 432.106 -1.14665 1.03399 0
M  V30 4681 H 434.064 -4.10484 0.0360518 0
M  V30 4682 H 432.725 -3.09291 -0.547546 0
M  V30 4683 H 431.918 -4.9514 0.940872 0
M  V30 4684 H 431.52 -3.36313 1.63614 0
M  V30 4685 H 433.812 -6.52994 1.80569 0
M  V30 4686 H 434.755 -6.2618 3.30612 0
M  V30 4687 H 435.163 -5.34081 1.82806 0
M  V30 4688 N 434.561 -1.01147 -1.20859 0
M  V30 4689 C 435.972 -0.730205 -1.71828 0
M  V30 4690 C 436.323 0.751662 -1.8123 0
M  V30 4691 O 435.448 1.58686 -1.47132 0
M  V30 4692 C 436.043 -1.31885 -3.12077 0
M  V30 4693 C 434.602 -1.08656 -3.60376 0
M  V30 4694 C 433.749 -1.42769 -2.37723 0
M  V30 4695 H 436.7 -1.18158 -1.05945 0
M  V30 4696 H 436.721 -0.706793 -3.73878 0
M  V30 4697 H 436.233 -2.39737 -3.05201 0
M  V30 4698 H 434.334 -0.0254814 -3.72591 0
M  V30 4699 H 434.447 -1.76301 -4.45483 0
M  V30 4700 H 432.811 -0.846603 -2.40218 0
M  V30 4701 H 433.594 -2.51666 -2.33493 0
M  V30 4702 N 436.039 1.36541 -0.78704 0
M  V30 4703 C 437.316 1.9355 -0.282424 0
M  V30 4704 C 437.696 1.71919 1.22503 0
M  V30 4705 O 437.044 1.07677 2.01539 0
M  V30 4706 C 437.254 3.4246 -0.672462 0
M  V30 4707 C 438.602 4.19582 -0.650863 0
M  V30 4708 O 439.626 3.50889 -0.612789 0
M  V30 4709 O 438.485 5.42106 -0.691623 0
M  V30 4710 H 435.579 0.824091 -0.0693 0
M  V30 4711 H 438.125 1.45736 -0.869423 0
M  V30 4712 H 436.897 3.51851 -1.71221 0
M  V30 4713 H 436.52 3.97556 -0.0592211 0
M  V30 4714 N 437.518 0.538854 1.48102 0
M  V30 4715 C 438.766 0.00798599 2.02098 0
M  V30 4716 C 439.087 -1.33922 1.41739 0
M  V30 4717 O 438.357 -1.86932 0.585934 0
M  V30 4718 H 436.937 -3.62179e-05 0.747 0
M  V30 4719 H 439.599 0.7047 1.81714 0
M  V30 4720 H 438.695 -0.0937672 3.11959 0
M  V30 4721 N 438.996 -1.55193 0.274407 0
M  V30 4722 C 440.273 -1.91584 -0.394331 0
M  V30 4723 C 440.653 -1.19858 -1.73774 0
M  V30 4724 O 440.001 -0.3252 -2.26174 0
M  V30 4725 C 440.211 -3.4487 -0.535311 0
M  V30 4726 C 441.559 -4.16636 -0.818534 0
M  V30 4727 O 442.583 -3.5076 -0.620146 0
M  V30 4728 O 441.442 -5.33209 -1.19792 0
M  V30 4729 H 438.536 -0.798349 -0.215794 0
M  V30 4730 H 441.082 -1.66646 0.320507 0
M  V30 4731 H 439.854 -3.89145 0.410141 0
M  V30 4732 H 439.477 -3.75759 -1.29964 0
M  V30 4733 N 440.474 -0.00167713 -1.576 0
M  V30 4734 C 441.721 0.68282 -1.90641 0
M  V30 4735 C 442.049 1.73686 -0.875415 0
M  V30 4736 O 441.304 1.95334 0.119575 0
M  V30 4737 C 441.603 1.36189 -3.30435 0
M  V30 4738 C 441.269 0.440887 -4.48739 0
M  V30 4739 C 439.931 0.187312 -4.80835 0
M  V30 4740 C 442.283 -0.193134 -5.20842 0
M  V30 4741 C 439.611 -0.70855 -5.82406 0
M  V30 4742 C 441.963 -1.07688 -6.23367 0
M  V30 4743 C 440.627 -1.33962 -6.53919 0
M  V30 4744 H 439.897 0.249862 -0.697603 0
M  V30 4745 H 442.544 -0.0575642 -1.91413 0
M  V30 4746 H 440.849 2.17636 -3.25794 0
M  V30 4747 H 442.546 1.89759 -3.5326 0
M  V30 4748 H 439.136 0.648694 -4.23663 0
M  V30 4749 H 443.32 -0.0102445 -4.96299 0
M  V30 4750 H 438.576 -0.920097 -6.04437 0
M  V30 4751 H 442.75 -1.57451 -6.78367 0
M  V30 4752 H 440.377 -2.03549 -7.32442 0
M  V30 4753 N 441.952 1.55251 0.271103 0
M  V30 4754 C 443.177 1.80306 1.02491 0
M  V30 4755 C 443.602 0.575457 1.79081 0
M  V30 4756 O 442.96 -0.474987 1.74967 0
M  V30 4757 C 443.008 3.02832 1.95768 0
M  V30 4758 O 442.112 2.78051 3.04568 0
M  V30 4759 H 441.453 0.595896 0.292923 0
M  V30 4760 H 443.983 2.02397 0.299436 0
M  V30 4761 H 443.993 3.31616 2.37686 0
M  V30 4762 H 442.668 3.9183 1.39434 0
M  V30 4763 H 441.245 2.60369 2.66951 0
M  V30 4764 N 443.43 -0.535701 1.48216 0
M  V30 4765 C 444.679 -1.28828 1.55197 0
M  V30 4766 C 444.992 -1.94263 0.228278 0
M  V30 4767 O 446.198 -2.70927 0.176278 0
M  V30 4768 C 444.654 -2.33727 2.73678 0
M  V30 4769 C 444.262 -1.74386 4.12666 0
M  V30 4770 C 446.006 -3.1003 2.89968 0
M  V30 4771 C 443.913 -2.77192 5.22416 0
M  V30 4772 H 442.843 -0.484484 0.577747 0
M  V30 4773 H 445.494 -0.56646 1.74538 0
M  V30 4774 H 443.876 -3.08919 2.4776 0
M  V30 4775 H 445.05 -1.05421 4.48579 0
M  V30 4776 H 443.365 -1.10595 4.01445 0
M  V30 4777 H 445.962 -3.86842 3.6913 0
M  V30 4778 H 446.305 -3.65542 1.9921 0
M  V30 4779 H 446.838 -2.41952 3.15759 0
M  V30 4780 H 443.577 -2.26507 6.15122 0
M  V30 4781 H 443.097 -3.44502 4.90998 0
M  V30 4782 H 444.776 -3.40285 5.50286 0
M  V30 4783 N 444.908 -1.36708 -0.784132 0
M  V30 4784 C 446.324 -1.17237 -1.08294 0
M  V30 4785 C 446.524 -5.93947e-05 -2.015 0
M  V30 4786 O 445.58 0.663686 -2.43622 0
M  V30 4787 C 446.893 -2.48557 -1.69233 0
M  V30 4788 C 448.441 -2.54968 -1.8155 0
M  V30 4789 C 448.916 -3.86388 -2.45904 0
M  V30 4790 N 450.407 -3.87762 -2.53367 0
M  V30 4791 C 451.142 -4.86191 -3.03983 0
M  V30 4792 N 450.638 -5.95015 -3.54866 0
M  V30 4793 N 452.431 -4.73606 -3.02743 0
M  V30 4794 H 444.582 -2.11758 -0.16501 0
M  V30 4795 H 446.845 -0.93822 -0.135822 0
M  V30 4796 H 446.551 -3.34638 -1.08215 0
M  V30 4797 H 446.425 -2.64748 -2.68679 0
M  V30 4798 H 448.812 -1.69302 -2.41704 0
M  V30 4799 H 448.893 -2.42672 -0.80895 0
M  V30 4800 H 448.537 -4.72462 -1.86392 0
M  V30 4801 H 448.467 -3.95982 -3.4714 0
M  V30 4802 H 450.958 -3.09145 -2.17343 0
M  V30 4803 H 451.271 -6.66086 -3.91854 0
M  V30 4804 H 449.616 -5.98676 -3.53003 0
M  V30 4805 H 452.807 -3.87717 -2.62284 0
M  V30 4806 H 452.98 -5.50473 -3.41881 0
M  V30 4807 N 446.386 1.0089 -1.21074 0
M  V30 4808 C 447.611 1.78727 -1.05221 0
M  V30 4809 C 448.036 1.83932 0.393795 0
M  V30 4810 O 447.394 1.28004 1.28393 0
M  V30 4811 C 447.442 3.20665 -1.64944 0
M  V30 4812 O 446.546 4.02632 -0.892273 0
M  V30 4813 H 445.887 0.550973 -0.370574 0
M  V30 4814 H 448.417 1.26847 -1.60534 0
M  V30 4815 H 448.427 3.71352 -1.69002 0
M  V30 4816 H 447.102 3.16191 -2.70177 0
M  V30 4817 H 445.679 3.61207 -0.926492 0
M  V30 4818 N 447.864 1.01787 1.20321 0
M  V30 4819 C 449.11 0.718699 1.90279 0
M  V30 4820 C 449.465 -0.743669 1.77447 0
M  V30 4821 O 448.758 -1.53345 1.14874 0
M  V30 4822 C 448.952 1.09076 3.40349 0
M  V30 4823 C 448.781 2.58775 3.67784 0
M  V30 4824 C 447.551 3.25578 3.86428 0
M  V30 4825 C 449.749 3.56966 3.70243 0
M  V30 4826 N 447.731 4.64495 4.01395 0
M  V30 4827 C 449.102 4.8145 3.90649 0
M  V30 4828 C 451.157 3.5092 3.53213 0
M  V30 4829 C 449.86 6.00619 3.95789 0
M  V30 4830 C 451.886 4.69493 3.59625 0
M  V30 4831 C 451.248 5.92786 3.80505 0
M  V30 4832 H 447.347 0.31468 0.715891 0
M  V30 4833 H 449.931 1.30295 1.44677 0
M  V30 4834 H 448.102 0.534839 3.847 0
M  V30 4835 H 449.834 0.744997 3.97784 0
M  V30 4836 H 446.589 2.76003 3.84862 0
M  V30 4837 H 447.013 5.36624 4.12752 0
M  V30 4838 H 451.655 2.56593 3.36035 0
M  V30 4839 H 449.373 6.95326 4.11762 0
M  V30 4840 H 452.959 4.66432 3.47754 0
M  V30 4841 H 451.839 6.83003 3.85327 0
M  V30 4842 N 449.342 -1.36122 0.79427 0
M  V30 4843 C 450.272 -2.32551 0.210328 0
M  V30 4844 C 451.253 -1.56884 -0.657386 0
M  V30 4845 O 452.438 -1.85014 -0.590207 0
M  V30 4846 C 449.568 -3.41128 -0.651819 0
M  V30 4847 C 448.522 -4.27842 0.116395 0
M  V30 4848 C 447.848 -5.2763 -0.86666 0
M  V30 4849 C 449.148 -5.05647 1.30837 0
M  V30 4850 H 450.842 -2.81636 1.01594 0
M  V30 4851 H 448.388 -1.35407 0.489981 0
M  V30 4852 H 450.341 -4.07581 -1.07031 0
M  V30 4853 H 449.065 -2.90622 -1.49019 0
M  V30 4854 H 447.724 -3.62952 0.515915 0
M  V30 4855 H 447.372 -4.73395 -1.70019 0
M  V30 4856 H 447.072 -5.86514 -0.35705 0
M  V30 4857 H 448.596 -5.96955 -1.28361 0
M  V30 4858 H 450.01 -5.65113 0.965393 0
M  V30 4859 H 448.407 -5.73967 1.75161 0
M  V30 4860 H 449.477 -4.37006 2.10128 0
M  V30 4861 N 450.82 -0.546701 -1.47814 0
M  V30 4862 C 451.73 0.21026 -2.33656 0
M  V30 4863 C 452.746 0.922413 -1.47538 0
M  V30 4864 O 453.922 0.893652 -1.80488 0
M  V30 4865 C 450.987 1.23348 -3.24016 0
M  V30 4866 C 450.048 0.529883 -4.26017 0
M  V30 4867 C 449.281 1.50435 -5.12059 0
M  V30 4868 O 449.504 2.73837 -5.00369 0
M  V30 4869 O 448.438 1.03459 -5.92942 0
M  V30 4870 H 452.264 -0.493605 -2.99662 0
M  V30 4871 H 449.849 -0.307427 -1.46203 0
M  V30 4872 H 451.731 1.82438 -3.79861 0
M  V30 4873 H 450.406 1.91945 -2.60651 0
M  V30 4874 H 449.313 -0.101948 -3.73961 0
M  V30 4875 H 450.646 -0.11445 -4.92067 0
M  V30 4876 N 452.299 1.55045 -0.282633 0
M  V30 4877 C 453.576 1.9179 0.384166 0
M  V30 4878 C 453.956 1.20778 1.73136 0
M  V30 4879 O 453.304 0.33719 2.25998 0
M  V30 4880 C 453.514 3.45149 0.517014 0
M  V30 4881 C 454.862 4.17064 0.796427 0
M  V30 4882 O 455.886 3.51084 0.601535 0
M  V30 4883 O 454.745 5.33837 1.16962 0
M  V30 4884 H 451.839 0.799483 0.211558 0
M  V30 4885 H 454.385 1.66474 -0.32934 0
M  V30 4886 H 453.157 3.88922 -0.430772 0
M  V30 4887 H 452.78 3.76443 1.2797 0
M  V30 4888 N 453.777 0.010035 1.57597 0
M  V30 4889 C 455.188 -0.531426 1.78977 0
M  V30 4890 C 455.539 -1.73375 0.918454 0
M  V30 4891 O 454.664 -2.16047 0.123635 0
M  V30 4892 C 455.259 -0.97086 3.24592 0
M  V30 4893 C 453.818 -1.45756 3.47033 0
M  V30 4894 C 452.965 -0.413384 2.74201 0
M  V30 4895 H 455.916 0.236166 1.56933 0
M  V30 4896 H 455.937 -1.83633 3.33255 0
M  V30 4897 H 455.449 -0.0955893 3.87982 0
M  V30 4898 H 453.55 -2.35339 2.88871 0
M  V30 4899 H 453.663 -1.4781 4.55729 0
M  V30 4900 H 452.027 -0.877266 2.39115 0
M  V30 4901 H 452.81 0.453092 3.40297 0
M  V30 4902 N 455.255 -1.55392 -0.262866 0
M  V30 4903 C 456.203 -1.8977 -1.345 0
M  V30 4904 C 457.197 -0.775063 -1.50629 0
M  V30 4905 O 458.403 -0.959519 -1.52293 0
M  V30 4906 H 454.778 -0.602467 -0.450041 0
M  V30 4907 H 456.749 -2.80147 -1.02762 0
M  V30 4908 C 455.498 -2.19501 -2.69657 0
M  V30 4909 H 454.821 -3.05378 -2.5804 0
M  V30 4910 H 456.261 -2.47469 -3.44289 0
M  V30 4911 C 454.72 -1.00597 -3.21531 0
M  V30 4912 O 455.25 -0.245768 -4.00947 0
M  V30 4913 N 453.456 -0.800911 -2.79345 0
M  V30 4914 H 453.003 -1.42079 -2.14875 0
M  V30 4915 H 452.961 -0.00697996 -3.14399 0
M  V30 4916 N 456.733 0.527833 -1.48498 0
M  V30 4917 C 457.981 1.28101 -1.56316 0
M  V30 4918 C 458.302 1.9352 -0.239781 0
M  V30 4919 O 457.572 1.81433 0.738849 0
M  V30 4920 H 456.152 0.475793 -0.575873 0
M  V30 4921 H 458.814 0.614052 -1.84974 0
M  V30 4922 H 457.91 2.05916 -2.34532 0
M  V30 4923 N 458.211 1.37122 0.776871 0
M  V30 4924 C 459.459 1.31787 1.53221 0
M  V30 4925 C 459.78 -0.0987589 1.9475 0
M  V30 4926 O 459.05 -1.0417 1.65908 0
M  V30 4927 H 457.63 0.484839 0.568278 0
M  V30 4928 H 460.292 1.71556 0.924917 0
M  V30 4929 H 459.388 1.95355 2.43398 0
M  V30 4930 N 459.689 -1.00246 1.21608 0
M  V30 4931 C 460.637 -2.11193 0.97469 0
M  V30 4932 C 461.631 -1.69216 -0.0789303 0
M  V30 4933 O 462.837 -1.79853 0.0726806 0
M  V30 4934 H 459.212 -0.690455 0.297953 0
M  V30 4935 H 461.183 -2.2873 1.91638 0
M  V30 4936 C 459.932 -3.43182 0.558717 0
M  V30 4937 H 459.255 -3.75918 1.3611 0
M  V30 4938 H 460.695 -4.21823 0.429154 0
M  V30 4939 C 459.154 -3.28882 -0.730648 0
M  V30 4940 O 459.684 -3.59835 -1.78554 0
M  V30 4941 N 457.89 -2.8209 -0.698131 0
M  V30 4942 H 457.437 -2.57099 0.16061 0
M  V30 4943 H 457.395 -2.72903 -1.56113 0
M  V30 4944 N 461.167 -1.02423 -1.1978 0
M  V30 4945 C 462.097 -0.62157 -2.25075 0
M  V30 4946 C 463.078 0.367148 -1.6609 0
M  V30 4947 O 464.263 0.250892 -1.92573 0
M  V30 4948 C 461.393 0.0331826 -3.47284 0
M  V30 4949 C 460.347 -0.877323 -4.18912 0
M  V30 4950 C 459.673 -0.0879296 -5.34628 0
M  V30 4951 C 460.973 -2.18892 -4.74219 0
M  V30 4952 H 462.667 -1.50179 -2.59011 0
M  V30 4953 H 460.213 -0.723547 -1.24502 0
M  V30 4954 H 462.166 0.326488 -4.20133 0
M  V30 4955 H 460.89 0.948164 -3.12534 0
M  V30 4956 H 459.549 -1.15475 -3.47938 0
M  V30 4957 H 459.197 0.828941 -4.96123 0
M  V30 4958 H 458.897 -0.694359 -5.83483 0
M  V30 4959 H 460.421 0.198743 -6.10276 0
M  V30 4960 H 461.835 -1.95746 -5.38847 0
M  V30 4961 H 460.232 -2.74686 -5.33542 0
M  V30 4962 H 461.302 -2.84674 -3.92541 0
M  V30 4963 N 462.645 1.35699 -0.801477 0
M  V30 4964 C 463.892 1.98913 -0.379459 0
M  V30 4965 C 464.22 1.63592 1.05204 0
M  V30 4966 O 463.475 0.888563 1.74365 0
M  V30 4967 C 463.774 3.53828 -0.504041 0
M  V30 4968 C 463.44 4.09002 -1.8981 0
M  V30 4969 C 462.102 4.23783 -2.27951 0
M  V30 4970 C 464.454 4.38939 -2.81038 0
M  V30 4971 C 461.782 4.65816 -3.56696 0
M  V30 4972 C 464.134 4.82409 -4.09224 0
M  V30 4973 C 462.798 4.95395 -4.4737 0
M  V30 4974 H 462.068 0.727874 -0.138854 0
M  V30 4975 H 464.715 1.61994 -1.02128 0
M  V30 4976 H 463.02 3.91175 0.221242 0
M  V30 4977 H 464.717 4.00687 -0.158361 0
M  V30 4978 H 461.307 3.97946 -1.59176 0
M  V30 4979 H 465.491 4.27077 -2.52821 0
M  V30 4980 H 460.747 4.74059 -3.86106 0
M  V30 4981 H 464.921 5.04535 -4.80018 0
M  V30 4982 H 462.548 5.27724 -5.47185 0
M  V30 4983 N 464.123 0.554532 1.47522 0
M  V30 4984 C 465.372 0.0273458 2.01681 0
M  V30 4985 C 465.685 -1.32962 1.43459 0
M  V30 4986 O 466.891 -1.94657 1.89265 0
M  V30 4987 C 465.347 -0.00159057 3.599 0
M  V30 4988 C 464.955 1.35197 4.27113 0
M  V30 4989 C 466.699 -0.476311 4.21819 0
M  V30 4990 C 464.606 1.28229 5.77331 0
M  V30 4991 H 463.536 0.00645269 0.753972 0
M  V30 4992 H 466.187 0.701985 1.69542 0
M  V30 4993 H 464.569 -0.741821 3.8899 0
M  V30 4994 H 465.743 2.1097 4.09668 0
M  V30 4995 H 464.058 1.76441 3.77171 0
M  V30 4996 H 466.655 -0.5468 5.31897 0
M  V30 4997 H 466.998 -1.4877 3.8881 0
M  V30 4998 H 467.531 0.20898 3.97251 0
M  V30 4999 H 464.27 2.26959 6.14955 0
M  V30 5000 H 463.79 0.566314 5.97121 0
M  V30 5001 H 465.469 0.983226 6.39485 0
M  V30 5002 N 465.601 -1.54893 0.290851 0
M  V30 5003 C 466.829 -2.04343 -0.324288 0
M  V30 5004 C 467.244 -1.16859 -1.48289 0
M  V30 5005 O 466.601 -0.192018 -1.81487 0
M  V30 5006 C 466.652 -3.52756 -0.79026 0
M  V30 5007 O 466.373 -4.36913 0.322213 0
M  V30 5008 C 467.874 -4.18161 -1.4716 0
M  V30 5009 H 465.094 -0.667135 -0.0719173 0
M  V30 5010 H 467.638 -1.99981 0.427529 0
M  V30 5011 H 465.793 -3.57511 -1.49213 0
M  V30 5012 H 466.207 -5.24486 -0.0387372 0
M  V30 5013 H 467.681 -5.23562 -1.7489 0
M  V30 5014 H 468.158 -3.67282 -2.40834 0
M  V30 5015 H 468.764 -4.17454 -0.813178 0
M  V30 5016 N 467.08 -0.0183926 -1.57589 0
M  V30 5017 C 468.326 0.657813 -1.92469 0
M  V30 5018 C 468.681 1.70349 -0.894375 0
M  V30 5019 O 467.974 1.91384 0.0910389 0
M  V30 5020 C 468.168 1.32676 -3.31861 0
M  V30 5021 C 467.997 0.347403 -4.48356 0
M  V30 5022 C 466.767 -0.0488653 -5.05276 0
M  V30 5023 C 468.965 -0.393931 -5.12789 0
M  V30 5024 N 466.947 -1.02451 -6.05291 0
M  V30 5025 C 468.318 -1.22367 -6.07804 0
M  V30 5026 C 470.373 -0.455789 -4.95809 0
M  V30 5027 C 469.076 -2.10966 -6.87667 0
M  V30 5028 C 471.102 -1.32908 -5.76272 0
M  V30 5029 C 470.464 -2.14662 -6.70894 0
M  V30 5030 H 466.563 0.21335 -0.752334 0
M  V30 5031 H 469.147 -0.0830547 -1.94523 0
M  V30 5032 H 467.318 2.03782 -3.30647 0
M  V30 5033 H 469.05 1.95913 -3.54119 0
M  V30 5034 H 465.805 0.323356 -4.72495 0
M  V30 5035 H 466.229 -1.50826 -6.59985 0
M  V30 5036 H 470.871 0.162017 -4.22489 0
M  V30 5037 H 468.589 -2.73807 -7.603 0
M  V30 5038 H 472.175 -1.38109 -5.6517 0
M  V30 5039 H 471.055 -2.81143 -7.32071 0
M  V30 5040 N 468.558 1.5553 0.254621 0
M  V30 5041 C 469.974 1.4778 0.602753 0
M  V30 5042 C 470.174 0.707047 1.88688 0
M  V30 5043 O 469.23 0.233288 2.5142 0
M  V30 5044 C 470.543 2.92133 0.712648 0
M  V30 5045 C 472.091 3.02458 0.805488 0
M  V30 5046 C 472.566 4.48102 0.947009 0
M  V30 5047 N 474.057 4.52008 1.01207 0
M  V30 5048 C 474.792 5.61939 1.1407 0
M  V30 5049 N 474.288 6.81697 1.23536 0
M  V30 5050 N 476.081 5.49719 1.17325 0
M  V30 5051 H 468.232 2.04085 -0.588463 0
M  V30 5052 H 470.495 0.926229 -0.202001 0
M  V30 5053 H 470.201 3.51332 -0.160766 0
M  V30 5054 H 470.075 3.42187 1.58707 0
M  V30 5055 H 472.462 2.43344 1.66936 0
M  V30 5056 H 472.543 2.55627 -0.0939266 0
M  V30 5057 H 472.187 5.07824 0.087725 0
M  V30 5058 H 472.117 4.92607 1.86135 0
M  V30 5059 H 474.608 3.65749 0.950577 0
M  V30 5060 H 474.921 7.61228 1.33236 0
M  V30 5061 H 473.266 6.84473 1.20508 0
M  V30 5062 H 476.457 4.55095 1.09573 0
M  V30 5063 H 476.63 6.35432 1.27005 0
M  V30 5064 N 470.036 -0.519951 1.48776 0
M  V30 5065 C 470.946 -1.65025 1.66745 0
M  V30 5066 C 471.962 -1.6508 0.549954 0
M  V30 5067 O 473.138 -1.83848 0.822295 0
M  V30 5068 C 470.203 -3.0146 1.71238 0
M  V30 5069 C 469.264 -3.12182 2.94688 0
M  V30 5070 C 468.497 -4.42109 2.98958 0
M  V30 5071 O 468.72 -5.29799 2.1135 0
M  V30 5072 O 467.654 -4.57406 3.91233 0
M  V30 5073 H 471.48 -1.52801 2.62461 0
M  V30 5074 H 469.065 -0.694157 1.32294 0
M  V30 5075 H 470.947 -3.82584 1.76657 0
M  V30 5076 H 469.622 -3.13988 0.786975 0
M  V30 5077 H 468.529 -2.30316 2.94797 0
M  V30 5078 H 469.862 -3.04574 3.86646 0
M  V30 5079 N 471.514 -1.37532 -0.769588 0
M  V30 5080 C 472.791 -1.23392 -1.51768 0
M  V30 5081 C 473.171 0.17157 -2.10402 0
M  V30 5082 O 472.519 1.17943 -1.95708 0
M  V30 5083 C 472.729 -2.33163 -2.59685 0
M  V30 5084 C 474.077 -2.70809 -3.27028 0
M  V30 5085 O 475.101 -2.32355 -2.69981 0
M  V30 5086 O 473.96 -3.37066 -4.30173 0
M  V30 5087 H 471.054 -0.481617 -0.67229 0
M  V30 5088 H 473.6 -1.49318 -0.806368 0
M  V30 5089 H 472.372 -3.27273 -2.14494 0
M  V30 5090 H 471.995 -2.08713 -3.38415 0
M  V30 5091 N 472.992 0.995999 -1.22138 0
M  V30 5092 C 473.925 2.08302 -0.931952 0
M  V30 5093 C 474.903 1.62127 0.123956 0
M  V30 5094 O 476.087 1.88499 -0.00696004 0
M  V30 5095 C 473.214 3.36317 -0.401068 0
M  V30 5096 C 472.26 4.01413 -1.44117 0
M  V30 5097 S 473.093 4.42664 -3.01345 0
M  V30 5098 C 474.249 5.73853 -2.49887 0
M  V30 5099 H 474.482 2.32532 -1.85246 0
M  V30 5100 H 472.015 1.13005 -1.0521 0
M  V30 5101 H 473.973 4.10375 -0.101352 0
M  V30 5102 H 472.634 3.10123 0.498272 0
M  V30 5103 H 471.827 4.9358 -1.01952 0
M  V30 5104 H 471.429 3.33668 -1.68943 0
M  V30 5105 H 473.721 6.50039 -1.90934 0
M  V30 5106 H 474.664 6.20841 -3.40532 0
M  V30 5107 H 475.072 5.31105 -1.9128 0
M  V30 5108 N 474.47 1.03057 1.19235 0
M  V30 5109 C 475.718 0.726581 1.88587 0
M  V30 5110 C 476.039 -0.747227 1.80115 0
M  V30 5111 O 475.309 -1.53849 1.21274 0
M  V30 5112 H 473.889 0.265768 0.698124 0
M  V30 5113 H 476.551 1.30516 1.44746 0
M  V30 5114 H 475.647 1.0224 2.94879 0
M  V30 5115 N 475.948 -1.35272 0.808662 0
M  V30 5116 C 477.359 -1.81179 0.450688 0
M  V30 5117 C 477.71 -1.67143 -1.02751 0
M  V30 5118 O 476.835 -1.20325 -1.79864 0
M  V30 5119 C 477.43 -3.28943 0.811275 0
M  V30 5120 C 475.989 -3.72985 0.505871 0
M  V30 5121 C 475.136 -2.57229 1.03578 0
M  V30 5122 H 478.087 -1.2322 1.00012 0
M  V30 5123 H 478.108 -3.80342 0.109588 0
M  V30 5124 H 477.62 -3.39127 1.88718 0
M  V30 5125 H 475.721 -3.68349 -0.561209 0
M  V30 5126 H 475.834 -4.67677 1.03995 0
M  V30 5127 H 474.198 -2.50548 0.458005 0
M  V30 5128 H 474.981 -2.7019 2.11784 0
M  V30 5129 N 477.426 -0.562348 -1.47226 0
M  V30 5130 C 478.389 0.172056 -2.28553 0
M  V30 5131 C 479.389 0.837928 -1.37242 0
M  V30 5132 O 480.579 0.693001 -1.59822 0
M  V30 5133 C 477.711 1.25223 -3.17068 0
M  V30 5134 H 478.904 -0.542401 -2.94954 0
M  V30 5135 H 476.457 -0.319493 -1.53 0
M  V30 5136 H 477.192 1.99892 -2.55369 0
M  V30 5137 H 476.977 0.779515 -3.84273 0
M  V30 5138 H 478.467 1.76791 -3.78332 0
M  V30 5139 N 478.904 1.54736 -0.299062 0
M  V30 5140 C 479.834 2.26409 0.571085 0
M  V30 5141 C 480.815 1.2629 1.13951 0
M  V30 5142 O 482 1.55059 1.16921 0
M  V30 5143 C 479.13 3.00338 1.74396 0
M  V30 5144 C 478.084 4.07588 1.30599 0
M  V30 5145 C 477.41 4.69222 2.56387 0
M  V30 5146 C 478.71 5.20455 0.438645 0
M  V30 5147 H 480.404 2.99388 -0.0266991 0
M  V30 5148 H 477.95 1.43993 -0.0142812 0
M  V30 5149 H 479.903 3.49198 2.35878 0
M  V30 5150 H 478.627 2.24934 2.36796 0
M  V30 5151 H 477.286 3.59575 0.71424 0
M  V30 5152 H 476.934 3.9046 3.17097 0
M  V30 5153 H 476.634 5.41653 2.27784 0
M  V30 5154 H 478.158 5.20844 3.18675 0
M  V30 5155 H 479.572 5.65221 0.959085 0
M  V30 5156 H 477.969 5.99594 0.246466 0
M  V30 5157 H 479.039 4.8192 -0.536738 0
M  V30 5158 N 480.382 0.0267497 1.57577 0
M  V30 5159 C 481.798 -0.32962 1.56159 0
M  V30 5160 C 481.998 -1.73059 1.03213 0
M  V30 5161 O 481.054 -2.43233 0.677804 0
M  V30 5162 C 482.367 -0.18039 3.00158 0
M  V30 5163 C 483.915 -0.253334 3.11973 0
M  V30 5164 C 484.39 -0.132921 4.57807 0
M  V30 5165 N 485.881 -0.189979 4.6281 0
M  V30 5166 C 486.616 -0.120554 5.73273 0
M  V30 5167 N 486.112 -0.000180315 6.928 0
M  V30 5168 N 487.905 -0.174369 5.61829 0
M  V30 5169 H 480.056 0.942896 1.90324 0
M  V30 5170 H 482.319 0.3639 0.875375 0
M  V30 5171 H 482.025 0.784576 3.42837 0
M  V30 5172 H 481.899 -0.951565 3.65 0
M  V30 5173 H 484.286 -1.20876 2.69208 0
M  V30 5174 H 484.367 0.548177 2.49857 0
M  V30 5175 H 484.011 0.819073 5.01252 0
M  V30 5176 H 483.941 -0.953264 5.179 0
M  V30 5177 H 486.432 -0.283257 3.76837 0
M  V30 5178 H 486.745 0.0461666 7.72786 0
M  V30 5179 H 485.09 0.034569 6.94991 0
M  V30 5180 H 488.281 -0.266794 4.67339 0
M  V30 5181 H 488.454 -0.116802 6.47895 0
M  V30 5182 N 481.861 -1.55662 -0.24637 0
M  V30 5183 C 483.272 -1.67953 -0.81539 0
M  V30 5184 C 483.623 -0.624302 -1.86002 0
M  V30 5185 O 482.748 0.229328 -2.15181 0
M  V30 5186 C 483.343 -3.04484 -1.48576 0
M  V30 5187 C 481.902 -3.18713 -2.00248 0
M  V30 5188 C 481.049 -2.6383 -0.853766 0
M  V30 5189 H 484 -1.58685 -0.0221692 0
M  V30 5190 H 484.021 -2.98959 -2.3538 0
M  V30 5191 H 483.533 -3.81264 -0.725222 0
M  V30 5192 H 481.634 -2.46757 -2.79181 0
M  V30 5193 H 481.747 -4.25628 -2.1995 0
M  V30 5194 H 480.111 -2.21667 -1.25442 0
M  V30 5195 H 480.894 -3.43135 -0.106302 0
M  V30 5196 N 483.339 0.512053 -1.4905 0
M  V30 5197 C 484.269 1.62365 -1.67809 0
M  V30 5198 C 485.25 1.61737 -0.526809 0
M  V30 5199 O 486.435 1.78651 -0.761404 0
M  V30 5200 C 483.565 3.00895 -1.73435 0
M  V30 5201 C 482.519 3.16387 -2.88242 0
M  V30 5202 C 481.845 4.56157 -2.78971 0
M  V30 5203 C 483.145 2.97457 -4.29321 0
M  V30 5204 H 484.839 1.46921 -2.60873 0
M  V30 5205 H 482.385 0.705379 -1.2554 0
M  V30 5206 H 484.338 3.78549 -1.85145 0
M  V30 5207 H 483.062 3.17403 -0.769619 0
M  V30 5208 H 481.721 2.41155 -2.76116 0
M  V30 5209 H 481.369 4.69525 -1.8043 0
M  V30 5210 H 481.069 4.67465 -3.5602 0
M  V30 5211 H 482.593 5.35886 -2.92675 0
M  V30 5212 H 484.007 3.64888 -4.42187 0
M  V30 5213 H 482.404 3.20245 -5.07507 0
M  V30 5214 H 483.474 1.93692 -4.44535 0
M  V30 5215 N 484.817 1.37938 0.762283 0
M  V30 5216 C 486.066 1.32989 1.51647 0
M  V30 5217 C 486.379 -0.0802922 1.95435 0
M  V30 5218 O 487.585 -0.252295 2.70325 0
M  V30 5219 C 486.041 2.33485 2.73885 0
M  V30 5220 C 485.649 3.80079 2.37157 0
M  V30 5221 C 487.393 2.37563 3.51801 0
M  V30 5222 C 485.3 4.72283 3.55954 0
M  V30 5223 H 484.23 0.494301 0.56937 0
M  V30 5224 H 486.881 1.63448 0.834083 0
M  V30 5225 H 485.263 1.96056 3.44061 0
M  V30 5226 H 486.437 4.26398 1.74704 0
M  V30 5227 H 484.752 3.79037 1.72395 0
M  V30 5228 H 487.349 3.0365 4.40114 0
M  V30 5229 H 487.692 1.39199 3.92338 0
M  V30 5230 H 488.225 2.73747 2.8863 0
M  V30 5231 H 484.964 5.7181 3.2049 0
M  V30 5232 H 484.484 4.30663 4.1748 0
M  V30 5233 H 486.163 4.89876 4.22647 0
M  V30 5234 N 486.295 -0.989507 1.22664 0
M  V30 5235 C 487.52 -1.77031 1.08051 0
M  V30 5236 C 487.945 -1.84535 -0.364483 0
M  V30 5237 O 487.303 -1.3003 -1.2634 0
M  V30 5238 C 487.351 -3.18 1.70024 0
M  V30 5239 O 486.455 -4.01161 0.956216 0
M  V30 5240 H 485.796 -0.545008 0.379292 0
M  V30 5241 H 488.326 -1.24277 1.62531 0
M  V30 5242 H 488.336 -3.68616 1.74888 0
M  V30 5243 H 487.011 -3.11853 2.75174 0
M  V30 5244 H 485.588 -3.59687 0.98384 0
M  V30 5245 N 487.773 -1.03688 -1.18687 0
M  V30 5246 C 488.736 -0.629115 -2.20397 0
M  V30 5247 C 489.736 0.311495 -1.57754 0
M  V30 5248 O 490.926 0.0974107 -1.73927 0
M  V30 5249 C 488.058 0.0782231 -3.4081 0
M  V30 5250 H 489.251 -1.52915 -2.57987 0
M  V30 5251 H 486.804 -0.828988 -1.32505 0
M  V30 5252 H 487.539 0.992233 -3.08748 0
M  V30 5253 H 487.324 -0.597776 -3.87517 0
M  V30 5254 H 488.814 0.350156 -4.16129 0
M  V30 5255 N 489.251 1.34841 -0.815825 0
M  V30 5256 C 490.497 1.99219 -0.410288 0
M  V30 5257 C 490.852 1.63532 1.01366 0
M  V30 5258 O 490.145 0.893093 1.69512 0
M  V30 5259 C 490.339 3.53273 -0.541541 0
M  V30 5260 C 490.168 4.03927 -1.9767 0
M  V30 5261 C 488.938 4.32852 -2.60706 0
M  V30 5262 C 491.136 4.21808 -2.9425 0
M  V30 5263 N 489.118 4.69494 -3.95536 0
M  V30 5264 C 490.489 4.6155 -4.13971 0
M  V30 5265 C 492.544 4.04038 -2.9096 0
M  V30 5266 C 491.247 4.85381 -5.30847 0
M  V30 5267 C 493.273 4.29031 -4.07046 0
M  V30 5268 C 492.635 4.69054 -5.25517 0
M  V30 5269 H 488.734 0.756494 -0.198094 0
M  V30 5270 H 491.318 1.63379 -1.05902 0
M  V30 5271 H 489.489 3.88323 0.0772544 0
M  V30 5272 H 491.221 4.04551 -0.109694 0
M  V30 5273 H 487.976 4.23503 -2.11995 0
M  V30 5274 H 488.4 4.92061 -4.64979 0
M  V30 5275 H 493.042 3.7223 -2.00512 0
M  V30 5276 H 490.76 5.16059 -6.21859 0
M  V30 5277 H 494.346 4.16826 -4.05891 0
M  V30 5278 H 493.226 4.88014 -6.1385 0
M  V30 5279 N 490.729 0.570148 1.46925 0
M  V30 5280 C 491.975 0.0510284 2.02736 0
M  V30 5281 C 492.308 -1.3006 1.44215 0
M  V30 5282 O 491.583 -1.84932 0.602521 0
M  V30 5283 C 491.866 -0.028215 3.60089 0
M  V30 5284 C 491.719 1.35142 4.29018 0
M  V30 5285 C 493.038 -0.735181 4.33916 0
M  V30 5286 H 490.157 0.0200178 0.736728 0
M  V30 5287 H 492.799 0.73493 1.75211 0
M  V30 5288 H 490.949 -0.610648 3.83671 0
M  V30 5289 H 492.621 1.97806 4.16738 0
M  V30 5290 H 490.864 1.9226 3.88868 0
M  V30 5291 H 491.535 1.24857 5.37694 0
M  V30 5292 H 494.011 -0.240519 4.15404 0
M  V30 5293 H 492.887 -0.759622 5.43618 0
M  V30 5294 H 493.148 -1.79397 4.04066 0
M  V30 5295 N 492.207 -1.54576 0.307264 0
M  V30 5296 C 493.484 -1.92377 -0.353605 0
M  V30 5297 C 493.864 -1.23517 -1.71192 0
M  V30 5298 O 493.212 -0.373101 -2.25433 0
M  V30 5299 C 493.422 -3.45928 -0.462039 0
M  V30 5300 C 494.77 -4.18278 -0.729975 0
M  V30 5301 O 495.794 -3.51997 -0.545605 0
M  V30 5302 O 494.653 -5.3563 -1.08454 0
M  V30 5303 H 491.747 -0.802747 -0.198812 0
M  V30 5304 H 494.293 -1.65929 0.355783 0
M  V30 5305 H 493.065 -3.88187 0.492592 0
M  V30 5306 H 492.688 -3.78431 -1.21965 0
M  V30 5307 N 493.685 -0.035106 -1.57561 0
M  V30 5308 C 494.931 0.64318 -1.92331 0
M  V30 5309 C 495.264 1.71434 -0.912368 0
M  V30 5310 O 494.539 1.94395 0.0640303 0
M  V30 5311 C 494.822 1.25411 -3.37556 0
M  V30 5312 C 494.675 0.192109 -4.4939 0
M  V30 5313 C 495.994 2.17041 -3.82859 0
M  V30 5314 H 493.113 0.232341 -0.699419 0
M  V30 5315 H 495.755 -0.0935889 -1.89769 0
M  V30 5316 H 493.905 1.88205 -3.39869 0
M  V30 5317 H 495.577 -0.438849 -4.59208 0
M  V30 5318 H 493.82 -0.481725 -4.31117 0
M  V30 5319 H 494.491 0.659292 -5.48049 0
M  V30 5320 H 496.967 1.64228 -3.8232 0
M  V30 5321 H 495.843 2.56738 -4.85157 0
M  V30 5322 H 496.104 3.06401 -3.18702 0
M  V30 5323 N 495.163 1.55791 0.238111 0
M  V30 5324 C 496.409 1.78297 0.966337 0
M  V30 5325 C 496.742 0.601903 1.84637 0
M  V30 5326 O 496.017 -0.399499 1.90353 0
M  V30 5327 C 496.3 3.10758 1.81939 0
M  V30 5328 C 496.153 4.39283 0.966958 0
M  V30 5329 C 497.472 3.39519 2.80027 0
M  V30 5330 H 494.591 0.648654 0.349882 0
M  V30 5331 H 497.233 1.88525 0.236253 0
M  V30 5332 H 495.383 3.02168 2.44185 0
M  V30 5333 H 497.055 4.59873 0.362514 0
M  V30 5334 H 495.298 4.32948 0.271669 0
M  V30 5335 H 495.969 5.28368 1.59784 0
M  V30 5336 H 498.445 3.48128 2.27917 0
M  V30 5337 H 497.321 4.33402 3.36829 0
M  V30 5338 H 497.582 2.60864 3.56934 0
M  V30 5339 N 496.642 -0.504142 1.49319 0
M  V30 5340 C 497.882 -1.26867 1.60263 0
M  V30 5341 C 498.246 -1.89924 0.281578 0
M  V30 5342 O 499.447 -2.67479 0.266176 0
M  V30 5343 C 497.718 -2.30956 2.72753 0
M  V30 5344 S 499.277 -3.1679 3.03628 0
M  V30 5345 H 496.095 -0.431198 0.565322 0
M  V30 5346 H 498.697 -0.571407 1.86963 0
M  V30 5347 H 497.401 -1.83156 3.67263 0
M  V30 5348 H 496.932 -3.05356 2.48035 0
M  V30 5349 H 498.947 -4.31549 2.44908 0
M  V30 5350 N 498.12 -1.38341 -0.754957 0
M  V30 5351 C 499.348 -1.37704 -1.54419 0
M  V30 5352 C 499.763 0.0335243 -1.8877 0
M  V30 5353 O 499.12 0.999773 -1.52679 0
M  V30 5354 C 499.171 -2.23136 -2.84416 0
M  V30 5355 O 498.892 -3.58697 -2.51531 0
M  V30 5356 C 500.393 -2.30664 -3.78562 0
M  V30 5357 H 497.613 -0.471061 -0.477852 0
M  V30 5358 H 500.157 -1.81902 -0.934446 0
M  V30 5359 H 498.312 -1.82403 -3.41772 0
M  V30 5360 H 498.726 -4.03665 -3.34896 0
M  V30 5361 H 500.2 -2.9473 -4.66732 0
M  V30 5362 H 500.677 -1.3199 -4.18898 0
M  V30 5363 H 501.283 -2.71781 -3.27131 0
M  V30 5364 N 499.598 0.982988 -1.23187 0
M  V30 5365 C 500.823 1.76455 -1.08988 0
M  V30 5366 C 501.248 1.84726 0.354691 0
M  V30 5367 O 500.606 1.30699 1.25649 0
M  V30 5368 C 500.654 3.17094 -1.71708 0
M  V30 5369 O 499.758 4.00648 -0.977477 0
M  V30 5370 H 499.099 0.542988 -0.382177 0
M  V30 5371 H 501.629 1.23413 -1.63188 0
M  V30 5372 H 501.639 3.67684 -1.76841 0
M  V30 5373 H 500.314 3.10389 -2.76823 0
M  V30 5374 H 498.891 3.59161 -1.0029 0
M  V30 5375 N 501.076 1.04316 1.18135 0
M  V30 5376 C 502.325 0.74319 1.87509 0
M  V30 5377 C 502.638 -0.732136 1.81381 0
M  V30 5378 O 503.844 -1.14572 2.46141 0
M  V30 5379 C 502.3 1.27913 3.36402 0
M  V30 5380 C 501.908 2.78326 3.51053 0
M  V30 5381 C 503.652 1.0558 4.11161 0
M  V30 5382 C 501.559 3.25266 4.93919 0
M  V30 5383 H 500.489 0.274313 0.702331 0
M  V30 5384 H 503.14 1.25931 1.33467 0
M  V30 5385 H 501.522 0.690853 3.89927 0
M  V30 5386 H 502.696 3.42933 3.07788 0
M  V30 5387 H 501.011 2.991 2.89704 0
M  V30 5388 H 503.608 1.38161 5.16542 0
M  V30 5389 H 503.951 -0.00684729 4.16299 0
M  V30 5390 H 504.484 1.60882 3.63816 0
M  V30 5391 H 501.223 4.30922 4.9395 0
M  V30 5392 H 500.743 2.65396 5.3789 0
M  V30 5393 H 502.422 3.19433 5.62647 0
M  V30 5394 N 502.554 -1.34406 0.822964 0
M  V30 5395 C 503.484 -2.32052 0.259608 0
M  V30 5396 C 504.465 -1.58243 -0.623961 0
M  V30 5397 O 505.65 -1.86224 -0.55083 0
M  V30 5398 C 502.78 -3.42434 -0.579314 0
M  V30 5399 C 501.734 -4.27499 0.20712 0
M  V30 5400 C 501.06 -5.29349 -0.754547 0
M  V30 5401 C 502.36 -5.02758 1.41533 0
M  V30 5402 H 504.054 -2.79418 1.07545 0
M  V30 5403 H 501.6 -1.34338 0.518593 0
M  V30 5404 H 503.553 -4.0976 -0.983612 0
M  V30 5405 H 502.277 -2.93717 -1.4282 0
M  V30 5406 H 500.936 -3.61776 0.592787 0
M  V30 5407 H 500.584 -4.76895 -1.59939 0
M  V30 5408 H 500.284 -5.8714 -0.232561 0
M  V30 5409 H 501.808 -5.99544 -1.1567 0
M  V30 5410 H 503.222 -5.62938 1.08504 0
M  V30 5411 H 501.619 -5.70123 1.87296 0
M  V30 5412 H 502.689 -4.32451 2.1935 0
M  V30 5413 N 504.032 -0.577932 -1.46621 0
M  V30 5414 C 505.257 -0.0652536 -2.07297 0
M  V30 5415 C 505.682 1.22828 -1.4246 0
M  V30 5416 O 505.04 1.74075 -0.506718 0
M  V30 5417 C 505.088 0.0920589 -3.60482 0
M  V30 5418 O 504.192 1.14972 -3.96049 0
M  V30 5419 H 503.533 -0.06065 -0.661224 0
M  V30 5420 H 506.063 -0.799515 -1.88332 0
M  V30 5421 H 506.073 0.299741 -4.06897 0
M  V30 5422 H 504.748 -0.852612 -4.07067 0
M  V30 5423 H 503.325 0.920879 -3.61351 0
M  V30 5424 N 505.51 1.54411 -0.315457 0
M  V30 5425 C 506.44 2.27002 0.547039 0
M  V30 5426 C 507.421 1.27492 1.12605 0
M  V30 5427 O 508.606 1.5629 1.15269 0
M  V30 5428 C 505.736 3.02171 1.71201 0
M  V30 5429 C 504.69 4.0895 1.26268 0
M  V30 5430 C 504.016 4.71915 2.51396 0
M  V30 5431 C 505.316 5.20891 0.383419 0
M  V30 5432 H 507.01 2.99343 -0.0584517 0
M  V30 5433 H 504.556 1.4397 -0.0295527 0
M  V30 5434 H 506.509 3.51681 2.32161 0
M  V30 5435 H 505.233 2.27433 2.34397 0
M  V30 5436 H 503.892 3.60312 0.676062 0
M  V30 5437 H 503.54 3.93801 3.12937 0
M  V30 5438 H 503.24 5.44039 2.22026 0
M  V30 5439 H 504.764 5.24195 3.13133 0
M  V30 5440 H 506.178 5.66206 0.899082 0
M  V30 5441 H 504.575 5.99821 0.182857 0
M  V30 5442 H 505.645 4.81324 -0.587821 0
M  V30 5443 N 506.988 0.0434614 1.5754 0
M  V30 5444 C 508.399 -0.493343 1.80064 0
M  V30 5445 C 508.75 -1.71388 0.955023 0
M  V30 5446 O 507.875 -2.15736 0.169434 0
M  V30 5447 C 508.47 -0.90179 3.26578 0
M  V30 5448 C 507.029 -1.38362 3.50047 0
M  V30 5449 C 506.176 -0.355129 2.75017 0
M  V30 5450 H 509.127 0.2694 1.56397 0
M  V30 5451 H 509.148 -1.76523 3.37075 0
M  V30 5452 H 508.66 -0.013271 3.88098 0
M  V30 5453 H 506.761 -2.29159 2.93798 0
M  V30 5454 H 506.874 -1.3811 4.58762 0
M  V30 5455 H 505.238 -0.826348 2.40922 0
M  V30 5456 H 506.021 0.525172 3.39259 0
M  V30 5457 N 508.466 -1.55915 -0.229846 0
M  V30 5458 C 509.376 -1.94891 -1.30593 0
M  V30 5459 C 510.392 -0.851604 -1.51736 0
M  V30 5460 O 511.568 -1.15447 -1.65027 0
M  V30 5461 C 508.633 -2.25052 -2.63728 0
M  V30 5462 C 507.694 -3.48306 -2.5096 0
M  V30 5463 C 506.927 -3.77019 -3.77747 0
M  V30 5464 O 507.15 -3.07534 -4.80395 0
M  V30 5465 O 506.084 -4.70523 -3.75356 0
M  V30 5466 H 509.91 -2.86581 -1.00525 0
M  V30 5467 H 507.495 -1.43017 -0.432025 0
M  V30 5468 H 509.377 -2.45682 -3.42372 0
M  V30 5469 H 508.052 -1.36538 -2.93495 0
M  V30 5470 H 506.959 -3.32964 -1.70546 0
M  V30 5471 H 508.292 -4.37177 -2.26136 0
M  V30 5472 N 509.944 0.496216 -1.49584 0
M  V30 5473 C 510.854 1.62352 -1.69349 0
M  V30 5474 C 511.87 1.64184 -0.576147 0
M  V30 5475 O 513.046 1.82517 -0.85144 0
M  V30 5476 C 510.111 2.98698 -1.76013 0
M  V30 5477 C 509.172 3.07454 -2.99617 0
M  V30 5478 C 508.405 4.37296 -3.05953 0
M  V30 5479 O 508.628 5.2637 -2.19752 0
M  V30 5480 O 507.562 4.51124 -3.9846 0
M  V30 5481 H 511.388 1.48606 -2.64859 0
M  V30 5482 H 508.973 0.673022 -1.33382 0
M  V30 5483 H 510.855 3.79725 -1.82721 0
M  V30 5484 H 509.53 3.12696 -0.836828 0
M  V30 5485 H 508.437 2.25597 -2.98424 0
M  V30 5486 H 509.77 2.98385 -3.91443 0
M  V30 5487 N 511.423 1.38739 0.74761 0
M  V30 5488 C 512.834 1.31507 1.32524 0
M  V30 5489 C 513.185 -0.0263963 1.96182 0
M  V30 5490 O 512.31 -0.92849 1.95469 0
M  V30 5491 C 512.905 2.38162 2.40966 0
M  V30 5492 C 511.464 2.34489 2.94434 0
M  V30 5493 C 510.611 2.20712 1.67873 0
M  V30 5494 H 513.562 1.4901 0.546043 0
M  V30 5495 H 513.583 2.04222 3.21051 0
M  V30 5496 H 513.095 3.35783 1.94605 0
M  V30 5497 H 511.196 1.40467 3.45108 0
M  V30 5498 H 511.309 3.28861 3.48407 0
M  V30 5499 H 509.673 1.67667 1.91729 0
M  V30 5500 H 510.456 3.20285 1.23582 0
M  V30 5501 N 512.901 -0.976442 1.23707 0
M  V30 5502 C 513.848 -2.06952 1.02174 0
M  V30 5503 C 514.818 -1.65984 -0.0621034 0
M  V30 5504 O 516.003 -1.90584 0.0907906 0
M  V30 5505 C 513.143 -3.39425 0.62327 0
M  V30 5506 C 512.256 -3.9364 1.77966 0
M  V30 5507 C 511.391 -5.14343 1.3276 0
M  V30 5508 C 510.43 -5.60733 2.45449 0
M  V30 5509 N 509.567 -6.72662 2.01172 0
M  V30 5510 H 514.407 -2.24704 1.95734 0
M  V30 5511 H 511.944 -1.10143 0.975034 0
M  V30 5512 H 513.902 -4.15526 0.37332 0
M  V30 5513 H 512.532 -3.21624 -0.275329 0
M  V30 5514 H 511.584 -3.14258 2.14351 0
M  V30 5515 H 512.896 -4.24035 2.62671 0
M  V30 5516 H 512.05 -5.97789 1.03601 0
M  V30 5517 H 510.789 -4.8561 0.450975 0
M  V30 5518 H 509.794 -4.75865 2.75378 0
M  V30 5519 H 511.019 -5.91483 3.33654 0
M  V30 5520 H 508.965 -6.45681 1.15895 0
M  V30 5521 H 508.882 -7.02462 2.79434 0
M  V30 5522 H 510.15 -7.59572 1.75129 0
M  V30 5523 N 514.379 -1.04941 -1.1758 0
M  V30 5524 C 515.795 -0.770282 -1.39781 0
M  V30 5525 C 515.995 0.636417 -1.91186 0
M  V30 5526 O 515.051 1.39923 -2.10185 0
M  V30 5527 C 516.364 -1.82376 -2.3908 0
M  V30 5528 C 517.912 -1.84569 -2.52791 0
M  V30 5529 C 518.387 -2.88933 -3.55361 0
M  V30 5530 N 519.878 -2.8788 -3.62877 0
M  V30 5531 C 520.613 -3.65282 -4.41992 0
M  V30 5532 N 520.109 -4.52461 -5.24643 0
M  V30 5533 N 521.902 -3.53732 -4.36841 0
M  V30 5534 H 514.053 -1.95705 -0.825438 0
M  V30 5535 H 516.316 -0.847284 -0.425222 0
M  V30 5536 H 516.022 -2.83323 -2.08376 0
M  V30 5537 H 515.896 -1.66327 -3.38549 0
M  V30 5538 H 518.283 -0.842879 -2.82807 0
M  V30 5539 H 518.364 -2.04696 -1.53406 0
M  V30 5540 H 518.008 -3.89398 -3.26085 0
M  V30 5541 H 517.938 -2.66059 -4.54445 0
M  V30 5542 H 520.429 -2.24666 -3.03864 0
M  V30 5543 H 520.742 -5.08211 -5.82187 0
M  V30 5544 H 519.087 -4.56524 -5.24033 0
M  V30 5545 H 522.278 -2.85021 -3.71323 0
M  V30 5546 H 522.451 -4.14302 -4.98255 0
M  V30 5547 N 515.857 1.33968 -0.830081 0
M  V30 5548 C 517.273 1.51003 -0.516742 0
M  V30 5549 C 517.473 1.77286 0.957694 0
M  V30 5550 O 516.529 1.82797 1.74188 0
M  V30 5551 C 517.842 2.67036 -1.38247 0
M  V30 5552 C 519.39 2.80919 -1.38034 0
M  V30 5553 C 519.865 4.00004 -2.23071 0
M  V30 5554 N 521.356 4.07224 -2.20733 0
M  V30 5555 C 522.091 4.98541 -2.83275 0
M  V30 5556 N 521.587 5.95033 -3.54835 0
M  V30 5557 N 523.38 4.91469 -2.72791 0
M  V30 5558 H 515.531 1.15168 -1.78466 0
M  V30 5559 H 517.794 0.565443 -0.760906 0
M  V30 5560 H 517.5 2.54266 -2.42985 0
M  V30 5561 H 517.374 3.62226 -1.05225 0
M  V30 5562 H 519.761 2.93127 -0.340713 0
M  V30 5563 H 519.842 1.86517 -1.75057 0
M  V30 5564 H 519.486 3.88557 -3.27087 0
M  V30 5565 H 519.416 4.93634 -1.83394 0
M  V30 5566 H 521.907 3.38162 -1.68687 0
M  V30 5567 H 522.22 6.61357 -3.99784 0
M  V30 5568 H 520.565 5.95135 -3.58942 0
M  V30 5569 H 523.756 4.15048 -2.16456 0
M  V30 5570 H 523.929 5.62439 -3.21818 0
M  V30 5571 N 517.335 0.585699 1.46312 0
M  V30 5572 C 518.265 -0.133556 2.33118 0
M  V30 5573 C 519.246 -0.880707 1.45525 0
M  V30 5574 O 520.431 -0.855579 1.74337 0
M  V30 5575 C 517.561 -1.14585 3.27853 0
M  V30 5576 C 516.515 -0.513341 4.2491 0
M  V30 5577 C 515.841 -1.63231 5.09175 0
M  V30 5578 C 517.141 0.551413 5.19381 0
M  V30 5579 H 518.835 0.59121 2.93505 0
M  V30 5580 H 516.381 0.285761 1.41136 0
M  V30 5581 H 518.334 -1.65741 3.87438 0
M  V30 5582 H 517.058 -1.90093 2.65579 0
M  V30 5583 H 515.717 -0.0228349 3.66593 0
M  V30 5584 H 515.365 -2.37713 4.43285 0
M  V30 5585 H 515.065 -1.21473 5.74907 0
M  V30 5586 H 516.589 -2.14658 5.71624 0
M  V30 5587 H 518.003 0.124804 5.73164 0
M  V30 5588 H 516.4 0.889486 5.93471 0
M  V30 5589 H 517.47 1.43655 4.63132 0
M  V30 5590 N 518.813 -1.54241 0.323641 0
M  V30 5591 C 520.059 -2.01572 -0.272089 0
M  V30 5592 C 520.414 -1.20774 -1.49771 0
M  V30 5593 O 519.707 -0.281821 -1.89516 0
M  V30 5594 C 519.901 -3.5129 -0.658031 0
M  V30 5595 C 519.73 -4.46582 0.528645 0
M  V30 5596 C 518.5 -4.94737 1.02777 0
M  V30 5597 C 520.698 -4.95416 1.38086 0
M  V30 5598 N 518.68 -5.73933 2.17885 0
M  V30 5599 C 520.051 -5.72537 2.3791 0
M  V30 5600 C 522.106 -4.77559 1.40861 0
M  V30 5601 C 520.809 -6.33702 3.40314 0
M  V30 5602 C 522.835 -5.39559 2.42136 0
M  V30 5603 C 522.197 -6.16532 3.40688 0
M  V30 5604 H 518.296 -0.779425 -0.0634072 0
M  V30 5605 H 520.88 -1.8922 0.458697 0
M  V30 5606 H 519.051 -3.63888 -1.35795 0
M  V30 5607 H 520.783 -3.85388 -1.23524 0
M  V30 5608 H 517.538 -4.69796 0.599046 0
M  V30 5609 H 517.962 -6.18209 2.75947 0
M  V30 5610 H 522.604 -4.17611 0.660352 0
M  V30 5611 H 520.322 -6.9277 4.16047 0
M  V30 5612 H 523.908 -5.27659 2.45086 0
M  V30 5613 H 522.788 -6.63655 4.1777 0
M  V30 5614 N 520.291 -0.0518155 -1.57515 0
M  V30 5615 C 521.221 0.920283 -2.146 0
M  V30 5616 C 522.202 1.32406 -1.06783 0
M  V30 5617 O 523.387 1.39866 -1.34726 0
M  V30 5618 C 520.517 2.1949 -2.6915 0
M  V30 5619 C 519.471 1.93116 -3.81956 0
M  V30 5620 C 518.797 3.27037 -4.23026 0
M  V30 5621 C 520.097 1.25225 -5.07066 0
M  V30 5622 H 521.791 0.444801 -2.96077 0
M  V30 5623 H 519.337 0.212508 -1.42423 0
M  V30 5624 H 521.29 2.87894 -3.07725 0
M  V30 5625 H 520.014 2.69244 -1.84865 0
M  V30 5626 H 518.673 1.27123 -3.43854 0
M  V30 5627 H 518.321 3.74595 -3.3569 0
M  V30 5628 H 518.021 3.10189 -4.99056 0
M  V30 5629 H 519.545 3.96673 -4.64202 0
M  V30 5630 H 520.959 1.83666 -5.43083 0
M  V30 5631 H 519.356 1.18702 -5.88243 0
M  V30 5632 H 520.426 0.228382 -4.84362 0
M  V30 5633 N 521.769 1.56035 0.221574 0
M  V30 5634 C 523.016 1.79047 0.94597 0
M  V30 5635 C 523.344 0.62057 1.84334 0
M  V30 5636 O 522.599 -0.395053 1.91671 0
M  V30 5637 C 522.898 3.07813 1.8162 0
M  V30 5638 C 522.564 4.3797 1.07206 0
M  V30 5639 C 521.226 4.73334 0.866508 0
M  V30 5640 C 523.578 5.18326 0.546565 0
M  V30 5641 C 520.906 5.8657 0.123549 0
M  V30 5642 C 523.258 6.32335 -0.18305 0
M  V30 5643 C 521.922 6.66301 -0.399861 0
M  V30 5644 H 521.192 0.655178 0.346155 0
M  V30 5645 H 523.839 1.90299 0.214146 0
M  V30 5646 H 522.144 2.91682 2.61589 0
M  V30 5647 H 523.841 3.2282 2.37884 0
M  V30 5648 H 520.431 4.10202 1.24226 0
M  V30 5649 H 524.615 4.9144 0.692847 0
M  V30 5650 H 519.871 6.11376 -0.0546591 0
M  V30 5651 H 524.045 6.9383 -0.59775 0
M  V30 5652 H 521.672 7.53889 -0.977489 0
M  V30 5653 N 523.247 -0.488276 1.49845 0
M  V30 5654 C 524.496 -1.23826 1.59217 0
M  V30 5655 C 524.809 -1.93439 0.289966 0
M  V30 5656 O 526.015 -2.70229 0.262382 0
M  V30 5657 C 524.471 -2.24902 2.80976 0
M  V30 5658 C 524.079 -1.6117 4.18005 0
M  V30 5659 C 525.823 -3.00648 2.99685 0
M  V30 5660 C 523.73 -2.60431 5.3097 0
M  V30 5661 H 522.66 -0.465858 0.592868 0
M  V30 5662 H 525.311 -0.510645 1.76252 0
M  V30 5663 H 523.693 -3.0088 2.57463 0
M  V30 5664 H 524.867 -0.910968 4.51706 0
M  V30 5665 H 523.182 -0.97767 4.0476 0
M  V30 5666 H 525.779 -3.74903 3.81251 0
M  V30 5667 H 526.122 -3.5902 2.10738 0
M  V30 5668 H 526.655 -2.31784 3.23297 0
M  V30 5669 H 523.394 -2.06823 6.22017 0
M  V30 5670 H 522.914 -3.28707 5.01709 0
M  V30 5671 H 524.593 -3.22606 5.60834 0
M  V30 5672 N 524.725 -1.39134 -0.740242 0
M  V30 5673 C 526.002 -1.26584 -1.49117 0
M  V30 5674 C 526.382 0.126902 -2.10718 0
M  V30 5675 O 525.73 1.13765 -1.98166 0
M  V30 5676 C 525.94 -2.38619 -2.54681 0
M  V30 5677 C 527.288 -2.77685 -3.21211 0
M  V30 5678 O 528.312 -2.38029 -2.64991 0
M  V30 5679 O 527.171 -3.46115 -4.22926 0
M  V30 5680 H 524.265 -0.495769 -0.661923 0
M  V30 5681 H 526.811 -1.50995 -0.774514 0
M  V30 5682 H 525.583 -3.3175 -2.07504 0
M  V30 5683 H 525.206 -2.15845 -3.33911 0
M  V30 5684 N 526.204 0.969867 -1.24223 0
M  V30 5685 C 527.114 2.09806 -1.0497 0
M  V30 5686 C 528.13 1.73998 0.00886455 0
M  V30 5687 O 529.306 2.00513 -0.188848 0
M  V30 5688 C 526.371 3.40467 -0.654452 0
M  V30 5689 C 525.432 3.90236 -1.78926 0
M  V30 5690 C 524.665 5.14662 -1.41277 0
M  V30 5691 O 524.888 5.69602 -0.301632 0
M  V30 5692 O 523.822 5.58761 -2.23763 0
M  V30 5693 H 527.648 2.28942 -1.99548 0
M  V30 5694 H 525.233 1.08197 -1.03023 0
M  V30 5695 H 527.115 4.19039 -0.445452 0
M  V30 5696 H 525.79 3.22636 0.262216 0
M  V30 5697 H 524.697 3.12735 -2.05299 0
M  V30 5698 H 526.03 4.1254 -2.68462 0
M  V30 5699 N 527.682 1.05563 1.17022 0
M  V30 5700 C 528.612 0.681026 2.23348 0
M  V30 5701 C 529.593 -0.322983 1.67005 0
M  V30 5702 O 530.778 -0.199746 1.9317 0
M  V30 5703 C 527.908 0.0589053 3.4725 0
M  V30 5704 C 526.862 0.988082 4.16438 0
M  V30 5705 C 526.188 0.229646 5.34207 0
M  V30 5706 C 527.488 2.31388 4.68249 0
M  V30 5707 H 529.182 1.56993 2.54938 0
M  V30 5708 H 526.728 0.756302 1.2254 0
M  V30 5709 H 528.681 -0.214982 4.20851 0
M  V30 5710 H 527.405 -0.864968 3.14938 0
M  V30 5711 H 526.064 1.24659 3.44754 0
M  V30 5712 H 525.712 -0.697111 4.98146 0
M  V30 5713 H 525.412 0.848815 5.81437 0
M  V30 5714 H 526.936 -0.0368694 6.10589 0
M  V30 5715 H 528.35 2.09964 5.33468 0
M  V30 5716 H 526.747 2.88736 5.26072 0
M  V30 5717 H 527.817 2.94982 3.84855 0
M  V30 5718 N 529.16 -1.33526 0.837174 0
M  V30 5719 C 530.123 -2.27551 0.274421 0
M  V30 5720 C 531.123 -1.50886 -0.555881 0
M  V30 5721 O 532.313 -1.70227 -0.369918 0
M  V30 5722 C 529.445 -3.35332 -0.613605 0
M  V30 5723 H 530.638 -2.78837 1.10408 0
M  V30 5724 H 528.191 -1.439 0.610126 0
M  V30 5725 H 528.926 -2.89285 -1.46577 0
M  V30 5726 H 528.711 -3.92095 -0.0195341 0
M  V30 5727 H 530.201 -4.05433 -1.00068 0
M  V30 5728 N 530.638 -0.59345 -1.46 0
M  V30 5729 C 531.863 -0.0872365 -2.07216 0
M  V30 5730 C 532.288 1.2131 -1.43755 0
M  V30 5731 O 531.646 1.73528 -0.525152 0
M  V30 5732 C 531.694 0.0538197 -3.6056 0
M  V30 5733 O 530.798 1.10765 -3.97247 0
M  V30 5734 H 530.139 -0.0676598 -0.660544 0
M  V30 5735 H 532.669 -0.819445 -1.87473 0
M  V30 5736 H 532.679 0.256567 -4.07193 0
M  V30 5737 H 531.354 -0.895739 -4.0614 0
M  V30 5738 H 529.931 0.882501 -3.62307 0
M  V30 5739 N 532.116 1.54067 -0.331816 0
M  V30 5740 C 533.046 2.27569 0.522932 0
M  V30 5741 C 534.027 1.28679 1.11247 0
M  V30 5742 O 535.212 1.57504 1.13605 0
M  V30 5743 C 532.342 3.0397 1.67987 0
M  V30 5744 C 531.296 4.10267 1.21924 0
M  V30 5745 C 530.622 4.74555 2.46377 0
M  V30 5746 C 531.922 5.21268 0.32815 0
M  V30 5747 H 533.616 2.99264 -0.0901977 0
M  V30 5748 H 531.162 1.4393 -0.044821 0
M  V30 5749 H 533.115 3.54123 2.28418 0
M  V30 5750 H 531.839 2.29906 2.31971 0
M  V30 5751 H 530.498 3.61009 0.637809 0
M  V30 5752 H 530.146 3.97098 3.08743 0
M  V30 5753 H 529.846 5.46363 2.16243 0
M  V30 5754 H 531.37 5.27487 3.07555 0
M  V30 5755 H 532.784 5.67128 0.838978 0
M  V30 5756 H 531.181 5.99982 0.119228 0
M  V30 5757 H 532.251 4.80673 -0.638839 0
M  V30 5758 N 533.594 0.0601682 1.57485 0
M  V30 5759 C 534.504 -0.926121 2.15546 0
M  V30 5760 C 535.52 -1.33532 1.11558 0
M  V30 5761 O 536.696 -1.4104 1.4377 0
M  V30 5762 C 533.761 -2.17952 2.69625 0
M  V30 5763 C 532.822 -1.82783 3.88444 0
M  V30 5764 C 532.055 -3.02148 4.39935 0
M  V30 5765 O 532.278 -4.15803 3.90466 0
M  V30 5766 O 531.212 -2.82639 5.31412 0
M  V30 5767 H 535.038 -0.462289 3.00161 0
M  V30 5768 H 532.623 -0.162246 1.48516 0
M  V30 5769 H 534.505 -2.91474 3.04337 0
M  V30 5770 H 533.18 -2.63456 1.88077 0
M  V30 5771 H 532.087 -1.06549 3.58606 0
M  V30 5772 H 533.42 -1.42072 4.7125 0
M  V30 5773 N 535.072 -1.5615 -0.213296 0
M  V30 5774 C 536.019 -1.93086 -1.26437 0
M  V30 5775 C 536.989 -0.789086 -1.4616 0
M  V30 5776 O 538.174 -1.04569 -1.59593 0
M  V30 5777 C 535.314 -2.26003 -2.608 0
M  V30 5778 C 534.427 -3.53156 -2.48807 0
M  V30 5779 C 533.562 -3.7548 -3.7575 0
M  V30 5780 C 532.601 -4.96119 -3.58514 0
M  V30 5781 N 531.738 -5.14791 -4.77425 0
M  V30 5782 H 536.578 -2.82707 -0.942376 0
M  V30 5783 H 534.115 -1.39919 -0.454001 0
M  V30 5784 H 536.073 -2.431 -3.39055 0
M  V30 5785 H 534.703 -1.39546 -2.91079 0
M  V30 5786 H 533.755 -3.44207 -1.61944 0
M  V30 5787 H 535.067 -4.41565 -2.31996 0
M  V30 5788 H 534.221 -3.92718 -4.62447 0
M  V30 5789 H 532.96 -2.85368 -3.95495 0
M  V30 5790 H 531.965 -4.78823 -2.70201 0
M  V30 5791 H 533.19 -5.87724 -3.40231 0
M  V30 5792 H 531.136 -4.27623 -4.97468 0
M  V30 5793 H 531.053 -5.97347 -4.63371 0
M  V30 5794 H 532.321 -5.36471 -5.65525 0
M  V30 5795 N 536.55 0.480323 -1.50102 0
M  V30 5796 C 537.48 1.58769 -1.71215 0
M  V30 5797 C 538.461 1.60583 -0.560997 0
M  V30 5798 O 539.646 1.76996 -0.799127 0
M  V30 5799 C 536.776 2.97148 -1.79778 0
M  V30 5800 C 535.73 3.10201 -2.94888 0
M  V30 5801 C 535.056 4.50137 -2.88584 0
M  V30 5802 C 536.356 2.88283 -4.35534 0
M  V30 5803 H 538.05 1.41354 -2.6393 0
M  V30 5804 H 535.596 0.678591 -1.27008 0
M  V30 5805 H 537.549 3.74536 -1.93133 0
M  V30 5806 H 536.273 3.15699 -0.836772 0
M  V30 5807 H 534.932 2.35244 -2.81169 0
M  V30 5808 H 534.58 4.65593 -1.90349 0
M  V30 5809 H 534.28 4.59808 -3.65856 0
M  V30 5810 H 535.804 5.29558 -3.03976 0
M  V30 5811 H 537.218 3.55427 -4.49827 0
M  V30 5812 H 535.615 3.09408 -5.14186 0
M  V30 5813 H 536.685 1.84219 -4.48544 0
M  V30 5814 N 538.028 1.39524 0.732853 0
M  V30 5815 C 538.991 1.38189 1.82857 0
M  V30 5816 C 539.991 0.278624 1.58368 0
M  V30 5817 O 541.181 0.536639 1.65728 0
M  V30 5818 C 538.313 1.15661 3.2068 0
M  V30 5819 H 539.506 2.35692 1.85444 0
M  V30 5820 H 537.059 1.2512 0.936728 0
M  V30 5821 H 537.794 0.188482 3.23752 0
M  V30 5822 H 537.579 1.95559 3.39852 0
M  V30 5823 H 539.069 1.17472 4.00737 0
M  V30 5824 N 539.506 -0.963266 1.24736 0
M  V30 5825 C 540.731 -1.74699 1.11781 0
M  V30 5826 C 541.156 -1.85267 -0.325258 0
M  V30 5827 O 540.514 -1.32681 -1.23553 0
M  V30 5828 C 540.562 -3.14322 1.76731 0
M  V30 5829 O 539.666 -3.99043 1.04109 0
M  V30 5830 H 539.007 -0.53684 0.390767 0
M  V30 5831 H 541.537 -1.20801 1.65131 0
M  V30 5832 H 541.547 -3.64824 1.82668 0
M  V30 5833 H 540.222 -3.05946 2.81726 0
M  V30 5834 H 538.799 -3.5752 1.05991 0
M  V30 5835 N 540.985 -1.06182 -1.16461 0
M  V30 5836 C 541.915 -0.692861 -2.22984 0
M  V30 5837 C 542.896 0.314122 -1.67174 0
M  V30 5838 O 544.081 0.189499 -1.93273 0
M  V30 5839 C 541.211 -0.07732 -3.47214 0
M  V30 5840 C 540.165 -1.01015 -4.15909 0
M  V30 5841 C 539.491 -0.257973 -5.34077 0
M  V30 5842 C 540.791 -2.33868 -4.67015 0
M  V30 5843 H 542.485 -1.58343 -2.54102 0
M  V30 5844 H 540.031 -0.76279 -1.22137 0
M  V30 5845 H 541.984 0.19266 -4.20959 0
M  V30 5846 H 540.708 0.848254 -3.15392 0
M  V30 5847 H 539.367 -1.26486 -3.44088 0
M  V30 5848 H 539.015 0.670684 -4.98509 0
M  V30 5849 H 538.715 -0.879638 -5.80979 0
M  V30 5850 H 540.239 0.00448788 -6.106 0
M  V30 5851 H 541.653 -2.1279 -5.32347 0
M  V30 5852 H 540.05 -2.91522 -5.24533 0
M  V30 5853 H 541.12 -2.97019 -3.83286 0
M  V30 5854 N 542.463 1.3308 -0.844243 0
M  V30 5855 C 543.426 2.27403 -0.286485 0
M  V30 5856 C 544.426 1.51179 0.547872 0
M  V30 5857 O 545.616 1.70421 0.360886 0
M  V30 5858 C 542.748 3.35653 0.595813 0
M  V30 5859 H 543.941 2.78248 -1.11885 0
M  V30 5860 H 541.494 1.43574 -0.617749 0
M  V30 5861 H 542.229 2.90058 1.4504 0
M  V30 5862 H 542.014 3.921 -0.00125994 0
M  V30 5863 H 543.504 4.05958 0.979168 0
M  V30 5864 N 543.941 0.601185 1.45683 0
M  V30 5865 C 545.218 0.0261659 1.95582 0
M  V30 5866 C 545.598 -1.4399 1.5437 0
M  V30 5867 O 544.946 -2.13919 0.80318 0
M  V30 5868 C 545.156 0.217557 3.48321 0
M  V30 5869 C 546.504 0.0950076 4.24494 0
M  V30 5870 O 547.528 0.147345 3.55895 0
M  V30 5871 O 546.387 -0.025261 5.46494 0
M  V30 5872 H 543.481 -0.0393688 0.826062 0
M  V30 5873 H 546.027 0.670798 1.55879 0
M  V30 5874 H 544.799 1.23601 3.71266 0
M  V30 5875 H 544.422 -0.46264 3.94899 0
M  V30 5876 N 545.419 -1.53889 0.339982 0
M  V30 5877 C 546.382 -2.23547 -0.50592 0
M  V30 5878 C 547.382 -1.23445 -1.03044 0
M  V30 5879 O 548.572 -1.47909 -0.920253 0
M  V30 5880 C 545.704 -2.95234 -1.7044 0
M  V30 5881 H 546.897 -2.99722 0.103247 0
M  V30 5882 H 544.45 -1.56033 0.0912804 0
M  V30 5883 H 545.185 -2.23236 -2.35236 0
M  V30 5884 H 544.97 -3.68654 -1.33553 0
M  V30 5885 H 546.46 -3.48258 -2.30447 0
M  V30 5886 N 546.897 -0.0685191 -1.57451 0
M  V30 5887 C 547.827 0.89747 -2.15564 0
M  V30 5888 C 548.808 1.31266 -1.08181 0
M  V30 5889 O 549.993 1.38429 -1.36202 0
M  V30 5890 C 547.123 2.16623 -2.71463 0
M  V30 5891 C 546.077 1.89054 -3.83982 0
M  V30 5892 C 545.403 3.22532 -4.26471 0
M  V30 5893 C 546.703 1.1984 -5.08366 0
M  V30 5894 H 548.397 0.413373 -2.96533 0
M  V30 5895 H 545.943 0.197391 -1.42641 0
M  V30 5896 H 547.896 2.84614 -3.10761 0
M  V30 5897 H 546.62 2.67269 -1.8771 0
M  V30 5898 H 545.279 1.23469 -3.45183 0
M  V30 5899 H 544.927 3.71013 -3.39644 0
M  V30 5900 H 544.627 3.04879 -5.02317 0
M  V30 5901 H 546.151 3.91727 -4.68383 0
M  V30 5902 H 547.565 1.77896 -5.45001 0
M  V30 5903 H 545.962 1.12456 -5.89469 0
M  V30 5904 H 547.032 0.176996 -4.84577 0
M  V30 5905 N 548.375 1.56261 0.205012 0
M  V30 5906 C 549.603 1.84141 0.943386 0
M  V30 5907 C 550.018 0.649772 1.77266 0
M  V30 5908 O 549.375 -0.381612 1.78466 0
M  V30 5909 C 549.426 3.10719 1.84759 0
M  V30 5910 O 549.147 4.25286 1.05181 0
M  V30 5911 C 550.648 3.51706 2.69848 0
M  V30 5912 H 547.868 0.611734 0.275721 0
M  V30 5913 H 550.412 2.03364 0.215253 0
M  V30 5914 H 548.567 2.93422 2.52947 0
M  V30 5915 H 548.981 4.97301 1.66709 0
M  V30 5916 H 550.455 4.43266 3.28967 0
M  V30 5917 H 550.932 2.7423 3.43067 0
M  V30 5918 H 551.538 3.71499 2.07047 0
M  V30 5919 N 549.853 -0.472356 1.50355 0
M  V30 5920 C 550.8 -1.57051 1.69126 0
M  V30 5921 C 551.77 -1.5733 0.532574 0
M  V30 5922 O 552.955 -1.7488 0.762994 0
M  V30 5923 C 550.095 -2.95033 1.79024 0
M  V30 5924 C 549.208 -3.04552 3.06386 0
M  V30 5925 C 548.343 -4.33441 3.07087 0
M  V30 5926 C 547.382 -4.36697 4.28908 0
M  V30 5927 N 546.519 -5.57056 4.27356 0
M  V30 5928 H 551.359 -1.40351 2.62879 0
M  V30 5929 H 548.896 -0.682403 1.30314 0
M  V30 5930 H 550.854 -3.75048 1.82744 0
M  V30 5931 H 549.484 -3.10371 0.887109 0
M  V30 5932 H 548.536 -2.17419 3.12143 0
M  V30 5933 H 549.848 -3.02818 3.96362 0
M  V30 5934 H 549.002 -5.21801 3.09529 0
M  V30 5935 H 547.741 -4.37782 2.14939 0
M  V30 5936 H 546.746 -3.46734 4.2668 0
M  V30 5937 H 547.971 -4.34049 5.22282 0
M  V30 5938 H 545.917 -5.62184 3.3806 0
M  V30 5939 H 545.834 -5.57058 5.111 0
M  V30 5940 H 547.102 -6.47545 4.33942 0
M  V30 5941 N 551.331 -1.39911 -0.725443 0
M  V30 5942 C 552.579 -1.37382 -1.48224 0
M  V30 5943 C 552.9 0.0264107 -1.94982 0
M  V30 5944 O 552.17 0.979408 -1.6966 0
M  V30 5945 H 550.75 -0.505596 -0.549892 0
M  V30 5946 H 553.412 -1.7487 -0.860608 0
M  V30 5947 H 552.508 -2.04254 -2.3598 0
M  V30 5948 N 552.809 0.956637 -1.25245 0
M  V30 5949 C 554.225 1.22733 -1.02023 0
M  V30 5950 C 554.425 1.99761 0.264186 0
M  V30 5951 O 553.481 2.32814 0.977436 0
M  V30 5952 C 554.794 2.00367 -2.24217 0
M  V30 5953 C 556.342 2.13418 -2.28958 0
M  V30 5954 C 556.817 2.9445 -3.50803 0
M  V30 5955 N 558.308 3.02029 -3.51187 0
M  V30 5956 C 559.043 3.65116 -4.42129 0
M  V30 5957 N 558.539 4.2983 -5.43339 0
M  V30 5958 N 560.332 3.62237 -4.29815 0
M  V30 5959 H 552.483 0.441282 -2.07765 0
M  V30 5960 H 554.746 0.257686 -0.912306 0
M  V30 5961 H 554.452 1.51165 -3.17556 0
M  V30 5962 H 554.326 3.01077 -2.27228 0
M  V30 5963 H 556.713 2.61819 -1.36143 0
M  V30 5964 H 556.794 1.1202 -2.29968 0
M  V30 5965 H 556.438 2.46741 -4.43939 0
M  V30 5966 H 556.368 3.9607 -3.47039 0
M  V30 5967 H 558.859 2.56007 -2.77973 0
M  V30 5968 H 559.172 4.75819 -6.08947 0
M  V30 5969 H 557.517 4.28465 -5.47214 0
M  V30 5970 H 560.708 3.10863 -3.49974 0
M  V30 5971 H 560.881 4.11117 -5.00886 0
M  V30 5972 N 554.287 1.06798 1.15896 0
M  V30 5973 C 555.234 0.683314 2.20453 0
M  V30 5974 C 556.204 -0.32255 1.62938 0
M  V30 5975 O 557.389 -0.210276 1.89638 0
M  V30 5976 C 554.529 0.0813266 3.45004 0
M  V30 5977 C 553.642 1.13799 4.16742 0
M  V30 5978 C 552.777 0.501598 5.28826 0
M  V30 5979 C 551.816 1.54144 5.92373 0
M  V30 5980 N 550.953 0.928038 6.9594 0
M  V30 5981 H 555.793 1.57932 2.52708 0
M  V30 5982 H 553.33 0.789544 1.24115 0
M  V30 5983 H 555.288 -0.285274 4.16224 0
M  V30 5984 H 553.918 -0.77806 3.13283 0
M  V30 5985 H 552.97 1.62223 3.44075 0
M  V30 5986 H 554.282 1.92664 4.60089 0
M  V30 5987 H 553.436 0.0823162 6.06644 0
M  V30 5988 H 552.175 -0.318883 4.86656 0
M  V30 5989 H 551.18 1.97056 5.13273 0
M  V30 5990 H 552.405 2.3641 6.36621 0
M  V30 5991 H 550.351 0.12836 6.55874 0
M  V30 5992 H 550.268 1.65401 7.37685 0
M  V30 5993 H 551.536 0.534071 7.77668 0
M  V30 5994 N 555.766 -1.3263 0.851289 0
M  V30 5995 C 556.729 -2.27247 0.298541 0
M  V30 5996 C 557.729 -1.51467 -0.539847 0
M  V30 5997 O 558.919 -1.7061 -0.351843 0
M  V30 5998 C 556.051 -3.35964 -0.578004 0
M  V30 5999 H 557.244 -2.7765 1.13359 0
M  V30 6000 H 554.797 -1.43245 0.625354 0
M  V30 6001 H 555.532 -2.90823 -1.435 0
M  V30 6002 H 555.317 -3.92094 0.0220539 0
M  V30 6003 H 556.807 -4.06472 -0.957626 0
M  V30 6004 N 557.244 -0.608902 -1.45362 0
M  V30 6005 C 558.492 -0.104401 -2.0183 0
M  V30 6006 C 558.813 1.27007 -1.47967 0
M  V30 6007 O 558.083 1.83924 -0.674455 0
M  V30 6008 H 556.663 -0.0356042 -0.746151 0
M  V30 6009 H 559.325 -0.790596 -1.78145 0
M  V30 6010 H 558.421 -0.0551793 -3.12051 0
M  V30 6011 N 558.722 1.53707 -0.348139 0
M  V30 6012 C 559.652 2.28111 0.498766 0
M  V30 6013 C 560.633 1.29851 1.09876 0
M  V30 6014 O 561.818 1.587 1.11928 0
M  V30 6015 C 558.948 3.05735 1.64753 0
M  V30 6016 C 557.902 4.11537 1.17565 0
M  V30 6017 C 557.228 4.77142 2.4133 0
M  V30 6018 C 558.528 5.21587 0.272844 0
M  V30 6019 H 560.222 2.99152 -0.121934 0
M  V30 6020 H 557.768 1.43875 -0.0600842 0
M  V30 6021 H 559.721 3.56526 2.24649 0
M  V30 6022 H 558.445 2.32354 2.2952 0
M  V30 6023 H 557.104 3.61665 0.599483 0
M  V30 6024 H 556.752 4.0035 3.04514 0
M  V30 6025 H 556.452 5.48626 2.10436 0
M  V30 6026 H 557.976 5.30719 3.01943 0
M  V30 6027 H 559.39 5.67986 0.778779 0
M  V30 6028 H 557.787 6.00074 0.0555849 0
M  V30 6029 H 558.857 4.79969 -0.689785 0
M  V30 6030 N 560.2 0.0768682 1.57412 0
M  V30 6031 C 561.616 -0.279772 1.57129 0
M  V30 6032 C 561.816 -1.69688 1.08666 0
M  V30 6033 O 560.872 -2.40953 0.754843 0
M  V30 6034 C 562.185 -0.0848055 3.0058 0
M  V30 6035 C 563.733 -0.153954 3.12621 0
M  V30 6036 C 564.208 0.0127946 4.57998 0
M  V30 6037 N 565.699 -0.0426435 4.6318 0
M  V30 6038 C 566.434 0.0618892 5.73367 0
M  V30 6039 N 565.93 0.220229 6.9245 0
M  V30 6040 N 567.723 0.00446072 5.621 0
M  V30 6041 H 559.874 1.00297 1.87228 0
M  V30 6042 H 562.137 0.391565 0.863354 0
M  V30 6043 H 561.843 0.89325 3.40168 0
M  V30 6044 H 561.717 -0.834961 3.67843 0
M  V30 6045 H 564.104 -1.1225 2.72917 0
M  V30 6046 H 564.185 0.627389 2.47987 0
M  V30 6047 H 563.829 0.978128 4.98392 0
M  V30 6048 H 563.759 -0.788016 5.20671 0
M  V30 6049 H 566.25 -0.163226 3.77547 0
M  V30 6050 H 566.563 0.291999 7.72248 0
M  V30 6051 H 564.908 0.255658 6.9453 0
M  V30 6052 H 568.099 -0.117979 4.67951 0
M  V30 6053 H 568.272 0.0893796 6.47938 0
M  V30 6054 N 561.678 -1.56367 -0.196722 0
M  V30 6055 C 562.924 -1.80796 -0.918725 0
M  V30 6056 C 563.257 -0.650645 -1.82976 0
M  V30 6057 O 562.532 0.348889 -1.91345 0
M  V30 6058 C 562.815 -3.15472 -1.73636 0
M  V30 6059 C 562.668 -4.41693 -0.85015 0
M  V30 6060 C 563.987 -3.46824 -2.70927 0
M  V30 6061 H 561.106 -0.657702 -0.332561 0
M  V30 6062 H 563.748 -1.89086 -0.186186 0
M  V30 6063 H 561.898 -3.08536 -2.36088 0
M  V30 6064 H 563.57 -4.60673 -0.240459 0
M  V30 6065 H 561.813 -4.33517 -0.156785 0
M  V30 6066 H 562.484 -5.32419 -1.45719 0
M  V30 6067 H 564.96 -3.54049 -2.18607 0
M  V30 6068 H 563.836 -4.4218 -3.25219 0
M  V30 6069 H 564.097 -2.70236 -3.49893 0
M  V30 6070 N 563.156 0.464375 -1.50603 0
M  V30 6071 C 564.402 1.21776 -1.62168 0
M  V30 6072 C 564.735 1.91476 -0.324154 0
M  V30 6073 O 564.01 1.8242 0.674782 0
M  V30 6074 C 564.293 2.25614 -2.80661 0
M  V30 6075 C 564.146 1.60175 -4.20314 0
M  V30 6076 C 565.465 3.26862 -2.94702 0
M  V30 6077 H 562.584 0.44137 -0.590222 0
M  V30 6078 H 565.226 0.510623 -1.8301 0
M  V30 6079 H 563.376 2.85923 -2.63021 0
M  V30 6080 H 565.048 1.03411 -4.4956 0
M  V30 6081 H 563.291 0.904697 -4.24261 0
M  V30 6082 H 563.962 2.35665 -4.99165 0
M  V30 6083 H 566.438 2.76582 -3.10872 0
M  V30 6084 H 565.314 3.96839 -3.79223 0
M  V30 6085 H 565.575 3.91382 -2.05603 0
M  V30 6086 N 564.634 1.40294 0.718013 0
M  V30 6087 C 565.597 1.4012 1.81381 0
M  V30 6088 C 566.597 0.295405 1.58063 0
M  V30 6089 O 567.787 0.554187 1.6515 0
M  V30 6090 C 564.919 1.19056 3.19435 0
M  V30 6091 H 566.112 2.37645 1.82933 0
M  V30 6092 H 563.665 1.26107 0.923405 0
M  V30 6093 H 564.4 0.222809 3.23534 0
M  V30 6094 H 564.185 1.99152 3.37758 0
M  V30 6095 H 565.675 1.21716 3.99468 0
M  V30 6096 N 566.112 -0.949982 1.2575 0
M  V30 6097 C 567.36 -1.6918 1.10555 0
M  V30 6098 C 567.681 -1.91773 -0.353298 0
M  V30 6099 O 566.951 -1.50814 -1.25027 0
M  V30 6100 H 565.531 -0.626952 0.406129 0
M  V30 6101 H 568.193 -1.1419 1.57945 0
M  V30 6102 H 567.289 -2.66915 1.61749 0
M  V30 6103 N 567.59 -1.07411 -1.15328 0
M  V30 6104 C 568.52 -0.716472 -2.22236 0
M  V30 6105 C 569.501 0.296373 -1.67498 0
M  V30 6106 O 570.686 0.168989 -1.93463 0
M  V30 6107 C 567.816 -0.114142 -3.47112 0
M  V30 6108 C 566.77 -1.05421 -4.14814 0
M  V30 6109 C 566.096 -0.314604 -5.33774 0
M  V30 6110 C 567.396 -2.38808 -4.64508 0
M  V30 6111 H 569.09 -1.61029 -2.52408 0
M  V30 6112 H 566.636 -0.775702 -1.21321 0
M  V30 6113 H 568.589 0.148001 -4.2114 0
M  V30 6114 H 567.313 0.814755 -3.16274 0
M  V30 6115 H 565.972 -1.30128 -3.42728 0
M  V30 6116 H 565.62 0.617772 -4.99192 0
M  V30 6117 H 565.32 -0.941209 -5.80013 0
M  V30 6118 H 566.844 -0.0602747 -6.1057 0
M  V30 6119 H 568.258 -2.18424 -5.3006 0
M  V30 6120 H 566.655 -2.97069 -5.21412 0
M  V30 6121 H 567.725 -3.01067 -3.80114 0
M  V30 6122 N 569.068 1.32177 -0.85831 0
M  V30 6123 C 570 2.27688 -0.262835 0
M  V30 6124 C 571.013 1.52588 0.567513 0
M  V30 6125 O 572.202 1.74156 0.391407 0
M  V30 6126 C 569.302 3.32668 0.646937 0
M  V30 6127 C 568.475 4.37148 -0.148372 0
M  V30 6128 C 567.534 5.21686 0.687728 0
M  V30 6129 O 566.56 5.69074 0.119934 0
M  V30 6130 N 567.762 5.44892 2.00182 0
M  V30 6131 H 570.527 2.79426 -1.08356 0
M  V30 6132 H 568.088 1.45076 -0.718647 0
M  V30 6133 H 570.08 3.86134 1.2117 0
M  V30 6134 H 568.65 2.81061 1.36834 0
M  V30 6135 H 567.87 3.83915 -0.894572 0
M  V30 6136 H 569.158 5.04038 -0.694514 0
M  V30 6137 H 568.556 5.08128 2.4864 0
M  V30 6138 H 567.113 6.0134 2.51463 0
M  V30 6139 N 570.547 0.616602 1.45037 0
M  V30 6140 C 571.772 0.120192 2.07051 0
M  V30 6141 C 572.197 -1.19008 1.45666 0
M  V30 6142 O 571.555 -1.7267 0.552692 0
M  V30 6143 C 571.603 0.00354901 3.606 0
M  V30 6144 O 570.707 -1.04431 3.98958 0
M  V30 6145 H 570.048 0.0781599 0.659384 0
M  V30 6146 H 572.578 0.849167 1.86146 0
M  V30 6147 H 572.588 -0.191754 4.07549 0
M  V30 6148 H 571.263 0.960239 4.04663 0
M  V30 6149 H 569.84 -0.824749 3.63665 0
M  V30 6150 N 572.025 -1.5352 0.356285 0
M  V30 6151 C 573.253 -2.05534 -0.237328 0
M  V30 6152 C 573.668 -1.23043 -1.43199 0
M  V30 6153 O 573.025 -0.268821 -1.80509 0
M  V30 6154 C 573.076 -3.55791 -0.639933 0
M  V30 6155 O 572.797 -4.35154 0.507233 0
M  V30 6156 C 574.298 -4.24027 -1.29292 0
M  V30 6157 H 571.518 -0.669585 -0.0435572 0
M  V30 6158 H 574.062 -1.97988 0.511963 0
M  V30 6159 H 572.217 -3.63518 -1.33915 0
M  V30 6160 H 572.631 -5.24178 0.18375 0
M  V30 6161 H 574.105 -5.30509 -1.52527 0
M  V30 6162 H 574.582 -3.77166 -2.25039 0
M  V30 6163 H 575.188 -4.20527 -0.63539 0
M  V30 6164 N 573.503 -0.0852151 -1.57369 0
M  V30 6165 C 574.728 0.592872 -1.98746 0
M  V30 6166 C 575.153 1.61538 -0.963689 0
M  V30 6167 O 574.511 1.81168 0.069071 0
M  V30 6168 C 574.559 1.22599 -3.39119 0
M  V30 6169 O 573.663 2.34185 -3.39457 0
M  V30 6170 H 573.004 0.151314 -0.646529 0
M  V30 6171 H 575.534 -0.163703 -2.03944 0
M  V30 6172 H 575.544 1.56965 -3.76598 0
M  V30 6173 H 574.219 0.476831 -4.13158 0
M  V30 6174 H 572.796 2.01512 -3.13763 0
M  V30 6175 N 574.981 1.5647 0.188427 0
M  V30 6176 C 575.913 1.91611 1.25769 0
M  V30 6177 C 576.926 0.807436 1.41366 0
M  V30 6178 O 578.115 1.08586 1.41673 0
M  V30 6179 C 575.215 2.13874 2.6289 0
M  V30 6180 C 574.388 3.45047 2.68815 0
M  V30 6181 C 573.447 3.56342 3.87178 0
M  V30 6182 O 572.473 4.29109 3.73971 0
M  V30 6183 N 573.675 2.89924 5.02916 0
M  V30 6184 H 576.44 2.8393 0.959373 0
M  V30 6185 H 574.001 1.57418 0.378306 0
M  V30 6186 H 575.993 2.18713 3.4051 0
M  V30 6187 H 574.563 1.28022 2.85183 0
M  V30 6188 H 573.783 3.52017 1.77419 0
M  V30 6189 H 575.071 4.31395 2.6977 0
M  V30 6190 H 574.469 2.30644 5.16546 0
M  V30 6191 H 573.026 3.0038 5.78459 0
M  V30 6192 N 576.459 -0.456382 1.50847 0
M  V30 6193 C 577.389 -1.56025 1.73719 0
M  V30 6194 C 578.37 -1.5967 0.586473 0
M  V30 6195 O 579.555 -1.75702 0.827185 0
M  V30 6196 C 576.685 -2.94251 1.84483 0
M  V30 6197 C 575.639 -3.05471 2.99786 0
M  V30 6198 C 574.965 -4.45489 2.95709 0
M  V30 6199 C 576.265 -2.81318 4.40065 0
M  V30 6200 H 577.959 -1.37138 2.66146 0
M  V30 6201 H 575.505 -0.658299 1.28072 0
M  V30 6202 H 577.458 -3.71417 1.99067 0
M  V30 6203 H 576.182 -3.14328 0.886891 0
M  V30 6204 H 574.841 -2.30741 2.84876 0
M  V30 6205 H 574.489 -4.62505 1.97732 0
M  V30 6206 H 574.189 -4.53929 3.73125 0
M  V30 6207 H 575.713 -5.24655 3.12362 0
M  V30 6208 H 577.127 -3.48226 4.55425 0
M  V30 6209 H 575.524 -3.01188 5.19043 0
M  V30 6210 H 576.594 -1.7706 4.51418 0
M  V30 6211 N 577.937 -1.40673 -0.710563 0
M  V30 6212 C 579.214 -1.29718 -1.46398 0
M  V30 6213 C 579.594 0.082177 -2.1094 0
M  V30 6214 O 578.942 1.09536 -2.00534 0
M  V30 6215 C 579.152 -2.43967 -2.49562 0
M  V30 6216 C 580.5 -2.84436 -3.15248 0
M  V30 6217 O 581.524 -2.43597 -2.59883 0
M  V30 6218 O 580.383 -3.55008 -4.1549 0
M  V30 6219 H 577.477 -0.509697 -0.651258 0
M  V30 6220 H 580.023 -1.52603 -0.742312 0
M  V30 6221 H 578.795 -3.36076 -2.0042 0
M  V30 6222 H 578.418 -2.22879 -3.29258 0
M  V30 6223 N 579.415 0.9433 -1.26252 0
M  V30 6224 C 580.692 1.66639 -1.02424 0
M  V30 6225 C 581.072 2.06335 0.446006 0
M  V30 6226 O 580.42 1.78551 1.42589 0
M  V30 6227 C 580.63 2.88019 -1.97094 0
M  V30 6228 C 581.978 3.59718 -2.25584 0
M  V30 6229 O 583.002 2.9812 -1.94943 0
M  V30 6230 O 581.861 4.7066 -2.77743 0
M  V30 6231 H 578.955 0.729643 -0.389294 0
M  V30 6232 H 581.501 0.995218 -1.37454 0
M  V30 6233 H 580.273 2.5556 -2.96319 0
M  V30 6234 H 579.896 3.62863 -1.62532 0
M  V30 6235 N 580.893 1.08022 1.14757 0
M  V30 6236 C 582.139 0.808705 1.85978 0
M  V30 6237 C 582.472 -0.663764 1.82504 0
M  V30 6238 O 581.747 -1.48765 1.25296 0
M  V30 6239 C 582.03 1.32623 3.34788 0
M  V30 6240 C 581.883 2.86375 3.46856 0
M  V30 6241 C 583.202 0.948291 4.29762 0
M  V30 6242 H 580.321 0.295244 0.675278 0
M  V30 6243 H 582.963 1.33917 1.34783 0
M  V30 6244 H 581.113 0.875002 3.78518 0
M  V30 6245 H 582.785 3.39839 3.11941 0
M  V30 6246 H 581.028 3.24232 2.88194 0
M  V30 6247 H 581.699 3.17658 4.51439 0
M  V30 6248 H 584.175 1.33722 3.94028 0
M  V30 6249 H 583.051 1.33765 5.32352 0
M  V30 6250 H 583.312 -0.145094 4.41862 0
M  V30 6251 N 582.371 -1.3172 0.865308 0
M  V30 6252 C 583.601 -2.00765 0.487543 0
M  V30 6253 C 584.009 -1.65145 -0.92325 0
M  V30 6254 O 583.352 -0.874294 -1.61561 0
M  V30 6255 C 583.414 -3.55122 0.559369 0
M  V30 6256 C 583.078 -4.14202 1.93095 0
M  V30 6257 C 584.075 -4.3165 2.89784 0
M  V30 6258 C 581.76 -4.50036 2.23099 0
M  V30 6259 C 583.754 -4.84114 4.14623 0
M  V30 6260 C 581.441 -5.02203 3.48189 0
M  V30 6261 C 582.439 -5.19192 4.43767 0
M  V30 6262 O 582.127 -5.70241 5.6664 0
M  V30 6263 H 581.859 -0.649066 0.188915 0
M  V30 6264 H 584.413 -1.69032 1.16694 0
M  V30 6265 H 582.643 -3.86295 -0.176926 0
M  V30 6266 H 584.332 -4.05428 0.195694 0
M  V30 6267 H 585.098 -4.04288 2.6791 0
M  V30 6268 H 580.977 -4.36091 1.49485 0
M  V30 6269 H 584.521 -4.9729 4.89233 0
M  V30 6270 H 580.418 -5.28997 3.69908 0
M  V30 6271 H 581.186 -5.88617 5.68746 0
M  V30 6272 N 583.85 -0.624285 -1.44708 0
M  V30 6273 C 585.098 -0.125802 -2.01708 0
M  V30 6274 C 585.418 1.2543 -1.49306 0
M  V30 6275 O 584.689 1.83198 -0.693924 0
M  V30 6276 H 583.269 -0.0435161 -0.745731 0
M  V30 6277 H 585.931 -0.809446 -1.77296 0
M  V30 6278 H 585.027 -0.0882734 -3.11975 0
M  V30 6279 N 585.328 1.53329 -0.364422 0
M  V30 6280 C 586.574 2.01537 0.225969 0
M  V30 6281 C 586.907 1.25128 1.48515 0
M  V30 6282 O 586.182 0.344653 1.91422 0
M  V30 6283 C 586.465 3.56339 0.519092 0
M  V30 6284 C 586.318 4.43441 -0.753639 0
M  V30 6285 C 587.637 4.19833 1.32015 0
M  V30 6286 H 584.756 0.732573 0.0806548 0
M  V30 6287 H 587.398 1.83597 -0.489084 0
M  V30 6288 H 585.548 3.71756 1.12825 0
M  V30 6289 H 587.22 4.39823 -1.39116 0
M  V30 6290 H 585.463 4.11457 -1.37424 0
M  V30 6291 H 586.134 5.49699 -0.503517 0
M  V30 6292 H 588.61 4.08242 0.804859 0
M  V30 6293 H 587.486 5.28177 1.49399 0
M  V30 6294 H 587.747 3.75821 2.32832 0
M  V30 6295 N 586.806 0.0935595 1.57322 0
M  V30 6296 C 587.753 -0.865935 2.1394 0
M  V30 6297 C 588.723 -1.28083 1.05754 0
M  V30 6298 O 589.908 -1.36285 1.33533 0
M  V30 6299 C 587.048 -2.12023 2.72287 0
M  V30 6300 C 586.161 -1.756 3.94701 0
M  V30 6301 C 585.296 -2.95804 4.41218 0
M  V30 6302 C 584.335 -2.555 5.56225 0
M  V30 6303 N 583.472 -3.68534 5.97601 0
M  V30 6304 H 588.312 -0.376261 2.95615 0
M  V30 6305 H 585.849 -0.174052 1.46067 0
M  V30 6306 H 587.807 -2.85477 3.04235 0
M  V30 6307 H 586.437 -2.58492 1.93343 0
M  V30 6308 H 585.489 -0.921208 3.69077 0
M  V30 6309 H 586.801 -1.41964 4.78171 0
M  V30 6310 H 585.955 -3.77513 4.74941 0
M  V30 6311 H 584.694 -3.32649 3.56645 0
M  V30 6312 H 583.699 -1.72218 5.22131 0
M  V30 6313 H 584.924 -2.19801 6.42545 0
M  V30 6314 H 582.87 -4.051 5.15974 0
M  V30 6315 H 582.787 -3.38737 6.75865 0
M  V30 6316 H 584.055 -4.50757 6.35955 0
M  V30 6317 N 588.284 -1.56567 -0.180126 0
M  V30 6318 C 589.194 -1.98947 -1.24327 0
M  V30 6319 C 590.21 -0.899446 -1.4895 0
M  V30 6320 O 591.386 -1.20639 -1.61271 0
M  V30 6321 C 588.451 -2.33328 -2.56435 0
M  V30 6322 C 587.512 -3.56114 -2.39752 0
M  V30 6323 C 586.745 -3.88845 -3.65561 0
M  V30 6324 O 586.968 -3.22662 -4.70368 0
M  V30 6325 O 585.902 -4.82226 -3.60197 0
M  V30 6326 H 589.728 -2.89634 -0.913565 0
M  V30 6327 H 587.313 -1.44319 -0.386306 0
M  V30 6328 H 589.195 -2.5645 -3.34382 0
M  V30 6329 H 587.87 -1.45806 -2.89002 0
M  V30 6330 H 586.777 -3.38221 -1.59866 0
M  V30 6331 H 588.11 -4.4415 -2.12113 0
M  V30 6332 N 589.762 0.448376 -1.51087 0
M  V30 6333 C 590.725 1.52588 -1.71025 0
M  V30 6334 C 591.725 1.49958 -0.580442 0
M  V30 6335 O 592.915 1.52176 -0.847833 0
M  V30 6336 C 590.047 2.92163 -1.75652 0
M  V30 6337 H 591.24 1.36218 -2.67179 0
M  V30 6338 H 588.793 0.676313 -1.4091 0
M  V30 6339 H 589.528 3.13951 -0.812724 0
M  V30 6340 H 589.313 2.95478 -2.57751 0
M  V30 6341 H 590.803 3.70349 -1.92953 0
M  V30 6342 N 591.24 1.41047 0.703093 0
M  V30 6343 C 592.172 1.38228 1.82827 0
M  V30 6344 C 593.185 0.285637 1.60275 0
M  V30 6345 O 594.374 0.54685 1.69917 0
M  V30 6346 C 591.474 1.13136 3.19458 0
M  V30 6347 C 590.647 2.34695 3.69103 0
M  V30 6348 C 589.706 2.05574 4.84382 0
M  V30 6349 O 588.732 2.78549 4.96386 0
M  V30 6350 N 589.934 1.04135 5.71083 0
M  V30 6351 H 592.699 2.35203 1.85741 0
M  V30 6352 H 590.26 1.35562 0.885125 0
M  V30 6353 H 592.252 0.916183 3.94193 0
M  V30 6354 H 590.822 0.247836 3.11616 0
M  V30 6355 H 590.042 2.71963 2.85359 0
M  V30 6356 H 591.33 3.15705 3.99009 0
M  V30 6357 H 590.728 0.43722 5.64008 0
M  V30 6358 H 589.285 0.886078 6.45749 0
M  V30 6359 N 592.718 -0.936591 1.26751 0
M  V30 6360 C 593.946 -1.71758 1.15355 0
M  V30 6361 C 594.361 -1.86549 -0.290683 0
M  V30 6362 O 593.718 -1.37616 -1.19868 0
M  V30 6363 C 593.769 -3.12193 1.82258 0
M  V30 6364 O 593.49 -2.98105 3.21038 0
M  V30 6365 C 594.991 -4.06485 1.76875 0
M  V30 6366 H 592.211 -0.537636 0.401483 0
M  V30 6367 H 594.755 -1.17382 1.67457 0
M  V30 6368 H 592.91 -3.63456 1.34083 0
M  V30 6369 H 593.324 -3.86824 3.54214 0
M  V30 6370 H 594.798 -5.02569 2.28316 0
M  V30 6371 H 595.275 -4.32986 0.736216 0
M  V30 6372 H 595.881 -3.61144 2.24623 0
M  V30 6373 N 594.196 -1.08629 -1.14182 0
M  V30 6374 C 595.126 -0.740003 -2.21464 0
M  V30 6375 C 596.107 0.278591 -1.67803 0
M  V30 6376 O 597.292 0.148461 -1.93632 0
M  V30 6377 C 594.422 -0.150952 -3.46972 0
M  V30 6378 C 593.376 -1.09815 -4.13672 0
M  V30 6379 C 592.702 -0.3712 -5.3341 0
M  V30 6380 C 594.002 -2.43722 -4.61949 0
M  V30 6381 H 595.696 -1.63697 -2.50686 0
M  V30 6382 H 593.242 -0.788526 -1.20492 0
M  V30 6383 H 595.195 0.103325 -4.21273 0
M  V30 6384 H 593.919 0.781164 -3.1712 0
M  V30 6385 H 592.578 -1.33756 -3.41328 0
M  V30 6386 H 592.226 0.564792 -4.99819 0
M  V30 6387 H 591.926 -1.00267 -5.78982 0
M  V30 6388 H 593.45 -0.12503 -6.10472 0
M  V30 6389 H 594.864 -2.24034 -5.27714 0
M  V30 6390 H 593.261 -3.02582 -5.18232 0
M  V30 6391 H 594.331 -3.05082 -3.76899 0
M  V30 6392 N 595.674 1.31259 -0.872281 0
M  V30 6393 C 597.09 1.49283 -0.564521 0
M  V30 6394 C 597.29 1.80243 0.900807 0
M  V30 6395 O 596.346 1.88246 1.68284 0
M  V30 6396 C 597.659 2.62503 -1.46673 0
M  V30 6397 C 599.207 2.76386 -1.46901 0
M  V30 6398 C 599.682 3.92705 -2.35684 0
M  V30 6399 N 601.173 3.99995 -2.33577 0
M  V30 6400 C 601.908 4.89276 -2.98992 0
M  V30 6401 N 601.404 5.83443 -3.73585 0
M  V30 6402 N 603.197 4.82541 -2.88289 0
M  V30 6403 H 595.348 1.09432 -1.82039 0
M  V30 6404 H 597.611 0.540949 -0.77851 0
M  V30 6405 H 597.317 2.46407 -2.50951 0
M  V30 6406 H 597.191 3.58695 -1.16696 0
M  V30 6407 H 599.578 2.91894 -0.433796 0
M  V30 6408 H 599.659 1.80853 -1.80903 0
M  V30 6409 H 599.303 3.77954 -3.39283 0
M  V30 6410 H 599.233 4.87549 -1.99006 0
M  V30 6411 H 601.724 3.32624 -1.7936 0
M  V30 6412 H 602.037 6.48303 -4.20622 0
M  V30 6413 H 600.382 5.83415 -3.77694 0
M  V30 6414 H 603.573 4.07951 -2.2955 0
M  V30 6415 H 603.746 5.51916 -3.39549 0
M  V30 6416 N 597.152 0.631951 1.44375 0
M  V30 6417 C 598.115 -0.0628142 2.29114 0
M  V30 6418 C 599.115 -0.771494 1.41084 0
M  V30 6419 O 600.305 -0.615959 1.62947 0
M  V30 6420 C 597.437 -1.09953 3.22681 0
M  V30 6421 H 598.63 0.682509 2.92031 0
M  V30 6422 H 596.183 0.392128 1.51301 0
M  V30 6423 H 596.918 -1.87481 2.64616 0
M  V30 6424 H 596.703 -0.595286 3.87555 0
M  V30 6425 H 598.193 -1.58538 3.86336 0
M  V30 6426 N 598.631 -1.53133 0.372548 0
M  V30 6427 C 599.856 -2.0625 -0.218098 0
M  V30 6428 C 600.281 -1.24375 -1.41111 0
M  V30 6429 O 599.639 -0.264554 -1.79359 0
M  V30 6430 C 599.687 -3.55858 -0.582876 0
M  V30 6431 O 598.791 -3.76667 -1.67917 0
M  V30 6432 H 598.132 -0.663317 -0.030104 0
M  V30 6433 H 600.662 -1.97477 0.535169 0
M  V30 6434 H 600.672 -3.99007 -0.851925 0
M  V30 6435 H 599.347 -4.14892 0.289428 0
M  V30 6436 H 597.924 -3.45413 -1.40513 0
M  V30 6437 N 600.109 -0.101901 -1.5727 0
M  V30 6438 C 601.356 0.560197 -1.94597 0
M  V30 6439 C 601.684 1.67767 -0.984101 0
M  V30 6440 O 600.939 1.95699 -0.00489193 0
M  V30 6441 C 601.238 1.14898 -3.38427 0
M  V30 6442 C 600.904 0.154613 -4.50635 0
M  V30 6443 C 599.566 -0.118861 -4.81053 0
M  V30 6444 C 601.918 -0.523979 -5.18559 0
M  V30 6445 C 599.246 -1.0775 -5.76721 0
M  V30 6446 C 601.598 -1.47114 -6.15256 0
M  V30 6447 C 600.262 -1.75278 -6.44076 0
M  V30 6448 H 599.532 0.204991 -0.712081 0
M  V30 6449 H 602.179 -0.17918 -1.9066 0
M  V30 6450 H 600.484 1.96476 -3.38976 0
M  V30 6451 H 602.181 1.66909 -3.64613 0
M  V30 6452 H 598.771 0.377948 -4.2693 0
M  V30 6453 H 602.955 -0.325851 -4.95229 0
M  V30 6454 H 598.211 -1.30263 -5.97362 0
M  V30 6455 H 602.385 -2.00274 -6.66981 0
M  V30 6456 H 600.012 -2.49717 -7.18015 0
M  V30 6457 N 601.587 1.56661 0.17182 0
M  V30 6458 C 603.003 1.50768 0.52357 0
M  V30 6459 C 603.203 0.806072 1.84675 0
M  V30 6460 O 602.259 0.366233 2.4983 0
M  V30 6461 C 603.572 2.955 0.556793 0
M  V30 6462 C 605.12 3.06303 0.644029 0
M  V30 6463 C 605.595 4.52492 0.708148 0
M  V30 6464 N 607.086 4.56737 0.771051 0
M  V30 6465 C 607.821 5.67196 0.841229 0
M  V30 6466 N 607.317 6.87287 0.872272 0
M  V30 6467 N 609.11 5.55165 0.88021 0
M  V30 6468 H 601.261 2.00679 -0.695817 0
M  V30 6469 H 603.524 0.914219 -0.250814 0
M  V30 6470 H 603.23 3.49986 -0.346774 0
M  V30 6471 H 603.104 3.50119 1.40346 0
M  V30 6472 H 605.491 2.51851 1.53802 0
M  V30 6473 H 605.572 2.5477 -0.229297 0
M  V30 6474 H 605.216 5.07575 -0.181585 0
M  V30 6475 H 605.146 5.01781 1.59761 0
M  V30 6476 H 607.637 3.70274 0.755364 0
M  V30 6477 H 607.95 7.6722 0.92698 0
M  V30 6478 H 606.295 6.89898 0.840557 0
M  V30 6479 H 609.486 4.60263 0.852956 0
M  V30 6480 H 609.659 6.41271 0.931439 0
M  V30 6481 N 603.065 -0.440357 1.51323 0
M  V30 6482 C 604.29 -1.21716 1.67928 0
M  V30 6483 C 604.715 -1.84328 0.374826 0
M  V30 6484 O 604.073 -1.68675 -0.664706 0
M  V30 6485 C 604.121 -2.27914 2.79442 0
M  V30 6486 O 603.225 -3.33325 2.42834 0
M  V30 6487 H 602.566 -0.35674 0.560029 0
M  V30 6488 H 605.096 -0.520417 1.97871 0
M  V30 6489 H 605.106 -2.72746 3.03436 0
M  V30 6490 H 603.781 -1.8172 3.741 0
M  V30 6491 H 602.358 -2.9399 2.294 0
M  V30 6492 N 604.543 -1.41418 -0.695603 0
M  V30 6493 C 605.473 -1.46035 -1.82197 0
M  V30 6494 C 606.454 -0.319025 -1.67082 0
M  V30 6495 O 607.639 -0.530462 -1.86815 0
M  V30 6496 C 604.769 -1.34179 -3.20333 0
M  V30 6497 C 603.723 -2.46123 -3.50154 0
M  V30 6498 C 603.049 -2.19332 -4.87645 0
M  V30 6499 C 604.349 -3.88463 -3.49133 0
M  V30 6500 H 606.043 -2.40303 -1.78591 0
M  V30 6501 H 603.589 -1.15663 -0.857797 0
M  V30 6502 H 605.542 -1.36021 -3.98844 0
M  V30 6503 H 604.266 -0.363952 -3.24566 0
M  V30 6504 H 602.925 -2.43563 -2.73994 0
M  V30 6505 H 602.573 -1.19891 -4.88503 0
M  V30 6506 H 602.273 -2.94344 -5.08562 0
M  V30 6507 H 603.797 -2.22889 -5.68465 0
M  V30 6508 H 605.211 -3.92738 -4.17648 0
M  V30 6509 H 603.608 -4.63158 -3.81582 0
M  V30 6510 H 604.678 -4.16617 -2.48109 0
M  V30 6511 N 606.021 0.929856 -1.27246 0
M  V30 6512 C 607.267 1.6798 -1.13625 0
M  V30 6513 C 607.6 1.91586 0.317589 0
M  V30 6514 O 606.875 1.50467 1.23247 0
M  V30 6515 C 607.158 3.04766 -1.91806 0
M  V30 6516 C 607.011 2.88415 -3.45162 0
M  V30 6517 C 608.33 4.05063 -1.72082 0
M  V30 6518 H 605.449 0.609632 -0.414147 0
M  V30 6519 H 608.091 1.0792 -1.56376 0
M  V30 6520 H 606.241 3.56034 -1.55474 0
M  V30 6521 H 607.913 2.44282 -3.91311 0
M  V30 6522 H 606.156 2.23802 -3.71611 0
M  V30 6523 H 606.827 3.85482 -3.95105 0
M  V30 6524 H 609.303 3.62798 -2.03757 0
M  V30 6525 H 608.179 4.98765 -2.29182 0
M  V30 6526 H 608.44 4.37021 -0.668206 0
M  V30 6527 N 607.499 1.09233 1.13605 0
M  V30 6528 C 608.745 0.828385 1.8511 0
M  V30 6529 C 609.078 -0.64437 1.83198 0
M  V30 6530 O 608.353 -1.47428 1.26867 0
M  V30 6531 C 608.636 1.36167 3.33363 0
M  V30 6532 C 608.489 2.90038 3.438 0
M  V30 6533 C 609.808 0.993819 4.28732 0
M  V30 6534 H 606.927 0.30239 0.672108 0
M  V30 6535 H 609.569 1.35339 1.33355 0
M  V30 6536 H 607.719 0.9151 3.77569 0
M  V30 6537 H 609.391 3.43128 3.08319 0
M  V30 6538 H 607.634 3.27271 2.84739 0
M  V30 6539 H 608.305 3.22428 4.48045 0
M  V30 6540 H 610.781 1.37893 3.92587 0
M  V30 6541 H 609.657 1.39403 5.30903 0
M  V30 6542 H 609.918 -0.0982206 4.41991 0
M  V30 6543 N 608.977 -1.30795 0.87923 0
M  V30 6544 C 609.907 -2.30742 0.357796 0
M  V30 6545 C 610.888 -1.60747 -0.556283 0
M  V30 6546 O 612.073 -1.88393 -0.47135 0
M  V30 6547 C 609.203 -3.44583 -0.433555 0
M  V30 6548 C 608.157 -4.26235 0.388251 0
M  V30 6549 C 607.483 -5.32073 -0.529352 0
M  V30 6550 C 608.783 -4.96303 1.62729 0
M  V30 6551 H 610.477 -2.74605 1.19299 0
M  V30 6552 H 608.023 -1.32017 0.575104 0
M  V30 6553 H 609.976 -4.13563 -0.808934 0
M  V30 6554 H 608.7 -2.99511 -1.30234 0
M  V30 6555 H 607.359 -3.58936 0.745695 0
M  V30 6556 H 607.007 -4.83249 -1.39569 0
M  V30 6557 H 606.707 -5.87598 0.0166741 0
M  V30 6558 H 608.231 -6.0391 -0.901373 0
M  V30 6559 H 609.645 -5.5783 1.32283 0
M  V30 6560 H 608.042 -5.61666 2.11309 0
M  V30 6561 H 609.112 -4.22758 2.37494 0
M  V30 6562 N 610.455 -0.639598 -1.44038 0
M  V30 6563 C 611.703 -0.147188 -2.01563 0
M  V30 6564 C 612.024 1.2384 -1.50628 0
M  V30 6565 O 611.294 1.82452 -0.713316 0
M  V30 6566 H 609.874 -0.0514231 -0.745228 0
M  V30 6567 H 612.536 -0.828205 -1.76428 0
M  V30 6568 H 611.632 -0.121358 -3.11864 0
M  V30 6569 N 611.933 1.52934 -0.380664 0
M  V30 6570 C 613.181 2.01069 0.203874 0
M  V30 6571 C 613.502 1.26922 1.4804 0
M  V30 6572 O 612.772 0.386787 1.92044 0
M  V30 6573 H 611.352 0.742882 0.0783279 0
M  V30 6574 H 614.014 1.88099 -0.510368 0
M  V30 6575 H 613.11 3.09258 0.42021 0
M  V30 6576 N 613.412 0.11024 1.57214 0
M  V30 6577 C 614.637 -0.561179 1.99664 0
M  V30 6578 C 615.062 -1.59985 0.989266 0
M  V30 6579 O 614.42 -1.81255 -0.0402399 0
M  V30 6580 C 614.468 -1.17189 3.41027 0
M  V30 6581 O 613.572 -2.28755 3.4314 0
M  V30 6582 H 612.913 -0.14101 0.648855 0
M  V30 6583 H 615.443 0.196128 2.03658 0
M  V30 6584 H 615.453 -1.50954 3.79047 0
M  V30 6585 H 614.128 -0.411041 4.13864 0
M  V30 6586 H 612.705 -1.96495 3.16929 0
M  V30 6587 N 614.89 -1.56749 -0.16351 0
M  V30 6588 C 616.306 -1.51043 -0.515567 0
M  V30 6589 C 616.506 -0.815855 -1.84245 0
M  V30 6590 O 615.562 -0.379477 -2.49632 0
M  V30 6591 C 616.875 -2.95791 -0.541114 0
M  V30 6592 C 618.423 -3.0664 -0.627776 0
M  V30 6593 C 618.898 -4.52861 -0.684141 0
M  V30 6594 N 620.389 -4.5714 -0.746818 0
M  V30 6595 C 621.124 -5.67634 -0.811137 0
M  V30 6596 N 620.62 -6.8774 -0.835811 0
M  V30 6597 N 622.413 -5.55624 -0.850756 0
M  V30 6598 H 614.564 -2.00307 0.70645 0
M  V30 6599 H 616.827 -0.912876 0.255659 0
M  V30 6600 H 616.533 -3.49797 0.365329 0
M  V30 6601 H 616.407 -3.50858 -1.38487 0
M  V30 6602 H 618.794 -2.52663 -1.52464 0
M  V30 6603 H 618.875 -2.54645 0.242805 0
M  V30 6604 H 618.519 -5.07472 0.2085 0
M  V30 6605 H 618.449 -5.02621 -1.57098 0
M  V30 6606 H 620.94 -3.70669 -0.735717 0
M  V30 6607 H 621.253 -7.67701 -0.886279 0
M  V30 6608 H 619.598 -6.90334 -0.803958 0
M  V30 6609 H 622.789 -4.60709 -0.828535 0
M  V30 6610 H 622.962 -6.41756 -0.897418 0
M  V30 6611 N 616.368 0.432326 -1.51554 0
M  V30 6612 C 617.596 1.20364 -1.68286 0
M  V30 6613 C 618.011 1.84888 -0.38233 0
M  V30 6614 O 617.368 1.70924 0.639627 0
M  V30 6615 C 617.419 2.28398 -2.80208 0
M  V30 6616 O 617.14 1.66512 -4.05223 0
M  V30 6617 C 618.641 3.18584 -3.08251 0
M  V30 6618 H 615.861 0.36259 -0.564596 0
M  V30 6619 H 618.405 0.511647 -1.97996 0
M  V30 6620 H 616.56 2.93305 -2.53083 0
M  V30 6621 H 616.974 2.37951 -4.67418 0
M  V30 6622 H 618.448 3.90511 -3.90135 0
M  V30 6623 H 618.925 3.79628 -2.2086 0
M  V30 6624 H 619.531 2.59372 -3.37055 0
M  V30 6625 N 617.846 1.41785 0.688094 0
M  V30 6626 C 619.123 1.32031 1.44316 0
M  V30 6627 C 619.503 -0.0486079 2.11044 0
M  V30 6628 O 618.851 -1.06332 2.02252 0
M  V30 6629 C 619.061 2.47906 2.45649 0
M  V30 6630 C 620.409 2.89415 3.10683 0
M  V30 6631 O 621.433 2.477 2.55975 0
M  V30 6632 O 620.292 3.61573 4.09789 0
M  V30 6633 H 617.386 0.519994 0.643067 0
M  V30 6634 H 619.932 1.53765 0.71794 0
M  V30 6635 H 618.704 3.39222 1.95048 0
M  V30 6636 H 618.327 2.28089 3.25671 0
M  V30 6637 N 619.324 -0.923095 1.27737 0
M  V30 6638 C 620.735 -1.48626 1.12993 0
M  V30 6639 C 621.086 -1.94142 -0.283439 0
M  V30 6640 O 620.211 -1.81605 -1.17681 0
M  V30 6641 C 620.806 -2.70117 2.04505 0
M  V30 6642 C 619.365 -3.22642 1.93853 0
M  V30 6643 C 618.512 -1.95368 1.96791 0
M  V30 6644 H 621.463 -0.736737 1.40563 0
M  V30 6645 H 621.484 -3.4506 1.60356 0
M  V30 6646 H 620.996 -2.36959 3.07363 0
M  V30 6647 H 619.097 -3.60549 0.939968 0
M  V30 6648 H 619.21 -3.88525 2.80331 0
M  V30 6649 H 617.574 -2.12061 1.41076 0
M  V30 6650 H 618.357 -1.64517 3.01312 0
M  V30 6651 N 620.802 -1.09834 -1.13024 0
M  V30 6652 C 621.749 -0.741522 -2.18564 0
M  V30 6653 C 622.719 0.279236 -1.63736 0
M  V30 6654 O 623.904 0.159923 -1.90129 0
M  V30 6655 C 621.044 -0.17277 -3.44667 0
M  V30 6656 C 620.157 -1.24808 -4.13578 0
M  V30 6657 C 619.292 -0.641631 -5.27311 0
M  V30 6658 C 618.331 -1.69795 -5.88078 0
M  V30 6659 N 617.468 -1.11223 -6.93234 0
M  V30 6660 H 622.308 -1.64576 -2.48432 0
M  V30 6661 H 619.845 -0.822174 -1.21978 0
M  V30 6662 H 621.803 0.17482 -4.16834 0
M  V30 6663 H 620.433 0.694725 -3.15235 0
M  V30 6664 H 619.485 -1.71288 -3.39653 0
M  V30 6665 H 620.797 -2.04795 -4.54819 0
M  V30 6666 H 619.951 -0.243128 -6.06213 0
M  V30 6667 H 618.69 0.189742 -4.87331 0
M  V30 6668 H 617.695 -2.10595 -5.07868 0
M  V30 6669 H 618.92 -2.53206 -6.3013 0
M  V30 6670 H 616.866 -0.302208 -6.55304 0
M  V30 6671 H 616.783 -1.84901 -7.3304 0
M  V30 6672 H 618.051 -0.740068 -7.75979 0
M  V30 6673 N 622.28 1.30327 -0.886154 0
M  V30 6674 C 623.508 2.00254 -0.520176 0
M  V30 6675 C 623.923 1.66419 0.891637 0
M  V30 6676 O 623.28 0.901951 1.58654 0
M  V30 6677 C 623.331 3.54916 -0.686775 0
M  V30 6678 O 623.052 3.87547 -2.04301 0
M  V30 6679 C 624.553 4.42115 -0.323945 0
M  V30 6680 H 621.773 0.640204 -0.200947 0
M  V30 6681 H 624.317 1.66183 -1.19178 0
M  V30 6682 H 622.472 3.8735 -0.0625273 0
M  V30 6683 H 622.886 4.82247 -2.06249 0
M  V30 6684 H 624.36 5.49808 -0.491407 0
M  V30 6685 H 624.837 4.32953 0.73811 0
M  V30 6686 H 625.443 4.15129 -0.924565 0
M  V30 6687 N 623.758 0.647228 1.43697 0
M  V30 6688 C 624.706 -0.0600105 2.32523 0
M  V30 6689 C 625.7 -0.819277 1.48271 0
M  V30 6690 O 626.906 -0.730356 1.64517 0
M  V30 6691 H 623.281 -0.0381872 0.75103 0
M  V30 6692 H 625.252 0.706978 2.89904 0
M  V30 6693 C 624.001 -1.0169 3.32497 0
M  V30 6694 H 623.324 -0.442083 3.97348 0
M  V30 6695 H 624.764 -1.48095 3.97296 0
M  V30 6696 C 623.223 -2.11002 2.6264 0
M  V30 6697 O 623.753 -3.19302 2.4374 0
M  V30 6698 N 621.959 -1.87388 2.22113 0
M  V30 6699 H 621.506 -0.993174 2.37684 0
M  V30 6700 H 621.464 -2.60723 1.75701 0
M  V30 6701 N 625.236 -1.5273 0.388769 0
M  V30 6702 C 626.146 -2.30165 -0.453993 0
M  V30 6703 C 627.162 -1.37058 -1.07197 0
M  V30 6704 O 628.338 -1.70127 -1.0779 0
M  V30 6705 C 625.403 -3.09303 -1.56628 0
M  V30 6706 C 624.464 -4.18117 -0.973467 0
M  V30 6707 C 623.697 -4.93472 -2.03275 0
M  V30 6708 O 623.92 -4.68913 -3.24772 0
M  V30 6709 O 622.854 -5.78833 -1.65034 0
M  V30 6710 H 626.68 -3.03185 0.176816 0
M  V30 6711 H 624.265 -1.4862 0.152501 0
M  V30 6712 H 626.147 -3.58648 -2.21246 0
M  V30 6713 H 624.822 -2.39098 -2.18206 0
M  V30 6714 H 623.729 -3.7297 -0.290556 0
M  V30 6715 H 625.062 -4.90556 -0.401908 0
M  V30 6716 N 626.714 -0.118576 -1.57153 0
M  V30 6717 C 627.991 0.583062 -1.86708 0
M  V30 6718 C 628.371 1.84841 -1.01967 0
M  V30 6719 O 627.719 2.28288 -0.0984673 0
M  V30 6720 C 627.929 0.875912 -3.3783 0
M  V30 6721 C 629.277 1.22916 -4.0642 0
M  V30 6722 O 630.301 0.966188 -3.42846 0
M  V30 6723 O 629.16 1.72269 -5.18638 0
M  V30 6724 H 626.254 0.294185 -0.772906 0
M  V30 6725 H 628.8 -0.153048 -1.69008 0
M  V30 6726 H 627.572 -0.0207776 -3.91294 0
M  V30 6727 H 627.195 1.66719 -3.60958 0
M  V30 6728 N 628.193 1.56834 0.155195 0
M  V30 6729 C 629.126 1.9278 1.22111 0
M  V30 6730 C 630.104 0.792588 1.41975 0
M  V30 6731 O 631.288 1.04743 1.5672 0
M  V30 6732 C 628.415 2.19273 2.58142 0
M  V30 6733 C 627.461 3.41932 2.54921 0
M  V30 6734 S 628.294 4.95769 2.02418 0
M  V30 6735 C 629.45 5.25375 3.40194 0
M  V30 6736 H 629.683 2.82889 0.914393 0
M  V30 6737 H 627.216 1.50133 0.360461 0
M  V30 6738 H 629.174 2.35217 3.36427 0
M  V30 6739 H 627.835 1.29843 2.86007 0
M  V30 6740 H 627.028 3.57721 3.55038 0
M  V30 6741 H 626.63 3.25188 1.8474 0
M  V30 6742 H 628.922 5.1834 4.36268 0
M  V30 6743 H 629.865 6.26889 3.29266 0
M  V30 6744 H 630.273 4.52906 3.36951 0
M  V30 6745 N 629.671 -0.424282 1.51781 0
M  V30 6746 C 630.896 -1.19928 1.6921 0
M  V30 6747 C 631.321 -1.8392 0.394355 0
M  V30 6748 O 630.679 -1.69371 -0.646778 0
M  V30 6749 C 630.727 -2.24937 2.81843 0
M  V30 6750 O 629.831 -3.3073 2.46356 0
M  V30 6751 H 629.172 -0.35078 0.563781 0
M  V30 6752 H 631.702 -0.499401 1.98412 0
M  V30 6753 H 631.712 -2.69512 3.06312 0
M  V30 6754 H 630.387 -1.77742 3.76006 0
M  V30 6755 H 628.964 -2.9154 2.32505 0
M  V30 6756 N 631.149 -1.42148 -0.680565 0
M  V30 6757 C 632.079 -1.4796 -1.80638 0
M  V30 6758 C 633.06 -0.336728 -1.66734 0
M  V30 6759 O 634.245 -0.550247 -1.86242 0
M  V30 6760 C 631.375 -1.37569 -3.18892 0
M  V30 6761 C 630.329 -2.49823 -3.47524 0
M  V30 6762 C 629.655 -2.24491 -4.85291 0
M  V30 6763 C 630.955 -3.92144 -3.44994 0
M  V30 6764 H 632.649 -2.42184 -1.76032 0
M  V30 6765 H 630.195 -1.16566 -0.845481 0
M  V30 6766 H 632.148 -1.40243 -3.97379 0
M  V30 6767 H 630.872 -0.398357 -3.24162 0
M  V30 6768 H 629.531 -2.46455 -2.71395 0
M  V30 6769 H 629.179 -1.25066 -4.87204 0
M  V30 6770 H 628.879 -2.99722 -5.05411 0
M  V30 6771 H 630.403 -2.28906 -5.66069 0
M  V30 6772 H 631.817 -3.97145 -4.13459 0
M  V30 6773 H 630.214 -4.67179 -3.76648 0
M  V30 6774 H 631.284 -4.19225 -2.43676 0
M  V30 6775 N 632.627 0.916307 -1.28225 0
M  V30 6776 C 633.852 1.7043 -1.18188 0
M  V30 6777 C 634.277 1.86346 0.256274 0
M  V30 6778 O 633.635 1.37175 1.18544 0
M  V30 6779 C 633.683 3.07546 -1.88275 0
M  V30 6780 O 632.787 3.94904 -1.18848 0
M  V30 6781 H 632.128 0.521967 -0.410423 0
M  V30 6782 H 634.658 1.14589 -1.69501 0
M  V30 6783 H 634.668 3.57793 -1.96082 0
M  V30 6784 H 633.343 2.95279 -2.92887 0
M  V30 6785 H 631.92 3.53339 -1.19187 0
M  V30 6786 N 634.105 1.10431 1.1244 0
M  V30 6787 C 635.035 0.775143 2.20258 0
M  V30 6788 C 636.016 -0.25186 1.68225 0
M  V30 6789 O 637.201 -0.117637 1.93843 0
M  V30 6790 C 634.331 0.206133 3.46688 0
M  V30 6791 C 633.285 1.16382 4.11873 0
M  V30 6792 C 632.611 0.456014 5.32752 0
M  V30 6793 C 633.911 2.5104 4.58013 0
M  V30 6794 H 635.605 1.67665 2.4805 0
M  V30 6795 H 633.151 0.807595 1.19222 0
M  V30 6796 H 635.104 -0.036291 4.21384 0
M  V30 6797 H 633.828 -0.730614 3.18323 0
M  V30 6798 H 632.487 1.39169 3.39157 0
M  V30 6799 H 632.135 -0.485203 5.00654 0
M  V30 6800 H 631.835 1.09466 5.77314 0
M  V30 6801 H 633.359 0.222135 6.10196 0
M  V30 6802 H 634.773 2.32401 5.24083 0
M  V30 6803 H 633.17 3.10789 5.13352 0
M  V30 6804 H 634.24 3.11039 3.71998 0
M  V30 6805 N 635.583 -1.29855 0.893053 0
M  V30 6806 C 636.831 -1.9544 0.514566 0
M  V30 6807 C 637.152 -1.70795 -0.940959 0
M  V30 6808 O 636.422 -1.03601 -1.66264 0
M  V30 6809 H 635.002 -0.723137 0.187302 0
M  V30 6810 H 637.664 -1.58234 1.13789 0
M  V30 6811 H 636.76 -3.04341 0.691581 0
M  V30 6812 N 637.061 -0.65484 -1.43351 0
M  V30 6813 C 637.971 0.0363603 -2.34572 0
M  V30 6814 C 638.987 0.810432 -1.53974 0
M  V30 6815 O 640.163 0.757308 -1.86619 0
M  V30 6816 C 637.228 0.989733 -3.32273 0
M  V30 6817 C 636.289 0.212414 -4.28774 0
M  V30 6818 C 635.522 1.12038 -5.21808 0
M  V30 6819 O 635.745 2.35967 -5.19303 0
M  V30 6820 O 634.679 0.59191 -5.98982 0
M  V30 6821 H 638.505 -0.714527 -2.95175 0
M  V30 6822 H 636.09 -0.415029 -1.4352 0
M  V30 6823 H 637.972 1.53759 -3.92347 0
M  V30 6824 H 636.647 1.72082 -2.74171 0
M  V30 6825 H 635.554 -0.379062 -3.72175 0
M  V30 6826 H 636.887 -0.479138 -4.89862 0
M  V30 6827 N 638.539 1.52521 -0.396863 0
M  V30 6828 C 639.489 2.2348 0.451722 0
M  V30 6829 C 640.473 1.2415 1.0235 0
M  V30 6830 O 641.665 1.4945 0.948348 0
M  V30 6831 C 638.794 3.05067 1.57445 0
M  V30 6832 C 637.88 4.11799 1.01404 0
M  V30 6833 N 638.271 5.05482 0.179234 0
M  V30 6834 C 636.569 4.27064 1.28578 0
M  V30 6835 C 637.27 5.81552 -0.131202 0
M  V30 6836 N 636.246 5.41523 0.474735 0
M  V30 6837 H 640.048 2.93269 -0.192534 0
M  V30 6838 H 637.562 1.61081 -0.206591 0
M  V30 6839 H 639.559 3.54446 2.19485 0
M  V30 6840 H 638.219 2.36816 2.22145 0
M  V30 6841 H 639.23 5.17573 -0.18411 0
M  V30 6842 H 635.907 3.70042 1.93327 0
M  V30 6843 H 637.297 6.67023 -0.808061 0
M  V30 6844 N 640.017 0.126909 1.57088 0
M  V30 6845 C 640.927 -0.833867 2.1928 0
M  V30 6846 C 641.943 -1.2868 1.17122 0
M  V30 6847 O 643.119 -1.34815 1.49622 0
M  V30 6848 C 640.184 -2.0632 2.78627 0
M  V30 6849 C 639.245 -1.66143 3.95847 0
M  V30 6850 C 638.478 -2.83217 4.52354 0
M  V30 6851 O 638.701 -3.98868 4.0775 0
M  V30 6852 O 637.635 -2.59846 5.42922 0
M  V30 6853 H 641.461 -0.334564 3.01852 0
M  V30 6854 H 639.046 -0.0991091 1.49071 0
M  V30 6855 H 640.928 -2.78304 3.16425 0
M  V30 6856 H 639.603 -2.55242 1.99082 0
M  V30 6857 H 638.51 -0.912435 3.62802 0
M  V30 6858 H 639.843 -1.21957 4.76852 0
M  V30 6859 N 641.495 -1.56914 -0.146875 0
M  V30 6860 C 642.741 -1.83628 -0.860741 0
M  V30 6861 C 643.074 -0.708528 -1.80813 0
M  V30 6862 O 642.349 0.287838 -1.92358 0
M  V30 6863 C 642.632 -3.20836 -1.63511 0
M  V30 6864 C 642.485 -4.44174 -0.709199 0
M  V30 6865 C 643.804 -3.55268 -2.59756 0
M  V30 6866 H 640.923 -0.667949 -0.311468 0
M  V30 6867 H 643.565 -1.89582 -0.125936 0
M  V30 6868 H 641.715 -3.15891 -2.26153 0
M  V30 6869 H 643.387 -4.61205 -0.0937781 0
M  V30 6870 H 641.63 -4.33796 -0.0187856 0
M  V30 6871 H 642.301 -5.36785 -1.28707 0
M  V30 6872 H 644.777 -3.60824 -2.07232 0
M  V30 6873 H 643.653 -4.52303 -3.10987 0
M  V30 6874 H 643.914 -2.81231 -3.41118 0
M  V30 6875 N 642.974 0.416227 -1.52004 0
M  V30 6876 C 643.884 1.53147 -1.77717 0
M  V30 6877 C 644.9 1.609 -0.662368 0
M  V30 6878 O 646.076 1.77747 -0.946991 0
M  V30 6879 C 643.141 2.88948 -1.91598 0
M  V30 6880 C 642.202 2.9114 -3.15493 0
M  V30 6881 C 641.435 4.20464 -3.28703 0
M  V30 6882 O 641.658 5.13981 -2.47345 0
M  V30 6883 O 640.592 4.29368 -4.21813 0
M  V30 6884 H 644.418 1.34357 -2.72363 0
M  V30 6885 H 642.003 0.601373 -1.36762 0
M  V30 6886 H 643.885 3.69505 -2.02593 0
M  V30 6887 H 642.56 3.07821 -1.00141 0
M  V30 6888 H 641.467 2.09461 -3.09962 0
M  V30 6889 H 642.8 2.77216 -4.06709 0
M  V30 6890 N 644.452 1.42507 0.673017 0
M  V30 6891 C 645.868 1.25472 0.986355 0
M  V30 6892 C 646.068 0.160181 2.00862 0
M  V30 6893 O 645.124 -0.467993 2.48125 0
M  V30 6894 C 646.437 2.61219 1.48947 0
M  V30 6895 C 647.985 2.68589 1.60715 0
M  V30 6896 C 648.46 4.04707 2.14422 0
M  V30 6897 N 649.951 4.0667 2.21752 0
M  V30 6898 C 650.686 5.0881 2.64386 0
M  V30 6899 N 650.182 6.21332 3.0646 0
M  V30 6900 N 651.975 4.96166 2.64151 0
M  V30 6901 H 644.126 2.124 -0.00378532 0
M  V30 6902 H 646.389 0.946046 0.0608367 0
M  V30 6903 H 646.095 3.42179 0.812812 0
M  V30 6904 H 645.969 2.85261 2.46791 0
M  V30 6905 H 648.356 1.87974 2.27486 0
M  V30 6906 H 648.437 2.48333 0.613552 0
M  V30 6907 H 648.081 4.8578 1.48258 0
M  V30 6908 H 648.011 4.22315 3.14575 0
M  V30 6909 H 650.502 3.25438 1.92089 0
M  V30 6910 H 650.815 6.95118 3.37684 0
M  V30 6911 H 649.16 6.24835 3.04313 0
M  V30 6912 H 652.351 4.07334 2.30644 0
M  V30 6913 H 652.524 5.759 2.97057 0
M  V30 6914 N 645.93 -0.909495 1.28709 0
M  V30 6915 C 647.207 -1.63865 1.06806 0
M  V30 6916 C 647.587 -2.07445 -0.391143 0
M  V30 6917 O 646.935 -1.82269 -1.37805 0
M  V30 6918 C 647.145 -2.82692 2.04661 0
M  V30 6919 C 648.493 -3.5361 2.35042 0
M  V30 6920 O 649.517 -2.92847 2.02779 0
M  V30 6921 O 648.376 -4.63131 2.90124 0
M  V30 6922 H 645.47 -0.719065 0.408502 0
M  V30 6923 H 648.016 -0.958424 1.40044 0
M  V30 6924 H 646.788 -2.47614 3.0299 0
M  V30 6925 H 646.411 -3.58426 1.72095 0
M  V30 6926 N 647.408 -1.11026 -1.11852 0
M  V30 6927 C 648.824 -0.843294 -1.35502 0
M  V30 6928 C 649.024 0.534179 -1.9429 0
M  V30 6929 O 648.08 1.28585 -2.17307 0
M  V30 6930 C 649.393 -1.94793 -2.29077 0
M  V30 6931 C 650.941 -1.97709 -2.42652 0
M  V30 6932 C 651.416 -3.07364 -3.39546 0
M  V30 6933 N 652.907 -3.0671 -3.47107 0
M  V30 6934 C 653.642 -3.88197 -4.22008 0
M  V30 6935 N 653.138 -4.79635 -4.99922 0
M  V30 6936 N 654.931 -3.76391 -4.17476 0
M  V30 6937 H 647.082 -1.99805 -0.720538 0
M  V30 6938 H 649.345 -0.868633 -0.379711 0
M  V30 6939 H 649.051 -2.93971 -1.93065 0
M  V30 6940 H 648.925 -1.84039 -3.29256 0
M  V30 6941 H 651.312 -0.991604 -2.77941 0
M  V30 6942 H 651.393 -2.1254 -1.4234 0
M  V30 6943 H 651.037 -4.06136 -3.04985 0
M  V30 6944 H 650.967 -2.89774 -4.39703 0
M  V30 6945 H 653.458 -2.40457 -2.91528 0
M  V30 6946 H 653.771 -5.38357 -5.54429 0
M  V30 6947 H 652.116 -4.8366 -4.99097 0
M  V30 6948 H 655.307 -3.04303 -3.55693 0
M  V30 6949 H 655.48 -4.40131 -4.75593 0
M  V30 6950 N 648.886 1.2938 -0.899927 0
M  V30 6951 C 650.116 1.99402 -0.540601 0
M  V30 6952 C 650.524 1.67534 0.87914 0
M  V30 6953 O 649.867 0.916821 1.59186 0
M  V30 6954 C 649.929 3.53514 -0.653326 0
M  V30 6955 C 649.593 4.08937 -2.04009 0
M  V30 6956 C 650.59 4.23815 -3.01126 0
M  V30 6957 C 648.275 4.43962 -2.34953 0
M  V30 6958 C 650.269 4.72951 -4.27313 0
M  V30 6959 C 647.956 4.92795 -3.61382 0
M  V30 6960 C 648.954 5.07244 -4.57376 0
M  V30 6961 O 648.642 5.55017 -5.8156 0
M  V30 6962 H 648.374 0.64383 -0.206057 0
M  V30 6963 H 650.928 1.65878 -1.21134 0
M  V30 6964 H 649.158 3.86628 0.0744449 0
M  V30 6965 H 650.847 4.04767 -0.303118 0
M  V30 6966 H 651.613 3.97043 -2.78535 0
M  V30 6967 H 647.492 4.31974 -1.60994 0
M  V30 6968 H 651.036 4.84144 -5.02245 0
M  V30 6969 H 646.933 5.19004 -3.83804 0
M  V30 6970 H 647.701 5.73331 -5.84153 0
M  V30 6971 N 650.364 0.662433 1.43002 0
M  V30 6972 C 651.589 0.186003 2.06564 0
M  V30 6973 C 652.014 -1.14314 1.49379 0
M  V30 6974 O 651.372 -1.70824 0.607346 0
M  V30 6975 C 651.42 0.118269 3.60406 0
M  V30 6976 O 650.524 -0.916859 4.02079 0
M  V30 6977 H 649.865 0.0990981 0.656563 0
M  V30 6978 H 652.395 0.907958 1.8335 0
M  V30 6979 H 652.405 -0.0619981 4.07953 0
M  V30 6980 H 651.08 1.08849 4.01403 0
M  V30 6981 H 649.657 -0.708635 3.66105 0
M  V30 6982 N 651.842 -1.52309 0.404946 0
M  V30 6983 C 652.789 -2.26898 -0.422597 0
M  V30 6984 C 653.759 -1.2914 -1.04461 0
M  V30 6985 O 654.944 -1.57996 -1.06967 0
M  V30 6986 C 652.084 -3.09053 -1.53559 0
M  V30 6987 C 651.197 -4.21762 -0.934908 0
M  V30 6988 C 650.332 -4.91283 -2.02025 0
M  V30 6989 C 649.371 -5.95962 -1.39628 0
M  V30 6990 N 648.508 -6.59017 -2.42159 0
M  V30 6991 H 653.348 -2.97188 0.219903 0
M  V30 6992 H 650.885 -1.46607 0.120282 0
M  V30 6993 H 652.843 -3.54987 -2.19181 0
M  V30 6994 H 651.473 -2.40942 -2.14818 0
M  V30 6995 H 650.525 -3.80029 -0.167854 0
M  V30 6996 H 651.837 -4.96864 -0.439073 0
M  V30 6997 H 650.991 -5.40601 -2.75383 0
M  V30 6998 H 649.73 -4.15741 -2.54973 0
M  V30 6999 H 648.735 -5.45968 -0.648023 0
M  V30 7000 H 649.96 -6.73445 -0.874553 0
M  V30 7001 H 647.906 -5.86306 -2.94247 0
M  V30 7002 H 647.823 -7.2978 -1.97376 0
M  V30 7003 H 649.091 -7.12974 -3.15099 0
M  V30 7004 N 653.32 -0.135238 -1.57019 0
M  V30 7005 C 654.268 0.826099 -2.17436 0
M  V30 7006 C 655.262 1.26378 -1.12805 0
M  V30 7007 O 656.468 1.23363 -1.31079 0
M  V30 7008 H 652.843 0.284568 -0.696078 0
M  V30 7009 H 654.814 0.292212 -2.96966 0
M  V30 7010 C 653.563 2.05991 -2.80112 0
M  V30 7011 H 652.886 1.73209 -3.60331 0
M  V30 7012 H 654.326 2.71225 -3.25903 0
M  V30 7013 C 652.785 2.86027 -1.78017 0
M  V30 7014 O 653.315 3.81971 -1.24344 0
M  V30 7015 N 651.521 2.50332 -1.47588 0
M  V30 7016 H 651.068 1.72377 -1.91426 0
M  V30 7017 H 651.026 3.04177 -0.795228 0
M  V30 7018 N 654.798 1.5699 0.138552 0
M  V30 7019 C 656.026 1.87976 0.864437 0
M  V30 7020 C 656.441 0.724372 1.74351 0
M  V30 7021 O 655.798 -0.305575 1.79924 0
M  V30 7022 C 655.849 3.18276 1.71414 0
M  V30 7023 O 655.57 4.29365 0.870487 0
M  V30 7024 C 657.071 3.62834 2.54688 0
M  V30 7025 H 654.291 0.622878 0.249528 0
M  V30 7026 H 656.835 2.04094 0.128805 0
M  V30 7027 H 654.99 3.03886 2.40274 0
M  V30 7028 H 655.404 5.03924 1.45466 0
M  V30 7029 H 656.878 4.5682 3.0987 0
M  V30 7030 H 657.355 2.88533 3.31127 0
M  V30 7031 H 657.961 3.79946 1.91105 0
M  V30 7032 N 656.276 -0.40816 1.52223 0
M  V30 7033 C 657.524 -1.15274 1.66001 0
M  V30 7034 C 657.845 -1.91003 0.392803 0
M  V30 7035 O 657.115 -1.8673 -0.592336 0
M  V30 7036 H 655.695 -0.428526 0.611861 0
M  V30 7037 H 658.357 -0.46512 1.89269 0
M  V30 7038 H 657.453 -1.86628 2.50153 0
M  V30 7039 N 657.755 -1.42862 -0.66545 0
M  V30 7040 C 658.702 -1.4707 -1.77874 0
M  V30 7041 C 659.672 -0.321654 -1.62956 0
M  V30 7042 O 660.857 -0.52707 -1.83376 0
M  V30 7043 C 657.997 -1.38788 -3.15962 0
M  V30 7044 C 657.11 -2.63801 -3.42101 0
M  V30 7045 C 656.245 -2.47594 -4.69969 0
M  V30 7046 C 655.284 -3.67936 -4.89172 0
M  V30 7047 N 654.421 -3.50614 -6.08288 0
M  V30 7048 H 659.261 -2.42204 -1.73613 0
M  V30 7049 H 656.798 -1.20239 -0.847401 0
M  V30 7050 H 658.756 -1.31982 -3.95773 0
M  V30 7051 H 657.386 -0.472431 -3.19324 0
M  V30 7052 H 656.438 -2.80935 -2.56475 0
M  V30 7053 H 657.75 -3.53228 -3.52181 0
M  V30 7054 H 656.904 -2.38427 -5.57886 0
M  V30 7055 H 655.643 -1.55672 -4.62188 0
M  V30 7056 H 654.648 -3.77525 -3.99694 0
M  V30 7057 H 655.873 -4.60851 -4.98792 0
M  V30 7058 H 653.819 -2.61417 -6.01662 0
M  V30 7059 H 653.736 -4.33634 -6.19272 0
M  V30 7060 H 655.004 -3.45276 -6.98859 0
M  V30 7061 N 659.233 0.902656 -1.29189 0
M  V30 7062 C 660.183 1.99326 -1.10695 0
M  V30 7063 C 661.167 1.60877 -0.0272521 0
M  V30 7064 O 662.359 1.75245 -0.248635 0
M  V30 7065 C 659.488 3.34265 -0.78244 0
M  V30 7066 C 658.574 3.79081 -1.90153 0
M  V30 7067 N 658.965 3.96162 -3.14466 0
M  V30 7068 C 657.263 4.08333 -1.79389 0
M  V30 7069 C 657.964 4.3388 -3.87458 0
M  V30 7070 N 656.94 4.42759 -3.15381 0
M  V30 7071 H 660.742 2.10597 -2.05003 0
M  V30 7072 H 658.256 1.09127 -1.20271 0
M  V30 7073 H 660.253 4.12097 -0.630996 0
M  V30 7074 H 658.913 3.2434 0.152754 0
M  V30 7075 H 659.924 3.81775 -3.49954 0
M  V30 7076 H 656.601 4.06982 -0.931217 0
M  V30 7077 H 657.991 4.54965 -4.94425 0
M  V30 7078 N 660.711 1.11618 1.11262 0
M  V30 7079 C 661.661 0.745274 2.15475 0
M  V30 7080 C 662.645 -0.251585 1.58921 0
M  V30 7081 O 663.837 -0.0584093 1.76904 0
M  V30 7082 C 660.966 0.192128 3.42762 0
M  V30 7083 C 660.052 1.21676 4.0627 0
M  V30 7084 N 660.443 2.41158 4.44608 0
M  V30 7085 C 658.741 1.06013 4.33217 0
M  V30 7086 C 659.442 3.0652 4.94389 0
M  V30 7087 N 658.418 2.33994 4.9066 0
M  V30 7088 H 662.22 1.65462 2.42898 0
M  V30 7089 H 659.734 0.995695 1.28295 0
M  V30 7090 H 661.731 -0.0917339 4.16799 0
M  V30 7091 H 660.391 -0.711778 3.16802 0
M  V30 7092 H 661.402 2.786 4.3658 0
M  V30 7093 H 658.079 0.212809 4.16957 0
M  V30 7094 H 659.469 4.08225 5.33669 0
M  V30 7095 N 662.189 -1.289 0.906776 0
M  V30 7096 C 663.414 -1.99939 0.551303 0
M  V30 7097 C 663.839 -1.67366 -0.858496 0
M  V30 7098 O 663.197 -0.902176 -1.57259 0
M  V30 7099 C 663.245 -3.52523 0.758937 0
M  V30 7100 O 662.349 -4.11983 -0.185308 0
M  V30 7101 H 661.69 -0.628376 0.214568 0
M  V30 7102 H 664.22 -1.64225 1.2203 0
M  V30 7103 H 664.23 -4.02522 0.666329 0
M  V30 7104 H 662.905 -3.75566 1.78671 0
M  V30 7105 H 661.482 -3.72873 -0.0445577 0
M  V30 7106 N 663.667 -0.670007 -1.42649 0
M  V30 7107 C 664.895 -0.19854 -2.05945 0
M  V30 7108 C 665.31 1.14243 -1.50313 0
M  V30 7109 O 664.667 1.70872 -0.641027 0
M  V30 7110 C 664.718 -0.11966 -3.61302 0
M  V30 7111 O 664.439 -1.40764 -4.1487 0
M  V30 7112 C 665.94 0.375878 -4.41704 0
M  V30 7113 H 663.16 -0.0976894 -0.663851 0
M  V30 7114 H 665.704 -0.915392 -1.82868 0
M  V30 7115 H 663.859 0.547851 -3.83507 0
M  V30 7116 H 664.273 -1.27784 -5.08696 0
M  V30 7117 H 665.747 0.379988 -5.50691 0
M  V30 7118 H 666.224 1.41028 -4.15942 0
M  V30 7119 H 666.83 -0.259727 -4.24506 0
M  V30 7120 N 665.145 1.52092 -0.413018 0
M  V30 7121 C 666.393 2.01456 0.161178 0
M  V30 7122 C 666.714 1.30034 1.45314 0
M  V30 7123 O 665.984 0.427435 1.9118 0
M  V30 7124 H 664.564 0.744376 0.0625526 0
M  V30 7125 H 667.226 1.86974 -0.550151 0
M  V30 7126 H 666.322 3.1008 0.354517 0
M  V30 7127 N 666.623 0.143563 1.56945 0
M  V30 7128 C 668.039 -0.212877 1.58174 0
M  V30 7129 C 668.239 -1.64926 1.15766 0
M  V30 7130 O 667.295 -2.37535 0.856361 0
M  V30 7131 C 668.608 0.0427573 3.0067 0
M  V30 7132 C 670.156 -0.0212221 3.12993 0
M  V30 7133 C 670.631 0.207036 4.57532 0
M  V30 7134 N 672.122 0.153845 4.62944 0
M  V30 7135 C 672.857 0.305018 5.72588 0
M  V30 7136 N 672.353 0.513722 6.90893 0
M  V30 7137 N 674.146 0.242862 5.61575 0
M  V30 7138 H 666.297 1.08148 1.82805 0
M  V30 7139 H 668.56 0.427831 0.84597 0
M  V30 7140 H 668.266 1.03672 3.36073 0
M  V30 7141 H 668.14 -0.678195 3.71053 0
M  V30 7142 H 670.527 -1.00574 2.77433 0
M  V30 7143 H 670.608 0.732004 2.45103 0
M  V30 7144 H 670.252 1.18863 4.93795 0
M  V30 7145 H 670.182 -0.566473 5.23544 0
M  V30 7146 H 672.673 -0.00294866 3.779 0
M  V30 7147 H 672.986 0.619273 7.70315 0
M  V30 7148 H 671.331 0.550001 6.9282 0
M  V30 7149 H 674.522 0.0806015 4.68031 0
M  V30 7150 H 674.695 0.364112 6.46976 0
M  V30 7151 N 668.101 -1.57061 -0.130224 0
M  V30 7152 C 669.064 -1.98593 -1.14426 0
M  V30 7153 C 670.064 -0.874584 -1.34936 0
M  V30 7154 O 671.254 -1.14086 -1.31643 0
M  V30 7155 C 668.386 -2.31639 -2.50112 0
M  V30 7156 H 669.579 -2.89374 -0.787561 0
M  V30 7157 H 667.132 -1.51756 -0.374146 0
M  V30 7158 H 667.867 -1.43703 -2.90723 0
M  V30 7159 H 667.652 -3.12684 -2.36583 0
M  V30 7160 H 669.142 -2.64551 -3.23114 0
M  V30 7161 N 669.579 0.400081 -1.52437 0
M  V30 7162 C 670.509 1.4947 -1.7939 0
M  V30 7163 C 671.49 1.57383 -0.645329 0
M  V30 7164 O 672.675 1.72511 -0.891826 0
M  V30 7165 C 669.805 2.87201 -1.95276 0
M  V30 7166 C 668.759 2.94134 -3.10917 0
M  V30 7167 C 668.085 4.34207 -3.1204 0
M  V30 7168 C 669.385 2.64791 -4.50203 0
M  V30 7169 H 671.079 1.27165 -2.71052 0
M  V30 7170 H 668.625 0.610312 -1.30427 0
M  V30 7171 H 670.578 3.63772 -2.12715 0
M  V30 7172 H 669.302 3.10819 -1.00294 0
M  V30 7173 H 667.961 2.20009 -2.93243 0
M  V30 7174 H 667.609 4.54848 -2.14761 0
M  V30 7175 H 667.309 4.39768 -3.89715 0
M  V30 7176 H 668.833 5.127 -3.31619 0
M  V30 7177 H 670.247 3.31083 -4.68035 0
M  V30 7178 H 668.644 2.81717 -5.29864 0
M  V30 7179 H 669.714 1.60184 -4.57678 0
M  V30 7180 N 671.057 1.43213 0.657864 0
M  V30 7181 C 671.967 1.50448 1.80007 0
M  V30 7182 C 672.983 0.39191 1.69529 0
M  V30 7183 O 674.159 0.645349 1.90781 0
M  V30 7184 C 671.224 1.42062 3.16258 0
M  V30 7185 C 670.285 2.63951 3.38568 0
M  V30 7186 C 669.518 2.55956 4.68318 0
M  V30 7187 O 669.741 1.60473 5.47361 0
M  V30 7188 O 668.675 3.46378 4.92245 0
M  V30 7189 H 672.501 2.4689 1.76858 0
M  V30 7190 H 670.086 1.25163 0.81576 0
M  V30 7191 H 671.968 1.3981 3.97531 0
M  V30 7192 H 670.643 0.487524 3.20008 0
M  V30 7193 H 669.55 2.71776 2.57077 0
M  V30 7194 H 670.883 3.56217 3.39662 0
M  V30 7195 N 672.536 -0.895792 1.29666 0
M  V30 7196 C 673.952 -1.17726 1.07763 0
M  V30 7197 C 674.152 -2.00794 -0.168576 0
M  V30 7198 O 673.208 -2.37213 -0.865244 0
M  V30 7199 C 674.521 -1.89441 2.33522 0
M  V30 7200 C 676.069 -2.02251 2.3888 0
M  V30 7201 C 676.544 -2.77378 3.64452 0
M  V30 7202 N 678.035 -2.8493 3.65198 0
M  V30 7203 C 678.77 -3.43606 4.59045 0
M  V30 7204 N 678.266 -4.03417 5.63228 0
M  V30 7205 N 680.059 -3.41317 4.46608 0
M  V30 7206 H 672.21 -0.341652 2.09634 0
M  V30 7207 H 674.473 -0.213865 0.923561 0
M  V30 7208 H 674.179 -1.35842 3.24407 0
M  V30 7209 H 674.053 -2.89893 2.41334 0
M  V30 7210 H 676.44 -2.55025 1.4848 0
M  V30 7211 H 676.521 -1.0092 2.3505 0
M  V30 7212 H 676.165 -2.25279 4.55205 0
M  V30 7213 H 676.095 -3.79062 3.65541 0
M  V30 7214 H 678.586 -2.42453 2.89871 0
M  V30 7215 H 678.899 -4.46224 6.30955 0
M  V30 7216 H 677.244 -4.01868 5.67033 0
M  V30 7217 H 680.435 -2.93812 3.64407 0
M  V30 7218 H 680.608 -3.86751 5.1993 0
M  V30 7219 N 674.014 -1.12206 -1.10668 0
M  V30 7220 C 675.26 -0.877172 -1.82848 0
M  V30 7221 C 675.593 0.595571 -1.84842 0
M  V30 7222 O 674.868 1.44013 -1.30731 0
M  V30 7223 C 675.151 -1.44957 -3.29635 0
M  V30 7224 C 675.004 -2.99051 -3.35989 0
M  V30 7225 C 676.323 -1.10714 -4.25946 0
M  V30 7226 H 673.442 -0.320103 -0.663854 0
M  V30 7227 H 676.084 -1.38827 -1.2972 0
M  V30 7228 H 674.234 -1.01488 -3.7501 0
M  V30 7229 H 675.906 -3.51182 -2.99113 0
M  V30 7230 H 674.149 -3.34705 -2.75962 0
M  V30 7231 H 674.82 -3.34194 -4.39339 0
M  V30 7232 H 677.296 -1.48254 -3.88793 0
M  V30 7233 H 676.172 -1.5343 -5.2702 0
M  V30 7234 H 676.433 -0.019 -4.42096 0
M  V30 7235 N 675.492 1.28418 -0.913599 0
M  V30 7236 C 676.908 1.47411 -0.611728 0
M  V30 7237 C 677.108 1.83018 0.843008 0
M  V30 7238 O 676.164 1.93505 1.6221 0
M  V30 7239 C 677.477 2.57703 -1.5495 0
M  V30 7240 C 679.025 2.71572 -1.5562 0
M  V30 7241 C 679.5 3.85008 -2.48058 0
M  V30 7242 N 680.991 3.92361 -2.46184 0
M  V30 7243 C 681.726 4.79516 -3.14407 0
M  V30 7244 N 681.222 5.71262 -3.91958 0
M  V30 7245 N 683.015 4.73125 -3.03495 0
M  V30 7246 H 675.166 1.03585 -1.85429 0
M  V30 7247 H 677.429 0.515907 -0.795326 0
M  V30 7248 H 677.135 2.38298 -2.58663 0
M  V30 7249 H 677.009 3.54801 -1.28048 0
M  V30 7250 H 679.396 2.90366 -0.526441 0
M  V30 7251 H 679.477 1.75006 -1.86565 0
M  V30 7252 H 679.121 3.66969 -3.51136 0
M  V30 7253 H 679.051 4.80971 -2.14416 0
M  V30 7254 H 681.542 3.26749 -1.89851 0
M  V30 7255 H 681.855 6.34593 -4.41034 0
M  V30 7256 H 680.2 5.71103 -3.96063 0
M  V30 7257 H 683.391 4.00442 -2.42413 0
M  V30 7258 H 683.564 5.40834 -3.56935 0
M  V30 7259 N 676.97 0.677563 1.42291 0
M  V30 7260 C 677.88 0.000962654 2.346 0
M  V30 7261 C 678.896 -0.785833 1.55244 0
M  V30 7262 O 680.072 -0.727523 1.87801 0
M  V30 7263 C 677.137 -0.936746 3.33805 0
M  V30 7264 C 676.198 -0.144173 4.29058 0
M  V30 7265 C 675.431 -1.03722 5.23524 0
M  V30 7266 O 675.654 -2.27675 5.22992 0
M  V30 7267 O 674.588 -0.496542 5.99848 0
M  V30 7268 H 678.414 0.761397 2.94001 0
M  V30 7269 H 675.999 0.43781 1.42841 0
M  V30 7270 H 677.881 -1.47497 3.94744 0
M  V30 7271 H 676.556 -1.67698 2.76874 0
M  V30 7272 H 675.463 0.438224 3.71524 0
M  V30 7273 H 676.796 0.55701 4.89038 0
M  V30 7274 N 678.448 -1.51871 0.421078 0
M  V30 7275 C 679.864 -1.59435 0.0725398 0
M  V30 7276 C 680.064 -1.43315 -1.41644 0
M  V30 7277 O 679.12 -1.26614 -2.18461 0
M  V30 7278 C 680.433 -2.9509 0.578132 0
M  V30 7279 C 681.981 -3.08356 0.537149 0
M  V30 7280 C 682.456 -4.4651 1.01945 0
M  V30 7281 N 683.947 -4.52784 0.976758 0
M  V30 7282 C 684.682 -5.57976 1.32099 0
M  V30 7283 N 684.178 -6.70664 1.73727 0
M  V30 7284 N 685.971 -5.48248 1.2402 0
M  V30 7285 H 678.122 -1.60595 1.39007 0
M  V30 7286 H 680.385 -0.756138 0.571803 0
M  V30 7287 H 680.091 -3.12205 1.61929 0
M  V30 7288 H 679.965 -3.772 -0.00578374 0
M  V30 7289 H 682.352 -2.90919 -0.494991 0
M  V30 7290 H 682.433 -2.28125 1.15727 0
M  V30 7291 H 682.077 -4.64692 2.04997 0
M  V30 7292 H 682.007 -5.25256 0.376023 0
M  V30 7293 H 684.498 -3.71898 0.670851 0
M  V30 7294 H 684.811 -7.46932 1.98274 0
M  V30 7295 H 683.156 -6.71914 1.77641 0
M  V30 7296 H 686.347 -4.59095 0.913756 0
M  V30 7297 H 686.52 -6.30119 1.51176 0
M  V30 7298 N 679.926 -0.151884 -1.56866 0
M  V30 7299 C 681.172 0.498742 -1.96572 0
M  V30 7300 C 681.505 1.64194 -1.03702 0
M  V30 7301 O 680.78 1.94334 -0.0803432 0
M  V30 7302 C 681.063 1.00027 -3.45929 0
M  V30 7303 C 680.916 -0.141767 -4.49577 0
M  V30 7304 C 682.235 1.88044 -3.97904 0
M  V30 7305 H 679.354 0.17982 -0.714726 0
M  V30 7306 H 681.996 -0.234097 -1.88552 0
M  V30 7307 H 680.146 1.62476 -3.52894 0
M  V30 7308 H 681.818 -0.778269 -4.54687 0
M  V30 7309 H 680.061 -0.80019 -4.26356 0
M  V30 7310 H 680.732 0.250947 -5.51429 0
M  V30 7311 H 683.208 1.35416 -3.93449 0
M  V30 7312 H 682.084 2.20043 -5.02864 0
M  V30 7313 H 682.345 2.81916 -3.40552 0
M  V30 7314 N 681.404 1.57128 0.121893 0
M  V30 7315 C 682.65 1.84974 0.831418 0
M  V30 7316 C 682.983 0.737204 1.79663 0
M  V30 7317 O 682.258 -0.257199 1.92792 0
M  V30 7318 C 682.541 3.23397 1.58386 0
M  V30 7319 C 682.394 4.45246 0.638445 0
M  V30 7320 C 683.713 3.59355 2.54071 0
M  V30 7321 H 680.832 0.67282 0.300803 0
M  V30 7322 H 683.474 1.89759 0.0957587 0
M  V30 7323 H 681.624 3.19449 2.21098 0
M  V30 7324 H 683.296 4.61295 0.0203925 0
M  V30 7325 H 681.539 4.33771 -0.05023 0
M  V30 7326 H 682.21 5.38765 1.20151 0
M  V30 7327 H 684.686 3.64075 2.01465 0
M  V30 7328 H 683.562 4.57193 3.03752 0
M  V30 7329 H 683.823 2.86622 3.36601 0
M  V30 7330 N 682.882 -0.391992 1.52647 0
M  V30 7331 C 683.815 -1.50019 1.71958 0
M  V30 7332 C 684.793 -1.5238 0.567365 0
M  V30 7333 O 685.977 -1.70831 0.796806 0
M  V30 7334 C 683.104 -2.88496 1.77447 0
M  V30 7335 C 682.15 -3.03974 2.99169 0
M  V30 7336 S 682.983 -2.75487 4.59203 0
M  V30 7337 C 684.139 -4.16163 4.67503 0
M  V30 7338 H 684.372 -1.33413 2.65685 0
M  V30 7339 H 681.905 -0.584674 1.42902 0
M  V30 7340 H 683.863 -3.68296 1.81296 0
M  V30 7341 H 682.524 -3.02431 0.848188 0
M  V30 7342 H 681.717 -4.05328 2.99542 0
M  V30 7343 H 681.319 -2.32062 2.93297 0
M  V30 7344 H 683.611 -5.10048 4.45934 0
M  V30 7345 H 684.554 -4.20806 5.69498 0
M  V30 7346 H 684.962 -4.01933 3.96371 0
M  V30 7347 N 684.36 -1.4356 -0.65026 0
M  V30 7348 C 685.771 -1.40324 -1.2315 0
M  V30 7349 C 686.122 -0.108812 -1.95898 0
M  V30 7350 O 685.247 0.79163 -2.01401 0
M  V30 7351 C 685.842 -2.54195 -2.23987 0
M  V30 7352 C 684.401 -2.54215 -2.77582 0
M  V30 7353 C 683.548 -2.31752 -1.5227 0
M  V30 7354 H 686.499 -1.52418 -0.442095 0
M  V30 7355 H 686.52 -2.25854 -3.0622 0
M  V30 7356 H 686.032 -3.48392 -1.71011 0
M  V30 7357 H 684.133 -1.63907 -3.34612 0
M  V30 7358 H 684.246 -3.52081 -3.24925 0
M  V30 7359 H 682.61 -1.80476 -1.79723 0
M  V30 7360 H 683.393 -3.28037 -1.01225 0
M  V30 7361 N 685.838 0.888903 -1.30139 0
M  V30 7362 C 686.801 1.97576 -1.16174 0
M  V30 7363 C 687.801 1.60525 -0.094086 0
M  V30 7364 O 688.991 1.70812 -0.341889 0
M  V30 7365 C 686.123 3.3188 -0.778983 0
M  V30 7366 H 687.316 2.11393 -2.12728 0
M  V30 7367 H 684.869 1.0748 -1.1348 0
M  V30 7368 H 685.604 3.23765 0.186225 0
M  V30 7369 H 685.389 3.60141 -1.55051 0
M  V30 7370 H 686.879 4.11612 -0.704631 0
M  V30 7371 N 687.317 1.12792 1.10072 0
M  V30 7372 C 688.227 0.812369 2.20086 0
M  V30 7373 C 689.243 -0.200349 1.72843 0
M  V30 7374 O 690.419 -0.0330262 2.01373 0
M  V30 7375 C 687.484 0.275685 3.45602 0
M  V30 7376 C 686.545 1.34881 4.07561 0
M  V30 7377 C 685.778 0.837639 5.27086 0
M  V30 7378 O 686.001 -0.327224 5.69461 0
M  V30 7379 O 684.935 1.60894 5.79997 0
M  V30 7380 H 688.761 1.73133 2.49517 0
M  V30 7381 H 686.346 0.904863 1.18881 0
M  V30 7382 H 688.228 -0.0185375 4.21396 0
M  V30 7383 H 686.903 -0.615783 3.17789 0
M  V30 7384 H 685.81 1.69625 3.33434 0
M  V30 7385 H 687.143 2.21418 4.39585 0
M  V30 7386 N 688.795 -1.27931 0.920396 0
M  V30 7387 C 690.044 -1.93975 0.552867 0
M  V30 7388 C 690.357 -1.73193 -0.909035 0
M  V30 7389 O 691.563 -2.33515 -1.38502 0
M  V30 7390 C 690.019 -3.47463 0.937947 0
M  V30 7391 C 689.627 -3.77013 2.42003 0
M  V30 7392 C 691.371 -4.19628 0.64132 0
M  V30 7393 C 689.278 -5.23841 2.74489 0
M  V30 7394 H 688.208 -0.726146 0.203046 0
M  V30 7395 H 690.859 -1.45339 1.12022 0
M  V30 7396 H 689.241 -3.94867 0.299317 0
M  V30 7397 H 690.415 -3.40393 3.10595 0
M  V30 7398 H 688.73 -3.18035 2.6878 0
M  V30 7399 H 691.327 -5.27729 0.860622 0
M  V30 7400 H 691.67 -4.14164 -0.421168 0
M  V30 7401 H 692.203 -3.78022 1.23872 0
M  V30 7402 H 688.942 -5.34388 3.79618 0
M  V30 7403 H 688.462 -5.61634 2.1054 0
M  V30 7404 H 690.141 -5.91647 2.61845 0
M  V30 7405 N 690.273 -0.685099 -1.4193 0
M  V30 7406 C 691.236 -0.0222632 -2.29189 0
M  V30 7407 C 692.236 0.7186 -1.4385 0
M  V30 7408 O 693.426 0.555058 -1.6512 0
M  V30 7409 C 690.558 0.979013 -3.2654 0
M  V30 7410 H 691.751 -0.790424 -2.89296 0
M  V30 7411 H 689.304 -0.448012 -1.49742 0
M  V30 7412 H 690.039 1.77531 -2.71392 0
M  V30 7413 H 689.824 0.451037 -3.89497 0
M  V30 7414 H 691.314 1.44091 -3.91954 0
M  V30 7415 N 691.751 1.51645 -0.429126 0
M  V30 7416 C 692.699 2.29119 0.400921 0
M  V30 7417 C 693.693 1.34628 1.02819 0
M  V30 7418 O 694.899 1.52004 0.964098 0
M  V30 7419 H 691.274 0.737273 0.148095 0
M  V30 7420 H 693.245 2.97144 -0.273457 0
M  V30 7421 C 691.994 3.13953 1.49429 0
M  V30 7422 H 691.317 3.86544 1.02097 0
M  V30 7423 H 692.757 3.71232 2.04849 0
M  V30 7424 C 691.216 2.28796 2.47293 0
M  V30 7425 O 691.746 1.94193 3.51642 0
M  V30 7426 N 689.952 1.92177 2.17982 0
M  V30 7427 H 689.499 2.20517 1.33154 0
M  V30 7428 H 689.457 1.35497 2.83704 0
M  V30 7429 N 693.229 0.160201 1.56784 0
M  V30 7430 C 694.159 -0.770264 2.2043 0
M  V30 7431 C 695.14 -1.24736 1.15651 0
M  V30 7432 O 696.325 -1.30253 1.44041 0
M  V30 7433 C 693.455 -2.00427 2.83631 0
M  V30 7434 C 692.409 -1.66345 3.94352 0
M  V30 7435 C 691.735 -2.97119 4.4455 0
M  V30 7436 C 693.035 -0.899972 5.14488 0
M  V30 7437 H 694.729 -0.239783 2.98438 0
M  V30 7438 H 692.275 -0.113891 1.43549 0
M  V30 7439 H 694.228 -2.66012 3.26827 0
M  V30 7440 H 692.952 -2.5587 2.02973 0
M  V30 7441 H 691.611 -1.03133 3.51794 0
M  V30 7442 H 691.259 -3.5058 3.60698 0
M  V30 7443 H 690.959 -2.75073 5.19238 0
M  V30 7444 H 692.483 -3.63753 4.90425 0
M  V30 7445 H 693.897 -1.45818 5.54446 0
M  V30 7446 H 692.294 -0.778968 5.95023 0
M  V30 7447 H 693.364 0.105827 4.84785 0
M  V30 7448 N 694.707 -1.5719 -0.113559 0
M  V30 7449 C 696.118 -1.74259 -0.670116 0
M  V30 7450 C 696.469 -0.779694 -1.80042 0
M  V30 7451 O 695.594 0.0461353 -2.16351 0
M  V30 7452 C 696.189 -3.15981 -1.22236 0
M  V30 7453 C 694.748 -3.34537 -1.72516 0
M  V30 7454 C 693.895 -2.70116 -0.627098 0
M  V30 7455 H 696.846 -1.58301 0.112396 0
M  V30 7456 H 696.867 -3.17832 -2.09197 0
M  V30 7457 H 696.379 -3.86038 -0.39949 0
M  V30 7458 H 694.48 -2.6953 -2.57263 0
M  V30 7459 H 694.593 -4.42737 -1.83086 0
M  V30 7460 H 692.957 -2.31501 -1.06204 0
M  V30 7461 H 693.74 -3.42802 0.184889 0
M  V30 7462 N 696.185 0.383891 -1.52853 0
M  V30 7463 C 697.462 1.14296 -1.58732 0
M  V30 7464 C 697.842 2.07585 -0.383611 0
M  V30 7465 O 697.19 2.1971 0.627661 0
M  V30 7466 C 697.4 1.89816 -2.92867 0
M  V30 7467 C 698.748 2.44998 -3.46787 0
M  V30 7468 O 699.772 1.99966 -2.94774 0
M  V30 7469 O 698.631 3.2727 -4.37672 0
M  V30 7470 H 695.725 0.52326 -0.640413 0
M  V30 7471 H 698.271 0.388631 -1.6519 0
M  V30 7472 H 697.043 1.21626 -3.71918 0
M  V30 7473 H 696.666 2.72199 -2.89816 0
M  V30 7474 N 697.663 1.43903 0.642637 0
M  V30 7475 C 698.593 1.52697 1.76652 0
M  V30 7476 C 699.574 0.380816 1.65782 0
M  V30 7477 O 700.759 0.599432 1.84717 0
M  V30 7478 C 697.889 1.45975 3.15133 0
M  V30 7479 C 696.843 2.58949 3.40778 0
M  V30 7480 C 696.169 2.37279 4.79169 0
M  V30 7481 C 697.469 4.01153 3.34475 0
M  V30 7482 H 699.163 2.46766 1.69549 0
M  V30 7483 H 696.709 1.18767 0.814279 0
M  V30 7484 H 698.662 1.5073 3.93521 0
M  V30 7485 H 697.386 0.484162 3.22991 0
M  V30 7486 H 696.045 2.53564 2.64765 0
M  V30 7487 H 695.693 1.37939 4.83717 0
M  V30 7488 H 695.393 3.13016 4.97287 0
M  V30 7489 H 696.917 2.43834 5.59801 0
M  V30 7490 H 698.331 4.07968 4.02784 0
M  V30 7491 H 696.728 4.77001 3.64129 0
M  V30 7492 H 697.798 4.25539 2.32475 0
M  V30 7493 N 699.141 -0.881989 1.30609 0
M  V30 7494 C 700.369 -1.66711 1.22536 0
M  V30 7495 C 700.784 -1.87614 -0.2113 0
M  V30 7496 O 700.141 -1.42576 -1.13923 0
M  V30 7497 C 700.192 -3.04182 1.95335 0
M  V30 7498 O 699.913 -2.8422 3.33393 0
M  V30 7499 C 701.414 -3.98617 1.93956 0
M  V30 7500 H 698.634 -0.520124 0.423925 0
M  V30 7501 H 701.178 -1.10174 1.72285 0
M  V30 7502 H 699.333 -3.57442 1.49378 0
M  V30 7503 H 699.747 -3.71452 3.70302 0
M  V30 7504 H 701.221 -4.92433 2.49426 0
M  V30 7505 H 701.698 -4.29473 0.919198 0
M  V30 7506 H 702.304 -3.51292 2.39738 0
M  V30 7507 N 700.619 -1.13374 -1.09472 0
M  V30 7508 C 701.582 -0.813639 -2.14272 0
M  V30 7509 C 702.582 0.176677 -1.59826 0
M  V30 7510 O 703.772 -0.0503441 -1.74127 0
M  V30 7511 C 700.904 -0.210897 -3.40247 0
M  V30 7512 H 702.097 -1.74229 -2.44099 0
M  V30 7513 H 699.65 -0.938304 -1.25002 0
M  V30 7514 H 700.385 0.726998 -3.16046 0
M  V30 7515 H 700.17 -0.924048 -3.81056 0
M  V30 7516 H 701.66 -0.00377603 -4.176 0
M  V30 7517 N 702.098 1.27442 -0.927168 0
M  V30 7518 C 703.328 1.9821 -0.582775 0
M  V30 7519 C 703.736 1.69361 0.843406 0
M  V30 7520 O 703.079 0.950381 1.57205 0
M  V30 7521 C 703.141 3.52048 -0.728165 0
M  V30 7522 C 702.805 4.04518 -2.12637 0
M  V30 7523 C 703.802 4.17332 -3.10048 0
M  V30 7524 C 701.487 4.38879 -2.44317 0
M  V30 7525 C 703.481 4.6378 -4.37249 0
M  V30 7526 C 701.168 4.85018 -3.71753 0
M  V30 7527 C 702.166 4.97428 -4.68033 0
M  V30 7528 O 701.854 5.42556 -5.93202 0
M  V30 7529 H 701.586 0.639314 -0.219667 0
M  V30 7530 H 704.14 1.63272 -1.24626 0
M  V30 7531 H 702.37 3.86699 -0.00758143 0
M  V30 7532 H 704.059 4.04033 -0.388906 0
M  V30 7533 H 704.825 3.91046 -2.86894 0
M  V30 7534 H 700.704 4.28462 -1.70121 0
M  V30 7535 H 704.248 4.73382 -5.12402 0
M  V30 7536 H 700.145 5.10746 -3.94726 0
M  V30 7537 H 700.913 5.60811 -5.96182 0
M  V30 7538 N 703.576 0.692616 1.41565 0
M  V30 7539 C 704.822 0.222664 2.01574 0
M  V30 7540 C 705.155 -1.1737 1.54719 0
M  V30 7541 O 704.43 -1.79161 0.757084 0
M  V30 7542 C 704.713 0.277064 3.59033 0
M  V30 7543 C 704.566 1.71016 4.16021 0
M  V30 7544 C 705.885 -0.36479 4.38586 0
M  V30 7545 H 703.004 0.0823839 0.732381 0
M  V30 7546 H 705.646 0.880778 1.68352 0
M  V30 7547 H 703.796 -0.283288 3.87466 0
M  V30 7548 H 705.468 2.32413 3.98475 0
M  V30 7549 H 703.711 2.24525 3.71175 0
M  V30 7550 H 704.382 1.69978 5.25178 0
M  V30 7551 H 706.858 0.112404 4.15948 0
M  V30 7552 H 705.734 -0.296169 5.481 0
M  V30 7553 H 705.995 -1.44506 4.17816 0
M  V30 7554 N 705.054 -1.51416 0.437162 0
M  V30 7555 C 706.302 -2.01687 -0.129108 0
M  V30 7556 C 706.623 -1.32329 -1.43227 0
M  V30 7557 O 705.893 -0.457796 -1.90476 0
M  V30 7558 H 704.473 -0.745277 -0.0507023 0
M  V30 7559 H 707.135 -1.86075 0.579828 0
M  V30 7560 H 706.231 -3.10605 -0.305141 0
M  V30 7561 N 706.532 -0.168513 -1.56696 0
M  V30 7562 C 707.779 0.477158 -1.96798 0
M  V30 7563 C 708.107 1.63442 -1.05437 0
M  V30 7564 O 707.362 1.95503 -0.0878903 0
M  V30 7565 C 707.661 1.00441 -3.42996 0
M  V30 7566 C 707.327 -0.0366556 -4.50885 0
M  V30 7567 C 705.989 -0.322785 -4.80116 0
M  V30 7568 C 708.341 -0.743447 -5.1587 0
M  V30 7569 C 705.669 -1.32114 -5.71632 0
M  V30 7570 C 708.021 -1.73077 -6.08463 0
M  V30 7571 C 706.685 -2.02437 -6.36062 0
M  V30 7572 H 705.955 0.174604 -0.720135 0
M  V30 7573 H 708.602 -0.259884 -1.89728 0
M  V30 7574 H 706.907 1.81922 -3.47004 0
M  V30 7575 H 708.604 1.51294 -3.71364 0
M  V30 7576 H 705.194 0.196532 -4.28149 0
M  V30 7577 H 709.378 -0.535602 -4.93401 0
M  V30 7578 H 704.634 -1.55482 -5.913 0
M  V30 7579 H 708.808 -2.28382 -6.57886 0
M  V30 7580 H 706.435 -2.79946 -7.06777 0
M  V30 7581 N 708.01 1.57248 0.105221 0
M  V30 7582 C 708.973 2.00388 1.11252 0
M  V30 7583 C 709.973 0.89594 1.33527 0
M  V30 7584 O 711.163 1.16166 1.29811 0
M  V30 7585 C 708.295 2.35589 2.46395 0
M  V30 7586 H 709.488 2.90591 0.741424 0
M  V30 7587 H 707.041 1.52332 0.349956 0
M  V30 7588 H 707.776 1.4831 2.884 0
M  V30 7589 H 707.561 3.16408 2.31578 0
M  V30 7590 H 709.051 2.69658 3.18864 0
M  V30 7591 N 709.488 -0.375779 1.53054 0
M  V30 7592 C 710.736 -1.11727 1.68409 0
M  V30 7593 C 711.057 -1.90127 0.43323 0
M  V30 7594 O 710.327 -1.87945 -0.552595 0
M  V30 7595 H 708.907 -0.415451 0.620813 0
M  V30 7596 H 711.569 -0.424869 1.90213 0
M  V30 7597 H 710.665 -1.8128 2.54055 0
M  V30 7598 N 710.966 -1.44241 -0.634997 0
M  V30 7599 C 711.914 -1.51103 -1.76835 0
M  V30 7600 C 712.908 -0.383051 -1.65012 0
M  V30 7601 O 714.114 -0.557832 -1.71138 0
M  V30 7602 H 710.489 -0.474076 -0.583743 0
M  V30 7603 H 712.46 -2.46499 -1.68169 0
M  V30 7604 C 711.209 -1.4687 -3.15158 0
M  V30 7605 H 710.532 -2.32979 -3.24901 0
M  V30 7606 H 711.972 -1.55731 -3.94365 0
M  V30 7607 C 710.431 -0.188884 -3.3637 0
M  V30 7608 O 710.961 0.742487 -3.94778 0
M  V30 7609 N 709.167 -0.0932516 -2.9045 0
M  V30 7610 H 708.714 -0.852004 -2.43102 0
M  V30 7611 H 708.672 0.762308 -3.05018 0
M  V30 7612 N 712.444 0.87505 -1.31075 0
M  V30 7613 C 713.86 1.15997 -1.09622 0
M  V30 7614 C 714.06 2.01036 0.136611 0
M  V30 7615 O 713.116 2.38559 0.827397 0
M  V30 7616 C 714.429 1.85702 -2.36506 0
M  V30 7617 C 715.977 1.98425 -2.42067 0
M  V30 7618 C 716.452 2.71544 -3.68819 0
M  V30 7619 N 717.943 2.79084 -3.69684 0
M  V30 7620 C 718.678 3.36259 -4.64454 0
M  V30 7621 N 718.174 3.94406 -5.69575 0
M  V30 7622 N 719.967 3.34169 -4.51982 0
M  V30 7623 H 712.118 0.308258 -2.10151 0
M  V30 7624 H 714.381 0.199145 -0.926847 0
M  V30 7625 H 714.087 1.30663 -3.26527 0
M  V30 7626 H 713.961 2.86017 -2.45915 0
M  V30 7627 H 716.348 2.5263 -1.52518 0
M  V30 7628 H 716.429 0.971682 -2.36626 0
M  V30 7629 H 716.073 2.18008 -4.58732 0
M  V30 7630 H 716.003 3.73198 -3.71525 0
M  V30 7631 H 718.494 2.3781 -2.93691 0
M  V30 7632 H 718.807 4.36129 -6.37974 0
M  V30 7633 H 717.152 3.92797 -5.73355 0
M  V30 7634 H 720.343 2.87977 -3.69035 0
M  V30 7635 H 720.516 3.78431 -5.26017 0
M  V30 7636 N 713.922 1.13953 1.08869 0
M  V30 7637 C 715.333 0.916649 1.62648 0
M  V30 7638 C 715.684 -0.545589 1.88462 0
M  V30 7639 O 714.809 -1.41351 1.63856 0
M  V30 7640 C 715.404 1.65751 2.95486 0
M  V30 7641 C 713.963 1.48034 3.46068 0
M  V30 7642 C 713.11 1.68305 2.20383 0
M  V30 7643 H 716.061 1.292 0.921572 0
M  V30 7644 H 716.082 1.11794 3.63707 0
M  V30 7645 H 715.594 2.72171 2.76667 0
M  V30 7646 H 713.695 0.439416 3.7 0
M  V30 7647 H 713.808 2.24719 4.23129 0
M  V30 7648 H 712.172 1.10833 2.29321 0
M  V30 7649 H 712.955 2.76057 2.04077 0
M  V30 7650 N 715.4 -1.26948 0.933913 0
M  V30 7651 C 716.649 -1.93378 0.573409 0
M  V30 7652 C 716.962 -1.74148 -0.890614 0
M  V30 7653 O 718.168 -2.34971 -1.36017 0
M  V30 7654 C 716.624 -3.46449 0.974747 0
M  V30 7655 C 716.232 -3.74425 2.45988 0
M  V30 7656 C 717.976 -4.18924 0.685791 0
M  V30 7657 C 715.883 -5.209 2.8003 0
M  V30 7658 H 714.813 -0.723952 0.210736 0
M  V30 7659 H 717.464 -1.44143 1.13557 0
M  V30 7660 H 715.846 -3.94528 0.341181 0
M  V30 7661 H 717.02 -3.37079 3.14188 0
M  V30 7662 H 715.335 -3.15167 2.72138 0
M  V30 7663 H 717.932 -5.26786 0.916546 0
M  V30 7664 H 718.275 -4.14587 -0.377217 0
M  V30 7665 H 718.808 -3.76687 1.27874 0
M  V30 7666 H 715.547 -5.30332 3.85264 0
M  V30 7667 H 715.067 -5.59369 2.16485 0
M  V30 7668 H 716.746 -5.88837 2.68105 0
M  V30 7669 N 716.879 -0.700114 -1.41195 0
M  V30 7670 C 717.842 -0.0465706 -2.29153 0
M  V30 7671 C 718.842 0.703302 -1.44604 0
M  V30 7672 O 720.032 0.537513 -1.657 0
M  V30 7673 C 717.164 0.944324 -3.2756 0
M  V30 7674 H 718.357 -0.821064 -2.88442 0
M  V30 7675 H 715.91 -0.463869 -1.49258 0
M  V30 7676 H 716.645 1.74642 -2.73259 0
M  V30 7677 H 716.43 0.409701 -3.89954 0
M  V30 7678 H 717.92 1.39925 -3.9346 0
M  V30 7679 N 718.357 1.51182 -0.445186 0
M  V30 7680 C 719.304 2.27939 0.362291 0
M  V30 7681 C 720.274 1.31864 1.01 0
M  V30 7682 O 721.459 1.60776 1.02741 0
M  V30 7683 C 718.599 3.13016 1.45311 0
M  V30 7684 C 717.712 4.24093 0.822757 0
M  V30 7685 C 716.847 4.96467 1.88928 0
M  V30 7686 C 715.886 5.99454 1.23778 0
M  V30 7687 N 715.023 6.65206 2.24602 0
M  V30 7688 H 719.863 2.965 -0.29862 0
M  V30 7689 H 717.4 1.46237 -0.15911 0
M  V30 7690 H 719.358 3.60673 2.09692 0
M  V30 7691 H 717.988 2.46553 2.08354 0
M  V30 7692 H 717.04 3.80341 0.0670364 0
M  V30 7693 H 718.352 4.97853 0.307184 0
M  V30 7694 H 717.506 5.47712 2.60953 0
M  V30 7695 H 716.245 4.22355 2.4386 0
M  V30 7696 H 715.25 5.47494 0.503042 0
M  V30 7697 H 716.475 6.75527 0.695694 0
M  V30 7698 H 714.421 5.93901 2.78599 0
M  V30 7699 H 714.338 7.34756 1.77958 0
M  V30 7700 H 715.606 7.21078 2.96085 0
M  V30 7701 N 719.835 0.176821 1.56605 0
M  V30 7702 C 721.081 -0.467406 1.9734 0
M  V30 7703 C 721.414 -1.62523 1.06301 0
M  V30 7704 O 720.689 -1.94182 0.11125 0
M  V30 7705 C 720.972 -0.945106 3.47476 0
M  V30 7706 C 720.825 0.213273 4.49294 0
M  V30 7707 C 722.144 -1.8169 4.00845 0
M  V30 7708 H 719.263 -0.168426 0.717497 0
M  V30 7709 H 721.905 0.264065 1.88156 0
M  V30 7710 H 720.055 -1.56841 3.55434 0
M  V30 7711 H 721.727 0.850508 4.53392 0
M  V30 7712 H 719.97 0.867918 4.25029 0
M  V30 7713 H 720.641 -0.163187 5.51759 0
M  V30 7714 H 723.117 -1.29139 3.95553 0
M  V30 7715 H 721.993 -2.12015 5.06301 0
M  V30 7716 H 722.254 -2.76463 3.44994 0
M  V30 7717 N 721.313 -1.57302 -0.09688 0
M  V30 7718 C 722.724 -1.7496 -0.651595 0
M  V30 7719 C 723.075 -0.798746 -1.79205 0
M  V30 7720 O 722.2 0.0231858 -2.16388 0
M  V30 7721 C 722.795 -3.17259 -1.18878 0
M  V30 7722 C 721.354 -3.36348 -1.68958 0
M  V30 7723 C 720.501 -2.70766 -0.598413 0
M  V30 7724 H 723.452 -1.58173 0.12918 0
M  V30 7725 H 723.473 -3.20033 -2.05814 0
M  V30 7726 H 722.985 -3.8644 -0.358523 0
M  V30 7727 H 721.086 -2.72243 -2.5439 0
M  V30 7728 H 721.199 -4.44654 -1.7838 0
M  V30 7729 H 719.563 -2.32615 -1.03743 0
M  V30 7730 H 720.346 -3.42586 0.221238 0
M  V30 7731 N 722.791 0.367657 -1.53252 0
M  V30 7732 C 723.721 1.45632 -1.8252 0
M  V30 7733 C 724.702 1.55979 -0.678568 0
M  V30 7734 O 725.887 1.70581 -0.928217 0
M  V30 7735 C 723.017 2.82994 -2.01325 0
M  V30 7736 C 721.971 2.87473 -3.17086 0
M  V30 7737 C 721.297 4.2749 -3.21179 0
M  V30 7738 C 722.597 2.55182 -4.55719 0
M  V30 7739 H 724.291 1.21387 -2.73689 0
M  V30 7740 H 721.837 0.58251 -1.31692 0
M  V30 7741 H 723.79 3.59179 -2.20383 0
M  V30 7742 H 722.514 3.08622 -1.06864 0
M  V30 7743 H 721.173 2.13739 -2.97844 0
M  V30 7744 H 720.821 4.5019 -2.24361 0
M  V30 7745 H 720.521 4.31403 -3.98955 0
M  V30 7746 H 722.045 5.0555 -3.42419 0
M  V30 7747 H 723.459 3.21081 -4.74953 0
M  V30 7748 H 721.856 2.70414 -5.3572 0
M  V30 7749 H 722.926 1.5044 -4.60973 0
M  V30 7750 N 724.269 1.44576 0.627338 0
M  V30 7751 C 725.179 1.54232 1.76776 0
M  V30 7752 C 726.195 0.427782 1.6866 0
M  V30 7753 O 727.371 0.685671 1.89369 0
M  V30 7754 C 724.436 1.48738 3.13174 0
M  V30 7755 C 723.497 2.71074 3.32893 0
M  V30 7756 C 722.73 2.65832 4.62784 0
M  V30 7757 O 722.953 1.72048 5.43834 0
M  V30 7758 O 721.887 3.56742 4.84787 0
M  V30 7759 H 725.713 2.50586 1.71582 0
M  V30 7760 H 723.298 1.26865 0.789028 0
M  V30 7761 H 725.18 1.48211 3.94476 0
M  V30 7762 H 723.855 0.555292 3.18902 0
M  V30 7763 H 722.762 2.77168 2.51254 0
M  V30 7764 H 724.095 3.63342 3.32029 0
M  V30 7765 N 725.747 -0.868086 1.31537 0
M  V30 7766 C 726.996 -1.61607 1.20689 0
M  V30 7767 C 727.309 -1.94204 -0.233275 0
M  V30 7768 O 728.515 -2.67515 -0.463465 0
M  V30 7769 C 726.971 -2.91348 2.11292 0
M  V30 7770 C 726.579 -2.66227 3.60315 0
M  V30 7771 C 728.323 -3.69344 2.09249 0
M  V30 7772 C 726.23 -3.91887 4.42921 0
M  V30 7773 H 725.16 -0.606373 0.448138 0
M  V30 7774 H 727.811 -0.959666 1.56405 0
M  V30 7775 H 726.193 -3.58374 1.68477 0
M  V30 7776 H 727.367 -2.07597 4.11388 0
M  V30 7777 H 725.682 -2.01582 3.64354 0
M  V30 7778 H 728.279 -4.62567 2.68209 0
M  V30 7779 H 728.622 -4.02044 1.0801 0
M  V30 7780 H 729.155 -3.09205 2.50274 0
M  V30 7781 H 725.894 -3.64336 5.44922 0
M  V30 7782 H 725.414 -4.49961 3.96605 0
M  V30 7783 H 727.093 -4.59754 4.55231 0
M  V30 7784 N 727.225 -1.14528 -1.08264 0
M  V30 7785 C 728.172 -0.833556 -2.15222 0
M  V30 7786 C 729.142 0.209539 -1.64773 0
M  V30 7787 O 730.327 0.0791388 -1.90636 0
M  V30 7788 C 727.467 -0.318799 -3.43624 0
M  V30 7789 C 726.58 -1.42237 -4.07913 0
M  V30 7790 C 725.715 -0.864704 -5.24115 0
M  V30 7791 C 724.754 -1.94585 -5.80347 0
M  V30 7792 N 723.891 -1.40525 -6.87893 0
M  V30 7793 H 728.731 -1.74965 -2.41228 0
M  V30 7794 H 726.268 -0.873169 -1.18381 0
M  V30 7795 H 728.226 -0.00213088 -4.172 0
M  V30 7796 H 726.856 0.560397 -3.17898 0
M  V30 7797 H 725.908 -1.8554 -3.32083 0
M  V30 7798 H 727.22 -2.23901 -4.45724 0
M  V30 7799 H 726.374 -0.500025 -6.04636 0
M  V30 7800 H 725.113 -0.0171219 -4.87697 0
M  V30 7801 H 724.118 -2.31946 -4.98479 0
M  V30 7802 H 725.343 -2.79704 -6.18823 0
M  V30 7803 H 723.289 -0.579873 -6.53432 0
M  V30 7804 H 723.206 -2.15825 -7.24538 0
M  V30 7805 H 724.474 -1.06852 -7.72142 0
M  V30 7806 N 728.703 1.26451 -0.940633 0
M  V30 7807 C 729.635 2.25556 -0.407104 0
M  V30 7808 C 730.648 1.55888 0.469324 0
M  V30 7809 O 731.837 1.76292 0.279858 0
M  V30 7810 C 728.937 3.36109 0.434064 0
M  V30 7811 C 728.11 4.3532 -0.426082 0
M  V30 7812 C 727.169 5.25004 0.354563 0
M  V30 7813 O 726.195 5.68684 -0.242219 0
M  V30 7814 N 727.397 5.5652 1.65123 0
M  V30 7815 H 730.162 2.7197 -1.25907 0
M  V30 7816 H 727.723 1.40212 -0.809456 0
M  V30 7817 H 729.715 3.93059 0.963684 0
M  V30 7818 H 728.285 2.89194 1.18683 0
M  V30 7819 H 727.505 3.77449 -1.13692 0
M  V30 7820 H 728.793 4.986 -1.01366 0
M  V30 7821 H 728.191 5.22912 2.15822 0
M  V30 7822 H 726.748 6.16115 2.12711 0
M  V30 7823 N 730.181 0.707592 1.40822 0
M  V30 7824 C 731.428 0.243671 2.01029 0
M  V30 7825 C 731.756 -1.16057 1.5608 0
M  V30 7826 O 731.011 -1.7999 0.768251 0
M  V30 7827 C 731.31 0.262892 3.56432 0
M  V30 7828 C 730.976 1.61632 4.20935 0
M  V30 7829 C 729.638 1.98682 4.38268 0
M  V30 7830 C 731.99 2.50619 4.5699 0
M  V30 7831 C 729.318 3.2428 4.88937 0
M  V30 7832 C 731.67 3.75562 5.09054 0
M  V30 7833 C 730.334 4.12739 5.24598 0
M  V30 7834 H 729.604 0.0891654 0.735616 0
M  V30 7835 H 732.251 0.909051 1.68548 0
M  V30 7836 H 730.556 -0.486052 3.88773 0
M  V30 7837 H 732.253 -0.113775 4.00839 0
M  V30 7838 H 728.843 1.31818 4.07826 0
M  V30 7839 H 733.027 2.23272 4.43242 0
M  V30 7840 H 728.283 3.53064 4.99155 0
M  V30 7841 H 732.457 4.44692 5.35931 0
M  V30 7842 H 730.084 5.10132 5.63622 0
M  V30 7843 N 731.66 -1.50943 0.453197 0
M  V30 7844 C 732.623 -2.26684 -0.338705 0
M  V30 7845 C 733.623 -1.30748 -0.936032 0
M  V30 7846 O 734.813 -1.54327 -0.808002 0
M  V30 7847 C 731.945 -3.07063 -1.48071 0
M  V30 7848 H 733.138 -2.98131 0.325289 0
M  V30 7849 H 730.691 -1.54926 0.206771 0
M  V30 7850 H 731.426 -2.4007 -2.18029 0
M  V30 7851 H 731.211 -3.77545 -1.0584 0
M  V30 7852 H 732.701 -3.64393 -2.0398 0
M  V30 7853 N 733.138 -0.185124 -1.56509 0
M  V30 7854 C 734.086 0.756505 -2.19954 0
M  V30 7855 C 735.08 1.22725 -1.16769 0
M  V30 7856 O 736.286 1.1913 -1.34937 0
M  V30 7857 H 732.661 0.262279 -0.704779 0
M  V30 7858 H 734.632 0.197587 -2.97745 0
M  V30 7859 C 733.381 1.96975 -2.86524 0
M  V30 7860 H 732.704 1.61658 -3.65659 0
M  V30 7861 H 734.144 2.60719 -3.34367 0
M  V30 7862 C 732.603 2.80219 -1.87027 0
M  V30 7863 O 733.133 3.77821 -1.36433 0
M  V30 7864 N 731.339 2.4551 -1.55477 0
M  V30 7865 H 730.886 1.66199 -1.96813 0
M  V30 7866 H 730.844 3.01493 -0.891597 0
M  V30 7867 N 734.616 1.57351 0.0885366 0
M  V30 7868 C 736.032 1.53331 0.442916 0
M  V30 7869 C 736.232 0.902831 1.80142 0
M  V30 7870 O 735.288 0.498147 2.47537 0
M  V30 7871 C 736.601 2.98036 0.399372 0
M  V30 7872 C 738.149 3.09286 0.480759 0
M  V30 7873 C 738.624 4.5561 0.467296 0
M  V30 7874 N 740.115 4.60182 0.52786 0
M  V30 7875 C 740.85 5.70857 0.539388 0
M  V30 7876 N 740.346 6.90944 0.506729 0
M  V30 7877 N 742.139 5.59051 0.584691 0
M  V30 7878 H 734.29 1.96709 -0.801215 0
M  V30 7879 H 736.553 0.899639 -0.298922 0
M  V30 7880 H 736.259 3.47656 -0.531806 0
M  V30 7881 H 736.133 3.57066 1.21589 0
M  V30 7882 H 738.52 2.5965 1.40236 0
M  V30 7883 H 738.601 2.53197 -0.364023 0
M  V30 7884 H 738.245 5.05899 -0.450384 0
M  V30 7885 H 738.175 5.09544 1.32938 0
M  V30 7886 H 740.666 3.73757 0.558028 0
M  V30 7887 H 740.979 7.71055 0.518989 0
M  V30 7888 H 739.324 6.93384 0.473675 0
M  V30 7889 H 742.515 4.64138 0.607781 0
M  V30 7890 H 742.688 6.45307 0.590206 0
M  V30 7891 N 736.094 -0.359525 1.53444 0
M  V30 7892 C 737.026 -1.46098 1.76602 0
M  V30 7893 C 738.039 -1.49395 0.646912 0
M  V30 7894 O 739.228 -1.52765 0.923307 0
M  V30 7895 C 736.328 -2.84836 1.83635 0
M  V30 7896 C 735.501 -3.05164 3.13358 0
M  V30 7897 C 734.56 -4.24051 3.11556 0
M  V30 7898 O 733.586 -4.18935 3.85334 0
M  V30 7899 N 734.788 -5.31775 2.328 0
M  V30 7900 H 737.553 -1.2661 2.71643 0
M  V30 7901 H 735.114 -0.549294 1.52297 0
M  V30 7902 H 737.106 -3.62516 1.799 0
M  V30 7903 H 735.676 -2.97542 0.958509 0
M  V30 7904 H 734.896 -2.15091 3.30348 0
M  V30 7905 H 736.184 -3.15619 3.99076 0
M  V30 7906 H 735.582 -5.38796 1.7238 0
M  V30 7907 H 734.139 -6.0801 2.34877 0
M  V30 7908 N 737.572 -1.44907 -0.619662 0
M  V30 7909 C 738.983 -1.42905 -1.20146 0
M  V30 7910 C 739.334 -0.150341 -1.95623 0
M  V30 7911 O 738.459 0.748732 -2.03034 0
M  V30 7912 C 739.054 -2.58889 -2.18545 0
M  V30 7913 C 737.613 -2.60046 -2.72127 0
M  V30 7914 C 736.76 -2.3493 -1.4732 0
M  V30 7915 H 739.711 -1.53321 -0.409666 0
M  V30 7916 H 739.732 -2.32298 -3.0136 0
M  V30 7917 H 739.244 -3.51941 -1.63583 0
M  V30 7918 H 737.345 -1.70968 -3.3106 0
M  V30 7919 H 737.458 -3.58893 -3.17384 0
M  V30 7920 H 735.822 -1.84248 -1.75855 0
M  V30 7921 H 736.605 -3.3011 -0.942442 0
M  V30 7922 N 739.05 0.861098 -1.31996 0
M  V30 7923 C 740.013 1.95068 -1.20338 0
M  V30 7924 C 741.013 1.60289 -0.128114 0
M  V30 7925 O 742.203 1.70048 -0.378044 0
M  V30 7926 C 739.335 3.30153 -0.849205 0
M  V30 7927 H 740.528 2.06833 -2.17164 0
M  V30 7928 H 738.081 1.05049 -1.15734 0
M  V30 7929 H 738.816 3.24087 0.117508 0
M  V30 7930 H 738.601 3.56771 -1.62655 0
M  V30 7931 H 740.091 4.10025 -0.791782 0
M  V30 7932 N 740.528 1.15101 1.07655 0
M  V30 7933 C 741.775 0.923974 1.80191 0
M  V30 7934 C 742.103 -0.549065 1.86589 0
M  V30 7935 O 741.358 -1.42307 1.3434 0
M  V30 7936 C 741.657 1.47954 3.25337 0
M  V30 7937 C 741.323 2.97253 3.39044 0
M  V30 7938 C 739.985 3.38012 3.42493 0
M  V30 7939 C 742.337 3.93219 3.42094 0
M  V30 7940 C 739.665 4.73384 3.4659 0
M  V30 7941 C 742.017 5.28458 3.47728 0
M  V30 7942 C 740.681 5.68717 3.49453 0
M  V30 7943 H 739.951 0.338106 0.659367 0
M  V30 7944 H 742.598 1.43594 1.26701 0
M  V30 7945 H 740.903 0.888691 3.81588 0
M  V30 7946 H 742.6 1.27972 3.80032 0
M  V30 7947 H 739.19 2.64746 3.37057 0
M  V30 7948 H 743.374 3.62805 3.38654 0
M  V30 7949 H 738.63 5.03925 3.46222 0
M  V30 7950 H 742.804 6.02618 3.49034 0
M  V30 7951 H 740.431 6.73596 3.5238 0
M  V30 7952 N 742.006 -1.2595 0.947325 0
M  V30 7953 C 743.252 -1.9375 0.599064 0
M  V30 7954 C 743.585 -1.74088 -0.860632 0
M  V30 7955 O 742.86 -1.08158 -1.61654 0
M  V30 7956 C 743.143 -3.47353 0.949634 0
M  V30 7957 C 742.996 -3.76273 2.46452 0
M  V30 7958 C 744.315 -4.37589 0.469442 0
M  V30 7959 H 741.434 -0.703674 0.219115 0
M  V30 7960 H 744.076 -1.48705 1.18266 0
M  V30 7961 H 742.226 -3.8585 0.453008 0
M  V30 7962 H 743.898 -3.47455 3.03435 0
M  V30 7963 H 742.141 -3.22135 2.90537 0
M  V30 7964 H 742.812 -4.83664 2.66032 0
M  V30 7965 H 745.288 -4.06353 0.89534 0
M  V30 7966 H 744.164 -5.43841 0.7435 0
M  V30 7967 H 744.425 -4.37579 -0.630618 0
M  V30 7968 N 743.484 -0.715051 -1.40445 0
M  V30 7969 C 744.394 -0.0631624 -2.34515 0
M  V30 7970 C 745.41 0.744397 -1.57273 0
M  V30 7971 O 746.586 0.677475 -1.89663 0
M  V30 7972 C 743.651 0.847915 -3.36172 0
M  V30 7973 C 742.712 0.0303655 -4.29289 0
M  V30 7974 C 741.945 0.898051 -5.2609 0
M  V30 7975 O 742.168 2.13729 -5.28844 0
M  V30 7976 O 741.102 0.337328 -6.00954 0
M  V30 7977 H 744.928 -0.839078 -2.91879 0
M  V30 7978 H 742.513 -0.475527 -1.4163 0
M  V30 7979 H 744.395 1.3698 -3.98515 0
M  V30 7980 H 743.07 1.60299 -2.81222 0
M  V30 7981 H 741.977 -0.536573 -3.70232 0
M  V30 7982 H 743.31 -0.686474 -4.87389 0
M  V30 7983 N 744.962 1.50701 -0.461195 0
M  V30 7984 C 746.21 2.01867 0.0970051 0
M  V30 7985 C 746.531 1.34591 1.41104 0
M  V30 7986 O 745.801 0.488041 1.89723 0
M  V30 7987 H 744.381 0.74599 0.0388392 0
M  V30 7988 H 747.043 1.85129 -0.609357 0
M  V30 7989 H 746.139 3.11051 0.255688 0
M  V30 7990 N 746.441 0.193421 1.56409 0
M  V30 7991 C 747.669 -0.451438 2.01915 0
M  V30 7992 C 748.084 -1.55306 1.07357 0
M  V30 7993 O 747.441 -1.82333 0.0781512 0
M  V30 7994 C 747.492 -1.00931 3.47124 0
M  V30 7995 O 747.213 0.0483623 4.38073 0
M  V30 7996 C 748.714 -1.73021 4.0814 0
M  V30 7997 H 745.934 -0.113495 0.661332 0
M  V30 7998 H 748.478 0.301636 2.02263 0
M  V30 7999 H 746.633 -1.71277 3.47481 0
M  V30 8000 H 747.047 -0.366644 5.23217 0
M  V30 8001 H 748.521 -2.07289 5.11601 0
M  V30 8002 H 748.998 -2.6333 3.51502 0
M  V30 8003 H 749.604 -1.07264 4.11551 0
M  V30 8004 N 747.919 -1.57396 -0.0801906 0
M  V30 8005 C 749.168 -1.8602 -0.779702 0
M  V30 8006 C 749.481 -0.784864 -1.79163 0
M  V30 8007 O 750.687 -0.958691 -2.54011 0
M  V30 8008 C 749.143 -3.29942 -1.43758 0
M  V30 8009 C 748.751 -4.45584 -0.464654 0
M  V30 8010 C 750.495 -3.67775 -2.11995 0
M  V30 8011 C 748.402 -5.80544 -1.12797 0
M  V30 8012 H 747.332 -0.69392 -0.294943 0
M  V30 8013 H 749.983 -1.83471 -0.0328527 0
M  V30 8014 H 748.365 -3.27078 -2.2324 0
M  V30 8015 H 749.539 -4.59824 0.299749 0
M  V30 8016 H 747.854 -4.16247 0.112813 0
M  V30 8017 H 750.451 -4.65896 -2.62383 0
M  V30 8018 H 750.794 -2.9715 -2.91561 0
M  V30 8019 H 751.327 -3.72593 -1.39354 0
M  V30 8020 H 748.066 -6.54439 -0.372807 0
M  V30 8021 H 747.586 -5.70119 -1.86344 0
M  V30 8022 H 749.265 -6.25602 -1.6502 0
M  V30 8023 O 749.436 0.223936 -1.5994 0
M  V30 8024 H 750.127 0.865318 -1.73297 0
M  V30 END ATOM
M  V30 BEGIN BOND
M  V30 END BOND
M  V30 END CTAB
M  END
$$$$
