drugbank_target|Q9UQM7 Calcium/calmodulin-dependent protein kinase type II subunit alpha (DB04119; DB04447; DB07766; DB12010)
 OpenBabel12092120463D

  0  0  0     0  0            999 V3000
M  V30 BEGIN CTAB
M  V30 COUNTS 7584 7673 0 0 0
M  V30 BEGIN ATOM
M  V30 1 H -0.908 1.98254 -0.117106 0
M  V30 2 N 0 1.576 0 0
M  V30 3 C 0.933 2.03868 1.02534 0
M  V30 4 C 1.911 0.928543 1.3348 0
M  V30 5 O 3.095 1.19667 1.45644 0
M  V30 6 C 0.222 2.43627 2.35294 0
M  V30 7 C -0.732 3.65373 2.2001 0
M  V30 8 S 0.101 5.13292 1.52614 0
M  V30 9 C 1.257 5.56322 2.86805 0
M  V30 10 H 1.49 2.90518 0.631377 0
M  V30 11 H -0.977 1.52953 0.210867 0
M  V30 12 H 0.981 2.67203 3.11629 0
M  V30 13 H -0.358 1.57376 2.7183 0
M  V30 14 H -1.165 3.90944 3.18086 0
M  V30 15 H -1.563 3.418 1.51819 0
M  V30 16 H 0.729 5.58782 3.83104 0
M  V30 17 H 1.672 6.56266 2.65933 0
M  V30 18 H 2.08 4.83886 2.90714 0
M  V30 19 N 1.4781 -0.272755 1.55222 0
M  V30 20 C 2.4411 -1.32041 1.87344 0
M  V30 21 C 3.4411 -1.42342 0.74803 0
M  V30 22 O 4.6311 -1.41488 1.0162 0
M  V30 23 C 1.7631 -2.70173 2.07893 0
M  V30 24 H 2.9561 -1.04789 2.80997 0
M  V30 25 H 0.5091 -0.51083 1.47717 0
M  V30 26 H 1.2441 -3.02605 1.16622 0
M  V30 27 H 1.0291 -2.64082 2.89833 0
M  V30 28 H 2.5191 -3.45869 2.34017 0
M  V30 29 N 2.9562 -1.48159 -0.537278 0
M  V30 30 C 4.1842 -1.59454 -1.31841 0
M  V30 31 C 4.5992 -0.252065 -1.8711 0
M  V30 32 O 3.9562 0.757621 -1.66031 0
M  V30 33 C 4.0072 -2.63546 -2.47439 0
M  V30 34 O 3.7282 -3.92583 -1.94449 0
M  V30 35 C 5.2292 -2.85212 -3.39366 0
M  V30 36 H 2.4492 -0.53785 -0.401196 0
M  V30 37 H 4.9932 -1.93932 -0.648891 0
M  V30 38 H 3.1482 -2.31946 -3.1029 0
M  V30 39 H 3.5622 -4.49629 -2.70063 0
M  V30 40 H 5.0362 -3.61863 -4.16844 0
M  V30 41 H 5.5132 -1.93765 -3.94147 0
M  V30 42 H 6.1192 -3.18086 -2.82314 0
M  V30 43 N 4.4343 0.785586 -1.36625 0
M  V30 44 C 5.6833 1.53883 -1.30396 0
M  V30 45 C 5.9963 1.95271 0.113452 0
M  V30 46 O 7.2023 2.69858 0.298142 0
M  V30 47 C 5.6583 2.77808 -2.28802 0
M  V30 48 C 5.2663 2.43574 -3.75999 0
M  V30 49 C 7.0103 3.55783 -2.31558 0
M  V30 50 C 4.9173 3.63919 -4.66173 0
M  V30 51 H 3.8473 0.577678 -0.484566 0
M  V30 52 H 6.4983 0.861705 -1.62009 0
M  V30 53 H 4.8803 3.47339 -1.90188 0
M  V30 54 H 6.0543 1.81916 -4.23371 0
M  V30 55 H 4.3693 1.78803 -3.76056 0
M  V30 56 H 6.9663 4.45205 -2.96137 0
M  V30 57 H 7.3093 3.94644 -1.3252 0
M  V30 58 H 7.8423 2.93235 -2.68809 0
M  V30 59 H 4.5813 3.3015 -5.66287 0
M  V30 60 H 4.1013 4.2473 -4.23515 0
M  V30 61 H 5.7803 4.30901 -4.82632 0
M  V30 62 N 5.9124 1.20967 1.01018 0
M  V30 63 C 7.1404 1.04956 1.78303 0
M  V30 64 C 7.5554 -0.400915 1.84494 0
M  V30 65 O 6.9124 -1.27826 1.30257 0
M  V30 66 C 6.9634 1.63403 3.22462 0
M  V30 67 O 6.6844 3.02775 3.16637 0
M  V30 68 C 8.1854 1.52432 4.16268 0
M  V30 69 H 5.4054 0.368858 0.560522 0
M  V30 70 H 7.9494 1.60193 1.27116 0
M  V30 71 H 6.1044 1.1227 3.70775 0
M  V30 72 H 6.5184 3.30626 4.07169 0
M  V30 73 H 7.9924 1.98078 5.15237 0
M  V30 74 H 8.4694 0.477875 4.36592 0
M  V30 75 H 9.0754 2.02787 3.73841 0
M  V30 76 N 7.3905 -1.2043 1.01659 0
M  V30 77 C 8.6305 -1.91507 0.714456 0
M  V30 78 C 8.9945 -1.77073 -0.742237 0
M  V30 79 O 10.1955 -2.42631 -1.15688 0
M  V30 80 C 8.4665 -3.38795 1.13809 0
M  V30 81 S 10.0255 -4.28216 0.957925 0
M  V30 82 H 6.8435 -0.661571 0.260471 0
M  V30 83 H 9.4455 -1.45671 1.30384 0
M  V30 84 H 8.1495 -3.46822 2.19415 0
M  V30 85 H 7.6805 -3.89656 0.541474 0
M  V30 86 H 9.6955 -4.96007 -0.138531 0
M  V30 87 N 8.8686 -0.792821 -1.36206 0
M  V30 88 C 10.0966 -0.378825 -2.03402 0
M  V30 89 C 10.5116 1.00586 -1.59774 0
M  V30 90 O 9.8686 1.64574 -0.788764 0
M  V30 91 C 9.9196 -0.43683 -3.58851 0
M  V30 92 O 9.6406 -1.76691 -4.00889 0
M  V30 93 C 11.1416 -0.0138943 -4.43298 0
M  V30 94 H 8.3616 -0.155673 -0.652692 0
M  V30 95 H 10.9056 -1.07261 -1.74113 0
M  V30 96 H 9.0606 0.208575 -3.86838 0
M  V30 97 H 9.4746 -1.72011 -4.95492 0
M  V30 98 H 10.9486 -0.105615 -5.51899 0
M  V30 99 H 11.4256 1.03915 -4.2673 0
M  V30 100 H 12.0316 -0.63192 -4.20579 0
M  V30 101 N 10.3467 1.47872 -0.545128 0
M  V30 102 C 11.7627 1.5829 -0.204032 0
M  V30 103 C 11.9627 1.54529 1.29317 0
M  V30 104 O 11.0187 1.44232 2.07252 0
M  V30 105 C 12.3317 2.89304 -0.819987 0
M  V30 106 C 13.8797 3.02864 -0.790105 0
M  V30 107 C 14.3547 4.3656 -1.38491 0
M  V30 108 N 15.8457 4.43165 -1.34755 0
M  V30 109 C 16.5807 5.45153 -1.77753 0
M  V30 110 N 16.0767 6.54016 -2.2855 0
M  V30 111 N 17.8697 5.36125 -1.68897 0
M  V30 112 H 10.0207 1.4856 -1.51802 0
M  V30 113 H 12.2837 0.706305 -0.632327 0
M  V30 114 H 11.9897 2.97757 -1.87173 0
M  V30 115 H 11.8637 3.75957 -0.305915 0
M  V30 116 H 14.2507 2.94014 0.252913 0
M  V30 117 H 14.3317 2.17782 -1.34181 0
M  V30 118 H 13.9757 4.46164 -2.42693 0
M  V30 119 H 13.9057 5.20353 -0.808754 0
M  V30 120 H 16.3967 3.65083 -0.975855 0
M  V30 121 H 16.7097 7.27994 -2.59314 0
M  V30 122 H 15.0547 6.54938 -2.32553 0
M  V30 123 H 18.2457 4.49975 -1.28998 0
M  V30 124 H 18.4187 6.15472 -2.02726 0
M  V30 125 N 11.8248 0.280983 1.55075 0
M  V30 126 C 13.0718 -0.334115 1.99725 0
M  V30 127 C 13.3998 -1.5542 1.1694 0
M  V30 128 O 12.6548 -1.94361 0.228531 0
M  V30 129 C 12.9538 -0.754656 3.49342 0
M  V30 130 C 12.6198 0.361445 4.49449 0
M  V30 131 C 11.2818 0.667893 4.76542 0
M  V30 132 C 13.6338 1.11322 5.09173 0
M  V30 133 C 10.9618 1.7296 5.60626 0
M  V30 134 C 13.3138 2.1647 5.9441 0
M  V30 135 C 11.9778 2.47742 6.19822 0
M  V30 136 H 11.2478 -0.122261 0.730844 0
M  V30 137 H 13.8948 0.395917 1.87363 0
M  V30 138 H 12.1998 -1.56446 3.5921 0
M  V30 139 H 13.8968 -1.24142 3.813 0
M  V30 140 H 10.4868 0.112481 4.28452 0
M  V30 141 H 14.6708 0.88973 4.8826 0
M  V30 142 H 9.9268 1.97684 5.78559 0
M  V30 143 H 14.1008 2.75193 6.3972 0
M  V30 144 H 11.7278 3.30145 6.84769 0
M  V30 145 N 13.3029 -1.57598 0.00835791 0
M  V30 146 C 14.5309 -1.95214 -0.68549 0
M  V30 147 C 14.9459 -0.883706 -1.66841 0
M  V30 148 O 14.3029 0.136565 -1.81988 0
M  V30 149 C 14.3539 -3.32865 -1.41007 0
M  V30 150 O 14.0749 -4.35609 -0.466552 0
M  V30 151 C 15.5759 -3.84991 -2.19765 0
M  V30 152 H 12.7959 -0.643422 -0.190392 0
M  V30 153 H 15.3399 -2.04406 0.0619607 0
M  V30 154 H 13.4949 -3.24956 -2.10908 0
M  V30 155 H 13.9089 -5.15288 -0.978699 0
M  V30 156 H 15.3829 -4.8371 -2.65948 0
M  V30 157 H 15.8599 -3.18137 -3.02796 0
M  V30 158 H 16.4659 -3.96103 -1.54864 0
M  V30 159 N 14.781 0.264519 -1.55364 0
M  V30 160 C 15.691 1.34902 -1.91934 0
M  V30 161 C 16.707 1.53595 -0.817593 0
M  V30 162 O 17.883 1.67558 -1.11742 0
M  V30 163 C 14.948 2.68676 -2.19121 0
M  V30 164 C 14.009 2.58657 -3.4263 0
M  V30 165 C 13.242 3.86051 -3.68511 0
M  V30 166 O 13.465 4.87126 -2.96757 0
M  V30 167 O 12.399 3.85744 -4.62045 0
M  V30 168 H 16.225 1.06883 -2.8427 0
M  V30 169 H 13.81 0.463775 -1.42019 0
M  V30 170 H 15.692 3.47759 -2.37995 0
M  V30 171 H 14.367 2.96463 -1.29966 0
M  V30 172 H 13.274 1.7792 -3.29082 0
M  V30 173 H 14.607 2.35818 -4.32031 0
M  V30 174 N 16.2591 1.48442 0.529413 0
M  V30 175 C 17.1691 1.6569 1.66084 0
M  V30 176 C 18.1851 0.539432 1.65427 0
M  V30 177 O 19.3611 0.810572 1.84368 0
M  V30 178 C 16.4261 1.69315 3.02545 0
M  V30 179 C 15.4871 2.92694 3.14052 0
M  V30 180 C 14.7201 2.96137 4.44003 0
M  V30 181 O 14.9431 2.07973 5.31134 0
M  V30 182 O 13.8771 3.88312 4.59888 0
M  V30 183 H 17.7031 2.61483 1.54469 0
M  V30 184 H 15.2881 1.3185 0.702567 0
M  V30 185 H 17.1701 1.74217 3.83701 0
M  V30 186 H 15.8451 0.766966 3.14483 0
M  V30 187 H 14.7521 2.93324 2.32189 0
M  V30 188 H 16.0851 3.84699 3.0703 0
M  V30 189 N 17.7372 -0.778329 1.37039 0
M  V30 190 C 18.9672 -1.56507 1.34868 0
M  V30 191 C 19.3752 -1.89072 -0.0694802 0
M  V30 192 O 18.7182 -1.51434 -1.03987 0
M  V30 193 C 18.7802 -2.90641 2.11585 0
M  V30 194 C 18.4442 -2.80746 3.60598 0
M  V30 195 C 19.4412 -2.52226 4.54618 0
M  V30 196 C 17.1262 -2.98974 4.03633 0
M  V30 197 C 19.1202 -2.42054 5.89651 0
M  V30 198 C 16.8072 -2.88423 5.38754 0
M  V30 199 C 17.8052 -2.60002 6.31576 0
M  V30 200 O 17.4932 -2.49465 7.64214 0
M  V30 201 H 17.2252 -0.491723 0.463879 0
M  V30 202 H 19.7792 -0.973053 1.80889 0
M  V30 203 H 18.0092 -3.51936 1.60243 0
M  V30 204 H 19.6982 -3.51992 2.0213 0
M  V30 205 H 20.4642 -2.37835 4.22681 0
M  V30 206 H 16.3432 -3.20099 3.31749 0
M  V30 207 H 19.8872 -2.19791 6.62071 0
M  V30 208 H 15.7842 -3.0238 5.70295 0
M  V30 209 H 16.5522 -2.64864 7.74461 0
M  V30 210 N 19.2153 -1.21501 -1.00376 0
M  V30 211 C 20.1473 -0.933174 -2.09343 0
M  V30 212 C 21.1603 0.0840896 -1.62583 0
M  V30 213 O 22.3493 -0.148563 -1.77881 0
M  V30 214 C 19.4493 -0.379869 -3.36764 0
M  V30 215 C 18.6223 -1.45176 -4.12605 0
M  V30 216 C 17.6813 -0.907476 -5.18316 0
M  V30 217 O 16.7073 -1.5912 -5.46507 0
M  V30 218 N 17.9093 0.276649 -5.7984 0
M  V30 219 H 20.6743 -1.87124 -2.34104 0
M  V30 220 H 18.2353 -1.12043 -1.16867 0
M  V30 221 H 20.2273 -0.00131488 -4.047 0
M  V30 222 H 18.7973 0.463048 -3.09151 0
M  V30 223 H 18.0173 -2.00411 -3.39454 0
M  V30 224 H 19.3053 -2.17328 -4.6005 0
M  V30 225 H 18.7033 0.849147 -5.59291 0
M  V30 226 H 17.2603 0.596702 -6.49063 0
M  V30 227 N 20.6934 1.19889 -1.02296 0
M  V30 228 C 21.6234 2.25141 -0.619174 0
M  V30 229 C 22.6044 1.66051 0.368915 0
M  V30 230 O 23.7894 1.92546 0.252941 0
M  V30 231 C 20.9194 3.4728 0.0368783 0
M  V30 232 C 19.8734 4.19005 -0.872865 0
M  V30 233 C 19.1994 5.34637 -0.0822402 0
M  V30 234 C 20.4994 4.74452 -2.18387 0
M  V30 235 H 22.1934 2.59171 -1.49903 0
M  V30 236 H 19.7394 1.24579 -0.722222 0
M  V30 237 H 21.6924 4.20098 0.330958 0
M  V30 238 H 20.4164 3.12433 0.95149 0
M  V30 239 H 19.0754 3.48061 -1.15105 0
M  V30 240 H 18.7234 4.96034 0.83422 0
M  V30 241 H 18.4234 5.83557 -0.688149 0
M  V30 242 H 19.9474 6.10255 0.205238 0
M  V30 243 H 21.3614 5.39055 -1.95172 0
M  V30 244 H 19.7584 5.33834 -2.74119 0
M  V30 245 H 20.8284 3.92844 -2.84257 0
M  V30 246 N 22.1715 0.800033 1.35784 0
M  V30 247 C 23.4185 0.377342 1.98953 0
M  V30 248 C 23.7465 -1.05378 1.6348 0
M  V30 249 O 23.0015 -1.74459 0.886707 0
M  V30 250 C 23.3005 0.500276 3.53881 0
M  V30 251 C 22.9665 1.89375 4.09204 0
M  V30 252 C 21.6285 2.27499 4.24025 0
M  V30 253 C 23.9805 2.8057 4.39238 0
M  V30 254 C 21.3085 3.562 4.66195 0
M  V30 255 C 23.6605 4.0871 4.82844 0
M  V30 256 C 22.3245 4.46843 4.95871 0
M  V30 257 H 21.5945 0.138079 0.728021 0
M  V30 258 H 24.2415 1.01955 1.62103 0
M  V30 259 H 22.5465 -0.225405 3.91151 0
M  V30 260 H 24.2435 0.154097 4.00704 0
M  V30 261 H 20.8335 1.58753 3.98115 0
M  V30 262 H 25.0175 2.52367 4.27346 0
M  V30 263 H 20.2735 3.85602 4.74469 0
M  V30 264 H 24.4475 4.79481 5.05046 0
M  V30 265 H 22.0745 5.46623 5.28306 0
M  V30 266 N 23.6496 -1.47581 0.552962 0
M  V30 267 C 24.5596 -2.33743 -0.200353 0
M  V30 268 C 25.5756 -1.47928 -0.916151 0
M  V30 269 O 26.7516 -1.80865 -0.885993 0
M  V30 270 C 23.8166 -3.24536 -1.21973 0
M  V30 271 C 22.8776 -4.26238 -0.511819 0
M  V30 272 C 22.1106 -5.12693 -1.48263 0
M  V30 273 O 22.3336 -5.01525 -2.71714 0
M  V30 274 O 21.2676 -5.93375 -1.00945 0
M  V30 275 H 25.0936 -2.9945 0.506304 0
M  V30 276 H 22.6786 -1.46071 0.313622 0
M  V30 277 H 24.5606 -3.80631 -1.80827 0
M  V30 278 H 23.2356 -2.61462 -1.90839 0
M  V30 279 H 22.1426 -3.73914 0.117799 0
M  V30 280 H 23.4756 -4.92014 0.135308 0
M  V30 281 N 25.1277 -0.289203 -1.54924 0
M  V30 282 C 26.0377 0.601863 -2.26748 0
M  V30 283 C 27.0537 1.15834 -1.2984 0
M  V30 284 O 28.2297 1.18564 -1.62802 0
M  V30 285 C 25.2947 1.76299 -2.98529 0
M  V30 286 C 24.3557 1.24178 -4.10948 0
M  V30 287 C 23.5887 2.34757 -4.79296 0
M  V30 288 O 23.8117 3.54411 -4.46933 0
M  V30 289 O 22.7457 2.02115 -5.66951 0
M  V30 290 H 26.5717 0.0195879 -3.03694 0
M  V30 291 H 24.1567 -0.0560868 -1.49295 0
M  V30 292 H 26.0387 2.43973 -3.43592 0
M  V30 293 H 24.7137 2.33209 -2.24488 0
M  V30 294 H 23.6207 0.531104 -3.70311 0
M  V30 295 H 24.9537 0.718252 -4.86931 0
M  V30 296 N 26.6058 1.57591 -0.0167156 0
M  V30 297 C 27.5358 2.12496 0.967858 0
M  V30 298 C 28.5168 1.03807 1.34752 0
M  V30 299 O 29.7018 1.31577 1.42833 0
M  V30 300 C 26.8318 2.64194 2.25431 0
M  V30 301 C 25.7858 3.77559 2.01576 0
M  V30 302 C 25.1118 4.15636 3.36379 0
M  V30 303 C 26.4118 5.04151 1.36489 0
M  V30 304 H 28.1058 2.95013 0.510643 0
M  V30 305 H 25.6518 1.41915 0.244181 0
M  V30 306 H 27.6048 3.01236 2.94678 0
M  V30 307 H 26.3288 1.78821 2.73296 0
M  V30 308 H 24.9878 3.40937 1.34751 0
M  V30 309 H 24.6358 3.27263 3.81979 0
M  V30 310 H 24.3358 4.92022 3.21229 0
M  V30 311 H 25.8598 4.5525 4.06915 0
M  V30 312 H 27.2738 5.38857 1.95718 0
M  V30 313 H 25.6708 5.85453 1.31776 0
M  V30 314 H 26.7408 4.83733 0.336219 0
M  V30 315 N 28.0839 -0.256276 1.55502 0
M  V30 316 C 29.3319 -0.983672 1.76545 0
M  V30 317 C 29.6529 -1.86206 0.578982 0
M  V30 318 O 28.9229 -1.91656 -0.405577 0
M  V30 319 H 27.5029 -0.366191 0.651086 0
M  V30 320 H 30.1649 -0.276479 1.92929 0
M  V30 321 H 29.2609 -1.61087 2.67315 0
M  V30 322 N 29.562 -1.4872 -0.521534 0
M  V30 323 C 30.509 -1.63871 -1.62527 0
M  V30 324 C 31.479 -0.480559 -1.58996 0
M  V30 325 O 32.664 -0.705085 -1.77294 0
M  V30 326 C 29.804 -1.69227 -3.00759 0
M  V30 327 C 28.917 -2.96207 -3.14461 0
M  V30 328 C 28.052 -2.92671 -4.43303 0
M  V30 329 C 27.091 -4.14318 -4.50563 0
M  V30 330 N 26.228 -4.0881 -5.70805 0
M  V30 331 H 31.068 -2.58123 -1.48918 0
M  V30 332 H 28.605 -1.28 -0.724878 0
M  V30 333 H 30.563 -1.70314 -3.80853 0
M  V30 334 H 29.193 -0.784586 -3.1312 0
M  V30 335 H 28.245 -3.04826 -2.27564 0
M  V30 336 H 29.557 -3.86192 -3.15686 0
M  V30 337 H 28.711 -2.92206 -5.31696 0
M  V30 338 H 27.45 -2.00429 -4.44612 0
M  V30 339 H 26.455 -4.15049 -3.60575 0
M  V30 340 H 27.68 -5.07729 -4.50986 0
M  V30 341 H 25.626 -3.19394 -5.72995 0
M  V30 342 H 25.543 -4.92509 -5.7356 0
M  V30 343 H 26.811 -4.12418 -6.61462 0
M  V30 344 N 31.0401 0.771051 -1.3745 0
M  V30 345 C 32.2881 1.52661 -1.32435 0
M  V30 346 C 32.6091 1.9479 0.0905024 0
M  V30 347 O 31.8791 1.66348 1.03466 0
M  V30 348 H 30.4591 0.566218 -0.487244 0
M  V30 349 H 33.1211 0.917636 -1.71946 0
M  V30 350 H 32.2171 2.42568 -1.96385 0
M  V30 351 N 32.5182 1.22032 0.997298 0
M  V30 352 C 33.4812 0.987909 2.06816 0
M  V30 353 C 34.4812 -0.0440084 1.6074 0
M  V30 354 O 35.6712 0.194053 1.73116 0
M  V30 355 C 32.8032 0.49132 3.37341 0
M  V30 356 H 33.9962 1.93803 2.28868 0
M  V30 357 H 31.5492 1.03838 1.16822 0
M  V30 358 H 32.2842 -0.463364 3.20973 0
M  V30 359 H 32.0692 1.23575 3.72118 0
M  V30 360 H 33.5592 0.348824 4.16141 0
M  V30 361 N 33.9963 -1.19345 1.0293 0
M  V30 362 C 35.2433 -1.89038 0.726008 0
M  V30 363 C 35.5713 -1.79649 -0.745427 0
M  V30 364 O 34.8263 -1.18354 -1.55855 0
M  V30 365 C 35.1253 -3.39292 1.12319 0
M  V30 366 C 34.7913 -3.68885 2.59297 0
M  V30 367 C 33.4533 -3.76671 2.99453 0
M  V30 368 C 35.8053 -3.82178 3.54386 0
M  V30 369 C 33.1333 -3.9522 4.33611 0
M  V30 370 C 35.4853 -4.0224 4.88248 0
M  V30 371 C 34.1493 -4.08259 5.28092 0
M  V30 372 H 33.4193 -0.691739 0.265665 0
M  V30 373 H 36.0663 -1.41328 1.29223 0
M  V30 374 H 34.3713 -3.88903 0.475584 0
M  V30 375 H 36.0683 -3.91536 0.866037 0
M  V30 376 H 32.6583 -3.63433 2.27189 0
M  V30 377 H 36.8423 -3.75505 3.24514 0
M  V30 378 H 32.0983 -3.98119 4.64016 0
M  V30 379 H 36.2723 -4.11468 5.61843 0
M  V30 380 H 33.8993 -4.22384 6.32057 0
M  V30 381 N 35.4744 -0.807222 -1.35358 0
M  V30 382 C 36.6994 -0.399309 -2.0352 0
M  V30 383 C 37.1244 0.981986 -1.60433 0
M  V30 384 O 36.4824 1.63601 -0.781299 0
M  V30 385 C 36.5304 -0.491552 -3.57234 0
M  V30 386 O 35.6344 0.494754 -4.09421 0
M  V30 387 H 34.9754 -0.166682 -0.642739 0
M  V30 388 H 37.5054 -1.09328 -1.72941 0
M  V30 389 H 37.5154 -0.361588 -4.06395 0
M  V30 390 H 36.1904 -1.49907 -3.87944 0
M  V30 391 H 34.7674 0.324977 -3.71481 0
M  V30 392 N 36.9525 1.47285 -0.560781 0
M  V30 393 C 38.1985 2.02764 -0.0381184 0
M  V30 394 C 38.5315 1.43384 1.30976 0
M  V30 395 O 37.8065 0.590733 1.85312 0
M  V30 396 C 38.0895 3.60064 0.0511427 0
M  V30 397 C 37.9425 4.2987 -1.32408 0
M  V30 398 C 39.2615 4.33439 0.762795 0
M  V30 399 H 36.3805 0.736841 -0.0153264 0
M  V30 400 H 39.0225 1.75675 -0.723759 0
M  V30 401 H 37.1725 3.83274 0.635065 0
M  V30 402 H 38.8445 4.17989 -1.95148 0
M  V30 403 H 37.0875 3.90085 -1.8978 0
M  V30 404 H 37.7585 5.38478 -1.21431 0
M  V30 405 H 40.2345 4.15243 0.266965 0
M  V30 406 H 39.1105 5.43124 0.794221 0
M  V30 407 H 39.3715 4.02915 1.81966 0
M  V30 408 N 38.4306 0.297415 1.54768 0
M  V30 409 C 39.6766 -0.313376 2.00364 0
M  V30 410 C 40.0096 -1.53815 1.18553 0
M  V30 411 O 39.2846 -1.92739 0.261103 0
M  V30 412 C 39.5676 -0.673525 3.53745 0
M  V30 413 C 39.4206 0.560133 4.46299 0
M  V30 414 C 40.7396 -1.50143 4.13697 0
M  V30 415 H 37.8586 -0.112428 0.728374 0
M  V30 416 H 40.5006 0.4088 1.8555 0
M  V30 417 H 38.6506 -1.28881 3.665 0
M  V30 418 H 40.3226 1.19863 4.45455 0
M  V30 419 H 38.5656 1.19405 4.17043 0
M  V30 420 H 39.2366 0.26405 5.51368 0
M  V30 421 H 41.7126 -0.981588 4.04356 0
M  V30 422 H 40.5886 -1.72221 5.21182 0
M  V30 423 H 40.8496 -2.48952 3.65343 0
M  V30 424 N 39.9087 -1.5758 0.0250728 0
M  V30 425 C 41.3247 -1.56124 -0.331282 0
M  V30 426 C 41.5247 -1.03029 -1.73169 0
M  V30 427 O 40.5807 -0.675215 -2.43305 0
M  V30 428 C 41.8937 -3.00139 -0.183584 0
M  V30 429 C 43.4417 -3.11946 -0.256654 0
M  V30 430 C 43.9167 -4.57793 -0.137792 0
M  V30 431 N 45.4077 -4.6279 -0.194904 0
M  V30 432 C 46.1427 -5.7326 -0.126655 0
M  V30 433 N 45.6387 -6.928 -0.00755288 0
M  V30 434 N 47.4317 -5.61811 -0.180348 0
M  V30 435 H 39.5827 -1.90424 0.94087 0
M  V30 436 H 41.8457 -0.875761 0.362968 0
M  V30 437 H 41.5517 -3.4292 0.780927 0
M  V30 438 H 41.4257 -3.64899 -0.955448 0
M  V30 439 H 43.8127 -2.69079 -1.21162 0
M  V30 440 H 43.8937 -2.49915 0.545517 0
M  V30 441 H 43.5377 -5.01339 0.813739 0
M  V30 442 H 43.4677 -5.17798 -0.958775 0
M  V30 443 H 45.9587 -3.76807 -0.287267 0
M  V30 444 H 46.2717 -7.72791 0.0379428 0
M  V30 445 H 44.6167 -6.94995 0.0271731 0
M  V30 446 H 47.8077 -4.6731 -0.271767 0
M  V30 447 H 47.9807 -6.47882 -0.123697 0
M  V30 448 N 41.3868 0.248026 -1.55636 0
M  V30 449 C 42.8028 0.596483 -1.48035 0
M  V30 450 C 43.0028 1.88386 -0.715039 0
M  V30 451 O 42.0588 2.51319 -0.243944 0
M  V30 452 C 43.3718 0.700258 -2.92433 0
M  V30 453 C 44.9198 0.792659 -3.02797 0
M  V30 454 C 45.3948 0.928005 -4.485 0
M  V30 455 N 46.8858 0.992903 -4.52433 0
M  V30 456 C 47.6208 1.11687 -5.62418 0
M  V30 457 N 47.1168 1.20645 -6.82214 0
M  V30 458 N 48.9098 1.14994 -5.50212 0
M  V30 459 H 41.0608 -0.597109 -2.03834 0
M  V30 460 H 43.3238 -0.205925 -0.925364 0
M  V30 461 H 43.0298 -0.175658 -3.51261 0
M  V30 462 H 42.9038 1.57255 -3.42857 0
M  V30 463 H 45.2908 1.65903 -2.4405 0
M  V30 464 H 45.3718 -0.104762 -2.55585 0
M  V30 465 H 45.0158 0.0661971 -5.07857 0
M  V30 466 H 44.9458 1.84045 -4.93391 0
M  V30 467 H 47.4368 0.935064 -3.66149 0
M  V30 468 H 47.7498 1.30008 -7.61786 0
M  V30 469 H 46.0948 1.17605 -6.84977 0
M  V30 470 H 49.2858 1.07643 -4.55555 0
M  V30 471 H 49.4588 1.24311 -6.35965 0
M  V30 472 N 42.8649 1.48995 0.513639 0
M  V30 473 C 44.1049 1.59452 1.27885 0
M  V30 474 C 44.4689 0.269479 1.90099 0
M  V30 475 O 45.6699 0.249139 2.67643 0
M  V30 476 C 43.9409 2.71277 2.32688 0
M  V30 477 S 45.4999 3.01604 3.18717 0
M  V30 478 H 42.3179 0.562565 0.434789 0
M  V30 479 H 44.9199 1.86595 0.583301 0
M  V30 480 H 43.6239 3.66089 1.8549 0
M  V30 481 H 43.1549 2.46086 3.06929 0
M  V30 482 H 45.1699 2.42155 4.331 0
M  V30 483 N 44.343 -0.763751 1.37857 0
M  V30 484 C 45.589 -1.52483 1.33704 0
M  V30 485 C 45.922 -1.94051 -0.0759612 0
M  V30 486 O 45.197 -1.64675 -1.03501 0
M  V30 487 C 45.48 -2.78441 2.28348 0
M  V30 488 C 45.333 -2.43075 3.78463 0
M  V30 489 C 46.652 -3.80415 2.21298 0
M  V30 490 H 43.771 -0.553169 0.487005 0
M  V30 491 H 46.413 -0.875562 1.68624 0
M  V30 492 H 44.563 -3.33842 1.987 0
M  V30 493 H 46.235 -1.93527 4.18742 0
M  V30 494 H 44.478 -1.75666 3.96641 0
M  V30 495 H 45.149 -3.33149 4.40132 0
M  V30 496 H 47.625 -3.34527 2.47449 0
M  V30 497 H 46.501 -4.66257 2.89647 0
M  V30 498 H 46.762 -4.25262 1.20849 0
M  V30 499 N 45.8211 -1.22559 -0.990812 0
M  V30 500 C 46.7681 -0.997519 -2.0813 0
M  V30 501 C 47.7381 0.0814702 -1.659 0
M  V30 502 O 48.9231 -0.0685424 -1.90677 0
M  V30 503 C 46.0631 -0.583615 -3.40129 0
M  V30 504 C 45.1761 -1.7336 -3.9569 0
M  V30 505 C 44.3111 -1.26748 -5.15857 0
M  V30 506 C 43.3501 -2.38888 -5.63559 0
M  V30 507 N 42.4871 -1.93308 -6.74964 0
M  V30 508 H 47.3271 -1.93099 -2.26973 0
M  V30 509 H 44.8641 -0.962114 -1.11273 0
M  V30 510 H 46.8221 -0.324801 -4.15934 0
M  V30 511 H 45.4521 0.312845 -3.2128 0
M  V30 512 H 44.5041 -2.10669 -3.16738 0
M  V30 513 H 45.8161 -2.57704 -4.27071 0
M  V30 514 H 44.9701 -0.966173 -5.98957 0
M  V30 515 H 43.7091 -0.394272 -4.86104 0
M  V30 516 H 42.7141 -2.69805 -4.79046 0
M  V30 517 H 43.9391 -3.26728 -5.95336 0
M  V30 518 H 41.8851 -1.08352 -6.4699 0
M  V30 519 H 41.8021 -2.71217 -7.05675 0
M  V30 520 H 43.0701 -1.66252 -7.61564 0
M  V30 521 N 47.2992 1.18797 -1.03562 0
M  V30 522 C 48.5452 1.8893 -0.737113 0
M  V30 523 C 48.8782 1.79837 0.732956 0
M  V30 524 O 48.1532 1.19525 1.5344 0
M  V30 525 C 48.4362 3.39607 -1.19745 0
M  V30 526 C 48.2892 3.57537 -2.72924 0
M  V30 527 C 49.6082 4.33069 -0.783526 0
M  V30 528 H 46.7272 0.686057 -0.269249 0
M  V30 529 H 49.3692 1.39797 -1.28673 0
M  V30 530 H 47.5192 3.81583 -0.729855 0
M  V30 531 H 49.1912 3.24688 -3.27682 0
M  V30 532 H 47.4342 3.00363 -3.12993 0
M  V30 533 H 48.1052 4.63238 -3.00191 0
M  V30 534 H 50.5812 3.98846 -1.18581 0
M  V30 535 H 49.4572 5.3707 -1.13343 0
M  V30 536 H 49.7182 4.40986 0.313681 0
M  V30 537 N 48.7773 0.814389 1.34928 0
M  V30 538 C 49.7073 0.244827 2.32213 0
M  V30 539 C 50.6883 -0.634024 1.57842 0
M  V30 540 O 51.8733 -0.562676 1.8587 0
M  V30 541 C 49.0033 -0.601106 3.42058 0
M  V30 542 C 47.9573 0.179896 4.27622 0
M  V30 543 C 47.2833 -0.788237 5.28858 0
M  V30 544 C 48.5833 1.38329 5.03649 0
M  V30 545 H 50.2773 1.05763 2.80097 0
M  V30 546 H 47.8233 0.510029 1.34665 0
M  V30 547 H 49.7763 -1.00968 4.09125 0
M  V30 548 H 48.5003 -1.44688 2.92802 0
M  V30 549 H 47.1593 0.569739 3.62146 0
M  V30 550 H 46.8073 -1.62973 4.75866 0
M  V30 551 H 46.5073 -0.269942 5.8698 0
M  V30 552 H 48.0313 -1.19485 5.98795 0
M  V30 553 H 49.4453 1.04918 5.63618 0
M  V30 554 H 47.8423 1.83662 5.71304 0
M  V30 555 H 48.9123 2.16592 4.33839 0
M  V30 556 N 50.2554 -1.46986 0.568584 0
M  V30 557 C 51.2184 -2.28624 -0.162366 0
M  V30 558 C 52.2184 -1.37596 -0.832103 0
M  V30 559 O 53.4084 -1.60115 -0.68622 0
M  V30 560 C 50.5404 -3.17596 -1.23878 0
M  V30 561 H 51.7334 -2.94722 0.554899 0
M  V30 562 H 49.2864 -1.52863 0.325976 0
M  V30 563 H 50.0214 -2.56214 -1.98808 0
M  V30 564 H 49.8064 -3.846 -0.763219 0
M  V30 565 H 51.2964 -3.79078 -1.75185 0
M  V30 566 N 51.7335 -0.305618 -1.54608 0
M  V30 567 C 52.9815 0.301701 -1.99835 0
M  V30 568 C 53.3025 1.54054 -1.19551 0
M  V30 569 O 52.5725 1.93702 -0.292658 0
M  V30 570 H 51.1525 0.114468 -0.738178 0
M  V30 571 H 53.8145 -0.418016 -1.90364 0
M  V30 572 H 52.9105 0.570548 -3.06841 0
M  V30 573 N 53.2116 1.57565 -0.0334293 0
M  V30 574 C 54.1436 2.0739 0.975811 0
M  V30 575 C 55.1566 0.998166 1.2861 0
M  V30 576 O 56.3456 1.27426 1.25 0
M  V30 577 C 53.4456 2.4871 2.30209 0
M  V30 578 C 52.6186 3.79413 2.17634 0
M  V30 579 C 51.6776 4.07237 3.33233 0
M  V30 580 O 50.7036 4.77425 3.09927 0
M  V30 581 N 51.9056 3.5775 4.5716 0
M  V30 582 H 54.6706 2.94598 0.55066 0
M  V30 583 H 52.2316 1.61173 0.15323 0
M  V30 584 H 54.2236 2.64413 3.06378 0
M  V30 585 H 52.7936 1.66845 2.64351 0
M  V30 586 H 52.0136 3.73465 1.26165 0
M  V30 587 H 53.3016 4.65038 2.0644 0
M  V30 588 H 52.6996 3.00976 4.78989 0
M  V30 589 H 51.2566 3.78724 5.30482 0
M  V30 590 N 54.6897 -0.239769 1.55765 0
M  V30 591 C 55.5997 -1.31831 1.94056 0
M  V30 592 C 56.6157 -1.52275 0.841925 0
M  V30 593 O 57.7917 -1.65759 1.14394 0
M  V30 594 C 54.8567 -2.65156 2.23368 0
M  V30 595 C 53.9177 -2.53173 3.46701 0
M  V30 596 C 53.1507 -3.8014 3.74606 0
M  V30 597 O 53.3737 -4.82343 3.04469 0
M  V30 598 O 52.3077 -3.78344 4.68123 0
M  V30 599 H 56.1337 -1.02347 2.85935 0
M  V30 600 H 53.7187 -0.441123 1.42739 0
M  V30 601 H 55.6007 -3.43929 2.43497 0
M  V30 602 H 54.2757 -2.94358 1.34666 0
M  V30 603 H 53.1827 -1.72662 3.31871 0
M  V30 604 H 54.5157 -2.28915 4.35728 0
M  V30 605 N 56.1678 -1.49265 -0.50573 0
M  V30 606 C 57.3978 -1.61979 -1.28243 0
M  V30 607 C 57.8058 -0.288576 -1.86986 0
M  V30 608 O 57.1488 0.735408 -1.68337 0
M  V30 609 C 57.2108 -2.62632 -2.45489 0
M  V30 610 C 56.8748 -4.071 -2.07651 0
M  V30 611 C 57.8718 -4.94049 -1.61901 0
M  V30 612 C 55.5568 -4.52801 -2.17431 0
M  V30 613 C 57.5508 -6.24736 -1.26428 0
M  V30 614 C 55.2378 -5.83503 -1.8157 0
M  V30 615 C 56.2358 -6.69294 -1.36142 0
M  V30 616 O 55.9238 -7.9756 -1.00764 0
M  V30 617 H 55.6558 -0.54834 -0.395347 0
M  V30 618 H 58.2098 -1.96002 -0.614204 0
M  V30 619 H 56.4398 -2.2378 -3.15372 0
M  V30 620 H 58.1288 -2.64925 -3.07522 0
M  V30 621 H 58.8948 -4.5997 -1.53795 0
M  V30 622 H 54.7738 -3.86196 -2.51742 0
M  V30 623 H 58.3178 -6.91652 -0.908992 0
M  V30 624 H 54.2148 -6.17112 -1.89324 0
M  V30 625 H 54.9828 -8.10529 -1.13952 0
M  V30 626 N 57.6459 0.756429 -1.3826 0
M  V30 627 C 58.6089 1.85176 -1.35065 0
M  V30 628 C 59.6089 1.58818 -0.251703 0
M  V30 629 O 60.7989 1.66615 -0.508433 0
M  V30 630 C 57.9309 3.22596 -1.10201 0
M  V30 631 H 59.1239 1.89417 -2.3251 0
M  V30 632 H 56.6769 0.95783 -1.23512 0
M  V30 633 H 57.4119 3.24025 -0.133504 0
M  V30 634 H 57.1969 3.43122 -1.89762 0
M  V30 635 H 58.6869 4.02673 -1.10654 0
M  V30 636 N 59.124 1.23083 0.984299 0
M  V30 637 C 60.087 1.00979 2.05757 0
M  V30 638 C 61.087 -0.0269573 1.60777 0
M  V30 639 O 62.277 0.212403 1.729 0
M  V30 640 C 59.409 0.527072 3.36801 0
M  V30 641 H 60.602 1.9622 2.26799 0
M  V30 642 H 58.155 1.05072 1.15714 0
M  V30 643 H 58.89 -0.429294 3.21446 0
M  V30 644 H 58.675 1.27515 3.70786 0
M  V30 645 H 60.165 0.392942 4.15747 0
M  V30 646 N 60.6021 -1.18246 1.0419 0
M  V30 647 C 61.5491 -2.2192 0.634037 0
M  V30 648 C 62.5191 -1.62179 -0.358765 0
M  V30 649 O 63.7041 -1.89122 -0.252466 0
M  V30 650 C 60.8441 -3.451 0.00445535 0
M  V30 651 C 59.9571 -4.19174 1.04487 0
M  V30 652 C 59.0921 -5.29813 0.383676 0
M  V30 653 C 58.1311 -5.9566 1.4091 0
M  V30 654 N 57.2681 -6.97834 0.772784 0
M  V30 655 H 62.1081 -2.56164 1.52263 0
M  V30 656 H 59.6451 -1.25843 0.761701 0
M  V30 657 H 61.6031 -4.15485 -0.377919 0
M  V30 658 H 60.2331 -3.11472 -0.847652 0
M  V30 659 H 59.2851 -3.47604 1.54518 0
M  V30 660 H 60.5971 -4.64267 1.82368 0
M  V30 661 H 59.7511 -6.06677 -0.0528366 0
M  V30 662 H 58.4901 -4.85825 -0.427208 0
M  V30 663 H 57.4951 -5.17535 1.85574 0
M  V30 664 H 58.7201 -6.4173 2.22171 0
M  V30 665 H 56.6661 -6.55998 -0.0177708 0
M  V30 666 H 56.5831 -7.41186 1.48928 0
M  V30 667 H 57.8511 -7.78665 0.36071 0
M  V30 668 N 62.0802 -0.821533 -1.34494 0
M  V30 669 C 63.3292 -0.405355 -1.97585 0
M  V30 670 C 63.6422 1.03677 -1.65863 0
M  V30 671 O 64.8482 1.55679 -2.22433 0
M  V30 672 C 63.3042 -0.673861 -3.53535 0
M  V30 673 C 62.9122 -2.12951 -3.94152 0
M  V30 674 C 64.6562 -0.32378 -4.23263 0
M  V30 675 C 62.5632 -2.34298 -5.43009 0
M  V30 676 H 61.4932 -0.147836 -0.739365 0
M  V30 677 H 64.1442 -1.00769 -1.53355 0
M  V30 678 H 62.5262 -0.00137554 -3.96 0
M  V30 679 H 63.7002 -2.84104 -3.62797 0
M  V30 680 H 62.0152 -2.44089 -3.37356 0
M  V30 681 H 64.6122 -0.461126 -5.32708 0
M  V30 682 H 64.9552 0.731586 -4.09821 0
M  V30 683 H 65.4882 -0.950786 -3.8627 0
M  V30 684 H 62.2272 -3.38335 -5.61435 0
M  V30 685 H 61.7472 -1.67687 -5.75883 0
M  V30 686 H 63.4262 -2.16588 -6.09671 0
M  V30 687 N 63.5583 1.46682 -0.576371 0
M  V30 688 C 64.8073 2.01619 -0.0572825 0
M  V30 689 C 65.1203 1.45417 1.30818 0
M  V30 690 O 66.3263 1.92133 1.91825 0
M  V30 691 C 64.7823 3.59863 -0.0518371 0
M  V30 692 C 64.3903 4.25059 -1.41523 0
M  V30 693 C 66.1343 4.2248 0.413639 0
M  V30 694 C 64.0413 5.75364 -1.36785 0
M  V30 695 H 62.9713 0.753794 -0.0176448 0
M  V30 696 H 65.6223 1.68481 -0.727076 0
M  V30 697 H 64.0043 3.90048 0.683994 0
M  V30 698 H 65.1783 4.06491 -2.17029 0
M  V30 699 H 63.4933 3.7451 -1.8202 0
M  V30 700 H 66.0903 5.3265 0.467779 0
M  V30 701 H 66.4333 3.90976 1.42982 0
M  V30 702 H 66.9663 3.96897 -0.267929 0
M  V30 703 H 63.7053 6.11518 -2.36063 0
M  V30 704 H 63.2253 5.96214 -0.654895 0
M  V30 705 H 64.9043 6.37955 -1.07805 0
M  V30 706 N 65.0364 0.313813 1.54444 0
M  V30 707 C 65.9844 -0.572171 2.25453 0
M  V30 708 C 66.9784 -1.12657 1.2651 0
M  V30 709 O 68.1844 -1.07573 1.44319 0
M  V30 710 H 64.5594 -0.203146 0.724041 0
M  V30 711 H 66.5304 0.0491145 2.9836 0
M  V30 712 C 65.2794 -1.72626 3.0182 0
M  V30 713 H 64.6024 -1.30891 3.77767 0
M  V30 714 H 66.0424 -2.32199 3.54767 0
M  V30 715 C 64.5014 -2.63806 2.09542 0
M  V30 716 O 65.0314 -3.65256 1.67185 0
M  V30 717 N 63.2374 -2.31824 1.75232 0
M  V30 718 H 62.7844 -1.49368 2.09873 0
M  V30 719 H 62.7424 -2.93095 1.13767 0
M  V30 720 N 66.5145 -1.57545 0.0417849 0
M  V30 721 C 67.7425 -1.96624 -0.643928 0
M  V30 722 C 68.1575 -0.918897 -1.64929 0
M  V30 723 O 67.5145 0.0979323 -1.82237 0
M  V30 724 C 67.5655 -3.35781 -1.33914 0
M  V30 725 O 67.2865 -4.365 -0.374048 0
M  V30 726 C 68.7875 -3.89566 -2.1155 0
M  V30 727 H 66.0075 -0.647316 -0.176702 0
M  V30 728 H 68.5515 -2.04229 0.105304 0
M  V30 729 H 66.7065 -3.29357 -2.03968 0
M  V30 730 H 67.1205 -5.17248 -0.869179 0
M  V30 731 H 68.5945 -4.89242 -2.55628 0
M  V30 732 H 69.0715 -3.24488 -2.9598 0
M  V30 733 H 69.6775 -3.99298 -1.46427 0
M  V30 734 N 67.9926 0.231505 -1.5589 0
M  V30 735 C 68.9396 1.28682 -1.91598 0
M  V30 736 C 69.9096 1.47071 -0.771974 0
M  V30 737 O 71.0946 1.60802 -1.027 0
M  V30 738 C 68.2346 2.6342 -2.22944 0
M  V30 739 C 67.3476 2.52912 -3.50228 0
M  V30 740 C 66.4826 3.80106 -3.7107 0
M  V30 741 C 65.5216 3.64279 -4.91902 0
M  V30 742 N 64.6586 4.834 -5.09184 0
M  V30 743 H 69.4986 0.975305 -2.81588 0
M  V30 744 H 67.0356 0.470299 -1.39379 0
M  V30 745 H 68.9936 3.41869 -2.39126 0
M  V30 746 H 67.6236 2.92687 -1.36139 0
M  V30 747 H 66.6756 1.6595 -3.42294 0
M  V30 748 H 67.9876 2.37133 -4.38827 0
M  V30 749 H 67.1416 4.66999 -3.87295 0
M  V30 750 H 65.8806 3.98799 -2.80733 0
M  V30 751 H 64.8856 2.7577 -4.75637 0
M  V30 752 H 66.1106 3.47067 -5.83714 0
M  V30 753 H 64.0566 5.02425 -4.21788 0
M  V30 754 H 63.9736 4.70311 -5.91898 0
M  V30 755 H 65.2416 5.71747 -5.29835 0
M  V30 756 N 69.4707 1.49531 0.497807 0
M  V30 757 C 70.4177 1.66436 1.59899 0
M  V30 758 C 71.3877 0.505793 1.58212 0
M  V30 759 O 72.5727 0.733202 1.7615 0
M  V30 760 C 69.7127 1.7399 2.98029 0
M  V30 761 C 68.8257 3.01172 3.09708 0
M  V30 762 C 67.9607 2.99686 4.38591 0
M  V30 763 C 66.9997 4.21434 4.43914 0
M  V30 764 N 66.1367 4.1784 5.64229 0
M  V30 765 H 70.9767 2.60459 1.44793 0
M  V30 766 H 68.5137 1.29137 0.704423 0
M  V30 767 H 70.4717 1.76352 3.78095 0
M  V30 768 H 69.1017 0.834301 3.11832 0
M  V30 769 H 68.1537 3.08408 2.22685 0
M  V30 770 H 69.4657 3.91165 3.09502 0
M  V30 771 H 68.6197 3.00628 5.2698 0
M  V30 772 H 67.3587 2.07477 4.41367 0
M  V30 773 H 66.3637 4.20733 3.53926 0
M  V30 774 H 67.5887 5.14839 4.42851 0
M  V30 775 H 65.5347 3.28469 5.67841 0
M  V30 776 H 65.4517 5.01571 5.65652 0
M  V30 777 H 66.7197 4.22889 6.54817 0
M  V30 778 N 70.9488 -0.749086 1.3866 0
M  V30 779 C 71.8788 -1.8764 1.38973 0
M  V30 780 C 72.8598 -1.68178 0.255004 0
M  V30 781 O 74.0448 -1.88704 0.458754 0
M  V30 782 C 71.1748 -3.25222 1.21851 0
M  V30 783 C 70.1288 -3.59295 2.32575 0
M  V30 784 C 69.4548 -4.95663 2.00555 0
M  V30 785 C 70.7548 -3.63709 3.7485 0
M  V30 786 H 72.4488 -1.87635 2.3331 0
M  V30 787 H 69.9948 -0.901329 1.12303 0
M  V30 788 H 71.9478 -4.03746 1.20695 0
M  V30 789 H 70.6718 -3.25719 0.239775 0
M  V30 790 H 69.3308 -2.83093 2.32925 0
M  V30 791 H 68.9788 -4.92724 1.01154 0
M  V30 792 H 68.6788 -5.19429 2.74714 0
M  V30 793 H 70.2028 -5.7656 2.01024 0
M  V30 794 H 71.6168 -4.32338 3.76506 0
M  V30 795 H 70.0138 -3.98986 4.48252 0
M  V30 796 H 71.0838 -2.63834 4.06841 0
M  V30 797 N 72.4269 -1.23603 -0.977757 0
M  V30 798 C 73.6519 -1.09735 -1.75991 0
M  V30 799 C 74.0769 0.346858 -1.84874 0
M  V30 800 O 73.4349 1.25093 -1.3123 0
M  V30 801 C 73.4829 -1.73051 -3.16363 0
M  V30 802 O 72.5869 -0.994452 -4.0023 0
M  V30 803 H 71.9279 -0.384476 -0.541364 0
M  V30 804 H 74.4579 -1.6371 -1.2272 0
M  V30 805 H 74.4679 -1.78398 -3.66931 0
M  V30 806 H 73.1429 -2.78137 -3.09213 0
M  V30 807 H 71.7199 -1.01812 -3.58732 0
M  V30 808 N 73.905 1.17692 -1.04816 0
M  V30 809 C 74.868 2.19787 -0.650117 0
M  V30 810 C 75.868 1.58044 0.296427 0
M  V30 811 O 77.058 1.74012 0.0808097 0
M  V30 812 C 74.19 3.40869 0.0456987 0
M  V30 813 H 75.383 2.56516 -1.5537 0
M  V30 814 H 72.936 1.31708 -0.841594 0
M  V30 815 H 73.671 3.09681 0.962726 0
M  V30 816 H 73.456 3.86928 -0.634727 0
M  V30 817 H 74.946 4.16445 0.310432 0
M  V30 818 N 75.3831 0.828654 1.34056 0
M  V30 819 C 76.7991 0.515135 1.51058 0
M  V30 820 C 76.9991 -0.959581 1.77184 0
M  V30 821 O 76.0551 -1.74382 1.82612 0
M  V30 822 C 77.3681 1.37963 2.67183 0
M  V30 823 C 78.9161 1.37735 2.81066 0
M  V30 824 C 79.3911 2.22645 4.00241 0
M  V30 825 N 80.8821 2.203 4.07458 0
M  V30 826 C 81.6171 2.82744 4.98842 0
M  V30 827 N 81.1131 3.54201 5.9541 0
M  V30 828 N 82.9061 2.72268 4.91759 0
M  V30 829 H 75.0571 1.78343 1.15358 0
M  V30 830 H 77.3201 0.760304 0.566252 0
M  V30 831 H 77.0261 2.42714 2.54525 0
M  V30 832 H 76.9001 1.0484 3.62338 0
M  V30 833 H 79.2871 0.337593 2.93163 0
M  V30 834 H 79.3681 1.74859 1.86703 0
M  V30 835 H 79.0121 3.26674 3.88905 0
M  V30 836 H 78.9421 1.82869 4.93829 0
M  V30 837 H 81.4331 1.68327 3.38341 0
M  V30 838 H 81.7461 3.9908 6.61782 0
M  V30 839 H 80.0911 3.58308 5.95517 0
M  V30 840 H 83.2821 2.16014 4.15278 0
M  V30 841 H 83.4551 3.21219 5.62781 0
M  V30 842 N 76.8612 -1.46375 0.584142 0
M  V30 843 C 78.1382 -1.956 0.0033388 0
M  V30 844 C 78.5182 -1.52679 -1.45782 0
M  V30 845 O 77.8662 -0.77816 -2.14842 0
M  V30 846 C 78.0762 -3.48551 0.176891 0
M  V30 847 C 79.4242 -4.24576 0.0454609 0
M  V30 848 O 80.4482 -3.56043 0.105801 0
M  V30 849 O 79.3072 -5.46427 -0.0890376 0
M  V30 850 H 76.4012 -0.825547 -0.0490066 0
M  V30 851 H 78.9472 -1.56652 0.65256 0
M  V30 852 H 77.7192 -3.72683 1.1926 0
M  V30 853 H 77.3422 -3.94332 -0.508695 0
M  V30 854 N 78.3393 -0.321999 -1.54275 0
M  V30 855 C 79.2893 0.560185 -2.21011 0
M  V30 856 C 80.2733 1.08283 -1.19011 0
M  V30 857 O 81.4653 1.02011 -1.44647 0
M  V30 858 C 78.5943 1.72137 -2.97025 0
M  V30 859 C 77.6803 1.21369 -4.06363 0
M  V30 860 N 78.0713 0.425566 -5.04007 0
M  V30 861 C 76.3693 1.49255 -4.20284 0
M  V30 862 C 77.0703 0.152601 -5.815 0
M  V30 863 N 76.0463 0.738294 -5.38563 0
M  V30 864 H 79.8483 -0.049265 -2.93859 0
M  V30 865 H 77.3623 -0.127779 -1.61897 0
M  V30 866 H 79.3593 2.36512 -3.43319 0
M  V30 867 H 78.0193 2.33431 -2.25699 0
M  V30 868 H 79.0303 0.068551 -5.17855 0
M  V30 869 H 75.7073 2.11145 -3.60172 0
M  V30 870 H 77.0973 -0.481764 -6.70171 0
M  V30 871 N 79.8174 1.5752 -0.0501392 0
M  V30 872 C 80.7494 2.08413 0.95376 0
M  V30 873 C 81.7624 1.01175 1.27544 0
M  V30 874 O 82.9514 1.28744 1.23641 0
M  V30 875 C 80.0514 2.51138 2.27559 0
M  V30 876 C 79.2244 3.817 2.13598 0
M  V30 877 C 78.2834 4.10749 3.28895 0
M  V30 878 O 77.3094 4.80685 3.04845 0
M  V30 879 N 78.5114 3.62579 4.5334 0
M  V30 880 H 81.2764 2.95165 0.519383 0
M  V30 881 H 78.8374 1.61327 0.136127 0
M  V30 882 H 80.8294 2.67648 3.03557 0
M  V30 883 H 79.3994 1.6964 2.62567 0
M  V30 884 H 78.6194 3.74782 1.22197 0
M  V30 885 H 79.9074 4.67201 2.01496 0
M  V30 886 H 79.3054 3.06039 4.75769 0
M  V30 887 H 77.8624 3.84329 5.26436 0
M  V30 888 N 81.2955 -0.223234 1.56011 0
M  V30 889 C 82.2425 -1.27664 1.92277 0
M  V30 890 C 83.2125 -1.46659 0.779763 0
M  V30 891 O 84.3975 -1.60256 1.03551 0
M  V30 892 C 81.5375 -2.62234 2.24338 0
M  V30 893 C 80.6505 -2.51051 3.51564 0
M  V30 894 C 79.7855 -3.78133 3.7308 0
M  V30 895 C 78.8245 -3.61665 4.93827 0
M  V30 896 N 77.9615 -4.80693 5.11741 0
M  V30 897 H 82.8015 -0.960358 2.82101 0
M  V30 898 H 80.3385 -0.462901 1.39627 0
M  V30 899 H 82.2965 -3.40596 2.40936 0
M  V30 900 H 80.9265 -2.91961 1.3769 0
M  V30 901 H 79.9785 -1.64132 3.43169 0
M  V30 902 H 81.2905 -2.34803 4.40079 0
M  V30 903 H 80.4445 -4.64938 3.89766 0
M  V30 904 H 79.1835 -3.97304 2.82844 0
M  V30 905 H 78.1885 -2.73244 4.77093 0
M  V30 906 H 79.4135 -3.43966 5.85546 0
M  V30 907 H 77.3595 -5.00181 4.24446 0
M  V30 908 H 77.2765 -4.67165 5.94384 0
M  V30 909 H 78.5445 -5.6893 5.3286 0
M  V30 910 N 82.7736 -1.49793 -0.48987 0
M  V30 911 C 83.7036 -1.70201 -1.59856 0
M  V30 912 C 84.6846 -0.55076 -1.60937 0
M  V30 913 O 85.8696 -0.787841 -1.77501 0
M  V30 914 C 82.9996 -1.77882 -2.98287 0
M  V30 915 C 81.9536 -2.92907 -3.12073 0
M  V30 916 C 81.2796 -2.85712 -4.51965 0
M  V30 917 C 82.5796 -4.3369 -2.91051 0
M  V30 918 H 84.2736 -2.63025 -1.43032 0
M  V30 919 H 81.8196 -1.26574 -0.686664 0
M  V30 920 H 83.7726 -1.90744 -3.75759 0
M  V30 921 H 82.4966 -0.816653 -3.16225 0
M  V30 922 H 81.1556 -2.79665 -2.37029 0
M  V30 923 H 80.8036 -1.8738 -4.66795 0
M  V30 924 H 80.5036 -3.62921 -4.62128 0
M  V30 925 H 82.0276 -3.00598 -5.31482 0
M  V30 926 H 83.4416 -4.47555 -3.58284 0
M  V30 927 H 81.8386 -5.12205 -3.12675 0
M  V30 928 H 82.9086 -4.47362 -1.87071 0
M  V30 929 N 84.2517 0.741722 -1.39055 0
M  V30 930 C 85.1617 1.88621 -1.39496 0
M  V30 931 C 86.1777 1.71557 -0.290578 0
M  V30 932 O 87.3537 1.94275 -0.530954 0
M  V30 933 C 84.4187 3.24134 -1.23037 0
M  V30 934 C 83.4797 3.5364 -2.43387 0
M  V30 935 C 82.7127 4.82687 -2.27703 0
M  V30 936 O 82.9357 5.55922 -1.27696 0
M  V30 937 O 81.8697 5.1194 -3.16545 0
M  V30 938 H 85.6957 1.91203 -2.35956 0
M  V30 939 H 83.2807 0.888625 -1.20099 0
M  V30 940 H 85.1627 4.0513 -1.15964 0
M  V30 941 H 83.8377 3.22337 -0.296691 0
M  V30 942 H 82.7447 2.72758 -2.56035 0
M  V30 943 H 84.0777 3.60209 -3.35425 0
M  V30 944 N 85.7298 1.2412 0.971189 0
M  V30 945 C 87.1458 1.00584 1.23916 0
M  V30 946 C 87.3458 -0.287481 1.99439 0
M  V30 947 O 86.4018 -1.00454 2.31658 0
M  V30 948 C 87.7148 2.21864 2.0297 0
M  V30 949 C 89.2628 2.26452 2.16076 0
M  V30 950 C 89.7378 3.47343 2.98524 0
M  V30 951 N 91.2288 3.47639 3.06107 0
M  V30 952 C 91.9638 4.37837 3.70251 0
M  V30 953 N 91.4598 5.38286 4.36142 0
M  V30 954 N 93.2528 4.25558 3.67228 0
M  V30 955 H 85.4038 2.07236 0.465499 0
M  V30 956 H 87.6668 0.909236 0.268315 0
M  V30 957 H 87.3728 3.15771 1.54861 0
M  V30 958 H 87.2468 2.23698 3.03709 0
M  V30 959 H 89.6338 1.33078 2.6339 0
M  V30 960 H 89.7148 2.28645 1.14696 0
M  V30 961 H 89.3588 4.41029 2.51905 0
M  V30 962 H 89.2888 3.42393 4.00093 0
M  V30 963 H 91.7798 2.74966 2.59233 0
M  V30 964 H 92.0928 6.03352 4.82894 0
M  V30 965 H 90.4378 5.42176 4.34822 0
M  V30 966 H 93.6288 3.46322 3.14927 0
M  V30 967 H 93.8018 4.96054 4.16935 0
M  V30 968 N 87.2079 -1.17134 1.05439 0
M  V30 969 C 88.1179 -2.24878 0.668365 0
M  V30 970 C 89.1339 -1.71186 -0.311687 0
M  V30 971 O 90.3099 -2.00738 -0.163161 0
M  V30 972 C 87.3749 -3.46662 0.051648 0
M  V30 973 C 86.4359 -4.15429 1.08246 0
M  V30 974 C 85.6689 -5.31399 0.495082 0
M  V30 975 O 85.8919 -5.66153 -0.694743 0
M  V30 976 O 84.8259 -5.89187 1.23056 0
M  V30 977 H 88.6519 -2.60189 1.56637 0
M  V30 978 H 86.2369 -1.24482 0.826104 0
M  V30 979 H 88.1189 -4.20394 -0.290966 0
M  V30 980 H 86.7939 -3.13142 -0.819971 0
M  V30 981 H 85.7009 -3.43704 1.47711 0
M  V30 982 H 87.0339 -4.52982 1.92532 0
M  V30 983 N 88.686 -0.835752 -1.33615 0
M  V30 984 C 89.649 -0.272 -2.2758 0
M  V30 985 C 90.649 0.557487 -1.50827 0
M  V30 986 O 91.839 0.37173 -1.70188 0
M  V30 987 C 88.971 0.617173 -3.35267 0
M  V30 988 H 90.164 -1.10111 -2.78954 0
M  V30 989 H 87.717 -0.608594 -1.43965 0
M  V30 990 H 88.452 1.46884 -2.89129 0
M  V30 991 H 88.237 0.0237066 -3.92093 0
M  V30 992 H 89.727 1.005 -4.05326 0
M  V30 993 N 90.1641 1.46063 -0.591896 0
M  V30 994 C 91.5801 1.57561 -0.254288 0
M  V30 995 C 91.7801 1.58565 1.24336 0
M  V30 996 O 90.8361 1.50753 2.02558 0
M  V30 997 C 92.1491 2.86549 -0.911611 0
M  V30 998 C 93.6971 3.00197 -0.886059 0
M  V30 999 C 94.1721 4.31933 -1.5231 0
M  V30 1000 N 95.6631 4.38654 -1.48786 0
M  V30 1001 C 96.3981 5.39222 -1.95006 0
M  V30 1002 N 95.8941 6.46414 -2.49241 0
M  V30 1003 N 97.6871 5.3048 -1.85868 0
M  V30 1004 H 89.8381 1.43655 -1.56451 0
M  V30 1005 H 92.1011 0.68583 -0.654478 0
M  V30 1006 H 91.8071 2.91651 -1.96551 0
M  V30 1007 H 91.6811 3.74794 -0.425368 0
M  V30 1008 H 94.0681 2.9467 0.159246 0
M  V30 1009 H 94.1491 2.13403 -1.41041 0
M  V30 1010 H 93.7931 4.38217 -2.56765 0
M  V30 1011 H 93.7231 5.17516 -0.973891 0
M  V30 1012 H 96.2141 3.61793 -1.09151 0
M  V30 1013 H 96.5271 7.19376 -2.82344 0
M  V30 1014 H 94.8721 6.47208 -2.53272 0
M  V30 1015 H 98.0631 4.45643 -1.43248 0
M  V30 1016 H 98.2361 6.08711 -2.22204 0
M  V30 1017 N 91.6422 0.330177 1.54103 0
M  V30 1018 C 92.8912 -0.271336 1.99867 0
M  V30 1019 C 93.2042 -1.52723 1.22209 0
M  V30 1020 O 94.4102 -2.20515 1.58383 0
M  V30 1021 C 92.8662 -0.534032 3.55916 0
M  V30 1022 C 92.4742 0.705193 4.42415 0
M  V30 1023 C 94.2182 -1.09514 4.1013 0
M  V30 1024 C 92.1252 0.414035 5.89949 0
M  V30 1025 H 91.0552 -0.105166 0.74663 0
M  V30 1026 H 93.7062 0.443429 1.78062 0
M  V30 1027 H 92.0882 -1.30915 3.73734 0
M  V30 1028 H 93.2622 1.4804 4.36372 0
M  V30 1029 H 91.5772 1.18698 3.99124 0
M  V30 1030 H 94.1742 -1.3277 5.17954 0
M  V30 1031 H 94.5172 -2.04656 3.62521 0
M  V30 1032 H 95.0502 -0.381038 3.95971 0
M  V30 1033 H 91.7892 1.33481 6.41766 0
M  V30 1034 H 91.3092 -0.323336 5.98928 0
M  V30 1035 H 92.9882 0.0263105 6.46995 0
M  V30 1036 N 93.1203 -1.57491 0.0584922 0
M  V30 1037 C 94.3603 -1.94851 -0.617458 0
M  V30 1038 C 94.7243 -0.937165 -1.67575 0
M  V30 1039 O 95.9253 -1.19795 -2.40629 0
M  V30 1040 C 94.1963 -3.36955 -1.19147 0
M  V30 1041 S 95.7553 -3.96277 -1.8844 0
M  V30 1042 H 92.5733 -0.681539 -0.202547 0
M  V30 1043 H 95.1753 -1.95073 0.129176 0
M  V30 1044 H 93.8793 -4.08355 -0.409215 0
M  V30 1045 H 93.4103 -3.40245 -1.97476 0
M  V30 1046 H 95.4253 -3.82099 -3.16568 0
M  V30 1047 N 94.5984 0.214957 -1.56127 0
M  V30 1048 C 96.0144 0.564948 -1.49267 0
M  V30 1049 C 96.2144 1.86827 -0.754838 0
M  V30 1050 O 95.2704 2.50745 -0.297198 0
M  V30 1051 C 96.5834 0.638071 -2.93852 0
M  V30 1052 C 98.1314 0.728253 -3.0441 0
M  V30 1053 C 98.6064 0.832663 -4.50367 0
M  V30 1054 N 100.097 0.896712 -4.54437 0
M  V30 1055 C 100.832 0.997324 -5.6466 0
M  V30 1056 N 100.328 1.06147 -6.8462 0
M  V30 1057 N 102.121 1.03297 -5.52527 0
M  V30 1058 H 94.2724 -0.640211 -2.02522 0
M  V30 1059 H 96.5354 -0.225507 -0.920788 0
M  V30 1060 H 96.2414 -0.250126 -3.50809 0
M  V30 1061 H 96.1154 1.49947 -3.46115 0
M  V30 1062 H 98.5024 1.60689 -2.47514 0
M  V30 1063 H 98.5834 -0.158952 -2.55306 0
M  V30 1064 H 98.2274 -0.0415417 -5.07883 0
M  V30 1065 H 98.1574 1.73538 -4.97184 0
M  V30 1066 H 100.648 0.857188 -3.6805 0
M  V30 1067 H 100.961 1.1382 -7.64372 0
M  V30 1068 H 99.3064 1.03049 -6.87318 0
M  V30 1069 H 102.497 0.979558 -4.57736 0
M  V30 1070 H 102.67 1.10793 -6.38458 0
M  V30 1071 N 96.0765 1.50051 0.48192 0
M  V30 1072 C 97.0065 1.71046 1.58951 0
M  V30 1073 C 97.9875 0.559288 1.60642 0
M  V30 1074 O 99.1725 0.797243 1.77081 0
M  V30 1075 C 96.3025 1.79462 2.97339 0
M  V30 1076 C 95.2565 2.94558 3.10515 0
M  V30 1077 C 94.5825 2.88105 4.50444 0
M  V30 1078 C 95.8825 4.35227 2.88747 0
M  V30 1079 H 97.5765 2.6378 1.41635 0
M  V30 1080 H 95.1225 1.26936 0.679942 0
M  V30 1081 H 97.0755 1.92734 3.74742 0
M  V30 1082 H 95.7995 0.833412 3.15788 0
M  V30 1083 H 94.4585 2.80918 2.35543 0
M  V30 1084 H 94.1065 1.89853 4.65795 0
M  V30 1085 H 93.8065 3.65366 4.60197 0
M  V30 1086 H 95.3305 3.03412 5.29881 0
M  V30 1087 H 96.7445 4.49449 3.55905 0
M  V30 1088 H 95.1415 5.13856 3.09955 0
M  V30 1089 H 96.2115 4.48347 1.84696 0
M  V30 1090 N 97.5546 -0.734337 1.39446 0
M  V30 1091 C 98.4846 -1.86155 1.40955 0
M  V30 1092 C 99.4656 -1.67898 0.272827 0
M  V30 1093 O 100.651 -1.88207 0.478743 0
M  V30 1094 C 97.7806 -3.23912 1.25294 0
M  V30 1095 C 96.7346 -3.56808 2.36373 0
M  V30 1096 C 96.0606 -4.93508 2.058 0
M  V30 1097 C 97.3606 -3.59713 3.78687 0
M  V30 1098 H 99.0546 -1.8515 2.35287 0
M  V30 1099 H 96.6006 -0.889367 1.13253 0
M  V30 1100 H 98.5536 -4.02443 1.2497 0
M  V30 1101 H 97.2776 -3.25446 0.274308 0
M  V30 1102 H 95.9366 -2.80606 2.35914 0
M  V30 1103 H 95.5846 -4.91623 1.06374 0
M  V30 1104 H 95.2846 -5.16486 2.80208 0
M  V30 1105 H 96.8086 -5.74396 2.07128 0
M  V30 1106 H 98.2226 -4.2832 3.81071 0
M  V30 1107 H 96.6196 -3.94209 4.52459 0
M  V30 1108 H 97.6896 -2.59504 4.09617 0
M  V30 1109 N 99.0327 -1.24633 -0.964593 0
M  V30 1110 C 99.9797 -1.04144 -2.05968 0
M  V30 1111 C 100.95 0.046262 -1.66036 0
M  V30 1112 O 102.135 -0.108972 -1.90489 0
M  V30 1113 C 99.2747 -0.65563 -3.38815 0
M  V30 1114 C 98.3877 -1.81714 -3.91923 0
M  V30 1115 C 97.5227 -1.37662 -5.13052 0
M  V30 1116 C 96.5617 -2.50788 -5.58365 0
M  V30 1117 N 95.6987 -2.07582 -6.70712 0
M  V30 1118 H 100.539 -1.9787 -2.22827 0
M  V30 1119 H 98.0757 -0.9855 -1.09208 0
M  V30 1120 H 100.034 -0.412954 -4.15151 0
M  V30 1121 H 98.6637 0.244627 -3.21872 0
M  V30 1122 H 97.7157 -2.1734 -3.12198 0
M  V30 1123 H 99.0277 -2.66705 -4.21509 0
M  V30 1124 H 98.1817 -1.093 -5.96773 0
M  V30 1125 H 96.9207 -0.497293 -4.85158 0
M  V30 1126 H 95.9257 -2.79906 -4.73215 0
M  V30 1127 H 97.1507 -3.39283 -5.88272 0
M  V30 1128 H 95.0967 -1.22051 -6.44546 0
M  V30 1129 H 95.0137 -2.86125 -6.99763 0
M  V30 1130 H 96.2817 -1.82369 -7.57867 0
M  V30 1131 N 100.511 1.16574 -1.06058 0
M  V30 1132 C 101.461 2.18854 -0.63929 0
M  V30 1133 C 102.445 1.57505 0.328798 0
M  V30 1134 O 103.637 1.76408 0.144623 0
M  V30 1135 C 100.766 3.43291 -0.0247203 0
M  V30 1136 C 99.8518 4.11722 -1.01716 0
M  V30 1137 N 100.243 4.55841 -2.19186 0
M  V30 1138 C 98.5408 4.37872 -0.847569 0
M  V30 1139 C 99.2418 5.08751 -2.82042 0
M  V30 1140 N 98.2178 5.01489 -2.09784 0
M  V30 1141 H 102.02 2.5068 -1.53417 0
M  V30 1142 H 99.5338 1.32999 -0.931935 0
M  V30 1143 H 101.531 4.15856 0.294915 0
M  V30 1144 H 100.191 3.12954 0.865448 0
M  V30 1145 H 101.202 4.49649 -2.56975 0
M  V30 1146 H 97.8788 4.17499 -0.00918848 0
M  V30 1147 H 99.2688 5.52944 -3.81709 0
M  V30 1148 N 101.989 0.842826 1.3317 0
M  V30 1149 C 103.4 0.496651 1.79973 0
M  V30 1150 C 103.751 -0.984641 1.69703 0
M  V30 1151 O 102.876 -1.76743 1.24863 0
M  V30 1152 C 103.471 0.894727 3.26772 0
M  V30 1153 C 102.03 0.600629 3.71577 0
M  V30 1154 C 101.177 1.10091 2.5451 0
M  V30 1155 H 104.128 1.03116 1.20635 0
M  V30 1156 H 104.149 0.206347 3.7994 0
M  V30 1157 H 103.661 1.97287 3.34215 0
M  V30 1158 H 101.762 -0.467284 3.69658 0
M  V30 1159 H 101.875 1.15863 4.64879 0
M  V30 1160 H 100.239 0.52162 2.49301 0
M  V30 1161 H 101.022 2.18591 2.64713 0
M  V30 1162 N 103.467 -1.45747 0.599634 0
M  V30 1163 C 104.415 -2.322 -0.136426 0
M  V30 1164 C 105.409 -1.45497 -0.867583 0
M  V30 1165 O 106.615 -1.62027 -0.78405 0
M  V30 1166 H 102.99 -0.749368 -0.0628588 0
M  V30 1167 H 104.961 -2.92072 0.611281 0
M  V30 1168 C 103.71 -3.28974 -1.12567 0
M  V30 1169 H 103.033 -3.9568 -0.572484 0
M  V30 1170 H 104.473 -3.92212 -1.61077 0
M  V30 1171 C 102.932 -2.55561 -2.19523 0
M  V30 1172 O 103.462 -2.33111 -3.27143 0
M  V30 1173 N 101.668 -2.15832 -1.94589 0
M  V30 1174 H 101.215 -2.3429 -1.07078 0
M  V30 1175 H 101.173 -1.67034 -2.66359 0
M  V30 1176 N 104.945 -0.338344 -1.53925 0
M  V30 1177 C 106.194 0.260732 -2.00008 0
M  V30 1178 C 106.507 1.52073 -1.23017 0
M  V30 1179 O 107.713 2.19672 -1.5955 0
M  V30 1180 C 106.169 0.51515 -3.56194 0
M  V30 1181 C 105.777 -0.728645 -4.42035 0
M  V30 1182 C 107.521 1.07337 -4.10706 0
M  V30 1183 C 105.428 -0.445315 -5.89721 0
M  V30 1184 H 104.358 0.101205 -0.747177 0
M  V30 1185 H 107.009 -0.452866 -1.77824 0
M  V30 1186 H 105.391 1.28932 -3.74423 0
M  V30 1187 H 106.565 -1.50352 -4.35581 0
M  V30 1188 H 104.88 -1.20813 -3.98489 0
M  V30 1189 H 107.477 1.30022 -5.18651 0
M  V30 1190 H 107.82 2.0273 -3.63602 0
M  V30 1191 H 108.353 0.360034 -3.96167 0
M  V30 1192 H 105.092 -1.36883 -6.41049 0
M  V30 1193 H 104.612 0.291569 -5.99091 0
M  V30 1194 H 106.291 -0.0606218 -6.46972 0
M  V30 1195 N 106.423 1.57458 -0.0668435 0
M  V30 1196 C 107.669 1.93587 0.6043 0
M  V30 1197 C 108.002 0.946722 1.69561 0
M  V30 1198 O 107.277 -0.0248516 1.94484 0
M  V30 1199 C 107.56 3.40014 1.18585 0
M  V30 1200 C 107.413 4.49685 0.101529 0
M  V30 1201 C 108.732 3.87154 2.09284 0
M  V30 1202 H 105.851 0.703958 0.218202 0
M  V30 1203 H 108.493 1.89542 -0.131804 0
M  V30 1204 H 106.643 3.43592 1.81319 0
M  V30 1205 H 108.315 4.5823 -0.531279 0
M  V30 1206 H 106.558 4.30059 -0.568487 0
M  V30 1207 H 107.229 5.49266 0.54874 0
M  V30 1208 H 109.705 3.85551 1.56491 0
M  V30 1209 H 108.581 4.90231 2.46911 0
M  V30 1210 H 108.842 3.2481 2.99918 0
M  V30 1211 N 107.901 -0.206675 1.56239 0
M  V30 1212 C 109.317 -0.557025 1.49564 0
M  V30 1213 C 109.517 -1.86424 0.764735 0
M  V30 1214 O 108.573 -2.50584 0.310491 0
M  V30 1215 C 109.886 -0.622478 2.94186 0
M  V30 1216 C 111.434 -0.712099 3.04792 0
M  V30 1217 C 111.909 -0.808767 4.50803 0
M  V30 1218 N 113.4 -0.8726 4.54907 0
M  V30 1219 C 114.135 -0.967365 5.65181 0
M  V30 1220 N 113.631 -1.02515 6.85173 0
M  V30 1221 N 115.424 -1.00366 5.53067 0
M  V30 1222 H 107.575 0.650943 2.02179 0
M  V30 1223 H 109.838 0.230387 0.919579 0
M  V30 1224 H 109.544 0.268727 3.50672 0
M  V30 1225 H 109.418 -1.4811 3.46905 0
M  V30 1226 H 111.805 -1.59374 2.48363 0
M  V30 1227 H 111.886 0.172489 2.55218 0
M  V30 1228 H 111.53 0.0684754 5.07854 0
M  V30 1229 H 111.46 -1.70899 4.98098 0
M  V30 1230 H 113.951 -0.837657 3.68499 0
M  V30 1231 H 114.264 -1.09765 7.64965 0
M  V30 1232 H 112.609 -0.994026 6.87855 0
M  V30 1233 H 115.8 -0.95527 4.58249 0
M  V30 1234 H 115.973 -1.07405 6.39037 0
M  V30 1235 N 109.379 -1.50304 -0.473955 0
M  V30 1236 C 110.309 -1.71886 -1.58042 0
M  V30 1237 C 111.29 -0.567799 -1.60344 0
M  V30 1238 O 112.475 -0.806623 -1.76656 0
M  V30 1239 C 109.605 -1.81036 -2.96384 0
M  V30 1240 C 108.559 -2.962 -3.08949 0
M  V30 1241 C 107.885 -2.9049 -4.48909 0
M  V30 1242 C 109.185 -4.36752 -2.86434 0
M  V30 1243 H 110.879 -2.64527 -1.40234 0
M  V30 1244 H 108.425 -1.27295 -0.673201 0
M  V30 1245 H 110.378 -1.94719 -3.73714 0
M  V30 1246 H 109.102 -0.850147 -3.15341 0
M  V30 1247 H 107.761 -2.82164 -2.3405 0
M  V30 1248 H 107.409 -1.92321 -4.64781 0
M  V30 1249 H 107.109 -3.67802 -4.58253 0
M  V30 1250 H 108.633 -3.06218 -5.28264 0
M  V30 1251 H 110.047 -4.5133 -3.53517 0
M  V30 1252 H 108.444 -5.15493 -3.07225 0
M  V30 1253 H 109.514 -4.49321 -1.82316 0
M  V30 1254 N 110.857 0.726932 -1.39834 0
M  V30 1255 C 111.807 1.83232 -1.35683 0
M  V30 1256 C 112.791 1.59155 -0.236295 0
M  V30 1257 O 113.983 1.70522 -0.474488 0
M  V30 1258 C 111.112 3.21246 -1.21062 0
M  V30 1259 C 110.198 3.51125 -2.37849 0
M  V30 1260 N 110.589 3.51889 -3.63329 0
M  V30 1261 C 108.887 3.81527 -2.30982 0
M  V30 1262 C 109.588 3.79791 -4.40606 0
M  V30 1263 N 108.564 3.97971 -3.70297 0
M  V30 1264 H 112.366 1.8214 -2.30656 0
M  V30 1265 H 109.88 0.925545 -1.33444 0
M  V30 1266 H 111.877 4.00387 -1.16171 0
M  V30 1267 H 110.537 3.23572 -0.270458 0
M  V30 1268 H 111.548 3.33008 -3.96643 0
M  V30 1269 H 108.225 3.91411 -1.45272 0
M  V30 1270 H 109.615 3.86783 -5.49408 0
M  V30 1271 N 112.336 1.25143 0.95797 0
M  V30 1272 C 113.613 1.00472 1.67823 0
M  V30 1273 C 113.993 -0.470056 2.058 0
M  V30 1274 O 113.341 -1.44663 1.76875 0
M  V30 1275 C 113.551 1.9372 2.90299 0
M  V30 1276 C 114.899 2.21371 3.62326 0
M  V30 1277 O 115.923 1.91451 3.00375 0
M  V30 1278 O 114.782 2.72231 4.7387 0
M  V30 1279 H 111.876 0.380752 0.734137 0
M  V30 1280 H 114.422 1.36283 1.01119 0
M  V30 1281 H 113.194 2.93316 2.59001 0
M  V30 1282 H 112.817 1.58286 3.64735 0
M  V30 1283 N 113.814 -1.1601 1.06675 0
M  V30 1284 C 115.039 -1.91068 0.806706 0
M  V30 1285 C 115.464 -1.77112 -0.633485 0
M  V30 1286 O 114.822 -1.09908 -1.44187 0
M  V30 1287 C 114.87 -3.39655 1.21106 0
M  V30 1288 O 113.974 -4.10893 0.352189 0
M  V30 1289 H 113.315 -0.595125 0.294486 0
M  V30 1290 H 115.845 -1.46955 1.42356 0
M  V30 1291 H 115.855 -3.90434 1.18428 0
M  V30 1292 H 114.53 -3.49132 2.26008 0
M  V30 1293 H 113.107 -3.70285 0.440868 0
M  V30 1294 N 115.292 -0.849877 -1.32721 0
M  V30 1295 C 116.541 -0.447175 -1.96681 0
M  V30 1296 C 116.854 1.00135 -1.68025 0
M  V30 1297 O 118.06 1.50926 -2.25685 0
M  V30 1298 C 116.516 -0.7487 -3.52026 0
M  V30 1299 C 116.124 -2.21264 -3.89546 0
M  V30 1300 C 117.868 -0.413487 -4.22481 0
M  V30 1301 C 115.775 -2.45763 -5.37917 0
M  V30 1302 H 114.705 -0.163486 -0.736063 0
M  V30 1303 H 117.356 -1.03999 -1.51183 0
M  V30 1304 H 115.738 -0.0853727 -3.95908 0
M  V30 1305 H 116.912 -2.91736 -3.56689 0
M  V30 1306 H 115.227 -2.5119 -3.32103 0
M  V30 1307 H 117.824 -0.574017 -5.3161 0
M  V30 1308 H 118.167 0.644492 -4.11281 0
M  V30 1309 H 118.7 -1.03251 -3.84167 0
M  V30 1310 H 115.439 -3.50168 -5.54132 0
M  V30 1311 H 114.959 -1.79864 -5.72197 0
M  V30 1312 H 116.638 -2.29471 -6.0494 0
M  V30 1313 N 116.77 1.45427 -0.607355 0
M  V30 1314 C 117.995 2.07124 -0.107006 0
M  V30 1315 C 118.42 1.44906 1.19933 0
M  V30 1316 O 117.778 0.541687 1.73019 0
M  V30 1317 C 117.826 3.60595 0.0194119 0
M  V30 1318 O 116.93 3.98285 1.0697 0
M  V30 1319 H 116.271 0.659868 -0.0739597 0
M  V30 1320 H 118.801 1.86683 -0.837297 0
M  V30 1321 H 118.811 4.07419 0.2177 0
M  V30 1322 H 117.486 4.05266 -0.934453 0
M  V30 1323 H 116.063 3.63133 0.847889 0
M  V30 1324 N 118.248 0.346503 1.53744 0
M  V30 1325 C 119.158 -0.517293 2.28826 0
M  V30 1326 C 120.174 -1.10935 1.3405 0
M  V30 1327 O 121.35 -1.1244 1.6709 0
M  V30 1328 C 118.415 -1.65098 3.04866 0
M  V30 1329 C 117.476 -1.0884 4.15274 0
M  V30 1330 C 116.709 -2.16806 4.87679 0
M  V30 1331 O 116.932 -3.3758 4.59778 0
M  V30 1332 O 115.866 -1.80934 5.74061 0
M  V30 1333 H 119.692 0.0931396 3.03557 0
M  V30 1334 H 117.277 0.111458 1.48984 0
M  V30 1335 H 119.159 -2.31053 3.5241 0
M  V30 1336 H 117.834 -2.24717 2.32989 0
M  V30 1337 H 116.741 -0.3933 3.72027 0
M  V30 1338 H 118.074 -0.537036 4.89261 0
M  V30 1339 N 119.726 -1.57421 0.075193 0
M  V30 1340 C 120.636 -2.1642 -0.905511 0
M  V30 1341 C 121.652 -1.12828 -1.32461 0
M  V30 1342 O 122.828 -1.45109 -1.39661 0
M  V30 1343 C 119.893 -2.71693 -2.15369 0
M  V30 1344 C 118.954 -3.90171 -1.79068 0
M  V30 1345 C 118.187 -4.42798 -2.97936 0
M  V30 1346 O 118.41 -3.94416 -4.12058 0
M  V30 1347 O 117.344 -5.34085 -2.77555 0
M  V30 1348 H 121.17 -3.00588 -0.433626 0
M  V30 1349 H 118.755 -1.48664 -0.148067 0
M  V30 1350 H 120.637 -3.07104 -2.88557 0
M  V30 1351 H 119.312 -1.90582 -2.61649 0
M  V30 1352 H 118.219 -3.59606 -1.03122 0
M  V30 1353 H 119.552 -4.72584 -1.37569 0
M  V30 1354 N 121.204 0.198386 -1.56346 0
M  V30 1355 C 122.452 0.91747 -1.80075 0
M  V30 1356 C 122.773 1.83929 -0.647692 0
M  V30 1357 O 122.043 1.93029 0.334166 0
M  V30 1358 H 120.623 0.341774 -0.664228 0
M  V30 1359 H 123.285 0.204684 -1.93822 0
M  V30 1360 H 122.381 1.51055 -2.7311 0
M  V30 1361 N 122.682 1.50554 0.465978 0
M  V30 1362 C 123.632 1.66177 1.56106 0
M  V30 1363 C 124.616 0.516265 1.52393 0
M  V30 1364 O 125.808 0.770906 1.5933 0
M  V30 1365 C 122.937 1.76396 2.94515 0
M  V30 1366 C 122.023 2.9664 3.03093 0
M  V30 1367 N 122.414 4.20245 2.81474 0
M  V30 1368 C 120.712 2.95304 3.34233 0
M  V30 1369 C 121.413 5.01259 2.95151 0
M  V30 1370 N 120.389 4.35318 3.25576 0
M  V30 1371 H 124.191 2.59434 1.38099 0
M  V30 1372 H 121.705 1.47808 0.6728 0
M  V30 1373 H 123.702 1.85694 3.73261 0
M  V30 1374 H 122.362 0.843017 3.13565 0
M  V30 1375 H 123.373 4.4966 2.56956 0
M  V30 1376 H 120.05 2.12729 3.59239 0
M  V30 1377 H 121.44 6.09564 2.82632 0
M  V30 1378 N 124.16 -0.719506 1.40217 0
M  V30 1379 C 125.11 -1.8251 1.36653 0
M  V30 1380 C 126.094 -1.59028 0.244732 0
M  V30 1381 O 127.286 -1.70268 0.483524 0
M  V30 1382 C 124.415 -3.20599 1.22763 0
M  V30 1383 C 123.501 -3.49858 2.39708 0
M  V30 1384 N 123.892 -3.49957 3.6519 0
M  V30 1385 C 122.19 -3.80297 2.33002 0
M  V30 1386 C 122.891 -3.77449 4.42614 0
M  V30 1387 N 121.867 -3.96002 3.72402 0
M  V30 1388 H 125.669 -1.80914 2.31619 0
M  V30 1389 H 123.183 -0.918455 1.33933 0
M  V30 1390 H 125.18 -3.99766 1.18292 0
M  V30 1391 H 123.84 -3.23424 0.287614 0
M  V30 1392 H 124.851 -3.309 3.98404 0
M  V30 1393 H 121.528 -3.90635 1.47346 0
M  V30 1394 H 122.918 -3.83863 5.51451 0
M  V30 1395 N 125.638 -1.25649 -0.95132 0
M  V30 1396 C 126.868 -1.13179 -1.72841 0
M  V30 1397 C 127.276 0.316827 -1.86528 0
M  V30 1398 O 126.619 1.22948 -1.3649 0
M  V30 1399 C 126.681 -1.71644 -3.15878 0
M  V30 1400 C 126.345 -3.20667 -3.25609 0
M  V30 1401 C 127.342 -4.17616 -3.09666 0
M  V30 1402 C 125.027 -3.6094 -3.49324 0
M  V30 1403 C 127.021 -5.52817 -3.17289 0
M  V30 1404 C 124.708 -4.96278 -3.56584 0
M  V30 1405 C 125.706 -5.92025 -3.40581 0
M  V30 1406 O 125.394 -7.24899 -3.47528 0
M  V30 1407 H 125.126 -0.395389 -0.54831 0
M  V30 1408 H 127.68 -1.66566 -1.20187 0
M  V30 1409 H 125.91 -1.12707 -3.69911 0
M  V30 1410 H 127.599 -1.54225 -3.75459 0
M  V30 1411 H 128.365 -3.87842 -2.91211 0
M  V30 1412 H 124.244 -2.86907 -3.6084 0
M  V30 1413 H 127.788 -6.2753 -3.04716 0
M  V30 1414 H 123.685 -5.25716 -3.74556 0
M  V30 1415 H 124.453 -7.33039 -3.64138 0
M  V30 1416 N 127.117 1.15442 -1.07289 0
M  V30 1417 C 128.047 2.22312 -0.714107 0
M  V30 1418 C 129.028 1.67467 0.298155 0
M  V30 1419 O 130.213 1.93445 0.171048 0
M  V30 1420 C 127.343 3.47124 -0.110448 0
M  V30 1421 C 126.297 4.14926 -1.04979 0
M  V30 1422 C 125.623 5.33807 -0.308924 0
M  V30 1423 C 126.923 4.64762 -2.38314 0
M  V30 1424 H 128.617 2.5258 -1.6076 0
M  V30 1425 H 126.163 1.21404 -0.77441 0
M  V30 1426 H 128.116 4.21124 0.152482 0
M  V30 1427 H 126.84 3.16187 0.81812 0
M  V30 1428 H 125.499 3.42866 -1.29764 0
M  V30 1429 H 125.147 4.99126 0.623084 0
M  V30 1430 H 124.847 5.80113 -0.935036 0
M  V30 1431 H 126.371 6.10576 -0.0537771 0
M  V30 1432 H 127.785 5.30292 -2.1786 0
M  V30 1433 H 126.182 5.21728 -2.96514 0
M  V30 1434 H 127.252 3.80434 -3.00663 0
M  V30 1435 N 128.595 0.856903 1.32268 0
M  V30 1436 C 129.844 0.457599 1.96441 0
M  V30 1437 C 130.157 -0.992426 1.68553 0
M  V30 1438 O 131.363 -1.49727 2.26482 0
M  V30 1439 C 129.819 0.767358 3.51624 0
M  V30 1440 C 129.427 2.23326 3.88367 0
M  V30 1441 C 131.171 0.435887 4.22256 0
M  V30 1442 C 129.078 2.48613 5.36606 0
M  V30 1443 H 128.008 0.167387 0.735185 0
M  V30 1444 H 130.659 1.048 1.5063 0
M  V30 1445 H 129.041 0.106367 3.95857 0
M  V30 1446 H 130.215 2.93623 3.55137 0
M  V30 1447 H 128.53 2.52948 3.30766 0
M  V30 1448 H 131.127 0.602202 5.31298 0
M  V30 1449 H 131.47 -0.622672 4.11617 0
M  V30 1450 H 132.003 1.05286 3.83614 0
M  V30 1451 H 128.742 3.53101 5.52268 0
M  V30 1452 H 128.262 1.82896 5.71235 0
M  V30 1453 H 129.941 2.32676 6.03714 0
M  V30 1454 N 130.073 -1.45103 0.615059 0
M  V30 1455 C 131.32 -2.02183 0.113179 0
M  V30 1456 C 131.648 -1.48249 -1.25906 0
M  V30 1457 O 130.903 -0.650265 -1.84581 0
M  V30 1458 C 131.202 -3.57386 0.0318797 0
M  V30 1459 C 130.868 -4.30505 1.34077 0
M  V30 1460 C 129.53 -4.50197 1.69929 0
M  V30 1461 C 131.882 -4.72238 2.20546 0
M  V30 1462 C 129.21 -5.08881 2.91988 0
M  V30 1463 C 131.562 -5.32272 3.41861 0
M  V30 1464 C 130.226 -5.50187 3.77956 0
M  V30 1465 H 129.496 -0.739842 0.0414151 0
M  V30 1466 H 132.143 -1.74073 0.798168 0
M  V30 1467 H 130.448 -3.84817 -0.736409 0
M  V30 1468 H 132.145 -3.99264 -0.372712 0
M  V30 1469 H 128.735 -4.15496 1.05173 0
M  V30 1470 H 132.919 -4.56751 1.94146 0
M  V30 1471 H 128.175 -5.20939 3.2005 0
M  V30 1472 H 132.349 -5.63563 4.09109 0
M  V30 1473 H 129.976 -5.95427 4.72622 0
M  V30 1474 N 131.551 -0.354651 -1.53558 0
M  V30 1475 C 132.828 0.294281 -1.93374 0
M  V30 1476 C 133.208 1.67313 -1.28723 0
M  V30 1477 O 132.556 2.24179 -0.442247 0
M  V30 1478 C 132.766 0.355445 -3.47185 0
M  V30 1479 C 134.114 0.601007 -4.20325 0
M  V30 1480 O 135.138 0.437106 -3.53508 0
M  V30 1481 O 133.997 0.919322 -5.38712 0
M  V30 1482 H 131.091 0.174033 -0.808481 0
M  V30 1483 H 133.637 -0.406638 -1.64756 0
M  V30 1484 H 132.409 -0.611729 -3.86489 0
M  V30 1485 H 132.032 1.1027 -3.82003 0
M  V30 1486 N 133.029 1.57378 -0.0835403 0
M  V30 1487 C 133.959 2.1641 0.87686 0
M  V30 1488 C 134.94 1.09429 1.30228 0
M  V30 1489 O 136.125 1.37516 1.37124 0
M  V30 1490 C 133.255 2.73517 2.14022 0
M  V30 1491 C 132.209 3.85769 1.85381 0
M  V30 1492 C 131.535 4.29529 3.18448 0
M  V30 1493 C 132.835 5.09486 1.14984 0
M  V30 1494 H 134.529 2.96914 0.385059 0
M  V30 1495 H 132.075 1.42823 0.18377 0
M  V30 1496 H 134.028 3.13463 2.81636 0
M  V30 1497 H 132.752 1.90252 2.65465 0
M  V30 1498 H 131.411 3.46345 1.20169 0
M  V30 1499 H 131.059 3.43169 3.67755 0
M  V30 1500 H 130.759 5.05204 3.00071 0
M  V30 1501 H 132.283 4.72099 3.8724 0
M  V30 1502 H 133.697 5.46674 1.72687 0
M  V30 1503 H 132.094 5.90515 1.06826 0
M  V30 1504 H 133.164 4.84724 0.130749 0
M  V30 1505 N 134.507 -0.190092 1.56449 0
M  V30 1506 C 135.753 -0.911052 1.81184 0
M  V30 1507 C 136.086 -1.82699 0.658396 0
M  V30 1508 O 135.361 -1.91491 -0.340775 0
M  V30 1509 C 135.644 -1.72297 3.16205 0
M  V30 1510 C 135.497 -0.831419 4.42049 0
M  V30 1511 C 136.816 -2.69454 3.47969 0
M  V30 1512 H 133.935 -0.32977 0.659106 0
M  V30 1513 H 136.577 -0.178169 1.89163 0
M  V30 1514 H 134.727 -2.34778 3.09534 0
M  V30 1515 H 136.399 -0.220929 4.60771 0
M  V30 1516 H 134.642 -0.138406 4.33579 0
M  V30 1517 H 135.313 -1.43461 5.33032 0
M  V30 1518 H 137.789 -2.17104 3.54972 0
M  V30 1519 H 136.665 -3.23342 4.43555 0
M  V30 1520 H 136.926 -3.48744 2.71717 0
M  V30 1521 N 135.985 -1.50799 -0.457987 0
M  V30 1522 C 137.213 -1.66218 -1.23203 0
M  V30 1523 C 137.628 -0.350894 -1.85511 0
M  V30 1524 O 136.985 0.668546 -1.69814 0
M  V30 1525 C 137.036 -2.76291 -2.33121 0
M  V30 1526 O 136.757 -4.02338 -1.73366 0
M  V30 1527 C 138.258 -3.028 -3.2377 0
M  V30 1528 H 135.478 -0.558361 -0.372121 0
M  V30 1529 H 138.022 -1.97099 -0.545179 0
M  V30 1530 H 136.177 -2.48068 -2.97558 0
M  V30 1531 H 136.591 -4.63312 -2.4585 0
M  V30 1532 H 138.065 -3.8345 -3.97077 0
M  V30 1533 H 138.542 -2.14385 -3.83322 0
M  V30 1534 H 139.148 -3.32604 -2.65056 0
M  V30 1535 N 137.463 0.71206 -1.40597 0
M  V30 1536 C 138.711 1.46907 -1.38791 0
M  V30 1537 C 139.032 1.94998 0.00780391 0
M  V30 1538 O 138.302 1.70587 0.963174 0
M  V30 1539 H 136.882 0.545043 -0.51082 0
M  V30 1540 H 139.544 0.843882 -1.75683 0
M  V30 1541 H 138.64 2.34021 -2.06496 0
M  V30 1542 N 138.941 1.26152 0.944643 0
M  V30 1543 C 140.189 1.11271 1.6871 0
M  V30 1544 C 140.51 -0.345166 1.91921 0
M  V30 1545 O 139.78 -1.24387 1.51343 0
M  V30 1546 H 138.36 0.408783 0.625224 0
M  V30 1547 H 141.022 1.58427 1.1352 0
M  V30 1548 H 140.118 1.62879 2.66227 0
M  V30 1549 N 140.419 -1.14872 1.07899 0
M  V30 1550 C 141.329 -2.2341 0.715915 0
M  V30 1551 C 142.345 -1.71808 -0.275306 0
M  V30 1552 O 143.521 -2.01039 -0.120545 0
M  V30 1553 C 140.586 -3.46474 0.125168 0
M  V30 1554 C 139.647 -4.13039 1.17034 0
M  V30 1555 C 138.88 -5.30229 0.607688 0
M  V30 1556 O 139.103 -5.675 -0.574497 0
M  V30 1557 O 138.037 -5.86444 1.35526 0
M  V30 1558 H 141.863 -2.56808 1.62121 0
M  V30 1559 H 139.448 -1.22702 0.852322 0
M  V30 1560 H 141.33 -4.20917 -0.201729 0
M  V30 1561 H 140.005 -3.14811 -0.753364 0
M  V30 1562 H 138.912 -3.40493 1.54968 0
M  V30 1563 H 140.245 -4.48796 2.02097 0
M  V30 1564 N 141.898 -0.863906 -1.31812 0
M  V30 1565 C 142.828 -0.330843 -2.31144 0
M  V30 1566 C 143.809 0.575005 -1.60087 0
M  V30 1567 O 144.994 0.493304 -1.8783 0
M  V30 1568 C 142.124 0.47374 -3.44054 0
M  V30 1569 C 141.078 -0.338481 -4.26659 0
M  V30 1570 C 140.404 0.591412 -5.31419 0
M  V30 1571 C 141.704 -1.56926 -4.98168 0
M  V30 1572 H 143.398 -1.16086 -2.75979 0
M  V30 1573 H 140.944 -0.559657 -1.32679 0
M  V30 1574 H 142.897 0.857143 -4.12591 0
M  V30 1575 H 141.621 1.33721 -2.9797 0
M  V30 1576 H 140.28 -0.703754 -3.59782 0
M  V30 1577 H 139.928 1.45199 -4.81587 0
M  V30 1578 H 139.628 0.0519022 -5.87577 0
M  V30 1579 H 141.152 0.97179 -6.02817 0
M  V30 1580 H 142.566 -1.25764 -5.59336 0
M  V30 1581 H 140.963 -2.04739 -5.64094 0
M  V30 1582 H 142.033 -2.32544 -4.25501 0
M  V30 1583 N 143.376 1.44774 -0.622745 0
M  V30 1584 C 144.623 2.02121 -0.1239 0
M  V30 1585 C 144.951 1.48915 1.25118 0
M  V30 1586 O 144.206 0.660045 1.84233 0
M  V30 1587 C 144.505 3.57364 -0.0508323 0
M  V30 1588 C 144.171 4.29787 -1.36358 0
M  V30 1589 C 142.833 4.4929 -1.72314 0
M  V30 1590 C 145.185 4.71062 -2.23048 0
M  V30 1591 C 142.513 5.07325 -2.94682 0
M  V30 1592 C 144.865 5.30452 -3.44679 0
M  V30 1593 C 143.529 5.48175 -3.80868 0
M  V30 1594 H 142.799 0.739612 -0.0453381 0
M  V30 1595 H 145.446 1.73648 -0.807389 0
M  V30 1596 H 143.751 3.85202 0.715991 0
M  V30 1597 H 145.448 3.99456 0.351533 0
M  V30 1598 H 142.038 4.14932 -1.07375 0
M  V30 1599 H 146.222 4.55715 -1.96565 0
M  V30 1600 H 141.478 5.19235 -3.22809 0
M  V30 1601 H 145.652 5.61385 -4.12092 0
M  V30 1602 H 143.279 5.92912 -4.75773 0
M  V30 1603 N 144.854 0.36279 1.53368 0
M  V30 1604 C 145.764 -0.492994 2.29362 0
M  V30 1605 C 146.78 -1.09507 1.35219 0
M  V30 1606 O 147.956 -1.10662 1.68273 0
M  V30 1607 C 145.021 -1.61855 3.066 0
M  V30 1608 C 144.082 -1.04429 4.16405 0
M  V30 1609 C 143.315 -2.11621 4.89951 0
M  V30 1610 O 143.538 -3.32684 4.63333 0
M  V30 1611 O 142.472 -1.74835 5.75948 0
M  V30 1612 H 146.298 0.125331 3.03441 0
M  V30 1613 H 143.883 0.127253 1.48857 0
M  V30 1614 H 145.765 -2.27302 3.54841 0
M  V30 1615 H 144.44 -2.22233 2.3536 0
M  V30 1616 H 143.347 -0.353819 3.72423 0
M  V30 1617 H 144.68 -0.485113 4.89804 0
M  V30 1618 N 146.332 -1.57332 0.0918853 0
M  V30 1619 C 147.609 -1.85691 -0.614668 0
M  V30 1620 C 147.989 -0.988146 -1.86545 0
M  V30 1621 O 147.337 -0.0597055 -2.28422 0
M  V30 1622 C 147.547 -3.36294 -0.933126 0
M  V30 1623 C 148.895 -4.04275 -1.29796 0
M  V30 1624 O 149.919 -3.41157 -1.02424 0
M  V30 1625 O 148.778 -5.1564 -1.81047 0
M  V30 1626 H 145.872 -0.767802 -0.307261 0
M  V30 1627 H 148.418 -1.69244 0.12434 0
M  V30 1628 H 147.19 -3.91273 -0.0456404 0
M  V30 1629 H 146.813 -3.58076 -1.72822 0
M  V30 1630 N 147.81 0.181792 -1.56548 0
M  V30 1631 C 149.059 0.898348 -1.8059 0
M  V30 1632 C 149.372 1.83862 -0.667379 0
M  V30 1633 O 150.578 2.59678 -0.792446 0
M  V30 1634 C 149.034 1.64791 -3.19956 0
M  V30 1635 C 148.642 0.751789 -4.41647 0
M  V30 1636 C 150.386 2.35331 -3.53298 0
M  V30 1637 C 148.293 1.50098 -5.72035 0
M  V30 1638 H 147.223 0.339194 -0.673397 0
M  V30 1639 H 149.874 0.151413 -1.82874 0
M  V30 1640 H 148.256 2.43921 -3.11959 0
M  V30 1641 H 149.43 -0.0018076 -4.608 0
M  V30 1642 H 147.745 0.156562 -4.16106 0
M  V30 1643 H 150.342 2.91958 -4.47956 0
M  V30 1644 H 150.685 3.10164 -2.77676 0
M  V30 1645 H 151.218 1.63154 -3.62803 0
M  V30 1646 H 147.957 0.795175 -6.50659 0
M  V30 1647 H 147.477 2.22817 -5.56878 0
M  V30 1648 H 149.156 2.05125 -6.13622 0
M  V30 1649 N 149.288 1.51039 0.449983 0
M  V30 1650 C 150.534 1.63322 1.20223 0
M  V30 1651 C 150.867 0.34241 1.91158 0
M  V30 1652 O 150.142 -0.657344 1.83055 0
M  V30 1653 C 150.425 2.82801 2.22925 0
M  V30 1654 C 150.278 4.21823 1.56157 0
M  V30 1655 C 151.597 2.97807 3.24035 0
M  V30 1656 H 148.716 0.594407 0.435718 0
M  V30 1657 H 151.358 1.83489 0.493136 0
M  V30 1658 H 149.508 2.65738 2.834 0
M  V30 1659 H 151.18 4.50526 0.991162 0
M  V30 1660 H 149.423 4.25105 0.864172 0
M  V30 1661 H 150.094 5.01391 2.30891 0
M  V30 1662 H 152.57 3.13497 2.73603 0
M  V30 1663 H 151.446 3.82992 3.93202 0
M  V30 1664 H 151.707 2.09328 3.89402 0
M  V30 1665 N 150.766 -0.704594 1.40972 0
M  V30 1666 C 151.729 -1.80035 1.41845 0
M  V30 1667 C 152.729 -1.57774 0.310474 0
M  V30 1668 O 153.919 -1.64613 0.56992 0
M  V30 1669 C 151.051 -3.18284 1.22098 0
M  V30 1670 H 152.244 -1.80658 2.3938 0
M  V30 1671 H 149.797 -0.911329 1.26982 0
M  V30 1672 H 150.532 -3.23306 0.253672 0
M  V30 1673 H 150.317 -3.35843 2.02366 0
M  V30 1674 H 151.807 -3.98289 1.25522 0
M  V30 1675 N 152.244 -1.26651 -0.937939 0
M  V30 1676 C 153.66 -1.03834 -1.21205 0
M  V30 1677 C 153.86 0.234502 -2.00131 0
M  V30 1678 O 152.916 0.942767 -2.3424 0
M  V30 1679 C 154.229 -2.27167 -1.97017 0
M  V30 1680 C 155.777 -2.32101 -2.09996 0
M  V30 1681 C 156.252 -3.55136 -2.8921 0
M  V30 1682 N 157.743 -3.55632 -2.96783 0
M  V30 1683 C 158.478 -4.475 -3.58512 0
M  V30 1684 N 157.974 -5.4966 -4.21717 0
M  V30 1685 N 159.767 -4.35145 -3.55816 0
M  V30 1686 H 151.918 -2.08398 -0.410391 0
M  V30 1687 H 154.181 -0.916031 -0.244114 0
M  V30 1688 H 153.887 -3.19765 -1.46434 0
M  V30 1689 H 153.761 -2.31672 -2.97671 0
M  V30 1690 H 156.148 -1.40015 -2.59769 0
M  V30 1691 H 156.229 -2.31605 -1.08594 0
M  V30 1692 H 155.873 -4.47553 -2.40123 0
M  V30 1693 H 155.803 -3.5288 -3.90875 0
M  V30 1694 H 158.294 -2.81743 -2.51852 0
M  V30 1695 H 158.607 -6.15943 -4.66727 0
M  V30 1696 H 156.952 -5.53514 -4.20294 0
M  V30 1697 H 160.143 -3.5455 -3.05634 0
M  V30 1698 H 160.316 -5.06934 -4.03636 0
M  V30 1699 N 153.722 1.14298 -1.08507 0
M  V30 1700 C 154.632 2.23027 -0.727753 0
M  V30 1701 C 155.648 1.71952 0.26619 0
M  V30 1702 O 156.824 2.011 0.109882 0
M  V30 1703 C 153.889 3.46403 -0.143541 0
M  V30 1704 C 152.95 4.12413 -1.19223 0
M  V30 1705 C 152.183 5.29899 -0.635798 0
M  V30 1706 O 152.406 5.67796 0.544393 0
M  V30 1707 O 151.34 5.85717 -1.38634 0
M  V30 1708 H 155.166 2.55945 -1.63481 0
M  V30 1709 H 152.751 1.22248 -0.858817 0
M  V30 1710 H 154.633 4.21018 0.179404 0
M  V30 1711 H 153.308 3.15206 0.736659 0
M  V30 1712 H 152.215 3.39667 -1.56772 0
M  V30 1713 H 153.548 4.47718 -2.04474 0
M  V30 1714 N 155.201 0.870884 1.31352 0
M  V30 1715 C 156.431 0.496049 2.00557 0
M  V30 1716 C 156.839 -0.916241 1.65534 0
M  V30 1717 O 156.182 -1.61188 0.881134 0
M  V30 1718 C 156.244 0.574418 3.54881 0
M  V30 1719 C 155.908 1.94849 4.1338 0
M  V30 1720 C 156.905 2.91611 4.30417 0
M  V30 1721 C 154.59 2.25005 4.49086 0
M  V30 1722 C 156.584 4.16672 4.82352 0
M  V30 1723 C 154.271 3.50315 5.00722 0
M  V30 1724 C 155.269 4.45964 5.17306 0
M  V30 1725 O 154.957 5.69052 5.67833 0
M  V30 1726 H 154.689 0.191664 0.64826 0
M  V30 1727 H 157.243 1.17409 1.68536 0
M  V30 1728 H 155.473 -0.160549 3.86367 0
M  V30 1729 H 157.162 0.212879 4.05341 0
M  V30 1730 H 157.928 2.69622 4.03149 0
M  V30 1731 H 153.807 1.51332 4.35453 0
M  V30 1732 H 157.351 4.91336 4.95211 0
M  V30 1733 H 153.248 3.72147 5.27424 0
M  V30 1734 H 154.016 5.71236 5.86201 0
M  V30 1735 N 156.679 -1.44442 0.630414 0
M  V30 1736 C 157.909 -2.06115 0.141465 0
M  V30 1737 C 158.317 -1.47179 -1.1889 0
M  V30 1738 O 157.66 -0.588873 -1.74006 0
M  V30 1739 C 157.722 -3.59467 -0.0484355 0
M  V30 1740 C 157.386 -4.40864 1.20366 0
M  V30 1741 C 158.383 -4.74391 2.12719 0
M  V30 1742 C 156.068 -4.8125 1.43887 0
M  V30 1743 C 158.062 -5.47186 3.26904 0
M  V30 1744 C 155.749 -5.53795 2.5837 0
M  V30 1745 C 156.747 -5.86682 3.49705 0
M  V30 1746 O 156.435 -6.57749 4.62191 0
M  V30 1747 H 156.167 -0.671648 0.0765792 0
M  V30 1748 H 158.721 -1.86312 0.864695 0
M  V30 1749 H 156.951 -3.77758 -0.826803 0
M  V30 1750 H 158.64 -4.02909 -0.491849 0
M  V30 1751 H 159.406 -4.43728 1.95781 0
M  V30 1752 H 155.285 -4.55073 0.736853 0
M  V30 1753 H 158.829 -5.72773 3.98217 0
M  V30 1754 H 154.726 -5.83872 2.75251 0
M  V30 1755 H 155.494 -6.76217 4.61164 0
M  V30 1756 N 158.157 -0.370918 -1.53173 0
M  V30 1757 C 159.382 0.220293 -2.06227 0
M  V30 1758 C 159.807 1.41243 -1.24225 0
M  V30 1759 O 159.165 1.79387 -0.262645 0
M  V30 1760 C 159.213 0.586663 -3.55796 0
M  V30 1761 O 158.317 1.68317 -3.76488 0
M  V30 1762 H 157.658 0.0308099 -0.663285 0
M  V30 1763 H 160.188 -0.533068 -1.97534 0
M  V30 1764 H 160.198 0.85617 -3.98916 0
M  V30 1765 H 158.873 -0.285013 -4.14922 0
M  V30 1766 H 157.45 1.40881 -3.45264 0
M  V30 1767 N 159.635 1.57281 -0.100228 0
M  V30 1768 C 160.545 2.17833 0.870965 0
M  V30 1769 C 161.561 1.14921 1.30649 0
M  V30 1770 O 162.737 1.47313 1.37335 0
M  V30 1771 C 159.802 2.75085 2.1102 0
M  V30 1772 C 158.863 3.9297 1.72838 0
M  V30 1773 C 158.096 4.47482 2.90854 0
M  V30 1774 O 158.319 4.00922 4.05731 0
M  V30 1775 O 157.253 5.38433 2.69023 0
M  V30 1776 H 161.079 3.0124 0.38575 0
M  V30 1777 H 158.664 1.48881 0.124397 0
M  V30 1778 H 160.546 3.11656 2.83634 0
M  V30 1779 H 159.221 1.94721 2.58584 0
M  V30 1780 H 158.128 3.61201 0.973883 0
M  V30 1781 H 159.461 4.74713 1.30033 0
M  V30 1782 N 161.113 -0.173488 1.56642 0
M  V30 1783 C 162.076 -1.19859 1.95362 0
M  V30 1784 C 163.076 -1.37296 0.83704 0
M  V30 1785 O 164.266 -1.34739 1.10413 0
M  V30 1786 C 161.398 -2.56405 2.24654 0
M  V30 1787 H 162.591 -0.867062 2.87092 0
M  V30 1788 H 160.144 -0.415853 1.50666 0
M  V30 1789 H 160.879 -2.94576 1.35631 0
M  V30 1790 H 160.664 -2.45115 3.06041 0
M  V30 1791 H 162.154 -3.30287 2.5554 0
M  V30 1792 N 162.591 -1.51276 -0.441967 0
M  V30 1793 C 163.868 -1.54252 -1.20273 0
M  V30 1794 C 164.248 -0.30408 -2.08898 0
M  V30 1795 O 163.596 0.711084 -2.17154 0
M  V30 1796 C 163.806 -2.85406 -2.00859 0
M  V30 1797 C 165.154 -3.37181 -2.58059 0
M  V30 1798 O 166.178 -2.86925 -2.11074 0
M  V30 1799 O 165.037 -4.24858 -3.43741 0
M  V30 1800 H 162.131 -0.619969 -0.547328 0
M  V30 1801 H 164.677 -1.63586 -0.451413 0
M  V30 1802 H 163.449 -3.67003 -1.35736 0
M  V30 1803 H 163.072 -2.79213 -2.83065 0
M  V30 1804 N 164.069 0.697108 -1.41344 0
M  V30 1805 C 165.032 1.79281 -1.42797 0
M  V30 1806 C 166.032 1.57607 -0.318837 0
M  V30 1807 O 167.222 1.64309 -0.578642 0
M  V30 1808 C 164.354 3.17632 -1.23785 0
M  V30 1809 H 165.547 1.79385 -2.40335 0
M  V30 1810 H 163.1 0.904582 -1.27464 0
M  V30 1811 H 163.835 3.23167 -0.270814 0
M  V30 1812 H 163.62 3.34765 -2.04144 0
M  V30 1813 H 165.11 3.97617 -1.27633 0
M  V30 1814 N 165.547 1.27147 0.931209 0
M  V30 1815 C 166.772 1.16191 1.71797 0
M  V30 1816 C 167.197 -0.278004 1.86034 0
M  V30 1817 O 166.555 -1.20137 1.35782 0
M  V30 1818 C 166.603 1.84673 3.09723 0
M  V30 1819 O 165.707 1.14231 3.96264 0
M  V30 1820 H 165.048 0.404303 0.526721 0
M  V30 1821 H 167.578 1.68152 1.1656 0
M  V30 1822 H 167.588 1.91893 3.60057 0
M  V30 1823 H 166.263 2.89421 2.98677 0
M  V30 1824 H 164.84 1.15056 3.54706 0
M  V30 1825 N 167.025 -1.13721 1.09112 0
M  V30 1826 C 167.975 -2.17082 0.697091 0
M  V30 1827 C 168.959 -1.58321 -0.286923 0
M  V30 1828 O 170.151 -1.7673 -0.0978008 0
M  V30 1829 C 167.28 -3.43105 0.115729 0
M  V30 1830 C 166.366 -4.0888 1.12596 0
M  V30 1831 N 166.757 -4.4987 2.31195 0
M  V30 1832 C 165.055 -4.35471 0.963366 0
M  V30 1833 C 165.756 -5.01094 2.95431 0
M  V30 1834 N 164.732 -4.95751 2.23006 0
M  V30 1835 H 168.534 -2.46524 1.6001 0
M  V30 1836 H 166.048 -1.30481 0.966869 0
M  V30 1837 H 168.045 -4.16491 -0.184555 0
M  V30 1838 H 166.705 -3.15138 -0.78217 0
M  V30 1839 H 167.716 -4.42678 2.68806 0
M  V30 1840 H 164.393 -4.17328 0.119878 0
M  V30 1841 H 165.783 -5.4263 3.96236 0
M  V30 1842 N 168.503 -0.877838 -1.30888 0
M  V30 1843 C 169.743 -0.499301 -1.98208 0
M  V30 1844 C 170.107 0.932649 -1.67826 0
M  V30 1845 O 171.308 1.41694 -2.28421 0
M  V30 1846 C 169.579 -0.758221 -3.49265 0
M  V30 1847 S 171.138 -0.480719 -4.36159 0
M  V30 1848 H 167.956 -0.186062 -0.686223 0
M  V30 1849 H 170.558 -1.13556 -1.59139 0
M  V30 1850 H 169.262 -1.79903 -3.68867 0
M  V30 1851 H 168.793 -0.109247 -3.93248 0
M  V30 1852 H 170.808 0.683698 -4.91467 0
M  V30 1853 N 169.982 1.44106 -0.638065 0
M  V30 1854 C 171.231 2.01194 -0.142744 0
M  V30 1855 C 171.544 1.50835 1.24532 0
M  V30 1856 O 172.75 2.00096 1.83504 0
M  V30 1857 C 171.206 3.59319 -0.20442 0
M  V30 1858 C 170.814 4.18674 -1.59423 0
M  V30 1859 C 172.558 4.23854 0.234079 0
M  V30 1860 C 170.465 5.69045 -1.61065 0
M  V30 1861 H 169.395 0.752367 -0.0495998 0
M  V30 1862 H 172.046 1.65246 -0.797881 0
M  V30 1863 H 170.428 3.92598 0.517946 0
M  V30 1864 H 171.602 3.96921 -2.34074 0
M  V30 1865 H 169.917 3.66453 -1.97741 0
M  V30 1866 H 172.514 5.34155 0.241443 0
M  V30 1867 H 172.857 3.96688 1.2627 0
M  V30 1868 H 173.39 3.95403 -0.436025 0
M  V30 1869 H 170.129 6.00956 -2.61787 0
M  V30 1870 H 169.649 5.929 -0.90718 0
M  V30 1871 H 171.328 6.32809 -1.34766 0
M  V30 1872 N 171.46 0.379036 1.52974 0
M  V30 1873 C 172.392 -0.495963 2.2377 0
M  V30 1874 C 173.405 -1.03517 1.25651 0
M  V30 1875 O 174.594 -0.939249 1.51791 0
M  V30 1876 C 171.694 -1.69894 2.93239 0
M  V30 1877 C 170.867 -1.2889 4.17979 0
M  V30 1878 C 169.926 -2.35543 4.70538 0
M  V30 1879 O 168.952 -1.97375 5.33883 0
M  V30 1880 N 170.154 -3.67318 4.49508 0
M  V30 1881 H 172.919 0.110523 2.99496 0
M  V30 1882 H 170.48 0.204878 1.60598 0
M  V30 1883 H 172.472 -2.40747 3.25304 0
M  V30 1884 H 171.042 -2.212 2.20883 0
M  V30 1885 H 170.262 -0.409676 3.92065 0
M  V30 1886 H 171.55 -0.991443 4.99047 0
M  V30 1887 H 170.948 -4.01095 3.98923 0
M  V30 1888 H 169.505 -4.34235 4.8609 0
M  V30 1889 N 172.938 -1.57226 0.108567 0
M  V30 1890 C 173.87 -2.11809 -0.875752 0
M  V30 1891 C 174.883 -1.05839 -1.23701 0
M  V30 1892 O 176.072 -1.33245 -1.18778 0
M  V30 1893 C 173.172 -2.59411 -2.18081 0
M  V30 1894 C 172.345 -3.89364 -1.99284 0
M  V30 1895 C 171.404 -4.22672 -3.13424 0
M  V30 1896 O 170.43 -4.91668 -2.86795 0
M  V30 1897 N 171.632 -3.79154 -4.3957 0
M  V30 1898 H 174.397 -2.9689 -0.409477 0
M  V30 1899 H 171.958 -1.61721 -0.076158 0
M  V30 1900 H 173.95 -2.7873 -2.93414 0
M  V30 1901 H 172.52 -1.79268 -2.5609 0
M  V30 1902 H 171.74 -3.79059 -1.08203 0
M  V30 1903 H 173.028 -4.74358 -1.84017 0
M  V30 1904 H 172.426 -3.23486 -4.64083 0
M  V30 1905 H 170.983 -4.03602 -5.11809 0
M  V30 1906 N 174.416 0.165178 -1.56732 0
M  V30 1907 C 175.665 0.879143 -1.81532 0
M  V30 1908 C 175.978 1.83144 -0.686842 0
M  V30 1909 O 177.184 2.58823 -0.819944 0
M  V30 1910 C 175.64 1.61388 -3.21686 0
M  V30 1911 C 175.248 0.704904 -4.4242 0
M  V30 1912 C 176.992 2.3157 -3.55774 0
M  V30 1913 C 174.899 1.44022 -5.73595 0
M  V30 1914 H 173.829 0.332033 -0.676957 0
M  V30 1915 H 176.48 0.132008 -1.83025 0
M  V30 1916 H 174.862 2.40599 -3.14529 0
M  V30 1917 H 176.036 -0.0506815 -4.60772 0
M  V30 1918 H 174.351 0.112419 -4.16248 0
M  V30 1919 H 176.948 2.8719 -4.51028 0
M  V30 1920 H 177.291 3.07201 -2.8095 0
M  V30 1921 H 177.824 1.59297 -3.64513 0
M  V30 1922 H 174.563 0.72612 -6.51466 0
M  V30 1923 H 174.083 2.16898 -5.5921 0
M  V30 1924 H 175.762 1.98606 -6.15764 0
M  V30 1925 N 175.894 1.51508 0.433938 0
M  V30 1926 C 176.824 1.76016 1.53429 0
M  V30 1927 C 177.805 0.610112 1.58782 0
M  V30 1928 O 178.99 0.853177 1.74455 0
M  V30 1929 C 176.12 1.88831 2.9148 0
M  V30 1930 C 175.074 3.04288 3.00987 0
M  V30 1931 C 174.4 3.0229 4.4105 0
M  V30 1932 C 175.7 4.44193 2.74754 0
M  V30 1933 H 177.394 2.68152 1.33171 0
M  V30 1934 H 174.94 1.29035 0.639214 0
M  V30 1935 H 176.893 2.04559 3.6842 0
M  V30 1936 H 175.617 0.933455 3.12976 0
M  V30 1937 H 174.276 2.8827 2.26486 0
M  V30 1938 H 173.924 2.04576 4.59519 0
M  V30 1939 H 173.624 3.79822 4.4834 0
M  V30 1940 H 175.148 3.20116 5.1996 0
M  V30 1941 H 176.562 4.60544 3.41426 0
M  V30 1942 H 174.959 5.23457 2.9345 0
M  V30 1943 H 176.029 4.53996 1.70339 0
M  V30 1944 N 177.372 -0.689602 1.41712 0
M  V30 1945 C 178.282 -1.83314 1.46401 0
M  V30 1946 C 179.298 -1.7036 0.35405 0
M  V30 1947 O 180.474 -1.92171 0.602692 0
M  V30 1948 C 177.539 -3.19344 1.34982 0
M  V30 1949 C 176.6 -3.44363 2.56344 0
M  V30 1950 C 175.833 -4.73904 2.45461 0
M  V30 1951 O 176.056 -5.508 1.48241 0
M  V30 1952 O 174.99 -4.99839 3.35328 0
M  V30 1953 H 178.816 -1.82314 2.42889 0
M  V30 1954 H 176.401 -0.843438 1.23315 0
M  V30 1955 H 178.283 -4.00547 1.3092 0
M  V30 1956 H 176.958 -3.21014 0.41612 0
M  V30 1957 H 175.865 -2.63067 2.65982 0
M  V30 1958 H 177.198 -3.47512 3.48563 0
M  V30 1959 N 178.85 -1.27639 -0.924453 0
M  V30 1960 C 179.813 -1.10681 -2.00705 0
M  V30 1961 C 180.813 -0.0497823 -1.60723 0
M  V30 1962 O 182.003 -0.294654 -1.7169 0
M  V30 1963 C 179.135 -0.687164 -3.33902 0
M  V30 1964 H 180.328 -2.06817 -2.17179 0
M  V30 1965 H 177.881 -1.10473 -1.10569 0
M  V30 1966 H 178.616 0.275439 -3.23128 0
M  V30 1967 H 178.401 -1.45061 -3.6428 0
M  V30 1968 H 179.891 -0.590853 -4.13399 0
M  V30 1969 N 180.328 1.1314 -1.09713 0
M  V30 1970 C 181.574 1.84757 -0.836224 0
M  V30 1971 C 181.907 1.8347 0.636598 0
M  V30 1972 O 181.182 1.27491 1.46889 0
M  V30 1973 C 181.465 3.32782 -1.37578 0
M  V30 1974 C 181.318 3.42567 -2.91493 0
M  V30 1975 C 182.637 4.28307 -1.01198 0
M  V30 1976 H 179.756 0.67082 -0.305236 0
M  V30 1977 H 182.398 1.3278 -1.35903 0
M  V30 1978 H 180.548 3.77177 -0.931097 0
M  V30 1979 H 182.22 3.06862 -3.44432 0
M  V30 1980 H 180.463 2.83349 -3.28475 0
M  V30 1981 H 181.134 4.46674 -3.24324 0
M  V30 1982 H 183.61 3.91999 -1.39556 0
M  V30 1983 H 182.486 5.30307 -1.41653 0
M  V30 1984 H 182.747 4.42029 0.0794833 0
M  V30 1985 N 181.806 0.884767 1.30421 0
M  V30 1986 C 182.736 0.367574 2.30589 0
M  V30 1987 C 183.717 -0.549464 1.60981 0
M  V30 1988 O 184.902 -0.46336 1.88591 0
M  V30 1989 C 182.032 -0.418944 3.44764 0
M  V30 1990 C 180.986 0.406316 4.26067 0
M  V30 1991 C 180.312 -0.506793 5.32293 0
M  V30 1992 C 181.612 1.64832 4.95608 0
M  V30 1993 H 183.306 1.20462 2.74097 0
M  V30 1994 H 180.852 0.580695 1.31772 0
M  V30 1995 H 182.805 -0.791395 4.13902 0
M  V30 1996 H 181.529 -1.28964 3.0006 0
M  V30 1997 H 180.188 0.760903 3.58617 0
M  V30 1998 H 179.836 -1.37519 4.83836 0
M  V30 1999 H 179.536 0.0415828 5.87585 0
M  V30 2000 H 181.06 -0.875764 6.04287 0
M  V30 2001 H 182.474 1.34646 5.57264 0
M  V30 2002 H 180.871 2.13688 5.60765 0
M  V30 2003 H 181.941 2.39284 4.21748 0
M  V30 2004 N 183.284 -1.43765 0.645699 0
M  V30 2005 C 184.234 -2.27884 -0.0726442 0
M  V30 2006 C 185.218 -1.39483 -0.802086 0
M  V30 2007 O 186.41 -1.63174 -0.685791 0
M  V30 2008 C 183.539 -3.27055 -1.04356 0
M  V30 2009 C 182.625 -4.22944 -0.312985 0
M  V30 2010 N 183.016 -5.01391 0.666386 0
M  V30 2011 C 181.314 -4.42528 -0.55546 0
M  V30 2012 C 182.015 -5.71217 1.09935 0
M  V30 2013 N 180.991 -5.41856 0.435137 0
M  V30 2014 H 184.793 -2.85949 0.678988 0
M  V30 2015 H 182.307 -1.55378 0.472368 0
M  V30 2016 H 184.304 -3.86089 -1.57292 0
M  V30 2017 H 182.964 -2.70551 -1.79534 0
M  V30 2018 H 183.975 -5.07252 1.04481 0
M  V30 2019 H 180.652 -3.97104 -1.28899 0
M  V30 2020 H 182.042 -6.44202 1.90929 0
M  V30 2021 N 184.763 -0.387143 -1.52771 0
M  V30 2022 C 186.003 0.195537 -2.03463 0
M  V30 2023 C 186.367 1.44222 -1.26744 0
M  V30 2024 O 187.568 2.10192 -1.67549 0
M  V30 2025 C 185.839 0.459097 -3.54439 0
M  V30 2026 S 187.398 1.01237 -4.26962 0
M  V30 2027 H 184.216 0.0552675 -0.708849 0
M  V30 2028 H 186.818 -0.534992 -1.88037 0
M  V30 2029 H 185.522 -0.455382 -4.07866 0
M  V30 2030 H 185.053 1.21811 -3.74066 0
M  V30 2031 H 187.068 2.29492 -4.39941 0
M  V30 2032 N 186.241 1.57166 -0.116904 0
M  V30 2033 C 187.191 2.11756 0.845178 0
M  V30 2034 C 188.175 1.03783 1.22955 0
M  V30 2035 O 189.367 1.3002 1.20099 0
M  V30 2036 C 186.496 2.71886 2.09602 0
M  V30 2037 C 185.582 3.86937 1.7361 0
M  V30 2038 N 185.973 4.94073 1.08284 0
M  V30 2039 C 184.271 3.97082 2.03082 0
M  V30 2040 C 184.972 5.74477 0.913855 0
M  V30 2041 N 183.948 5.2423 1.43818 0
M  V30 2042 H 187.75 2.91967 0.336523 0
M  V30 2043 H 185.264 1.62174 0.0856332 0
M  V30 2044 H 187.261 3.09338 2.79492 0
M  V30 2045 H 185.921 1.93138 2.61013 0
M  V30 2046 H 186.932 5.12483 0.747067 0
M  V30 2047 H 183.609 3.29372 2.56554 0
M  V30 2048 H 184.999 6.70701 0.40125 0
M  V30 2049 N 187.719 -0.156864 1.56817 0
M  V30 2050 C 188.651 -1.21883 1.94106 0
M  V30 2051 C 189.664 -1.3971 0.835754 0
M  V30 2052 O 190.853 -1.39457 1.11418 0
M  V30 2053 C 187.953 -2.58527 2.19127 0
M  V30 2054 C 187.126 -2.61809 3.50393 0
M  V30 2055 C 186.185 -3.7992 3.64071 0
M  V30 2056 O 185.211 -3.65249 4.36557 0
M  V30 2057 N 186.413 -4.96973 2.99997 0
M  V30 2058 H 189.178 -0.901974 2.85805 0
M  V30 2059 H 186.739 -0.346513 1.58148 0
M  V30 2060 H 188.731 -3.36034 2.25529 0
M  V30 2061 H 187.301 -2.82545 1.33742 0
M  V30 2062 H 186.521 -1.7029 3.5552 0
M  V30 2063 H 187.809 -2.61024 4.36742 0
M  V30 2064 H 187.207 -5.11794 2.41004 0
M  V30 2065 H 185.764 -5.7229 3.11974 0
M  V30 2066 N 189.197 -1.51736 -0.425897 0
M  V30 2067 C 190.13 -1.68574 -1.53812 0
M  V30 2068 C 191.108 -0.53328 -1.53606 0
M  V30 2069 O 192.292 -0.758555 -1.72564 0
M  V30 2070 C 189.419 -1.70977 -2.92377 0
M  V30 2071 C 188.465 -2.92324 -3.10563 0
M  V30 2072 S 189.298 -4.52952 -2.85648 0
M  V30 2073 C 190.454 -4.58117 -4.26474 0
M  V30 2074 H 190.687 -2.62647 -1.39298 0
M  V30 2075 H 188.22 -1.41564 -0.616361 0
M  V30 2076 H 190.178 -1.73047 -3.72243 0
M  V30 2077 H 188.839 -0.78061 -3.04245 0
M  V30 2078 H 188.032 -2.90439 -4.11899 0
M  V30 2079 H 187.634 -2.88055 -2.38538 0
M  V30 2080 H 189.926 -4.34462 -5.19855 0
M  V30 2081 H 190.869 -5.59983 -4.33388 0
M  V30 2082 H 191.277 -3.8732 -4.10662 0
M  V30 2083 N 190.675 0.682077 -1.42076 0
M  V30 2084 C 191.923 1.4393 -1.41876 0
M  V30 2085 C 192.244 1.94971 -0.0335599 0
M  V30 2086 O 191.514 1.72591 0.926773 0
M  V30 2087 H 190.094 0.534085 -0.522267 0
M  V30 2088 H 192.756 0.806427 -1.77434 0
M  V30 2089 H 191.852 2.29588 -2.11414 0
M  V30 2090 N 192.153 1.28127 0.917671 0
M  V30 2091 C 193.399 1.15223 1.66888 0
M  V30 2092 C 193.732 -0.299293 1.9188 0
M  V30 2093 O 193.007 -1.21805 1.51637 0
M  V30 2094 C 193.29 1.94706 3.02922 0
M  V30 2095 C 193.143 3.47898 2.85109 0
M  V30 2096 C 194.462 1.75939 4.03402 0
M  V30 2097 H 191.581 0.419946 0.605652 0
M  V30 2098 H 194.223 1.57398 1.06423 0
M  V30 2099 H 192.373 1.58864 3.54534 0
M  V30 2100 H 194.045 3.93624 2.40537 0
M  V30 2101 H 192.288 3.7373 2.20246 0
M  V30 2102 H 192.959 3.98765 3.81694 0
M  V30 2103 H 195.435 2.07209 3.60837 0
M  V30 2104 H 194.311 2.33931 4.96556 0
M  V30 2105 H 194.572 0.709877 4.36364 0
M  V30 2106 N 193.631 -1.12557 1.10312 0
M  V30 2107 C 194.877 -1.84311 0.846011 0
M  V30 2108 C 195.21 -1.83805 -0.626859 0
M  V30 2109 O 194.485 -1.28268 -1.46211 0
M  V30 2110 C 194.768 -3.32048 1.39341 0
M  V30 2111 C 194.621 -3.41016 2.93305 0
M  V30 2112 C 195.94 -4.27764 1.03468 0
M  V30 2113 H 193.059 -0.669192 0.30879 0
M  V30 2114 H 195.701 -1.32057 1.36605 0
M  V30 2115 H 193.851 -3.76678 0.951087 0
M  V30 2116 H 195.523 -3.05031 3.46055 0
M  V30 2117 H 193.766 -2.81603 3.29973 0
M  V30 2118 H 194.437 -4.44948 3.26689 0
M  V30 2119 H 196.913 -3.91253 1.41633 0
M  V30 2120 H 195.789 -5.29549 1.44463 0
M  V30 2121 H 196.05 -4.42064 -0.0560404 0
M  V30 2122 N 195.109 -0.891671 -1.2995 0
M  V30 2123 C 196.059 -0.334811 -2.25528 0
M  V30 2124 C 197.043 0.540553 -1.51548 0
M  V30 2125 O 198.235 0.383882 -1.72787 0
M  V30 2126 C 195.364 0.44374 -3.4042 0
M  V30 2127 C 194.45 -0.44609 -4.21747 0
M  V30 2128 N 194.841 -1.54963 -4.81477 0
M  V30 2129 C 193.139 -0.242415 -4.45341 0
M  V30 2130 C 193.84 -2.10015 -5.42465 0
M  V30 2131 N 192.816 -1.39423 -5.25416 0
M  V30 2132 H 196.618 -1.17792 -2.69262 0
M  V30 2133 H 194.132 -0.741822 -1.44467 0
M  V30 2134 H 196.129 0.859362 -4.07947 0
M  V30 2135 H 194.789 1.28421 -2.98225 0
M  V30 2136 H 195.8 -1.93244 -4.80497 0
M  V30 2137 H 192.477 0.560342 -4.13723 0
M  V30 2138 H 193.867 -3.02724 -5.9984 0
M  V30 2139 N 196.587 1.43421 -0.653314 0
M  V30 2140 C 198.003 1.56341 -0.320886 0
M  V30 2141 C 198.203 1.63696 1.17499 0
M  V30 2142 O 197.259 1.59208 1.95982 0
M  V30 2143 C 198.572 2.82424 -1.03233 0
M  V30 2144 C 200.12 2.96168 -1.01259 0
M  V30 2145 C 200.595 4.25084 -1.70492 0
M  V30 2146 N 202.086 4.31948 -1.67257 0
M  V30 2147 C 202.821 5.30466 -2.17701 0
M  V30 2148 N 202.317 6.35261 -2.76434 0
M  V30 2149 N 204.11 5.2212 -2.082 0
M  V30 2150 H 196.261 1.3689 -1.62403 0
M  V30 2151 H 198.524 0.657455 -0.682977 0
M  V30 2152 H 198.23 2.83053 -2.08744 0
M  V30 2153 H 198.104 3.72653 -0.583948 0
M  V30 2154 H 200.491 2.9508 0.0341235 0
M  V30 2155 H 200.572 2.07229 -1.49966 0
M  V30 2156 H 200.216 4.26932 -2.7512 0
M  V30 2157 H 200.146 5.1292 -1.19251 0
M  V30 2158 H 202.637 3.56838 -1.24398 0
M  V30 2159 H 202.95 7.06754 -3.12601 0
M  V30 2160 H 201.295 6.35884 -2.80495 0
M  V30 2161 H 204.486 4.39166 -1.62021 0
M  V30 2162 H 204.659 5.98739 -2.47822 0
M  V30 2163 N 198.065 0.39524 1.52563 0
M  V30 2164 C 199.342 -0.242908 1.94086 0
M  V30 2165 C 199.722 -1.63841 1.33114 0
M  V30 2166 O 199.07 -2.22928 0.501529 0
M  V30 2167 C 199.28 -0.26327 3.48006 0
M  V30 2168 C 200.628 -0.489354 4.21771 0
M  V30 2169 O 201.652 -0.343226 3.54543 0
M  V30 2170 O 200.511 -0.776169 5.4096 0
M  V30 2171 H 197.605 -0.152536 0.812811 0
M  V30 2172 H 200.151 0.450178 1.6362 0
M  V30 2173 H 198.923 0.713985 3.84731 0
M  V30 2174 H 198.546 -1.00103 3.84792 0
M  V30 2175 N 199.544 -1.57102 0.125237 0
M  V30 2176 C 200.474 -2.18659 -0.819174 0
M  V30 2177 C 201.455 -1.12843 -1.27281 0
M  V30 2178 O 202.64 -1.41104 -1.33429 0
M  V30 2179 C 199.77 -2.79096 -2.06695 0
M  V30 2180 C 198.724 -3.90548 -1.75088 0
M  V30 2181 C 198.05 -4.37821 -3.06948 0
M  V30 2182 C 199.35 -5.12356 -1.01435 0
M  V30 2183 H 201.044 -2.9783 -0.306202 0
M  V30 2184 H 198.59 -1.4326 -0.145839 0
M  V30 2185 H 200.543 -3.2082 -2.73226 0
M  V30 2186 H 199.267 -1.97223 -2.60328 0
M  V30 2187 H 197.926 -3.49409 -1.10944 0
M  V30 2188 H 197.574 -3.52799 -3.58527 0
M  V30 2189 H 197.274 -5.12982 -2.86571 0
M  V30 2190 H 198.798 -4.822 -3.74587 0
M  V30 2191 H 200.212 -5.5106 -1.58132 0
M  V30 2192 H 198.609 -5.9314 -0.911319 0
M  V30 2193 H 199.679 -4.849 -0.00218681 0
M  V30 2194 N 201.022 0.148545 -1.56898 0
M  V30 2195 C 201.969 1.18345 -1.98149 0
M  V30 2196 C 202.939 1.42772 -0.848848 0
M  V30 2197 O 204.124 1.55132 -1.11079 0
M  V30 2198 C 201.264 2.51231 -2.36594 0
M  V30 2199 C 200.377 2.33991 -3.63142 0
M  V30 2200 C 199.512 3.59902 -3.90697 0
M  V30 2201 C 198.551 3.37692 -5.1052 0
M  V30 2202 N 197.688 4.5573 -5.34092 0
M  V30 2203 H 202.528 0.82467 -2.86362 0
M  V30 2204 H 200.065 0.395756 -1.41676 0
M  V30 2205 H 202.023 3.28713 -2.56912 0
M  V30 2206 H 200.653 2.85059 -1.51463 0
M  V30 2207 H 199.705 1.47572 -3.50609 0
M  V30 2208 H 201.017 2.13539 -4.5078 0
M  V30 2209 H 200.171 4.45813 -4.11505 0
M  V30 2210 H 198.91 3.83357 -3.01477 0
M  V30 2211 H 197.915 2.5017 -4.89587 0
M  V30 2212 H 199.14 3.15637 -6.0129 0
M  V30 2213 H 197.086 4.79361 -4.47827 0
M  V30 2214 H 197.003 4.38274 -6.15996 0
M  V30 2215 H 198.271 5.42858 -5.59397 0
M  V30 2216 N 202.5 1.5196 0.417844 0
M  V30 2217 C 203.911 1.57851 0.997 0
M  V30 2218 C 204.262 0.413714 1.91789 0
M  V30 2219 O 203.387 -0.467057 2.113 0
M  V30 2220 C 203.982 2.86085 1.81496 0
M  V30 2221 C 202.541 2.94483 2.34428 0
M  V30 2222 C 201.688 2.52707 1.14169 0
M  V30 2223 H 204.639 1.57455 0.198392 0
M  V30 2224 H 204.66 2.70947 2.67148 0
M  V30 2225 H 204.172 3.70842 1.14446 0
M  V30 2226 H 202.273 2.142 3.04875 0
M  V30 2227 H 202.386 3.98546 2.65891 0
M  V30 2228 H 200.75 2.06353 1.49301 0
M  V30 2229 H 201.533 3.39828 0.486999 0
M  V30 2230 N 203.978 -0.674533 1.42435 0
M  V30 2231 C 204.888 -1.81751 1.48337 0
M  V30 2232 C 205.904 -1.69975 0.372099 0
M  V30 2233 O 207.08 -1.91521 0.62304 0
M  V30 2234 C 204.145 -3.17895 1.38361 0
M  V30 2235 C 203.206 -3.41625 2.59982 0
M  V30 2236 C 202.439 -4.71274 2.50473 0
M  V30 2237 O 202.662 -5.49197 1.54075 0
M  V30 2238 O 201.596 -4.96254 3.4061 0
M  V30 2239 H 205.422 -1.79728 2.44809 0
M  V30 2240 H 203.007 -0.830312 1.24202 0
M  V30 2241 H 204.889 -3.99136 1.35161 0
M  V30 2242 H 203.564 -3.20555 0.450144 0
M  V30 2243 H 202.471 -2.60231 2.68757 0
M  V30 2244 H 203.804 -3.43796 3.52229 0
M  V30 2245 N 205.456 -1.28612 -0.910864 0
M  V30 2246 C 206.404 -1.1265 -2.03501 0
M  V30 2247 C 207.398 -0.0450054 -1.6934 0
M  V30 2248 O 208.604 -0.203988 -1.7884 0
M  V30 2249 H 204.979 -0.347639 -0.666822 0
M  V30 2250 H 206.95 -2.07849 -2.14106 0
M  V30 2251 C 205.699 -0.808143 -3.38178 0
M  V30 2252 H 205.022 -1.63231 -3.6496 0
M  V30 2253 H 206.462 -0.736426 -4.17556 0
M  V30 2254 C 204.921 0.488226 -3.33344 0
M  V30 2255 O 205.451 1.51766 -3.71927 0
M  V30 2256 N 203.657 0.490009 -2.86439 0
M  V30 2257 H 203.204 -0.348161 -2.55236 0
M  V30 2258 H 203.162 1.35741 -2.83587 0
M  V30 2259 N 206.934 1.1197 -1.10907 0
M  V30 2260 C 207.864 2.19928 -0.784473 0
M  V30 2261 C 208.845 1.6833 0.244726 0
M  V30 2262 O 210.03 1.93892 0.109418 0
M  V30 2263 C 207.16 3.46597 -0.220827 0
M  V30 2264 C 206.114 4.11376 -1.18127 0
M  V30 2265 C 205.44 5.32554 -0.478594 0
M  V30 2266 C 206.74 4.56945 -2.52979 0
M  V30 2267 H 208.434 2.47337 -1.68715 0
M  V30 2268 H 205.98 1.18879 -0.812642 0
M  V30 2269 H 207.933 4.21396 0.0184278 0
M  V30 2270 H 206.657 3.1863 0.717113 0
M  V30 2271 H 205.316 3.38564 -1.40606 0
M  V30 2272 H 204.964 5.00856 0.463976 0
M  V30 2273 H 204.664 5.76844 -1.11912 0
M  V30 2274 H 206.188 6.10096 -0.248 0
M  V30 2275 H 207.602 5.23093 -2.3462 0
M  V30 2276 H 205.999 5.1203 -3.12962 0
M  V30 2277 H 207.069 3.70676 -3.12614 0
M  V30 2278 N 208.412 0.89855 1.29475 0
M  V30 2279 C 209.342 0.39201 2.30186 0
M  V30 2280 C 210.323 -0.532359 1.61555 0
M  V30 2281 O 211.508 -0.443331 1.89072 0
M  V30 2282 C 208.638 -0.382353 3.45189 0
M  V30 2283 C 207.592 0.451483 4.25612 0
M  V30 2284 C 206.918 -0.450307 5.328 0
M  V30 2285 C 208.218 1.70079 4.93832 0
M  V30 2286 H 209.912 1.23362 2.72804 0
M  V30 2287 H 207.458 0.594638 1.31149 0
M  V30 2288 H 209.411 -0.747451 4.14718 0
M  V30 2289 H 208.135 -1.25774 3.01411 0
M  V30 2290 H 206.794 0.798897 3.57789 0
M  V30 2291 H 206.442 -1.32379 4.85268 0
M  V30 2292 H 206.142 0.103902 5.87508 0
M  V30 2293 H 207.666 -0.811623 6.05182 0
M  V30 2294 H 209.08 1.40549 5.55805 0
M  V30 2295 H 207.477 2.19623 5.58467 0
M  V30 2296 H 208.547 2.43744 4.19186 0
M  V30 2297 N 209.89 -1.43072 0.660911 0
M  V30 2298 C 210.82 -2.33497 -0.0122829 0
M  V30 2299 C 211.801 -1.49903 -0.803925 0
M  V30 2300 O 212.986 -1.78546 -0.763864 0
M  V30 2301 C 210.116 -3.33363 -0.973994 0
M  V30 2302 C 209.07 -4.27003 -0.291928 0
M  V30 2303 C 208.396 -5.16967 -1.36562 0
M  V30 2304 C 209.696 -5.15816 0.820462 0
M  V30 2305 H 211.39 -2.90038 0.742873 0
M  V30 2306 H 208.936 -1.39461 0.358688 0
M  V30 2307 H 210.889 -3.95524 -1.45392 0
M  V30 2308 H 209.613 -2.75095 -1.7604 0
M  V30 2309 H 208.272 -3.66217 0.167623 0
M  V30 2310 H 207.92 -4.55034 -2.14366 0
M  V30 2311 H 207.62 -5.80441 -0.914454 0
M  V30 2312 H 209.144 -5.82003 -1.84675 0
M  V30 2313 H 210.558 -5.71742 0.422366 0
M  V30 2314 H 208.955 -5.8805 1.19656 0
M  V30 2315 H 210.025 -4.55045 1.67518 0
M  V30 2316 N 211.368 -0.403325 -1.52352 0
M  V30 2317 C 212.331 0.413051 -2.25447 0
M  V30 2318 C 213.331 0.978513 -1.276 0
M  V30 2319 O 214.521 0.858305 -1.51587 0
M  V30 2320 C 211.653 1.58087 -3.02029 0
M  V30 2321 H 212.846 -0.227094 -2.99039 0
M  V30 2322 H 210.399 -0.155722 -1.55522 0
M  V30 2323 H 211.134 2.25804 -2.32772 0
M  V30 2324 H 210.919 1.18195 -3.73861 0
M  V30 2325 H 212.409 2.1585 -3.57489 0
M  V30 2326 N 212.846 1.57033 -0.133567 0
M  V30 2327 C 214.071 2.00475 0.531477 0
M  V30 2328 C 214.496 1.01291 1.58499 0
M  V30 2329 O 213.854 -0.0133279 1.81295 0
M  V30 2330 C 213.902 3.42729 1.12113 0
M  V30 2331 O 213.006 3.46498 2.23636 0
M  V30 2332 H 212.347 0.650876 0.131362 0
M  V30 2333 H 214.877 2.03344 -0.22634 0
M  V30 2334 H 214.887 3.81246 1.4531 0
M  V30 2335 H 213.562 4.14428 0.349557 0
M  V30 2336 H 212.139 3.19811 1.91769 0
M  V30 2337 N 214.325 -0.140222 1.56975 0
M  V30 2338 C 215.272 -1.17292 1.98774 0
M  V30 2339 C 216.242 -1.4232 0.856408 0
M  V30 2340 O 217.427 -1.54541 1.119 0
M  V30 2341 C 214.567 -2.49973 2.37923 0
M  V30 2342 C 213.68 -2.32062 3.64378 0
M  V30 2343 C 212.815 -3.57825 3.926 0
M  V30 2344 C 211.854 -3.3498 5.12303 0
M  V30 2345 N 210.991 -4.52891 5.36502 0
M  V30 2346 H 215.831 -0.809472 2.86795 0
M  V30 2347 H 213.368 -0.388237 1.41884 0
M  V30 2348 H 215.326 -3.27346 2.58652 0
M  V30 2349 H 213.956 -2.84252 1.52972 0
M  V30 2350 H 213.008 -1.45711 3.51387 0
M  V30 2351 H 214.32 -2.11145 4.51906 0
M  V30 2352 H 213.474 -4.43624 4.13863 0
M  V30 2353 H 212.213 -3.81753 3.03506 0
M  V30 2354 H 211.218 -2.4757 4.90906 0
M  V30 2355 H 212.443 -3.12444 6.02956 0
M  V30 2356 H 210.389 -4.76979 4.50363 0
M  V30 2357 H 210.306 -4.35001 6.18312 0
M  V30 2358 H 211.574 -5.39884 5.62268 0
M  V30 2359 N 215.803 -1.52179 -0.40978 0
M  V30 2360 C 216.733 -1.78435 -1.5061 0
M  V30 2361 C 217.714 -0.635295 -1.57791 0
M  V30 2362 O 218.899 -0.880823 -1.73076 0
M  V30 2363 C 216.029 -1.93444 -2.88439 0
M  V30 2364 C 214.983 -3.09038 -2.96108 0
M  V30 2365 C 214.309 -3.09268 -4.36185 0
M  V30 2366 C 215.609 -4.48508 -2.67652 0
M  V30 2367 H 217.303 -2.70237 -1.28889 0
M  V30 2368 H 214.849 -1.30036 -0.618605 0
M  V30 2369 H 216.802 -2.10394 -3.65119 0
M  V30 2370 H 215.526 -0.983129 -3.11452 0
M  V30 2371 H 214.185 -2.91837 -2.21872 0
M  V30 2372 H 213.833 -2.11861 -4.56206 0
M  V30 2373 H 213.533 -3.86907 -4.42241 0
M  V30 2374 H 215.057 -3.28348 -5.14801 0
M  V30 2375 H 216.471 -4.65918 -3.34056 0
M  V30 2376 H 214.868 -5.28059 -2.85085 0
M  V30 2377 H 215.938 -4.56649 -1.63095 0
M  V30 2378 N 217.281 0.66697 -1.42791 0
M  V30 2379 C 218.228 1.7803 -1.4688 0
M  V30 2380 C 219.198 1.6299 -0.319919 0
M  V30 2381 O 220.383 1.83432 -0.525118 0
M  V30 2382 C 217.523 3.1611 -1.38451 0
M  V30 2383 C 216.636 3.42381 -2.63437 0
M  V30 2384 C 215.771 4.70232 -2.47094 0
M  V30 2385 C 214.81 4.89564 -3.67415 0
M  V30 2386 N 213.947 6.08661 -3.49966 0
M  V30 2387 H 218.787 1.7387 -2.42019 0
M  V30 2388 H 216.324 0.84868 -1.20149 0
M  V30 2389 H 218.282 3.95914 -1.31561 0
M  V30 2390 H 216.912 3.19374 -0.469033 0
M  V30 2391 H 215.964 2.56774 -2.80662 0
M  V30 2392 H 217.276 3.52557 -3.52853 0
M  V30 2393 H 216.43 5.5814 -2.37834 0
M  V30 2394 H 215.169 4.62353 -1.5518 0
M  V30 2395 H 214.174 4.00096 -3.77099 0
M  V30 2396 H 215.399 4.99282 -4.6032 0
M  V30 2397 H 213.345 6.0194 -2.60776 0
M  V30 2398 H 213.262 6.19733 -4.32975 0
M  V30 2399 H 214.53 6.99226 -3.44532 0
M  V30 2400 N 218.759 1.29093 0.90403 0
M  V30 2401 C 220.007 1.16583 1.65085 0
M  V30 2402 C 220.328 -0.283933 1.92922 0
M  V30 2403 O 219.598 -1.19509 1.55224 0
M  V30 2404 H 218.178 0.428467 0.611903 0
M  V30 2405 H 220.84 1.61959 1.08422 0
M  V30 2406 H 219.936 1.71266 2.6091 0
M  V30 2407 N 220.237 -1.11381 1.11499 0
M  V30 2408 C 221.2 -2.15622 0.777153 0
M  V30 2409 C 222.2 -1.59504 -0.203779 0
M  V30 2410 O 223.39 -1.74188 0.020782 0
M  V30 2411 C 220.522 -3.40556 0.153116 0
M  V30 2412 H 221.715 -2.47021 1.70061 0
M  V30 2413 H 219.268 -1.26577 0.916952 0
M  V30 2414 H 220.003 -3.14767 -0.780536 0
M  V30 2415 H 219.788 -3.8257 0.859238 0
M  V30 2416 H 221.278 -4.17546 -0.0671044 0
M  V30 2417 N 221.715 -0.905404 -1.28997 0
M  V30 2418 C 222.678 -0.392253 -2.25819 0
M  V30 2419 C 223.678 0.476753 -1.5357 0
M  V30 2420 O 224.868 0.280994 -1.71919 0
M  V30 2421 C 222 0.438588 -3.38067 0
M  V30 2422 H 223.193 -1.24743 -2.72725 0
M  V30 2423 H 220.746 -0.684051 -1.40536 0
M  V30 2424 H 221.481 1.31352 -2.96508 0
M  V30 2425 H 221.266 -0.184167 -3.91667 0
M  V30 2426 H 222.756 0.78873 -4.10084 0
M  V30 2427 N 223.193 1.4272 -0.668489 0
M  V30 2428 C 224.439 2.01923 -0.188419 0
M  V30 2429 C 224.772 1.52704 1.19979 0
M  V30 2430 O 224.047 0.726566 1.8042 0
M  V30 2431 C 224.33 3.59451 -0.216085 0
M  V30 2432 C 224.183 4.18864 -1.6393 0
M  V30 2433 C 225.502 4.37903 0.439179 0
M  V30 2434 H 222.621 0.733674 -0.0699412 0
M  V30 2435 H 225.263 1.69822 -0.852076 0
M  V30 2436 H 223.413 3.86929 0.349012 0
M  V30 2437 H 225.085 4.02362 -2.25616 0
M  V30 2438 H 223.328 3.74933 -2.18193 0
M  V30 2439 H 223.999 5.27987 -1.61039 0
M  V30 2440 H 226.475 4.16079 -0.0417878 0
M  V30 2441 H 225.351 5.47519 0.389157 0
M  V30 2442 H 225.612 4.15303 1.51577 0
M  V30 2443 N 224.671 0.411399 1.52136 0
M  V30 2444 C 225.618 -0.412975 2.27075 0
M  V30 2445 C 226.588 -1.03912 1.29582 0
M  V30 2446 O 227.773 -1.06296 1.58448 0
M  V30 2447 C 224.913 -1.52247 3.09701 0
M  V30 2448 C 224.026 -0.917021 4.22155 0
M  V30 2449 C 223.161 -1.9994 4.92135 0
M  V30 2450 C 222.2 -1.37101 5.96548 0
M  V30 2451 N 221.337 -2.39364 6.60038 0
M  V30 2452 H 226.177 0.232499 2.97092 0
M  V30 2453 H 223.714 0.126496 1.46555 0
M  V30 2454 H 225.672 -2.17674 3.55913 0
M  V30 2455 H 224.302 -2.13794 2.41851 0
M  V30 2456 H 223.354 -0.151742 3.80097 0
M  V30 2457 H 224.666 -0.418006 4.97045 0
M  V30 2458 H 223.82 -2.73088 5.41763 0
M  V30 2459 H 222.559 -2.53208 4.16818 0
M  V30 2460 H 221.564 -0.624873 5.46237 0
M  V30 2461 H 222.789 -0.845998 6.7381 0
M  V30 2462 H 220.735 -2.91759 5.87548 0
M  V30 2463 H 220.652 -1.9428 7.3061 0
M  V30 2464 H 221.92 -3.12074 7.14304 0
M  V30 2465 N 226.149 -1.5696 0.141893 0
M  V30 2466 C 227.079 -2.19516 -0.795936 0
M  V30 2467 C 228.06 -1.14187 -1.26077 0
M  V30 2468 O 229.245 -1.42511 -1.31925 0
M  V30 2469 C 226.375 -2.81272 -2.03723 0
M  V30 2470 C 225.329 -3.92384 -1.70936 0
M  V30 2471 C 224.655 -4.41052 -3.02287 0
M  V30 2472 C 225.955 -5.13403 -0.959954 0
M  V30 2473 H 227.649 -2.98138 -0.274596 0
M  V30 2474 H 225.195 -1.43406 -0.130636 0
M  V30 2475 H 227.148 -3.237 -2.69808 0
M  V30 2476 H 225.872 -1.99973 -2.58221 0
M  V30 2477 H 224.531 -3.50566 -1.07232 0
M  V30 2478 H 224.179 -3.56582 -3.54765 0
M  V30 2479 H 223.879 -5.15993 -2.81114 0
M  V30 2480 H 225.403 -4.86146 -3.69451 0
M  V30 2481 H 226.817 -5.52706 -1.52279 0
M  V30 2482 H 225.214 -5.94073 -0.848357 0
M  V30 2483 H 226.284 -4.84875 0.0492434 0
M  V30 2484 N 227.627 0.131896 -1.57047 0
M  V30 2485 C 228.59 1.14638 -1.98471 0
M  V30 2486 C 229.59 1.35029 -0.873148 0
M  V30 2487 O 230.78 1.31764 -1.13946 0
M  V30 2488 C 227.912 2.50358 -2.31373 0
M  V30 2489 H 229.105 0.79064 -2.8929 0
M  V30 2490 H 226.658 0.375761 -1.51716 0
M  V30 2491 H 227.393 2.90876 -1.43393 0
M  V30 2492 H 227.178 2.36915 -3.12432 0
M  V30 2493 H 228.668 3.23395 -2.64207 0
M  V30 2494 N 229.106 1.52395 0.401703 0
M  V30 2495 C 230.383 1.57387 1.16141 0
M  V30 2496 C 230.763 0.359359 2.08019 0
M  V30 2497 O 230.111 -0.65326 2.18963 0
M  V30 2498 C 230.321 2.90631 1.93221 0
M  V30 2499 C 231.669 3.43904 2.49028 0
M  V30 2500 O 232.693 2.92421 2.03393 0
M  V30 2501 O 231.552 4.33823 3.32356 0
M  V30 2502 H 228.646 0.634262 0.530698 0
M  V30 2503 H 231.192 1.64725 0.407883 0
M  V30 2504 H 229.964 3.70473 1.25958 0
M  V30 2505 H 229.587 2.8662 2.75563 0
M  V30 2506 N 230.584 -0.659388 1.43143 0
M  V30 2507 C 231.831 -1.41935 1.44433 0
M  V30 2508 C 232.159 -1.94387 0.0663522 0
M  V30 2509 O 231.414 -1.72314 -0.927706 0
M  V30 2510 C 231.713 -2.62206 2.42864 0
M  V30 2511 C 231.379 -2.28208 3.88886 0
M  V30 2512 C 230.041 -2.18647 4.28657 0
M  V30 2513 C 232.393 -2.00887 4.8093 0
M  V30 2514 C 229.721 -1.79914 5.58433 0
M  V30 2515 C 232.073 -1.63653 6.11065 0
M  V30 2516 C 230.737 -1.52614 6.49819 0
M  V30 2517 H 230.007 -0.519376 0.528517 0
M  V30 2518 H 232.654 -0.750453 1.76183 0
M  V30 2519 H 230.959 -3.34199 2.04495 0
M  V30 2520 H 232.656 -3.2041 2.41119 0
M  V30 2521 H 229.246 -2.36557 3.57406 0
M  V30 2522 H 233.43 -2.07198 4.5098 0
M  V30 2523 H 228.686 -1.69948 5.87305 0
M  V30 2524 H 232.86 -1.41543 6.81864 0
M  V30 2525 H 230.487 -1.22371 7.50286 0
M  V30 2526 N 232.062 -1.29571 -0.897171 0
M  V30 2527 C 233.31 -1.17456 -1.64464 0
M  V30 2528 C 233.631 0.273698 -1.9307 0
M  V30 2529 O 232.901 1.18684 -1.55855 0
M  V30 2530 H 231.481 -0.431706 -0.609622 0
M  V30 2531 H 234.143 -1.62531 -1.07562 0
M  V30 2532 H 233.239 -1.72648 -2.59998 0
M  V30 2533 N 233.54 1.10788 -1.12088 0
M  V30 2534 C 234.47 2.19083 -0.807755 0
M  V30 2535 C 235.451 1.6858 0.226859 0
M  V30 2536 O 236.636 1.93997 0.0888475 0
M  V30 2537 C 233.766 3.46344 -0.257576 0
M  V30 2538 C 232.72 4.101 -1.22483 0
M  V30 2539 C 232.046 5.32016 -0.535052 0
M  V30 2540 C 233.346 4.54236 -2.57811 0
M  V30 2541 H 235.04 2.45534 -1.71328 0
M  V30 2542 H 232.586 1.1801 -0.825205 0
M  V30 2543 H 234.539 4.21392 -0.0262679 0
M  V30 2544 H 233.263 3.19373 0.683278 0
M  V30 2545 H 231.922 3.37054 -1.44189 0
M  V30 2546 H 231.57 5.01319 0.410827 0
M  V30 2547 H 231.27 5.75625 -1.18024 0
M  V30 2548 H 232.794 6.09799 -0.312695 0
M  V30 2549 H 234.208 5.20575 -2.40155 0
M  V30 2550 H 232.605 5.08682 -3.18375 0
M  V30 2551 H 233.675 3.6734 -3.16528 0
M  V30 2552 N 235.018 0.912232 1.28515 0
M  V30 2553 C 235.981 0.404223 2.25607 0
M  V30 2554 C 236.981 -0.468602 1.53821 0
M  V30 2555 O 238.171 -0.271873 1.72065 0
M  V30 2556 C 235.303 -0.420653 3.38295 0
M  V30 2557 H 236.496 1.26188 2.7206 0
M  V30 2558 H 234.049 0.691495 1.40171 0
M  V30 2559 H 234.784 -1.29777 2.97201 0
M  V30 2560 H 234.569 0.204935 3.91564 0
M  V30 2561 H 236.059 -0.766971 4.10496 0
M  V30 2562 N 236.496 -1.42363 0.676048 0
M  V30 2563 C 237.745 -2.00745 0.196037 0
M  V30 2564 C 238.058 -1.54083 -1.20489 0
M  V30 2565 O 239.264 -2.04891 -1.78134 0
M  V30 2566 C 237.72 -3.58651 0.299616 0
M  V30 2567 C 237.328 -4.143 1.70468 0
M  V30 2568 C 239.072 -4.24326 -0.121619 0
M  V30 2569 C 236.979 -5.64574 1.76096 0
M  V30 2570 H 235.909 -0.750787 0.0695301 0
M  V30 2571 H 238.56 -1.63072 0.841412 0
M  V30 2572 H 236.942 -3.93833 -0.413673 0
M  V30 2573 H 238.116 -3.90575 2.44515 0
M  V30 2574 H 236.431 -3.61081 2.07387 0
M  V30 2575 H 239.028 -5.34607 -0.0997362 0
M  V30 2576 H 239.371 -3.99897 -1.15708 0
M  V30 2577 H 239.904 -3.94108 0.540706 0
M  V30 2578 H 236.643 -5.93804 2.77628 0
M  V30 2579 H 236.163 -5.90286 1.06406 0
M  V30 2580 H 237.842 -6.29013 1.51496 0
M  V30 2581 N 237.974 -0.419461 -1.51915 0
M  V30 2582 C 238.884 0.407528 -2.31033 0
M  V30 2583 C 239.9 1.04413 -1.3919 0
M  V30 2584 O 241.076 1.0434 -1.72265 0
M  V30 2585 C 238.141 1.50365 -3.12396 0
M  V30 2586 C 237.202 0.889029 -4.19994 0
M  V30 2587 C 236.435 1.93291 -4.97468 0
M  V30 2588 O 236.658 3.15259 -4.75361 0
M  V30 2589 O 235.592 1.53339 -5.8204 0
M  V30 2590 H 239.418 -0.237865 -3.02767 0
M  V30 2591 H 237.003 -0.182413 -1.48282 0
M  V30 2592 H 238.885 2.13975 -3.63032 0
M  V30 2593 H 237.56 2.13345 -2.43445 0
M  V30 2594 H 236.467 0.215353 -3.7348 0
M  V30 2595 H 237.8 0.302991 -4.91267 0
M  V30 2596 N 239.452 1.56882 -0.150215 0
M  V30 2597 C 240.698 1.96518 0.500834 0
M  V30 2598 C 241.031 1.03527 1.64304 0
M  V30 2599 O 240.306 0.0782751 1.94342 0
M  V30 2600 C 240.589 3.45822 1.00395 0
M  V30 2601 C 240.442 4.49591 -0.136983 0
M  V30 2602 C 241.761 3.97704 1.88467 0
M  V30 2603 H 238.88 0.714535 0.18058 0
M  V30 2604 H 241.522 1.88577 -0.232091 0
M  V30 2605 H 239.672 3.5272 1.62851 0
M  V30 2606 H 241.344 4.5477 -0.77343 0
M  V30 2607 H 239.587 4.26441 -0.795652 0
M  V30 2608 H 240.258 5.51402 0.256815 0
M  V30 2609 H 242.734 3.93304 1.35834 0
M  V30 2610 H 241.61 5.0263 2.20578 0
M  V30 2611 H 241.871 3.40252 2.82279 0
M  V30 2612 N 240.93 -0.123565 1.57115 0
M  V30 2613 C 241.84 -1.17074 2.033 0
M  V30 2614 C 242.856 -1.4561 0.952559 0
M  V30 2615 O 244.032 -1.56817 1.26374 0
M  V30 2616 C 241.097 -2.47857 2.42421 0
M  V30 2617 C 240.158 -2.26758 3.64526 0
M  V30 2618 C 239.391 -3.51305 4.01771 0
M  V30 2619 O 239.614 -4.5843 3.39409 0
M  V30 2620 O 238.548 -3.42578 4.94898 0
M  V30 2621 H 242.374 -0.808555 2.92739 0
M  V30 2622 H 239.959 -0.334027 1.45618 0
M  V30 2623 H 241.841 -3.2492 2.68338 0
M  V30 2624 H 240.516 -2.83558 1.5613 0
M  V30 2625 H 239.423 -1.47569 3.43765 0
M  V30 2626 H 240.756 -1.95963 4.51508 0
M  V30 2627 N 242.408 -1.52605 -0.393616 0
M  V30 2628 C 243.656 -1.67093 -1.13685 0
M  V30 2629 C 243.977 -0.411011 -1.90619 0
M  V30 2630 O 243.247 0.574491 -1.87287 0
M  V30 2631 H 241.827 -0.615923 -0.422668 0
M  V30 2632 H 244.489 -1.89704 -0.447039 0
M  V30 2633 H 243.585 -2.51922 -1.84232 0
M  V30 2634 N 243.887 0.651787 -1.4349 0
M  V30 2635 C 244.797 1.79368 -1.5121 0
M  V30 2636 C 245.813 1.69361 -0.399093 0
M  V30 2637 O 246.989 1.90505 -0.653431 0
M  V30 2638 C 244.054 3.15653 -1.43401 0
M  V30 2639 C 243.115 3.37446 -2.65384 0
M  V30 2640 C 242.348 4.67229 -2.57939 0
M  V30 2641 O 242.571 5.46676 -1.62792 0
M  V30 2642 O 241.505 4.90773 -3.48462 0
M  V30 2643 H 245.331 1.7581 -2.47638 0
M  V30 2644 H 242.916 0.810447 -1.25507 0
M  V30 2645 H 244.798 3.96935 -1.41494 0
M  V30 2646 H 243.473 3.19798 -0.501085 0
M  V30 2647 H 242.38 2.55923 -2.72863 0
M  V30 2648 H 243.713 3.38148 -3.57654 0
M  V30 2649 N 245.365 1.30045 0.890287 0
M  V30 2650 C 246.297 1.11786 2.00091 0
M  V30 2651 C 247.31 0.0626307 1.62679 0
M  V30 2652 O 248.499 0.308112 1.75821 0
M  V30 2653 C 245.599 0.681527 3.31977 0
M  V30 2654 C 244.772 1.81735 3.97858 0
M  V30 2655 C 243.831 1.37045 5.08041 0
M  V30 2656 O 242.857 2.07677 5.29961 0
M  V30 2657 N 244.059 0.246525 5.79976 0
M  V30 2658 H 246.824 2.07441 2.16306 0
M  V30 2659 H 244.385 1.2211 1.06305 0
M  V30 2660 H 246.377 0.365675 4.03045 0
M  V30 2661 H 244.947 -0.182828 3.12065 0
M  V30 2662 H 244.167 2.30159 3.20032 0
M  V30 2663 H 245.455 2.57865 4.38615 0
M  V30 2664 H 244.853 -0.34215 5.64664 0
M  V30 2665 H 243.41 -0.00990438 6.51799 0
M  V30 2666 N 246.843 -1.10192 1.12674 0
M  V30 2667 C 247.775 -2.16418 0.754701 0
M  V30 2668 C 248.788 -1.61309 -0.21986 0
M  V30 2669 O 249.977 -1.785 -0.000826841 0
M  V30 2670 C 247.077 -3.38762 0.096698 0
M  V30 2671 C 246.25 -4.23307 1.10136 0
M  V30 2672 C 245.309 -5.24092 0.470513 0
M  V30 2673 O 244.335 -5.57906 1.12824 0
M  V30 2674 N 245.537 -5.75491 -0.760948 0
M  V30 2675 H 248.302 -2.48943 1.66875 0
M  V30 2676 H 245.863 -1.25834 1.01869 0
M  V30 2677 H 247.855 -4.03291 -0.337384 0
M  V30 2678 H 246.425 -3.04192 -0.720153 0
M  V30 2679 H 245.645 -3.55036 1.71299 0
M  V30 2680 H 246.933 -4.76624 1.78064 0
M  V30 2681 H 246.331 -5.50222 -1.31424 0
M  V30 2682 H 244.888 -6.41792 -1.13781 0
M  V30 2683 N 248.321 -0.919034 -1.28029 0
M  V30 2684 C 249.284 -0.416182 -2.2539 0
M  V30 2685 C 250.284 0.460438 -1.54067 0
M  V30 2686 O 251.474 0.262744 -1.72207 0
M  V30 2687 C 248.606 0.402707 -3.38513 0
M  V30 2688 H 249.799 -1.27629 -2.71387 0
M  V30 2689 H 247.352 -0.698919 -1.39803 0
M  V30 2690 H 248.087 1.282 -2.97885 0
M  V30 2691 H 247.872 -0.225698 -3.9145 0
M  V30 2692 H 249.362 0.745191 -4.10897 0
M  V30 2693 N 249.799 1.42003 -0.683588 0
M  V30 2694 C 251.045 2.02223 -0.218536 0
M  V30 2695 C 251.4 1.53126 1.16492 0
M  V30 2696 O 250.693 0.727459 1.77253 0
M  V30 2697 C 250.887 3.56827 -0.202357 0
M  V30 2698 C 250.716 4.20928 -1.5827 0
M  V30 2699 C 249.486 4.5573 -2.18262 0
M  V30 2700 C 251.684 4.47933 -2.52706 0
M  V30 2701 N 249.666 5.05056 -3.48986 0
M  V30 2702 C 251.037 4.98906 -3.68094 0
M  V30 2703 C 253.092 4.29931 -2.51125 0
M  V30 2704 C 251.795 5.33768 -4.82166 0
M  V30 2705 C 253.821 4.65875 -3.643 0
M  V30 2706 C 253.183 5.17008 -4.78417 0
M  V30 2707 H 249.282 0.771931 -0.125088 0
M  V30 2708 H 251.866 1.72729 -0.898479 0
M  V30 2709 H 250.037 3.85819 0.447029 0
M  V30 2710 H 251.769 4.03755 0.276399 0
M  V30 2711 H 248.524 4.41781 -1.70665 0
M  V30 2712 H 248.948 5.34139 -4.15962 0
M  V30 2713 H 253.59 3.89647 -1.6412 0
M  V30 2714 H 251.308 5.72981 -5.6984 0
M  V30 2715 H 254.894 4.53615 -3.64314 0
M  V30 2716 H 253.774 5.44301 -5.64541 0
M  V30 2717 N 251.277 0.427512 1.51691 0
M  V30 2718 C 252.524 -0.142229 2.02 0
M  V30 2719 C 252.852 -1.43566 1.31221 0
M  V30 2720 O 252.107 -1.91298 0.412744 0
M  V30 2721 C 252.406 -0.418249 3.54944 0
M  V30 2722 C 252.072 0.788187 4.43958 0
M  V30 2723 C 250.734 1.11906 4.68007 0
M  V30 2724 C 253.086 1.59347 4.96244 0
M  V30 2725 C 250.414 2.25608 5.41588 0
M  V30 2726 C 252.766 2.7214 5.71072 0
M  V30 2727 C 251.43 3.05692 5.93387 0
M  V30 2728 H 250.7 -0.0520451 0.73917 0
M  V30 2729 H 253.347 0.572697 1.82736 0
M  V30 2730 H 251.652 -1.21496 3.72486 0
M  V30 2731 H 253.349 -0.872339 3.91397 0
M  V30 2732 H 249.939 0.520344 4.2543 0
M  V30 2733 H 254.123 1.35106 4.77556 0
M  V30 2734 H 249.379 2.51929 5.57083 0
M  V30 2735 H 253.553 3.34914 6.10578 0
M  V30 2736 H 251.18 3.9391 6.50184 0
M  V30 2737 N 252.755 -1.56801 0.158532 0
M  V30 2738 C 254.003 -1.96102 -0.488712 0
M  V30 2739 C 254.324 -1.04498 -1.64636 0
M  V30 2740 O 253.594 -0.108783 -1.95598 0
M  V30 2741 H 252.174 -0.724102 -0.183535 0
M  V30 2742 H 254.836 -1.93457 0.236728 0
M  V30 2743 H 253.932 -3.00097 -0.857219 0
M  V30 2744 N 254.233 0.115231 -1.57178 0
M  V30 2745 C 255.48 0.822351 -1.8505 0
M  V30 2746 C 255.808 1.79701 -0.744168 0
M  V30 2747 O 255.063 1.93909 0.26414 0
M  V30 2748 C 255.362 1.60324 -3.19423 0
M  V30 2749 C 255.028 0.772536 -4.44233 0
M  V30 2750 C 253.69 0.543468 -4.78121 0
M  V30 2751 C 256.042 0.193746 -5.2084 0
M  V30 2752 C 253.37 -0.274583 -5.86057 0
M  V30 2753 C 255.722 -0.611517 -6.29637 0
M  V30 2754 C 254.386 -0.850867 -6.62055 0
M  V30 2755 H 253.656 0.30092 -0.677147 0
M  V30 2756 H 256.303 0.0845802 -1.91313 0
M  V30 2757 H 254.608 2.41203 -3.08753 0
M  V30 2758 H 256.305 2.1544 -3.38211 0
M  V30 2759 H 252.895 0.96117 -4.17683 0
M  V30 2760 H 257.079 0.357926 -4.95008 0
M  V30 2761 H 252.335 -0.469206 -6.09597 0
M  V30 2762 H 256.509 -1.06697 -6.88178 0
M  V30 2763 H 254.136 -1.48657 -7.45523 0
M  V30 2764 N 255.711 1.52812 0.385517 0
M  V30 2765 C 256.674 1.77188 1.45386 0
M  V30 2766 C 257.674 0.641953 1.4743 0
M  V30 2767 O 258.864 0.910033 1.4854 0
M  V30 2768 C 255.996 1.87582 2.8465 0
M  V30 2769 H 257.189 2.72583 1.25054 0
M  V30 2770 H 254.742 1.43586 0.617467 0
M  V30 2771 H 255.477 0.941849 3.10322 0
M  V30 2772 H 255.262 2.69748 2.84567 0
M  V30 2773 H 256.752 2.08102 3.62054 0
M  V30 2774 N 257.189 -0.644168 1.43834 0
M  V30 2775 C 258.437 -1.40117 1.45642 0
M  V30 2776 C 258.758 -1.94814 0.0852413 0
M  V30 2777 O 258.028 -1.74988 -0.880688 0
M  V30 2778 H 256.608 -0.52005 0.536243 0
M  V30 2779 H 259.27 -0.7591 1.7951 0
M  V30 2780 H 258.366 -2.23902 2.17427 0
M  V30 2781 N 258.668 -1.30515 -0.883378 0
M  V30 2782 C 259.896 -1.22359 -1.66841 0
M  V30 2783 C 260.311 0.213296 -1.87591 0
M  V30 2784 O 259.668 1.14075 -1.42454 0
M  V30 2785 C 259.719 -1.95011 -3.04389 0
M  V30 2786 O 259.44 -3.3309 -2.84575 0
M  V30 2787 C 260.941 -1.93532 -3.98824 0
M  V30 2788 H 258.161 -0.423371 -0.520575 0
M  V30 2789 H 260.705 -1.72167 -1.10357 0
M  V30 2790 H 258.86 -1.48997 -3.57601 0
M  V30 2791 H 259.274 -3.69907 -3.71846 0
M  V30 2792 H 260.748 -2.48902 -4.92699 0
M  V30 2793 H 261.225 -0.914627 -4.29571 0
M  V30 2794 H 261.831 -2.39364 -3.51547 0
M  V30 2795 N 260.146 1.09593 -1.13257 0
M  V30 2796 C 261.557 1.63229 -0.906274 0
M  V30 2797 C 261.908 1.8811 0.557578 0
M  V30 2798 O 261.033 1.62953 1.42391 0
M  V30 2799 C 261.628 2.96535 -1.63867 0
M  V30 2800 C 260.187 3.47003 -1.45828 0
M  V30 2801 C 259.334 2.2145 -1.66898 0
M  V30 2802 H 262.285 0.92978 -1.28611 0
M  V30 2803 H 262.306 3.64411 -1.09476 0
M  V30 2804 H 261.818 2.78394 -2.70404 0
M  V30 2805 H 259.919 3.70272 -0.415848 0
M  V30 2806 H 260.032 4.24551 -2.2202 0
M  V30 2807 H 258.396 2.30022 -1.09371 0
M  V30 2808 H 259.179 2.0583 -2.74752 0
M  V30 2809 N 261.624 0.925811 1.2754 0
M  V30 2810 C 262.872 0.564138 1.94067 0
M  V30 2811 C 263.193 -0.897188 1.73134 0
M  V30 2812 O 262.463 -1.63573 1.07799 0
M  V30 2813 H 261.043 0.205645 0.718136 0
M  V30 2814 H 263.705 1.1778 1.55287 0
M  V30 2815 H 262.801 0.76881 3.02483 0
M  V30 2816 N 263.102 -1.41638 0.69111 0
M  V30 2817 C 264.332 -2.0533 0.228758 0
M  V30 2818 C 264.74 -1.52089 -1.12541 0
M  V30 2819 O 264.083 -0.662145 -1.71351 0
M  V30 2820 C 264.145 -3.59349 0.10407 0
M  V30 2821 C 263.809 -4.35362 1.38956 0
M  V30 2822 C 264.806 -4.64942 2.32648 0
M  V30 2823 C 262.491 -4.74714 1.64169 0
M  V30 2824 C 264.485 -5.32828 3.49818 0
M  V30 2825 C 262.172 -5.42338 2.81625 0
M  V30 2826 C 263.17 -5.71322 3.74273 0
M  V30 2827 O 262.858 -6.37554 4.89673 0
M  V30 2828 H 262.59 -0.667796 0.104997 0
M  V30 2829 H 265.144 -1.82477 0.942938 0
M  V30 2830 H 263.374 -3.80924 -0.665839 0
M  V30 2831 H 265.063 -4.04633 -0.320519 0
M  V30 2832 H 265.829 -4.35025 2.14425 0
M  V30 2833 H 261.708 -4.51538 0.929202 0
M  V30 2834 H 265.252 -5.55368 4.22152 0
M  V30 2835 H 261.149 -5.71673 2.99768 0
M  V30 2836 H 261.917 -6.56049 4.8943 0
M  V30 2837 N 264.58 -0.43555 -1.51462 0
M  V30 2838 C 265.51 0.367376 -2.30592 0
M  V30 2839 C 266.491 1.02263 -1.35928 0
M  V30 2840 O 267.676 1.02661 -1.64847 0
M  V30 2841 C 264.806 1.46983 -3.14664 0
M  V30 2842 C 263.76 0.938161 -4.17591 0
M  V30 2843 C 263.086 2.13622 -4.90173 0
M  V30 2844 C 264.386 -0.0261621 -5.22293 0
M  V30 2845 H 266.08 -0.292969 -2.97963 0
M  V30 2846 H 263.626 -0.14234 -1.43295 0
M  V30 2847 H 265.579 2.03873 -3.688 0
M  V30 2848 H 264.303 2.15843 -2.4511 0
M  V30 2849 H 262.962 0.391481 -3.64504 0
M  V30 2850 H 262.61 2.81098 -4.17124 0
M  V30 2851 H 262.31 1.78688 -5.59772 0
M  V30 2852 H 263.834 2.7107 -5.47132 0
M  V30 2853 H 265.248 0.452384 -5.71512 0
M  V30 2854 H 263.645 -0.287992 -5.99409 0
M  V30 2855 H 264.715 -0.963391 -4.75233 0
M  V30 2856 N 266.058 1.56714 -0.166846 0
M  V30 2857 C 267.283 2.01557 0.488833 0
M  V30 2858 C 267.708 1.0463 1.56314 0
M  V30 2859 O 267.066 0.0251304 1.81283 0
M  V30 2860 C 267.114 3.4503 1.04818 0
M  V30 2861 O 266.218 3.51163 2.16236 0
M  V30 2862 H 265.559 0.653516 0.117526 0
M  V30 2863 H 268.089 2.02818 -0.269421 0
M  V30 2864 H 268.099 3.84243 1.37191 0
M  V30 2865 H 266.774 4.15077 0.261572 0
M  V30 2866 H 265.351 3.23807 1.84942 0
M  V30 2867 N 267.536 -0.106894 1.57237 0
M  V30 2868 C 268.947 -0.662723 1.74542 0
M  V30 2869 C 269.298 -1.7971 0.787319 0
M  V30 2870 O 268.423 -2.16368 -0.0369636 0
M  V30 2871 C 269.018 -1.20896 3.16496 0
M  V30 2872 C 267.577 -1.71096 3.35266 0
M  V30 2873 C 266.724 -0.615642 2.7038 0
M  V30 2874 H 269.675 0.119106 1.58252 0
M  V30 2875 H 269.696 -2.07847 3.18716 0
M  V30 2876 H 269.208 -0.383122 3.86204 0
M  V30 2877 H 267.309 -2.56119 2.70618 0
M  V30 2878 H 267.422 -1.81208 4.43509 0
M  V30 2879 H 265.786 -1.05222 2.31949 0
M  V30 2880 H 266.569 0.199419 3.4272 0
M  V30 2881 N 269.014 -1.53014 -0.377408 0
M  V30 2882 C 269.924 -1.81557 -1.48574 0
M  V30 2883 C 270.94 -0.703102 -1.59162 0
M  V30 2884 O 272.116 -0.99192 -1.75279 0
M  V30 2885 C 269.181 -1.9889 -2.83978 0
M  V30 2886 C 268.242 -3.22801 -2.83016 0
M  V30 2887 C 267.475 -3.39298 -4.11962 0
M  V30 2888 O 267.698 -2.60345 -5.0752 0
M  V30 2889 O 266.632 -4.32604 -4.18494 0
M  V30 2890 H 270.458 -2.75695 -1.27382 0
M  V30 2891 H 268.043 -1.38248 -0.566373 0
M  V30 2892 H 269.925 -2.11931 -3.6423 0
M  V30 2893 H 268.6 -1.07942 -3.05172 0
M  V30 2894 H 267.507 -3.15193 -2.01505 0
M  V30 2895 H 268.84 -4.13632 -2.66775 0
M  V30 2896 N 270.492 0.636531 -1.44174 0
M  V30 2897 C 271.738 1.39826 -1.4689 0
M  V30 2898 C 272.071 1.93947 -0.0990585 0
M  V30 2899 O 271.346 1.73325 0.882544 0
M  V30 2900 C 271.629 2.56751 -2.5249 0
M  V30 2901 C 271.482 2.08014 -3.98811 0
M  V30 2902 C 272.801 3.58946 -2.54649 0
M  V30 2903 H 269.92 0.507075 -0.53483 0
M  V30 2904 H 272.562 0.720188 -1.75822 0
M  V30 2905 H 270.712 3.14597 -2.2795 0
M  V30 2906 H 272.384 1.5504 -4.34466 0
M  V30 2907 H 270.627 1.39242 -4.10846 0
M  V30 2908 H 271.298 2.92169 -4.68339 0
M  V30 2909 H 273.774 3.1089 -2.76563 0
M  V30 2910 H 272.65 4.38286 -3.3045 0
M  V30 2911 H 272.911 4.12655 -1.58646 0
M  V30 2912 N 271.97 1.30982 0.876444 0
M  V30 2913 C 272.9 1.20668 1.99903 0
M  V30 2914 C 273.881 0.095354 1.69833 0
M  V30 2915 O 275.066 0.27885 1.92188 0
M  V30 2916 C 272.196 0.90655 3.3526 0
M  V30 2917 C 271.15 1.97675 3.79617 0
M  V30 2918 C 270.476 1.52943 5.1236 0
M  V30 2919 C 271.776 3.389 3.97422 0
M  V30 2920 H 273.47 2.14586 2.0879 0
M  V30 2921 H 271.016 1.03308 1.00317 0
M  V30 2922 H 272.969 0.821025 4.13324 0
M  V30 2923 H 271.693 -0.0682969 3.26529 0
M  V30 2924 H 270.352 2.05205 3.03787 0
M  V30 2925 H 270 0.54262 5.00065 0
M  V30 2926 H 269.7 2.24532 5.43009 0
M  V30 2927 H 271.224 1.45786 5.92941 0
M  V30 2928 H 272.638 3.34081 4.659 0
M  V30 2929 H 271.035 4.0865 4.3946 0
M  V30 2930 H 272.105 3.80163 3.01006 0
M  V30 2931 N 273.449 -1.08991 1.13837 0
M  V30 2932 C 274.865 -1.33312 0.877506 0
M  V30 2933 C 275.065 -1.95587 -0.48456 0
M  V30 2934 O 274.121 -2.20509 -1.23013 0
M  V30 2935 C 275.434 -2.24045 2.0056 0
M  V30 2936 C 276.982 -2.37542 2.03821 0
M  V30 2937 C 277.457 -3.31614 3.15905 0
M  V30 2938 N 278.948 -3.39189 3.15445 0
M  V30 2939 C 279.683 -4.11992 3.98811 0
M  V30 2940 N 279.179 -4.87553 4.92203 0
M  V30 2941 N 280.972 -4.07762 3.86894 0
M  V30 2942 H 273.123 -0.669456 2.01574 0
M  V30 2943 H 275.386 -0.357482 0.878015 0
M  V30 2944 H 275.092 -1.85521 2.98789 0
M  V30 2945 H 274.966 -3.24466 1.92359 0
M  V30 2946 H 277.353 -2.75327 1.06202 0
M  V30 2947 H 277.434 -1.36884 2.16093 0
M  V30 2948 H 277.078 -2.94551 4.13766 0
M  V30 2949 H 277.008 -4.32186 3.0087 0
M  V30 2950 H 279.499 -2.85314 2.47799 0
M  V30 2951 H 279.812 -5.40549 5.52292 0
M  V30 2952 H 278.157 -4.86627 4.96205 0
M  V30 2953 H 281.348 -3.47833 3.13257 0
M  V30 2954 H 281.521 -4.64238 4.52092 0
M  V30 2955 N 274.927 -0.932562 -1.27047 0
M  V30 2956 C 275.874 -0.434072 -2.26681 0
M  V30 2957 C 276.844 0.501639 -1.58344 0
M  V30 2958 O 278.029 0.419734 -1.86126 0
M  V30 2959 C 275.169 0.30261 -3.43771 0
M  V30 2960 C 274.282 -0.667774 -4.26808 0
M  V30 2961 C 273.417 0.0892393 -5.31125 0
M  V30 2962 C 272.456 -0.873532 -6.05835 0
M  V30 2963 N 271.593 -0.148832 -7.01942 0
M  V30 2964 H 276.433 -1.28868 -2.68695 0
M  V30 2965 H 273.97 -0.646713 -1.32121 0
M  V30 2966 H 275.928 0.746092 -4.10474 0
M  V30 2967 H 274.558 1.12142 -3.02695 0
M  V30 2968 H 273.61 -1.22978 -3.59973 0
M  V30 2969 H 274.922 -1.40337 -4.78651 0
M  V30 2970 H 274.076 0.592409 -6.03801 0
M  V30 2971 H 272.815 0.85777 -4.80097 0
M  V30 2972 H 271.82 -1.38791 -5.31994 0
M  V30 2973 H 273.045 -1.64193 -6.58952 0
M  V30 2974 H 270.991 0.601365 -6.53238 0
M  V30 2975 H 270.908 -0.82391 -7.51497 0
M  V30 2976 H 272.176 0.333527 -7.78786 0
M  V30 2977 N 276.405 1.4127 -0.698611 0
M  V30 2978 C 277.682 1.94955 -0.158762 0
M  V30 2979 C 278.062 1.63781 1.33188 0
M  V30 2980 O 277.41 0.946423 2.07979 0
M  V30 2981 C 277.62 3.46044 -0.453309 0
M  V30 2982 C 278.968 4.22872 -0.382707 0
M  V30 2983 O 279.992 3.54076 -0.388396 0
M  V30 2984 O 278.851 5.45407 -0.345463 0
M  V30 2985 H 275.945 0.82683 -0.0167505 0
M  V30 2986 H 278.491 1.50971 -0.77498 0
M  V30 2987 H 277.263 3.62028 -1.48498 0
M  V30 2988 H 276.886 3.97128 0.19373 0
M  V30 2989 N 277.883 0.443576 1.51229 0
M  V30 2990 C 279.294 -0.0180867 1.86691 0
M  V30 2991 C 279.645 -1.41384 1.36033 0
M  V30 2992 O 278.77 -2.04291 0.713722 0
M  V30 2993 C 279.365 -0.039597 3.38777 0
M  V30 2994 C 277.924 -0.445692 3.73752 0
M  V30 2995 C 277.071 0.357584 2.74985 0
M  V30 2996 H 280.022 0.659138 1.44364 0
M  V30 2997 H 280.043 -0.847761 3.70936 0
M  V30 2998 H 279.555 0.976382 3.75617 0
M  V30 2999 H 277.656 -1.46704 3.42503 0
M  V30 3000 H 277.769 -0.166155 4.78812 0
M  V30 3001 H 276.133 -0.184973 2.54027 0
M  V30 3002 H 276.916 1.37256 3.14668 0
M  V30 3003 N 279.361 -1.56624 0.175154 0
M  V30 3004 C 280.591 -2.01082 -0.474283 0
M  V30 3005 C 280.999 -1.05447 -1.57091 0
M  V30 3006 O 280.342 -0.0480595 -1.83637 0
M  V30 3007 C 280.404 -3.41963 -1.10911 0
M  V30 3008 C 280.068 -4.56742 -0.153666 0
M  V30 3009 C 281.065 -5.16076 0.629448 0
M  V30 3010 C 278.75 -5.02277 -0.0483776 0
M  V30 3011 C 280.744 -6.19377 1.50501 0
M  V30 3012 C 278.431 -6.05427 0.830768 0
M  V30 3013 C 279.429 -6.63849 1.60605 0
M  V30 3014 O 279.117 -7.64998 2.47049 0
M  V30 3015 H 278.849 -0.664261 -0.125432 0
M  V30 3016 H 281.403 -2.03549 0.275163 0
M  V30 3017 H 279.633 -3.36422 -1.90676 0
M  V30 3018 H 281.322 -3.70352 -1.66114 0
M  V30 3019 H 282.088 -4.81776 0.558297 0
M  V30 3020 H 277.967 -4.56513 -0.641611 0
M  V30 3021 H 281.511 -6.64906 2.1106 0
M  V30 3022 H 277.408 -6.39151 0.903107 0
M  V30 3023 H 278.176 -7.82336 2.40607 0
M  V30 3024 N 280.839 0.0985539 -1.57292 0
M  V30 3025 C 282.087 0.801092 -1.85545 0
M  V30 3026 C 282.408 1.79438 -0.763353 0
M  V30 3027 O 281.678 1.94763 0.21073 0
M  V30 3028 H 280.258 0.29884 -0.684619 0
M  V30 3029 H 282.92 0.0810064 -1.94732 0
M  V30 3030 H 282.016 1.3338 -2.82163 0
M  V30 3031 N 282.317 1.53212 0.369288 0
M  V30 3032 C 283.264 1.79388 1.45219 0
M  V30 3033 C 284.234 0.638059 1.53356 0
M  V30 3034 O 285.419 0.879852 1.69302 0
M  V30 3035 C 282.559 1.98623 2.82211 0
M  V30 3036 C 281.672 3.26337 2.8307 0
M  V30 3037 C 280.807 3.35779 4.11614 0
M  V30 3038 C 279.846 4.5754 4.06601 0
M  V30 3039 N 278.983 4.64155 5.26787 0
M  V30 3040 H 283.823 2.71794 1.22198 0
M  V30 3041 H 281.36 1.34642 0.592444 0
M  V30 3042 H 283.318 2.07761 3.61789 0
M  V30 3043 H 281.948 1.09558 3.03639 0
M  V30 3044 H 281 3.26171 1.95747 0
M  V30 3045 H 282.312 4.15988 2.75237 0
M  V30 3046 H 281.466 3.44208 4.99606 0
M  V30 3047 H 280.205 2.44137 4.22195 0
M  V30 3048 H 279.21 4.49215 3.16996 0
M  V30 3049 H 280.435 5.50519 3.97625 0
M  V30 3050 H 278.381 3.75413 5.3796 0
M  V30 3051 H 278.298 5.47706 5.21109 0
M  V30 3052 H 279.566 4.76863 6.16621 0
M  V30 3053 N 283.795 -0.628877 1.44509 0
M  V30 3054 C 285.206 -1.21054 1.42137 0
M  V30 3055 C 285.557 -1.95715 0.137881 0
M  V30 3056 O 284.682 -2.02554 -0.761645 0
M  V30 3057 C 285.277 -2.20189 2.57493 0
M  V30 3058 C 283.836 -2.73777 2.58308 0
M  V30 3059 C 282.983 -1.48813 2.33987 0
M  V30 3060 H 285.934 -0.41942 1.53057 0
M  V30 3061 H 285.955 -3.02833 2.30375 0
M  V30 3062 H 285.467 -1.6582 3.50892 0
M  V30 3063 H 283.568 -3.32142 1.68856 0
M  V30 3064 H 283.681 -3.19662 3.56865 0
M  V30 3065 H 282.045 -1.77024 1.83124 0
M  V30 3066 H 282.828 -0.963442 3.29504 0
M  V30 3067 N 285.273 -1.31445 -0.869486 0
M  V30 3068 C 286.519 -1.21337 -1.62496 0
M  V30 3069 C 286.852 0.227872 -1.92858 0
M  V30 3070 O 286.127 1.16094 -1.56053 0
M  V30 3071 C 286.41 -2.05814 -2.95487 0
M  V30 3072 C 286.263 -3.5824 -2.72 0
M  V30 3073 C 287.582 -1.9079 -3.96594 0
M  V30 3074 H 284.701 -0.442135 -0.589649 0
M  V30 3075 H 287.343 -1.6124 -1.00507 0
M  V30 3076 H 285.493 -1.71913 -3.48394 0
M  V30 3077 H 287.165 -4.0228 -2.25762 0
M  V30 3078 H 285.408 -3.81647 -2.06224 0
M  V30 3079 H 286.079 -4.12657 -3.66631 0
M  V30 3080 H 288.555 -2.20459 -3.52898 0
M  V30 3081 H 287.431 -2.52199 -4.87531 0
M  V30 3082 H 287.692 -0.871341 -4.33428 0
M  V30 3083 N 286.751 1.08385 -1.14413 0
M  V30 3084 C 288.028 1.77429 -0.823297 0
M  V30 3085 C 288.408 1.9974 0.683163 0
M  V30 3086 O 287.756 1.60739 1.62405 0
M  V30 3087 C 287.966 3.09004 -1.62227 0
M  V30 3088 C 289.314 3.83532 -1.82177 0
M  V30 3089 O 290.338 3.18786 -1.58915 0
M  V30 3090 O 289.197 4.99792 -2.21067 0
M  V30 3091 H 286.291 0.769999 -0.301712 0
M  V30 3092 H 288.837 1.14846 -1.24934 0
M  V30 3093 H 287.609 2.88316 -2.64555 0
M  V30 3094 H 287.232 3.79316 -1.19187 0
M  V30 3095 N 288.23 0.939286 1.26551 0
M  V30 3096 C 289.16 0.465044 2.28822 0
M  V30 3097 C 290.141 -0.480692 1.63167 0
M  V30 3098 O 291.326 -0.382955 1.90387 0
M  V30 3099 C 288.456 -0.27234 3.46231 0
M  V30 3100 C 287.41 0.58666 4.2396 0
M  V30 3101 C 286.736 -0.280573 5.33963 0
M  V30 3102 C 288.036 1.85704 4.88171 0
M  V30 3103 H 289.73 1.31979 2.68741 0
M  V30 3104 H 287.276 0.636061 1.29191 0
M  V30 3105 H 289.229 -0.615133 4.16886 0
M  V30 3106 H 287.953 -1.16121 3.0526 0
M  V30 3107 H 286.612 0.91232 3.55067 0
M  V30 3108 H 286.26 -1.16874 4.89234 0
M  V30 3109 H 285.96 0.29076 5.8688 0
M  V30 3110 H 287.484 -0.618678 6.07458 0
M  V30 3111 H 288.898 1.58161 5.51052 0
M  V30 3112 H 287.295 2.37279 5.51197 0
M  V30 3113 H 288.365 2.56957 4.11219 0
M  V30 3114 N 289.708 -1.40897 0.706093 0
M  V30 3115 C 290.954 -2.01849 0.250681 0
M  V30 3116 C 291.309 -1.5496 -1.14041 0
M  V30 3117 O 290.602 -0.755566 -1.76073 0
M  V30 3118 C 290.796 -3.5646 0.259099 0
M  V30 3119 C 290.625 -4.18357 1.64947 0
M  V30 3120 C 289.395 -4.522 2.25485 0
M  V30 3121 C 291.593 -4.43856 2.598 0
M  V30 3122 N 289.575 -4.9944 3.56977 0
M  V30 3123 C 290.946 -4.92986 3.75985 0
M  V30 3124 C 293.001 -4.25882 2.57933 0
M  V30 3125 C 291.704 -5.2603 4.90597 0
M  V30 3126 C 293.73 -4.6002 3.71665 0
M  V30 3127 C 293.092 -5.09331 4.86581 0
M  V30 3128 H 289.191 -0.769843 0.137353 0
M  V30 3129 H 291.775 -1.71278 0.925845 0
M  V30 3130 H 289.946 -3.86481 -0.385592 0
M  V30 3131 H 291.678 -4.04144 -0.21213 0
M  V30 3132 H 288.433 -4.3901 1.77671 0
M  V30 3133 H 288.857 -5.27454 4.24407 0
M  V30 3134 H 293.499 -3.86986 1.70298 0
M  V30 3135 H 291.217 -5.63843 5.78884 0
M  V30 3136 H 294.803 -4.47762 3.71484 0
M  V30 3137 H 293.683 -5.35251 5.73129 0
M  V30 3138 N 291.186 -0.45159 -1.50991 0
M  V30 3139 C 292.149 0.341117 -2.26647 0
M  V30 3140 C 293.149 0.937422 -1.30649 0
M  V30 3141 O 294.339 0.809644 -1.54241 0
M  V30 3142 C 291.471 1.48398 -3.06905 0
M  V30 3143 H 292.664 -0.322117 -2.98165 0
M  V30 3144 H 290.217 -0.205122 -1.54948 0
M  V30 3145 H 290.952 2.18284 -2.39838 0
M  V30 3146 H 290.737 1.06241 -3.77432 0
M  V30 3147 H 292.227 2.04367 -3.64176 0
M  V30 3148 N 292.664 1.56529 -0.183458 0
M  V30 3149 C 293.904 1.99141 0.460667 0
M  V30 3150 C 294.268 1.06736 1.59597 0
M  V30 3151 O 295.469 1.38538 2.30349 0
M  V30 3152 C 293.74 3.45358 0.919939 0
M  V30 3153 S 295.299 4.09999 1.56354 0
M  V30 3154 H 292.117 0.695479 0.147748 0
M  V30 3155 H 294.719 1.93429 -0.283782 0
M  V30 3156 H 293.423 4.10315 0.0834208 0
M  V30 3157 H 292.954 3.54862 1.69814 0
M  V30 3158 H 294.969 4.06046 2.85203 0
M  V30 3159 N 294.142 -0.090211 1.57342 0
M  V30 3160 C 295.39 -0.791241 1.85967 0
M  V30 3161 C 295.711 -1.7903 0.772859 0
M  V30 3162 O 294.981 -1.94872 -0.200398 0
M  V30 3163 H 293.561 -0.295205 0.686195 0
M  V30 3164 H 296.223 -0.0706782 1.94772 0
M  V30 3165 H 295.319 -1.31882 2.82867 0
M  V30 3166 N 295.62 -1.53406 -0.361157 0
M  V30 3167 C 296.866 -1.70054 -1.10496 0
M  V30 3168 C 297.199 -0.453278 -1.88836 0
M  V30 3169 O 296.474 0.5495 -1.86576 0
M  V30 3170 C 296.757 -2.95317 -2.06058 0
M  V30 3171 C 296.61 -4.3021 -1.31298 0
M  V30 3172 C 297.929 -3.16193 -3.06121 0
M  V30 3173 H 295.048 -0.618799 -0.400321 0
M  V30 3174 H 297.69 -1.86052 -0.385318 0
M  V30 3175 H 295.84 -2.81809 -2.67425 0
M  V30 3176 H 297.512 -4.55538 -0.726807 0
M  V30 3177 H 295.755 -4.29421 -0.614853 0
M  V30 3178 H 296.426 -5.14 -2.01265 0
M  V30 3179 H 298.902 -3.28916 -2.5486 0
M  V30 3180 H 297.778 -4.05266 -3.70204 0
M  V30 3181 H 298.039 -2.31676 -3.76535 0
M  V30 3182 N 297.098 0.621204 -1.44841 0
M  V30 3183 C 298.347 1.37658 -1.47422 0
M  V30 3184 C 298.66 1.95264 -0.114629 0
M  V30 3185 O 299.866 2.71494 -0.0180199 0
M  V30 3186 C 298.322 2.49285 -2.59586 0
M  V30 3187 C 297.93 1.98149 -4.01797 0
M  V30 3188 C 299.674 3.26409 -2.71399 0
M  V30 3189 C 297.581 3.07178 -5.05367 0
M  V30 3190 H 296.511 0.517344 -0.548517 0
M  V30 3191 H 299.162 0.667257 -1.70938 0
M  V30 3192 H 297.544 3.22839 -2.29328 0
M  V30 3193 H 298.718 1.31395 -4.41669 0
M  V30 3194 H 297.033 1.33812 -3.94314 0
M  V30 3195 H 299.63 4.07706 -3.45948 0
M  V30 3196 H 299.973 3.76535 -1.77559 0
M  V30 3197 H 300.506 2.5995 -3.01116 0
M  V30 3198 H 297.245 2.61985 -6.00869 0
M  V30 3199 H 296.765 3.72542 -4.70077 0
M  V30 3200 H 298.444 3.71789 -5.29511 0
M  V30 3201 N 298.576 1.31904 0.862503 0
M  V30 3202 C 299.506 1.22782 1.98612 0
M  V30 3203 C 300.487 0.113362 1.69722 0
M  V30 3204 O 301.672 0.299218 1.91881 0
M  V30 3205 C 298.802 0.942058 3.34279 0
M  V30 3206 C 297.756 2.0169 3.77499 0
M  V30 3207 C 297.082 1.58369 5.10709 0
M  V30 3208 C 298.382 3.43096 3.93805 0
M  V30 3209 H 300.076 2.16788 2.06502 0
M  V30 3210 H 297.622 1.04366 0.992154 0
M  V30 3211 H 299.575 0.864818 4.1243 0
M  V30 3212 H 298.299 -0.0336603 3.26583 0
M  V30 3213 H 296.958 2.08416 3.01593 0
M  V30 3214 H 296.606 0.595628 4.99461 0
M  V30 3215 H 296.306 2.30279 5.40597 0
M  V30 3216 H 297.83 1.52067 5.91361 0
M  V30 3217 H 299.244 3.39003 4.62331 0
M  V30 3218 H 297.641 4.13288 4.35101 0
M  V30 3219 H 298.711 3.83334 2.96957 0
M  V30 3220 N 300.054 -1.07777 1.14986 0
M  V30 3221 C 301.284 -1.83752 0.944402 0
M  V30 3222 C 301.692 -1.8218 -0.51058 0
M  V30 3223 O 301.035 -1.22852 -1.36576 0
M  V30 3224 C 301.097 -3.32128 1.37592 0
M  V30 3225 C 300.761 -3.57425 2.84775 0
M  V30 3226 C 301.758 -3.5173 3.8286 0
M  V30 3227 C 299.443 -3.8523 3.2234 0
M  V30 3228 C 301.437 -3.73482 5.16517 0
M  V30 3229 C 299.124 -4.06634 4.56171 0
M  V30 3230 C 300.122 -4.00754 5.53069 0
M  V30 3231 O 299.81 -4.2159 6.84483 0
M  V30 3232 H 299.542 -0.58673 0.335744 0
M  V30 3233 H 302.096 -1.36982 1.53052 0
M  V30 3234 H 300.326 -3.79686 0.733165 0
M  V30 3235 H 302.015 -3.89555 1.14024 0
M  V30 3236 H 302.781 -3.30256 3.55184 0
M  V30 3237 H 298.66 -3.88923 2.47508 0
M  V30 3238 H 302.204 -3.68808 5.92137 0
M  V30 3239 H 298.101 -4.27593 4.83564 0
M  V30 3240 H 298.869 -4.38961 6.90837 0
M  V30 3241 N 301.532 -0.945985 -1.26051 0
M  V30 3242 C 302.781 -0.591836 -1.92822 0
M  V30 3243 C 303.094 0.873956 -1.7499 0
M  V30 3244 O 304.3 1.33769 -2.36259 0
M  V30 3245 C 302.756 -1.00776 -3.45503 0
M  V30 3246 C 302.364 -2.4955 -3.7206 0
M  V30 3247 C 304.108 -0.725735 -4.1825 0
M  V30 3248 C 302.015 -2.84988 -5.18205 0
M  V30 3249 H 300.945 -0.217635 -0.721908 0
M  V30 3250 H 303.596 -1.14927 -1.43052 0
M  V30 3251 H 301.978 -0.378812 -3.94184 0
M  V30 3252 H 303.152 -3.1739 -3.34066 0
M  V30 3253 H 301.467 -2.75133 -3.12555 0
M  V30 3254 H 304.064 -0.966771 -5.25887 0
M  V30 3255 H 304.407 0.337639 -4.14929 0
M  V30 3256 H 304.94 -1.31463 -3.7545 0
M  V30 3257 H 301.679 -3.90307 -5.26631 0
M  V30 3258 H 301.199 -2.21813 -5.57278 0
M  V30 3259 H 302.878 -2.73712 -5.86252 0
M  V30 3260 N 303.011 1.40521 -0.713556 0
M  V30 3261 C 303.941 2.33381 -0.0743864 0
M  V30 3262 C 304.922 1.52784 0.747735 0
M  V30 3263 O 306.107 1.81258 0.697071 0
M  V30 3264 C 303.237 3.36748 0.849598 0
M  V30 3265 C 302.191 4.27793 0.133247 0
M  V30 3266 C 301.517 5.21679 1.17281 0
M  V30 3267 C 302.817 5.12415 -1.01134 0
M  V30 3268 H 304.511 2.87081 -0.850007 0
M  V30 3269 H 302.057 1.38034 -0.410201 0
M  V30 3270 H 304.01 4.00648 1.30612 0
M  V30 3271 H 302.734 2.81439 1.65709 0
M  V30 3272 H 301.393 3.65342 -0.303426 0
M  V30 3273 H 301.041 4.62677 1.9733 0
M  V30 3274 H 300.741 5.83435 0.698397 0
M  V30 3275 H 302.265 5.88456 1.62947 0
M  V30 3276 H 303.679 5.69781 -0.634274 0
M  V30 3277 H 302.076 5.83203 -1.41399 0
M  V30 3278 H 303.146 4.48514 -1.84292 0
M  V30 3279 N 304.489 0.459591 1.5075 0
M  V30 3280 C 305.419 -0.330644 2.31147 0
M  V30 3281 C 306.4 -1.00087 1.37538 0
M  V30 3282 O 307.585 -1.00025 1.66459 0
M  V30 3283 C 304.715 -1.41958 3.16962 0
M  V30 3284 C 303.669 -0.871608 4.19031 0
M  V30 3285 C 302.995 -2.05797 4.9351 0
M  V30 3286 C 304.295 0.109251 5.22186 0
M  V30 3287 H 305.989 0.340336 2.97459 0
M  V30 3288 H 303.535 0.165119 1.4305 0
M  V30 3289 H 305.488 -1.9798 3.71997 0
M  V30 3290 H 304.212 -2.11917 2.48513 0
M  V30 3291 H 302.871 -0.333442 3.6508 0
M  V30 3292 H 302.519 -2.74427 4.21544 0
M  V30 3293 H 302.219 -1.6976 5.62544 0
M  V30 3294 H 303.743 -2.62331 5.51375 0
M  V30 3295 H 305.157 -0.361405 5.7216 0
M  V30 3296 H 303.554 0.383316 5.98875 0
M  V30 3297 H 304.624 1.03887 4.73641 0
M  V30 3298 N 305.967 -1.56429 0.191757 0
M  V30 3299 C 307.213 -1.97777 -0.448554 0
M  V30 3300 C 307.546 -1.07847 -1.61501 0
M  V30 3301 O 306.821 -0.129774 -1.94067 0
M  V30 3302 C 307.104 -3.48362 -0.911906 0
M  V30 3303 C 306.957 -4.4907 0.256136 0
M  V30 3304 C 308.276 -4.02561 -1.77857 0
M  V30 3305 H 305.395 -0.719071 -0.161572 0
M  V30 3306 H 308.037 -1.87896 0.282007 0
M  V30 3307 H 306.187 -3.56914 -1.53442 0
M  V30 3308 H 307.859 -4.5256 0.893733 0
M  V30 3309 H 306.102 -4.24181 0.908436 0
M  V30 3310 H 306.773 -5.51889 -0.11053 0
M  V30 3311 H 309.249 -3.96767 -1.25359 0
M  V30 3312 H 308.125 -5.08301 -2.07174 0
M  V30 3313 H 308.386 -3.47616 -2.73158 0
M  V30 3314 N 307.445 0.0818655 -1.57387 0
M  V30 3315 C 308.693 0.781368 -1.86384 0
M  V30 3316 C 309.014 1.78618 -0.782342 0
M  V30 3317 O 308.284 1.94976 0.190061 0
M  V30 3318 H 306.864 0.291562 -0.687751 0
M  V30 3319 H 309.526 0.060348 -1.94807 0
M  V30 3320 H 308.622 1.3038 -2.83562 0
M  V30 3321 N 308.923 1.53595 0.353017 0
M  V30 3322 C 310.153 1.74058 1.11299 0
M  V30 3323 C 310.561 0.475205 1.83135 0
M  V30 3324 O 309.904 -0.562344 1.74881 0
M  V30 3325 C 309.966 2.85994 2.17825 0
M  V30 3326 C 309.63 4.25923 1.65647 0
M  V30 3327 C 310.627 5.07829 1.11383 0
M  V30 3328 C 308.312 4.72377 1.7078 0
M  V30 3329 C 310.306 6.34285 0.629439 0
M  V30 3330 C 307.993 5.98808 1.21953 0
M  V30 3331 C 308.991 6.79594 0.681265 0
M  V30 3332 O 308.679 8.03651 0.200248 0
M  V30 3333 H 308.411 0.585327 0.338183 0
M  V30 3334 H 310.965 2.01186 0.413927 0
M  V30 3335 H 309.195 2.54368 2.91262 0
M  V30 3336 H 310.884 2.94515 2.79313 0
M  V30 3337 H 311.65 4.73107 1.06746 0
M  V30 3338 H 307.529 4.0956 2.11617 0
M  V30 3339 H 311.073 6.97288 0.208636 0
M  V30 3340 H 306.97 6.33026 1.26287 0
M  V30 3341 H 307.738 8.1788 0.318416 0
M  V30 3342 N 310.401 -0.613514 1.45168 0
M  V30 3343 C 311.812 -1.19539 1.43413 0
M  V30 3344 C 312.163 -1.95558 0.158632 0
M  V30 3345 O 311.288 -2.0335 -0.740119 0
M  V30 3346 C 311.883 -2.17445 2.59813 0
M  V30 3347 C 310.442 -2.71022 2.61197 0
M  V30 3348 C 309.589 -1.46323 2.35552 0
M  V30 3349 H 312.54 -0.403163 1.53494 0
M  V30 3350 H 312.561 -3.00373 2.33574 0
M  V30 3351 H 312.073 -1.62089 3.52631 0
M  V30 3352 H 310.174 -3.30332 1.7237 0
M  V30 3353 H 310.287 -3.15859 3.60236 0
M  V30 3354 H 308.651 -1.75072 1.84992 0
M  V30 3355 H 309.434 -0.92844 3.30507 0
M  V30 3356 N 311.879 -1.3236 -0.855495 0
M  V30 3357 C 313.29 -1.2056 -1.42556 0
M  V30 3358 C 313.641 0.182209 -1.95352 0
M  V30 3359 O 312.766 1.08088 -1.87472 0
M  V30 3360 C 313.361 -2.1826 -2.59129 0
M  V30 3361 C 311.92 -2.10351 -3.12137 0
M  V30 3362 C 311.067 -2.06674 -1.84882 0
M  V30 3363 H 314.018 -1.442 -0.662727 0
M  V30 3364 H 314.039 -1.78064 -3.36264 0
M  V30 3365 H 313.551 -3.19257 -2.20673 0
M  V30 3366 H 311.652 -1.12599 -3.55179 0
M  V30 3367 H 311.765 -3.00135 -3.73438 0
M  V30 3368 H 310.129 -1.51901 -2.04446 0
M  V30 3369 H 310.912 -3.09451 -1.48643 0
M  V30 3370 N 313.357 1.07166 -1.15556 0
M  V30 3371 C 314.604 1.79798 -0.931604 0
M  V30 3372 C 314.932 1.8682 0.54115 0
M  V30 3373 O 314.187 1.34942 1.41736 0
M  V30 3374 C 314.486 3.24707 -1.49332 0
M  V30 3375 C 314.152 3.37781 -2.98688 0
M  V30 3376 C 312.814 3.41057 -3.39461 0
M  V30 3377 C 315.166 3.40424 -3.94665 0
M  V30 3378 C 312.494 3.4458 -4.74849 0
M  V30 3379 C 314.846 3.45485 -5.29927 0
M  V30 3380 C 313.51 3.47039 -5.70193 0
M  V30 3381 H 312.78 0.657928 -0.340898 0
M  V30 3382 H 315.427 1.26091 -1.44129 0
M  V30 3383 H 313.732 3.81208 -0.904859 0
M  V30 3384 H 315.429 3.79486 -1.29582 0
M  V30 3385 H 312.019 3.35932 -2.66172 0
M  V30 3386 H 316.203 3.37113 -3.64237 0
M  V30 3387 H 311.459 3.44083 -5.05388 0
M  V30 3388 H 315.633 3.46476 -6.04092 0
M  V30 3389 H 313.26 3.49522 -6.75084 0
M  V30 3390 N 314.835 0.952656 1.25548 0
M  V30 3391 C 316.081 0.616826 1.93822 0
M  V30 3392 C 316.436 -0.836684 1.73255 0
M  V30 3393 O 315.729 -1.59218 1.06584 0
M  V30 3394 C 315.923 0.908818 3.45652 0
M  V30 3395 C 315.752 2.38916 3.80984 0
M  V30 3396 C 314.522 3.04637 4.03143 0
M  V30 3397 C 316.72 3.36838 3.88645 0
M  V30 3398 N 314.702 4.42565 4.25453 0
M  V30 3399 C 316.073 4.60065 4.1562 0
M  V30 3400 C 318.128 3.31704 3.71318 0
M  V30 3401 C 316.831 5.78795 4.2707 0
M  V30 3402 C 318.857 4.4977 3.84006 0
M  V30 3403 C 318.219 5.71783 4.11392 0
M  V30 3404 H 314.318 0.27629 0.731565 0
M  V30 3405 H 316.902 1.22443 1.5138 0
M  V30 3406 H 315.073 0.330166 3.86994 0
M  V30 3407 H 316.805 0.533093 4.01174 0
M  V30 3408 H 313.56 2.55215 3.98952 0
M  V30 3409 H 313.984 5.1399 4.40617 0
M  V30 3410 H 318.626 2.3842 3.49164 0
M  V30 3411 H 316.344 6.72521 4.48041 0
M  V30 3412 H 319.93 4.47342 3.71989 0
M  V30 3413 H 318.81 6.61617 4.2099 0
M  V30 3414 N 316.313 -1.40141 0.720998 0
M  V30 3415 C 317.59 -1.94677 0.189757 0
M  V30 3416 C 317.97 -1.65879 -1.30566 0
M  V30 3417 O 317.318 -0.979391 -2.06447 0
M  V30 3418 C 317.528 -3.45279 0.508304 0
M  V30 3419 C 318.876 -4.22209 0.449934 0
M  V30 3420 O 319.9 -3.53413 0.444677 0
M  V30 3421 O 318.759 -5.44788 0.432189 0
M  V30 3422 H 315.853 -0.826459 0.0299026 0
M  V30 3423 H 318.399 -1.49719 0.7989 0
M  V30 3424 H 317.171 -3.59619 1.54239 0
M  V30 3425 H 316.794 -3.97386 -0.130525 0
M  V30 3426 N 317.792 -0.46758 -1.50504 0
M  V30 3427 C 318.702 0.33382 -2.32213 0
M  V30 3428 C 319.718 0.999323 -1.42441 0
M  V30 3429 O 320.894 0.988068 -1.75497 0
M  V30 3430 C 317.959 1.4035 -3.17022 0
M  V30 3431 C 317.02 0.754961 -4.2261 0
M  V30 3432 C 316.253 1.77367 -5.03365 0
M  V30 3433 O 316.476 2.99976 -4.8515 0
M  V30 3434 O 315.41 1.34744 -5.86624 0
M  V30 3435 H 319.236 -0.334067 -3.01857 0
M  V30 3436 H 316.821 -0.229496 -1.47627 0
M  V30 3437 H 318.703 2.02318 -3.69656 0
M  V30 3438 H 317.378 2.05492 -2.5011 0
M  V30 3439 H 316.285 0.0964244 -3.73976 0
M  V30 3440 H 317.618 0.146545 -4.91982 0
M  V30 3441 N 319.27 1.56325 -0.20005 0
M  V30 3442 C 320.547 1.89484 0.48529 0
M  V30 3443 C 320.927 1.1143 1.79294 0
M  V30 3444 O 320.275 0.216919 2.27468 0
M  V30 3445 C 320.485 3.41923 0.699243 0
M  V30 3446 C 321.833 4.12256 1.01638 0
M  V30 3447 O 322.857 3.47402 0.786792 0
M  V30 3448 O 321.716 5.26887 1.45095 0
M  V30 3449 H 318.81 0.787144 0.253639 0
M  V30 3450 H 321.356 1.67985 -0.240633 0
M  V30 3451 H 320.128 3.90658 -0.224008 0
M  V30 3452 H 319.751 3.69131 1.47744 0
M  V30 3453 N 320.748 -0.0735177 1.57428 0
M  V30 3454 C 321.68 -1.11423 2.00294 0
M  V30 3455 C 322.693 -1.35084 0.908637 0
M  V30 3456 O 323.882 -1.33355 1.18654 0
M  V30 3457 C 320.982 -2.46548 2.32523 0
M  V30 3458 C 320.155 -2.42867 3.63778 0
M  V30 3459 C 319.214 -3.60087 3.83697 0
M  V30 3460 O 318.24 -3.41595 4.55304 0
M  V30 3461 N 319.442 -4.80372 3.25919 0
M  V30 3462 H 322.207 -0.749206 2.90184 0
M  V30 3463 H 319.768 -0.262195 1.59763 0
M  V30 3464 H 321.76 -3.23607 2.43024 0
M  V30 3465 H 320.33 -2.75059 1.48531 0
M  V30 3466 H 319.55 -1.51206 3.64047 0
M  V30 3467 H 320.838 -2.37506 4.49965 0
M  V30 3468 H 320.236 -4.983 2.67795 0
M  V30 3469 H 318.793 -5.54948 3.41871 0
M  V30 3470 N 322.226 -1.5378 -0.344866 0
M  V30 3471 C 323.176 -1.78057 -1.42407 0
M  V30 3472 C 324.16 -0.635732 -1.47808 0
M  V30 3473 O 325.352 -0.89508 -1.527 0
M  V30 3474 C 322.481 -1.99242 -2.79566 0
M  V30 3475 C 321.567 -3.19787 -2.78562 0
M  V30 3476 N 321.958 -4.41284 -2.47189 0
M  V30 3477 C 320.256 -3.2093 -3.0971 0
M  V30 3478 C 320.957 -5.23128 -2.54385 0
M  V30 3479 N 319.933 -4.59813 -2.89953 0
M  V30 3480 H 323.735 -2.69588 -1.17046 0
M  V30 3481 H 321.249 -1.52687 -0.553217 0
M  V30 3482 H 323.246 -2.14768 -3.57324 0
M  V30 3483 H 321.906 -1.08953 -3.05875 0
M  V30 3484 H 322.917 -4.68657 -2.20411 0
M  V30 3485 H 319.594 -2.40603 -3.41199 0
M  V30 3486 H 320.984 -6.30096 -2.333 0
M  V30 3487 N 323.704 0.605807 -1.45491 0
M  V30 3488 C 325.12 0.926751 -1.29936 0
M  V30 3489 C 325.32 1.99896 -0.253706 0
M  V30 3490 O 324.376 2.50038 0.351737 0
M  V30 3491 C 325.689 1.36599 -2.67883 0
M  V30 3492 C 327.237 1.4801 -2.75793 0
M  V30 3493 C 327.712 1.95309 -4.14268 0
M  V30 3494 N 329.203 2.0254 -4.16571 0
M  V30 3495 C 329.938 2.40363 -5.20589 0
M  V30 3496 N 329.434 2.77143 -6.34952 0
M  V30 3497 N 331.227 2.40718 -5.07948 0
M  V30 3498 H 323.378 -0.102862 -2.12151 0
M  V30 3499 H 325.641 0.016639 -0.947854 0
M  V30 3500 H 325.347 0.652306 -3.45598 0
M  V30 3501 H 325.221 2.33215 -2.96463 0
M  V30 3502 H 327.608 2.1847 -1.98381 0
M  V30 3503 H 327.689 0.497041 -2.50925 0
M  V30 3504 H 327.333 1.25436 -4.92167 0
M  V30 3505 H 327.263 2.94532 -4.3653 0
M  V30 3506 H 329.754 1.76699 -3.34045 0
M  V30 3507 H 330.067 3.0489 -7.10114 0
M  V30 3508 H 328.412 2.74834 -6.3835 0
M  V30 3509 H 331.603 2.11392 -4.1765 0
M  V30 3510 H 331.776 2.69869 -5.89131 0
M  V30 3511 N 325.182 1.32811 0.848464 0
M  V30 3512 C 326.112 1.24882 1.97299 0
M  V30 3513 C 327.093 0.131357 1.69592 0
M  V30 3514 O 328.278 0.319553 1.91553 0
M  V30 3515 C 325.408 0.97746 3.33261 0
M  V30 3516 C 324.362 2.05682 3.75338 0
M  V30 3517 C 323.688 1.63777 5.09 0
M  V30 3518 C 324.988 3.47254 3.90144 0
M  V30 3519 H 326.682 2.18966 2.04191 0
M  V30 3520 H 324.228 1.05413 0.981029 0
M  V30 3521 H 326.181 0.908513 4.1149 0
M  V30 3522 H 324.905 0.000980011 3.266 0
M  V30 3523 H 323.564 2.11603 2.99366 0
M  V30 3524 H 323.212 0.648569 4.98801 0
M  V30 3525 H 322.912 2.36 5.38124 0
M  V30 3526 H 324.436 1.5833 5.89715 0
M  V30 3527 H 325.85 3.43888 4.58709 0
M  V30 3528 H 324.247 4.1788 4.30693 0
M  V30 3529 H 325.317 3.86462 2.92874 0
M  V30 3530 N 326.66 -1.06551 1.16123 0
M  V30 3531 C 327.89 -1.8274 0.963838 0
M  V30 3532 C 328.298 -1.82712 -0.491228 0
M  V30 3533 O 327.641 -1.24294 -1.35265 0
M  V30 3534 C 327.703 -3.3065 1.41106 0
M  V30 3535 C 327.367 -3.54384 2.88549 0
M  V30 3536 C 328.364 -3.4765 3.86569 0
M  V30 3537 C 326.049 -3.81789 3.26408 0
M  V30 3538 C 328.043 -3.67982 5.2045 0
M  V30 3539 C 325.73 -4.01772 4.60459 0
M  V30 3540 C 326.728 -3.94866 5.57288 0
M  V30 3541 O 326.416 -4.14306 6.88916 0
M  V30 3542 H 326.148 -0.583136 0.341948 0
M  V30 3543 H 328.702 -1.35351 1.54497 0
M  V30 3544 H 326.932 -3.78887 0.773394 0
M  V30 3545 H 328.621 -3.88324 1.1815 0
M  V30 3546 H 329.387 -3.2647 3.58667 0
M  V30 3547 H 325.266 -3.86276 2.51619 0
M  V30 3548 H 328.81 -3.62507 5.96015 0
M  V30 3549 H 324.707 -4.2244 4.88072 0
M  V30 3550 H 325.475 -4.31609 6.95454 0
M  V30 3551 N 328.138 -0.959301 -1.25041 0
M  V30 3552 C 329.07 -0.440543 -2.24926 0
M  V30 3553 C 330.083 0.446131 -1.56568 0
M  V30 3554 O 331.272 0.253657 -1.76689 0
M  V30 3555 C 328.372 0.38412 -3.36716 0
M  V30 3556 C 327.545 -0.490658 -4.34639 0
M  V30 3557 C 326.604 0.276587 -5.25473 0
M  V30 3558 O 325.63 -0.326614 -5.68262 0
M  V30 3559 N 326.832 1.56844 -5.5891 0
M  V30 3560 H 329.597 -1.29931 -2.70071 0
M  V30 3561 H 327.158 -0.830181 -1.38995 0
M  V30 3562 H 329.15 0.905228 -3.94446 0
M  V30 3563 H 327.72 1.14377 -2.90924 0
M  V30 3564 H 326.94 -1.19282 -3.7572 0
M  V30 3565 H 328.228 -1.08756 -4.97041 0
M  V30 3566 H 327.626 2.08036 -5.26059 0
M  V30 3567 H 326.183 2.03541 -6.19205 0
M  V30 3568 N 329.616 1.39756 -0.72842 0
M  V30 3569 C 330.548 2.29157 -0.0446202 0
M  V30 3570 C 331.561 1.46484 0.710367 0
M  V30 3571 O 332.75 1.69632 0.55562 0
M  V30 3572 C 329.85 3.24987 0.961071 0
M  V30 3573 C 329.023 4.36572 0.268967 0
M  V30 3574 C 328.082 5.12756 1.18184 0
M  V30 3575 O 327.108 5.6534 0.661794 0
M  V30 3576 N 328.31 5.23331 2.51206 0
M  V30 3577 H 331.075 2.88482 -0.812295 0
M  V30 3578 H 328.636 1.51265 -0.577098 0
M  V30 3579 H 330.628 3.72827 1.57423 0
M  V30 3580 H 329.198 2.66739 1.63 0
M  V30 3581 H 328.418 3.90694 -0.524574 0
M  V30 3582 H 329.706 5.08363 -0.210934 0
M  V30 3583 H 329.104 4.82116 2.9594 0
M  V30 3584 H 327.661 5.74634 3.07634 0
M  V30 3585 N 331.094 0.475555 1.50254 0
M  V30 3586 C 332.343 -0.0795996 2.01543 0
M  V30 3587 C 332.656 -1.4038 1.36209 0
M  V30 3588 O 333.862 -2.04415 1.7868 0
M  V30 3589 C 332.318 -0.192363 3.59386 0
M  V30 3590 C 331.926 1.12367 4.33679 0
M  V30 3591 C 333.67 -0.699238 4.18701 0
M  V30 3592 C 331.577 0.974453 5.83317 0
M  V30 3593 H 330.507 -0.0335228 0.753254 0
M  V30 3594 H 333.158 0.611128 1.73025 0
M  V30 3595 H 331.54 -0.946974 3.84511 0
M  V30 3596 H 332.714 1.88958 4.20276 0
M  V30 3597 H 331.029 1.562 3.85993 0
M  V30 3598 H 333.626 -0.827978 5.28251 0
M  V30 3599 H 333.969 -1.69171 3.80377 0
M  V30 3600 H 334.502 -0.00188807 3.978 0
M  V30 3601 H 331.241 1.94042 6.26121 0
M  V30 3602 H 330.761 0.248998 5.99283 0
M  V30 3603 H 332.44 0.642867 6.43798 0
M  V30 3604 N 332.573 -1.56217 0.208337 0
M  V30 3605 C 333.52 -2.19699 -0.707192 0
M  V30 3606 C 334.49 -1.14836 -1.20008 0
M  V30 3607 O 335.675 -1.4314 -1.26157 0
M  V30 3608 C 332.815 -2.87061 -1.91546 0
M  V30 3609 C 331.928 -4.06483 -1.46271 0
M  V30 3610 C 331.063 -4.61665 -2.62752 0
M  V30 3611 C 330.102 -5.73417 -2.14147 0
M  V30 3612 N 329.239 -6.22948 -3.23853 0
M  V30 3613 H 334.079 -2.97575 -0.159111 0
M  V30 3614 H 331.616 -1.46948 -0.0667874 0
M  V30 3615 H 333.574 -3.24294 -2.62468 0
M  V30 3616 H 332.204 -2.11725 -2.43664 0
M  V30 3617 H 331.256 -3.74825 -0.648886 0
M  V30 3618 H 332.568 -4.87271 -1.06622 0
M  V30 3619 H 331.722 -5.01272 -3.41776 0
M  V30 3620 H 330.461 -3.80013 -3.05682 0
M  V30 3621 H 329.466 -5.33326 -1.33581 0
M  V30 3622 H 330.691 -6.56897 -1.72232 0
M  V30 3623 H 328.637 -5.44213 -3.6629 0
M  V30 3624 H 328.554 -6.98823 -2.88414 0
M  V30 3625 H 329.822 -6.6721 -4.03052 0
M  V30 3626 N 334.051 0.0651679 -1.57465 0
M  V30 3627 C 335.014 1.06117 -2.03155 0
M  V30 3628 C 336.014 1.31204 -0.929632 0
M  V30 3629 O 337.204 1.26813 -1.19432 0
M  V30 3630 C 334.336 2.4032 -2.41783 0
M  V30 3631 H 335.529 0.667231 -2.92383 0
M  V30 3632 H 333.082 0.311075 -1.53173 0
M  V30 3633 H 333.817 2.84532 -1.55601 0
M  V30 3634 H 333.602 2.23451 -3.22199 0
M  V30 3635 H 335.092 3.11898 -2.77685 0
M  V30 3636 N 335.529 1.53961 0.336706 0
M  V30 3637 C 336.777 1.71197 1.07405 0
M  V30 3638 C 337.098 0.481475 1.88962 0
M  V30 3639 O 336.368 -0.504585 1.8929 0
M  V30 3640 H 334.948 0.631185 0.399517 0
M  V30 3641 H 337.61 1.91232 0.376323 0
M  V30 3642 H 336.706 2.58587 1.74755 0
M  V30 3643 N 337.007 -0.598083 1.45811 0
M  V30 3644 C 337.97 -1.69018 1.54808 0
M  V30 3645 C 338.97 -1.55037 0.426652 0
M  V30 3646 O 340.16 -1.59932 0.690456 0
M  V30 3647 C 337.292 -3.0835 1.45371 0
M  V30 3648 H 338.485 -1.62403 2.52121 0
M  V30 3649 H 336.038 -0.814626 1.33392 0
M  V30 3650 H 336.773 -3.20534 0.492793 0
M  V30 3651 H 336.558 -3.19907 2.26721 0
M  V30 3652 H 338.048 -3.8788 1.54721 0
M  V30 3653 N 338.485 -1.33259 -0.841409 0
M  V30 3654 C 339.715 -1.2742 -1.62628 0
M  V30 3655 C 340.123 0.157604 -1.88542 0
M  V30 3656 O 339.466 1.10938 -1.46419 0
M  V30 3657 C 339.528 -1.97797 -3.00194 0
M  V30 3658 C 339.192 -3.47109 -2.97261 0
M  V30 3659 C 340.189 -4.42358 -2.73159 0
M  V30 3660 C 337.874 -3.89247 -3.17478 0
M  V30 3661 C 339.868 -5.77718 -2.69296 0
M  V30 3662 C 337.555 -5.24713 -3.13241 0
M  V30 3663 C 338.553 -6.1876 -2.89181 0
M  V30 3664 O 338.241 -7.51745 -2.84843 0
M  V30 3665 H 337.973 -0.440436 -0.512827 0
M  V30 3666 H 340.527 -1.76153 -1.05638 0
M  V30 3667 H 338.757 -1.43652 -3.59028 0
M  V30 3668 H 340.446 -1.8549 -3.61038 0
M  V30 3669 H 341.212 -4.11127 -2.57294 0
M  V30 3670 H 337.091 -3.16456 -3.35226 0
M  V30 3671 H 340.635 -6.51097 -2.50436 0
M  V30 3672 H 336.532 -5.55569 -3.28654 0
M  V30 3673 H 337.3 -7.61262 -3.00702 0
M  V30 3674 N 339.963 1.05934 -1.16686 0
M  V30 3675 C 341.24 1.75643 -0.860747 0
M  V30 3676 C 341.62 2.01144 0.640641 0
M  V30 3677 O 340.968 1.64147 1.58959 0
M  V30 3678 C 341.178 3.05493 -1.68745 0
M  V30 3679 C 342.526 3.79581 -1.90271 0
M  V30 3680 O 343.55 3.15344 -1.65641 0
M  V30 3681 O 342.409 4.9499 -2.31618 0
M  V30 3682 H 339.503 0.763426 -0.317977 0
M  V30 3683 H 342.049 1.1217 -1.27342 0
M  V30 3684 H 340.821 2.8264 -2.70611 0
M  V30 3685 H 340.444 3.76702 -1.27206 0
M  V30 3686 N 341.441 0.965919 1.2453 0
M  V30 3687 C 342.688 0.626831 1.92554 0
M  V30 3688 C 343.016 -0.837739 1.75534 0
M  V30 3689 O 342.271 -1.61793 1.10098 0
M  V30 3690 C 342.57 0.945428 3.44669 0
M  V30 3691 C 342.236 2.39785 3.81856 0
M  V30 3692 C 340.898 2.79483 3.91718 0
M  V30 3693 C 343.25 3.34055 4.00071 0
M  V30 3694 C 340.578 4.12496 4.1721 0
M  V30 3695 C 342.93 4.66694 4.27059 0
M  V30 3696 C 341.594 5.06172 4.3514 0
M  V30 3697 H 340.864 0.229374 0.704605 0
M  V30 3698 H 343.511 1.21707 1.4785 0
M  V30 3699 H 341.816 0.272926 3.90848 0
M  V30 3700 H 343.513 0.661484 3.95507 0
M  V30 3701 H 340.103 2.08003 3.74743 0
M  V30 3702 H 344.287 3.04571 3.91855 0
M  V30 3703 H 339.543 4.42709 4.21685 0
M  V30 3704 H 343.717 5.3971 4.40097 0
M  V30 3705 H 341.344 6.09262 4.54646 0
M  V30 3706 N 342.919 -1.39368 0.735821 0
M  V30 3707 C 344.33 -1.83313 0.354015 0
M  V30 3708 C 344.681 -1.61461 -1.11466 0
M  V30 3709 O 343.806 -1.10621 -1.85989 0
M  V30 3710 C 344.401 -3.32781 0.635769 0
M  V30 3711 C 342.96 -3.75142 0.307448 0
M  V30 3712 C 342.107 -2.62358 0.897974 0
M  V30 3713 H 345.058 -1.28349 0.933398 0
M  V30 3714 H 345.079 -3.80388 -0.0921773 0
M  V30 3715 H 344.591 -3.48654 1.70476 0
M  V30 3716 H 342.692 -3.64857 -0.755674 0
M  V30 3717 H 342.805 -4.72532 0.790583 0
M  V30 3718 H 341.169 -2.52624 0.324551 0
M  V30 3719 H 341.952 -2.81036 1.97164 0
M  V30 3720 N 344.397 -0.483516 -1.5 0
M  V30 3721 C 345.622 0.0667119 -2.07293 0
M  V30 3722 C 346.047 1.3164 -1.3436 0
M  V30 3723 O 345.405 1.76945 -0.394987 0
M  V30 3724 C 345.453 0.321126 -3.59167 0
M  V30 3725 O 344.557 1.39927 -3.87936 0
M  V30 3726 H 343.898 -0.0184758 -0.663743 0
M  V30 3727 H 346.428 -0.678125 -1.93035 0
M  V30 3728 H 346.438 0.557906 -4.04168 0
M  V30 3729 H 345.113 -0.592007 -4.11665 0
M  V30 3730 H 343.69 1.14882 -3.54763 0
M  V30 3731 N 345.875 1.56104 -0.216619 0
M  V30 3732 C 347.286 1.844 0.292128 0
M  V30 3733 C 347.637 1.13788 1.59833 0
M  V30 3734 O 346.762 0.405888 2.12559 0
M  V30 3735 C 347.357 3.3452 0.53681 0
M  V30 3736 C 345.916 3.63151 0.989876 0
M  V30 3737 C 345.063 2.77255 0.0502302 0
M  V30 3738 H 348.014 1.52481 -0.439926 0
M  V30 3739 H 348.035 3.54459 1.38345 0
M  V30 3740 H 347.547 3.85885 -0.414031 0
M  V30 3741 H 345.648 3.17238 1.95425 0
M  V30 3742 H 345.761 4.71177 0.867698 0
M  V30 3743 H 344.125 2.48555 0.556117 0
M  V30 3744 H 344.908 3.31416 -0.89544 0
M  V30 3745 N 347.353 -0.0568162 1.57498 0
M  V30 3746 C 348.263 -1.08346 2.08083 0
M  V30 3747 C 349.279 -1.41439 1.01346 0
M  V30 3748 O 350.455 -1.51316 1.32912 0
M  V30 3749 C 347.52 -2.37352 2.52715 0
M  V30 3750 C 346.581 -2.11093 3.73816 0
M  V30 3751 C 345.814 -3.33949 4.1631 0
M  V30 3752 O 346.037 -4.43622 3.58547 0
M  V30 3753 O 344.971 -3.21279 5.08983 0
M  V30 3754 H 348.797 -0.683667 2.95905 0
M  V30 3755 H 346.382 -0.271965 1.46904 0
M  V30 3756 H 348.264 -3.13246 2.81877 0
M  V30 3757 H 346.939 -2.76681 1.68016 0
M  V30 3758 H 345.846 -1.32856 3.49714 0
M  V30 3759 H 347.179 -1.76637 4.59413 0
M  V30 3760 N 348.832 -1.54138 -0.328536 0
M  V30 3761 C 350.078 -1.73297 -1.06488 0
M  V30 3762 C 350.433 -0.497958 -1.85844 0
M  V30 3763 O 349.726 0.509591 -1.84699 0
M  V30 3764 C 349.92 -2.9457 -2.02393 0
M  V30 3765 C 349.749 -4.29747 -1.32467 0
M  V30 3766 C 348.519 -4.93987 -1.06324 0
M  V30 3767 C 350.717 -5.08903 -0.743137 0
M  V30 3768 N 348.699 -6.13005 -0.331359 0
M  V30 3769 C 350.07 -6.19836 -0.142602 0
M  V30 3770 C 352.125 -4.93699 -0.64546 0
M  V30 3771 C 350.828 -7.17224 0.546125 0
M  V30 3772 C 352.854 -5.91393 0.0295558 0
M  V30 3773 C 352.216 -7.01674 0.619056 0
M  V30 3774 H 348.315 -0.687017 -0.373539 0
M  V30 3775 H 350.899 -1.91589 -0.346659 0
M  V30 3776 H 349.07 -2.77752 -2.71493 0
M  V30 3777 H 350.802 -3.0238 -2.68977 0
M  V30 3778 H 347.557 -4.53824 -1.35428 0
M  V30 3779 H 347.981 -6.76997 0.0202939 0
M  V30 3780 H 352.623 -4.08589 -1.08695 0
M  V30 3781 H 350.341 -8.01896 0.999459 0
M  V30 3782 H 353.927 -5.81706 0.104705 0
M  V30 3783 H 352.807 -7.75971 1.13309 0
M  V30 3784 N 350.31 0.590341 -1.46126 0
M  V30 3785 C 351.587 1.35029 -1.41515 0
M  V30 3786 C 351.967 2.10888 -0.0946472 0
M  V30 3787 O 351.315 2.08998 0.923693 0
M  V30 3788 C 351.525 2.28269 -2.63997 0
M  V30 3789 C 352.873 2.90338 -3.09821 0
M  V30 3790 O 353.897 2.38585 -2.64492 0
M  V30 3791 O 352.756 3.84321 -3.88535 0
M  V30 3792 H 349.85 0.606317 -0.562413 0
M  V30 3793 H 352.396 0.611994 -1.58281 0
M  V30 3794 H 351.168 1.71591 -3.51671 0
M  V30 3795 H 350.791 3.0945 -2.49652 0
M  V30 3796 N 351.788 1.33704 0.83433 0
M  V30 3797 C 353.016 1.28467 1.62185 0
M  V30 3798 C 353.431 -0.143526 1.88254 0
M  V30 3799 O 352.788 -1.08709 1.4659 0
M  V30 3800 C 352.839 2.06174 2.96942 0
M  V30 3801 O 352.56 3.43422 2.72016 0
M  V30 3802 C 354.061 2.08201 3.91366 0
M  V30 3803 H 351.281 0.4424 0.504503 0
M  V30 3804 H 353.825 1.76145 1.03891 0
M  V30 3805 H 351.98 1.62167 3.51825 0
M  V30 3806 H 352.394 3.83453 3.57861 0
M  V30 3807 H 353.868 2.67017 4.83121 0
M  V30 3808 H 354.345 1.07343 4.2588 0
M  V30 3809 H 354.951 2.52246 3.42421 0
M  V30 3810 N 353.266 -1.05314 1.17247 0
M  V30 3811 C 354.512 -1.78557 0.961513 0
M  V30 3812 C 354.845 -1.87419 -0.508697 0
M  V30 3813 O 354.12 -1.37307 -1.37757 0
M  V30 3814 C 354.403 -3.22514 1.60176 0
M  V30 3815 C 354.256 -3.21673 3.14399 0
M  V30 3816 C 355.575 -4.20318 1.30463 0
M  V30 3817 H 352.694 -0.6482 0.350723 0
M  V30 3818 H 355.336 -1.23102 1.44727 0
M  V30 3819 H 353.486 -3.69867 1.18871 0
M  V30 3820 H 355.158 -2.82405 3.64753 0
M  V30 3821 H 353.401 -2.60048 3.47214 0
M  V30 3822 H 354.072 -4.23271 3.54324 0
M  V30 3823 H 356.548 -3.81454 1.66229 0
M  V30 3824 H 355.424 -5.19289 1.77848 0
M  V30 3825 H 355.685 -4.41526 0.22521 0
M  V30 3826 N 354.744 -0.972509 -1.24016 0
M  V30 3827 C 355.972 -0.654803 -1.96265 0
M  V30 3828 C 356.387 0.776708 -1.72083 0
M  V30 3829 O 355.744 1.52171 -1.00748 0
M  V30 3830 C 355.795 -0.92592 -3.49441 0
M  V30 3831 O 355.516 -2.30116 -3.72798 0
M  V30 3832 C 357.017 -0.623068 -4.38899 0
M  V30 3833 H 354.237 -0.243907 -0.6251 0
M  V30 3834 H 356.781 -1.30175 -1.57717 0
M  V30 3835 H 354.936 -0.325108 -3.86033 0
M  V30 3836 H 355.35 -2.38483 -4.67147 0
M  V30 3837 H 356.824 -0.863189 -5.45209 0
M  V30 3838 H 357.301 0.442754 -4.36963 0
M  V30 3839 H 357.907 -1.204 -4.07902 0
M  V30 3840 N 356.222 1.38976 -0.743202 0
M  V30 3841 C 357.633 1.83123 -0.363732 0
M  V30 3842 C 357.984 1.6205 1.10609 0
M  V30 3843 O 357.109 1.11606 1.854 0
M  V30 3844 C 357.704 3.32439 -0.653408 0
M  V30 3845 C 356.263 3.74974 -0.327338 0
M  V30 3846 C 355.41 2.61878 -0.911875 0
M  V30 3847 H 358.361 1.27852 -0.940191 0
M  V30 3848 H 358.382 3.80432 0.0720031 0
M  V30 3849 H 357.894 3.47745 -1.72323 0
M  V30 3850 H 355.995 3.65252 0.736314 0
M  V30 3851 H 356.108 4.72106 -0.815631 0
M  V30 3852 H 354.472 2.52448 -0.337944 0
M  V30 3853 H 355.255 2.79987 -1.98651 0
M  V30 3854 N 357.7 0.491464 1.49741 0
M  V30 3855 C 358.61 -0.296835 2.32715 0
M  V30 3856 C 359.626 -0.976536 1.44013 0
M  V30 3857 O 360.802 -0.960023 1.77047 0
M  V30 3858 C 357.867 -1.35288 3.19215 0
M  V30 3859 C 356.928 -0.687632 4.23757 0
M  V30 3860 C 356.161 -1.69336 5.06123 0
M  V30 3861 O 356.384 -2.92219 4.89861 0
M  V30 3862 O 355.318 -1.25394 5.88693 0
M  V30 3863 H 359.144 0.382048 3.01287 0
M  V30 3864 H 356.729 0.252953 1.47243 0
M  V30 3865 H 358.611 -1.96411 3.72828 0
M  V30 3866 H 357.286 -2.01487 2.53347 0
M  V30 3867 H 356.193 -0.0369159 3.74082 0
M  V30 3868 H 357.526 -0.0682566 4.92153 0
M  V30 3869 N 359.178 -1.55987 0.224894 0
M  V30 3870 C 360.141 -2.19178 -0.670348 0
M  V30 3871 C 361.141 -1.15461 -1.11917 0
M  V30 3872 O 362.331 -1.40675 -1.02743 0
M  V30 3873 C 359.463 -2.81777 -1.9187 0
M  V30 3874 H 360.656 -2.99662 -0.119364 0
M  V30 3875 H 358.209 -1.5628 -0.0247128 0
M  V30 3876 H 358.944 -2.05172 -2.51147 0
M  V30 3877 H 358.729 -3.57732 -1.60531 0
M  V30 3878 H 360.219 -3.30205 -2.55645 0
M  V30 3879 N 360.656 0.0484629 -1.57525 0
M  V30 3880 C 361.603 1.05504 -2.05275 0
M  V30 3881 C 362.573 1.37084 -0.937927 0
M  V30 3882 O 363.758 1.47754 -1.2072 0
M  V30 3883 C 360.898 2.35676 -2.52093 0
M  V30 3884 C 360.011 2.10423 -3.77288 0
M  V30 3885 C 359.146 3.34327 -4.12794 0
M  V30 3886 C 358.185 3.04542 -5.30962 0
M  V30 3887 N 357.322 4.20841 -5.61994 0
M  V30 3888 H 362.162 0.640885 -2.91027 0
M  V30 3889 H 359.699 0.304854 -1.43906 0
M  V30 3890 H 361.657 3.11709 -2.77297 0
M  V30 3891 H 360.287 2.7485 -1.69285 0
M  V30 3892 H 359.339 1.24976 -3.59284 0
M  V30 3893 H 360.651 1.84438 -4.63448 0
M  V30 3894 H 359.805 4.1874 -4.39024 0
M  V30 3895 H 358.544 3.63408 -3.25247 0
M  V30 3896 H 357.549 2.18528 -5.04505 0
M  V30 3897 H 358.774 2.76758 -6.20146 0
M  V30 3898 H 356.72 4.4991 -4.77406 0
M  V30 3899 H 356.637 3.98212 -6.42622 0
M  V30 3900 H 357.905 5.06184 -5.92789 0
M  V30 3901 N 362.134 1.5431 0.320358 0
M  V30 3902 C 363.411 1.63322 1.07635 0
M  V30 3903 C 363.791 0.46912 2.05821 0
M  V30 3904 O 363.139 -0.536274 2.22118 0
M  V30 3905 C 363.349 3.00465 1.77544 0
M  V30 3906 C 364.697 3.56621 2.30449 0
M  V30 3907 O 365.721 3.02791 1.87606 0
M  V30 3908 O 364.58 4.5083 3.08892 0
M  V30 3909 H 361.674 0.661502 0.496331 0
M  V30 3910 H 364.22 1.66656 0.319992 0
M  V30 3911 H 362.992 3.76629 1.06143 0
M  V30 3912 H 362.615 3.00824 2.59982 0
M  V30 3913 N 363.613 -0.582584 1.46437 0
M  V30 3914 C 364.543 -1.70187 1.59871 0
M  V30 3915 C 365.524 -1.64066 0.449042 0
M  V30 3916 O 366.709 -1.82081 0.6753 0
M  V30 3917 C 363.839 -3.08827 1.58881 0
M  V30 3918 C 362.793 -3.29779 2.72819 0
M  V30 3919 C 362.119 -4.68947 2.5689 0
M  V30 3920 C 363.419 -3.17601 4.1464 0
M  V30 3921 H 365.113 -1.592 2.53566 0
M  V30 3922 H 362.659 -0.764472 1.22032 0
M  V30 3923 H 364.612 -3.86951 1.66873 0
M  V30 3924 H 363.336 -3.20713 0.617306 0
M  V30 3925 H 361.995 -2.54054 2.64296 0
M  V30 3926 H 361.643 -4.77599 1.57823 0
M  V30 3927 H 361.343 -4.83919 3.33312 0
M  V30 3928 H 362.867 -5.4924 2.66773 0
M  V30 3929 H 364.281 -3.8557 4.24274 0
M  V30 3930 H 362.678 -3.44094 4.9165 0
M  V30 3931 H 363.748 -2.14681 4.34788 0
M  V30 3932 N 365.091 -1.34144 -0.827227 0
M  V30 3933 C 366.34 -1.25602 -1.5782 0
M  V30 3934 C 366.653 0.173445 -1.94829 0
M  V30 3935 O 367.859 0.380984 -2.68814 0
M  V30 3936 C 366.315 -2.20151 -2.84713 0
M  V30 3937 C 365.923 -3.68331 -2.55021 0
M  V30 3938 C 367.667 -2.20508 -3.62735 0
M  V30 3939 C 365.574 -4.54762 -3.78082 0
M  V30 3940 H 364.504 -0.466573 -0.592306 0
M  V30 3941 H 367.155 -1.59283 -0.911116 0
M  V30 3942 H 365.537 -1.79417 -3.53023 0
M  V30 3943 H 366.711 -4.17577 -1.94849 0
M  V30 3944 H 365.026 -3.7038 -1.90283 0
M  V30 3945 H 367.623 -2.82306 -4.54101 0
M  V30 3946 H 367.966 -1.20322 -3.98533 0
M  V30 3947 H 368.499 -2.59664 -3.01362 0
M  V30 3948 H 365.238 -5.55867 -3.47407 0
M  V30 3949 H 364.758 -4.10254 -4.37552 0
M  V30 3950 H 366.437 -4.69153 -4.45538 0
M  V30 3951 N 366.569 1.04691 -1.17803 0
M  V30 3952 C 367.517 2.14665 -0.895635 0
M  V30 3953 C 368.511 1.68806 0.141679 0
M  V30 3954 O 369.717 1.79999 -0.00587914 0
M  V30 3955 H 366.092 0.701038 -0.272121 0
M  V30 3956 H 368.063 2.35685 -1.83017 0
M  V30 3957 C 366.812 3.45019 -0.430962 0
M  V30 3958 H 366.135 3.8071 -1.22064 0
M  V30 3959 H 367.575 4.23125 -0.272301 0
M  V30 3960 C 366.034 3.25943 0.852207 0
M  V30 3961 O 366.564 3.5296 1.91786 0
M  V30 3962 N 364.77 2.79304 0.802346 0
M  V30 3963 H 364.317 2.57518 -0.0650788 0
M  V30 3964 H 364.275 2.66921 1.66134 0
M  V30 3965 N 368.047 0.979072 1.23499 0
M  V30 3966 C 368.994 0.517904 2.24914 0
M  V30 3967 C 369.964 -0.442525 1.60097 0
M  V30 3968 O 371.149 -0.350365 1.87556 0
M  V30 3969 C 368.289 -0.174813 3.44657 0
M  V30 3970 C 367.402 0.825721 4.24035 0
M  V30 3971 C 366.537 0.107946 5.3109 0
M  V30 3972 C 365.576 1.09778 6.02175 0
M  V30 3973 N 364.713 0.40925 7.00906 0
M  V30 3974 H 369.553 1.38751 2.63727 0
M  V30 3975 H 367.09 0.695303 1.2963 0
M  V30 3976 H 369.048 -0.593233 4.12961 0
M  V30 3977 H 367.678 -1.0083 3.06648 0
M  V30 3978 H 366.73 1.36253 3.55161 0
M  V30 3979 H 368.042 1.58005 4.73113 0
M  V30 3980 H 367.196 -0.367904 6.05583 0
M  V30 3981 H 365.935 -0.678994 4.8295 0
M  V30 3982 H 364.94 1.5844 5.26476 0
M  V30 3983 H 366.165 1.88536 6.52404 0
M  V30 3984 H 364.111 -0.358506 6.5502 0
M  V30 3985 H 364.028 1.10226 7.47921 0
M  V30 3986 H 365.296 -0.0442557 7.79487 0
M  V30 3987 N 369.525 -1.3858 0.750561 0
M  V30 3988 C 370.458 -2.28095 0.0693139 0
M  V30 3989 C 371.436 -1.45217 -0.731491 0
M  V30 3990 O 372.62 -1.74587 -0.71076 0
M  V30 3991 C 369.747 -3.26282 -0.90871 0
M  V30 3992 C 368.793 -4.26056 -0.194507 0
M  V30 3993 S 369.626 -5.24026 1.10257 0
M  V30 3994 C 370.782 -6.2577 0.127542 0
M  V30 3995 H 371.015 -2.85526 0.8284 0
M  V30 3996 H 368.548 -1.44536 0.543014 0
M  V30 3997 H 370.506 -3.83367 -1.46766 0
M  V30 3998 H 369.167 -2.6784 -1.64075 0
M  V30 3999 H 368.36 -4.95249 -0.93512 0
M  V30 4000 H 367.962 -3.72852 0.292837 0
M  V30 4001 H 370.254 -6.73796 -0.707516 0
M  V30 4002 H 371.197 -7.03712 0.787044 0
M  V30 4003 H 371.605 -5.63938 -0.251803 0
M  V30 4004 N 371.003 -0.499398 -1.49478 0
M  V30 4005 C 371.933 0.269244 -2.31943 0
M  V30 4006 C 372.914 0.964054 -1.40143 0
M  V30 4007 O 374.099 0.955767 -1.69052 0
M  V30 4008 C 371.229 1.33504 -3.20615 0
M  V30 4009 C 370.183 0.760202 -4.21195 0
M  V30 4010 C 369.509 1.9264 -4.98792 0
M  V30 4011 C 370.809 -0.247661 -5.21712 0
M  V30 4012 H 372.503 -0.419082 -2.96452 0
M  V30 4013 H 370.049 -0.202988 -1.42562 0
M  V30 4014 H 372.002 1.88048 -3.77115 0
M  V30 4015 H 370.726 2.05253 -2.54045 0
M  V30 4016 H 369.385 0.23653 -3.65836 0
M  V30 4017 H 369.033 2.63154 -4.28671 0
M  V30 4018 H 368.733 1.54785 -5.66847 0
M  V30 4019 H 370.257 2.4762 -5.58137 0
M  V30 4020 H 371.671 0.209579 -5.72917 0
M  V30 4021 H 370.068 -0.541962 -5.97648 0
M  V30 4022 H 371.138 -1.16409 -4.7072 0
M  V30 4023 N 372.481 1.55866 -0.233164 0
M  V30 4024 C 373.709 2.02998 0.399905 0
M  V30 4025 C 374.124 1.11274 1.52524 0
M  V30 4026 O 373.481 0.124528 1.82075 0
M  V30 4027 C 373.532 3.4958 0.920639 0
M  V30 4028 O 373.253 4.37808 -0.159834 0
M  V30 4029 C 374.754 4.12411 1.62578 0
M  V30 4030 H 371.974 0.664006 0.0966281 0
M  V30 4031 H 374.518 2.0143 -0.353013 0
M  V30 4032 H 372.673 3.51727 1.62379 0
M  V30 4033 H 373.087 5.23981 0.23337 0
M  V30 4034 H 374.561 5.16711 1.94201 0
M  V30 4035 H 375.038 3.5809 2.54299 0
M  V30 4036 H 375.644 4.14148 0.967553 0
M  V30 4037 N 373.959 -0.0401083 1.57549 0
M  V30 4038 C 375.208 -0.732108 1.87944 0
M  V30 4039 C 375.521 -1.77107 0.830206 0
M  V30 4040 O 376.727 -2.51488 1.02302 0
M  V30 4041 C 375.183 -1.35315 3.33494 0
M  V30 4042 C 374.791 -0.351105 4.46622 0
M  V30 4043 C 376.535 -2.02566 3.73051 0
M  V30 4044 C 374.442 -0.979859 5.83226 0
M  V30 4045 H 373.372 -0.277188 0.701201 0
M  V30 4046 H 376.023 0.0138501 1.83495 0
M  V30 4047 H 374.405 -2.14844 3.32653 0
M  V30 4048 H 375.579 0.416674 4.58912 0
M  V30 4049 H 373.894 0.218708 4.15825 0
M  V30 4050 H 376.491 -2.50441 4.72423 0
M  V30 4051 H 376.834 -2.83904 3.04474 0
M  V30 4052 H 377.367 -1.29827 3.76018 0
M  V30 4053 H 374.106 -0.206135 6.55176 0
M  V30 4054 H 373.626 -1.71774 5.74677 0
M  V30 4055 H 375.305 -1.49046 6.29599 0
M  V30 4056 N 375.437 -1.54477 -0.31217 0
M  V30 4057 C 376.385 -1.85395 -1.40469 0
M  V30 4058 C 377.379 -0.726749 -1.53019 0
M  V30 4059 O 378.585 -0.910582 -1.55269 0
M  V30 4060 H 374.96 -0.587845 -0.46898 0
M  V30 4061 H 376.931 -2.76736 -1.11623 0
M  V30 4062 C 375.68 -2.10811 -2.76503 0
M  V30 4063 H 375.003 -2.97014 -2.67625 0
M  V30 4064 H 376.443 -2.3639 -3.51988 0
M  V30 4065 C 374.902 -0.903165 -3.24568 0
M  V30 4066 O 375.432 -0.118085 -4.01526 0
M  V30 4067 N 373.638 -0.711634 -2.81752 0
M  V30 4068 H 373.185 -1.35171 -2.19286 0
M  V30 4069 H 373.143 0.0930473 -3.14262 0
M  V30 4070 N 376.915 0.57481 -1.46744 0
M  V30 4071 C 378.326 1.15695 -1.46532 0
M  V30 4072 C 378.677 1.95068 -0.210425 0
M  V30 4073 O 377.802 2.05241 0.685944 0
M  V30 4074 C 378.397 2.1048 -2.65487 0
M  V30 4075 C 376.956 2.64002 -2.68291 0
M  V30 4076 C 376.103 1.40026 -2.39349 0
M  V30 4077 H 379.054 0.362325 -1.54509 0
M  V30 4078 H 379.075 2.94074 -2.41455 0
M  V30 4079 H 378.587 1.52683 -3.56805 0
M  V30 4080 H 376.688 3.25646 -1.81067 0
M  V30 4081 H 376.801 3.06197 -3.68483 0
M  V30 4082 H 375.165 1.70106 -1.89568 0
M  V30 4083 H 375.948 0.840485 -3.32852 0
M  V30 4084 N 378.394 1.34581 0.820102 0
M  V30 4085 C 379.619 1.30333 1.61332 0
M  V30 4086 C 380.044 -0.119339 1.87721 0
M  V30 4087 O 379.402 -1.08197 1.45475 0
M  V30 4088 C 379.45 2.10258 2.92957 0
M  V30 4089 O 378.554 1.47404 3.85157 0
M  V30 4090 H 377.895 0.447488 0.490561 0
M  V30 4091 H 380.425 1.77425 1.01889 0
M  V30 4092 H 380.435 2.21718 3.42498 0
M  V30 4093 H 379.11 3.13693 2.73074 0
M  V30 4094 H 377.687 1.44703 3.43679 0
M  V30 4095 N 379.872 -1.04064 1.18357 0
M  V30 4096 C 380.819 -2.12077 0.910603 0
M  V30 4097 C 381.789 -1.65421 -0.15 0
M  V30 4098 O 382.974 -1.90797 -0.0103614 0
M  V30 4099 C 380.114 -3.42252 0.442472 0
M  V30 4100 C 379.227 -4.0252 1.5685 0
M  V30 4101 C 378.362 -5.20657 1.05309 0
M  V30 4102 C 377.401 -5.72955 2.1538 0
M  V30 4103 N 376.538 -6.8238 1.65233 0
M  V30 4104 H 381.378 -2.34764 1.83548 0
M  V30 4105 H 378.915 -1.15157 0.915279 0
M  V30 4106 H 380.873 -4.16921 0.152534 0
M  V30 4107 H 379.503 -3.19712 -0.445428 0
M  V30 4108 H 378.555 -3.25178 1.97391 0
M  V30 4109 H 379.867 -4.37362 2.39824 0
M  V30 4110 H 379.021 -6.0244 0.717677 0
M  V30 4111 H 377.76 -4.87318 0.19293 0
M  V30 4112 H 376.765 -4.89793 2.49766 0
M  V30 4113 H 377.99 -6.08337 3.01832 0
M  V30 4114 H 375.936 -6.50917 0.815064 0
M  V30 4115 H 375.853 -7.16286 2.41805 0
M  V30 4116 H 377.121 -7.67788 1.34619 0
M  V30 4117 N 381.35 -0.985608 -1.22978 0
M  V30 4118 C 382.766 -0.695104 -1.43668 0
M  V30 4119 C 382.966 0.736866 -1.87543 0
M  V30 4120 O 382.022 1.50868 -2.02473 0
M  V30 4121 C 383.335 -1.69447 -2.48412 0
M  V30 4122 C 384.883 -1.70909 -2.62219 0
M  V30 4123 C 385.358 -2.6969 -3.70178 0
M  V30 4124 N 386.849 -2.6824 -3.77626 0
M  V30 4125 C 387.584 -3.41339 -4.60733 0
M  V30 4126 N 387.08 -4.24015 -5.4789 0
M  V30 4127 N 388.873 -3.30079 -4.54977 0
M  V30 4128 H 381.024 -1.91054 -0.928016 0
M  V30 4129 H 383.287 -0.823553 -0.469536 0
M  V30 4130 H 382.993 -2.7188 -2.23102 0
M  V30 4131 H 382.867 -1.48147 -3.46889 0
M  V30 4132 H 385.254 -0.691785 -2.86877 0
M  V30 4133 H 385.335 -1.96276 -1.6404 0
M  V30 4134 H 384.979 -3.71566 -3.46268 0
M  V30 4135 H 384.909 -2.41595 -4.67909 0
M  V30 4136 H 387.4 -2.08243 -3.15346 0
M  V30 4137 H 387.713 -4.76636 -6.08308 0
M  V30 4138 H 386.058 -4.28104 -5.47496 0
M  V30 4139 H 389.249 -2.64937 -3.85909 0
M  V30 4140 H 389.422 -3.87308 -5.19516 0
M  V30 4141 N 382.828 1.3818 -0.7579 0
M  V30 4142 C 384.077 1.99261 -0.312744 0
M  V30 4143 C 384.39 1.60846 1.11301 0
M  V30 4144 O 385.596 2.14929 1.65885 0
M  V30 4145 C 384.052 3.56294 -0.50821 0
M  V30 4146 C 383.66 4.03657 -1.94333 0
M  V30 4147 C 385.404 4.24313 -0.125982 0
M  V30 4148 C 383.311 5.53347 -2.08712 0
M  V30 4149 H 382.241 0.745456 -0.113185 0
M  V30 4150 H 384.892 1.57889 -0.935056 0
M  V30 4151 H 383.274 3.95575 0.183353 0
M  V30 4152 H 384.448 3.75655 -2.66871 0
M  V30 4153 H 382.763 3.48376 -2.28086 0
M  V30 4154 H 385.36 5.34279 -0.212125 0
M  V30 4155 H 385.703 4.05962 0.921964 0
M  V30 4156 H 386.236 3.90285 -0.769563 0
M  V30 4157 H 382.975 5.76607 -3.11777 0
M  V30 4158 H 382.495 5.83078 -1.4064 0
M  V30 4159 H 384.174 6.19111 -1.87912 0
M  V30 4160 N 384.306 0.507319 1.49211 0
M  V30 4161 C 385.534 -0.0315749 2.06876 0
M  V30 4162 C 385.949 -1.30241 1.36685 0
M  V30 4163 O 385.306 -1.76937 0.447152 0
M  V30 4164 C 385.357 -0.282627 3.60393 0
M  V30 4165 O 385.078 0.937835 4.27944 0
M  V30 4166 C 386.579 -0.864453 4.3479 0
M  V30 4167 H 383.799 0.0233048 0.670595 0
M  V30 4168 H 386.343 0.706484 1.91909 0
M  V30 4169 H 384.498 -0.97068 3.75042 0
M  V30 4170 H 384.912 0.704567 5.19746 0
M  V30 4171 H 386.386 -0.989664 5.43056 0
M  V30 4172 H 386.863 -1.86382 3.97692 0
M  V30 4173 H 387.469 -0.213672 4.24763 0
M  V30 4174 N 385.784 -1.5574 0.241426 0
M  V30 4175 C 386.747 -2.19877 -0.647063 0
M  V30 4176 C 387.747 -1.16642 -1.10686 0
M  V30 4177 O 388.937 -1.41757 -1.01245 0
M  V30 4178 C 386.069 -2.83797 -1.88871 0
M  V30 4179 H 387.262 -2.99772 -0.087574 0
M  V30 4180 H 384.815 -1.56298 -0.00813574 0
M  V30 4181 H 385.55 -2.07824 -2.48957 0
M  V30 4182 H 385.335 -3.59414 -1.56728 0
M  V30 4183 H 386.825 -3.32898 -2.52129 0
M  V30 4184 N 387.262 0.0317525 -1.57568 0
M  V30 4185 C 388.225 1.01783 -2.0536 0
M  V30 4186 C 389.225 1.29203 -0.957253 0
M  V30 4187 O 390.415 1.24251 -1.22095 0
M  V30 4188 C 387.547 2.35137 -2.46827 0
M  V30 4189 H 388.74 0.605062 -2.93733 0
M  V30 4190 H 386.293 0.278514 -1.53799 0
M  V30 4191 H 387.028 2.81168 -1.61602 0
M  V30 4192 H 386.813 2.16566 -3.26866 0
M  V30 4193 H 388.303 3.05938 -2.84239 0
M  V30 4194 N 388.74 1.54641 0.303973 0
M  V30 4195 C 389.65 1.88439 1.39743 0
M  V30 4196 C 390.666 0.778239 1.55626 0
M  V30 4197 O 391.842 1.07442 1.70347 0
M  V30 4198 C 388.907 2.12212 2.74166 0
M  V30 4199 C 387.968 3.35936 2.67293 0
M  V30 4200 C 387.201 3.58566 3.95305 0
M  V30 4201 O 387.424 2.84263 4.9452 0
M  V30 4202 O 386.358 4.52078 3.97378 0
M  V30 4203 H 390.184 2.81458 1.14083 0
M  V30 4204 H 387.769 1.40793 0.499768 0
M  V30 4205 H 389.651 2.29067 3.53704 0
M  V30 4206 H 388.326 1.22379 2.99675 0
M  V30 4207 H 387.233 3.24448 1.86237 0
M  V30 4208 H 388.566 4.2589 2.46736 0
M  V30 4209 N 390.218 -0.567019 1.47046 0
M  V30 4210 C 391.181 -1.65696 1.58359 0
M  V30 4211 C 392.181 -1.54097 0.459441 0
M  V30 4212 O 393.371 -1.58432 0.724225 0
M  V30 4213 C 390.503 -3.05197 1.51879 0
M  V30 4214 H 391.696 -1.57019 2.5551 0
M  V30 4215 H 389.249 -0.786148 1.3509 0
M  V30 4216 H 389.984 -3.19417 0.560673 0
M  V30 4217 H 389.769 -3.15025 2.33455 0
M  V30 4218 H 391.259 -3.84511 1.62913 0
M  V30 4219 N 391.696 -1.35014 -0.812953 0
M  V30 4220 C 392.626 -1.30069 -1.93919 0
M  V30 4221 C 393.607 -0.176275 -1.69184 0
M  V30 4222 O 394.792 -0.370227 -1.90638 0
M  V30 4223 C 391.922 -1.06547 -3.30552 0
M  V30 4224 C 390.876 -2.15561 -3.69753 0
M  V30 4225 C 390.202 -1.77214 -5.04479 0
M  V30 4226 C 391.502 -3.57476 -3.808 0
M  V30 4227 H 393.196 -2.24303 -1.98314 0
M  V30 4228 H 390.742 -1.07977 -0.952736 0
M  V30 4229 H 392.695 -1.01729 -4.08937 0
M  V30 4230 H 391.419 -0.0875719 -3.26483 0
M  V30 4231 H 390.078 -2.19466 -2.9365 0
M  V30 4232 H 389.726 -0.780589 -4.96906 0
M  V30 4233 H 389.426 -2.50184 -5.31678 0
M  V30 4234 H 390.95 -1.7391 -5.8531 0
M  V30 4235 H 392.364 -3.55929 -4.4943 0
M  V30 4236 H 390.761 -4.29152 -4.19462 0
M  V30 4237 H 391.831 -3.94091 -2.82525 0
M  V30 4238 N 393.175 1.03435 -1.18907 0
M  V30 4239 C 394.122 2.11591 -0.921837 0
M  V30 4240 C 395.092 1.65499 0.141226 0
M  V30 4241 O 396.277 1.908 0.000242829 0
M  V30 4242 C 393.417 3.42012 -0.460616 0
M  V30 4243 C 392.53 4.01682 -1.58982 0
M  V30 4244 C 391.665 5.20091 -1.08069 0
M  V30 4245 C 390.704 5.71805 -2.18416 0
M  V30 4246 N 389.841 6.81494 -1.68849 0
M  V30 4247 H 394.681 2.33787 -1.8479 0
M  V30 4248 H 392.218 1.1467 -0.921373 0
M  V30 4249 H 394.176 4.16834 -0.174642 0
M  V30 4250 H 392.806 3.19944 0.428467 0
M  V30 4251 H 391.858 3.24127 -1.99113 0
M  V30 4252 H 393.17 4.36084 -2.4214 0
M  V30 4253 H 392.324 6.02051 -0.749615 0
M  V30 4254 H 391.063 4.87209 -0.218771 0
M  V30 4255 H 390.068 4.88461 -2.5236 0
M  V30 4256 H 391.293 6.06728 -3.05054 0
M  V30 4257 H 389.239 6.50475 -0.849572 0
M  V30 4258 H 389.156 7.14994 -2.45601 0
M  V30 4259 H 390.424 7.67063 -1.38689 0
M  V30 4260 N 394.653 0.992116 1.22453 0
M  V30 4261 C 395.603 0.512969 2.22155 0
M  V30 4262 C 396.587 -0.418416 1.55364 0
M  V30 4263 O 397.779 -0.245363 1.75291 0
M  V30 4264 C 394.908 -0.171822 3.4287 0
M  V30 4265 C 393.994 0.779822 4.16869 0
M  V30 4266 N 394.385 1.92734 4.6764 0
M  V30 4267 C 392.683 0.59554 4.42006 0
M  V30 4268 C 393.384 2.52458 5.24061 0
M  V30 4269 N 392.36 1.80735 5.12675 0
M  V30 4270 H 396.162 1.38817 2.5905 0
M  V30 4271 H 393.676 0.854277 1.38115 0
M  V30 4272 H 395.673 -0.532469 4.13486 0
M  V30 4273 H 394.333 -1.04317 3.07487 0
M  V30 4274 H 395.344 2.30816 4.63621 0
M  V30 4275 H 392.021 -0.229805 4.16867 0
M  V30 4276 H 393.411 3.49433 5.73887 0
M  V30 4277 N 396.131 -1.37776 0.765217 0
M  V30 4278 C 397.542 -1.82521 0.392819 0
M  V30 4279 C 397.893 -1.63789 -1.08017 0
M  V30 4280 O 397.018 -1.14542 -1.83601 0
M  V30 4281 C 397.613 -3.31358 0.706214 0
M  V30 4282 C 396.172 -3.74406 0.386952 0
M  V30 4283 C 395.319 -2.60394 0.953422 0
M  V30 4284 H 398.27 -1.2634 0.960412 0
M  V30 4285 H 398.291 -3.80498 -0.0114706 0
M  V30 4286 H 397.803 -3.44959 1.77833 0
M  V30 4287 H 395.904 -3.66377 -0.678112 0
M  V30 4288 H 396.017 -4.70749 0.890636 0
M  V30 4289 H 394.381 -2.51878 0.378064 0
M  V30 4290 H 395.164 -2.76791 2.03081 0
M  V30 4291 N 397.609 -0.515225 -1.4894 0
M  V30 4292 C 398.855 0.016187 -2.03394 0
M  V30 4293 C 399.21 1.33377 -1.38666 0
M  V30 4294 O 398.503 1.84461 -0.518141 0
M  V30 4295 C 398.697 0.210595 -3.56779 0
M  V30 4296 C 398.526 -1.08659 -4.36375 0
M  V30 4297 C 397.296 -1.64237 -4.77864 0
M  V30 4298 C 399.494 -1.9935 -4.74093 0
M  V30 4299 N 397.476 -2.88398 -5.41941 0
M  V30 4300 C 398.847 -3.08088 -5.38035 0
M  V30 4301 C 400.902 -1.99856 -4.56029 0
M  V30 4302 C 399.605 -4.17377 -5.85823 0
M  V30 4303 C 401.631 -3.08129 -5.04787 0
M  V30 4304 C 400.993 -4.15586 -5.68742 0
M  V30 4305 H 397.092 -0.0352107 -0.781207 0
M  V30 4306 H 399.676 -0.693237 -1.8194 0
M  V30 4307 H 397.847 0.889088 -3.78087 0
M  V30 4308 H 399.579 0.740287 -3.97872 0
M  V30 4309 H 396.334 -1.18566 -4.58518 0
M  V30 4310 H 396.758 -3.51572 -5.78555 0
M  V30 4311 H 401.4 -1.18079 -4.05977 0
M  V30 4312 H 399.118 -4.99943 -6.34888 0
M  V30 4313 H 402.704 -3.09557 -4.92611 0
M  V30 4314 H 401.584 -4.97987 -6.05787 0
M  V30 4315 N 399.087 1.5561 -0.249682 0
M  V30 4316 C 400.336 1.98187 0.37479 0
M  V30 4317 C 400.649 1.14111 1.58865 0
M  V30 4318 O 401.855 1.46714 2.28445 0
M  V30 4319 C 400.311 3.52661 0.718192 0
M  V30 4320 C 399.919 4.45481 -0.474428 0
M  V30 4321 C 401.663 4.03888 1.3067 0
M  V30 4322 C 399.57 5.91303 -0.107026 0
M  V30 4323 H 398.5 0.740159 0.143808 0
M  V30 4324 H 401.151 1.80125 -0.350336 0
M  V30 4325 H 399.533 3.66429 1.50152 0
M  V30 4326 H 400.707 4.43473 -1.25172 0
M  V30 4327 H 399.022 4.04751 -0.978052 0
M  V30 4328 H 401.619 5.10358 1.59496 0
M  V30 4329 H 401.962 3.51401 2.23211 0
M  V30 4330 H 402.495 3.93457 0.586211 0
M  V30 4331 H 399.234 6.47833 -0.999642 0
M  V30 4332 H 398.754 5.9644 0.634013 0
M  V30 4333 H 400.433 6.46258 0.309807 0
M  V30 4334 N 400.565 -0.0233959 1.57583 0
M  V30 4335 C 401.79 -0.728376 1.94189 0
M  V30 4336 C 402.215 -1.67793 0.850119 0
M  V30 4337 O 401.573 -1.80262 -0.19371 0
M  V30 4338 C 401.621 -1.45669 3.29868 0
M  V30 4339 O 400.725 -2.57013 3.22518 0
M  V30 4340 H 400.066 -0.195493 0.63457 0
M  V30 4341 H 402.596 0.0228214 2.04587 0
M  V30 4342 H 402.606 -1.82535 3.6489 0
M  V30 4343 H 401.281 -0.760314 4.08891 0
M  V30 4344 H 399.858 -2.22648 2.99136 0
M  V30 4345 N 402.043 -1.548 -0.295768 0
M  V30 4346 C 402.993 -1.82497 -1.3667 0
M  V30 4347 C 403.977 -0.682434 -1.45711 0
M  V30 4348 O 405.169 -0.943207 -1.49775 0
M  V30 4349 C 402.298 -2.08036 -2.73086 0
M  V30 4350 C 401.384 -3.28488 -2.68247 0
M  V30 4351 N 401.775 -4.48924 -2.33025 0
M  V30 4352 C 400.073 -3.3062 -2.99343 0
M  V30 4353 C 400.774 -5.30956 -2.37613 0
M  V30 4354 N 399.75 -4.68805 -2.75178 0
M  V30 4355 H 403.552 -2.73175 -1.0841 0
M  V30 4356 H 401.066 -1.5437 -0.504361 0
M  V30 4357 H 403.063 -2.26027 -3.5031 0
M  V30 4358 H 401.723 -1.18629 -3.02254 0
M  V30 4359 H 402.734 -4.75432 -2.05389 0
M  V30 4360 H 399.411 -2.51336 -3.33371 0
M  V30 4361 H 400.801 -6.37199 -2.13135 0
M  V30 4362 N 403.521 0.559213 -1.47345 0
M  V30 4363 C 404.937 0.884943 -1.32819 0
M  V30 4364 C 405.137 1.98988 -0.317173 0
M  V30 4365 O 404.193 2.51031 0.272011 0
M  V30 4366 C 405.506 1.28007 -2.72093 0
M  V30 4367 C 407.054 1.39161 -2.80363 0
M  V30 4368 C 407.529 1.82031 -4.20272 0
M  V30 4369 N 409.02 1.89185 -4.22804 0
M  V30 4370 C 409.755 2.2368 -5.27973 0
M  V30 4371 N 409.251 2.56802 -6.43447 0
M  V30 4372 N 411.044 2.24436 -5.15349 0
M  V30 4373 H 403.195 -0.170304 -2.11716 0
M  V30 4374 H 405.458 -0.0135247 -0.947904 0
M  V30 4375 H 405.164 0.542027 -3.47498 0
M  V30 4376 H 405.038 2.23665 -3.03733 0
M  V30 4377 H 407.425 2.12048 -2.05231 0
M  V30 4378 H 407.506 0.41696 -2.52379 0
M  V30 4379 H 407.15 1.09715 -4.95908 0
M  V30 4380 H 407.08 2.80495 -4.45679 0
M  V30 4381 H 409.571 1.65982 -3.39497 0
M  V30 4382 H 409.884 2.82144 -7.19454 0
M  V30 4383 H 408.229 2.54387 -6.46771 0
M  V30 4384 H 411.42 1.97998 -4.24163 0
M  V30 4385 H 411.593 2.50989 -5.97418 0
M  V30 4386 N 404.999 1.35443 0.805782 0
M  V30 4387 C 406.224 1.32037 1.59941 0
M  V30 4388 C 406.649 -0.0994215 1.87837 0
M  V30 4389 O 406.007 -1.06648 1.46615 0
M  V30 4390 C 406.055 2.13354 2.90711 0
M  V30 4391 O 405.159 1.5148 3.83572 0
M  V30 4392 H 404.5 0.452666 0.485787 0
M  V30 4393 H 407.03 1.78496 1.00002 0
M  V30 4394 H 407.04 2.25338 3.40128 0
M  V30 4395 H 405.715 3.16572 2.69732 0
M  V30 4396 H 404.292 1.4834 3.42125 0
M  V30 4397 N 406.477 -1.02803 1.19454 0
M  V30 4398 C 407.705 -1.79841 1.02297 0
M  V30 4399 C 408.12 -1.83879 -0.428259 0
M  V30 4400 O 407.477 -1.28345 -1.29745 0
M  V30 4401 C 407.528 -3.24852 1.58598 0
M  V30 4402 O 407.249 -3.21097 2.98041 0
M  V30 4403 C 408.75 -4.18485 1.46236 0
M  V30 4404 H 405.97 -0.565936 0.360496 0
M  V30 4405 H 408.514 -1.2948 1.58288 0
M  V30 4406 H 406.669 -3.72401 1.06753 0
M  V30 4407 H 407.083 -4.12033 3.24545 0
M  V30 4408 H 408.557 -5.18121 1.90407 0
M  V30 4409 H 409.034 -4.37254 0.41301 0
M  V30 4410 H 409.64 -3.76811 1.97215 0
M  V30 4411 N 407.956 -0.998596 -1.21925 0
M  V30 4412 C 409.202 -0.678667 -1.91107 0
M  V30 4413 C 409.535 0.78791 -1.77498 0
M  V30 4414 O 408.81 1.57043 -1.1475 0
M  V30 4415 C 409.093 -1.09245 -3.43129 0
M  V30 4416 C 408.946 -2.61801 -3.6576 0
M  V30 4417 C 410.265 -0.649984 -4.35274 0
M  V30 4418 H 407.384 -0.248025 -0.694012 0
M  V30 4419 H 410.026 -1.24314 -1.43688 0
M  V30 4420 H 408.176 -0.612171 -3.83647 0
M  V30 4421 H 409.848 -3.17543 -3.34611 0
M  V30 4422 H 408.091 -3.03609 -3.09845 0
M  V30 4423 H 408.762 -2.85804 -4.7225 0
M  V30 4424 H 411.238 -1.0626 -4.02303 0
M  V30 4425 H 410.114 -0.967743 -5.40302 0
M  V30 4426 H 410.375 0.449139 -4.39813 0
M  V30 4427 N 409.434 1.37368 -0.772513 0
M  V30 4428 C 410.397 2.28601 -0.165541 0
M  V30 4429 C 411.397 1.48062 0.627238 0
M  V30 4430 O 412.587 1.68268 0.450715 0
M  V30 4431 C 409.719 3.32023 0.772897 0
M  V30 4432 H 410.912 2.83787 -0.969787 0
M  V30 4433 H 408.465 1.46647 -0.540775 0
M  V30 4434 H 409.2 2.81962 1.60212 0
M  V30 4435 H 408.985 3.91555 0.206585 0
M  V30 4436 H 410.475 4.00197 1.19298 0
M  V30 4437 N 410.912 0.523116 1.48665 0
M  V30 4438 C 412.137 -0.0117284 2.07397 0
M  V30 4439 C 412.562 -1.28031 1.37803 0
M  V30 4440 O 411.92 -1.75836 0.441762 0
M  V30 4441 C 411.968 -0.225786 3.59892 0
M  V30 4442 O 411.072 -1.29592 3.91509 0
M  V30 4443 H 410.413 0.0360673 0.66302 0
M  V30 4444 H 412.943 0.729066 1.9117 0
M  V30 4445 H 412.953 -0.450552 4.05505 0
M  V30 4446 H 411.628 0.700944 4.09951 0
M  V30 4447 H 410.205 -1.05436 3.57684 0
M  V30 4448 N 412.39 -1.55475 0.257931 0
M  V30 4449 C 413.63 -2.01112 -0.365129 0
M  V30 4450 C 413.994 -1.1423 -1.54323 0
M  V30 4451 O 415.195 -1.49371 -2.23477 0
M  V30 4452 C 413.466 -3.49353 -0.754117 0
M  V30 4453 S 415.025 -4.16992 -1.36614 0
M  V30 4454 H 411.843 -0.701737 -0.114397 0
M  V30 4455 H 414.445 -1.91855 0.375747 0
M  V30 4456 H 413.149 -4.10246 0.112441 0
M  V30 4457 H 412.68 -3.6256 -1.52689 0
M  V30 4458 H 414.695 -4.19191 -2.65505 0
M  V30 4459 N 413.868 0.0150385 -1.57593 0
M  V30 4460 C 414.801 1.04475 -2.0288 0
M  V30 4461 C 415.779 1.3436 -0.915764 0
M  V30 4462 O 416.963 1.46779 -1.18271 0
M  V30 4463 C 414.09 2.37608 -2.41371 0
M  V30 4464 C 413.136 2.23487 -3.63257 0
M  V30 4465 S 413.969 1.57505 -5.11813 0
M  V30 4466 C 415.125 2.921 -5.5356 0
M  V30 4467 H 415.358 0.65907 -2.89903 0
M  V30 4468 H 412.891 0.225452 -1.52745 0
M  V30 4469 H 414.849 3.14165 -2.64217 0
M  V30 4470 H 413.51 2.7332 -1.54775 0
M  V30 4471 H 412.703 3.21802 -3.87891 0
M  V30 4472 H 412.305 1.55074 -3.40335 0
M  V30 4473 H 414.597 3.88419 -5.55101 0
M  V30 4474 H 415.54 2.72184 -6.53698 0
M  V30 4475 H 415.948 2.95318 -4.8109 0
M  V30 4476 N 415.346 1.54954 0.287554 0
M  V30 4477 C 416.296 1.8322 1.357 0
M  V30 4478 C 417.28 0.690152 1.45347 0
M  V30 4479 O 418.472 0.951137 1.49273 0
M  V30 4480 C 415.601 2.09481 2.71979 0
M  V30 4481 C 414.687 3.29906 2.66502 0
M  V30 4482 N 415.078 4.50154 2.30641 0
M  V30 4483 C 413.376 3.32203 2.97585 0
M  V30 4484 C 414.077 5.32209 2.34794 0
M  V30 4485 N 413.053 4.70258 2.72688 0
M  V30 4486 H 416.855 2.73746 1.0696 0
M  V30 4487 H 414.369 1.54635 0.496167 0
M  V30 4488 H 416.366 2.27882 3.49107 0
M  V30 4489 H 415.026 1.2023 3.0162 0
M  V30 4490 H 416.037 4.76515 2.02865 0
M  V30 4491 H 412.714 2.53101 3.32034 0
M  V30 4492 H 414.104 6.38321 2.09753 0
M  V30 4493 N 416.824 -0.551391 1.4764 0
M  V30 4494 C 418.24 -0.877887 1.33287 0
M  V30 4495 C 418.44 -1.98817 0.327721 0
M  V30 4496 O 417.496 -2.51171 -0.258695 0
M  V30 4497 C 418.809 -1.26563 2.72768 0
M  V30 4498 C 420.357 -1.37673 2.81097 0
M  V30 4499 C 420.832 -1.79799 4.21232 0
M  V30 4500 N 422.323 -1.8694 4.23802 0
M  V30 4501 C 423.058 -2.20876 5.29151 0
M  V30 4502 N 422.554 -2.53386 6.448 0
M  V30 4503 N 424.347 -2.217 5.16532 0
M  V30 4504 H 416.498 0.18153 2.11623 0
M  V30 4505 H 418.761 0.0185514 0.947818 0
M  V30 4506 H 418.467 -0.523591 3.47781 0
M  V30 4507 H 418.341 -2.22052 3.04915 0
M  V30 4508 H 420.728 -2.10956 2.06353 0
M  V30 4509 H 420.809 -0.40357 2.52596 0
M  V30 4510 H 420.453 -1.07083 4.96483 0
M  V30 4511 H 420.383 -2.78128 4.4716 0
M  V30 4512 H 422.874 -1.64179 3.40373 0
M  V30 4513 H 423.187 -2.78325 7.20941 0
M  V30 4514 H 421.532 -2.50953 6.48111 0
M  V30 4515 H 424.723 -1.95745 4.25207 0
M  V30 4516 H 424.896 -2.47818 5.98741 0
M  V30 4517 N 418.302 -1.35869 -0.798587 0
M  V30 4518 C 419.234 -1.25305 -1.91915 0
M  V30 4519 C 420.247 -0.174548 -1.61862 0
M  V30 4520 O 421.436 -0.428499 -1.73281 0
M  V30 4521 C 418.536 -0.9086 -3.26493 0
M  V30 4522 C 417.709 -2.08711 -3.84394 0
M  V30 4523 C 416.768 -1.71717 -4.97393 0
M  V30 4524 O 415.794 -2.43692 -5.14396 0
M  V30 4525 N 416.996 -0.645473 -5.769 0
M  V30 4526 H 419.761 -2.21849 -2.01502 0
M  V30 4527 H 417.322 -1.29143 -0.976408 0
M  V30 4528 H 419.314 -0.642455 -3.99568 0
M  V30 4529 H 417.884 -0.0325815 -3.12583 0
M  V30 4530 H 417.104 -2.51659 -3.03416 0
M  V30 4531 H 418.392 -2.87468 -4.19809 0
M  V30 4532 H 417.79 -0.047648 -5.6568 0
M  V30 4533 H 416.347 -0.43913 -6.50319 0
M  V30 4534 N 419.78 1.02168 -1.19998 0
M  V30 4535 C 420.69 2.14069 -0.959774 0
M  V30 4536 C 421.706 1.73804 0.082655 0
M  V30 4537 O 422.882 2.01133 -0.103633 0
M  V30 4538 C 419.947 3.42936 -0.509459 0
M  V30 4539 C 419.008 3.97474 -1.62213 0
M  V30 4540 C 418.241 5.2019 -1.19321 0
M  V30 4541 O 418.464 5.70369 -0.0597726 0
M  V30 4542 O 417.398 5.67749 -1.99863 0
M  V30 4543 H 421.224 2.37199 -1.89658 0
M  V30 4544 H 418.809 1.12469 -0.983411 0
M  V30 4545 H 420.691 4.20551 -0.267322 0
M  V30 4546 H 419.366 3.21234 0.398821 0
M  V30 4547 H 418.273 3.21161 -1.9185 0
M  V30 4548 H 419.606 4.23555 -2.50723 0
M  V30 4549 N 421.258 1.00505 1.21394 0
M  V30 4550 C 422.486 0.706609 1.9446 0
M  V30 4551 C 422.901 -0.73081 1.74082 0
M  V30 4552 O 422.258 -1.49446 1.04747 0
M  V30 4553 C 422.309 1.01824 3.46863 0
M  V30 4554 O 422.03 2.39919 3.66566 0
M  V30 4555 C 423.531 0.739216 4.37093 0
M  V30 4556 H 420.751 0.260394 0.618414 0
M  V30 4557 H 423.295 1.34311 1.54211 0
M  V30 4558 H 421.45 0.427343 3.85036 0
M  V30 4559 H 421.864 2.50784 4.6066 0
M  V30 4560 H 423.338 1.00744 5.42729 0
M  V30 4561 H 423.815 -0.326746 4.37983 0
M  V30 4562 H 424.421 1.31173 4.04566 0
M  V30 4563 N 422.737 -1.36956 0.779787 0
M  V30 4564 C 423.983 -1.99787 0.348281 0
M  V30 4565 C 424.316 -1.61756 -1.07465 0
M  V30 4566 O 423.591 -0.867639 -1.74075 0
M  V30 4567 C 423.874 -3.56597 0.50104 0
M  V30 4568 C 423.727 -4.04513 1.96697 0
M  V30 4569 C 425.046 -4.40008 -0.0898097 0
M  V30 4570 H 422.165 -0.725796 0.128022 0
M  V30 4571 H 424.807 -1.62514 0.984331 0
M  V30 4572 H 422.957 -3.88479 -0.0404347 0
M  V30 4573 H 424.629 -3.83161 2.56876 0
M  V30 4574 H 422.872 -3.56408 2.47297 0
M  V30 4575 H 423.543 -5.1352 2.02486 0
M  V30 4576 H 426.019 -4.14431 0.372293 0
M  V30 4577 H 424.895 -5.4888 0.0471605 0
M  V30 4578 H 425.156 -4.26035 -1.18096 0
M  V30 4579 N 424.215 -0.530993 -1.48385 0
M  V30 4580 C 425.492 0.0671788 -1.95485 0
M  V30 4581 C 425.872 1.51191 -1.47324 0
M  V30 4582 O 425.22 2.17507 -0.700202 0
M  V30 4583 C 425.43 -0.0511206 -3.48963 0
M  V30 4584 C 426.778 0.107632 -4.24464 0
M  V30 4585 O 427.802 0.0226248 -3.56193 0
M  V30 4586 O 426.661 0.285972 -5.45751 0
M  V30 4587 H 423.755 0.0787365 -0.823243 0
M  V30 4588 H 426.301 -0.595662 -1.58902 0
M  V30 4589 H 425.073 -1.05747 -3.7674 0
M  V30 4590 H 424.696 0.650525 -3.92242 0
M  V30 4591 N 425.693 1.55336 -0.266172 0
M  V30 4592 C 426.933 2.01303 0.354459 0
M  V30 4593 C 427.297 1.15046 1.53715 0
M  V30 4594 O 428.498 1.50554 2.22681 0
M  V30 4595 C 426.769 3.49748 0.735579 0
M  V30 4596 S 428.328 4.1771 1.34401 0
M  V30 4597 H 425.146 0.702333 0.110674 0
M  V30 4598 H 427.748 1.91653 -0.385916 0
M  V30 4599 H 426.452 4.10181 -0.134196 0
M  V30 4600 H 425.983 3.63364 1.50764 0
M  V30 4601 H 427.998 4.20594 2.63278 0
M  V30 4602 N 427.171 -0.0066808 1.57599 0
M  V30 4603 C 428.101 -0.999296 2.11036 0
M  V30 4604 C 429.082 -1.36278 1.01795 0
M  V30 4605 O 430.267 -1.4477 1.29442 0
M  V30 4606 C 427.397 -2.29328 2.60818 0
M  V30 4607 C 426.351 -2.07159 3.74525 0
M  V30 4608 C 425.677 -3.42512 4.10596 0
M  V30 4609 C 426.977 -1.43959 5.02069 0
M  V30 4610 H 428.671 -0.554382 2.94223 0
M  V30 4611 H 426.217 -0.265221 1.41536 0
M  V30 4612 H 428.17 -2.99117 2.96828 0
M  V30 4613 H 426.894 -2.7592 1.74745 0
M  V30 4614 H 425.553 -1.39797 3.38899 0
M  V30 4615 H 425.201 -3.86795 3.21556 0
M  V30 4616 H 424.901 -3.28498 4.87199 0
M  V30 4617 H 426.425 -4.13628 4.4916 0
M  V30 4618 H 427.839 -2.03696 5.35893 0
M  V30 4619 H 426.236 -1.40452 5.83432 0
M  V30 4620 H 427.306 -0.407992 4.83181 0
M  V30 4621 N 428.649 -1.55105 -0.279332 0
M  V30 4622 C 429.596 -1.8755 -1.34513 0
M  V30 4623 C 430.566 -0.726384 -1.49375 0
M  V30 4624 O 431.751 -0.977063 -1.63884 0
M  V30 4625 C 428.891 -2.14738 -2.70151 0
M  V30 4626 C 428.004 -3.42285 -2.63562 0
M  V30 4627 C 427.139 -3.59206 -3.91337 0
M  V30 4628 C 426.178 -4.80467 -3.79233 0
M  V30 4629 N 425.315 -4.94079 -4.98829 0
M  V30 4630 H 430.155 -2.78456 -1.06143 0
M  V30 4631 H 427.692 -1.37867 -0.512936 0
M  V30 4632 H 429.65 -2.28501 -3.49061 0
M  V30 4633 H 428.28 -1.27075 -2.96735 0
M  V30 4634 H 427.332 -3.37029 -1.76397 0
M  V30 4635 H 428.644 -4.31328 -2.50515 0
M  V30 4636 H 427.798 -3.72751 -4.78687 0
M  V30 4637 H 426.537 -2.68337 -4.07243 0
M  V30 4638 H 425.542 -4.66932 -2.90266 0
M  V30 4639 H 426.767 -5.72765 -3.64852 0
M  V30 4640 H 424.713 -4.06139 -5.15158 0
M  V30 4641 H 424.63 -5.77156 -4.8829 0
M  V30 4642 H 425.898 -5.12003 -5.8777 0
M  V30 4643 N 430.127 0.543554 -1.4793 0
M  V30 4644 C 431.074 1.64942 -1.6144 0
M  V30 4645 C 432.044 1.59692 -0.456903 0
M  V30 4646 O 433.229 1.78321 -0.678688 0
M  V30 4647 C 430.369 3.03238 -1.64744 0
M  V30 4648 C 429.482 3.18823 -2.91506 0
M  V30 4649 C 428.617 4.47599 -2.86057 0
M  V30 4650 C 427.656 4.56664 -4.07584 0
M  V30 4651 N 426.793 5.76811 -4.00292 0
M  V30 4652 H 431.633 1.52733 -2.55884 0
M  V30 4653 H 429.17 0.7438 -1.2691 0
M  V30 4654 H 431.128 3.83339 -1.64641 0
M  V30 4655 H 429.758 3.1425 -0.738017 0
M  V30 4656 H 428.81 2.32064 -3.01414 0
M  V30 4657 H 430.122 3.21384 -3.81463 0
M  V30 4658 H 429.276 5.35975 -2.84281 0
M  V30 4659 H 428.015 4.47538 -1.93807 0
M  V30 4660 H 427.02 3.66697 -4.09651 0
M  V30 4661 H 428.245 4.58474 -5.00978 0
M  V30 4662 H 426.191 5.77673 -3.10853 0
M  V30 4663 H 426.108 5.80808 -4.8394 0
M  V30 4664 H 427.376 6.67512 -4.02553 0
M  V30 4665 N 431.605 1.3629 0.791371 0
M  V30 4666 C 432.852 1.30412 1.54916 0
M  V30 4667 C 433.18 -0.117162 1.94147 0
M  V30 4668 O 432.435 -1.08599 1.62803 0
M  V30 4669 C 432.734 2.17068 2.8393 0
M  V30 4670 C 432.4 3.65645 2.63846 0
M  V30 4671 C 431.062 4.0614 2.58077 0
M  V30 4672 C 433.414 4.59855 2.45322 0
M  V30 4673 C 430.742 5.3899 2.31748 0
M  V30 4674 C 433.094 5.9292 2.2052 0
M  V30 4675 C 431.758 6.32542 2.13183 0
M  V30 4676 H 431.028 0.47721 0.566879 0
M  V30 4677 H 433.675 1.68325 0.913172 0
M  V30 4678 H 431.98 1.72085 3.51986 0
M  V30 4679 H 433.677 2.09846 3.4171 0
M  V30 4680 H 430.267 3.33518 2.69191 0
M  V30 4681 H 434.451 4.29443 2.48782 0
M  V30 4682 H 429.707 5.68672 2.24548 0
M  V30 4683 H 433.881 6.65487 2.05182 0
M  V30 4684 H 431.508 7.35412 1.92544 0
M  V30 4685 N 433.083 -1.0153 1.20538 0
M  V30 4686 C 434.031 -2.12215 0.952235 0
M  V30 4687 C 435.025 -1.69123 -0.0968735 0
M  V30 4688 O 436.231 -1.7992 0.0536006 0
M  V30 4689 H 432.606 -0.693576 0.290613 0
M  V30 4690 H 434.577 -2.3075 1.89201 0
M  V30 4691 C 433.326 -3.43755 0.522287 0
M  V30 4692 H 432.649 -3.7734 1.32115 0
M  V30 4693 H 434.089 -4.22254 0.384389 0
M  V30 4694 C 432.548 -3.28088 -0.765489 0
M  V30 4695 O 433.078 -3.57921 -1.8236 0
M  V30 4696 N 431.284 -2.81333 -0.728011 0
M  V30 4697 H 430.831 -2.57255 0.133332 0
M  V30 4698 H 430.789 -2.71232 -1.58999 0
M  V30 4699 N 434.561 -1.01147 -1.20859 0
M  V30 4700 C 435.524 -0.582224 -2.21682 0
M  V30 4701 C 436.524 0.344887 -1.57058 0
M  V30 4702 O 437.714 0.134281 -1.73682 0
M  V30 4703 C 434.846 0.150496 -3.40568 0
M  V30 4704 H 436.039 -1.47408 -2.61172 0
M  V30 4705 H 433.592 -0.800695 -1.34233 0
M  V30 4706 H 434.327 1.0575 -3.06574 0
M  V30 4707 H 434.112 -0.515444 -3.88697 0
M  V30 4708 H 435.602 0.438344 -4.15293 0
M  V30 4709 N 436.039 1.36541 -0.78704 0
M  V30 4710 C 437.455 1.52571 -0.46844 0
M  V30 4711 C 437.655 1.7415 1.01361 0
M  V30 4712 O 436.711 1.77163 1.79915 0
M  V30 4713 C 438.024 2.71299 -1.29682 0
M  V30 4714 C 439.572 2.85169 -1.29027 0
M  V30 4715 C 440.047 4.06898 -2.10233 0
M  V30 4716 N 441.538 4.1404 -2.07666 0
M  V30 4717 C 442.273 5.07301 -2.67271 0
M  V30 4718 N 441.769 6.06021 -3.35724 0
M  V30 4719 N 443.562 4.99898 -2.57018 0
M  V30 4720 H 435.713 1.20788 -1.74711 0
M  V30 4721 H 437.976 0.589364 -0.742532 0
M  V30 4722 H 437.682 2.61868 -2.34773 0
M  V30 4723 H 437.556 3.6539 -0.936479 0
M  V30 4724 H 439.943 2.94062 -0.247284 0
M  V30 4725 H 440.024 1.91992 -1.69035 0
M  V30 4726 H 439.668 3.98766 -3.1456 0
M  V30 4727 H 439.598 4.99218 -1.67597 0
M  V30 4728 H 442.089 3.43357 -1.57843 0
M  V30 4729 H 442.402 6.73741 -3.78541 0
M  V30 4730 H 440.747 6.06253 -3.39826 0
M  V30 4731 H 443.938 4.21724 -2.03142 0
M  V30 4732 H 444.111 5.72392 -3.03761 0
M  V30 4733 N 437.518 0.538854 1.48102 0
M  V30 4734 C 438.934 0.19732 1.58376 0
M  V30 4735 C 439.134 -1.29971 1.5398 0
M  V30 4736 O 438.19 -2.07861 1.43352 0
M  V30 4737 C 439.503 0.807716 2.89649 0
M  V30 4738 C 441.051 0.77726 3.03196 0
M  V30 4739 C 441.526 1.36639 4.37143 0
M  V30 4740 N 443.017 1.32875 4.43732 0
M  V30 4741 C 443.752 1.7544 5.45901 0
M  V30 4742 N 443.248 2.25776 6.54979 0
M  V30 4743 N 445.041 1.66623 5.36836 0
M  V30 4744 H 437.192 1.5117 1.49202 0
M  V30 4745 H 439.455 0.629327 0.708979 0
M  V30 4746 H 439.161 1.85909 2.98548 0
M  V30 4747 H 439.035 0.289975 3.76084 0
M  V30 4748 H 441.422 -0.265374 2.93904 0
M  V30 4749 H 441.503 1.33256 2.18349 0
M  V30 4750 H 441.147 2.408 4.47189 0
M  V30 4751 H 441.077 0.786689 5.20691 0
M  V30 4752 H 443.568 0.96037 3.65493 0
M  V30 4753 H 443.881 2.56226 7.29087 0
M  V30 4754 H 442.226 2.29775 6.55918 0
M  V30 4755 H 445.417 1.27089 4.50517 0
M  V30 4756 H 445.59 2.00115 6.16326 0
M  V30 4757 N 438.996 -1.55193 0.274407 0
M  V30 4758 C 439.943 -2.225 -0.613374 0
M  V30 4759 C 440.913 -1.19823 -1.15029 0
M  V30 4760 O 442.098 -1.48362 -1.19973 0
M  V30 4761 C 439.238 -2.94927 -1.79199 0
M  V30 4762 C 438.351 -4.12322 -1.28899 0
M  V30 4763 C 437.486 -4.72394 -2.42934 0
M  V30 4764 C 436.525 -5.81984 -1.89634 0
M  V30 4765 N 435.662 -6.36123 -2.9714 0
M  V30 4766 H 440.502 -2.97982 -0.032756 0
M  V30 4767 H 438.039 -1.47099 -0.00440146 0
M  V30 4768 H 439.997 -3.35134 -2.48478 0
M  V30 4769 H 438.627 -2.2187 -2.34465 0
M  V30 4770 H 437.679 -3.7724 -0.489327 0
M  V30 4771 H 438.991 -4.91355 -0.858587 0
M  V30 4772 H 438.145 -5.15317 -3.20208 0
M  V30 4773 H 436.884 -3.92636 -2.8929 0
M  V30 4774 H 435.889 -5.38511 -1.1084 0
M  V30 4775 H 437.114 -6.6361 -1.44215 0
M  V30 4776 H 435.06 -5.59259 -3.42878 0
M  V30 4777 H 434.977 -7.10427 -2.58515 0
M  V30 4778 H 436.245 -6.83704 -3.74391 0
M  V30 4779 N 440.474 -0.00167713 -1.576 0
M  V30 4780 C 441.404 0.988091 -2.11563 0
M  V30 4781 C 442.385 1.35736 -1.02517 0
M  V30 4782 O 443.57 1.44082 -1.30208 0
M  V30 4783 C 440.7 2.27941 -2.62031 0
M  V30 4784 C 439.654 2.0517 -3.75619 0
M  V30 4785 C 438.98 3.4033 -4.12407 0
M  V30 4786 C 440.28 1.41294 -5.02825 0
M  V30 4787 H 441.974 0.538771 -2.94513 0
M  V30 4788 H 439.52 0.257712 -1.41675 0
M  V30 4789 H 441.473 2.97539 -2.9841 0
M  V30 4790 H 440.197 2.74989 -1.76205 0
M  V30 4791 H 438.856 1.37998 -3.39635 0
M  V30 4792 H 438.504 3.85085 -3.23603 0
M  V30 4793 H 438.204 3.25909 -4.88935 0
M  V30 4794 H 439.728 4.1124 -4.51347 0
M  V30 4795 H 441.142 2.00851 -5.36965 0
M  V30 4796 H 439.539 1.37356 -5.84169 0
M  V30 4797 H 440.609 0.382362 -4.8339 0
M  V30 4798 N 441.952 1.55251 0.271103 0
M  V30 4799 C 442.899 1.88261 1.33516 0
M  V30 4800 C 443.869 0.734296 1.48988 0
M  V30 4801 O 445.054 0.985741 1.63364 0
M  V30 4802 C 442.194 2.16168 2.69008 0
M  V30 4803 C 441.307 3.43678 2.61743 0
M  V30 4804 C 440.442 3.61276 3.89427 0
M  V30 4805 C 439.481 4.82472 3.7668 0
M  V30 4806 N 438.618 4.96717 4.96202 0
M  V30 4807 H 443.458 2.79015 1.04665 0
M  V30 4808 H 440.995 1.38137 0.505618 0
M  V30 4809 H 442.953 2.30349 3.47844 0
M  V30 4810 H 441.583 1.28646 2.96057 0
M  V30 4811 H 440.635 3.37959 1.74607 0
M  V30 4812 H 441.947 4.3265 2.48224 0
M  V30 4813 H 441.101 3.75284 4.76704 0
M  V30 4814 H 439.84 2.70492 4.05814 0
M  V30 4815 H 438.845 4.68465 2.87786 0
M  V30 4816 H 440.07 5.74692 3.61809 0
M  V30 4817 H 438.016 4.08865 5.12997 0
M  V30 4818 H 437.933 5.79738 4.85222 0
M  V30 4819 H 439.201 5.15113 5.85046 0
M  V30 4820 N 443.43 -0.535701 1.48216 0
M  V30 4821 C 444.678 -1.28928 1.55634 0
M  V30 4822 C 444.999 -1.93645 0.229514 0
M  V30 4823 O 444.269 -1.81038 -0.74846 0
M  V30 4824 H 442.849 -0.47884 0.573342 0
M  V30 4825 H 445.511 -0.623853 1.84646 0
M  V30 4826 H 444.607 -2.07157 2.33436 0
M  V30 4827 N 444.908 -1.36708 -0.784132 0
M  V30 4828 C 445.871 -1.31307 -1.87859 0
M  V30 4829 C 446.871 -0.219654 -1.59293 0
M  V30 4830 O 448.061 -0.47476 -1.67606 0
M  V30 4831 C 445.193 -1.03679 -3.24751 0
M  V30 4832 H 446.386 -2.28647 -1.94064 0
M  V30 4833 H 443.939 -1.21558 -0.98252 0
M  V30 4834 H 444.674 -0.0681936 -3.24228 0
M  V30 4835 H 444.459 -1.82811 -3.46876 0
M  V30 4836 H 445.949 -1.02518 -4.04821 0
M  V30 4837 N 446.386 1.0089 -1.21074 0
M  V30 4838 C 447.635 1.74019 -1.01981 0
M  V30 4839 C 447.948 1.90408 0.447665 0
M  V30 4840 O 449.154 2.60707 0.757906 0
M  V30 4841 C 447.61 3.13026 -1.77603 0
M  V30 4842 C 447.218 3.04623 -3.28495 0
M  V30 4843 C 448.962 3.90312 -1.66904 0
M  V30 4844 C 446.869 4.38685 -3.96623 0
M  V30 4845 H 445.799 0.652422 -0.377971 0
M  V30 4846 H 448.45 1.12755 -1.44771 0
M  V30 4847 H 446.832 3.74878 -1.27604 0
M  V30 4848 H 448.006 2.52032 -3.85767 0
M  V30 4849 H 446.321 2.40827 -3.39693 0
M  V30 4850 H 448.918 4.8951 -2.15138 0
M  V30 4851 H 449.261 4.11558 -0.62658 0
M  V30 4852 H 449.794 3.35104 -2.14359 0
M  V30 4853 H 446.533 4.22641 -5.01054 0
M  V30 4854 H 446.053 4.91252 -3.4414 0
M  V30 4855 H 447.732 5.075 -4.01314 0
M  V30 4856 N 447.864 1.01787 1.20321 0
M  V30 4857 C 448.794 0.609625 2.25401 0
M  V30 4858 C 449.775 -0.375951 1.65893 0
M  V30 4859 O 450.96 -0.261101 1.92437 0
M  V30 4860 C 448.09 -0.0515995 3.47262 0
M  V30 4861 C 447.044 0.855095 4.19371 0
M  V30 4862 C 446.37 0.0595757 5.34667 0
M  V30 4863 C 447.67 2.16374 4.75373 0
M  V30 4864 H 449.364 1.48803 2.59804 0
M  V30 4865 H 446.91 0.716934 1.24884 0
M  V30 4866 H 448.863 -0.348764 4.19954 0
M  V30 4867 H 447.587 -0.964726 3.12027 0
M  V30 4868 H 446.246 1.13628 3.48546 0
M  V30 4869 H 445.894 -0.85524 4.95676 0
M  V30 4870 H 445.594 0.663406 5.83843 0
M  V30 4871 H 447.118 -0.231105 6.10162 0
M  V30 4872 H 448.532 1.92885 5.39878 0
M  V30 4873 H 446.929 2.71853 5.34991 0
M  V30 4874 H 447.999 2.82589 3.94045 0
M  V30 4875 N 449.342 -1.36122 0.79427 0
M  V30 4876 C 450.57 -2.03362 0.380989 0
M  V30 4877 C 450.985 -1.59881 -1.00416 0
M  V30 4878 O 450.342 -0.790515 -1.6449 0
M  V30 4879 C 450.393 -3.58804 0.440649 0
M  V30 4880 O 450.114 -4.007 1.77118 0
M  V30 4881 C 451.615 -4.43296 0.0186117 0
M  V30 4882 H 448.835 -0.652526 0.156367 0
M  V30 4883 H 451.379 -1.73998 1.07447 0
M  V30 4884 H 449.534 -3.8686 -0.204458 0
M  V30 4885 H 449.948 -4.95309 1.72538 0
M  V30 4886 H 451.422 -5.51887 0.111488 0
M  V30 4887 H 451.899 -4.2684 -1.03461 0
M  V30 4888 H 452.505 -4.20512 0.636395 0
M  V30 4889 N 450.82 -0.546701 -1.47814 0
M  V30 4890 C 452.048 -0.0232857 -2.06887 0
M  V30 4891 C 452.463 1.26571 -1.4009 0
M  V30 4892 O 451.82 1.7569 -0.493906 0
M  V30 4893 C 451.871 0.186975 -3.61016 0
M  V30 4894 O 451.592 -1.05097 -4.25307 0
M  V30 4895 C 453.093 0.748872 -4.36929 0
M  V30 4896 H 450.313 -0.0410763 -0.669742 0
M  V30 4897 H 452.857 -0.757117 -1.89968 0
M  V30 4898 H 451.012 0.870903 -3.77484 0
M  V30 4899 H 451.426 -0.842121 -5.17695 0
M  V30 4900 H 452.9 0.845334 -5.45489 0
M  V30 4901 H 453.377 1.75772 -4.02493 0
M  V30 4902 H 453.983 0.100979 -4.2518 0
M  V30 4903 N 452.299 1.55045 -0.282633 0
M  V30 4904 C 453.232 2.18951 0.64311 0
M  V30 4905 C 454.21 1.15287 1.14664 0
M  V30 4906 O 455.394 1.43846 1.21822 0
M  V30 4907 C 452.521 2.81874 1.87789 0
M  V30 4908 C 451.567 3.98906 1.50919 0
M  V30 4909 S 452.4 5.3234 0.580884 0
M  V30 4910 C 453.556 5.98737 1.82387 0
M  V30 4911 H 453.789 2.97131 0.100138 0
M  V30 4912 H 451.322 1.54255 -0.0668514 0
M  V30 4913 H 453.28 3.18757 2.58658 0
M  V30 4914 H 451.941 2.03573 2.392 0
M  V30 4915 H 451.134 4.4165 2.42819 0
M  V30 4916 H 450.736 3.63485 0.88061 0
M  V30 4917 H 453.028 6.18427 2.76684 0
M  V30 4918 H 453.971 6.93318 1.4393 0
M  V30 4919 H 454.379 5.28177 1.99223 0
M  V30 4920 N 453.777 0.010035 1.57597 0
M  V30 4921 C 454.707 -0.976857 2.12084 0
M  V30 4922 C 455.688 -1.35191 1.03235 0
M  V30 4923 O 456.873 -1.43389 1.3097 0
M  V30 4924 C 454.003 -2.26548 2.63236 0
M  V30 4925 C 452.957 -2.03175 3.76701 0
M  V30 4926 C 452.283 -3.38138 4.14206 0
M  V30 4927 C 453.583 -1.38625 5.03568 0
M  V30 4928 H 455.277 -0.523145 2.94794 0
M  V30 4929 H 452.823 -0.250195 1.4181 0
M  V30 4930 H 454.776 -2.95952 2.99984 0
M  V30 4931 H 453.5 -2.74051 1.77661 0
M  V30 4932 H 452.159 -1.36195 3.40362 0
M  V30 4933 H 451.807 -3.83363 3.25641 0
M  V30 4934 H 451.507 -3.23312 4.90656 0
M  V30 4935 H 453.031 -4.08841 4.53521 0
M  V30 4936 H 454.445 -1.98 5.38023 0
M  V30 4937 H 452.842 -1.34256 5.84889 0
M  V30 4938 H 453.912 -0.356722 4.83586 0
M  V30 4939 N 455.255 -1.55392 -0.262866 0
M  V30 4940 C 456.218 -1.88181 -1.30846 0
M  V30 4941 C 457.218 -0.757079 -1.41862 0
M  V30 4942 O 458.408 -1.02519 -1.40838 0
M  V30 4943 C 455.54 -2.09609 -2.68844 0
M  V30 4944 H 456.733 -2.81659 -1.02997 0
M  V30 4945 H 454.286 -1.48039 -0.501414 0
M  V30 4946 H 455.021 -1.18547 -3.01856 0
M  V30 4947 H 454.806 -2.91508 -2.62231 0
M  V30 4948 H 456.296 -2.36215 -3.44372 0
M  V30 4949 N 456.733 0.527833 -1.48498 0
M  V30 4950 C 457.961 1.30823 -1.6029 0
M  V30 4951 C 458.376 1.86945 -0.263974 0
M  V30 4952 O 457.733 1.6651 0.747034 0
M  V30 4953 C 457.784 2.45756 -2.65116 0
M  V30 4954 O 457.505 1.91946 -3.93813 0
M  V30 4955 C 459.006 3.37543 -2.87367 0
M  V30 4956 H 456.226 0.397763 -0.540394 0
M  V30 4957 H 458.77 0.636529 -1.94341 0
M  V30 4958 H 456.925 3.08806 -2.33917 0
M  V30 4959 H 457.339 2.67195 -4.51339 0
M  V30 4960 H 458.813 4.14532 -3.6451 0
M  V30 4961 H 459.29 3.92905 -1.9627 0
M  V30 4962 H 459.896 2.80283 -3.19878 0
M  V30 4963 N 458.211 1.37122 0.776871 0
M  V30 4964 C 459.627 1.1781 1.07671 0
M  V30 4965 C 459.827 0.0107454 2.01497 0
M  V30 4966 O 458.883 -0.650756 2.4397 0
M  V30 4967 C 460.196 2.49451 1.67913 0
M  V30 4968 C 461.744 2.55927 1.80195 0
M  V30 4969 C 462.219 3.87686 2.43851 0
M  V30 4970 N 463.71 3.891 2.51307 0
M  V30 4971 C 464.445 4.87797 3.014 0
M  V30 4972 N 463.941 5.96888 3.51705 0
M  V30 4973 N 465.734 4.75205 3.00227 0
M  V30 4974 H 457.885 2.11843 0.153778 0
M  V30 4975 H 460.148 0.938927 0.130844 0
M  V30 4976 H 459.854 3.35207 1.06439 0
M  V30 4977 H 459.728 2.66169 2.67271 0
M  V30 4978 H 462.115 1.70582 2.40803 0
M  V30 4979 H 462.196 2.43097 0.796069 0
M  V30 4980 H 461.84 4.73444 1.83884 0
M  V30 4981 H 461.77 3.97817 3.45035 0
M  V30 4982 H 464.261 3.10293 2.157 0
M  V30 4983 H 464.574 6.68155 3.88316 0
M  V30 4984 H 462.919 6.0054 3.49824 0
M  V30 4985 H 466.11 3.89103 2.60224 0
M  V30 4986 H 466.283 5.52279 3.38957 0
M  V30 4987 N 459.689 -1.00246 1.21608 0
M  V30 4988 C 460.637 -2.11193 0.97469 0
M  V30 4989 C 461.631 -1.69216 -0.0789303 0
M  V30 4990 O 462.837 -1.79853 0.0726806 0
M  V30 4991 H 459.212 -0.690455 0.297953 0
M  V30 4992 H 461.183 -2.2873 1.91638 0
M  V30 4993 C 459.932 -3.43182 0.558717 0
M  V30 4994 H 459.255 -3.75918 1.3611 0
M  V30 4995 H 460.695 -4.21823 0.429154 0
M  V30 4996 C 459.154 -3.28882 -0.730648 0
M  V30 4997 O 459.684 -3.59835 -1.78554 0
M  V30 4998 N 457.89 -2.8209 -0.698131 0
M  V30 4999 H 457.437 -2.57099 0.16061 0
M  V30 5000 H 457.395 -2.72903 -1.56113 0
M  V30 5001 N 461.167 -1.02423 -1.1978 0
M  V30 5002 C 462.414 -0.717988 -1.89344 0
M  V30 5003 C 462.742 0.753036 -1.79331 0
M  V30 5004 O 461.997 1.56355 -1.17692 0
M  V30 5005 C 462.296 -1.1088 -3.39765 0
M  V30 5006 C 461.962 -2.57731 -3.6998 0
M  V30 5007 C 460.624 -2.97854 -3.77937 0
M  V30 5008 C 462.976 -3.52763 -3.83677 0
M  V30 5009 C 460.304 -4.31931 -3.97054 0
M  V30 5010 C 462.656 -4.86538 -4.04306 0
M  V30 5011 C 461.32 -5.26356 -4.10494 0
M  V30 5012 H 460.59 -0.26273 -0.692859 0
M  V30 5013 H 463.237 -1.28623 -1.41875 0
M  V30 5014 H 461.542 -0.459094 -3.89101 0
M  V30 5015 H 463.239 -0.849432 -3.919 0
M  V30 5016 H 459.829 -2.25646 -3.64393 0
M  V30 5017 H 464.013 -3.2292 -3.76877 0
M  V30 5018 H 459.269 -4.62324 -4.00083 0
M  V30 5019 H 463.443 -5.60093 -4.13846 0
M  V30 5020 H 461.07 -6.3026 -4.2506 0
M  V30 5021 N 462.645 1.35699 -0.801477 0
M  V30 5022 C 463.87 2.03687 -0.390678 0
M  V30 5023 C 464.295 1.60015 0.988778 0
M  V30 5024 O 463.653 0.774357 1.63931 0
M  V30 5025 C 463.701 3.57439 -0.476404 0
M  V30 5026 O 462.805 4.09208 0.512106 0
M  V30 5027 H 462.146 0.64344 -0.163956 0
M  V30 5028 H 464.676 1.73403 -1.08594 0
M  V30 5029 H 464.686 4.06544 -0.344357 0
M  V30 5030 H 463.361 3.88576 -1.48262 0
M  V30 5031 H 461.938 3.7134 0.340721 0
M  V30 5032 N 464.123 0.554532 1.47522 0
M  V30 5033 C 465.371 0.0294208 2.02079 0
M  V30 5034 C 465.692 -1.32411 1.43151 0
M  V30 5035 O 464.962 -1.863 0.605728 0
M  V30 5036 H 463.542 0.00788672 0.746958 0
M  V30 5037 H 466.204 0.723934 1.80956 0
M  V30 5038 H 465.3 -0.0606745 3.12041 0
M  V30 5039 N 465.601 -1.54893 0.290851 0
M  V30 5040 C 466.849 -1.99538 -0.320756 0
M  V30 5041 C 467.17 -1.18075 -1.55188 0
M  V30 5042 O 466.44 -0.274162 -1.93972 0
M  V30 5043 H 465.02 -0.737052 -0.121507 0
M  V30 5044 H 467.682 -1.90755 0.399832 0
M  V30 5045 H 466.778 -3.06282 -0.599802 0
M  V30 5046 N 467.08 -0.0183926 -1.57589 0
M  V30 5047 C 468.027 0.967022 -2.09565 0
M  V30 5048 C 468.997 1.32983 -0.995225 0
M  V30 5049 O 470.182 1.42501 -1.26878 0
M  V30 5050 C 467.322 2.24772 -2.61861 0
M  V30 5051 C 466.435 1.94232 -3.85873 0
M  V30 5052 C 465.57 3.16518 -4.26603 0
M  V30 5053 C 464.609 2.81748 -5.43401 0
M  V30 5054 N 463.746 3.96626 -5.79338 0
M  V30 5055 H 468.586 0.516874 -2.93483 0
M  V30 5056 H 466.123 0.243544 -1.4507 0
M  V30 5057 H 468.081 2.99667 -2.90268 0
M  V30 5058 H 466.711 2.67423 -1.8079 0
M  V30 5059 H 465.763 1.09625 -3.64262 0
M  V30 5060 H 467.075 1.64616 -4.70853 0
M  V30 5061 H 466.229 3.99743 -4.56389 0
M  V30 5062 H 464.968 3.49286 -3.40368 0
M  V30 5063 H 463.973 1.96933 -5.1332 0
M  V30 5064 H 465.198 2.50207 -6.31327 0
M  V30 5065 H 463.144 4.29257 -4.96059 0
M  V30 5066 H 463.061 3.70598 -6.58933 0
M  V30 5067 H 464.329 4.80586 -6.13724 0
M  V30 5068 N 468.558 1.5553 0.254621 0
M  V30 5069 C 469.783 1.81383 1.00573 0
M  V30 5070 C 470.208 0.594419 1.78461 0
M  V30 5071 O 469.566 -0.456403 1.75461 0
M  V30 5072 C 469.614 3.04892 1.92545 0
M  V30 5073 O 468.718 2.81266 3.01601 0
M  V30 5074 H 468.059 0.598969 0.286587 0
M  V30 5075 H 470.589 2.02703 0.277952 0
M  V30 5076 H 470.599 3.34119 2.34155 0
M  V30 5077 H 469.274 3.93287 1.3527 0
M  V30 5078 H 467.851 2.63185 2.64174 0
M  V30 5079 N 470.036 -0.519951 1.48776 0
M  V30 5080 C 471.284 -1.2727 1.56993 0
M  V30 5081 C 471.605 -1.9339 0.25004 0
M  V30 5082 O 470.875 -1.81822 -0.729216 0
M  V30 5083 H 469.455 -0.472732 0.578389 0
M  V30 5084 H 472.117 -0.604234 1.85297 0
M  V30 5085 H 471.213 -2.04669 2.3562 0
M  V30 5086 N 471.514 -1.37532 -0.769588 0
M  V30 5087 C 472.762 -1.32597 -1.5252 0
M  V30 5088 C 473.083 0.0884294 -1.94799 0
M  V30 5089 O 472.353 1.03289 -1.66458 0
M  V30 5090 H 470.933 -0.487846 -0.565699 0
M  V30 5091 H 473.595 -1.72044 -0.915806 0
M  V30 5092 H 472.691 -1.96643 -2.42359 0
M  V30 5093 N 472.992 0.995999 -1.22138 0
M  V30 5094 C 473.94 2.10673 -0.985876 0
M  V30 5095 C 474.934 1.69255 0.0699553 0
M  V30 5096 O 476.14 1.79812 -0.0822176 0
M  V30 5097 H 472.515 0.688865 -0.30161 0
M  V30 5098 H 474.486 2.27711 -1.92848 0
M  V30 5099 C 473.235 3.42881 -0.576909 0
M  V30 5100 H 472.558 3.75191 -1.38101 0
M  V30 5101 H 473.998 4.21589 -0.451518 0
M  V30 5102 C 472.457 3.29265 0.713196 0
M  V30 5103 O 472.987 3.60777 1.76643 0
M  V30 5104 N 471.193 2.82456 0.683162 0
M  V30 5105 H 470.74 2.5701 -0.174242 0
M  V30 5106 H 470.698 2.73727 1.54663 0
M  V30 5107 N 474.47 1.03057 1.19235 0
M  V30 5108 C 475.417 0.612832 2.22515 0
M  V30 5109 C 476.387 -0.374224 1.61829 0
M  V30 5110 O 477.572 -0.270501 1.88873 0
M  V30 5111 C 474.712 -0.028475 3.45088 0
M  V30 5112 C 473.825 1.00483 4.20151 0
M  V30 5113 C 472.96 0.333102 5.30155 0
M  V30 5114 C 471.999 1.3522 5.96977 0
M  V30 5115 N 471.136 0.70616 6.9854 0
M  V30 5116 H 475.976 1.49812 2.57605 0
M  V30 5117 H 473.513 0.749658 1.26564 0
M  V30 5118 H 475.471 -0.417548 4.15105 0
M  V30 5119 H 474.101 -0.877334 3.10649 0
M  V30 5120 H 473.153 1.51194 3.49062 0
M  V30 5121 H 474.465 1.77929 4.65986 0
M  V30 5122 H 473.619 -0.110725 6.06599 0
M  V30 5123 H 472.358 -0.473547 4.85396 0
M  V30 5124 H 471.363 1.80627 5.19282 0
M  V30 5125 H 472.588 2.16037 6.4382 0
M  V30 5126 H 470.534 -0.0803667 6.55951 0
M  V30 5127 H 470.451 1.41848 7.42573 0
M  V30 5128 H 471.719 0.286391 7.78974 0
M  V30 5129 N 475.948 -1.35272 0.808662 0
M  V30 5130 C 476.895 -2.29764 0.218482 0
M  V30 5131 C 477.865 -1.52911 -0.648652 0
M  V30 5132 O 479.05 -1.81341 -0.593297 0
M  V30 5133 C 476.19 -3.39388 -0.625282 0
M  V30 5134 C 475.303 -4.31202 0.262516 0
M  V30 5135 C 474.438 -5.27919 -0.589451 0
M  V30 5136 C 473.477 -6.11371 0.298617 0
M  V30 5137 N 472.614 -7.0022 -0.513443 0
M  V30 5138 H 477.454 -2.79645 1.02968 0
M  V30 5139 H 474.991 -1.37629 0.519303 0
M  V30 5140 H 476.949 -4.01615 -1.12966 0
M  V30 5141 H 475.579 -2.90777 -1.40173 0
M  V30 5142 H 474.631 -3.69962 0.885013 0
M  V30 5143 H 475.943 -4.89748 0.945971 0
M  V30 5144 H 475.097 -5.95529 -1.15888 0
M  V30 5145 H 473.836 -4.69875 -1.30647 0
M  V30 5146 H 472.841 -5.42707 0.880301 0
M  V30 5147 H 474.066 -6.71494 1.01352 0
M  V30 5148 H 472.012 -6.44662 -1.21439 0
M  V30 5149 H 471.929 -7.55917 0.111922 0
M  V30 5150 H 473.197 -7.72175 -1.06608 0
M  V30 5151 N 477.426 -0.562348 -1.47226 0
M  V30 5152 C 478.651 -0.0432632 -2.07355 0
M  V30 5153 C 479.076 1.24332 -1.41149 0
M  V30 5154 O 478.434 1.74603 -0.488226 0
M  V30 5155 C 478.482 0.130288 -3.60365 0
M  V30 5156 O 477.586 1.19166 -3.94808 0
M  V30 5157 H 476.927 -0.0536334 -0.66183 0
M  V30 5158 H 479.457 -0.779495 -1.89169 0
M  V30 5159 H 479.467 0.342881 -4.06557 0
M  V30 5160 H 478.142 -0.809389 -4.07948 0
M  V30 5161 H 476.719 0.959153 -3.60354 0
M  V30 5162 N 478.904 1.54736 -0.299062 0
M  V30 5163 C 480.181 1.92187 0.363802 0
M  V30 5164 C 480.561 1.22607 1.71845 0
M  V30 5165 O 479.909 0.361141 2.25628 0
M  V30 5166 C 480.119 3.45678 0.480377 0
M  V30 5167 C 481.467 4.17885 0.752147 0
M  V30 5168 O 482.491 3.51702 0.564264 0
M  V30 5169 O 481.35 5.35048 1.11294 0
M  V30 5170 H 478.444 0.801681 0.203066 0
M  V30 5171 H 480.99 1.66115 -0.346978 0
M  V30 5172 H 479.762 3.88443 -0.471999 0
M  V30 5173 H 479.385 3.77779 1.2397 0
M  V30 5174 N 480.382 0.0267497 1.57577 0
M  V30 5175 C 481.63 -0.651116 1.91324 0
M  V30 5176 C 481.951 -1.72804 0.90353 0
M  V30 5177 O 481.221 -1.95822 -0.0552946 0
M  V30 5178 H 479.801 -0.243491 0.706202 0
M  V30 5179 H 482.463 0.0739935 1.94759 0
M  V30 5180 H 481.559 -1.10536 2.9187 0
M  V30 5181 N 481.861 -1.55662 -0.24637 0
M  V30 5182 C 483.107 -1.77782 -0.975779 0
M  V30 5183 C 483.44 -0.592103 -1.84953 0
M  V30 5184 O 482.715 0.409588 -1.90138 0
M  V30 5185 C 482.998 -3.09788 -1.83584 0
M  V30 5186 C 482.851 -4.38764 -0.990241 0
M  V30 5187 C 484.17 -3.38029 -2.81823 0
M  V30 5188 H 481.289 -0.646789 -0.353317 0
M  V30 5189 H 483.931 -1.88398 -0.246248 0
M  V30 5190 H 482.081 -3.00869 -2.45784 0
M  V30 5191 H 483.753 -4.59675 -0.386897 0
M  V30 5192 H 481.996 -4.32798 -0.294626 0
M  V30 5193 H 482.667 -5.27514 -1.62584 0
M  V30 5194 H 485.143 -3.46915 -2.2976 0
M  V30 5195 H 484.019 -4.3161 -3.39122 0
M  V30 5196 H 484.28 -2.58968 -3.58313 0
M  V30 5197 N 483.339 0.512053 -1.4905 0
M  V30 5198 C 484.286 1.6148 -1.64902 0
M  V30 5199 C 485.256 1.58687 -0.490673 0
M  V30 5200 O 486.441 1.76842 -0.71636 0
M  V30 5201 C 483.581 2.99676 -1.71139 0
M  V30 5202 C 482.694 3.12568 -2.98203 0
M  V30 5203 C 481.829 4.4143 -2.95487 0
M  V30 5204 C 480.868 4.47916 -4.17179 0
M  V30 5205 N 480.005 5.68191 -4.12437 0
M  V30 5206 H 484.845 1.47271 -2.59066 0
M  V30 5207 H 482.382 0.716713 -1.28459 0
M  V30 5208 H 484.34 3.79761 -1.72736 0
M  V30 5209 H 482.97 3.12614 -0.804508 0
M  V30 5210 H 482.022 2.25618 -3.06269 0
M  V30 5211 H 483.334 3.1322 -3.88194 0
M  V30 5212 H 482.488 5.29825 -2.95585 0
M  V30 5213 H 481.227 4.43326 -2.03256 0
M  V30 5214 H 480.232 3.57925 -4.17337 0
M  V30 5215 H 481.457 4.47744 -5.1059 0
M  V30 5216 H 479.403 5.7095 -3.23036 0
M  V30 5217 H 479.32 5.70413 -4.96151 0
M  V30 5218 H 480.588 6.58823 -4.16621 0
M  V30 5219 N 484.817 1.37938 0.762283 0
M  V30 5220 C 485.727 1.36681 1.90671 0
M  V30 5221 C 486.743 0.265078 1.71969 0
M  V30 5222 O 487.919 0.502055 1.95042 0
M  V30 5223 C 484.984 1.18211 3.25925 0
M  V30 5224 C 484.045 2.3811 3.57214 0
M  V30 5225 C 483.278 2.20512 4.86014 0
M  V30 5226 O 483.501 1.19429 5.57757 0
M  V30 5227 O 482.435 3.08911 5.16583 0
M  V30 5228 H 486.261 2.33091 1.94685 0
M  V30 5229 H 483.846 1.18767 0.906356 0
M  V30 5230 H 485.728 1.09937 4.06807 0
M  V30 5231 H 484.403 0.248807 3.22742 0
M  V30 5232 H 483.31 2.51958 2.76529 0
M  V30 5233 H 484.643 3.30041 3.65149 0
M  V30 5234 N 486.295 -0.989507 1.22664 0
M  V30 5235 C 487.52 -1.77031 1.08051 0
M  V30 5236 C 487.945 -1.84535 -0.364483 0
M  V30 5237 O 487.303 -1.3003 -1.2634 0
M  V30 5238 C 487.351 -3.18 1.70024 0
M  V30 5239 O 486.455 -4.01161 0.956216 0
M  V30 5240 H 485.796 -0.545008 0.379292 0
M  V30 5241 H 488.326 -1.24277 1.62531 0
M  V30 5242 H 488.336 -3.68616 1.74888 0
M  V30 5243 H 487.011 -3.11853 2.75174 0
M  V30 5244 H 485.588 -3.59687 0.98384 0
M  V30 5245 N 487.773 -1.03688 -1.18687 0
M  V30 5246 C 488.998 -0.757819 -1.93059 0
M  V30 5247 C 489.423 0.678353 -1.75442 0
M  V30 5248 O 488.781 1.46938 -1.06203 0
M  V30 5249 C 488.829 -1.12423 -3.42627 0
M  V30 5250 O 487.933 -0.247505 -4.11657 0
M  V30 5251 H 487.274 -0.279245 -0.602427 0
M  V30 5252 H 489.804 -1.3857 -1.5053 0
M  V30 5253 H 489.814 -1.08454 -3.93322 0
M  V30 5254 H 488.489 -2.17049 -3.54771 0
M  V30 5255 H 487.066 -0.34649 -3.71287 0
M  V30 5256 N 489.251 1.34841 -0.815825 0
M  V30 5257 C 490.161 2.33425 -0.234462 0
M  V30 5258 C 491.177 1.62295 0.627413 0
M  V30 5259 O 492.353 1.94109 0.536987 0
M  V30 5260 C 489.418 3.41471 0.599849 0
M  V30 5261 C 488.479 4.28362 -0.283596 0
M  V30 5262 C 487.712 5.31248 0.51099 0
M  V30 5263 O 487.935 5.43056 1.7449 0
M  V30 5264 O 486.869 6.01812 -0.10297 0
M  V30 5265 H 490.695 2.84962 -1.05024 0
M  V30 5266 H 488.28 1.37774 -0.577809 0
M  V30 5267 H 490.162 4.07464 1.07475 0
M  V30 5268 H 488.837 2.9219 1.39308 0
M  V30 5269 H 487.744 3.65318 -0.805836 0
M  V30 5270 H 489.077 4.81066 -1.041 0
M  V30 5271 N 490.729 0.570148 1.46925 0
M  V30 5272 C 491.954 0.0542592 2.07329 0
M  V30 5273 C 492.379 -1.23582 1.41806 0
M  V30 5274 O 491.737 -1.74341 0.497479 0
M  V30 5275 C 491.785 -0.111175 3.60429 0
M  V30 5276 O 490.889 -1.17071 3.95434 0
M  V30 5277 H 490.23 0.0571425 0.661537 0
M  V30 5278 H 492.76 0.789516 1.88753 0
M  V30 5279 H 492.77 -0.321315 4.06733 0
M  V30 5280 H 491.445 0.831012 4.07513 0
M  V30 5281 H 490.022 -0.940029 3.60857 0
M  V30 5282 N 492.207 -1.54576 0.307264 0
M  V30 5283 C 493.435 -2.04675 -0.302597 0
M  V30 5284 C 493.85 -1.18425 -1.47041 0
M  V30 5285 O 493.207 -0.211257 -1.81273 0
M  V30 5286 C 493.258 -3.53575 -0.752801 0
M  V30 5287 O 492.979 -4.36547 0.368536 0
M  V30 5288 C 494.48 -4.19699 -1.42717 0
M  V30 5289 H 491.7 -0.66786 -0.0648374 0
M  V30 5290 H 494.244 -1.99516 0.448716 0
M  V30 5291 H 492.399 -3.59074 -1.45412 0
M  V30 5292 H 492.813 -5.24497 0.0168937 0
M  V30 5293 H 494.287 -5.25388 -1.69327 0
M  V30 5294 H 494.764 -3.69815 -2.36925 0
M  V30 5295 H 495.37 -4.18293 -0.768856 0
M  V30 5296 N 493.685 -0.035106 -1.57561 0
M  V30 5297 C 494.633 0.962707 -2.11742 0
M  V30 5298 C 495.627 1.33296 -1.0454 0
M  V30 5299 O 496.833 1.31449 -1.22968 0
M  V30 5300 H 493.208 0.32826 -0.676572 0
M  V30 5301 H 495.179 0.48048 -2.94506 0
M  V30 5302 C 493.928 2.23388 -2.66445 0
M  V30 5303 H 493.251 1.95774 -3.48587 0
M  V30 5304 H 494.691 2.91402 -3.07995 0
M  V30 5305 C 493.15 2.96769 -1.59467 0
M  V30 5306 O 493.68 3.89105 -0.998 0
M  V30 5307 N 491.886 2.59212 -1.31369 0
M  V30 5308 H 491.433 1.84202 -1.80076 0
M  V30 5309 H 491.391 3.08618 -0.600173 0
M  V30 5310 N 495.163 1.55791 0.238111 0
M  V30 5311 C 496.391 1.82098 0.982233 0
M  V30 5312 C 496.806 0.612025 1.78605 0
M  V30 5313 O 496.163 -0.419381 1.77616 0
M  V30 5314 C 496.214 3.0673 1.91309 0
M  V30 5315 O 495.935 4.2296 1.14179 0
M  V30 5316 C 497.436 3.45903 2.77248 0
M  V30 5317 H 494.656 0.605748 0.288635 0
M  V30 5318 H 497.2 2.02862 0.258341 0
M  V30 5319 H 495.355 2.87991 2.59114 0
M  V30 5320 H 495.769 4.93653 1.7722 0
M  V30 5321 H 497.243 4.36189 3.38295 0
M  V30 5322 H 497.72 2.66891 3.48806 0
M  V30 5323 H 498.326 3.67024 2.14881 0
M  V30 5324 N 496.642 -0.504142 1.49319 0
M  V30 5325 C 497.87 -1.28256 1.62351 0
M  V30 5326 C 498.285 -1.86502 0.293682 0
M  V30 5327 O 497.642 -1.67678 -0.720449 0
M  V30 5328 C 497.693 -2.41507 2.68992 0
M  V30 5329 O 497.414 -1.85656 3.96817 0
M  V30 5330 C 498.915 -3.32929 2.927 0
M  V30 5331 H 496.135 -0.389115 0.546654 0
M  V30 5332 H 498.679 -0.605531 1.95329 0
M  V30 5333 H 496.834 -3.05046 2.38801 0
M  V30 5334 H 497.248 -2.59981 4.55533 0
M  V30 5335 H 498.722 -4.0868 3.71058 0
M  V30 5336 H 499.199 -3.89733 2.02496 0
M  V30 5337 H 499.805 -2.75158 3.24296 0
M  V30 5338 N 498.12 -1.38341 -0.754957 0
M  V30 5339 C 499.369 -1.33791 -1.5094 0
M  V30 5340 C 499.682 0.0699267 -1.95475 0
M  V30 5341 O 500.888 0.237956 -2.70455 0
M  V30 5342 C 499.344 -2.34934 -2.72643 0
M  V30 5343 C 498.952 -3.81332 -2.35138 0
M  V30 5344 C 500.696 -2.39425 -3.50536 0
M  V30 5345 C 498.603 -4.74164 -3.53444 0
M  V30 5346 H 497.533 -0.497314 -0.566741 0
M  V30 5347 H 500.184 -1.63888 -0.825403 0
M  V30 5348 H 498.566 -1.97878 -3.43017 0
M  V30 5349 H 499.74 -4.27319 -1.7244 0
M  V30 5350 H 498.055 -3.79946 -1.70382 0
M  V30 5351 H 500.652 -3.0598 -4.38498 0
M  V30 5352 H 500.995 -1.41278 -3.91594 0
M  V30 5353 H 501.528 -2.75274 -2.87174 0
M  V30 5354 H 498.267 -5.73501 -3.17453 0
M  V30 5355 H 497.787 -4.3287 -4.15191 0
M  V30 5356 H 499.466 -4.92111 -4.20043 0
M  V30 5357 N 499.598 0.982988 -1.23187 0
M  V30 5358 C 500.508 2.10907 -1.02739 0
M  V30 5359 C 501.524 1.73979 0.0273188 0
M  V30 5360 O 502.7 2.00702 -0.16757 0
M  V30 5361 C 499.765 3.41142 -0.618304 0
M  V30 5362 C 498.826 3.92112 -1.74777 0
M  V30 5363 C 498.059 5.16131 -1.3581 0
M  V30 5364 O 498.282 5.6989 -0.241201 0
M  V30 5365 O 497.216 5.61103 -2.17824 0
M  V30 5366 H 501.042 2.31046 -1.97108 0
M  V30 5367 H 498.627 1.09284 -1.01869 0
M  V30 5368 H 500.509 4.19488 -0.400982 0
M  V30 5369 H 499.184 3.2234 0.296421 0
M  V30 5370 H 498.091 3.14895 -2.0197 0
M  V30 5371 H 499.424 4.15364 -2.64071 0
M  V30 5372 N 501.076 1.04316 1.18135 0
M  V30 5373 C 502.353 0.662166 1.84051 0
M  V30 5374 C 502.733 -0.858169 1.9287 0
M  V30 5375 O 502.081 -1.76062 1.45652 0
M  V30 5376 C 502.291 1.3409 3.22212 0
M  V30 5377 C 503.639 1.4733 3.9822 0
M  V30 5378 O 504.663 1.29921 3.31661 0
M  V30 5379 O 503.522 1.75722 5.17479 0
M  V30 5380 H 500.616 0.232005 0.79379 0
M  V30 5381 H 503.162 1.1422 1.25506 0
M  V30 5382 H 501.934 2.37853 3.10711 0
M  V30 5383 H 501.557 0.849649 3.88416 0
M  V30 5384 N 502.554 -1.34406 0.822964 0
M  V30 5385 C 503.464 -2.33298 0.246838 0
M  V30 5386 C 504.48 -1.62625 -0.618797 0
M  V30 5387 O 505.656 -1.94391 -0.526685 0
M  V30 5388 C 502.721 -3.41785 -0.581731 0
M  V30 5389 C 501.782 -4.28206 0.306309 0
M  V30 5390 C 501.015 -5.31512 -0.48281 0
M  V30 5391 O 501.238 -5.43973 -1.71607 0
M  V30 5392 O 500.172 -6.01749 0.134884 0
M  V30 5393 H 503.998 -2.84401 1.06534 0
M  V30 5394 H 501.583 -1.37466 0.585108 0
M  V30 5395 H 503.465 -4.08028 -1.05313 0
M  V30 5396 H 502.14 -2.92925 -1.37756 0
M  V30 5397 H 501.047 -3.64885 0.825199 0
M  V30 5398 H 502.38 -4.80507 1.06649 0
M  V30 5399 N 504.032 -0.577932 -1.46621 0
M  V30 5400 C 505.309 0.00495287 -1.95599 0
M  V30 5401 C 505.689 1.46428 -1.5206 0
M  V30 5402 O 505.037 2.1517 -0.769046 0
M  V30 5403 C 505.247 -0.162114 -3.48623 0
M  V30 5404 C 506.595 -0.0274623 -4.24591 0
M  V30 5405 O 507.619 -0.0907067 -3.56084 0
M  V30 5406 O 506.478 0.1122 -5.46385 0
M  V30 5407 H 503.572 0.0525057 -0.825332 0
M  V30 5408 H 506.118 -0.645914 -1.56927 0
M  V30 5409 H 504.89 -1.17679 -3.73185 0
M  V30 5410 H 504.513 0.525407 -3.94113 0
M  V30 5411 N 505.51 1.54411 -0.315457 0
M  V30 5412 C 506.738 2.04833 0.291738 0
M  V30 5413 C 507.153 1.19203 1.46411 0
M  V30 5414 O 506.51 0.220867 1.81159 0
M  V30 5415 C 506.561 3.53969 0.73404 0
M  V30 5416 O 506.282 4.36346 -0.391682 0
M  V30 5417 C 507.783 4.2045 1.40489 0
M  V30 5418 H 505.003 0.668195 0.0612947 0
M  V30 5419 H 507.547 1.99276 -0.45929 0
M  V30 5420 H 505.702 3.5984 1.43506 0
M  V30 5421 H 506.116 5.24481 -0.0447088 0
M  V30 5422 H 507.59 5.26278 1.66539 0
M  V30 5423 H 508.067 3.71067 2.3496 0
M  V30 5424 H 508.673 4.18694 0.746662 0
M  V30 5425 N 506.988 0.0434614 1.5754 0
M  V30 5426 C 507.935 -0.93356 2.11077 0
M  V30 5427 C 508.905 -1.31383 1.01626 0
M  V30 5428 O 510.09 -1.40465 1.29129 0
M  V30 5429 C 507.23 -2.20578 2.65404 0
M  V30 5430 C 506.343 -1.88068 3.88914 0
M  V30 5431 C 505.478 -3.09691 4.31584 0
M  V30 5432 C 504.517 -2.73067 5.47815 0
M  V30 5433 N 503.654 -3.87359 5.85574 0
M  V30 5434 H 508.494 -0.470118 2.94268 0
M  V30 5435 H 506.031 -0.220434 1.45439 0
M  V30 5436 H 507.989 -2.95011 2.94999 0
M  V30 5437 H 506.619 -2.64513 1.85021 0
M  V30 5438 H 505.671 -1.03816 3.6596 0
M  V30 5439 H 506.983 -1.57104 4.73413 0
M  V30 5440 H 506.137 -3.92431 4.62691 0
M  V30 5441 H 504.876 -3.43827 3.45882 0
M  V30 5442 H 503.881 -1.88742 5.16388 0
M  V30 5443 H 505.106 -2.40131 6.35227 0
M  V30 5444 H 503.052 -4.21311 5.02825 0
M  V30 5445 H 502.969 -3.60068 6.64746 0
M  V30 5446 H 504.237 -4.70761 6.21292 0
M  V30 5447 N 508.466 -1.55915 -0.229846 0
M  V30 5448 C 509.712 -1.78807 -0.956868 0
M  V30 5449 C 510.045 -0.611687 -1.84315 0
M  V30 5450 O 509.32 0.389398 -1.90562 0
M  V30 5451 C 509.603 -3.11718 -1.80288 0
M  V30 5452 C 509.456 -4.3979 -0.943649 0
M  V30 5453 C 510.775 -3.40999 -2.78222 0
M  V30 5454 H 507.894 -0.6505 -0.346437 0
M  V30 5455 H 510.536 -1.88648 -0.226252 0
M  V30 5456 H 508.686 -3.03459 -2.42579 0
M  V30 5457 H 510.358 -4.60059 -0.338121 0
M  V30 5458 H 508.601 -4.33086 -0.248705 0
M  V30 5459 H 509.272 -5.29208 -1.5698 0
M  V30 5460 H 511.748 -3.49332 -2.26067 0
M  V30 5461 H 510.624 -4.35183 -3.34526 0
M  V30 5462 H 510.885 -2.62754 -3.55546 0
M  V30 5463 N 509.944 0.496216 -1.49584 0
M  V30 5464 C 511.36 0.827814 -1.36453 0
M  V30 5465 C 511.56 1.97464 -0.401285 0
M  V30 5466 O 510.616 2.51958 0.165296 0
M  V30 5467 C 511.929 1.16352 -2.77277 0
M  V30 5468 C 513.477 1.27145 -2.86013 0
M  V30 5469 C 513.952 1.64042 -4.27615 0
M  V30 5470 N 515.443 1.71082 -4.30448 0
M  V30 5471 C 516.178 2.01085 -5.36984 0
M  V30 5472 N 515.674 2.2928 -6.5376 0
M  V30 5473 N 517.467 2.02376 -5.24405 0
M  V30 5474 H 509.618 -0.259947 -2.10803 0
M  V30 5475 H 511.881 -0.0537163 -0.946477 0
M  V30 5476 H 511.587 0.394153 -3.49484 0
M  V30 5477 H 511.461 2.10582 -3.12946 0
M  V30 5478 H 513.848 2.03152 -2.1404 0
M  V30 5479 H 513.929 0.309542 -2.5392 0
M  V30 5480 H 513.573 0.88583 -5.00115 0
M  V30 5481 H 513.503 2.6134 -4.57175 0
M  V30 5482 H 515.994 1.51434 -3.46232 0
M  V30 5483 H 516.307 2.51376 -7.30774 0
M  V30 5484 H 514.652 2.26726 -6.56978 0
M  V30 5485 H 517.843 1.79829 -4.32179 0
M  V30 5486 H 518.016 2.25425 -6.07526 0
M  V30 5487 N 511.423 1.38739 0.74761 0
M  V30 5488 C 512.37 1.36449 1.86146 0
M  V30 5489 C 513.34 0.226098 1.64554 0
M  V30 5490 O 514.525 0.41926 1.86137 0
M  V30 5491 C 511.665 1.2013 3.23516 0
M  V30 5492 C 510.778 2.43407 3.56899 0
M  V30 5493 C 509.913 2.19773 4.83605 0
M  V30 5494 C 508.952 3.3879 5.09792 0
M  V30 5495 N 508.089 3.14553 6.27695 0
M  V30 5496 H 512.929 2.3167 1.87438 0
M  V30 5497 H 510.466 1.15094 0.916063 0
M  V30 5498 H 512.424 1.08683 4.02795 0
M  V30 5499 H 511.054 0.285453 3.21535 0
M  V30 5500 H 510.106 2.65504 2.72418 0
M  V30 5501 H 511.418 3.32094 3.72176 0
M  V30 5502 H 510.572 2.05496 5.70838 0
M  V30 5503 H 509.311 1.28461 4.70478 0
M  V30 5504 H 508.316 3.53579 4.21025 0
M  V30 5505 H 509.541 4.30986 5.24812 0
M  V30 5506 H 507.487 2.25893 6.1588 0
M  V30 5507 H 507.404 3.96791 6.435 0
M  V30 5508 H 508.672 3.03943 7.17801 0
M  V30 5509 N 512.901 -0.976442 1.23707 0
M  V30 5510 C 513.833 -2.07212 0.979574 0
M  V30 5511 C 514.846 -1.6273 -0.0478528 0
M  V30 5512 O 516.035 -1.77506 0.18815 0
M  V30 5513 C 513.135 -3.35835 0.45479 0
M  V30 5514 C 512.308 -4.09268 1.54331 0
M  V30 5515 C 511.367 -5.16166 1.02271 0
M  V30 5516 O 510.393 -5.42827 1.71254 0
M  V30 5517 N 511.595 -5.80313 -0.147419 0
M  V30 5518 H 514.36 -2.29878 1.92292 0
M  V30 5519 H 511.921 -1.14343 1.14618 0
M  V30 5520 H 513.913 -4.04597 0.0914631 0
M  V30 5521 H 512.483 -3.10106 -0.394068 0
M  V30 5522 H 511.703 -3.34906 2.07923 0
M  V30 5523 H 512.991 -4.55095 2.27522 0
M  V30 5524 H 512.389 -5.61043 -0.724353 0
M  V30 5525 H 510.946 -6.50231 -0.451972 0
M  V30 5526 N 514.379 -1.04941 -1.1758 0
M  V30 5527 C 515.289 -0.658826 -2.25159 0
M  V30 5528 C 516.305 0.318941 -1.71052 0
M  V30 5529 O 517.481 0.171669 -2.00667 0
M  V30 5530 C 514.546 -0.0369522 -3.4668 0
M  V30 5531 C 513.607 -1.06484 -4.15884 0
M  V30 5532 C 512.84 -0.472551 -5.31604 0
M  V30 5533 O 513.063 0.718736 -5.65854 0
M  V30 5534 O 511.997 -1.20557 -5.89703 0
M  V30 5535 H 515.823 -1.55533 -2.60851 0
M  V30 5536 H 513.408 -0.820819 -1.24832 0
M  V30 5537 H 515.29 0.308784 -4.20267 0
M  V30 5538 H 513.965 0.833238 -3.12792 0
M  V30 5539 H 512.872 -1.46253 -3.44327 0
M  V30 5540 H 514.205 -1.9061 -4.53794 0
M  V30 5541 N 515.857 1.33968 -0.830081 0
M  V30 5542 C 517.106 1.97323 -0.417928 0
M  V30 5543 C 517.419 1.6652 1.02618 0
M  V30 5544 O 518.625 2.2342 1.54259 0
M  V30 5545 C 517.081 3.53099 -0.696359 0
M  V30 5546 C 516.689 3.92788 -2.15457 0
M  V30 5547 C 518.433 4.23049 -0.350724 0
M  V30 5548 C 516.34 5.41506 -2.37751 0
M  V30 5549 H 515.27 0.738409 -0.152541 0
M  V30 5550 H 517.921 1.52711 -1.01744 0
M  V30 5551 H 516.303 3.95991 -0.0265904 0
M  V30 5552 H 517.477 3.6098 -2.86408 0
M  V30 5553 H 515.792 3.35795 -2.46232 0
M  V30 5554 H 518.389 5.32403 -0.495036 0
M  V30 5555 H 518.732 4.10279 0.705476 0
M  V30 5556 H 519.265 3.85657 -0.975362 0
M  V30 5557 H 516.004 5.5927 -3.41903 0
M  V30 5558 H 515.524 5.74804 -1.7135 0
M  V30 5559 H 517.203 6.0828 -2.20465 0
M  V30 5560 N 517.335 0.585699 1.46312 0
M  V30 5561 C 518.584 0.0701192 2.01578 0
M  V30 5562 C 518.897 -1.29889 1.46247 0
M  V30 5563 O 520.103 -1.90598 1.93351 0
M  V30 5564 C 518.559 0.0747499 3.59822 0
M  V30 5565 C 518.167 1.44226 4.24149 0
M  V30 5566 C 519.911 -0.38673 4.22735 0
M  V30 5567 C 517.818 1.40446 5.74481 0
M  V30 5568 H 516.748 0.0224441 0.753666 0
M  V30 5569 H 519.399 0.737789 1.68015 0
M  V30 5570 H 517.781 -0.659144 3.90476 0
M  V30 5571 H 518.955 2.19612 4.05101 0
M  V30 5572 H 517.27 1.84401 3.73343 0
M  V30 5573 H 519.867 -0.433853 5.32937 0
M  V30 5574 H 520.21 -1.40489 3.91878 0
M  V30 5575 H 520.743 0.293195 3.96718 0
M  V30 5576 H 517.482 2.39952 6.10003 0
M  V30 5577 H 517.002 0.692845 5.95785 0
M  V30 5578 H 518.681 1.11865 6.37256 0
M  V30 5579 N 518.813 -1.54241 0.323641 0
M  V30 5580 C 519.76 -2.24339 -0.542277 0
M  V30 5581 C 520.73 -1.23421 -1.11159 0
M  V30 5582 O 521.915 -1.52104 -1.15192 0
M  V30 5583 C 519.055 -3.00479 -1.69725 0
M  V30 5584 C 518.168 -4.16214 -1.15716 0
M  V30 5585 C 517.303 -4.79884 -2.27783 0
M  V30 5586 C 516.342 -5.87722 -1.71023 0
M  V30 5587 N 515.479 -6.45254 -2.76752 0
M  V30 5588 H 520.319 -2.97935 0.0620613 0
M  V30 5589 H 517.856 -1.47039 0.0423993 0
M  V30 5590 H 519.814 -3.42869 -2.3769 0
M  V30 5591 H 518.444 -2.29217 -2.27288 0
M  V30 5592 H 517.496 -3.78605 -0.369063 0
M  V30 5593 H 518.808 -4.93838 -0.701832 0
M  V30 5594 H 517.962 -5.25243 -3.03651 0
M  V30 5595 H 516.701 -4.01641 -2.76652 0
M  V30 5596 H 515.706 -5.41765 -0.936518 0
M  V30 5597 H 516.931 -6.67863 -1.2303 0
M  V30 5598 H 514.877 -5.69884 -3.24912 0
M  V30 5599 H 514.794 -7.18292 -2.35782 0
M  V30 5600 H 516.062 -6.95269 -3.5245 0
M  V30 5601 N 520.291 -0.0518155 -1.57515 0
M  V30 5602 C 521.537 0.622745 -1.93002 0
M  V30 5603 C 521.87 1.70456 -0.930499 0
M  V30 5604 O 521.145 1.94452 0.0434086 0
M  V30 5605 C 521.428 1.21824 -3.38867 0
M  V30 5606 C 521.281 0.144434 -4.49568 0
M  V30 5607 C 522.6 2.12968 -3.8514 0
M  V30 5608 H 519.719 0.22491 -0.701844 0
M  V30 5609 H 522.361 -0.113711 -1.89659 0
M  V30 5610 H 520.511 1.8459 -3.41846 0
M  V30 5611 H 522.183 -0.48753 -4.58717 0
M  V30 5612 H 520.426 -0.527424 -4.30582 0
M  V30 5613 H 521.097 0.601127 -5.48717 0
M  V30 5614 H 523.573 1.60163 -3.8404 0
M  V30 5615 H 522.449 2.51578 -4.87852 0
M  V30 5616 H 522.71 3.03004 -3.21934 0
M  V30 5617 N 521.769 1.56035 0.221574 0
M  V30 5618 C 522.997 1.8313 0.962864 0
M  V30 5619 C 523.412 0.630934 1.77946 0
M  V30 5620 O 522.769 -0.400519 1.78051 0
M  V30 5621 C 522.82 3.08742 1.88045 0
M  V30 5622 O 522.541 4.24147 1.09686 0
M  V30 5623 C 524.042 3.48824 2.73563 0
M  V30 5624 H 521.262 0.608775 0.282194 0
M  V30 5625 H 523.806 2.03124 0.23681 0
M  V30 5626 H 521.961 2.90723 2.56045 0
M  V30 5627 H 522.375 4.95505 1.71974 0
M  V30 5628 H 523.849 4.39752 3.3365 0
M  V30 5629 H 524.326 2.70575 3.45956 0
M  V30 5630 H 524.932 3.69282 2.10976 0
M  V30 5631 N 523.247 -0.488276 1.49845 0
M  V30 5632 C 524.157 -1.61451 1.70207 0
M  V30 5633 C 525.173 -1.63877 0.584846 0
M  V30 5634 O 526.349 -1.82063 0.861107 0
M  V30 5635 C 523.414 -2.9776 1.77594 0
M  V30 5636 C 522.475 -3.05861 3.01243 0
M  V30 5637 C 521.708 -4.35668 3.08268 0
M  V30 5638 O 521.931 -5.25197 2.22541 0
M  V30 5639 O 520.865 -4.49005 4.00847 0
M  V30 5640 H 524.691 -1.47199 2.65643 0
M  V30 5641 H 522.276 -0.665939 1.33737 0
M  V30 5642 H 524.158 -3.7875 1.84732 0
M  V30 5643 H 522.833 -3.12248 0.8534 0
M  V30 5644 H 521.74 -2.24012 2.99616 0
M  V30 5645 H 523.073 -2.96304 3.9302 0
M  V30 5646 N 524.725 -1.39134 -0.740242 0
M  V30 5647 C 525.657 -1.33332 -1.86428 0
M  V30 5648 C 526.67 -0.243042 -1.60976 0
M  V30 5649 O 527.859 -0.501608 -1.71307 0
M  V30 5650 C 524.959 -1.04626 -3.22346 0
M  V30 5651 C 524.132 -2.24826 -3.75196 0
M  V30 5652 C 523.191 -1.92659 -4.89662 0
M  V30 5653 O 522.217 -2.6529 -5.03597 0
M  V30 5654 N 523.419 -0.889575 -5.73643 0
M  V30 5655 H 526.184 -2.30196 -1.91911 0
M  V30 5656 H 523.745 -1.33168 -0.920756 0
M  V30 5657 H 525.737 -0.811347 -3.96484 0
M  V30 5658 H 524.307 -0.165129 -3.12164 0
M  V30 5659 H 523.527 -2.64301 -2.9247 0
M  V30 5660 H 524.815 -3.05015 -4.07239 0
M  V30 5661 H 524.213 -0.287529 -5.64969 0
M  V30 5662 H 522.77 -0.714557 -6.47871 0
M  V30 5663 N 526.204 0.969867 -1.24223 0
M  V30 5664 C 527.134 2.08191 -1.05729 0
M  V30 5665 C 528.115 1.70075 0.0290765 0
M  V30 5666 O 529.3 1.93712 -0.137583 0
M  V30 5667 C 526.43 3.40991 -0.658995 0
M  V30 5668 C 525.384 3.93054 -1.69389 0
M  V30 5669 C 524.71 5.22171 -1.15072 0
M  V30 5670 C 526.01 4.21137 -3.08935 0
M  V30 5671 H 527.704 2.23921 -1.98746 0
M  V30 5672 H 525.25 1.07602 -0.956967 0
M  V30 5673 H 527.203 4.18221 -0.51662 0
M  V30 5674 H 525.927 3.25155 0.30686 0
M  V30 5675 H 524.586 3.17977 -1.82444 0
M  V30 5676 H 524.234 5.02694 -0.175539 0
M  V30 5677 H 523.934 5.57973 -1.84229 0
M  V30 5678 H 525.458 6.02013 -1.02042 0
M  V30 5679 H 526.872 4.8908 -2.99121 0
M  V30 5680 H 525.269 4.68163 -3.75425 0
M  V30 5681 H 526.339 3.27996 -3.57137 0
M  V30 5682 N 527.682 1.05563 1.17022 0
M  V30 5683 C 528.931 0.763036 1.8671 0
M  V30 5684 C 529.244 -0.712857 1.82147 0
M  V30 5685 O 530.45 -1.11955 2.47343 0
M  V30 5686 C 528.906 1.31474 3.35026 0
M  V30 5687 C 528.514 2.82034 3.48081 0
M  V30 5688 C 530.258 1.09935 4.10018 0
M  V30 5689 C 528.165 3.30486 4.90442 0
M  V30 5690 H 527.095 0.281747 0.699382 0
M  V30 5691 H 529.746 1.2734 1.32124 0
M  V30 5692 H 528.128 0.732171 3.89173 0
M  V30 5693 H 529.302 3.46178 3.04133 0
M  V30 5694 H 527.617 3.02156 2.86515 0
M  V30 5695 H 530.214 1.43632 5.15048 0
M  V30 5696 H 530.557 0.0373072 4.16283 0
M  V30 5697 H 531.09 1.64732 3.62089 0
M  V30 5698 H 527.829 4.36137 4.89352 0
M  V30 5699 H 527.349 2.71086 5.35044 0
M  V30 5700 H 529.028 3.25382 5.59227 0
M  V30 5701 N 529.16 -1.33526 0.837174 0
M  V30 5702 C 530.07 -2.33023 0.271568 0
M  V30 5703 C 531.086 -1.63272 -0.601514 0
M  V30 5704 O 532.262 -1.94939 -0.506038 0
M  V30 5705 C 529.327 -3.42382 -0.545448 0
M  V30 5706 C 528.388 -4.27857 0.351709 0
M  V30 5707 C 527.621 -5.31994 -0.426409 0
M  V30 5708 O 527.844 -5.45763 -1.65828 0
M  V30 5709 O 526.778 -6.01572 0.1987 0
M  V30 5710 H 530.604 -2.83256 1.09545 0
M  V30 5711 H 528.189 -1.36837 0.599655 0
M  V30 5712 H 530.071 -4.09122 -1.00979 0
M  V30 5713 H 528.746 -2.94369 -1.34641 0
M  V30 5714 H 527.653 -3.6399 0.863853 0
M  V30 5715 H 528.986 -4.79349 1.1174 0
M  V30 5716 N 530.638 -0.59345 -1.46 0
M  V30 5717 C 531.601 0.123538 -2.28867 0
M  V30 5718 C 532.601 0.808628 -1.38989 0
M  V30 5719 O 533.791 0.658945 -1.61256 0
M  V30 5720 C 530.923 1.1847 -3.19653 0
M  V30 5721 H 532.116 -0.604843 -2.93737 0
M  V30 5722 H 529.669 -0.351875 -1.52288 0
M  V30 5723 H 530.404 1.94431 -2.59552 0
M  V30 5724 H 530.189 0.69783 -3.8584 0
M  V30 5725 H 531.679 1.68726 -3.81997 0
M  V30 5726 N 532.116 1.54067 -0.331816 0
M  V30 5727 C 533.365 1.99895 0.269209 0
M  V30 5728 C 533.678 1.22371 1.52593 0
M  V30 5729 O 534.884 1.58618 2.20347 0
M  V30 5730 C 533.34 3.55972 0.530244 0
M  V30 5731 C 532.948 4.4234 -0.709901 0
M  V30 5732 C 534.692 4.10247 1.09077 0
M  V30 5733 C 532.599 5.89905 -0.420312 0
M  V30 5734 H 531.529 0.746741 0.104371 0
M  V30 5735 H 534.18 1.78014 -0.445324 0
M  V30 5736 H 532.562 3.73873 1.30518 0
M  V30 5737 H 533.736 4.36215 -1.48504 0
M  V30 5738 H 532.051 3.98997 -1.19123 0
M  V30 5739 H 534.648 5.18095 1.32219 0
M  V30 5740 H 534.991 3.62739 2.0427 0
M  V30 5741 H 535.524 3.96011 0.376824 0
M  V30 5742 H 532.263 6.41623 -1.34164 0
M  V30 5743 H 531.783 5.98962 0.316962 0
M  V30 5744 H 533.462 6.46991 -0.0331956 0
M  V30 5745 N 533.594 0.0601682 1.57485 0
M  V30 5746 C 534.819 -0.624416 1.97777 0
M  V30 5747 C 535.244 -1.63051 0.937867 0
M  V30 5748 O 534.602 -1.81036 -0.0978845 0
M  V30 5749 C 534.65 -1.27979 3.37126 0
M  V30 5750 O 533.754 -2.39556 3.35688 0
M  V30 5751 H 533.095 -0.161581 0.64404 0
M  V30 5752 H 535.625 0.131237 2.04179 0
M  V30 5753 H 535.635 -1.62937 3.74053 0
M  V30 5754 H 534.31 -0.542501 4.12347 0
M  V30 5755 H 532.887 -2.06478 3.10517 0
M  V30 5756 N 535.072 -1.5615 -0.213296 0
M  V30 5757 C 536.02 -1.93953 -1.28394 0
M  V30 5758 C 537.014 -0.822592 -1.48087 0
M  V30 5759 O 538.22 -1.00748 -1.49164 0
M  V30 5760 H 534.595 -0.61648 -0.430646 0
M  V30 5761 H 536.566 -2.83275 -0.937977 0
M  V30 5762 C 535.315 -2.27969 -2.62537 0
M  V30 5763 H 534.638 -3.13432 -2.48194 0
M  V30 5764 H 536.078 -2.58297 -3.36242 0
M  V30 5765 C 534.537 -1.10775 -3.18167 0
M  V30 5766 O 535.067 -0.373201 -3.99963 0
M  V30 5767 N 533.273 -0.889377 -2.76656 0
M  V30 5768 H 532.82 -1.48843 -2.10246 0
M  V30 5769 H 532.778 -0.107 -3.14218 0
M  V30 5770 N 536.55 0.480323 -1.50102 0
M  V30 5771 C 537.798 1.23063 -1.60312 0
M  V30 5772 C 538.119 1.92659 -0.301226 0
M  V30 5773 O 537.389 1.83691 0.680753 0
M  V30 5774 H 535.969 0.457231 -0.590719 0
M  V30 5775 H 538.631 0.554893 -1.86834 0
M  V30 5776 H 537.727 1.9835 -2.40964 0
M  V30 5777 N 538.028 1.39524 0.732853 0
M  V30 5778 C 539.305 1.27373 1.48444 0
M  V30 5779 C 539.685 -0.115725 2.10783 0
M  V30 5780 O 539.033 -1.12713 1.98766 0
M  V30 5781 C 539.243 2.39966 2.53412 0
M  V30 5782 C 540.591 2.79384 3.19733 0
M  V30 5783 O 541.615 2.39431 2.63725 0
M  V30 5784 O 540.474 3.48353 4.21085 0
M  V30 5785 H 537.568 0.499272 0.659285 0
M  V30 5786 H 540.114 1.51403 0.766496 0
M  V30 5787 H 538.886 3.32845 2.05742 0
M  V30 5788 H 538.509 2.17612 3.32762 0
M  V30 5789 N 539.506 -0.963266 1.24736 0
M  V30 5790 C 540.753 -1.7068 1.0897 0
M  V30 5791 C 541.081 -1.90934 -0.370751 0
M  V30 5792 O 540.336 -1.47155 -1.29011 0
M  V30 5793 C 540.635 -3.09944 1.7796 0
M  V30 5794 C 540.301 -3.09518 3.27887 0
M  V30 5795 C 538.963 -3.09109 3.68789 0
M  V30 5796 C 541.315 -3.03509 4.23712 0
M  V30 5797 C 538.643 -3.00429 5.03944 0
M  V30 5798 C 540.995 -2.96371 5.5888 0
M  V30 5799 C 539.659 -2.94293 5.99123 0
M  V30 5800 H 538.929 -0.624564 0.398749 0
M  V30 5801 H 541.576 -1.12603 1.54896 0
M  V30 5802 H 539.881 -3.71513 1.2444 0
M  V30 5803 H 541.578 -3.66278 1.63222 0
M  V30 5804 H 538.168 -3.10603 2.95337 0
M  V30 5805 H 542.352 -3.0295 3.93109 0
M  V30 5806 H 537.608 -2.97183 5.34314 0
M  V30 5807 H 541.782 -2.90681 6.32833 0
M  V30 5808 H 539.409 -2.87322 7.03811 0
M  V30 5809 N 540.985 -1.06182 -1.16461 0
M  V30 5810 C 541.895 -0.682671 -2.24448 0
M  V30 5811 C 542.911 0.30078 -1.71381 0
M  V30 5812 O 544.087 0.150376 -2.00838 0
M  V30 5813 C 541.152 -0.0737202 -3.46622 0
M  V30 5814 C 540.213 -1.10889 -4.14731 0
M  V30 5815 C 539.446 -0.528908 -5.31073 0
M  V30 5816 O 539.669 0.65868 -5.66584 0
M  V30 5817 O 538.603 -1.26805 -5.88391 0
M  V30 5818 H 542.429 -1.58291 -2.59187 0
M  V30 5819 H 540.014 -0.834013 -1.23954 0
M  V30 5820 H 541.896 0.264192 -4.20571 0
M  V30 5821 H 540.571 0.800015 -3.13658 0
M  V30 5822 H 539.478 -1.49896 -3.42756 0
M  V30 5823 H 540.811 -1.95412 -4.51747 0
M  V30 5824 N 542.463 1.3308 -0.844243 0
M  V30 5825 C 543.688 2.02341 -0.455282 0
M  V30 5826 C 544.113 1.6308 0.93737 0
M  V30 5827 O 543.471 0.826118 1.61385 0
M  V30 5828 C 543.519 3.55743 -0.58988 0
M  V30 5829 O 542.623 4.1063 0.38166 0
M  V30 5830 H 541.964 0.637898 -0.184343 0
M  V30 5831 H 544.494 1.6986 -1.14056 0
M  V30 5832 H 544.504 4.05243 -0.473522 0
M  V30 5833 H 543.179 3.83662 -1.60549 0
M  V30 5834 H 541.756 3.72236 0.22241 0
M  V30 5835 N 543.941 0.601185 1.45683 0
M  V30 5836 C 545.171 0.0999093 2.06358 0
M  V30 5837 C 545.579 -1.21831 1.44754 0
M  V30 5838 O 544.922 -1.75157 0.553695 0
M  V30 5839 C 544.984 -0.12085 3.59297 0
M  V30 5840 C 544.648 1.11459 4.432 0
M  V30 5841 C 545.645 2.03118 4.7858 0
M  V30 5842 C 543.33 1.34162 4.84051 0
M  V30 5843 C 545.324 3.15814 5.53661 0
M  V30 5844 C 543.011 2.4716 5.58888 0
M  V30 5845 C 544.009 3.37814 5.93608 0
M  V30 5846 O 543.697 4.48846 6.66928 0
M  V30 5847 H 543.429 0.0630316 0.673055 0
M  V30 5848 H 545.983 0.826982 1.88016 0
M  V30 5849 H 544.213 -0.902744 3.76015 0
M  V30 5850 H 545.902 -0.572925 4.01836 0
M  V30 5851 H 546.668 1.86801 4.47583 0
M  V30 5852 H 542.547 0.645018 4.56465 0
M  V30 5853 H 546.091 3.86596 5.8068 0
M  V30 5854 H 541.988 2.63432 5.89299 0
M  V30 5855 H 542.756 4.47446 6.85371 0
M  V30 5856 N 545.419 -1.53889 0.339982 0
M  V30 5857 C 546.647 -2.05271 -0.259114 0
M  V30 5858 C 547.062 -1.21517 -1.44496 0
M  V30 5859 O 546.419 -0.24966 -1.80784 0
M  V30 5860 C 546.47 -3.55092 -0.677634 0
M  V30 5861 O 546.191 -4.35667 0.461051 0
M  V30 5862 C 547.692 -4.22631 -1.33782 0
M  V30 5863 H 544.912 -0.669085 -0.0506566 0
M  V30 5864 H 547.456 -1.9852 0.490935 0
M  V30 5865 H 545.611 -3.62077 -1.37763 0
M  V30 5866 H 546.025 -5.24343 0.128144 0
M  V30 5867 H 547.499 -5.28861 -1.58145 0
M  V30 5868 H 547.976 -3.74758 -2.29027 0
M  V30 5869 H 548.582 -4.19829 -0.679957 0
M  V30 5870 N 546.897 -0.0685191 -1.57451 0
M  V30 5871 C 547.844 0.899861 -2.12535 0
M  V30 5872 C 548.814 1.29749 -1.03703 0
M  V30 5873 O 549.999 1.38392 -1.31348 0
M  V30 5874 C 547.139 2.16328 -2.6888 0
M  V30 5875 C 546.252 1.81857 -3.91857 0
M  V30 5876 C 545.387 3.02786 -4.36457 0
M  V30 5877 C 544.426 2.64317 -5.5209 0
M  V30 5878 N 543.563 3.77994 -5.91663 0
M  V30 5879 H 548.403 0.423243 -2.94979 0
M  V30 5880 H 545.94 0.197268 -1.45771 0
M  V30 5881 H 547.898 2.90281 -2.99655 0
M  V30 5882 H 546.528 2.61536 -1.89206 0
M  V30 5883 H 545.58 0.979808 -3.67565 0
M  V30 5884 H 546.892 1.49553 -4.75852 0
M  V30 5885 H 546.046 3.85021 -4.68875 0
M  V30 5886 H 544.785 3.38281 -3.51308 0
M  V30 5887 H 543.79 1.80503 -5.19325 0
M  V30 5888 H 545.015 2.29995 -6.38967 0
M  V30 5889 H 542.961 4.13258 -5.09464 0
M  V30 5890 H 542.878 3.49447 -6.7039 0
M  V30 5891 H 544.146 4.60818 -6.28703 0
M  V30 5892 N 548.375 1.56261 0.205012 0
M  V30 5893 C 549.308 1.88797 1.28183 0
M  V30 5894 C 550.286 0.747018 1.44424 0
M  V30 5895 O 551.47 0.997039 1.59973 0
M  V30 5896 C 548.597 2.10949 2.64987 0
M  V30 5897 C 547.643 3.33649 2.6567 0
M  V30 5898 S 548.476 4.89078 2.18088 0
M  V30 5899 C 549.632 5.14286 3.56736 0
M  V30 5900 H 549.865 2.79837 1.00393 0
M  V30 5901 H 547.398 1.48911 0.408042 0
M  V30 5902 H 549.356 2.24395 3.4374 0
M  V30 5903 H 548.017 1.20678 2.89993 0
M  V30 5904 H 547.21 3.46245 3.66239 0
M  V30 5905 H 546.812 3.19146 1.94992 0
M  V30 5906 H 549.104 5.04198 4.52537 0
M  V30 5907 H 550.047 6.16096 3.49043 0
M  V30 5908 H 550.455 4.41957 3.51189 0
M  V30 5909 N 549.853 -0.472356 1.50355 0
M  V30 5910 C 551.093 -1.23439 1.62918 0
M  V30 5911 C 551.457 -1.89284 0.321801 0
M  V30 5912 O 552.658 -2.66854 0.322852 0
M  V30 5913 C 550.929 -2.25119 2.7759 0
M  V30 5914 S 552.488 -3.10278 3.10279 0
M  V30 5915 H 549.306 -0.41911 0.574341 0
M  V30 5916 H 551.908 -0.531621 1.88133 0
M  V30 5917 H 550.612 -1.75324 3.71066 0
M  V30 5918 H 550.143 -3.00026 2.54457 0
M  V30 5919 H 552.158 -4.26257 2.54007 0
M  V30 5920 N 551.331 -1.39911 -0.725443 0
M  V30 5921 C 552.608 -1.28158 -1.47766 0
M  V30 5922 C 552.988 0.104545 -2.10841 0
M  V30 5923 O 552.336 1.11657 -1.99361 0
M  V30 5924 C 552.546 -2.41306 -2.52135 0
M  V30 5925 C 553.894 -2.81076 -3.18247 0
M  V30 5926 O 554.918 -2.40827 -2.62452 0
M  V30 5927 O 553.777 -3.50581 -4.19231 0
M  V30 5928 H 550.871 -0.502761 -0.656628 0
M  V30 5929 H 553.417 -1.51808 -0.758456 0
M  V30 5930 H 552.189 -3.33932 -2.03974 0
M  V30 5931 H 551.812 -2.19374 -3.31603 0
M  V30 5932 N 552.809 0.956637 -1.25245 0
M  V30 5933 C 554.22 1.51569 -1.09012 0
M  V30 5934 C 554.571 1.93322 0.334813 0
M  V30 5935 O 553.696 1.78421 1.22454 0
M  V30 5936 C 554.291 2.75444 -1.97271 0
M  V30 5937 C 552.85 3.27669 -1.8523 0
M  V30 5938 C 551.997 2.00517 -1.91542 0
M  V30 5939 H 554.948 0.773746 -1.3856 0
M  V30 5940 H 554.969 3.4919 -1.51151 0
M  V30 5941 H 554.481 2.45024 -3.00973 0
M  V30 5942 H 552.582 3.62914 -0.844045 0
M  V30 5943 H 552.695 3.9582 -2.69932 0
M  V30 5944 H 551.059 2.15727 -1.35404 0
M  V30 5945 H 551.842 1.72448 -2.96844 0
M  V30 5946 N 554.287 1.06798 1.15896 0
M  V30 5947 C 555.535 0.786211 1.8618 0
M  V30 5948 C 555.856 -0.689547 1.82401 0
M  V30 5949 O 555.126 -1.49913 1.26107 0
M  V30 5950 H 553.706 0.287843 0.689315 0
M  V30 5951 H 556.368 1.35055 1.40521 0
M  V30 5952 H 555.464 1.1157 2.91477 0
M  V30 5953 N 555.766 -1.3263 0.851289 0
M  V30 5954 C 556.699 -2.26952 0.238318 0
M  V30 5955 C 557.677 -1.50243 -0.621757 0
M  V30 5956 O 558.861 -1.79378 -0.579298 0
M  V30 5957 C 555.988 -3.32124 -0.664178 0
M  V30 5958 C 555.034 -4.26325 0.122067 0
M  V30 5959 S 555.867 -5.14404 1.48824 0
M  V30 5960 C 557.023 -6.231 0.591372 0
M  V30 5961 H 557.256 -2.78594 1.03791 0
M  V30 5962 H 554.789 -1.4011 0.648731 0
M  V30 5963 H 556.747 -3.93197 -1.17924 0
M  V30 5964 H 555.408 -2.79273 -1.43755 0
M  V30 5965 H 554.601 -5.00821 -0.565181 0
M  V30 5966 H 554.203 -3.69652 0.568602 0
M  V30 5967 H 556.495 -6.77187 -0.205762 0
M  V30 5968 H 557.438 -6.95936 1.30687 0
M  V30 5969 H 557.846 -5.64252 0.167206 0
M  V30 5970 N 557.244 -0.608902 -1.45362 0
M  V30 5971 C 558.472 -0.111013 -2.06602 0
M  V30 5972 C 558.887 1.20516 -1.45332 0
M  V30 5973 O 558.244 1.73437 -0.567978 0
M  V30 5974 C 558.295 0.033688 -3.61484 0
M  V30 5975 O 558.016 -1.23041 -4.20467 0
M  V30 5976 C 559.517 0.562882 -4.39712 0
M  V30 5977 H 556.737 -0.0694453 -0.667397 0
M  V30 5978 H 559.281 -0.837008 -1.86586 0
M  V30 5979 H 557.436 0.710016 -3.80838 0
M  V30 5980 H 557.85 -1.06094 -5.13658 0
M  V30 5981 H 559.324 0.613213 -5.48583 0
M  V30 5982 H 559.801 1.58543 -4.09586 0
M  V30 5983 H 560.407 -0.0794454 -4.25226 0
M  V30 5984 N 558.722 1.53707 -0.348139 0
M  V30 5985 C 559.685 2.23812 0.494058 0
M  V30 5986 C 560.685 1.23989 1.02388 0
M  V30 5987 O 561.875 1.48395 0.912396 0
M  V30 5988 C 559.007 2.96133 1.68872 0
M  V30 5989 H 560.2 2.99663 -0.119141 0
M  V30 5990 H 557.753 1.55983 -0.0995539 0
M  V30 5991 H 558.488 2.24481 2.34049 0
M  V30 5992 H 558.273 3.69357 1.31596 0
M  V30 5993 H 559.763 3.49475 2.28597 0
M  V30 5994 N 560.2 0.0768682 1.57412 0
M  V30 5995 C 561.447 -0.591085 1.93681 0
M  V30 5996 C 561.775 -1.69311 0.957286 0
M  V30 5997 O 561.03 -1.95682 -0.0262428 0
M  V30 5998 C 561.329 -1.20268 3.36557 0
M  V30 5999 C 560.995 -0.226286 4.50332 0
M  V30 6000 C 559.657 0.0423142 4.81181 0
M  V30 6001 C 562.009 0.441415 5.19327 0
M  V30 6002 C 559.337 0.985616 5.78362 0
M  V30 6003 C 561.689 1.37307 6.17519 0
M  V30 6004 C 560.353 1.65009 6.46783 0
M  V30 6005 H 559.623 -0.216293 0.70873 0
M  V30 6006 H 562.27 0.148824 1.90921 0
M  V30 6007 H 560.575 -2.01844 3.35807 0
M  V30 6008 H 562.272 -1.72688 3.61911 0
M  V30 6009 H 558.862 -0.445821 4.26275 0
M  V30 6010 H 563.046 0.247023 4.95685 0
M  V30 6011 H 558.302 1.20743 5.99359 0
M  V30 6012 H 562.476 1.89637 6.70083 0
M  V30 6013 H 560.103 2.38263 7.21897 0
M  V30 6014 N 561.678 -1.56367 -0.196722 0
M  V30 6015 C 562.588 -1.97617 -1.2643 0
M  V30 6016 C 563.604 -0.883598 -1.49895 0
M  V30 6017 O 564.78 -1.18921 -1.62541 0
M  V30 6018 C 561.845 -2.30595 -2.58895 0
M  V30 6019 C 560.906 -3.53551 -2.43516 0
M  V30 6020 C 560.139 -3.84946 -3.69665 0
M  V30 6021 O 560.362 -3.17655 -4.73763 0
M  V30 6022 O 559.296 -4.78379 -3.65291 0
M  V30 6023 H 563.122 -2.88648 -0.944233 0
M  V30 6024 H 560.707 -1.43901 -0.401592 0
M  V30 6025 H 562.589 -2.52889 -3.37083 0
M  V30 6026 H 561.264 -1.42732 -2.90533 0
M  V30 6027 H 560.171 -3.36507 -1.63445 0
M  V30 6028 H 561.504 -4.41875 -2.16812 0
M  V30 6029 N 563.156 0.464375 -1.50603 0
M  V30 6030 C 564.567 1.04507 -1.5471 0
M  V30 6031 C 564.918 1.9297 -0.354542 0
M  V30 6032 O 564.043 2.09763 0.531812 0
M  V30 6033 C 564.638 1.90207 -2.80369 0
M  V30 6034 C 563.197 2.43373 -2.87135 0
M  V30 6035 C 562.344 1.21886 -2.49076 0
M  V30 6036 H 565.295 0.246716 -1.56771 0
M  V30 6037 H 565.316 2.75353 -2.62604 0
M  V30 6038 H 564.828 1.25796 -3.67147 0
M  V30 6039 H 562.929 3.11318 -2.04724 0
M  V30 6040 H 563.042 2.7802 -3.90181 0
M  V30 6041 H 561.406 1.55575 -2.01664 0
M  V30 6042 H 562.189 0.591268 -3.3817 0
M  V30 6043 N 564.634 1.40294 0.718013 0
M  V30 6044 C 565.544 1.42678 1.86226 0
M  V30 6045 C 566.56 0.319655 1.71039 0
M  V30 6046 O 567.736 0.563852 1.93346 0
M  V30 6047 C 564.801 1.2852 3.21999 0
M  V30 6048 C 563.862 2.49354 3.49458 0
M  V30 6049 C 563.095 2.35863 4.78753 0
M  V30 6050 O 563.318 1.37114 5.53675 0
M  V30 6051 O 562.252 3.25189 5.06494 0
M  V30 6052 H 566.078 2.39167 1.87171 0
M  V30 6053 H 563.663 1.2159 0.868112 0
M  V30 6054 H 565.545 1.22824 4.03103 0
M  V30 6055 H 564.22 0.351359 3.21787 0
M  V30 6056 H 563.127 2.60628 2.68373 0
M  V30 6057 H 564.46 3.41491 3.54464 0
M  V30 6058 N 566.112 -0.949982 1.2575 0
M  V30 6059 C 567.075 -2.02894 1.06615 0
M  V30 6060 C 568.075 -1.60791 0.0173905 0
M  V30 6061 O 569.265 -1.72249 0.260003 0
M  V30 6062 C 566.397 -3.35219 0.619751 0
M  V30 6063 H 567.59 -2.21302 2.02399 0
M  V30 6064 H 565.143 -1.12772 1.08223 0
M  V30 6065 H 565.878 -3.22508 -0.340486 0
M  V30 6066 H 565.663 -3.67129 1.37692 0
M  V30 6067 H 567.153 -4.14505 0.507443 0
M  V30 6068 N 567.59 -1.07411 -1.15328 0
M  V30 6069 C 568.52 -0.716472 -2.22236 0
M  V30 6070 C 569.501 0.296373 -1.67498 0
M  V30 6071 O 570.686 0.168989 -1.93463 0
M  V30 6072 C 567.816 -0.114142 -3.47112 0
M  V30 6073 C 566.77 -1.05421 -4.14814 0
M  V30 6074 C 566.096 -0.314604 -5.33774 0
M  V30 6075 C 567.396 -2.38808 -4.64508 0
M  V30 6076 H 569.09 -1.61029 -2.52408 0
M  V30 6077 H 566.636 -0.775702 -1.21321 0
M  V30 6078 H 568.589 0.148001 -4.2114 0
M  V30 6079 H 567.313 0.814755 -3.16274 0
M  V30 6080 H 565.972 -1.30128 -3.42728 0
M  V30 6081 H 565.62 0.617772 -4.99192 0
M  V30 6082 H 565.32 -0.941209 -5.80013 0
M  V30 6083 H 566.844 -0.0602747 -6.1057 0
M  V30 6084 H 568.258 -2.18424 -5.3006 0
M  V30 6085 H 566.655 -2.97069 -5.21412 0
M  V30 6086 H 567.725 -3.01067 -3.80114 0
M  V30 6087 N 569.068 1.32177 -0.85831 0
M  V30 6088 C 570.316 1.96735 -0.462568 0
M  V30 6089 C 570.637 1.6824 0.985911 0
M  V30 6090 O 569.907 0.991564 1.68952 0
M  V30 6091 H 568.487 0.727849 -0.168064 0
M  V30 6092 H 571.149 1.61195 -1.09554 0
M  V30 6093 H 570.245 3.06068 -0.610647 0
M  V30 6094 N 570.547 0.616602 1.45037 0
M  V30 6095 C 571.495 -0.109318 2.32343 0
M  V30 6096 C 572.489 -0.850543 1.465 0
M  V30 6097 O 573.695 -0.765088 1.62931 0
M  V30 6098 H 570.07 -0.0541091 0.750051 0
M  V30 6099 H 572.041 0.645326 2.91338 0
M  V30 6100 C 570.79 -1.0872 3.30266 0
M  V30 6101 H 570.113 -0.526267 3.96321 0
M  V30 6102 H 571.553 -1.56489 3.94065 0
M  V30 6103 C 570.012 -2.16525 2.58105 0
M  V30 6104 O 570.542 -3.244 2.36913 0
M  V30 6105 N 568.748 -1.92057 2.18088 0
M  V30 6106 H 568.295 -1.04337 2.35524 0
M  V30 6107 H 568.253 -2.64391 1.70131 0
M  V30 6108 N 572.025 -1.5352 0.356285 0
M  V30 6109 C 572.955 -2.28372 -0.486661 0
M  V30 6110 C 573.936 -1.30432 -1.09185 0
M  V30 6111 O 575.121 -1.59291 -1.11085 0
M  V30 6112 C 572.251 -3.06604 -1.63129 0
M  V30 6113 C 571.205 -4.12154 -1.15381 0
M  V30 6114 C 570.531 -4.78415 -2.38796 0
M  V30 6115 C 571.831 -5.21724 -0.245179 0
M  V30 6116 H 573.525 -2.99083 0.137797 0
M  V30 6117 H 571.071 -1.43841 0.0677134 0
M  V30 6118 H 573.024 -3.57712 -2.22755 0
M  V30 6119 H 571.748 -2.33568 -2.28284 0
M  V30 6120 H 570.407 -3.61978 -0.580294 0
M  V30 6121 H 570.055 -4.01959 -3.02387 0
M  V30 6122 H 569.755 -5.49734 -2.07524 0
M  V30 6123 H 571.279 -5.32313 -2.99125 0
M  V30 6124 H 572.693 -5.68391 -0.748646 0
M  V30 6125 H 571.09 -6.00095 -0.0237608 0
M  V30 6126 H 572.16 -4.79596 0.715229 0
M  V30 6127 N 573.503 -0.0852151 -1.57369 0
M  V30 6128 C 574.749 0.581666 -1.94279 0
M  V30 6129 C 575.082 1.68444 -0.966446 0
M  V30 6130 O 574.357 1.945 0.00215277 0
M  V30 6131 C 574.64 1.14609 -3.41375 0
M  V30 6132 C 574.493 0.0490414 -4.49773 0
M  V30 6133 C 575.812 2.04751 -3.8957 0
M  V30 6134 H 572.931 0.209972 -0.706456 0
M  V30 6135 H 575.573 -0.153915 -1.89376 0
M  V30 6136 H 573.723 1.77297 -3.45685 0
M  V30 6137 H 575.395 -0.584721 -4.57579 0
M  V30 6138 H 573.638 -0.618638 -4.29366 0
M  V30 6139 H 574.309 0.484601 -5.49869 0
M  V30 6140 H 576.785 1.51981 -3.87351 0
M  V30 6141 H 575.661 2.41173 -4.93079 0
M  V30 6142 H 575.922 2.96107 -3.28288 0
M  V30 6143 N 574.981 1.5647 0.188427 0
M  V30 6144 C 575.891 1.98285 1.2538 0
M  V30 6145 C 576.907 0.891535 1.49424 0
M  V30 6146 O 578.083 1.19782 1.61908 0
M  V30 6147 C 575.148 2.31965 2.57669 0
M  V30 6148 C 574.209 3.54838 2.41638 0
M  V30 6149 C 573.442 3.86901 3.67618 0
M  V30 6150 O 573.665 3.20163 4.72072 0
M  V30 6151 O 572.599 4.80309 3.62749 0
M  V30 6152 H 576.425 2.89145 0.928912 0
M  V30 6153 H 574.01 1.44112 0.393955 0
M  V30 6154 H 575.892 2.54673 3.35737 0
M  V30 6155 H 574.567 1.44271 2.89771 0
M  V30 6156 H 573.474 3.37369 1.61658 0
M  V30 6157 H 574.807 4.43019 2.14465 0
M  V30 6158 N 576.459 -0.456382 1.50847 0
M  V30 6159 C 577.707 -1.20497 1.62249 0
M  V30 6160 C 578.028 -1.92156 0.331839 0
M  V30 6161 O 577.298 -1.84751 -0.651443 0
M  V30 6162 H 575.878 -0.447775 0.597918 0
M  V30 6163 H 578.54 -0.525099 1.87693 0
M  V30 6164 H 577.636 -1.94492 2.44089 0
M  V30 6165 N 577.937 -1.40673 -0.710563 0
M  V30 6166 C 578.867 -1.44095 -1.83736 0
M  V30 6167 C 579.848 -0.301286 -1.67411 0
M  V30 6168 O 581.033 -0.510618 -1.87367 0
M  V30 6169 C 578.163 -1.30773 -3.21738 0
M  V30 6170 C 577.117 -2.42395 -3.52745 0
M  V30 6171 C 576.443 -2.14147 -4.89944 0
M  V30 6172 C 577.743 -3.84738 -3.53234 0
M  V30 6173 H 579.437 -2.38396 -1.81129 0
M  V30 6174 H 576.983 -1.14746 -0.870017 0
M  V30 6175 H 578.936 -1.31783 -4.00264 0
M  V30 6176 H 577.66 -0.329507 -3.24934 0
M  V30 6177 H 576.319 -2.40643 -2.76562 0
M  V30 6178 H 575.967 -1.14703 -4.89747 0
M  V30 6179 H 575.667 -2.88934 -5.11655 0
M  V30 6180 H 577.191 -2.16848 -5.70797 0
M  V30 6181 H 578.605 -3.88286 -4.2179 0
M  V30 6182 H 577.002 -4.59085 -3.86473 0
M  V30 6183 H 578.072 -4.13962 -2.52514 0
M  V30 6184 N 579.415 0.9433 -1.26252 0
M  V30 6185 C 580.692 1.66639 -1.02424 0
M  V30 6186 C 581.072 2.06335 0.446006 0
M  V30 6187 O 580.42 1.78551 1.42589 0
M  V30 6188 C 580.63 2.88019 -1.97094 0
M  V30 6189 C 581.978 3.59718 -2.25584 0
M  V30 6190 O 583.002 2.9812 -1.94943 0
M  V30 6191 O 581.861 4.7066 -2.77743 0
M  V30 6192 H 578.955 0.729643 -0.389294 0
M  V30 6193 H 581.501 0.995218 -1.37454 0
M  V30 6194 H 580.273 2.5556 -2.96319 0
M  V30 6195 H 579.896 3.62863 -1.62532 0
M  V30 6196 N 580.893 1.08022 1.14757 0
M  V30 6197 C 582.14 0.807509 1.85703 0
M  V30 6198 C 582.468 -0.666617 1.8272 0
M  V30 6199 O 581.723 -1.50562 1.25018 0
M  V30 6200 C 582.022 1.26964 3.34088 0
M  V30 6201 C 581.688 2.7509 3.57262 0
M  V30 6202 C 580.35 3.15547 3.63296 0
M  V30 6203 C 582.702 3.70667 3.66409 0
M  V30 6204 C 580.03 4.50384 3.75994 0
M  V30 6205 C 582.382 5.05274 3.80632 0
M  V30 6206 C 581.046 5.45342 3.84913 0
M  V30 6207 H 580.316 0.295488 0.679535 0
M  V30 6208 H 582.963 1.35245 1.35577 0
M  V30 6209 H 581.268 0.644216 3.86467 0
M  V30 6210 H 582.965 1.03544 3.87401 0
M  V30 6211 H 579.555 2.42775 3.53212 0
M  V30 6212 H 583.739 3.40533 3.61041 0
M  V30 6213 H 578.995 4.80886 3.77569 0
M  V30 6214 H 583.169 5.79201 3.86652 0
M  V30 6215 H 580.796 6.49823 3.94505 0
M  V30 6216 N 582.371 -1.3172 0.865308 0
M  V30 6217 C 583.321 -2.26157 0.289305 0
M  V30 6218 C 584.305 -1.50428 -0.570977 0
M  V30 6219 O 585.497 -1.71978 -0.418617 0
M  V30 6220 C 582.626 -3.39457 -0.512237 0
M  V30 6221 C 581.712 -4.22561 0.361028 0
M  V30 6222 N 582.103 -4.84501 1.45231 0
M  V30 6223 C 580.401 -4.45739 0.152641 0
M  V30 6224 C 581.102 -5.46586 1.99043 0
M  V30 6225 N 580.078 -5.28119 1.28809 0
M  V30 6226 H 583.88 -2.71581 1.12344 0
M  V30 6227 H 581.394 -1.45932 0.712565 0
M  V30 6228 H 583.391 -4.06133 -0.941379 0
M  V30 6229 H 582.051 -2.95577 -1.34404 0
M  V30 6230 H 583.062 -4.84293 1.83524 0
M  V30 6231 H 579.739 -4.1251 -0.643583 0
M  V30 6232 H 581.129 -6.05817 2.90577 0
M  V30 6233 N 583.85 -0.624285 -1.44708 0
M  V30 6234 C 585.266 -0.289322 -1.56956 0
M  V30 6235 C 585.466 1.20773 -1.61295 0
M  V30 6236 O 584.522 1.9915 -1.55227 0
M  V30 6237 C 585.835 -0.975215 -2.84447 0
M  V30 6238 C 587.383 -0.952709 -2.98148 0
M  V30 6239 C 587.858 -1.61893 -4.28433 0
M  V30 6240 N 589.349 -1.5852 -4.35231 0
M  V30 6241 C 590.084 -2.06969 -5.34744 0
M  V30 6242 N 589.58 -2.63579 -6.40701 0
M  V30 6243 N 591.373 -1.97638 -5.26209 0
M  V30 6244 H 583.524 -1.59612 -1.40135 0
M  V30 6245 H 585.787 -0.669592 -0.671081 0
M  V30 6246 H 585.493 -2.02999 -2.87201 0
M  V30 6247 H 585.367 -0.508749 -3.73753 0
M  V30 6248 H 587.754 0.093568 -2.94952 0
M  V30 6249 H 587.835 -1.4576 -2.10209 0
M  V30 6250 H 587.479 -2.66463 -4.32389 0
M  V30 6251 H 587.409 -1.08893 -5.15218 0
M  V30 6252 H 589.899 -1.17183 -3.59272 0
M  V30 6253 H 590.213 -2.98298 -7.12908 0
M  V30 6254 H 588.558 -2.67626 -6.41406 0
M  V30 6255 H 591.749 -1.5314 -4.42341 0
M  V30 6256 H 591.922 -2.35708 -6.03611 0
M  V30 6257 N 585.328 1.53329 -0.364422 0
M  V30 6258 C 586.575 2.01239 0.225634 0
M  V30 6259 C 586.903 1.25172 1.48869 0
M  V30 6260 O 586.158 0.333289 1.92841 0
M  V30 6261 C 586.457 3.52911 0.564661 0
M  V30 6262 C 586.123 4.46837 -0.603936 0
M  V30 6263 C 584.785 4.72234 -0.924585 0
M  V30 6264 C 587.137 5.02409 -1.38691 0
M  V30 6265 C 584.465 5.50454 -2.0302 0
M  V30 6266 C 586.817 5.81836 -2.48293 0
M  V30 6267 C 585.481 6.0552 -2.80894 0
M  V30 6268 H 584.751 0.736386 0.0825654 0
M  V30 6269 H 587.398 1.84948 -0.496645 0
M  V30 6270 H 585.703 3.67144 1.36794 0
M  V30 6271 H 587.4 3.87455 1.03344 0
M  V30 6272 H 583.99 4.27217 -0.343983 0
M  V30 6273 H 588.174 4.82735 -1.15243 0
M  V30 6274 H 583.43 5.67024 -2.28678 0
M  V30 6275 H 587.604 6.23905 -3.0938 0
M  V30 6276 H 585.231 6.65916 -3.66688 0
M  V30 6277 N 586.806 0.0935595 1.57322 0
M  V30 6278 C 588.036 -0.578095 1.98347 0
M  V30 6279 C 588.444 -1.62357 0.971441 0
M  V30 6280 O 587.787 -1.83639 -0.0473959 0
M  V30 6281 C 587.849 -1.28525 3.3574 0
M  V30 6282 C 587.513 -0.390714 4.55327 0
M  V30 6283 C 588.51 0.360522 5.18648 0
M  V30 6284 C 586.195 -0.309221 5.01347 0
M  V30 6285 C 588.189 1.18125 6.26359 0
M  V30 6286 C 585.876 0.515157 6.08925 0
M  V30 6287 C 586.874 1.25904 6.71295 0
M  V30 6288 O 586.562 2.06978 7.76798 0
M  V30 6289 H 586.294 -0.159767 0.656849 0
M  V30 6290 H 588.848 0.169058 2.04703 0
M  V30 6291 H 587.078 -2.07894 3.26063 0
M  V30 6292 H 588.767 -1.85128 3.61223 0
M  V30 6293 H 589.533 0.307285 4.84026 0
M  V30 6294 H 585.412 -0.877881 4.52564 0
M  V30 6295 H 588.956 1.76236 6.74971 0
M  V30 6296 H 584.853 0.56988 6.42979 0
M  V30 6297 H 585.621 1.99644 7.93779 0
M  V30 6298 N 588.284 -1.56567 -0.180126 0
M  V30 6299 C 589.531 -1.81492 -0.898167 0
M  V30 6300 C 589.859 -0.669225 -1.82624 0
M  V30 6301 O 589.114 0.344096 -1.92651 0
M  V30 6302 C 589.413 -3.1252 -1.73395 0
M  V30 6303 C 589.079 -4.40658 -0.955567 0
M  V30 6304 C 587.741 -4.75465 -0.740707 0
M  V30 6305 C 590.093 -5.19593 -0.408948 0
M  V30 6306 C 587.421 -5.86691 0.0320128 0
M  V30 6307 C 589.773 -6.31627 0.350638 0
M  V30 6308 C 588.437 -6.65007 0.576378 0
M  V30 6309 H 587.707 -0.664125 -0.328662 0
M  V30 6310 H 590.354 -1.908 -0.163616 0
M  V30 6311 H 588.659 -2.98515 -2.53763 0
M  V30 6312 H 590.356 -3.29013 -2.29241 0
M  V30 6313 H 586.946 -4.13352 -1.13306 0
M  V30 6314 H 591.13 -4.93104 -0.562307 0
M  V30 6315 H 586.386 -6.11016 0.216735 0
M  V30 6316 H 590.56 -6.92001 0.781497 0
M  V30 6317 H 588.187 -7.51033 1.17703 0
M  V30 6318 N 589.762 0.448376 -1.51087 0
M  V30 6319 C 590.672 1.56882 -1.74428 0
M  V30 6320 C 591.688 1.62268 -0.62809 0
M  V30 6321 O 592.864 1.79716 -0.909075 0
M  V30 6322 C 589.929 2.92947 -1.85426 0
M  V30 6323 C 588.99 2.97766 -3.09247 0
M  V30 6324 C 588.223 4.27341 -3.19711 0
M  V30 6325 O 588.446 5.19112 -2.36387 0
M  V30 6326 O 587.38 4.38219 -4.12611 0
M  V30 6327 H 591.206 1.40104 -2.69452 0
M  V30 6328 H 588.791 0.630247 -1.35456 0
M  V30 6329 H 590.673 3.73719 -1.94709 0
M  V30 6330 H 589.348 3.09876 -0.935887 0
M  V30 6331 H 588.255 2.15989 -3.0545 0
M  V30 6332 H 589.588 2.8578 -4.00738 0
M  V30 6333 N 591.24 1.41047 0.703093 0
M  V30 6334 C 592.188 1.42494 1.83843 0
M  V30 6335 C 593.182 0.303885 1.66652 0
M  V30 6336 O 594.388 0.475544 1.73605 0
M  V30 6337 H 590.763 0.445685 0.605697 0
M  V30 6338 H 592.734 2.38194 1.79739 0
M  V30 6339 C 591.483 1.31666 3.21807 0
M  V30 6340 H 590.806 2.17212 3.35647 0
M  V30 6341 H 592.246 1.36738 4.01346 0
M  V30 6342 C 590.705 0.0281828 3.36888 0
M  V30 6343 O 591.235 -0.929995 3.90786 0
M  V30 6344 N 589.441 -0.0454322 2.90564 0
M  V30 6345 H 588.988 0.735046 2.4689 0
M  V30 6346 H 588.946 -0.906968 3.01034 0
M  V30 6347 N 592.718 -0.936591 1.26751 0
M  V30 6348 C 593.648 -2.05315 1.11212 0
M  V30 6349 C 594.629 -1.70092 0.0160262 0
M  V30 6350 O 595.814 -1.93279 0.188894 0
M  V30 6351 C 592.944 -3.39123 0.749171 0
M  V30 6352 C 591.898 -3.88425 1.79751 0
M  V30 6353 C 591.224 -5.18936 1.28876 0
M  V30 6354 C 592.524 -4.12798 3.19992 0
M  V30 6355 H 594.218 -2.18573 2.04613 0
M  V30 6356 H 591.764 -1.05027 0.985159 0
M  V30 6357 H 593.717 -4.16704 0.627323 0
M  V30 6358 H 592.441 -3.25855 -0.220543 0
M  V30 6359 H 591.1 -3.13028 1.90811 0
M  V30 6360 H 590.748 -5.02051 0.308757 0
M  V30 6361 H 590.448 -5.52892 1.98958 0
M  V30 6362 H 591.972 -5.99096 1.17967 0
M  V30 6363 H 593.386 -4.80977 3.11983 0
M  V30 6364 H 591.783 -4.58044 3.87705 0
M  V30 6365 H 592.853 -3.18412 3.65707 0
M  V30 6366 N 594.196 -1.08629 -1.14182 0
M  V30 6367 C 595.442 -0.828415 -1.85766 0
M  V30 6368 C 595.797 0.638947 -1.81481 0
M  V30 6369 O 595.09 1.46386 -1.23619 0
M  V30 6370 C 595.284 -1.28734 -3.3341 0
M  V30 6371 C 595.113 -2.79778 -3.52071 0
M  V30 6372 C 593.883 -3.47554 -3.66789 0
M  V30 6373 C 596.081 -3.77945 -3.48801 0
M  V30 6374 N 594.063 -4.87107 -3.73631 0
M  V30 6375 C 595.434 -5.03406 -3.61914 0
M  V30 6376 C 597.489 -3.70917 -3.32152 0
M  V30 6377 C 596.192 -6.22673 -3.60098 0
M  V30 6378 C 598.218 -4.89662 -3.31641 0
M  V30 6379 C 597.58 -6.13962 -3.45296 0
M  V30 6380 H 593.679 -0.355884 -0.696327 0
M  V30 6381 H 596.263 -1.38508 -1.36834 0
M  V30 6382 H 594.434 -0.75822 -3.80927 0
M  V30 6383 H 596.166 -0.975649 -3.92764 0
M  V30 6384 H 592.921 -2.97972 -3.68116 0
M  V30 6385 H 593.345 -5.59775 -3.80763 0
M  V30 6386 H 597.987 -2.75749 -3.20504 0
M  V30 6387 H 595.705 -7.1815 -3.70522 0
M  V30 6388 H 599.291 -4.85914 -3.19968 0
M  V30 6389 H 598.171 -7.04307 -3.44851 0
M  V30 6390 N 595.674 1.31259 -0.872281 0
M  V30 6391 C 596.899 2.0133 -0.498099 0
M  V30 6392 C 597.324 1.65031 0.902568 0
M  V30 6393 O 596.682 0.860164 1.59596 0
M  V30 6394 C 596.73 3.54411 -0.665205 0
M  V30 6395 O 595.834 4.11347 0.294473 0
M  V30 6396 H 595.175 0.633844 -0.197832 0
M  V30 6397 H 597.705 1.67402 -1.17633 0
M  V30 6398 H 597.715 4.04147 -0.559373 0
M  V30 6399 H 596.39 3.80171 -1.68651 0
M  V30 6400 H 594.967 3.72624 0.143403 0
M  V30 6401 N 597.152 0.631951 1.44375 0
M  V30 6402 C 598.568 0.297642 1.568 0
M  V30 6403 C 598.768 -1.19916 1.61934 0
M  V30 6404 O 597.824 -1.98324 1.56281 0
M  V30 6405 C 599.137 0.990286 2.83926 0
M  V30 6406 C 600.685 0.968507 2.97639 0
M  V30 6407 C 601.16 1.64163 4.27568 0
M  V30 6408 N 602.651 1.60826 4.34384 0
M  V30 6409 C 603.386 2.09802 5.33639 0
M  V30 6410 N 602.882 2.66973 6.39294 0
M  V30 6411 N 604.675 2.00426 5.25153 0
M  V30 6412 H 596.826 1.60353 1.39286 0
M  V30 6413 H 599.089 0.673142 0.667521 0
M  V30 6414 H 598.795 2.04519 2.8612 0
M  V30 6415 H 598.669 0.528563 3.73478 0
M  V30 6416 H 601.056 -0.0779247 2.94997 0
M  V30 6417 H 601.137 1.46873 2.09433 0
M  V30 6418 H 600.781 2.68752 4.3097 0
M  V30 6419 H 600.711 1.11624 5.14634 0
M  V30 6420 H 603.202 1.19087 3.58646 0
M  V30 6421 H 603.515 3.02074 7.11316 0
M  V30 6422 H 601.86 2.71024 6.39977 0
M  V30 6423 H 605.051 1.55483 4.41523 0
M  V30 6424 H 605.224 2.38906 6.02352 0
M  V30 6425 N 598.631 -1.53133 0.372548 0
M  V30 6426 C 599.579 -2.27473 -0.485681 0
M  V30 6427 C 600.573 -1.30719 -1.07745 0
M  V30 6428 O 601.779 -1.48321 -1.01985 0
M  V30 6429 H 598.154 -0.731269 -0.175356 0
M  V30 6430 H 600.125 -2.97955 0.162986 0
M  V30 6431 C 598.874 -3.08191 -1.60978 0
M  V30 6432 H 598.197 -3.82488 -1.16373 0
M  V30 6433 H 599.637 -3.63373 -2.18485 0
M  V30 6434 C 598.096 -2.19461 -2.55614 0
M  V30 6435 O 598.626 -1.81008 -3.58607 0
M  V30 6436 N 596.832 -1.83955 -2.24965 0
M  V30 6437 H 596.379 -2.15423 -1.41247 0
M  V30 6438 H 596.337 -1.24874 -2.88538 0
M  V30 6439 N 600.109 -0.101901 -1.5727 0
M  V30 6440 C 601.334 0.571759 -1.99363 0
M  V30 6441 C 601.759 1.60507 -0.980768 0
M  V30 6442 O 601.117 1.81231 0.0498517 0
M  V30 6443 C 601.165 1.18996 -3.404 0
M  V30 6444 O 600.269 2.30572 -3.41922 0
M  V30 6445 H 599.61 0.144449 -0.648098 0
M  V30 6446 H 602.14 -0.185325 -2.03759 0
M  V30 6447 H 602.15 1.52962 -3.78241 0
M  V30 6448 H 600.825 0.432984 -4.1364 0
M  V30 6449 H 599.402 1.98173 -3.15883 0
M  V30 6450 N 601.587 1.56661 0.17182 0
M  V30 6451 C 602.534 1.96371 1.21273 0
M  V30 6452 C 603.504 0.82756 1.44016 0
M  V30 6453 O 604.689 1.08764 1.56764 0
M  V30 6454 C 601.829 2.32838 2.54716 0
M  V30 6455 C 600.942 3.59628 2.39356 0
M  V30 6456 C 600.077 3.85311 3.65662 0
M  V30 6457 C 599.116 5.0545 3.45234 0
M  V30 6458 N 598.253 5.27268 4.63608 0
M  V30 6459 H 603.093 2.85106 0.86709 0
M  V30 6460 H 600.63 1.41073 0.416744 0
M  V30 6461 H 602.588 2.52004 3.3249 0
M  V30 6462 H 601.218 1.47214 2.87277 0
M  V30 6463 H 600.27 3.4838 1.52761 0
M  V30 6464 H 601.582 4.4756 2.20207 0
M  V30 6465 H 600.736 4.04841 4.51872 0
M  V30 6466 H 599.475 2.95753 3.8779 0
M  V30 6467 H 598.48 4.85819 2.5741 0
M  V30 6468 H 599.705 5.96538 3.24529 0
M  V30 6469 H 597.651 4.40662 4.85956 0
M  V30 6470 H 597.568 6.09422 4.4737 0
M  V30 6471 H 598.836 5.51277 5.51103 0
M  V30 6472 N 603.065 -0.440357 1.51323 0
M  V30 6473 C 604.476 -1.02032 1.56353 0
M  V30 6474 C 604.827 -1.92382 0.385197 0
M  V30 6475 O 603.952 -2.10583 -0.498373 0
M  V30 6476 C 604.547 -1.85723 2.83359 0
M  V30 6477 C 603.106 -2.38774 2.90971 0
M  V30 6478 C 602.253 -1.17908 2.50984 0
M  V30 6479 H 605.204 -0.221744 1.57143 0
M  V30 6480 H 605.225 -2.71141 2.66951 0
M  V30 6481 H 604.737 -1.19939 3.69102 0
M  V30 6482 H 602.838 -3.08021 2.09651 0
M  V30 6483 H 602.951 -2.71778 3.94555 0
M  V30 6484 H 601.315 -1.52347 2.04114 0
M  V30 6485 H 602.098 -0.537393 3.39068 0
M  V30 6486 N 604.543 -1.41418 -0.695603 0
M  V30 6487 C 605.789 -1.40982 -1.4578 0
M  V30 6488 C 606.122 -0.0187763 -1.94191 0
M  V30 6489 O 605.397 0.95346 -1.69527 0
M  V30 6490 C 605.68 -2.41657 -2.66972 0
M  V30 6491 C 605.533 -3.89869 -2.24327 0
M  V30 6492 C 606.852 -2.39589 -3.69168 0
M  V30 6493 H 603.971 -0.513405 -0.528757 0
M  V30 6494 H 606.613 -1.72693 -0.792275 0
M  V30 6495 H 604.763 -2.14746 -3.23754 0
M  V30 6496 H 606.435 -4.27683 -1.72872 0
M  V30 6497 H 604.678 -4.04737 -1.56111 0
M  V30 6498 H 605.349 -4.55857 -3.11285 0
M  V30 6499 H 607.825 -2.63471 -3.2206 0
M  V30 6500 H 606.701 -3.12044 -4.51575 0
M  V30 6501 H 606.962 -1.41447 -4.18862 0
M  V30 6502 N 606.021 0.929856 -1.27246 0
M  V30 6503 C 606.971 2.01629 -1.06442 0
M  V30 6504 C 607.955 1.60899 0.00687842 0
M  V30 6505 O 609.147 1.75733 -0.211407 0
M  V30 6506 C 606.276 3.35849 -0.711361 0
M  V30 6507 C 605.362 3.8303 -1.82069 0
M  V30 6508 N 605.753 4.02743 -3.05993 0
M  V30 6509 C 604.051 4.12046 -1.70687 0
M  V30 6510 C 604.752 4.42001 -3.78167 0
M  V30 6511 N 603.728 4.4935 -3.05918 0
M  V30 6512 H 607.53 2.14898 -2.00489 0
M  V30 6513 H 605.044 1.11654 -1.17929 0
M  V30 6514 H 607.041 4.13343 -0.543442 0
M  V30 6515 H 605.701 3.23944 0.221517 0
M  V30 6516 H 606.712 3.89112 -3.41778 0
M  V30 6517 H 603.389 4.08866 -0.844681 0
M  V30 6518 H 604.779 4.6535 -4.84664 0
M  V30 6519 N 607.499 1.09233 1.13605 0
M  V30 6520 C 608.727 0.848908 1.88683 0
M  V30 6521 C 609.142 -0.599667 1.79024 0
M  V30 6522 O 608.499 -1.41265 1.15544 0
M  V30 6523 C 608.55 1.27273 3.38355 0
M  V30 6524 O 608.271 2.66449 3.47759 0
M  V30 6525 C 609.772 1.0614 4.30406 0
M  V30 6526 H 606.992 0.305549 0.597395 0
M  V30 6527 H 609.536 1.4538 1.43823 0
M  V30 6528 H 607.691 0.711776 3.80805 0
M  V30 6529 H 608.105 2.84264 4.40788 0
M  V30 6530 H 609.579 1.40725 5.33761 0
M  V30 6531 H 610.056 -0.000960332 4.392 0
M  V30 6532 H 610.662 1.60821 3.93722 0
M  V30 6533 N 608.977 -1.30795 0.87923 0
M  V30 6534 C 610.205 -2.00527 0.509548 0
M  V30 6535 C 610.62 -1.65944 -0.90045 0
M  V30 6536 O 609.977 -0.893525 -1.5913 0
M  V30 6537 C 610.028 -3.55276 0.667943 0
M  V30 6538 O 609.749 -3.88625 2.02242 0
M  V30 6539 C 611.25 -4.4228 0.300494 0
M  V30 6540 H 608.47 -0.641261 0.197549 0
M  V30 6541 H 611.014 -1.66813 1.18295 0
M  V30 6542 H 609.169 -3.87377 0.0419843 0
M  V30 6543 H 609.583 -4.83334 2.03688 0
M  V30 6544 H 611.057 -5.50061 0.462242 0
M  V30 6545 H 611.534 -4.32556 -0.76106 0
M  V30 6546 H 612.14 -4.15613 0.902536 0
M  V30 6547 N 610.455 -0.639598 -1.44038 0
M  V30 6548 C 611.704 -0.144885 -2.01179 0
M  V30 6549 C 612.017 1.24372 -1.50967 0
M  V30 6550 O 613.223 1.83291 -2.00292 0
M  V30 6551 C 611.679 -0.208244 -3.59297 0
M  V30 6552 C 611.287 -1.59869 -4.18504 0
M  V30 6553 C 613.031 0.229568 -4.23879 0
M  V30 6554 C 610.938 -1.61671 -5.68873 0
M  V30 6555 H 609.868 -0.0504005 -0.752314 0
M  V30 6556 H 612.519 -0.799639 -1.65161 0
M  V30 6557 H 610.901 0.513767 -3.92653 0
M  V30 6558 H 612.075 -2.34496 -3.96671 0
M  V30 6559 H 610.39 -1.98131 -3.66242 0
M  V30 6560 H 612.987 0.235758 -5.3418 0
M  V30 6561 H 613.33 1.25848 -3.96822 0
M  V30 6562 H 613.863 -0.440233 -3.95357 0
M  V30 6563 H 610.602 -2.62427 -6.00677 0
M  V30 6564 H 610.122 -0.913489 -5.92803 0
M  V30 6565 H 611.801 -1.35439 -6.32665 0
M  V30 6566 N 611.933 1.52934 -0.380664 0
M  V30 6567 C 612.863 2.29118 0.450268 0
M  V30 6568 C 613.844 1.32153 1.07096 0
M  V30 6569 O 615.029 1.61038 1.08537 0
M  V30 6570 C 612.159 3.09161 1.58231 0
M  V30 6571 C 611.113 4.13938 1.0881 0
M  V30 6572 C 610.439 4.82153 2.31155 0
M  V30 6573 C 611.739 5.22048 0.162146 0
M  V30 6574 H 613.433 2.98826 -0.185361 0
M  V30 6575 H 610.979 1.43715 -0.0905886 0
M  V30 6576 H 612.932 3.61211 2.17036 0
M  V30 6577 H 611.656 2.3717 2.2454 0
M  V30 6578 H 610.315 3.62855 0.522633 0
M  V30 6579 H 609.963 4.06719 2.95953 0
M  V30 6580 H 609.663 5.52966 1.98752 0
M  V30 6581 H 611.187 5.37004 2.90618 0
M  V30 6582 H 612.601 5.6951 0.658126 0
M  V30 6583 H 610.998 6.00057 -0.0717122 0
M  V30 6584 H 612.068 4.78398 -0.791438 0
M  V30 6585 N 613.412 0.11024 1.57214 0
M  V30 6586 C 614.36 -0.860586 2.16094 0
M  V30 6587 C 615.354 -1.28156 1.1078 0
M  V30 6588 O 616.56 -1.25433 1.29099 0
M  V30 6589 H 612.935 -0.295606 0.691463 0
M  V30 6590 H 614.906 -0.33942 2.96463 0
M  V30 6591 C 613.655 -2.10421 2.768 0
M  V30 6592 H 612.978 -1.7892 3.5753 0
M  V30 6593 H 614.418 -2.76375 3.21547 0
M  V30 6594 C 612.877 -2.88823 1.73444 0
M  V30 6595 O 613.407 -3.839 1.18251 0
M  V30 6596 N 611.613 -2.52649 1.43586 0
M  V30 6597 H 611.16 -1.754 1.8866 0
M  V30 6598 H 611.118 -3.05403 0.746735 0
M  V30 6599 N 614.89 -1.56749 -0.16351 0
M  V30 6600 C 616.301 -1.72039 -0.725216 0
M  V30 6601 C 616.652 -0.72202 -1.82432 0
M  V30 6602 O 615.777 0.114942 -2.16095 0
M  V30 6603 C 616.372 -3.11932 -1.32227 0
M  V30 6604 C 614.931 -3.28879 -1.83072 0
M  V30 6605 C 614.078 -2.67984 -0.712716 0
M  V30 6606 H 617.029 -1.58579 0.0619772 0
M  V30 6607 H 617.05 -3.11015 -2.19202 0
M  V30 6608 H 616.562 -3.84572 -0.522103 0
M  V30 6609 H 614.663 -2.61209 -2.65708 0
M  V30 6610 H 614.776 -4.36688 -1.97079 0
M  V30 6611 H 613.14 -2.28005 -1.13515 0
M  V30 6612 H 613.923 -3.43216 0.0757361 0
M  V30 6613 N 616.368 0.432326 -1.51554 0
M  V30 6614 C 617.318 1.52366 -1.69614 0
M  V30 6615 C 618.302 1.51205 -0.550083 0
M  V30 6616 O 619.494 1.57573 -0.806206 0
M  V30 6617 C 616.623 2.90513 -1.82913 0
M  V30 6618 C 615.709 2.9641 -3.03318 0
M  V30 6619 N 616.1 2.72043 -4.26411 0
M  V30 6620 C 614.398 3.27572 -3.02675 0
M  V30 6621 C 615.099 2.83912 -5.07709 0
M  V30 6622 N 614.075 3.15798 -4.42462 0
M  V30 6623 H 617.877 1.32285 -2.62446 0
M  V30 6624 H 615.391 0.639708 -1.4927 0
M  V30 6625 H 617.388 3.69032 -1.93962 0
M  V30 6626 H 616.048 3.1161 -0.912655 0
M  V30 6627 H 617.059 2.46876 -4.55272 0
M  V30 6628 H 613.736 3.54411 -2.20678 0
M  V30 6629 H 615.126 2.68984 -6.15709 0
M  V30 6630 N 617.846 1.41785 0.688094 0
M  V30 6631 C 619.095 1.4084 1.44385 0
M  V30 6632 C 619.408 0.0234166 1.95586 0
M  V30 6633 O 620.614 -0.108647 2.71283 0
M  V30 6634 C 619.07 2.47675 2.61123 0
M  V30 6635 C 618.678 3.92116 2.16677 0
M  V30 6636 C 620.422 2.55877 3.38714 0
M  V30 6637 C 618.329 4.90487 3.30419 0
M  V30 6638 H 617.259 0.523787 0.542368 0
M  V30 6639 H 619.91 1.6764 0.74627 0
M  V30 6640 H 618.292 2.14018 3.33185 0
M  V30 6641 H 619.466 4.35059 1.51856 0
M  V30 6642 H 617.781 3.87642 1.5206 0
M  V30 6643 H 620.378 3.26553 4.234 0
M  V30 6644 H 620.721 1.59801 3.84408 0
M  V30 6645 H 621.254 2.88662 2.73714 0
M  V30 6646 H 617.993 5.87994 2.89729 0
M  V30 6647 H 617.513 4.52187 3.94065 0
M  V30 6648 H 619.192 5.11591 3.96085 0
M  V30 6649 N 619.324 -0.923095 1.27737 0
M  V30 6650 C 620.274 -2.01061 1.0751 0
M  V30 6651 C 621.258 -1.609 0.00165451 0
M  V30 6652 O 622.45 -1.75618 0.220724 0
M  V30 6653 C 619.579 -3.35467 0.729162 0
M  V30 6654 C 618.665 -3.82059 1.84098 0
M  V30 6655 N 619.056 -4.01115 3.08124 0
M  V30 6656 C 617.354 -4.11135 1.7287 0
M  V30 6657 C 618.055 -4.39989 3.80506 0
M  V30 6658 N 617.031 -4.47721 3.08297 0
M  V30 6659 H 620.833 -2.13832 2.01626 0
M  V30 6660 H 618.347 -1.11027 1.18519 0
M  V30 6661 H 620.344 -4.13049 0.565355 0
M  V30 6662 H 619.004 -3.24056 -0.204334 0
M  V30 6663 H 620.015 -3.87294 3.43836 0
M  V30 6664 H 616.692 -4.08412 0.866352 0
M  V30 6665 H 618.082 -4.62773 4.87125 0
M  V30 6666 N 620.802 -1.09834 -1.13024 0
M  V30 6667 C 621.732 -0.763451 -2.20666 0
M  V30 6668 C 622.713 0.260778 -1.68089 0
M  V30 6669 O 623.898 0.127915 -1.93778 0
M  V30 6670 C 621.028 -0.187744 -3.46792 0
M  V30 6671 C 619.982 -1.14196 -4.12484 0
M  V30 6672 C 619.308 -0.427755 -5.32986 0
M  V30 6673 C 620.608 -2.48607 -4.59338 0
M  V30 6674 H 622.302 -1.66347 -2.48936 0
M  V30 6675 H 619.848 -0.801261 -1.19649 0
M  V30 6676 H 621.801 0.0586375 -4.21359 0
M  V30 6677 H 620.525 0.747485 -3.17931 0
M  V30 6678 H 619.184 -1.37369 -3.3989 0
M  V30 6679 H 618.832 0.511747 -5.0039 0
M  V30 6680 H 618.532 -1.06403 -5.77886 0
M  V30 6681 H 620.056 -0.189772 -6.10305 0
M  V30 6682 H 621.47 -2.29618 -5.25308 0
M  V30 6683 H 619.867 -3.08062 -5.14993 0
M  V30 6684 H 620.937 -3.09062 -3.73642 0
M  V30 6685 N 622.28 1.30327 -0.886154 0
M  V30 6686 C 623.213 2.26241 -0.298407 0
M  V30 6687 C 624.191 1.51839 0.581704 0
M  V30 6688 O 625.375 1.80851 0.531536 0
M  V30 6689 C 622.502 3.33768 0.575888 0
M  V30 6690 C 621.548 4.25852 -0.235057 0
M  V30 6691 S 622.381 5.10277 -1.62411 0
M  V30 6692 C 623.537 6.21313 -0.756368 0
M  V30 6693 H 623.77 2.75744 -1.11141 0
M  V30 6694 H 621.303 1.38341 -0.685651 0
M  V30 6695 H 623.261 3.96186 1.07458 0
M  V30 6696 H 621.922 2.82986 1.363 0
M  V30 6697 H 621.115 5.02143 0.432198 0
M  V30 6698 H 620.717 3.68015 -0.666409 0
M  V30 6699 H 623.009 6.77495 0.0261451 0
M  V30 6700 H 623.952 6.92226 -1.49093 0
M  V30 6701 H 624.36 5.63611 -0.316749 0
M  V30 6702 N 623.758 0.647228 1.43697 0
M  V30 6703 C 625.006 0.157876 2.01482 0
M  V30 6704 C 625.327 -1.23039 1.51282 0
M  V30 6705 O 624.597 -1.82071 0.722982 0
M  V30 6706 H 623.177 0.0553745 0.744945 0
M  V30 6707 H 625.839 0.83755 1.75986 0
M  V30 6708 H 624.935 0.137895 3.11795 0
M  V30 6709 N 625.236 -1.5273 0.388769 0
M  V30 6710 C 626.513 -1.93981 -0.251133 0
M  V30 6711 C 626.893 -1.32418 -1.64404 0
M  V30 6712 O 626.241 -0.492074 -2.23139 0
M  V30 6713 C 626.451 -3.47891 -0.27802 0
M  V30 6714 C 627.799 -4.21559 -0.507229 0
M  V30 6715 O 628.823 -3.54394 -0.358252 0
M  V30 6716 O 627.682 -5.40626 -0.799094 0
M  V30 6717 H 624.776 -0.812157 -0.15598 0
M  V30 6718 H 627.322 -1.63809 0.443237 0
M  V30 6719 H 626.094 -3.8503 0.697669 0
M  V30 6720 H 625.717 -3.84364 -1.01733 0
M  V30 6721 N 626.714 -0.118576 -1.57153 0
M  V30 6722 C 627.624 0.845484 -2.18835 0
M  V30 6723 C 628.64 1.29299 -1.16438 0
M  V30 6724 O 629.816 1.35607 -1.48905 0
M  V30 6725 C 626.881 2.07795 -2.77529 0
M  V30 6726 C 625.942 1.6824 -3.9496 0
M  V30 6727 C 625.175 2.85612 -4.50845 0
M  V30 6728 O 625.398 4.01025 -4.05629 0
M  V30 6729 O 624.332 2.62721 -5.41536 0
M  V30 6730 H 628.158 0.350568 -3.0167 0
M  V30 6731 H 625.743 0.107013 -1.49016 0
M  V30 6732 H 627.625 2.79978 -3.14945 0
M  V30 6733 H 626.3 2.56294 -1.97725 0
M  V30 6734 H 625.207 0.931663 -3.62313 0
M  V30 6735 H 626.54 1.24484 -4.76198 0
M  V30 6736 N 628.193 1.56834 0.155195 0
M  V30 6737 C 629.418 1.87412 0.888337 0
M  V30 6738 C 629.843 0.70671 1.74319 0
M  V30 6739 O 629.201 -0.343892 1.78009 0
M  V30 6740 C 629.249 3.1652 1.72765 0
M  V30 6741 O 628.353 2.99877 2.83103 0
M  V30 6742 H 627.694 0.615983 0.247914 0
M  V30 6743 H 630.224 2.04061 0.148478 0
M  V30 6744 H 630.234 3.48334 2.12433 0
M  V30 6745 H 628.909 4.01094 1.09985 0
M  V30 6746 H 627.486 2.79453 2.46902 0
M  V30 6747 N 629.671 -0.424282 1.51781 0
M  V30 6748 C 630.634 -1.49848 1.73431 0
M  V30 6749 C 631.634 -1.49016 0.604225 0
M  V30 6750 O 632.824 -1.50808 0.871935 0
M  V30 6751 C 629.956 -2.89332 1.80277 0
M  V30 6752 H 631.149 -1.3195 2.69312 0
M  V30 6753 H 628.702 -0.653809 1.41968 0
M  V30 6754 H 629.437 -3.12618 0.862568 0
M  V30 6755 H 629.222 -2.9134 2.62419 0
M  V30 6756 H 630.712 -3.67233 1.98821 0
M  V30 6757 N 631.149 -1.42148 -0.680565 0
M  V30 6758 C 632.389 -1.4379 -1.45271 0
M  V30 6759 C 632.753 -0.0504426 -1.91934 0
M  V30 6760 O 633.954 0.0583916 -2.68737 0
M  V30 6761 C 632.225 -2.42904 -2.62168 0
M  V30 6762 S 633.784 -2.63201 -3.51099 0
M  V30 6763 H 630.602 -0.509185 -0.496237 0
M  V30 6764 H 633.204 -1.78706 -0.792744 0
M  V30 6765 H 631.908 -3.4249 -2.26116 0
M  V30 6766 H 631.439 -2.09394 -3.33043 0
M  V30 6767 H 633.454 -1.91068 -4.57938 0
M  V30 6768 N 632.627 0.916307 -1.28225 0
M  V30 6769 C 633.876 1.65975 -1.14608 0
M  V30 6770 C 634.189 1.93204 0.305191 0
M  V30 6771 O 635.395 2.65611 0.562432 0
M  V30 6772 C 633.851 2.98989 -2.00333 0
M  V30 6773 C 633.459 2.79417 -3.50186 0
M  V30 6774 C 635.203 3.76856 -1.95397 0
M  V30 6775 C 633.11 4.08056 -4.28071 0
M  V30 6776 H 632.04 0.622587 -0.425324 0
M  V30 6777 H 634.691 1.01705 -1.52736 0
M  V30 6778 H 633.073 3.6438 -1.5506 0
M  V30 6779 H 634.247 2.22723 -4.034 0
M  V30 6780 H 632.562 2.14966 -3.56621 0
M  V30 6781 H 635.159 4.72203 -2.50856 0
M  V30 6782 H 635.502 4.05776 -0.930137 0
M  V30 6783 H 636.035 3.1828 -2.38626 0
M  V30 6784 H 632.774 3.8431 -5.31024 0
M  V30 6785 H 632.294 4.64371 -3.79631 0
M  V30 6786 H 633.973 4.76333 -4.37854 0
M  V30 6787 N 634.105 1.10431 1.1244 0
M  V30 6788 C 635.068 0.756542 2.16354 0
M  V30 6789 C 636.068 -0.21899 1.59302 0
M  V30 6790 O 637.258 0.00415969 1.742 0
M  V30 6791 C 634.39 0.120612 3.40687 0
M  V30 6792 H 635.583 1.67696 2.48632 0
M  V30 6793 H 633.136 0.904832 1.27446 0
M  V30 6794 H 633.871 -0.810536 3.14008 0
M  V30 6795 H 633.656 0.822693 3.83372 0
M  V30 6796 H 635.146 -0.106945 4.17463 0
M  V30 6797 N 635.583 -1.29855 0.893053 0
M  V30 6798 C 636.813 -1.99686 0.530019 0
M  V30 6799 C 637.221 -1.67066 -0.888012 0
M  V30 6800 O 636.564 -0.908366 -1.5967 0
M  V30 6801 C 636.626 -3.53855 0.63457 0
M  V30 6802 C 636.29 -4.10013 2.01837 0
M  V30 6803 C 637.287 -4.25406 2.98874 0
M  V30 6804 C 634.972 -4.45202 2.32595 0
M  V30 6805 C 636.966 -4.7521 4.24799 0
M  V30 6806 C 634.653 -4.94704 3.58763 0
M  V30 6807 C 635.651 -5.09662 4.5468 0
M  V30 6808 O 635.339 -5.58093 5.78608 0
M  V30 6809 H 635.071 -0.644913 0.20264 0
M  V30 6810 H 637.625 -1.66518 1.20253 0
M  V30 6811 H 635.855 -3.86583 -0.0949477 0
M  V30 6812 H 637.544 -4.04922 0.281648 0
M  V30 6813 H 638.31 -3.98515 2.76425 0
M  V30 6814 H 634.189 -4.32822 1.58701 0
M  V30 6815 H 637.733 -4.86801 4.99671 0
M  V30 6816 H 633.63 -5.21032 3.81046 0
M  V30 6817 H 634.398 -5.7642 5.81104 0
M  V30 6818 N 637.061 -0.65484 -1.43351 0
M  V30 6819 C 638.31 -0.166215 -2.01014 0
M  V30 6820 C 638.623 1.22764 -1.52278 0
M  V30 6821 O 639.829 1.81156 -2.02224 0
M  V30 6822 C 638.285 -0.246341 -3.59056 0
M  V30 6823 C 637.893 -1.64299 -4.16785 0
M  V30 6824 C 639.637 0.184597 -4.24098 0
M  V30 6825 C 637.544 -1.67695 -5.67126 0
M  V30 6826 H 636.474 -0.0583769 -0.751737 0
M  V30 6827 H 639.125 -0.817111 -1.64303 0
M  V30 6828 H 637.507 0.472092 -3.93176 0
M  V30 6829 H 638.681 -2.3869 -3.94162 0
M  V30 6830 H 636.996 -2.02004 -3.6412 0
M  V30 6831 H 639.593 0.179088 -5.344 0
M  V30 6832 H 639.936 1.21632 -3.98135 0
M  V30 6833 H 640.469 -0.482141 -3.94867 0
M  V30 6834 H 637.208 -2.68783 -5.9786 0
M  V30 6835 H 636.728 -0.976313 -5.91801 0
M  V30 6836 H 638.407 -1.42142 -6.31193 0
M  V30 6837 N 638.539 1.52521 -0.396863 0
M  V30 6838 C 639.955 1.5953 -0.0471659 0
M  V30 6839 C 640.155 1.41044 1.43906 0
M  V30 6840 O 639.211 1.23122 2.20448 0
M  V30 6841 C 640.524 2.95972 -0.531113 0
M  V30 6842 C 642.072 3.09172 -0.488024 0
M  V30 6843 C 642.547 4.48075 -0.948281 0
M  V30 6844 N 644.038 4.54281 -0.9046 0
M  V30 6845 C 644.773 5.60007 -1.23205 0
M  V30 6846 N 644.269 6.73343 -1.63036 0
M  V30 6847 N 646.062 5.50151 -1.15282 0
M  V30 6848 H 638.213 1.62786 -1.36435 0
M  V30 6849 H 640.476 0.76514 -0.559701 0
M  V30 6850 H 640.182 3.14741 -1.56942 0
M  V30 6851 H 640.056 3.77143 0.0657922 0
M  V30 6852 H 642.443 2.90095 0.541211 0
M  V30 6853 H 642.524 2.29937 -1.12083 0
M  V30 6854 H 642.168 4.67894 -1.97578 0
M  V30 6855 H 642.098 5.25788 -0.292412 0
M  V30 6856 H 644.589 3.72918 -0.6116 0
M  V30 6857 H 644.902 7.49992 -1.86365 0
M  V30 6858 H 643.247 6.74655 -1.66929 0
M  V30 6859 H 646.438 4.6049 -0.840602 0
M  V30 6860 H 646.611 6.32444 -1.41133 0
M  V30 6861 N 640.017 0.126909 1.57088 0
M  V30 6862 C 641.266 -0.529024 1.94639 0
M  V30 6863 C 641.579 -1.67323 1.01304 0
M  V30 6864 O 642.785 -2.39245 1.28352 0
M  V30 6865 C 641.241 -0.992483 3.45945 0
M  V30 6866 C 640.849 0.123691 4.47829 0
M  V30 6867 C 642.593 -1.61934 3.924 0
M  V30 6868 C 640.5 -0.356911 5.90322 0
M  V30 6869 H 639.43 -0.201397 0.726605 0
M  V30 6870 H 642.081 0.208032 1.82317 0
M  V30 6871 H 640.463 -1.7842 3.53528 0
M  V30 6872 H 641.637 0.900168 4.51922 0
M  V30 6873 H 639.952 0.657699 4.11173 0
M  V30 6874 H 642.549 -1.9902 4.96281 0
M  V30 6875 H 642.892 -2.50075 3.32819 0
M  V30 6876 H 643.425 -0.892894 3.8765 0
M  V30 6877 H 640.164 0.488636 6.53676 0
M  V30 6878 H 639.684 -1.0997 5.89633 0
M  V30 6879 H 641.363 -0.815547 6.41839 0
M  V30 6880 N 641.495 -1.56914 -0.146875 0
M  V30 6881 C 642.723 -1.87515 -0.874394 0
M  V30 6882 C 643.138 -0.715116 -1.74733 0
M  V30 6883 O 642.495 0.315113 -1.79759 0
M  V30 6884 C 642.546 -3.17362 -1.731 0
M  V30 6885 O 642.267 -4.28897 -0.893245 0
M  V30 6886 C 643.768 -3.61479 -2.56609 0
M  V30 6887 H 640.988 -0.621546 -0.252827 0
M  V30 6888 H 643.532 -2.04023 -0.139627 0
M  V30 6889 H 641.687 -3.02608 -2.41883 0
M  V30 6890 H 642.101 -5.03146 -1.48137 0
M  V30 6891 H 643.575 -4.5517 -3.12289 0
M  V30 6892 H 644.052 -2.86773 -3.32653 0
M  V30 6893 H 644.658 -3.78927 -1.93117 0
M  V30 6894 N 642.974 0.416227 -1.52004 0
M  V30 6895 C 643.906 1.52552 -1.71058 0
M  V30 6896 C 644.919 1.51693 -0.59102 0
M  V30 6897 O 646.108 1.56087 -0.865973 0
M  V30 6898 C 643.208 2.91455 -1.72937 0
M  V30 6899 C 642.381 3.16584 -3.01816 0
M  V30 6900 C 641.44 4.35322 -2.95603 0
M  V30 6901 O 640.466 4.32947 -3.6952 0
M  V30 6902 N 641.668 5.40049 -2.12903 0
M  V30 6903 H 644.433 1.36604 -2.66757 0
M  V30 6904 H 641.994 0.60544 -1.50153 0
M  V30 6905 H 643.986 3.68944 -1.66321 0
M  V30 6906 H 642.556 3.00895 -0.847418 0
M  V30 6907 H 641.776 2.27203 -3.22137 0
M  V30 6908 H 643.064 3.30213 -3.87088 0
M  V30 6909 H 642.462 5.44823 -1.52265 0
M  V30 6910 H 641.019 6.16308 -2.1215 0
M  V30 6911 N 644.452 1.42507 0.673017 0
M  V30 6912 C 645.682 1.46261 1.45916 0
M  V30 6913 C 646.09 0.0729724 1.89059 0
M  V30 6914 O 645.433 -0.922987 1.58829 0
M  V30 6915 C 645.495 2.32853 2.73898 0
M  V30 6916 C 645.159 3.80699 2.52819 0
M  V30 6917 C 646.156 4.72307 2.17306 0
M  V30 6918 C 643.841 4.24983 2.67758 0
M  V30 6919 C 645.835 6.06192 1.97003 0
M  V30 6920 C 643.522 5.58927 2.4707 0
M  V30 6921 C 644.52 6.49348 2.11746 0
M  V30 6922 O 644.208 7.80817 1.91259 0
M  V30 6923 H 643.94 0.499561 0.455428 0
M  V30 6924 H 646.494 1.87697 0.834196 0
M  V30 6925 H 644.724 1.86268 3.38882 0
M  V30 6926 H 646.413 2.28041 3.35786 0
M  V30 6927 H 647.179 4.39378 2.05359 0
M  V30 6928 H 643.058 3.54893 2.94231 0
M  V30 6929 H 646.602 6.76731 1.69355 0
M  V30 6930 H 642.499 5.91429 2.58615 0
M  V30 6931 H 643.267 7.92194 2.05843 0
M  V30 6932 N 645.93 -0.909495 1.28709 0
M  V30 6933 C 646.86 -2.0291 1.15542 0
M  V30 6934 C 647.841 -1.7002 0.0521017 0
M  V30 6935 O 649.026 -1.92835 0.229849 0
M  V30 6936 C 646.156 -3.37458 0.820935 0
M  V30 6937 C 645.11 -3.84524 1.87949 0
M  V30 6938 C 644.436 -5.16086 1.39854 0
M  V30 6939 C 645.736 -4.05918 3.28676 0
M  V30 6940 H 647.43 -2.14183 2.09203 0
M  V30 6941 H 644.976 -1.02913 1.00722 0
M  V30 6942 H 646.929 -4.1528 0.715571 0
M  V30 6943 H 645.653 -3.26249 -0.151374 0
M  V30 6944 H 644.312 -3.08911 1.97408 0
M  V30 6945 H 643.96 -5.01284 0.41518 0
M  V30 6946 H 643.66 -5.48547 2.1064 0
M  V30 6947 H 645.184 -5.96459 1.30649 0
M  V30 6948 H 646.598 -4.74252 3.22115 0
M  V30 6949 H 644.995 -4.49717 3.97334 0
M  V30 6950 H 646.065 -3.10583 3.72379 0
M  V30 6951 N 647.408 -1.11026 -1.11852 0
M  V30 6952 C 648.685 -0.768347 -1.79877 0
M  V30 6953 C 649.065 0.744261 -1.97545 0
M  V30 6954 O 648.413 1.67271 -1.55669 0
M  V30 6955 C 648.623 -1.52648 -3.13846 0
M  V30 6956 C 649.971 -1.70297 -3.88953 0
M  V30 6957 O 650.995 -1.49037 -3.23522 0
M  V30 6958 O 649.854 -2.05593 -5.06353 0
M  V30 6959 H 646.948 -0.277891 -0.778913 0
M  V30 6960 H 649.494 -1.21343 -1.18633 0
M  V30 6961 H 648.266 -2.55564 -2.96315 0
M  V30 6962 H 647.889 -1.07466 -3.82801 0
M  V30 6963 N 648.886 1.2938 -0.899927 0
M  V30 6964 C 649.849 2.25983 -0.382677 0
M  V30 6965 C 650.849 1.53366 0.483259 0
M  V30 6966 O 652.039 1.71798 0.28828 0
M  V30 6967 C 649.171 3.37878 0.452915 0
M  V30 6968 H 650.364 2.73252 -1.23586 0
M  V30 6969 H 647.917 1.40825 -0.678088 0
M  V30 6970 H 648.652 2.95949 1.32608 0
M  V30 6971 H 648.437 3.91742 -0.167562 0
M  V30 6972 H 649.927 4.09746 0.806107 0
M  V30 6973 N 650.364 0.662433 1.43002 0
M  V30 6974 C 651.612 0.179237 2.01304 0
M  V30 6975 C 651.933 -1.21428 1.52579 0
M  V30 6976 O 651.203 -1.81294 0.742252 0
M  V30 6977 H 649.783 0.0632725 0.744316 0
M  V30 6978 H 652.445 0.856169 1.75088 0
M  V30 6979 H 651.541 0.170957 3.11631 0
M  V30 6980 N 651.842 -1.52309 0.404946 0
M  V30 6981 C 653.09 -2.01368 -0.17186 0
M  V30 6982 C 653.411 -1.29261 -1.46002 0
M  V30 6983 O 652.681 -0.41729 -1.91404 0
M  V30 6984 H 651.261 -0.744034 -0.0664993 0
M  V30 6985 H 653.923 -1.87263 0.540228 0
M  V30 6986 H 653.019 -3.09888 -0.370957 0
M  V30 6987 N 653.32 -0.135238 -1.57019 0
M  V30 6988 C 654.569 0.518694 -1.94917 0
M  V30 6989 C 654.882 1.66783 -1.0219 0
M  V30 6990 O 656.088 2.38561 -1.29619 0
M  V30 6991 C 654.544 0.974123 -3.46466 0
M  V30 6992 C 654.152 -0.147439 -4.47757 0
M  V30 6993 C 655.896 1.59851 -3.93253 0
M  V30 6994 C 653.803 0.325599 -5.90503 0
M  V30 6995 H 652.733 0.19754 -0.727663 0
M  V30 6996 H 655.384 -0.217698 -1.82204 0
M  V30 6997 H 653.766 1.76542 -3.5447 0
M  V30 6998 H 654.94 -0.924122 -4.51438 0
M  V30 6999 H 653.255 -0.679496 -4.10818 0
M  V30 7000 H 655.852 1.96385 -4.9733 0
M  V30 7001 H 656.195 2.48306 -3.3414 0
M  V30 7002 H 656.728 0.872323 -3.88118 0
M  V30 7003 H 653.467 -0.523295 -6.53408 0
M  V30 7004 H 652.987 1.06841 -5.90208 0
M  V30 7005 H 654.666 0.781498 -6.42263 0
M  V30 7006 N 654.798 1.5699 0.138552 0
M  V30 7007 C 656.209 1.73171 0.697754 0
M  V30 7008 C 656.56 0.750952 1.8126 0
M  V30 7009 O 655.685 -0.080549 2.1625 0
M  V30 7010 C 656.28 3.13996 1.27248 0
M  V30 7011 C 654.839 3.3175 1.77816 0
M  V30 7012 C 653.986 2.69084 0.669991 0
M  V30 7013 H 656.937 1.5846 -0.0871979 0
M  V30 7014 H 656.958 3.14463 2.14227 0
M  V30 7015 H 656.47 3.85354 0.460855 0
M  V30 7016 H 654.571 2.65403 2.61519 0
M  V30 7017 H 654.684 4.39768 1.90107 0
M  V30 7018 H 653.048 2.29782 1.09874 0
M  V30 7019 H 653.831 3.43053 -0.130329 0
M  V30 7020 N 656.276 -0.40816 1.52223 0
M  V30 7021 C 657.692 -0.74685 1.41047 0
M  V30 7022 C 657.892 -1.94788 0.51573 0
M  V30 7023 O 656.948 -2.52494 -0.0181156 0
M  V30 7024 C 658.261 -0.999878 2.83589 0
M  V30 7025 C 659.809 -1.10253 2.92939 0
M  V30 7026 C 660.284 -1.38832 4.36451 0
M  V30 7027 N 661.775 -1.45694 4.3969 0
M  V30 7028 C 662.51 -1.69435 5.47795 0
M  V30 7029 N 662.006 -1.90774 6.66016 0
M  V30 7030 N 663.799 -1.71458 5.35312 0
M  V30 7031 H 655.95 0.382409 2.08929 0
M  V30 7032 H 658.213 0.108807 0.941735 0
M  V30 7033 H 657.919 -0.189723 3.51188 0
M  V30 7034 H 657.793 -1.91978 3.24691 0
M  V30 7035 H 660.18 -1.90328 2.2552 0
M  V30 7036 H 660.261 -0.160973 2.55293 0
M  V30 7037 H 659.905 -0.592741 5.04429 0
M  V30 7038 H 659.835 -2.34241 4.71634 0
M  V30 7039 H 662.326 -1.3099 3.54472 0
M  V30 7040 H 662.639 -2.08342 7.44186 0
M  V30 7041 H 660.984 -1.88037 6.69079 0
M  V30 7042 H 664.175 -1.54326 4.41929 0
M  V30 7043 H 664.348 -1.89621 6.19635 0
M  V30 7044 N 657.755 -1.42862 -0.66545 0
M  V30 7045 C 658.983 -1.47246 -1.45349 0
M  V30 7046 C 659.398 -0.0865944 -1.88601 0
M  V30 7047 O 658.755 0.900652 -1.58728 0
M  V30 7048 C 658.806 -2.40772 -2.6965 0
M  V30 7049 O 658.527 -3.73968 -2.2821 0
M  V30 7050 C 660.028 -2.54272 -3.63126 0
M  V30 7051 H 657.248 -0.500497 -0.446927 0
M  V30 7052 H 659.792 -1.87477 -0.816871 0
M  V30 7053 H 657.947 -2.0377 -3.29479 0
M  V30 7054 H 658.361 -4.24146 -3.08546 0
M  V30 7055 H 659.835 -3.23815 -4.47043 0
M  V30 7056 H 660.312 -1.58364 -4.09656 0
M  V30 7057 H 660.918 -2.92036 -3.09185 0
M  V30 7058 N 659.233 0.902656 -1.29189 0
M  V30 7059 C 660.196 1.98797 -1.14071 0
M  V30 7060 C 661.196 1.60615 -0.0770549 0
M  V30 7061 O 662.386 1.71165 -0.323753 0
M  V30 7062 C 659.518 3.32688 -0.743739 0
M  V30 7063 H 660.711 2.13637 -2.10473 0
M  V30 7064 H 658.264 1.08678 -1.12334 0
M  V30 7065 H 658.999 3.23549 0.220554 0
M  V30 7066 H 658.784 3.61765 -1.51223 0
M  V30 7067 H 660.274 4.12337 -0.660935 0
M  V30 7068 N 660.711 1.11618 1.11262 0
M  V30 7069 C 661.643 0.734015 2.17129 0
M  V30 7070 C 662.656 -0.235243 1.61091 0
M  V30 7071 O 663.845 -0.0178597 1.78491 0
M  V30 7072 C 660.945 0.0643682 3.38839 0
M  V30 7073 C 660.118 1.06092 4.24339 0
M  V30 7074 C 659.177 0.420482 5.24517 0
M  V30 7075 O 658.203 1.07495 5.58957 0
M  V30 7076 N 659.405 -0.815828 5.74739 0
M  V30 7077 H 662.17 1.64492 2.50524 0
M  V30 7078 H 659.731 1.00664 1.26801 0
M  V30 7079 H 661.723 -0.375851 4.02951 0
M  V30 7080 H 660.293 -0.749147 3.03491 0
M  V30 7081 H 659.513 1.67903 3.56654 0
M  V30 7082 H 660.801 1.73507 4.78302 0
M  V30 7083 H 660.199 -1.36668 5.48943 0
M  V30 7084 H 658.756 -1.199 6.40677 0
M  V30 7085 N 662.189 -1.289 0.906776 0
M  V30 7086 C 663.414 -1.99939 0.551303 0
M  V30 7087 C 663.839 -1.67366 -0.858496 0
M  V30 7088 O 663.197 -0.902176 -1.57259 0
M  V30 7089 C 663.245 -3.52523 0.758937 0
M  V30 7090 O 662.349 -4.11983 -0.185308 0
M  V30 7091 H 661.69 -0.628376 0.214568 0
M  V30 7092 H 664.22 -1.64225 1.2203 0
M  V30 7093 H 664.23 -4.02522 0.666329 0
M  V30 7094 H 662.905 -3.75566 1.78671 0
M  V30 7095 H 661.482 -3.72873 -0.0445577 0
M  V30 7096 N 663.667 -0.670007 -1.42649 0
M  V30 7097 C 664.577 0.0114788 -2.34597 0
M  V30 7098 C 665.593 0.794055 -1.54825 0
M  V30 7099 O 666.769 0.737472 -1.87412 0
M  V30 7100 C 663.834 0.954436 -3.33304 0
M  V30 7101 C 662.895 0.166925 -4.28975 0
M  V30 7102 C 662.128 1.06497 -5.22967 0
M  V30 7103 O 662.351 2.30446 -5.21777 0
M  V30 7104 O 661.285 0.528347 -5.99577 0
M  V30 7105 H 665.111 -0.745794 -2.944 0
M  V30 7106 H 662.696 -0.430228 -1.43071 0
M  V30 7107 H 664.578 1.49589 -3.93956 0
M  V30 7108 H 663.253 1.69164 -2.7598 0
M  V30 7109 H 662.16 -0.418515 -3.71752 0
M  V30 7110 H 663.493 -0.531067 -4.89327 0
M  V30 7111 N 665.145 1.52092 -0.413018 0
M  V30 7112 C 666.055 2.30858 0.417318 0
M  V30 7113 C 667.071 1.38746 1.05003 0
M  V30 7114 O 668.247 1.71821 1.05069 0
M  V30 7115 C 665.312 3.11756 1.51687 0
M  V30 7116 C 664.373 4.19613 0.906825 0
M  V30 7117 C 663.606 4.96644 1.95399 0
M  V30 7118 O 663.829 4.7402 3.17271 0
M  V30 7119 O 662.763 5.81385 1.55805 0
M  V30 7120 H 666.589 3.02865 -0.225028 0
M  V30 7121 H 664.174 1.48358 -0.176126 0
M  V30 7122 H 666.056 3.62122 2.15512 0
M  V30 7123 H 664.731 2.42539 2.14375 0
M  V30 7124 H 663.638 3.73385 0.231183 0
M  V30 7125 H 664.971 4.91134 0.323814 0
M  V30 7126 N 666.623 0.143563 1.56945 0
M  V30 7127 C 667.851 -0.515447 2.00377 0
M  V30 7128 C 668.266 -1.58643 1.02361 0
M  V30 7129 O 667.623 -1.82489 0.0201039 0
M  V30 7130 C 667.674 -1.11923 3.43737 0
M  V30 7131 O 667.395 -0.0910318 4.38005 0
M  V30 7132 C 668.896 -1.85918 4.02429 0
M  V30 7133 H 666.116 -0.134478 0.657386 0
M  V30 7134 H 668.66 0.237135 2.0312 0
M  V30 7135 H 666.815 -1.82245 3.41856 0
M  V30 7136 H 667.229 -0.532916 5.21786 0
M  V30 7137 H 668.703 -2.2346 5.04747 0
M  V30 7138 H 669.18 -2.7438 3.42947 0
M  V30 7139 H 669.786 -1.20303 4.07931 0
M  V30 7140 N 668.101 -1.57061 -0.130224 0
M  V30 7141 C 669.517 -1.52103 -0.483413 0
M  V30 7142 C 669.717 -0.854752 -1.82473 0
M  V30 7143 O 668.773 -0.432342 -2.48771 0
M  V30 7144 C 670.086 -2.96872 -0.47825 0
M  V30 7145 C 671.634 -3.07902 -0.562592 0
M  V30 7146 C 672.109 -4.54211 -0.587929 0
M  V30 7147 N 673.6 -4.58621 -0.649684 0
M  V30 7148 C 674.335 -5.69227 -0.690551 0
M  V30 7149 N 673.831 -6.89358 -0.689743 0
M  V30 7150 N 675.624 -5.57304 -0.732708 0
M  V30 7151 H 667.775 -1.98764 0.748779 0
M  V30 7152 H 670.038 -0.907248 0.274965 0
M  V30 7153 H 669.744 -3.48944 0.439444 0
M  V30 7154 H 669.618 -3.53716 -1.31013 0
M  V30 7155 H 672.005 -2.5584 -1.47071 0
M  V30 7156 H 672.086 -2.54073 0.296764 0
M  V30 7157 H 671.73 -5.06915 0.316096 0
M  V30 7158 H 671.66 -5.0584 -1.46401 0
M  V30 7159 H 674.151 -3.72146 -0.656927 0
M  V30 7160 H 674.464 -7.69408 -0.723239 0
M  V30 7161 H 672.809 -6.91884 -0.657347 0
M  V30 7162 H 676 -4.62363 -0.730625 0
M  V30 7163 H 676.173 -6.43515 -0.76109 0
M  V30 7164 N 669.579 0.400081 -1.52437 0
M  V30 7165 C 670.825 1.14788 -1.67187 0
M  V30 7166 C 671.158 1.89928 -0.405074 0
M  V30 7167 O 670.433 1.85118 0.596804 0
M  V30 7168 C 670.716 2.13507 -2.89977 0
M  V30 7169 C 670.569 1.42204 -4.2673 0
M  V30 7170 C 671.888 3.14069 -3.083 0
M  V30 7171 H 669.007 0.415939 -0.608411 0
M  V30 7172 H 671.649 0.432542 -1.85011 0
M  V30 7173 H 669.799 2.7451 -2.74912 0
M  V30 7174 H 671.471 0.842503 -4.53541 0
M  V30 7175 H 669.714 0.723939 -4.27717 0
M  V30 7176 H 670.385 2.14281 -5.08712 0
M  V30 7177 H 672.861 2.63148 -3.22323 0
M  V30 7178 H 671.737 3.80398 -3.95713 0
M  V30 7179 H 671.998 3.82309 -2.22018 0
M  V30 7180 N 671.057 1.43213 0.657864 0
M  V30 7181 C 672.303 1.45795 1.41829 0
M  V30 7182 C 672.658 0.0792176 1.92237 0
M  V30 7183 O 671.951 -0.901406 1.69072 0
M  V30 7184 C 672.145 2.43143 2.61947 0
M  V30 7185 C 671.974 3.90345 2.23295 0
M  V30 7186 C 670.744 4.58749 2.11843 0
M  V30 7187 C 672.942 4.80308 1.83873 0
M  V30 7188 N 670.924 5.90898 1.66473 0
M  V30 7189 C 672.295 6.01693 1.49549 0
M  V30 7190 C 674.35 4.67609 1.71015 0
M  V30 7191 C 673.053 7.11792 1.03657 0
M  V30 7192 C 675.079 5.77707 1.26527 0
M  V30 7193 C 674.441 6.98215 0.931379 0
M  V30 7194 H 670.54 0.588628 0.514822 0
M  V30 7195 H 673.124 1.7936 0.7575 0
M  V30 7196 H 671.295 2.11612 3.25692 0
M  V30 7197 H 673.027 2.36193 3.28626 0
M  V30 7198 H 669.782 4.1319 2.31453 0
M  V30 7199 H 670.206 6.61034 1.46163 0
M  V30 7200 H 674.848 3.74902 1.95469 0
M  V30 7201 H 672.566 8.04332 0.779502 0
M  V30 7202 H 676.152 5.69899 1.17074 0
M  V30 7203 H 675.032 7.81959 0.592379 0
M  V30 7204 N 672.536 -0.895792 1.29666 0
M  V30 7205 C 673.486 -1.98736 1.1175 0
M  V30 7206 C 674.47 -1.6086 0.0357834 0
M  V30 7207 O 675.662 -1.75111 0.257926 0
M  V30 7208 C 672.791 -3.33845 0.800156 0
M  V30 7209 C 671.877 -3.78068 1.9216 0
M  V30 7210 N 672.268 -3.94489 3.16563 0
M  V30 7211 C 670.566 -4.07376 1.81552 0
M  V30 7212 C 671.267 -4.31819 3.89753 0
M  V30 7213 N 670.243 -4.41081 3.17724 0
M  V30 7214 H 674.045 -2.09507 2.06117 0
M  V30 7215 H 671.559 -1.08488 1.20848 0
M  V30 7216 H 673.556 -4.11757 0.652841 0
M  V30 7217 H 672.216 -3.24417 -0.135551 0
M  V30 7218 H 673.227 -3.79914 3.51974 0
M  V30 7219 H 669.904 -4.06483 0.952787 0
M  V30 7220 H 671.294 -4.52337 4.96831 0
M  V30 7221 N 674.014 -1.12206 -1.10668 0
M  V30 7222 C 675.43 -0.857619 -1.346 0
M  V30 7223 C 675.63 0.513542 -1.94846 0
M  V30 7224 O 674.686 1.26273 -2.18658 0
M  V30 7225 C 675.999 -1.97212 -2.26998 0
M  V30 7226 C 677.547 -2.00272 -2.40542 0
M  V30 7227 C 678.022 -3.10948 -3.36267 0
M  V30 7228 N 679.513 -3.10375 -3.43834 0
M  V30 7229 C 680.248 -3.92651 -4.17867 0
M  V30 7230 N 679.744 -4.84911 -4.94807 0
M  V30 7231 N 681.537 -3.80798 -4.1346 0
M  V30 7232 H 673.688 -2.00558 -0.699306 0
M  V30 7233 H 675.951 -0.872612 -0.370477 0
M  V30 7234 H 675.657 -2.96002 -1.89936 0
M  V30 7235 H 675.531 -1.87521 -3.27286 0
M  V30 7236 H 677.918 -1.02103 -2.76874 0
M  V30 7237 H 677.999 -2.14037 -1.40077 0
M  V30 7238 H 677.643 -4.09348 -3.00661 0
M  V30 7239 H 677.573 -2.94421 -4.36605 0
M  V30 7240 H 680.064 -2.43536 -2.88961 0
M  V30 7241 H 680.377 -5.44207 -5.48688 0
M  V30 7242 H 678.722 -4.88926 -4.93939 0
M  V30 7243 H 681.913 -3.08058 -3.52445 0
M  V30 7244 H 682.086 -4.4515 -4.70898 0
M  V30 7245 N 675.492 1.28418 -0.913599 0
M  V30 7246 C 676.908 1.47411 -0.611728 0
M  V30 7247 C 677.108 1.83018 0.843008 0
M  V30 7248 O 676.164 1.93505 1.6221 0
M  V30 7249 C 677.477 2.57703 -1.5495 0
M  V30 7250 C 679.025 2.71572 -1.5562 0
M  V30 7251 C 679.5 3.85008 -2.48058 0
M  V30 7252 N 680.991 3.92361 -2.46184 0
M  V30 7253 C 681.726 4.79516 -3.14407 0
M  V30 7254 N 681.222 5.71262 -3.91958 0
M  V30 7255 N 683.015 4.73125 -3.03495 0
M  V30 7256 H 675.166 1.03585 -1.85429 0
M  V30 7257 H 677.429 0.515907 -0.795326 0
M  V30 7258 H 677.135 2.38298 -2.58663 0
M  V30 7259 H 677.009 3.54801 -1.28048 0
M  V30 7260 H 679.396 2.90366 -0.526441 0
M  V30 7261 H 679.477 1.75006 -1.86565 0
M  V30 7262 H 679.121 3.66969 -3.51136 0
M  V30 7263 H 679.051 4.80971 -2.14416 0
M  V30 7264 H 681.542 3.26749 -1.89851 0
M  V30 7265 H 681.855 6.34593 -4.41034 0
M  V30 7266 H 680.2 5.71103 -3.96063 0
M  V30 7267 H 683.391 4.00442 -2.42413 0
M  V30 7268 H 683.564 5.40834 -3.56935 0
M  V30 7269 N 676.97 0.677563 1.42291 0
M  V30 7270 C 678.247 0.129803 1.95169 0
M  V30 7271 C 678.627 -1.35605 1.61786 0
M  V30 7272 O 677.975 -2.09361 0.915444 0
M  V30 7273 C 678.185 0.401889 3.46678 0
M  V30 7274 C 679.533 0.319889 4.23393 0
M  V30 7275 O 680.557 0.33579 3.54614 0
M  V30 7276 O 679.416 0.264459 5.4586 0
M  V30 7277 H 676.51 0.00447433 0.826988 0
M  V30 7278 H 679.056 0.752483 1.52105 0
M  V30 7279 H 677.828 1.43108 3.64192 0
M  V30 7280 H 677.451 -0.252662 3.96796 0
M  V30 7281 N 678.448 -1.51871 0.421078 0
M  V30 7282 C 679.696 -2.01539 -0.150492 0
M  V30 7283 C 680.017 -1.30803 -1.44623 0
M  V30 7284 O 679.287 -0.437568 -1.90951 0
M  V30 7285 H 677.867 -0.744698 -0.0586041 0
M  V30 7286 H 680.529 -1.8668 0.560059 0
M  V30 7287 H 679.625 -3.10264 -0.338068 0
M  V30 7288 N 679.926 -0.151884 -1.56866 0
M  V30 7289 C 680.873 0.785936 -2.17006 0
M  V30 7290 C 681.843 1.2407 -1.10435 0
M  V30 7291 O 683.028 1.31235 -1.38499 0
M  V30 7292 C 680.168 2.01771 -2.79969 0
M  V30 7293 C 679.281 1.6083 -4.00946 0
M  V30 7294 C 678.416 2.79224 -4.51893 0
M  V30 7295 C 677.455 2.3468 -5.65324 0
M  V30 7296 N 676.592 3.461 -6.10867 0
M  V30 7297 H 681.432 0.266286 -2.96808 0
M  V30 7298 H 678.969 0.11972 -1.46612 0
M  V30 7299 H 680.927 2.73989 -3.14621 0
M  V30 7300 H 679.557 2.51139 -2.02803 0
M  V30 7301 H 678.609 0.783592 -3.72242 0
M  V30 7302 H 679.921 1.24119 -4.83111 0
M  V30 7303 H 679.075 3.59625 -4.88625 0
M  V30 7304 H 677.814 3.19183 -3.68746 0
M  V30 7305 H 676.819 1.52721 -5.28163 0
M  V30 7306 H 678.044 1.95801 -6.5026 0
M  V30 7307 H 675.99 3.85671 -5.30654 0
M  V30 7308 H 675.907 3.1342 -6.87971 0
M  V30 7309 H 677.175 4.26844 -6.52246 0
M  V30 7310 N 681.404 1.57128 0.121893 0
M  V30 7311 C 682.65 1.85853 0.826451 0
M  V30 7312 C 683.005 0.739262 1.77631 0
M  V30 7313 O 682.298 -0.260959 1.89815 0
M  V30 7314 C 682.492 3.1874 1.61677 0
M  V30 7315 C 682.321 4.43487 0.744944 0
M  V30 7316 C 681.091 5.03707 0.400891 0
M  V30 7317 C 683.289 5.1426 0.0638779 0
M  V30 7318 N 681.271 6.12006 -0.481902 0
M  V30 7319 C 682.642 6.16281 -0.678033 0
M  V30 7320 C 684.697 4.97898 -0.0128424 0
M  V30 7321 C 683.4 7.0371 -1.48946 0
M  V30 7322 C 685.426 5.85812 -0.81108 0
M  V30 7323 C 684.788 6.87333 -1.54119 0
M  V30 7324 H 680.887 0.730367 0.279442 0
M  V30 7325 H 683.471 1.9449 0.0903486 0
M  V30 7326 H 681.642 3.11204 2.32393 0
M  V30 7327 H 683.374 3.35283 2.26644 0
M  V30 7328 H 680.129 4.67744 0.742469 0
M  V30 7329 H 680.553 6.70787 -0.915063 0
M  V30 7330 H 685.195 4.19372 0.537278 0
M  V30 7331 H 682.913 7.81646 -2.05074 0
M  V30 7332 H 686.499 5.75217 -0.872764 0
M  V30 7333 H 685.379 7.54182 -2.14893 0
M  V30 7334 N 682.882 -0.391992 1.52647 0
M  V30 7335 C 683.814 -1.49811 1.73463 0
M  V30 7336 C 684.827 -1.50734 0.615078 0
M  V30 7337 O 686.016 -1.5469 0.890696 0
M  V30 7338 C 683.116 -2.88667 1.77552 0
M  V30 7339 C 682.289 -3.11743 3.06815 0
M  V30 7340 C 681.348 -4.30564 3.02491 0
M  V30 7341 O 680.374 -4.27014 3.76361 0
M  V30 7342 N 681.576 -5.36593 2.21468 0
M  V30 7343 H 684.341 -1.32343 2.68897 0
M  V30 7344 H 681.902 -0.581475 1.51098 0
M  V30 7345 H 683.894 -3.66251 1.7217 0
M  V30 7346 H 682.464 -2.99508 0.895181 0
M  V30 7347 H 681.684 -2.2205 3.25711 0
M  V30 7348 H 682.972 -3.24013 3.92292 0
M  V30 7349 H 682.37 -5.42332 1.60913 0
M  V30 7350 H 680.927 -6.12855 2.21928 0
M  V30 7351 N 684.36 -1.4356 -0.65026 0
M  V30 7352 C 685.609 -1.44619 -1.406 0
M  V30 7353 C 685.922 -0.0752645 -1.95455 0
M  V30 7354 O 687.128 0.0366832 -2.71475 0
M  V30 7355 C 685.584 -2.54511 -2.54465 0
M  V30 7356 C 685.192 -3.97723 -2.06204 0
M  V30 7357 C 686.936 -2.64768 -3.31811 0
M  V30 7358 C 684.843 -4.99075 -3.17298 0
M  V30 7359 H 683.773 -0.537983 -0.52829 0
M  V30 7360 H 686.424 -1.69559 -0.701561 0
M  V30 7361 H 684.806 -2.22777 -3.27393 0
M  V30 7362 H 685.98 -4.38932 -1.40267 0
M  V30 7363 H 684.295 -3.91538 -1.41729 0
M  V30 7364 H 686.892 -3.37664 -4.14593 0
M  V30 7365 H 687.235 -1.69936 -3.80036 0
M  V30 7366 H 687.768 -2.95817 -2.65964 0
M  V30 7367 H 684.507 -5.95469 -2.74038 0
M  V30 7368 H 684.027 -4.62476 -3.81937 0
M  V30 7369 H 685.706 -5.21913 -3.82382 0
M  V30 7370 N 685.838 0.888903 -1.30139 0
M  V30 7371 C 687.084 1.6428 -1.18912 0
M  V30 7372 C 687.417 1.92499 0.256477 0
M  V30 7373 O 686.692 1.54312 1.18397 0
M  V30 7374 C 686.975 2.9851 -2.01405 0
M  V30 7375 C 686.828 2.77288 -3.54163 0
M  V30 7376 C 688.147 3.99383 -1.84882 0
M  V30 7377 H 685.266 0.596148 -0.433333 0
M  V30 7378 H 687.908 1.0289 -1.5973 0
M  V30 7379 H 686.058 3.50907 -1.66722 0
M  V30 7380 H 687.73 2.31709 -3.98884 0
M  V30 7381 H 685.973 2.11867 -3.78543 0
M  V30 7382 H 686.644 3.72717 -4.07168 0
M  V30 7383 H 689.12 3.56132 -2.15196 0
M  V30 7384 H 687.996 4.91222 -2.44934 0
M  V30 7385 H 688.257 4.34674 -0.806902 0
M  V30 7386 N 687.317 1.12792 1.10072 0
M  V30 7387 C 688.267 0.768086 2.14673 0
M  V30 7388 C 689.251 -0.234716 1.59179 0
M  V30 7389 O 690.443 -0.039643 1.76956 0
M  V30 7390 C 687.572 0.228472 3.42539 0
M  V30 7391 C 686.658 1.25979 4.04957 0
M  V30 7392 N 687.049 2.4586 4.42025 0
M  V30 7393 C 685.347 1.10602 4.32069 0
M  V30 7394 C 686.048 3.11747 4.9111 0
M  V30 7395 N 685.024 2.39185 4.88151 0
M  V30 7396 H 688.826 1.68029 2.4113 0
M  V30 7397 H 686.34 1.00925 1.27232 0
M  V30 7398 H 688.337 -0.0475216 4.16873 0
M  V30 7399 H 686.997 -0.678136 3.1754 0
M  V30 7400 H 688.008 2.83215 4.33601 0
M  V30 7401 H 684.685 0.257021 4.16708 0
M  V30 7402 H 686.075 4.13862 5.29309 0
M  V30 7403 N 688.795 -1.27931 0.920396 0
M  V30 7404 C 690.042 -1.94689 0.557007 0
M  V30 7405 C 690.37 -1.724 -0.900476 0
M  V30 7406 O 689.625 -1.04194 -1.65657 0
M  V30 7407 C 689.924 -3.47853 0.820558 0
M  V30 7408 C 689.59 -3.90252 2.25863 0
M  V30 7409 C 688.252 -4.01539 2.65179 0
M  V30 7410 C 690.604 -4.11853 3.19415 0
M  V30 7411 C 687.932 -4.3181 3.97187 0
M  V30 7412 C 690.284 -4.43606 4.50995 0
M  V30 7413 C 688.948 -4.53105 4.90155 0
M  V30 7414 H 688.218 -0.712416 0.203823 0
M  V30 7415 H 690.865 -1.52142 1.16298 0
M  V30 7416 H 689.17 -3.91578 0.131844 0
M  V30 7417 H 690.867 -3.97634 0.51847 0
M  V30 7418 H 687.457 -3.81999 1.94358 0
M  V30 7419 H 691.641 -4.0258 2.90246 0
M  V30 7420 H 686.897 -4.37371 4.2722 0
M  V30 7421 H 691.071 -4.59268 5.23494 0
M  V30 7422 H 688.698 -4.76315 5.92476 0
M  V30 7423 N 690.273 -0.685099 -1.4193 0
M  V30 7424 C 691.223 0.00977295 -2.27998 0
M  V30 7425 C 692.207 0.763315 -1.41641 0
M  V30 7426 O 693.399 0.640532 -1.65004 0
M  V30 7427 C 690.528 0.952972 -3.29808 0
M  V30 7428 C 689.614 0.196231 -4.23646 0
M  V30 7429 N 690.005 -0.804401 -4.99363 0
M  V30 7430 C 688.303 0.433213 -4.43891 0
M  V30 7431 C 689.004 -1.25646 -5.67968 0
M  V30 7432 N 687.98 -0.5844 -5.4045 0
M  V30 7433 H 691.782 -0.757586 -2.83968 0
M  V30 7434 H 689.296 -0.515037 -1.54017 0
M  V30 7435 H 691.293 1.46585 -3.9028 0
M  V30 7436 H 689.953 1.72004 -2.75399 0
M  V30 7437 H 690.964 -1.18429 -5.04177 0
M  V30 7438 H 687.641 1.17899 -4.00507 0
M  V30 7439 H 689.031 -2.08622 -6.38691 0
M  V30 7440 N 691.751 1.51645 -0.429126 0
M  V30 7441 C 693.167 1.59394 -0.080994 0
M  V30 7442 C 693.367 1.44064 1.40882 0
M  V30 7443 O 692.423 1.27771 2.17786 0
M  V30 7444 C 693.736 2.94779 -0.593773 0
M  V30 7445 C 695.284 3.08067 -0.553494 0
M  V30 7446 C 695.759 4.45963 -1.04311 0
M  V30 7447 N 697.25 4.5226 -1.00076 0
M  V30 7448 C 697.985 5.57268 -1.35056 0
M  V30 7449 N 697.481 6.69734 -1.77282 0
M  V30 7450 N 699.274 5.47582 -1.26925 0
M  V30 7451 H 691.425 1.59856 -1.39857 0
M  V30 7452 H 693.688 0.753095 -0.575805 0
M  V30 7453 H 693.394 3.11342 -1.63583 0
M  V30 7454 H 693.268 3.77197 -0.0142202 0
M  V30 7455 H 695.655 2.91177 0.479556 0
M  V30 7456 H 695.736 2.27508 -1.16935 0
M  V30 7457 H 695.38 4.63598 -2.07459 0
M  V30 7458 H 695.31 5.25049 -0.403873 0
M  V30 7459 H 697.801 3.71537 -0.690564 0
M  V30 7460 H 698.114 7.4587 -2.02232 0
M  V30 7461 H 696.459 6.70963 -1.81202 0
M  V30 7462 H 699.65 4.58604 -0.93809 0
M  V30 7463 H 699.823 6.29308 -1.54516 0
M  V30 7464 N 693.229 0.160201 1.56784 0
M  V30 7465 C 694.454 -0.497373 2.01348 0
M  V30 7466 C 694.879 -1.56757 1.03966 0
M  V30 7467 O 694.237 -1.81292 0.0174455 0
M  V30 7468 C 694.285 -1.0628 3.44582 0
M  V30 7469 O 693.389 -2.17723 3.50244 0
M  V30 7470 H 692.73 -0.120295 0.653012 0
M  V30 7471 H 695.26 0.260821 2.02931 0
M  V30 7472 H 695.27 -1.38819 3.83658 0
M  V30 7473 H 693.945 -0.279166 4.14962 0
M  V30 7474 H 692.522 -1.86313 3.2302 0
M  V30 7475 N 694.707 -1.5719 -0.113559 0
M  V30 7476 C 695.955 -1.84772 -0.818761 0
M  V30 7477 C 696.276 -0.746196 -1.80158 0
M  V30 7478 O 695.546 0.229305 -1.94553 0
M  V30 7479 H 694.126 -0.681737 -0.305359 0
M  V30 7480 H 696.788 -1.94645 -0.0995845 0
M  V30 7481 H 695.884 -2.80878 -1.36067 0
M  V30 7482 N 696.185 0.383891 -1.52853 0
M  V30 7483 C 697.148 1.45197 -1.77343 0
M  V30 7484 C 698.148 1.47362 -0.643522 0
M  V30 7485 O 699.338 1.48443 -0.911613 0
M  V30 7486 C 696.47 2.8445 -1.87885 0
M  V30 7487 H 697.663 1.24764 -2.72716 0
M  V30 7488 H 695.216 0.615939 -1.43652 0
M  V30 7489 H 695.951 3.10222 -0.94515 0
M  V30 7490 H 695.736 2.8428 -2.70051 0
M  V30 7491 H 697.226 3.61832 -2.08488 0
M  V30 7492 N 697.663 1.43903 0.642637 0
M  V30 7493 C 699.074 1.40975 1.22404 0
M  V30 7494 C 699.425 0.1192 1.95838 0
M  V30 7495 O 698.55 -0.780939 2.01818 0
M  V30 7496 C 699.145 2.5538 2.22636 0
M  V30 7497 C 697.704 2.55684 2.76229 0
M  V30 7498 C 696.851 2.32556 1.51039 0
M  V30 7499 H 699.802 1.5265 0.434006 0
M  V30 7500 H 699.823 2.27474 3.05017 0
M  V30 7501 H 699.335 3.49294 1.69161 0
M  V30 7502 H 697.436 1.65679 3.33738 0
M  V30 7503 H 697.549 3.53799 3.23053 0
M  V30 7504 H 695.913 1.81427 1.78764 0
M  V30 7505 H 696.696 3.28569 0.99484 0
M  V30 7506 N 699.141 -0.881989 1.30609 0
M  V30 7507 C 700.366 -1.67236 1.22665 0
M  V30 7508 C 700.791 -1.8696 -0.206777 0
M  V30 7509 O 700.149 -1.4027 -1.14865 0
M  V30 7510 C 700.197 -3.02446 1.96363 0
M  V30 7511 O 699.301 -3.91614 1.29276 0
M  V30 7512 H 698.642 -0.510902 0.424117 0
M  V30 7513 H 701.172 -1.10055 1.72479 0
M  V30 7514 H 701.182 -3.52468 2.055 0
M  V30 7515 H 699.857 -2.8741 3.00613 0
M  V30 7516 H 698.434 -3.50055 1.28514 0
M  V30 7517 N 700.619 -1.13374 -1.09472 0
M  V30 7518 C 701.865 -0.896516 -1.81908 0
M  V30 7519 C 702.198 0.575933 -1.85463 0
M  V30 7520 O 701.473 1.42618 -1.32251 0
M  V30 7521 C 701.756 -1.48445 -3.28079 0
M  V30 7522 C 701.609 -3.02598 -3.32798 0
M  V30 7523 C 702.928 -1.15226 -4.24748 0
M  V30 7524 H 700.047 -0.327127 -0.660422 0
M  V30 7525 H 702.689 -1.40195 -1.2824 0
M  V30 7526 H 700.839 -1.0546 -3.73912 0
M  V30 7527 H 702.511 -3.54335 -2.95372 0
M  V30 7528 H 700.754 -3.37613 -2.72397 0
M  V30 7529 H 701.425 -3.38835 -4.3577 0
M  V30 7530 H 703.901 -1.52369 -3.87199 0
M  V30 7531 H 702.777 -1.59012 -5.25363 0
M  V30 7532 H 703.038 -0.0658891 -4.42051 0
M  V30 7533 N 702.098 1.27442 -0.927168 0
M  V30 7534 C 703.028 2.29256 -0.443188 0
M  V30 7535 C 704.009 1.62701 0.49624 0
M  V30 7536 O 705.194 1.90013 0.401105 0
M  V30 7537 C 702.324 3.45955 0.305366 0
M  V30 7538 C 701.278 4.24501 -0.546178 0
M  V30 7539 C 700.604 5.33671 0.331512 0
M  V30 7540 C 701.904 4.89921 -1.81037 0
M  V30 7541 H 703.598 2.69988 -1.29409 0
M  V30 7542 H 701.144 1.29792 -0.623705 0
M  V30 7543 H 703.097 4.1628 0.654885 0
M  V30 7544 H 701.821 3.04138 1.19029 0
M  V30 7545 H 700.48 3.55921 -0.878398 0
M  V30 7546 H 700.128 4.88096 1.21537 0
M  V30 7547 H 699.828 5.87131 -0.234746 0
M  V30 7548 H 701.352 6.0684 0.676614 0
M  V30 7549 H 702.766 5.52536 -1.52895 0
M  V30 7550 H 701.163 5.53436 -2.32009 0
M  V30 7551 H 702.233 4.13652 -2.53021 0
M  V30 7552 N 703.576 0.692616 1.41565 0
M  V30 7553 C 704.987 0.297478 1.84315 0
M  V30 7554 C 705.338 -1.16379 1.57957 0
M  V30 7555 O 704.463 -1.89303 1.0485 0
M  V30 7556 C 705.058 0.533136 3.34579 0
M  V30 7557 C 703.617 0.191944 3.7591 0
M  V30 7558 C 702.764 0.816873 2.64995 0
M  V30 7559 H 705.715 0.893488 1.31158 0
M  V30 7560 H 705.736 -0.209105 3.79925 0
M  V30 7561 H 705.248 1.59674 3.53731 0
M  V30 7562 H 703.349 -0.867512 3.6236 0
M  V30 7563 H 703.462 0.644902 4.7474 0
M  V30 7564 H 701.826 0.246715 2.53502 0
M  V30 7565 H 702.609 1.88429 2.86966 0
M  V30 7566 N 705.054 -1.51416 0.437162 0
M  V30 7567 C 706.004 -2.24599 -0.392311 0
M  V30 7568 C 706.988 -1.2682 -0.990221 0
M  V30 7569 O 708.18 -1.51912 -0.908391 0
M  V30 7570 C 705.309 -3.09134 -1.49301 0
M  V30 7571 C 704.395 -4.14342 -0.904503 0
M  V30 7572 N 704.786 -5.0578 -0.0451511 0
M  V30 7573 C 703.084 -4.30323 -1.1721 0
M  V30 7574 C 703.785 -5.81 0.285344 0
M  V30 7575 N 702.761 -5.42591 -0.330993 0
M  V30 7576 H 706.563 -2.92655 0.270221 0
M  V30 7577 H 704.077 -1.60476 0.249226 0
M  V30 7578 H 706.074 -3.6014 -2.10011 0
M  V30 7579 H 704.734 -2.42622 -2.15788 0
M  V30 7580 H 705.745 -5.16903 0.321271 0
M  V30 7581 H 702.422 -3.75037 -1.83448 0
M  V30 7582 H 703.812 -6.64646 0.984626 0
M  V30 7583 O 706.571 -0.309557 -1.58506 0
M  V30 7584 H 707.262 0.253272 -1.92037 0
M  V30 END ATOM
M  V30 BEGIN BOND
M  V30 END BOND
M  V30 END CTAB
M  END
$$$$
