drugbank_target|P04053 DNA nucleotidylexotransferase (DB02189)
 OpenBabel12092120543D

  0  0  0     0  0            999 V3000
M  V30 BEGIN CTAB
M  V30 COUNTS 19898 21337 0 0 0
M  V30 BEGIN ATOM
M  V30 1 H -1.547 9.37743 -1.21644 0
M  V30 2 O -1.44 8.89599 -0.40059 0
M  V30 3 P 0 8.91 0 0
M  V30 4 O 0.22 10.1746 0.733838 0
M  V30 5 O 0.79 8.73346 -1.23964 0
M  V30 6 O 0.25 7.66872 0.971405 0
M  V30 7 C -0.69 7.42405 2.04668 0
M  V30 8 C 0.04 6.86059 3.24661 0
M  V30 9 O 0.25 5.42934 3.03695 0
M  V30 10 C 1.44 7.41287 3.50796 0
M  V30 11 O 1.83 7.27073 4.86816 0
M  V30 12 C 2.32 6.5273 2.63741 0
M  V30 13 C 1.61 5.1842 2.73198 0
M  V30 14 N 1.66 4.38762 1.4784 0
M  V30 15 H -1.178 8.36899 2.3252 0
M  V30 16 H -1.45 6.70391 1.71179 0
M  V30 17 H -0.582 7.03638 4.13219 0
M  V30 18 H 2.073 4.59931 3.54016 0
M  V30 19 H 2.353 6.88995 1.59871 0
M  V30 20 H 3.344 6.4684 3.0373 0
M  V30 21 H 1.51 8.47002 3.20749 0
M  V30 22 P 3.37998 7.20834 5.23717 0
M  V30 23 O 3.59998 7.79853 6.57286 0
M  V30 24 O 4.16998 7.79239 4.12957 0
M  V30 25 O 3.62998 5.63315 5.29344 0
M  V30 26 C 2.68998 4.80255 6.01876 0
M  V30 27 C 3.41998 3.64202 6.65911 0
M  V30 28 O 3.62998 2.60694 5.64732 0
M  V30 29 C 4.81998 3.93473 7.1943 0
M  V30 30 O 5.20998 3.02071 8.21205 0
M  V30 31 C 5.69998 3.73047 5.97036 0
M  V30 32 C 4.98998 2.58828 5.25741 0
M  V30 33 N 5.03998 2.68068 3.77503 0
M  V30 34 H 2.20098 5.40332 6.79951 0
M  V30 35 H 1.93098 4.41613 5.32378 0
M  V30 36 H 2.79798 3.26331 7.47797 0
M  V30 37 P 6.75996 2.75334 8.47391 0
M  V30 38 O 6.97996 2.44571 9.90142 0
M  V30 39 O 7.54996 3.87688 7.92115 0
M  V30 40 O 7.00996 1.4459 7.59357 0
M  V30 41 C 6.06996 0.347608 7.69215 0
M  V30 42 C 6.79996 -0.96767 7.52806 0
M  V30 43 O 7.00996 -1.21036 6.1011 0
M  V30 44 C 8.19996 -1.04544 8.13308 0
M  V30 45 O 8.58996 -2.38311 8.41922 0
M  V30 46 C 9.07996 -0.491279 7.02284 0
M  V30 47 C 8.36996 -0.996264 5.77469 0
M  V30 48 N 8.41996 -0.0501916 4.62973 0
M  V30 49 H 5.58096 0.374722 8.67691 0
M  V30 50 H 5.31096 0.443485 6.90277 0
M  V30 51 H 6.17796 -1.75537 7.96793 0
M  V30 52 P 10.1399 -2.75334 8.47391 0
M  V30 53 O 10.3599 -3.84128 9.44797 0
M  V30 54 O 10.9299 -1.51947 8.68712 0
M  V30 55 O 10.3899 -3.29363 6.99321 0
M  V30 56 C 9.44994 -4.24011 6.4274 0
M  V30 57 C 10.1799 -5.20775 5.52155 0
M  V30 58 O 10.3899 -4.56534 4.22446 0
M  V30 59 C 11.5799 -5.62629 5.96531 0
M  V30 60 O 11.9699 -6.87667 5.41053 0
M  V30 61 C 12.4599 -4.52537 5.39283 0
M  V30 62 C 11.7499 -4.20027 4.08623 0
M  V30 63 N 11.7999 -2.76189 3.71603 0
M  V30 64 H 8.96094 -4.797 7.24003 0
M  V30 65 H 8.69094 -3.69856 5.84513 0
M  V30 66 H 9.55794 -6.10356 5.41441 0
M  V30 67 P 13.5199 -7.20834 5.23717 0
M  V30 68 O 13.7399 -8.66104 5.38572 0
M  V30 69 O 14.3099 -6.33544 6.1349 0
M  V30 70 O 13.7699 -6.7751 3.72168 0
M  V30 71 C 12.8299 -7.20825 2.7076 0
M  V30 72 C 13.5599 -7.45864 1.40599 0
M  V30 73 O 13.7699 -6.17651 0.734225 0
M  V30 74 C 14.9599 -8.05808 1.51899 0
M  V30 75 O 15.3499 -8.74358 0.335205 0
M  V30 76 C 15.8399 -6.83093 1.70294 0
M  V30 77 C 15.1299 -5.79992 0.836974 0
M  V30 78 N 15.1799 -4.41864 1.38293 0
M  V30 79 C 15.0999 -3.99538 2.69438 0
M  V30 80 N 15.1799 -2.69909 2.84277 0
M  V30 81 C 15.3199 -2.21719 1.5408 0
M  V30 82 C 15.4499 -0.891712 1.06628 0
M  V30 83 N 15.5699 -0.856846 -0.334985 0
M  V30 84 C 15.5699 -1.9641 -1.15789 0
M  V30 85 N 15.6999 -1.72708 -2.46522 0
M  V30 86 N 15.4399 -3.21165 -0.713741 0
M  V30 87 C 15.3199 -3.26797 0.639748 0
M  V30 88 H 12.3409 -8.13644 3.0377 0
M  V30 89 H 12.0709 -6.42788 2.55485 0
M  V30 90 H 12.9379 -8.12039 0.792769 0
M  V30 91 P 16.8999 -8.91 1.09116e-15 0
M  V30 92 O 17.1199 -10.1746 -0.733838 0
M  V30 93 O 17.6899 -8.73346 1.23964 0
M  V30 94 O 17.1499 -7.66872 -0.971405 0
M  V30 95 C 16.2099 -7.42405 -2.04668 0
M  V30 96 C 16.9399 -6.86059 -3.24661 0
M  V30 97 O 17.1499 -5.42934 -3.03695 0
M  V30 98 C 18.3399 -7.41287 -3.50796 0
M  V30 99 O 18.7299 -7.27073 -4.86816 0
M  V30 100 C 19.2199 -6.5273 -2.63741 0
M  V30 101 C 18.5099 -5.1842 -2.73198 0
M  V30 102 N 18.5599 -4.38762 -1.4784 0
M  V30 103 C 18.4799 -4.83651 -0.183876 0
M  V30 104 N 18.5499 -3.88759 0.699393 0
M  V30 105 C 18.6999 -2.7404 -0.0575568 0
M  V30 106 C 18.8299 -1.37902 0.293928 0
M  V30 107 N 18.8399 -0.938021 1.54797 0
M  V30 108 N 18.9499 -0.491817 -0.70549 0
M  V30 109 C 18.9399 -0.931735 -1.95979 0
M  V30 110 N 18.8199 -2.16017 -2.41481 0
M  V30 111 C 18.6999 -3.02547 -1.39121 0
M  V30 112 H 15.7219 -8.36899 -2.3252 0
M  V30 113 H 15.4499 -6.70391 -1.71179 0
M  V30 114 H 16.3179 -7.03638 -4.13219 0
M  V30 115 H 18.9729 -4.59931 -3.54016 0
M  V30 116 H 19.2529 -6.88995 -1.59871 0
M  V30 117 H 20.2439 -6.4684 -3.0373 0
M  V30 118 H 18.4099 -8.47002 -3.20749 0
M  V30 119 H 18.3689 -5.8885 0.0765548 0
M  V30 120 H 18.7499 -1.60276 2.32875 0
M  V30 121 H 18.9389 0.0699355 1.73859 0
M  V30 122 H 19.0469 -0.165507 -2.71897 0
M  V30 123 P 20.2799 -7.20834 -5.23717 0
M  V30 124 O 20.4999 -7.79853 -6.57286 0
M  V30 125 O 21.0699 -7.79239 -4.12957 0
M  V30 126 O 20.5299 -5.63315 -5.29344 0
M  V30 127 C 19.5899 -4.80255 -6.01876 0
M  V30 128 C 20.3199 -3.64202 -6.65911 0
M  V30 129 O 20.5299 -2.60694 -5.64732 0
M  V30 130 C 21.7199 -3.93473 -7.1943 0
M  V30 131 O 22.1099 -3.02071 -8.21205 0
M  V30 132 C 22.5999 -3.73047 -5.97036 0
M  V30 133 C 21.8899 -2.58828 -5.25741 0
M  V30 134 N 21.9399 -2.68068 -3.77503 0
M  V30 135 H 19.1009 -5.40332 -6.79951 0
M  V30 136 H 18.8309 -4.41613 -5.32378 0
M  V30 137 H 19.6979 -3.26331 -7.47797 0
M  V30 138 P 23.6599 -2.75334 -8.47391 0
M  V30 139 O 23.8799 -2.44619 -9.90336 0
M  V30 140 O 24.4499 -3.87776 -7.92294 0
M  V30 141 O 23.9099 -1.4459 -7.59357 0
M  V30 142 C 22.9699 -0.347653 -7.69315 0
M  V30 143 C 23.6999 0.96767 -7.52806 0
M  V30 144 O 23.9099 1.21055 -6.10208 0
M  V30 145 C 25.0999 1.04557 -8.13408 0
M  V30 146 O 25.4899 2.38311 -8.41922 0
M  V30 147 C 25.9799 0.491279 -7.02284 0
M  V30 148 C 25.2699 0.996264 -5.77469 0
M  V30 149 N 25.3199 0.0501916 -4.62973 0
M  V30 150 H 22.4819 -0.374765 -8.67791 0
M  V30 151 H 22.2099 -0.443613 -6.90476 0
M  V30 152 H 23.0779 1.75559 -7.96891 0
M  V30 153 H 25.7329 1.94563 -5.46818 0
M  V30 154 H 26.0129 -0.608651 -7.04676 0
M  V30 155 H 27.0039 0.889796 -7.09039 0
M  V30 156 H 25.1699 0.433128 -9.04664 0
M  V30 157 P 27.0398 2.75334 -8.47391 0
M  V30 158 O 27.2598 3.84128 -9.44797 0
M  V30 159 O 27.8298 1.51947 -8.68712 0
M  V30 160 O 27.2898 3.29363 -6.99321 0
M  V30 161 C 26.3498 4.24011 -6.4274 0
M  V30 162 C 27.0798 5.20775 -5.52155 0
M  V30 163 O 27.2898 4.56534 -4.22446 0
M  V30 164 C 28.4798 5.62629 -5.96531 0
M  V30 165 O 28.8698 6.87667 -5.41053 0
M  V30 166 C 29.3598 4.52537 -5.39283 0
M  V30 167 C 28.6498 4.20027 -4.08623 0
M  V30 168 N 28.6998 2.76189 -3.71603 0
M  V30 169 H 25.8608 4.797 -7.24003 0
M  V30 170 H 25.5908 3.69856 -5.84513 0
M  V30 171 H 26.4578 6.10356 -5.41441 0
M  V30 172 P 30.4198 7.20834 -5.23717 0
M  V30 173 O 30.6398 8.66104 -5.38572 0
M  V30 174 O 31.2098 6.33544 -6.1349 0
M  V30 175 O 30.6698 6.7751 -3.72168 0
M  V30 176 C 29.7298 7.20825 -2.7076 0
M  V30 177 C 30.4598 7.45864 -1.40599 0
M  V30 178 O 30.6698 6.17651 -0.734225 0
M  V30 179 C 31.8598 8.05808 -1.51899 0
M  V30 180 O 32.2498 8.74358 -0.335205 0
M  V30 181 C 32.7398 6.83093 -1.70294 0
M  V30 182 C 32.0298 5.79992 -0.836974 0
M  V30 183 N 32.0798 4.41864 -1.38293 0
M  V30 184 H 29.2408 8.13644 -3.0377 0
M  V30 185 H 28.9708 6.42788 -2.55485 0
M  V30 186 H 29.8378 8.12039 -0.792769 0
M  V30 187 P 33.7998 8.91 -2.18232e-15 0
M  V30 188 O 34.0198 10.1726 0.733694 0
M  V30 189 O 34.5898 8.73148 -1.23936 0
M  V30 190 O 34.0498 7.66872 0.971405 0
M  V30 191 C 33.1098 7.42309 2.04641 0
M  V30 192 C 33.8398 6.86059 3.24661 0
M  V30 193 O 34.0498 5.42847 3.03646 0
M  V30 194 C 35.2398 7.41196 3.50753 0
M  V30 195 O 35.6298 7.27073 4.86816 0
M  V30 196 C 36.1198 6.5273 2.63741 0
M  V30 197 C 35.4098 5.1842 2.73198 0
M  V30 198 N 35.4598 4.38762 1.4784 0
M  V30 199 H 32.6208 8.36803 2.32493 0
M  V30 200 H 32.3508 6.70197 1.71129 0
M  V30 201 H 33.2178 7.03551 4.13168 0
M  V30 202 P 37.1798 7.20834 5.23717 0
M  V30 203 O 37.3998 7.79853 6.57286 0
M  V30 204 O 37.9698 7.79239 4.12957 0
M  V30 205 O 37.4298 5.63315 5.29344 0
M  V30 206 C 36.4898 4.80255 6.01876 0
M  V30 207 C 37.2198 3.64202 6.65911 0
M  V30 208 O 37.4298 2.60694 5.64732 0
M  V30 209 C 38.6198 3.93473 7.1943 0
M  V30 210 O 39.0098 3.02071 8.21205 0
M  V30 211 C 39.4998 3.73047 5.97036 0
M  V30 212 C 38.7898 2.58828 5.25741 0
M  V30 213 N 38.8398 2.68068 3.77503 0
M  V30 214 C 38.7598 3.79715 2.96723 0
M  V30 215 N 38.8398 3.5377 1.68852 0
M  V30 216 C 38.9798 2.15054 1.63254 0
M  V30 217 C 39.1098 1.28964 0.518571 0
M  V30 218 N 39.2298 -0.0538097 0.918425 0
M  V30 219 C 39.2298 -0.494275 2.22578 0
M  V30 220 N 39.3598 -1.81086 2.40434 0
M  V30 221 N 39.0998 0.313645 3.27502 0
M  V30 222 C 38.9798 1.61829 2.91033 0
M  V30 223 H 36.0008 5.40332 6.79951 0
M  V30 224 H 35.7308 4.41613 5.32378 0
M  V30 225 H 36.5978 3.26331 7.47797 0
M  V30 226 P 40.5598 2.75334 8.47391 0
M  V30 227 O 40.7798 2.44571 9.90142 0
M  V30 228 O 41.3498 3.87688 7.92115 0
M  V30 229 O 40.8098 1.4459 7.59357 0
M  V30 230 C 39.8698 0.347608 7.69215 0
M  V30 231 C 40.5998 -0.96767 7.52806 0
M  V30 232 O 40.8098 -1.21036 6.1011 0
M  V30 233 C 41.9998 -1.04544 8.13308 0
M  V30 234 O 42.3898 -2.38311 8.41922 0
M  V30 235 C 42.8798 -0.491279 7.02284 0
M  V30 236 C 42.1698 -0.996264 5.77469 0
M  V30 237 N 42.2198 -0.0501916 4.62973 0
M  V30 238 H 39.3808 0.374722 8.67691 0
M  V30 239 H 39.1108 0.443485 6.90277 0
M  V30 240 H 39.9778 -1.75537 7.96793 0
M  V30 241 P 43.9397 -2.75334 8.47391 0
M  V30 242 O 44.1597 -3.84128 9.44797 0
M  V30 243 O 44.7297 -1.51947 8.68712 0
M  V30 244 O 44.1897 -3.29363 6.99321 0
M  V30 245 C 43.2497 -4.24011 6.4274 0
M  V30 246 C 43.9797 -5.20775 5.52155 0
M  V30 247 O 44.1897 -4.56534 4.22446 0
M  V30 248 C 45.3797 -5.62629 5.96531 0
M  V30 249 O 45.7697 -6.87667 5.41053 0
M  V30 250 C 46.2597 -4.52537 5.39283 0
M  V30 251 C 45.5497 -4.20027 4.08623 0
M  V30 252 N 45.5997 -2.76189 3.71603 0
M  V30 253 H 42.7607 -4.797 7.24003 0
M  V30 254 H 42.4907 -3.69856 5.84513 0
M  V30 255 H 43.3577 -6.10356 5.41441 0
M  V30 256 P 47.3197 -7.20834 5.23717 0
M  V30 257 O 47.5397 -8.66104 5.38572 0
M  V30 258 O 48.1097 -6.33544 6.1349 0
M  V30 259 O 47.5697 -6.7751 3.72168 0
M  V30 260 C 46.6297 -7.20825 2.7076 0
M  V30 261 C 47.3597 -7.45864 1.40599 0
M  V30 262 O 47.5697 -6.17651 0.734225 0
M  V30 263 C 48.7597 -8.05808 1.51899 0
M  V30 264 O 49.1497 -8.74358 0.335205 0
M  V30 265 C 49.6397 -6.83093 1.70294 0
M  V30 266 C 48.9297 -5.79992 0.836974 0
M  V30 267 N 48.9797 -4.41864 1.38293 0
M  V30 268 C 48.8997 -3.99538 2.69438 0
M  V30 269 N 48.9797 -2.69909 2.84277 0
M  V30 270 C 49.1197 -2.21719 1.5408 0
M  V30 271 C 49.2497 -0.891712 1.06628 0
M  V30 272 N 49.3697 -0.856846 -0.334985 0
M  V30 273 C 49.3697 -1.9641 -1.15789 0
M  V30 274 N 49.4997 -1.72708 -2.46522 0
M  V30 275 N 49.2397 -3.21165 -0.713741 0
M  V30 276 C 49.1197 -3.26797 0.639748 0
M  V30 277 H 46.1407 -8.13644 3.0377 0
M  V30 278 H 45.8707 -6.42788 2.55485 0
M  V30 279 H 46.7377 -8.12039 0.792769 0
M  V30 280 P 50.6997 -8.91 3.27348e-15 0
M  V30 281 O 50.9197 -10.1726 -0.733694 0
M  V30 282 O 51.4897 -8.73148 1.23936 0
M  V30 283 O 50.9497 -7.66872 -0.971405 0
M  V30 284 C 50.0097 -7.42309 -2.04641 0
M  V30 285 C 50.7397 -6.86059 -3.24661 0
M  V30 286 O 50.9497 -5.42847 -3.03646 0
M  V30 287 C 52.1397 -7.41196 -3.50753 0
M  V30 288 O 52.5297 -7.27073 -4.86816 0
M  V30 289 C 53.0197 -6.5273 -2.63741 0
M  V30 290 C 52.3097 -5.1842 -2.73198 0
M  V30 291 N 52.3597 -4.38762 -1.4784 0
M  V30 292 H 49.5207 -8.36803 -2.32493 0
M  V30 293 H 49.2507 -6.70197 -1.71129 0
M  V30 294 H 50.1177 -7.03551 -4.13168 0
M  V30 295 P 54.0797 -7.20834 -5.23717 0
M  V30 296 O 54.2997 -7.79853 -6.57286 0
M  V30 297 O 54.8697 -7.79239 -4.12957 0
M  V30 298 O 54.3297 -5.63315 -5.29344 0
M  V30 299 C 53.3897 -4.80255 -6.01876 0
M  V30 300 C 54.1197 -3.64202 -6.65911 0
M  V30 301 O 54.3297 -2.60694 -5.64732 0
M  V30 302 C 55.5197 -3.93473 -7.1943 0
M  V30 303 O 55.9097 -3.02071 -8.21205 0
M  V30 304 C 56.3997 -3.73047 -5.97036 0
M  V30 305 C 55.6897 -2.58828 -5.25741 0
M  V30 306 N 55.7397 -2.68068 -3.77503 0
M  V30 307 C 55.6597 -3.79715 -2.96723 0
M  V30 308 N 55.7397 -3.5377 -1.68852 0
M  V30 309 C 55.8797 -2.15054 -1.63254 0
M  V30 310 C 56.0097 -1.28964 -0.518571 0
M  V30 311 N 56.1297 0.0538097 -0.918425 0
M  V30 312 C 56.1297 0.494275 -2.22578 0
M  V30 313 N 56.2597 1.81086 -2.40434 0
M  V30 314 N 55.9997 -0.313645 -3.27502 0
M  V30 315 C 55.8797 -1.61829 -2.91033 0
M  V30 316 H 52.9007 -5.40332 -6.79951 0
M  V30 317 H 52.6307 -4.41613 -5.32378 0
M  V30 318 H 53.4977 -3.26331 -7.47797 0
M  V30 319 P 57.4597 -2.75334 -8.47391 0
M  V30 320 O 57.6797 -2.44571 -9.90142 0
M  V30 321 O 58.2497 -3.87688 -7.92115 0
M  V30 322 O 57.7097 -1.4459 -7.59357 0
M  V30 323 C 56.7697 -0.347608 -7.69215 0
M  V30 324 C 57.4997 0.96767 -7.52806 0
M  V30 325 O 57.7097 1.21036 -6.1011 0
M  V30 326 C 58.8997 1.04544 -8.13308 0
M  V30 327 O 59.2897 2.38311 -8.41922 0
M  V30 328 C 59.7797 0.491279 -7.02284 0
M  V30 329 C 59.0697 0.996264 -5.77469 0
M  V30 330 N 59.1197 0.0501916 -4.62973 0
M  V30 331 H 56.2807 -0.374722 -8.67691 0
M  V30 332 H 56.0107 -0.443485 -6.90277 0
M  V30 333 H 56.8777 1.75537 -7.96793 0
M  V30 334 P 60.8396 2.75334 -8.47391 0
M  V30 335 O 61.0596 3.84166 -9.4489 0
M  V30 336 O 61.6296 1.51964 -8.6881 0
M  V30 337 O 61.0896 3.29363 -6.99321 0
M  V30 338 C 60.1496 4.23956 -6.42656 0
M  V30 339 C 60.8796 5.20775 -5.52155 0
M  V30 340 O 61.0896 4.56534 -4.22446 0
M  V30 341 C 62.2796 5.62629 -5.96531 0
M  V30 342 O 62.6696 6.87667 -5.41053 0
M  V30 343 C 63.1596 4.52537 -5.39283 0
M  V30 344 C 62.4496 4.20027 -4.08623 0
M  V30 345 N 62.4996 2.7613 -3.71522 0
M  V30 346 C 62.6496 2.45612 -2.37989 0
M  V30 347 O 62.7396 3.30919 -1.51621 0
M  V30 348 N 62.6896 1.10684 -2.08435 0
M  V30 349 C 62.5996 0.0690084 -2.9792 0
M  V30 350 O 62.6496 -1.10553 -2.59426 0
M  V30 351 C 62.4496 0.481522 -4.35345 0
M  V30 352 C 62.3396 -0.618778 -5.36443 0
M  V30 353 C 62.3996 1.78906 -4.67968 0
M  V30 354 H 59.6596 4.797 -7.24003 0
M  V30 355 H 59.3906 3.69802 -5.84429 0
M  V30 356 H 60.2576 6.10356 -5.41441 0
M  V30 357 H 62.9126 4.78651 -3.27911 0
M  V30 358 H 63.1916 3.64957 -6.05871 0
M  V30 359 H 64.1836 4.8868 -5.2125 0
M  V30 360 H 62.3496 5.66726 -7.06352 0
M  V30 361 H 62.2786 2.07737 -5.72367 0
M  V30 362 H 63.3086 -0.754375 -5.86871 0
M  V30 363 H 61.5716 -0.359721 -6.10641 0
M  V30 364 H 62.0596 -1.55533 -4.8581 0
M  V30 365 H 62.7956 0.862651 -1.12037 0
M  V30 366 P 64.2196 7.20834 -5.23717 0
M  V30 367 O 64.4396 8.66104 -5.38572 0
M  V30 368 O 65.0096 6.33544 -6.1349 0
M  V30 369 O 64.4696 6.7751 -3.72168 0
M  V30 370 C 63.5296 7.20825 -2.7076 0
M  V30 371 C 64.2596 7.45864 -1.40599 0
M  V30 372 O 64.4696 6.17651 -0.734225 0
M  V30 373 C 65.6596 8.05808 -1.51899 0
M  V30 374 O 66.0496 8.74358 -0.335205 0
M  V30 375 C 66.5396 6.83093 -1.70294 0
M  V30 376 C 65.8296 5.79992 -0.836974 0
M  V30 377 N 65.8796 4.41864 -1.38293 0
M  V30 378 C 65.7996 3.99538 -2.69438 0
M  V30 379 N 65.8796 2.69909 -2.84277 0
M  V30 380 C 66.0196 2.21719 -1.5408 0
M  V30 381 C 66.1496 0.891712 -1.06628 0
M  V30 382 O 66.1696 -0.161298 -1.70137 0
M  V30 383 N 66.2696 0.856846 0.334985 0
M  V30 384 C 66.2696 1.9641 1.15789 0
M  V30 385 N 66.3996 1.72708 2.46522 0
M  V30 386 N 66.1396 3.21165 0.713741 0
M  V30 387 C 66.0196 3.26797 -0.639748 0
M  V30 388 H 63.0406 8.13644 -3.0377 0
M  V30 389 H 62.7706 6.42788 -2.55485 0
M  V30 390 H 63.6376 8.12039 -0.792769 0
M  V30 391 H 66.2926 5.80061 0.166416 0
M  V30 392 H 66.5716 6.51287 -2.75604 0
M  V30 393 H 67.5636 7.01734 -1.34462 0
M  V30 394 H 65.7296 8.73674 -2.38337 0
M  V30 395 H 65.6806 4.68207 -3.53221 0
M  V30 396 H 66.3626 -0.0398818 0.767965 0
M  V30 397 H 66.3996 2.50995 3.13503 0
M  V30 398 H 66.5006 0.759148 2.80716 0
M  V30 399 P 67.5996 8.91 -4.36464e-15 0
M  V30 400 O 67.8196 10.1746 0.733838 0
M  V30 401 O 68.3896 8.73346 -1.23964 0
M  V30 402 O 67.8496 7.66872 0.971405 0
M  V30 403 C 66.9096 7.42405 2.04668 0
M  V30 404 C 67.6396 6.86059 3.24661 0
M  V30 405 O 67.8496 5.42934 3.03695 0
M  V30 406 C 69.0396 7.41287 3.50796 0
M  V30 407 O 69.4296 7.27073 4.86816 0
M  V30 408 C 69.9196 6.5273 2.63741 0
M  V30 409 C 69.2096 5.1842 2.73198 0
M  V30 410 N 69.2596 4.38762 1.4784 0
M  V30 411 C 69.1796 4.83651 0.183876 0
M  V30 412 N 69.2496 3.88759 -0.699393 0
M  V30 413 C 69.3996 2.7404 0.0575568 0
M  V30 414 C 69.5296 1.37902 -0.293928 0
M  V30 415 N 69.5396 0.938021 -1.54797 0
M  V30 416 N 69.6496 0.491817 0.70549 0
M  V30 417 C 69.6396 0.931735 1.95979 0
M  V30 418 N 69.5196 2.16017 2.41481 0
M  V30 419 C 69.3996 3.02547 1.39121 0
M  V30 420 H 66.4216 8.36899 2.3252 0
M  V30 421 H 66.1496 6.70391 1.71179 0
M  V30 422 H 67.0176 7.03638 4.13219 0
M  V30 423 H 69.6726 4.59931 3.54016 0
M  V30 424 H 69.9526 6.88995 1.59871 0
M  V30 425 H 70.9436 6.4684 3.0373 0
M  V30 426 H 69.1096 8.47002 3.20749 0
M  V30 427 H 69.0686 5.8885 -0.0765548 0
M  V30 428 H 69.4496 1.60276 -2.32875 0
M  V30 429 H 69.6386 -0.0699355 -1.73859 0
M  V30 430 H 69.7466 0.165507 2.71897 0
M  V30 431 P 70.9796 7.20834 5.23717 0
M  V30 432 O 71.1996 7.79853 6.57286 0
M  V30 433 O 71.7696 7.79239 4.12957 0
M  V30 434 O 71.2296 5.63315 5.29344 0
M  V30 435 C 70.2896 4.80255 6.01876 0
M  V30 436 C 71.0196 3.64202 6.65911 0
M  V30 437 O 71.2296 2.60694 5.64732 0
M  V30 438 C 72.4196 3.93473 7.1943 0
M  V30 439 O 72.8096 3.02071 8.21205 0
M  V30 440 C 73.2996 3.73047 5.97036 0
M  V30 441 C 72.5896 2.58828 5.25741 0
M  V30 442 N 72.6396 2.68068 3.77503 0
M  V30 443 H 69.8006 5.40332 6.79951 0
M  V30 444 H 69.5306 4.41613 5.32378 0
M  V30 445 H 70.3976 3.26331 7.47797 0
M  V30 446 P 74.3596 2.75334 8.47391 0
M  V30 447 O 74.5796 2.44619 9.90336 0
M  V30 448 O 75.1496 3.87776 7.92294 0
M  V30 449 O 74.6096 1.4459 7.59357 0
M  V30 450 C 73.6696 0.347653 7.69315 0
M  V30 451 C 74.3996 -0.96767 7.52806 0
M  V30 452 O 74.6096 -1.21055 6.10208 0
M  V30 453 C 75.7996 -1.04557 8.13408 0
M  V30 454 O 76.1896 -2.38311 8.41922 0
M  V30 455 C 76.6796 -0.491279 7.02284 0
M  V30 456 C 75.9696 -0.996264 5.77469 0
M  V30 457 N 76.0196 -0.0501916 4.62973 0
M  V30 458 H 73.1816 0.374765 8.67791 0
M  V30 459 H 72.9096 0.443613 6.90476 0
M  V30 460 H 73.7776 -1.75559 7.96891 0
M  V30 461 H 76.4326 -1.94563 5.46818 0
M  V30 462 H 76.7126 0.608651 7.04676 0
M  V30 463 H 77.7036 -0.889796 7.09039 0
M  V30 464 H 75.8696 -0.433128 9.04664 0
M  V30 465 P 77.7395 -2.75334 8.47391 0
M  V30 466 O 77.9595 -3.84204 9.44982 0
M  V30 467 O 78.5295 -1.51982 8.68909 0
M  V30 468 O 77.9895 -3.29363 6.99321 0
M  V30 469 C 77.0495 -4.24066 6.42823 0
M  V30 470 C 77.7795 -5.20775 5.52155 0
M  V30 471 O 77.9895 -4.56607 4.22514 0
M  V30 472 C 79.1795 -5.62697 5.96604 0
M  V30 473 O 79.5695 -6.87667 5.41053 0
M  V30 474 C 80.0595 -4.52537 5.39283 0
M  V30 475 C 79.3495 -4.20027 4.08623 0
M  V30 476 N 79.3995 -2.76189 3.71603 0
M  V30 477 C 79.3195 -1.66944 4.54297 0
M  V30 478 N 79.3895 -0.536169 3.91344 0
M  V30 479 C 79.5395 -0.901569 2.58849 0
M  V30 480 C 79.6695 -0.146599 1.40236 0
M  V30 481 N 79.6795 1.18234 1.37046 0
M  V30 482 N 79.7895 -0.822941 0.249738 0
M  V30 483 C 79.7795 -2.15179 0.280525 0
M  V30 484 N 79.6595 -2.96414 1.30822 0
M  V30 485 C 79.5395 -2.25804 2.44748 0
M  V30 486 H 76.5615 -4.79756 7.24086 0
M  V30 487 H 76.2895 -3.69963 5.84682 0
M  V30 488 H 77.1575 -6.10431 5.41508 0
M  V30 489 H 79.8125 -4.78816 3.28024 0
M  V30 490 H 80.0925 -3.64957 6.05871 0
M  V30 491 H 81.0835 -4.88748 5.21323 0
M  V30 492 H 79.2495 -5.66789 7.0643 0
M  V30 493 H 79.2085 -1.74684 5.62396 0
M  V30 494 H 79.5895 1.71949 2.24394 0
M  V30 495 H 79.7785 1.67511 0.470742 0
M  V30 496 H 79.8865 -2.63704 -0.6828 0
M  V30 497 P 81.1195 -7.20834 5.23717 0
M  V30 498 O 81.3395 -8.66104 5.38572 0
M  V30 499 O 81.9095 -6.33544 6.1349 0
M  V30 500 O 81.3695 -6.7751 3.72168 0
M  V30 501 C 80.4295 -7.20825 2.7076 0
M  V30 502 C 81.1595 -7.45864 1.40599 0
M  V30 503 O 81.3695 -6.17651 0.734225 0
M  V30 504 C 82.5595 -8.05808 1.51899 0
M  V30 505 O 82.9495 -8.74358 0.335205 0
M  V30 506 C 83.4395 -6.83093 1.70294 0
M  V30 507 C 82.7295 -5.79992 0.836974 0
M  V30 508 N 82.7795 -4.41864 1.38293 0
M  V30 509 H 79.9405 -8.13644 3.0377 0
M  V30 510 H 79.6705 -6.42788 2.55485 0
M  V30 511 H 80.5375 -8.12039 0.792769 0
M  V30 512 P 84.4995 -8.91 5.4558e-15 0
M  V30 513 O 84.7195 -10.1726 -0.733694 0
M  V30 514 O 85.2895 -8.73148 1.23936 0
M  V30 515 O 84.7495 -7.66872 -0.971405 0
M  V30 516 C 83.8095 -7.42309 -2.04641 0
M  V30 517 C 84.5395 -6.86059 -3.24661 0
M  V30 518 O 84.7495 -5.42847 -3.03646 0
M  V30 519 C 85.9395 -7.41196 -3.50753 0
M  V30 520 O 86.3295 -7.27073 -4.86816 0
M  V30 521 C 86.8195 -6.5273 -2.63741 0
M  V30 522 C 86.1095 -5.1842 -2.73198 0
M  V30 523 N 86.1595 -4.38762 -1.4784 0
M  V30 524 H 83.3205 -8.36803 -2.32493 0
M  V30 525 H 83.0505 -6.70197 -1.71129 0
M  V30 526 H 83.9175 -7.03551 -4.13168 0
M  V30 527 P 87.8795 -7.20834 -5.23717 0
M  V30 528 O 88.0995 -7.79853 -6.57286 0
M  V30 529 O 88.6695 -7.79239 -4.12957 0
M  V30 530 O 88.1295 -5.63315 -5.29344 0
M  V30 531 C 87.1895 -4.80255 -6.01876 0
M  V30 532 C 87.9195 -3.64202 -6.65911 0
M  V30 533 O 88.1295 -2.60694 -5.64732 0
M  V30 534 C 89.3195 -3.93473 -7.1943 0
M  V30 535 O 89.7095 -3.02071 -8.21205 0
M  V30 536 C 90.1995 -3.73047 -5.97036 0
M  V30 537 C 89.4895 -2.58828 -5.25741 0
M  V30 538 N 89.5395 -2.68068 -3.77503 0
M  V30 539 H 86.7005 -5.40332 -6.79951 0
M  V30 540 H 86.4305 -4.41613 -5.32378 0
M  V30 541 H 87.2975 -3.26331 -7.47797 0
M  V30 542 P 91.2595 -2.75334 -8.47391 0
M  V30 543 O 91.4795 -2.44571 -9.90142 0
M  V30 544 O 92.0495 -3.87688 -7.92115 0
M  V30 545 O 91.5095 -1.4459 -7.59357 0
M  V30 546 C 90.5695 -0.347608 -7.69215 0
M  V30 547 C 91.2995 0.96767 -7.52806 0
M  V30 548 O 91.5095 1.21036 -6.1011 0
M  V30 549 C 92.6995 1.04544 -8.13308 0
M  V30 550 O 93.0895 2.38311 -8.41922 0
M  V30 551 C 93.5795 0.491279 -7.02284 0
M  V30 552 C 92.8695 0.996264 -5.77469 0
M  V30 553 N 92.9195 0.0501916 -4.62973 0
M  V30 554 H 90.0805 -0.374722 -8.67691 0
M  V30 555 H 89.8105 -0.443485 -6.90277 0
M  V30 556 H 90.6775 1.75537 -7.96793 0
M  V30 557 P 94.6394 2.75334 -8.47391 0
M  V30 558 O 94.8594 3.84128 -9.44797 0
M  V30 559 O 95.4294 1.51947 -8.68712 0
M  V30 560 O 94.8894 3.29363 -6.99321 0
M  V30 561 C 93.9494 4.24011 -6.4274 0
M  V30 562 C 94.6794 5.20775 -5.52155 0
M  V30 563 O 94.8894 4.56534 -4.22446 0
M  V30 564 C 96.0794 5.62629 -5.96531 0
M  V30 565 O 96.4694 6.87667 -5.41053 0
M  V30 566 C 96.9594 4.52537 -5.39283 0
M  V30 567 C 96.2494 4.20027 -4.08623 0
M  V30 568 N 96.2994 2.76189 -3.71603 0
M  V30 569 H 93.4604 4.797 -7.24003 0
M  V30 570 H 93.1904 3.69856 -5.84513 0
M  V30 571 H 94.0574 6.10356 -5.41441 0
M  V30 572 P 98.0194 7.20834 -5.23717 0
M  V30 573 O 98.2394 8.66104 -5.38572 0
M  V30 574 O 98.8094 6.33544 -6.1349 0
M  V30 575 O 98.2694 6.7751 -3.72168 0
M  V30 576 C 97.3294 7.20825 -2.7076 0
M  V30 577 C 98.0594 7.45864 -1.40599 0
M  V30 578 O 98.2694 6.17651 -0.734225 0
M  V30 579 C 99.4594 8.05808 -1.51899 0
M  V30 580 O 99.8494 8.74358 -0.335205 0
M  V30 581 C 100.339 6.83093 -1.70294 0
M  V30 582 C 99.6294 5.79992 -0.836974 0
M  V30 583 N 99.6794 4.41864 -1.38293 0
M  V30 584 H 96.8404 8.13644 -3.0377 0
M  V30 585 H 96.5704 6.42788 -2.55485 0
M  V30 586 H 97.4374 8.12039 -0.792769 0
M  V30 587 P 101.399 8.91 -6.54696e-15 0
M  V30 588 O 101.619 10.1726 0.733694 0
M  V30 589 O 102.189 8.73148 -1.23936 0
M  V30 590 O 101.649 7.66872 0.971405 0
M  V30 591 C 100.709 7.42309 2.04641 0
M  V30 592 C 101.439 6.86059 3.24661 0
M  V30 593 O 101.649 5.42847 3.03646 0
M  V30 594 C 102.839 7.41196 3.50753 0
M  V30 595 O 103.229 7.27073 4.86816 0
M  V30 596 C 103.719 6.5273 2.63741 0
M  V30 597 C 103.009 5.1842 2.73198 0
M  V30 598 N 103.059 4.38762 1.4784 0
M  V30 599 H 100.22 8.36803 2.32493 0
M  V30 600 H 99.9504 6.70197 1.71129 0
M  V30 601 H 100.817 7.03551 4.13168 0
M  V30 602 P 104.779 7.20834 5.23717 0
M  V30 603 O 104.999 7.79853 6.57286 0
M  V30 604 O 105.569 7.79239 4.12957 0
M  V30 605 O 105.029 5.63315 5.29344 0
M  V30 606 C 104.089 4.80255 6.01876 0
M  V30 607 C 104.819 3.64202 6.65911 0
M  V30 608 O 105.029 2.60694 5.64732 0
M  V30 609 C 106.219 3.93473 7.1943 0
M  V30 610 O 106.609 3.02071 8.21205 0
M  V30 611 C 107.099 3.73047 5.97036 0
M  V30 612 C 106.389 2.58828 5.25741 0
M  V30 613 N 106.439 2.68068 3.77503 0
M  V30 614 H 103.6 5.40332 6.79951 0
M  V30 615 H 103.33 4.41613 5.32378 0
M  V30 616 H 104.197 3.26331 7.47797 0
M  V30 617 P 108.159 2.75334 8.47391 0
M  V30 618 O 108.379 2.44571 9.90142 0
M  V30 619 O 108.949 3.87688 7.92115 0
M  V30 620 O 108.409 1.4459 7.59357 0
M  V30 621 C 107.469 0.347608 7.69215 0
M  V30 622 C 108.199 -0.96767 7.52806 0
M  V30 623 O 108.409 -1.21036 6.1011 0
M  V30 624 C 109.599 -1.04544 8.13308 0
M  V30 625 O 109.989 -2.38311 8.41922 0
M  V30 626 C 110.479 -0.491279 7.02284 0
M  V30 627 C 109.769 -0.996264 5.77469 0
M  V30 628 N 109.819 -0.0501916 4.62973 0
M  V30 629 H 106.98 0.374722 8.67691 0
M  V30 630 H 106.71 0.443485 6.90277 0
M  V30 631 H 107.577 -1.75537 7.96793 0
M  V30 632 P 111.539 -2.75334 8.47391 0
M  V30 633 O 111.759 -3.84128 9.44797 0
M  V30 634 O 112.329 -1.51947 8.68712 0
M  V30 635 O 111.789 -3.29363 6.99321 0
M  V30 636 C 110.849 -4.24011 6.4274 0
M  V30 637 C 111.579 -5.20775 5.52155 0
M  V30 638 O 111.789 -4.56534 4.22446 0
M  V30 639 C 112.979 -5.62629 5.96531 0
M  V30 640 O 113.369 -6.87667 5.41053 0
M  V30 641 C 113.859 -4.52537 5.39283 0
M  V30 642 C 113.149 -4.20027 4.08623 0
M  V30 643 N 113.199 -2.76189 3.71603 0
M  V30 644 H 110.36 -4.797 7.24003 0
M  V30 645 H 110.09 -3.69856 5.84513 0
M  V30 646 H 110.957 -6.10356 5.41441 0
M  V30 647 P 114.919 -7.20834 5.23717 0
M  V30 648 O 115.139 -8.66104 5.38572 0
M  V30 649 O 115.709 -6.33544 6.1349 0
M  V30 650 O 115.169 -6.7751 3.72168 0
M  V30 651 C 114.229 -7.20825 2.7076 0
M  V30 652 C 114.959 -7.45864 1.40599 0
M  V30 653 O 115.169 -6.17651 0.734225 0
M  V30 654 C 116.359 -8.05808 1.51899 0
M  V30 655 O 116.749 -8.74358 0.335205 0
M  V30 656 C 117.239 -6.83093 1.70294 0
M  V30 657 C 116.529 -5.79992 0.836974 0
M  V30 658 N 116.579 -4.41864 1.38293 0
M  V30 659 H 113.74 -8.13644 3.0377 0
M  V30 660 H 113.47 -6.42788 2.55485 0
M  V30 661 H 114.337 -8.12039 0.792769 0
M  V30 662 P 118.299 -8.91 7.63812e-15 0
M  V30 663 O 118.519 -10.1726 -0.733694 0
M  V30 664 O 119.089 -8.73148 1.23936 0
M  V30 665 O 118.549 -7.66872 -0.971405 0
M  V30 666 C 117.609 -7.42309 -2.04641 0
M  V30 667 C 118.339 -6.86059 -3.24661 0
M  V30 668 O 118.549 -5.42847 -3.03646 0
M  V30 669 C 119.739 -7.41196 -3.50753 0
M  V30 670 O 120.129 -7.27073 -4.86816 0
M  V30 671 C 120.619 -6.5273 -2.63741 0
M  V30 672 C 119.909 -5.1842 -2.73198 0
M  V30 673 N 119.959 -4.38762 -1.4784 0
M  V30 674 H 117.12 -8.36803 -2.32493 0
M  V30 675 H 116.85 -6.70197 -1.71129 0
M  V30 676 H 117.717 -7.03551 -4.13168 0
M  V30 677 P 121.679 -7.20834 -5.23717 0
M  V30 678 O 121.899 -7.79853 -6.57286 0
M  V30 679 O 122.469 -7.79239 -4.12957 0
M  V30 680 O 121.929 -5.63315 -5.29344 0
M  V30 681 C 120.989 -4.80255 -6.01876 0
M  V30 682 C 121.719 -3.64202 -6.65911 0
M  V30 683 O 121.929 -2.60694 -5.64732 0
M  V30 684 C 123.119 -3.93473 -7.1943 0
M  V30 685 O 123.509 -3.02071 -8.21205 0
M  V30 686 C 123.999 -3.73047 -5.97036 0
M  V30 687 C 123.289 -2.58828 -5.25741 0
M  V30 688 N 123.339 -2.68068 -3.77503 0
M  V30 689 H 120.5 -5.40332 -6.79951 0
M  V30 690 H 120.23 -4.41613 -5.32378 0
M  V30 691 H 121.097 -3.26331 -7.47797 0
M  V30 692 P 125.059 -2.75334 -8.47391 0
M  V30 693 O 125.279 -2.44571 -9.90142 0
M  V30 694 O 125.849 -3.87688 -7.92115 0
M  V30 695 O 125.309 -1.4459 -7.59357 0
M  V30 696 C 124.369 -0.347608 -7.69215 0
M  V30 697 C 125.099 0.96767 -7.52806 0
M  V30 698 O 125.309 1.21036 -6.1011 0
M  V30 699 C 126.499 1.04544 -8.13308 0
M  V30 700 O 126.889 2.38311 -8.41922 0
M  V30 701 C 127.379 0.491279 -7.02284 0
M  V30 702 C 126.669 0.996264 -5.77469 0
M  V30 703 N 126.719 0.0501916 -4.62973 0
M  V30 704 H 123.88 -0.374722 -8.67691 0
M  V30 705 H 123.61 -0.443485 -6.90277 0
M  V30 706 H 124.477 1.75537 -7.96793 0
M  V30 707 P 128.439 2.75334 -8.47391 0
M  V30 708 O 128.659 3.84128 -9.44797 0
M  V30 709 O 129.229 1.51947 -8.68712 0
M  V30 710 O 128.689 3.29363 -6.99321 0
M  V30 711 C 127.749 4.24011 -6.4274 0
M  V30 712 C 128.479 5.20775 -5.52155 0
M  V30 713 O 128.689 4.56534 -4.22446 0
M  V30 714 C 129.879 5.62629 -5.96531 0
M  V30 715 O 130.269 6.87667 -5.41053 0
M  V30 716 C 130.759 4.52537 -5.39283 0
M  V30 717 C 130.049 4.20027 -4.08623 0
M  V30 718 N 130.099 2.76189 -3.71603 0
M  V30 719 H 127.26 4.797 -7.24003 0
M  V30 720 H 126.99 3.69856 -5.84513 0
M  V30 721 H 127.857 6.10356 -5.41441 0
M  V30 722 P 131.819 7.20834 -5.23717 0
M  V30 723 O 132.039 8.66104 -5.38572 0
M  V30 724 O 132.609 6.33544 -6.1349 0
M  V30 725 O 132.069 6.7751 -3.72168 0
M  V30 726 C 131.129 7.20825 -2.7076 0
M  V30 727 C 131.859 7.45864 -1.40599 0
M  V30 728 O 132.069 6.17651 -0.734225 0
M  V30 729 C 133.259 8.05808 -1.51899 0
M  V30 730 O 133.649 8.74358 -0.335205 0
M  V30 731 C 134.139 6.83093 -1.70294 0
M  V30 732 C 133.429 5.79992 -0.836974 0
M  V30 733 N 133.479 4.41864 -1.38293 0
M  V30 734 H 130.64 8.13644 -3.0377 0
M  V30 735 H 130.37 6.42788 -2.55485 0
M  V30 736 H 131.237 8.12039 -0.792769 0
M  V30 737 P 135.199 8.91 -8.72928e-15 0
M  V30 738 O 135.419 10.1726 0.733694 0
M  V30 739 O 135.989 8.73148 -1.23936 0
M  V30 740 O 135.449 7.66872 0.971405 0
M  V30 741 C 134.509 7.42309 2.04641 0
M  V30 742 C 135.239 6.86059 3.24661 0
M  V30 743 O 135.449 5.42847 3.03646 0
M  V30 744 C 136.639 7.41196 3.50753 0
M  V30 745 O 137.029 7.27073 4.86816 0
M  V30 746 C 137.519 6.5273 2.63741 0
M  V30 747 C 136.809 5.1842 2.73198 0
M  V30 748 N 136.859 4.38762 1.4784 0
M  V30 749 H 134.02 8.36803 2.32493 0
M  V30 750 H 133.75 6.70197 1.71129 0
M  V30 751 H 134.617 7.03551 4.13168 0
M  V30 752 P 138.579 7.20834 5.23717 0
M  V30 753 O 138.799 7.79853 6.57286 0
M  V30 754 O 139.369 7.79239 4.12957 0
M  V30 755 O 138.829 5.63315 5.29344 0
M  V30 756 C 137.889 4.80255 6.01876 0
M  V30 757 C 138.619 3.64202 6.65911 0
M  V30 758 O 138.829 2.60694 5.64732 0
M  V30 759 C 140.019 3.93473 7.1943 0
M  V30 760 O 140.409 3.02071 8.21205 0
M  V30 761 C 140.899 3.73047 5.97036 0
M  V30 762 C 140.189 2.58828 5.25741 0
M  V30 763 N 140.239 2.68068 3.77503 0
M  V30 764 H 137.4 5.40332 6.79951 0
M  V30 765 H 137.13 4.41613 5.32378 0
M  V30 766 H 137.997 3.26331 7.47797 0
M  V30 767 P 141.959 2.75334 8.47391 0
M  V30 768 O 142.179 2.44571 9.90142 0
M  V30 769 O 142.749 3.87688 7.92115 0
M  V30 770 O 142.209 1.4459 7.59357 0
M  V30 771 C 141.269 0.347608 7.69215 0
M  V30 772 C 141.999 -0.96767 7.52806 0
M  V30 773 O 142.209 -1.21036 6.1011 0
M  V30 774 C 143.399 -1.04544 8.13308 0
M  V30 775 O 143.789 -2.38311 8.41922 0
M  V30 776 C 144.279 -0.491279 7.02284 0
M  V30 777 C 143.569 -0.996264 5.77469 0
M  V30 778 N 143.619 -0.0501916 4.62973 0
M  V30 779 H 140.78 0.374722 8.67691 0
M  V30 780 H 140.51 0.443485 6.90277 0
M  V30 781 H 141.377 -1.75537 7.96793 0
M  V30 782 P 145.339 -2.75334 8.47391 0
M  V30 783 O 145.559 -3.84204 9.44982 0
M  V30 784 O 146.129 -1.51982 8.68909 0
M  V30 785 O 145.589 -3.29363 6.99321 0
M  V30 786 C 144.649 -4.24066 6.42823 0
M  V30 787 C 145.379 -5.20775 5.52155 0
M  V30 788 O 145.589 -4.56607 4.22514 0
M  V30 789 C 146.779 -5.62697 5.96604 0
M  V30 790 O 147.169 -6.87667 5.41053 0
M  V30 791 C 147.659 -4.52537 5.39283 0
M  V30 792 C 146.949 -4.20027 4.08623 0
M  V30 793 N 146.999 -2.76189 3.71603 0
M  V30 794 H 144.161 -4.79756 7.24086 0
M  V30 795 H 143.889 -3.69963 5.84682 0
M  V30 796 H 144.757 -6.10431 5.41508 0
M  V30 797 H 147.412 -4.78816 3.28024 0
M  V30 798 H 147.692 -3.64957 6.05871 0
M  V30 799 H 148.683 -4.88748 5.21323 0
M  V30 800 H 146.849 -5.66789 7.0643 0
M  V30 801 P 148.719 -7.20834 5.23717 0
M  V30 802 O 148.939 -8.66104 5.38572 0
M  V30 803 O 149.509 -6.33544 6.1349 0
M  V30 804 O 148.969 -6.7751 3.72168 0
M  V30 805 C 148.029 -7.20825 2.7076 0
M  V30 806 C 148.759 -7.45864 1.40599 0
M  V30 807 O 148.969 -6.17651 0.734225 0
M  V30 808 C 150.159 -8.05808 1.51899 0
M  V30 809 O 150.549 -8.74358 0.335205 0
M  V30 810 C 151.039 -6.83093 1.70294 0
M  V30 811 C 150.329 -5.79992 0.836974 0
M  V30 812 N 150.379 -4.41864 1.38293 0
M  V30 813 C 150.299 -3.99538 2.69438 0
M  V30 814 N 150.379 -2.69909 2.84277 0
M  V30 815 C 150.519 -2.21719 1.5408 0
M  V30 816 C 150.649 -0.891712 1.06628 0
M  V30 817 O 150.669 0.161298 1.70137 0
M  V30 818 N 150.769 -0.856846 -0.334985 0
M  V30 819 C 150.769 -1.9641 -1.15789 0
M  V30 820 N 150.899 -1.72708 -2.46522 0
M  V30 821 N 150.639 -3.21165 -0.713741 0
M  V30 822 C 150.519 -3.26797 0.639748 0
M  V30 823 H 147.54 -8.13644 3.0377 0
M  V30 824 H 147.27 -6.42788 2.55485 0
M  V30 825 H 148.137 -8.12039 0.792769 0
M  V30 826 H 150.792 -5.80061 -0.166416 0
M  V30 827 H 151.071 -6.51287 2.75604 0
M  V30 828 H 152.063 -7.01734 1.34462 0
M  V30 829 H 150.229 -8.73674 2.38337 0
M  V30 830 H 150.18 -4.68207 3.53221 0
M  V30 831 H 150.862 0.0398818 -0.767965 0
M  V30 832 H 150.899 -2.50995 -3.13503 0
M  V30 833 H 151 -0.759148 -2.80716 0
M  V30 834 P 152.099 -8.91 9.82044e-15 0
M  V30 835 O 152.319 -10.1736 -0.733766 0
M  V30 836 O 152.889 -8.73247 1.2395 0
M  V30 837 O 152.349 -7.66872 -0.971405 0
M  V30 838 C 151.409 -7.42212 -2.04614 0
M  V30 839 C 152.139 -6.86059 -3.24661 0
M  V30 840 O 152.349 -5.42847 -3.03646 0
M  V30 841 C 153.539 -7.41196 -3.50753 0
M  V30 842 O 153.929 -7.27073 -4.86816 0
M  V30 843 C 154.419 -6.5273 -2.63741 0
M  V30 844 C 153.709 -5.1842 -2.73198 0
M  V30 845 N 153.759 -4.38668 -1.47808 0
M  V30 846 C 153.909 -3.02239 -1.60048 0
M  V30 847 O 153.999 -2.46459 -2.67869 0
M  V30 848 N 153.949 -2.32436 -0.408571 0
M  V30 849 C 153.859 -2.85471 0.854993 0
M  V30 850 O 153.909 -2.12566 1.8531 0
M  V30 851 C 153.709 -4.28918 0.887335 0
M  V30 852 C 153.599 -4.91066 2.24619 0
M  V30 853 C 153.659 -5.00349 -0.255399 0
M  V30 854 H 150.919 -8.36803 -2.32493 0
M  V30 855 H 150.65 -6.701 -1.71105 0
M  V30 856 H 151.517 -7.03551 -4.13168 0
M  V30 857 H 154.172 -4.59773 -3.53894 0
M  V30 858 H 154.451 -6.88995 -1.59871 0
M  V30 859 H 155.443 -6.46749 -3.03687 0
M  V30 860 H 153.609 -8.46908 -3.20714 0
M  V30 861 H 153.538 -6.08548 -0.206986 0
M  V30 862 H 154.568 -5.34836 2.53099 0
M  V30 863 H 152.831 -5.69638 2.2291 0
M  V30 864 H 153.319 -4.13971 2.98044 0
M  V30 865 H 154.055 -1.33211 -0.474216 0
M  V30 866 P 155.479 -7.20834 -5.23717 0
M  V30 867 O 155.699 -7.7993 -6.57351 0
M  V30 868 O 156.269 -7.79328 -4.13004 0
M  V30 869 O 155.729 -5.63315 -5.29344 0
M  V30 870 C 154.789 -4.80193 -6.01798 0
M  V30 871 C 155.519 -3.64202 -6.65911 0
M  V30 872 O 155.729 -2.60694 -5.64732 0
M  V30 873 C 156.919 -3.93473 -7.1943 0
M  V30 874 O 157.309 -3.02071 -8.21205 0
M  V30 875 C 157.799 -3.73047 -5.97036 0
M  V30 876 C 157.089 -2.58828 -5.25741 0
M  V30 877 N 157.139 -2.6801 -3.77422 0
M  V30 878 C 157.289 -1.50443 -3.07133 0
M  V30 879 O 157.379 -0.419406 -3.61576 0
M  V30 880 N 157.329 -1.6403 -1.69677 0
M  V30 881 C 157.239 -2.81206 -0.986255 0
M  V30 882 O 157.289 -2.80892 0.249754 0
M  V30 883 C 157.089 -3.99158 -1.80325 0
M  V30 884 C 156.979 -5.29309 -1.06921 0
M  V30 885 C 157.039 -3.89779 -3.1476 0
M  V30 886 H 154.299 -5.40332 -6.79951 0
M  V30 887 H 154.03 -4.41549 -5.32301 0
M  V30 888 H 154.897 -3.26331 -7.47797 0
M  V30 889 H 157.552 -1.6395 -5.56554 0
M  V30 890 H 157.831 -4.63439 -5.3432 0
M  V30 891 H 158.823 -3.44728 -6.25838 0
M  V30 892 H 156.989 -4.96652 -7.57263 0
M  V30 893 H 156.918 -4.80159 -3.74441 0
M  V30 894 H 157.948 -5.81459 -1.09608 0
M  V30 895 H 156.211 -5.9187 -1.54487 0
M  V30 896 H 156.699 -5.10095 -0.0220288 0
M  V30 897 H 157.435 -0.798962 -1.16664 0
M  V30 898 P 158.859 -2.75334 -8.47391 0
M  V30 899 O 159.079 -2.44571 -9.90142 0
M  V30 900 O 159.649 -3.87688 -7.92115 0
M  V30 901 O 159.109 -1.4459 -7.59357 0
M  V30 902 C 158.169 -0.347608 -7.69215 0
M  V30 903 C 158.899 0.96767 -7.52806 0
M  V30 904 O 159.109 1.21036 -6.1011 0
M  V30 905 C 160.299 1.04544 -8.13308 0
M  V30 906 O 160.689 2.38311 -8.41922 0
M  V30 907 C 161.179 0.491279 -7.02284 0
M  V30 908 C 160.469 0.996264 -5.77469 0
M  V30 909 N 160.519 0.0501916 -4.62973 0
M  V30 910 C 160.439 -1.32786 -4.63244 0
M  V30 911 N 160.519 -1.86957 -3.44545 0
M  V30 912 C 160.659 -0.780241 -2.58481 0
M  V30 913 C 160.789 -0.738536 -1.17757 0
M  V30 914 N 160.909 0.58337 -0.711393 0
M  V30 915 C 160.909 1.70816 -1.51017 0
M  V30 916 N 161.039 2.87826 -0.880757 0
M  V30 917 N 160.779 1.67126 -2.8339 0
M  V30 918 C 160.659 0.401421 -3.30572 0
M  V30 919 H 157.68 -0.374722 -8.67691 0
M  V30 920 H 157.41 -0.443485 -6.90277 0
M  V30 921 H 158.277 1.75537 -7.96793 0
M  V30 922 P 162.239 2.75334 -8.47391 0
M  V30 923 O 162.459 3.84128 -9.44797 0
M  V30 924 O 163.029 1.51947 -8.68712 0
M  V30 925 O 162.489 3.29363 -6.99321 0
M  V30 926 C 161.549 4.24011 -6.4274 0
M  V30 927 C 162.279 5.20775 -5.52155 0
M  V30 928 O 162.489 4.56534 -4.22446 0
M  V30 929 C 163.679 5.62629 -5.96531 0
M  V30 930 O 164.069 6.87667 -5.41053 0
M  V30 931 C 164.559 4.52537 -5.39283 0
M  V30 932 C 163.849 4.20027 -4.08623 0
M  V30 933 N 163.899 2.76189 -3.71603 0
M  V30 934 C 163.819 1.64862 -4.52822 0
M  V30 935 N 163.899 0.512671 -3.88633 0
M  V30 936 C 164.039 0.888083 -2.54977 0
M  V30 937 C 164.169 0.094668 -1.38677 0
M  V30 938 N 164.289 0.890102 -0.232633 0
M  V30 939 C 164.289 2.26958 -0.21772 0
M  V30 940 N 164.419 2.84626 0.97925 0
M  V30 941 N 164.159 3.0178 -1.31033 0
M  V30 942 C 164.039 2.26781 -2.43843 0
M  V30 943 H 161.06 4.797 -7.24003 0
M  V30 944 H 160.79 3.69856 -5.84513 0
M  V30 945 H 161.657 6.10356 -5.41441 0
M  V30 946 P 165.619 7.20834 -5.23717 0
M  V30 947 O 165.839 8.66274 -5.38678 0
M  V30 948 O 166.409 6.33687 -6.13629 0
M  V30 949 O 165.869 6.7751 -3.72168 0
M  V30 950 C 164.929 7.20919 -2.70795 0
M  V30 951 C 165.659 7.45864 -1.40599 0
M  V30 952 O 165.869 6.17751 -0.734343 0
M  V30 953 C 167.059 8.05906 -1.51917 0
M  V30 954 O 167.449 8.74358 -0.335205 0
M  V30 955 C 167.939 6.83093 -1.70294 0
M  V30 956 C 167.229 5.79992 -0.836974 0
M  V30 957 N 167.279 4.41864 -1.38293 0
M  V30 958 C 167.199 4.02089 -2.69407 0
M  V30 959 N 167.269 2.73403 -2.85089 0
M  V30 960 C 167.419 2.25086 -1.5642 0
M  V30 961 C 167.549 0.942887 -1.04836 0
M  V30 962 N 167.559 -0.150999 -1.80369 0
M  V30 963 N 167.669 0.812565 0.28167 0
M  V30 964 C 167.659 1.90572 1.03784 0
M  V30 965 N 167.539 3.167 0.683905 0
M  V30 966 C 167.419 3.26538 -0.652815 0
M  V30 967 H 164.441 8.13738 -3.03804 0
M  V30 968 H 164.169 6.42974 -2.55559 0
M  V30 969 H 165.037 8.12139 -0.792866 0
M  V30 970 H 167.692 5.80178 0.160643 0
M  V30 971 H 167.972 6.51379 -2.75643 0
M  V30 972 H 168.963 7.01832 -1.3448 0
M  V30 973 H 167.129 8.73771 -2.38364 0
M  V30 974 H 167.088 4.7189 -3.52311 0
M  V30 975 H 167.469 -0.0721434 -2.82608 0
M  V30 976 H 167.658 -1.0785 -1.36544 0
M  V30 977 H 167.766 1.73207 2.10241 0
M  V30 978 P 168.999 8.91 -1.09116e-14 0
M  V30 979 O 169.219 10.1726 0.733694 0
M  V30 980 O 169.789 8.73148 -1.23936 0
M  V30 981 O 169.249 7.66872 0.971405 0
M  V30 982 C 168.309 7.42309 2.04641 0
M  V30 983 C 169.039 6.86059 3.24661 0
M  V30 984 O 169.249 5.42847 3.03646 0
M  V30 985 C 170.439 7.41196 3.50753 0
M  V30 986 O 170.829 7.27073 4.86816 0
M  V30 987 C 171.319 6.5273 2.63741 0
M  V30 988 C 170.609 5.1842 2.73198 0
M  V30 989 N 170.659 4.38762 1.4784 0
M  V30 990 H 167.82 8.36803 2.32493 0
M  V30 991 H 167.55 6.70197 1.71129 0
M  V30 992 H 168.417 7.03551 4.13168 0
M  V30 993 P 172.379 7.20834 5.23717 0
M  V30 994 O 172.599 7.79853 6.57286 0
M  V30 995 O 173.169 7.79239 4.12957 0
M  V30 996 O 172.629 5.63315 5.29344 0
M  V30 997 C 171.689 4.80255 6.01876 0
M  V30 998 C 172.419 3.64202 6.65911 0
M  V30 999 O 172.629 2.60694 5.64732 0
M  V30 1000 C 173.819 3.93473 7.1943 0
M  V30 1001 O 174.209 3.02071 8.21205 0
M  V30 1002 C 174.699 3.73047 5.97036 0
M  V30 1003 C 173.989 2.58828 5.25741 0
M  V30 1004 N 174.039 2.68068 3.77503 0
M  V30 1005 H 171.2 5.40332 6.79951 0
M  V30 1006 H 170.93 4.41613 5.32378 0
M  V30 1007 H 171.797 3.26331 7.47797 0
M  V30 1008 P 175.759 2.75334 8.47391 0
M  V30 1009 O 175.979 2.44619 9.90336 0
M  V30 1010 O 176.549 3.87776 7.92294 0
M  V30 1011 O 176.009 1.4459 7.59357 0
M  V30 1012 C 175.069 0.347653 7.69315 0
M  V30 1013 C 175.799 -0.96767 7.52806 0
M  V30 1014 O 176.009 -1.21055 6.10208 0
M  V30 1015 C 177.199 -1.04557 8.13408 0
M  V30 1016 O 177.589 -2.38311 8.41922 0
M  V30 1017 C 178.079 -0.491279 7.02284 0
M  V30 1018 C 177.369 -0.996264 5.77469 0
M  V30 1019 N 177.419 -0.0501916 4.62973 0
M  V30 1020 H 174.581 0.374765 8.67791 0
M  V30 1021 H 174.309 0.443613 6.90476 0
M  V30 1022 H 175.177 -1.75559 7.96891 0
M  V30 1023 H 177.832 -1.94563 5.46818 0
M  V30 1024 H 178.112 0.608651 7.04676 0
M  V30 1025 H 179.103 -0.889796 7.09039 0
M  V30 1026 H 177.269 -0.433128 9.04664 0
M  V30 1027 P 179.139 -2.75334 8.47391 0
M  V30 1028 O 179.359 -3.84128 9.44797 0
M  V30 1029 O 179.929 -1.51947 8.68712 0
M  V30 1030 O 179.389 -3.29363 6.99321 0
M  V30 1031 C 178.449 -4.24011 6.4274 0
M  V30 1032 C 179.179 -5.20775 5.52155 0
M  V30 1033 O 179.389 -4.56534 4.22446 0
M  V30 1034 C 180.579 -5.62629 5.96531 0
M  V30 1035 O 180.969 -6.87667 5.41053 0
M  V30 1036 C 181.459 -4.52537 5.39283 0
M  V30 1037 C 180.749 -4.20027 4.08623 0
M  V30 1038 N 180.799 -2.76189 3.71603 0
M  V30 1039 H 177.96 -4.797 7.24003 0
M  V30 1040 H 177.69 -3.69856 5.84513 0
M  V30 1041 H 178.557 -6.10356 5.41441 0
M  V30 1042 P 182.519 -7.20834 5.23717 0
M  V30 1043 O 182.739 -8.66104 5.38572 0
M  V30 1044 O 183.309 -6.33544 6.1349 0
M  V30 1045 O 182.769 -6.7751 3.72168 0
M  V30 1046 C 181.829 -7.20825 2.7076 0
M  V30 1047 C 182.559 -7.45864 1.40599 0
M  V30 1048 O 182.769 -6.17651 0.734225 0
M  V30 1049 C 183.959 -8.05808 1.51899 0
M  V30 1050 O 184.349 -8.74358 0.335205 0
M  V30 1051 C 184.839 -6.83093 1.70294 0
M  V30 1052 C 184.129 -5.79992 0.836974 0
M  V30 1053 N 184.179 -4.41864 1.38293 0
M  V30 1054 H 181.34 -8.13644 3.0377 0
M  V30 1055 H 181.07 -6.42788 2.55485 0
M  V30 1056 H 181.937 -8.12039 0.792769 0
M  V30 1057 P 185.899 -8.91 -8.29613e-14 0
M  V30 1058 O 186.119 -10.1746 -0.733838 0
M  V30 1059 O 186.689 -8.73346 1.23964 0
M  V30 1060 O 186.149 -7.66872 -0.971405 0
M  V30 1061 C 185.209 -7.42405 -2.04668 0
M  V30 1062 C 185.939 -6.86059 -3.24661 0
M  V30 1063 O 186.149 -5.42934 -3.03695 0
M  V30 1064 C 187.339 -7.41287 -3.50796 0
M  V30 1065 O 187.729 -7.27073 -4.86816 0
M  V30 1066 C 188.219 -6.5273 -2.63741 0
M  V30 1067 C 187.509 -5.1842 -2.73198 0
M  V30 1068 N 187.559 -4.38762 -1.4784 0
M  V30 1069 C 187.479 -4.83651 -0.183876 0
M  V30 1070 N 187.549 -3.88759 0.699393 0
M  V30 1071 C 187.699 -2.7404 -0.0575568 0
M  V30 1072 C 187.829 -1.37902 0.293928 0
M  V30 1073 N 187.839 -0.938021 1.54797 0
M  V30 1074 N 187.949 -0.491817 -0.70549 0
M  V30 1075 C 187.939 -0.931735 -1.95979 0
M  V30 1076 N 187.819 -2.16017 -2.41481 0
M  V30 1077 C 187.699 -3.02547 -1.39121 0
M  V30 1078 H 184.721 -8.36899 -2.3252 0
M  V30 1079 H 184.449 -6.70391 -1.71179 0
M  V30 1080 H 185.317 -7.03638 -4.13219 0
M  V30 1081 H 187.972 -4.59931 -3.54016 0
M  V30 1082 H 188.252 -6.88995 -1.59871 0
M  V30 1083 H 189.243 -6.4684 -3.0373 0
M  V30 1084 H 187.409 -8.47002 -3.20749 0
M  V30 1085 H 187.368 -5.8885 0.0765548 0
M  V30 1086 H 187.749 -1.60276 2.32875 0
M  V30 1087 H 187.938 0.0699355 1.73859 0
M  V30 1088 H 188.046 -0.165507 -2.71897 0
M  V30 1089 P 189.279 -7.20834 -5.23717 0
M  V30 1090 O 189.499 -7.79853 -6.57286 0
M  V30 1091 O 190.069 -7.79239 -4.12957 0
M  V30 1092 O 189.529 -5.63315 -5.29344 0
M  V30 1093 C 188.589 -4.80255 -6.01876 0
M  V30 1094 C 189.319 -3.64202 -6.65911 0
M  V30 1095 O 189.529 -2.60694 -5.64732 0
M  V30 1096 C 190.719 -3.93473 -7.1943 0
M  V30 1097 O 191.109 -3.02071 -8.21205 0
M  V30 1098 C 191.599 -3.73047 -5.97036 0
M  V30 1099 C 190.889 -2.58828 -5.25741 0
M  V30 1100 N 190.939 -2.68068 -3.77503 0
M  V30 1101 C 190.859 -3.79715 -2.96723 0
M  V30 1102 N 190.939 -3.5377 -1.68852 0
M  V30 1103 C 191.079 -2.15054 -1.63254 0
M  V30 1104 C 191.209 -1.28964 -0.518571 0
M  V30 1105 N 191.329 0.0538097 -0.918425 0
M  V30 1106 C 191.329 0.494275 -2.22578 0
M  V30 1107 N 191.459 1.81086 -2.40434 0
M  V30 1108 N 191.199 -0.313645 -3.27502 0
M  V30 1109 C 191.079 -1.61829 -2.91033 0
M  V30 1110 H 188.1 -5.40332 -6.79951 0
M  V30 1111 H 187.83 -4.41613 -5.32378 0
M  V30 1112 H 188.697 -3.26331 -7.47797 0
M  V30 1113 P 192.659 -2.75334 -8.47391 0
M  V30 1114 O 192.879 -2.44571 -9.90142 0
M  V30 1115 O 193.449 -3.87688 -7.92115 0
M  V30 1116 O 192.909 -1.4459 -7.59357 0
M  V30 1117 C 191.969 -0.347608 -7.69215 0
M  V30 1118 C 192.699 0.96767 -7.52806 0
M  V30 1119 O 192.909 1.21036 -6.1011 0
M  V30 1120 C 194.099 1.04544 -8.13308 0
M  V30 1121 O 194.489 2.38311 -8.41922 0
M  V30 1122 C 194.979 0.491279 -7.02284 0
M  V30 1123 C 194.269 0.996264 -5.77469 0
M  V30 1124 N 194.319 0.0501916 -4.62973 0
M  V30 1125 C 194.239 -1.32786 -4.63244 0
M  V30 1126 N 194.319 -1.86957 -3.44545 0
M  V30 1127 C 194.459 -0.780241 -2.58481 0
M  V30 1128 C 194.589 -0.738536 -1.17757 0
M  V30 1129 N 194.709 0.58337 -0.711393 0
M  V30 1130 C 194.709 1.70816 -1.51017 0
M  V30 1131 N 194.839 2.87826 -0.880757 0
M  V30 1132 N 194.579 1.67126 -2.8339 0
M  V30 1133 C 194.459 0.401421 -3.30572 0
M  V30 1134 H 191.48 -0.374722 -8.67691 0
M  V30 1135 H 191.21 -0.443485 -6.90277 0
M  V30 1136 H 192.077 1.75537 -7.96793 0
M  V30 1137 P 196.039 2.75334 -8.47391 0
M  V30 1138 O 196.259 3.84128 -9.44797 0
M  V30 1139 O 196.829 1.51947 -8.68712 0
M  V30 1140 O 196.289 3.29363 -6.99321 0
M  V30 1141 C 195.349 4.24011 -6.4274 0
M  V30 1142 C 196.079 5.20775 -5.52155 0
M  V30 1143 O 196.289 4.56534 -4.22446 0
M  V30 1144 C 197.479 5.62629 -5.96531 0
M  V30 1145 O 197.869 6.87667 -5.41053 0
M  V30 1146 C 198.359 4.52537 -5.39283 0
M  V30 1147 C 197.649 4.20027 -4.08623 0
M  V30 1148 N 197.699 2.76189 -3.71603 0
M  V30 1149 H 194.86 4.797 -7.24003 0
M  V30 1150 H 194.59 3.69856 -5.84513 0
M  V30 1151 H 195.457 6.10356 -5.41441 0
M  V30 1152 P 199.419 7.20834 -5.23717 0
M  V30 1153 O 199.639 8.66104 -5.38572 0
M  V30 1154 O 200.209 6.33544 -6.1349 0
M  V30 1155 O 199.669 6.7751 -3.72168 0
M  V30 1156 C 198.729 7.20825 -2.7076 0
M  V30 1157 C 199.459 7.45864 -1.40599 0
M  V30 1158 O 199.669 6.17651 -0.734225 0
M  V30 1159 C 200.859 8.05808 -1.51899 0
M  V30 1160 O 201.249 8.74358 -0.335205 0
M  V30 1161 C 201.739 6.83093 -1.70294 0
M  V30 1162 C 201.029 5.79992 -0.836974 0
M  V30 1163 N 201.079 4.41864 -1.38293 0
M  V30 1164 C 200.999 3.99538 -2.69438 0
M  V30 1165 N 201.079 2.69909 -2.84277 0
M  V30 1166 C 201.219 2.21719 -1.5408 0
M  V30 1167 C 201.349 0.891712 -1.06628 0
M  V30 1168 O 201.369 -0.161298 -1.70137 0
M  V30 1169 N 201.469 0.856846 0.334985 0
M  V30 1170 C 201.469 1.9641 1.15789 0
M  V30 1171 N 201.599 1.72708 2.46522 0
M  V30 1172 N 201.339 3.21165 0.713741 0
M  V30 1173 C 201.219 3.26797 -0.639748 0
M  V30 1174 H 198.24 8.13644 -3.0377 0
M  V30 1175 H 197.97 6.42788 -2.55485 0
M  V30 1176 H 198.837 8.12039 -0.792769 0
M  V30 1177 H 201.492 5.80061 0.166416 0
M  V30 1178 H 201.771 6.51287 -2.75604 0
M  V30 1179 H 202.763 7.01734 -1.34462 0
M  V30 1180 H 200.929 8.73674 -2.38337 0
M  V30 1181 H 200.88 4.68207 -3.53221 0
M  V30 1182 H 201.562 -0.0398818 0.767965 0
M  V30 1183 H 201.599 2.50995 3.13503 0
M  V30 1184 H 201.7 0.759148 2.80716 0
M  V30 1185 P 202.799 8.91 2.40144e-13 0
M  V30 1186 O 203.019 10.1726 0.733694 0
M  V30 1187 O 203.589 8.73148 -1.23936 0
M  V30 1188 O 203.049 7.66872 0.971405 0
M  V30 1189 C 202.109 7.42309 2.04641 0
M  V30 1190 C 202.839 6.86059 3.24661 0
M  V30 1191 O 203.049 5.42847 3.03646 0
M  V30 1192 C 204.239 7.41196 3.50753 0
M  V30 1193 O 204.629 7.27073 4.86816 0
M  V30 1194 C 205.119 6.5273 2.63741 0
M  V30 1195 C 204.409 5.1842 2.73198 0
M  V30 1196 N 204.459 4.38762 1.4784 0
M  V30 1197 H 201.62 8.36803 2.32493 0
M  V30 1198 H 201.35 6.70197 1.71129 0
M  V30 1199 H 202.217 7.03551 4.13168 0
M  V30 1200 P 206.179 7.20834 5.23717 0
M  V30 1201 O 206.399 7.79853 6.57286 0
M  V30 1202 O 206.969 7.79239 4.12957 0
M  V30 1203 O 206.429 5.63315 5.29344 0
M  V30 1204 C 205.489 4.80255 6.01876 0
M  V30 1205 C 206.219 3.64202 6.65911 0
M  V30 1206 O 206.429 2.60694 5.64732 0
M  V30 1207 C 207.619 3.93473 7.1943 0
M  V30 1208 O 208.009 3.02071 8.21205 0
M  V30 1209 C 208.499 3.73047 5.97036 0
M  V30 1210 C 207.789 2.58828 5.25741 0
M  V30 1211 N 207.839 2.68068 3.77503 0
M  V30 1212 C 207.759 3.79715 2.96723 0
M  V30 1213 N 207.839 3.5377 1.68852 0
M  V30 1214 C 207.979 2.15054 1.63254 0
M  V30 1215 C 208.109 1.28964 0.518571 0
M  V30 1216 N 208.229 -0.0538097 0.918425 0
M  V30 1217 C 208.229 -0.494275 2.22578 0
M  V30 1218 N 208.359 -1.81086 2.40434 0
M  V30 1219 N 208.099 0.313645 3.27502 0
M  V30 1220 C 207.979 1.61829 2.91033 0
M  V30 1221 H 205 5.40332 6.79951 0
M  V30 1222 H 204.73 4.41613 5.32378 0
M  V30 1223 H 205.597 3.26331 7.47797 0
M  V30 1224 P 209.559 2.75334 8.47391 0
M  V30 1225 O 209.779 2.44571 9.90142 0
M  V30 1226 O 210.349 3.87688 7.92115 0
M  V30 1227 O 209.809 1.4459 7.59357 0
M  V30 1228 C 208.869 0.347608 7.69215 0
M  V30 1229 C 209.599 -0.96767 7.52806 0
M  V30 1230 O 209.809 -1.21036 6.1011 0
M  V30 1231 C 210.999 -1.04544 8.13308 0
M  V30 1232 O 211.389 -2.38311 8.41922 0
M  V30 1233 C 211.879 -0.491279 7.02284 0
M  V30 1234 C 211.169 -0.996264 5.77469 0
M  V30 1235 N 211.219 -0.0501916 4.62973 0
M  V30 1236 H 208.38 0.374722 8.67691 0
M  V30 1237 H 208.11 0.443485 6.90277 0
M  V30 1238 H 208.977 -1.75537 7.96793 0
M  V30 1239 P 212.939 -2.75334 8.47391 0
M  V30 1240 O 213.159 -3.84128 9.44797 0
M  V30 1241 O 213.729 -1.51947 8.68712 0
M  V30 1242 O 213.189 -3.29363 6.99321 0
M  V30 1243 C 212.249 -4.24011 6.4274 0
M  V30 1244 C 212.979 -5.20775 5.52155 0
M  V30 1245 O 213.189 -4.56534 4.22446 0
M  V30 1246 C 214.379 -5.62629 5.96531 0
M  V30 1247 O 214.769 -6.87667 5.41053 0
M  V30 1248 C 215.259 -4.52537 5.39283 0
M  V30 1249 C 214.549 -4.20027 4.08623 0
M  V30 1250 N 214.599 -2.76189 3.71603 0
M  V30 1251 H 211.76 -4.797 7.24003 0
M  V30 1252 H 211.49 -3.69856 5.84513 0
M  V30 1253 H 212.357 -6.10356 5.41441 0
M  V30 1254 P 216.319 -7.20834 5.23717 0
M  V30 1255 O 216.539 -8.66104 5.38572 0
M  V30 1256 O 217.109 -6.33544 6.1349 0
M  V30 1257 O 216.569 -6.7751 3.72168 0
M  V30 1258 C 215.629 -7.20825 2.7076 0
M  V30 1259 C 216.359 -7.45864 1.40599 0
M  V30 1260 O 216.569 -6.17651 0.734225 0
M  V30 1261 C 217.759 -8.05808 1.51899 0
M  V30 1262 O 218.149 -8.74358 0.335205 0
M  V30 1263 C 218.639 -6.83093 1.70294 0
M  V30 1264 C 217.929 -5.79992 0.836974 0
M  V30 1265 N 217.979 -4.41864 1.38293 0
M  V30 1266 H 215.14 -8.13644 3.0377 0
M  V30 1267 H 214.87 -6.42788 2.55485 0
M  V30 1268 H 215.737 -8.12039 0.792769 0
M  V30 1269 P 219.699 -8.91 -3.97326e-13 0
M  V30 1270 O 219.919 -10.1726 -0.733694 0
M  V30 1271 O 220.489 -8.73148 1.23936 0
M  V30 1272 O 219.949 -7.66872 -0.971405 0
M  V30 1273 C 219.009 -7.42309 -2.04641 0
M  V30 1274 C 219.739 -6.86059 -3.24661 0
M  V30 1275 O 219.949 -5.42847 -3.03646 0
M  V30 1276 C 221.139 -7.41196 -3.50753 0
M  V30 1277 O 221.529 -7.27073 -4.86816 0
M  V30 1278 C 222.019 -6.5273 -2.63741 0
M  V30 1279 C 221.309 -5.1842 -2.73198 0
M  V30 1280 N 221.359 -4.38762 -1.4784 0
M  V30 1281 H 218.52 -8.36803 -2.32493 0
M  V30 1282 H 218.25 -6.70197 -1.71129 0
M  V30 1283 H 219.117 -7.03551 -4.13168 0
M  V30 1284 P 223.079 -7.20834 -5.23717 0
M  V30 1285 O 223.299 -7.79853 -6.57286 0
M  V30 1286 O 223.869 -7.79239 -4.12957 0
M  V30 1287 O 223.329 -5.63315 -5.29344 0
M  V30 1288 C 222.389 -4.80255 -6.01876 0
M  V30 1289 C 223.119 -3.64202 -6.65911 0
M  V30 1290 O 223.329 -2.60694 -5.64732 0
M  V30 1291 C 224.519 -3.93473 -7.1943 0
M  V30 1292 O 224.909 -3.02071 -8.21205 0
M  V30 1293 C 225.399 -3.73047 -5.97036 0
M  V30 1294 C 224.689 -2.58828 -5.25741 0
M  V30 1295 N 224.739 -2.68068 -3.77503 0
M  V30 1296 H 221.9 -5.40332 -6.79951 0
M  V30 1297 H 221.63 -4.41613 -5.32378 0
M  V30 1298 H 222.497 -3.26331 -7.47797 0
M  V30 1299 P 226.459 -2.75334 -8.47391 0
M  V30 1300 O 226.679 -2.44571 -9.90142 0
M  V30 1301 O 227.249 -3.87688 -7.92115 0
M  V30 1302 O 226.709 -1.4459 -7.59357 0
M  V30 1303 C 225.769 -0.347608 -7.69215 0
M  V30 1304 C 226.499 0.96767 -7.52806 0
M  V30 1305 O 226.709 1.21036 -6.1011 0
M  V30 1306 C 227.899 1.04544 -8.13308 0
M  V30 1307 O 228.289 2.38311 -8.41922 0
M  V30 1308 C 228.779 0.491279 -7.02284 0
M  V30 1309 C 228.069 0.996264 -5.77469 0
M  V30 1310 N 228.119 0.0501916 -4.62973 0
M  V30 1311 H 225.28 -0.374722 -8.67691 0
M  V30 1312 H 225.01 -0.443485 -6.90277 0
M  V30 1313 H 225.877 1.75537 -7.96793 0
M  V30 1314 P 229.839 2.75334 -8.47391 0
M  V30 1315 O 230.059 3.84128 -9.44797 0
M  V30 1316 O 230.629 1.51947 -8.68712 0
M  V30 1317 O 230.089 3.29363 -6.99321 0
M  V30 1318 C 229.149 4.24011 -6.4274 0
M  V30 1319 C 229.879 5.20775 -5.52155 0
M  V30 1320 O 230.089 4.56534 -4.22446 0
M  V30 1321 C 231.279 5.62629 -5.96531 0
M  V30 1322 O 231.669 6.87667 -5.41053 0
M  V30 1323 C 232.159 4.52537 -5.39283 0
M  V30 1324 C 231.449 4.20027 -4.08623 0
M  V30 1325 N 231.499 2.76189 -3.71603 0
M  V30 1326 H 228.66 4.797 -7.24003 0
M  V30 1327 H 228.39 3.69856 -5.84513 0
M  V30 1328 H 229.257 6.10356 -5.41441 0
M  V30 1329 P 233.219 7.20834 -5.23717 0
M  V30 1330 O 233.439 8.66104 -5.38572 0
M  V30 1331 O 234.009 6.33544 -6.1349 0
M  V30 1332 O 233.469 6.7751 -3.72168 0
M  V30 1333 C 232.529 7.20825 -2.7076 0
M  V30 1334 C 233.259 7.45864 -1.40599 0
M  V30 1335 O 233.469 6.17651 -0.734225 0
M  V30 1336 C 234.659 8.05808 -1.51899 0
M  V30 1337 O 235.049 8.74358 -0.335205 0
M  V30 1338 C 235.539 6.83093 -1.70294 0
M  V30 1339 C 234.829 5.79992 -0.836974 0
M  V30 1340 N 234.879 4.41864 -1.38293 0
M  V30 1341 H 232.04 8.13644 -3.0377 0
M  V30 1342 H 231.77 6.42788 -2.55485 0
M  V30 1343 H 232.637 8.12039 -0.792769 0
M  V30 1344 P 236.599 8.91 5.54508e-13 0
M  V30 1345 O 236.819 10.1726 0.733694 0
M  V30 1346 O 237.389 8.73148 -1.23936 0
M  V30 1347 O 236.849 7.66872 0.971405 0
M  V30 1348 C 235.909 7.42309 2.04641 0
M  V30 1349 C 236.639 6.86059 3.24661 0
M  V30 1350 O 236.849 5.42847 3.03646 0
M  V30 1351 C 238.039 7.41196 3.50753 0
M  V30 1352 O 238.429 7.27073 4.86816 0
M  V30 1353 C 238.919 6.5273 2.63741 0
M  V30 1354 C 238.209 5.1842 2.73198 0
M  V30 1355 N 238.259 4.38762 1.4784 0
M  V30 1356 H 235.42 8.36803 2.32493 0
M  V30 1357 H 235.15 6.70197 1.71129 0
M  V30 1358 H 236.017 7.03551 4.13168 0
M  V30 1359 P 239.979 7.20834 5.23717 0
M  V30 1360 O 240.199 7.7993 6.57351 0
M  V30 1361 O 240.769 7.79328 4.13004 0
M  V30 1362 O 240.229 5.63315 5.29344 0
M  V30 1363 C 239.289 4.80193 6.01798 0
M  V30 1364 C 240.019 3.64202 6.65911 0
M  V30 1365 O 240.229 2.60694 5.64732 0
M  V30 1366 C 241.419 3.93473 7.1943 0
M  V30 1367 O 241.809 3.02071 8.21205 0
M  V30 1368 C 242.299 3.73047 5.97036 0
M  V30 1369 C 241.589 2.58828 5.25741 0
M  V30 1370 N 241.639 2.6801 3.77422 0
M  V30 1371 C 241.789 1.50443 3.07133 0
M  V30 1372 O 241.879 0.419406 3.61576 0
M  V30 1373 N 241.829 1.6403 1.69677 0
M  V30 1374 C 241.739 2.81206 0.986255 0
M  V30 1375 O 241.789 2.80892 -0.249754 0
M  V30 1376 C 241.589 3.99158 1.80325 0
M  V30 1377 C 241.479 5.29309 1.06921 0
M  V30 1378 C 241.539 3.89779 3.1476 0
M  V30 1379 H 238.799 5.40332 6.79951 0
M  V30 1380 H 238.53 4.41549 5.32301 0
M  V30 1381 H 239.397 3.26331 7.47797 0
M  V30 1382 H 242.052 1.6395 5.56554 0
M  V30 1383 H 242.331 4.63439 5.3432 0
M  V30 1384 H 243.323 3.44728 6.25838 0
M  V30 1385 H 241.489 4.96652 7.57263 0
M  V30 1386 H 241.418 4.80159 3.74441 0
M  V30 1387 H 242.448 5.81459 1.09608 0
M  V30 1388 H 240.711 5.9187 1.54487 0
M  V30 1389 H 241.199 5.10095 0.0220288 0
M  V30 1390 H 241.935 0.798962 1.16664 0
M  V30 1391 P 243.359 2.75334 8.47391 0
M  V30 1392 O 243.579 2.44619 9.90336 0
M  V30 1393 O 244.149 3.87776 7.92294 0
M  V30 1394 O 243.609 1.4459 7.59357 0
M  V30 1395 C 242.669 0.347653 7.69315 0
M  V30 1396 C 243.399 -0.96767 7.52806 0
M  V30 1397 O 243.609 -1.21055 6.10208 0
M  V30 1398 C 244.799 -1.04557 8.13408 0
M  V30 1399 O 245.189 -2.38311 8.41922 0
M  V30 1400 C 245.679 -0.491279 7.02284 0
M  V30 1401 C 244.969 -0.996264 5.77469 0
M  V30 1402 N 245.019 -0.0501916 4.62973 0
M  V30 1403 H 242.181 0.374765 8.67791 0
M  V30 1404 H 241.909 0.443613 6.90476 0
M  V30 1405 H 242.777 -1.75559 7.96891 0
M  V30 1406 H 245.432 -1.94563 5.46818 0
M  V30 1407 H 245.712 0.608651 7.04676 0
M  V30 1408 H 246.703 -0.889796 7.09039 0
M  V30 1409 H 244.869 -0.433128 9.04664 0
M  V30 1410 P 246.739 -2.75334 8.47391 0
M  V30 1411 O 246.959 -3.84128 9.44797 0
M  V30 1412 O 247.529 -1.51947 8.68712 0
M  V30 1413 O 246.989 -3.29363 6.99321 0
M  V30 1414 C 246.049 -4.24011 6.4274 0
M  V30 1415 C 246.779 -5.20775 5.52155 0
M  V30 1416 O 246.989 -4.56534 4.22446 0
M  V30 1417 C 248.179 -5.62629 5.96531 0
M  V30 1418 O 248.569 -6.87667 5.41053 0
M  V30 1419 C 249.059 -4.52537 5.39283 0
M  V30 1420 C 248.349 -4.20027 4.08623 0
M  V30 1421 N 248.399 -2.76189 3.71603 0
M  V30 1422 H 245.56 -4.797 7.24003 0
M  V30 1423 H 245.29 -3.69856 5.84513 0
M  V30 1424 H 246.157 -6.10356 5.41441 0
M  V30 1425 P 250.119 -7.20834 5.23717 0
M  V30 1426 O 250.339 -8.66104 5.38572 0
M  V30 1427 O 250.909 -6.33544 6.1349 0
M  V30 1428 O 250.369 -6.7751 3.72168 0
M  V30 1429 C 249.429 -7.20825 2.7076 0
M  V30 1430 C 250.159 -7.45864 1.40599 0
M  V30 1431 O 250.369 -6.17651 0.734225 0
M  V30 1432 C 251.559 -8.05808 1.51899 0
M  V30 1433 O 251.949 -8.74358 0.335205 0
M  V30 1434 C 252.439 -6.83093 1.70294 0
M  V30 1435 C 251.729 -5.79992 0.836974 0
M  V30 1436 N 251.779 -4.41864 1.38293 0
M  V30 1437 H 248.94 -8.13644 3.0377 0
M  V30 1438 H 248.67 -6.42788 2.55485 0
M  V30 1439 H 249.537 -8.12039 0.792769 0
M  V30 1440 P 253.498 -8.91 -7.1169e-13 0
M  V30 1441 O 253.718 -10.1746 -0.733838 0
M  V30 1442 O 254.288 -8.73346 1.23964 0
M  V30 1443 O 253.748 -7.66872 -0.971405 0
M  V30 1444 C 252.808 -7.42405 -2.04668 0
M  V30 1445 C 253.538 -6.86059 -3.24661 0
M  V30 1446 O 253.748 -5.42934 -3.03695 0
M  V30 1447 C 254.938 -7.41287 -3.50796 0
M  V30 1448 O 255.328 -7.27073 -4.86816 0
M  V30 1449 C 255.818 -6.5273 -2.63741 0
M  V30 1450 C 255.108 -5.1842 -2.73198 0
M  V30 1451 N 255.158 -4.38762 -1.4784 0
M  V30 1452 C 255.078 -4.83651 -0.183876 0
M  V30 1453 N 255.148 -3.88759 0.699393 0
M  V30 1454 C 255.298 -2.7404 -0.0575568 0
M  V30 1455 C 255.428 -1.37902 0.293928 0
M  V30 1456 N 255.438 -0.938021 1.54797 0
M  V30 1457 N 255.548 -0.491817 -0.70549 0
M  V30 1458 C 255.538 -0.931735 -1.95979 0
M  V30 1459 N 255.418 -2.16017 -2.41481 0
M  V30 1460 C 255.298 -3.02547 -1.39121 0
M  V30 1461 H 252.32 -8.36899 -2.3252 0
M  V30 1462 H 252.048 -6.70391 -1.71179 0
M  V30 1463 H 252.916 -7.03638 -4.13219 0
M  V30 1464 H 255.571 -4.59931 -3.54016 0
M  V30 1465 H 255.851 -6.88995 -1.59871 0
M  V30 1466 H 256.842 -6.4684 -3.0373 0
M  V30 1467 H 255.008 -8.47002 -3.20749 0
M  V30 1468 H 254.967 -5.8885 0.0765548 0
M  V30 1469 H 255.348 -1.60276 2.32875 0
M  V30 1470 H 255.537 0.0699355 1.73859 0
M  V30 1471 H 255.645 -0.165507 -2.71897 0
M  V30 1472 P 256.878 -7.20834 -5.23717 0
M  V30 1473 O 257.098 -7.79853 -6.57286 0
M  V30 1474 O 257.668 -7.79239 -4.12957 0
M  V30 1475 O 257.128 -5.63315 -5.29344 0
M  V30 1476 C 256.188 -4.80255 -6.01876 0
M  V30 1477 C 256.918 -3.64202 -6.65911 0
M  V30 1478 O 257.128 -2.60694 -5.64732 0
M  V30 1479 C 258.318 -3.93473 -7.1943 0
M  V30 1480 O 258.708 -3.02071 -8.21205 0
M  V30 1481 C 259.198 -3.73047 -5.97036 0
M  V30 1482 C 258.488 -2.58828 -5.25741 0
M  V30 1483 N 258.538 -2.68068 -3.77503 0
M  V30 1484 H 255.699 -5.40332 -6.79951 0
M  V30 1485 H 255.429 -4.41613 -5.32378 0
M  V30 1486 H 256.296 -3.26331 -7.47797 0
M  V30 1487 P 260.258 -2.75334 -8.47391 0
M  V30 1488 O 260.478 -2.44571 -9.90142 0
M  V30 1489 O 261.048 -3.87688 -7.92115 0
M  V30 1490 O 260.508 -1.4459 -7.59357 0
M  V30 1491 C 259.568 -0.347608 -7.69215 0
M  V30 1492 C 260.298 0.96767 -7.52806 0
M  V30 1493 O 260.508 1.21036 -6.1011 0
M  V30 1494 C 261.698 1.04544 -8.13308 0
M  V30 1495 O 262.088 2.38311 -8.41922 0
M  V30 1496 C 262.578 0.491279 -7.02284 0
M  V30 1497 C 261.868 0.996264 -5.77469 0
M  V30 1498 N 261.918 0.0501916 -4.62973 0
M  V30 1499 H 259.079 -0.374722 -8.67691 0
M  V30 1500 H 258.809 -0.443485 -6.90277 0
M  V30 1501 H 259.676 1.75537 -7.96793 0
M  V30 1502 P 263.638 2.75334 -8.47391 0
M  V30 1503 O 263.858 3.84128 -9.44797 0
M  V30 1504 O 264.428 1.51947 -8.68712 0
M  V30 1505 O 263.888 3.29363 -6.99321 0
M  V30 1506 C 262.948 4.24011 -6.4274 0
M  V30 1507 C 263.678 5.20775 -5.52155 0
M  V30 1508 O 263.888 4.56534 -4.22446 0
M  V30 1509 C 265.078 5.62629 -5.96531 0
M  V30 1510 O 265.468 6.87667 -5.41053 0
M  V30 1511 C 265.958 4.52537 -5.39283 0
M  V30 1512 C 265.248 4.20027 -4.08623 0
M  V30 1513 N 265.298 2.76189 -3.71603 0
M  V30 1514 H 262.459 4.797 -7.24003 0
M  V30 1515 H 262.189 3.69856 -5.84513 0
M  V30 1516 H 263.056 6.10356 -5.41441 0
M  V30 1517 P 267.018 7.20834 -5.23717 0
M  V30 1518 O 267.238 8.66104 -5.38572 0
M  V30 1519 O 267.808 6.33544 -6.1349 0
M  V30 1520 O 267.268 6.7751 -3.72168 0
M  V30 1521 C 266.328 7.20825 -2.7076 0
M  V30 1522 C 267.058 7.45864 -1.40599 0
M  V30 1523 O 267.268 6.17651 -0.734225 0
M  V30 1524 C 268.458 8.05808 -1.51899 0
M  V30 1525 O 268.848 8.74358 -0.335205 0
M  V30 1526 C 269.338 6.83093 -1.70294 0
M  V30 1527 C 268.628 5.79992 -0.836974 0
M  V30 1528 N 268.678 4.41864 -1.38293 0
M  V30 1529 H 265.839 8.13644 -3.0377 0
M  V30 1530 H 265.569 6.42788 -2.55485 0
M  V30 1531 H 266.436 8.12039 -0.792769 0
M  V30 1532 P 270.398 8.91 8.68872e-13 0
M  V30 1533 O 270.618 10.1726 0.733694 0
M  V30 1534 O 271.188 8.73148 -1.23936 0
M  V30 1535 O 270.648 7.66872 0.971405 0
M  V30 1536 C 269.708 7.42309 2.04641 0
M  V30 1537 C 270.438 6.86059 3.24661 0
M  V30 1538 O 270.648 5.42847 3.03646 0
M  V30 1539 C 271.838 7.41196 3.50753 0
M  V30 1540 O 272.228 7.27073 4.86816 0
M  V30 1541 C 272.718 6.5273 2.63741 0
M  V30 1542 C 272.008 5.1842 2.73198 0
M  V30 1543 N 272.058 4.38762 1.4784 0
M  V30 1544 C 271.978 4.81605 0.168631 0
M  V30 1545 N 272.058 3.85454 -0.713363 0
M  V30 1546 C 272.198 2.6994 0.0566958 0
M  V30 1547 C 272.328 1.34815 -0.338502 0
M  V30 1548 O 272.348 0.869548 -1.47125 0
M  V30 1549 N 272.448 0.496304 0.77465 0
M  V30 1550 C 272.448 0.908403 2.09122 0
M  V30 1551 N 272.578 -0.0517805 3.00955 0
M  V30 1552 N 272.318 2.17875 2.46519 0
M  V30 1553 C 272.198 3.01988 1.4033 0
M  V30 1554 H 269.219 8.36803 2.32493 0
M  V30 1555 H 268.949 6.70197 1.71129 0
M  V30 1556 H 269.816 7.03551 4.13168 0
M  V30 1557 H 272.471 4.59498 3.54415 0
M  V30 1558 H 272.75 6.88898 1.59848 0
M  V30 1559 H 273.742 6.46749 3.03687 0
M  V30 1560 H 271.908 8.46908 3.20714 0
M  V30 1561 H 271.859 5.86405 -0.105564 0
M  V30 1562 H 272.541 -0.483664 0.597855 0
M  V30 1563 H 272.578 0.187865 4.0116 0
M  V30 1564 H 272.679 -1.03585 2.71726 0
M  V30 1565 P 273.778 7.20834 5.23717 0
M  V30 1566 O 273.998 7.79853 6.57286 0
M  V30 1567 O 274.568 7.79239 4.12957 0
M  V30 1568 O 274.028 5.63315 5.29344 0
M  V30 1569 C 273.088 4.80255 6.01876 0
M  V30 1570 C 273.818 3.64202 6.65911 0
M  V30 1571 O 274.028 2.60694 5.64732 0
M  V30 1572 C 275.218 3.93473 7.1943 0
M  V30 1573 O 275.608 3.02071 8.21205 0
M  V30 1574 C 276.098 3.73047 5.97036 0
M  V30 1575 C 275.388 2.58828 5.25741 0
M  V30 1576 N 275.438 2.68068 3.77503 0
M  V30 1577 H 272.599 5.40332 6.79951 0
M  V30 1578 H 272.329 4.41613 5.32378 0
M  V30 1579 H 273.196 3.26331 7.47797 0
M  V30 1580 P 277.158 2.75334 8.47391 0
M  V30 1581 O 277.378 2.44571 9.90142 0
M  V30 1582 O 277.948 3.87688 7.92115 0
M  V30 1583 O 277.408 1.4459 7.59357 0
M  V30 1584 C 276.468 0.347608 7.69215 0
M  V30 1585 C 277.198 -0.96767 7.52806 0
M  V30 1586 O 277.408 -1.21036 6.1011 0
M  V30 1587 C 278.598 -1.04544 8.13308 0
M  V30 1588 O 278.988 -2.38311 8.41922 0
M  V30 1589 C 279.478 -0.491279 7.02284 0
M  V30 1590 C 278.768 -0.996264 5.77469 0
M  V30 1591 N 278.818 -0.0501916 4.62973 0
M  V30 1592 H 275.979 0.374722 8.67691 0
M  V30 1593 H 275.709 0.443485 6.90277 0
M  V30 1594 H 276.576 -1.75537 7.96793 0
M  V30 1595 P 280.538 -2.75334 8.47391 0
M  V30 1596 O 280.758 -3.84128 9.44797 0
M  V30 1597 O 281.328 -1.51947 8.68712 0
M  V30 1598 O 280.788 -3.29363 6.99321 0
M  V30 1599 C 279.848 -4.24011 6.4274 0
M  V30 1600 C 280.578 -5.20775 5.52155 0
M  V30 1601 O 280.788 -4.56534 4.22446 0
M  V30 1602 C 281.978 -5.62629 5.96531 0
M  V30 1603 O 282.368 -6.87667 5.41053 0
M  V30 1604 C 282.858 -4.52537 5.39283 0
M  V30 1605 C 282.148 -4.20027 4.08623 0
M  V30 1606 N 282.198 -2.76189 3.71603 0
M  V30 1607 H 279.359 -4.797 7.24003 0
M  V30 1608 H 279.089 -3.69856 5.84513 0
M  V30 1609 H 279.956 -6.10356 5.41441 0
M  V30 1610 P 283.918 -7.20834 5.23717 0
M  V30 1611 O 284.138 -8.66104 5.38572 0
M  V30 1612 O 284.708 -6.33544 6.1349 0
M  V30 1613 O 284.168 -6.7751 3.72168 0
M  V30 1614 C 283.228 -7.20825 2.7076 0
M  V30 1615 C 283.958 -7.45864 1.40599 0
M  V30 1616 O 284.168 -6.17651 0.734225 0
M  V30 1617 C 285.358 -8.05808 1.51899 0
M  V30 1618 O 285.748 -8.74358 0.335205 0
M  V30 1619 C 286.238 -6.83093 1.70294 0
M  V30 1620 C 285.528 -5.79992 0.836974 0
M  V30 1621 N 285.578 -4.41864 1.38293 0
M  V30 1622 H 282.739 -8.13644 3.0377 0
M  V30 1623 H 282.469 -6.42788 2.55485 0
M  V30 1624 H 283.336 -8.12039 0.792769 0
M  V30 1625 P 287.298 -8.91 -1.02605e-12 0
M  V30 1626 O 287.518 -10.1726 -0.733694 0
M  V30 1627 O 288.088 -8.73148 1.23936 0
M  V30 1628 O 287.548 -7.66872 -0.971405 0
M  V30 1629 C 286.608 -7.42309 -2.04641 0
M  V30 1630 C 287.338 -6.86059 -3.24661 0
M  V30 1631 O 287.548 -5.42847 -3.03646 0
M  V30 1632 C 288.738 -7.41196 -3.50753 0
M  V30 1633 O 289.128 -7.27073 -4.86816 0
M  V30 1634 C 289.618 -6.5273 -2.63741 0
M  V30 1635 C 288.908 -5.1842 -2.73198 0
M  V30 1636 N 288.958 -4.38762 -1.4784 0
M  V30 1637 H 286.119 -8.36803 -2.32493 0
M  V30 1638 H 285.849 -6.70197 -1.71129 0
M  V30 1639 H 286.716 -7.03551 -4.13168 0
M  V30 1640 P 290.678 -7.20834 -5.23717 0
M  V30 1641 O 290.898 -7.80006 -6.57415 0
M  V30 1642 O 291.468 -7.79416 -4.13051 0
M  V30 1643 O 290.928 -5.63315 -5.29344 0
M  V30 1644 C 289.988 -4.80318 -6.01954 0
M  V30 1645 C 290.718 -3.64202 -6.65911 0
M  V30 1646 O 290.928 -2.60736 -5.64823 0
M  V30 1647 C 292.118 -3.93521 -7.19518 0
M  V30 1648 O 292.508 -3.02071 -8.21205 0
M  V30 1649 C 292.998 -3.73047 -5.97036 0
M  V30 1650 C 292.288 -2.58828 -5.25741 0
M  V30 1651 N 292.338 -2.68068 -3.77503 0
M  V30 1652 H 289.5 -5.40394 -6.8003 0
M  V30 1653 H 289.228 -4.41741 -5.32532 0
M  V30 1654 H 290.096 -3.26371 -7.47889 0
M  V30 1655 H 292.751 -1.64007 -5.56746 0
M  V30 1656 H 293.031 -4.63439 -5.3432 0
M  V30 1657 H 294.022 -3.44776 -6.25925 0
M  V30 1658 H 292.188 -4.96707 -7.57347 0
M  V30 1659 P 294.058 -2.75334 -8.47391 0
M  V30 1660 O 294.278 -2.44571 -9.90142 0
M  V30 1661 O 294.848 -3.87688 -7.92115 0
M  V30 1662 O 294.308 -1.4459 -7.59357 0
M  V30 1663 C 293.368 -0.347608 -7.69215 0
M  V30 1664 C 294.098 0.96767 -7.52806 0
M  V30 1665 O 294.308 1.21036 -6.1011 0
M  V30 1666 C 295.498 1.04544 -8.13308 0
M  V30 1667 O 295.888 2.38311 -8.41922 0
M  V30 1668 C 296.378 0.491279 -7.02284 0
M  V30 1669 C 295.668 0.996264 -5.77469 0
M  V30 1670 N 295.718 0.0501916 -4.62973 0
M  V30 1671 H 292.879 -0.374722 -8.67691 0
M  V30 1672 H 292.609 -0.443485 -6.90277 0
M  V30 1673 H 293.476 1.75537 -7.96793 0
M  V30 1674 P 297.438 2.75334 -8.47391 0
M  V30 1675 O 297.658 3.84128 -9.44797 0
M  V30 1676 O 298.228 1.51947 -8.68712 0
M  V30 1677 O 297.688 3.29363 -6.99321 0
M  V30 1678 C 296.748 4.24011 -6.4274 0
M  V30 1679 C 297.478 5.20775 -5.52155 0
M  V30 1680 O 297.688 4.56534 -4.22446 0
M  V30 1681 C 298.878 5.62629 -5.96531 0
M  V30 1682 O 299.268 6.87667 -5.41053 0
M  V30 1683 C 299.758 4.52537 -5.39283 0
M  V30 1684 C 299.048 4.20027 -4.08623 0
M  V30 1685 N 299.098 2.76189 -3.71603 0
M  V30 1686 H 296.259 4.797 -7.24003 0
M  V30 1687 H 295.989 3.69856 -5.84513 0
M  V30 1688 H 296.856 6.10356 -5.41441 0
M  V30 1689 P 300.818 7.20834 -5.23717 0
M  V30 1690 O 301.038 8.66274 -5.38678 0
M  V30 1691 O 301.608 6.33687 -6.13629 0
M  V30 1692 O 301.068 6.7751 -3.72168 0
M  V30 1693 C 300.128 7.20919 -2.70795 0
M  V30 1694 C 300.858 7.45864 -1.40599 0
M  V30 1695 O 301.068 6.17751 -0.734343 0
M  V30 1696 C 302.258 8.05906 -1.51917 0
M  V30 1697 O 302.648 8.74358 -0.335205 0
M  V30 1698 C 303.138 6.83093 -1.70294 0
M  V30 1699 C 302.428 5.79992 -0.836974 0
M  V30 1700 N 302.478 4.41864 -1.38293 0
M  V30 1701 C 302.398 4.02089 -2.69407 0
M  V30 1702 N 302.468 2.73403 -2.85089 0
M  V30 1703 C 302.618 2.25086 -1.5642 0
M  V30 1704 C 302.748 0.942887 -1.04836 0
M  V30 1705 N 302.758 -0.150999 -1.80369 0
M  V30 1706 N 302.868 0.812565 0.28167 0
M  V30 1707 C 302.858 1.90572 1.03784 0
M  V30 1708 N 302.738 3.167 0.683905 0
M  V30 1709 C 302.618 3.26538 -0.652815 0
M  V30 1710 H 299.64 8.13738 -3.03804 0
M  V30 1711 H 299.368 6.42974 -2.55559 0
M  V30 1712 H 300.236 8.12139 -0.792866 0
M  V30 1713 H 302.891 5.80178 0.160643 0
M  V30 1714 H 303.171 6.51379 -2.75643 0
M  V30 1715 H 304.162 7.01832 -1.3448 0
M  V30 1716 H 302.328 8.73771 -2.38364 0
M  V30 1717 H 302.287 4.7189 -3.52311 0
M  V30 1718 H 302.668 -0.0721434 -2.82608 0
M  V30 1719 H 302.857 -1.0785 -1.36544 0
M  V30 1720 H 302.965 1.73207 2.10241 0
M  V30 1721 P 304.198 8.91 1.18324e-12 0
M  V30 1722 O 304.418 10.1726 0.733694 0
M  V30 1723 O 304.988 8.73148 -1.23936 0
M  V30 1724 O 304.448 7.66872 0.971405 0
M  V30 1725 C 303.508 7.42309 2.04641 0
M  V30 1726 C 304.238 6.86059 3.24661 0
M  V30 1727 O 304.448 5.42847 3.03646 0
M  V30 1728 C 305.638 7.41196 3.50753 0
M  V30 1729 O 306.028 7.27073 4.86816 0
M  V30 1730 C 306.518 6.5273 2.63741 0
M  V30 1731 C 305.808 5.1842 2.73198 0
M  V30 1732 N 305.858 4.38762 1.4784 0
M  V30 1733 H 303.019 8.36803 2.32493 0
M  V30 1734 H 302.749 6.70197 1.71129 0
M  V30 1735 H 303.616 7.03551 4.13168 0
M  V30 1736 P 307.578 7.20834 5.23717 0
M  V30 1737 O 307.798 7.79853 6.57286 0
M  V30 1738 O 308.368 7.79239 4.12957 0
M  V30 1739 O 307.828 5.63315 5.29344 0
M  V30 1740 C 306.888 4.80255 6.01876 0
M  V30 1741 C 307.618 3.64202 6.65911 0
M  V30 1742 O 307.828 2.60694 5.64732 0
M  V30 1743 C 309.018 3.93473 7.1943 0
M  V30 1744 O 309.408 3.02071 8.21205 0
M  V30 1745 C 309.898 3.73047 5.97036 0
M  V30 1746 C 309.188 2.58828 5.25741 0
M  V30 1747 N 309.238 2.68068 3.77503 0
M  V30 1748 H 306.399 5.40332 6.79951 0
M  V30 1749 H 306.129 4.41613 5.32378 0
M  V30 1750 H 306.996 3.26331 7.47797 0
M  V30 1751 P 310.958 2.75334 8.47391 0
M  V30 1752 O 311.178 2.44571 9.90142 0
M  V30 1753 O 311.748 3.87688 7.92115 0
M  V30 1754 O 311.208 1.4459 7.59357 0
M  V30 1755 C 310.268 0.347608 7.69215 0
M  V30 1756 C 310.998 -0.96767 7.52806 0
M  V30 1757 O 311.208 -1.21036 6.1011 0
M  V30 1758 C 312.398 -1.04544 8.13308 0
M  V30 1759 O 312.788 -2.38311 8.41922 0
M  V30 1760 C 313.278 -0.491279 7.02284 0
M  V30 1761 C 312.568 -0.996264 5.77469 0
M  V30 1762 N 312.618 -0.0501916 4.62973 0
M  V30 1763 H 309.779 0.374722 8.67691 0
M  V30 1764 H 309.509 0.443485 6.90277 0
M  V30 1765 H 310.376 -1.75537 7.96793 0
M  V30 1766 P 314.338 -2.75334 8.47391 0
M  V30 1767 O 314.558 -3.84128 9.44797 0
M  V30 1768 O 315.128 -1.51947 8.68712 0
M  V30 1769 O 314.588 -3.29363 6.99321 0
M  V30 1770 C 313.648 -4.24011 6.4274 0
M  V30 1771 C 314.378 -5.20775 5.52155 0
M  V30 1772 O 314.588 -4.56534 4.22446 0
M  V30 1773 C 315.778 -5.62629 5.96531 0
M  V30 1774 O 316.168 -6.87667 5.41053 0
M  V30 1775 C 316.658 -4.52537 5.39283 0
M  V30 1776 C 315.948 -4.20027 4.08623 0
M  V30 1777 N 315.998 -2.76189 3.71603 0
M  V30 1778 H 313.159 -4.797 7.24003 0
M  V30 1779 H 312.889 -3.69856 5.84513 0
M  V30 1780 H 313.756 -6.10356 5.41441 0
M  V30 1781 P 317.718 -7.20834 5.23717 0
M  V30 1782 O 317.938 -8.66104 5.38572 0
M  V30 1783 O 318.508 -6.33544 6.1349 0
M  V30 1784 O 317.968 -6.7751 3.72168 0
M  V30 1785 C 317.028 -7.20825 2.7076 0
M  V30 1786 C 317.758 -7.45864 1.40599 0
M  V30 1787 O 317.968 -6.17651 0.734225 0
M  V30 1788 C 319.158 -8.05808 1.51899 0
M  V30 1789 O 319.548 -8.74358 0.335205 0
M  V30 1790 C 320.038 -6.83093 1.70294 0
M  V30 1791 C 319.328 -5.79992 0.836974 0
M  V30 1792 N 319.378 -4.41864 1.38293 0
M  V30 1793 H 316.539 -8.13644 3.0377 0
M  V30 1794 H 316.269 -6.42788 2.55485 0
M  V30 1795 H 317.136 -8.12039 0.792769 0
M  V30 1796 P 321.098 -8.91 -1.34042e-12 0
M  V30 1797 O 321.318 -10.1726 -0.733694 0
M  V30 1798 O 321.888 -8.73148 1.23936 0
M  V30 1799 O 321.348 -7.66872 -0.971405 0
M  V30 1800 C 320.408 -7.42309 -2.04641 0
M  V30 1801 C 321.138 -6.86059 -3.24661 0
M  V30 1802 O 321.348 -5.42847 -3.03646 0
M  V30 1803 C 322.538 -7.41196 -3.50753 0
M  V30 1804 O 322.928 -7.27073 -4.86816 0
M  V30 1805 C 323.418 -6.5273 -2.63741 0
M  V30 1806 C 322.708 -5.1842 -2.73198 0
M  V30 1807 N 322.758 -4.38762 -1.4784 0
M  V30 1808 H 319.919 -8.36803 -2.32493 0
M  V30 1809 H 319.649 -6.70197 -1.71129 0
M  V30 1810 H 320.516 -7.03551 -4.13168 0
M  V30 1811 P 324.478 -7.20834 -5.23717 0
M  V30 1812 O 324.698 -7.79853 -6.57286 0
M  V30 1813 O 325.268 -7.79239 -4.12957 0
M  V30 1814 O 324.728 -5.63315 -5.29344 0
M  V30 1815 C 323.788 -4.80255 -6.01876 0
M  V30 1816 C 324.518 -3.64202 -6.65911 0
M  V30 1817 O 324.728 -2.60694 -5.64732 0
M  V30 1818 C 325.918 -3.93473 -7.1943 0
M  V30 1819 O 326.308 -3.02071 -8.21205 0
M  V30 1820 C 326.798 -3.73047 -5.97036 0
M  V30 1821 C 326.088 -2.58828 -5.25741 0
M  V30 1822 N 326.138 -2.68068 -3.77503 0
M  V30 1823 H 323.299 -5.40332 -6.79951 0
M  V30 1824 H 323.029 -4.41613 -5.32378 0
M  V30 1825 H 323.896 -3.26331 -7.47797 0
M  V30 1826 P 327.858 -2.75334 -8.47391 0
M  V30 1827 O 328.078 -2.44571 -9.90142 0
M  V30 1828 O 328.648 -3.87688 -7.92115 0
M  V30 1829 O 328.108 -1.4459 -7.59357 0
M  V30 1830 C 327.168 -0.347608 -7.69215 0
M  V30 1831 C 327.898 0.96767 -7.52806 0
M  V30 1832 O 328.108 1.21036 -6.1011 0
M  V30 1833 C 329.298 1.04544 -8.13308 0
M  V30 1834 O 329.688 2.38311 -8.41922 0
M  V30 1835 C 330.178 0.491279 -7.02284 0
M  V30 1836 C 329.468 0.996264 -5.77469 0
M  V30 1837 N 329.518 0.0501916 -4.62973 0
M  V30 1838 H 326.679 -0.374722 -8.67691 0
M  V30 1839 H 326.409 -0.443485 -6.90277 0
M  V30 1840 H 327.276 1.75537 -7.96793 0
M  V30 1841 P 331.238 2.75334 -8.47391 0
M  V30 1842 O 331.458 3.84128 -9.44797 0
M  V30 1843 O 332.028 1.51947 -8.68712 0
M  V30 1844 O 331.488 3.29363 -6.99321 0
M  V30 1845 C 330.548 4.24011 -6.4274 0
M  V30 1846 C 331.278 5.20775 -5.52155 0
M  V30 1847 O 331.488 4.56534 -4.22446 0
M  V30 1848 C 332.678 5.62629 -5.96531 0
M  V30 1849 O 333.068 6.87667 -5.41053 0
M  V30 1850 C 333.558 4.52537 -5.39283 0
M  V30 1851 C 332.848 4.20027 -4.08623 0
M  V30 1852 N 332.898 2.76189 -3.71603 0
M  V30 1853 H 330.059 4.797 -7.24003 0
M  V30 1854 H 329.789 3.69856 -5.84513 0
M  V30 1855 H 330.656 6.10356 -5.41441 0
M  V30 1856 P 334.618 7.20834 -5.23717 0
M  V30 1857 O 334.838 8.66104 -5.38572 0
M  V30 1858 O 335.408 6.33544 -6.1349 0
M  V30 1859 O 334.868 6.7751 -3.72168 0
M  V30 1860 C 333.928 7.20825 -2.7076 0
M  V30 1861 C 334.658 7.45864 -1.40599 0
M  V30 1862 O 334.868 6.17651 -0.734225 0
M  V30 1863 C 336.058 8.05808 -1.51899 0
M  V30 1864 O 336.448 8.74358 -0.335205 0
M  V30 1865 C 336.938 6.83093 -1.70294 0
M  V30 1866 C 336.228 5.79992 -0.836974 0
M  V30 1867 N 336.278 4.41864 -1.38293 0
M  V30 1868 H 333.439 8.13644 -3.0377 0
M  V30 1869 H 333.169 6.42788 -2.55485 0
M  V30 1870 H 334.036 8.12039 -0.792769 0
M  V30 1871 P 337.998 8.91 1.4976e-12 0
M  V30 1872 O 338.218 10.1726 0.733694 0
M  V30 1873 O 338.788 8.73148 -1.23936 0
M  V30 1874 O 338.248 7.66872 0.971405 0
M  V30 1875 C 337.308 7.42309 2.04641 0
M  V30 1876 C 338.038 6.86059 3.24661 0
M  V30 1877 O 338.248 5.42847 3.03646 0
M  V30 1878 C 339.438 7.41196 3.50753 0
M  V30 1879 O 339.828 7.27073 4.86816 0
M  V30 1880 C 340.318 6.5273 2.63741 0
M  V30 1881 C 339.608 5.1842 2.73198 0
M  V30 1882 N 339.658 4.38762 1.4784 0
M  V30 1883 H 336.819 8.36803 2.32493 0
M  V30 1884 H 336.549 6.70197 1.71129 0
M  V30 1885 H 337.416 7.03551 4.13168 0
M  V30 1886 P 341.378 7.20834 5.23717 0
M  V30 1887 O 341.598 7.79853 6.57286 0
M  V30 1888 O 342.168 7.79239 4.12957 0
M  V30 1889 O 341.628 5.63315 5.29344 0
M  V30 1890 C 340.688 4.80255 6.01876 0
M  V30 1891 C 341.418 3.64202 6.65911 0
M  V30 1892 O 341.628 2.60694 5.64732 0
M  V30 1893 C 342.818 3.93473 7.1943 0
M  V30 1894 O 343.208 3.02071 8.21205 0
M  V30 1895 C 343.698 3.73047 5.97036 0
M  V30 1896 C 342.988 2.58828 5.25741 0
M  V30 1897 N 343.038 2.68068 3.77503 0
M  V30 1898 H 340.199 5.40332 6.79951 0
M  V30 1899 H 339.929 4.41613 5.32378 0
M  V30 1900 H 340.796 3.26331 7.47797 0
M  V30 1901 P 344.758 2.75334 8.47391 0
M  V30 1902 O 344.978 2.44571 9.90142 0
M  V30 1903 O 345.548 3.87688 7.92115 0
M  V30 1904 O 345.008 1.4459 7.59357 0
M  V30 1905 C 344.068 0.347608 7.69215 0
M  V30 1906 C 344.798 -0.96767 7.52806 0
M  V30 1907 O 345.008 -1.21036 6.1011 0
M  V30 1908 C 346.198 -1.04544 8.13308 0
M  V30 1909 O 346.588 -2.38311 8.41922 0
M  V30 1910 C 347.078 -0.491279 7.02284 0
M  V30 1911 C 346.368 -0.996264 5.77469 0
M  V30 1912 N 346.418 -0.0501916 4.62973 0
M  V30 1913 H 343.579 0.374722 8.67691 0
M  V30 1914 H 343.309 0.443485 6.90277 0
M  V30 1915 H 344.176 -1.75537 7.96793 0
M  V30 1916 P 348.138 -2.75334 8.47391 0
M  V30 1917 O 348.358 -3.84128 9.44797 0
M  V30 1918 O 348.928 -1.51947 8.68712 0
M  V30 1919 O 348.388 -3.29363 6.99321 0
M  V30 1920 C 347.448 -4.24011 6.4274 0
M  V30 1921 C 348.178 -5.20775 5.52155 0
M  V30 1922 O 348.388 -4.56534 4.22446 0
M  V30 1923 C 349.578 -5.62629 5.96531 0
M  V30 1924 O 349.968 -6.87667 5.41053 0
M  V30 1925 C 350.458 -4.52537 5.39283 0
M  V30 1926 C 349.748 -4.20027 4.08623 0
M  V30 1927 N 349.798 -2.76189 3.71603 0
M  V30 1928 H 346.959 -4.797 7.24003 0
M  V30 1929 H 346.689 -3.69856 5.84513 0
M  V30 1930 H 347.556 -6.10356 5.41441 0
M  V30 1931 P 351.518 -7.20834 5.23717 0
M  V30 1932 O 351.738 -8.66104 5.38572 0
M  V30 1933 O 352.308 -6.33544 6.1349 0
M  V30 1934 O 351.768 -6.7751 3.72168 0
M  V30 1935 C 350.828 -7.20825 2.7076 0
M  V30 1936 C 351.558 -7.45864 1.40599 0
M  V30 1937 O 351.768 -6.17651 0.734225 0
M  V30 1938 C 352.958 -8.05808 1.51899 0
M  V30 1939 O 353.348 -8.74358 0.335205 0
M  V30 1940 C 353.838 -6.83093 1.70294 0
M  V30 1941 C 353.128 -5.79992 0.836974 0
M  V30 1942 N 353.178 -4.41864 1.38293 0
M  V30 1943 H 350.339 -8.13644 3.0377 0
M  V30 1944 H 350.069 -6.42788 2.55485 0
M  V30 1945 H 350.936 -8.12039 0.792769 0
M  V30 1946 P 354.898 -8.91 -1.65478e-12 0
M  V30 1947 O 355.118 -10.1746 -0.733838 0
M  V30 1948 O 355.688 -8.73346 1.23964 0
M  V30 1949 O 355.148 -7.66872 -0.971405 0
M  V30 1950 C 354.208 -7.42405 -2.04668 0
M  V30 1951 C 354.938 -6.86059 -3.24661 0
M  V30 1952 O 355.148 -5.42934 -3.03695 0
M  V30 1953 C 356.338 -7.41287 -3.50796 0
M  V30 1954 O 356.728 -7.27073 -4.86816 0
M  V30 1955 C 357.218 -6.5273 -2.63741 0
M  V30 1956 C 356.508 -5.1842 -2.73198 0
M  V30 1957 N 356.558 -4.38762 -1.4784 0
M  V30 1958 H 353.72 -8.36899 -2.3252 0
M  V30 1959 H 353.448 -6.70391 -1.71179 0
M  V30 1960 H 354.316 -7.03638 -4.13219 0
M  V30 1961 H 356.971 -4.59931 -3.54016 0
M  V30 1962 H 357.251 -6.88995 -1.59871 0
M  V30 1963 H 358.242 -6.4684 -3.0373 0
M  V30 1964 H 356.408 -8.47002 -3.20749 0
M  V30 1965 P 358.278 -7.20834 -5.23717 0
M  V30 1966 O 358.498 -7.79853 -6.57286 0
M  V30 1967 O 359.068 -7.79239 -4.12957 0
M  V30 1968 O 358.528 -5.63315 -5.29344 0
M  V30 1969 C 357.588 -4.80255 -6.01876 0
M  V30 1970 C 358.318 -3.64202 -6.65911 0
M  V30 1971 O 358.528 -2.60694 -5.64732 0
M  V30 1972 C 359.718 -3.93473 -7.1943 0
M  V30 1973 O 360.108 -3.02071 -8.21205 0
M  V30 1974 C 360.598 -3.73047 -5.97036 0
M  V30 1975 C 359.888 -2.58828 -5.25741 0
M  V30 1976 N 359.938 -2.68068 -3.77503 0
M  V30 1977 H 357.099 -5.40332 -6.79951 0
M  V30 1978 H 356.829 -4.41613 -5.32378 0
M  V30 1979 H 357.696 -3.26331 -7.47797 0
M  V30 1980 P 361.658 -2.75334 -8.47391 0
M  V30 1981 O 361.878 -2.44571 -9.90142 0
M  V30 1982 O 362.448 -3.87688 -7.92115 0
M  V30 1983 O 361.908 -1.4459 -7.59357 0
M  V30 1984 C 360.968 -0.347608 -7.69215 0
M  V30 1985 C 361.698 0.96767 -7.52806 0
M  V30 1986 O 361.908 1.21036 -6.1011 0
M  V30 1987 C 363.098 1.04544 -8.13308 0
M  V30 1988 O 363.488 2.38311 -8.41922 0
M  V30 1989 C 363.978 0.491279 -7.02284 0
M  V30 1990 C 363.268 0.996264 -5.77469 0
M  V30 1991 N 363.318 0.0501916 -4.62973 0
M  V30 1992 H 360.479 -0.374722 -8.67691 0
M  V30 1993 H 360.209 -0.443485 -6.90277 0
M  V30 1994 H 361.076 1.75537 -7.96793 0
M  V30 1995 P 365.038 2.75334 -8.47391 0
M  V30 1996 O 365.258 3.84128 -9.44797 0
M  V30 1997 O 365.828 1.51947 -8.68712 0
M  V30 1998 O 365.288 3.29363 -6.99321 0
M  V30 1999 C 364.348 4.24011 -6.4274 0
M  V30 2000 C 365.078 5.20775 -5.52155 0
M  V30 2001 O 365.288 4.56534 -4.22446 0
M  V30 2002 C 366.478 5.62629 -5.96531 0
M  V30 2003 O 366.868 6.87667 -5.41053 0
M  V30 2004 C 367.358 4.52537 -5.39283 0
M  V30 2005 C 366.648 4.20027 -4.08623 0
M  V30 2006 N 366.698 2.76189 -3.71603 0
M  V30 2007 H 363.859 4.797 -7.24003 0
M  V30 2008 H 363.589 3.69856 -5.84513 0
M  V30 2009 H 364.456 6.10356 -5.41441 0
M  V30 2010 P 368.418 7.20834 -5.23717 0
M  V30 2011 O 368.638 8.66189 -5.38625 0
M  V30 2012 O 369.208 6.33615 -6.1356 0
M  V30 2013 O 368.668 6.7751 -3.72168 0
M  V30 2014 C 367.728 7.20825 -2.7076 0
M  V30 2015 C 368.458 7.45864 -1.40599 0
M  V30 2016 O 368.668 6.17651 -0.734225 0
M  V30 2017 C 369.858 8.05808 -1.51899 0
M  V30 2018 O 370.248 8.74358 -0.335205 0
M  V30 2019 C 370.738 6.83093 -1.70294 0
M  V30 2020 C 370.028 5.79992 -0.836974 0
M  V30 2021 N 370.078 4.41769 -1.38263 0
M  V30 2022 C 370.228 3.36514 -0.485617 0
M  V30 2023 O 370.318 3.61814 0.724703 0
M  V30 2024 N 370.278 2.00746 -1.14492 0
M  V30 2025 C 370.178 1.85887 -2.27776 0
M  V30 2026 N 370.228 0.600907 -2.69379 0
M  V30 2027 C 370.028 2.92182 -3.22265 0
M  V30 2028 C 369.978 4.18399 -2.71925 0
M  V30 2029 H 367.238 8.1355 -3.03735 0
M  V30 2030 H 366.969 6.42695 -2.55448 0
M  V30 2031 H 367.836 8.12139 -0.792866 0
M  V30 2032 H 370.491 5.80078 0.160615 0
M  V30 2033 H 370.77 6.51379 -2.75643 0
M  V30 2034 H 371.762 7.01734 -1.34462 0
M  V30 2035 H 369.928 8.73674 -2.38337 0
M  V30 2036 H 369.856 5.02669 -3.39718 0
M  V30 2037 H 369.958 2.73001 -4.29239 0
M  V30 2038 H 370.346 -0.162318 -2.01146 0
M  V30 2039 H 370.149 0.387742 -3.69773 0
M  V30 2040 P 371.798 8.91 1.81197e-12 0
M  V30 2041 O 372.018 10.1726 0.733694 0
M  V30 2042 O 372.588 8.73148 -1.23936 0
M  V30 2043 O 372.048 7.66872 0.971405 0
M  V30 2044 C 371.108 7.42309 2.04641 0
M  V30 2045 C 371.838 6.86059 3.24661 0
M  V30 2046 O 372.048 5.42847 3.03646 0
M  V30 2047 C 373.238 7.41196 3.50753 0
M  V30 2048 O 373.628 7.27073 4.86816 0
M  V30 2049 C 374.118 6.5273 2.63741 0
M  V30 2050 C 373.408 5.1842 2.73198 0
M  V30 2051 N 373.458 4.38762 1.4784 0
M  V30 2052 H 370.619 8.36803 2.32493 0
M  V30 2053 H 370.349 6.70197 1.71129 0
M  V30 2054 H 371.216 7.03551 4.13168 0
M  V30 2055 P 375.178 7.20834 5.23717 0
M  V30 2056 O 375.398 7.79853 6.57286 0
M  V30 2057 O 375.968 7.79239 4.12957 0
M  V30 2058 O 375.428 5.63315 5.29344 0
M  V30 2059 C 374.488 4.80255 6.01876 0
M  V30 2060 C 375.218 3.64202 6.65911 0
M  V30 2061 O 375.428 2.60694 5.64732 0
M  V30 2062 C 376.618 3.93473 7.1943 0
M  V30 2063 O 377.008 3.02071 8.21205 0
M  V30 2064 C 377.498 3.73047 5.97036 0
M  V30 2065 C 376.788 2.58828 5.25741 0
M  V30 2066 N 376.838 2.68068 3.77503 0
M  V30 2067 C 376.758 3.79715 2.96723 0
M  V30 2068 N 376.838 3.5377 1.68852 0
M  V30 2069 C 376.978 2.15054 1.63254 0
M  V30 2070 C 377.108 1.28964 0.518571 0
M  V30 2071 N 377.228 -0.0538097 0.918425 0
M  V30 2072 C 377.228 -0.494275 2.22578 0
M  V30 2073 N 377.358 -1.81086 2.40434 0
M  V30 2074 N 377.098 0.313645 3.27502 0
M  V30 2075 C 376.978 1.61829 2.91033 0
M  V30 2076 H 373.999 5.40332 6.79951 0
M  V30 2077 H 373.729 4.41613 5.32378 0
M  V30 2078 H 374.596 3.26331 7.47797 0
M  V30 2079 P 378.558 2.75334 8.47391 0
M  V30 2080 O 378.778 2.44619 9.90336 0
M  V30 2081 O 379.348 3.87776 7.92294 0
M  V30 2082 O 378.808 1.4459 7.59357 0
M  V30 2083 C 377.868 0.347653 7.69315 0
M  V30 2084 C 378.598 -0.96767 7.52806 0
M  V30 2085 O 378.808 -1.21055 6.10208 0
M  V30 2086 C 379.998 -1.04557 8.13408 0
M  V30 2087 O 380.388 -2.38311 8.41922 0
M  V30 2088 C 380.878 -0.491279 7.02284 0
M  V30 2089 C 380.168 -0.996264 5.77469 0
M  V30 2090 N 380.218 -0.0501916 4.62973 0
M  V30 2091 C 380.138 1.31969 4.65661 0
M  V30 2092 N 380.208 1.86649 3.48119 0
M  V30 2093 C 380.358 0.792089 2.62406 0
M  V30 2094 C 380.488 0.705684 1.2207 0
M  V30 2095 N 380.498 1.76207 0.413762 0
M  V30 2096 N 380.608 -0.518981 0.685754 0
M  V30 2097 C 380.598 -1.57595 1.49174 0
M  V30 2098 N 380.478 -1.62909 2.80066 0
M  V30 2099 C 380.358 -0.388195 3.3073 0
M  V30 2100 H 377.38 0.374765 8.67791 0
M  V30 2101 H 377.108 0.443613 6.90476 0
M  V30 2102 H 377.976 -1.75559 7.96891 0
M  V30 2103 H 380.631 -1.94563 5.46818 0
M  V30 2104 H 380.911 0.608651 7.04676 0
M  V30 2105 H 381.902 -0.889796 7.09039 0
M  V30 2106 H 380.068 -0.433128 9.04664 0
M  V30 2107 H 380.027 1.89246 5.57664 0
M  V30 2108 H 380.408 2.71005 0.804694 0
M  V30 2109 H 380.597 1.63189 -0.603768 0
M  V30 2110 H 380.705 -2.53475 0.997614 0
M  V30 2111 P 381.938 -2.75334 8.47391 0
M  V30 2112 O 382.158 -3.84128 9.44797 0
M  V30 2113 O 382.728 -1.51947 8.68712 0
M  V30 2114 O 382.188 -3.29363 6.99321 0
M  V30 2115 C 381.248 -4.24011 6.4274 0
M  V30 2116 C 381.978 -5.20775 5.52155 0
M  V30 2117 O 382.188 -4.56534 4.22446 0
M  V30 2118 C 383.378 -5.62629 5.96531 0
M  V30 2119 O 383.768 -6.87667 5.41053 0
M  V30 2120 C 384.258 -4.52537 5.39283 0
M  V30 2121 C 383.548 -4.20027 4.08623 0
M  V30 2122 N 383.598 -2.76189 3.71603 0
M  V30 2123 C 383.518 -1.64862 4.52822 0
M  V30 2124 N 383.598 -0.512671 3.88633 0
M  V30 2125 C 383.738 -0.888083 2.54977 0
M  V30 2126 C 383.868 -0.094668 1.38677 0
M  V30 2127 O 383.888 1.13053 1.28163 0
M  V30 2128 N 383.988 -0.890102 0.232633 0
M  V30 2129 C 383.988 -2.26958 0.21772 0
M  V30 2130 N 384.118 -2.84626 -0.97925 0
M  V30 2131 N 383.858 -3.0178 1.31033 0
M  V30 2132 C 383.738 -2.26781 2.43843 0
M  V30 2133 H 380.759 -4.797 7.24003 0
M  V30 2134 H 380.489 -3.69856 5.84513 0
M  V30 2135 H 381.356 -6.10356 5.41441 0
M  V30 2136 H 384.011 -4.79061 3.27488 0
M  V30 2137 H 384.29 -3.64906 6.05785 0
M  V30 2138 H 385.282 -4.8868 5.2125 0
M  V30 2139 H 383.448 -5.66726 7.06352 0
M  V30 2140 H 383.399 -1.71169 5.60966 0
M  V30 2141 H 384.081 -0.419134 -0.644739 0
M  V30 2142 H 384.118 -3.87332 -1.06098 0
M  V30 2143 H 384.219 -2.26417 -1.82483 0
M  V30 2144 P 385.318 -7.20834 5.23717 0
M  V30 2145 O 385.538 -8.66104 5.38572 0
M  V30 2146 O 386.108 -6.33544 6.1349 0
M  V30 2147 O 385.568 -6.7751 3.72168 0
M  V30 2148 C 384.628 -7.20825 2.7076 0
M  V30 2149 C 385.358 -7.45864 1.40599 0
M  V30 2150 O 385.568 -6.17651 0.734225 0
M  V30 2151 C 386.758 -8.05808 1.51899 0
M  V30 2152 O 387.148 -8.74358 0.335205 0
M  V30 2153 C 387.638 -6.83093 1.70294 0
M  V30 2154 C 386.928 -5.79992 0.836974 0
M  V30 2155 N 386.978 -4.41864 1.38293 0
M  V30 2156 H 384.139 -8.13644 3.0377 0
M  V30 2157 H 383.869 -6.42788 2.55485 0
M  V30 2158 H 384.736 -8.12039 0.792769 0
M  V30 2159 P 388.698 -8.91 -1.96915e-12 0
M  V30 2160 O 388.918 -10.1726 -0.733694 0
M  V30 2161 O 389.488 -8.73148 1.23936 0
M  V30 2162 O 388.948 -7.66872 -0.971405 0
M  V30 2163 C 388.008 -7.42309 -2.04641 0
M  V30 2164 C 388.738 -6.86059 -3.24661 0
M  V30 2165 O 388.948 -5.42847 -3.03646 0
M  V30 2166 C 390.138 -7.41196 -3.50753 0
M  V30 2167 O 390.528 -7.27073 -4.86816 0
M  V30 2168 C 391.018 -6.5273 -2.63741 0
M  V30 2169 C 390.308 -5.1842 -2.73198 0
M  V30 2170 N 390.358 -4.38762 -1.4784 0
M  V30 2171 H 387.519 -8.36803 -2.32493 0
M  V30 2172 H 387.249 -6.70197 -1.71129 0
M  V30 2173 H 388.116 -7.03551 -4.13168 0
M  V30 2174 P 392.078 -7.20834 -5.23717 0
M  V30 2175 O 392.298 -7.79853 -6.57286 0
M  V30 2176 O 392.868 -7.79239 -4.12957 0
M  V30 2177 O 392.328 -5.63315 -5.29344 0
M  V30 2178 C 391.388 -4.80255 -6.01876 0
M  V30 2179 C 392.118 -3.64202 -6.65911 0
M  V30 2180 O 392.328 -2.60694 -5.64732 0
M  V30 2181 C 393.518 -3.93473 -7.1943 0
M  V30 2182 O 393.908 -3.02071 -8.21205 0
M  V30 2183 C 394.398 -3.73047 -5.97036 0
M  V30 2184 C 393.688 -2.58828 -5.25741 0
M  V30 2185 N 393.738 -2.68068 -3.77503 0
M  V30 2186 H 390.899 -5.40332 -6.79951 0
M  V30 2187 H 390.629 -4.41613 -5.32378 0
M  V30 2188 H 391.496 -3.26331 -7.47797 0
M  V30 2189 P 395.458 -2.75334 -8.47391 0
M  V30 2190 O 395.678 -2.44571 -9.90142 0
M  V30 2191 O 396.248 -3.87688 -7.92115 0
M  V30 2192 O 395.708 -1.4459 -7.59357 0
M  V30 2193 C 394.768 -0.347608 -7.69215 0
M  V30 2194 C 395.498 0.96767 -7.52806 0
M  V30 2195 O 395.708 1.21036 -6.1011 0
M  V30 2196 C 396.898 1.04544 -8.13308 0
M  V30 2197 O 397.288 2.38311 -8.41922 0
M  V30 2198 C 397.778 0.491279 -7.02284 0
M  V30 2199 C 397.068 0.996264 -5.77469 0
M  V30 2200 N 397.118 0.0501916 -4.62973 0
M  V30 2201 H 394.279 -0.374722 -8.67691 0
M  V30 2202 H 394.009 -0.443485 -6.90277 0
M  V30 2203 H 394.876 1.75537 -7.96793 0
M  V30 2204 P 398.838 2.75334 -8.47391 0
M  V30 2205 O 399.058 3.84204 -9.44982 0
M  V30 2206 O 399.628 1.51982 -8.68909 0
M  V30 2207 O 399.088 3.29363 -6.99321 0
M  V30 2208 C 398.148 4.24066 -6.42823 0
M  V30 2209 C 398.878 5.20775 -5.52155 0
M  V30 2210 O 399.088 4.56607 -4.22514 0
M  V30 2211 C 400.278 5.62697 -5.96604 0
M  V30 2212 O 400.668 6.87667 -5.41053 0
M  V30 2213 C 401.158 4.52537 -5.39283 0
M  V30 2214 C 400.448 4.20027 -4.08623 0
M  V30 2215 N 400.498 2.76189 -3.71603 0
M  V30 2216 H 397.66 4.79756 -7.24086 0
M  V30 2217 H 397.388 3.69963 -5.84682 0
M  V30 2218 H 398.256 6.10431 -5.41508 0
M  V30 2219 H 400.911 4.78816 -3.28024 0
M  V30 2220 H 401.191 3.64957 -6.05871 0
M  V30 2221 H 402.182 4.88748 -5.21323 0
M  V30 2222 H 400.348 5.66789 -7.0643 0
M  V30 2223 P 402.218 7.20834 -5.23717 0
M  V30 2224 O 402.438 8.66189 -5.38625 0
M  V30 2225 O 403.008 6.33615 -6.1356 0
M  V30 2226 O 402.468 6.7751 -3.72168 0
M  V30 2227 C 401.528 7.20732 -2.70725 0
M  V30 2228 C 402.258 7.45864 -1.40599 0
M  V30 2229 O 402.468 6.17651 -0.734225 0
M  V30 2230 C 403.658 8.05808 -1.51899 0
M  V30 2231 O 404.048 8.74358 -0.335205 0
M  V30 2232 C 404.538 6.83093 -1.70294 0
M  V30 2233 C 403.828 5.79992 -0.836974 0
M  V30 2234 N 403.878 4.41769 -1.38263 0
M  V30 2235 C 404.028 3.38591 -0.481702 0
M  V30 2236 O 404.118 3.56839 0.718452 0
M  V30 2237 N 404.068 2.1206 -1.03569 0
M  V30 2238 C 403.978 1.80696 -2.36966 0
M  V30 2239 O 404.028 0.630473 -2.74862 0
M  V30 2240 C 403.828 2.94845 -3.23898 0
M  V30 2241 C 403.718 2.65253 -4.70362 0
M  V30 2242 C 403.778 4.19803 -2.73435 0
M  V30 2243 H 401.038 8.13644 -3.0377 0
M  V30 2244 H 400.769 6.42695 -2.55448 0
M  V30 2245 H 401.636 8.12039 -0.792769 0
M  V30 2246 H 404.291 5.79978 0.160587 0
M  V30 2247 H 404.57 6.51379 -2.75643 0
M  V30 2248 H 405.562 7.01734 -1.34462 0
M  V30 2249 H 403.728 8.73674 -2.38337 0
M  V30 2250 H 403.657 5.04492 -3.4095 0
M  V30 2251 H 404.687 2.83924 -5.1913 0
M  V30 2252 H 402.95 3.29824 -5.15163 0
M  V30 2253 H 403.438 1.59723 -4.84449 0
M  V30 2254 H 404.174 1.35644 -0.399345 0
M  V30 2255 P 405.598 8.91 2.12633e-12 0
M  V30 2256 O 405.818 10.1726 0.733694 0
M  V30 2257 O 406.388 8.73148 -1.23936 0
M  V30 2258 O 405.848 7.66872 0.971405 0
M  V30 2259 C 404.908 7.42309 2.04641 0
M  V30 2260 C 405.638 6.86059 3.24661 0
M  V30 2261 O 405.848 5.42847 3.03646 0
M  V30 2262 C 407.038 7.41196 3.50753 0
M  V30 2263 O 407.428 7.27073 4.86816 0
M  V30 2264 C 407.918 6.5273 2.63741 0
M  V30 2265 C 407.208 5.1842 2.73198 0
M  V30 2266 N 407.258 4.38762 1.4784 0
M  V30 2267 C 407.178 4.81605 0.168631 0
M  V30 2268 N 407.258 3.85454 -0.713363 0
M  V30 2269 C 407.398 2.6994 0.0566958 0
M  V30 2270 C 407.528 1.34815 -0.338502 0
M  V30 2271 O 407.548 0.869548 -1.47125 0
M  V30 2272 N 407.648 0.496304 0.77465 0
M  V30 2273 C 407.648 0.908403 2.09122 0
M  V30 2274 N 407.778 -0.0517805 3.00955 0
M  V30 2275 N 407.518 2.17875 2.46519 0
M  V30 2276 C 407.398 3.01988 1.4033 0
M  V30 2277 H 404.419 8.36803 2.32493 0
M  V30 2278 H 404.149 6.70197 1.71129 0
M  V30 2279 H 405.016 7.03551 4.13168 0
M  V30 2280 H 407.671 4.59498 3.54415 0
M  V30 2281 H 407.95 6.88898 1.59848 0
M  V30 2282 H 408.942 6.46749 3.03687 0
M  V30 2283 H 407.108 8.46908 3.20714 0
M  V30 2284 H 407.059 5.86405 -0.105564 0
M  V30 2285 H 407.741 -0.483664 0.597855 0
M  V30 2286 H 407.778 0.187865 4.0116 0
M  V30 2287 H 407.879 -1.03585 2.71726 0
M  V30 2288 P 408.978 7.20834 5.23717 0
M  V30 2289 O 409.198 7.79853 6.57286 0
M  V30 2290 O 409.768 7.79239 4.12957 0
M  V30 2291 O 409.228 5.63315 5.29344 0
M  V30 2292 C 408.288 4.80255 6.01876 0
M  V30 2293 C 409.018 3.64202 6.65911 0
M  V30 2294 O 409.228 2.60694 5.64732 0
M  V30 2295 C 410.418 3.93473 7.1943 0
M  V30 2296 O 410.808 3.02071 8.21205 0
M  V30 2297 C 411.298 3.73047 5.97036 0
M  V30 2298 C 410.588 2.58828 5.25741 0
M  V30 2299 N 410.638 2.68068 3.77503 0
M  V30 2300 H 407.799 5.40332 6.79951 0
M  V30 2301 H 407.529 4.41613 5.32378 0
M  V30 2302 H 408.396 3.26331 7.47797 0
M  V30 2303 P 412.358 2.75334 8.47391 0
M  V30 2304 O 412.578 2.44619 9.90336 0
M  V30 2305 O 413.148 3.87776 7.92294 0
M  V30 2306 O 412.608 1.4459 7.59357 0
M  V30 2307 C 411.668 0.347653 7.69315 0
M  V30 2308 C 412.398 -0.96767 7.52806 0
M  V30 2309 O 412.608 -1.21055 6.10208 0
M  V30 2310 C 413.798 -1.04557 8.13408 0
M  V30 2311 O 414.188 -2.38311 8.41922 0
M  V30 2312 C 414.678 -0.491279 7.02284 0
M  V30 2313 C 413.968 -0.996264 5.77469 0
M  V30 2314 N 414.018 -0.0501916 4.62973 0
M  V30 2315 H 411.18 0.374765 8.67791 0
M  V30 2316 H 410.908 0.443613 6.90476 0
M  V30 2317 H 411.776 -1.75559 7.96891 0
M  V30 2318 H 414.431 -1.94563 5.46818 0
M  V30 2319 H 414.711 0.608651 7.04676 0
M  V30 2320 H 415.702 -0.889796 7.09039 0
M  V30 2321 H 413.868 -0.433128 9.04664 0
M  V30 2322 P 415.738 -2.75334 8.47391 0
M  V30 2323 O 415.958 -3.84128 9.44797 0
M  V30 2324 O 416.528 -1.51947 8.68712 0
M  V30 2325 O 415.988 -3.29363 6.99321 0
M  V30 2326 C 415.048 -4.24011 6.4274 0
M  V30 2327 C 415.778 -5.20775 5.52155 0
M  V30 2328 O 415.988 -4.56534 4.22446 0
M  V30 2329 C 417.178 -5.62629 5.96531 0
M  V30 2330 O 417.568 -6.87667 5.41053 0
M  V30 2331 C 418.058 -4.52537 5.39283 0
M  V30 2332 C 417.348 -4.20027 4.08623 0
M  V30 2333 N 417.398 -2.76189 3.71603 0
M  V30 2334 H 414.559 -4.797 7.24003 0
M  V30 2335 H 414.289 -3.69856 5.84513 0
M  V30 2336 H 415.156 -6.10356 5.41441 0
M  V30 2337 P 419.118 -7.20834 5.23717 0
M  V30 2338 O 419.338 -8.66104 5.38572 0
M  V30 2339 O 419.908 -6.33544 6.1349 0
M  V30 2340 O 419.368 -6.7751 3.72168 0
M  V30 2341 C 418.428 -7.20825 2.7076 0
M  V30 2342 C 419.158 -7.45864 1.40599 0
M  V30 2343 O 419.368 -6.17651 0.734225 0
M  V30 2344 C 420.558 -8.05808 1.51899 0
M  V30 2345 O 420.948 -8.74358 0.335205 0
M  V30 2346 C 421.438 -6.83093 1.70294 0
M  V30 2347 C 420.728 -5.79992 0.836974 0
M  V30 2348 N 420.778 -4.41864 1.38293 0
M  V30 2349 H 417.939 -8.13644 3.0377 0
M  V30 2350 H 417.669 -6.42788 2.55485 0
M  V30 2351 H 418.536 -8.12039 0.792769 0
M  V30 2352 P 422.497 -8.91 -2.28351e-12 0
M  V30 2353 O 422.717 -10.1726 -0.733694 0
M  V30 2354 O 423.287 -8.73148 1.23936 0
M  V30 2355 O 422.747 -7.66872 -0.971405 0
M  V30 2356 C 421.807 -7.42309 -2.04641 0
M  V30 2357 C 422.537 -6.86059 -3.24661 0
M  V30 2358 O 422.747 -5.42847 -3.03646 0
M  V30 2359 C 423.937 -7.41196 -3.50753 0
M  V30 2360 O 424.327 -7.27073 -4.86816 0
M  V30 2361 C 424.817 -6.5273 -2.63741 0
M  V30 2362 C 424.107 -5.1842 -2.73198 0
M  V30 2363 N 424.157 -4.38762 -1.4784 0
M  V30 2364 H 421.318 -8.36803 -2.32493 0
M  V30 2365 H 421.048 -6.70197 -1.71129 0
M  V30 2366 H 421.915 -7.03551 -4.13168 0
M  V30 2367 P 425.877 -7.20834 -5.23717 0
M  V30 2368 O 426.097 -7.79853 -6.57286 0
M  V30 2369 O 426.667 -7.79239 -4.12957 0
M  V30 2370 O 426.127 -5.63315 -5.29344 0
M  V30 2371 C 425.187 -4.80255 -6.01876 0
M  V30 2372 C 425.917 -3.64202 -6.65911 0
M  V30 2373 O 426.127 -2.60694 -5.64732 0
M  V30 2374 C 427.317 -3.93473 -7.1943 0
M  V30 2375 O 427.707 -3.02071 -8.21205 0
M  V30 2376 C 428.197 -3.73047 -5.97036 0
M  V30 2377 C 427.487 -2.58828 -5.25741 0
M  V30 2378 N 427.537 -2.68068 -3.77503 0
M  V30 2379 H 424.698 -5.40332 -6.79951 0
M  V30 2380 H 424.428 -4.41613 -5.32378 0
M  V30 2381 H 425.295 -3.26331 -7.47797 0
M  V30 2382 P 429.257 -2.75334 -8.47391 0
M  V30 2383 O 429.477 -2.44571 -9.90142 0
M  V30 2384 O 430.047 -3.87688 -7.92115 0
M  V30 2385 O 429.507 -1.4459 -7.59357 0
M  V30 2386 C 428.567 -0.347608 -7.69215 0
M  V30 2387 C 429.297 0.96767 -7.52806 0
M  V30 2388 O 429.507 1.21036 -6.1011 0
M  V30 2389 C 430.697 1.04544 -8.13308 0
M  V30 2390 O 431.087 2.38311 -8.41922 0
M  V30 2391 C 431.577 0.491279 -7.02284 0
M  V30 2392 C 430.867 0.996264 -5.77469 0
M  V30 2393 N 430.917 0.0501916 -4.62973 0
M  V30 2394 C 430.837 -1.32786 -4.63244 0
M  V30 2395 N 430.917 -1.86957 -3.44545 0
M  V30 2396 C 431.057 -0.780241 -2.58481 0
M  V30 2397 C 431.187 -0.738536 -1.17757 0
M  V30 2398 N 431.307 0.58337 -0.711393 0
M  V30 2399 C 431.307 1.70816 -1.51017 0
M  V30 2400 N 431.437 2.87826 -0.880757 0
M  V30 2401 N 431.177 1.67126 -2.8339 0
M  V30 2402 C 431.057 0.401421 -3.30572 0
M  V30 2403 H 428.078 -0.374722 -8.67691 0
M  V30 2404 H 427.808 -0.443485 -6.90277 0
M  V30 2405 H 428.675 1.75537 -7.96793 0
M  V30 2406 P 432.637 2.75334 -8.47391 0
M  V30 2407 O 432.857 3.84128 -9.44797 0
M  V30 2408 O 433.427 1.51947 -8.68712 0
M  V30 2409 O 432.887 3.29363 -6.99321 0
M  V30 2410 C 431.947 4.24011 -6.4274 0
M  V30 2411 C 432.677 5.20775 -5.52155 0
M  V30 2412 O 432.887 4.56534 -4.22446 0
M  V30 2413 C 434.077 5.62629 -5.96531 0
M  V30 2414 O 434.467 6.87667 -5.41053 0
M  V30 2415 C 434.957 4.52537 -5.39283 0
M  V30 2416 C 434.247 4.20027 -4.08623 0
M  V30 2417 N 434.297 2.76189 -3.71603 0
M  V30 2418 C 434.217 1.64862 -4.52822 0
M  V30 2419 N 434.297 0.512671 -3.88633 0
M  V30 2420 C 434.437 0.888083 -2.54977 0
M  V30 2421 C 434.567 0.094668 -1.38677 0
M  V30 2422 N 434.687 0.890102 -0.232633 0
M  V30 2423 C 434.687 2.26958 -0.21772 0
M  V30 2424 N 434.817 2.84626 0.97925 0
M  V30 2425 N 434.557 3.0178 -1.31033 0
M  V30 2426 C 434.437 2.26781 -2.43843 0
M  V30 2427 H 431.458 4.797 -7.24003 0
M  V30 2428 H 431.188 3.69856 -5.84513 0
M  V30 2429 H 432.055 6.10356 -5.41441 0
M  V30 2430 P 436.017 7.20834 -5.23717 0
M  V30 2431 O 436.237 8.66104 -5.38572 0
M  V30 2432 O 436.807 6.33544 -6.1349 0
M  V30 2433 O 436.267 6.7751 -3.72168 0
M  V30 2434 C 435.327 7.20825 -2.7076 0
M  V30 2435 C 436.057 7.45864 -1.40599 0
M  V30 2436 O 436.267 6.17651 -0.734225 0
M  V30 2437 C 437.457 8.05808 -1.51899 0
M  V30 2438 O 437.847 8.74358 -0.335205 0
M  V30 2439 C 438.337 6.83093 -1.70294 0
M  V30 2440 C 437.627 5.79992 -0.836974 0
M  V30 2441 N 437.677 4.41864 -1.38293 0
M  V30 2442 H 434.838 8.13644 -3.0377 0
M  V30 2443 H 434.568 6.42788 -2.55485 0
M  V30 2444 H 435.435 8.12039 -0.792769 0
M  V30 2445 P 439.397 8.91 2.44069e-12 0
M  V30 2446 O 439.617 10.1736 0.733766 0
M  V30 2447 O 440.187 8.73247 -1.2395 0
M  V30 2448 O 439.647 7.66872 0.971405 0
M  V30 2449 C 438.707 7.42212 2.04614 0
M  V30 2450 C 439.437 6.86059 3.24661 0
M  V30 2451 O 439.647 5.42847 3.03646 0
M  V30 2452 C 440.837 7.41196 3.50753 0
M  V30 2453 O 441.227 7.27073 4.86816 0
M  V30 2454 C 441.717 6.5273 2.63741 0
M  V30 2455 C 441.007 5.1842 2.73198 0
M  V30 2456 N 441.057 4.38668 1.47808 0
M  V30 2457 C 441.207 3.02239 1.60048 0
M  V30 2458 O 441.297 2.46459 2.67869 0
M  V30 2459 N 441.247 2.32436 0.408571 0
M  V30 2460 C 441.157 2.85471 -0.854993 0
M  V30 2461 C 441.007 4.28918 -0.887335 0
M  V30 2462 C 440.957 5.00349 0.255399 0
M  V30 2463 H 438.217 8.36803 2.32493 0
M  V30 2464 H 437.948 6.701 1.71105 0
M  V30 2465 H 438.815 7.03551 4.13168 0
M  V30 2466 H 441.47 4.59773 3.53894 0
M  V30 2467 H 441.749 6.88995 1.59871 0
M  V30 2468 H 442.741 6.46749 3.03687 0
M  V30 2469 H 440.907 8.46908 3.20714 0
M  V30 2470 H 440.836 6.08548 0.206986 0
M  V30 2471 P 442.777 7.20834 5.23717 0
M  V30 2472 O 442.997 7.79853 6.57286 0
M  V30 2473 O 443.567 7.79239 4.12957 0
M  V30 2474 O 443.027 5.63315 5.29344 0
M  V30 2475 C 442.087 4.80255 6.01876 0
M  V30 2476 C 442.817 3.64202 6.65911 0
M  V30 2477 O 443.027 2.60694 5.64732 0
M  V30 2478 C 444.217 3.93473 7.1943 0
M  V30 2479 O 444.607 3.02071 8.21205 0
M  V30 2480 C 445.097 3.73047 5.97036 0
M  V30 2481 C 444.387 2.58828 5.25741 0
M  V30 2482 N 444.437 2.68068 3.77503 0
M  V30 2483 H 441.598 5.40332 6.79951 0
M  V30 2484 H 441.328 4.41613 5.32378 0
M  V30 2485 H 442.195 3.26331 7.47797 0
M  V30 2486 P 446.157 2.75334 8.47391 0
M  V30 2487 O 446.377 2.44571 9.90142 0
M  V30 2488 O 446.947 3.87688 7.92115 0
M  V30 2489 O 446.407 1.4459 7.59357 0
M  V30 2490 C 445.467 0.347608 7.69215 0
M  V30 2491 C 446.197 -0.96767 7.52806 0
M  V30 2492 O 446.407 -1.21036 6.1011 0
M  V30 2493 C 447.597 -1.04544 8.13308 0
M  V30 2494 O 447.987 -2.38311 8.41922 0
M  V30 2495 C 448.477 -0.491279 7.02284 0
M  V30 2496 C 447.767 -0.996264 5.77469 0
M  V30 2497 N 447.817 -0.0501916 4.62973 0
M  V30 2498 H 444.978 0.374722 8.67691 0
M  V30 2499 H 444.708 0.443485 6.90277 0
M  V30 2500 H 445.575 -1.75537 7.96793 0
M  V30 2501 P 449.537 -2.75334 8.47391 0
M  V30 2502 O 449.757 -3.84128 9.44797 0
M  V30 2503 O 450.327 -1.51947 8.68712 0
M  V30 2504 O 449.787 -3.29363 6.99321 0
M  V30 2505 C 448.847 -4.24011 6.4274 0
M  V30 2506 C 449.577 -5.20775 5.52155 0
M  V30 2507 O 449.787 -4.56534 4.22446 0
M  V30 2508 C 450.977 -5.62629 5.96531 0
M  V30 2509 O 451.367 -6.87667 5.41053 0
M  V30 2510 C 451.857 -4.52537 5.39283 0
M  V30 2511 C 451.147 -4.20027 4.08623 0
M  V30 2512 N 451.197 -2.76189 3.71603 0
M  V30 2513 H 448.358 -4.797 7.24003 0
M  V30 2514 H 448.088 -3.69856 5.84513 0
M  V30 2515 H 448.955 -6.10356 5.41441 0
M  V30 2516 P 452.917 -7.20834 5.23717 0
M  V30 2517 O 453.137 -8.66189 5.38625 0
M  V30 2518 O 453.707 -6.33615 6.1356 0
M  V30 2519 O 453.167 -6.7751 3.72168 0
M  V30 2520 C 452.227 -7.20732 2.70725 0
M  V30 2521 C 452.957 -7.45864 1.40599 0
M  V30 2522 O 453.167 -6.17651 0.734225 0
M  V30 2523 C 454.357 -8.05808 1.51899 0
M  V30 2524 O 454.747 -8.74358 0.335205 0
M  V30 2525 C 455.237 -6.83093 1.70294 0
M  V30 2526 C 454.527 -5.79992 0.836974 0
M  V30 2527 N 454.577 -4.41769 1.38263 0
M  V30 2528 C 454.727 -3.38591 0.481702 0
M  V30 2529 O 454.817 -3.56839 -0.718452 0
M  V30 2530 N 454.767 -2.1206 1.03569 0
M  V30 2531 C 454.677 -1.80696 2.36966 0
M  V30 2532 O 454.727 -0.630473 2.74862 0
M  V30 2533 C 454.527 -2.94845 3.23898 0
M  V30 2534 C 454.417 -2.65253 4.70362 0
M  V30 2535 C 454.477 -4.19803 2.73435 0
M  V30 2536 H 451.737 -8.13644 3.0377 0
M  V30 2537 H 451.468 -6.42695 2.55448 0
M  V30 2538 H 452.335 -8.12039 0.792769 0
M  V30 2539 H 454.99 -5.79978 -0.160587 0
M  V30 2540 H 455.269 -6.51379 2.75643 0
M  V30 2541 H 456.261 -7.01734 1.34462 0
M  V30 2542 H 454.427 -8.73674 2.38337 0
M  V30 2543 H 454.356 -5.04492 3.4095 0
M  V30 2544 H 455.386 -2.83924 5.1913 0
M  V30 2545 H 453.649 -3.29824 5.15163 0
M  V30 2546 H 454.137 -1.59723 4.84449 0
M  V30 2547 H 454.873 -1.35644 0.399345 0
M  V30 2548 P 456.297 -8.91 -2.59788e-12 0
M  V30 2549 O 456.517 -10.1726 -0.733694 0
M  V30 2550 O 457.087 -8.73148 1.23936 0
M  V30 2551 O 456.547 -7.66872 -0.971405 0
M  V30 2552 C 455.607 -7.42309 -2.04641 0
M  V30 2553 C 456.337 -6.86059 -3.24661 0
M  V30 2554 O 456.547 -5.42847 -3.03646 0
M  V30 2555 C 457.737 -7.41196 -3.50753 0
M  V30 2556 O 458.127 -7.27073 -4.86816 0
M  V30 2557 C 458.617 -6.5273 -2.63741 0
M  V30 2558 C 457.907 -5.1842 -2.73198 0
M  V30 2559 N 457.957 -4.38762 -1.4784 0
M  V30 2560 H 455.118 -8.36803 -2.32493 0
M  V30 2561 H 454.848 -6.70197 -1.71129 0
M  V30 2562 H 455.715 -7.03551 -4.13168 0
M  V30 2563 P 459.677 -7.20834 -5.23717 0
M  V30 2564 O 459.897 -7.79853 -6.57286 0
M  V30 2565 O 460.467 -7.79239 -4.12957 0
M  V30 2566 O 459.927 -5.63315 -5.29344 0
M  V30 2567 C 458.987 -4.80255 -6.01876 0
M  V30 2568 C 459.717 -3.64202 -6.65911 0
M  V30 2569 O 459.927 -2.60694 -5.64732 0
M  V30 2570 C 461.117 -3.93473 -7.1943 0
M  V30 2571 O 461.507 -3.02071 -8.21205 0
M  V30 2572 C 461.997 -3.73047 -5.97036 0
M  V30 2573 C 461.287 -2.58828 -5.25741 0
M  V30 2574 N 461.337 -2.68068 -3.77503 0
M  V30 2575 H 458.498 -5.40332 -6.79951 0
M  V30 2576 H 458.228 -4.41613 -5.32378 0
M  V30 2577 H 459.095 -3.26331 -7.47797 0
M  V30 2578 P 463.057 -2.75334 -8.47391 0
M  V30 2579 O 463.277 -2.44571 -9.90142 0
M  V30 2580 O 463.847 -3.87688 -7.92115 0
M  V30 2581 O 463.307 -1.4459 -7.59357 0
M  V30 2582 C 462.367 -0.347608 -7.69215 0
M  V30 2583 C 463.097 0.96767 -7.52806 0
M  V30 2584 O 463.307 1.21036 -6.1011 0
M  V30 2585 C 464.497 1.04544 -8.13308 0
M  V30 2586 O 464.887 2.38311 -8.41922 0
M  V30 2587 C 465.377 0.491279 -7.02284 0
M  V30 2588 C 464.667 0.996264 -5.77469 0
M  V30 2589 N 464.717 0.0501916 -4.62973 0
M  V30 2590 C 464.637 -1.32786 -4.63244 0
M  V30 2591 N 464.717 -1.86957 -3.44545 0
M  V30 2592 C 464.857 -0.780241 -2.58481 0
M  V30 2593 C 464.987 -0.738536 -1.17757 0
M  V30 2594 O 465.007 -1.66794 -0.372349 0
M  V30 2595 N 465.107 0.58337 -0.711393 0
M  V30 2596 C 465.107 1.70816 -1.51017 0
M  V30 2597 N 465.237 2.87826 -0.880757 0
M  V30 2598 N 464.977 1.67126 -2.8339 0
M  V30 2599 C 464.857 0.401421 -3.30572 0
M  V30 2600 H 461.878 -0.374722 -8.67691 0
M  V30 2601 H 461.608 -0.443485 -6.90277 0
M  V30 2602 H 462.475 1.75537 -7.96793 0
M  V30 2603 H 465.13 1.95076 -5.46529 0
M  V30 2604 H 465.409 -0.608565 -7.04577 0
M  V30 2605 H 466.401 0.889672 -7.08939 0
M  V30 2606 H 464.567 0.43308 -9.04564 0
M  V30 2607 H 464.518 -1.91249 -5.54442 0
M  V30 2608 H 465.2 0.718054 0.275244 0
M  V30 2609 H 465.237 3.75721 -1.41832 0
M  V30 2610 H 465.338 2.90436 0.145468 0
M  V30 2611 P 466.437 2.75334 -8.47391 0
M  V30 2612 O 466.657 3.84128 -9.44797 0
M  V30 2613 O 467.227 1.51947 -8.68712 0
M  V30 2614 O 466.687 3.29363 -6.99321 0
M  V30 2615 C 465.747 4.24011 -6.4274 0
M  V30 2616 C 466.477 5.20775 -5.52155 0
M  V30 2617 O 466.687 4.56534 -4.22446 0
M  V30 2618 C 467.877 5.62629 -5.96531 0
M  V30 2619 O 468.267 6.87667 -5.41053 0
M  V30 2620 C 468.757 4.52537 -5.39283 0
M  V30 2621 C 468.047 4.20027 -4.08623 0
M  V30 2622 N 468.097 2.76189 -3.71603 0
M  V30 2623 H 465.258 4.797 -7.24003 0
M  V30 2624 H 464.988 3.69856 -5.84513 0
M  V30 2625 H 465.855 6.10356 -5.41441 0
M  V30 2626 P 469.817 7.20834 -5.23717 0
M  V30 2627 O 470.037 8.66104 -5.38572 0
M  V30 2628 O 470.607 6.33544 -6.1349 0
M  V30 2629 O 470.067 6.7751 -3.72168 0
M  V30 2630 C 469.127 7.20825 -2.7076 0
M  V30 2631 C 469.857 7.45864 -1.40599 0
M  V30 2632 O 470.067 6.17651 -0.734225 0
M  V30 2633 C 471.257 8.05808 -1.51899 0
M  V30 2634 O 471.647 8.74358 -0.335205 0
M  V30 2635 C 472.137 6.83093 -1.70294 0
M  V30 2636 C 471.427 5.79992 -0.836974 0
M  V30 2637 N 471.477 4.41864 -1.38293 0
M  V30 2638 H 468.638 8.13644 -3.0377 0
M  V30 2639 H 468.368 6.42788 -2.55485 0
M  V30 2640 H 469.235 8.12039 -0.792769 0
M  V30 2641 P 473.197 8.91 2.75506e-12 0
M  V30 2642 O 473.417 10.1726 0.733694 0
M  V30 2643 O 473.987 8.73148 -1.23936 0
M  V30 2644 O 473.447 7.66872 0.971405 0
M  V30 2645 C 472.507 7.42309 2.04641 0
M  V30 2646 C 473.237 6.86059 3.24661 0
M  V30 2647 O 473.447 5.42847 3.03646 0
M  V30 2648 C 474.637 7.41196 3.50753 0
M  V30 2649 O 475.027 7.27073 4.86816 0
M  V30 2650 C 475.517 6.5273 2.63741 0
M  V30 2651 C 474.807 5.1842 2.73198 0
M  V30 2652 N 474.857 4.38762 1.4784 0
M  V30 2653 H 472.018 8.36803 2.32493 0
M  V30 2654 H 471.748 6.70197 1.71129 0
M  V30 2655 H 472.615 7.03551 4.13168 0
M  V30 2656 P 476.577 7.20834 5.23717 0
M  V30 2657 O 476.797 7.7993 6.57351 0
M  V30 2658 O 477.367 7.79328 4.13004 0
M  V30 2659 O 476.827 5.63315 5.29344 0
M  V30 2660 C 475.887 4.80193 6.01798 0
M  V30 2661 C 476.617 3.64202 6.65911 0
M  V30 2662 O 476.827 2.60694 5.64732 0
M  V30 2663 C 478.017 3.93473 7.1943 0
M  V30 2664 O 478.407 3.02071 8.21205 0
M  V30 2665 C 478.897 3.73047 5.97036 0
M  V30 2666 C 478.187 2.58828 5.25741 0
M  V30 2667 N 478.237 2.6801 3.77422 0
M  V30 2668 C 478.387 1.50443 3.07133 0
M  V30 2669 O 478.477 0.419406 3.61576 0
M  V30 2670 N 478.427 1.6403 1.69677 0
M  V30 2671 C 478.337 2.81206 0.986255 0
M  V30 2672 O 478.387 2.80892 -0.249754 0
M  V30 2673 C 478.187 3.99158 1.80325 0
M  V30 2674 C 478.077 5.29309 1.06921 0
M  V30 2675 C 478.137 3.89779 3.1476 0
M  V30 2676 H 475.397 5.40332 6.79951 0
M  V30 2677 H 475.128 4.41549 5.32301 0
M  V30 2678 H 475.995 3.26331 7.47797 0
M  V30 2679 H 478.65 1.6395 5.56554 0
M  V30 2680 H 478.929 4.63439 5.3432 0
M  V30 2681 H 479.921 3.44728 6.25838 0
M  V30 2682 H 478.087 4.96652 7.57263 0
M  V30 2683 H 478.016 4.80159 3.74441 0
M  V30 2684 H 479.046 5.81459 1.09608 0
M  V30 2685 H 477.309 5.9187 1.54487 0
M  V30 2686 H 477.797 5.10095 0.0220288 0
M  V30 2687 H 478.533 0.798962 1.16664 0
M  V30 2688 P 479.957 2.75334 8.47391 0
M  V30 2689 O 480.177 2.44571 9.90142 0
M  V30 2690 O 480.747 3.87688 7.92115 0
M  V30 2691 O 480.207 1.4459 7.59357 0
M  V30 2692 C 479.267 0.347608 7.69215 0
M  V30 2693 C 479.997 -0.96767 7.52806 0
M  V30 2694 O 480.207 -1.21036 6.1011 0
M  V30 2695 C 481.397 -1.04544 8.13308 0
M  V30 2696 O 481.787 -2.38311 8.41922 0
M  V30 2697 C 482.277 -0.491279 7.02284 0
M  V30 2698 C 481.567 -0.996264 5.77469 0
M  V30 2699 N 481.617 -0.0501916 4.62973 0
M  V30 2700 H 478.778 0.374722 8.67691 0
M  V30 2701 H 478.508 0.443485 6.90277 0
M  V30 2702 H 479.375 -1.75537 7.96793 0
M  V30 2703 P 483.337 -2.75334 8.47391 0
M  V30 2704 O 483.557 -3.84128 9.44797 0
M  V30 2705 O 484.127 -1.51947 8.68712 0
M  V30 2706 O 483.587 -3.29363 6.99321 0
M  V30 2707 C 482.647 -4.24011 6.4274 0
M  V30 2708 C 483.377 -5.20775 5.52155 0
M  V30 2709 O 483.587 -4.56534 4.22446 0
M  V30 2710 C 484.777 -5.62629 5.96531 0
M  V30 2711 O 485.167 -6.87667 5.41053 0
M  V30 2712 C 485.657 -4.52537 5.39283 0
M  V30 2713 C 484.947 -4.20027 4.08623 0
M  V30 2714 N 484.997 -2.76189 3.71603 0
M  V30 2715 H 482.158 -4.797 7.24003 0
M  V30 2716 H 481.888 -3.69856 5.84513 0
M  V30 2717 H 482.755 -6.10356 5.41441 0
M  V30 2718 P 486.717 -7.20834 5.23717 0
M  V30 2719 O 486.937 -8.66104 5.38572 0
M  V30 2720 O 487.507 -6.33544 6.1349 0
M  V30 2721 O 486.967 -6.7751 3.72168 0
M  V30 2722 C 486.027 -7.20825 2.7076 0
M  V30 2723 C 486.757 -7.45864 1.40599 0
M  V30 2724 O 486.967 -6.17651 0.734225 0
M  V30 2725 C 488.157 -8.05808 1.51899 0
M  V30 2726 O 488.547 -8.74358 0.335205 0
M  V30 2727 C 489.037 -6.83093 1.70294 0
M  V30 2728 C 488.327 -5.79992 0.836974 0
M  V30 2729 N 488.377 -4.41864 1.38293 0
M  V30 2730 H 485.538 -8.13644 3.0377 0
M  V30 2731 H 485.268 -6.42788 2.55485 0
M  V30 2732 H 486.135 -8.12039 0.792769 0
M  V30 2733 P 490.097 -8.91 -2.91224e-12 0
M  V30 2734 O 490.317 -10.1746 -0.733838 0
M  V30 2735 O 490.887 -8.73346 1.23964 0
M  V30 2736 O 490.347 -7.66872 -0.971405 0
M  V30 2737 C 489.407 -7.42405 -2.04668 0
M  V30 2738 C 490.137 -6.86059 -3.24661 0
M  V30 2739 O 490.347 -5.42934 -3.03695 0
M  V30 2740 C 491.537 -7.41287 -3.50796 0
M  V30 2741 O 491.927 -7.27073 -4.86816 0
M  V30 2742 C 492.417 -6.5273 -2.63741 0
M  V30 2743 C 491.707 -5.1842 -2.73198 0
M  V30 2744 N 491.757 -4.38762 -1.4784 0
M  V30 2745 C 491.677 -4.83651 -0.183876 0
M  V30 2746 N 491.747 -3.88759 0.699393 0
M  V30 2747 C 491.897 -2.7404 -0.0575568 0
M  V30 2748 C 492.027 -1.37902 0.293928 0
M  V30 2749 N 492.037 -0.938021 1.54797 0
M  V30 2750 N 492.147 -0.491817 -0.70549 0
M  V30 2751 C 492.137 -0.931735 -1.95979 0
M  V30 2752 N 492.017 -2.16017 -2.41481 0
M  V30 2753 C 491.897 -3.02547 -1.39121 0
M  V30 2754 H 488.919 -8.36899 -2.3252 0
M  V30 2755 H 488.647 -6.70391 -1.71179 0
M  V30 2756 H 489.515 -7.03638 -4.13219 0
M  V30 2757 H 492.17 -4.59931 -3.54016 0
M  V30 2758 H 492.45 -6.88995 -1.59871 0
M  V30 2759 H 493.441 -6.4684 -3.0373 0
M  V30 2760 H 491.607 -8.47002 -3.20749 0
M  V30 2761 H 491.566 -5.8885 0.0765548 0
M  V30 2762 H 491.947 -1.60276 2.32875 0
M  V30 2763 H 492.136 0.0699355 1.73859 0
M  V30 2764 H 492.244 -0.165507 -2.71897 0
M  V30 2765 P 493.477 -7.20834 -5.23717 0
M  V30 2766 O 493.697 -7.79853 -6.57286 0
M  V30 2767 O 494.267 -7.79239 -4.12957 0
M  V30 2768 O 493.727 -5.63315 -5.29344 0
M  V30 2769 C 492.787 -4.80255 -6.01876 0
M  V30 2770 C 493.517 -3.64202 -6.65911 0
M  V30 2771 O 493.727 -2.60694 -5.64732 0
M  V30 2772 C 494.917 -3.93473 -7.1943 0
M  V30 2773 O 495.307 -3.02071 -8.21205 0
M  V30 2774 C 495.797 -3.73047 -5.97036 0
M  V30 2775 C 495.087 -2.58828 -5.25741 0
M  V30 2776 N 495.137 -2.68068 -3.77503 0
M  V30 2777 H 492.298 -5.40332 -6.79951 0
M  V30 2778 H 492.028 -4.41613 -5.32378 0
M  V30 2779 H 492.895 -3.26331 -7.47797 0
M  V30 2780 P 496.857 -2.75334 -8.47391 0
M  V30 2781 O 497.077 -2.44571 -9.90142 0
M  V30 2782 O 497.647 -3.87688 -7.92115 0
M  V30 2783 O 497.107 -1.4459 -7.59357 0
M  V30 2784 C 496.167 -0.347608 -7.69215 0
M  V30 2785 C 496.897 0.96767 -7.52806 0
M  V30 2786 O 497.107 1.21036 -6.1011 0
M  V30 2787 C 498.297 1.04544 -8.13308 0
M  V30 2788 O 498.687 2.38311 -8.41922 0
M  V30 2789 C 499.177 0.491279 -7.02284 0
M  V30 2790 C 498.467 0.996264 -5.77469 0
M  V30 2791 N 498.517 0.0501916 -4.62973 0
M  V30 2792 H 495.678 -0.374722 -8.67691 0
M  V30 2793 H 495.408 -0.443485 -6.90277 0
M  V30 2794 H 496.275 1.75537 -7.96793 0
M  V30 2795 P 500.237 2.75334 -8.47391 0
M  V30 2796 O 500.457 3.84128 -9.44797 0
M  V30 2797 O 501.027 1.51947 -8.68712 0
M  V30 2798 O 500.487 3.29363 -6.99321 0
M  V30 2799 C 499.547 4.24011 -6.4274 0
M  V30 2800 C 500.277 5.20775 -5.52155 0
M  V30 2801 O 500.487 4.56534 -4.22446 0
M  V30 2802 C 501.677 5.62629 -5.96531 0
M  V30 2803 O 502.067 6.87667 -5.41053 0
M  V30 2804 C 502.557 4.52537 -5.39283 0
M  V30 2805 C 501.847 4.20027 -4.08623 0
M  V30 2806 N 501.897 2.76189 -3.71603 0
M  V30 2807 H 499.058 4.797 -7.24003 0
M  V30 2808 H 498.788 3.69856 -5.84513 0
M  V30 2809 H 499.655 6.10356 -5.41441 0
M  V30 2810 P 503.617 7.20834 -5.23717 0
M  V30 2811 O 503.837 8.66104 -5.38572 0
M  V30 2812 O 504.407 6.33544 -6.1349 0
M  V30 2813 O 503.867 6.7751 -3.72168 0
M  V30 2814 C 502.927 7.20825 -2.7076 0
M  V30 2815 C 503.657 7.45864 -1.40599 0
M  V30 2816 O 503.867 6.17651 -0.734225 0
M  V30 2817 C 505.057 8.05808 -1.51899 0
M  V30 2818 O 505.447 8.74358 -0.335205 0
M  V30 2819 C 505.937 6.83093 -1.70294 0
M  V30 2820 C 505.227 5.79992 -0.836974 0
M  V30 2821 N 505.277 4.41864 -1.38293 0
M  V30 2822 H 502.438 8.13644 -3.0377 0
M  V30 2823 H 502.168 6.42788 -2.55485 0
M  V30 2824 H 503.035 8.12039 -0.792769 0
M  V30 2825 P 506.997 8.91 3.06942e-12 0
M  V30 2826 O 507.217 10.1726 0.733694 0
M  V30 2827 O 507.787 8.73148 -1.23936 0
M  V30 2828 O 507.247 7.66872 0.971405 0
M  V30 2829 C 506.307 7.42309 2.04641 0
M  V30 2830 C 507.037 6.86059 3.24661 0
M  V30 2831 O 507.247 5.42847 3.03646 0
M  V30 2832 C 508.437 7.41196 3.50753 0
M  V30 2833 O 508.827 7.27073 4.86816 0
M  V30 2834 C 509.317 6.5273 2.63741 0
M  V30 2835 C 508.607 5.1842 2.73198 0
M  V30 2836 N 508.657 4.38762 1.4784 0
M  V30 2837 H 505.818 8.36803 2.32493 0
M  V30 2838 H 505.548 6.70197 1.71129 0
M  V30 2839 H 506.415 7.03551 4.13168 0
M  V30 2840 P 510.377 7.20834 5.23717 0
M  V30 2841 O 510.597 7.79853 6.57286 0
M  V30 2842 O 511.167 7.79239 4.12957 0
M  V30 2843 O 510.627 5.63315 5.29344 0
M  V30 2844 C 509.687 4.80255 6.01876 0
M  V30 2845 C 510.417 3.64202 6.65911 0
M  V30 2846 O 510.627 2.60694 5.64732 0
M  V30 2847 C 511.817 3.93473 7.1943 0
M  V30 2848 O 512.207 3.02071 8.21205 0
M  V30 2849 C 512.697 3.73047 5.97036 0
M  V30 2850 C 511.987 2.58828 5.25741 0
M  V30 2851 N 512.037 2.68068 3.77503 0
M  V30 2852 H 509.198 5.40332 6.79951 0
M  V30 2853 H 508.928 4.41613 5.32378 0
M  V30 2854 H 509.795 3.26331 7.47797 0
M  V30 2855 P 513.757 2.75334 8.47391 0
M  V30 2856 O 513.977 2.44595 9.90239 0
M  V30 2857 O 514.547 3.87732 7.92204 0
M  V30 2858 O 514.007 1.4459 7.59357 0
M  V30 2859 C 513.067 0.347563 7.69115 0
M  V30 2860 C 513.797 -0.96767 7.52806 0
M  V30 2861 O 514.007 -1.21036 6.1011 0
M  V30 2862 C 515.197 -1.04544 8.13308 0
M  V30 2863 O 515.587 -2.38311 8.41922 0
M  V30 2864 C 516.077 -0.491279 7.02284 0
M  V30 2865 C 515.367 -0.996264 5.77469 0
M  V30 2866 N 515.417 -0.0501808 4.62873 0
M  V30 2867 C 515.567 -0.588177 3.36904 0
M  V30 2868 O 515.657 -1.78598 3.17173 0
M  V30 2869 N 515.607 0.329694 2.33686 0
M  V30 2870 C 515.517 1.6953 2.45079 0
M  V30 2871 C 515.367 2.16933 3.80505 0
M  V30 2872 C 515.317 1.30326 4.83752 0
M  V30 2873 H 512.577 0.374722 8.67691 0
M  V30 2874 H 512.308 0.443421 6.90177 0
M  V30 2875 H 513.175 -1.75537 7.96793 0
M  V30 2876 H 515.83 -1.94496 5.46629 0
M  V30 2877 H 516.109 0.608651 7.04676 0
M  V30 2878 H 517.101 -0.889672 7.08939 0
M  V30 2879 H 515.267 -0.43308 9.04564 0
M  V30 2880 H 515.196 1.68366 5.8516 0
M  V30 2881 P 517.137 -2.75334 8.47391 0
M  V30 2882 O 517.357 -3.84204 9.44982 0
M  V30 2883 O 517.927 -1.51982 8.68909 0
M  V30 2884 O 517.387 -3.29363 6.99321 0
M  V30 2885 C 516.447 -4.24066 6.42823 0
M  V30 2886 C 517.177 -5.20775 5.52155 0
M  V30 2887 O 517.387 -4.56607 4.22514 0
M  V30 2888 C 518.577 -5.62697 5.96604 0
M  V30 2889 O 518.967 -6.87667 5.41053 0
M  V30 2890 C 519.457 -4.52537 5.39283 0
M  V30 2891 C 518.747 -4.20027 4.08623 0
M  V30 2892 N 518.797 -2.76189 3.71603 0
M  V30 2893 C 518.717 -1.66944 4.54297 0
M  V30 2894 N 518.787 -0.536169 3.91344 0
M  V30 2895 C 518.937 -0.901569 2.58849 0
M  V30 2896 C 519.067 -0.146599 1.40236 0
M  V30 2897 N 519.077 1.18234 1.37046 0
M  V30 2898 N 519.187 -0.822941 0.249738 0
M  V30 2899 C 519.177 -2.15179 0.280525 0
M  V30 2900 N 519.057 -2.96414 1.30822 0
M  V30 2901 C 518.937 -2.25804 2.44748 0
M  V30 2902 H 515.959 -4.79756 7.24086 0
M  V30 2903 H 515.687 -3.69963 5.84682 0
M  V30 2904 H 516.555 -6.10431 5.41508 0
M  V30 2905 H 519.21 -4.78816 3.28024 0
M  V30 2906 H 519.49 -3.64957 6.05871 0
M  V30 2907 H 520.481 -4.88748 5.21323 0
M  V30 2908 H 518.647 -5.66789 7.0643 0
M  V30 2909 H 518.606 -1.74684 5.62396 0
M  V30 2910 H 518.987 1.71949 2.24394 0
M  V30 2911 H 519.176 1.67511 0.470742 0
M  V30 2912 H 519.284 -2.63704 -0.6828 0
M  V30 2913 P 520.517 -7.20834 5.23717 0
M  V30 2914 O 520.737 -8.66189 5.38625 0
M  V30 2915 O 521.307 -6.33615 6.1356 0
M  V30 2916 O 520.767 -6.7751 3.72168 0
M  V30 2917 C 519.827 -7.20825 2.7076 0
M  V30 2918 C 520.557 -7.45864 1.40599 0
M  V30 2919 O 520.767 -6.17651 0.734225 0
M  V30 2920 C 521.957 -8.05808 1.51899 0
M  V30 2921 O 522.347 -8.74358 0.335205 0
M  V30 2922 C 522.837 -6.83093 1.70294 0
M  V30 2923 C 522.127 -5.79992 0.836974 0
M  V30 2924 N 522.177 -4.41769 1.38263 0
M  V30 2925 C 522.327 -3.36514 0.485617 0
M  V30 2926 O 522.417 -3.61814 -0.724703 0
M  V30 2927 N 522.377 -2.00746 1.14492 0
M  V30 2928 C 522.277 -1.85887 2.27776 0
M  V30 2929 N 522.327 -0.600907 2.69379 0
M  V30 2930 C 522.127 -2.92182 3.22265 0
M  V30 2931 C 522.077 -4.18399 2.71925 0
M  V30 2932 H 519.337 -8.1355 3.03735 0
M  V30 2933 H 519.068 -6.42695 2.55448 0
M  V30 2934 H 519.935 -8.12139 0.792866 0
M  V30 2935 H 522.59 -5.80078 -0.160615 0
M  V30 2936 H 522.869 -6.51379 2.75643 0
M  V30 2937 H 523.861 -7.01734 1.34462 0
M  V30 2938 H 522.027 -8.73674 2.38337 0
M  V30 2939 H 521.955 -5.02669 3.39718 0
M  V30 2940 H 522.057 -2.73001 4.29239 0
M  V30 2941 H 522.445 0.162318 2.01146 0
M  V30 2942 H 522.248 -0.387742 3.69773 0
M  V30 2943 P 523.897 -8.91 -3.22661e-12 0
M  V30 2944 O 524.117 -10.1726 -0.733694 0
M  V30 2945 O 524.687 -8.73148 1.23936 0
M  V30 2946 O 524.147 -7.66872 -0.971405 0
M  V30 2947 C 523.207 -7.42309 -2.04641 0
M  V30 2948 C 523.937 -6.86059 -3.24661 0
M  V30 2949 O 524.147 -5.42847 -3.03646 0
M  V30 2950 C 525.337 -7.41196 -3.50753 0
M  V30 2951 O 525.727 -7.27073 -4.86816 0
M  V30 2952 C 526.217 -6.5273 -2.63741 0
M  V30 2953 C 525.507 -5.1842 -2.73198 0
M  V30 2954 N 525.557 -4.38762 -1.4784 0
M  V30 2955 H 522.718 -8.36803 -2.32493 0
M  V30 2956 H 522.448 -6.70197 -1.71129 0
M  V30 2957 H 523.315 -7.03551 -4.13168 0
M  V30 2958 P 527.277 -7.20834 -5.23717 0
M  V30 2959 O 527.497 -7.79853 -6.57286 0
M  V30 2960 O 528.067 -7.79239 -4.12957 0
M  V30 2961 O 527.527 -5.63315 -5.29344 0
M  V30 2962 C 526.587 -4.80255 -6.01876 0
M  V30 2963 C 527.317 -3.64202 -6.65911 0
M  V30 2964 O 527.527 -2.60694 -5.64732 0
M  V30 2965 C 528.717 -3.93473 -7.1943 0
M  V30 2966 O 529.107 -3.02071 -8.21205 0
M  V30 2967 C 529.597 -3.73047 -5.97036 0
M  V30 2968 C 528.887 -2.58828 -5.25741 0
M  V30 2969 N 528.937 -2.68068 -3.77503 0
M  V30 2970 C 528.857 -3.79715 -2.96723 0
M  V30 2971 N 528.937 -3.5377 -1.68852 0
M  V30 2972 C 529.077 -2.15054 -1.63254 0
M  V30 2973 C 529.207 -1.28964 -0.518571 0
M  V30 2974 N 529.327 0.0538097 -0.918425 0
M  V30 2975 C 529.327 0.494275 -2.22578 0
M  V30 2976 N 529.457 1.81086 -2.40434 0
M  V30 2977 N 529.197 -0.313645 -3.27502 0
M  V30 2978 C 529.077 -1.61829 -2.91033 0
M  V30 2979 H 526.098 -5.40332 -6.79951 0
M  V30 2980 H 525.828 -4.41613 -5.32378 0
M  V30 2981 H 526.695 -3.26331 -7.47797 0
M  V30 2982 P 530.657 -2.75334 -8.47391 0
M  V30 2983 O 530.877 -2.44571 -9.90142 0
M  V30 2984 O 531.447 -3.87688 -7.92115 0
M  V30 2985 O 530.907 -1.4459 -7.59357 0
M  V30 2986 C 529.967 -0.347608 -7.69215 0
M  V30 2987 C 530.697 0.96767 -7.52806 0
M  V30 2988 O 530.907 1.21036 -6.1011 0
M  V30 2989 C 532.097 1.04544 -8.13308 0
M  V30 2990 O 532.487 2.38311 -8.41922 0
M  V30 2991 C 532.977 0.491279 -7.02284 0
M  V30 2992 C 532.267 0.996264 -5.77469 0
M  V30 2993 N 532.317 0.0501916 -4.62973 0
M  V30 2994 C 532.237 -1.32786 -4.63244 0
M  V30 2995 N 532.317 -1.86957 -3.44545 0
M  V30 2996 C 532.457 -0.780241 -2.58481 0
M  V30 2997 C 532.587 -0.738536 -1.17757 0
M  V30 2998 N 532.707 0.58337 -0.711393 0
M  V30 2999 C 532.707 1.70816 -1.51017 0
M  V30 3000 N 532.837 2.87826 -0.880757 0
M  V30 3001 N 532.577 1.67126 -2.8339 0
M  V30 3002 C 532.457 0.401421 -3.30572 0
M  V30 3003 H 529.478 -0.374722 -8.67691 0
M  V30 3004 H 529.208 -0.443485 -6.90277 0
M  V30 3005 H 530.075 1.75537 -7.96793 0
M  V30 3006 P 534.037 2.75334 -8.47391 0
M  V30 3007 O 534.257 3.84166 -9.4489 0
M  V30 3008 O 534.827 1.51964 -8.6881 0
M  V30 3009 O 534.287 3.29363 -6.99321 0
M  V30 3010 C 533.347 4.23956 -6.42656 0
M  V30 3011 C 534.077 5.20775 -5.52155 0
M  V30 3012 O 534.287 4.56534 -4.22446 0
M  V30 3013 C 535.477 5.62629 -5.96531 0
M  V30 3014 O 535.867 6.87667 -5.41053 0
M  V30 3015 C 536.357 4.52537 -5.39283 0
M  V30 3016 C 535.647 4.20027 -4.08623 0
M  V30 3017 N 535.697 2.7613 -3.71522 0
M  V30 3018 C 535.847 2.45612 -2.37989 0
M  V30 3019 O 535.937 3.30919 -1.51621 0
M  V30 3020 N 535.887 1.10684 -2.08435 0
M  V30 3021 C 535.797 0.0690084 -2.9792 0
M  V30 3022 O 535.847 -1.10553 -2.59426 0
M  V30 3023 C 535.647 0.481522 -4.35345 0
M  V30 3024 C 535.537 -0.618778 -5.36443 0
M  V30 3025 C 535.597 1.78906 -4.67968 0
M  V30 3026 H 532.857 4.797 -7.24003 0
M  V30 3027 H 532.588 3.69802 -5.84429 0
M  V30 3028 H 533.455 6.10356 -5.41441 0
M  V30 3029 H 536.11 4.78651 -3.27911 0
M  V30 3030 H 536.389 3.64957 -6.05871 0
M  V30 3031 H 537.381 4.8868 -5.2125 0
M  V30 3032 H 535.547 5.66726 -7.06352 0
M  V30 3033 H 535.476 2.07737 -5.72367 0
M  V30 3034 H 536.506 -0.754375 -5.86871 0
M  V30 3035 H 534.769 -0.359721 -6.10641 0
M  V30 3036 H 535.257 -1.55533 -4.8581 0
M  V30 3037 H 535.993 0.862651 -1.12037 0
M  V30 3038 P 537.417 7.20834 -5.23717 0
M  V30 3039 O 537.637 8.66189 -5.38625 0
M  V30 3040 O 538.207 6.33615 -6.1356 0
M  V30 3041 O 537.667 6.7751 -3.72168 0
M  V30 3042 C 536.727 7.20732 -2.70725 0
M  V30 3043 C 537.457 7.45864 -1.40599 0
M  V30 3044 O 537.667 6.17651 -0.734225 0
M  V30 3045 C 538.857 8.05808 -1.51899 0
M  V30 3046 O 539.247 8.74358 -0.335205 0
M  V30 3047 C 539.737 6.83093 -1.70294 0
M  V30 3048 C 539.027 5.79992 -0.836974 0
M  V30 3049 N 539.077 4.41769 -1.38263 0
M  V30 3050 C 539.227 3.38591 -0.481702 0
M  V30 3051 O 539.317 3.56839 0.718452 0
M  V30 3052 N 539.267 2.1206 -1.03569 0
M  V30 3053 C 539.177 1.80696 -2.36966 0
M  V30 3054 O 539.227 0.630473 -2.74862 0
M  V30 3055 C 539.027 2.94845 -3.23898 0
M  V30 3056 C 538.917 2.65253 -4.70362 0
M  V30 3057 C 538.977 4.19803 -2.73435 0
M  V30 3058 H 536.237 8.13644 -3.0377 0
M  V30 3059 H 535.968 6.42695 -2.55448 0
M  V30 3060 H 536.835 8.12039 -0.792769 0
M  V30 3061 H 539.49 5.79978 0.160587 0
M  V30 3062 H 539.769 6.51379 -2.75643 0
M  V30 3063 H 540.761 7.01734 -1.34462 0
M  V30 3064 H 538.927 8.73674 -2.38337 0
M  V30 3065 H 538.856 5.04492 -3.4095 0
M  V30 3066 H 539.886 2.83924 -5.1913 0
M  V30 3067 H 538.149 3.29824 -5.15163 0
M  V30 3068 H 538.637 1.59723 -4.84449 0
M  V30 3069 H 539.373 1.35644 -0.399345 0
M  V30 3070 P 540.797 8.91 3.38379e-12 0
M  V30 3071 O 541.017 10.1726 0.733694 0
M  V30 3072 O 541.587 8.73148 -1.23936 0
M  V30 3073 O 541.047 7.66872 0.971405 0
M  V30 3074 C 540.107 7.42309 2.04641 0
M  V30 3075 C 540.837 6.86059 3.24661 0
M  V30 3076 O 541.047 5.42847 3.03646 0
M  V30 3077 C 542.237 7.41196 3.50753 0
M  V30 3078 O 542.627 7.27073 4.86816 0
M  V30 3079 C 543.117 6.5273 2.63741 0
M  V30 3080 C 542.407 5.1842 2.73198 0
M  V30 3081 N 542.457 4.38762 1.4784 0
M  V30 3082 H 539.618 8.36803 2.32493 0
M  V30 3083 H 539.348 6.70197 1.71129 0
M  V30 3084 H 540.215 7.03551 4.13168 0
M  V30 3085 P 544.177 7.20834 5.23717 0
M  V30 3086 O 544.397 7.79853 6.57286 0
M  V30 3087 O 544.967 7.79239 4.12957 0
M  V30 3088 O 544.427 5.63315 5.29344 0
M  V30 3089 C 543.487 4.80255 6.01876 0
M  V30 3090 C 544.217 3.64202 6.65911 0
M  V30 3091 O 544.427 2.60694 5.64732 0
M  V30 3092 C 545.617 3.93473 7.1943 0
M  V30 3093 O 546.007 3.02071 8.21205 0
M  V30 3094 C 546.497 3.73047 5.97036 0
M  V30 3095 C 545.787 2.58828 5.25741 0
M  V30 3096 N 545.837 2.68068 3.77503 0
M  V30 3097 H 542.998 5.40332 6.79951 0
M  V30 3098 H 542.728 4.41613 5.32378 0
M  V30 3099 H 543.595 3.26331 7.47797 0
M  V30 3100 P 547.557 2.75334 8.47391 0
M  V30 3101 O 547.777 2.44571 9.90142 0
M  V30 3102 O 548.347 3.87688 7.92115 0
M  V30 3103 O 547.807 1.4459 7.59357 0
M  V30 3104 C 546.867 0.347608 7.69215 0
M  V30 3105 C 547.597 -0.96767 7.52806 0
M  V30 3106 O 547.807 -1.21036 6.1011 0
M  V30 3107 C 548.997 -1.04544 8.13308 0
M  V30 3108 O 549.387 -2.38311 8.41922 0
M  V30 3109 C 549.877 -0.491279 7.02284 0
M  V30 3110 C 549.167 -0.996264 5.77469 0
M  V30 3111 N 549.217 -0.0501916 4.62973 0
M  V30 3112 H 546.378 0.374722 8.67691 0
M  V30 3113 H 546.108 0.443485 6.90277 0
M  V30 3114 H 546.975 -1.75537 7.96793 0
M  V30 3115 P 550.937 -2.75334 8.47391 0
M  V30 3116 O 551.157 -3.84166 9.4489 0
M  V30 3117 O 551.727 -1.51964 8.6881 0
M  V30 3118 O 551.187 -3.29363 6.99321 0
M  V30 3119 C 550.247 -4.24011 6.4274 0
M  V30 3120 C 550.977 -5.20775 5.52155 0
M  V30 3121 O 551.187 -4.56534 4.22446 0
M  V30 3122 C 552.377 -5.62629 5.96531 0
M  V30 3123 O 552.767 -6.87667 5.41053 0
M  V30 3124 C 553.257 -4.52537 5.39283 0
M  V30 3125 C 552.547 -4.20027 4.08623 0
M  V30 3126 N 552.597 -2.7613 3.71522 0
M  V30 3127 C 552.747 -2.43702 2.37085 0
M  V30 3128 O 552.837 -3.3531 1.54039 0
M  V30 3129 N 552.797 -0.951103 2.10621 0
M  V30 3130 C 552.697 -0.165021 2.93537 0
M  V30 3131 N 552.747 1.09723 2.53253 0
M  V30 3132 C 552.547 -0.469576 4.32458 0
M  V30 3133 C 552.497 -1.78658 4.65921 0
M  V30 3134 H 549.757 -4.79645 7.23919 0
M  V30 3135 H 549.488 -3.69802 5.84429 0
M  V30 3136 H 550.355 -6.10431 5.41508 0
M  V30 3137 H 553.01 -4.78733 3.27967 0
M  V30 3138 H 553.289 -3.64957 6.05871 0
M  V30 3139 H 554.281 -4.8868 5.2125 0
M  V30 3140 H 552.447 -5.66726 7.06352 0
M  V30 3141 H 552.375 -2.06987 5.70299 0
M  V30 3142 H 552.477 0.314383 5.07728 0
M  V30 3143 H 552.865 1.31363 1.5319 0
M  V30 3144 H 552.668 1.85978 3.21943 0
M  V30 3145 P 554.317 -7.20834 5.23717 0
M  V30 3146 O 554.537 -8.66104 5.38572 0
M  V30 3147 O 555.107 -6.33544 6.1349 0
M  V30 3148 O 554.567 -6.7751 3.72168 0
M  V30 3149 C 553.627 -7.20825 2.7076 0
M  V30 3150 C 554.357 -7.45864 1.40599 0
M  V30 3151 O 554.567 -6.17651 0.734225 0
M  V30 3152 C 555.757 -8.05808 1.51899 0
M  V30 3153 O 556.147 -8.74358 0.335205 0
M  V30 3154 C 556.637 -6.83093 1.70294 0
M  V30 3155 C 555.927 -5.79992 0.836974 0
M  V30 3156 N 555.977 -4.41864 1.38293 0
M  V30 3157 H 553.138 -8.13644 3.0377 0
M  V30 3158 H 552.868 -6.42788 2.55485 0
M  V30 3159 H 553.735 -8.12039 0.792769 0
M  V30 3160 P 557.697 -8.91 -3.54097e-12 0
M  V30 3161 O 557.917 -10.1726 -0.733694 0
M  V30 3162 O 558.487 -8.73148 1.23936 0
M  V30 3163 O 557.947 -7.66872 -0.971405 0
M  V30 3164 C 557.007 -7.42309 -2.04641 0
M  V30 3165 C 557.737 -6.86059 -3.24661 0
M  V30 3166 O 557.947 -5.42847 -3.03646 0
M  V30 3167 C 559.137 -7.41196 -3.50753 0
M  V30 3168 O 559.527 -7.27073 -4.86816 0
M  V30 3169 C 560.017 -6.5273 -2.63741 0
M  V30 3170 C 559.307 -5.1842 -2.73198 0
M  V30 3171 N 559.357 -4.38762 -1.4784 0
M  V30 3172 H 556.518 -8.36803 -2.32493 0
M  V30 3173 H 556.248 -6.70197 -1.71129 0
M  V30 3174 H 557.115 -7.03551 -4.13168 0
M  V30 3175 P 561.077 -7.20834 -5.23717 0
M  V30 3176 O 561.297 -7.79853 -6.57286 0
M  V30 3177 O 561.867 -7.79239 -4.12957 0
M  V30 3178 O 561.327 -5.63315 -5.29344 0
M  V30 3179 C 560.387 -4.80255 -6.01876 0
M  V30 3180 C 561.117 -3.64202 -6.65911 0
M  V30 3181 O 561.327 -2.60694 -5.64732 0
M  V30 3182 C 562.517 -3.93473 -7.1943 0
M  V30 3183 O 562.907 -3.02071 -8.21205 0
M  V30 3184 C 563.397 -3.73047 -5.97036 0
M  V30 3185 C 562.687 -2.58828 -5.25741 0
M  V30 3186 N 562.737 -2.68068 -3.77503 0
M  V30 3187 H 559.898 -5.40332 -6.79951 0
M  V30 3188 H 559.628 -4.41613 -5.32378 0
M  V30 3189 H 560.495 -3.26331 -7.47797 0
M  V30 3190 P 564.457 -2.75334 -8.47391 0
M  V30 3191 O 564.677 -2.44571 -9.90142 0
M  V30 3192 O 565.247 -3.87688 -7.92115 0
M  V30 3193 O 564.707 -1.4459 -7.59357 0
M  V30 3194 C 563.767 -0.347608 -7.69215 0
M  V30 3195 C 564.497 0.96767 -7.52806 0
M  V30 3196 O 564.707 1.21036 -6.1011 0
M  V30 3197 C 565.897 1.04544 -8.13308 0
M  V30 3198 O 566.287 2.38311 -8.41922 0
M  V30 3199 C 566.777 0.491279 -7.02284 0
M  V30 3200 C 566.067 0.996264 -5.77469 0
M  V30 3201 N 566.117 0.0501916 -4.62973 0
M  V30 3202 H 563.278 -0.374722 -8.67691 0
M  V30 3203 H 563.008 -0.443485 -6.90277 0
M  V30 3204 H 563.875 1.75537 -7.96793 0
M  V30 3205 P 567.837 2.75334 -8.47391 0
M  V30 3206 O 568.057 3.84166 -9.4489 0
M  V30 3207 O 568.627 1.51964 -8.6881 0
M  V30 3208 O 568.087 3.29363 -6.99321 0
M  V30 3209 C 567.147 4.23956 -6.42656 0
M  V30 3210 C 567.877 5.20775 -5.52155 0
M  V30 3211 O 568.087 4.56534 -4.22446 0
M  V30 3212 C 569.277 5.62629 -5.96531 0
M  V30 3213 O 569.667 6.87667 -5.41053 0
M  V30 3214 C 570.157 4.52537 -5.39283 0
M  V30 3215 C 569.447 4.20027 -4.08623 0
M  V30 3216 N 569.497 2.7613 -3.71522 0
M  V30 3217 C 569.647 2.45612 -2.37989 0
M  V30 3218 O 569.737 3.30919 -1.51621 0
M  V30 3219 N 569.687 1.10684 -2.08435 0
M  V30 3220 C 569.597 0.0690084 -2.9792 0
M  V30 3221 O 569.647 -1.10553 -2.59426 0
M  V30 3222 C 569.447 0.481522 -4.35345 0
M  V30 3223 C 569.337 -0.618778 -5.36443 0
M  V30 3224 C 569.397 1.78906 -4.67968 0
M  V30 3225 H 566.657 4.797 -7.24003 0
M  V30 3226 H 566.388 3.69802 -5.84429 0
M  V30 3227 H 567.255 6.10356 -5.41441 0
M  V30 3228 H 569.91 4.78651 -3.27911 0
M  V30 3229 H 570.189 3.64957 -6.05871 0
M  V30 3230 H 571.181 4.8868 -5.2125 0
M  V30 3231 H 569.347 5.66726 -7.06352 0
M  V30 3232 H 569.276 2.07737 -5.72367 0
M  V30 3233 H 570.306 -0.754375 -5.86871 0
M  V30 3234 H 568.569 -0.359721 -6.10641 0
M  V30 3235 H 569.057 -1.55533 -4.8581 0
M  V30 3236 H 569.793 0.862651 -1.12037 0
M  V30 3237 P 571.217 7.20834 -5.23717 0
M  V30 3238 O 571.437 8.66104 -5.38572 0
M  V30 3239 O 572.007 6.33544 -6.1349 0
M  V30 3240 O 571.467 6.7751 -3.72168 0
M  V30 3241 C 570.527 7.20825 -2.7076 0
M  V30 3242 C 571.257 7.45864 -1.40599 0
M  V30 3243 O 571.467 6.17651 -0.734225 0
M  V30 3244 C 572.657 8.05808 -1.51899 0
M  V30 3245 O 573.047 8.74358 -0.335205 0
M  V30 3246 C 573.537 6.83093 -1.70294 0
M  V30 3247 C 572.827 5.79992 -0.836974 0
M  V30 3248 N 572.877 4.41864 -1.38293 0
M  V30 3249 H 570.038 8.13644 -3.0377 0
M  V30 3250 H 569.768 6.42788 -2.55485 0
M  V30 3251 H 570.635 8.12039 -0.792769 0
M  V30 3252 P 574.597 8.91 3.69815e-12 0
M  V30 3253 O 574.817 10.1746 0.733838 0
M  V30 3254 O 575.387 8.73346 -1.23964 0
M  V30 3255 O 574.847 7.66872 0.971405 0
M  V30 3256 C 573.907 7.42405 2.04668 0
M  V30 3257 C 574.637 6.86059 3.24661 0
M  V30 3258 O 574.847 5.42934 3.03695 0
M  V30 3259 C 576.037 7.41287 3.50796 0
M  V30 3260 O 576.427 7.27073 4.86816 0
M  V30 3261 C 576.917 6.5273 2.63741 0
M  V30 3262 C 576.207 5.1842 2.73198 0
M  V30 3263 N 576.257 4.38762 1.4784 0
M  V30 3264 C 576.177 4.83651 0.183876 0
M  V30 3265 N 576.247 3.88759 -0.699393 0
M  V30 3266 C 576.397 2.7404 0.0575568 0
M  V30 3267 C 576.527 1.37902 -0.293928 0
M  V30 3268 N 576.537 0.938021 -1.54797 0
M  V30 3269 N 576.647 0.491817 0.70549 0
M  V30 3270 C 576.637 0.931735 1.95979 0
M  V30 3271 N 576.517 2.16017 2.41481 0
M  V30 3272 C 576.397 3.02547 1.39121 0
M  V30 3273 H 573.419 8.36899 2.3252 0
M  V30 3274 H 573.147 6.70391 1.71179 0
M  V30 3275 H 574.015 7.03638 4.13219 0
M  V30 3276 H 576.67 4.59931 3.54016 0
M  V30 3277 H 576.95 6.88995 1.59871 0
M  V30 3278 H 577.941 6.4684 3.0373 0
M  V30 3279 H 576.107 8.47002 3.20749 0
M  V30 3280 H 576.066 5.8885 -0.0765548 0
M  V30 3281 H 576.447 1.60276 -2.32875 0
M  V30 3282 H 576.636 -0.0699355 -1.73859 0
M  V30 3283 H 576.744 0.165507 2.71897 0
M  V30 3284 P 577.977 7.20834 5.23717 0
M  V30 3285 O 578.197 7.79853 6.57286 0
M  V30 3286 O 578.767 7.79239 4.12957 0
M  V30 3287 O 578.227 5.63315 5.29344 0
M  V30 3288 C 577.287 4.80255 6.01876 0
M  V30 3289 C 578.017 3.64202 6.65911 0
M  V30 3290 O 578.227 2.60694 5.64732 0
M  V30 3291 C 579.417 3.93473 7.1943 0
M  V30 3292 O 579.807 3.02071 8.21205 0
M  V30 3293 C 580.297 3.73047 5.97036 0
M  V30 3294 C 579.587 2.58828 5.25741 0
M  V30 3295 N 579.637 2.68068 3.77503 0
M  V30 3296 H 576.798 5.40332 6.79951 0
M  V30 3297 H 576.528 4.41613 5.32378 0
M  V30 3298 H 577.395 3.26331 7.47797 0
M  V30 3299 P 581.357 2.75334 8.47391 0
M  V30 3300 O 581.577 2.44571 9.90142 0
M  V30 3301 O 582.147 3.87688 7.92115 0
M  V30 3302 O 581.607 1.4459 7.59357 0
M  V30 3303 C 580.667 0.347608 7.69215 0
M  V30 3304 C 581.397 -0.96767 7.52806 0
M  V30 3305 O 581.607 -1.21036 6.1011 0
M  V30 3306 C 582.797 -1.04544 8.13308 0
M  V30 3307 O 583.187 -2.38311 8.41922 0
M  V30 3308 C 583.677 -0.491279 7.02284 0
M  V30 3309 C 582.967 -0.996264 5.77469 0
M  V30 3310 N 583.017 -0.0501916 4.62973 0
M  V30 3311 H 580.178 0.374722 8.67691 0
M  V30 3312 H 579.908 0.443485 6.90277 0
M  V30 3313 H 580.775 -1.75537 7.96793 0
M  V30 3314 P 584.737 -2.75334 8.47391 0
M  V30 3315 O 584.957 -3.84128 9.44797 0
M  V30 3316 O 585.527 -1.51947 8.68712 0
M  V30 3317 O 584.987 -3.29363 6.99321 0
M  V30 3318 C 584.047 -4.24011 6.4274 0
M  V30 3319 C 584.777 -5.20775 5.52155 0
M  V30 3320 O 584.987 -4.56534 4.22446 0
M  V30 3321 C 586.177 -5.62629 5.96531 0
M  V30 3322 O 586.567 -6.87667 5.41053 0
M  V30 3323 C 587.057 -4.52537 5.39283 0
M  V30 3324 C 586.347 -4.20027 4.08623 0
M  V30 3325 N 586.397 -2.76189 3.71603 0
M  V30 3326 H 583.558 -4.797 7.24003 0
M  V30 3327 H 583.288 -3.69856 5.84513 0
M  V30 3328 H 584.155 -6.10356 5.41441 0
M  V30 3329 P 588.117 -7.20834 5.23717 0
M  V30 3330 O 588.337 -8.66104 5.38572 0
M  V30 3331 O 588.907 -6.33544 6.1349 0
M  V30 3332 O 588.367 -6.7751 3.72168 0
M  V30 3333 C 587.427 -7.20825 2.7076 0
M  V30 3334 C 588.157 -7.45864 1.40599 0
M  V30 3335 O 588.367 -6.17651 0.734225 0
M  V30 3336 C 589.557 -8.05808 1.51899 0
M  V30 3337 O 589.947 -8.74358 0.335205 0
M  V30 3338 C 590.437 -6.83093 1.70294 0
M  V30 3339 C 589.727 -5.79992 0.836974 0
M  V30 3340 N 589.777 -4.41864 1.38293 0
M  V30 3341 H 586.938 -8.13644 3.0377 0
M  V30 3342 H 586.668 -6.42788 2.55485 0
M  V30 3343 H 587.535 -8.12039 0.792769 0
M  V30 3344 P 591.496 -8.91 -3.85533e-12 0
M  V30 3345 O 591.716 -10.1746 -0.733838 0
M  V30 3346 O 592.286 -8.73346 1.23964 0
M  V30 3347 O 591.746 -7.66872 -0.971405 0
M  V30 3348 C 590.806 -7.42405 -2.04668 0
M  V30 3349 C 591.536 -6.86059 -3.24661 0
M  V30 3350 O 591.746 -5.42934 -3.03695 0
M  V30 3351 C 592.937 -7.41287 -3.50796 0
M  V30 3352 O 593.327 -7.27073 -4.86816 0
M  V30 3353 C 593.817 -6.5273 -2.63741 0
M  V30 3354 C 593.106 -5.1842 -2.73198 0
M  V30 3355 N 593.156 -4.38762 -1.4784 0
M  V30 3356 C 593.077 -4.83651 -0.183876 0
M  V30 3357 N 593.146 -3.88759 0.699393 0
M  V30 3358 C 593.296 -2.7404 -0.0575568 0
M  V30 3359 C 593.426 -1.37902 0.293928 0
M  V30 3360 N 593.437 -0.938021 1.54797 0
M  V30 3361 N 593.546 -0.491817 -0.70549 0
M  V30 3362 C 593.536 -0.931735 -1.95979 0
M  V30 3363 N 593.416 -2.16017 -2.41481 0
M  V30 3364 C 593.296 -3.02547 -1.39121 0
M  V30 3365 H 590.318 -8.36899 -2.3252 0
M  V30 3366 H 590.046 -6.70391 -1.71179 0
M  V30 3367 H 590.914 -7.03638 -4.13219 0
M  V30 3368 H 593.569 -4.59931 -3.54016 0
M  V30 3369 H 593.849 -6.88995 -1.59871 0
M  V30 3370 H 594.841 -6.4684 -3.0373 0
M  V30 3371 H 593.006 -8.47002 -3.20749 0
M  V30 3372 H 592.966 -5.8885 0.0765548 0
M  V30 3373 H 593.346 -1.60276 2.32875 0
M  V30 3374 H 593.535 0.0699355 1.73859 0
M  V30 3375 H 593.644 -0.165507 -2.71897 0
M  V30 3376 P 594.876 -7.20834 -5.23717 0
M  V30 3377 O 595.096 -7.79853 -6.57286 0
M  V30 3378 O 595.666 -7.79239 -4.12957 0
M  V30 3379 O 595.126 -5.63315 -5.29344 0
M  V30 3380 C 594.186 -4.80255 -6.01876 0
M  V30 3381 C 594.916 -3.64202 -6.65911 0
M  V30 3382 O 595.126 -2.60694 -5.64732 0
M  V30 3383 C 596.316 -3.93473 -7.1943 0
M  V30 3384 O 596.706 -3.02071 -8.21205 0
M  V30 3385 C 597.196 -3.73047 -5.97036 0
M  V30 3386 C 596.486 -2.58828 -5.25741 0
M  V30 3387 N 596.536 -2.68068 -3.77503 0
M  V30 3388 H 593.697 -5.40332 -6.79951 0
M  V30 3389 H 593.427 -4.41613 -5.32378 0
M  V30 3390 H 594.294 -3.26331 -7.47797 0
M  V30 3391 P 598.256 -2.75334 -8.47391 0
M  V30 3392 O 598.476 -2.44571 -9.90142 0
M  V30 3393 O 599.046 -3.87688 -7.92115 0
M  V30 3394 O 598.506 -1.4459 -7.59357 0
M  V30 3395 C 597.566 -0.347608 -7.69215 0
M  V30 3396 C 598.296 0.96767 -7.52806 0
M  V30 3397 O 598.506 1.21036 -6.1011 0
M  V30 3398 C 599.696 1.04544 -8.13308 0
M  V30 3399 O 600.086 2.38311 -8.41922 0
M  V30 3400 C 600.576 0.491279 -7.02284 0
M  V30 3401 C 599.866 0.996264 -5.77469 0
M  V30 3402 N 599.916 0.0501916 -4.62973 0
M  V30 3403 H 597.077 -0.374722 -8.67691 0
M  V30 3404 H 596.807 -0.443485 -6.90277 0
M  V30 3405 H 597.674 1.75537 -7.96793 0
M  V30 3406 P 601.636 2.75334 -8.47391 0
M  V30 3407 O 601.856 3.84166 -9.4489 0
M  V30 3408 O 602.426 1.51964 -8.6881 0
M  V30 3409 O 601.886 3.29363 -6.99321 0
M  V30 3410 C 600.946 4.24011 -6.4274 0
M  V30 3411 C 601.676 5.20775 -5.52155 0
M  V30 3412 O 601.886 4.56534 -4.22446 0
M  V30 3413 C 603.076 5.62629 -5.96531 0
M  V30 3414 O 603.466 6.87667 -5.41053 0
M  V30 3415 C 603.956 4.52537 -5.39283 0
M  V30 3416 C 603.246 4.20027 -4.08623 0
M  V30 3417 N 603.296 2.7613 -3.71522 0
M  V30 3418 C 603.446 2.43702 -2.37085 0
M  V30 3419 O 603.536 3.3531 -1.54039 0
M  V30 3420 N 603.496 0.951103 -2.10621 0
M  V30 3421 C 603.396 0.165021 -2.93537 0
M  V30 3422 N 603.446 -1.09723 -2.53253 0
M  V30 3423 C 603.246 0.469576 -4.32458 0
M  V30 3424 C 603.196 1.78658 -4.65921 0
M  V30 3425 H 600.456 4.79645 -7.23919 0
M  V30 3426 H 600.187 3.69802 -5.84429 0
M  V30 3427 H 601.054 6.10431 -5.41508 0
M  V30 3428 H 603.709 4.78733 -3.27967 0
M  V30 3429 H 603.988 3.64957 -6.05871 0
M  V30 3430 H 604.98 4.8868 -5.2125 0
M  V30 3431 H 603.146 5.66726 -7.06352 0
M  V30 3432 H 603.074 2.06987 -5.70299 0
M  V30 3433 H 603.176 -0.314383 -5.07728 0
M  V30 3434 H 603.564 -1.31363 -1.5319 0
M  V30 3435 H 603.367 -1.85978 -3.21943 0
M  V30 3436 P 605.016 7.20834 -5.23717 0
M  V30 3437 O 605.236 8.66104 -5.38572 0
M  V30 3438 O 605.806 6.33544 -6.1349 0
M  V30 3439 O 605.266 6.7751 -3.72168 0
M  V30 3440 C 604.326 7.20825 -2.7076 0
M  V30 3441 C 605.056 7.45864 -1.40599 0
M  V30 3442 O 605.266 6.17651 -0.734225 0
M  V30 3443 C 606.456 8.05808 -1.51899 0
M  V30 3444 O 606.846 8.74358 -0.335205 0
M  V30 3445 C 607.336 6.83093 -1.70294 0
M  V30 3446 C 606.626 5.79992 -0.836974 0
M  V30 3447 N 606.676 4.41864 -1.38293 0
M  V30 3448 H 603.837 8.13644 -3.0377 0
M  V30 3449 H 603.567 6.42788 -2.55485 0
M  V30 3450 H 604.434 8.12039 -0.792769 0
M  V30 3451 P 608.396 8.91 4.01252e-12 0
M  V30 3452 O 608.616 10.1726 0.733694 0
M  V30 3453 O 609.186 8.73148 -1.23936 0
M  V30 3454 O 608.646 7.66872 0.971405 0
M  V30 3455 C 607.706 7.42309 2.04641 0
M  V30 3456 C 608.436 6.86059 3.24661 0
M  V30 3457 O 608.646 5.42847 3.03646 0
M  V30 3458 C 609.836 7.41196 3.50753 0
M  V30 3459 O 610.226 7.27073 4.86816 0
M  V30 3460 C 610.716 6.5273 2.63741 0
M  V30 3461 C 610.006 5.1842 2.73198 0
M  V30 3462 N 610.056 4.38762 1.4784 0
M  V30 3463 H 607.217 8.36803 2.32493 0
M  V30 3464 H 606.947 6.70197 1.71129 0
M  V30 3465 H 607.814 7.03551 4.13168 0
M  V30 3466 P 611.776 7.20834 5.23717 0
M  V30 3467 O 611.996 7.79853 6.57286 0
M  V30 3468 O 612.566 7.79239 4.12957 0
M  V30 3469 O 612.026 5.63315 5.29344 0
M  V30 3470 C 611.086 4.80255 6.01876 0
M  V30 3471 C 611.816 3.64202 6.65911 0
M  V30 3472 O 612.026 2.60694 5.64732 0
M  V30 3473 C 613.216 3.93473 7.1943 0
M  V30 3474 O 613.606 3.02071 8.21205 0
M  V30 3475 C 614.096 3.73047 5.97036 0
M  V30 3476 C 613.386 2.58828 5.25741 0
M  V30 3477 N 613.436 2.68068 3.77503 0
M  V30 3478 C 613.356 3.79715 2.96723 0
M  V30 3479 N 613.436 3.5377 1.68852 0
M  V30 3480 C 613.576 2.15054 1.63254 0
M  V30 3481 C 613.706 1.28964 0.518571 0
M  V30 3482 N 613.826 -0.0538097 0.918425 0
M  V30 3483 C 613.826 -0.494275 2.22578 0
M  V30 3484 N 613.956 -1.81086 2.40434 0
M  V30 3485 N 613.696 0.313645 3.27502 0
M  V30 3486 C 613.576 1.61829 2.91033 0
M  V30 3487 H 610.597 5.40332 6.79951 0
M  V30 3488 H 610.327 4.41613 5.32378 0
M  V30 3489 H 611.194 3.26331 7.47797 0
M  V30 3490 P 615.156 2.75334 8.47391 0
M  V30 3491 O 615.376 2.44571 9.90142 0
M  V30 3492 O 615.946 3.87688 7.92115 0
M  V30 3493 O 615.406 1.4459 7.59357 0
M  V30 3494 C 614.466 0.347608 7.69215 0
M  V30 3495 C 615.196 -0.96767 7.52806 0
M  V30 3496 O 615.406 -1.21036 6.1011 0
M  V30 3497 C 616.596 -1.04544 8.13308 0
M  V30 3498 O 616.986 -2.38311 8.41922 0
M  V30 3499 C 617.476 -0.491279 7.02284 0
M  V30 3500 C 616.766 -0.996264 5.77469 0
M  V30 3501 N 616.816 -0.0501916 4.62973 0
M  V30 3502 H 613.977 0.374722 8.67691 0
M  V30 3503 H 613.707 0.443485 6.90277 0
M  V30 3504 H 614.574 -1.75537 7.96793 0
M  V30 3505 P 618.536 -2.75334 8.47391 0
M  V30 3506 O 618.756 -3.84128 9.44797 0
M  V30 3507 O 619.326 -1.51947 8.68712 0
M  V30 3508 O 618.786 -3.29363 6.99321 0
M  V30 3509 C 617.846 -4.24011 6.4274 0
M  V30 3510 C 618.576 -5.20775 5.52155 0
M  V30 3511 O 618.786 -4.56534 4.22446 0
M  V30 3512 C 619.976 -5.62629 5.96531 0
M  V30 3513 O 620.366 -6.87667 5.41053 0
M  V30 3514 C 620.856 -4.52537 5.39283 0
M  V30 3515 C 620.146 -4.20027 4.08623 0
M  V30 3516 N 620.196 -2.76189 3.71603 0
M  V30 3517 H 617.357 -4.797 7.24003 0
M  V30 3518 H 617.087 -3.69856 5.84513 0
M  V30 3519 H 617.954 -6.10356 5.41441 0
M  V30 3520 P 621.916 -7.20834 5.23717 0
M  V30 3521 O 622.136 -8.66104 5.38572 0
M  V30 3522 O 622.706 -6.33544 6.1349 0
M  V30 3523 O 622.166 -6.7751 3.72168 0
M  V30 3524 C 621.226 -7.20825 2.7076 0
M  V30 3525 C 621.956 -7.45864 1.40599 0
M  V30 3526 O 622.166 -6.17651 0.734225 0
M  V30 3527 C 623.356 -8.05808 1.51899 0
M  V30 3528 O 623.746 -8.74358 0.335205 0
M  V30 3529 C 624.236 -6.83093 1.70294 0
M  V30 3530 C 623.526 -5.79992 0.836974 0
M  V30 3531 N 623.576 -4.41864 1.38293 0
M  V30 3532 H 620.737 -8.13644 3.0377 0
M  V30 3533 H 620.467 -6.42788 2.55485 0
M  V30 3534 H 621.334 -8.12039 0.792769 0
M  V30 3535 P 625.296 -8.91 -4.1697e-12 0
M  V30 3536 O 625.516 -10.1726 -0.733694 0
M  V30 3537 O 626.086 -8.73148 1.23936 0
M  V30 3538 O 625.546 -7.66872 -0.971405 0
M  V30 3539 C 624.606 -7.42309 -2.04641 0
M  V30 3540 C 625.336 -6.86059 -3.24661 0
M  V30 3541 O 625.546 -5.42847 -3.03646 0
M  V30 3542 C 626.736 -7.41196 -3.50753 0
M  V30 3543 O 627.126 -7.27073 -4.86816 0
M  V30 3544 C 627.616 -6.5273 -2.63741 0
M  V30 3545 C 626.906 -5.1842 -2.73198 0
M  V30 3546 N 626.956 -4.38762 -1.4784 0
M  V30 3547 H 624.117 -8.36803 -2.32493 0
M  V30 3548 H 623.847 -6.70197 -1.71129 0
M  V30 3549 H 624.714 -7.03551 -4.13168 0
M  V30 3550 P 628.676 -7.20834 -5.23717 0
M  V30 3551 O 628.896 -7.79853 -6.57286 0
M  V30 3552 O 629.466 -7.79239 -4.12957 0
M  V30 3553 O 628.926 -5.63315 -5.29344 0
M  V30 3554 C 627.986 -4.80255 -6.01876 0
M  V30 3555 C 628.716 -3.64202 -6.65911 0
M  V30 3556 O 628.926 -2.60694 -5.64732 0
M  V30 3557 C 630.116 -3.93473 -7.1943 0
M  V30 3558 O 630.506 -3.02071 -8.21205 0
M  V30 3559 C 630.996 -3.73047 -5.97036 0
M  V30 3560 C 630.286 -2.58828 -5.25741 0
M  V30 3561 N 630.336 -2.68068 -3.77503 0
M  V30 3562 H 627.497 -5.40332 -6.79951 0
M  V30 3563 H 627.227 -4.41613 -5.32378 0
M  V30 3564 H 628.094 -3.26331 -7.47797 0
M  V30 3565 P 632.056 -2.75334 -8.47391 0
M  V30 3566 O 632.276 -2.44595 -9.90239 0
M  V30 3567 O 632.846 -3.87732 -7.92204 0
M  V30 3568 O 632.306 -1.4459 -7.59357 0
M  V30 3569 C 631.366 -0.347608 -7.69215 0
M  V30 3570 C 632.096 0.96767 -7.52806 0
M  V30 3571 O 632.306 1.21036 -6.1011 0
M  V30 3572 C 633.496 1.04544 -8.13308 0
M  V30 3573 O 633.886 2.38311 -8.41922 0
M  V30 3574 C 634.376 0.491279 -7.02284 0
M  V30 3575 C 633.666 0.996264 -5.77469 0
M  V30 3576 N 633.716 0.0501808 -4.62873 0
M  V30 3577 C 633.866 0.578037 -3.3505 0
M  V30 3578 O 633.956 1.8073 -3.21711 0
M  V30 3579 N 633.916 -0.468541 -2.263 0
M  V30 3580 C 633.816 -1.59186 -2.47176 0
M  V30 3581 N 633.866 -2.37626 -1.40392 0
M  V30 3582 C 633.666 -2.16203 -3.77467 0
M  V30 3583 C 633.616 -1.29324 -4.8195 0
M  V30 3584 H 630.876 -0.374679 -8.67591 0
M  V30 3585 H 630.607 -0.443421 -6.90177 0
M  V30 3586 H 631.474 1.75559 -7.96891 0
M  V30 3587 H 634.129 1.94529 -5.46723 0
M  V30 3588 H 634.408 -0.608651 -7.04676 0
M  V30 3589 H 635.4 0.889672 -7.08939 0
M  V30 3590 H 633.566 0.43308 -9.04564 0
M  V30 3591 H 633.494 -1.67758 -5.83046 0
M  V30 3592 H 633.596 -3.23869 -3.92281 0
M  V30 3593 H 633.984 -1.96317 -0.467202 0
M  V30 3594 H 633.787 -3.39693 -1.51142 0
M  V30 3595 P 635.436 2.75334 -8.47391 0
M  V30 3596 O 635.656 3.84128 -9.44797 0
M  V30 3597 O 636.226 1.51947 -8.68712 0
M  V30 3598 O 635.686 3.29363 -6.99321 0
M  V30 3599 C 634.746 4.24011 -6.4274 0
M  V30 3600 C 635.476 5.20775 -5.52155 0
M  V30 3601 O 635.686 4.56534 -4.22446 0
M  V30 3602 C 636.876 5.62629 -5.96531 0
M  V30 3603 O 637.266 6.87667 -5.41053 0
M  V30 3604 C 637.756 4.52537 -5.39283 0
M  V30 3605 C 637.046 4.20027 -4.08623 0
M  V30 3606 N 637.096 2.76189 -3.71603 0
M  V30 3607 H 634.257 4.797 -7.24003 0
M  V30 3608 H 633.987 3.69856 -5.84513 0
M  V30 3609 H 634.854 6.10356 -5.41441 0
M  V30 3610 P 638.816 7.20834 -5.23717 0
M  V30 3611 O 639.036 8.66189 -5.38625 0
M  V30 3612 O 639.606 6.33615 -6.1356 0
M  V30 3613 O 639.066 6.7751 -3.72168 0
M  V30 3614 C 638.126 7.20732 -2.70725 0
M  V30 3615 C 638.856 7.45864 -1.40599 0
M  V30 3616 O 639.066 6.17651 -0.734225 0
M  V30 3617 C 640.256 8.05808 -1.51899 0
M  V30 3618 O 640.646 8.74358 -0.335205 0
M  V30 3619 C 641.136 6.83093 -1.70294 0
M  V30 3620 C 640.426 5.79992 -0.836974 0
M  V30 3621 N 640.476 4.41769 -1.38263 0
M  V30 3622 C 640.626 3.38591 -0.481702 0
M  V30 3623 O 640.716 3.56839 0.718452 0
M  V30 3624 N 640.666 2.1206 -1.03569 0
M  V30 3625 C 640.576 1.80696 -2.36966 0
M  V30 3626 O 640.626 0.630473 -2.74862 0
M  V30 3627 C 640.426 2.94845 -3.23898 0
M  V30 3628 C 640.316 2.65253 -4.70362 0
M  V30 3629 C 640.376 4.19803 -2.73435 0
M  V30 3630 H 637.636 8.13644 -3.0377 0
M  V30 3631 H 637.367 6.42695 -2.55448 0
M  V30 3632 H 638.234 8.12039 -0.792769 0
M  V30 3633 H 640.889 5.79978 0.160587 0
M  V30 3634 H 641.168 6.51379 -2.75643 0
M  V30 3635 H 642.16 7.01734 -1.34462 0
M  V30 3636 H 640.326 8.73674 -2.38337 0
M  V30 3637 H 640.255 5.04492 -3.4095 0
M  V30 3638 H 641.285 2.83924 -5.1913 0
M  V30 3639 H 639.548 3.29824 -5.15163 0
M  V30 3640 H 640.036 1.59723 -4.84449 0
M  V30 3641 H 640.772 1.35644 -0.399345 0
M  V30 3642 P 642.196 8.91 4.32688e-12 0
M  V30 3643 O 642.416 10.1726 0.733694 0
M  V30 3644 O 642.986 8.73148 -1.23936 0
M  V30 3645 O 642.446 7.66872 0.971405 0
M  V30 3646 C 641.506 7.42309 2.04641 0
M  V30 3647 C 642.236 6.86059 3.24661 0
M  V30 3648 O 642.446 5.42847 3.03646 0
M  V30 3649 C 643.636 7.41196 3.50753 0
M  V30 3650 O 644.026 7.27073 4.86816 0
M  V30 3651 C 644.516 6.5273 2.63741 0
M  V30 3652 C 643.806 5.1842 2.73198 0
M  V30 3653 N 643.856 4.38762 1.4784 0
M  V30 3654 H 641.017 8.36803 2.32493 0
M  V30 3655 H 640.747 6.70197 1.71129 0
M  V30 3656 H 641.614 7.03551 4.13168 0
M  V30 3657 P 645.576 7.20834 5.23717 0
M  V30 3658 O 645.796 7.80006 6.57415 0
M  V30 3659 O 646.366 7.79416 4.13051 0
M  V30 3660 O 645.826 5.63315 5.29344 0
M  V30 3661 C 644.886 4.80318 6.01954 0
M  V30 3662 C 645.616 3.64202 6.65911 0
M  V30 3663 O 645.826 2.60736 5.64823 0
M  V30 3664 C 647.016 3.93521 7.19518 0
M  V30 3665 O 647.406 3.02071 8.21205 0
M  V30 3666 C 647.896 3.73047 5.97036 0
M  V30 3667 C 647.186 2.58828 5.25741 0
M  V30 3668 N 647.236 2.68068 3.77503 0
M  V30 3669 H 644.398 5.40394 6.8003 0
M  V30 3670 H 644.126 4.41741 5.32532 0
M  V30 3671 H 644.994 3.26371 7.47889 0
M  V30 3672 H 647.649 1.64007 5.56746 0
M  V30 3673 H 647.929 4.63439 5.3432 0
M  V30 3674 H 648.92 3.44776 6.25925 0
M  V30 3675 H 647.086 4.96707 7.57347 0
M  V30 3676 P 648.956 2.75334 8.47391 0
M  V30 3677 O 649.176 2.44571 9.90142 0
M  V30 3678 O 649.746 3.87688 7.92115 0
M  V30 3679 O 649.206 1.4459 7.59357 0
M  V30 3680 C 648.266 0.347608 7.69215 0
M  V30 3681 C 648.996 -0.96767 7.52806 0
M  V30 3682 O 649.206 -1.21036 6.1011 0
M  V30 3683 C 650.396 -1.04544 8.13308 0
M  V30 3684 O 650.786 -2.38311 8.41922 0
M  V30 3685 C 651.276 -0.491279 7.02284 0
M  V30 3686 C 650.566 -0.996264 5.77469 0
M  V30 3687 N 650.616 -0.0501916 4.62973 0
M  V30 3688 C 650.536 1.32786 4.63244 0
M  V30 3689 N 650.616 1.86957 3.44545 0
M  V30 3690 C 650.756 0.780241 2.58481 0
M  V30 3691 C 650.886 0.738536 1.17757 0
M  V30 3692 N 651.006 -0.58337 0.711393 0
M  V30 3693 C 651.006 -1.70816 1.51017 0
M  V30 3694 N 651.136 -2.87826 0.880757 0
M  V30 3695 N 650.876 -1.67126 2.8339 0
M  V30 3696 C 650.756 -0.401421 3.30572 0
M  V30 3697 H 647.777 0.374722 8.67691 0
M  V30 3698 H 647.507 0.443485 6.90277 0
M  V30 3699 H 648.374 -1.75537 7.96793 0
M  V30 3700 P 652.336 -2.75334 8.47391 0
M  V30 3701 O 652.556 -3.84204 9.44982 0
M  V30 3702 O 653.126 -1.51982 8.68909 0
M  V30 3703 O 652.586 -3.29363 6.99321 0
M  V30 3704 C 651.646 -4.24066 6.42823 0
M  V30 3705 C 652.376 -5.20775 5.52155 0
M  V30 3706 O 652.586 -4.56607 4.22514 0
M  V30 3707 C 653.776 -5.62697 5.96604 0
M  V30 3708 O 654.166 -6.87667 5.41053 0
M  V30 3709 C 654.656 -4.52537 5.39283 0
M  V30 3710 C 653.946 -4.20027 4.08623 0
M  V30 3711 N 653.996 -2.76189 3.71603 0
M  V30 3712 C 653.916 -1.66944 4.54297 0
M  V30 3713 N 653.986 -0.536169 3.91344 0
M  V30 3714 C 654.136 -0.901569 2.58849 0
M  V30 3715 C 654.266 -0.146599 1.40236 0
M  V30 3716 N 654.276 1.18234 1.37046 0
M  V30 3717 N 654.386 -0.822941 0.249738 0
M  V30 3718 C 654.376 -2.15179 0.280525 0
M  V30 3719 N 654.256 -2.96414 1.30822 0
M  V30 3720 C 654.136 -2.25804 2.44748 0
M  V30 3721 H 651.158 -4.79756 7.24086 0
M  V30 3722 H 650.886 -3.69963 5.84682 0
M  V30 3723 H 651.754 -6.10431 5.41508 0
M  V30 3724 H 654.409 -4.78816 3.28024 0
M  V30 3725 H 654.689 -3.64957 6.05871 0
M  V30 3726 H 655.68 -4.88748 5.21323 0
M  V30 3727 H 653.846 -5.66789 7.0643 0
M  V30 3728 H 653.805 -1.74684 5.62396 0
M  V30 3729 H 654.186 1.71949 2.24394 0
M  V30 3730 H 654.375 1.67511 0.470742 0
M  V30 3731 H 654.483 -2.63704 -0.6828 0
M  V30 3732 P 655.716 -7.20834 5.23717 0
M  V30 3733 O 655.936 -8.66274 5.38678 0
M  V30 3734 O 656.506 -6.33687 6.13629 0
M  V30 3735 O 655.966 -6.7751 3.72168 0
M  V30 3736 C 655.026 -7.20919 2.70795 0
M  V30 3737 C 655.756 -7.45864 1.40599 0
M  V30 3738 O 655.966 -6.17751 0.734343 0
M  V30 3739 C 657.156 -8.05906 1.51917 0
M  V30 3740 O 657.546 -8.74358 0.335205 0
M  V30 3741 C 658.036 -6.83093 1.70294 0
M  V30 3742 C 657.326 -5.79992 0.836974 0
M  V30 3743 N 657.376 -4.41864 1.38293 0
M  V30 3744 C 657.296 -4.02089 2.69407 0
M  V30 3745 N 657.366 -2.73403 2.85089 0
M  V30 3746 C 657.516 -2.25086 1.5642 0
M  V30 3747 C 657.646 -0.942887 1.04836 0
M  V30 3748 N 657.656 0.150999 1.80369 0
M  V30 3749 N 657.766 -0.812565 -0.28167 0
M  V30 3750 C 657.756 -1.90572 -1.03784 0
M  V30 3751 N 657.636 -3.167 -0.683905 0
M  V30 3752 C 657.516 -3.26538 0.652815 0
M  V30 3753 H 654.538 -8.13738 3.03804 0
M  V30 3754 H 654.266 -6.42974 2.55559 0
M  V30 3755 H 655.134 -8.12139 0.792866 0
M  V30 3756 H 657.789 -5.80178 -0.160643 0
M  V30 3757 H 658.069 -6.51379 2.75643 0
M  V30 3758 H 659.06 -7.01832 1.3448 0
M  V30 3759 H 657.226 -8.73771 2.38364 0
M  V30 3760 H 657.185 -4.7189 3.52311 0
M  V30 3761 H 657.566 0.0721434 2.82608 0
M  V30 3762 H 657.755 1.0785 1.36544 0
M  V30 3763 H 657.863 -1.73207 -2.10241 0
M  V30 3764 P 659.096 -8.91 -4.48406e-12 0
M  V30 3765 O 659.316 -10.1726 -0.733694 0
M  V30 3766 O 659.886 -8.73148 1.23936 0
M  V30 3767 O 659.346 -7.66872 -0.971405 0
M  V30 3768 C 658.406 -7.42309 -2.04641 0
M  V30 3769 C 659.136 -6.86059 -3.24661 0
M  V30 3770 O 659.346 -5.42847 -3.03646 0
M  V30 3771 C 660.536 -7.41196 -3.50753 0
M  V30 3772 O 660.926 -7.27073 -4.86816 0
M  V30 3773 C 661.416 -6.5273 -2.63741 0
M  V30 3774 C 660.706 -5.1842 -2.73198 0
M  V30 3775 N 660.756 -4.38762 -1.4784 0
M  V30 3776 H 657.917 -8.36803 -2.32493 0
M  V30 3777 H 657.647 -6.70197 -1.71129 0
M  V30 3778 H 658.514 -7.03551 -4.13168 0
M  V30 3779 P 662.476 -7.20834 -5.23717 0
M  V30 3780 O 662.696 -7.79853 -6.57286 0
M  V30 3781 O 663.266 -7.79239 -4.12957 0
M  V30 3782 O 662.726 -5.63315 -5.29344 0
M  V30 3783 C 661.786 -4.80255 -6.01876 0
M  V30 3784 C 662.516 -3.64202 -6.65911 0
M  V30 3785 O 662.726 -2.60694 -5.64732 0
M  V30 3786 C 663.916 -3.93473 -7.1943 0
M  V30 3787 O 664.306 -3.02071 -8.21205 0
M  V30 3788 C 664.796 -3.73047 -5.97036 0
M  V30 3789 C 664.086 -2.58828 -5.25741 0
M  V30 3790 N 664.136 -2.68068 -3.77503 0
M  V30 3791 H 661.297 -5.40332 -6.79951 0
M  V30 3792 H 661.027 -4.41613 -5.32378 0
M  V30 3793 H 661.894 -3.26331 -7.47797 0
M  V30 3794 P 665.856 -2.75334 -8.47391 0
M  V30 3795 O 666.076 -2.44571 -9.90142 0
M  V30 3796 O 666.646 -3.87688 -7.92115 0
M  V30 3797 O 666.106 -1.4459 -7.59357 0
M  V30 3798 C 665.166 -0.347608 -7.69215 0
M  V30 3799 C 665.896 0.96767 -7.52806 0
M  V30 3800 O 666.106 1.21036 -6.1011 0
M  V30 3801 C 667.296 1.04544 -8.13308 0
M  V30 3802 O 667.686 2.38311 -8.41922 0
M  V30 3803 C 668.176 0.491279 -7.02284 0
M  V30 3804 C 667.466 0.996264 -5.77469 0
M  V30 3805 N 667.516 0.0501916 -4.62973 0
M  V30 3806 H 664.677 -0.374722 -8.67691 0
M  V30 3807 H 664.407 -0.443485 -6.90277 0
M  V30 3808 H 665.274 1.75537 -7.96793 0
M  V30 3809 P 669.236 2.75334 -8.47391 0
M  V30 3810 O 669.456 3.84128 -9.44797 0
M  V30 3811 O 670.026 1.51947 -8.68712 0
M  V30 3812 O 669.486 3.29363 -6.99321 0
M  V30 3813 C 668.546 4.24011 -6.4274 0
M  V30 3814 C 669.276 5.20775 -5.52155 0
M  V30 3815 O 669.486 4.56534 -4.22446 0
M  V30 3816 C 670.676 5.62629 -5.96531 0
M  V30 3817 O 671.066 6.87667 -5.41053 0
M  V30 3818 C 671.556 4.52537 -5.39283 0
M  V30 3819 C 670.846 4.20027 -4.08623 0
M  V30 3820 N 670.896 2.76189 -3.71603 0
M  V30 3821 H 668.057 4.797 -7.24003 0
M  V30 3822 H 667.787 3.69856 -5.84513 0
M  V30 3823 H 668.654 6.10356 -5.41441 0
M  V30 3824 P 672.616 7.20834 -5.23717 0
M  V30 3825 O 672.836 8.66104 -5.38572 0
M  V30 3826 O 673.406 6.33544 -6.1349 0
M  V30 3827 O 672.866 6.7751 -3.72168 0
M  V30 3828 C 671.926 7.20825 -2.7076 0
M  V30 3829 C 672.656 7.45864 -1.40599 0
M  V30 3830 O 672.866 6.17651 -0.734225 0
M  V30 3831 C 674.056 8.05808 -1.51899 0
M  V30 3832 O 674.446 8.74358 -0.335205 0
M  V30 3833 C 674.936 6.83093 -1.70294 0
M  V30 3834 C 674.226 5.79992 -0.836974 0
M  V30 3835 N 674.276 4.41864 -1.38293 0
M  V30 3836 H 671.437 8.13644 -3.0377 0
M  V30 3837 H 671.167 6.42788 -2.55485 0
M  V30 3838 H 672.034 8.12039 -0.792769 0
M  V30 3839 P 675.996 8.91 4.64125e-12 0
M  V30 3840 O 676.216 10.1726 0.733694 0
M  V30 3841 O 676.786 8.73148 -1.23936 0
M  V30 3842 O 676.246 7.66872 0.971405 0
M  V30 3843 C 675.306 7.42309 2.04641 0
M  V30 3844 C 676.036 6.86059 3.24661 0
M  V30 3845 O 676.246 5.42847 3.03646 0
M  V30 3846 C 677.436 7.41196 3.50753 0
M  V30 3847 O 677.826 7.27073 4.86816 0
M  V30 3848 C 678.316 6.5273 2.63741 0
M  V30 3849 C 677.606 5.1842 2.73198 0
M  V30 3850 N 677.656 4.38762 1.4784 0
M  V30 3851 H 674.817 8.36803 2.32493 0
M  V30 3852 H 674.547 6.70197 1.71129 0
M  V30 3853 H 675.414 7.03551 4.13168 0
M  V30 3854 P 679.376 7.20834 5.23717 0
M  V30 3855 O 679.596 7.79853 6.57286 0
M  V30 3856 O 680.166 7.79239 4.12957 0
M  V30 3857 O 679.626 5.63315 5.29344 0
M  V30 3858 C 678.686 4.80255 6.01876 0
M  V30 3859 C 679.416 3.64202 6.65911 0
M  V30 3860 O 679.626 2.60694 5.64732 0
M  V30 3861 C 680.816 3.93473 7.1943 0
M  V30 3862 O 681.206 3.02071 8.21205 0
M  V30 3863 C 681.696 3.73047 5.97036 0
M  V30 3864 C 680.986 2.58828 5.25741 0
M  V30 3865 N 681.036 2.68068 3.77503 0
M  V30 3866 H 678.197 5.40332 6.79951 0
M  V30 3867 H 677.927 4.41613 5.32378 0
M  V30 3868 H 678.794 3.26331 7.47797 0
M  V30 3869 P 682.756 2.75334 8.47391 0
M  V30 3870 O 682.976 2.44571 9.90142 0
M  V30 3871 O 683.546 3.87688 7.92115 0
M  V30 3872 O 683.006 1.4459 7.59357 0
M  V30 3873 C 682.066 0.347608 7.69215 0
M  V30 3874 C 682.796 -0.96767 7.52806 0
M  V30 3875 O 683.006 -1.21036 6.1011 0
M  V30 3876 C 684.196 -1.04544 8.13308 0
M  V30 3877 O 684.586 -2.38311 8.41922 0
M  V30 3878 C 685.076 -0.491279 7.02284 0
M  V30 3879 C 684.366 -0.996264 5.77469 0
M  V30 3880 N 684.416 -0.0501916 4.62973 0
M  V30 3881 H 681.577 0.374722 8.67691 0
M  V30 3882 H 681.307 0.443485 6.90277 0
M  V30 3883 H 682.174 -1.75537 7.96793 0
M  V30 3884 P 686.136 -2.75334 8.47391 0
M  V30 3885 O 686.356 -3.84166 9.4489 0
M  V30 3886 O 686.926 -1.51964 8.6881 0
M  V30 3887 O 686.386 -3.29363 6.99321 0
M  V30 3888 C 685.446 -4.23956 6.42656 0
M  V30 3889 C 686.176 -5.20775 5.52155 0
M  V30 3890 O 686.386 -4.56534 4.22446 0
M  V30 3891 C 687.576 -5.62629 5.96531 0
M  V30 3892 O 687.966 -6.87667 5.41053 0
M  V30 3893 C 688.456 -4.52537 5.39283 0
M  V30 3894 C 687.746 -4.20027 4.08623 0
M  V30 3895 N 687.796 -2.7613 3.71522 0
M  V30 3896 C 687.946 -2.45612 2.37989 0
M  V30 3897 O 688.036 -3.30919 1.51621 0
M  V30 3898 N 687.986 -1.10684 2.08435 0
M  V30 3899 C 687.896 -0.0690084 2.9792 0
M  V30 3900 O 687.946 1.10553 2.59426 0
M  V30 3901 C 687.746 -0.481522 4.35345 0
M  V30 3902 C 687.636 0.618778 5.36443 0
M  V30 3903 C 687.696 -1.78906 4.67968 0
M  V30 3904 H 684.956 -4.797 7.24003 0
M  V30 3905 H 684.687 -3.69802 5.84429 0
M  V30 3906 H 685.554 -6.10356 5.41441 0
M  V30 3907 H 688.209 -4.78651 3.27911 0
M  V30 3908 H 688.488 -3.64957 6.05871 0
M  V30 3909 H 689.48 -4.8868 5.2125 0
M  V30 3910 H 687.646 -5.66726 7.06352 0
M  V30 3911 H 687.575 -2.07737 5.72367 0
M  V30 3912 H 688.605 0.754375 5.86871 0
M  V30 3913 H 686.868 0.359721 6.10641 0
M  V30 3914 H 687.356 1.55533 4.8581 0
M  V30 3915 H 688.092 -0.862651 1.12037 0
M  V30 3916 P 689.516 -7.20834 5.23717 0
M  V30 3917 O 689.736 -8.66104 5.38572 0
M  V30 3918 O 690.306 -6.33544 6.1349 0
M  V30 3919 O 689.766 -6.7751 3.72168 0
M  V30 3920 C 688.826 -7.20825 2.7076 0
M  V30 3921 C 689.556 -7.45864 1.40599 0
M  V30 3922 O 689.766 -6.17651 0.734225 0
M  V30 3923 C 690.956 -8.05808 1.51899 0
M  V30 3924 O 691.346 -8.74358 0.335205 0
M  V30 3925 C 691.836 -6.83093 1.70294 0
M  V30 3926 C 691.126 -5.79992 0.836974 0
M  V30 3927 N 691.176 -4.41864 1.38293 0
M  V30 3928 H 688.337 -8.13644 3.0377 0
M  V30 3929 H 688.067 -6.42788 2.55485 0
M  V30 3930 H 688.934 -8.12039 0.792769 0
M  V30 3931 P 692.896 -8.91 -4.67181e-12 0
M  V30 3932 O 693.116 -10.1726 -0.733694 0
M  V30 3933 O 693.686 -8.73148 1.23936 0
M  V30 3934 O 693.146 -7.66872 -0.971405 0
M  V30 3935 C 692.206 -7.42309 -2.04641 0
M  V30 3936 C 692.936 -6.86059 -3.24661 0
M  V30 3937 O 693.146 -5.42847 -3.03646 0
M  V30 3938 C 694.336 -7.41196 -3.50753 0
M  V30 3939 O 694.726 -7.27073 -4.86816 0
M  V30 3940 C 695.216 -6.5273 -2.63741 0
M  V30 3941 C 694.506 -5.1842 -2.73198 0
M  V30 3942 N 694.556 -4.38762 -1.4784 0
M  V30 3943 H 691.717 -8.36803 -2.32493 0
M  V30 3944 H 691.447 -6.70197 -1.71129 0
M  V30 3945 H 692.314 -7.03551 -4.13168 0
M  V30 3946 P 696.276 -7.20834 -5.23717 0
M  V30 3947 O 696.496 -7.79853 -6.57286 0
M  V30 3948 O 697.066 -7.79239 -4.12957 0
M  V30 3949 O 696.526 -5.63315 -5.29344 0
M  V30 3950 C 695.586 -4.80255 -6.01876 0
M  V30 3951 C 696.316 -3.64202 -6.65911 0
M  V30 3952 O 696.526 -2.60694 -5.64732 0
M  V30 3953 C 697.716 -3.93473 -7.1943 0
M  V30 3954 O 698.106 -3.02071 -8.21205 0
M  V30 3955 C 698.596 -3.73047 -5.97036 0
M  V30 3956 C 697.886 -2.58828 -5.25741 0
M  V30 3957 N 697.936 -2.68068 -3.77503 0
M  V30 3958 H 695.097 -5.40332 -6.79951 0
M  V30 3959 H 694.827 -4.41613 -5.32378 0
M  V30 3960 H 695.694 -3.26331 -7.47797 0
M  V30 3961 P 699.656 -2.75334 -8.47391 0
M  V30 3962 O 699.876 -2.44619 -9.90336 0
M  V30 3963 O 700.446 -3.87776 -7.92294 0
M  V30 3964 O 699.906 -1.4459 -7.59357 0
M  V30 3965 C 698.966 -0.347653 -7.69315 0
M  V30 3966 C 699.696 0.96767 -7.52806 0
M  V30 3967 O 699.906 1.21055 -6.10208 0
M  V30 3968 C 701.096 1.04557 -8.13408 0
M  V30 3969 O 701.486 2.38311 -8.41922 0
M  V30 3970 C 701.976 0.491279 -7.02284 0
M  V30 3971 C 701.266 0.996264 -5.77469 0
M  V30 3972 N 701.316 0.0501916 -4.62973 0
M  V30 3973 H 698.478 -0.374765 -8.67791 0
M  V30 3974 H 698.206 -0.443613 -6.90476 0
M  V30 3975 H 699.074 1.75559 -7.96891 0
M  V30 3976 H 701.729 1.94563 -5.46818 0
M  V30 3977 H 702.009 -0.608651 -7.04676 0
M  V30 3978 H 703 0.889796 -7.09039 0
M  V30 3979 H 701.166 0.433128 -9.04664 0
M  V30 3980 P 703.036 2.75334 -8.47391 0
M  V30 3981 O 703.256 3.84128 -9.44797 0
M  V30 3982 O 703.826 1.51947 -8.68712 0
M  V30 3983 O 703.286 3.29363 -6.99321 0
M  V30 3984 C 702.346 4.24011 -6.4274 0
M  V30 3985 C 703.076 5.20775 -5.52155 0
M  V30 3986 O 703.286 4.56534 -4.22446 0
M  V30 3987 C 704.476 5.62629 -5.96531 0
M  V30 3988 O 704.866 6.87667 -5.41053 0
M  V30 3989 C 705.356 4.52537 -5.39283 0
M  V30 3990 C 704.646 4.20027 -4.08623 0
M  V30 3991 N 704.696 2.76189 -3.71603 0
M  V30 3992 H 701.857 4.797 -7.24003 0
M  V30 3993 H 701.587 3.69856 -5.84513 0
M  V30 3994 H 702.454 6.10356 -5.41441 0
M  V30 3995 P 706.416 7.20834 -5.23717 0
M  V30 3996 O 706.636 8.66104 -5.38572 0
M  V30 3997 O 707.206 6.33544 -6.1349 0
M  V30 3998 O 706.666 6.7751 -3.72168 0
M  V30 3999 C 705.726 7.20825 -2.7076 0
M  V30 4000 C 706.456 7.45864 -1.40599 0
M  V30 4001 O 706.666 6.17651 -0.734225 0
M  V30 4002 C 707.856 8.05808 -1.51899 0
M  V30 4003 O 708.246 8.74358 -0.335205 0
M  V30 4004 C 708.736 6.83093 -1.70294 0
M  V30 4005 C 708.026 5.79992 -0.836974 0
M  V30 4006 N 708.076 4.41864 -1.38293 0
M  V30 4007 H 705.237 8.13644 -3.0377 0
M  V30 4008 H 704.967 6.42788 -2.55485 0
M  V30 4009 H 705.834 8.12039 -0.792769 0
M  V30 4010 P 709.796 8.91 4.82899e-12 0
M  V30 4011 O 710.016 10.1736 0.733766 0
M  V30 4012 O 710.586 8.73247 -1.2395 0
M  V30 4013 O 710.046 7.66872 0.971405 0
M  V30 4014 C 709.106 7.42212 2.04614 0
M  V30 4015 C 709.836 6.86059 3.24661 0
M  V30 4016 O 710.046 5.42847 3.03646 0
M  V30 4017 C 711.236 7.41196 3.50753 0
M  V30 4018 O 711.626 7.27073 4.86816 0
M  V30 4019 C 712.116 6.5273 2.63741 0
M  V30 4020 C 711.406 5.1842 2.73198 0
M  V30 4021 N 711.456 4.38668 1.47808 0
M  V30 4022 C 711.606 3.02239 1.60048 0
M  V30 4023 O 711.696 2.46459 2.67869 0
M  V30 4024 N 711.646 2.32436 0.408571 0
M  V30 4025 C 711.556 2.85471 -0.854993 0
M  V30 4026 O 711.606 2.12566 -1.8531 0
M  V30 4027 C 711.406 4.28918 -0.887335 0
M  V30 4028 C 711.296 4.91066 -2.24619 0
M  V30 4029 C 711.356 5.00349 0.255399 0
M  V30 4030 H 708.616 8.36803 2.32493 0
M  V30 4031 H 708.347 6.701 1.71105 0
M  V30 4032 H 709.214 7.03551 4.13168 0
M  V30 4033 H 711.869 4.59773 3.53894 0
M  V30 4034 H 712.148 6.88995 1.59871 0
M  V30 4035 H 713.14 6.46749 3.03687 0
M  V30 4036 H 711.306 8.46908 3.20714 0
M  V30 4037 H 711.235 6.08548 0.206986 0
M  V30 4038 H 712.265 5.34836 -2.53099 0
M  V30 4039 H 710.528 5.69638 -2.2291 0
M  V30 4040 H 711.016 4.13971 -2.98044 0
M  V30 4041 H 711.752 1.33211 0.474216 0
M  V30 4042 P 713.176 7.20834 5.23717 0
M  V30 4043 O 713.396 7.79853 6.57286 0
M  V30 4044 O 713.966 7.79239 4.12957 0
M  V30 4045 O 713.426 5.63315 5.29344 0
M  V30 4046 C 712.486 4.80255 6.01876 0
M  V30 4047 C 713.216 3.64202 6.65911 0
M  V30 4048 O 713.426 2.60694 5.64732 0
M  V30 4049 C 714.616 3.93473 7.1943 0
M  V30 4050 O 715.006 3.02071 8.21205 0
M  V30 4051 C 715.496 3.73047 5.97036 0
M  V30 4052 C 714.786 2.58828 5.25741 0
M  V30 4053 N 714.836 2.68068 3.77503 0
M  V30 4054 H 711.997 5.40332 6.79951 0
M  V30 4055 H 711.727 4.41613 5.32378 0
M  V30 4056 H 712.594 3.26331 7.47797 0
M  V30 4057 P 716.556 2.75334 8.47391 0
M  V30 4058 O 716.776 2.44571 9.90142 0
M  V30 4059 O 717.346 3.87688 7.92115 0
M  V30 4060 O 716.806 1.4459 7.59357 0
M  V30 4061 C 715.866 0.347608 7.69215 0
M  V30 4062 C 716.596 -0.96767 7.52806 0
M  V30 4063 O 716.806 -1.21036 6.1011 0
M  V30 4064 C 717.996 -1.04544 8.13308 0
M  V30 4065 O 718.386 -2.38311 8.41922 0
M  V30 4066 C 718.876 -0.491279 7.02284 0
M  V30 4067 C 718.166 -0.996264 5.77469 0
M  V30 4068 N 718.216 -0.0501916 4.62973 0
M  V30 4069 C 718.136 1.32786 4.63244 0
M  V30 4070 N 718.216 1.86957 3.44545 0
M  V30 4071 C 718.356 0.780241 2.58481 0
M  V30 4072 C 718.486 0.738536 1.17757 0
M  V30 4073 O 718.506 1.66794 0.372349 0
M  V30 4074 N 718.606 -0.58337 0.711393 0
M  V30 4075 C 718.606 -1.70816 1.51017 0
M  V30 4076 N 718.736 -2.87826 0.880757 0
M  V30 4077 N 718.476 -1.67126 2.8339 0
M  V30 4078 C 718.356 -0.401421 3.30572 0
M  V30 4079 H 715.377 0.374722 8.67691 0
M  V30 4080 H 715.107 0.443485 6.90277 0
M  V30 4081 H 715.974 -1.75537 7.96793 0
M  V30 4082 H 718.629 -1.95076 5.46529 0
M  V30 4083 H 718.908 0.608565 7.04577 0
M  V30 4084 H 719.9 -0.889672 7.08939 0
M  V30 4085 H 718.066 -0.43308 9.04564 0
M  V30 4086 H 718.017 1.91249 5.54442 0
M  V30 4087 H 718.699 -0.718054 -0.275244 0
M  V30 4088 H 718.736 -3.75721 1.41832 0
M  V30 4089 H 718.837 -2.90436 -0.145468 0
M  V30 4090 P 719.936 -2.75334 8.47391 0
M  V30 4091 O 720.156 -3.84128 9.44797 0
M  V30 4092 O 720.726 -1.51947 8.68712 0
M  V30 4093 O 720.186 -3.29363 6.99321 0
M  V30 4094 C 719.246 -4.24011 6.4274 0
M  V30 4095 C 719.976 -5.20775 5.52155 0
M  V30 4096 O 720.186 -4.56534 4.22446 0
M  V30 4097 C 721.376 -5.62629 5.96531 0
M  V30 4098 O 721.766 -6.87667 5.41053 0
M  V30 4099 C 722.256 -4.52537 5.39283 0
M  V30 4100 C 721.546 -4.20027 4.08623 0
M  V30 4101 N 721.596 -2.76189 3.71603 0
M  V30 4102 H 718.757 -4.797 7.24003 0
M  V30 4103 H 718.487 -3.69856 5.84513 0
M  V30 4104 H 719.354 -6.10356 5.41441 0
M  V30 4105 P 723.316 -7.20834 5.23717 0
M  V30 4106 O 723.536 -8.66104 5.38572 0
M  V30 4107 O 724.106 -6.33544 6.1349 0
M  V30 4108 O 723.566 -6.7751 3.72168 0
M  V30 4109 C 722.626 -7.20825 2.7076 0
M  V30 4110 C 723.356 -7.45864 1.40599 0
M  V30 4111 O 723.566 -6.17651 0.734225 0
M  V30 4112 C 724.756 -8.05808 1.51899 0
M  V30 4113 O 725.146 -8.74358 0.335205 0
M  V30 4114 C 725.636 -6.83093 1.70294 0
M  V30 4115 C 724.926 -5.79992 0.836974 0
M  V30 4116 N 724.976 -4.41864 1.38293 0
M  V30 4117 H 722.137 -8.13644 3.0377 0
M  V30 4118 H 721.867 -6.42788 2.55485 0
M  V30 4119 H 722.734 -8.12039 0.792769 0
M  V30 4120 P 726.696 -8.91 -4.98617e-12 0
M  V30 4121 O 726.916 -10.1736 -0.733766 0
M  V30 4122 O 727.486 -8.73247 1.2395 0
M  V30 4123 O 726.946 -7.66872 -0.971405 0
M  V30 4124 C 726.006 -7.42309 -2.04641 0
M  V30 4125 C 726.736 -6.86059 -3.24661 0
M  V30 4126 O 726.946 -5.42847 -3.03646 0
M  V30 4127 C 728.136 -7.41196 -3.50753 0
M  V30 4128 O 728.526 -7.27073 -4.86816 0
M  V30 4129 C 729.016 -6.5273 -2.63741 0
M  V30 4130 C 728.306 -5.1842 -2.73198 0
M  V30 4131 N 728.356 -4.38668 -1.47808 0
M  V30 4132 C 728.506 -3.00789 -1.58511 0
M  V30 4133 O 728.596 -2.50116 -2.71298 0
M  V30 4134 N 728.556 -2.29703 -0.253698 0
M  V30 4135 C 728.456 -2.84269 0.750133 0
M  V30 4136 N 728.506 -2.06951 1.82612 0
M  V30 4137 C 728.306 -4.25803 0.889776 0
M  V30 4138 C 728.256 -4.98326 -0.259363 0
M  V30 4139 H 725.516 -8.36707 -2.32466 0
M  V30 4140 H 725.247 -6.701 -1.71105 0
M  V30 4141 H 726.114 -7.03638 -4.13219 0
M  V30 4142 H 728.769 -4.59852 -3.53955 0
M  V30 4143 H 729.048 -6.88995 -1.59871 0
M  V30 4144 H 730.04 -6.46749 -3.03687 0
M  V30 4145 H 728.206 -8.46908 -3.20714 0
M  V30 4146 H 728.134 -6.06349 -0.206238 0
M  V30 4147 H 728.236 -4.73163 1.86796 0
M  V30 4148 H 728.624 -1.05099 1.72271 0
M  V30 4149 H 728.427 -2.48716 2.76361 0
M  V30 4150 P 730.076 -7.20834 -5.23717 0
M  V30 4151 O 730.296 -7.79853 -6.57286 0
M  V30 4152 O 730.866 -7.79239 -4.12957 0
M  V30 4153 O 730.326 -5.63315 -5.29344 0
M  V30 4154 C 729.386 -4.80255 -6.01876 0
M  V30 4155 C 730.116 -3.64202 -6.65911 0
M  V30 4156 O 730.326 -2.60694 -5.64732 0
M  V30 4157 C 731.516 -3.93473 -7.1943 0
M  V30 4158 O 731.906 -3.02071 -8.21205 0
M  V30 4159 C 732.396 -3.73047 -5.97036 0
M  V30 4160 C 731.686 -2.58828 -5.25741 0
M  V30 4161 N 731.736 -2.68068 -3.77503 0
M  V30 4162 H 728.897 -5.40332 -6.79951 0
M  V30 4163 H 728.627 -4.41613 -5.32378 0
M  V30 4164 H 729.494 -3.26331 -7.47797 0
M  V30 4165 P 733.456 -2.75334 -8.47391 0
M  V30 4166 O 733.676 -2.44571 -9.90142 0
M  V30 4167 O 734.246 -3.87688 -7.92115 0
M  V30 4168 O 733.706 -1.4459 -7.59357 0
M  V30 4169 C 732.766 -0.347608 -7.69215 0
M  V30 4170 C 733.496 0.96767 -7.52806 0
M  V30 4171 O 733.706 1.21036 -6.1011 0
M  V30 4172 C 734.896 1.04544 -8.13308 0
M  V30 4173 O 735.286 2.38311 -8.41922 0
M  V30 4174 C 735.776 0.491279 -7.02284 0
M  V30 4175 C 735.066 0.996264 -5.77469 0
M  V30 4176 N 735.116 0.0501916 -4.62973 0
M  V30 4177 C 735.036 -1.32786 -4.63244 0
M  V30 4178 N 735.116 -1.86957 -3.44545 0
M  V30 4179 C 735.256 -0.780241 -2.58481 0
M  V30 4180 C 735.386 -0.738536 -1.17757 0
M  V30 4181 O 735.406 -1.66794 -0.372349 0
M  V30 4182 N 735.506 0.58337 -0.711393 0
M  V30 4183 C 735.506 1.70816 -1.51017 0
M  V30 4184 N 735.636 2.87826 -0.880757 0
M  V30 4185 N 735.376 1.67126 -2.8339 0
M  V30 4186 C 735.256 0.401421 -3.30572 0
M  V30 4187 H 732.277 -0.374722 -8.67691 0
M  V30 4188 H 732.007 -0.443485 -6.90277 0
M  V30 4189 H 732.874 1.75537 -7.96793 0
M  V30 4190 H 735.529 1.95076 -5.46529 0
M  V30 4191 H 735.808 -0.608565 -7.04577 0
M  V30 4192 H 736.8 0.889672 -7.08939 0
M  V30 4193 H 734.966 0.43308 -9.04564 0
M  V30 4194 H 734.917 -1.91249 -5.54442 0
M  V30 4195 H 735.599 0.718054 0.275244 0
M  V30 4196 H 735.636 3.75721 -1.41832 0
M  V30 4197 H 735.737 2.90436 0.145468 0
M  V30 4198 P 736.836 2.75334 -8.47391 0
M  V30 4199 O 737.056 3.84128 -9.44797 0
M  V30 4200 O 737.626 1.51947 -8.68712 0
M  V30 4201 O 737.086 3.29363 -6.99321 0
M  V30 4202 C 736.146 4.24011 -6.4274 0
M  V30 4203 C 736.876 5.20775 -5.52155 0
M  V30 4204 O 737.086 4.56534 -4.22446 0
M  V30 4205 C 738.276 5.62629 -5.96531 0
M  V30 4206 O 738.666 6.87667 -5.41053 0
M  V30 4207 C 739.156 4.52537 -5.39283 0
M  V30 4208 C 738.446 4.20027 -4.08623 0
M  V30 4209 N 738.496 2.76189 -3.71603 0
M  V30 4210 H 735.657 4.797 -7.24003 0
M  V30 4211 H 735.387 3.69856 -5.84513 0
M  V30 4212 H 736.254 6.10356 -5.41441 0
M  V30 4213 P 740.216 7.20834 -5.23717 0
M  V30 4214 O 740.436 8.66104 -5.38572 0
M  V30 4215 O 741.006 6.33544 -6.1349 0
M  V30 4216 O 740.466 6.7751 -3.72168 0
M  V30 4217 C 739.526 7.20825 -2.7076 0
M  V30 4218 C 740.256 7.45864 -1.40599 0
M  V30 4219 O 740.466 6.17651 -0.734225 0
M  V30 4220 C 741.656 8.05808 -1.51899 0
M  V30 4221 O 742.046 8.74358 -0.335205 0
M  V30 4222 C 742.536 6.83093 -1.70294 0
M  V30 4223 C 741.826 5.79992 -0.836974 0
M  V30 4224 N 741.876 4.41864 -1.38293 0
M  V30 4225 H 739.037 8.13644 -3.0377 0
M  V30 4226 H 738.767 6.42788 -2.55485 0
M  V30 4227 H 739.634 8.12039 -0.792769 0
M  V30 4228 P 743.596 8.91 5.14336e-12 0
M  V30 4229 O 743.816 10.1726 0.733694 0
M  V30 4230 O 744.386 8.73148 -1.23936 0
M  V30 4231 O 743.846 7.66872 0.971405 0
M  V30 4232 C 742.906 7.42309 2.04641 0
M  V30 4233 C 743.636 6.86059 3.24661 0
M  V30 4234 O 743.846 5.42847 3.03646 0
M  V30 4235 C 745.036 7.41196 3.50753 0
M  V30 4236 O 745.426 7.27073 4.86816 0
M  V30 4237 C 745.916 6.5273 2.63741 0
M  V30 4238 C 745.206 5.1842 2.73198 0
M  V30 4239 N 745.256 4.38762 1.4784 0
M  V30 4240 H 742.417 8.36803 2.32493 0
M  V30 4241 H 742.147 6.70197 1.71129 0
M  V30 4242 H 743.014 7.03551 4.13168 0
M  V30 4243 P 746.976 7.20834 5.23717 0
M  V30 4244 O 747.196 7.79853 6.57286 0
M  V30 4245 O 747.766 7.79239 4.12957 0
M  V30 4246 O 747.226 5.63315 5.29344 0
M  V30 4247 C 746.286 4.80255 6.01876 0
M  V30 4248 C 747.016 3.64202 6.65911 0
M  V30 4249 O 747.226 2.60694 5.64732 0
M  V30 4250 C 748.416 3.93473 7.1943 0
M  V30 4251 O 748.806 3.02071 8.21205 0
M  V30 4252 C 749.296 3.73047 5.97036 0
M  V30 4253 C 748.586 2.58828 5.25741 0
M  V30 4254 N 748.636 2.68068 3.77503 0
M  V30 4255 H 745.797 5.40332 6.79951 0
M  V30 4256 H 745.527 4.41613 5.32378 0
M  V30 4257 H 746.394 3.26331 7.47797 0
M  V30 4258 P 750.356 2.75334 8.47391 0
M  V30 4259 O 750.576 2.44571 9.90142 0
M  V30 4260 O 751.146 3.87688 7.92115 0
M  V30 4261 O 750.606 1.4459 7.59357 0
M  V30 4262 C 749.666 0.347608 7.69215 0
M  V30 4263 C 750.396 -0.96767 7.52806 0
M  V30 4264 O 750.606 -1.21036 6.1011 0
M  V30 4265 C 751.796 -1.04544 8.13308 0
M  V30 4266 O 752.186 -2.38311 8.41922 0
M  V30 4267 C 752.676 -0.491279 7.02284 0
M  V30 4268 C 751.966 -0.996264 5.77469 0
M  V30 4269 N 752.016 -0.0501916 4.62973 0
M  V30 4270 C 751.936 1.32786 4.63244 0
M  V30 4271 N 752.016 1.86957 3.44545 0
M  V30 4272 C 752.156 0.780241 2.58481 0
M  V30 4273 C 752.286 0.738536 1.17757 0
M  V30 4274 O 752.306 1.66794 0.372349 0
M  V30 4275 N 752.406 -0.58337 0.711393 0
M  V30 4276 C 752.406 -1.70816 1.51017 0
M  V30 4277 N 752.536 -2.87826 0.880757 0
M  V30 4278 N 752.276 -1.67126 2.8339 0
M  V30 4279 C 752.156 -0.401421 3.30572 0
M  V30 4280 H 749.177 0.374722 8.67691 0
M  V30 4281 H 748.907 0.443485 6.90277 0
M  V30 4282 H 749.774 -1.75537 7.96793 0
M  V30 4283 H 752.429 -1.95076 5.46529 0
M  V30 4284 H 752.708 0.608565 7.04577 0
M  V30 4285 H 753.7 -0.889672 7.08939 0
M  V30 4286 H 751.866 -0.43308 9.04564 0
M  V30 4287 H 751.817 1.91249 5.54442 0
M  V30 4288 H 752.499 -0.718054 -0.275244 0
M  V30 4289 H 752.536 -3.75721 1.41832 0
M  V30 4290 H 752.637 -2.90436 -0.145468 0
M  V30 4291 P 753.736 -2.75334 8.47391 0
M  V30 4292 O 753.956 -3.84128 9.44797 0
M  V30 4293 O 754.526 -1.51947 8.68712 0
M  V30 4294 O 753.986 -3.29363 6.99321 0
M  V30 4295 C 753.046 -4.24011 6.4274 0
M  V30 4296 C 753.776 -5.20775 5.52155 0
M  V30 4297 O 753.986 -4.56534 4.22446 0
M  V30 4298 C 755.176 -5.62629 5.96531 0
M  V30 4299 O 755.566 -6.87667 5.41053 0
M  V30 4300 C 756.056 -4.52537 5.39283 0
M  V30 4301 C 755.346 -4.20027 4.08623 0
M  V30 4302 N 755.396 -2.76189 3.71603 0
M  V30 4303 H 752.557 -4.797 7.24003 0
M  V30 4304 H 752.287 -3.69856 5.84513 0
M  V30 4305 H 753.154 -6.10356 5.41441 0
M  V30 4306 P 757.116 -7.20834 5.23717 0
M  V30 4307 O 757.336 -8.66104 5.38572 0
M  V30 4308 O 757.906 -6.33544 6.1349 0
M  V30 4309 O 757.366 -6.7751 3.72168 0
M  V30 4310 C 756.426 -7.20825 2.7076 0
M  V30 4311 C 757.156 -7.45864 1.40599 0
M  V30 4312 O 757.366 -6.17651 0.734225 0
M  V30 4313 C 758.556 -8.05808 1.51899 0
M  V30 4314 O 758.946 -8.74358 0.335205 0
M  V30 4315 C 759.436 -6.83093 1.70294 0
M  V30 4316 C 758.726 -5.79992 0.836974 0
M  V30 4317 N 758.776 -4.41864 1.38293 0
M  V30 4318 H 755.937 -8.13644 3.0377 0
M  V30 4319 H 755.667 -6.42788 2.55485 0
M  V30 4320 H 756.534 -8.12039 0.792769 0
M  V30 4321 P 760.496 -8.91 -5.30054e-12 0
M  V30 4322 O 760.716 -10.1726 -0.733694 0
M  V30 4323 O 761.286 -8.73148 1.23936 0
M  V30 4324 O 760.746 -7.66872 -0.971405 0
M  V30 4325 C 759.806 -7.42309 -2.04641 0
M  V30 4326 C 760.536 -6.86059 -3.24661 0
M  V30 4327 O 760.746 -5.42847 -3.03646 0
M  V30 4328 C 761.936 -7.41196 -3.50753 0
M  V30 4329 O 762.326 -7.27073 -4.86816 0
M  V30 4330 C 762.816 -6.5273 -2.63741 0
M  V30 4331 C 762.106 -5.1842 -2.73198 0
M  V30 4332 N 762.156 -4.38762 -1.4784 0
M  V30 4333 H 759.317 -8.36803 -2.32493 0
M  V30 4334 H 759.047 -6.70197 -1.71129 0
M  V30 4335 H 759.914 -7.03551 -4.13168 0
M  V30 4336 P 763.875 -7.20834 -5.23717 0
M  V30 4337 O 764.095 -7.79853 -6.57286 0
M  V30 4338 O 764.665 -7.79239 -4.12957 0
M  V30 4339 O 764.125 -5.63315 -5.29344 0
M  V30 4340 C 763.185 -4.80255 -6.01876 0
M  V30 4341 C 763.915 -3.64202 -6.65911 0
M  V30 4342 O 764.125 -2.60694 -5.64732 0
M  V30 4343 C 765.315 -3.93473 -7.1943 0
M  V30 4344 O 765.705 -3.02071 -8.21205 0
M  V30 4345 C 766.195 -3.73047 -5.97036 0
M  V30 4346 C 765.485 -2.58828 -5.25741 0
M  V30 4347 N 765.535 -2.68068 -3.77503 0
M  V30 4348 H 762.696 -5.40332 -6.79951 0
M  V30 4349 H 762.426 -4.41613 -5.32378 0
M  V30 4350 H 763.293 -3.26331 -7.47797 0
M  V30 4351 P 767.255 -2.75334 -8.47391 0
M  V30 4352 O 767.475 -2.44571 -9.90142 0
M  V30 4353 O 768.045 -3.87688 -7.92115 0
M  V30 4354 O 767.505 -1.4459 -7.59357 0
M  V30 4355 C 766.565 -0.347608 -7.69215 0
M  V30 4356 C 767.295 0.96767 -7.52806 0
M  V30 4357 O 767.505 1.21036 -6.1011 0
M  V30 4358 C 768.695 1.04544 -8.13308 0
M  V30 4359 O 769.085 2.38311 -8.41922 0
M  V30 4360 C 769.575 0.491279 -7.02284 0
M  V30 4361 C 768.865 0.996264 -5.77469 0
M  V30 4362 N 768.915 0.0501916 -4.62973 0
M  V30 4363 H 766.076 -0.374722 -8.67691 0
M  V30 4364 H 765.806 -0.443485 -6.90277 0
M  V30 4365 H 766.673 1.75537 -7.96793 0
M  V30 4366 P 770.635 2.75334 -8.47391 0
M  V30 4367 O 770.855 3.84128 -9.44797 0
M  V30 4368 O 771.425 1.51947 -8.68712 0
M  V30 4369 O 770.885 3.29363 -6.99321 0
M  V30 4370 C 769.945 4.24011 -6.4274 0
M  V30 4371 C 770.675 5.20775 -5.52155 0
M  V30 4372 O 770.885 4.56534 -4.22446 0
M  V30 4373 C 772.075 5.62629 -5.96531 0
M  V30 4374 O 772.465 6.87667 -5.41053 0
M  V30 4375 C 772.955 4.52537 -5.39283 0
M  V30 4376 C 772.245 4.20027 -4.08623 0
M  V30 4377 N 772.295 2.76189 -3.71603 0
M  V30 4378 H 769.456 4.797 -7.24003 0
M  V30 4379 H 769.186 3.69856 -5.84513 0
M  V30 4380 H 770.053 6.10356 -5.41441 0
M  V30 4381 P 774.015 7.20834 -5.23717 0
M  V30 4382 O 774.235 8.66104 -5.38572 0
M  V30 4383 O 774.805 6.33544 -6.1349 0
M  V30 4384 O 774.265 6.7751 -3.72168 0
M  V30 4385 C 773.325 7.20825 -2.7076 0
M  V30 4386 C 774.055 7.45864 -1.40599 0
M  V30 4387 O 774.265 6.17651 -0.734225 0
M  V30 4388 C 775.455 8.05808 -1.51899 0
M  V30 4389 O 775.845 8.74358 -0.335205 0
M  V30 4390 C 776.335 6.83093 -1.70294 0
M  V30 4391 C 775.625 5.79992 -0.836974 0
M  V30 4392 N 775.675 4.41864 -1.38293 0
M  V30 4393 H 772.836 8.13644 -3.0377 0
M  V30 4394 H 772.566 6.42788 -2.55485 0
M  V30 4395 H 773.433 8.12039 -0.792769 0
M  V30 4396 P 777.395 8.91 5.45772e-12 0
M  V30 4397 O 777.615 10.1726 0.733694 0
M  V30 4398 O 778.185 8.73148 -1.23936 0
M  V30 4399 O 777.645 7.66872 0.971405 0
M  V30 4400 C 776.705 7.42309 2.04641 0
M  V30 4401 C 777.435 6.86059 3.24661 0
M  V30 4402 O 777.645 5.42847 3.03646 0
M  V30 4403 C 778.835 7.41196 3.50753 0
M  V30 4404 O 779.225 7.27073 4.86816 0
M  V30 4405 C 779.715 6.5273 2.63741 0
M  V30 4406 C 779.005 5.1842 2.73198 0
M  V30 4407 N 779.055 4.38762 1.4784 0
M  V30 4408 H 776.216 8.36803 2.32493 0
M  V30 4409 H 775.946 6.70197 1.71129 0
M  V30 4410 H 776.813 7.03551 4.13168 0
M  V30 4411 P 780.775 7.20834 5.23717 0
M  V30 4412 O 780.995 7.79853 6.57286 0
M  V30 4413 O 781.565 7.79239 4.12957 0
M  V30 4414 O 781.025 5.63315 5.29344 0
M  V30 4415 C 780.085 4.80255 6.01876 0
M  V30 4416 C 780.815 3.64202 6.65911 0
M  V30 4417 O 781.025 2.60694 5.64732 0
M  V30 4418 C 782.215 3.93473 7.1943 0
M  V30 4419 O 782.605 3.02071 8.21205 0
M  V30 4420 C 783.095 3.73047 5.97036 0
M  V30 4421 C 782.385 2.58828 5.25741 0
M  V30 4422 N 782.435 2.68068 3.77503 0
M  V30 4423 C 782.355 3.79715 2.96723 0
M  V30 4424 N 782.435 3.5377 1.68852 0
M  V30 4425 C 782.575 2.15054 1.63254 0
M  V30 4426 C 782.705 1.28964 0.518571 0
M  V30 4427 O 782.725 1.56826 -0.679156 0
M  V30 4428 N 782.825 -0.0538097 0.918425 0
M  V30 4429 C 782.825 -0.494275 2.22578 0
M  V30 4430 N 782.955 -1.81086 2.40434 0
M  V30 4431 N 782.695 0.313645 3.27502 0
M  V30 4432 C 782.575 1.61829 2.91033 0
M  V30 4433 H 779.596 5.40332 6.79951 0
M  V30 4434 H 779.326 4.41613 5.32378 0
M  V30 4435 H 780.193 3.26331 7.47797 0
M  V30 4436 H 782.848 1.63422 5.56814 0
M  V30 4437 H 783.127 4.63374 5.34244 0
M  V30 4438 H 784.119 3.44728 6.25838 0
M  V30 4439 H 782.285 4.96652 7.57263 0
M  V30 4440 H 782.236 4.80617 3.3614 0
M  V30 4441 H 782.918 -0.742702 0.199384 0
M  V30 4442 H 782.955 -2.20598 3.35588 0
M  V30 4443 H 783.056 -2.43518 1.58945 0
M  V30 4444 P 784.155 2.75334 8.47391 0
M  V30 4445 O 784.375 2.44571 9.90142 0
M  V30 4446 O 784.945 3.87688 7.92115 0
M  V30 4447 O 784.405 1.4459 7.59357 0
M  V30 4448 C 783.465 0.347608 7.69215 0
M  V30 4449 C 784.195 -0.96767 7.52806 0
M  V30 4450 O 784.405 -1.21036 6.1011 0
M  V30 4451 C 785.595 -1.04544 8.13308 0
M  V30 4452 O 785.985 -2.38311 8.41922 0
M  V30 4453 C 786.475 -0.491279 7.02284 0
M  V30 4454 C 785.765 -0.996264 5.77469 0
M  V30 4455 N 785.815 -0.0501916 4.62973 0
M  V30 4456 H 782.976 0.374722 8.67691 0
M  V30 4457 H 782.706 0.443485 6.90277 0
M  V30 4458 H 783.573 -1.75537 7.96793 0
M  V30 4459 P 787.535 -2.75334 8.47391 0
M  V30 4460 O 787.755 -3.84128 9.44797 0
M  V30 4461 O 788.325 -1.51947 8.68712 0
M  V30 4462 O 787.785 -3.29363 6.99321 0
M  V30 4463 C 786.845 -4.24011 6.4274 0
M  V30 4464 C 787.575 -5.20775 5.52155 0
M  V30 4465 O 787.785 -4.56534 4.22446 0
M  V30 4466 C 788.975 -5.62629 5.96531 0
M  V30 4467 O 789.365 -6.87667 5.41053 0
M  V30 4468 C 789.855 -4.52537 5.39283 0
M  V30 4469 C 789.145 -4.20027 4.08623 0
M  V30 4470 N 789.195 -2.76189 3.71603 0
M  V30 4471 H 786.356 -4.797 7.24003 0
M  V30 4472 H 786.086 -3.69856 5.84513 0
M  V30 4473 H 786.953 -6.10356 5.41441 0
M  V30 4474 P 790.915 -7.20834 5.23717 0
M  V30 4475 O 791.135 -8.66104 5.38572 0
M  V30 4476 O 791.705 -6.33544 6.1349 0
M  V30 4477 O 791.165 -6.7751 3.72168 0
M  V30 4478 C 790.225 -7.20825 2.7076 0
M  V30 4479 C 790.955 -7.45864 1.40599 0
M  V30 4480 O 791.165 -6.17651 0.734225 0
M  V30 4481 C 792.355 -8.05808 1.51899 0
M  V30 4482 O 792.745 -8.74358 0.335205 0
M  V30 4483 C 793.235 -6.83093 1.70294 0
M  V30 4484 C 792.525 -5.79992 0.836974 0
M  V30 4485 N 792.575 -4.41864 1.38293 0
M  V30 4486 H 789.736 -8.13644 3.0377 0
M  V30 4487 H 789.466 -6.42788 2.55485 0
M  V30 4488 H 790.333 -8.12039 0.792769 0
M  V30 4489 P 794.295 -8.91 -5.6149e-12 0
M  V30 4490 O 794.515 -10.1726 -0.733694 0
M  V30 4491 O 795.085 -8.73148 1.23936 0
M  V30 4492 O 794.545 -7.66872 -0.971405 0
M  V30 4493 C 793.605 -7.42309 -2.04641 0
M  V30 4494 C 794.335 -6.86059 -3.24661 0
M  V30 4495 O 794.545 -5.42847 -3.03646 0
M  V30 4496 C 795.735 -7.41196 -3.50753 0
M  V30 4497 O 796.125 -7.27073 -4.86816 0
M  V30 4498 C 796.615 -6.5273 -2.63741 0
M  V30 4499 C 795.905 -5.1842 -2.73198 0
M  V30 4500 N 795.955 -4.38762 -1.4784 0
M  V30 4501 H 793.116 -8.36803 -2.32493 0
M  V30 4502 H 792.846 -6.70197 -1.71129 0
M  V30 4503 H 793.713 -7.03551 -4.13168 0
M  V30 4504 P 797.675 -7.20834 -5.23717 0
M  V30 4505 O 797.895 -7.79853 -6.57286 0
M  V30 4506 O 798.465 -7.79239 -4.12957 0
M  V30 4507 O 797.925 -5.63315 -5.29344 0
M  V30 4508 C 796.985 -4.80255 -6.01876 0
M  V30 4509 C 797.715 -3.64202 -6.65911 0
M  V30 4510 O 797.925 -2.60694 -5.64732 0
M  V30 4511 C 799.115 -3.93473 -7.1943 0
M  V30 4512 O 799.505 -3.02071 -8.21205 0
M  V30 4513 C 799.995 -3.73047 -5.97036 0
M  V30 4514 C 799.285 -2.58828 -5.25741 0
M  V30 4515 N 799.335 -2.68068 -3.77503 0
M  V30 4516 H 796.496 -5.40332 -6.79951 0
M  V30 4517 H 796.226 -4.41613 -5.32378 0
M  V30 4518 H 797.093 -3.26331 -7.47797 0
M  V30 4519 P 801.055 -2.75334 -8.47391 0
M  V30 4520 O 801.275 -2.44571 -9.90142 0
M  V30 4521 O 801.845 -3.87688 -7.92115 0
M  V30 4522 O 801.305 -1.4459 -7.59357 0
M  V30 4523 C 800.365 -0.347608 -7.69215 0
M  V30 4524 C 801.095 0.96767 -7.52806 0
M  V30 4525 O 801.305 1.21036 -6.1011 0
M  V30 4526 C 802.495 1.04544 -8.13308 0
M  V30 4527 O 802.885 2.38311 -8.41922 0
M  V30 4528 C 803.375 0.491279 -7.02284 0
M  V30 4529 C 802.665 0.996264 -5.77469 0
M  V30 4530 N 802.715 0.0501916 -4.62973 0
M  V30 4531 H 799.876 -0.374722 -8.67691 0
M  V30 4532 H 799.606 -0.443485 -6.90277 0
M  V30 4533 H 800.473 1.75537 -7.96793 0
M  V30 4534 P 804.435 2.75334 -8.47391 0
M  V30 4535 O 804.655 3.84204 -9.44982 0
M  V30 4536 O 805.225 1.51982 -8.68909 0
M  V30 4537 O 804.685 3.29363 -6.99321 0
M  V30 4538 C 803.745 4.24066 -6.42823 0
M  V30 4539 C 804.475 5.20775 -5.52155 0
M  V30 4540 O 804.685 4.56607 -4.22514 0
M  V30 4541 C 805.875 5.62697 -5.96604 0
M  V30 4542 O 806.265 6.87667 -5.41053 0
M  V30 4543 C 806.755 4.52537 -5.39283 0
M  V30 4544 C 806.045 4.20027 -4.08623 0
M  V30 4545 N 806.095 2.76189 -3.71603 0
M  V30 4546 C 806.015 1.66944 -4.54297 0
M  V30 4547 N 806.085 0.536169 -3.91344 0
M  V30 4548 C 806.235 0.901569 -2.58849 0
M  V30 4549 C 806.365 0.146599 -1.40236 0
M  V30 4550 N 806.375 -1.18234 -1.37046 0
M  V30 4551 N 806.485 0.822941 -0.249738 0
M  V30 4552 C 806.475 2.15179 -0.280525 0
M  V30 4553 N 806.355 2.96414 -1.30822 0
M  V30 4554 C 806.235 2.25804 -2.44748 0
M  V30 4555 H 803.257 4.79756 -7.24086 0
M  V30 4556 H 802.985 3.69963 -5.84682 0
M  V30 4557 H 803.853 6.10431 -5.41508 0
M  V30 4558 H 806.508 4.78816 -3.28024 0
M  V30 4559 H 806.788 3.64957 -6.05871 0
M  V30 4560 H 807.779 4.88748 -5.21323 0
M  V30 4561 H 805.945 5.66789 -7.0643 0
M  V30 4562 H 805.904 1.74684 -5.62396 0
M  V30 4563 H 806.285 -1.71949 -2.24394 0
M  V30 4564 H 806.474 -1.67511 -0.470742 0
M  V30 4565 H 806.582 2.63704 0.6828 0
M  V30 4566 P 807.815 7.20834 -5.23717 0
M  V30 4567 O 808.035 8.66104 -5.38572 0
M  V30 4568 O 808.605 6.33544 -6.1349 0
M  V30 4569 O 808.065 6.7751 -3.72168 0
M  V30 4570 C 807.125 7.20825 -2.7076 0
M  V30 4571 C 807.855 7.45864 -1.40599 0
M  V30 4572 O 808.065 6.17651 -0.734225 0
M  V30 4573 C 809.255 8.05808 -1.51899 0
M  V30 4574 O 809.645 8.74358 -0.335205 0
M  V30 4575 C 810.135 6.83093 -1.70294 0
M  V30 4576 C 809.425 5.79992 -0.836974 0
M  V30 4577 N 809.475 4.41864 -1.38293 0
M  V30 4578 H 806.636 8.13644 -3.0377 0
M  V30 4579 H 806.366 6.42788 -2.55485 0
M  V30 4580 H 807.233 8.12039 -0.792769 0
M  V30 4581 P 811.195 8.91 5.77209e-12 0
M  V30 4582 O 811.415 10.1726 0.733694 0
M  V30 4583 O 811.985 8.73148 -1.23936 0
M  V30 4584 O 811.445 7.66872 0.971405 0
M  V30 4585 C 810.505 7.42309 2.04641 0
M  V30 4586 C 811.235 6.86059 3.24661 0
M  V30 4587 O 811.445 5.42847 3.03646 0
M  V30 4588 C 812.635 7.41196 3.50753 0
M  V30 4589 O 813.025 7.27073 4.86816 0
M  V30 4590 C 813.515 6.5273 2.63741 0
M  V30 4591 C 812.805 5.1842 2.73198 0
M  V30 4592 N 812.855 4.38762 1.4784 0
M  V30 4593 H 810.016 8.36803 2.32493 0
M  V30 4594 H 809.746 6.70197 1.71129 0
M  V30 4595 H 810.613 7.03551 4.13168 0
M  V30 4596 P 814.575 7.20834 5.23717 0
M  V30 4597 O 814.795 7.79853 6.57286 0
M  V30 4598 O 815.365 7.79239 4.12957 0
M  V30 4599 O 814.825 5.63315 5.29344 0
M  V30 4600 C 813.885 4.80255 6.01876 0
M  V30 4601 C 814.615 3.64202 6.65911 0
M  V30 4602 O 814.825 2.60694 5.64732 0
M  V30 4603 C 816.015 3.93473 7.1943 0
M  V30 4604 O 816.405 3.02071 8.21205 0
M  V30 4605 C 816.895 3.73047 5.97036 0
M  V30 4606 C 816.185 2.58828 5.25741 0
M  V30 4607 N 816.235 2.68068 3.77503 0
M  V30 4608 H 813.396 5.40332 6.79951 0
M  V30 4609 H 813.126 4.41613 5.32378 0
M  V30 4610 H 813.993 3.26331 7.47797 0
M  V30 4611 P 817.955 2.75334 8.47391 0
M  V30 4612 O 818.175 2.44571 9.90142 0
M  V30 4613 O 818.745 3.87688 7.92115 0
M  V30 4614 O 818.205 1.4459 7.59357 0
M  V30 4615 C 817.265 0.347608 7.69215 0
M  V30 4616 C 817.995 -0.96767 7.52806 0
M  V30 4617 O 818.205 -1.21036 6.1011 0
M  V30 4618 C 819.395 -1.04544 8.13308 0
M  V30 4619 O 819.785 -2.38311 8.41922 0
M  V30 4620 C 820.275 -0.491279 7.02284 0
M  V30 4621 C 819.565 -0.996264 5.77469 0
M  V30 4622 N 819.615 -0.0501916 4.62973 0
M  V30 4623 H 816.776 0.374722 8.67691 0
M  V30 4624 H 816.506 0.443485 6.90277 0
M  V30 4625 H 817.373 -1.75537 7.96793 0
M  V30 4626 P 821.335 -2.75334 8.47391 0
M  V30 4627 O 821.555 -3.84128 9.44797 0
M  V30 4628 O 822.125 -1.51947 8.68712 0
M  V30 4629 O 821.585 -3.29363 6.99321 0
M  V30 4630 C 820.645 -4.24011 6.4274 0
M  V30 4631 C 821.375 -5.20775 5.52155 0
M  V30 4632 O 821.585 -4.56534 4.22446 0
M  V30 4633 C 822.775 -5.62629 5.96531 0
M  V30 4634 O 823.165 -6.87667 5.41053 0
M  V30 4635 C 823.655 -4.52537 5.39283 0
M  V30 4636 C 822.945 -4.20027 4.08623 0
M  V30 4637 N 822.995 -2.76189 3.71603 0
M  V30 4638 H 820.156 -4.797 7.24003 0
M  V30 4639 H 819.886 -3.69856 5.84513 0
M  V30 4640 H 820.753 -6.10356 5.41441 0
M  V30 4641 P 824.715 -7.20834 5.23717 0
M  V30 4642 O 824.935 -8.66104 5.38572 0
M  V30 4643 O 825.505 -6.33544 6.1349 0
M  V30 4644 O 824.965 -6.7751 3.72168 0
M  V30 4645 C 824.025 -7.20825 2.7076 0
M  V30 4646 C 824.755 -7.45864 1.40599 0
M  V30 4647 O 824.965 -6.17651 0.734225 0
M  V30 4648 C 826.155 -8.05808 1.51899 0
M  V30 4649 O 826.545 -8.74358 0.335205 0
M  V30 4650 C 827.035 -6.83093 1.70294 0
M  V30 4651 C 826.325 -5.79992 0.836974 0
M  V30 4652 N 826.375 -4.41864 1.38293 0
M  V30 4653 C 826.295 -3.99538 2.69438 0
M  V30 4654 N 826.375 -2.69909 2.84277 0
M  V30 4655 C 826.515 -2.21719 1.5408 0
M  V30 4656 C 826.645 -0.891712 1.06628 0
M  V30 4657 N 826.765 -0.856846 -0.334985 0
M  V30 4658 C 826.765 -1.9641 -1.15789 0
M  V30 4659 N 826.895 -1.72708 -2.46522 0
M  V30 4660 N 826.635 -3.21165 -0.713741 0
M  V30 4661 C 826.515 -3.26797 0.639748 0
M  V30 4662 H 823.536 -8.13644 3.0377 0
M  V30 4663 H 823.266 -6.42788 2.55485 0
M  V30 4664 H 824.133 -8.12039 0.792769 0
M  V30 4665 P 828.095 -8.91 -5.92927e-12 0
M  V30 4666 O 828.315 -10.1736 -0.733766 0
M  V30 4667 O 828.885 -8.73247 1.2395 0
M  V30 4668 O 828.345 -7.66872 -0.971405 0
M  V30 4669 C 827.405 -7.42212 -2.04614 0
M  V30 4670 C 828.135 -6.86059 -3.24661 0
M  V30 4671 O 828.345 -5.42847 -3.03646 0
M  V30 4672 C 829.535 -7.41196 -3.50753 0
M  V30 4673 O 829.925 -7.27073 -4.86816 0
M  V30 4674 C 830.415 -6.5273 -2.63741 0
M  V30 4675 C 829.705 -5.1842 -2.73198 0
M  V30 4676 N 829.755 -4.38668 -1.47808 0
M  V30 4677 C 829.905 -3.02239 -1.60048 0
M  V30 4678 O 829.995 -2.46459 -2.67869 0
M  V30 4679 N 829.945 -2.32436 -0.408571 0
M  V30 4680 C 829.855 -2.85471 0.854993 0
M  V30 4681 C 829.705 -4.28918 0.887335 0
M  V30 4682 C 829.655 -5.00349 -0.255399 0
M  V30 4683 H 826.915 -8.36803 -2.32493 0
M  V30 4684 H 826.646 -6.701 -1.71105 0
M  V30 4685 H 827.513 -7.03551 -4.13168 0
M  V30 4686 H 830.168 -4.59773 -3.53894 0
M  V30 4687 H 830.447 -6.88995 -1.59871 0
M  V30 4688 H 831.439 -6.46749 -3.03687 0
M  V30 4689 H 829.605 -8.46908 -3.20714 0
M  V30 4690 H 829.534 -6.08548 -0.206986 0
M  V30 4691 P 831.475 -7.20834 -5.23717 0
M  V30 4692 O 831.695 -7.79853 -6.57286 0
M  V30 4693 O 832.265 -7.79239 -4.12957 0
M  V30 4694 O 831.725 -5.63315 -5.29344 0
M  V30 4695 C 830.785 -4.80255 -6.01876 0
M  V30 4696 C 831.515 -3.64202 -6.65911 0
M  V30 4697 O 831.725 -2.60694 -5.64732 0
M  V30 4698 C 832.915 -3.93473 -7.1943 0
M  V30 4699 O 833.305 -3.02071 -8.21205 0
M  V30 4700 C 833.795 -3.73047 -5.97036 0
M  V30 4701 C 833.085 -2.58828 -5.25741 0
M  V30 4702 N 833.135 -2.68068 -3.77503 0
M  V30 4703 H 830.296 -5.40332 -6.79951 0
M  V30 4704 H 830.026 -4.41613 -5.32378 0
M  V30 4705 H 830.893 -3.26331 -7.47797 0
M  V30 4706 P 834.855 -2.75334 -8.47391 0
M  V30 4707 O 835.075 -2.44571 -9.90142 0
M  V30 4708 O 835.645 -3.87688 -7.92115 0
M  V30 4709 O 835.105 -1.4459 -7.59357 0
M  V30 4710 C 834.165 -0.347608 -7.69215 0
M  V30 4711 C 834.895 0.96767 -7.52806 0
M  V30 4712 O 835.105 1.21036 -6.1011 0
M  V30 4713 C 836.295 1.04544 -8.13308 0
M  V30 4714 O 836.685 2.38311 -8.41922 0
M  V30 4715 C 837.175 0.491279 -7.02284 0
M  V30 4716 C 836.465 0.996264 -5.77469 0
M  V30 4717 N 836.515 0.0501916 -4.62973 0
M  V30 4718 H 833.676 -0.374722 -8.67691 0
M  V30 4719 H 833.406 -0.443485 -6.90277 0
M  V30 4720 H 834.273 1.75537 -7.96793 0
M  V30 4721 P 838.235 2.75334 -8.47391 0
M  V30 4722 O 838.455 3.84128 -9.44797 0
M  V30 4723 O 839.025 1.51947 -8.68712 0
M  V30 4724 O 838.485 3.29363 -6.99321 0
M  V30 4725 C 837.545 4.24011 -6.4274 0
M  V30 4726 C 838.275 5.20775 -5.52155 0
M  V30 4727 O 838.485 4.56534 -4.22446 0
M  V30 4728 C 839.675 5.62629 -5.96531 0
M  V30 4729 O 840.065 6.87667 -5.41053 0
M  V30 4730 C 840.555 4.52537 -5.39283 0
M  V30 4731 C 839.845 4.20027 -4.08623 0
M  V30 4732 N 839.895 2.76189 -3.71603 0
M  V30 4733 H 837.056 4.797 -7.24003 0
M  V30 4734 H 836.786 3.69856 -5.84513 0
M  V30 4735 H 837.653 6.10356 -5.41441 0
M  V30 4736 P 841.615 7.20834 -5.23717 0
M  V30 4737 O 841.835 8.66104 -5.38572 0
M  V30 4738 O 842.405 6.33544 -6.1349 0
M  V30 4739 O 841.865 6.7751 -3.72168 0
M  V30 4740 C 840.925 7.20825 -2.7076 0
M  V30 4741 C 841.655 7.45864 -1.40599 0
M  V30 4742 O 841.865 6.17651 -0.734225 0
M  V30 4743 C 843.055 8.05808 -1.51899 0
M  V30 4744 O 843.445 8.74358 -0.335205 0
M  V30 4745 C 843.935 6.83093 -1.70294 0
M  V30 4746 C 843.225 5.79992 -0.836974 0
M  V30 4747 N 843.275 4.41864 -1.38293 0
M  V30 4748 H 840.436 8.13644 -3.0377 0
M  V30 4749 H 840.166 6.42788 -2.55485 0
M  V30 4750 H 841.033 8.12039 -0.792769 0
M  V30 4751 P 844.995 8.91 6.08645e-12 0
M  V30 4752 O 845.215 10.1726 0.733694 0
M  V30 4753 O 845.785 8.73148 -1.23936 0
M  V30 4754 O 845.245 7.66872 0.971405 0
M  V30 4755 C 844.305 7.42309 2.04641 0
M  V30 4756 C 845.035 6.86059 3.24661 0
M  V30 4757 O 845.245 5.42847 3.03646 0
M  V30 4758 C 846.435 7.41196 3.50753 0
M  V30 4759 O 846.825 7.27073 4.86816 0
M  V30 4760 C 847.315 6.5273 2.63741 0
M  V30 4761 C 846.605 5.1842 2.73198 0
M  V30 4762 N 846.655 4.38762 1.4784 0
M  V30 4763 H 843.816 8.36803 2.32493 0
M  V30 4764 H 843.546 6.70197 1.71129 0
M  V30 4765 H 844.413 7.03551 4.13168 0
M  V30 4766 P 848.375 7.20834 5.23717 0
M  V30 4767 O 848.595 7.79853 6.57286 0
M  V30 4768 O 849.165 7.79239 4.12957 0
M  V30 4769 O 848.625 5.63315 5.29344 0
M  V30 4770 C 847.685 4.80255 6.01876 0
M  V30 4771 C 848.415 3.64202 6.65911 0
M  V30 4772 O 848.625 2.60694 5.64732 0
M  V30 4773 C 849.815 3.93473 7.1943 0
M  V30 4774 O 850.205 3.02071 8.21205 0
M  V30 4775 C 850.695 3.73047 5.97036 0
M  V30 4776 C 849.985 2.58828 5.25741 0
M  V30 4777 N 850.035 2.68068 3.77503 0
M  V30 4778 H 847.196 5.40332 6.79951 0
M  V30 4779 H 846.926 4.41613 5.32378 0
M  V30 4780 H 847.793 3.26331 7.47797 0
M  V30 4781 P 851.755 2.75334 8.47391 0
M  V30 4782 O 851.975 2.44595 9.90239 0
M  V30 4783 O 852.545 3.87732 7.92204 0
M  V30 4784 O 852.005 1.4459 7.59357 0
M  V30 4785 C 851.065 0.347563 7.69115 0
M  V30 4786 C 851.795 -0.96767 7.52806 0
M  V30 4787 O 852.005 -1.21036 6.1011 0
M  V30 4788 C 853.195 -1.04544 8.13308 0
M  V30 4789 O 853.585 -2.38311 8.41922 0
M  V30 4790 C 854.075 -0.491279 7.02284 0
M  V30 4791 C 853.365 -0.996264 5.77469 0
M  V30 4792 N 853.415 -0.0501808 4.62873 0
M  V30 4793 C 853.565 -0.588177 3.36904 0
M  V30 4794 O 853.655 -1.78598 3.17173 0
M  V30 4795 N 853.605 0.329694 2.33686 0
M  V30 4796 C 853.515 1.6953 2.45079 0
M  V30 4797 O 853.565 2.41926 1.44899 0
M  V30 4798 C 853.365 2.16933 3.80505 0
M  V30 4799 C 853.255 3.65373 3.97621 0
M  V30 4800 C 853.315 1.30326 4.83752 0
M  V30 4801 H 850.575 0.374722 8.67691 0
M  V30 4802 H 850.306 0.443421 6.90177 0
M  V30 4803 H 851.173 -1.75537 7.96793 0
M  V30 4804 H 853.828 -1.94496 5.46629 0
M  V30 4805 H 854.107 0.608651 7.04676 0
M  V30 4806 H 855.099 -0.889672 7.08939 0
M  V30 4807 H 853.265 -0.43308 9.04564 0
M  V30 4808 H 853.194 1.68366 5.8516 0
M  V30 4809 H 854.224 4.05985 4.30448 0
M  V30 4810 H 852.487 3.88028 4.72875 0
M  V30 4811 H 852.975 4.11381 3.01609 0
M  V30 4812 H 853.711 -0.0393617 1.41345 0
M  V30 4813 P 855.135 -2.75334 8.47391 0
M  V30 4814 O 855.355 -3.84128 9.44797 0
M  V30 4815 O 855.925 -1.51947 8.68712 0
M  V30 4816 O 855.385 -3.29363 6.99321 0
M  V30 4817 C 854.445 -4.24011 6.4274 0
M  V30 4818 C 855.175 -5.20775 5.52155 0
M  V30 4819 O 855.385 -4.56534 4.22446 0
M  V30 4820 C 856.575 -5.62629 5.96531 0
M  V30 4821 O 856.965 -6.87667 5.41053 0
M  V30 4822 C 857.455 -4.52537 5.39283 0
M  V30 4823 C 856.745 -4.20027 4.08623 0
M  V30 4824 N 856.795 -2.76189 3.71603 0
M  V30 4825 H 853.956 -4.797 7.24003 0
M  V30 4826 H 853.686 -3.69856 5.84513 0
M  V30 4827 H 854.553 -6.10356 5.41441 0
M  V30 4828 P 858.515 -7.20834 5.23717 0
M  V30 4829 O 858.735 -8.66104 5.38572 0
M  V30 4830 O 859.305 -6.33544 6.1349 0
M  V30 4831 O 858.765 -6.7751 3.72168 0
M  V30 4832 C 857.825 -7.20825 2.7076 0
M  V30 4833 C 858.555 -7.45864 1.40599 0
M  V30 4834 O 858.765 -6.17651 0.734225 0
M  V30 4835 C 859.955 -8.05808 1.51899 0
M  V30 4836 O 860.345 -8.74358 0.335205 0
M  V30 4837 C 860.835 -6.83093 1.70294 0
M  V30 4838 C 860.125 -5.79992 0.836974 0
M  V30 4839 N 860.175 -4.41864 1.38293 0
M  V30 4840 H 857.336 -8.13644 3.0377 0
M  V30 4841 H 857.066 -6.42788 2.55485 0
M  V30 4842 H 857.933 -8.12039 0.792769 0
M  V30 4843 P 861.895 -8.91 -6.24363e-12 0
M  V30 4844 O 862.115 -10.1726 -0.733694 0
M  V30 4845 O 862.685 -8.73148 1.23936 0
M  V30 4846 O 862.145 -7.66872 -0.971405 0
M  V30 4847 C 861.205 -7.42309 -2.04641 0
M  V30 4848 C 861.935 -6.86059 -3.24661 0
M  V30 4849 O 862.145 -5.42847 -3.03646 0
M  V30 4850 C 863.335 -7.41196 -3.50753 0
M  V30 4851 O 863.725 -7.27073 -4.86816 0
M  V30 4852 C 864.215 -6.5273 -2.63741 0
M  V30 4853 C 863.505 -5.1842 -2.73198 0
M  V30 4854 N 863.555 -4.38762 -1.4784 0
M  V30 4855 H 860.716 -8.36803 -2.32493 0
M  V30 4856 H 860.446 -6.70197 -1.71129 0
M  V30 4857 H 861.313 -7.03551 -4.13168 0
M  V30 4858 P 865.275 -7.20834 -5.23717 0
M  V30 4859 O 865.495 -7.79853 -6.57286 0
M  V30 4860 O 866.065 -7.79239 -4.12957 0
M  V30 4861 O 865.525 -5.63315 -5.29344 0
M  V30 4862 C 864.585 -4.80255 -6.01876 0
M  V30 4863 C 865.315 -3.64202 -6.65911 0
M  V30 4864 O 865.525 -2.60694 -5.64732 0
M  V30 4865 C 866.715 -3.93473 -7.1943 0
M  V30 4866 O 867.105 -3.02071 -8.21205 0
M  V30 4867 C 867.595 -3.73047 -5.97036 0
M  V30 4868 C 866.885 -2.58828 -5.25741 0
M  V30 4869 N 866.935 -2.68068 -3.77503 0
M  V30 4870 C 866.855 -3.79715 -2.96723 0
M  V30 4871 N 866.935 -3.5377 -1.68852 0
M  V30 4872 C 867.075 -2.15054 -1.63254 0
M  V30 4873 C 867.205 -1.28964 -0.518571 0
M  V30 4874 O 867.225 -1.56826 0.679156 0
M  V30 4875 N 867.325 0.0538097 -0.918425 0
M  V30 4876 C 867.325 0.494275 -2.22578 0
M  V30 4877 N 867.455 1.81086 -2.40434 0
M  V30 4878 N 867.195 -0.313645 -3.27502 0
M  V30 4879 C 867.075 -1.61829 -2.91033 0
M  V30 4880 H 864.096 -5.40332 -6.79951 0
M  V30 4881 H 863.826 -4.41613 -5.32378 0
M  V30 4882 H 864.693 -3.26331 -7.47797 0
M  V30 4883 H 867.348 -1.63422 -5.56814 0
M  V30 4884 H 867.627 -4.63374 -5.34244 0
M  V30 4885 H 868.619 -3.44728 -6.25838 0
M  V30 4886 H 866.785 -4.96652 -7.57263 0
M  V30 4887 H 866.736 -4.80617 -3.3614 0
M  V30 4888 H 867.418 0.742702 -0.199384 0
M  V30 4889 H 867.455 2.20598 -3.35588 0
M  V30 4890 H 867.556 2.43518 -1.58945 0
M  V30 4891 P 868.655 -2.75334 -8.47391 0
M  V30 4892 O 868.875 -2.44571 -9.90142 0
M  V30 4893 O 869.445 -3.87688 -7.92115 0
M  V30 4894 O 868.905 -1.4459 -7.59357 0
M  V30 4895 C 867.965 -0.347608 -7.69215 0
M  V30 4896 C 868.695 0.96767 -7.52806 0
M  V30 4897 O 868.905 1.21036 -6.1011 0
M  V30 4898 C 870.095 1.04544 -8.13308 0
M  V30 4899 O 870.485 2.38311 -8.41922 0
M  V30 4900 C 870.975 0.491279 -7.02284 0
M  V30 4901 C 870.265 0.996264 -5.77469 0
M  V30 4902 N 870.315 0.0501916 -4.62973 0
M  V30 4903 H 867.476 -0.374722 -8.67691 0
M  V30 4904 H 867.206 -0.443485 -6.90277 0
M  V30 4905 H 868.073 1.75537 -7.96793 0
M  V30 4906 P 872.035 2.75334 -8.47391 0
M  V30 4907 O 872.255 3.84128 -9.44797 0
M  V30 4908 O 872.825 1.51947 -8.68712 0
M  V30 4909 O 872.285 3.29363 -6.99321 0
M  V30 4910 C 871.345 4.24011 -6.4274 0
M  V30 4911 C 872.075 5.20775 -5.52155 0
M  V30 4912 O 872.285 4.56534 -4.22446 0
M  V30 4913 C 873.475 5.62629 -5.96531 0
M  V30 4914 O 873.865 6.87667 -5.41053 0
M  V30 4915 C 874.355 4.52537 -5.39283 0
M  V30 4916 C 873.645 4.20027 -4.08623 0
M  V30 4917 N 873.695 2.76189 -3.71603 0
M  V30 4918 C 873.615 1.64862 -4.52822 0
M  V30 4919 N 873.695 0.512671 -3.88633 0
M  V30 4920 C 873.835 0.888083 -2.54977 0
M  V30 4921 C 873.965 0.094668 -1.38677 0
M  V30 4922 O 873.985 -1.13053 -1.28163 0
M  V30 4923 N 874.085 0.890102 -0.232633 0
M  V30 4924 C 874.085 2.26958 -0.21772 0
M  V30 4925 N 874.215 2.84626 0.97925 0
M  V30 4926 N 873.955 3.0178 -1.31033 0
M  V30 4927 C 873.835 2.26781 -2.43843 0
M  V30 4928 H 870.856 4.797 -7.24003 0
M  V30 4929 H 870.586 3.69856 -5.84513 0
M  V30 4930 H 871.453 6.10356 -5.41441 0
M  V30 4931 H 874.108 4.79061 -3.27488 0
M  V30 4932 H 874.387 3.64906 -6.05785 0
M  V30 4933 H 875.379 4.8868 -5.2125 0
M  V30 4934 H 873.545 5.66726 -7.06352 0
M  V30 4935 H 873.496 1.71169 -5.60966 0
M  V30 4936 H 874.178 0.419134 0.644739 0
M  V30 4937 H 874.215 3.87332 1.06098 0
M  V30 4938 H 874.316 2.26417 1.82483 0
M  V30 4939 P 875.415 7.20834 -5.23717 0
M  V30 4940 O 875.635 8.66104 -5.38572 0
M  V30 4941 O 876.205 6.33544 -6.1349 0
M  V30 4942 O 875.665 6.7751 -3.72168 0
M  V30 4943 C 874.725 7.20825 -2.7076 0
M  V30 4944 C 875.455 7.45864 -1.40599 0
M  V30 4945 O 875.665 6.17651 -0.734225 0
M  V30 4946 C 876.855 8.05808 -1.51899 0
M  V30 4947 O 877.245 8.74358 -0.335205 0
M  V30 4948 C 877.735 6.83093 -1.70294 0
M  V30 4949 C 877.025 5.79992 -0.836974 0
M  V30 4950 N 877.075 4.41864 -1.38293 0
M  V30 4951 H 874.236 8.13644 -3.0377 0
M  V30 4952 H 873.966 6.42788 -2.55485 0
M  V30 4953 H 874.833 8.12039 -0.792769 0
M  V30 4954 P 878.795 8.91 6.40081e-12 0
M  V30 4955 O 879.015 10.1726 0.733694 0
M  V30 4956 O 879.585 8.73148 -1.23936 0
M  V30 4957 O 879.045 7.66872 0.971405 0
M  V30 4958 C 878.105 7.42309 2.04641 0
M  V30 4959 C 878.835 6.86059 3.24661 0
M  V30 4960 O 879.045 5.42847 3.03646 0
M  V30 4961 C 880.235 7.41196 3.50753 0
M  V30 4962 O 880.625 7.27073 4.86816 0
M  V30 4963 C 881.115 6.5273 2.63741 0
M  V30 4964 C 880.405 5.1842 2.73198 0
M  V30 4965 N 880.455 4.38762 1.4784 0
M  V30 4966 H 877.616 8.36803 2.32493 0
M  V30 4967 H 877.346 6.70197 1.71129 0
M  V30 4968 H 878.213 7.03551 4.13168 0
M  V30 4969 P 882.175 7.20834 5.23717 0
M  V30 4970 O 882.395 7.7993 6.57351 0
M  V30 4971 O 882.965 7.79328 4.13004 0
M  V30 4972 O 882.425 5.63315 5.29344 0
M  V30 4973 C 881.485 4.80193 6.01798 0
M  V30 4974 C 882.215 3.64202 6.65911 0
M  V30 4975 O 882.425 2.60694 5.64732 0
M  V30 4976 C 883.615 3.93473 7.1943 0
M  V30 4977 O 884.005 3.02071 8.21205 0
M  V30 4978 C 884.495 3.73047 5.97036 0
M  V30 4979 C 883.785 2.58828 5.25741 0
M  V30 4980 N 883.835 2.6801 3.77422 0
M  V30 4981 C 883.985 1.50443 3.07133 0
M  V30 4982 O 884.075 0.419406 3.61576 0
M  V30 4983 N 884.025 1.6403 1.69677 0
M  V30 4984 C 883.935 2.81206 0.986255 0
M  V30 4985 O 883.985 2.80892 -0.249754 0
M  V30 4986 C 883.785 3.99158 1.80325 0
M  V30 4987 C 883.675 5.29309 1.06921 0
M  V30 4988 C 883.735 3.89779 3.1476 0
M  V30 4989 H 880.995 5.40332 6.79951 0
M  V30 4990 H 880.726 4.41549 5.32301 0
M  V30 4991 H 881.593 3.26331 7.47797 0
M  V30 4992 H 884.248 1.6395 5.56554 0
M  V30 4993 H 884.527 4.63439 5.3432 0
M  V30 4994 H 885.519 3.44728 6.25838 0
M  V30 4995 H 883.685 4.96652 7.57263 0
M  V30 4996 H 883.614 4.80159 3.74441 0
M  V30 4997 H 884.644 5.81459 1.09608 0
M  V30 4998 H 882.907 5.9187 1.54487 0
M  V30 4999 H 883.395 5.10095 0.0220288 0
M  V30 5000 H 884.131 0.798962 1.16664 0
M  V30 5001 P 885.555 2.75334 8.47391 0
M  V30 5002 O 885.775 2.44571 9.90142 0
M  V30 5003 O 886.345 3.87688 7.92115 0
M  V30 5004 O 885.805 1.4459 7.59357 0
M  V30 5005 C 884.865 0.347608 7.69215 0
M  V30 5006 C 885.595 -0.96767 7.52806 0
M  V30 5007 O 885.805 -1.21036 6.1011 0
M  V30 5008 C 886.995 -1.04544 8.13308 0
M  V30 5009 O 887.385 -2.38311 8.41922 0
M  V30 5010 C 887.875 -0.491279 7.02284 0
M  V30 5011 C 887.165 -0.996264 5.77469 0
M  V30 5012 N 887.215 -0.0501916 4.62973 0
M  V30 5013 H 884.376 0.374722 8.67691 0
M  V30 5014 H 884.106 0.443485 6.90277 0
M  V30 5015 H 884.973 -1.75537 7.96793 0
M  V30 5016 P 888.935 -2.75334 8.47391 0
M  V30 5017 O 889.155 -3.84128 9.44797 0
M  V30 5018 O 889.725 -1.51947 8.68712 0
M  V30 5019 O 889.185 -3.29363 6.99321 0
M  V30 5020 C 888.245 -4.24011 6.4274 0
M  V30 5021 C 888.975 -5.20775 5.52155 0
M  V30 5022 O 889.185 -4.56534 4.22446 0
M  V30 5023 C 890.375 -5.62629 5.96531 0
M  V30 5024 O 890.765 -6.87667 5.41053 0
M  V30 5025 C 891.255 -4.52537 5.39283 0
M  V30 5026 C 890.545 -4.20027 4.08623 0
M  V30 5027 N 890.595 -2.76189 3.71603 0
M  V30 5028 H 887.756 -4.797 7.24003 0
M  V30 5029 H 887.486 -3.69856 5.84513 0
M  V30 5030 H 888.353 -6.10356 5.41441 0
M  V30 5031 P 892.315 -7.20834 5.23717 0
M  V30 5032 O 892.535 -8.66104 5.38572 0
M  V30 5033 O 893.105 -6.33544 6.1349 0
M  V30 5034 O 892.565 -6.7751 3.72168 0
M  V30 5035 C 891.625 -7.20825 2.7076 0
M  V30 5036 C 892.355 -7.45864 1.40599 0
M  V30 5037 O 892.565 -6.17651 0.734225 0
M  V30 5038 C 893.755 -8.05808 1.51899 0
M  V30 5039 O 894.145 -8.74358 0.335205 0
M  V30 5040 C 894.635 -6.83093 1.70294 0
M  V30 5041 C 893.925 -5.79992 0.836974 0
M  V30 5042 N 893.975 -4.41864 1.38293 0
M  V30 5043 H 891.136 -8.13644 3.0377 0
M  V30 5044 H 890.866 -6.42788 2.55485 0
M  V30 5045 H 891.733 -8.12039 0.792769 0
M  V30 5046 P 895.695 -8.91 -6.558e-12 0
M  V30 5047 O 895.915 -10.1746 -0.733838 0
M  V30 5048 O 896.485 -8.73346 1.23964 0
M  V30 5049 O 895.945 -7.66872 -0.971405 0
M  V30 5050 C 895.005 -7.42405 -2.04668 0
M  V30 5051 C 895.735 -6.86059 -3.24661 0
M  V30 5052 O 895.945 -5.42934 -3.03695 0
M  V30 5053 C 897.135 -7.41287 -3.50796 0
M  V30 5054 O 897.525 -7.27073 -4.86816 0
M  V30 5055 C 898.015 -6.5273 -2.63741 0
M  V30 5056 C 897.305 -5.1842 -2.73198 0
M  V30 5057 N 897.355 -4.38762 -1.4784 0
M  V30 5058 H 894.517 -8.36899 -2.3252 0
M  V30 5059 H 894.245 -6.70391 -1.71179 0
M  V30 5060 H 895.113 -7.03638 -4.13219 0
M  V30 5061 H 897.768 -4.59931 -3.54016 0
M  V30 5062 H 898.048 -6.88995 -1.59871 0
M  V30 5063 H 899.039 -6.4684 -3.0373 0
M  V30 5064 H 897.205 -8.47002 -3.20749 0
M  V30 5065 P 899.075 -7.20834 -5.23717 0
M  V30 5066 O 899.295 -7.79853 -6.57286 0
M  V30 5067 O 899.865 -7.79239 -4.12957 0
M  V30 5068 O 899.325 -5.63315 -5.29344 0
M  V30 5069 C 898.385 -4.80255 -6.01876 0
M  V30 5070 C 899.115 -3.64202 -6.65911 0
M  V30 5071 O 899.325 -2.60694 -5.64732 0
M  V30 5072 C 900.515 -3.93473 -7.1943 0
M  V30 5073 O 900.905 -3.02071 -8.21205 0
M  V30 5074 C 901.395 -3.73047 -5.97036 0
M  V30 5075 C 900.685 -2.58828 -5.25741 0
M  V30 5076 N 900.735 -2.68068 -3.77503 0
M  V30 5077 H 897.896 -5.40332 -6.79951 0
M  V30 5078 H 897.626 -4.41613 -5.32378 0
M  V30 5079 H 898.493 -3.26331 -7.47797 0
M  V30 5080 P 902.455 -2.75334 -8.47391 0
M  V30 5081 O 902.675 -2.44571 -9.90142 0
M  V30 5082 O 903.245 -3.87688 -7.92115 0
M  V30 5083 O 902.705 -1.4459 -7.59357 0
M  V30 5084 C 901.765 -0.347608 -7.69215 0
M  V30 5085 C 902.495 0.96767 -7.52806 0
M  V30 5086 O 902.705 1.21036 -6.1011 0
M  V30 5087 C 903.895 1.04544 -8.13308 0
M  V30 5088 O 904.285 2.38311 -8.41922 0
M  V30 5089 C 904.775 0.491279 -7.02284 0
M  V30 5090 C 904.065 0.996264 -5.77469 0
M  V30 5091 N 904.115 0.0501916 -4.62973 0
M  V30 5092 C 904.035 -1.32786 -4.63244 0
M  V30 5093 N 904.115 -1.86957 -3.44545 0
M  V30 5094 C 904.255 -0.780241 -2.58481 0
M  V30 5095 C 904.385 -0.738536 -1.17757 0
M  V30 5096 N 904.505 0.58337 -0.711393 0
M  V30 5097 C 904.505 1.70816 -1.51017 0
M  V30 5098 N 904.635 2.87826 -0.880757 0
M  V30 5099 N 904.375 1.67126 -2.8339 0
M  V30 5100 C 904.255 0.401421 -3.30572 0
M  V30 5101 H 901.276 -0.374722 -8.67691 0
M  V30 5102 H 901.006 -0.443485 -6.90277 0
M  V30 5103 H 901.873 1.75537 -7.96793 0
M  V30 5104 P 905.835 2.75334 -8.47391 0
M  V30 5105 O 906.055 3.84204 -9.44982 0
M  V30 5106 O 906.625 1.51982 -8.68909 0
M  V30 5107 O 906.085 3.29363 -6.99321 0
M  V30 5108 C 905.145 4.24066 -6.42823 0
M  V30 5109 C 905.875 5.20775 -5.52155 0
M  V30 5110 O 906.085 4.56607 -4.22514 0
M  V30 5111 C 907.275 5.62697 -5.96604 0
M  V30 5112 O 907.665 6.87667 -5.41053 0
M  V30 5113 C 908.155 4.52537 -5.39283 0
M  V30 5114 C 907.445 4.20027 -4.08623 0
M  V30 5115 N 907.495 2.76189 -3.71603 0
M  V30 5116 H 904.657 4.79756 -7.24086 0
M  V30 5117 H 904.385 3.69963 -5.84682 0
M  V30 5118 H 905.253 6.10431 -5.41508 0
M  V30 5119 H 907.908 4.78816 -3.28024 0
M  V30 5120 H 908.188 3.64957 -6.05871 0
M  V30 5121 H 909.179 4.88748 -5.21323 0
M  V30 5122 H 907.345 5.66789 -7.0643 0
M  V30 5123 P 909.215 7.20834 -5.23717 0
M  V30 5124 O 909.435 8.66104 -5.38572 0
M  V30 5125 O 910.005 6.33544 -6.1349 0
M  V30 5126 O 909.465 6.7751 -3.72168 0
M  V30 5127 C 908.525 7.20825 -2.7076 0
M  V30 5128 C 909.255 7.45864 -1.40599 0
M  V30 5129 O 909.465 6.17651 -0.734225 0
M  V30 5130 C 910.655 8.05808 -1.51899 0
M  V30 5131 O 911.045 8.74358 -0.335205 0
M  V30 5132 C 911.535 6.83093 -1.70294 0
M  V30 5133 C 910.825 5.79992 -0.836974 0
M  V30 5134 N 910.875 4.41864 -1.38293 0
M  V30 5135 C 910.795 3.99538 -2.69438 0
M  V30 5136 N 910.875 2.69909 -2.84277 0
M  V30 5137 C 911.015 2.21719 -1.5408 0
M  V30 5138 C 911.145 0.891712 -1.06628 0
M  V30 5139 O 911.165 -0.161298 -1.70137 0
M  V30 5140 N 911.265 0.856846 0.334985 0
M  V30 5141 C 911.265 1.9641 1.15789 0
M  V30 5142 N 911.395 1.72708 2.46522 0
M  V30 5143 N 911.135 3.21165 0.713741 0
M  V30 5144 C 911.015 3.26797 -0.639748 0
M  V30 5145 H 908.036 8.13644 -3.0377 0
M  V30 5146 H 907.766 6.42788 -2.55485 0
M  V30 5147 H 908.633 8.12039 -0.792769 0
M  V30 5148 H 911.288 5.80061 0.166416 0
M  V30 5149 H 911.567 6.51287 -2.75604 0
M  V30 5150 H 912.559 7.01734 -1.34462 0
M  V30 5151 H 910.725 8.73674 -2.38337 0
M  V30 5152 H 910.676 4.68207 -3.53221 0
M  V30 5153 H 911.358 -0.0398818 0.767965 0
M  V30 5154 H 911.395 2.50995 3.13503 0
M  V30 5155 H 911.496 0.759148 2.80716 0
M  V30 5156 P 912.595 8.91 6.71518e-12 0
M  V30 5157 O 912.815 10.1726 0.733694 0
M  V30 5158 O 913.385 8.73148 -1.23936 0
M  V30 5159 O 912.845 7.66872 0.971405 0
M  V30 5160 C 911.905 7.42309 2.04641 0
M  V30 5161 C 912.635 6.86059 3.24661 0
M  V30 5162 O 912.845 5.42847 3.03646 0
M  V30 5163 C 914.035 7.41196 3.50753 0
M  V30 5164 O 914.425 7.27073 4.86816 0
M  V30 5165 C 914.915 6.5273 2.63741 0
M  V30 5166 C 914.205 5.1842 2.73198 0
M  V30 5167 N 914.255 4.38762 1.4784 0
M  V30 5168 H 911.416 8.36803 2.32493 0
M  V30 5169 H 911.146 6.70197 1.71129 0
M  V30 5170 H 912.013 7.03551 4.13168 0
M  V30 5171 P 915.975 7.20834 5.23717 0
M  V30 5172 O 916.195 7.79853 6.57286 0
M  V30 5173 O 916.765 7.79239 4.12957 0
M  V30 5174 O 916.225 5.63315 5.29344 0
M  V30 5175 C 915.285 4.80255 6.01876 0
M  V30 5176 C 916.015 3.64202 6.65911 0
M  V30 5177 O 916.225 2.60694 5.64732 0
M  V30 5178 C 917.415 3.93473 7.1943 0
M  V30 5179 O 917.805 3.02071 8.21205 0
M  V30 5180 C 918.295 3.73047 5.97036 0
M  V30 5181 C 917.585 2.58828 5.25741 0
M  V30 5182 N 917.635 2.68068 3.77503 0
M  V30 5183 C 917.555 3.79715 2.96723 0
M  V30 5184 N 917.635 3.5377 1.68852 0
M  V30 5185 C 917.775 2.15054 1.63254 0
M  V30 5186 C 917.905 1.28964 0.518571 0
M  V30 5187 N 918.025 -0.0538097 0.918425 0
M  V30 5188 C 918.025 -0.494275 2.22578 0
M  V30 5189 N 918.155 -1.81086 2.40434 0
M  V30 5190 N 917.895 0.313645 3.27502 0
M  V30 5191 C 917.775 1.61829 2.91033 0
M  V30 5192 H 914.796 5.40332 6.79951 0
M  V30 5193 H 914.526 4.41613 5.32378 0
M  V30 5194 H 915.393 3.26331 7.47797 0
M  V30 5195 P 919.355 2.75334 8.47391 0
M  V30 5196 O 919.575 2.44595 9.90239 0
M  V30 5197 O 920.145 3.87732 7.92204 0
M  V30 5198 O 919.605 1.4459 7.59357 0
M  V30 5199 C 918.665 0.347563 7.69115 0
M  V30 5200 C 919.395 -0.96767 7.52806 0
M  V30 5201 O 919.605 -1.21036 6.1011 0
M  V30 5202 C 920.795 -1.04544 8.13308 0
M  V30 5203 O 921.185 -2.38311 8.41922 0
M  V30 5204 C 921.675 -0.491279 7.02284 0
M  V30 5205 C 920.965 -0.996264 5.77469 0
M  V30 5206 N 921.015 -0.0501808 4.62873 0
M  V30 5207 C 921.165 -0.588177 3.36904 0
M  V30 5208 O 921.255 -1.78598 3.17173 0
M  V30 5209 N 921.205 0.329694 2.33686 0
M  V30 5210 C 921.115 1.6953 2.45079 0
M  V30 5211 O 921.165 2.41926 1.44899 0
M  V30 5212 C 920.965 2.16933 3.80505 0
M  V30 5213 C 920.855 3.65373 3.97621 0
M  V30 5214 C 920.915 1.30326 4.83752 0
M  V30 5215 H 918.175 0.374722 8.67691 0
M  V30 5216 H 917.906 0.443421 6.90177 0
M  V30 5217 H 918.773 -1.75537 7.96793 0
M  V30 5218 H 921.428 -1.94496 5.46629 0
M  V30 5219 H 921.707 0.608651 7.04676 0
M  V30 5220 H 922.699 -0.889672 7.08939 0
M  V30 5221 H 920.865 -0.43308 9.04564 0
M  V30 5222 H 920.794 1.68366 5.8516 0
M  V30 5223 H 921.824 4.05985 4.30448 0
M  V30 5224 H 920.087 3.88028 4.72875 0
M  V30 5225 H 920.575 4.11381 3.01609 0
M  V30 5226 H 921.311 -0.0393617 1.41345 0
M  V30 5227 P 922.735 -2.75334 8.47391 0
M  V30 5228 O 922.955 -3.84128 9.44797 0
M  V30 5229 O 923.525 -1.51947 8.68712 0
M  V30 5230 O 922.985 -3.29363 6.99321 0
M  V30 5231 C 922.045 -4.24011 6.4274 0
M  V30 5232 C 922.775 -5.20775 5.52155 0
M  V30 5233 O 922.985 -4.56534 4.22446 0
M  V30 5234 C 924.175 -5.62629 5.96531 0
M  V30 5235 O 924.565 -6.87667 5.41053 0
M  V30 5236 C 925.055 -4.52537 5.39283 0
M  V30 5237 C 924.345 -4.20027 4.08623 0
M  V30 5238 N 924.395 -2.76189 3.71603 0
M  V30 5239 H 921.556 -4.797 7.24003 0
M  V30 5240 H 921.286 -3.69856 5.84513 0
M  V30 5241 H 922.153 -6.10356 5.41441 0
M  V30 5242 P 926.115 -7.20834 5.23717 0
M  V30 5243 O 926.335 -8.66104 5.38572 0
M  V30 5244 O 926.905 -6.33544 6.1349 0
M  V30 5245 O 926.365 -6.7751 3.72168 0
M  V30 5246 C 925.425 -7.20825 2.7076 0
M  V30 5247 C 926.155 -7.45864 1.40599 0
M  V30 5248 O 926.365 -6.17651 0.734225 0
M  V30 5249 C 927.555 -8.05808 1.51899 0
M  V30 5250 O 927.945 -8.74358 0.335205 0
M  V30 5251 C 928.435 -6.83093 1.70294 0
M  V30 5252 C 927.725 -5.79992 0.836974 0
M  V30 5253 N 927.775 -4.41864 1.38293 0
M  V30 5254 H 924.936 -8.13644 3.0377 0
M  V30 5255 H 924.666 -6.42788 2.55485 0
M  V30 5256 H 925.533 -8.12039 0.792769 0
M  V30 5257 P 929.495 -8.91 -6.87236e-12 0
M  V30 5258 O 929.715 -10.1726 -0.733694 0
M  V30 5259 O 930.285 -8.73148 1.23936 0
M  V30 5260 O 929.745 -7.66872 -0.971405 0
M  V30 5261 C 928.805 -7.42309 -2.04641 0
M  V30 5262 C 929.535 -6.86059 -3.24661 0
M  V30 5263 O 929.745 -5.42847 -3.03646 0
M  V30 5264 C 930.935 -7.41196 -3.50753 0
M  V30 5265 O 931.325 -7.27073 -4.86816 0
M  V30 5266 C 931.815 -6.5273 -2.63741 0
M  V30 5267 C 931.105 -5.1842 -2.73198 0
M  V30 5268 N 931.155 -4.38762 -1.4784 0
M  V30 5269 H 928.316 -8.36803 -2.32493 0
M  V30 5270 H 928.046 -6.70197 -1.71129 0
M  V30 5271 H 928.913 -7.03551 -4.13168 0
M  V30 5272 P 932.874 -7.20834 -5.23717 0
M  V30 5273 O 933.094 -7.79853 -6.57286 0
M  V30 5274 O 933.664 -7.79239 -4.12957 0
M  V30 5275 O 933.124 -5.63315 -5.29344 0
M  V30 5276 C 932.184 -4.80255 -6.01876 0
M  V30 5277 C 932.914 -3.64202 -6.65911 0
M  V30 5278 O 933.124 -2.60694 -5.64732 0
M  V30 5279 C 934.314 -3.93473 -7.1943 0
M  V30 5280 O 934.704 -3.02071 -8.21205 0
M  V30 5281 C 935.194 -3.73047 -5.97036 0
M  V30 5282 C 934.484 -2.58828 -5.25741 0
M  V30 5283 N 934.534 -2.68068 -3.77503 0
M  V30 5284 H 931.695 -5.40332 -6.79951 0
M  V30 5285 H 931.425 -4.41613 -5.32378 0
M  V30 5286 H 932.292 -3.26331 -7.47797 0
M  V30 5287 P 936.254 -2.75334 -8.47391 0
M  V30 5288 O 936.474 -2.44571 -9.90142 0
M  V30 5289 O 937.044 -3.87688 -7.92115 0
M  V30 5290 O 936.504 -1.4459 -7.59357 0
M  V30 5291 C 935.564 -0.347608 -7.69215 0
M  V30 5292 C 936.294 0.96767 -7.52806 0
M  V30 5293 O 936.504 1.21036 -6.1011 0
M  V30 5294 C 937.694 1.04544 -8.13308 0
M  V30 5295 O 938.084 2.38311 -8.41922 0
M  V30 5296 C 938.574 0.491279 -7.02284 0
M  V30 5297 C 937.864 0.996264 -5.77469 0
M  V30 5298 N 937.914 0.0501916 -4.62973 0
M  V30 5299 C 937.834 -1.32786 -4.63244 0
M  V30 5300 N 937.914 -1.86957 -3.44545 0
M  V30 5301 C 938.054 -0.780241 -2.58481 0
M  V30 5302 C 938.184 -0.738536 -1.17757 0
M  V30 5303 N 938.304 0.58337 -0.711393 0
M  V30 5304 C 938.304 1.70816 -1.51017 0
M  V30 5305 N 938.434 2.87826 -0.880757 0
M  V30 5306 N 938.174 1.67126 -2.8339 0
M  V30 5307 C 938.054 0.401421 -3.30572 0
M  V30 5308 H 935.075 -0.374722 -8.67691 0
M  V30 5309 H 934.805 -0.443485 -6.90277 0
M  V30 5310 H 935.672 1.75537 -7.96793 0
M  V30 5311 P 939.634 2.75334 -8.47391 0
M  V30 5312 O 939.854 3.84128 -9.44797 0
M  V30 5313 O 940.424 1.51947 -8.68712 0
M  V30 5314 O 939.884 3.29363 -6.99321 0
M  V30 5315 C 938.944 4.24011 -6.4274 0
M  V30 5316 C 939.674 5.20775 -5.52155 0
M  V30 5317 O 939.884 4.56534 -4.22446 0
M  V30 5318 C 941.074 5.62629 -5.96531 0
M  V30 5319 O 941.464 6.87667 -5.41053 0
M  V30 5320 C 941.954 4.52537 -5.39283 0
M  V30 5321 C 941.244 4.20027 -4.08623 0
M  V30 5322 N 941.294 2.76189 -3.71603 0
M  V30 5323 H 938.455 4.797 -7.24003 0
M  V30 5324 H 938.185 3.69856 -5.84513 0
M  V30 5325 H 939.052 6.10356 -5.41441 0
M  V30 5326 P 943.014 7.20834 -5.23717 0
M  V30 5327 O 943.234 8.66104 -5.38572 0
M  V30 5328 O 943.804 6.33544 -6.1349 0
M  V30 5329 O 943.264 6.7751 -3.72168 0
M  V30 5330 C 942.324 7.20825 -2.7076 0
M  V30 5331 C 943.054 7.45864 -1.40599 0
M  V30 5332 O 943.264 6.17651 -0.734225 0
M  V30 5333 C 944.454 8.05808 -1.51899 0
M  V30 5334 O 944.844 8.74358 -0.335205 0
M  V30 5335 C 945.334 6.83093 -1.70294 0
M  V30 5336 C 944.624 5.79992 -0.836974 0
M  V30 5337 N 944.674 4.41864 -1.38293 0
M  V30 5338 H 941.835 8.13644 -3.0377 0
M  V30 5339 H 941.565 6.42788 -2.55485 0
M  V30 5340 H 942.432 8.12039 -0.792769 0
M  V30 5341 P 946.394 8.91 7.02954e-12 0
M  V30 5342 O 946.614 10.1726 0.733694 0
M  V30 5343 O 947.184 8.73148 -1.23936 0
M  V30 5344 O 946.644 7.66872 0.971405 0
M  V30 5345 C 945.704 7.42309 2.04641 0
M  V30 5346 C 946.434 6.86059 3.24661 0
M  V30 5347 O 946.644 5.42847 3.03646 0
M  V30 5348 C 947.834 7.41196 3.50753 0
M  V30 5349 O 948.224 7.27073 4.86816 0
M  V30 5350 C 948.714 6.5273 2.63741 0
M  V30 5351 C 948.004 5.1842 2.73198 0
M  V30 5352 N 948.054 4.38762 1.4784 0
M  V30 5353 H 945.215 8.36803 2.32493 0
M  V30 5354 H 944.945 6.70197 1.71129 0
M  V30 5355 H 945.812 7.03551 4.13168 0
M  V30 5356 P 949.774 7.20834 5.23717 0
M  V30 5357 O 949.994 7.79853 6.57286 0
M  V30 5358 O 950.564 7.79239 4.12957 0
M  V30 5359 O 950.024 5.63315 5.29344 0
M  V30 5360 C 949.084 4.80255 6.01876 0
M  V30 5361 C 949.814 3.64202 6.65911 0
M  V30 5362 O 950.024 2.60694 5.64732 0
M  V30 5363 C 951.214 3.93473 7.1943 0
M  V30 5364 O 951.604 3.02071 8.21205 0
M  V30 5365 C 952.094 3.73047 5.97036 0
M  V30 5366 C 951.384 2.58828 5.25741 0
M  V30 5367 N 951.434 2.68068 3.77503 0
M  V30 5368 H 948.595 5.40332 6.79951 0
M  V30 5369 H 948.325 4.41613 5.32378 0
M  V30 5370 H 949.192 3.26331 7.47797 0
M  V30 5371 P 953.154 2.75334 8.47391 0
M  V30 5372 O 953.374 2.44571 9.90142 0
M  V30 5373 O 953.944 3.87688 7.92115 0
M  V30 5374 O 953.404 1.4459 7.59357 0
M  V30 5375 C 952.464 0.347608 7.69215 0
M  V30 5376 C 953.194 -0.96767 7.52806 0
M  V30 5377 O 953.404 -1.21036 6.1011 0
M  V30 5378 C 954.594 -1.04544 8.13308 0
M  V30 5379 O 954.984 -2.38311 8.41922 0
M  V30 5380 C 955.474 -0.491279 7.02284 0
M  V30 5381 C 954.764 -0.996264 5.77469 0
M  V30 5382 N 954.814 -0.0501916 4.62973 0
M  V30 5383 H 951.975 0.374722 8.67691 0
M  V30 5384 H 951.705 0.443485 6.90277 0
M  V30 5385 H 952.572 -1.75537 7.96793 0
M  V30 5386 P 956.534 -2.75334 8.47391 0
M  V30 5387 O 956.754 -3.84128 9.44797 0
M  V30 5388 O 957.324 -1.51947 8.68712 0
M  V30 5389 O 956.784 -3.29363 6.99321 0
M  V30 5390 C 955.844 -4.24011 6.4274 0
M  V30 5391 C 956.574 -5.20775 5.52155 0
M  V30 5392 O 956.784 -4.56534 4.22446 0
M  V30 5393 C 957.974 -5.62629 5.96531 0
M  V30 5394 O 958.364 -6.87667 5.41053 0
M  V30 5395 C 958.854 -4.52537 5.39283 0
M  V30 5396 C 958.144 -4.20027 4.08623 0
M  V30 5397 N 958.194 -2.76189 3.71603 0
M  V30 5398 H 955.355 -4.797 7.24003 0
M  V30 5399 H 955.085 -3.69856 5.84513 0
M  V30 5400 H 955.952 -6.10356 5.41441 0
M  V30 5401 P 959.914 -7.20834 5.23717 0
M  V30 5402 O 960.134 -8.66104 5.38572 0
M  V30 5403 O 960.704 -6.33544 6.1349 0
M  V30 5404 O 960.164 -6.7751 3.72168 0
M  V30 5405 C 959.224 -7.20825 2.7076 0
M  V30 5406 C 959.954 -7.45864 1.40599 0
M  V30 5407 O 960.164 -6.17651 0.734225 0
M  V30 5408 C 961.354 -8.05808 1.51899 0
M  V30 5409 O 961.744 -8.74358 0.335205 0
M  V30 5410 C 962.234 -6.83093 1.70294 0
M  V30 5411 C 961.524 -5.79992 0.836974 0
M  V30 5412 N 961.574 -4.41864 1.38293 0
M  V30 5413 H 958.735 -8.13644 3.0377 0
M  V30 5414 H 958.465 -6.42788 2.55485 0
M  V30 5415 H 959.332 -8.12039 0.792769 0
M  V30 5416 P 963.294 -8.91 -7.18673e-12 0
M  V30 5417 O 963.514 -10.1736 -0.733766 0
M  V30 5418 O 964.084 -8.73247 1.2395 0
M  V30 5419 O 963.544 -7.66872 -0.971405 0
M  V30 5420 C 962.604 -7.42212 -2.04614 0
M  V30 5421 C 963.334 -6.86059 -3.24661 0
M  V30 5422 O 963.544 -5.42847 -3.03646 0
M  V30 5423 C 964.734 -7.41196 -3.50753 0
M  V30 5424 O 965.124 -7.27073 -4.86816 0
M  V30 5425 C 965.614 -6.5273 -2.63741 0
M  V30 5426 C 964.904 -5.1842 -2.73198 0
M  V30 5427 N 964.954 -4.38668 -1.47808 0
M  V30 5428 C 965.104 -3.02239 -1.60048 0
M  V30 5429 O 965.194 -2.46459 -2.67869 0
M  V30 5430 N 965.144 -2.32436 -0.408571 0
M  V30 5431 C 965.054 -2.85471 0.854993 0
M  V30 5432 O 965.104 -2.12566 1.8531 0
M  V30 5433 C 964.904 -4.28918 0.887335 0
M  V30 5434 C 964.794 -4.91066 2.24619 0
M  V30 5435 C 964.854 -5.00349 -0.255399 0
M  V30 5436 H 962.114 -8.36803 -2.32493 0
M  V30 5437 H 961.845 -6.701 -1.71105 0
M  V30 5438 H 962.712 -7.03551 -4.13168 0
M  V30 5439 H 965.367 -4.59773 -3.53894 0
M  V30 5440 H 965.646 -6.88995 -1.59871 0
M  V30 5441 H 966.638 -6.46749 -3.03687 0
M  V30 5442 H 964.804 -8.46908 -3.20714 0
M  V30 5443 H 964.733 -6.08548 -0.206986 0
M  V30 5444 H 965.763 -5.34836 2.53099 0
M  V30 5445 H 964.026 -5.69638 2.2291 0
M  V30 5446 H 964.514 -4.13971 2.98044 0
M  V30 5447 H 965.25 -1.33211 -0.474216 0
M  V30 5448 P 966.674 -7.20834 -5.23717 0
M  V30 5449 O 966.894 -7.79853 -6.57286 0
M  V30 5450 O 967.464 -7.79239 -4.12957 0
M  V30 5451 O 966.924 -5.63315 -5.29344 0
M  V30 5452 C 965.984 -4.80255 -6.01876 0
M  V30 5453 C 966.714 -3.64202 -6.65911 0
M  V30 5454 O 966.924 -2.60694 -5.64732 0
M  V30 5455 C 968.114 -3.93473 -7.1943 0
M  V30 5456 O 968.504 -3.02071 -8.21205 0
M  V30 5457 C 968.994 -3.73047 -5.97036 0
M  V30 5458 C 968.284 -2.58828 -5.25741 0
M  V30 5459 N 968.334 -2.68068 -3.77503 0
M  V30 5460 C 968.254 -3.79715 -2.96723 0
M  V30 5461 N 968.334 -3.5377 -1.68852 0
M  V30 5462 C 968.474 -2.15054 -1.63254 0
M  V30 5463 C 968.604 -1.28964 -0.518571 0
M  V30 5464 N 968.724 0.0538097 -0.918425 0
M  V30 5465 C 968.724 0.494275 -2.22578 0
M  V30 5466 N 968.854 1.81086 -2.40434 0
M  V30 5467 N 968.594 -0.313645 -3.27502 0
M  V30 5468 C 968.474 -1.61829 -2.91033 0
M  V30 5469 H 965.495 -5.40332 -6.79951 0
M  V30 5470 H 965.225 -4.41613 -5.32378 0
M  V30 5471 H 966.092 -3.26331 -7.47797 0
M  V30 5472 P 970.054 -2.75334 -8.47391 0
M  V30 5473 O 970.274 -2.44619 -9.90336 0
M  V30 5474 O 970.844 -3.87776 -7.92294 0
M  V30 5475 O 970.304 -1.4459 -7.59357 0
M  V30 5476 C 969.364 -0.347653 -7.69315 0
M  V30 5477 C 970.094 0.96767 -7.52806 0
M  V30 5478 O 970.304 1.21055 -6.10208 0
M  V30 5479 C 971.494 1.04557 -8.13408 0
M  V30 5480 O 971.884 2.38311 -8.41922 0
M  V30 5481 C 972.374 0.491279 -7.02284 0
M  V30 5482 C 971.664 0.996264 -5.77469 0
M  V30 5483 N 971.714 0.0501916 -4.62973 0
M  V30 5484 H 968.876 -0.374765 -8.67791 0
M  V30 5485 H 968.604 -0.443613 -6.90476 0
M  V30 5486 H 969.472 1.75559 -7.96891 0
M  V30 5487 H 972.127 1.94563 -5.46818 0
M  V30 5488 H 972.407 -0.608651 -7.04676 0
M  V30 5489 H 973.398 0.889796 -7.09039 0
M  V30 5490 H 971.564 0.433128 -9.04664 0
M  V30 5491 P 973.434 2.75334 -8.47391 0
M  V30 5492 O 973.654 3.84128 -9.44797 0
M  V30 5493 O 974.224 1.51947 -8.68712 0
M  V30 5494 O 973.684 3.29363 -6.99321 0
M  V30 5495 C 972.744 4.24011 -6.4274 0
M  V30 5496 C 973.474 5.20775 -5.52155 0
M  V30 5497 O 973.684 4.56534 -4.22446 0
M  V30 5498 C 974.874 5.62629 -5.96531 0
M  V30 5499 O 975.264 6.87667 -5.41053 0
M  V30 5500 C 975.754 4.52537 -5.39283 0
M  V30 5501 C 975.044 4.20027 -4.08623 0
M  V30 5502 N 975.094 2.76189 -3.71603 0
M  V30 5503 H 972.255 4.797 -7.24003 0
M  V30 5504 H 971.985 3.69856 -5.84513 0
M  V30 5505 H 972.852 6.10356 -5.41441 0
M  V30 5506 P 976.814 7.20834 -5.23717 0
M  V30 5507 O 977.034 8.66104 -5.38572 0
M  V30 5508 O 977.604 6.33544 -6.1349 0
M  V30 5509 O 977.064 6.7751 -3.72168 0
M  V30 5510 C 976.124 7.20825 -2.7076 0
M  V30 5511 C 976.854 7.45864 -1.40599 0
M  V30 5512 O 977.064 6.17651 -0.734225 0
M  V30 5513 C 978.254 8.05808 -1.51899 0
M  V30 5514 O 978.644 8.74358 -0.335205 0
M  V30 5515 C 979.134 6.83093 -1.70294 0
M  V30 5516 C 978.424 5.79992 -0.836974 0
M  V30 5517 N 978.474 4.41864 -1.38293 0
M  V30 5518 H 975.635 8.13644 -3.0377 0
M  V30 5519 H 975.365 6.42788 -2.55485 0
M  V30 5520 H 976.232 8.12039 -0.792769 0
M  V30 5521 P 980.194 8.91 7.34391e-12 0
M  V30 5522 O 980.414 10.1746 0.733838 0
M  V30 5523 O 980.984 8.73346 -1.23964 0
M  V30 5524 O 980.444 7.66872 0.971405 0
M  V30 5525 C 979.504 7.42405 2.04668 0
M  V30 5526 C 980.234 6.86059 3.24661 0
M  V30 5527 O 980.444 5.42934 3.03695 0
M  V30 5528 C 981.634 7.41287 3.50796 0
M  V30 5529 O 982.024 7.27073 4.86816 0
M  V30 5530 C 982.514 6.5273 2.63741 0
M  V30 5531 C 981.804 5.1842 2.73198 0
M  V30 5532 N 981.854 4.38762 1.4784 0
M  V30 5533 C 981.774 4.83651 0.183876 0
M  V30 5534 N 981.844 3.88759 -0.699393 0
M  V30 5535 C 981.994 2.7404 0.0575568 0
M  V30 5536 C 982.124 1.37902 -0.293928 0
M  V30 5537 N 982.134 0.938021 -1.54797 0
M  V30 5538 N 982.244 0.491817 0.70549 0
M  V30 5539 C 982.234 0.931735 1.95979 0
M  V30 5540 N 982.114 2.16017 2.41481 0
M  V30 5541 C 981.994 3.02547 1.39121 0
M  V30 5542 H 979.016 8.36899 2.3252 0
M  V30 5543 H 978.744 6.70391 1.71179 0
M  V30 5544 H 979.612 7.03638 4.13219 0
M  V30 5545 H 982.267 4.59931 3.54016 0
M  V30 5546 H 982.547 6.88995 1.59871 0
M  V30 5547 H 983.538 6.4684 3.0373 0
M  V30 5548 H 981.704 8.47002 3.20749 0
M  V30 5549 H 981.663 5.8885 -0.0765548 0
M  V30 5550 H 982.044 1.60276 -2.32875 0
M  V30 5551 H 982.233 -0.0699355 -1.73859 0
M  V30 5552 H 982.341 0.165507 2.71897 0
M  V30 5553 P 983.574 7.20834 5.23717 0
M  V30 5554 O 983.794 7.79853 6.57286 0
M  V30 5555 O 984.364 7.79239 4.12957 0
M  V30 5556 O 983.824 5.63315 5.29344 0
M  V30 5557 C 982.884 4.80255 6.01876 0
M  V30 5558 C 983.614 3.64202 6.65911 0
M  V30 5559 O 983.824 2.60694 5.64732 0
M  V30 5560 C 985.014 3.93473 7.1943 0
M  V30 5561 O 985.404 3.02071 8.21205 0
M  V30 5562 C 985.894 3.73047 5.97036 0
M  V30 5563 C 985.184 2.58828 5.25741 0
M  V30 5564 N 985.234 2.68068 3.77503 0
M  V30 5565 C 985.154 3.79715 2.96723 0
M  V30 5566 N 985.234 3.5377 1.68852 0
M  V30 5567 C 985.374 2.15054 1.63254 0
M  V30 5568 C 985.504 1.28964 0.518571 0
M  V30 5569 O 985.524 1.56826 -0.679156 0
M  V30 5570 N 985.624 -0.0538097 0.918425 0
M  V30 5571 C 985.624 -0.494275 2.22578 0
M  V30 5572 N 985.754 -1.81086 2.40434 0
M  V30 5573 N 985.494 0.313645 3.27502 0
M  V30 5574 C 985.374 1.61829 2.91033 0
M  V30 5575 H 982.395 5.40332 6.79951 0
M  V30 5576 H 982.125 4.41613 5.32378 0
M  V30 5577 H 982.992 3.26331 7.47797 0
M  V30 5578 H 985.647 1.63422 5.56814 0
M  V30 5579 H 985.926 4.63374 5.34244 0
M  V30 5580 H 986.918 3.44728 6.25838 0
M  V30 5581 H 985.084 4.96652 7.57263 0
M  V30 5582 H 985.035 4.80617 3.3614 0
M  V30 5583 H 985.717 -0.742702 0.199384 0
M  V30 5584 H 985.754 -2.20598 3.35588 0
M  V30 5585 H 985.855 -2.43518 1.58945 0
M  V30 5586 P 986.954 2.75334 8.47391 0
M  V30 5587 O 987.174 2.44571 9.90142 0
M  V30 5588 O 987.744 3.87688 7.92115 0
M  V30 5589 O 987.204 1.4459 7.59357 0
M  V30 5590 C 986.264 0.347608 7.69215 0
M  V30 5591 C 986.994 -0.96767 7.52806 0
M  V30 5592 O 987.204 -1.21036 6.1011 0
M  V30 5593 C 988.394 -1.04544 8.13308 0
M  V30 5594 O 988.784 -2.38311 8.41922 0
M  V30 5595 C 989.274 -0.491279 7.02284 0
M  V30 5596 C 988.564 -0.996264 5.77469 0
M  V30 5597 N 988.614 -0.0501916 4.62973 0
M  V30 5598 H 985.775 0.374722 8.67691 0
M  V30 5599 H 985.505 0.443485 6.90277 0
M  V30 5600 H 986.372 -1.75537 7.96793 0
M  V30 5601 P 990.334 -2.75334 8.47391 0
M  V30 5602 O 990.554 -3.84128 9.44797 0
M  V30 5603 O 991.124 -1.51947 8.68712 0
M  V30 5604 O 990.584 -3.29363 6.99321 0
M  V30 5605 C 989.644 -4.24011 6.4274 0
M  V30 5606 C 990.374 -5.20775 5.52155 0
M  V30 5607 O 990.584 -4.56534 4.22446 0
M  V30 5608 C 991.774 -5.62629 5.96531 0
M  V30 5609 O 992.164 -6.87667 5.41053 0
M  V30 5610 C 992.654 -4.52537 5.39283 0
M  V30 5611 C 991.944 -4.20027 4.08623 0
M  V30 5612 N 991.994 -2.76189 3.71603 0
M  V30 5613 H 989.155 -4.797 7.24003 0
M  V30 5614 H 988.885 -3.69856 5.84513 0
M  V30 5615 H 989.752 -6.10356 5.41441 0
M  V30 5616 P 993.714 -7.20834 5.23717 0
M  V30 5617 O 993.934 -8.66189 5.38625 0
M  V30 5618 O 994.504 -6.33615 6.1356 0
M  V30 5619 O 993.964 -6.7751 3.72168 0
M  V30 5620 C 993.024 -7.20732 2.70725 0
M  V30 5621 C 993.754 -7.45864 1.40599 0
M  V30 5622 O 993.964 -6.17651 0.734225 0
M  V30 5623 C 995.154 -8.05808 1.51899 0
M  V30 5624 O 995.544 -8.74358 0.335205 0
M  V30 5625 C 996.034 -6.83093 1.70294 0
M  V30 5626 C 995.324 -5.79992 0.836974 0
M  V30 5627 N 995.374 -4.41769 1.38263 0
M  V30 5628 C 995.524 -3.38591 0.481702 0
M  V30 5629 O 995.614 -3.56839 -0.718452 0
M  V30 5630 N 995.564 -2.1206 1.03569 0
M  V30 5631 C 995.474 -1.80696 2.36966 0
M  V30 5632 C 995.324 -2.94845 3.23898 0
M  V30 5633 C 995.274 -4.19803 2.73435 0
M  V30 5634 H 992.534 -8.13644 3.0377 0
M  V30 5635 H 992.265 -6.42695 2.55448 0
M  V30 5636 H 993.132 -8.12039 0.792769 0
M  V30 5637 H 995.787 -5.79978 -0.160587 0
M  V30 5638 H 996.066 -6.51379 2.75643 0
M  V30 5639 H 997.058 -7.01734 1.34462 0
M  V30 5640 H 995.224 -8.73674 2.38337 0
M  V30 5641 H 995.153 -5.04492 3.4095 0
M  V30 5642 P 997.094 -8.91 -7.50109e-12 0
M  V30 5643 O 997.314 -10.1736 -0.733766 0
M  V30 5644 O 997.884 -8.73247 1.2395 0
M  V30 5645 O 997.344 -7.66872 -0.971405 0
M  V30 5646 C 996.404 -7.42212 -2.04614 0
M  V30 5647 C 997.134 -6.86059 -3.24661 0
M  V30 5648 O 997.344 -5.42847 -3.03646 0
M  V30 5649 C 998.534 -7.41196 -3.50753 0
M  V30 5650 O 998.924 -7.27073 -4.86816 0
M  V30 5651 C 999.414 -6.5273 -2.63741 0
M  V30 5652 C 998.704 -5.1842 -2.73198 0
M  V30 5653 N 998.754 -4.38668 -1.47808 0
M  V30 5654 C 998.904 -3.02239 -1.60048 0
M  V30 5655 O 998.994 -2.46459 -2.67869 0
M  V30 5656 N 998.944 -2.32436 -0.408571 0
M  V30 5657 C 998.854 -2.85471 0.854993 0
M  V30 5658 C 998.704 -4.28918 0.887335 0
M  V30 5659 C 998.654 -5.00349 -0.255399 0
M  V30 5660 H 995.914 -8.36803 -2.32493 0
M  V30 5661 H 995.645 -6.701 -1.71105 0
M  V30 5662 H 996.512 -7.03551 -4.13168 0
M  V30 5663 H 999.167 -4.59773 -3.53894 0
M  V30 5664 H 999.446 -6.88995 -1.59871 0
M  V30 5665 H 1000.44 -6.46749 -3.03687 0
M  V30 5666 H 998.604 -8.46908 -3.20714 0
M  V30 5667 H 998.533 -6.08548 -0.206986 0
M  V30 5668 P 1000.47 -7.20834 -5.23717 0
M  V30 5669 O 1000.69 -7.79853 -6.57286 0
M  V30 5670 O 1001.26 -7.79239 -4.12957 0
M  V30 5671 O 1000.72 -5.63315 -5.29344 0
M  V30 5672 C 999.784 -4.80255 -6.01876 0
M  V30 5673 C 1000.51 -3.64202 -6.65911 0
M  V30 5674 O 1000.72 -2.60694 -5.64732 0
M  V30 5675 C 1001.91 -3.93473 -7.1943 0
M  V30 5676 O 1002.3 -3.02071 -8.21205 0
M  V30 5677 C 1002.79 -3.73047 -5.97036 0
M  V30 5678 C 1002.08 -2.58828 -5.25741 0
M  V30 5679 N 1002.13 -2.68068 -3.77503 0
M  V30 5680 H 999.295 -5.40332 -6.79951 0
M  V30 5681 H 999.025 -4.41613 -5.32378 0
M  V30 5682 H 999.892 -3.26331 -7.47797 0
M  V30 5683 P 1003.85 -2.75334 -8.47391 0
M  V30 5684 O 1004.07 -2.44571 -9.90142 0
M  V30 5685 O 1004.64 -3.87688 -7.92115 0
M  V30 5686 O 1004.1 -1.4459 -7.59357 0
M  V30 5687 C 1003.16 -0.347608 -7.69215 0
M  V30 5688 C 1003.89 0.96767 -7.52806 0
M  V30 5689 O 1004.1 1.21036 -6.1011 0
M  V30 5690 C 1005.29 1.04544 -8.13308 0
M  V30 5691 O 1005.68 2.38311 -8.41922 0
M  V30 5692 C 1006.17 0.491279 -7.02284 0
M  V30 5693 C 1005.46 0.996264 -5.77469 0
M  V30 5694 N 1005.51 0.0501916 -4.62973 0
M  V30 5695 H 1002.68 -0.374722 -8.67691 0
M  V30 5696 H 1002.41 -0.443485 -6.90277 0
M  V30 5697 H 1003.27 1.75537 -7.96793 0
M  V30 5698 P 1007.23 2.75334 -8.47391 0
M  V30 5699 O 1007.45 3.84128 -9.44797 0
M  V30 5700 O 1008.02 1.51947 -8.68712 0
M  V30 5701 O 1007.48 3.29363 -6.99321 0
M  V30 5702 C 1006.54 4.24011 -6.4274 0
M  V30 5703 C 1007.27 5.20775 -5.52155 0
M  V30 5704 O 1007.48 4.56534 -4.22446 0
M  V30 5705 C 1008.67 5.62629 -5.96531 0
M  V30 5706 O 1009.06 6.87667 -5.41053 0
M  V30 5707 C 1009.55 4.52537 -5.39283 0
M  V30 5708 C 1008.84 4.20027 -4.08623 0
M  V30 5709 N 1008.89 2.76189 -3.71603 0
M  V30 5710 H 1006.06 4.797 -7.24003 0
M  V30 5711 H 1005.79 3.69856 -5.84513 0
M  V30 5712 H 1006.65 6.10356 -5.41441 0
M  V30 5713 P 1010.61 7.20834 -5.23717 0
M  V30 5714 O 1010.83 8.66104 -5.38572 0
M  V30 5715 O 1011.4 6.33544 -6.1349 0
M  V30 5716 O 1010.86 6.7751 -3.72168 0
M  V30 5717 C 1009.92 7.20825 -2.7076 0
M  V30 5718 C 1010.65 7.45864 -1.40599 0
M  V30 5719 O 1010.86 6.17651 -0.734225 0
M  V30 5720 C 1012.05 8.05808 -1.51899 0
M  V30 5721 O 1012.44 8.74358 -0.335205 0
M  V30 5722 C 1012.93 6.83093 -1.70294 0
M  V30 5723 C 1012.22 5.79992 -0.836974 0
M  V30 5724 N 1012.27 4.41864 -1.38293 0
M  V30 5725 H 1009.44 8.13644 -3.0377 0
M  V30 5726 H 1009.17 6.42788 -2.55485 0
M  V30 5727 H 1010.03 8.12039 -0.792769 0
M  V30 5728 P 1013.99 8.91 7.65827e-12 0
M  V30 5729 O 1014.21 10.1726 0.733694 0
M  V30 5730 O 1014.78 8.73148 -1.23936 0
M  V30 5731 O 1014.24 7.66872 0.971405 0
M  V30 5732 C 1013.3 7.42309 2.04641 0
M  V30 5733 C 1014.03 6.86059 3.24661 0
M  V30 5734 O 1014.24 5.42847 3.03646 0
M  V30 5735 C 1015.43 7.41196 3.50753 0
M  V30 5736 O 1015.82 7.27073 4.86816 0
M  V30 5737 C 1016.31 6.5273 2.63741 0
M  V30 5738 C 1015.6 5.1842 2.73198 0
M  V30 5739 N 1015.65 4.38762 1.4784 0
M  V30 5740 H 1012.82 8.36803 2.32493 0
M  V30 5741 H 1012.55 6.70197 1.71129 0
M  V30 5742 H 1013.41 7.03551 4.13168 0
M  V30 5743 P 1017.37 7.20834 5.23717 0
M  V30 5744 O 1017.59 7.7993 6.57351 0
M  V30 5745 O 1018.16 7.79328 4.13004 0
M  V30 5746 O 1017.62 5.63315 5.29344 0
M  V30 5747 C 1016.68 4.80255 6.01876 0
M  V30 5748 C 1017.41 3.64202 6.65911 0
M  V30 5749 O 1017.62 2.60694 5.64732 0
M  V30 5750 C 1018.81 3.93473 7.1943 0
M  V30 5751 O 1019.2 3.02071 8.21205 0
M  V30 5752 C 1019.69 3.73047 5.97036 0
M  V30 5753 C 1018.98 2.58828 5.25741 0
M  V30 5754 N 1019.03 2.6801 3.77422 0
M  V30 5755 C 1019.18 1.50173 3.05038 0
M  V30 5756 O 1019.27 0.428832 3.665 0
M  V30 5757 N 1019.23 1.70922 1.55541 0
M  V30 5758 C 1019.13 2.7407 1.06402 0
M  V30 5759 N 1019.18 2.74764 -0.260931 0
M  V30 5760 C 1018.98 3.96781 1.78296 0
M  V30 5761 C 1018.93 3.87909 3.13891 0
M  V30 5762 H 1016.19 5.4027 6.79873 0
M  V30 5763 H 1015.92 4.41549 5.32301 0
M  V30 5764 H 1016.79 3.26371 7.47889 0
M  V30 5765 H 1019.45 1.63978 5.5665 0
M  V30 5766 H 1019.73 4.63439 5.3432 0
M  V30 5767 H 1020.72 3.44728 6.25838 0
M  V30 5768 H 1018.88 4.96652 7.57263 0
M  V30 5769 H 1018.81 4.78425 3.73088 0
M  V30 5770 H 1018.91 4.92593 1.26997 0
M  V30 5771 H 1019.3 1.86285 -0.77595 0
M  V30 5772 H 1019.1 3.63657 -0.773896 0
M  V30 5773 P 1020.75 2.75334 8.47391 0
M  V30 5774 O 1020.97 2.44571 9.90142 0
M  V30 5775 O 1021.54 3.87688 7.92115 0
M  V30 5776 O 1021 1.4459 7.59357 0
M  V30 5777 C 1020.06 0.347608 7.69215 0
M  V30 5778 C 1020.79 -0.96767 7.52806 0
M  V30 5779 O 1021 -1.21036 6.1011 0
M  V30 5780 C 1022.19 -1.04544 8.13308 0
M  V30 5781 O 1022.58 -2.38311 8.41922 0
M  V30 5782 C 1023.07 -0.491279 7.02284 0
M  V30 5783 C 1022.36 -0.996264 5.77469 0
M  V30 5784 N 1022.41 -0.0501916 4.62973 0
M  V30 5785 H 1019.57 0.374722 8.67691 0
M  V30 5786 H 1019.3 0.443485 6.90277 0
M  V30 5787 H 1020.17 -1.75537 7.96793 0
M  V30 5788 P 1024.13 -2.75334 8.47391 0
M  V30 5789 O 1024.35 -3.84166 9.4489 0
M  V30 5790 O 1024.92 -1.51964 8.6881 0
M  V30 5791 O 1024.38 -3.29363 6.99321 0
M  V30 5792 C 1023.44 -4.23956 6.42656 0
M  V30 5793 C 1024.17 -5.20775 5.52155 0
M  V30 5794 O 1024.38 -4.56534 4.22446 0
M  V30 5795 C 1025.57 -5.62629 5.96531 0
M  V30 5796 O 1025.96 -6.87667 5.41053 0
M  V30 5797 C 1026.45 -4.52537 5.39283 0
M  V30 5798 C 1025.74 -4.20027 4.08623 0
M  V30 5799 N 1025.79 -2.7613 3.71522 0
M  V30 5800 C 1025.94 -2.45612 2.37989 0
M  V30 5801 O 1026.03 -3.30919 1.51621 0
M  V30 5802 N 1025.98 -1.10684 2.08435 0
M  V30 5803 C 1025.89 -0.0690084 2.9792 0
M  V30 5804 O 1025.94 1.10553 2.59426 0
M  V30 5805 C 1025.74 -0.481522 4.35345 0
M  V30 5806 C 1025.63 0.618778 5.36443 0
M  V30 5807 C 1025.69 -1.78906 4.67968 0
M  V30 5808 H 1022.95 -4.797 7.24003 0
M  V30 5809 H 1022.68 -3.69802 5.84429 0
M  V30 5810 H 1023.55 -6.10356 5.41441 0
M  V30 5811 H 1026.21 -4.78651 3.27911 0
M  V30 5812 H 1026.49 -3.64957 6.05871 0
M  V30 5813 H 1027.48 -4.8868 5.2125 0
M  V30 5814 H 1025.64 -5.66726 7.06352 0
M  V30 5815 H 1025.57 -2.07737 5.72367 0
M  V30 5816 H 1026.6 0.754375 5.86871 0
M  V30 5817 H 1024.87 0.359721 6.10641 0
M  V30 5818 H 1025.35 1.55533 4.8581 0
M  V30 5819 H 1026.09 -0.862651 1.12037 0
M  V30 5820 P 1027.51 -7.20834 5.23717 0
M  V30 5821 O 1027.73 -8.66104 5.38572 0
M  V30 5822 O 1028.3 -6.33544 6.1349 0
M  V30 5823 O 1027.76 -6.7751 3.72168 0
M  V30 5824 C 1026.82 -7.20825 2.7076 0
M  V30 5825 C 1027.55 -7.45864 1.40599 0
M  V30 5826 O 1027.76 -6.17651 0.734225 0
M  V30 5827 C 1028.95 -8.05808 1.51899 0
M  V30 5828 O 1029.34 -8.74358 0.335205 0
M  V30 5829 C 1029.83 -6.83093 1.70294 0
M  V30 5830 C 1029.12 -5.79992 0.836974 0
M  V30 5831 N 1029.17 -4.41864 1.38293 0
M  V30 5832 C 1029.09 -3.99538 2.69438 0
M  V30 5833 N 1029.17 -2.69909 2.84277 0
M  V30 5834 C 1029.31 -2.21719 1.5408 0
M  V30 5835 C 1029.44 -0.891712 1.06628 0
M  V30 5836 N 1029.56 -0.856846 -0.334985 0
M  V30 5837 C 1029.56 -1.9641 -1.15789 0
M  V30 5838 N 1029.69 -1.72708 -2.46522 0
M  V30 5839 N 1029.43 -3.21165 -0.713741 0
M  V30 5840 C 1029.31 -3.26797 0.639748 0
M  V30 5841 H 1026.33 -8.13644 3.0377 0
M  V30 5842 H 1026.06 -6.42788 2.55485 0
M  V30 5843 H 1026.93 -8.12039 0.792769 0
M  V30 5844 P 1030.89 -8.91 -7.81545e-12 0
M  V30 5845 O 1031.11 -10.1746 -0.733838 0
M  V30 5846 O 1031.68 -8.73346 1.23964 0
M  V30 5847 O 1031.14 -7.66872 -0.971405 0
M  V30 5848 C 1030.2 -7.42405 -2.04668 0
M  V30 5849 C 1030.93 -6.86059 -3.24661 0
M  V30 5850 O 1031.14 -5.42934 -3.03695 0
M  V30 5851 C 1032.33 -7.41287 -3.50796 0
M  V30 5852 O 1032.72 -7.27073 -4.86816 0
M  V30 5853 C 1033.21 -6.5273 -2.63741 0
M  V30 5854 C 1032.5 -5.1842 -2.73198 0
M  V30 5855 N 1032.55 -4.38762 -1.4784 0
M  V30 5856 C 1032.47 -4.83651 -0.183876 0
M  V30 5857 N 1032.54 -3.88759 0.699393 0
M  V30 5858 C 1032.69 -2.7404 -0.0575568 0
M  V30 5859 C 1032.82 -1.37902 0.293928 0
M  V30 5860 N 1032.83 -0.938021 1.54797 0
M  V30 5861 N 1032.94 -0.491817 -0.70549 0
M  V30 5862 C 1032.93 -0.931735 -1.95979 0
M  V30 5863 N 1032.81 -2.16017 -2.41481 0
M  V30 5864 C 1032.69 -3.02547 -1.39121 0
M  V30 5865 H 1029.72 -8.36899 -2.3252 0
M  V30 5866 H 1029.44 -6.70391 -1.71179 0
M  V30 5867 H 1030.31 -7.03638 -4.13219 0
M  V30 5868 H 1032.97 -4.59931 -3.54016 0
M  V30 5869 H 1033.25 -6.88995 -1.59871 0
M  V30 5870 H 1034.24 -6.4684 -3.0373 0
M  V30 5871 H 1032.4 -8.47002 -3.20749 0
M  V30 5872 H 1032.36 -5.8885 0.0765548 0
M  V30 5873 H 1032.74 -1.60276 2.32875 0
M  V30 5874 H 1032.93 0.0699355 1.73859 0
M  V30 5875 H 1033.04 -0.165507 -2.71897 0
M  V30 5876 P 1034.27 -7.20834 -5.23717 0
M  V30 5877 O 1034.49 -7.79853 -6.57286 0
M  V30 5878 O 1035.06 -7.79239 -4.12957 0
M  V30 5879 O 1034.52 -5.63315 -5.29344 0
M  V30 5880 C 1033.58 -4.80255 -6.01876 0
M  V30 5881 C 1034.31 -3.64202 -6.65911 0
M  V30 5882 O 1034.52 -2.60694 -5.64732 0
M  V30 5883 C 1035.71 -3.93473 -7.1943 0
M  V30 5884 O 1036.1 -3.02071 -8.21205 0
M  V30 5885 C 1036.59 -3.73047 -5.97036 0
M  V30 5886 C 1035.88 -2.58828 -5.25741 0
M  V30 5887 N 1035.93 -2.68068 -3.77503 0
M  V30 5888 H 1033.09 -5.40332 -6.79951 0
M  V30 5889 H 1032.82 -4.41613 -5.32378 0
M  V30 5890 H 1033.69 -3.26331 -7.47797 0
M  V30 5891 P 1037.65 -2.75334 -8.47391 0
M  V30 5892 O 1037.87 -2.44619 -9.90336 0
M  V30 5893 O 1038.44 -3.87776 -7.92294 0
M  V30 5894 O 1037.9 -1.4459 -7.59357 0
M  V30 5895 C 1036.96 -0.347653 -7.69315 0
M  V30 5896 C 1037.69 0.96767 -7.52806 0
M  V30 5897 O 1037.9 1.21055 -6.10208 0
M  V30 5898 C 1039.09 1.04557 -8.13408 0
M  V30 5899 O 1039.48 2.38311 -8.41922 0
M  V30 5900 C 1039.97 0.491279 -7.02284 0
M  V30 5901 C 1039.26 0.996264 -5.77469 0
M  V30 5902 N 1039.31 0.0501916 -4.62973 0
M  V30 5903 C 1039.23 -1.31969 -4.65661 0
M  V30 5904 N 1039.3 -1.86649 -3.48119 0
M  V30 5905 C 1039.45 -0.792089 -2.62406 0
M  V30 5906 C 1039.58 -0.705684 -1.2207 0
M  V30 5907 N 1039.59 -1.76207 -0.413762 0
M  V30 5908 N 1039.7 0.518981 -0.685754 0
M  V30 5909 C 1039.69 1.57595 -1.49174 0
M  V30 5910 N 1039.57 1.62909 -2.80066 0
M  V30 5911 C 1039.45 0.388195 -3.3073 0
M  V30 5912 H 1036.48 -0.374765 -8.67791 0
M  V30 5913 H 1036.2 -0.443613 -6.90476 0
M  V30 5914 H 1037.07 1.75559 -7.96891 0
M  V30 5915 H 1039.73 1.94563 -5.46818 0
M  V30 5916 H 1040.01 -0.608651 -7.04676 0
M  V30 5917 H 1041 0.889796 -7.09039 0
M  V30 5918 H 1039.16 0.433128 -9.04664 0
M  V30 5919 H 1039.12 -1.89246 -5.57664 0
M  V30 5920 H 1039.5 -2.71005 -0.804694 0
M  V30 5921 H 1039.69 -1.63189 0.603768 0
M  V30 5922 H 1039.8 2.53475 -0.997614 0
M  V30 5923 P 1041.03 2.75334 -8.47391 0
M  V30 5924 O 1041.25 3.84128 -9.44797 0
M  V30 5925 O 1041.82 1.51947 -8.68712 0
M  V30 5926 O 1041.28 3.29363 -6.99321 0
M  V30 5927 C 1040.34 4.24011 -6.4274 0
M  V30 5928 C 1041.07 5.20775 -5.52155 0
M  V30 5929 O 1041.28 4.56534 -4.22446 0
M  V30 5930 C 1042.47 5.62629 -5.96531 0
M  V30 5931 O 1042.86 6.87667 -5.41053 0
M  V30 5932 C 1043.35 4.52537 -5.39283 0
M  V30 5933 C 1042.64 4.20027 -4.08623 0
M  V30 5934 N 1042.69 2.76189 -3.71603 0
M  V30 5935 H 1039.85 4.797 -7.24003 0
M  V30 5936 H 1039.58 3.69856 -5.84513 0
M  V30 5937 H 1040.45 6.10356 -5.41441 0
M  V30 5938 P 1044.41 7.20834 -5.23717 0
M  V30 5939 O 1044.63 8.66274 -5.38678 0
M  V30 5940 O 1045.2 6.33687 -6.13629 0
M  V30 5941 O 1044.66 6.7751 -3.72168 0
M  V30 5942 C 1043.72 7.20919 -2.70795 0
M  V30 5943 C 1044.45 7.45864 -1.40599 0
M  V30 5944 O 1044.66 6.17751 -0.734343 0
M  V30 5945 C 1045.85 8.05906 -1.51917 0
M  V30 5946 O 1046.24 8.74358 -0.335205 0
M  V30 5947 C 1046.73 6.83093 -1.70294 0
M  V30 5948 C 1046.02 5.79992 -0.836974 0
M  V30 5949 N 1046.07 4.41864 -1.38293 0
M  V30 5950 C 1045.99 4.02089 -2.69407 0
M  V30 5951 N 1046.06 2.73403 -2.85089 0
M  V30 5952 C 1046.21 2.25086 -1.5642 0
M  V30 5953 C 1046.34 0.942887 -1.04836 0
M  V30 5954 N 1046.35 -0.150999 -1.80369 0
M  V30 5955 N 1046.46 0.812565 0.28167 0
M  V30 5956 C 1046.45 1.90572 1.03784 0
M  V30 5957 N 1046.33 3.167 0.683905 0
M  V30 5958 C 1046.21 3.26538 -0.652815 0
M  V30 5959 H 1043.24 8.13738 -3.03804 0
M  V30 5960 H 1042.96 6.42974 -2.55559 0
M  V30 5961 H 1043.83 8.12139 -0.792866 0
M  V30 5962 H 1046.49 5.80178 0.160643 0
M  V30 5963 H 1046.77 6.51379 -2.75643 0
M  V30 5964 H 1047.76 7.01832 -1.3448 0
M  V30 5965 H 1045.92 8.73771 -2.38364 0
M  V30 5966 H 1045.88 4.7189 -3.52311 0
M  V30 5967 H 1046.26 -0.0721434 -2.82608 0
M  V30 5968 H 1046.45 -1.0785 -1.36544 0
M  V30 5969 H 1046.56 1.73207 2.10241 0
M  V30 5970 P 1047.79 8.91 7.97264e-12 0
M  V30 5971 O 1048.01 10.1726 0.733694 0
M  V30 5972 O 1048.58 8.73148 -1.23936 0
M  V30 5973 O 1048.04 7.66872 0.971405 0
M  V30 5974 C 1047.1 7.42309 2.04641 0
M  V30 5975 C 1047.83 6.86059 3.24661 0
M  V30 5976 O 1048.04 5.42847 3.03646 0
M  V30 5977 C 1049.23 7.41196 3.50753 0
M  V30 5978 O 1049.62 7.27073 4.86816 0
M  V30 5979 C 1050.11 6.5273 2.63741 0
M  V30 5980 C 1049.4 5.1842 2.73198 0
M  V30 5981 N 1049.45 4.38762 1.4784 0
M  V30 5982 H 1046.61 8.36803 2.32493 0
M  V30 5983 H 1046.34 6.70197 1.71129 0
M  V30 5984 H 1047.21 7.03551 4.13168 0
M  V30 5985 P 1051.17 7.20834 5.23717 0
M  V30 5986 O 1051.39 7.79853 6.57286 0
M  V30 5987 O 1051.96 7.79239 4.12957 0
M  V30 5988 O 1051.42 5.63315 5.29344 0
M  V30 5989 C 1050.48 4.80255 6.01876 0
M  V30 5990 C 1051.21 3.64202 6.65911 0
M  V30 5991 O 1051.42 2.60694 5.64732 0
M  V30 5992 C 1052.61 3.93473 7.1943 0
M  V30 5993 O 1053 3.02071 8.21205 0
M  V30 5994 C 1053.49 3.73047 5.97036 0
M  V30 5995 C 1052.78 2.58828 5.25741 0
M  V30 5996 N 1052.83 2.68068 3.77503 0
M  V30 5997 H 1049.99 5.40332 6.79951 0
M  V30 5998 H 1049.72 4.41613 5.32378 0
M  V30 5999 H 1050.59 3.26331 7.47797 0
M  V30 6000 P 1054.55 2.75334 8.47391 0
M  V30 6001 O 1054.77 2.44571 9.90142 0
M  V30 6002 O 1055.34 3.87688 7.92115 0
M  V30 6003 O 1054.8 1.4459 7.59357 0
M  V30 6004 C 1053.86 0.347608 7.69215 0
M  V30 6005 C 1054.59 -0.96767 7.52806 0
M  V30 6006 O 1054.8 -1.21036 6.1011 0
M  V30 6007 C 1055.99 -1.04544 8.13308 0
M  V30 6008 O 1056.38 -2.38311 8.41922 0
M  V30 6009 C 1056.87 -0.491279 7.02284 0
M  V30 6010 C 1056.16 -0.996264 5.77469 0
M  V30 6011 N 1056.21 -0.0501916 4.62973 0
M  V30 6012 H 1053.37 0.374722 8.67691 0
M  V30 6013 H 1053.1 0.443485 6.90277 0
M  V30 6014 H 1053.97 -1.75537 7.96793 0
M  V30 6015 P 1057.93 -2.75334 8.47391 0
M  V30 6016 O 1058.15 -3.84128 9.44797 0
M  V30 6017 O 1058.72 -1.51947 8.68712 0
M  V30 6018 O 1058.18 -3.29363 6.99321 0
M  V30 6019 C 1057.24 -4.24011 6.4274 0
M  V30 6020 C 1057.97 -5.20775 5.52155 0
M  V30 6021 O 1058.18 -4.56534 4.22446 0
M  V30 6022 C 1059.37 -5.62629 5.96531 0
M  V30 6023 O 1059.76 -6.87667 5.41053 0
M  V30 6024 C 1060.25 -4.52537 5.39283 0
M  V30 6025 C 1059.54 -4.20027 4.08623 0
M  V30 6026 N 1059.59 -2.76189 3.71603 0
M  V30 6027 H 1056.75 -4.797 7.24003 0
M  V30 6028 H 1056.48 -3.69856 5.84513 0
M  V30 6029 H 1057.35 -6.10356 5.41441 0
M  V30 6030 P 1061.31 -7.20834 5.23717 0
M  V30 6031 O 1061.53 -8.66104 5.38572 0
M  V30 6032 O 1062.1 -6.33544 6.1349 0
M  V30 6033 O 1061.56 -6.7751 3.72168 0
M  V30 6034 C 1060.62 -7.20825 2.7076 0
M  V30 6035 C 1061.35 -7.45864 1.40599 0
M  V30 6036 O 1061.56 -6.17651 0.734225 0
M  V30 6037 C 1062.75 -8.05808 1.51899 0
M  V30 6038 O 1063.14 -8.74358 0.335205 0
M  V30 6039 C 1063.63 -6.83093 1.70294 0
M  V30 6040 C 1062.92 -5.79992 0.836974 0
M  V30 6041 N 1062.97 -4.41864 1.38293 0
M  V30 6042 H 1060.13 -8.13644 3.0377 0
M  V30 6043 H 1059.86 -6.42788 2.55485 0
M  V30 6044 H 1060.73 -8.12039 0.792769 0
M  V30 6045 P 1064.69 -8.91 -8.12982e-12 0
M  V30 6046 O 1064.91 -10.1726 -0.733694 0
M  V30 6047 O 1065.48 -8.73148 1.23936 0
M  V30 6048 O 1064.94 -7.66872 -0.971405 0
M  V30 6049 C 1064 -7.42309 -2.04641 0
M  V30 6050 C 1064.73 -6.86059 -3.24661 0
M  V30 6051 O 1064.94 -5.42847 -3.03646 0
M  V30 6052 C 1066.13 -7.41196 -3.50753 0
M  V30 6053 O 1066.52 -7.27073 -4.86816 0
M  V30 6054 C 1067.01 -6.5273 -2.63741 0
M  V30 6055 C 1066.3 -5.1842 -2.73198 0
M  V30 6056 N 1066.35 -4.38762 -1.4784 0
M  V30 6057 H 1063.51 -8.36803 -2.32493 0
M  V30 6058 H 1063.24 -6.70197 -1.71129 0
M  V30 6059 H 1064.11 -7.03551 -4.13168 0
M  V30 6060 P 1068.07 -7.20834 -5.23717 0
M  V30 6061 O 1068.29 -7.79853 -6.57286 0
M  V30 6062 O 1068.86 -7.79239 -4.12957 0
M  V30 6063 O 1068.32 -5.63315 -5.29344 0
M  V30 6064 C 1067.38 -4.80255 -6.01876 0
M  V30 6065 C 1068.11 -3.64202 -6.65911 0
M  V30 6066 O 1068.32 -2.60694 -5.64732 0
M  V30 6067 C 1069.51 -3.93473 -7.1943 0
M  V30 6068 O 1069.9 -3.02071 -8.21205 0
M  V30 6069 C 1070.39 -3.73047 -5.97036 0
M  V30 6070 C 1069.68 -2.58828 -5.25741 0
M  V30 6071 N 1069.73 -2.68068 -3.77503 0
M  V30 6072 H 1066.89 -5.40332 -6.79951 0
M  V30 6073 H 1066.62 -4.41613 -5.32378 0
M  V30 6074 H 1067.49 -3.26331 -7.47797 0
M  V30 6075 P 1071.45 -2.75334 -8.47391 0
M  V30 6076 O 1071.67 -2.44619 -9.90336 0
M  V30 6077 O 1072.24 -3.87776 -7.92294 0
M  V30 6078 O 1071.7 -1.4459 -7.59357 0
M  V30 6079 C 1070.76 -0.347653 -7.69315 0
M  V30 6080 C 1071.49 0.96767 -7.52806 0
M  V30 6081 O 1071.7 1.21055 -6.10208 0
M  V30 6082 C 1072.89 1.04557 -8.13408 0
M  V30 6083 O 1073.28 2.38311 -8.41922 0
M  V30 6084 C 1073.77 0.491279 -7.02284 0
M  V30 6085 C 1073.06 0.996264 -5.77469 0
M  V30 6086 N 1073.11 0.0501916 -4.62973 0
M  V30 6087 C 1073.03 -1.31969 -4.65661 0
M  V30 6088 N 1073.1 -1.86649 -3.48119 0
M  V30 6089 C 1073.25 -0.792089 -2.62406 0
M  V30 6090 C 1073.38 -0.705684 -1.2207 0
M  V30 6091 N 1073.39 -1.76207 -0.413762 0
M  V30 6092 N 1073.5 0.518981 -0.685754 0
M  V30 6093 C 1073.49 1.57595 -1.49174 0
M  V30 6094 N 1073.37 1.62909 -2.80066 0
M  V30 6095 C 1073.25 0.388195 -3.3073 0
M  V30 6096 H 1070.28 -0.374765 -8.67791 0
M  V30 6097 H 1070 -0.443613 -6.90476 0
M  V30 6098 H 1070.87 1.75559 -7.96891 0
M  V30 6099 H 1073.53 1.94563 -5.46818 0
M  V30 6100 H 1073.81 -0.608651 -7.04676 0
M  V30 6101 H 1074.8 0.889796 -7.09039 0
M  V30 6102 H 1072.96 0.433128 -9.04664 0
M  V30 6103 H 1072.92 -1.89246 -5.57664 0
M  V30 6104 H 1073.3 -2.71005 -0.804694 0
M  V30 6105 H 1073.49 -1.63189 0.603768 0
M  V30 6106 H 1073.6 2.53475 -0.997614 0
M  V30 6107 P 1074.83 2.75334 -8.47391 0
M  V30 6108 O 1075.05 3.84128 -9.44797 0
M  V30 6109 O 1075.62 1.51947 -8.68712 0
M  V30 6110 O 1075.08 3.29363 -6.99321 0
M  V30 6111 C 1074.14 4.24011 -6.4274 0
M  V30 6112 C 1074.87 5.20775 -5.52155 0
M  V30 6113 O 1075.08 4.56534 -4.22446 0
M  V30 6114 C 1076.27 5.62629 -5.96531 0
M  V30 6115 O 1076.66 6.87667 -5.41053 0
M  V30 6116 C 1077.15 4.52537 -5.39283 0
M  V30 6117 C 1076.44 4.20027 -4.08623 0
M  V30 6118 N 1076.49 2.76189 -3.71603 0
M  V30 6119 H 1073.65 4.797 -7.24003 0
M  V30 6120 H 1073.38 3.69856 -5.84513 0
M  V30 6121 H 1074.25 6.10356 -5.41441 0
M  V30 6122 P 1078.21 7.20834 -5.23717 0
M  V30 6123 O 1078.43 8.66274 -5.38678 0
M  V30 6124 O 1079 6.33687 -6.13629 0
M  V30 6125 O 1078.46 6.7751 -3.72168 0
M  V30 6126 C 1077.52 7.20919 -2.70795 0
M  V30 6127 C 1078.25 7.45864 -1.40599 0
M  V30 6128 O 1078.46 6.17751 -0.734343 0
M  V30 6129 C 1079.65 8.05906 -1.51917 0
M  V30 6130 O 1080.04 8.74358 -0.335205 0
M  V30 6131 C 1080.53 6.83093 -1.70294 0
M  V30 6132 C 1079.82 5.79992 -0.836974 0
M  V30 6133 N 1079.87 4.41864 -1.38293 0
M  V30 6134 H 1077.04 8.13738 -3.03804 0
M  V30 6135 H 1076.76 6.42974 -2.55559 0
M  V30 6136 H 1077.63 8.12139 -0.792866 0
M  V30 6137 H 1080.29 5.80178 0.160643 0
M  V30 6138 H 1080.57 6.51379 -2.75643 0
M  V30 6139 H 1081.56 7.01832 -1.3448 0
M  V30 6140 H 1079.72 8.73771 -2.38364 0
M  V30 6141 P 1081.59 8.91 8.287e-12 0
M  V30 6142 O 1081.81 10.1746 0.733838 0
M  V30 6143 O 1082.38 8.73346 -1.23964 0
M  V30 6144 O 1081.84 7.66872 0.971405 0
M  V30 6145 C 1080.9 7.42405 2.04668 0
M  V30 6146 C 1081.63 6.86059 3.24661 0
M  V30 6147 O 1081.84 5.42934 3.03695 0
M  V30 6148 C 1083.03 7.41287 3.50796 0
M  V30 6149 O 1083.42 7.27073 4.86816 0
M  V30 6150 C 1083.91 6.5273 2.63741 0
M  V30 6151 C 1083.2 5.1842 2.73198 0
M  V30 6152 N 1083.25 4.38762 1.4784 0
M  V30 6153 C 1083.17 4.83651 0.183876 0
M  V30 6154 N 1083.24 3.88759 -0.699393 0
M  V30 6155 C 1083.39 2.7404 0.0575568 0
M  V30 6156 C 1083.52 1.37902 -0.293928 0
M  V30 6157 N 1083.53 0.938021 -1.54797 0
M  V30 6158 N 1083.64 0.491817 0.70549 0
M  V30 6159 C 1083.63 0.931735 1.95979 0
M  V30 6160 N 1083.51 2.16017 2.41481 0
M  V30 6161 C 1083.39 3.02547 1.39121 0
M  V30 6162 H 1080.42 8.36899 2.3252 0
M  V30 6163 H 1080.14 6.70391 1.71179 0
M  V30 6164 H 1081.01 7.03638 4.13219 0
M  V30 6165 H 1083.67 4.59931 3.54016 0
M  V30 6166 H 1083.95 6.88995 1.59871 0
M  V30 6167 H 1084.94 6.4684 3.0373 0
M  V30 6168 H 1083.1 8.47002 3.20749 0
M  V30 6169 H 1083.06 5.8885 -0.0765548 0
M  V30 6170 H 1083.44 1.60276 -2.32875 0
M  V30 6171 H 1083.63 -0.0699355 -1.73859 0
M  V30 6172 H 1083.74 0.165507 2.71897 0
M  V30 6173 P 1084.97 7.20834 5.23717 0
M  V30 6174 O 1085.19 7.79853 6.57286 0
M  V30 6175 O 1085.76 7.79239 4.12957 0
M  V30 6176 O 1085.22 5.63315 5.29344 0
M  V30 6177 C 1084.28 4.80255 6.01876 0
M  V30 6178 C 1085.01 3.64202 6.65911 0
M  V30 6179 O 1085.22 2.60694 5.64732 0
M  V30 6180 C 1086.41 3.93473 7.1943 0
M  V30 6181 O 1086.8 3.02071 8.21205 0
M  V30 6182 C 1087.29 3.73047 5.97036 0
M  V30 6183 C 1086.58 2.58828 5.25741 0
M  V30 6184 N 1086.63 2.68068 3.77503 0
M  V30 6185 H 1083.79 5.40332 6.79951 0
M  V30 6186 H 1083.52 4.41613 5.32378 0
M  V30 6187 H 1084.39 3.26331 7.47797 0
M  V30 6188 P 1088.35 2.75334 8.47391 0
M  V30 6189 O 1088.57 2.44571 9.90142 0
M  V30 6190 O 1089.14 3.87688 7.92115 0
M  V30 6191 O 1088.6 1.4459 7.59357 0
M  V30 6192 C 1087.66 0.347608 7.69215 0
M  V30 6193 C 1088.39 -0.96767 7.52806 0
M  V30 6194 O 1088.6 -1.21036 6.1011 0
M  V30 6195 C 1089.79 -1.04544 8.13308 0
M  V30 6196 O 1090.18 -2.38311 8.41922 0
M  V30 6197 C 1090.67 -0.491279 7.02284 0
M  V30 6198 C 1089.96 -0.996264 5.77469 0
M  V30 6199 N 1090.01 -0.0501916 4.62973 0
M  V30 6200 H 1087.17 0.374722 8.67691 0
M  V30 6201 H 1086.9 0.443485 6.90277 0
M  V30 6202 H 1087.77 -1.75537 7.96793 0
M  V30 6203 P 1091.73 -2.75334 8.47391 0
M  V30 6204 O 1091.95 -3.84128 9.44797 0
M  V30 6205 O 1092.52 -1.51947 8.68712 0
M  V30 6206 O 1091.98 -3.29363 6.99321 0
M  V30 6207 C 1091.04 -4.24011 6.4274 0
M  V30 6208 C 1091.77 -5.20775 5.52155 0
M  V30 6209 O 1091.98 -4.56534 4.22446 0
M  V30 6210 C 1093.17 -5.62629 5.96531 0
M  V30 6211 O 1093.56 -6.87667 5.41053 0
M  V30 6212 C 1094.05 -4.52537 5.39283 0
M  V30 6213 C 1093.34 -4.20027 4.08623 0
M  V30 6214 N 1093.39 -2.76189 3.71603 0
M  V30 6215 H 1090.55 -4.797 7.24003 0
M  V30 6216 H 1090.28 -3.69856 5.84513 0
M  V30 6217 H 1091.15 -6.10356 5.41441 0
M  V30 6218 P 1095.11 -7.20834 5.23717 0
M  V30 6219 O 1095.33 -8.66104 5.38572 0
M  V30 6220 O 1095.9 -6.33544 6.1349 0
M  V30 6221 O 1095.36 -6.7751 3.72168 0
M  V30 6222 C 1094.42 -7.20825 2.7076 0
M  V30 6223 C 1095.15 -7.45864 1.40599 0
M  V30 6224 O 1095.36 -6.17651 0.734225 0
M  V30 6225 C 1096.55 -8.05808 1.51899 0
M  V30 6226 O 1096.94 -8.74358 0.335205 0
M  V30 6227 C 1097.43 -6.83093 1.70294 0
M  V30 6228 C 1096.72 -5.79992 0.836974 0
M  V30 6229 N 1096.77 -4.41864 1.38293 0
M  V30 6230 H 1093.93 -8.13644 3.0377 0
M  V30 6231 H 1093.66 -6.42788 2.55485 0
M  V30 6232 H 1094.53 -8.12039 0.792769 0
M  V30 6233 P 1098.49 -8.91 -8.44418e-12 0
M  V30 6234 O 1098.71 -10.1746 -0.733838 0
M  V30 6235 O 1099.28 -8.73346 1.23964 0
M  V30 6236 O 1098.74 -7.66872 -0.971405 0
M  V30 6237 C 1097.8 -7.42405 -2.04668 0
M  V30 6238 C 1098.53 -6.86059 -3.24661 0
M  V30 6239 O 1098.74 -5.42934 -3.03695 0
M  V30 6240 C 1099.93 -7.41287 -3.50796 0
M  V30 6241 O 1100.32 -7.27073 -4.86816 0
M  V30 6242 C 1100.81 -6.5273 -2.63741 0
M  V30 6243 C 1100.1 -5.1842 -2.73198 0
M  V30 6244 N 1100.15 -4.38762 -1.4784 0
M  V30 6245 C 1100.07 -4.83651 -0.183876 0
M  V30 6246 N 1100.14 -3.88759 0.699393 0
M  V30 6247 C 1100.29 -2.7404 -0.0575568 0
M  V30 6248 C 1100.42 -1.37902 0.293928 0
M  V30 6249 N 1100.43 -0.938021 1.54797 0
M  V30 6250 N 1100.54 -0.491817 -0.70549 0
M  V30 6251 C 1100.53 -0.931735 -1.95979 0
M  V30 6252 N 1100.41 -2.16017 -2.41481 0
M  V30 6253 C 1100.29 -3.02547 -1.39121 0
M  V30 6254 H 1097.32 -8.36899 -2.3252 0
M  V30 6255 H 1097.04 -6.70391 -1.71179 0
M  V30 6256 H 1097.91 -7.03638 -4.13219 0
M  V30 6257 H 1100.57 -4.59931 -3.54016 0
M  V30 6258 H 1100.85 -6.88995 -1.59871 0
M  V30 6259 H 1101.84 -6.4684 -3.0373 0
M  V30 6260 H 1100 -8.47002 -3.20749 0
M  V30 6261 H 1099.96 -5.8885 0.0765548 0
M  V30 6262 H 1100.34 -1.60276 2.32875 0
M  V30 6263 H 1100.53 0.0699355 1.73859 0
M  V30 6264 H 1100.64 -0.165507 -2.71897 0
M  V30 6265 P 1101.87 -7.20834 -5.23717 0
M  V30 6266 O 1102.09 -7.79853 -6.57286 0
M  V30 6267 O 1102.66 -7.79239 -4.12957 0
M  V30 6268 O 1102.12 -5.63315 -5.29344 0
M  V30 6269 C 1101.18 -4.80255 -6.01876 0
M  V30 6270 C 1101.91 -3.64202 -6.65911 0
M  V30 6271 O 1102.12 -2.60694 -5.64732 0
M  V30 6272 C 1103.31 -3.93473 -7.1943 0
M  V30 6273 O 1103.7 -3.02071 -8.21205 0
M  V30 6274 C 1104.19 -3.73047 -5.97036 0
M  V30 6275 C 1103.48 -2.58828 -5.25741 0
M  V30 6276 N 1103.53 -2.68068 -3.77503 0
M  V30 6277 H 1100.69 -5.40332 -6.79951 0
M  V30 6278 H 1100.42 -4.41613 -5.32378 0
M  V30 6279 H 1101.29 -3.26331 -7.47797 0
M  V30 6280 P 1105.25 -2.75334 -8.47391 0
M  V30 6281 O 1105.47 -2.44571 -9.90142 0
M  V30 6282 O 1106.04 -3.87688 -7.92115 0
M  V30 6283 O 1105.5 -1.4459 -7.59357 0
M  V30 6284 C 1104.56 -0.347608 -7.69215 0
M  V30 6285 C 1105.29 0.96767 -7.52806 0
M  V30 6286 O 1105.5 1.21036 -6.1011 0
M  V30 6287 C 1106.69 1.04544 -8.13308 0
M  V30 6288 O 1107.08 2.38311 -8.41922 0
M  V30 6289 C 1107.57 0.491279 -7.02284 0
M  V30 6290 C 1106.86 0.996264 -5.77469 0
M  V30 6291 N 1106.91 0.0501916 -4.62973 0
M  V30 6292 H 1104.07 -0.374722 -8.67691 0
M  V30 6293 H 1103.8 -0.443485 -6.90277 0
M  V30 6294 H 1104.67 1.75537 -7.96793 0
M  V30 6295 P 1108.63 2.75334 -8.47391 0
M  V30 6296 O 1108.85 3.84166 -9.4489 0
M  V30 6297 O 1109.42 1.51964 -8.6881 0
M  V30 6298 O 1108.88 3.29363 -6.99321 0
M  V30 6299 C 1107.94 4.23956 -6.42656 0
M  V30 6300 C 1108.67 5.20775 -5.52155 0
M  V30 6301 O 1108.88 4.56534 -4.22446 0
M  V30 6302 C 1110.07 5.62629 -5.96531 0
M  V30 6303 O 1110.46 6.87667 -5.41053 0
M  V30 6304 C 1110.95 4.52537 -5.39283 0
M  V30 6305 C 1110.24 4.20027 -4.08623 0
M  V30 6306 N 1110.29 2.7613 -3.71522 0
M  V30 6307 C 1110.44 2.45612 -2.37989 0
M  V30 6308 O 1110.53 3.30919 -1.51621 0
M  V30 6309 N 1110.48 1.10684 -2.08435 0
M  V30 6310 C 1110.39 0.0690084 -2.9792 0
M  V30 6311 O 1110.44 -1.10553 -2.59426 0
M  V30 6312 C 1110.24 0.481522 -4.35345 0
M  V30 6313 C 1110.13 -0.618778 -5.36443 0
M  V30 6314 C 1110.19 1.78906 -4.67968 0
M  V30 6315 H 1107.45 4.797 -7.24003 0
M  V30 6316 H 1107.18 3.69802 -5.84429 0
M  V30 6317 H 1108.05 6.10356 -5.41441 0
M  V30 6318 H 1110.71 4.78651 -3.27911 0
M  V30 6319 H 1110.99 3.64957 -6.05871 0
M  V30 6320 H 1111.98 4.8868 -5.2125 0
M  V30 6321 H 1110.14 5.66726 -7.06352 0
M  V30 6322 H 1110.07 2.07737 -5.72367 0
M  V30 6323 H 1111.1 -0.754375 -5.86871 0
M  V30 6324 H 1109.37 -0.359721 -6.10641 0
M  V30 6325 H 1109.85 -1.55533 -4.8581 0
M  V30 6326 H 1110.59 0.862651 -1.12037 0
M  V30 6327 P 1112.01 7.20834 -5.23717 0
M  V30 6328 O 1112.23 8.66274 -5.38678 0
M  V30 6329 O 1112.8 6.33687 -6.13629 0
M  V30 6330 O 1112.26 6.7751 -3.72168 0
M  V30 6331 C 1111.32 7.20919 -2.70795 0
M  V30 6332 C 1112.05 7.45864 -1.40599 0
M  V30 6333 O 1112.26 6.17751 -0.734343 0
M  V30 6334 C 1113.45 8.05906 -1.51917 0
M  V30 6335 O 1113.84 8.74358 -0.335205 0
M  V30 6336 C 1114.33 6.83093 -1.70294 0
M  V30 6337 C 1113.62 5.79992 -0.836974 0
M  V30 6338 N 1113.67 4.41864 -1.38293 0
M  V30 6339 H 1110.84 8.13738 -3.03804 0
M  V30 6340 H 1110.56 6.42974 -2.55559 0
M  V30 6341 H 1111.43 8.12139 -0.792866 0
M  V30 6342 H 1114.09 5.80178 0.160643 0
M  V30 6343 H 1114.37 6.51379 -2.75643 0
M  V30 6344 H 1115.36 7.01832 -1.3448 0
M  V30 6345 H 1113.52 8.73771 -2.38364 0
M  V30 6346 P 1115.39 8.91 8.60137e-12 0
M  V30 6347 O 1115.61 10.1736 0.733766 0
M  V30 6348 O 1116.18 8.73247 -1.2395 0
M  V30 6349 O 1115.64 7.66872 0.971405 0
M  V30 6350 C 1114.7 7.42212 2.04614 0
M  V30 6351 C 1115.43 6.86059 3.24661 0
M  V30 6352 O 1115.64 5.42847 3.03646 0
M  V30 6353 C 1116.83 7.41196 3.50753 0
M  V30 6354 O 1117.22 7.27073 4.86816 0
M  V30 6355 C 1117.71 6.5273 2.63741 0
M  V30 6356 C 1117 5.1842 2.73198 0
M  V30 6357 N 1117.05 4.38668 1.47808 0
M  V30 6358 C 1117.2 3.02239 1.60048 0
M  V30 6359 O 1117.29 2.46459 2.67869 0
M  V30 6360 N 1117.24 2.32436 0.408571 0
M  V30 6361 C 1117.15 2.85471 -0.854993 0
M  V30 6362 O 1117.2 2.12566 -1.8531 0
M  V30 6363 C 1117 4.28918 -0.887335 0
M  V30 6364 C 1116.89 4.91066 -2.24619 0
M  V30 6365 C 1116.95 5.00349 0.255399 0
M  V30 6366 H 1114.21 8.36803 2.32493 0
M  V30 6367 H 1113.94 6.701 1.71105 0
M  V30 6368 H 1114.81 7.03551 4.13168 0
M  V30 6369 H 1117.47 4.59773 3.53894 0
M  V30 6370 H 1117.75 6.88995 1.59871 0
M  V30 6371 H 1118.74 6.46749 3.03687 0
M  V30 6372 H 1116.9 8.46908 3.20714 0
M  V30 6373 H 1116.83 6.08548 0.206986 0
M  V30 6374 H 1117.86 5.34836 -2.53099 0
M  V30 6375 H 1116.13 5.69638 -2.2291 0
M  V30 6376 H 1116.61 4.13971 -2.98044 0
M  V30 6377 H 1117.35 1.33211 0.474216 0
M  V30 6378 P 1118.77 7.20834 5.23717 0
M  V30 6379 O 1118.99 7.79853 6.57286 0
M  V30 6380 O 1119.56 7.79239 4.12957 0
M  V30 6381 O 1119.02 5.63315 5.29344 0
M  V30 6382 C 1118.08 4.80255 6.01876 0
M  V30 6383 C 1118.81 3.64202 6.65911 0
M  V30 6384 O 1119.02 2.60694 5.64732 0
M  V30 6385 C 1120.21 3.93473 7.1943 0
M  V30 6386 O 1120.6 3.02071 8.21205 0
M  V30 6387 C 1121.09 3.73047 5.97036 0
M  V30 6388 C 1120.38 2.58828 5.25741 0
M  V30 6389 N 1120.43 2.68068 3.77503 0
M  V30 6390 C 1120.35 3.79715 2.96723 0
M  V30 6391 N 1120.43 3.5377 1.68852 0
M  V30 6392 C 1120.57 2.15054 1.63254 0
M  V30 6393 C 1120.7 1.28964 0.518571 0
M  V30 6394 O 1120.72 1.56826 -0.679156 0
M  V30 6395 N 1120.82 -0.0538097 0.918425 0
M  V30 6396 C 1120.82 -0.494275 2.22578 0
M  V30 6397 N 1120.95 -1.81086 2.40434 0
M  V30 6398 N 1120.69 0.313645 3.27502 0
M  V30 6399 C 1120.57 1.61829 2.91033 0
M  V30 6400 H 1117.59 5.40332 6.79951 0
M  V30 6401 H 1117.32 4.41613 5.32378 0
M  V30 6402 H 1118.19 3.26331 7.47797 0
M  V30 6403 H 1120.85 1.63422 5.56814 0
M  V30 6404 H 1121.13 4.63374 5.34244 0
M  V30 6405 H 1122.12 3.44728 6.25838 0
M  V30 6406 H 1120.28 4.96652 7.57263 0
M  V30 6407 H 1120.23 4.80617 3.3614 0
M  V30 6408 H 1120.92 -0.742702 0.199384 0
M  V30 6409 H 1120.95 -2.20598 3.35588 0
M  V30 6410 H 1121.05 -2.43518 1.58945 0
M  V30 6411 P 1122.15 2.75334 8.47391 0
M  V30 6412 O 1122.37 2.44571 9.90142 0
M  V30 6413 O 1122.94 3.87688 7.92115 0
M  V30 6414 O 1122.4 1.4459 7.59357 0
M  V30 6415 C 1121.46 0.347608 7.69215 0
M  V30 6416 C 1122.19 -0.96767 7.52806 0
M  V30 6417 O 1122.4 -1.21036 6.1011 0
M  V30 6418 C 1123.59 -1.04544 8.13308 0
M  V30 6419 O 1123.98 -2.38311 8.41922 0
M  V30 6420 C 1124.47 -0.491279 7.02284 0
M  V30 6421 C 1123.76 -0.996264 5.77469 0
M  V30 6422 N 1123.81 -0.0501916 4.62973 0
M  V30 6423 C 1123.73 1.32786 4.63244 0
M  V30 6424 N 1123.81 1.86957 3.44545 0
M  V30 6425 C 1123.95 0.780241 2.58481 0
M  V30 6426 C 1124.08 0.738536 1.17757 0
M  V30 6427 O 1124.1 1.66794 0.372349 0
M  V30 6428 N 1124.2 -0.58337 0.711393 0
M  V30 6429 C 1124.2 -1.70816 1.51017 0
M  V30 6430 N 1124.33 -2.87826 0.880757 0
M  V30 6431 N 1124.07 -1.67126 2.8339 0
M  V30 6432 C 1123.95 -0.401421 3.30572 0
M  V30 6433 H 1120.97 0.374722 8.67691 0
M  V30 6434 H 1120.7 0.443485 6.90277 0
M  V30 6435 H 1121.57 -1.75537 7.96793 0
M  V30 6436 H 1124.23 -1.95076 5.46529 0
M  V30 6437 H 1124.51 0.608565 7.04577 0
M  V30 6438 H 1125.5 -0.889672 7.08939 0
M  V30 6439 H 1123.66 -0.43308 9.04564 0
M  V30 6440 H 1123.61 1.91249 5.54442 0
M  V30 6441 H 1124.3 -0.718054 -0.275244 0
M  V30 6442 H 1124.33 -3.75721 1.41832 0
M  V30 6443 H 1124.43 -2.90436 -0.145468 0
M  V30 6444 P 1125.53 -2.75334 8.47391 0
M  V30 6445 O 1125.75 -3.84128 9.44797 0
M  V30 6446 O 1126.32 -1.51947 8.68712 0
M  V30 6447 O 1125.78 -3.29363 6.99321 0
M  V30 6448 C 1124.84 -4.24011 6.4274 0
M  V30 6449 C 1125.57 -5.20775 5.52155 0
M  V30 6450 O 1125.78 -4.56534 4.22446 0
M  V30 6451 C 1126.97 -5.62629 5.96531 0
M  V30 6452 O 1127.36 -6.87667 5.41053 0
M  V30 6453 C 1127.85 -4.52537 5.39283 0
M  V30 6454 C 1127.14 -4.20027 4.08623 0
M  V30 6455 N 1127.19 -2.76189 3.71603 0
M  V30 6456 H 1124.35 -4.797 7.24003 0
M  V30 6457 H 1124.08 -3.69856 5.84513 0
M  V30 6458 H 1124.95 -6.10356 5.41441 0
M  V30 6459 P 1128.91 -7.20834 5.23717 0
M  V30 6460 O 1129.13 -8.66104 5.38572 0
M  V30 6461 O 1129.7 -6.33544 6.1349 0
M  V30 6462 O 1129.16 -6.7751 3.72168 0
M  V30 6463 C 1128.22 -7.20825 2.7076 0
M  V30 6464 C 1128.95 -7.45864 1.40599 0
M  V30 6465 O 1129.16 -6.17651 0.734225 0
M  V30 6466 C 1130.35 -8.05808 1.51899 0
M  V30 6467 O 1130.74 -8.74358 0.335205 0
M  V30 6468 C 1131.23 -6.83093 1.70294 0
M  V30 6469 C 1130.52 -5.79992 0.836974 0
M  V30 6470 N 1130.57 -4.41864 1.38293 0
M  V30 6471 C 1130.49 -3.99538 2.69438 0
M  V30 6472 N 1130.57 -2.69909 2.84277 0
M  V30 6473 C 1130.71 -2.21719 1.5408 0
M  V30 6474 C 1130.84 -0.891712 1.06628 0
M  V30 6475 N 1130.96 -0.856846 -0.334985 0
M  V30 6476 C 1130.96 -1.9641 -1.15789 0
M  V30 6477 N 1131.09 -1.72708 -2.46522 0
M  V30 6478 N 1130.83 -3.21165 -0.713741 0
M  V30 6479 C 1130.71 -3.26797 0.639748 0
M  V30 6480 H 1127.73 -8.13644 3.0377 0
M  V30 6481 H 1127.46 -6.42788 2.55485 0
M  V30 6482 H 1128.33 -8.12039 0.792769 0
M  V30 6483 P 1132.29 -8.91 -8.75855e-12 0
M  V30 6484 O 1132.51 -10.1726 -0.733694 0
M  V30 6485 O 1133.08 -8.73148 1.23936 0
M  V30 6486 O 1132.54 -7.66872 -0.971405 0
M  V30 6487 C 1131.6 -7.42309 -2.04641 0
M  V30 6488 C 1132.33 -6.86059 -3.24661 0
M  V30 6489 O 1132.54 -5.42847 -3.03646 0
M  V30 6490 C 1133.73 -7.41196 -3.50753 0
M  V30 6491 O 1134.12 -7.27073 -4.86816 0
M  V30 6492 C 1134.61 -6.5273 -2.63741 0
M  V30 6493 C 1133.9 -5.1842 -2.73198 0
M  V30 6494 N 1133.95 -4.38762 -1.4784 0
M  V30 6495 C 1133.87 -4.81605 -0.168631 0
M  V30 6496 N 1133.95 -3.85454 0.713363 0
M  V30 6497 C 1134.09 -2.6994 -0.0566958 0
M  V30 6498 C 1134.22 -1.34815 0.338502 0
M  V30 6499 N 1134.34 -0.496304 -0.77465 0
M  V30 6500 C 1134.34 -0.908403 -2.09122 0
M  V30 6501 N 1134.47 0.0517805 -3.00955 0
M  V30 6502 N 1134.21 -2.17875 -2.46519 0
M  V30 6503 C 1134.09 -3.01988 -1.4033 0
M  V30 6504 H 1131.11 -8.36803 -2.32493 0
M  V30 6505 H 1130.84 -6.70197 -1.71129 0
M  V30 6506 H 1131.71 -7.03551 -4.13168 0
M  V30 6507 P 1135.67 -7.20834 -5.23717 0
M  V30 6508 O 1135.89 -7.79853 -6.57286 0
M  V30 6509 O 1136.46 -7.79239 -4.12957 0
M  V30 6510 O 1135.92 -5.63315 -5.29344 0
M  V30 6511 C 1134.98 -4.80255 -6.01876 0
M  V30 6512 C 1135.71 -3.64202 -6.65911 0
M  V30 6513 O 1135.92 -2.60694 -5.64732 0
M  V30 6514 C 1137.11 -3.93473 -7.1943 0
M  V30 6515 O 1137.5 -3.02071 -8.21205 0
M  V30 6516 C 1137.99 -3.73047 -5.97036 0
M  V30 6517 C 1137.28 -2.58828 -5.25741 0
M  V30 6518 N 1137.33 -2.68068 -3.77503 0
M  V30 6519 C 1137.25 -3.79715 -2.96723 0
M  V30 6520 N 1137.33 -3.5377 -1.68852 0
M  V30 6521 C 1137.47 -2.15054 -1.63254 0
M  V30 6522 C 1137.6 -1.28964 -0.518571 0
M  V30 6523 O 1137.62 -1.56826 0.679156 0
M  V30 6524 N 1137.72 0.0538097 -0.918425 0
M  V30 6525 C 1137.72 0.494275 -2.22578 0
M  V30 6526 N 1137.85 1.81086 -2.40434 0
M  V30 6527 N 1137.59 -0.313645 -3.27502 0
M  V30 6528 C 1137.47 -1.61829 -2.91033 0
M  V30 6529 H 1134.49 -5.40332 -6.79951 0
M  V30 6530 H 1134.22 -4.41613 -5.32378 0
M  V30 6531 H 1135.09 -3.26331 -7.47797 0
M  V30 6532 H 1137.75 -1.63422 -5.56814 0
M  V30 6533 H 1138.03 -4.63374 -5.34244 0
M  V30 6534 H 1139.02 -3.44728 -6.25838 0
M  V30 6535 H 1137.18 -4.96652 -7.57263 0
M  V30 6536 H 1137.13 -4.80617 -3.3614 0
M  V30 6537 H 1137.82 0.742702 -0.199384 0
M  V30 6538 H 1137.85 2.20598 -3.35588 0
M  V30 6539 H 1137.95 2.43518 -1.58945 0
M  V30 6540 P 1139.05 -2.75334 -8.47391 0
M  V30 6541 O 1139.27 -2.44571 -9.90142 0
M  V30 6542 O 1139.84 -3.87688 -7.92115 0
M  V30 6543 O 1139.3 -1.4459 -7.59357 0
M  V30 6544 C 1138.36 -0.347608 -7.69215 0
M  V30 6545 C 1139.09 0.96767 -7.52806 0
M  V30 6546 O 1139.3 1.21036 -6.1011 0
M  V30 6547 C 1140.49 1.04544 -8.13308 0
M  V30 6548 O 1140.88 2.38311 -8.41922 0
M  V30 6549 C 1141.37 0.491279 -7.02284 0
M  V30 6550 C 1140.66 0.996264 -5.77469 0
M  V30 6551 N 1140.71 0.0501916 -4.62973 0
M  V30 6552 H 1137.87 -0.374722 -8.67691 0
M  V30 6553 H 1137.6 -0.443485 -6.90277 0
M  V30 6554 H 1138.47 1.75537 -7.96793 0
M  V30 6555 P 1142.43 2.75334 -8.47391 0
M  V30 6556 O 1142.65 3.84128 -9.44797 0
M  V30 6557 O 1143.22 1.51947 -8.68712 0
M  V30 6558 O 1142.68 3.29363 -6.99321 0
M  V30 6559 C 1141.74 4.24011 -6.4274 0
M  V30 6560 C 1142.47 5.20775 -5.52155 0
M  V30 6561 O 1142.68 4.56534 -4.22446 0
M  V30 6562 C 1143.87 5.62629 -5.96531 0
M  V30 6563 O 1144.26 6.87667 -5.41053 0
M  V30 6564 C 1144.75 4.52537 -5.39283 0
M  V30 6565 C 1144.04 4.20027 -4.08623 0
M  V30 6566 N 1144.09 2.76189 -3.71603 0
M  V30 6567 H 1141.25 4.797 -7.24003 0
M  V30 6568 H 1140.98 3.69856 -5.84513 0
M  V30 6569 H 1141.85 6.10356 -5.41441 0
M  V30 6570 P 1145.81 7.20834 -5.23717 0
M  V30 6571 O 1146.03 8.66274 -5.38678 0
M  V30 6572 O 1146.6 6.33687 -6.13629 0
M  V30 6573 O 1146.06 6.7751 -3.72168 0
M  V30 6574 C 1145.12 7.20919 -2.70795 0
M  V30 6575 C 1145.85 7.45864 -1.40599 0
M  V30 6576 O 1146.06 6.17751 -0.734343 0
M  V30 6577 C 1147.25 8.05906 -1.51917 0
M  V30 6578 O 1147.64 8.74358 -0.335205 0
M  V30 6579 C 1148.13 6.83093 -1.70294 0
M  V30 6580 C 1147.42 5.79992 -0.836974 0
M  V30 6581 N 1147.47 4.41864 -1.38293 0
M  V30 6582 H 1144.64 8.13738 -3.03804 0
M  V30 6583 H 1144.36 6.42974 -2.55559 0
M  V30 6584 H 1145.23 8.12139 -0.792866 0
M  V30 6585 H 1147.89 5.80178 0.160643 0
M  V30 6586 H 1148.17 6.51379 -2.75643 0
M  V30 6587 H 1149.16 7.01832 -1.3448 0
M  V30 6588 H 1147.32 8.73771 -2.38364 0
M  V30 6589 P 1149.19 8.91 8.91573e-12 0
M  V30 6590 O 1149.41 10.1726 0.733694 0
M  V30 6591 O 1149.98 8.73148 -1.23936 0
M  V30 6592 O 1149.44 7.66872 0.971405 0
M  V30 6593 C 1148.5 7.42309 2.04641 0
M  V30 6594 C 1149.23 6.86059 3.24661 0
M  V30 6595 O 1149.44 5.42847 3.03646 0
M  V30 6596 C 1150.63 7.41196 3.50753 0
M  V30 6597 O 1151.02 7.27073 4.86816 0
M  V30 6598 C 1151.51 6.5273 2.63741 0
M  V30 6599 C 1150.8 5.1842 2.73198 0
M  V30 6600 N 1150.85 4.38762 1.4784 0
M  V30 6601 C 1150.77 4.81605 0.168631 0
M  V30 6602 N 1150.85 3.85454 -0.713363 0
M  V30 6603 C 1150.99 2.6994 0.0566958 0
M  V30 6604 C 1151.12 1.34815 -0.338502 0
M  V30 6605 O 1151.14 0.869548 -1.47125 0
M  V30 6606 N 1151.24 0.496304 0.77465 0
M  V30 6607 C 1151.24 0.908403 2.09122 0
M  V30 6608 N 1151.37 -0.0517805 3.00955 0
M  V30 6609 N 1151.11 2.17875 2.46519 0
M  V30 6610 C 1150.99 3.01988 1.4033 0
M  V30 6611 H 1148.01 8.36803 2.32493 0
M  V30 6612 H 1147.74 6.70197 1.71129 0
M  V30 6613 H 1148.61 7.03551 4.13168 0
M  V30 6614 H 1151.27 4.59498 3.54415 0
M  V30 6615 H 1151.55 6.88898 1.59848 0
M  V30 6616 H 1152.54 6.46749 3.03687 0
M  V30 6617 H 1150.7 8.46908 3.20714 0
M  V30 6618 H 1150.65 5.86405 -0.105564 0
M  V30 6619 H 1151.34 -0.483664 0.597855 0
M  V30 6620 H 1151.37 0.187865 4.0116 0
M  V30 6621 H 1151.47 -1.03585 2.71726 0
M  V30 6622 P 1152.57 7.20834 5.23717 0
M  V30 6623 O 1152.79 7.80006 6.57415 0
M  V30 6624 O 1153.36 7.79416 4.13051 0
M  V30 6625 O 1152.82 5.63315 5.29344 0
M  V30 6626 C 1151.88 4.80318 6.01954 0
M  V30 6627 C 1152.61 3.64202 6.65911 0
M  V30 6628 O 1152.82 2.60736 5.64823 0
M  V30 6629 C 1154.01 3.93521 7.19518 0
M  V30 6630 O 1154.4 3.02071 8.21205 0
M  V30 6631 C 1154.89 3.73047 5.97036 0
M  V30 6632 C 1154.18 2.58828 5.25741 0
M  V30 6633 N 1154.23 2.68068 3.77503 0
M  V30 6634 H 1151.4 5.40394 6.8003 0
M  V30 6635 H 1151.12 4.41741 5.32532 0
M  V30 6636 H 1151.99 3.26371 7.47889 0
M  V30 6637 H 1154.65 1.64007 5.56746 0
M  V30 6638 H 1154.93 4.63439 5.3432 0
M  V30 6639 H 1155.92 3.44776 6.25925 0
M  V30 6640 H 1154.08 4.96707 7.57347 0
M  V30 6641 P 1155.95 2.75334 8.47391 0
M  V30 6642 O 1156.17 2.44571 9.90142 0
M  V30 6643 O 1156.74 3.87688 7.92115 0
M  V30 6644 O 1156.2 1.4459 7.59357 0
M  V30 6645 C 1155.26 0.347608 7.69215 0
M  V30 6646 C 1155.99 -0.96767 7.52806 0
M  V30 6647 O 1156.2 -1.21036 6.1011 0
M  V30 6648 C 1157.39 -1.04544 8.13308 0
M  V30 6649 O 1157.78 -2.38311 8.41922 0
M  V30 6650 C 1158.27 -0.491279 7.02284 0
M  V30 6651 C 1157.56 -0.996264 5.77469 0
M  V30 6652 N 1157.61 -0.0501916 4.62973 0
M  V30 6653 H 1154.77 0.374722 8.67691 0
M  V30 6654 H 1154.5 0.443485 6.90277 0
M  V30 6655 H 1155.37 -1.75537 7.96793 0
M  V30 6656 P 1159.33 -2.75334 8.47391 0
M  V30 6657 O 1159.55 -3.84128 9.44797 0
M  V30 6658 O 1160.12 -1.51947 8.68712 0
M  V30 6659 O 1159.58 -3.29363 6.99321 0
M  V30 6660 C 1158.64 -4.24011 6.4274 0
M  V30 6661 C 1159.37 -5.20775 5.52155 0
M  V30 6662 O 1159.58 -4.56534 4.22446 0
M  V30 6663 C 1160.77 -5.62629 5.96531 0
M  V30 6664 O 1161.16 -6.87667 5.41053 0
M  V30 6665 C 1161.65 -4.52537 5.39283 0
M  V30 6666 C 1160.94 -4.20027 4.08623 0
M  V30 6667 N 1160.99 -2.76189 3.71603 0
M  V30 6668 H 1158.15 -4.797 7.24003 0
M  V30 6669 H 1157.88 -3.69856 5.84513 0
M  V30 6670 H 1158.75 -6.10356 5.41441 0
M  V30 6671 P 1162.71 -7.20834 5.23717 0
M  V30 6672 O 1162.93 -8.66104 5.38572 0
M  V30 6673 O 1163.5 -6.33544 6.1349 0
M  V30 6674 O 1162.96 -6.7751 3.72168 0
M  V30 6675 C 1162.02 -7.20825 2.7076 0
M  V30 6676 C 1162.75 -7.45864 1.40599 0
M  V30 6677 O 1162.96 -6.17651 0.734225 0
M  V30 6678 C 1164.15 -8.05808 1.51899 0
M  V30 6679 O 1164.54 -8.74358 0.335205 0
M  V30 6680 C 1165.03 -6.83093 1.70294 0
M  V30 6681 C 1164.32 -5.79992 0.836974 0
M  V30 6682 N 1164.37 -4.41864 1.38293 0
M  V30 6683 H 1161.53 -8.13644 3.0377 0
M  V30 6684 H 1161.26 -6.42788 2.55485 0
M  V30 6685 H 1162.13 -8.12039 0.792769 0
M  V30 6686 P 1166.09 -8.91 -9.07291e-12 0
M  V30 6687 O 1166.31 -10.1726 -0.733694 0
M  V30 6688 O 1166.88 -8.73148 1.23936 0
M  V30 6689 O 1166.34 -7.66872 -0.971405 0
M  V30 6690 C 1165.4 -7.42309 -2.04641 0
M  V30 6691 C 1166.13 -6.86059 -3.24661 0
M  V30 6692 O 1166.34 -5.42847 -3.03646 0
M  V30 6693 C 1167.53 -7.41196 -3.50753 0
M  V30 6694 O 1167.92 -7.27073 -4.86816 0
M  V30 6695 C 1168.41 -6.5273 -2.63741 0
M  V30 6696 C 1167.7 -5.1842 -2.73198 0
M  V30 6697 N 1167.75 -4.38762 -1.4784 0
M  V30 6698 H 1164.91 -8.36803 -2.32493 0
M  V30 6699 H 1164.64 -6.70197 -1.71129 0
M  V30 6700 H 1165.51 -7.03551 -4.13168 0
M  V30 6701 P 1169.47 -7.20834 -5.23717 0
M  V30 6702 O 1169.69 -7.79853 -6.57286 0
M  V30 6703 O 1170.26 -7.79239 -4.12957 0
M  V30 6704 O 1169.72 -5.63315 -5.29344 0
M  V30 6705 C 1168.78 -4.80255 -6.01876 0
M  V30 6706 C 1169.51 -3.64202 -6.65911 0
M  V30 6707 O 1169.72 -2.60694 -5.64732 0
M  V30 6708 C 1170.91 -3.93473 -7.1943 0
M  V30 6709 O 1171.3 -3.02071 -8.21205 0
M  V30 6710 C 1171.79 -3.73047 -5.97036 0
M  V30 6711 C 1171.08 -2.58828 -5.25741 0
M  V30 6712 N 1171.13 -2.68068 -3.77503 0
M  V30 6713 H 1168.29 -5.40332 -6.79951 0
M  V30 6714 H 1168.02 -4.41613 -5.32378 0
M  V30 6715 H 1168.89 -3.26331 -7.47797 0
M  V30 6716 P 1172.85 -2.75334 -8.47391 0
M  V30 6717 O 1173.07 -2.44571 -9.90142 0
M  V30 6718 O 1173.64 -3.87688 -7.92115 0
M  V30 6719 O 1173.1 -1.4459 -7.59357 0
M  V30 6720 C 1172.16 -0.347608 -7.69215 0
M  V30 6721 C 1172.89 0.96767 -7.52806 0
M  V30 6722 O 1173.1 1.21036 -6.1011 0
M  V30 6723 C 1174.29 1.04544 -8.13308 0
M  V30 6724 O 1174.68 2.38311 -8.41922 0
M  V30 6725 C 1175.17 0.491279 -7.02284 0
M  V30 6726 C 1174.46 0.996264 -5.77469 0
M  V30 6727 N 1174.51 0.0501916 -4.62973 0
M  V30 6728 H 1171.67 -0.374722 -8.67691 0
M  V30 6729 H 1171.4 -0.443485 -6.90277 0
M  V30 6730 H 1172.27 1.75537 -7.96793 0
M  V30 6731 P 1176.23 2.75334 -8.47391 0
M  V30 6732 O 1176.45 3.84166 -9.4489 0
M  V30 6733 O 1177.02 1.51964 -8.6881 0
M  V30 6734 O 1176.48 3.29363 -6.99321 0
M  V30 6735 C 1175.54 4.23956 -6.42656 0
M  V30 6736 C 1176.27 5.20775 -5.52155 0
M  V30 6737 O 1176.48 4.56534 -4.22446 0
M  V30 6738 C 1177.67 5.62629 -5.96531 0
M  V30 6739 O 1178.06 6.87667 -5.41053 0
M  V30 6740 C 1178.55 4.52537 -5.39283 0
M  V30 6741 C 1177.84 4.20027 -4.08623 0
M  V30 6742 N 1177.89 2.7613 -3.71522 0
M  V30 6743 C 1178.04 2.45612 -2.37989 0
M  V30 6744 O 1178.13 3.30919 -1.51621 0
M  V30 6745 N 1178.08 1.10684 -2.08435 0
M  V30 6746 C 1177.99 0.0690084 -2.9792 0
M  V30 6747 O 1178.04 -1.10553 -2.59426 0
M  V30 6748 C 1177.84 0.481522 -4.35345 0
M  V30 6749 C 1177.73 -0.618778 -5.36443 0
M  V30 6750 C 1177.79 1.78906 -4.67968 0
M  V30 6751 H 1175.05 4.797 -7.24003 0
M  V30 6752 H 1174.78 3.69802 -5.84429 0
M  V30 6753 H 1175.65 6.10356 -5.41441 0
M  V30 6754 H 1178.31 4.78651 -3.27911 0
M  V30 6755 H 1178.59 3.64957 -6.05871 0
M  V30 6756 H 1179.58 4.8868 -5.2125 0
M  V30 6757 H 1177.74 5.66726 -7.06352 0
M  V30 6758 H 1177.67 2.07737 -5.72367 0
M  V30 6759 H 1178.7 -0.754375 -5.86871 0
M  V30 6760 H 1176.97 -0.359721 -6.10641 0
M  V30 6761 H 1177.45 -1.55533 -4.8581 0
M  V30 6762 H 1178.19 0.862651 -1.12037 0
M  V30 6763 P 1179.61 7.20834 -5.23717 0
M  V30 6764 O 1179.83 8.66104 -5.38572 0
M  V30 6765 O 1180.4 6.33544 -6.1349 0
M  V30 6766 O 1179.86 6.7751 -3.72168 0
M  V30 6767 C 1178.92 7.20825 -2.7076 0
M  V30 6768 C 1179.65 7.45864 -1.40599 0
M  V30 6769 O 1179.86 6.17651 -0.734225 0
M  V30 6770 C 1181.05 8.05808 -1.51899 0
M  V30 6771 O 1181.44 8.74358 -0.335205 0
M  V30 6772 C 1181.93 6.83093 -1.70294 0
M  V30 6773 C 1181.22 5.79992 -0.836974 0
M  V30 6774 N 1181.27 4.41864 -1.38293 0
M  V30 6775 H 1178.43 8.13644 -3.0377 0
M  V30 6776 H 1178.16 6.42788 -2.55485 0
M  V30 6777 H 1179.03 8.12039 -0.792769 0
M  V30 6778 P 1182.99 8.91 9.23009e-12 0
M  V30 6779 O 1183.21 10.1726 0.733694 0
M  V30 6780 O 1183.78 8.73148 -1.23936 0
M  V30 6781 O 1183.24 7.66872 0.971405 0
M  V30 6782 C 1182.3 7.42309 2.04641 0
M  V30 6783 C 1183.03 6.86059 3.24661 0
M  V30 6784 O 1183.24 5.42847 3.03646 0
M  V30 6785 C 1184.43 7.41196 3.50753 0
M  V30 6786 O 1184.82 7.27073 4.86816 0
M  V30 6787 C 1185.31 6.5273 2.63741 0
M  V30 6788 C 1184.6 5.1842 2.73198 0
M  V30 6789 N 1184.65 4.38762 1.4784 0
M  V30 6790 H 1181.81 8.36803 2.32493 0
M  V30 6791 H 1181.54 6.70197 1.71129 0
M  V30 6792 H 1182.41 7.03551 4.13168 0
M  V30 6793 P 1186.37 7.20834 5.23717 0
M  V30 6794 O 1186.59 7.79853 6.57286 0
M  V30 6795 O 1187.16 7.79239 4.12957 0
M  V30 6796 O 1186.62 5.63315 5.29344 0
M  V30 6797 C 1185.68 4.80255 6.01876 0
M  V30 6798 C 1186.41 3.64202 6.65911 0
M  V30 6799 O 1186.62 2.60694 5.64732 0
M  V30 6800 C 1187.81 3.93473 7.1943 0
M  V30 6801 O 1188.2 3.02071 8.21205 0
M  V30 6802 C 1188.69 3.73047 5.97036 0
M  V30 6803 C 1187.98 2.58828 5.25741 0
M  V30 6804 N 1188.03 2.68068 3.77503 0
M  V30 6805 C 1187.95 3.79715 2.96723 0
M  V30 6806 N 1188.03 3.5377 1.68852 0
M  V30 6807 C 1188.17 2.15054 1.63254 0
M  V30 6808 C 1188.3 1.28964 0.518571 0
M  V30 6809 O 1188.32 1.56826 -0.679156 0
M  V30 6810 N 1188.42 -0.0538097 0.918425 0
M  V30 6811 C 1188.42 -0.494275 2.22578 0
M  V30 6812 N 1188.55 -1.81086 2.40434 0
M  V30 6813 N 1188.29 0.313645 3.27502 0
M  V30 6814 C 1188.17 1.61829 2.91033 0
M  V30 6815 H 1185.19 5.40332 6.79951 0
M  V30 6816 H 1184.92 4.41613 5.32378 0
M  V30 6817 H 1185.79 3.26331 7.47797 0
M  V30 6818 H 1188.45 1.63422 5.56814 0
M  V30 6819 H 1188.72 4.63374 5.34244 0
M  V30 6820 H 1189.72 3.44728 6.25838 0
M  V30 6821 H 1187.88 4.96652 7.57263 0
M  V30 6822 H 1187.83 4.80617 3.3614 0
M  V30 6823 H 1188.52 -0.742702 0.199384 0
M  V30 6824 H 1188.55 -2.20598 3.35588 0
M  V30 6825 H 1188.65 -2.43518 1.58945 0
M  V30 6826 P 1189.75 2.75334 8.47391 0
M  V30 6827 O 1189.97 2.44571 9.90142 0
M  V30 6828 O 1190.54 3.87688 7.92115 0
M  V30 6829 O 1190 1.4459 7.59357 0
M  V30 6830 C 1189.06 0.347608 7.69215 0
M  V30 6831 C 1189.79 -0.96767 7.52806 0
M  V30 6832 O 1190 -1.21036 6.1011 0
M  V30 6833 C 1191.19 -1.04544 8.13308 0
M  V30 6834 O 1191.58 -2.38311 8.41922 0
M  V30 6835 C 1192.07 -0.491279 7.02284 0
M  V30 6836 C 1191.36 -0.996264 5.77469 0
M  V30 6837 N 1191.41 -0.0501916 4.62973 0
M  V30 6838 H 1188.57 0.374722 8.67691 0
M  V30 6839 H 1188.3 0.443485 6.90277 0
M  V30 6840 H 1189.17 -1.75537 7.96793 0
M  V30 6841 P 1193.13 -2.75334 8.47391 0
M  V30 6842 O 1193.35 -3.84166 9.4489 0
M  V30 6843 O 1193.92 -1.51964 8.6881 0
M  V30 6844 O 1193.38 -3.29363 6.99321 0
M  V30 6845 C 1192.44 -4.23956 6.42656 0
M  V30 6846 C 1193.17 -5.20775 5.52155 0
M  V30 6847 O 1193.38 -4.56534 4.22446 0
M  V30 6848 C 1194.57 -5.62629 5.96531 0
M  V30 6849 O 1194.96 -6.87667 5.41053 0
M  V30 6850 C 1195.45 -4.52537 5.39283 0
M  V30 6851 C 1194.74 -4.20027 4.08623 0
M  V30 6852 N 1194.79 -2.7613 3.71522 0
M  V30 6853 C 1194.94 -2.45612 2.37989 0
M  V30 6854 O 1195.03 -3.30919 1.51621 0
M  V30 6855 N 1194.98 -1.10684 2.08435 0
M  V30 6856 C 1194.89 -0.0690084 2.9792 0
M  V30 6857 O 1194.94 1.10553 2.59426 0
M  V30 6858 C 1194.74 -0.481522 4.35345 0
M  V30 6859 C 1194.63 0.618778 5.36443 0
M  V30 6860 C 1194.69 -1.78906 4.67968 0
M  V30 6861 H 1191.95 -4.797 7.24003 0
M  V30 6862 H 1191.68 -3.69802 5.84429 0
M  V30 6863 H 1192.55 -6.10356 5.41441 0
M  V30 6864 H 1195.21 -4.78651 3.27911 0
M  V30 6865 H 1195.48 -3.64957 6.05871 0
M  V30 6866 H 1196.48 -4.8868 5.2125 0
M  V30 6867 H 1194.64 -5.66726 7.06352 0
M  V30 6868 H 1194.57 -2.07737 5.72367 0
M  V30 6869 H 1195.6 0.754375 5.86871 0
M  V30 6870 H 1193.86 0.359721 6.10641 0
M  V30 6871 H 1194.35 1.55533 4.8581 0
M  V30 6872 H 1195.09 -0.862651 1.12037 0
M  V30 6873 P 1196.51 -7.20834 5.23717 0
M  V30 6874 O 1196.73 -8.66104 5.38572 0
M  V30 6875 O 1197.3 -6.33544 6.1349 0
M  V30 6876 O 1196.76 -6.7751 3.72168 0
M  V30 6877 C 1195.82 -7.20825 2.7076 0
M  V30 6878 C 1196.55 -7.45864 1.40599 0
M  V30 6879 O 1196.76 -6.17651 0.734225 0
M  V30 6880 C 1197.95 -8.05808 1.51899 0
M  V30 6881 O 1198.34 -8.74358 0.335205 0
M  V30 6882 C 1198.83 -6.83093 1.70294 0
M  V30 6883 C 1198.12 -5.79992 0.836974 0
M  V30 6884 N 1198.17 -4.41864 1.38293 0
M  V30 6885 H 1195.33 -8.13644 3.0377 0
M  V30 6886 H 1195.06 -6.42788 2.55485 0
M  V30 6887 H 1195.93 -8.12039 0.792769 0
M  V30 6888 P 1199.89 -8.91 -9.38728e-12 0
M  V30 6889 O 1200.11 -10.1726 -0.733694 0
M  V30 6890 O 1200.68 -8.73148 1.23936 0
M  V30 6891 O 1200.14 -7.66872 -0.971405 0
M  V30 6892 C 1199.2 -7.42309 -2.04641 0
M  V30 6893 C 1199.93 -6.86059 -3.24661 0
M  V30 6894 O 1200.14 -5.42847 -3.03646 0
M  V30 6895 C 1201.33 -7.41196 -3.50753 0
M  V30 6896 O 1201.72 -7.27073 -4.86816 0
M  V30 6897 C 1202.21 -6.5273 -2.63741 0
M  V30 6898 C 1201.5 -5.1842 -2.73198 0
M  V30 6899 N 1201.55 -4.38762 -1.4784 0
M  V30 6900 H 1198.71 -8.36803 -2.32493 0
M  V30 6901 H 1198.44 -6.70197 -1.71129 0
M  V30 6902 H 1199.31 -7.03551 -4.13168 0
M  V30 6903 P 1203.27 -7.20834 -5.23717 0
M  V30 6904 O 1203.49 -7.79853 -6.57286 0
M  V30 6905 O 1204.06 -7.79239 -4.12957 0
M  V30 6906 O 1203.52 -5.63315 -5.29344 0
M  V30 6907 C 1202.58 -4.80255 -6.01876 0
M  V30 6908 C 1203.31 -3.64202 -6.65911 0
M  V30 6909 O 1203.52 -2.60694 -5.64732 0
M  V30 6910 C 1204.71 -3.93473 -7.1943 0
M  V30 6911 O 1205.1 -3.02071 -8.21205 0
M  V30 6912 C 1205.59 -3.73047 -5.97036 0
M  V30 6913 C 1204.88 -2.58828 -5.25741 0
M  V30 6914 N 1204.93 -2.68068 -3.77503 0
M  V30 6915 H 1202.09 -5.40332 -6.79951 0
M  V30 6916 H 1201.82 -4.41613 -5.32378 0
M  V30 6917 H 1202.69 -3.26331 -7.47797 0
M  V30 6918 P 1206.65 -2.75334 -8.47391 0
M  V30 6919 O 1206.87 -2.44571 -9.90142 0
M  V30 6920 O 1207.44 -3.87688 -7.92115 0
M  V30 6921 O 1206.9 -1.4459 -7.59357 0
M  V30 6922 C 1205.96 -0.347608 -7.69215 0
M  V30 6923 C 1206.69 0.96767 -7.52806 0
M  V30 6924 O 1206.9 1.21036 -6.1011 0
M  V30 6925 C 1208.09 1.04544 -8.13308 0
M  V30 6926 O 1208.48 2.38311 -8.41922 0
M  V30 6927 C 1208.97 0.491279 -7.02284 0
M  V30 6928 C 1208.26 0.996264 -5.77469 0
M  V30 6929 N 1208.31 0.0501916 -4.62973 0
M  V30 6930 H 1205.47 -0.374722 -8.67691 0
M  V30 6931 H 1205.2 -0.443485 -6.90277 0
M  V30 6932 H 1206.07 1.75537 -7.96793 0
M  V30 6933 P 1210.03 2.75334 -8.47391 0
M  V30 6934 O 1210.25 3.84128 -9.44797 0
M  V30 6935 O 1210.82 1.51947 -8.68712 0
M  V30 6936 O 1210.28 3.29363 -6.99321 0
M  V30 6937 C 1209.34 4.24011 -6.4274 0
M  V30 6938 C 1210.07 5.20775 -5.52155 0
M  V30 6939 O 1210.28 4.56534 -4.22446 0
M  V30 6940 C 1211.47 5.62629 -5.96531 0
M  V30 6941 O 1211.86 6.87667 -5.41053 0
M  V30 6942 C 1212.35 4.52537 -5.39283 0
M  V30 6943 C 1211.64 4.20027 -4.08623 0
M  V30 6944 N 1211.69 2.76189 -3.71603 0
M  V30 6945 H 1208.85 4.797 -7.24003 0
M  V30 6946 H 1208.58 3.69856 -5.84513 0
M  V30 6947 H 1209.45 6.10356 -5.41441 0
M  V30 6948 P 1213.41 7.20834 -5.23717 0
M  V30 6949 O 1213.63 8.66104 -5.38572 0
M  V30 6950 O 1214.2 6.33544 -6.1349 0
M  V30 6951 O 1213.66 6.7751 -3.72168 0
M  V30 6952 C 1212.72 7.20825 -2.7076 0
M  V30 6953 C 1213.45 7.45864 -1.40599 0
M  V30 6954 O 1213.66 6.17651 -0.734225 0
M  V30 6955 C 1214.85 8.05808 -1.51899 0
M  V30 6956 O 1215.24 8.74358 -0.335205 0
M  V30 6957 C 1215.73 6.83093 -1.70294 0
M  V30 6958 C 1215.02 5.79992 -0.836974 0
M  V30 6959 N 1215.07 4.41864 -1.38293 0
M  V30 6960 H 1212.23 8.13644 -3.0377 0
M  V30 6961 H 1211.96 6.42788 -2.55485 0
M  V30 6962 H 1212.83 8.12039 -0.792769 0
M  V30 6963 P 1216.79 8.91 9.54446e-12 0
M  V30 6964 O 1217.01 10.1726 0.733694 0
M  V30 6965 O 1217.58 8.73148 -1.23936 0
M  V30 6966 O 1217.04 7.66872 0.971405 0
M  V30 6967 C 1216.1 7.42309 2.04641 0
M  V30 6968 C 1216.83 6.86059 3.24661 0
M  V30 6969 O 1217.04 5.42847 3.03646 0
M  V30 6970 C 1218.23 7.41196 3.50753 0
M  V30 6971 O 1218.62 7.27073 4.86816 0
M  V30 6972 C 1219.11 6.5273 2.63741 0
M  V30 6973 C 1218.4 5.1842 2.73198 0
M  V30 6974 N 1218.45 4.38762 1.4784 0
M  V30 6975 H 1215.61 8.36803 2.32493 0
M  V30 6976 H 1215.34 6.70197 1.71129 0
M  V30 6977 H 1216.21 7.03551 4.13168 0
M  V30 6978 P 1220.17 7.20834 5.23717 0
M  V30 6979 O 1220.39 7.79853 6.57286 0
M  V30 6980 O 1220.96 7.79239 4.12957 0
M  V30 6981 O 1220.42 5.63315 5.29344 0
M  V30 6982 C 1219.48 4.80255 6.01876 0
M  V30 6983 C 1220.21 3.64202 6.65911 0
M  V30 6984 O 1220.42 2.60694 5.64732 0
M  V30 6985 C 1221.61 3.93473 7.1943 0
M  V30 6986 O 1222 3.02071 8.21205 0
M  V30 6987 C 1222.49 3.73047 5.97036 0
M  V30 6988 C 1221.78 2.58828 5.25741 0
M  V30 6989 N 1221.83 2.68068 3.77503 0
M  V30 6990 H 1218.99 5.40332 6.79951 0
M  V30 6991 H 1218.72 4.41613 5.32378 0
M  V30 6992 H 1219.59 3.26331 7.47797 0
M  V30 6993 P 1223.55 2.75334 8.47391 0
M  V30 6994 O 1223.77 2.44571 9.90142 0
M  V30 6995 O 1224.34 3.87688 7.92115 0
M  V30 6996 O 1223.8 1.4459 7.59357 0
M  V30 6997 C 1222.86 0.347608 7.69215 0
M  V30 6998 C 1223.59 -0.96767 7.52806 0
M  V30 6999 O 1223.8 -1.21036 6.1011 0
M  V30 7000 C 1224.99 -1.04544 8.13308 0
M  V30 7001 O 1225.38 -2.38311 8.41922 0
M  V30 7002 C 1225.87 -0.491279 7.02284 0
M  V30 7003 C 1225.16 -0.996264 5.77469 0
M  V30 7004 N 1225.21 -0.0501916 4.62973 0
M  V30 7005 H 1222.37 0.374722 8.67691 0
M  V30 7006 H 1222.1 0.443485 6.90277 0
M  V30 7007 H 1222.97 -1.75537 7.96793 0
M  V30 7008 P 1226.93 -2.75334 8.47391 0
M  V30 7009 O 1227.15 -3.84128 9.44797 0
M  V30 7010 O 1227.72 -1.51947 8.68712 0
M  V30 7011 O 1227.18 -3.29363 6.99321 0
M  V30 7012 C 1226.24 -4.24011 6.4274 0
M  V30 7013 C 1226.97 -5.20775 5.52155 0
M  V30 7014 O 1227.18 -4.56534 4.22446 0
M  V30 7015 C 1228.37 -5.62629 5.96531 0
M  V30 7016 O 1228.76 -6.87667 5.41053 0
M  V30 7017 C 1229.25 -4.52537 5.39283 0
M  V30 7018 C 1228.54 -4.20027 4.08623 0
M  V30 7019 N 1228.59 -2.76189 3.71603 0
M  V30 7020 H 1225.75 -4.797 7.24003 0
M  V30 7021 H 1225.48 -3.69856 5.84513 0
M  V30 7022 H 1226.35 -6.10356 5.41441 0
M  V30 7023 P 1230.31 -7.20834 5.23717 0
M  V30 7024 O 1230.53 -8.66274 5.38678 0
M  V30 7025 O 1231.1 -6.33687 6.13629 0
M  V30 7026 O 1230.56 -6.7751 3.72168 0
M  V30 7027 C 1229.62 -7.20919 2.70795 0
M  V30 7028 C 1230.35 -7.45864 1.40599 0
M  V30 7029 O 1230.56 -6.17751 0.734343 0
M  V30 7030 C 1231.75 -8.05906 1.51917 0
M  V30 7031 O 1232.14 -8.74358 0.335205 0
M  V30 7032 C 1232.63 -6.83093 1.70294 0
M  V30 7033 C 1231.92 -5.79992 0.836974 0
M  V30 7034 N 1231.97 -4.41864 1.38293 0
M  V30 7035 H 1229.13 -8.13738 3.03804 0
M  V30 7036 H 1228.86 -6.42974 2.55559 0
M  V30 7037 H 1229.73 -8.12139 0.792866 0
M  V30 7038 H 1232.39 -5.80178 -0.160643 0
M  V30 7039 H 1232.67 -6.51379 2.75643 0
M  V30 7040 H 1233.66 -7.01832 1.3448 0
M  V30 7041 H 1231.82 -8.73771 2.38364 0
M  V30 7042 P 1233.69 -8.91 -9.70164e-12 0
M  V30 7043 O 1233.91 -10.1726 -0.733694 0
M  V30 7044 O 1234.48 -8.73148 1.23936 0
M  V30 7045 O 1233.94 -7.66872 -0.971405 0
M  V30 7046 C 1233 -7.42309 -2.04641 0
M  V30 7047 C 1233.73 -6.86059 -3.24661 0
M  V30 7048 O 1233.94 -5.42847 -3.03646 0
M  V30 7049 C 1235.13 -7.41196 -3.50753 0
M  V30 7050 O 1235.52 -7.27073 -4.86816 0
M  V30 7051 C 1236.01 -6.5273 -2.63741 0
M  V30 7052 C 1235.3 -5.1842 -2.73198 0
M  V30 7053 N 1235.35 -4.38762 -1.4784 0
M  V30 7054 H 1232.51 -8.36803 -2.32493 0
M  V30 7055 H 1232.24 -6.70197 -1.71129 0
M  V30 7056 H 1233.11 -7.03551 -4.13168 0
M  V30 7057 P 1237.07 -7.20834 -5.23717 0
M  V30 7058 O 1237.29 -7.79853 -6.57286 0
M  V30 7059 O 1237.86 -7.79239 -4.12957 0
M  V30 7060 O 1237.32 -5.63315 -5.29344 0
M  V30 7061 C 1236.38 -4.80255 -6.01876 0
M  V30 7062 C 1237.11 -3.64202 -6.65911 0
M  V30 7063 O 1237.32 -2.60694 -5.64732 0
M  V30 7064 C 1238.51 -3.93473 -7.1943 0
M  V30 7065 O 1238.9 -3.02071 -8.21205 0
M  V30 7066 C 1239.39 -3.73047 -5.97036 0
M  V30 7067 C 1238.68 -2.58828 -5.25741 0
M  V30 7068 N 1238.73 -2.68068 -3.77503 0
M  V30 7069 H 1235.89 -5.40332 -6.79951 0
M  V30 7070 H 1235.62 -4.41613 -5.32378 0
M  V30 7071 H 1236.49 -3.26331 -7.47797 0
M  V30 7072 P 1240.45 -2.75334 -8.47391 0
M  V30 7073 O 1240.67 -2.44619 -9.90336 0
M  V30 7074 O 1241.24 -3.87776 -7.92294 0
M  V30 7075 O 1240.7 -1.4459 -7.59357 0
M  V30 7076 C 1239.76 -0.347653 -7.69315 0
M  V30 7077 C 1240.49 0.96767 -7.52806 0
M  V30 7078 O 1240.7 1.21055 -6.10208 0
M  V30 7079 C 1241.89 1.04557 -8.13408 0
M  V30 7080 O 1242.28 2.38311 -8.41922 0
M  V30 7081 C 1242.77 0.491279 -7.02284 0
M  V30 7082 C 1242.06 0.996264 -5.77469 0
M  V30 7083 N 1242.11 0.0501916 -4.62973 0
M  V30 7084 H 1239.27 -0.374765 -8.67791 0
M  V30 7085 H 1239 -0.443613 -6.90476 0
M  V30 7086 H 1239.87 1.75559 -7.96891 0
M  V30 7087 H 1242.53 1.94563 -5.46818 0
M  V30 7088 H 1242.81 -0.608651 -7.04676 0
M  V30 7089 H 1243.8 0.889796 -7.09039 0
M  V30 7090 H 1241.96 0.433128 -9.04664 0
M  V30 7091 P 1243.83 2.75334 -8.47391 0
M  V30 7092 O 1244.05 3.84128 -9.44797 0
M  V30 7093 O 1244.62 1.51947 -8.68712 0
M  V30 7094 O 1244.08 3.29363 -6.99321 0
M  V30 7095 C 1243.14 4.24011 -6.4274 0
M  V30 7096 C 1243.87 5.20775 -5.52155 0
M  V30 7097 O 1244.08 4.56534 -4.22446 0
M  V30 7098 C 1245.27 5.62629 -5.96531 0
M  V30 7099 O 1245.66 6.87667 -5.41053 0
M  V30 7100 C 1246.15 4.52537 -5.39283 0
M  V30 7101 C 1245.44 4.20027 -4.08623 0
M  V30 7102 N 1245.49 2.76189 -3.71603 0
M  V30 7103 H 1242.65 4.797 -7.24003 0
M  V30 7104 H 1242.38 3.69856 -5.84513 0
M  V30 7105 H 1243.25 6.10356 -5.41441 0
M  V30 7106 P 1247.21 7.20834 -5.23717 0
M  V30 7107 O 1247.43 8.66104 -5.38572 0
M  V30 7108 O 1248 6.33544 -6.1349 0
M  V30 7109 O 1247.46 6.7751 -3.72168 0
M  V30 7110 C 1246.52 7.20825 -2.7076 0
M  V30 7111 C 1247.25 7.45864 -1.40599 0
M  V30 7112 O 1247.46 6.17651 -0.734225 0
M  V30 7113 C 1248.65 8.05808 -1.51899 0
M  V30 7114 O 1249.04 8.74358 -0.335205 0
M  V30 7115 C 1249.53 6.83093 -1.70294 0
M  V30 7116 C 1248.82 5.79992 -0.836974 0
M  V30 7117 N 1248.87 4.41864 -1.38293 0
M  V30 7118 H 1246.03 8.13644 -3.0377 0
M  V30 7119 H 1245.76 6.42788 -2.55485 0
M  V30 7120 H 1246.63 8.12039 -0.792769 0
M  V30 7121 P 1250.59 8.91 9.85882e-12 0
M  V30 7122 O 1250.81 10.1726 0.733694 0
M  V30 7123 O 1251.38 8.73148 -1.23936 0
M  V30 7124 O 1250.84 7.66872 0.971405 0
M  V30 7125 C 1249.9 7.42309 2.04641 0
M  V30 7126 C 1250.63 6.86059 3.24661 0
M  V30 7127 O 1250.84 5.42847 3.03646 0
M  V30 7128 C 1252.03 7.41196 3.50753 0
M  V30 7129 O 1252.42 7.27073 4.86816 0
M  V30 7130 C 1252.91 6.5273 2.63741 0
M  V30 7131 C 1252.2 5.1842 2.73198 0
M  V30 7132 N 1252.25 4.38762 1.4784 0
M  V30 7133 H 1249.41 8.36803 2.32493 0
M  V30 7134 H 1249.14 6.70197 1.71129 0
M  V30 7135 H 1250.01 7.03551 4.13168 0
M  V30 7136 P 1253.97 7.20834 5.23717 0
M  V30 7137 O 1254.19 7.79853 6.57286 0
M  V30 7138 O 1254.76 7.79239 4.12957 0
M  V30 7139 O 1254.22 5.63315 5.29344 0
M  V30 7140 C 1253.28 4.80255 6.01876 0
M  V30 7141 C 1254.01 3.64202 6.65911 0
M  V30 7142 O 1254.22 2.60694 5.64732 0
M  V30 7143 C 1255.41 3.93473 7.1943 0
M  V30 7144 O 1255.8 3.02071 8.21205 0
M  V30 7145 C 1256.29 3.73047 5.97036 0
M  V30 7146 C 1255.58 2.58828 5.25741 0
M  V30 7147 N 1255.63 2.68068 3.77503 0
M  V30 7148 C 1255.55 3.79715 2.96723 0
M  V30 7149 N 1255.63 3.5377 1.68852 0
M  V30 7150 C 1255.77 2.15054 1.63254 0
M  V30 7151 C 1255.9 1.28964 0.518571 0
M  V30 7152 O 1255.92 1.56826 -0.679156 0
M  V30 7153 N 1256.02 -0.0538097 0.918425 0
M  V30 7154 C 1256.02 -0.494275 2.22578 0
M  V30 7155 N 1256.15 -1.81086 2.40434 0
M  V30 7156 N 1255.89 0.313645 3.27502 0
M  V30 7157 C 1255.77 1.61829 2.91033 0
M  V30 7158 H 1252.79 5.40332 6.79951 0
M  V30 7159 H 1252.52 4.41613 5.32378 0
M  V30 7160 H 1253.39 3.26331 7.47797 0
M  V30 7161 H 1256.05 1.63422 5.56814 0
M  V30 7162 H 1256.32 4.63374 5.34244 0
M  V30 7163 H 1257.32 3.44728 6.25838 0
M  V30 7164 H 1255.48 4.96652 7.57263 0
M  V30 7165 H 1255.43 4.80617 3.3614 0
M  V30 7166 H 1256.12 -0.742702 0.199384 0
M  V30 7167 H 1256.15 -2.20598 3.35588 0
M  V30 7168 H 1256.25 -2.43518 1.58945 0
M  V30 7169 P 1257.35 2.75334 8.47391 0
M  V30 7170 O 1257.57 2.44571 9.90142 0
M  V30 7171 O 1258.14 3.87688 7.92115 0
M  V30 7172 O 1257.6 1.4459 7.59357 0
M  V30 7173 C 1256.66 0.347608 7.69215 0
M  V30 7174 C 1257.39 -0.96767 7.52806 0
M  V30 7175 O 1257.6 -1.21036 6.1011 0
M  V30 7176 C 1258.79 -1.04544 8.13308 0
M  V30 7177 O 1259.18 -2.38311 8.41922 0
M  V30 7178 C 1259.67 -0.491279 7.02284 0
M  V30 7179 C 1258.96 -0.996264 5.77469 0
M  V30 7180 N 1259.01 -0.0501916 4.62973 0
M  V30 7181 H 1256.17 0.374722 8.67691 0
M  V30 7182 H 1255.9 0.443485 6.90277 0
M  V30 7183 H 1256.77 -1.75537 7.96793 0
M  V30 7184 P 1260.73 -2.75334 8.47391 0
M  V30 7185 O 1260.95 -3.84128 9.44797 0
M  V30 7186 O 1261.52 -1.51947 8.68712 0
M  V30 7187 O 1260.98 -3.29363 6.99321 0
M  V30 7188 C 1260.04 -4.24011 6.4274 0
M  V30 7189 C 1260.77 -5.20775 5.52155 0
M  V30 7190 O 1260.98 -4.56534 4.22446 0
M  V30 7191 C 1262.17 -5.62629 5.96531 0
M  V30 7192 O 1262.56 -6.87667 5.41053 0
M  V30 7193 C 1263.05 -4.52537 5.39283 0
M  V30 7194 C 1262.34 -4.20027 4.08623 0
M  V30 7195 N 1262.39 -2.76189 3.71603 0
M  V30 7196 H 1259.55 -4.797 7.24003 0
M  V30 7197 H 1259.28 -3.69856 5.84513 0
M  V30 7198 H 1260.15 -6.10356 5.41441 0
M  V30 7199 P 1264.11 -7.20834 5.23717 0
M  V30 7200 O 1264.33 -8.66104 5.38572 0
M  V30 7201 O 1264.9 -6.33544 6.1349 0
M  V30 7202 O 1264.36 -6.7751 3.72168 0
M  V30 7203 C 1263.42 -7.20825 2.7076 0
M  V30 7204 C 1264.15 -7.45864 1.40599 0
M  V30 7205 O 1264.36 -6.17651 0.734225 0
M  V30 7206 C 1265.55 -8.05808 1.51899 0
M  V30 7207 O 1265.94 -8.74358 0.335205 0
M  V30 7208 C 1266.43 -6.83093 1.70294 0
M  V30 7209 C 1265.72 -5.79992 0.836974 0
M  V30 7210 N 1265.77 -4.41864 1.38293 0
M  V30 7211 H 1262.93 -8.13644 3.0377 0
M  V30 7212 H 1262.66 -6.42788 2.55485 0
M  V30 7213 H 1263.53 -8.12039 0.792769 0
M  V30 7214 P 1267.49 -8.91 -1.0016e-11 0
M  V30 7215 O 1267.71 -10.1736 -0.733766 0
M  V30 7216 O 1268.28 -8.73247 1.2395 0
M  V30 7217 O 1267.74 -7.66872 -0.971405 0
M  V30 7218 C 1266.8 -7.42212 -2.04614 0
M  V30 7219 C 1267.53 -6.86059 -3.24661 0
M  V30 7220 O 1267.74 -5.42847 -3.03646 0
M  V30 7221 C 1268.93 -7.41196 -3.50753 0
M  V30 7222 O 1269.32 -7.27073 -4.86816 0
M  V30 7223 C 1269.81 -6.5273 -2.63741 0
M  V30 7224 C 1269.1 -5.1842 -2.73198 0
M  V30 7225 N 1269.15 -4.38668 -1.47808 0
M  V30 7226 C 1269.3 -3.02239 -1.60048 0
M  V30 7227 O 1269.39 -2.46459 -2.67869 0
M  V30 7228 N 1269.34 -2.32436 -0.408571 0
M  V30 7229 C 1269.25 -2.85471 0.854993 0
M  V30 7230 C 1269.1 -4.28918 0.887335 0
M  V30 7231 C 1269.05 -5.00349 -0.255399 0
M  V30 7232 H 1266.31 -8.36803 -2.32493 0
M  V30 7233 H 1266.04 -6.701 -1.71105 0
M  V30 7234 H 1266.91 -7.03551 -4.13168 0
M  V30 7235 H 1269.57 -4.59773 -3.53894 0
M  V30 7236 H 1269.84 -6.88995 -1.59871 0
M  V30 7237 H 1270.84 -6.46749 -3.03687 0
M  V30 7238 H 1269 -8.46908 -3.20714 0
M  V30 7239 H 1268.93 -6.08548 -0.206986 0
M  V30 7240 P 1270.87 -7.20834 -5.23717 0
M  V30 7241 O 1271.09 -7.7993 -6.57351 0
M  V30 7242 O 1271.66 -7.79328 -4.13004 0
M  V30 7243 O 1271.12 -5.63315 -5.29344 0
M  V30 7244 C 1270.18 -4.80193 -6.01798 0
M  V30 7245 C 1270.91 -3.64202 -6.65911 0
M  V30 7246 O 1271.12 -2.60694 -5.64732 0
M  V30 7247 C 1272.31 -3.93473 -7.1943 0
M  V30 7248 O 1272.7 -3.02071 -8.21205 0
M  V30 7249 C 1273.19 -3.73047 -5.97036 0
M  V30 7250 C 1272.48 -2.58828 -5.25741 0
M  V30 7251 N 1272.53 -2.6801 -3.77422 0
M  V30 7252 C 1272.68 -1.50443 -3.07133 0
M  V30 7253 O 1272.77 -0.419406 -3.61576 0
M  V30 7254 N 1272.72 -1.6403 -1.69677 0
M  V30 7255 C 1272.63 -2.81206 -0.986255 0
M  V30 7256 C 1272.48 -3.99158 -1.80325 0
M  V30 7257 C 1272.43 -3.89779 -3.1476 0
M  V30 7258 H 1269.69 -5.40332 -6.79951 0
M  V30 7259 H 1269.42 -4.41549 -5.32301 0
M  V30 7260 H 1270.29 -3.26331 -7.47797 0
M  V30 7261 H 1272.95 -1.6395 -5.56554 0
M  V30 7262 H 1273.22 -4.63439 -5.3432 0
M  V30 7263 H 1274.22 -3.44728 -6.25838 0
M  V30 7264 H 1272.38 -4.96652 -7.57263 0
M  V30 7265 H 1272.31 -4.80159 -3.74441 0
M  V30 7266 P 1274.25 -2.75334 -8.47391 0
M  V30 7267 O 1274.47 -2.44571 -9.90142 0
M  V30 7268 O 1275.04 -3.87688 -7.92115 0
M  V30 7269 O 1274.5 -1.4459 -7.59357 0
M  V30 7270 C 1273.56 -0.347608 -7.69215 0
M  V30 7271 C 1274.29 0.96767 -7.52806 0
M  V30 7272 O 1274.5 1.21036 -6.1011 0
M  V30 7273 C 1275.69 1.04544 -8.13308 0
M  V30 7274 O 1276.08 2.38311 -8.41922 0
M  V30 7275 C 1276.57 0.491279 -7.02284 0
M  V30 7276 C 1275.86 0.996264 -5.77469 0
M  V30 7277 N 1275.91 0.0501916 -4.62973 0
M  V30 7278 H 1273.07 -0.374722 -8.67691 0
M  V30 7279 H 1272.8 -0.443485 -6.90277 0
M  V30 7280 H 1273.67 1.75537 -7.96793 0
M  V30 7281 P 1277.63 2.75334 -8.47391 0
M  V30 7282 O 1277.85 3.84128 -9.44797 0
M  V30 7283 O 1278.42 1.51947 -8.68712 0
M  V30 7284 O 1277.88 3.29363 -6.99321 0
M  V30 7285 C 1276.94 4.24011 -6.4274 0
M  V30 7286 C 1277.67 5.20775 -5.52155 0
M  V30 7287 O 1277.88 4.56534 -4.22446 0
M  V30 7288 C 1279.07 5.62629 -5.96531 0
M  V30 7289 O 1279.46 6.87667 -5.41053 0
M  V30 7290 C 1279.95 4.52537 -5.39283 0
M  V30 7291 C 1279.24 4.20027 -4.08623 0
M  V30 7292 N 1279.29 2.76189 -3.71603 0
M  V30 7293 H 1276.45 4.797 -7.24003 0
M  V30 7294 H 1276.18 3.69856 -5.84513 0
M  V30 7295 H 1277.05 6.10356 -5.41441 0
M  V30 7296 P 1281.01 7.20834 -5.23717 0
M  V30 7297 O 1281.23 8.66104 -5.38572 0
M  V30 7298 O 1281.8 6.33544 -6.1349 0
M  V30 7299 O 1281.26 6.7751 -3.72168 0
M  V30 7300 C 1280.32 7.20825 -2.7076 0
M  V30 7301 C 1281.05 7.45864 -1.40599 0
M  V30 7302 O 1281.26 6.17651 -0.734225 0
M  V30 7303 C 1282.45 8.05808 -1.51899 0
M  V30 7304 O 1282.84 8.74358 -0.335205 0
M  V30 7305 C 1283.33 6.83093 -1.70294 0
M  V30 7306 C 1282.62 5.79992 -0.836974 0
M  V30 7307 N 1282.67 4.41864 -1.38293 0
M  V30 7308 H 1279.83 8.13644 -3.0377 0
M  V30 7309 H 1279.56 6.42788 -2.55485 0
M  V30 7310 H 1280.43 8.12039 -0.792769 0
M  V30 7311 P 1284.39 8.91 1.01732e-11 0
M  V30 7312 O 1284.61 10.1726 0.733694 0
M  V30 7313 O 1285.18 8.73148 -1.23936 0
M  V30 7314 O 1284.64 7.66872 0.971405 0
M  V30 7315 C 1283.7 7.42309 2.04641 0
M  V30 7316 C 1284.43 6.86059 3.24661 0
M  V30 7317 O 1284.64 5.42847 3.03646 0
M  V30 7318 C 1285.83 7.41196 3.50753 0
M  V30 7319 O 1286.22 7.27073 4.86816 0
M  V30 7320 C 1286.71 6.5273 2.63741 0
M  V30 7321 C 1286 5.1842 2.73198 0
M  V30 7322 N 1286.05 4.38762 1.4784 0
M  V30 7323 H 1283.21 8.36803 2.32493 0
M  V30 7324 H 1282.94 6.70197 1.71129 0
M  V30 7325 H 1283.81 7.03551 4.13168 0
M  V30 7326 P 1287.77 7.20834 5.23717 0
M  V30 7327 O 1287.99 7.79853 6.57286 0
M  V30 7328 O 1288.56 7.79239 4.12957 0
M  V30 7329 O 1288.02 5.63315 5.29344 0
M  V30 7330 C 1287.08 4.80255 6.01876 0
M  V30 7331 C 1287.81 3.64202 6.65911 0
M  V30 7332 O 1288.02 2.60694 5.64732 0
M  V30 7333 C 1289.21 3.93473 7.1943 0
M  V30 7334 O 1289.6 3.02071 8.21205 0
M  V30 7335 C 1290.09 3.73047 5.97036 0
M  V30 7336 C 1289.38 2.58828 5.25741 0
M  V30 7337 N 1289.43 2.68068 3.77503 0
M  V30 7338 H 1286.59 5.40332 6.79951 0
M  V30 7339 H 1286.32 4.41613 5.32378 0
M  V30 7340 H 1287.19 3.26331 7.47797 0
M  V30 7341 P 1291.15 2.75334 8.47391 0
M  V30 7342 O 1291.37 2.44595 9.90239 0
M  V30 7343 O 1291.94 3.87732 7.92204 0
M  V30 7344 O 1291.4 1.4459 7.59357 0
M  V30 7345 C 1290.46 0.347563 7.69115 0
M  V30 7346 C 1291.19 -0.96767 7.52806 0
M  V30 7347 O 1291.4 -1.21036 6.1011 0
M  V30 7348 C 1292.59 -1.04544 8.13308 0
M  V30 7349 O 1292.98 -2.38311 8.41922 0
M  V30 7350 C 1293.47 -0.491279 7.02284 0
M  V30 7351 C 1292.76 -0.996264 5.77469 0
M  V30 7352 N 1292.81 -0.0501808 4.62873 0
M  V30 7353 C 1292.96 -0.588177 3.36904 0
M  V30 7354 O 1293.05 -1.78598 3.17173 0
M  V30 7355 N 1293 0.329694 2.33686 0
M  V30 7356 C 1292.91 1.6953 2.45079 0
M  V30 7357 O 1292.96 2.41926 1.44899 0
M  V30 7358 C 1292.76 2.16933 3.80505 0
M  V30 7359 C 1292.65 3.65373 3.97621 0
M  V30 7360 C 1292.71 1.30326 4.83752 0
M  V30 7361 H 1289.97 0.374722 8.67691 0
M  V30 7362 H 1289.7 0.443421 6.90177 0
M  V30 7363 H 1290.57 -1.75537 7.96793 0
M  V30 7364 H 1293.23 -1.94496 5.46629 0
M  V30 7365 H 1293.5 0.608651 7.04676 0
M  V30 7366 H 1294.5 -0.889672 7.08939 0
M  V30 7367 H 1292.66 -0.43308 9.04564 0
M  V30 7368 H 1292.59 1.68366 5.8516 0
M  V30 7369 H 1293.62 4.05985 4.30448 0
M  V30 7370 H 1291.88 3.88028 4.72875 0
M  V30 7371 H 1292.37 4.11381 3.01609 0
M  V30 7372 H 1293.11 -0.0393617 1.41345 0
M  V30 7373 P 1294.53 -2.75334 8.47391 0
M  V30 7374 O 1294.75 -3.84128 9.44797 0
M  V30 7375 O 1295.32 -1.51947 8.68712 0
M  V30 7376 O 1294.78 -3.29363 6.99321 0
M  V30 7377 C 1293.84 -4.24011 6.4274 0
M  V30 7378 C 1294.57 -5.20775 5.52155 0
M  V30 7379 O 1294.78 -4.56534 4.22446 0
M  V30 7380 C 1295.97 -5.62629 5.96531 0
M  V30 7381 O 1296.36 -6.87667 5.41053 0
M  V30 7382 C 1296.85 -4.52537 5.39283 0
M  V30 7383 C 1296.14 -4.20027 4.08623 0
M  V30 7384 N 1296.19 -2.76189 3.71603 0
M  V30 7385 H 1293.35 -4.797 7.24003 0
M  V30 7386 H 1293.08 -3.69856 5.84513 0
M  V30 7387 H 1293.95 -6.10356 5.41441 0
M  V30 7388 P 1297.91 -7.20834 5.23717 0
M  V30 7389 O 1298.13 -8.66104 5.38572 0
M  V30 7390 O 1298.7 -6.33544 6.1349 0
M  V30 7391 O 1298.16 -6.7751 3.72168 0
M  V30 7392 C 1297.22 -7.20825 2.7076 0
M  V30 7393 C 1297.95 -7.45864 1.40599 0
M  V30 7394 O 1298.16 -6.17651 0.734225 0
M  V30 7395 C 1299.35 -8.05808 1.51899 0
M  V30 7396 O 1299.74 -8.74358 0.335205 0
M  V30 7397 C 1300.23 -6.83093 1.70294 0
M  V30 7398 C 1299.52 -5.79992 0.836974 0
M  V30 7399 N 1299.57 -4.41864 1.38293 0
M  V30 7400 H 1296.73 -8.13644 3.0377 0
M  V30 7401 H 1296.46 -6.42788 2.55485 0
M  V30 7402 H 1297.33 -8.12039 0.792769 0
M  V30 7403 P 1301.29 -8.91 -1.03304e-11 0
M  V30 7404 O 1301.51 -10.1726 -0.733694 0
M  V30 7405 O 1302.08 -8.73148 1.23936 0
M  V30 7406 O 1301.54 -7.66872 -0.971405 0
M  V30 7407 C 1300.6 -7.42309 -2.04641 0
M  V30 7408 C 1301.33 -6.86059 -3.24661 0
M  V30 7409 O 1301.54 -5.42847 -3.03646 0
M  V30 7410 C 1302.73 -7.41196 -3.50753 0
M  V30 7411 O 1303.12 -7.27073 -4.86816 0
M  V30 7412 C 1303.61 -6.5273 -2.63741 0
M  V30 7413 C 1302.9 -5.1842 -2.73198 0
M  V30 7414 N 1302.95 -4.38762 -1.4784 0
M  V30 7415 H 1300.11 -8.36803 -2.32493 0
M  V30 7416 H 1299.84 -6.70197 -1.71129 0
M  V30 7417 H 1300.71 -7.03551 -4.13168 0
M  V30 7418 P 1304.67 -7.20834 -5.23717 0
M  V30 7419 O 1304.89 -7.79853 -6.57286 0
M  V30 7420 O 1305.46 -7.79239 -4.12957 0
M  V30 7421 O 1304.92 -5.63315 -5.29344 0
M  V30 7422 C 1303.98 -4.80255 -6.01876 0
M  V30 7423 C 1304.71 -3.64202 -6.65911 0
M  V30 7424 O 1304.92 -2.60694 -5.64732 0
M  V30 7425 C 1306.11 -3.93473 -7.1943 0
M  V30 7426 O 1306.5 -3.02071 -8.21205 0
M  V30 7427 C 1306.99 -3.73047 -5.97036 0
M  V30 7428 C 1306.28 -2.58828 -5.25741 0
M  V30 7429 N 1306.33 -2.68068 -3.77503 0
M  V30 7430 H 1303.49 -5.40332 -6.79951 0
M  V30 7431 H 1303.22 -4.41613 -5.32378 0
M  V30 7432 H 1304.09 -3.26331 -7.47797 0
M  V30 7433 P 1308.05 -2.75334 -8.47391 0
M  V30 7434 O 1308.27 -2.44571 -9.90142 0
M  V30 7435 O 1308.84 -3.87688 -7.92115 0
M  V30 7436 O 1308.3 -1.4459 -7.59357 0
M  V30 7437 C 1307.36 -0.347608 -7.69215 0
M  V30 7438 C 1308.09 0.96767 -7.52806 0
M  V30 7439 O 1308.3 1.21036 -6.1011 0
M  V30 7440 C 1309.49 1.04544 -8.13308 0
M  V30 7441 O 1309.88 2.38311 -8.41922 0
M  V30 7442 C 1310.37 0.491279 -7.02284 0
M  V30 7443 C 1309.66 0.996264 -5.77469 0
M  V30 7444 N 1309.71 0.0501916 -4.62973 0
M  V30 7445 C 1309.63 -1.32786 -4.63244 0
M  V30 7446 N 1309.71 -1.86957 -3.44545 0
M  V30 7447 C 1309.85 -0.780241 -2.58481 0
M  V30 7448 C 1309.98 -0.738536 -1.17757 0
M  V30 7449 N 1310.1 0.58337 -0.711393 0
M  V30 7450 C 1310.1 1.70816 -1.51017 0
M  V30 7451 N 1310.23 2.87826 -0.880757 0
M  V30 7452 N 1309.97 1.67126 -2.8339 0
M  V30 7453 C 1309.85 0.401421 -3.30572 0
M  V30 7454 H 1306.87 -0.374722 -8.67691 0
M  V30 7455 H 1306.6 -0.443485 -6.90277 0
M  V30 7456 H 1307.47 1.75537 -7.96793 0
M  V30 7457 P 1311.43 2.75334 -8.47391 0
M  V30 7458 O 1311.65 3.84128 -9.44797 0
M  V30 7459 O 1312.22 1.51947 -8.68712 0
M  V30 7460 O 1311.68 3.29363 -6.99321 0
M  V30 7461 C 1310.74 4.24011 -6.4274 0
M  V30 7462 C 1311.47 5.20775 -5.52155 0
M  V30 7463 O 1311.68 4.56534 -4.22446 0
M  V30 7464 C 1312.87 5.62629 -5.96531 0
M  V30 7465 O 1313.26 6.87667 -5.41053 0
M  V30 7466 C 1313.75 4.52537 -5.39283 0
M  V30 7467 C 1313.04 4.20027 -4.08623 0
M  V30 7468 N 1313.09 2.76189 -3.71603 0
M  V30 7469 H 1310.25 4.797 -7.24003 0
M  V30 7470 H 1309.98 3.69856 -5.84513 0
M  V30 7471 H 1310.85 6.10356 -5.41441 0
M  V30 7472 P 1314.81 7.20834 -5.23717 0
M  V30 7473 O 1315.03 8.66104 -5.38572 0
M  V30 7474 O 1315.6 6.33544 -6.1349 0
M  V30 7475 O 1315.06 6.7751 -3.72168 0
M  V30 7476 C 1314.12 7.20825 -2.7076 0
M  V30 7477 C 1314.85 7.45864 -1.40599 0
M  V30 7478 O 1315.06 6.17651 -0.734225 0
M  V30 7479 C 1316.25 8.05808 -1.51899 0
M  V30 7480 O 1316.64 8.74358 -0.335205 0
M  V30 7481 C 1317.13 6.83093 -1.70294 0
M  V30 7482 C 1316.42 5.79992 -0.836974 0
M  V30 7483 N 1316.47 4.41864 -1.38293 0
M  V30 7484 H 1313.63 8.13644 -3.0377 0
M  V30 7485 H 1313.36 6.42788 -2.55485 0
M  V30 7486 H 1314.23 8.12039 -0.792769 0
M  V30 7487 P 1318.19 8.91 1.04876e-11 0
M  V30 7488 O 1318.41 10.1726 0.733694 0
M  V30 7489 O 1318.98 8.73148 -1.23936 0
M  V30 7490 O 1318.44 7.66872 0.971405 0
M  V30 7491 C 1317.5 7.42309 2.04641 0
M  V30 7492 C 1318.23 6.86059 3.24661 0
M  V30 7493 O 1318.44 5.42847 3.03646 0
M  V30 7494 C 1319.63 7.41196 3.50753 0
M  V30 7495 O 1320.02 7.27073 4.86816 0
M  V30 7496 C 1320.51 6.5273 2.63741 0
M  V30 7497 C 1319.8 5.1842 2.73198 0
M  V30 7498 N 1319.85 4.38762 1.4784 0
M  V30 7499 H 1317.01 8.36803 2.32493 0
M  V30 7500 H 1316.74 6.70197 1.71129 0
M  V30 7501 H 1317.61 7.03551 4.13168 0
M  V30 7502 P 1321.57 7.20834 5.23717 0
M  V30 7503 O 1321.79 7.79853 6.57286 0
M  V30 7504 O 1322.36 7.79239 4.12957 0
M  V30 7505 O 1321.82 5.63315 5.29344 0
M  V30 7506 C 1320.88 4.80255 6.01876 0
M  V30 7507 C 1321.61 3.64202 6.65911 0
M  V30 7508 O 1321.82 2.60694 5.64732 0
M  V30 7509 C 1323.01 3.93473 7.1943 0
M  V30 7510 O 1323.4 3.02071 8.21205 0
M  V30 7511 C 1323.89 3.73047 5.97036 0
M  V30 7512 C 1323.18 2.58828 5.25741 0
M  V30 7513 N 1323.23 2.68068 3.77503 0
M  V30 7514 C 1323.15 3.79715 2.96723 0
M  V30 7515 N 1323.23 3.5377 1.68852 0
M  V30 7516 C 1323.37 2.15054 1.63254 0
M  V30 7517 C 1323.5 1.28964 0.518571 0
M  V30 7518 N 1323.62 -0.0538097 0.918425 0
M  V30 7519 C 1323.62 -0.494275 2.22578 0
M  V30 7520 N 1323.75 -1.81086 2.40434 0
M  V30 7521 N 1323.49 0.313645 3.27502 0
M  V30 7522 C 1323.37 1.61829 2.91033 0
M  V30 7523 H 1320.39 5.40332 6.79951 0
M  V30 7524 H 1320.12 4.41613 5.32378 0
M  V30 7525 H 1320.99 3.26331 7.47797 0
M  V30 7526 P 1324.95 2.75334 8.47391 0
M  V30 7527 O 1325.17 2.44571 9.90142 0
M  V30 7528 O 1325.74 3.87688 7.92115 0
M  V30 7529 O 1325.2 1.4459 7.59357 0
M  V30 7530 C 1324.26 0.347608 7.69215 0
M  V30 7531 C 1324.99 -0.96767 7.52806 0
M  V30 7532 O 1325.2 -1.21036 6.1011 0
M  V30 7533 C 1326.39 -1.04544 8.13308 0
M  V30 7534 O 1326.78 -2.38311 8.41922 0
M  V30 7535 C 1327.27 -0.491279 7.02284 0
M  V30 7536 C 1326.56 -0.996264 5.77469 0
M  V30 7537 N 1326.61 -0.0501916 4.62973 0
M  V30 7538 H 1323.77 0.374722 8.67691 0
M  V30 7539 H 1323.5 0.443485 6.90277 0
M  V30 7540 H 1324.37 -1.75537 7.96793 0
M  V30 7541 P 1328.33 -2.75334 8.47391 0
M  V30 7542 O 1328.55 -3.84128 9.44797 0
M  V30 7543 O 1329.12 -1.51947 8.68712 0
M  V30 7544 O 1328.58 -3.29363 6.99321 0
M  V30 7545 C 1327.64 -4.24011 6.4274 0
M  V30 7546 C 1328.37 -5.20775 5.52155 0
M  V30 7547 O 1328.58 -4.56534 4.22446 0
M  V30 7548 C 1329.77 -5.62629 5.96531 0
M  V30 7549 O 1330.16 -6.87667 5.41053 0
M  V30 7550 C 1330.65 -4.52537 5.39283 0
M  V30 7551 C 1329.94 -4.20027 4.08623 0
M  V30 7552 N 1329.99 -2.76189 3.71603 0
M  V30 7553 H 1327.15 -4.797 7.24003 0
M  V30 7554 H 1326.88 -3.69856 5.84513 0
M  V30 7555 H 1327.75 -6.10356 5.41441 0
M  V30 7556 P 1331.71 -7.20834 5.23717 0
M  V30 7557 O 1331.93 -8.66104 5.38572 0
M  V30 7558 O 1332.5 -6.33544 6.1349 0
M  V30 7559 O 1331.96 -6.7751 3.72168 0
M  V30 7560 C 1331.02 -7.20825 2.7076 0
M  V30 7561 C 1331.75 -7.45864 1.40599 0
M  V30 7562 O 1331.96 -6.17651 0.734225 0
M  V30 7563 C 1333.15 -8.05808 1.51899 0
M  V30 7564 O 1333.54 -8.74358 0.335205 0
M  V30 7565 C 1334.03 -6.83093 1.70294 0
M  V30 7566 C 1333.32 -5.79992 0.836974 0
M  V30 7567 N 1333.37 -4.41864 1.38293 0
M  V30 7568 H 1330.53 -8.13644 3.0377 0
M  V30 7569 H 1330.26 -6.42788 2.55485 0
M  V30 7570 H 1331.13 -8.12039 0.792769 0
M  V30 7571 P 1335.09 -8.91 -1.06447e-11 0
M  V30 7572 O 1335.31 -10.1746 -0.733838 0
M  V30 7573 O 1335.88 -8.73346 1.23964 0
M  V30 7574 O 1335.34 -7.66872 -0.971405 0
M  V30 7575 C 1334.4 -7.42405 -2.04668 0
M  V30 7576 C 1335.13 -6.86059 -3.24661 0
M  V30 7577 O 1335.34 -5.42934 -3.03695 0
M  V30 7578 C 1336.53 -7.41287 -3.50796 0
M  V30 7579 O 1336.92 -7.27073 -4.86816 0
M  V30 7580 C 1337.41 -6.5273 -2.63741 0
M  V30 7581 C 1336.7 -5.1842 -2.73198 0
M  V30 7582 N 1336.75 -4.38762 -1.4784 0
M  V30 7583 C 1336.67 -4.83651 -0.183876 0
M  V30 7584 N 1336.74 -3.88759 0.699393 0
M  V30 7585 C 1336.89 -2.7404 -0.0575568 0
M  V30 7586 C 1337.02 -1.37902 0.293928 0
M  V30 7587 N 1337.03 -0.938021 1.54797 0
M  V30 7588 N 1337.14 -0.491817 -0.70549 0
M  V30 7589 C 1337.13 -0.931735 -1.95979 0
M  V30 7590 N 1337.01 -2.16017 -2.41481 0
M  V30 7591 C 1336.89 -3.02547 -1.39121 0
M  V30 7592 H 1333.91 -8.36899 -2.3252 0
M  V30 7593 H 1333.64 -6.70391 -1.71179 0
M  V30 7594 H 1334.51 -7.03638 -4.13219 0
M  V30 7595 H 1337.17 -4.59931 -3.54016 0
M  V30 7596 H 1337.45 -6.88995 -1.59871 0
M  V30 7597 H 1338.44 -6.4684 -3.0373 0
M  V30 7598 H 1336.6 -8.47002 -3.20749 0
M  V30 7599 H 1336.56 -5.8885 0.0765548 0
M  V30 7600 H 1336.94 -1.60276 2.32875 0
M  V30 7601 H 1337.13 0.0699355 1.73859 0
M  V30 7602 H 1337.24 -0.165507 -2.71897 0
M  V30 7603 P 1338.47 -7.20834 -5.23717 0
M  V30 7604 O 1338.69 -7.79853 -6.57286 0
M  V30 7605 O 1339.26 -7.79239 -4.12957 0
M  V30 7606 O 1338.72 -5.63315 -5.29344 0
M  V30 7607 C 1337.78 -4.80255 -6.01876 0
M  V30 7608 C 1338.51 -3.64202 -6.65911 0
M  V30 7609 O 1338.72 -2.60694 -5.64732 0
M  V30 7610 C 1339.91 -3.93473 -7.1943 0
M  V30 7611 O 1340.3 -3.02071 -8.21205 0
M  V30 7612 C 1340.79 -3.73047 -5.97036 0
M  V30 7613 C 1340.08 -2.58828 -5.25741 0
M  V30 7614 N 1340.13 -2.68068 -3.77503 0
M  V30 7615 H 1337.29 -5.40332 -6.79951 0
M  V30 7616 H 1337.02 -4.41613 -5.32378 0
M  V30 7617 H 1337.89 -3.26331 -7.47797 0
M  V30 7618 P 1341.85 -2.75334 -8.47391 0
M  V30 7619 O 1342.07 -2.44571 -9.90142 0
M  V30 7620 O 1342.64 -3.87688 -7.92115 0
M  V30 7621 O 1342.1 -1.4459 -7.59357 0
M  V30 7622 C 1341.16 -0.347608 -7.69215 0
M  V30 7623 C 1341.89 0.96767 -7.52806 0
M  V30 7624 O 1342.1 1.21036 -6.1011 0
M  V30 7625 C 1343.29 1.04544 -8.13308 0
M  V30 7626 O 1343.68 2.38311 -8.41922 0
M  V30 7627 C 1344.17 0.491279 -7.02284 0
M  V30 7628 C 1343.46 0.996264 -5.77469 0
M  V30 7629 N 1343.51 0.0501916 -4.62973 0
M  V30 7630 H 1340.67 -0.374722 -8.67691 0
M  V30 7631 H 1340.4 -0.443485 -6.90277 0
M  V30 7632 H 1341.27 1.75537 -7.96793 0
M  V30 7633 P 1345.23 2.75334 -8.47391 0
M  V30 7634 O 1345.45 3.84204 -9.44982 0
M  V30 7635 O 1346.02 1.51982 -8.68909 0
M  V30 7636 O 1345.48 3.29363 -6.99321 0
M  V30 7637 C 1344.54 4.24066 -6.42823 0
M  V30 7638 C 1345.27 5.20775 -5.52155 0
M  V30 7639 O 1345.48 4.56607 -4.22514 0
M  V30 7640 C 1346.67 5.62697 -5.96604 0
M  V30 7641 O 1347.06 6.87667 -5.41053 0
M  V30 7642 C 1347.55 4.52537 -5.39283 0
M  V30 7643 C 1346.84 4.20027 -4.08623 0
M  V30 7644 N 1346.89 2.76189 -3.71603 0
M  V30 7645 H 1344.05 4.79756 -7.24086 0
M  V30 7646 H 1343.78 3.69963 -5.84682 0
M  V30 7647 H 1344.65 6.10431 -5.41508 0
M  V30 7648 H 1347.31 4.78816 -3.28024 0
M  V30 7649 H 1347.59 3.64957 -6.05871 0
M  V30 7650 H 1348.58 4.88748 -5.21323 0
M  V30 7651 H 1346.74 5.66789 -7.0643 0
M  V30 7652 P 1348.61 7.20834 -5.23717 0
M  V30 7653 O 1348.83 8.66104 -5.38572 0
M  V30 7654 O 1349.4 6.33544 -6.1349 0
M  V30 7655 O 1348.86 6.7751 -3.72168 0
M  V30 7656 C 1347.92 7.20825 -2.7076 0
M  V30 7657 C 1348.65 7.45864 -1.40599 0
M  V30 7658 O 1348.86 6.17651 -0.734225 0
M  V30 7659 C 1350.05 8.05808 -1.51899 0
M  V30 7660 O 1350.44 8.74358 -0.335205 0
M  V30 7661 C 1350.93 6.83093 -1.70294 0
M  V30 7662 C 1350.22 5.79992 -0.836974 0
M  V30 7663 N 1350.27 4.41864 -1.38293 0
M  V30 7664 H 1347.43 8.13644 -3.0377 0
M  V30 7665 H 1347.16 6.42788 -2.55485 0
M  V30 7666 H 1348.03 8.12039 -0.792769 0
M  V30 7667 P 1351.99 8.91 1.08019e-11 0
M  V30 7668 O 1352.21 10.1726 0.733694 0
M  V30 7669 O 1352.78 8.73148 -1.23936 0
M  V30 7670 O 1352.24 7.66872 0.971405 0
M  V30 7671 C 1351.3 7.42309 2.04641 0
M  V30 7672 C 1352.03 6.86059 3.24661 0
M  V30 7673 O 1352.24 5.42847 3.03646 0
M  V30 7674 C 1353.43 7.41196 3.50753 0
M  V30 7675 O 1353.82 7.27073 4.86816 0
M  V30 7676 C 1354.31 6.5273 2.63741 0
M  V30 7677 C 1353.6 5.1842 2.73198 0
M  V30 7678 N 1353.65 4.38762 1.4784 0
M  V30 7679 H 1350.81 8.36803 2.32493 0
M  V30 7680 H 1350.54 6.70197 1.71129 0
M  V30 7681 H 1351.41 7.03551 4.13168 0
M  V30 7682 P 1355.37 7.20834 5.23717 0
M  V30 7683 O 1355.59 7.79853 6.57286 0
M  V30 7684 O 1356.16 7.79239 4.12957 0
M  V30 7685 O 1355.62 5.63315 5.29344 0
M  V30 7686 C 1354.68 4.80255 6.01876 0
M  V30 7687 C 1355.41 3.64202 6.65911 0
M  V30 7688 O 1355.62 2.60694 5.64732 0
M  V30 7689 C 1356.81 3.93473 7.1943 0
M  V30 7690 O 1357.2 3.02071 8.21205 0
M  V30 7691 C 1357.69 3.73047 5.97036 0
M  V30 7692 C 1356.98 2.58828 5.25741 0
M  V30 7693 N 1357.03 2.68068 3.77503 0
M  V30 7694 H 1354.19 5.40332 6.79951 0
M  V30 7695 H 1353.92 4.41613 5.32378 0
M  V30 7696 H 1354.79 3.26331 7.47797 0
M  V30 7697 P 1358.75 2.75334 8.47391 0
M  V30 7698 O 1358.97 2.44595 9.90239 0
M  V30 7699 O 1359.54 3.87732 7.92204 0
M  V30 7700 O 1359 1.4459 7.59357 0
M  V30 7701 C 1358.06 0.347608 7.69215 0
M  V30 7702 C 1358.79 -0.96767 7.52806 0
M  V30 7703 O 1359 -1.21036 6.1011 0
M  V30 7704 C 1360.19 -1.04544 8.13308 0
M  V30 7705 O 1360.58 -2.38311 8.41922 0
M  V30 7706 C 1361.07 -0.491279 7.02284 0
M  V30 7707 C 1360.36 -0.996264 5.77469 0
M  V30 7708 N 1360.41 -0.0501808 4.62873 0
M  V30 7709 C 1360.56 -0.578037 3.3505 0
M  V30 7710 O 1360.65 -1.8073 3.21711 0
M  V30 7711 N 1360.61 0.468541 2.263 0
M  V30 7712 C 1360.51 1.59186 2.47176 0
M  V30 7713 N 1360.56 2.37626 1.40392 0
M  V30 7714 C 1360.36 2.16203 3.77467 0
M  V30 7715 C 1360.31 1.29324 4.8195 0
M  V30 7716 H 1357.57 0.374679 8.67591 0
M  V30 7717 H 1357.3 0.443421 6.90177 0
M  V30 7718 H 1358.17 -1.75559 7.96891 0
M  V30 7719 H 1360.82 -1.94529 5.46723 0
M  V30 7720 H 1361.1 0.608651 7.04676 0
M  V30 7721 H 1362.1 -0.889672 7.08939 0
M  V30 7722 H 1360.26 -0.43308 9.04564 0
M  V30 7723 H 1360.19 1.67758 5.83046 0
M  V30 7724 H 1360.29 3.23869 3.92281 0
M  V30 7725 H 1360.68 1.96317 0.467202 0
M  V30 7726 H 1360.48 3.39693 1.51142 0
M  V30 7727 P 1362.13 -2.75334 8.47391 0
M  V30 7728 O 1362.35 -3.84128 9.44797 0
M  V30 7729 O 1362.92 -1.51947 8.68712 0
M  V30 7730 O 1362.38 -3.29363 6.99321 0
M  V30 7731 C 1361.44 -4.24011 6.4274 0
M  V30 7732 C 1362.17 -5.20775 5.52155 0
M  V30 7733 O 1362.38 -4.56534 4.22446 0
M  V30 7734 C 1363.57 -5.62629 5.96531 0
M  V30 7735 O 1363.96 -6.87667 5.41053 0
M  V30 7736 C 1364.45 -4.52537 5.39283 0
M  V30 7737 C 1363.74 -4.20027 4.08623 0
M  V30 7738 N 1363.79 -2.76189 3.71603 0
M  V30 7739 H 1360.95 -4.797 7.24003 0
M  V30 7740 H 1360.68 -3.69856 5.84513 0
M  V30 7741 H 1361.55 -6.10356 5.41441 0
M  V30 7742 P 1365.51 -7.20834 5.23717 0
M  V30 7743 O 1365.73 -8.66104 5.38572 0
M  V30 7744 O 1366.3 -6.33544 6.1349 0
M  V30 7745 O 1365.76 -6.7751 3.72168 0
M  V30 7746 C 1364.82 -7.20825 2.7076 0
M  V30 7747 C 1365.55 -7.45864 1.40599 0
M  V30 7748 O 1365.76 -6.17651 0.734225 0
M  V30 7749 C 1366.95 -8.05808 1.51899 0
M  V30 7750 O 1367.34 -8.74358 0.335205 0
M  V30 7751 C 1367.83 -6.83093 1.70294 0
M  V30 7752 C 1367.12 -5.79992 0.836974 0
M  V30 7753 N 1367.17 -4.41864 1.38293 0
M  V30 7754 H 1364.33 -8.13644 3.0377 0
M  V30 7755 H 1364.06 -6.42788 2.55485 0
M  V30 7756 H 1364.93 -8.12039 0.792769 0
M  V30 7757 P 1368.89 -8.91 -1.09591e-11 0
M  V30 7758 O 1369.11 -10.1726 -0.733694 0
M  V30 7759 O 1369.68 -8.73148 1.23936 0
M  V30 7760 O 1369.14 -7.66872 -0.971405 0
M  V30 7761 C 1368.2 -7.42309 -2.04641 0
M  V30 7762 C 1368.93 -6.86059 -3.24661 0
M  V30 7763 O 1369.14 -5.42847 -3.03646 0
M  V30 7764 C 1370.33 -7.41196 -3.50753 0
M  V30 7765 O 1370.72 -7.27073 -4.86816 0
M  V30 7766 C 1371.21 -6.5273 -2.63741 0
M  V30 7767 C 1370.5 -5.1842 -2.73198 0
M  V30 7768 N 1370.55 -4.38762 -1.4784 0
M  V30 7769 H 1367.71 -8.36803 -2.32493 0
M  V30 7770 H 1367.44 -6.70197 -1.71129 0
M  V30 7771 H 1368.31 -7.03551 -4.13168 0
M  V30 7772 P 1372.27 -7.20834 -5.23717 0
M  V30 7773 O 1372.49 -7.79853 -6.57286 0
M  V30 7774 O 1373.06 -7.79239 -4.12957 0
M  V30 7775 O 1372.52 -5.63315 -5.29344 0
M  V30 7776 C 1371.58 -4.80255 -6.01876 0
M  V30 7777 C 1372.31 -3.64202 -6.65911 0
M  V30 7778 O 1372.52 -2.60694 -5.64732 0
M  V30 7779 C 1373.71 -3.93473 -7.1943 0
M  V30 7780 O 1374.1 -3.02071 -8.21205 0
M  V30 7781 C 1374.59 -3.73047 -5.97036 0
M  V30 7782 C 1373.88 -2.58828 -5.25741 0
M  V30 7783 N 1373.93 -2.68068 -3.77503 0
M  V30 7784 H 1371.09 -5.40332 -6.79951 0
M  V30 7785 H 1370.82 -4.41613 -5.32378 0
M  V30 7786 H 1371.69 -3.26331 -7.47797 0
M  V30 7787 P 1375.65 -2.75334 -8.47391 0
M  V30 7788 O 1375.87 -2.44571 -9.90142 0
M  V30 7789 O 1376.44 -3.87688 -7.92115 0
M  V30 7790 O 1375.9 -1.4459 -7.59357 0
M  V30 7791 C 1374.96 -0.347608 -7.69215 0
M  V30 7792 C 1375.69 0.96767 -7.52806 0
M  V30 7793 O 1375.9 1.21036 -6.1011 0
M  V30 7794 C 1377.09 1.04544 -8.13308 0
M  V30 7795 O 1377.48 2.38311 -8.41922 0
M  V30 7796 C 1377.97 0.491279 -7.02284 0
M  V30 7797 C 1377.26 0.996264 -5.77469 0
M  V30 7798 N 1377.31 0.0501916 -4.62973 0
M  V30 7799 H 1374.47 -0.374722 -8.67691 0
M  V30 7800 H 1374.2 -0.443485 -6.90277 0
M  V30 7801 H 1375.07 1.75537 -7.96793 0
M  V30 7802 P 1379.03 2.75334 -8.47391 0
M  V30 7803 O 1379.25 3.84128 -9.44797 0
M  V30 7804 O 1379.82 1.51947 -8.68712 0
M  V30 7805 O 1379.28 3.29363 -6.99321 0
M  V30 7806 C 1378.34 4.24011 -6.4274 0
M  V30 7807 C 1379.07 5.20775 -5.52155 0
M  V30 7808 O 1379.28 4.56534 -4.22446 0
M  V30 7809 C 1380.47 5.62629 -5.96531 0
M  V30 7810 O 1380.86 6.87667 -5.41053 0
M  V30 7811 C 1381.35 4.52537 -5.39283 0
M  V30 7812 C 1380.64 4.20027 -4.08623 0
M  V30 7813 N 1380.69 2.76189 -3.71603 0
M  V30 7814 H 1377.85 4.797 -7.24003 0
M  V30 7815 H 1377.58 3.69856 -5.84513 0
M  V30 7816 H 1378.45 6.10356 -5.41441 0
M  V30 7817 P 1382.41 7.20834 -5.23717 0
M  V30 7818 O 1382.63 8.66104 -5.38572 0
M  V30 7819 O 1383.2 6.33544 -6.1349 0
M  V30 7820 O 1382.66 6.7751 -3.72168 0
M  V30 7821 C 1381.72 7.20825 -2.7076 0
M  V30 7822 C 1382.45 7.45864 -1.40599 0
M  V30 7823 O 1382.66 6.17651 -0.734225 0
M  V30 7824 C 1383.85 8.05808 -1.51899 0
M  V30 7825 O 1384.24 8.74358 -0.335205 0
M  V30 7826 C 1384.73 6.83093 -1.70294 0
M  V30 7827 C 1384.02 5.79992 -0.836974 0
M  V30 7828 N 1384.07 4.41864 -1.38293 0
M  V30 7829 H 1381.23 8.13644 -3.0377 0
M  V30 7830 H 1380.96 6.42788 -2.55485 0
M  V30 7831 H 1381.83 8.12039 -0.792769 0
M  V30 7832 P 1385.79 8.91 1.03566e-11 0
M  V30 7833 O 1386.01 10.1726 0.733694 0
M  V30 7834 O 1386.58 8.73148 -1.23936 0
M  V30 7835 O 1386.04 7.66872 0.971405 0
M  V30 7836 C 1385.1 7.42309 2.04641 0
M  V30 7837 C 1385.83 6.86059 3.24661 0
M  V30 7838 O 1386.04 5.42847 3.03646 0
M  V30 7839 C 1387.23 7.41196 3.50753 0
M  V30 7840 O 1387.62 7.27073 4.86816 0
M  V30 7841 C 1388.11 6.5273 2.63741 0
M  V30 7842 C 1387.4 5.1842 2.73198 0
M  V30 7843 N 1387.45 4.38762 1.4784 0
M  V30 7844 C 1387.37 4.81605 0.168631 0
M  V30 7845 N 1387.45 3.85454 -0.713363 0
M  V30 7846 C 1387.59 2.6994 0.0566958 0
M  V30 7847 C 1387.72 1.34815 -0.338502 0
M  V30 7848 N 1387.84 0.496304 0.77465 0
M  V30 7849 C 1387.84 0.908403 2.09122 0
M  V30 7850 N 1387.97 -0.0517805 3.00955 0
M  V30 7851 N 1387.71 2.17875 2.46519 0
M  V30 7852 C 1387.59 3.01988 1.4033 0
M  V30 7853 H 1384.61 8.36803 2.32493 0
M  V30 7854 H 1384.34 6.70197 1.71129 0
M  V30 7855 H 1385.21 7.03551 4.13168 0
M  V30 7856 P 1389.17 7.20834 5.23717 0
M  V30 7857 O 1389.39 7.79853 6.57286 0
M  V30 7858 O 1389.96 7.79239 4.12957 0
M  V30 7859 O 1389.42 5.63315 5.29344 0
M  V30 7860 C 1388.48 4.80255 6.01876 0
M  V30 7861 C 1389.21 3.64202 6.65911 0
M  V30 7862 O 1389.42 2.60694 5.64732 0
M  V30 7863 C 1390.61 3.93473 7.1943 0
M  V30 7864 O 1391 3.02071 8.21205 0
M  V30 7865 C 1391.49 3.73047 5.97036 0
M  V30 7866 C 1390.78 2.58828 5.25741 0
M  V30 7867 N 1390.83 2.68068 3.77503 0
M  V30 7868 H 1387.99 5.40332 6.79951 0
M  V30 7869 H 1387.72 4.41613 5.32378 0
M  V30 7870 H 1388.59 3.26331 7.47797 0
M  V30 7871 P 1392.55 2.75334 8.47391 0
M  V30 7872 O 1392.77 2.44571 9.90142 0
M  V30 7873 O 1393.34 3.87688 7.92115 0
M  V30 7874 O 1392.8 1.4459 7.59357 0
M  V30 7875 C 1391.86 0.347608 7.69215 0
M  V30 7876 C 1392.59 -0.96767 7.52806 0
M  V30 7877 O 1392.8 -1.21036 6.1011 0
M  V30 7878 C 1393.99 -1.04544 8.13308 0
M  V30 7879 O 1394.38 -2.38311 8.41922 0
M  V30 7880 C 1394.87 -0.491279 7.02284 0
M  V30 7881 C 1394.16 -0.996264 5.77469 0
M  V30 7882 N 1394.21 -0.0501916 4.62973 0
M  V30 7883 C 1394.13 1.32786 4.63244 0
M  V30 7884 N 1394.21 1.86957 3.44545 0
M  V30 7885 C 1394.35 0.780241 2.58481 0
M  V30 7886 C 1394.48 0.738536 1.17757 0
M  V30 7887 N 1394.6 -0.58337 0.711393 0
M  V30 7888 C 1394.6 -1.70816 1.51017 0
M  V30 7889 N 1394.73 -2.87826 0.880757 0
M  V30 7890 N 1394.47 -1.67126 2.8339 0
M  V30 7891 C 1394.35 -0.401421 3.30572 0
M  V30 7892 H 1391.37 0.374722 8.67691 0
M  V30 7893 H 1391.1 0.443485 6.90277 0
M  V30 7894 H 1391.97 -1.75537 7.96793 0
M  V30 7895 P 1395.93 -2.75334 8.47391 0
M  V30 7896 O 1396.15 -3.84128 9.44797 0
M  V30 7897 O 1396.72 -1.51947 8.68712 0
M  V30 7898 O 1396.18 -3.29363 6.99321 0
M  V30 7899 C 1395.24 -4.24011 6.4274 0
M  V30 7900 C 1395.97 -5.20775 5.52155 0
M  V30 7901 O 1396.18 -4.56534 4.22446 0
M  V30 7902 C 1397.37 -5.62629 5.96531 0
M  V30 7903 O 1397.76 -6.87667 5.41053 0
M  V30 7904 C 1398.25 -4.52537 5.39283 0
M  V30 7905 C 1397.54 -4.20027 4.08623 0
M  V30 7906 N 1397.59 -2.76189 3.71603 0
M  V30 7907 H 1394.75 -4.797 7.24003 0
M  V30 7908 H 1394.48 -3.69856 5.84513 0
M  V30 7909 H 1395.35 -6.10356 5.41441 0
M  V30 7910 P 1399.31 -7.20834 5.23717 0
M  V30 7911 O 1399.53 -8.66104 5.38572 0
M  V30 7912 O 1400.1 -6.33544 6.1349 0
M  V30 7913 O 1399.56 -6.7751 3.72168 0
M  V30 7914 C 1398.62 -7.20825 2.7076 0
M  V30 7915 C 1399.35 -7.45864 1.40599 0
M  V30 7916 O 1399.56 -6.17651 0.734225 0
M  V30 7917 C 1400.75 -8.05808 1.51899 0
M  V30 7918 O 1401.14 -8.74358 0.335205 0
M  V30 7919 C 1401.63 -6.83093 1.70294 0
M  V30 7920 C 1400.92 -5.79992 0.836974 0
M  V30 7921 N 1400.97 -4.41864 1.38293 0
M  V30 7922 H 1398.13 -8.13644 3.0377 0
M  V30 7923 H 1397.86 -6.42788 2.55485 0
M  V30 7924 H 1398.73 -8.12039 0.792769 0
M  V30 7925 P 1402.69 -8.91 -9.24756e-12 0
M  V30 7926 O 1402.91 -10.1726 -0.733694 0
M  V30 7927 O 1403.48 -8.73148 1.23936 0
M  V30 7928 O 1402.94 -7.66872 -0.971405 0
M  V30 7929 C 1402 -7.42309 -2.04641 0
M  V30 7930 C 1402.73 -6.86059 -3.24661 0
M  V30 7931 O 1402.94 -5.42847 -3.03646 0
M  V30 7932 C 1404.13 -7.41196 -3.50753 0
M  V30 7933 O 1404.52 -7.27073 -4.86816 0
M  V30 7934 C 1405.01 -6.5273 -2.63741 0
M  V30 7935 C 1404.3 -5.1842 -2.73198 0
M  V30 7936 N 1404.35 -4.38762 -1.4784 0
M  V30 7937 H 1401.51 -8.36803 -2.32493 0
M  V30 7938 H 1401.24 -6.70197 -1.71129 0
M  V30 7939 H 1402.11 -7.03551 -4.13168 0
M  V30 7940 P 1406.07 -7.20834 -5.23717 0
M  V30 7941 O 1406.29 -7.79853 -6.57286 0
M  V30 7942 O 1406.86 -7.79239 -4.12957 0
M  V30 7943 O 1406.32 -5.63315 -5.29344 0
M  V30 7944 C 1405.38 -4.80255 -6.01876 0
M  V30 7945 C 1406.11 -3.64202 -6.65911 0
M  V30 7946 O 1406.32 -2.60694 -5.64732 0
M  V30 7947 C 1407.51 -3.93473 -7.1943 0
M  V30 7948 O 1407.9 -3.02071 -8.21205 0
M  V30 7949 C 1408.39 -3.73047 -5.97036 0
M  V30 7950 C 1407.68 -2.58828 -5.25741 0
M  V30 7951 N 1407.73 -2.68068 -3.77503 0
M  V30 7952 H 1404.89 -5.40332 -6.79951 0
M  V30 7953 H 1404.62 -4.41613 -5.32378 0
M  V30 7954 H 1405.49 -3.26331 -7.47797 0
M  V30 7955 P 1409.45 -2.75334 -8.47391 0
M  V30 7956 O 1409.67 -2.44571 -9.90142 0
M  V30 7957 O 1410.24 -3.87688 -7.92115 0
M  V30 7958 O 1409.7 -1.4459 -7.59357 0
M  V30 7959 C 1408.76 -0.347608 -7.69215 0
M  V30 7960 C 1409.49 0.96767 -7.52806 0
M  V30 7961 O 1409.7 1.21036 -6.1011 0
M  V30 7962 C 1410.89 1.04544 -8.13308 0
M  V30 7963 O 1411.28 2.38311 -8.41922 0
M  V30 7964 C 1411.77 0.491279 -7.02284 0
M  V30 7965 C 1411.06 0.996264 -5.77469 0
M  V30 7966 N 1411.11 0.0501916 -4.62973 0
M  V30 7967 H 1408.27 -0.374722 -8.67691 0
M  V30 7968 H 1408 -0.443485 -6.90277 0
M  V30 7969 H 1408.87 1.75537 -7.96793 0
M  V30 7970 P 1412.83 2.75334 -8.47391 0
M  V30 7971 O 1413.05 3.84128 -9.44797 0
M  V30 7972 O 1413.62 1.51947 -8.68712 0
M  V30 7973 O 1413.08 3.29363 -6.99321 0
M  V30 7974 C 1412.14 4.24011 -6.4274 0
M  V30 7975 C 1412.87 5.20775 -5.52155 0
M  V30 7976 O 1413.08 4.56534 -4.22446 0
M  V30 7977 C 1414.27 5.62629 -5.96531 0
M  V30 7978 O 1414.66 6.87667 -5.41053 0
M  V30 7979 C 1415.15 4.52537 -5.39283 0
M  V30 7980 C 1414.44 4.20027 -4.08623 0
M  V30 7981 N 1414.49 2.76189 -3.71603 0
M  V30 7982 H 1411.65 4.797 -7.24003 0
M  V30 7983 H 1411.38 3.69856 -5.84513 0
M  V30 7984 H 1412.25 6.10356 -5.41441 0
M  V30 7985 P 1416.21 7.20834 -5.23717 0
M  V30 7986 O 1416.43 8.66104 -5.38572 0
M  V30 7987 O 1417 6.33544 -6.1349 0
M  V30 7988 O 1416.46 6.7751 -3.72168 0
M  V30 7989 C 1415.52 7.20825 -2.7076 0
M  V30 7990 C 1416.25 7.45864 -1.40599 0
M  V30 7991 O 1416.46 6.17651 -0.734225 0
M  V30 7992 C 1417.65 8.05808 -1.51899 0
M  V30 7993 O 1418.04 8.74358 -0.335205 0
M  V30 7994 C 1418.53 6.83093 -1.70294 0
M  V30 7995 C 1417.82 5.79992 -0.836974 0
M  V30 7996 N 1417.87 4.41864 -1.38293 0
M  V30 7997 H 1415.03 8.13644 -3.0377 0
M  V30 7998 H 1414.76 6.42788 -2.55485 0
M  V30 7999 H 1415.63 8.12039 -0.792769 0
M  V30 8000 P 1419.59 8.91 8.13856e-12 0
M  V30 8001 O 1419.81 10.1746 0.733838 0
M  V30 8002 O 1420.38 8.73346 -1.23964 0
M  V30 8003 O 1419.84 7.66872 0.971405 0
M  V30 8004 C 1418.9 7.42405 2.04668 0
M  V30 8005 C 1419.63 6.86059 3.24661 0
M  V30 8006 O 1419.84 5.42934 3.03695 0
M  V30 8007 C 1421.03 7.41287 3.50796 0
M  V30 8008 O 1421.42 7.27073 4.86816 0
M  V30 8009 C 1421.91 6.5273 2.63741 0
M  V30 8010 C 1421.2 5.1842 2.73198 0
M  V30 8011 N 1421.25 4.38762 1.4784 0
M  V30 8012 H 1418.41 8.36899 2.3252 0
M  V30 8013 H 1418.14 6.70391 1.71179 0
M  V30 8014 H 1419.01 7.03638 4.13219 0
M  V30 8015 H 1421.66 4.59931 3.54016 0
M  V30 8016 H 1421.94 6.88995 1.59871 0
M  V30 8017 H 1422.94 6.4684 3.0373 0
M  V30 8018 H 1421.1 8.47002 3.20749 0
M  V30 8019 P 1422.97 7.20834 5.23717 0
M  V30 8020 O 1423.19 7.79853 6.57286 0
M  V30 8021 O 1423.76 7.79239 4.12957 0
M  V30 8022 O 1423.22 5.63315 5.29344 0
M  V30 8023 C 1422.28 4.80255 6.01876 0
M  V30 8024 C 1423.01 3.64202 6.65911 0
M  V30 8025 O 1423.22 2.60694 5.64732 0
M  V30 8026 C 1424.41 3.93473 7.1943 0
M  V30 8027 O 1424.8 3.02071 8.21205 0
M  V30 8028 C 1425.29 3.73047 5.97036 0
M  V30 8029 C 1424.58 2.58828 5.25741 0
M  V30 8030 N 1424.63 2.68068 3.77503 0
M  V30 8031 H 1421.79 5.40332 6.79951 0
M  V30 8032 H 1421.52 4.41613 5.32378 0
M  V30 8033 H 1422.39 3.26331 7.47797 0
M  V30 8034 P 1426.35 2.75334 8.47391 0
M  V30 8035 O 1426.57 2.44571 9.90142 0
M  V30 8036 O 1427.14 3.87688 7.92115 0
M  V30 8037 O 1426.6 1.4459 7.59357 0
M  V30 8038 C 1425.66 0.347608 7.69215 0
M  V30 8039 C 1426.39 -0.96767 7.52806 0
M  V30 8040 O 1426.6 -1.21036 6.1011 0
M  V30 8041 C 1427.79 -1.04544 8.13308 0
M  V30 8042 O 1428.18 -2.38311 8.41922 0
M  V30 8043 C 1428.67 -0.491279 7.02284 0
M  V30 8044 C 1427.96 -0.996264 5.77469 0
M  V30 8045 N 1428.01 -0.0501916 4.62973 0
M  V30 8046 H 1425.17 0.374722 8.67691 0
M  V30 8047 H 1424.9 0.443485 6.90277 0
M  V30 8048 H 1425.77 -1.75537 7.96793 0
M  V30 8049 P 1429.73 -2.75334 8.47391 0
M  V30 8050 O 1429.95 -3.84128 9.44797 0
M  V30 8051 O 1430.52 -1.51947 8.68712 0
M  V30 8052 O 1429.98 -3.29363 6.99321 0
M  V30 8053 C 1429.04 -4.24011 6.4274 0
M  V30 8054 C 1429.77 -5.20775 5.52155 0
M  V30 8055 O 1429.98 -4.56534 4.22446 0
M  V30 8056 C 1431.17 -5.62629 5.96531 0
M  V30 8057 O 1431.56 -6.87667 5.41053 0
M  V30 8058 C 1432.05 -4.52537 5.39283 0
M  V30 8059 C 1431.34 -4.20027 4.08623 0
M  V30 8060 N 1431.39 -2.76189 3.71603 0
M  V30 8061 C 1431.31 -1.64862 4.52822 0
M  V30 8062 N 1431.39 -0.512671 3.88633 0
M  V30 8063 C 1431.53 -0.888083 2.54977 0
M  V30 8064 C 1431.66 -0.094668 1.38677 0
M  V30 8065 O 1431.68 1.13053 1.28163 0
M  V30 8066 N 1431.78 -0.890102 0.232633 0
M  V30 8067 C 1431.78 -2.26958 0.21772 0
M  V30 8068 N 1431.91 -2.84626 -0.97925 0
M  V30 8069 N 1431.65 -3.0178 1.31033 0
M  V30 8070 C 1431.53 -2.26781 2.43843 0
M  V30 8071 H 1428.55 -4.797 7.24003 0
M  V30 8072 H 1428.28 -3.69856 5.84513 0
M  V30 8073 H 1429.15 -6.10356 5.41441 0
M  V30 8074 H 1431.8 -4.79061 3.27488 0
M  V30 8075 H 1432.08 -3.64906 6.05785 0
M  V30 8076 H 1433.08 -4.8868 5.2125 0
M  V30 8077 H 1431.24 -5.66726 7.06352 0
M  V30 8078 H 1431.19 -1.71169 5.60966 0
M  V30 8079 H 1431.87 -0.419134 -0.644739 0
M  V30 8080 H 1431.91 -3.87332 -1.06098 0
M  V30 8081 H 1432.01 -2.26417 -1.82483 0
M  V30 8082 P 1433.11 -7.20834 5.23717 0
M  V30 8083 O 1433.33 -8.66104 5.38572 0
M  V30 8084 O 1433.9 -6.33544 6.1349 0
M  V30 8085 O 1433.36 -6.7751 3.72168 0
M  V30 8086 C 1432.42 -7.20825 2.7076 0
M  V30 8087 C 1433.15 -7.45864 1.40599 0
M  V30 8088 O 1433.36 -6.17651 0.734225 0
M  V30 8089 C 1434.55 -8.05808 1.51899 0
M  V30 8090 O 1434.94 -8.74358 0.335205 0
M  V30 8091 C 1435.43 -6.83093 1.70294 0
M  V30 8092 C 1434.72 -5.79992 0.836974 0
M  V30 8093 N 1434.77 -4.41864 1.38293 0
M  V30 8094 H 1431.93 -8.13644 3.0377 0
M  V30 8095 H 1431.66 -6.42788 2.55485 0
M  V30 8096 H 1432.53 -8.12039 0.792769 0
M  V30 8097 P 1436.49 -8.91 -7.02955e-12 0
M  V30 8098 O 1436.71 -10.1736 -0.733766 0
M  V30 8099 O 1437.28 -8.73247 1.2395 0
M  V30 8100 O 1436.74 -7.66872 -0.971405 0
M  V30 8101 C 1435.8 -7.42212 -2.04614 0
M  V30 8102 C 1436.53 -6.86059 -3.24661 0
M  V30 8103 O 1436.74 -5.42847 -3.03646 0
M  V30 8104 C 1437.93 -7.41196 -3.50753 0
M  V30 8105 O 1438.32 -7.27073 -4.86816 0
M  V30 8106 C 1438.81 -6.5273 -2.63741 0
M  V30 8107 C 1438.1 -5.1842 -2.73198 0
M  V30 8108 N 1438.15 -4.38668 -1.47808 0
M  V30 8109 C 1438.3 -3.02239 -1.60048 0
M  V30 8110 O 1438.39 -2.46459 -2.67869 0
M  V30 8111 N 1438.34 -2.32436 -0.408571 0
M  V30 8112 C 1438.25 -2.85471 0.854993 0
M  V30 8113 O 1438.3 -2.12566 1.8531 0
M  V30 8114 C 1438.1 -4.28918 0.887335 0
M  V30 8115 C 1437.99 -4.91066 2.24619 0
M  V30 8116 C 1438.05 -5.00349 -0.255399 0
M  V30 8117 H 1435.31 -8.36803 -2.32493 0
M  V30 8118 H 1435.04 -6.701 -1.71105 0
M  V30 8119 H 1435.91 -7.03551 -4.13168 0
M  V30 8120 H 1438.56 -4.59773 -3.53894 0
M  V30 8121 H 1438.84 -6.88995 -1.59871 0
M  V30 8122 H 1439.84 -6.46749 -3.03687 0
M  V30 8123 H 1438 -8.46908 -3.20714 0
M  V30 8124 H 1437.93 -6.08548 -0.206986 0
M  V30 8125 H 1438.96 -5.34836 2.53099 0
M  V30 8126 H 1437.22 -5.69638 2.2291 0
M  V30 8127 H 1437.71 -4.13971 2.98044 0
M  V30 8128 H 1438.45 -1.33211 -0.474216 0
M  V30 8129 P 1439.87 -7.20834 -5.23717 0
M  V30 8130 O 1440.09 -7.80006 -6.57415 0
M  V30 8131 O 1440.66 -7.79416 -4.13051 0
M  V30 8132 O 1440.12 -5.63315 -5.29344 0
M  V30 8133 C 1439.18 -4.80318 -6.01954 0
M  V30 8134 C 1439.91 -3.64202 -6.65911 0
M  V30 8135 O 1440.12 -2.60736 -5.64823 0
M  V30 8136 C 1441.31 -3.93521 -7.19518 0
M  V30 8137 O 1441.7 -3.02071 -8.21205 0
M  V30 8138 C 1442.19 -3.73047 -5.97036 0
M  V30 8139 C 1441.48 -2.58828 -5.25741 0
M  V30 8140 N 1441.53 -2.68068 -3.77503 0
M  V30 8141 H 1438.69 -5.40394 -6.8003 0
M  V30 8142 H 1438.42 -4.41741 -5.32532 0
M  V30 8143 H 1439.29 -3.26371 -7.47889 0
M  V30 8144 H 1441.94 -1.64007 -5.56746 0
M  V30 8145 H 1442.22 -4.63439 -5.3432 0
M  V30 8146 H 1443.22 -3.44776 -6.25925 0
M  V30 8147 H 1441.38 -4.96707 -7.57347 0
M  V30 8148 P 1443.25 -2.75334 -8.47391 0
M  V30 8149 O 1443.47 -2.44571 -9.90142 0
M  V30 8150 O 1444.04 -3.87688 -7.92115 0
M  V30 8151 O 1443.5 -1.4459 -7.59357 0
M  V30 8152 C 1442.56 -0.347608 -7.69215 0
M  V30 8153 C 1443.29 0.96767 -7.52806 0
M  V30 8154 O 1443.5 1.21036 -6.1011 0
M  V30 8155 C 1444.69 1.04544 -8.13308 0
M  V30 8156 O 1445.08 2.38311 -8.41922 0
M  V30 8157 C 1445.57 0.491279 -7.02284 0
M  V30 8158 C 1444.86 0.996264 -5.77469 0
M  V30 8159 N 1444.91 0.0501916 -4.62973 0
M  V30 8160 H 1442.07 -0.374722 -8.67691 0
M  V30 8161 H 1441.8 -0.443485 -6.90277 0
M  V30 8162 H 1442.67 1.75537 -7.96793 0
M  V30 8163 P 1446.63 2.75334 -8.47391 0
M  V30 8164 O 1446.85 3.84204 -9.44982 0
M  V30 8165 O 1447.42 1.51982 -8.68909 0
M  V30 8166 O 1446.88 3.29363 -6.99321 0
M  V30 8167 C 1445.94 4.24066 -6.42823 0
M  V30 8168 C 1446.67 5.20775 -5.52155 0
M  V30 8169 O 1446.88 4.56607 -4.22514 0
M  V30 8170 C 1448.07 5.62697 -5.96604 0
M  V30 8171 O 1448.46 6.87667 -5.41053 0
M  V30 8172 C 1448.95 4.52537 -5.39283 0
M  V30 8173 C 1448.24 4.20027 -4.08623 0
M  V30 8174 N 1448.29 2.76189 -3.71603 0
M  V30 8175 C 1448.21 1.66944 -4.54297 0
M  V30 8176 N 1448.28 0.536169 -3.91344 0
M  V30 8177 C 1448.43 0.901569 -2.58849 0
M  V30 8178 C 1448.56 0.146599 -1.40236 0
M  V30 8179 N 1448.57 -1.18234 -1.37046 0
M  V30 8180 N 1448.68 0.822941 -0.249738 0
M  V30 8181 C 1448.67 2.15179 -0.280525 0
M  V30 8182 N 1448.55 2.96414 -1.30822 0
M  V30 8183 C 1448.43 2.25804 -2.44748 0
M  V30 8184 H 1445.45 4.79756 -7.24086 0
M  V30 8185 H 1445.18 3.69963 -5.84682 0
M  V30 8186 H 1446.05 6.10431 -5.41508 0
M  V30 8187 H 1448.7 4.78816 -3.28024 0
M  V30 8188 H 1448.98 3.64957 -6.05871 0
M  V30 8189 H 1449.98 4.88748 -5.21323 0
M  V30 8190 H 1448.14 5.66789 -7.0643 0
M  V30 8191 H 1448.1 1.74684 -5.62396 0
M  V30 8192 H 1448.48 -1.71949 -2.24394 0
M  V30 8193 H 1448.67 -1.67511 -0.470742 0
M  V30 8194 H 1448.78 2.63704 0.6828 0
M  V30 8195 P 1450.01 7.20834 -5.23717 0
M  V30 8196 O 1450.23 8.66104 -5.38572 0
M  V30 8197 O 1450.8 6.33544 -6.1349 0
M  V30 8198 O 1450.26 6.7751 -3.72168 0
M  V30 8199 C 1449.32 7.20825 -2.7076 0
M  V30 8200 C 1450.05 7.45864 -1.40599 0
M  V30 8201 O 1450.26 6.17651 -0.734225 0
M  V30 8202 C 1451.45 8.05808 -1.51899 0
M  V30 8203 O 1451.84 8.74358 -0.335205 0
M  V30 8204 C 1452.33 6.83093 -1.70294 0
M  V30 8205 C 1451.62 5.79992 -0.836974 0
M  V30 8206 N 1451.67 4.41864 -1.38293 0
M  V30 8207 H 1448.83 8.13644 -3.0377 0
M  V30 8208 H 1448.56 6.42788 -2.55485 0
M  V30 8209 H 1449.43 8.12039 -0.792769 0
M  V30 8210 P 1453.39 8.91 5.92055e-12 0
M  V30 8211 O 1453.61 10.1726 0.733694 0
M  V30 8212 O 1454.18 8.73148 -1.23936 0
M  V30 8213 O 1453.64 7.66872 0.971405 0
M  V30 8214 C 1452.7 7.42309 2.04641 0
M  V30 8215 C 1453.43 6.86059 3.24661 0
M  V30 8216 O 1453.64 5.42847 3.03646 0
M  V30 8217 C 1454.83 7.41196 3.50753 0
M  V30 8218 O 1455.22 7.27073 4.86816 0
M  V30 8219 C 1455.71 6.5273 2.63741 0
M  V30 8220 C 1455 5.1842 2.73198 0
M  V30 8221 N 1455.05 4.38762 1.4784 0
M  V30 8222 C 1454.97 4.81605 0.168631 0
M  V30 8223 N 1455.05 3.85454 -0.713363 0
M  V30 8224 C 1455.19 2.6994 0.0566958 0
M  V30 8225 C 1455.32 1.34815 -0.338502 0
M  V30 8226 N 1455.44 0.496304 0.77465 0
M  V30 8227 C 1455.44 0.908403 2.09122 0
M  V30 8228 N 1455.57 -0.0517805 3.00955 0
M  V30 8229 N 1455.31 2.17875 2.46519 0
M  V30 8230 C 1455.19 3.01988 1.4033 0
M  V30 8231 H 1452.21 8.36803 2.32493 0
M  V30 8232 H 1451.94 6.70197 1.71129 0
M  V30 8233 H 1452.81 7.03551 4.13168 0
M  V30 8234 P 1456.77 7.20834 5.23717 0
M  V30 8235 O 1456.99 7.79853 6.57286 0
M  V30 8236 O 1457.56 7.79239 4.12957 0
M  V30 8237 O 1457.02 5.63315 5.29344 0
M  V30 8238 C 1456.08 4.80255 6.01876 0
M  V30 8239 C 1456.81 3.64202 6.65911 0
M  V30 8240 O 1457.02 2.60694 5.64732 0
M  V30 8241 C 1458.21 3.93473 7.1943 0
M  V30 8242 O 1458.6 3.02071 8.21205 0
M  V30 8243 C 1459.09 3.73047 5.97036 0
M  V30 8244 C 1458.38 2.58828 5.25741 0
M  V30 8245 N 1458.43 2.68068 3.77503 0
M  V30 8246 H 1455.59 5.40332 6.79951 0
M  V30 8247 H 1455.32 4.41613 5.32378 0
M  V30 8248 H 1456.19 3.26331 7.47797 0
M  V30 8249 P 1460.15 2.75334 8.47391 0
M  V30 8250 O 1460.37 2.44571 9.90142 0
M  V30 8251 O 1460.94 3.87688 7.92115 0
M  V30 8252 O 1460.4 1.4459 7.59357 0
M  V30 8253 C 1459.46 0.347608 7.69215 0
M  V30 8254 C 1460.19 -0.96767 7.52806 0
M  V30 8255 O 1460.4 -1.21036 6.1011 0
M  V30 8256 C 1461.59 -1.04544 8.13308 0
M  V30 8257 O 1461.98 -2.38311 8.41922 0
M  V30 8258 C 1462.47 -0.491279 7.02284 0
M  V30 8259 C 1461.76 -0.996264 5.77469 0
M  V30 8260 N 1461.81 -0.0501916 4.62973 0
M  V30 8261 H 1458.97 0.374722 8.67691 0
M  V30 8262 H 1458.7 0.443485 6.90277 0
M  V30 8263 H 1459.57 -1.75537 7.96793 0
M  V30 8264 P 1463.53 -2.75334 8.47391 0
M  V30 8265 O 1463.75 -3.84128 9.44797 0
M  V30 8266 O 1464.32 -1.51947 8.68712 0
M  V30 8267 O 1463.78 -3.29363 6.99321 0
M  V30 8268 C 1462.84 -4.24011 6.4274 0
M  V30 8269 C 1463.57 -5.20775 5.52155 0
M  V30 8270 O 1463.78 -4.56534 4.22446 0
M  V30 8271 C 1464.97 -5.62629 5.96531 0
M  V30 8272 O 1465.36 -6.87667 5.41053 0
M  V30 8273 C 1465.85 -4.52537 5.39283 0
M  V30 8274 C 1465.14 -4.20027 4.08623 0
M  V30 8275 N 1465.19 -2.76189 3.71603 0
M  V30 8276 H 1462.35 -4.797 7.24003 0
M  V30 8277 H 1462.08 -3.69856 5.84513 0
M  V30 8278 H 1462.95 -6.10356 5.41441 0
M  V30 8279 P 1466.91 -7.20834 5.23717 0
M  V30 8280 O 1467.13 -8.66104 5.38572 0
M  V30 8281 O 1467.7 -6.33544 6.1349 0
M  V30 8282 O 1467.16 -6.7751 3.72168 0
M  V30 8283 C 1466.22 -7.20825 2.7076 0
M  V30 8284 C 1466.95 -7.45864 1.40599 0
M  V30 8285 O 1467.16 -6.17651 0.734225 0
M  V30 8286 C 1468.35 -8.05808 1.51899 0
M  V30 8287 O 1468.74 -8.74358 0.335205 0
M  V30 8288 C 1469.23 -6.83093 1.70294 0
M  V30 8289 C 1468.52 -5.79992 0.836974 0
M  V30 8290 N 1468.57 -4.41864 1.38293 0
M  V30 8291 H 1465.73 -8.13644 3.0377 0
M  V30 8292 H 1465.46 -6.42788 2.55485 0
M  V30 8293 H 1466.33 -8.12039 0.792769 0
M  V30 8294 P 1470.29 -8.91 -4.81154e-12 0
M  V30 8295 O 1470.51 -10.1726 -0.733694 0
M  V30 8296 O 1471.08 -8.73148 1.23936 0
M  V30 8297 O 1470.54 -7.66872 -0.971405 0
M  V30 8298 C 1469.6 -7.42309 -2.04641 0
M  V30 8299 C 1470.33 -6.86059 -3.24661 0
M  V30 8300 O 1470.54 -5.42847 -3.03646 0
M  V30 8301 C 1471.73 -7.41196 -3.50753 0
M  V30 8302 O 1472.12 -7.27073 -4.86816 0
M  V30 8303 C 1472.61 -6.5273 -2.63741 0
M  V30 8304 C 1471.9 -5.1842 -2.73198 0
M  V30 8305 N 1471.95 -4.38762 -1.4784 0
M  V30 8306 H 1469.11 -8.36803 -2.32493 0
M  V30 8307 H 1468.84 -6.70197 -1.71129 0
M  V30 8308 H 1469.71 -7.03551 -4.13168 0
M  V30 8309 P 1473.67 -7.20834 -5.23717 0
M  V30 8310 O 1473.89 -7.7993 -6.57351 0
M  V30 8311 O 1474.46 -7.79328 -4.13004 0
M  V30 8312 O 1473.92 -5.63315 -5.29344 0
M  V30 8313 C 1472.98 -4.80255 -6.01876 0
M  V30 8314 C 1473.71 -3.64202 -6.65911 0
M  V30 8315 O 1473.92 -2.60694 -5.64732 0
M  V30 8316 C 1475.11 -3.93473 -7.1943 0
M  V30 8317 O 1475.5 -3.02071 -8.21205 0
M  V30 8318 C 1475.99 -3.73047 -5.97036 0
M  V30 8319 C 1475.28 -2.58828 -5.25741 0
M  V30 8320 N 1475.33 -2.6801 -3.77422 0
M  V30 8321 C 1475.48 -1.50173 -3.05038 0
M  V30 8322 O 1475.57 -0.428832 -3.665 0
M  V30 8323 N 1475.53 -1.70922 -1.55541 0
M  V30 8324 C 1475.43 -2.7407 -1.06402 0
M  V30 8325 N 1475.48 -2.74764 0.260931 0
M  V30 8326 C 1475.28 -3.96781 -1.78296 0
M  V30 8327 C 1475.23 -3.87909 -3.13891 0
M  V30 8328 H 1472.49 -5.4027 -6.79873 0
M  V30 8329 H 1472.22 -4.41549 -5.32301 0
M  V30 8330 H 1473.09 -3.26371 -7.47889 0
M  V30 8331 H 1475.74 -1.63978 -5.5665 0
M  V30 8332 H 1476.02 -4.63439 -5.3432 0
M  V30 8333 H 1477.02 -3.44728 -6.25838 0
M  V30 8334 H 1475.18 -4.96652 -7.57263 0
M  V30 8335 H 1475.11 -4.78425 -3.73088 0
M  V30 8336 H 1475.21 -4.92593 -1.26997 0
M  V30 8337 H 1475.6 -1.86285 0.77595 0
M  V30 8338 H 1475.4 -3.63657 0.773896 0
M  V30 8339 P 1477.05 -2.75334 -8.47391 0
M  V30 8340 O 1477.27 -2.44571 -9.90142 0
M  V30 8341 O 1477.84 -3.87688 -7.92115 0
M  V30 8342 O 1477.3 -1.4459 -7.59357 0
M  V30 8343 C 1476.36 -0.347608 -7.69215 0
M  V30 8344 C 1477.09 0.96767 -7.52806 0
M  V30 8345 O 1477.3 1.21036 -6.1011 0
M  V30 8346 C 1478.49 1.04544 -8.13308 0
M  V30 8347 O 1478.88 2.38311 -8.41922 0
M  V30 8348 C 1479.37 0.491279 -7.02284 0
M  V30 8349 C 1478.66 0.996264 -5.77469 0
M  V30 8350 N 1478.71 0.0501916 -4.62973 0
M  V30 8351 H 1475.87 -0.374722 -8.67691 0
M  V30 8352 H 1475.6 -0.443485 -6.90277 0
M  V30 8353 H 1476.47 1.75537 -7.96793 0
M  V30 8354 P 1480.43 2.75334 -8.47391 0
M  V30 8355 O 1480.65 3.84166 -9.4489 0
M  V30 8356 O 1481.22 1.51964 -8.6881 0
M  V30 8357 O 1480.68 3.29363 -6.99321 0
M  V30 8358 C 1479.74 4.23956 -6.42656 0
M  V30 8359 C 1480.47 5.20775 -5.52155 0
M  V30 8360 O 1480.68 4.56534 -4.22446 0
M  V30 8361 C 1481.87 5.62629 -5.96531 0
M  V30 8362 O 1482.26 6.87667 -5.41053 0
M  V30 8363 C 1482.75 4.52537 -5.39283 0
M  V30 8364 C 1482.04 4.20027 -4.08623 0
M  V30 8365 N 1482.09 2.7613 -3.71522 0
M  V30 8366 C 1482.24 2.45612 -2.37989 0
M  V30 8367 O 1482.33 3.30919 -1.51621 0
M  V30 8368 N 1482.28 1.10684 -2.08435 0
M  V30 8369 C 1482.19 0.0690084 -2.9792 0
M  V30 8370 C 1482.04 0.481522 -4.35345 0
M  V30 8371 C 1481.99 1.78906 -4.67968 0
M  V30 8372 H 1479.25 4.797 -7.24003 0
M  V30 8373 H 1478.98 3.69802 -5.84429 0
M  V30 8374 H 1479.85 6.10356 -5.41441 0
M  V30 8375 H 1482.5 4.78651 -3.27911 0
M  V30 8376 H 1482.78 3.64957 -6.05871 0
M  V30 8377 H 1483.78 4.8868 -5.2125 0
M  V30 8378 H 1481.94 5.66726 -7.06352 0
M  V30 8379 H 1481.87 2.07737 -5.72367 0
M  V30 8380 P 1483.81 7.20834 -5.23717 0
M  V30 8381 O 1484.03 8.66104 -5.38572 0
M  V30 8382 O 1484.6 6.33544 -6.1349 0
M  V30 8383 O 1484.06 6.7751 -3.72168 0
M  V30 8384 C 1483.12 7.20825 -2.7076 0
M  V30 8385 C 1483.85 7.45864 -1.40599 0
M  V30 8386 O 1484.06 6.17651 -0.734225 0
M  V30 8387 C 1485.25 8.05808 -1.51899 0
M  V30 8388 O 1485.64 8.74358 -0.335205 0
M  V30 8389 C 1486.13 6.83093 -1.70294 0
M  V30 8390 C 1485.42 5.79992 -0.836974 0
M  V30 8391 N 1485.47 4.41864 -1.38293 0
M  V30 8392 H 1482.63 8.13644 -3.0377 0
M  V30 8393 H 1482.36 6.42788 -2.55485 0
M  V30 8394 H 1483.23 8.12039 -0.792769 0
M  V30 8395 P 1487.19 8.91 3.70254e-12 0
M  V30 8396 O 1487.41 10.1726 0.733694 0
M  V30 8397 O 1487.98 8.73148 -1.23936 0
M  V30 8398 O 1487.44 7.66872 0.971405 0
M  V30 8399 C 1486.5 7.42309 2.04641 0
M  V30 8400 C 1487.23 6.86059 3.24661 0
M  V30 8401 O 1487.44 5.42847 3.03646 0
M  V30 8402 C 1488.63 7.41196 3.50753 0
M  V30 8403 O 1489.02 7.27073 4.86816 0
M  V30 8404 C 1489.51 6.5273 2.63741 0
M  V30 8405 C 1488.8 5.1842 2.73198 0
M  V30 8406 N 1488.85 4.38762 1.4784 0
M  V30 8407 C 1488.77 4.81605 0.168631 0
M  V30 8408 N 1488.85 3.85454 -0.713363 0
M  V30 8409 C 1488.99 2.6994 0.0566958 0
M  V30 8410 C 1489.12 1.34815 -0.338502 0
M  V30 8411 N 1489.24 0.496304 0.77465 0
M  V30 8412 C 1489.24 0.908403 2.09122 0
M  V30 8413 N 1489.37 -0.0517805 3.00955 0
M  V30 8414 N 1489.11 2.17875 2.46519 0
M  V30 8415 C 1488.99 3.01988 1.4033 0
M  V30 8416 H 1486.01 8.36803 2.32493 0
M  V30 8417 H 1485.74 6.70197 1.71129 0
M  V30 8418 H 1486.61 7.03551 4.13168 0
M  V30 8419 P 1490.57 7.20834 5.23717 0
M  V30 8420 O 1490.79 7.79853 6.57286 0
M  V30 8421 O 1491.36 7.79239 4.12957 0
M  V30 8422 O 1490.82 5.63315 5.29344 0
M  V30 8423 C 1489.88 4.80255 6.01876 0
M  V30 8424 C 1490.61 3.64202 6.65911 0
M  V30 8425 O 1490.82 2.60694 5.64732 0
M  V30 8426 C 1492.01 3.93473 7.1943 0
M  V30 8427 O 1492.4 3.02071 8.21205 0
M  V30 8428 C 1492.89 3.73047 5.97036 0
M  V30 8429 C 1492.18 2.58828 5.25741 0
M  V30 8430 N 1492.23 2.68068 3.77503 0
M  V30 8431 C 1492.15 3.79715 2.96723 0
M  V30 8432 N 1492.23 3.5377 1.68852 0
M  V30 8433 C 1492.37 2.15054 1.63254 0
M  V30 8434 C 1492.5 1.28964 0.518571 0
M  V30 8435 N 1492.62 -0.0538097 0.918425 0
M  V30 8436 C 1492.62 -0.494275 2.22578 0
M  V30 8437 N 1492.75 -1.81086 2.40434 0
M  V30 8438 N 1492.49 0.313645 3.27502 0
M  V30 8439 C 1492.37 1.61829 2.91033 0
M  V30 8440 H 1489.39 5.40332 6.79951 0
M  V30 8441 H 1489.12 4.41613 5.32378 0
M  V30 8442 H 1489.99 3.26331 7.47797 0
M  V30 8443 P 1493.95 2.75334 8.47391 0
M  V30 8444 O 1494.17 2.44619 9.90336 0
M  V30 8445 O 1494.74 3.87776 7.92294 0
M  V30 8446 O 1494.2 1.4459 7.59357 0
M  V30 8447 C 1493.26 0.347653 7.69315 0
M  V30 8448 C 1493.99 -0.96767 7.52806 0
M  V30 8449 O 1494.2 -1.21055 6.10208 0
M  V30 8450 C 1495.39 -1.04557 8.13408 0
M  V30 8451 O 1495.78 -2.38311 8.41922 0
M  V30 8452 C 1496.27 -0.491279 7.02284 0
M  V30 8453 C 1495.56 -0.996264 5.77469 0
M  V30 8454 N 1495.61 -0.0501916 4.62973 0
M  V30 8455 C 1495.53 1.31969 4.65661 0
M  V30 8456 N 1495.6 1.86649 3.48119 0
M  V30 8457 C 1495.75 0.792089 2.62406 0
M  V30 8458 C 1495.88 0.705684 1.2207 0
M  V30 8459 N 1495.89 1.76207 0.413762 0
M  V30 8460 N 1496 -0.518981 0.685754 0
M  V30 8461 C 1495.99 -1.57595 1.49174 0
M  V30 8462 N 1495.87 -1.62909 2.80066 0
M  V30 8463 C 1495.75 -0.388195 3.3073 0
M  V30 8464 H 1492.77 0.374765 8.67791 0
M  V30 8465 H 1492.5 0.443613 6.90476 0
M  V30 8466 H 1493.37 -1.75559 7.96891 0
M  V30 8467 H 1496.02 -1.94563 5.46818 0
M  V30 8468 H 1496.3 0.608651 7.04676 0
M  V30 8469 H 1497.3 -0.889796 7.09039 0
M  V30 8470 H 1495.46 -0.433128 9.04664 0
M  V30 8471 H 1495.42 1.89246 5.57664 0
M  V30 8472 H 1495.8 2.71005 0.804694 0
M  V30 8473 H 1495.99 1.63189 -0.603768 0
M  V30 8474 H 1496.1 -2.53475 0.997614 0
M  V30 8475 P 1497.33 -2.75334 8.47391 0
M  V30 8476 O 1497.55 -3.84128 9.44797 0
M  V30 8477 O 1498.12 -1.51947 8.68712 0
M  V30 8478 O 1497.58 -3.29363 6.99321 0
M  V30 8479 C 1496.64 -4.24011 6.4274 0
M  V30 8480 C 1497.37 -5.20775 5.52155 0
M  V30 8481 O 1497.58 -4.56534 4.22446 0
M  V30 8482 C 1498.77 -5.62629 5.96531 0
M  V30 8483 O 1499.16 -6.87667 5.41053 0
M  V30 8484 C 1499.65 -4.52537 5.39283 0
M  V30 8485 C 1498.94 -4.20027 4.08623 0
M  V30 8486 N 1498.99 -2.76189 3.71603 0
M  V30 8487 H 1496.15 -4.797 7.24003 0
M  V30 8488 H 1495.88 -3.69856 5.84513 0
M  V30 8489 H 1496.75 -6.10356 5.41441 0
M  V30 8490 P 1500.71 -7.20834 5.23717 0
M  V30 8491 O 1500.93 -8.66274 5.38678 0
M  V30 8492 O 1501.5 -6.33687 6.13629 0
M  V30 8493 O 1500.96 -6.7751 3.72168 0
M  V30 8494 C 1500.02 -7.20919 2.70795 0
M  V30 8495 C 1500.75 -7.45864 1.40599 0
M  V30 8496 O 1500.96 -6.17751 0.734343 0
M  V30 8497 C 1502.15 -8.05906 1.51917 0
M  V30 8498 O 1502.54 -8.74358 0.335205 0
M  V30 8499 C 1503.03 -6.83093 1.70294 0
M  V30 8500 C 1502.32 -5.79992 0.836974 0
M  V30 8501 N 1502.37 -4.41864 1.38293 0
M  V30 8502 C 1502.29 -4.02089 2.69407 0
M  V30 8503 N 1502.36 -2.73403 2.85089 0
M  V30 8504 C 1502.51 -2.25086 1.5642 0
M  V30 8505 C 1502.64 -0.942887 1.04836 0
M  V30 8506 N 1502.65 0.150999 1.80369 0
M  V30 8507 N 1502.76 -0.812565 -0.28167 0
M  V30 8508 C 1502.75 -1.90572 -1.03784 0
M  V30 8509 N 1502.63 -3.167 -0.683905 0
M  V30 8510 C 1502.51 -3.26538 0.652815 0
M  V30 8511 H 1499.53 -8.13738 3.03804 0
M  V30 8512 H 1499.26 -6.42974 2.55559 0
M  V30 8513 H 1500.13 -8.12139 0.792866 0
M  V30 8514 H 1502.78 -5.80178 -0.160643 0
M  V30 8515 H 1503.06 -6.51379 2.75643 0
M  V30 8516 H 1504.06 -7.01832 1.3448 0
M  V30 8517 H 1502.22 -8.73771 2.38364 0
M  V30 8518 H 1502.18 -4.7189 3.52311 0
M  V30 8519 H 1502.56 0.0721434 2.82608 0
M  V30 8520 H 1502.75 1.0785 1.36544 0
M  V30 8521 H 1502.86 -1.73207 -2.10241 0
M  V30 8522 P 1504.09 -8.91 -2.59353e-12 0
M  V30 8523 O 1504.31 -10.1726 -0.733694 0
M  V30 8524 O 1504.88 -8.73148 1.23936 0
M  V30 8525 O 1504.34 -7.66872 -0.971405 0
M  V30 8526 C 1503.4 -7.42309 -2.04641 0
M  V30 8527 C 1504.13 -6.86059 -3.24661 0
M  V30 8528 O 1504.34 -5.42847 -3.03646 0
M  V30 8529 C 1505.53 -7.41196 -3.50753 0
M  V30 8530 O 1505.92 -7.27073 -4.86816 0
M  V30 8531 C 1506.41 -6.5273 -2.63741 0
M  V30 8532 C 1505.7 -5.1842 -2.73198 0
M  V30 8533 N 1505.75 -4.38762 -1.4784 0
M  V30 8534 H 1502.91 -8.36803 -2.32493 0
M  V30 8535 H 1502.64 -6.70197 -1.71129 0
M  V30 8536 H 1503.51 -7.03551 -4.13168 0
M  V30 8537 P 1507.47 -7.20834 -5.23717 0
M  V30 8538 O 1507.69 -7.79853 -6.57286 0
M  V30 8539 O 1508.26 -7.79239 -4.12957 0
M  V30 8540 O 1507.72 -5.63315 -5.29344 0
M  V30 8541 C 1506.78 -4.80255 -6.01876 0
M  V30 8542 C 1507.51 -3.64202 -6.65911 0
M  V30 8543 O 1507.72 -2.60694 -5.64732 0
M  V30 8544 C 1508.91 -3.93473 -7.1943 0
M  V30 8545 O 1509.3 -3.02071 -8.21205 0
M  V30 8546 C 1509.79 -3.73047 -5.97036 0
M  V30 8547 C 1509.08 -2.58828 -5.25741 0
M  V30 8548 N 1509.13 -2.68068 -3.77503 0
M  V30 8549 H 1506.29 -5.40332 -6.79951 0
M  V30 8550 H 1506.02 -4.41613 -5.32378 0
M  V30 8551 H 1506.89 -3.26331 -7.47797 0
M  V30 8552 P 1510.85 -2.75334 -8.47391 0
M  V30 8553 O 1511.07 -2.44571 -9.90142 0
M  V30 8554 O 1511.64 -3.87688 -7.92115 0
M  V30 8555 O 1511.1 -1.4459 -7.59357 0
M  V30 8556 C 1510.16 -0.347608 -7.69215 0
M  V30 8557 C 1510.89 0.96767 -7.52806 0
M  V30 8558 O 1511.1 1.21036 -6.1011 0
M  V30 8559 C 1512.29 1.04544 -8.13308 0
M  V30 8560 O 1512.68 2.38311 -8.41922 0
M  V30 8561 C 1513.17 0.491279 -7.02284 0
M  V30 8562 C 1512.46 0.996264 -5.77469 0
M  V30 8563 N 1512.51 0.0501916 -4.62973 0
M  V30 8564 C 1512.43 -1.32786 -4.63244 0
M  V30 8565 N 1512.51 -1.86957 -3.44545 0
M  V30 8566 C 1512.65 -0.780241 -2.58481 0
M  V30 8567 C 1512.78 -0.738536 -1.17757 0
M  V30 8568 O 1512.8 -1.66794 -0.372349 0
M  V30 8569 N 1512.9 0.58337 -0.711393 0
M  V30 8570 C 1512.9 1.70816 -1.51017 0
M  V30 8571 N 1513.03 2.87826 -0.880757 0
M  V30 8572 N 1512.77 1.67126 -2.8339 0
M  V30 8573 C 1512.65 0.401421 -3.30572 0
M  V30 8574 H 1509.67 -0.374722 -8.67691 0
M  V30 8575 H 1509.4 -0.443485 -6.90277 0
M  V30 8576 H 1510.27 1.75537 -7.96793 0
M  V30 8577 H 1512.92 1.95076 -5.46529 0
M  V30 8578 H 1513.2 -0.608565 -7.04577 0
M  V30 8579 H 1514.2 0.889672 -7.08939 0
M  V30 8580 H 1512.36 0.43308 -9.04564 0
M  V30 8581 H 1512.31 -1.91249 -5.54442 0
M  V30 8582 H 1512.99 0.718054 0.275244 0
M  V30 8583 H 1513.03 3.75721 -1.41832 0
M  V30 8584 H 1513.13 2.90436 0.145468 0
M  V30 8585 P 1514.23 2.75334 -8.47391 0
M  V30 8586 O 1514.45 3.84204 -9.44982 0
M  V30 8587 O 1515.02 1.51982 -8.68909 0
M  V30 8588 O 1514.48 3.29363 -6.99321 0
M  V30 8589 C 1513.54 4.24066 -6.42823 0
M  V30 8590 C 1514.27 5.20775 -5.52155 0
M  V30 8591 O 1514.48 4.56607 -4.22514 0
M  V30 8592 C 1515.67 5.62697 -5.96604 0
M  V30 8593 O 1516.06 6.87667 -5.41053 0
M  V30 8594 C 1516.55 4.52537 -5.39283 0
M  V30 8595 C 1515.84 4.20027 -4.08623 0
M  V30 8596 N 1515.89 2.76189 -3.71603 0
M  V30 8597 H 1513.05 4.79756 -7.24086 0
M  V30 8598 H 1512.78 3.69963 -5.84682 0
M  V30 8599 H 1513.65 6.10431 -5.41508 0
M  V30 8600 H 1516.3 4.78816 -3.28024 0
M  V30 8601 H 1516.58 3.64957 -6.05871 0
M  V30 8602 H 1517.58 4.88748 -5.21323 0
M  V30 8603 H 1515.74 5.66789 -7.0643 0
M  V30 8604 P 1517.61 7.20834 -5.23717 0
M  V30 8605 O 1517.83 8.66189 -5.38625 0
M  V30 8606 O 1518.4 6.33615 -6.1356 0
M  V30 8607 O 1517.86 6.7751 -3.72168 0
M  V30 8608 C 1516.92 7.20732 -2.70725 0
M  V30 8609 C 1517.65 7.45864 -1.40599 0
M  V30 8610 O 1517.86 6.17651 -0.734225 0
M  V30 8611 C 1519.05 8.05808 -1.51899 0
M  V30 8612 O 1519.44 8.74358 -0.335205 0
M  V30 8613 C 1519.93 6.83093 -1.70294 0
M  V30 8614 C 1519.22 5.79992 -0.836974 0
M  V30 8615 N 1519.27 4.41769 -1.38263 0
M  V30 8616 C 1519.42 3.38591 -0.481702 0
M  V30 8617 O 1519.51 3.56839 0.718452 0
M  V30 8618 N 1519.46 2.1206 -1.03569 0
M  V30 8619 C 1519.37 1.80696 -2.36966 0
M  V30 8620 O 1519.42 0.630473 -2.74862 0
M  V30 8621 C 1519.22 2.94845 -3.23898 0
M  V30 8622 C 1519.11 2.65253 -4.70362 0
M  V30 8623 C 1519.17 4.19803 -2.73435 0
M  V30 8624 H 1516.43 8.13644 -3.0377 0
M  V30 8625 H 1516.16 6.42695 -2.55448 0
M  V30 8626 H 1517.03 8.12039 -0.792769 0
M  V30 8627 H 1519.68 5.79978 0.160587 0
M  V30 8628 H 1519.96 6.51379 -2.75643 0
M  V30 8629 H 1520.96 7.01734 -1.34462 0
M  V30 8630 H 1519.12 8.73674 -2.38337 0
M  V30 8631 H 1519.05 5.04492 -3.4095 0
M  V30 8632 H 1520.08 2.83924 -5.1913 0
M  V30 8633 H 1518.34 3.29824 -5.15163 0
M  V30 8634 H 1518.83 1.59723 -4.84449 0
M  V30 8635 H 1519.57 1.35644 -0.399345 0
M  V30 8636 P 1520.99 8.91 1.48453e-12 0
M  V30 8637 O 1521.21 10.1726 0.733694 0
M  V30 8638 O 1521.78 8.73148 -1.23936 0
M  V30 8639 O 1521.24 7.66872 0.971405 0
M  V30 8640 C 1520.3 7.42309 2.04641 0
M  V30 8641 C 1521.03 6.86059 3.24661 0
M  V30 8642 O 1521.24 5.42847 3.03646 0
M  V30 8643 C 1522.43 7.41196 3.50753 0
M  V30 8644 O 1522.82 7.27073 4.86816 0
M  V30 8645 C 1523.31 6.5273 2.63741 0
M  V30 8646 C 1522.6 5.1842 2.73198 0
M  V30 8647 N 1522.65 4.38762 1.4784 0
M  V30 8648 C 1522.57 4.81605 0.168631 0
M  V30 8649 N 1522.65 3.85454 -0.713363 0
M  V30 8650 C 1522.79 2.6994 0.0566958 0
M  V30 8651 C 1522.92 1.34815 -0.338502 0
M  V30 8652 O 1522.94 0.869548 -1.47125 0
M  V30 8653 N 1523.04 0.496304 0.77465 0
M  V30 8654 C 1523.04 0.908403 2.09122 0
M  V30 8655 N 1523.17 -0.0517805 3.00955 0
M  V30 8656 N 1522.91 2.17875 2.46519 0
M  V30 8657 C 1522.79 3.01988 1.4033 0
M  V30 8658 H 1519.81 8.36803 2.32493 0
M  V30 8659 H 1519.54 6.70197 1.71129 0
M  V30 8660 H 1520.41 7.03551 4.13168 0
M  V30 8661 H 1523.06 4.59498 3.54415 0
M  V30 8662 H 1523.34 6.88898 1.59848 0
M  V30 8663 H 1524.33 6.46749 3.03687 0
M  V30 8664 H 1522.5 8.46908 3.20714 0
M  V30 8665 H 1522.45 5.86405 -0.105564 0
M  V30 8666 H 1523.13 -0.483664 0.597855 0
M  V30 8667 H 1523.17 0.187865 4.0116 0
M  V30 8668 H 1523.27 -1.03585 2.71726 0
M  V30 8669 P 1524.37 7.20834 5.23717 0
M  V30 8670 O 1524.59 7.79853 6.57286 0
M  V30 8671 O 1525.16 7.79239 4.12957 0
M  V30 8672 O 1524.62 5.63315 5.29344 0
M  V30 8673 C 1523.68 4.80255 6.01876 0
M  V30 8674 C 1524.41 3.64202 6.65911 0
M  V30 8675 O 1524.62 2.60694 5.64732 0
M  V30 8676 C 1525.81 3.93473 7.1943 0
M  V30 8677 O 1526.2 3.02071 8.21205 0
M  V30 8678 C 1526.69 3.73047 5.97036 0
M  V30 8679 C 1525.98 2.58828 5.25741 0
M  V30 8680 N 1526.03 2.68068 3.77503 0
M  V30 8681 H 1523.19 5.40332 6.79951 0
M  V30 8682 H 1522.92 4.41613 5.32378 0
M  V30 8683 H 1523.79 3.26331 7.47797 0
M  V30 8684 P 1527.75 2.75334 8.47391 0
M  V30 8685 O 1527.97 2.44571 9.90142 0
M  V30 8686 O 1528.54 3.87688 7.92115 0
M  V30 8687 O 1528 1.4459 7.59357 0
M  V30 8688 C 1527.06 0.347608 7.69215 0
M  V30 8689 C 1527.79 -0.96767 7.52806 0
M  V30 8690 O 1528 -1.21036 6.1011 0
M  V30 8691 C 1529.19 -1.04544 8.13308 0
M  V30 8692 O 1529.58 -2.38311 8.41922 0
M  V30 8693 C 1530.07 -0.491279 7.02284 0
M  V30 8694 C 1529.36 -0.996264 5.77469 0
M  V30 8695 N 1529.41 -0.0501916 4.62973 0
M  V30 8696 C 1529.33 1.32786 4.63244 0
M  V30 8697 N 1529.41 1.86957 3.44545 0
M  V30 8698 C 1529.55 0.780241 2.58481 0
M  V30 8699 C 1529.68 0.738536 1.17757 0
M  V30 8700 N 1529.8 -0.58337 0.711393 0
M  V30 8701 C 1529.8 -1.70816 1.51017 0
M  V30 8702 N 1529.93 -2.87826 0.880757 0
M  V30 8703 N 1529.67 -1.67126 2.8339 0
M  V30 8704 C 1529.55 -0.401421 3.30572 0
M  V30 8705 H 1526.57 0.374722 8.67691 0
M  V30 8706 H 1526.3 0.443485 6.90277 0
M  V30 8707 H 1527.17 -1.75537 7.96793 0
M  V30 8708 P 1531.13 -2.75334 8.47391 0
M  V30 8709 O 1531.35 -3.84128 9.44797 0
M  V30 8710 O 1531.92 -1.51947 8.68712 0
M  V30 8711 O 1531.38 -3.29363 6.99321 0
M  V30 8712 C 1530.44 -4.24011 6.4274 0
M  V30 8713 C 1531.17 -5.20775 5.52155 0
M  V30 8714 O 1531.38 -4.56534 4.22446 0
M  V30 8715 C 1532.57 -5.62629 5.96531 0
M  V30 8716 O 1532.96 -6.87667 5.41053 0
M  V30 8717 C 1533.45 -4.52537 5.39283 0
M  V30 8718 C 1532.74 -4.20027 4.08623 0
M  V30 8719 N 1532.79 -2.76189 3.71603 0
M  V30 8720 H 1529.95 -4.797 7.24003 0
M  V30 8721 H 1529.68 -3.69856 5.84513 0
M  V30 8722 H 1530.55 -6.10356 5.41441 0
M  V30 8723 P 1534.51 -7.20834 5.23717 0
M  V30 8724 O 1534.73 -8.66104 5.38572 0
M  V30 8725 O 1535.3 -6.33544 6.1349 0
M  V30 8726 O 1534.76 -6.7751 3.72168 0
M  V30 8727 C 1533.82 -7.20825 2.7076 0
M  V30 8728 C 1534.55 -7.45864 1.40599 0
M  V30 8729 O 1534.76 -6.17651 0.734225 0
M  V30 8730 C 1535.95 -8.05808 1.51899 0
M  V30 8731 O 1536.34 -8.74358 0.335205 0
M  V30 8732 C 1536.83 -6.83093 1.70294 0
M  V30 8733 C 1536.12 -5.79992 0.836974 0
M  V30 8734 N 1536.17 -4.41864 1.38293 0
M  V30 8735 H 1533.33 -8.13644 3.0377 0
M  V30 8736 H 1533.06 -6.42788 2.55485 0
M  V30 8737 H 1533.93 -8.12039 0.792769 0
M  V30 8738 P 1537.89 -8.91 -3.75525e-13 0
M  V30 8739 O 1538.11 -10.1726 -0.733694 0
M  V30 8740 O 1538.68 -8.73148 1.23936 0
M  V30 8741 O 1538.14 -7.66872 -0.971405 0
M  V30 8742 C 1537.2 -7.42309 -2.04641 0
M  V30 8743 C 1537.93 -6.86059 -3.24661 0
M  V30 8744 O 1538.14 -5.42847 -3.03646 0
M  V30 8745 C 1539.33 -7.41196 -3.50753 0
M  V30 8746 O 1539.72 -7.27073 -4.86816 0
M  V30 8747 C 1540.21 -6.5273 -2.63741 0
M  V30 8748 C 1539.5 -5.1842 -2.73198 0
M  V30 8749 N 1539.55 -4.38762 -1.4784 0
M  V30 8750 H 1536.71 -8.36803 -2.32493 0
M  V30 8751 H 1536.44 -6.70197 -1.71129 0
M  V30 8752 H 1537.31 -7.03551 -4.13168 0
M  V30 8753 P 1541.27 -7.20834 -5.23717 0
M  V30 8754 O 1541.49 -7.79853 -6.57286 0
M  V30 8755 O 1542.06 -7.79239 -4.12957 0
M  V30 8756 O 1541.52 -5.63315 -5.29344 0
M  V30 8757 C 1540.58 -4.80255 -6.01876 0
M  V30 8758 C 1541.31 -3.64202 -6.65911 0
M  V30 8759 O 1541.52 -2.60694 -5.64732 0
M  V30 8760 C 1542.71 -3.93473 -7.1943 0
M  V30 8761 O 1543.1 -3.02071 -8.21205 0
M  V30 8762 C 1543.59 -3.73047 -5.97036 0
M  V30 8763 C 1542.88 -2.58828 -5.25741 0
M  V30 8764 N 1542.93 -2.68068 -3.77503 0
M  V30 8765 C 1542.85 -3.79715 -2.96723 0
M  V30 8766 N 1542.93 -3.5377 -1.68852 0
M  V30 8767 C 1543.07 -2.15054 -1.63254 0
M  V30 8768 C 1543.2 -1.28964 -0.518571 0
M  V30 8769 N 1543.32 0.0538097 -0.918425 0
M  V30 8770 C 1543.32 0.494275 -2.22578 0
M  V30 8771 N 1543.45 1.81086 -2.40434 0
M  V30 8772 N 1543.19 -0.313645 -3.27502 0
M  V30 8773 C 1543.07 -1.61829 -2.91033 0
M  V30 8774 H 1540.09 -5.40332 -6.79951 0
M  V30 8775 H 1539.82 -4.41613 -5.32378 0
M  V30 8776 H 1540.69 -3.26331 -7.47797 0
M  V30 8777 P 1544.65 -2.75334 -8.47391 0
M  V30 8778 O 1544.87 -2.44571 -9.90142 0
M  V30 8779 O 1545.44 -3.87688 -7.92115 0
M  V30 8780 O 1544.9 -1.4459 -7.59357 0
M  V30 8781 C 1543.96 -0.347608 -7.69215 0
M  V30 8782 C 1544.69 0.96767 -7.52806 0
M  V30 8783 O 1544.9 1.21036 -6.1011 0
M  V30 8784 C 1546.09 1.04544 -8.13308 0
M  V30 8785 O 1546.48 2.38311 -8.41922 0
M  V30 8786 C 1546.97 0.491279 -7.02284 0
M  V30 8787 C 1546.26 0.996264 -5.77469 0
M  V30 8788 N 1546.31 0.0501916 -4.62973 0
M  V30 8789 H 1543.47 -0.374722 -8.67691 0
M  V30 8790 H 1543.2 -0.443485 -6.90277 0
M  V30 8791 H 1544.07 1.75537 -7.96793 0
M  V30 8792 P 1548.03 2.75334 -8.47391 0
M  V30 8793 O 1548.25 3.84128 -9.44797 0
M  V30 8794 O 1548.82 1.51947 -8.68712 0
M  V30 8795 O 1548.28 3.29363 -6.99321 0
M  V30 8796 C 1547.34 4.24011 -6.4274 0
M  V30 8797 C 1548.07 5.20775 -5.52155 0
M  V30 8798 O 1548.28 4.56534 -4.22446 0
M  V30 8799 C 1549.47 5.62629 -5.96531 0
M  V30 8800 O 1549.86 6.87667 -5.41053 0
M  V30 8801 C 1550.35 4.52537 -5.39283 0
M  V30 8802 C 1549.64 4.20027 -4.08623 0
M  V30 8803 N 1549.69 2.76189 -3.71603 0
M  V30 8804 H 1546.85 4.797 -7.24003 0
M  V30 8805 H 1546.58 3.69856 -5.84513 0
M  V30 8806 H 1547.45 6.10356 -5.41441 0
M  V30 8807 P 1551.41 7.20834 -5.23717 0
M  V30 8808 O 1551.63 8.66104 -5.38572 0
M  V30 8809 O 1552.2 6.33544 -6.1349 0
M  V30 8810 O 1551.66 6.7751 -3.72168 0
M  V30 8811 C 1550.72 7.20825 -2.7076 0
M  V30 8812 C 1551.45 7.45864 -1.40599 0
M  V30 8813 O 1551.66 6.17651 -0.734225 0
M  V30 8814 C 1552.85 8.05808 -1.51899 0
M  V30 8815 O 1553.24 8.74358 -0.335205 0
M  V30 8816 C 1553.73 6.83093 -1.70294 0
M  V30 8817 C 1553.02 5.79992 -0.836974 0
M  V30 8818 N 1553.07 4.41864 -1.38293 0
M  V30 8819 C 1552.99 3.99538 -2.69438 0
M  V30 8820 N 1553.07 2.69909 -2.84277 0
M  V30 8821 C 1553.21 2.21719 -1.5408 0
M  V30 8822 C 1553.34 0.891712 -1.06628 0
M  V30 8823 N 1553.46 0.856846 0.334985 0
M  V30 8824 C 1553.46 1.9641 1.15789 0
M  V30 8825 N 1553.59 1.72708 2.46522 0
M  V30 8826 N 1553.33 3.21165 0.713741 0
M  V30 8827 C 1553.21 3.26797 -0.639748 0
M  V30 8828 H 1550.23 8.13644 -3.0377 0
M  V30 8829 H 1549.96 6.42788 -2.55485 0
M  V30 8830 H 1550.83 8.12039 -0.792769 0
M  V30 8831 P 1554.79 8.91 -7.3348e-13 0
M  V30 8832 O 1555.01 10.1726 0.733694 0
M  V30 8833 O 1555.58 8.73148 -1.23936 0
M  V30 8834 O 1555.04 7.66872 0.971405 0
M  V30 8835 C 1554.1 7.42309 2.04641 0
M  V30 8836 C 1554.83 6.86059 3.24661 0
M  V30 8837 O 1555.04 5.42847 3.03646 0
M  V30 8838 C 1556.23 7.41196 3.50753 0
M  V30 8839 O 1556.62 7.27073 4.86816 0
M  V30 8840 C 1557.11 6.5273 2.63741 0
M  V30 8841 C 1556.4 5.1842 2.73198 0
M  V30 8842 N 1556.45 4.38762 1.4784 0
M  V30 8843 C 1556.37 4.81605 0.168631 0
M  V30 8844 N 1556.45 3.85454 -0.713363 0
M  V30 8845 C 1556.59 2.6994 0.0566958 0
M  V30 8846 C 1556.72 1.34815 -0.338502 0
M  V30 8847 N 1556.84 0.496304 0.77465 0
M  V30 8848 C 1556.84 0.908403 2.09122 0
M  V30 8849 N 1556.97 -0.0517805 3.00955 0
M  V30 8850 N 1556.71 2.17875 2.46519 0
M  V30 8851 C 1556.59 3.01988 1.4033 0
M  V30 8852 H 1553.61 8.36803 2.32493 0
M  V30 8853 H 1553.34 6.70197 1.71129 0
M  V30 8854 H 1554.21 7.03551 4.13168 0
M  V30 8855 P 1558.17 7.20834 5.23717 0
M  V30 8856 O 1558.39 7.7993 6.57351 0
M  V30 8857 O 1558.96 7.79328 4.13004 0
M  V30 8858 O 1558.42 5.63315 5.29344 0
M  V30 8859 C 1557.48 4.80193 6.01798 0
M  V30 8860 C 1558.21 3.64202 6.65911 0
M  V30 8861 O 1558.42 2.60694 5.64732 0
M  V30 8862 C 1559.61 3.93473 7.1943 0
M  V30 8863 O 1560 3.02071 8.21205 0
M  V30 8864 C 1560.49 3.73047 5.97036 0
M  V30 8865 C 1559.78 2.58828 5.25741 0
M  V30 8866 N 1559.83 2.6801 3.77422 0
M  V30 8867 C 1559.98 1.50443 3.07133 0
M  V30 8868 O 1560.07 0.419406 3.61576 0
M  V30 8869 N 1560.02 1.6403 1.69677 0
M  V30 8870 C 1559.93 2.81206 0.986255 0
M  V30 8871 C 1559.78 3.99158 1.80325 0
M  V30 8872 C 1559.73 3.89779 3.1476 0
M  V30 8873 H 1556.99 5.40332 6.79951 0
M  V30 8874 H 1556.72 4.41549 5.32301 0
M  V30 8875 H 1557.59 3.26331 7.47797 0
M  V30 8876 H 1560.24 1.6395 5.56554 0
M  V30 8877 H 1560.52 4.63439 5.3432 0
M  V30 8878 H 1561.51 3.44728 6.25838 0
M  V30 8879 H 1559.68 4.96652 7.57263 0
M  V30 8880 H 1559.61 4.80159 3.74441 0
M  V30 8881 P 1561.55 2.75334 8.47391 0
M  V30 8882 O 1561.77 2.44619 9.90336 0
M  V30 8883 O 1562.34 3.87776 7.92294 0
M  V30 8884 O 1561.8 1.4459 7.59357 0
M  V30 8885 C 1560.86 0.347653 7.69315 0
M  V30 8886 C 1561.59 -0.96767 7.52806 0
M  V30 8887 O 1561.8 -1.21055 6.10208 0
M  V30 8888 C 1562.99 -1.04557 8.13408 0
M  V30 8889 O 1563.38 -2.38311 8.41922 0
M  V30 8890 C 1563.87 -0.491279 7.02284 0
M  V30 8891 C 1563.16 -0.996264 5.77469 0
M  V30 8892 N 1563.21 -0.0501916 4.62973 0
M  V30 8893 C 1563.13 1.31969 4.65661 0
M  V30 8894 N 1563.2 1.86649 3.48119 0
M  V30 8895 C 1563.35 0.792089 2.62406 0
M  V30 8896 C 1563.48 0.705684 1.2207 0
M  V30 8897 N 1563.49 1.76207 0.413762 0
M  V30 8898 N 1563.6 -0.518981 0.685754 0
M  V30 8899 C 1563.59 -1.57595 1.49174 0
M  V30 8900 N 1563.47 -1.62909 2.80066 0
M  V30 8901 C 1563.35 -0.388195 3.3073 0
M  V30 8902 H 1560.37 0.374765 8.67791 0
M  V30 8903 H 1560.1 0.443613 6.90476 0
M  V30 8904 H 1560.97 -1.75559 7.96891 0
M  V30 8905 H 1563.62 -1.94563 5.46818 0
M  V30 8906 H 1563.9 0.608651 7.04676 0
M  V30 8907 H 1564.89 -0.889796 7.09039 0
M  V30 8908 H 1563.06 -0.433128 9.04664 0
M  V30 8909 H 1563.02 1.89246 5.57664 0
M  V30 8910 H 1563.4 2.71005 0.804694 0
M  V30 8911 H 1563.59 1.63189 -0.603768 0
M  V30 8912 H 1563.7 -2.53475 0.997614 0
M  V30 8913 P 1564.93 -2.75334 8.47391 0
M  V30 8914 O 1565.15 -3.84166 9.4489 0
M  V30 8915 O 1565.72 -1.51964 8.6881 0
M  V30 8916 O 1565.18 -3.29363 6.99321 0
M  V30 8917 C 1564.24 -4.23956 6.42656 0
M  V30 8918 C 1564.97 -5.20775 5.52155 0
M  V30 8919 O 1565.18 -4.56534 4.22446 0
M  V30 8920 C 1566.37 -5.62629 5.96531 0
M  V30 8921 O 1566.76 -6.87667 5.41053 0
M  V30 8922 C 1567.25 -4.52537 5.39283 0
M  V30 8923 C 1566.54 -4.20027 4.08623 0
M  V30 8924 N 1566.59 -2.7613 3.71522 0
M  V30 8925 C 1566.74 -2.45612 2.37989 0
M  V30 8926 O 1566.83 -3.30919 1.51621 0
M  V30 8927 N 1566.78 -1.10684 2.08435 0
M  V30 8928 C 1566.69 -0.0690084 2.9792 0
M  V30 8929 O 1566.74 1.10553 2.59426 0
M  V30 8930 C 1566.54 -0.481522 4.35345 0
M  V30 8931 C 1566.43 0.618778 5.36443 0
M  V30 8932 C 1566.49 -1.78906 4.67968 0
M  V30 8933 H 1563.75 -4.797 7.24003 0
M  V30 8934 H 1563.48 -3.69802 5.84429 0
M  V30 8935 H 1564.35 -6.10356 5.41441 0
M  V30 8936 H 1567 -4.78651 3.27911 0
M  V30 8937 H 1567.28 -3.64957 6.05871 0
M  V30 8938 H 1568.27 -4.8868 5.2125 0
M  V30 8939 H 1566.44 -5.66726 7.06352 0
M  V30 8940 H 1566.37 -2.07737 5.72367 0
M  V30 8941 H 1567.4 0.754375 5.86871 0
M  V30 8942 H 1565.66 0.359721 6.10641 0
M  V30 8943 H 1566.15 1.55533 4.8581 0
M  V30 8944 H 1566.89 -0.862651 1.12037 0
M  V30 8945 P 1568.31 -7.20834 5.23717 0
M  V30 8946 O 1568.53 -8.66274 5.38678 0
M  V30 8947 O 1569.1 -6.33687 6.13629 0
M  V30 8948 O 1568.56 -6.7751 3.72168 0
M  V30 8949 C 1567.62 -7.20919 2.70795 0
M  V30 8950 C 1568.35 -7.45864 1.40599 0
M  V30 8951 O 1568.56 -6.17751 0.734343 0
M  V30 8952 C 1569.75 -8.05906 1.51917 0
M  V30 8953 O 1570.14 -8.74358 0.335205 0
M  V30 8954 C 1570.63 -6.83093 1.70294 0
M  V30 8955 C 1569.92 -5.79992 0.836974 0
M  V30 8956 N 1569.97 -4.41864 1.38293 0
M  V30 8957 H 1567.13 -8.13738 3.03804 0
M  V30 8958 H 1566.86 -6.42974 2.55559 0
M  V30 8959 H 1567.73 -8.12139 0.792866 0
M  V30 8960 H 1570.38 -5.80178 -0.160643 0
M  V30 8961 H 1570.66 -6.51379 2.75643 0
M  V30 8962 H 1571.65 -7.01832 1.3448 0
M  V30 8963 H 1569.82 -8.73771 2.38364 0
M  V30 8964 P 1571.69 -8.91 1.84249e-12 0
M  V30 8965 O 1571.91 -10.1726 -0.733694 0
M  V30 8966 O 1572.48 -8.73148 1.23936 0
M  V30 8967 O 1571.94 -7.66872 -0.971405 0
M  V30 8968 C 1571 -7.42309 -2.04641 0
M  V30 8969 C 1571.73 -6.86059 -3.24661 0
M  V30 8970 O 1571.94 -5.42847 -3.03646 0
M  V30 8971 C 1573.13 -7.41196 -3.50753 0
M  V30 8972 O 1573.52 -7.27073 -4.86816 0
M  V30 8973 C 1574.01 -6.5273 -2.63741 0
M  V30 8974 C 1573.3 -5.1842 -2.73198 0
M  V30 8975 N 1573.35 -4.38762 -1.4784 0
M  V30 8976 H 1570.51 -8.36803 -2.32493 0
M  V30 8977 H 1570.24 -6.70197 -1.71129 0
M  V30 8978 H 1571.11 -7.03551 -4.13168 0
M  V30 8979 P 1575.07 -7.20834 -5.23717 0
M  V30 8980 O 1575.29 -7.79853 -6.57286 0
M  V30 8981 O 1575.86 -7.79239 -4.12957 0
M  V30 8982 O 1575.32 -5.63315 -5.29344 0
M  V30 8983 C 1574.38 -4.80255 -6.01876 0
M  V30 8984 C 1575.11 -3.64202 -6.65911 0
M  V30 8985 O 1575.32 -2.60694 -5.64732 0
M  V30 8986 C 1576.51 -3.93473 -7.1943 0
M  V30 8987 O 1576.9 -3.02071 -8.21205 0
M  V30 8988 C 1577.39 -3.73047 -5.97036 0
M  V30 8989 C 1576.68 -2.58828 -5.25741 0
M  V30 8990 N 1576.73 -2.68068 -3.77503 0
M  V30 8991 C 1576.65 -3.79715 -2.96723 0
M  V30 8992 N 1576.73 -3.5377 -1.68852 0
M  V30 8993 C 1576.87 -2.15054 -1.63254 0
M  V30 8994 C 1577 -1.28964 -0.518571 0
M  V30 8995 N 1577.12 0.0538097 -0.918425 0
M  V30 8996 C 1577.12 0.494275 -2.22578 0
M  V30 8997 N 1577.25 1.81086 -2.40434 0
M  V30 8998 N 1576.99 -0.313645 -3.27502 0
M  V30 8999 C 1576.87 -1.61829 -2.91033 0
M  V30 9000 H 1573.89 -5.40332 -6.79951 0
M  V30 9001 H 1573.62 -4.41613 -5.32378 0
M  V30 9002 H 1574.49 -3.26331 -7.47797 0
M  V30 9003 P 1578.45 -2.75334 -8.47391 0
M  V30 9004 O 1578.67 -2.44571 -9.90142 0
M  V30 9005 O 1579.24 -3.87688 -7.92115 0
M  V30 9006 O 1578.7 -1.4459 -7.59357 0
M  V30 9007 C 1577.76 -0.347608 -7.69215 0
M  V30 9008 C 1578.49 0.96767 -7.52806 0
M  V30 9009 O 1578.7 1.21036 -6.1011 0
M  V30 9010 C 1579.89 1.04544 -8.13308 0
M  V30 9011 O 1580.28 2.38311 -8.41922 0
M  V30 9012 C 1580.77 0.491279 -7.02284 0
M  V30 9013 C 1580.06 0.996264 -5.77469 0
M  V30 9014 N 1580.11 0.0501916 -4.62973 0
M  V30 9015 H 1577.27 -0.374722 -8.67691 0
M  V30 9016 H 1577 -0.443485 -6.90277 0
M  V30 9017 H 1577.87 1.75537 -7.96793 0
M  V30 9018 P 1581.83 2.75334 -8.47391 0
M  V30 9019 O 1582.05 3.84204 -9.44982 0
M  V30 9020 O 1582.62 1.51982 -8.68909 0
M  V30 9021 O 1582.08 3.29363 -6.99321 0
M  V30 9022 C 1581.14 4.24066 -6.42823 0
M  V30 9023 C 1581.87 5.20775 -5.52155 0
M  V30 9024 O 1582.08 4.56607 -4.22514 0
M  V30 9025 C 1583.27 5.62697 -5.96604 0
M  V30 9026 O 1583.66 6.87667 -5.41053 0
M  V30 9027 C 1584.15 4.52537 -5.39283 0
M  V30 9028 C 1583.44 4.20027 -4.08623 0
M  V30 9029 N 1583.49 2.76189 -3.71603 0
M  V30 9030 H 1580.65 4.79756 -7.24086 0
M  V30 9031 H 1580.38 3.69963 -5.84682 0
M  V30 9032 H 1581.25 6.10431 -5.41508 0
M  V30 9033 H 1583.9 4.78816 -3.28024 0
M  V30 9034 H 1584.18 3.64957 -6.05871 0
M  V30 9035 H 1585.17 4.88748 -5.21323 0
M  V30 9036 H 1583.34 5.66789 -7.0643 0
M  V30 9037 P 1585.21 7.20834 -5.23717 0
M  V30 9038 O 1585.43 8.66104 -5.38572 0
M  V30 9039 O 1586 6.33544 -6.1349 0
M  V30 9040 O 1585.46 6.7751 -3.72168 0
M  V30 9041 C 1584.52 7.20825 -2.7076 0
M  V30 9042 C 1585.25 7.45864 -1.40599 0
M  V30 9043 O 1585.46 6.17651 -0.734225 0
M  V30 9044 C 1586.65 8.05808 -1.51899 0
M  V30 9045 O 1587.04 8.74358 -0.335205 0
M  V30 9046 C 1587.53 6.83093 -1.70294 0
M  V30 9047 C 1586.82 5.79992 -0.836974 0
M  V30 9048 N 1586.87 4.41864 -1.38293 0
M  V30 9049 H 1584.03 8.13644 -3.0377 0
M  V30 9050 H 1583.76 6.42788 -2.55485 0
M  V30 9051 H 1584.63 8.12039 -0.792769 0
M  V30 9052 P 1588.59 8.91 -2.95149e-12 0
M  V30 9053 O 1588.81 10.1726 0.733694 0
M  V30 9054 O 1589.38 8.73148 -1.23936 0
M  V30 9055 O 1588.84 7.66872 0.971405 0
M  V30 9056 C 1587.9 7.42309 2.04641 0
M  V30 9057 C 1588.63 6.86059 3.24661 0
M  V30 9058 O 1588.84 5.42847 3.03646 0
M  V30 9059 C 1590.03 7.41196 3.50753 0
M  V30 9060 O 1590.42 7.27073 4.86816 0
M  V30 9061 C 1590.91 6.5273 2.63741 0
M  V30 9062 C 1590.2 5.1842 2.73198 0
M  V30 9063 N 1590.25 4.38762 1.4784 0
M  V30 9064 H 1587.41 8.36803 2.32493 0
M  V30 9065 H 1587.14 6.70197 1.71129 0
M  V30 9066 H 1588.01 7.03551 4.13168 0
M  V30 9067 P 1591.97 7.20834 5.23717 0
M  V30 9068 O 1592.19 7.79853 6.57286 0
M  V30 9069 O 1592.76 7.79239 4.12957 0
M  V30 9070 O 1592.22 5.63315 5.29344 0
M  V30 9071 C 1591.28 4.80255 6.01876 0
M  V30 9072 C 1592.01 3.64202 6.65911 0
M  V30 9073 O 1592.22 2.60694 5.64732 0
M  V30 9074 C 1593.41 3.93473 7.1943 0
M  V30 9075 O 1593.8 3.02071 8.21205 0
M  V30 9076 C 1594.29 3.73047 5.97036 0
M  V30 9077 C 1593.58 2.58828 5.25741 0
M  V30 9078 N 1593.63 2.68068 3.77503 0
M  V30 9079 H 1590.79 5.40332 6.79951 0
M  V30 9080 H 1590.52 4.41613 5.32378 0
M  V30 9081 H 1591.39 3.26331 7.47797 0
M  V30 9082 P 1595.35 2.75334 8.47391 0
M  V30 9083 O 1595.57 2.44571 9.90142 0
M  V30 9084 O 1596.14 3.87688 7.92115 0
M  V30 9085 O 1595.6 1.4459 7.59357 0
M  V30 9086 C 1594.66 0.347608 7.69215 0
M  V30 9087 C 1595.39 -0.96767 7.52806 0
M  V30 9088 O 1595.6 -1.21036 6.1011 0
M  V30 9089 C 1596.79 -1.04544 8.13308 0
M  V30 9090 O 1597.18 -2.38311 8.41922 0
M  V30 9091 C 1597.67 -0.491279 7.02284 0
M  V30 9092 C 1596.96 -0.996264 5.77469 0
M  V30 9093 N 1597.01 -0.0501916 4.62973 0
M  V30 9094 H 1594.17 0.374722 8.67691 0
M  V30 9095 H 1593.9 0.443485 6.90277 0
M  V30 9096 H 1594.77 -1.75537 7.96793 0
M  V30 9097 P 1598.73 -2.75334 8.47391 0
M  V30 9098 O 1598.95 -3.84204 9.44982 0
M  V30 9099 O 1599.52 -1.51982 8.68909 0
M  V30 9100 O 1598.98 -3.29363 6.99321 0
M  V30 9101 C 1598.04 -4.24066 6.42823 0
M  V30 9102 C 1598.77 -5.20775 5.52155 0
M  V30 9103 O 1598.98 -4.56607 4.22514 0
M  V30 9104 C 1600.17 -5.62697 5.96604 0
M  V30 9105 O 1600.56 -6.87667 5.41053 0
M  V30 9106 C 1601.05 -4.52537 5.39283 0
M  V30 9107 C 1600.34 -4.20027 4.08623 0
M  V30 9108 N 1600.39 -2.76189 3.71603 0
M  V30 9109 H 1597.55 -4.79756 7.24086 0
M  V30 9110 H 1597.28 -3.69963 5.84682 0
M  V30 9111 H 1598.15 -6.10431 5.41508 0
M  V30 9112 H 1600.8 -4.78816 3.28024 0
M  V30 9113 H 1601.08 -3.64957 6.05871 0
M  V30 9114 H 1602.07 -4.88748 5.21323 0
M  V30 9115 H 1600.24 -5.66789 7.0643 0
M  V30 9116 P 1602.11 -7.20834 5.23717 0
M  V30 9117 O 1602.33 -8.66274 5.38678 0
M  V30 9118 O 1602.9 -6.33687 6.13629 0
M  V30 9119 O 1602.36 -6.7751 3.72168 0
M  V30 9120 C 1601.42 -7.20919 2.70795 0
M  V30 9121 C 1602.15 -7.45864 1.40599 0
M  V30 9122 O 1602.36 -6.17751 0.734343 0
M  V30 9123 C 1603.55 -8.05906 1.51917 0
M  V30 9124 O 1603.94 -8.74358 0.335205 0
M  V30 9125 C 1604.43 -6.83093 1.70294 0
M  V30 9126 C 1603.72 -5.79992 0.836974 0
M  V30 9127 N 1603.77 -4.41864 1.38293 0
M  V30 9128 C 1603.69 -4.02089 2.69407 0
M  V30 9129 N 1603.76 -2.73403 2.85089 0
M  V30 9130 C 1603.91 -2.25086 1.5642 0
M  V30 9131 C 1604.04 -0.942887 1.04836 0
M  V30 9132 N 1604.05 0.150999 1.80369 0
M  V30 9133 N 1604.16 -0.812565 -0.28167 0
M  V30 9134 C 1604.15 -1.90572 -1.03784 0
M  V30 9135 N 1604.03 -3.167 -0.683905 0
M  V30 9136 C 1603.91 -3.26538 0.652815 0
M  V30 9137 H 1600.93 -8.13738 3.03804 0
M  V30 9138 H 1600.66 -6.42974 2.55559 0
M  V30 9139 H 1601.53 -8.12139 0.792866 0
M  V30 9140 H 1604.18 -5.80178 -0.160643 0
M  V30 9141 H 1604.46 -6.51379 2.75643 0
M  V30 9142 H 1605.45 -7.01832 1.3448 0
M  V30 9143 H 1603.62 -8.73771 2.38364 0
M  V30 9144 H 1603.58 -4.7189 3.52311 0
M  V30 9145 H 1603.96 0.0721434 2.82608 0
M  V30 9146 H 1604.15 1.0785 1.36544 0
M  V30 9147 H 1604.26 -1.73207 -2.10241 0
M  V30 9148 P 1605.49 -8.91 4.0605e-12 0
M  V30 9149 O 1605.71 -10.1726 -0.733694 0
M  V30 9150 O 1606.28 -8.73148 1.23936 0
M  V30 9151 O 1605.74 -7.66872 -0.971405 0
M  V30 9152 C 1604.8 -7.42309 -2.04641 0
M  V30 9153 C 1605.53 -6.86059 -3.24661 0
M  V30 9154 O 1605.74 -5.42847 -3.03646 0
M  V30 9155 C 1606.93 -7.41196 -3.50753 0
M  V30 9156 O 1607.32 -7.27073 -4.86816 0
M  V30 9157 C 1607.81 -6.5273 -2.63741 0
M  V30 9158 C 1607.1 -5.1842 -2.73198 0
M  V30 9159 N 1607.15 -4.38762 -1.4784 0
M  V30 9160 H 1604.31 -8.36803 -2.32493 0
M  V30 9161 H 1604.04 -6.70197 -1.71129 0
M  V30 9162 H 1604.91 -7.03551 -4.13168 0
M  V30 9163 P 1608.87 -7.20834 -5.23717 0
M  V30 9164 O 1609.09 -7.7993 -6.57351 0
M  V30 9165 O 1609.66 -7.79328 -4.13004 0
M  V30 9166 O 1609.12 -5.63315 -5.29344 0
M  V30 9167 C 1608.18 -4.80193 -6.01798 0
M  V30 9168 C 1608.91 -3.64202 -6.65911 0
M  V30 9169 O 1609.12 -2.60694 -5.64732 0
M  V30 9170 C 1610.31 -3.93473 -7.1943 0
M  V30 9171 O 1610.7 -3.02071 -8.21205 0
M  V30 9172 C 1611.19 -3.73047 -5.97036 0
M  V30 9173 C 1610.48 -2.58828 -5.25741 0
M  V30 9174 N 1610.53 -2.6801 -3.77422 0
M  V30 9175 C 1610.68 -1.50443 -3.07133 0
M  V30 9176 O 1610.77 -0.419406 -3.61576 0
M  V30 9177 N 1610.72 -1.6403 -1.69677 0
M  V30 9178 C 1610.63 -2.81206 -0.986255 0
M  V30 9179 C 1610.48 -3.99158 -1.80325 0
M  V30 9180 C 1610.43 -3.89779 -3.1476 0
M  V30 9181 H 1607.69 -5.40332 -6.79951 0
M  V30 9182 H 1607.42 -4.41549 -5.32301 0
M  V30 9183 H 1608.29 -3.26331 -7.47797 0
M  V30 9184 H 1610.94 -1.6395 -5.56554 0
M  V30 9185 H 1611.22 -4.63439 -5.3432 0
M  V30 9186 H 1612.21 -3.44728 -6.25838 0
M  V30 9187 H 1610.38 -4.96652 -7.57263 0
M  V30 9188 H 1610.31 -4.80159 -3.74441 0
M  V30 9189 P 1612.25 -2.75334 -8.47391 0
M  V30 9190 O 1612.47 -2.44571 -9.90142 0
M  V30 9191 O 1613.04 -3.87688 -7.92115 0
M  V30 9192 O 1612.5 -1.4459 -7.59357 0
M  V30 9193 C 1611.56 -0.347608 -7.69215 0
M  V30 9194 C 1612.29 0.96767 -7.52806 0
M  V30 9195 O 1612.5 1.21036 -6.1011 0
M  V30 9196 C 1613.69 1.04544 -8.13308 0
M  V30 9197 O 1614.08 2.38311 -8.41922 0
M  V30 9198 C 1614.57 0.491279 -7.02284 0
M  V30 9199 C 1613.86 0.996264 -5.77469 0
M  V30 9200 N 1613.91 0.0501916 -4.62973 0
M  V30 9201 H 1611.07 -0.374722 -8.67691 0
M  V30 9202 H 1610.8 -0.443485 -6.90277 0
M  V30 9203 H 1611.67 1.75537 -7.96793 0
M  V30 9204 P 1615.63 2.75334 -8.47391 0
M  V30 9205 O 1615.85 3.84128 -9.44797 0
M  V30 9206 O 1616.42 1.51947 -8.68712 0
M  V30 9207 O 1615.88 3.29363 -6.99321 0
M  V30 9208 C 1614.94 4.24011 -6.4274 0
M  V30 9209 C 1615.67 5.20775 -5.52155 0
M  V30 9210 O 1615.88 4.56534 -4.22446 0
M  V30 9211 C 1617.07 5.62629 -5.96531 0
M  V30 9212 O 1617.46 6.87667 -5.41053 0
M  V30 9213 C 1617.95 4.52537 -5.39283 0
M  V30 9214 C 1617.24 4.20027 -4.08623 0
M  V30 9215 N 1617.29 2.76189 -3.71603 0
M  V30 9216 H 1614.45 4.797 -7.24003 0
M  V30 9217 H 1614.18 3.69856 -5.84513 0
M  V30 9218 H 1615.05 6.10356 -5.41441 0
M  V30 9219 P 1619.01 7.20834 -5.23717 0
M  V30 9220 O 1619.23 8.66189 -5.38625 0
M  V30 9221 O 1619.8 6.33615 -6.1356 0
M  V30 9222 O 1619.26 6.7751 -3.72168 0
M  V30 9223 C 1618.32 7.20732 -2.70725 0
M  V30 9224 C 1619.05 7.45864 -1.40599 0
M  V30 9225 O 1619.26 6.17651 -0.734225 0
M  V30 9226 C 1620.45 8.05808 -1.51899 0
M  V30 9227 O 1620.84 8.74358 -0.335205 0
M  V30 9228 C 1621.33 6.83093 -1.70294 0
M  V30 9229 C 1620.62 5.79992 -0.836974 0
M  V30 9230 N 1620.67 4.41769 -1.38263 0
M  V30 9231 C 1620.82 3.38591 -0.481702 0
M  V30 9232 O 1620.91 3.56839 0.718452 0
M  V30 9233 N 1620.86 2.1206 -1.03569 0
M  V30 9234 C 1620.77 1.80696 -2.36966 0
M  V30 9235 O 1620.82 0.630473 -2.74862 0
M  V30 9236 C 1620.62 2.94845 -3.23898 0
M  V30 9237 C 1620.51 2.65253 -4.70362 0
M  V30 9238 C 1620.57 4.19803 -2.73435 0
M  V30 9239 H 1617.83 8.13644 -3.0377 0
M  V30 9240 H 1617.56 6.42695 -2.55448 0
M  V30 9241 H 1618.43 8.12039 -0.792769 0
M  V30 9242 H 1621.08 5.79978 0.160587 0
M  V30 9243 H 1621.36 6.51379 -2.75643 0
M  V30 9244 H 1622.35 7.01734 -1.34462 0
M  V30 9245 H 1620.52 8.73674 -2.38337 0
M  V30 9246 H 1620.45 5.04492 -3.4095 0
M  V30 9247 H 1621.48 2.83924 -5.1913 0
M  V30 9248 H 1619.74 3.29824 -5.15163 0
M  V30 9249 H 1620.23 1.59723 -4.84449 0
M  V30 9250 H 1620.97 1.35644 -0.399345 0
M  V30 9251 P 1622.39 8.91 -5.1695e-12 0
M  V30 9252 O 1622.61 10.1726 0.733694 0
M  V30 9253 O 1623.18 8.73148 -1.23936 0
M  V30 9254 O 1622.64 7.66872 0.971405 0
M  V30 9255 C 1621.7 7.42309 2.04641 0
M  V30 9256 C 1622.43 6.86059 3.24661 0
M  V30 9257 O 1622.64 5.42847 3.03646 0
M  V30 9258 C 1623.83 7.41196 3.50753 0
M  V30 9259 O 1624.22 7.27073 4.86816 0
M  V30 9260 C 1624.71 6.5273 2.63741 0
M  V30 9261 C 1624 5.1842 2.73198 0
M  V30 9262 N 1624.05 4.38762 1.4784 0
M  V30 9263 H 1621.21 8.36803 2.32493 0
M  V30 9264 H 1620.94 6.70197 1.71129 0
M  V30 9265 H 1621.81 7.03551 4.13168 0
M  V30 9266 P 1625.77 7.20834 5.23717 0
M  V30 9267 O 1625.99 7.79853 6.57286 0
M  V30 9268 O 1626.56 7.79239 4.12957 0
M  V30 9269 O 1626.02 5.63315 5.29344 0
M  V30 9270 C 1625.08 4.80255 6.01876 0
M  V30 9271 C 1625.81 3.64202 6.65911 0
M  V30 9272 O 1626.02 2.60694 5.64732 0
M  V30 9273 C 1627.21 3.93473 7.1943 0
M  V30 9274 O 1627.6 3.02071 8.21205 0
M  V30 9275 C 1628.09 3.73047 5.97036 0
M  V30 9276 C 1627.38 2.58828 5.25741 0
M  V30 9277 N 1627.43 2.68068 3.77503 0
M  V30 9278 C 1627.35 3.79715 2.96723 0
M  V30 9279 N 1627.43 3.5377 1.68852 0
M  V30 9280 C 1627.57 2.15054 1.63254 0
M  V30 9281 C 1627.7 1.28964 0.518571 0
M  V30 9282 N 1627.82 -0.0538097 0.918425 0
M  V30 9283 C 1627.82 -0.494275 2.22578 0
M  V30 9284 N 1627.95 -1.81086 2.40434 0
M  V30 9285 N 1627.69 0.313645 3.27502 0
M  V30 9286 C 1627.57 1.61829 2.91033 0
M  V30 9287 H 1624.59 5.40332 6.79951 0
M  V30 9288 H 1624.32 4.41613 5.32378 0
M  V30 9289 H 1625.19 3.26331 7.47797 0
M  V30 9290 P 1629.15 2.75334 8.47391 0
M  V30 9291 O 1629.37 2.44571 9.90142 0
M  V30 9292 O 1629.94 3.87688 7.92115 0
M  V30 9293 O 1629.4 1.4459 7.59357 0
M  V30 9294 C 1628.46 0.347608 7.69215 0
M  V30 9295 C 1629.19 -0.96767 7.52806 0
M  V30 9296 O 1629.4 -1.21036 6.1011 0
M  V30 9297 C 1630.59 -1.04544 8.13308 0
M  V30 9298 O 1630.98 -2.38311 8.41922 0
M  V30 9299 C 1631.47 -0.491279 7.02284 0
M  V30 9300 C 1630.76 -0.996264 5.77469 0
M  V30 9301 N 1630.81 -0.0501916 4.62973 0
M  V30 9302 H 1627.97 0.374722 8.67691 0
M  V30 9303 H 1627.7 0.443485 6.90277 0
M  V30 9304 H 1628.57 -1.75537 7.96793 0
M  V30 9305 P 1632.53 -2.75334 8.47391 0
M  V30 9306 O 1632.75 -3.84128 9.44797 0
M  V30 9307 O 1633.32 -1.51947 8.68712 0
M  V30 9308 O 1632.78 -3.29363 6.99321 0
M  V30 9309 C 1631.84 -4.24011 6.4274 0
M  V30 9310 C 1632.57 -5.20775 5.52155 0
M  V30 9311 O 1632.78 -4.56534 4.22446 0
M  V30 9312 C 1633.97 -5.62629 5.96531 0
M  V30 9313 O 1634.36 -6.87667 5.41053 0
M  V30 9314 C 1634.85 -4.52537 5.39283 0
M  V30 9315 C 1634.14 -4.20027 4.08623 0
M  V30 9316 N 1634.19 -2.76189 3.71603 0
M  V30 9317 H 1631.35 -4.797 7.24003 0
M  V30 9318 H 1631.08 -3.69856 5.84513 0
M  V30 9319 H 1631.95 -6.10356 5.41441 0
M  V30 9320 P 1635.91 -7.20834 5.23717 0
M  V30 9321 O 1636.13 -8.66104 5.38572 0
M  V30 9322 O 1636.7 -6.33544 6.1349 0
M  V30 9323 O 1636.16 -6.7751 3.72168 0
M  V30 9324 C 1635.22 -7.20825 2.7076 0
M  V30 9325 C 1635.95 -7.45864 1.40599 0
M  V30 9326 O 1636.16 -6.17651 0.734225 0
M  V30 9327 C 1637.35 -8.05808 1.51899 0
M  V30 9328 O 1637.74 -8.74358 0.335205 0
M  V30 9329 C 1638.23 -6.83093 1.70294 0
M  V30 9330 C 1637.52 -5.79992 0.836974 0
M  V30 9331 N 1637.57 -4.41864 1.38293 0
M  V30 9332 H 1634.73 -8.13644 3.0377 0
M  V30 9333 H 1634.46 -6.42788 2.55485 0
M  V30 9334 H 1635.33 -8.12039 0.792769 0
M  V30 9335 P 1639.29 -8.91 6.2785e-12 0
M  V30 9336 O 1639.51 -10.1726 -0.733694 0
M  V30 9337 O 1640.08 -8.73148 1.23936 0
M  V30 9338 O 1639.54 -7.66872 -0.971405 0
M  V30 9339 C 1638.6 -7.42309 -2.04641 0
M  V30 9340 C 1639.33 -6.86059 -3.24661 0
M  V30 9341 O 1639.54 -5.42847 -3.03646 0
M  V30 9342 C 1640.73 -7.41196 -3.50753 0
M  V30 9343 O 1641.12 -7.27073 -4.86816 0
M  V30 9344 C 1641.61 -6.5273 -2.63741 0
M  V30 9345 C 1640.9 -5.1842 -2.73198 0
M  V30 9346 N 1640.95 -4.38762 -1.4784 0
M  V30 9347 H 1638.11 -8.36803 -2.32493 0
M  V30 9348 H 1637.84 -6.70197 -1.71129 0
M  V30 9349 H 1638.71 -7.03551 -4.13168 0
M  V30 9350 P 1642.67 -7.20834 -5.23717 0
M  V30 9351 O 1642.89 -7.80006 -6.57415 0
M  V30 9352 O 1643.46 -7.79416 -4.13051 0
M  V30 9353 O 1642.92 -5.63315 -5.29344 0
M  V30 9354 C 1641.98 -4.80318 -6.01954 0
M  V30 9355 C 1642.71 -3.64202 -6.65911 0
M  V30 9356 O 1642.92 -2.60736 -5.64823 0
M  V30 9357 C 1644.11 -3.93521 -7.19518 0
M  V30 9358 O 1644.5 -3.02071 -8.21205 0
M  V30 9359 C 1644.99 -3.73047 -5.97036 0
M  V30 9360 C 1644.28 -2.58828 -5.25741 0
M  V30 9361 N 1644.33 -2.68068 -3.77503 0
M  V30 9362 C 1644.25 -3.80474 -2.99159 0
M  V30 9363 N 1644.32 -3.55622 -1.71925 0
M  V30 9364 C 1644.47 -2.1832 -1.65733 0
M  V30 9365 C 1644.6 -1.28842 -0.572777 0
M  V30 9366 N 1644.61 -1.66875 0.70098 0
M  V30 9367 N 1644.72 0.016788 -0.859836 0
M  V30 9368 C 1644.71 0.398145 -2.13316 0
M  V30 9369 N 1644.59 -0.328224 -3.22333 0
M  V30 9370 C 1644.47 -1.62992 -2.90383 0
M  V30 9371 H 1641.49 -5.40394 -6.8003 0
M  V30 9372 H 1641.22 -4.41741 -5.32532 0
M  V30 9373 H 1642.09 -3.26371 -7.47889 0
M  V30 9374 H 1644.74 -1.64007 -5.56746 0
M  V30 9375 H 1645.02 -4.63439 -5.3432 0
M  V30 9376 H 1646.01 -3.44776 -6.25925 0
M  V30 9377 H 1644.18 -4.96707 -7.57347 0
M  V30 9378 H 1644.14 -4.8089 -3.39924 0
M  V30 9379 H 1644.52 -2.66547 0.941919 0
M  V30 9380 H 1644.71 -0.965341 1.44766 0
M  V30 9381 H 1644.82 1.46427 -2.29697 0
M  V30 9382 P 1646.05 -2.75334 -8.47391 0
M  V30 9383 O 1646.27 -2.44571 -9.90142 0
M  V30 9384 O 1646.84 -3.87688 -7.92115 0
M  V30 9385 O 1646.3 -1.4459 -7.59357 0
M  V30 9386 C 1645.36 -0.347608 -7.69215 0
M  V30 9387 C 1646.09 0.96767 -7.52806 0
M  V30 9388 O 1646.3 1.21036 -6.1011 0
M  V30 9389 C 1647.49 1.04544 -8.13308 0
M  V30 9390 O 1647.88 2.38311 -8.41922 0
M  V30 9391 C 1648.37 0.491279 -7.02284 0
M  V30 9392 C 1647.66 0.996264 -5.77469 0
M  V30 9393 N 1647.71 0.0501916 -4.62973 0
M  V30 9394 H 1644.87 -0.374722 -8.67691 0
M  V30 9395 H 1644.6 -0.443485 -6.90277 0
M  V30 9396 H 1645.47 1.75537 -7.96793 0
M  V30 9397 P 1649.43 2.75334 -8.47391 0
M  V30 9398 O 1649.65 3.84128 -9.44797 0
M  V30 9399 O 1650.22 1.51947 -8.68712 0
M  V30 9400 O 1649.68 3.29363 -6.99321 0
M  V30 9401 C 1648.74 4.24011 -6.4274 0
M  V30 9402 C 1649.47 5.20775 -5.52155 0
M  V30 9403 O 1649.68 4.56534 -4.22446 0
M  V30 9404 C 1650.87 5.62629 -5.96531 0
M  V30 9405 O 1651.26 6.87667 -5.41053 0
M  V30 9406 C 1651.75 4.52537 -5.39283 0
M  V30 9407 C 1651.04 4.20027 -4.08623 0
M  V30 9408 N 1651.09 2.76189 -3.71603 0
M  V30 9409 H 1648.25 4.797 -7.24003 0
M  V30 9410 H 1647.98 3.69856 -5.84513 0
M  V30 9411 H 1648.85 6.10356 -5.41441 0
M  V30 9412 P 1652.81 7.20834 -5.23717 0
M  V30 9413 O 1653.03 8.66104 -5.38572 0
M  V30 9414 O 1653.6 6.33544 -6.1349 0
M  V30 9415 O 1653.06 6.7751 -3.72168 0
M  V30 9416 C 1652.12 7.20825 -2.7076 0
M  V30 9417 C 1652.85 7.45864 -1.40599 0
M  V30 9418 O 1653.06 6.17651 -0.734225 0
M  V30 9419 C 1654.25 8.05808 -1.51899 0
M  V30 9420 O 1654.64 8.74358 -0.335205 0
M  V30 9421 C 1655.13 6.83093 -1.70294 0
M  V30 9422 C 1654.42 5.79992 -0.836974 0
M  V30 9423 N 1654.47 4.41864 -1.38293 0
M  V30 9424 H 1651.63 8.13644 -3.0377 0
M  V30 9425 H 1651.36 6.42788 -2.55485 0
M  V30 9426 H 1652.23 8.12039 -0.792769 0
M  V30 9427 P 1656.19 8.91 -7.38751e-12 0
M  V30 9428 O 1656.41 10.1726 0.733694 0
M  V30 9429 O 1656.98 8.73148 -1.23936 0
M  V30 9430 O 1656.44 7.66872 0.971405 0
M  V30 9431 C 1655.5 7.42309 2.04641 0
M  V30 9432 C 1656.23 6.86059 3.24661 0
M  V30 9433 O 1656.44 5.42847 3.03646 0
M  V30 9434 C 1657.63 7.41196 3.50753 0
M  V30 9435 O 1658.02 7.27073 4.86816 0
M  V30 9436 C 1658.51 6.5273 2.63741 0
M  V30 9437 C 1657.8 5.1842 2.73198 0
M  V30 9438 N 1657.85 4.38762 1.4784 0
M  V30 9439 H 1655.01 8.36803 2.32493 0
M  V30 9440 H 1654.74 6.70197 1.71129 0
M  V30 9441 H 1655.61 7.03551 4.13168 0
M  V30 9442 P 1659.57 7.20834 5.23717 0
M  V30 9443 O 1659.79 7.79853 6.57286 0
M  V30 9444 O 1660.36 7.79239 4.12957 0
M  V30 9445 O 1659.82 5.63315 5.29344 0
M  V30 9446 C 1658.88 4.80255 6.01876 0
M  V30 9447 C 1659.61 3.64202 6.65911 0
M  V30 9448 O 1659.82 2.60694 5.64732 0
M  V30 9449 C 1661.01 3.93473 7.1943 0
M  V30 9450 O 1661.4 3.02071 8.21205 0
M  V30 9451 C 1661.89 3.73047 5.97036 0
M  V30 9452 C 1661.18 2.58828 5.25741 0
M  V30 9453 N 1661.23 2.68068 3.77503 0
M  V30 9454 H 1658.39 5.40332 6.79951 0
M  V30 9455 H 1658.12 4.41613 5.32378 0
M  V30 9456 H 1658.99 3.26331 7.47797 0
M  V30 9457 P 1662.95 2.75334 8.47391 0
M  V30 9458 O 1663.17 2.44571 9.90142 0
M  V30 9459 O 1663.74 3.87688 7.92115 0
M  V30 9460 O 1663.2 1.4459 7.59357 0
M  V30 9461 C 1662.26 0.347608 7.69215 0
M  V30 9462 C 1662.99 -0.96767 7.52806 0
M  V30 9463 O 1663.2 -1.21036 6.1011 0
M  V30 9464 C 1664.39 -1.04544 8.13308 0
M  V30 9465 O 1664.78 -2.38311 8.41922 0
M  V30 9466 C 1665.27 -0.491279 7.02284 0
M  V30 9467 C 1664.56 -0.996264 5.77469 0
M  V30 9468 N 1664.61 -0.0501916 4.62973 0
M  V30 9469 H 1661.77 0.374722 8.67691 0
M  V30 9470 H 1661.5 0.443485 6.90277 0
M  V30 9471 H 1662.37 -1.75537 7.96793 0
M  V30 9472 P 1666.33 -2.75334 8.47391 0
M  V30 9473 O 1666.55 -3.84128 9.44797 0
M  V30 9474 O 1667.12 -1.51947 8.68712 0
M  V30 9475 O 1666.58 -3.29363 6.99321 0
M  V30 9476 C 1665.64 -4.24011 6.4274 0
M  V30 9477 C 1666.37 -5.20775 5.52155 0
M  V30 9478 O 1666.58 -4.56534 4.22446 0
M  V30 9479 C 1667.77 -5.62629 5.96531 0
M  V30 9480 O 1668.16 -6.87667 5.41053 0
M  V30 9481 C 1668.65 -4.52537 5.39283 0
M  V30 9482 C 1667.94 -4.20027 4.08623 0
M  V30 9483 N 1667.99 -2.76189 3.71603 0
M  V30 9484 H 1665.15 -4.797 7.24003 0
M  V30 9485 H 1664.88 -3.69856 5.84513 0
M  V30 9486 H 1665.75 -6.10356 5.41441 0
M  V30 9487 P 1669.71 -7.20834 5.23717 0
M  V30 9488 O 1669.93 -8.66274 5.38678 0
M  V30 9489 O 1670.5 -6.33687 6.13629 0
M  V30 9490 O 1669.96 -6.7751 3.72168 0
M  V30 9491 C 1669.02 -7.20919 2.70795 0
M  V30 9492 C 1669.75 -7.45864 1.40599 0
M  V30 9493 O 1669.96 -6.17751 0.734343 0
M  V30 9494 C 1671.15 -8.05906 1.51917 0
M  V30 9495 O 1671.54 -8.74358 0.335205 0
M  V30 9496 C 1672.03 -6.83093 1.70294 0
M  V30 9497 C 1671.32 -5.79992 0.836974 0
M  V30 9498 N 1671.37 -4.41864 1.38293 0
M  V30 9499 C 1671.29 -4.02089 2.69407 0
M  V30 9500 N 1671.36 -2.73403 2.85089 0
M  V30 9501 C 1671.51 -2.25086 1.5642 0
M  V30 9502 C 1671.64 -0.942887 1.04836 0
M  V30 9503 N 1671.65 0.150999 1.80369 0
M  V30 9504 N 1671.76 -0.812565 -0.28167 0
M  V30 9505 C 1671.75 -1.90572 -1.03784 0
M  V30 9506 N 1671.63 -3.167 -0.683905 0
M  V30 9507 C 1671.51 -3.26538 0.652815 0
M  V30 9508 H 1668.53 -8.13738 3.03804 0
M  V30 9509 H 1668.26 -6.42974 2.55559 0
M  V30 9510 H 1669.13 -8.12139 0.792866 0
M  V30 9511 H 1671.78 -5.80178 -0.160643 0
M  V30 9512 H 1672.06 -6.51379 2.75643 0
M  V30 9513 H 1673.05 -7.01832 1.3448 0
M  V30 9514 H 1671.22 -8.73771 2.38364 0
M  V30 9515 H 1671.18 -4.7189 3.52311 0
M  V30 9516 H 1671.56 0.0721434 2.82608 0
M  V30 9517 H 1671.75 1.0785 1.36544 0
M  V30 9518 H 1671.86 -1.73207 -2.10241 0
M  V30 9519 P 1673.09 -8.91 8.49651e-12 0
M  V30 9520 O 1673.31 -10.1746 -0.733838 0
M  V30 9521 O 1673.88 -8.73346 1.23964 0
M  V30 9522 O 1673.34 -7.66872 -0.971405 0
M  V30 9523 C 1672.4 -7.42405 -2.04668 0
M  V30 9524 C 1673.13 -6.86059 -3.24661 0
M  V30 9525 O 1673.34 -5.42934 -3.03695 0
M  V30 9526 C 1674.53 -7.41287 -3.50796 0
M  V30 9527 O 1674.92 -7.27073 -4.86816 0
M  V30 9528 C 1675.41 -6.5273 -2.63741 0
M  V30 9529 C 1674.7 -5.1842 -2.73198 0
M  V30 9530 N 1674.75 -4.38762 -1.4784 0
M  V30 9531 H 1671.91 -8.36899 -2.3252 0
M  V30 9532 H 1671.64 -6.70391 -1.71179 0
M  V30 9533 H 1672.51 -7.03638 -4.13219 0
M  V30 9534 H 1675.16 -4.59931 -3.54016 0
M  V30 9535 H 1675.44 -6.88995 -1.59871 0
M  V30 9536 H 1676.43 -6.4684 -3.0373 0
M  V30 9537 H 1674.6 -8.47002 -3.20749 0
M  V30 9538 P 1676.47 -7.20834 -5.23717 0
M  V30 9539 O 1676.69 -7.79853 -6.57286 0
M  V30 9540 O 1677.26 -7.79239 -4.12957 0
M  V30 9541 O 1676.72 -5.63315 -5.29344 0
M  V30 9542 C 1675.78 -4.80255 -6.01876 0
M  V30 9543 C 1676.51 -3.64202 -6.65911 0
M  V30 9544 O 1676.72 -2.60694 -5.64732 0
M  V30 9545 C 1677.91 -3.93473 -7.1943 0
M  V30 9546 O 1678.3 -3.02071 -8.21205 0
M  V30 9547 C 1678.79 -3.73047 -5.97036 0
M  V30 9548 C 1678.08 -2.58828 -5.25741 0
M  V30 9549 N 1678.13 -2.68068 -3.77503 0
M  V30 9550 H 1675.29 -5.40332 -6.79951 0
M  V30 9551 H 1675.02 -4.41613 -5.32378 0
M  V30 9552 H 1675.89 -3.26331 -7.47797 0
M  V30 9553 P 1679.85 -2.75334 -8.47391 0
M  V30 9554 O 1680.07 -2.44571 -9.90142 0
M  V30 9555 O 1680.64 -3.87688 -7.92115 0
M  V30 9556 O 1680.1 -1.4459 -7.59357 0
M  V30 9557 C 1679.16 -0.347608 -7.69215 0
M  V30 9558 C 1679.89 0.96767 -7.52806 0
M  V30 9559 O 1680.1 1.21036 -6.1011 0
M  V30 9560 C 1681.29 1.04544 -8.13308 0
M  V30 9561 O 1681.68 2.38311 -8.41922 0
M  V30 9562 C 1682.17 0.491279 -7.02284 0
M  V30 9563 C 1681.46 0.996264 -5.77469 0
M  V30 9564 N 1681.51 0.0501916 -4.62973 0
M  V30 9565 C 1681.43 -1.32786 -4.63244 0
M  V30 9566 N 1681.51 -1.86957 -3.44545 0
M  V30 9567 C 1681.65 -0.780241 -2.58481 0
M  V30 9568 C 1681.78 -0.738536 -1.17757 0
M  V30 9569 O 1681.8 -1.66794 -0.372349 0
M  V30 9570 N 1681.9 0.58337 -0.711393 0
M  V30 9571 C 1681.9 1.70816 -1.51017 0
M  V30 9572 N 1682.03 2.87826 -0.880757 0
M  V30 9573 N 1681.77 1.67126 -2.8339 0
M  V30 9574 C 1681.65 0.401421 -3.30572 0
M  V30 9575 H 1678.67 -0.374722 -8.67691 0
M  V30 9576 H 1678.4 -0.443485 -6.90277 0
M  V30 9577 H 1679.27 1.75537 -7.96793 0
M  V30 9578 H 1681.92 1.95076 -5.46529 0
M  V30 9579 H 1682.2 -0.608565 -7.04577 0
M  V30 9580 H 1683.19 0.889672 -7.08939 0
M  V30 9581 H 1681.36 0.43308 -9.04564 0
M  V30 9582 H 1681.31 -1.91249 -5.54442 0
M  V30 9583 H 1681.99 0.718054 0.275244 0
M  V30 9584 H 1682.03 3.75721 -1.41832 0
M  V30 9585 H 1682.13 2.90436 0.145468 0
M  V30 9586 P 1683.23 2.75334 -8.47391 0
M  V30 9587 O 1683.45 3.84128 -9.44797 0
M  V30 9588 O 1684.02 1.51947 -8.68712 0
M  V30 9589 O 1683.48 3.29363 -6.99321 0
M  V30 9590 C 1682.54 4.24011 -6.4274 0
M  V30 9591 C 1683.27 5.20775 -5.52155 0
M  V30 9592 O 1683.48 4.56534 -4.22446 0
M  V30 9593 C 1684.67 5.62629 -5.96531 0
M  V30 9594 O 1685.06 6.87667 -5.41053 0
M  V30 9595 C 1685.55 4.52537 -5.39283 0
M  V30 9596 C 1684.84 4.20027 -4.08623 0
M  V30 9597 N 1684.89 2.76189 -3.71603 0
M  V30 9598 H 1682.05 4.797 -7.24003 0
M  V30 9599 H 1681.78 3.69856 -5.84513 0
M  V30 9600 H 1682.65 6.10356 -5.41441 0
M  V30 9601 P 1686.61 7.20834 -5.23717 0
M  V30 9602 O 1686.83 8.66104 -5.38572 0
M  V30 9603 O 1687.4 6.33544 -6.1349 0
M  V30 9604 O 1686.86 6.7751 -3.72168 0
M  V30 9605 C 1685.92 7.20825 -2.7076 0
M  V30 9606 C 1686.65 7.45864 -1.40599 0
M  V30 9607 O 1686.86 6.17651 -0.734225 0
M  V30 9608 C 1688.05 8.05808 -1.51899 0
M  V30 9609 O 1688.44 8.74358 -0.335205 0
M  V30 9610 C 1688.93 6.83093 -1.70294 0
M  V30 9611 C 1688.22 5.79992 -0.836974 0
M  V30 9612 N 1688.27 4.41864 -1.38293 0
M  V30 9613 H 1685.43 8.13644 -3.0377 0
M  V30 9614 H 1685.16 6.42788 -2.55485 0
M  V30 9615 H 1686.03 8.12039 -0.792769 0
M  V30 9616 P 1689.99 8.91 -9.60552e-12 0
M  V30 9617 O 1690.21 10.1736 0.733766 0
M  V30 9618 O 1690.78 8.73247 -1.2395 0
M  V30 9619 O 1690.24 7.66872 0.971405 0
M  V30 9620 C 1689.3 7.42212 2.04614 0
M  V30 9621 C 1690.03 6.86059 3.24661 0
M  V30 9622 O 1690.24 5.42847 3.03646 0
M  V30 9623 C 1691.43 7.41196 3.50753 0
M  V30 9624 O 1691.82 7.27073 4.86816 0
M  V30 9625 C 1692.31 6.5273 2.63741 0
M  V30 9626 C 1691.6 5.1842 2.73198 0
M  V30 9627 N 1691.65 4.38668 1.47808 0
M  V30 9628 C 1691.8 3.02239 1.60048 0
M  V30 9629 O 1691.89 2.46459 2.67869 0
M  V30 9630 N 1691.84 2.32436 0.408571 0
M  V30 9631 C 1691.75 2.85471 -0.854993 0
M  V30 9632 C 1691.6 4.28918 -0.887335 0
M  V30 9633 C 1691.55 5.00349 0.255399 0
M  V30 9634 H 1688.81 8.36803 2.32493 0
M  V30 9635 H 1688.54 6.701 1.71105 0
M  V30 9636 H 1689.41 7.03551 4.13168 0
M  V30 9637 H 1692.06 4.59773 3.53894 0
M  V30 9638 H 1692.34 6.88995 1.59871 0
M  V30 9639 H 1693.33 6.46749 3.03687 0
M  V30 9640 H 1691.5 8.46908 3.20714 0
M  V30 9641 H 1691.43 6.08548 0.206986 0
M  V30 9642 P 1693.37 7.20834 5.23717 0
M  V30 9643 O 1693.59 7.79853 6.57286 0
M  V30 9644 O 1694.16 7.79239 4.12957 0
M  V30 9645 O 1693.62 5.63315 5.29344 0
M  V30 9646 C 1692.68 4.80255 6.01876 0
M  V30 9647 C 1693.41 3.64202 6.65911 0
M  V30 9648 O 1693.62 2.60694 5.64732 0
M  V30 9649 C 1694.81 3.93473 7.1943 0
M  V30 9650 O 1695.2 3.02071 8.21205 0
M  V30 9651 C 1695.69 3.73047 5.97036 0
M  V30 9652 C 1694.98 2.58828 5.25741 0
M  V30 9653 N 1695.03 2.68068 3.77503 0
M  V30 9654 H 1692.19 5.40332 6.79951 0
M  V30 9655 H 1691.92 4.41613 5.32378 0
M  V30 9656 H 1692.79 3.26331 7.47797 0
M  V30 9657 P 1696.75 2.75334 8.47391 0
M  V30 9658 O 1696.97 2.44571 9.90142 0
M  V30 9659 O 1697.54 3.87688 7.92115 0
M  V30 9660 O 1697 1.4459 7.59357 0
M  V30 9661 C 1696.06 0.347608 7.69215 0
M  V30 9662 C 1696.79 -0.96767 7.52806 0
M  V30 9663 O 1697 -1.21036 6.1011 0
M  V30 9664 C 1698.19 -1.04544 8.13308 0
M  V30 9665 O 1698.58 -2.38311 8.41922 0
M  V30 9666 C 1699.07 -0.491279 7.02284 0
M  V30 9667 C 1698.36 -0.996264 5.77469 0
M  V30 9668 N 1698.41 -0.0501916 4.62973 0
M  V30 9669 H 1695.57 0.374722 8.67691 0
M  V30 9670 H 1695.3 0.443485 6.90277 0
M  V30 9671 H 1696.17 -1.75537 7.96793 0
M  V30 9672 P 1700.13 -2.75334 8.47391 0
M  V30 9673 O 1700.35 -3.84128 9.44797 0
M  V30 9674 O 1700.92 -1.51947 8.68712 0
M  V30 9675 O 1700.38 -3.29363 6.99321 0
M  V30 9676 C 1699.44 -4.24011 6.4274 0
M  V30 9677 C 1700.17 -5.20775 5.52155 0
M  V30 9678 O 1700.38 -4.56534 4.22446 0
M  V30 9679 C 1701.57 -5.62629 5.96531 0
M  V30 9680 O 1701.96 -6.87667 5.41053 0
M  V30 9681 C 1702.45 -4.52537 5.39283 0
M  V30 9682 C 1701.74 -4.20027 4.08623 0
M  V30 9683 N 1701.79 -2.76189 3.71603 0
M  V30 9684 H 1698.95 -4.797 7.24003 0
M  V30 9685 H 1698.68 -3.69856 5.84513 0
M  V30 9686 H 1699.55 -6.10356 5.41441 0
M  V30 9687 P 1703.51 -7.20834 5.23717 0
M  V30 9688 O 1703.73 -8.66274 5.38678 0
M  V30 9689 O 1704.3 -6.33687 6.13629 0
M  V30 9690 O 1703.76 -6.7751 3.72168 0
M  V30 9691 C 1702.82 -7.20919 2.70795 0
M  V30 9692 C 1703.55 -7.45864 1.40599 0
M  V30 9693 O 1703.76 -6.17751 0.734343 0
M  V30 9694 C 1704.95 -8.05906 1.51917 0
M  V30 9695 O 1705.34 -8.74358 0.335205 0
M  V30 9696 C 1705.83 -6.83093 1.70294 0
M  V30 9697 C 1705.12 -5.79992 0.836974 0
M  V30 9698 N 1705.17 -4.41864 1.38293 0
M  V30 9699 H 1702.33 -8.13738 3.03804 0
M  V30 9700 H 1702.06 -6.42974 2.55559 0
M  V30 9701 H 1702.93 -8.12139 0.792866 0
M  V30 9702 H 1705.58 -5.80178 -0.160643 0
M  V30 9703 H 1705.86 -6.51379 2.75643 0
M  V30 9704 H 1706.85 -7.01832 1.3448 0
M  V30 9705 H 1705.02 -8.73771 2.38364 0
M  V30 9706 P 1706.89 -8.91 1.07145e-11 0
M  V30 9707 O 1707.11 -10.1726 -0.733694 0
M  V30 9708 O 1707.68 -8.73148 1.23936 0
M  V30 9709 O 1707.14 -7.66872 -0.971405 0
M  V30 9710 C 1706.2 -7.42309 -2.04641 0
M  V30 9711 C 1706.93 -6.86059 -3.24661 0
M  V30 9712 O 1707.14 -5.42847 -3.03646 0
M  V30 9713 C 1708.33 -7.41196 -3.50753 0
M  V30 9714 O 1708.72 -7.27073 -4.86816 0
M  V30 9715 C 1709.21 -6.5273 -2.63741 0
M  V30 9716 C 1708.5 -5.1842 -2.73198 0
M  V30 9717 N 1708.55 -4.38762 -1.4784 0
M  V30 9718 H 1705.71 -8.36803 -2.32493 0
M  V30 9719 H 1705.44 -6.70197 -1.71129 0
M  V30 9720 H 1706.31 -7.03551 -4.13168 0
M  V30 9721 P 1710.27 -7.20834 -5.23717 0
M  V30 9722 O 1710.49 -7.79853 -6.57286 0
M  V30 9723 O 1711.06 -7.79239 -4.12957 0
M  V30 9724 O 1710.52 -5.63315 -5.29344 0
M  V30 9725 C 1709.58 -4.80255 -6.01876 0
M  V30 9726 C 1710.31 -3.64202 -6.65911 0
M  V30 9727 O 1710.52 -2.60694 -5.64732 0
M  V30 9728 C 1711.71 -3.93473 -7.1943 0
M  V30 9729 O 1712.1 -3.02071 -8.21205 0
M  V30 9730 C 1712.59 -3.73047 -5.97036 0
M  V30 9731 C 1711.88 -2.58828 -5.25741 0
M  V30 9732 N 1711.93 -2.68068 -3.77503 0
M  V30 9733 C 1711.85 -3.79715 -2.96723 0
M  V30 9734 N 1711.93 -3.5377 -1.68852 0
M  V30 9735 C 1712.07 -2.15054 -1.63254 0
M  V30 9736 C 1712.2 -1.28964 -0.518571 0
M  V30 9737 N 1712.32 0.0538097 -0.918425 0
M  V30 9738 C 1712.32 0.494275 -2.22578 0
M  V30 9739 N 1712.45 1.81086 -2.40434 0
M  V30 9740 N 1712.19 -0.313645 -3.27502 0
M  V30 9741 C 1712.07 -1.61829 -2.91033 0
M  V30 9742 H 1709.09 -5.40332 -6.79951 0
M  V30 9743 H 1708.82 -4.41613 -5.32378 0
M  V30 9744 H 1709.69 -3.26331 -7.47797 0
M  V30 9745 P 1713.65 -2.75334 -8.47391 0
M  V30 9746 O 1713.87 -2.44571 -9.90142 0
M  V30 9747 O 1714.44 -3.87688 -7.92115 0
M  V30 9748 O 1713.9 -1.4459 -7.59357 0
M  V30 9749 C 1712.96 -0.347608 -7.69215 0
M  V30 9750 C 1713.69 0.96767 -7.52806 0
M  V30 9751 O 1713.9 1.21036 -6.1011 0
M  V30 9752 C 1715.09 1.04544 -8.13308 0
M  V30 9753 O 1715.48 2.38311 -8.41922 0
M  V30 9754 C 1715.97 0.491279 -7.02284 0
M  V30 9755 C 1715.26 0.996264 -5.77469 0
M  V30 9756 N 1715.31 0.0501916 -4.62973 0
M  V30 9757 H 1712.47 -0.374722 -8.67691 0
M  V30 9758 H 1712.2 -0.443485 -6.90277 0
M  V30 9759 H 1713.07 1.75537 -7.96793 0
M  V30 9760 P 1717.03 2.75334 -8.47391 0
M  V30 9761 O 1717.25 3.84204 -9.44982 0
M  V30 9762 O 1717.82 1.51982 -8.68909 0
M  V30 9763 O 1717.28 3.29363 -6.99321 0
M  V30 9764 C 1716.34 4.24066 -6.42823 0
M  V30 9765 C 1717.07 5.20775 -5.52155 0
M  V30 9766 O 1717.28 4.56607 -4.22514 0
M  V30 9767 C 1718.47 5.62697 -5.96604 0
M  V30 9768 O 1718.86 6.87667 -5.41053 0
M  V30 9769 C 1719.35 4.52537 -5.39283 0
M  V30 9770 C 1718.64 4.20027 -4.08623 0
M  V30 9771 N 1718.69 2.76189 -3.71603 0
M  V30 9772 C 1718.61 1.66944 -4.54297 0
M  V30 9773 N 1718.68 0.536169 -3.91344 0
M  V30 9774 C 1718.83 0.901569 -2.58849 0
M  V30 9775 C 1718.96 0.146599 -1.40236 0
M  V30 9776 N 1718.97 -1.18234 -1.37046 0
M  V30 9777 N 1719.08 0.822941 -0.249738 0
M  V30 9778 C 1719.07 2.15179 -0.280525 0
M  V30 9779 N 1718.95 2.96414 -1.30822 0
M  V30 9780 C 1718.83 2.25804 -2.44748 0
M  V30 9781 H 1715.85 4.79756 -7.24086 0
M  V30 9782 H 1715.58 3.69963 -5.84682 0
M  V30 9783 H 1716.45 6.10431 -5.41508 0
M  V30 9784 H 1719.1 4.78816 -3.28024 0
M  V30 9785 H 1719.38 3.64957 -6.05871 0
M  V30 9786 H 1720.37 4.88748 -5.21323 0
M  V30 9787 H 1718.54 5.66789 -7.0643 0
M  V30 9788 H 1718.5 1.74684 -5.62396 0
M  V30 9789 H 1718.88 -1.71949 -2.24394 0
M  V30 9790 H 1719.07 -1.67511 -0.470742 0
M  V30 9791 H 1719.18 2.63704 0.6828 0
M  V30 9792 H 1718.73 6.85814 -4.46035 0
M  V30 9793 H 1722.75 -5.51656 7.74769 0
M  V30 9794 O 1722.63 -4.58361 7.63359 0
M  V30 9795 P 1721.19 -4.23843 7.83734 0
M  V30 9796 O 1720.97 -4.19407 9.29784 0
M  V30 9797 O 1720.4 -5.24426 7.09156 0
M  V30 9798 O 1720.94 -2.7935 7.20758 0
M  V30 9799 C 1721.88 -1.72945 7.50224 0
M  V30 9800 C 1721.15 -0.406376 7.57911 0
M  V30 9801 O 1720.94 0.0897726 6.21935 0
M  V30 9802 C 1719.75 -0.438983 8.18724 0
M  V30 9803 O 1719.36 0.825065 8.71101 0
M  V30 9804 C 1718.87 -0.783689 6.99524 0
M  V30 9805 C 1719.58 -0.0619086 5.85867 0
M  V30 9806 N 1719.53 -0.78573 4.56183 0
M  V30 9807 C 1719.38 -0.0292889 3.41887 0
M  V30 9808 O 1719.29 1.18445 3.4419 0
M  V30 9809 N 1719.34 -0.744061 2.23964 0
M  V30 9810 C 1719.43 -2.10932 2.10362 0
M  V30 9811 O 1719.38 -2.64117 0.98825 0
M  V30 9812 C 1719.58 -2.8202 3.34994 0
M  V30 9813 C 1719.69 -4.31095 3.25037 0
M  V30 9814 C 1719.63 -2.15547 4.52261 0
M  V30 9815 H 1722.37 -1.93379 8.46595 0
M  V30 9816 H 1722.64 -1.68132 6.70852 0
M  V30 9817 H 1721.77 0.289041 8.15388 0
M  V30 9818 H 1719.12 0.926847 5.72749 0
M  V30 9819 H 1718.84 -1.86973 6.82036 0
M  V30 9820 H 1717.85 -0.403896 7.13257 0
M  V30 9821 H 1719.68 -1.20585 8.97435 0
M  V30 9822 H 1719.75 -2.71231 5.45042 0
M  V30 9823 H 1718.72 -4.76966 3.49992 0
M  V30 9824 H 1720.46 -4.67047 3.95024 0
M  V30 9825 H 1719.97 -4.58996 2.22312 0
M  V30 9826 H 1719.23 -0.214893 1.39758 0
M  V30 9827 P 1717.81 1.17771 8.83182 0
M  V30 9828 O 1717.59 2.07206 9.98732 0
M  V30 9829 O 1717.02 -0.0743816 8.81969 0
M  V30 9830 O 1717.56 1.97652 7.47304 0
M  V30 9831 C 1718.5 3.01133 7.08783 0
M  V30 9832 C 1717.77 4.12613 6.37049 0
M  V30 9833 O 1717.56 3.72827 4.97879 0
M  V30 9834 C 1716.37 4.45085 6.88694 0
M  V30 9835 O 1715.98 5.7877 6.5624 0
M  V30 9836 C 1715.49 3.47817 6.12078 0
M  V30 9837 C 1716.2 3.39414 4.77697 0
M  V30 9838 N 1716.15 2.04615 4.15333 0
M  V30 9839 H 1718.99 3.41248 7.98759 0
M  V30 9840 H 1719.26 2.5837 6.41742 0
M  V30 9841 H 1718.39 5.02657 6.42673 0
M  V30 9842 P 1714.43 6.144 6.45285 0
M  V30 9843 O 1714.21 7.54673 6.86199 0
M  V30 9844 O 1713.64 5.12391 7.179 0
M  V30 9845 O 1714.18 5.99158 4.88404 0
M  V30 9846 C 1715.12 6.60062 3.96313 0
M  V30 9847 C 1714.39 7.08259 2.72856 0
M  V30 9848 O 1714.18 5.9427 1.83651 0
M  V30 9849 C 1712.99 7.65087 2.94749 0
M  V30 9850 O 1712.6 8.53963 1.90717 0
M  V30 9851 C 1712.11 6.41069 2.90698 0
M  V30 9852 C 1712.82 5.5528 1.86931 0
M  V30 9853 N 1712.77 4.09575 2.15696 0
M  V30 9854 C 1712.62 3.24249 1.08435 0
M  V30 9855 O 1712.53 3.63946 -0.0628747 0
M  V30 9856 N 1712.58 1.90009 1.39973 0
M  V30 9857 C 1712.67 1.34884 2.65614 0
M  V30 9858 C 1712.82 2.3145 3.71736 0
M  V30 9859 C 1712.87 3.63518 3.44754 0
M  V30 9860 H 1715.61 7.45402 4.45526 0
M  V30 9861 H 1715.88 5.86062 3.67208 0
M  V30 9862 H 1715.01 7.84412 2.24479 0
M  V30 9863 H 1712.36 5.73358 0.888409 0
M  V30 9864 H 1712.08 5.90877 3.88583 0
M  V30 9865 H 1711.09 6.65867 2.58821 0
M  V30 9866 H 1712.92 8.16248 3.92006 0
M  V30 9867 H 1712.99 4.34551 4.26383 0
M  V30 9868 P 1711.05 8.7635 1.60911 0
M  V30 9869 O 1710.83 10.1388 1.11561 0
M  V30 9870 O 1710.26 8.36503 2.79617 0
M  V30 9871 O 1710.8 7.71806 0.42951 0
M  V30 9872 C 1711.74 7.67148 -0.673689 0
M  V30 9873 C 1711.01 7.33374 -1.95559 0
M  V30 9874 O 1710.8 5.88721 -2.00726 0
M  V30 9875 C 1709.61 7.92526 -2.10483 0
M  V30 9876 O 1709.22 8.02971 -3.47653 0
M  V30 9877 C 1708.73 6.89602 -1.41652 0
M  V30 9878 C 1709.44 5.59201 -1.75185 0
M  V30 9879 N 1709.39 4.58235 -0.662552 0
M  V30 9880 H 1712.23 8.65116 -0.777161 0
M  V30 9881 H 1712.5 6.90173 -0.474152 0
M  V30 9882 H 1711.63 7.66548 -2.79458 0
M  V30 9883 P 1707.67 8.03563 -3.84925 0
M  V30 9884 O 1707.45 8.85821 -5.0569 0
M  V30 9885 O 1706.88 8.41101 -2.65469 0
M  V30 9886 O 1707.42 6.4965 -4.18908 0
M  V30 9887 C 1708.36 5.81037 -5.05421 0
M  V30 9888 C 1707.63 4.78366 -5.89277 0
M  V30 9889 O 1707.42 3.58302 -5.08433 0
M  V30 9890 C 1706.23 5.17448 -6.36119 0
M  V30 9891 O 1705.84 4.45271 -7.53232 0
M  V30 9892 C 1705.35 4.74639 -5.19936 0
M  V30 9893 C 1706.06 3.49432 -4.70418 0
M  V30 9894 N 1706.01 3.31776 -3.22945 0
M  V30 9895 H 1708.85 6.54213 -5.71376 0
M  V30 9896 H 1709.12 5.30492 -4.44033 0
M  V30 9897 H 1708.25 4.55889 -6.76652 0
M  V30 9898 P 1704.29 4.23843 -7.83734 0
M  V30 9899 O 1704.07 4.19407 -9.29784 0
M  V30 9900 O 1703.5 5.24426 -7.09156 0
M  V30 9901 O 1704.04 2.7935 -7.20758 0
M  V30 9902 C 1704.98 1.7299 -7.50419 0
M  V30 9903 C 1704.25 0.406376 -7.57911 0
M  V30 9904 O 1704.04 -0.0897726 -6.21935 0
M  V30 9905 C 1702.85 0.447224 -8.1878 0
M  V30 9906 O 1702.46 -0.825065 -8.71101 0
M  V30 9907 C 1701.97 0.783801 -6.99623 0
M  V30 9908 C 1702.68 0.0619192 -5.85967 0
M  V30 9909 N 1702.63 0.7859 -4.56281 0
M  V30 9910 H 1705.47 1.93423 -8.4679 0
M  V30 9911 H 1705.74 1.68181 -6.71046 0
M  V30 9912 H 1704.87 -0.289041 -8.15388 0
M  V30 9913 P 1700.91 -1.17771 -8.83182 0
M  V30 9914 O 1700.69 -2.07206 -9.98732 0
M  V30 9915 O 1700.12 0.0743816 -8.81969 0
M  V30 9916 O 1700.66 -1.97652 -7.47304 0
M  V30 9917 C 1701.6 -3.01133 -7.08783 0
M  V30 9918 C 1700.87 -4.12613 -6.37049 0
M  V30 9919 O 1700.66 -3.72827 -4.97879 0
M  V30 9920 C 1699.47 -4.45085 -6.88694 0
M  V30 9921 O 1699.08 -5.7877 -6.5624 0
M  V30 9922 C 1698.59 -3.47817 -6.12078 0
M  V30 9923 C 1699.3 -3.39414 -4.77697 0
M  V30 9924 N 1699.25 -2.04615 -4.15333 0
M  V30 9925 H 1702.09 -3.41248 -7.98759 0
M  V30 9926 H 1702.36 -2.5837 -6.41742 0
M  V30 9927 H 1701.49 -5.02657 -6.42673 0
M  V30 9928 P 1697.53 -6.144 -6.45285 0
M  V30 9929 O 1697.31 -7.54673 -6.86199 0
M  V30 9930 O 1696.74 -5.12391 -7.179 0
M  V30 9931 O 1697.28 -5.99158 -4.88404 0
M  V30 9932 C 1698.22 -6.60234 -3.96415 0
M  V30 9933 C 1697.49 -7.08259 -2.72856 0
M  V30 9934 O 1697.28 -5.9427 -1.83651 0
M  V30 9935 C 1696.09 -7.64886 -2.9555 0
M  V30 9936 O 1695.7 -8.53963 -1.90717 0
M  V30 9937 C 1695.21 -6.4116 -2.90739 0
M  V30 9938 C 1695.92 -5.55375 -1.86963 0
M  V30 9939 N 1695.87 -4.09664 -2.15742 0
M  V30 9940 H 1698.71 -7.45574 -4.45629 0
M  V30 9941 H 1698.98 -5.86232 -3.67314 0
M  V30 9942 H 1698.11 -7.84412 -2.24479 0
M  V30 9943 P 1694.15 -8.7635 -1.60911 0
M  V30 9944 O 1693.93 -10.1388 -1.11561 0
M  V30 9945 O 1693.36 -8.36503 -2.79617 0
M  V30 9946 O 1693.9 -7.71806 -0.42951 0
M  V30 9947 C 1694.84 -7.67148 0.673689 0
M  V30 9948 C 1694.11 -7.33374 1.95559 0
M  V30 9949 O 1693.9 -5.88721 2.00726 0
M  V30 9950 C 1692.71 -7.92526 2.10483 0
M  V30 9951 O 1692.32 -8.02971 3.47653 0
M  V30 9952 C 1691.83 -6.89602 1.41652 0
M  V30 9953 C 1692.54 -5.59201 1.75185 0
M  V30 9954 N 1692.49 -4.58235 0.662552 0
M  V30 9955 C 1692.57 -4.7683 -0.704049 0
M  V30 9956 N 1692.49 -3.66233 -1.39775 0
M  V30 9957 C 1692.35 -2.66526 -0.431739 0
M  V30 9958 C 1692.22 -1.26394 -0.575992 0
M  V30 9959 N 1692.1 -0.62859 0.67177 0
M  V30 9960 C 1692.1 -1.27134 1.89385 0
M  V30 9961 N 1691.97 -0.492035 2.96951 0
M  V30 9962 N 1692.23 -2.58978 2.02907 0
M  V30 9963 C 1692.35 -3.22433 0.832218 0
M  V30 9964 H 1695.33 -8.65116 0.777161 0
M  V30 9965 H 1695.6 -6.90173 0.474152 0
M  V30 9966 H 1694.73 -7.66548 2.79458 0
M  V30 9967 P 1690.77 -8.03563 3.84925 0
M  V30 9968 O 1690.55 -8.85821 5.0569 0
M  V30 9969 O 1689.98 -8.41101 2.65469 0
M  V30 9970 O 1690.52 -6.4965 4.18908 0
M  V30 9971 C 1691.46 -5.81037 5.05421 0
M  V30 9972 C 1690.73 -4.78366 5.89277 0
M  V30 9973 O 1690.52 -3.58302 5.08433 0
M  V30 9974 C 1689.33 -5.17448 6.36119 0
M  V30 9975 O 1688.94 -4.45271 7.53232 0
M  V30 9976 C 1688.45 -4.74639 5.19936 0
M  V30 9977 C 1689.16 -3.49432 4.70418 0
M  V30 9978 N 1689.11 -3.32099 3.22613 0
M  V30 9979 H 1691.95 -6.54213 5.71376 0
M  V30 9980 H 1692.22 -5.30936 4.43503 0
M  V30 9981 H 1691.35 -4.55889 6.76652 0
M  V30 9982 H 1688.7 -2.61715 5.17932 0
M  V30 9983 H 1688.42 -5.52155 4.41878 0
M  V30 9984 H 1687.43 -4.51981 5.53374 0
M  V30 9985 H 1689.26 -6.25124 6.55234 0
M  V30 9986 P 1687.39 -4.23843 7.83734 0
M  V30 9987 O 1687.17 -4.19407 9.29784 0
M  V30 9988 O 1686.6 -5.24426 7.09156 0
M  V30 9989 O 1687.14 -2.7935 7.20758 0
M  V30 9990 C 1688.08 -1.7299 7.50419 0
M  V30 9991 C 1687.35 -0.406376 7.57911 0
M  V30 9992 O 1687.14 0.0897726 6.21935 0
M  V30 9993 C 1685.95 -0.447224 8.1878 0
M  V30 9994 O 1685.56 0.825065 8.71101 0
M  V30 9995 C 1685.07 -0.783801 6.99623 0
M  V30 9996 C 1685.78 -0.0619192 5.85967 0
M  V30 9997 N 1685.73 -0.7859 4.56281 0
M  V30 9998 H 1688.57 -1.93423 8.4679 0
M  V30 9999 H 1688.84 -1.68181 6.71046 0
M  V30 10000 H 1687.97 0.289041 8.15388 0
M  V30 10001 P 1684.01 1.17771 8.83182 0
M  V30 10002 O 1683.79 2.07206 9.98732 0
M  V30 10003 O 1683.22 -0.0743816 8.81969 0
M  V30 10004 O 1683.76 1.97678 7.474 0
M  V30 10005 C 1684.7 3.01133 7.08783 0
M  V30 10006 C 1683.97 4.1203 6.37546 0
M  V30 10007 O 1683.76 3.72887 4.9796 0
M  V30 10008 C 1682.57 4.45085 6.88694 0
M  V30 10009 O 1682.18 5.78836 6.56315 0
M  V30 10010 C 1681.69 3.47817 6.12078 0
M  V30 10011 C 1682.4 3.39414 4.77697 0
M  V30 10012 N 1682.35 2.04615 4.15333 0
M  V30 10013 C 1682.2 1.96929 2.77162 0
M  V30 10014 O 1682.11 3.02017 2.12006 0
M  V30 10015 N 1682.15 0.55485 2.24237 0
M  V30 10016 C 1682.25 -0.367808 2.9169 0
M  V30 10017 N 1682.2 -1.53426 2.29427 0
M  V30 10018 C 1682.4 -0.319148 4.33828 0
M  V30 10019 C 1682.45 0.920672 4.90433 0
M  V30 10020 H 1685.19 3.41209 7.98667 0
M  V30 10021 H 1685.46 2.5837 6.41742 0
M  V30 10022 H 1684.59 5.02718 6.42752 0
M  V30 10023 H 1681.94 4.11779 4.09026 0
M  V30 10024 H 1681.66 2.49661 6.61772 0
M  V30 10025 H 1680.67 3.86674 6.00946 0
M  V30 10026 H 1682.5 4.29991 7.97006 0
M  V30 10027 H 1682.57 1.00589 5.98303 0
M  V30 10028 H 1682.47 -1.22639 4.93799 0
M  V30 10029 H 1682.08 -1.56819 1.27167 0
M  V30 10030 H 1682.28 -2.41062 2.83063 0
M  V30 10031 P 1680.63 6.144 6.45285 0
M  V30 10032 O 1680.41 7.54673 6.86199 0
M  V30 10033 O 1679.84 5.12391 7.179 0
M  V30 10034 O 1680.38 5.99158 4.88404 0
M  V30 10035 C 1681.32 6.60234 3.96415 0
M  V30 10036 C 1680.59 7.08259 2.72856 0
M  V30 10037 O 1680.38 5.9427 1.83651 0
M  V30 10038 C 1679.19 7.64886 2.9555 0
M  V30 10039 O 1678.8 8.53963 1.90717 0
M  V30 10040 C 1678.31 6.4116 2.90739 0
M  V30 10041 C 1679.02 5.55375 1.86963 0
M  V30 10042 N 1678.97 4.09664 2.15742 0
M  V30 10043 H 1681.81 7.45574 4.45629 0
M  V30 10044 H 1682.08 5.86232 3.67314 0
M  V30 10045 H 1681.21 7.84412 2.24479 0
M  V30 10046 P 1677.25 8.7635 1.60911 0
M  V30 10047 O 1677.03 10.1388 1.11561 0
M  V30 10048 O 1676.46 8.36503 2.79617 0
M  V30 10049 O 1677 7.71806 0.42951 0
M  V30 10050 C 1677.94 7.67148 -0.673689 0
M  V30 10051 C 1677.21 7.33374 -1.95559 0
M  V30 10052 O 1677 5.88721 -2.00726 0
M  V30 10053 C 1675.81 7.92526 -2.10483 0
M  V30 10054 O 1675.42 8.02971 -3.47653 0
M  V30 10055 C 1674.93 6.89602 -1.41652 0
M  V30 10056 C 1675.64 5.59201 -1.75185 0
M  V30 10057 N 1675.59 4.58235 -0.662552 0
M  V30 10058 H 1678.43 8.65116 -0.777161 0
M  V30 10059 H 1678.7 6.90173 -0.474152 0
M  V30 10060 H 1677.83 7.66548 -2.79458 0
M  V30 10061 P 1673.87 8.03563 -3.84925 0
M  V30 10062 O 1673.65 8.85821 -5.0569 0
M  V30 10063 O 1673.08 8.41101 -2.65469 0
M  V30 10064 O 1673.62 6.4965 -4.18908 0
M  V30 10065 C 1674.56 5.80886 -5.05289 0
M  V30 10066 C 1673.83 4.78366 -5.89277 0
M  V30 10067 O 1673.62 3.58302 -5.08433 0
M  V30 10068 C 1672.43 5.16748 -6.36559 0
M  V30 10069 O 1672.04 4.45271 -7.53232 0
M  V30 10070 C 1671.55 4.74572 -5.19863 0
M  V30 10071 C 1672.26 3.49373 -4.70338 0
M  V30 10072 N 1672.21 3.31704 -3.22876 0
M  V30 10073 C 1672.06 2.03326 -2.74871 0
M  V30 10074 O 1671.97 1.06486 -3.48076 0
M  V30 10075 N 1672.02 1.91838 -1.37456 0
M  V30 10076 C 1672.11 2.94295 -0.462035 0
M  V30 10077 O 1672.06 2.71763 0.752928 0
M  V30 10078 C 1672.26 4.25064 -1.05249 0
M  V30 10079 C 1672.37 5.39815 -0.095697 0
M  V30 10080 C 1672.31 4.40214 -2.39192 0
M  V30 10081 H 1675.05 6.54063 -5.71245 0
M  V30 10082 H 1675.32 5.30339 -4.43905 0
M  V30 10083 H 1674.45 4.55889 -6.76652 0
M  V30 10084 H 1671.8 2.6167 -5.17842 0
M  V30 10085 H 1671.52 5.52155 -4.41878 0
M  V30 10086 H 1670.53 4.51918 -5.53297 0
M  V30 10087 H 1672.36 6.25055 -6.55162 0
M  V30 10088 H 1672.43 5.39798 -2.81523 0
M  V30 10089 H 1671.4 5.91593 -0.0279582 0
M  V30 10090 H 1673.14 6.10038 -0.450573 0
M  V30 10091 H 1672.65 5.02007 0.89937 0
M  V30 10092 H 1671.92 0.995326 -1.00435 0
M  V30 10093 P 1670.49 4.23843 -7.83734 0
M  V30 10094 O 1670.27 4.19407 -9.29784 0
M  V30 10095 O 1669.7 5.24426 -7.09156 0
M  V30 10096 O 1670.24 2.7935 -7.20758 0
M  V30 10097 C 1671.18 1.7299 -7.50419 0
M  V30 10098 C 1670.45 0.406376 -7.57911 0
M  V30 10099 O 1670.24 -0.0897726 -6.21935 0
M  V30 10100 C 1669.05 0.447224 -8.1878 0
M  V30 10101 O 1668.66 -0.825065 -8.71101 0
M  V30 10102 C 1668.17 0.783801 -6.99623 0
M  V30 10103 C 1668.88 0.0619192 -5.85967 0
M  V30 10104 N 1668.83 0.7859 -4.56281 0
M  V30 10105 H 1671.67 1.93423 -8.4679 0
M  V30 10106 H 1671.94 1.68181 -6.71046 0
M  V30 10107 H 1671.07 -0.289041 -8.15388 0
M  V30 10108 P 1667.11 -1.17771 -8.83182 0
M  V30 10109 O 1666.89 -2.07206 -9.98732 0
M  V30 10110 O 1666.32 0.0743816 -8.81969 0
M  V30 10111 O 1666.86 -1.97652 -7.47304 0
M  V30 10112 C 1667.8 -3.01133 -7.08783 0
M  V30 10113 C 1667.07 -4.12613 -6.37049 0
M  V30 10114 O 1666.86 -3.72827 -4.97879 0
M  V30 10115 C 1665.67 -4.45085 -6.88694 0
M  V30 10116 O 1665.28 -5.7877 -6.5624 0
M  V30 10117 C 1664.79 -3.47817 -6.12078 0
M  V30 10118 C 1665.5 -3.39414 -4.77697 0
M  V30 10119 N 1665.45 -2.04615 -4.15333 0
M  V30 10120 H 1668.29 -3.41248 -7.98759 0
M  V30 10121 H 1668.56 -2.5837 -6.41742 0
M  V30 10122 H 1667.69 -5.02657 -6.42673 0
M  V30 10123 P 1663.73 -6.144 -6.45285 0
M  V30 10124 O 1663.51 -7.54673 -6.86199 0
M  V30 10125 O 1662.94 -5.12391 -7.179 0
M  V30 10126 O 1663.48 -5.99158 -4.88404 0
M  V30 10127 C 1664.42 -6.60234 -3.96415 0
M  V30 10128 C 1663.69 -7.08259 -2.72856 0
M  V30 10129 O 1663.48 -5.9427 -1.83651 0
M  V30 10130 C 1662.29 -7.64886 -2.9555 0
M  V30 10131 O 1661.9 -8.53963 -1.90717 0
M  V30 10132 C 1661.41 -6.4116 -2.90739 0
M  V30 10133 C 1662.12 -5.55375 -1.86963 0
M  V30 10134 N 1662.07 -4.09664 -2.15742 0
M  V30 10135 H 1664.91 -7.45574 -4.45629 0
M  V30 10136 H 1665.18 -5.86232 -3.67314 0
M  V30 10137 H 1664.31 -7.84412 -2.24479 0
M  V30 10138 P 1660.35 -8.7635 -1.60911 0
M  V30 10139 O 1660.13 -10.1388 -1.11561 0
M  V30 10140 O 1659.56 -8.36503 -2.79617 0
M  V30 10141 O 1660.1 -7.71806 -0.42951 0
M  V30 10142 C 1661.04 -7.67148 0.673689 0
M  V30 10143 C 1660.31 -7.33374 1.95559 0
M  V30 10144 O 1660.1 -5.88721 2.00726 0
M  V30 10145 C 1658.91 -7.92526 2.10483 0
M  V30 10146 O 1658.52 -8.02971 3.47653 0
M  V30 10147 C 1658.03 -6.89602 1.41652 0
M  V30 10148 C 1658.74 -5.59201 1.75185 0
M  V30 10149 N 1658.69 -4.58235 0.662552 0
M  V30 10150 H 1661.53 -8.65116 0.777161 0
M  V30 10151 H 1661.8 -6.90173 0.474152 0
M  V30 10152 H 1660.93 -7.66548 2.79458 0
M  V30 10153 P 1656.97 -8.03563 3.84925 0
M  V30 10154 O 1656.75 -8.85821 5.0569 0
M  V30 10155 O 1656.18 -8.41101 2.65469 0
M  V30 10156 O 1656.72 -6.4965 4.18908 0
M  V30 10157 C 1657.66 -5.81037 5.05421 0
M  V30 10158 C 1656.93 -4.78366 5.89277 0
M  V30 10159 O 1656.72 -3.58302 5.08433 0
M  V30 10160 C 1655.53 -5.17448 6.36119 0
M  V30 10161 O 1655.14 -4.45271 7.53232 0
M  V30 10162 C 1654.65 -4.74639 5.19936 0
M  V30 10163 C 1655.36 -3.49432 4.70418 0
M  V30 10164 N 1655.31 -3.31776 3.22945 0
M  V30 10165 H 1658.15 -6.54213 5.71376 0
M  V30 10166 H 1658.42 -5.30492 4.44033 0
M  V30 10167 H 1657.55 -4.55889 6.76652 0
M  V30 10168 P 1653.59 -4.23843 7.83734 0
M  V30 10169 O 1653.37 -4.19407 9.29784 0
M  V30 10170 O 1652.8 -5.24426 7.09156 0
M  V30 10171 O 1653.34 -2.7935 7.20758 0
M  V30 10172 C 1654.28 -1.7299 7.50419 0
M  V30 10173 C 1653.55 -0.406376 7.57911 0
M  V30 10174 O 1653.34 0.0897726 6.21935 0
M  V30 10175 C 1652.15 -0.447224 8.1878 0
M  V30 10176 O 1651.76 0.825065 8.71101 0
M  V30 10177 C 1651.27 -0.783801 6.99623 0
M  V30 10178 C 1651.98 -0.0619192 5.85967 0
M  V30 10179 N 1651.93 -0.790462 4.56202 0
M  V30 10180 H 1654.77 -1.93423 8.4679 0
M  V30 10181 H 1655.04 -1.68852 6.70877 0
M  V30 10182 H 1654.17 0.289041 8.15388 0
M  V30 10183 H 1651.52 0.927006 5.72848 0
M  V30 10184 H 1651.24 -1.86973 6.82036 0
M  V30 10185 H 1650.25 -0.403953 7.13357 0
M  V30 10186 H 1652.08 -1.20599 8.97534 0
M  V30 10187 P 1650.21 1.17771 8.83182 0
M  V30 10188 O 1649.99 2.07206 9.98732 0
M  V30 10189 O 1649.42 -0.0743816 8.81969 0
M  V30 10190 O 1649.96 1.97652 7.47304 0
M  V30 10191 C 1650.9 3.01133 7.08783 0
M  V30 10192 C 1650.17 4.12613 6.37049 0
M  V30 10193 O 1649.96 3.72827 4.97879 0
M  V30 10194 C 1648.77 4.45085 6.88694 0
M  V30 10195 O 1648.38 5.7877 6.5624 0
M  V30 10196 C 1647.89 3.47817 6.12078 0
M  V30 10197 C 1648.6 3.39414 4.77697 0
M  V30 10198 N 1648.55 2.04615 4.15333 0
M  V30 10199 H 1651.39 3.41248 7.98759 0
M  V30 10200 H 1651.66 2.5837 6.41742 0
M  V30 10201 H 1650.79 5.02657 6.42673 0
M  V30 10202 P 1646.83 6.144 6.45285 0
M  V30 10203 O 1646.61 7.54673 6.86199 0
M  V30 10204 O 1646.04 5.12391 7.179 0
M  V30 10205 O 1646.58 5.99158 4.88404 0
M  V30 10206 C 1647.52 6.60062 3.96313 0
M  V30 10207 C 1646.79 7.08259 2.72856 0
M  V30 10208 O 1646.58 5.9427 1.83651 0
M  V30 10209 C 1645.39 7.65087 2.94749 0
M  V30 10210 O 1645 8.53963 1.90717 0
M  V30 10211 C 1644.51 6.41069 2.90698 0
M  V30 10212 C 1645.22 5.5528 1.86931 0
M  V30 10213 N 1645.17 4.09575 2.15696 0
M  V30 10214 C 1645.02 3.24249 1.08435 0
M  V30 10215 O 1644.93 3.63946 -0.0628747 0
M  V30 10216 N 1644.98 1.90009 1.39973 0
M  V30 10217 C 1645.07 1.34884 2.65614 0
M  V30 10218 O 1645.02 0.123716 2.81728 0
M  V30 10219 C 1645.22 2.3145 3.71736 0
M  V30 10220 C 1645.33 1.75913 5.10438 0
M  V30 10221 C 1645.27 3.63518 3.44754 0
M  V30 10222 H 1648.01 7.45402 4.45526 0
M  V30 10223 H 1648.28 5.86062 3.67208 0
M  V30 10224 H 1647.41 7.84412 2.24479 0
M  V30 10225 H 1644.76 5.73358 0.888409 0
M  V30 10226 H 1644.48 5.90877 3.88583 0
M  V30 10227 H 1643.49 6.65867 2.58821 0
M  V30 10228 H 1645.32 8.16248 3.92006 0
M  V30 10229 H 1645.39 4.34551 4.26383 0
M  V30 10230 H 1644.36 1.85471 5.61775 0
M  V30 10231 H 1646.1 2.31364 5.66257 0
M  V30 10232 H 1645.61 0.695936 5.05229 0
M  V30 10233 H 1644.88 1.26277 0.63625 0
M  V30 10234 P 1643.45 8.7635 1.60911 0
M  V30 10235 O 1643.23 10.1388 1.11561 0
M  V30 10236 O 1642.66 8.36503 2.79617 0
M  V30 10237 O 1643.2 7.71806 0.42951 0
M  V30 10238 C 1644.14 7.67148 -0.673689 0
M  V30 10239 C 1643.41 7.33374 -1.95559 0
M  V30 10240 O 1643.2 5.88721 -2.00726 0
M  V30 10241 C 1642.01 7.92526 -2.10483 0
M  V30 10242 O 1641.62 8.02971 -3.47653 0
M  V30 10243 C 1641.13 6.89602 -1.41652 0
M  V30 10244 C 1641.84 5.59201 -1.75185 0
M  V30 10245 N 1641.79 4.58301 -0.657969 0
M  V30 10246 H 1644.63 8.65116 -0.777161 0
M  V30 10247 H 1644.9 6.9022 -0.46725 0
M  V30 10248 H 1644.03 7.66548 -2.79458 0
M  V30 10249 H 1641.38 5.16165 -2.65183 0
M  V30 10250 H 1641.1 7.06433 -0.329384 0
M  V30 10251 H 1640.11 6.90926 -1.82021 0
M  V30 10252 H 1641.94 8.90873 -1.62657 0
M  V30 10253 P 1640.07 8.03563 -3.84925 0
M  V30 10254 O 1639.85 8.85821 -5.0569 0
M  V30 10255 O 1639.28 8.41101 -2.65469 0
M  V30 10256 O 1639.82 6.4965 -4.18908 0
M  V30 10257 C 1640.76 5.81037 -5.05421 0
M  V30 10258 C 1640.03 4.78366 -5.89277 0
M  V30 10259 O 1639.82 3.58302 -5.08433 0
M  V30 10260 C 1638.63 5.17448 -6.36119 0
M  V30 10261 O 1638.24 4.45271 -7.53232 0
M  V30 10262 C 1637.75 4.74639 -5.19936 0
M  V30 10263 C 1638.46 3.49432 -4.70418 0
M  V30 10264 N 1638.41 3.31776 -3.22945 0
M  V30 10265 H 1641.25 6.54213 -5.71376 0
M  V30 10266 H 1641.52 5.30492 -4.44033 0
M  V30 10267 H 1640.65 4.55889 -6.76652 0
M  V30 10268 P 1636.69 4.23843 -7.83734 0
M  V30 10269 O 1636.47 4.19407 -9.29784 0
M  V30 10270 O 1635.9 5.24426 -7.09156 0
M  V30 10271 O 1636.44 2.7935 -7.20758 0
M  V30 10272 C 1637.38 1.7299 -7.50419 0
M  V30 10273 C 1636.65 0.406376 -7.57911 0
M  V30 10274 O 1636.44 -0.0897726 -6.21935 0
M  V30 10275 C 1635.25 0.447224 -8.1878 0
M  V30 10276 O 1634.86 -0.825065 -8.71101 0
M  V30 10277 C 1634.37 0.783801 -6.99623 0
M  V30 10278 C 1635.08 0.0619192 -5.85967 0
M  V30 10279 N 1635.03 0.7859 -4.56281 0
M  V30 10280 H 1637.87 1.93423 -8.4679 0
M  V30 10281 H 1638.14 1.68181 -6.71046 0
M  V30 10282 H 1637.27 -0.289041 -8.15388 0
M  V30 10283 P 1633.31 -1.17771 -8.83182 0
M  V30 10284 O 1633.09 -2.07206 -9.98732 0
M  V30 10285 O 1632.52 0.0743816 -8.81969 0
M  V30 10286 O 1633.06 -1.97652 -7.47304 0
M  V30 10287 C 1634 -3.01133 -7.08783 0
M  V30 10288 C 1633.27 -4.12613 -6.37049 0
M  V30 10289 O 1633.06 -3.72827 -4.97879 0
M  V30 10290 C 1631.87 -4.45085 -6.88694 0
M  V30 10291 O 1631.48 -5.7877 -6.5624 0
M  V30 10292 C 1630.99 -3.47817 -6.12078 0
M  V30 10293 C 1631.7 -3.39414 -4.77697 0
M  V30 10294 N 1631.65 -2.04615 -4.15333 0
M  V30 10295 H 1634.49 -3.41248 -7.98759 0
M  V30 10296 H 1634.76 -2.5837 -6.41742 0
M  V30 10297 H 1633.89 -5.02657 -6.42673 0
M  V30 10298 P 1629.93 -6.144 -6.45285 0
M  V30 10299 O 1629.71 -7.54673 -6.86199 0
M  V30 10300 O 1629.14 -5.12391 -7.179 0
M  V30 10301 O 1629.68 -5.99158 -4.88404 0
M  V30 10302 C 1630.62 -6.60062 -3.96313 0
M  V30 10303 C 1629.89 -7.08259 -2.72856 0
M  V30 10304 O 1629.68 -5.9427 -1.83651 0
M  V30 10305 C 1628.49 -7.65087 -2.94749 0
M  V30 10306 O 1628.1 -8.53963 -1.90717 0
M  V30 10307 C 1627.61 -6.41069 -2.90698 0
M  V30 10308 C 1628.32 -5.5528 -1.86931 0
M  V30 10309 N 1628.27 -4.09575 -2.15696 0
M  V30 10310 C 1628.12 -3.24249 -1.08435 0
M  V30 10311 O 1628.03 -3.63946 0.0628747 0
M  V30 10312 N 1628.08 -1.90009 -1.39973 0
M  V30 10313 C 1628.17 -1.34884 -2.65614 0
M  V30 10314 C 1628.32 -2.3145 -3.71736 0
M  V30 10315 C 1628.37 -3.63518 -3.44754 0
M  V30 10316 H 1631.11 -7.45402 -4.45526 0
M  V30 10317 H 1631.38 -5.86062 -3.67208 0
M  V30 10318 H 1630.51 -7.84412 -2.24479 0
M  V30 10319 H 1627.86 -5.73358 -0.888409 0
M  V30 10320 H 1627.58 -5.90877 -3.88583 0
M  V30 10321 H 1626.59 -6.65867 -2.58821 0
M  V30 10322 H 1628.42 -8.16248 -3.92006 0
M  V30 10323 H 1628.49 -4.34551 -4.26383 0
M  V30 10324 P 1626.55 -8.7635 -1.60911 0
M  V30 10325 O 1626.33 -10.1388 -1.11561 0
M  V30 10326 O 1625.76 -8.36503 -2.79617 0
M  V30 10327 O 1626.3 -7.71806 -0.42951 0
M  V30 10328 C 1627.24 -7.67148 0.673689 0
M  V30 10329 C 1626.51 -7.33374 1.95559 0
M  V30 10330 O 1626.3 -5.88721 2.00726 0
M  V30 10331 C 1625.11 -7.92526 2.10483 0
M  V30 10332 O 1624.72 -8.02971 3.47653 0
M  V30 10333 C 1624.23 -6.89602 1.41652 0
M  V30 10334 C 1624.94 -5.59201 1.75185 0
M  V30 10335 N 1624.89 -4.58301 0.657969 0
M  V30 10336 H 1627.73 -8.65116 0.777161 0
M  V30 10337 H 1628 -6.9022 0.46725 0
M  V30 10338 H 1627.13 -7.66548 2.79458 0
M  V30 10339 H 1624.48 -5.16165 2.65183 0
M  V30 10340 H 1624.2 -7.06433 0.329384 0
M  V30 10341 H 1623.21 -6.90926 1.82021 0
M  V30 10342 H 1625.04 -8.90873 1.62657 0
M  V30 10343 P 1623.17 -8.03563 3.84925 0
M  V30 10344 O 1622.95 -8.85821 5.0569 0
M  V30 10345 O 1622.38 -8.41101 2.65469 0
M  V30 10346 O 1622.92 -6.4965 4.18908 0
M  V30 10347 C 1623.86 -5.81037 5.05421 0
M  V30 10348 C 1623.13 -4.78366 5.89277 0
M  V30 10349 O 1622.92 -3.58302 5.08433 0
M  V30 10350 C 1621.73 -5.17448 6.36119 0
M  V30 10351 O 1621.34 -4.45271 7.53232 0
M  V30 10352 C 1620.85 -4.74639 5.19936 0
M  V30 10353 C 1621.56 -3.49432 4.70418 0
M  V30 10354 N 1621.51 -3.32099 3.22613 0
M  V30 10355 C 1621.59 -4.28245 2.25527 0
M  V30 10356 N 1621.52 -3.80823 1.04874 0
M  V30 10357 C 1621.37 -2.44571 1.23535 0
M  V30 10358 C 1621.24 -1.37068 0.330675 0
M  V30 10359 N 1621.23 -1.51472 -0.990824 0
M  V30 10360 N 1621.12 -0.138614 0.848756 0
M  V30 10361 C 1621.13 0.00675923 2.16999 0
M  V30 10362 N 1621.25 -0.904372 3.11122 0
M  V30 10363 C 1621.37 -2.12707 2.56212 0
M  V30 10364 H 1624.35 -6.54213 5.71376 0
M  V30 10365 H 1624.62 -5.30936 4.43503 0
M  V30 10366 H 1623.75 -4.55889 6.76652 0
M  V30 10367 H 1621.1 -2.61715 5.17932 0
M  V30 10368 H 1620.82 -5.52155 4.41878 0
M  V30 10369 H 1619.83 -4.51981 5.53374 0
M  V30 10370 H 1621.66 -6.25124 6.55234 0
M  V30 10371 H 1621.7 -5.34372 2.47488 0
M  V30 10372 H 1621.32 -2.45153 -1.4078 0
M  V30 10373 H 1621.13 -0.688422 -1.59911 0
M  V30 10374 H 1621.02 1.02584 2.52346 0
M  V30 10375 P 1619.79 -4.23843 7.83734 0
M  V30 10376 O 1619.57 -4.19407 9.29784 0
M  V30 10377 O 1619 -5.24426 7.09156 0
M  V30 10378 O 1619.54 -2.7935 7.20758 0
M  V30 10379 C 1620.48 -1.7299 7.50419 0
M  V30 10380 C 1619.75 -0.406376 7.57911 0
M  V30 10381 O 1619.54 0.0897726 6.21935 0
M  V30 10382 C 1618.35 -0.447224 8.1878 0
M  V30 10383 O 1617.96 0.825065 8.71101 0
M  V30 10384 C 1617.47 -0.783801 6.99623 0
M  V30 10385 C 1618.18 -0.0619192 5.85967 0
M  V30 10386 N 1618.13 -0.790462 4.56202 0
M  V30 10387 H 1620.97 -1.93423 8.4679 0
M  V30 10388 H 1621.24 -1.68852 6.70877 0
M  V30 10389 H 1620.37 0.289041 8.15388 0
M  V30 10390 H 1617.72 0.927006 5.72848 0
M  V30 10391 H 1617.44 -1.86973 6.82036 0
M  V30 10392 H 1616.45 -0.403953 7.13357 0
M  V30 10393 H 1618.28 -1.20599 8.97534 0
M  V30 10394 P 1616.41 1.17771 8.83182 0
M  V30 10395 O 1616.19 2.07206 9.98732 0
M  V30 10396 O 1615.62 -0.0743816 8.81969 0
M  V30 10397 O 1616.16 1.97652 7.47304 0
M  V30 10398 C 1617.1 3.01133 7.08783 0
M  V30 10399 C 1616.37 4.12613 6.37049 0
M  V30 10400 O 1616.16 3.72827 4.97879 0
M  V30 10401 C 1614.97 4.45085 6.88694 0
M  V30 10402 O 1614.58 5.7877 6.5624 0
M  V30 10403 C 1614.09 3.47817 6.12078 0
M  V30 10404 C 1614.8 3.39414 4.77697 0
M  V30 10405 N 1614.75 2.04199 4.15538 0
M  V30 10406 H 1617.59 3.41248 7.98759 0
M  V30 10407 H 1617.86 2.57728 6.42 0
M  V30 10408 H 1616.99 5.02657 6.42673 0
M  V30 10409 H 1614.34 4.11708 4.08956 0
M  V30 10410 H 1614.06 2.49626 6.61679 0
M  V30 10411 H 1613.07 3.8662 6.00862 0
M  V30 10412 H 1614.9 4.29991 7.97006 0
M  V30 10413 P 1613.03 6.144 6.45285 0
M  V30 10414 O 1612.81 7.54673 6.86199 0
M  V30 10415 O 1612.24 5.12391 7.179 0
M  V30 10416 O 1612.78 5.99158 4.88404 0
M  V30 10417 C 1613.72 6.60234 3.96415 0
M  V30 10418 C 1612.99 7.08259 2.72856 0
M  V30 10419 O 1612.78 5.9427 1.83651 0
M  V30 10420 C 1611.59 7.64886 2.9555 0
M  V30 10421 O 1611.2 8.53963 1.90717 0
M  V30 10422 C 1610.71 6.4116 2.90739 0
M  V30 10423 C 1611.42 5.55375 1.86963 0
M  V30 10424 N 1611.37 4.09664 2.15742 0
M  V30 10425 C 1611.45 3.44381 3.37233 0
M  V30 10426 N 1611.37 2.14131 3.28347 0
M  V30 10427 C 1611.23 1.90247 1.91588 0
M  V30 10428 C 1611.1 0.683992 1.20892 0
M  V30 10429 N 1610.98 0.903396 -0.173998 0
M  V30 10430 C 1610.98 2.14171 -0.784879 0
M  V30 10431 N 1610.85 2.1435 -2.11317 0
M  V30 10432 N 1611.11 3.28784 -0.119316 0
M  V30 10433 C 1611.23 3.0977 1.22194 0
M  V30 10434 H 1614.21 7.45574 4.45629 0
M  V30 10435 H 1614.48 5.86232 3.67314 0
M  V30 10436 H 1613.61 7.84412 2.24479 0
M  V30 10437 P 1609.65 8.7635 1.60911 0
M  V30 10438 O 1609.43 10.1388 1.11561 0
M  V30 10439 O 1608.86 8.36503 2.79617 0
M  V30 10440 O 1609.4 7.71806 0.42951 0
M  V30 10441 C 1610.34 7.67148 -0.673689 0
M  V30 10442 C 1609.61 7.33374 -1.95559 0
M  V30 10443 O 1609.4 5.88721 -2.00726 0
M  V30 10444 C 1608.21 7.92526 -2.10483 0
M  V30 10445 O 1607.82 8.02971 -3.47653 0
M  V30 10446 C 1607.33 6.89602 -1.41652 0
M  V30 10447 C 1608.04 5.59201 -1.75185 0
M  V30 10448 N 1607.99 4.58235 -0.662552 0
M  V30 10449 H 1610.83 8.65116 -0.777161 0
M  V30 10450 H 1611.1 6.90173 -0.474152 0
M  V30 10451 H 1610.23 7.66548 -2.79458 0
M  V30 10452 P 1606.27 8.03563 -3.84925 0
M  V30 10453 O 1606.05 8.85821 -5.0569 0
M  V30 10454 O 1605.48 8.41101 -2.65469 0
M  V30 10455 O 1606.02 6.4965 -4.18908 0
M  V30 10456 C 1606.96 5.80886 -5.05289 0
M  V30 10457 C 1606.23 4.78366 -5.89277 0
M  V30 10458 O 1606.02 3.58302 -5.08433 0
M  V30 10459 C 1604.83 5.16748 -6.36559 0
M  V30 10460 O 1604.44 4.45271 -7.53232 0
M  V30 10461 C 1603.95 4.74572 -5.19863 0
M  V30 10462 C 1604.66 3.49373 -4.70338 0
M  V30 10463 N 1604.61 3.31704 -3.22876 0
M  V30 10464 C 1604.46 2.03326 -2.74871 0
M  V30 10465 O 1604.37 1.06486 -3.48076 0
M  V30 10466 N 1604.42 1.91838 -1.37456 0
M  V30 10467 C 1604.51 2.94295 -0.462035 0
M  V30 10468 O 1604.46 2.71763 0.752928 0
M  V30 10469 C 1604.66 4.25064 -1.05249 0
M  V30 10470 C 1604.77 5.39815 -0.095697 0
M  V30 10471 C 1604.71 4.40214 -2.39192 0
M  V30 10472 H 1607.45 6.54063 -5.71245 0
M  V30 10473 H 1607.72 5.30339 -4.43905 0
M  V30 10474 H 1606.85 4.55889 -6.76652 0
M  V30 10475 H 1604.2 2.6167 -5.17842 0
M  V30 10476 H 1603.92 5.52155 -4.41878 0
M  V30 10477 H 1602.93 4.51918 -5.53297 0
M  V30 10478 H 1604.76 6.25055 -6.55162 0
M  V30 10479 H 1604.83 5.39798 -2.81523 0
M  V30 10480 H 1603.8 5.91593 -0.0279582 0
M  V30 10481 H 1605.54 6.10038 -0.450573 0
M  V30 10482 H 1605.05 5.02007 0.89937 0
M  V30 10483 H 1604.32 0.995326 -1.00435 0
M  V30 10484 P 1602.89 4.23843 -7.83734 0
M  V30 10485 O 1602.67 4.19407 -9.29784 0
M  V30 10486 O 1602.1 5.24426 -7.09156 0
M  V30 10487 O 1602.64 2.7935 -7.20758 0
M  V30 10488 C 1603.58 1.7299 -7.50419 0
M  V30 10489 C 1602.85 0.406376 -7.57911 0
M  V30 10490 O 1602.64 -0.0897726 -6.21935 0
M  V30 10491 C 1601.45 0.447224 -8.1878 0
M  V30 10492 O 1601.06 -0.825065 -8.71101 0
M  V30 10493 C 1600.57 0.783801 -6.99623 0
M  V30 10494 C 1601.28 0.0619192 -5.85967 0
M  V30 10495 N 1601.23 0.7859 -4.56281 0
M  V30 10496 H 1604.07 1.93423 -8.4679 0
M  V30 10497 H 1604.34 1.68181 -6.71046 0
M  V30 10498 H 1603.47 -0.289041 -8.15388 0
M  V30 10499 P 1599.51 -1.17771 -8.83182 0
M  V30 10500 O 1599.29 -2.07206 -9.98732 0
M  V30 10501 O 1598.72 0.0743816 -8.81969 0
M  V30 10502 O 1599.26 -1.97652 -7.47304 0
M  V30 10503 C 1600.2 -3.01133 -7.08783 0
M  V30 10504 C 1599.47 -4.12613 -6.37049 0
M  V30 10505 O 1599.26 -3.72827 -4.97879 0
M  V30 10506 C 1598.07 -4.45085 -6.88694 0
M  V30 10507 O 1597.68 -5.7877 -6.5624 0
M  V30 10508 C 1597.19 -3.47817 -6.12078 0
M  V30 10509 C 1597.9 -3.39414 -4.77697 0
M  V30 10510 N 1597.85 -2.04615 -4.15333 0
M  V30 10511 H 1600.69 -3.41248 -7.98759 0
M  V30 10512 H 1600.96 -2.5837 -6.41742 0
M  V30 10513 H 1600.09 -5.02657 -6.42673 0
M  V30 10514 P 1596.13 -6.144 -6.45285 0
M  V30 10515 O 1595.91 -7.54673 -6.86199 0
M  V30 10516 O 1595.34 -5.12391 -7.179 0
M  V30 10517 O 1595.88 -5.99158 -4.88404 0
M  V30 10518 C 1596.82 -6.60234 -3.96415 0
M  V30 10519 C 1596.09 -7.08259 -2.72856 0
M  V30 10520 O 1595.88 -5.9427 -1.83651 0
M  V30 10521 C 1594.69 -7.64886 -2.9555 0
M  V30 10522 O 1594.3 -8.53963 -1.90717 0
M  V30 10523 C 1593.81 -6.4116 -2.90739 0
M  V30 10524 C 1594.52 -5.55375 -1.86963 0
M  V30 10525 N 1594.47 -4.09448 -2.16152 0
M  V30 10526 H 1597.31 -7.45574 -4.45629 0
M  V30 10527 H 1597.58 -5.85864 -3.679 0
M  V30 10528 H 1596.71 -7.84412 -2.24479 0
M  V30 10529 H 1594.06 -5.73457 -0.888562 0
M  V30 10530 H 1593.78 -5.90877 -3.88583 0
M  V30 10531 H 1592.79 -6.6596 -2.58858 0
M  V30 10532 H 1594.62 -8.16339 -3.92049 0
M  V30 10533 P 1592.75 -8.7635 -1.60911 0
M  V30 10534 O 1592.53 -10.1388 -1.11561 0
M  V30 10535 O 1591.96 -8.36503 -2.79617 0
M  V30 10536 O 1592.5 -7.71806 -0.42951 0
M  V30 10537 C 1593.44 -7.67148 0.673689 0
M  V30 10538 C 1592.71 -7.33374 1.95559 0
M  V30 10539 O 1592.5 -5.88721 2.00726 0
M  V30 10540 C 1591.31 -7.92526 2.10483 0
M  V30 10541 O 1590.92 -8.02971 3.47653 0
M  V30 10542 C 1590.43 -6.89602 1.41652 0
M  V30 10543 C 1591.14 -5.59201 1.75185 0
M  V30 10544 N 1591.09 -4.58235 0.662552 0
M  V30 10545 H 1593.93 -8.65116 0.777161 0
M  V30 10546 H 1594.2 -6.90173 0.474152 0
M  V30 10547 H 1593.33 -7.66548 2.79458 0
M  V30 10548 P 1589.37 -8.03563 3.84925 0
M  V30 10549 O 1589.15 -8.85821 5.0569 0
M  V30 10550 O 1588.58 -8.41101 2.65469 0
M  V30 10551 O 1589.12 -6.4965 4.18908 0
M  V30 10552 C 1590.06 -5.81037 5.05421 0
M  V30 10553 C 1589.33 -4.78366 5.89277 0
M  V30 10554 O 1589.12 -3.58302 5.08433 0
M  V30 10555 C 1587.93 -5.17448 6.36119 0
M  V30 10556 O 1587.54 -4.45271 7.53232 0
M  V30 10557 C 1587.05 -4.74639 5.19936 0
M  V30 10558 C 1587.76 -3.49432 4.70418 0
M  V30 10559 N 1587.71 -3.31776 3.22945 0
M  V30 10560 H 1590.55 -6.54213 5.71376 0
M  V30 10561 H 1590.82 -5.30492 4.44033 0
M  V30 10562 H 1589.95 -4.55889 6.76652 0
M  V30 10563 P 1585.99 -4.23843 7.83734 0
M  V30 10564 O 1585.77 -4.19407 9.29784 0
M  V30 10565 O 1585.2 -5.24426 7.09156 0
M  V30 10566 O 1585.74 -2.7935 7.20758 0
M  V30 10567 C 1586.68 -1.7299 7.50419 0
M  V30 10568 C 1585.95 -0.406376 7.57911 0
M  V30 10569 O 1585.74 0.0897726 6.21935 0
M  V30 10570 C 1584.55 -0.447224 8.1878 0
M  V30 10571 O 1584.16 0.825065 8.71101 0
M  V30 10572 C 1583.67 -0.783801 6.99623 0
M  V30 10573 C 1584.38 -0.0619192 5.85967 0
M  V30 10574 N 1584.33 -0.7859 4.56281 0
M  V30 10575 H 1587.17 -1.93423 8.4679 0
M  V30 10576 H 1587.44 -1.68181 6.71046 0
M  V30 10577 H 1586.57 0.289041 8.15388 0
M  V30 10578 P 1582.61 1.17771 8.83182 0
M  V30 10579 O 1582.39 2.07206 9.98732 0
M  V30 10580 O 1581.82 -0.0743816 8.81969 0
M  V30 10581 O 1582.36 1.97652 7.47304 0
M  V30 10582 C 1583.3 3.01133 7.08783 0
M  V30 10583 C 1582.57 4.12613 6.37049 0
M  V30 10584 O 1582.36 3.72827 4.97879 0
M  V30 10585 C 1581.17 4.45085 6.88694 0
M  V30 10586 O 1580.78 5.7877 6.5624 0
M  V30 10587 C 1580.29 3.47817 6.12078 0
M  V30 10588 C 1581 3.39414 4.77697 0
M  V30 10589 N 1580.95 2.04199 4.15538 0
M  V30 10590 H 1583.79 3.41248 7.98759 0
M  V30 10591 H 1584.06 2.57728 6.42 0
M  V30 10592 H 1583.19 5.02657 6.42673 0
M  V30 10593 H 1580.54 4.11708 4.08956 0
M  V30 10594 H 1580.26 2.49626 6.61679 0
M  V30 10595 H 1579.27 3.8662 6.00862 0
M  V30 10596 H 1581.1 4.29991 7.97006 0
M  V30 10597 P 1579.23 6.144 6.45285 0
M  V30 10598 O 1579.01 7.54673 6.86199 0
M  V30 10599 O 1578.44 5.12391 7.179 0
M  V30 10600 O 1578.98 5.99158 4.88404 0
M  V30 10601 C 1579.92 6.60062 3.96313 0
M  V30 10602 C 1579.19 7.08259 2.72856 0
M  V30 10603 O 1578.98 5.9427 1.83651 0
M  V30 10604 C 1577.79 7.65087 2.94749 0
M  V30 10605 O 1577.4 8.53963 1.90717 0
M  V30 10606 C 1576.91 6.41069 2.90698 0
M  V30 10607 C 1577.62 5.5528 1.86931 0
M  V30 10608 N 1577.57 4.09575 2.15696 0
M  V30 10609 C 1577.42 3.24249 1.08435 0
M  V30 10610 O 1577.33 3.63946 -0.0628747 0
M  V30 10611 N 1577.38 1.90009 1.39973 0
M  V30 10612 C 1577.47 1.34884 2.65614 0
M  V30 10613 C 1577.62 2.3145 3.71736 0
M  V30 10614 C 1577.67 3.63518 3.44754 0
M  V30 10615 H 1580.41 7.45402 4.45526 0
M  V30 10616 H 1580.68 5.86062 3.67208 0
M  V30 10617 H 1579.81 7.84412 2.24479 0
M  V30 10618 H 1577.16 5.73358 0.888409 0
M  V30 10619 H 1576.88 5.90877 3.88583 0
M  V30 10620 H 1575.89 6.65867 2.58821 0
M  V30 10621 H 1577.72 8.16248 3.92006 0
M  V30 10622 H 1577.79 4.34551 4.26383 0
M  V30 10623 P 1575.85 8.7635 1.60911 0
M  V30 10624 O 1575.63 10.1388 1.11561 0
M  V30 10625 O 1575.06 8.36503 2.79617 0
M  V30 10626 O 1575.6 7.71806 0.42951 0
M  V30 10627 C 1576.54 7.67148 -0.673689 0
M  V30 10628 C 1575.81 7.33374 -1.95559 0
M  V30 10629 O 1575.6 5.88721 -2.00726 0
M  V30 10630 C 1574.41 7.92526 -2.10483 0
M  V30 10631 O 1574.02 8.02971 -3.47653 0
M  V30 10632 C 1573.53 6.89602 -1.41652 0
M  V30 10633 C 1574.24 5.59201 -1.75185 0
M  V30 10634 N 1574.19 4.58235 -0.662552 0
M  V30 10635 H 1577.03 8.65116 -0.777161 0
M  V30 10636 H 1577.3 6.90173 -0.474152 0
M  V30 10637 H 1576.43 7.66548 -2.79458 0
M  V30 10638 P 1572.47 8.03563 -3.84925 0
M  V30 10639 O 1572.25 8.85821 -5.0569 0
M  V30 10640 O 1571.68 8.41101 -2.65469 0
M  V30 10641 O 1572.22 6.4965 -4.18908 0
M  V30 10642 C 1573.16 5.81037 -5.05421 0
M  V30 10643 C 1572.43 4.78366 -5.89277 0
M  V30 10644 O 1572.22 3.58302 -5.08433 0
M  V30 10645 C 1571.03 5.17448 -6.36119 0
M  V30 10646 O 1570.64 4.45271 -7.53232 0
M  V30 10647 C 1570.15 4.74639 -5.19936 0
M  V30 10648 C 1570.86 3.49432 -4.70418 0
M  V30 10649 N 1570.81 3.31776 -3.22945 0
M  V30 10650 H 1573.65 6.54213 -5.71376 0
M  V30 10651 H 1573.92 5.30492 -4.44033 0
M  V30 10652 H 1573.05 4.55889 -6.76652 0
M  V30 10653 P 1569.09 4.23843 -7.83734 0
M  V30 10654 O 1568.87 4.19407 -9.29784 0
M  V30 10655 O 1568.3 5.24426 -7.09156 0
M  V30 10656 O 1568.84 2.7935 -7.20758 0
M  V30 10657 C 1569.78 1.7299 -7.50419 0
M  V30 10658 C 1569.05 0.406376 -7.57911 0
M  V30 10659 O 1568.84 -0.0897726 -6.21935 0
M  V30 10660 C 1567.65 0.447224 -8.1878 0
M  V30 10661 O 1567.26 -0.825065 -8.71101 0
M  V30 10662 C 1566.77 0.783801 -6.99623 0
M  V30 10663 C 1567.48 0.0619192 -5.85967 0
M  V30 10664 N 1567.43 0.790462 -4.56202 0
M  V30 10665 C 1567.51 2.13895 -4.34171 0
M  V30 10666 N 1567.44 2.46449 -3.08687 0
M  V30 10667 C 1567.29 1.2525 -2.43697 0
M  V30 10668 C 1567.16 0.914535 -1.07318 0
M  V30 10669 N 1567.15 1.80782 -0.0887348 0
M  V30 10670 N 1567.04 -0.386745 -0.768133 0
M  V30 10671 C 1567.05 -1.28096 -1.75159 0
M  V30 10672 N 1567.17 -1.09708 -3.04861 0
M  V30 10673 C 1567.29 0.214857 -3.32306 0
M  V30 10674 H 1570.27 1.93423 -8.4679 0
M  V30 10675 H 1570.54 1.68852 -6.70877 0
M  V30 10676 H 1569.67 -0.289041 -8.15388 0
M  V30 10677 H 1567.02 -0.927006 -5.72848 0
M  V30 10678 H 1566.74 1.86973 -6.82036 0
M  V30 10679 H 1565.75 0.403953 -7.13357 0
M  V30 10680 H 1567.58 1.20599 -8.97534 0
M  V30 10681 H 1567.62 2.86846 -5.14318 0
M  V30 10682 H 1567.24 2.81082 -0.302037 0
M  V30 10683 H 1567.05 1.49688 0.889064 0
M  V30 10684 H 1566.94 -2.31317 -1.43855 0
M  V30 10685 P 1565.71 -1.17771 -8.83182 0
M  V30 10686 O 1565.49 -2.07206 -9.98732 0
M  V30 10687 O 1564.92 0.0743816 -8.81969 0
M  V30 10688 O 1565.46 -1.97652 -7.47304 0
M  V30 10689 C 1566.4 -3.01055 -7.08599 0
M  V30 10690 C 1565.67 -4.12613 -6.37049 0
M  V30 10691 O 1565.46 -3.72827 -4.97879 0
M  V30 10692 C 1564.27 -4.45719 -6.88164 0
M  V30 10693 O 1563.88 -5.7877 -6.5624 0
M  V30 10694 C 1563.39 -3.47768 -6.11991 0
M  V30 10695 C 1564.1 -3.39356 -4.77615 0
M  V30 10696 N 1564.05 -2.04571 -4.15244 0
M  V30 10697 C 1563.9 -1.98587 -2.78314 0
M  V30 10698 O 1563.81 -2.98134 -2.08835 0
M  V30 10699 N 1563.86 -0.714467 -2.24925 0
M  V30 10700 C 1563.95 0.470001 -2.94169 0
M  V30 10701 O 1563.9 1.55587 -2.35195 0
M  V30 10702 C 1564.1 0.312541 -4.36783 0
M  V30 10703 C 1564.21 1.57711 -5.16352 0
M  V30 10704 C 1564.15 -0.914512 -4.92583 0
M  V30 10705 H 1566.89 -3.41169 -7.98575 0
M  V30 10706 H 1567.16 -2.58295 -6.41556 0
M  V30 10707 H 1566.29 -5.02657 -6.42673 0
M  V30 10708 H 1563.64 -4.11637 -4.08885 0
M  V30 10709 H 1563.36 -2.49626 -6.61679 0
M  V30 10710 H 1562.37 -3.86566 -6.00778 0
M  V30 10711 H 1564.2 -4.29943 -7.96918 0
M  V30 10712 H 1564.27 -1.00937 -6.00374 0
M  V30 10713 H 1563.24 1.80153 -5.63503 0
M  V30 10714 H 1564.98 1.4566 -5.94104 0
M  V30 10715 H 1564.49 2.40664 -4.49645 0
M  V30 10716 H 1563.76 -0.647622 -1.25697 0
M  V30 10717 P 1562.33 -6.144 -6.45285 0
M  V30 10718 O 1562.11 -7.54673 -6.86199 0
M  V30 10719 O 1561.54 -5.12391 -7.179 0
M  V30 10720 O 1562.08 -5.99158 -4.88404 0
M  V30 10721 C 1563.02 -6.60234 -3.96415 0
M  V30 10722 C 1562.29 -7.08259 -2.72856 0
M  V30 10723 O 1562.08 -5.9427 -1.83651 0
M  V30 10724 C 1560.89 -7.64886 -2.9555 0
M  V30 10725 O 1560.5 -8.53963 -1.90717 0
M  V30 10726 C 1560.01 -6.4116 -2.90739 0
M  V30 10727 C 1560.72 -5.55375 -1.86963 0
M  V30 10728 N 1560.67 -4.09664 -2.15742 0
M  V30 10729 C 1560.75 -3.44381 -3.37233 0
M  V30 10730 N 1560.67 -2.14131 -3.28347 0
M  V30 10731 C 1560.53 -1.90247 -1.91588 0
M  V30 10732 C 1560.4 -0.683992 -1.20892 0
M  V30 10733 N 1560.28 -0.903396 0.173998 0
M  V30 10734 C 1560.28 -2.14171 0.784879 0
M  V30 10735 N 1560.15 -2.1435 2.11317 0
M  V30 10736 N 1560.41 -3.28784 0.119316 0
M  V30 10737 C 1560.53 -3.0977 -1.22194 0
M  V30 10738 H 1563.51 -7.45574 -4.45629 0
M  V30 10739 H 1563.78 -5.86232 -3.67314 0
M  V30 10740 H 1562.91 -7.84412 -2.24479 0
M  V30 10741 P 1558.95 -8.7635 -1.60911 0
M  V30 10742 O 1558.73 -10.1388 -1.11561 0
M  V30 10743 O 1558.16 -8.36503 -2.79617 0
M  V30 10744 O 1558.7 -7.71806 -0.42951 0
M  V30 10745 C 1559.64 -7.66948 0.673514 0
M  V30 10746 C 1558.91 -7.33374 1.95559 0
M  V30 10747 O 1558.7 -5.88721 2.00726 0
M  V30 10748 C 1557.51 -7.92218 2.1125 0
M  V30 10749 O 1557.12 -8.02971 3.47653 0
M  V30 10750 C 1556.63 -6.89504 1.41631 0
M  V30 10751 C 1557.34 -5.59106 1.75155 0
M  V30 10752 N 1557.29 -4.58136 0.662409 0
M  V30 10753 C 1557.14 -3.26059 1.02863 0
M  V30 10754 O 1557.05 -2.90743 2.19009 0
M  V30 10755 N 1557.1 -2.35995 -0.0155585 0
M  V30 10756 C 1557.19 -2.65248 -1.35603 0
M  V30 10757 C 1557.34 -4.05747 -1.64698 0
M  V30 10758 C 1557.39 -4.96734 -0.652411 0
M  V30 10759 H 1560.13 -8.64917 0.776982 0
M  V30 10760 H 1560.4 -6.89974 0.474015 0
M  V30 10761 H 1559.53 -7.66548 2.79458 0
M  V30 10762 H 1556.88 -5.16076 2.65138 0
M  V30 10763 H 1556.6 -7.06433 0.329384 0
M  V30 10764 H 1555.61 -6.90829 1.81996 0
M  V30 10765 H 1557.44 -8.90774 1.62639 0
M  V30 10766 H 1557.51 -6.02181 -0.895285 0
M  V30 10767 P 1555.57 -8.03563 3.84925 0
M  V30 10768 O 1555.35 -8.85821 5.0569 0
M  V30 10769 O 1554.78 -8.41101 2.65469 0
M  V30 10770 O 1555.32 -6.4965 4.18908 0
M  V30 10771 C 1556.26 -5.80886 5.05289 0
M  V30 10772 C 1555.53 -4.78366 5.89277 0
M  V30 10773 O 1555.32 -3.58302 5.08433 0
M  V30 10774 C 1554.13 -5.16748 6.36559 0
M  V30 10775 O 1553.74 -4.45271 7.53232 0
M  V30 10776 C 1553.25 -4.74572 5.19863 0
M  V30 10777 C 1553.96 -3.49373 4.70338 0
M  V30 10778 N 1553.91 -3.31704 3.22876 0
M  V30 10779 C 1553.76 -2.03326 2.74871 0
M  V30 10780 O 1553.67 -1.06486 3.48076 0
M  V30 10781 N 1553.72 -1.91838 1.37456 0
M  V30 10782 C 1553.81 -2.94295 0.462035 0
M  V30 10783 C 1553.96 -4.25064 1.05249 0
M  V30 10784 C 1554.01 -4.40214 2.39192 0
M  V30 10785 H 1556.75 -6.54063 5.71245 0
M  V30 10786 H 1557.02 -5.30339 4.43905 0
M  V30 10787 H 1556.15 -4.55889 6.76652 0
M  V30 10788 H 1553.5 -2.6167 5.17842 0
M  V30 10789 H 1553.22 -5.52155 4.41878 0
M  V30 10790 H 1552.23 -4.51918 5.53297 0
M  V30 10791 H 1554.06 -6.25055 6.55162 0
M  V30 10792 H 1554.13 -5.39798 2.81523 0
M  V30 10793 P 1552.19 -4.23843 7.83734 0
M  V30 10794 O 1551.97 -4.19407 9.29784 0
M  V30 10795 O 1551.4 -5.24426 7.09156 0
M  V30 10796 O 1551.94 -2.7935 7.20758 0
M  V30 10797 C 1552.88 -1.7299 7.50419 0
M  V30 10798 C 1552.15 -0.406376 7.57911 0
M  V30 10799 O 1551.94 0.0897726 6.21935 0
M  V30 10800 C 1550.75 -0.447224 8.1878 0
M  V30 10801 O 1550.36 0.825065 8.71101 0
M  V30 10802 C 1549.87 -0.783801 6.99623 0
M  V30 10803 C 1550.58 -0.0619192 5.85967 0
M  V30 10804 N 1550.53 -0.7859 4.56281 0
M  V30 10805 H 1553.37 -1.93423 8.4679 0
M  V30 10806 H 1553.64 -1.68181 6.71046 0
M  V30 10807 H 1552.77 0.289041 8.15388 0
M  V30 10808 P 1548.81 1.17771 8.83182 0
M  V30 10809 O 1548.59 2.07206 9.98732 0
M  V30 10810 O 1548.02 -0.0743816 8.81969 0
M  V30 10811 O 1548.56 1.97652 7.47304 0
M  V30 10812 C 1549.5 3.01133 7.08783 0
M  V30 10813 C 1548.77 4.12613 6.37049 0
M  V30 10814 O 1548.56 3.72827 4.97879 0
M  V30 10815 C 1547.37 4.45085 6.88694 0
M  V30 10816 O 1546.98 5.7877 6.5624 0
M  V30 10817 C 1546.49 3.47817 6.12078 0
M  V30 10818 C 1547.2 3.39414 4.77697 0
M  V30 10819 N 1547.15 2.04199 4.15538 0
M  V30 10820 H 1549.99 3.41248 7.98759 0
M  V30 10821 H 1550.26 2.57728 6.42 0
M  V30 10822 H 1549.39 5.02657 6.42673 0
M  V30 10823 H 1546.74 4.11708 4.08956 0
M  V30 10824 H 1546.46 2.49626 6.61679 0
M  V30 10825 H 1545.47 3.8662 6.00862 0
M  V30 10826 H 1547.3 4.29991 7.97006 0
M  V30 10827 P 1545.43 6.144 6.45285 0
M  V30 10828 O 1545.21 7.54673 6.86199 0
M  V30 10829 O 1544.64 5.12391 7.179 0
M  V30 10830 O 1545.18 5.99158 4.88404 0
M  V30 10831 C 1546.12 6.60062 3.96313 0
M  V30 10832 C 1545.39 7.08259 2.72856 0
M  V30 10833 O 1545.18 5.9427 1.83651 0
M  V30 10834 C 1543.99 7.65087 2.94749 0
M  V30 10835 O 1543.6 8.53963 1.90717 0
M  V30 10836 C 1543.11 6.41069 2.90698 0
M  V30 10837 C 1543.82 5.5528 1.86931 0
M  V30 10838 N 1543.77 4.09575 2.15696 0
M  V30 10839 C 1543.62 3.24249 1.08435 0
M  V30 10840 O 1543.53 3.63946 -0.0628747 0
M  V30 10841 N 1543.58 1.90009 1.39973 0
M  V30 10842 C 1543.67 1.34884 2.65614 0
M  V30 10843 C 1543.82 2.3145 3.71736 0
M  V30 10844 C 1543.87 3.63518 3.44754 0
M  V30 10845 H 1546.61 7.45402 4.45526 0
M  V30 10846 H 1546.88 5.86062 3.67208 0
M  V30 10847 H 1546.01 7.84412 2.24479 0
M  V30 10848 H 1543.36 5.73358 0.888409 0
M  V30 10849 H 1543.08 5.90877 3.88583 0
M  V30 10850 H 1542.09 6.65867 2.58821 0
M  V30 10851 H 1543.92 8.16248 3.92006 0
M  V30 10852 H 1543.99 4.34551 4.26383 0
M  V30 10853 P 1542.05 8.7635 1.60911 0
M  V30 10854 O 1541.83 10.1388 1.11561 0
M  V30 10855 O 1541.26 8.36503 2.79617 0
M  V30 10856 O 1541.8 7.71806 0.42951 0
M  V30 10857 C 1542.74 7.67148 -0.673689 0
M  V30 10858 C 1542.01 7.33374 -1.95559 0
M  V30 10859 O 1541.8 5.88721 -2.00726 0
M  V30 10860 C 1540.61 7.92526 -2.10483 0
M  V30 10861 O 1540.22 8.02971 -3.47653 0
M  V30 10862 C 1539.73 6.89602 -1.41652 0
M  V30 10863 C 1540.44 5.59201 -1.75185 0
M  V30 10864 N 1540.39 4.58235 -0.662552 0
M  V30 10865 H 1543.23 8.65116 -0.777161 0
M  V30 10866 H 1543.5 6.90173 -0.474152 0
M  V30 10867 H 1542.63 7.66548 -2.79458 0
M  V30 10868 P 1538.67 8.03563 -3.84925 0
M  V30 10869 O 1538.45 8.85821 -5.0569 0
M  V30 10870 O 1537.88 8.41101 -2.65469 0
M  V30 10871 O 1538.42 6.4965 -4.18908 0
M  V30 10872 C 1539.36 5.81037 -5.05421 0
M  V30 10873 C 1538.63 4.78366 -5.89277 0
M  V30 10874 O 1538.42 3.58302 -5.08433 0
M  V30 10875 C 1537.23 5.17448 -6.36119 0
M  V30 10876 O 1536.84 4.45271 -7.53232 0
M  V30 10877 C 1536.35 4.74639 -5.19936 0
M  V30 10878 C 1537.06 3.49432 -4.70418 0
M  V30 10879 N 1537.01 3.31776 -3.22945 0
M  V30 10880 H 1539.85 6.54213 -5.71376 0
M  V30 10881 H 1540.12 5.30492 -4.44033 0
M  V30 10882 H 1539.25 4.55889 -6.76652 0
M  V30 10883 P 1535.29 4.23843 -7.83734 0
M  V30 10884 O 1535.07 4.19407 -9.29784 0
M  V30 10885 O 1534.5 5.24426 -7.09156 0
M  V30 10886 O 1535.04 2.7935 -7.20758 0
M  V30 10887 C 1535.98 1.7299 -7.50419 0
M  V30 10888 C 1535.25 0.406376 -7.57911 0
M  V30 10889 O 1535.04 -0.0897726 -6.21935 0
M  V30 10890 C 1533.85 0.447224 -8.1878 0
M  V30 10891 O 1533.46 -0.825065 -8.71101 0
M  V30 10892 C 1532.97 0.783801 -6.99623 0
M  V30 10893 C 1533.68 0.0619192 -5.85967 0
M  V30 10894 N 1533.63 0.7859 -4.56281 0
M  V30 10895 H 1536.47 1.93423 -8.4679 0
M  V30 10896 H 1536.74 1.68181 -6.71046 0
M  V30 10897 H 1535.87 -0.289041 -8.15388 0
M  V30 10898 P 1531.91 -1.17771 -8.83182 0
M  V30 10899 O 1531.69 -2.07206 -9.98732 0
M  V30 10900 O 1531.12 0.0743816 -8.81969 0
M  V30 10901 O 1531.66 -1.97652 -7.47304 0
M  V30 10902 C 1532.6 -3.01055 -7.08599 0
M  V30 10903 C 1531.87 -4.12613 -6.37049 0
M  V30 10904 O 1531.66 -3.72827 -4.97879 0
M  V30 10905 C 1530.47 -4.45719 -6.88164 0
M  V30 10906 O 1530.08 -5.7877 -6.5624 0
M  V30 10907 C 1529.59 -3.47768 -6.11991 0
M  V30 10908 C 1530.3 -3.39356 -4.77615 0
M  V30 10909 N 1530.25 -2.04571 -4.15244 0
M  V30 10910 C 1530.1 -1.98587 -2.78314 0
M  V30 10911 O 1530.01 -2.98134 -2.08835 0
M  V30 10912 N 1530.06 -0.714467 -2.24925 0
M  V30 10913 C 1530.15 0.470001 -2.94169 0
M  V30 10914 C 1530.3 0.312541 -4.36783 0
M  V30 10915 C 1530.35 -0.914512 -4.92583 0
M  V30 10916 H 1533.09 -3.41169 -7.98575 0
M  V30 10917 H 1533.36 -2.58295 -6.41556 0
M  V30 10918 H 1532.49 -5.02657 -6.42673 0
M  V30 10919 H 1529.84 -4.11637 -4.08885 0
M  V30 10920 H 1529.56 -2.49626 -6.61679 0
M  V30 10921 H 1528.57 -3.86566 -6.00778 0
M  V30 10922 H 1530.4 -4.29943 -7.96918 0
M  V30 10923 H 1530.47 -1.00937 -6.00374 0
M  V30 10924 P 1528.53 -6.144 -6.45285 0
M  V30 10925 O 1528.31 -7.54673 -6.86199 0
M  V30 10926 O 1527.74 -5.12391 -7.179 0
M  V30 10927 O 1528.28 -5.99158 -4.88404 0
M  V30 10928 C 1529.22 -6.60234 -3.96415 0
M  V30 10929 C 1528.49 -7.08259 -2.72856 0
M  V30 10930 O 1528.28 -5.9427 -1.83651 0
M  V30 10931 C 1527.09 -7.64886 -2.9555 0
M  V30 10932 O 1526.7 -8.53963 -1.90717 0
M  V30 10933 C 1526.21 -6.4116 -2.90739 0
M  V30 10934 C 1526.92 -5.55375 -1.86963 0
M  V30 10935 N 1526.87 -4.09448 -2.16152 0
M  V30 10936 H 1529.71 -7.45574 -4.45629 0
M  V30 10937 H 1529.98 -5.85864 -3.679 0
M  V30 10938 H 1529.11 -7.84412 -2.24479 0
M  V30 10939 H 1526.46 -5.73457 -0.888562 0
M  V30 10940 H 1526.18 -5.90877 -3.88583 0
M  V30 10941 H 1525.19 -6.6596 -2.58858 0
M  V30 10942 H 1527.02 -8.16339 -3.92049 0
M  V30 10943 P 1525.15 -8.7635 -1.60911 0
M  V30 10944 O 1524.93 -10.1388 -1.11561 0
M  V30 10945 O 1524.36 -8.36503 -2.79617 0
M  V30 10946 O 1524.9 -7.71906 -0.429565 0
M  V30 10947 C 1525.84 -7.67148 0.673689 0
M  V30 10948 C 1525.11 -7.33666 1.94851 0
M  V30 10949 O 1524.9 -5.88816 2.00759 0
M  V30 10950 C 1523.71 -7.92526 2.10483 0
M  V30 10951 O 1523.32 -8.03063 3.47693 0
M  V30 10952 C 1522.83 -6.89602 1.41652 0
M  V30 10953 C 1523.54 -5.59201 1.75185 0
M  V30 10954 N 1523.49 -4.58235 0.662552 0
M  V30 10955 C 1523.34 -3.24451 1.01643 0
M  V30 10956 O 1523.25 -2.94958 2.21722 0
M  V30 10957 N 1523.29 -2.30408 -0.165238 0
M  V30 10958 C 1523.39 -2.66048 -1.25118 0
M  V30 10959 N 1523.34 -1.70787 -2.16813 0
M  V30 10960 C 1523.54 -4.02732 -1.64413 0
M  V30 10961 C 1523.59 -4.9488 -0.63991 0
M  V30 10962 H 1526.33 -8.65017 0.777072 0
M  V30 10963 H 1526.6 -6.90173 0.474152 0
M  V30 10964 H 1525.73 -7.66642 2.79492 0
M  V30 10965 H 1523.08 -5.16254 2.65229 0
M  V30 10966 H 1522.8 -7.06532 0.329431 0
M  V30 10967 H 1521.81 -6.91023 1.82047 0
M  V30 10968 H 1523.64 -8.90873 1.62657 0
M  V30 10969 H 1523.71 -6.00104 -0.892197 0
M  V30 10970 H 1523.61 -4.31733 -2.69229 0
M  V30 10971 H 1523.22 -0.724835 -1.8844 0
M  V30 10972 H 1523.42 -1.94716 -3.16734 0
M  V30 10973 P 1521.77 -8.03563 3.84925 0
M  V30 10974 O 1521.55 -8.85821 5.0569 0
M  V30 10975 O 1520.98 -8.41101 2.65469 0
M  V30 10976 O 1521.52 -6.4965 4.18908 0
M  V30 10977 C 1522.46 -5.81037 5.05421 0
M  V30 10978 C 1521.73 -4.78366 5.89277 0
M  V30 10979 O 1521.52 -3.58302 5.08433 0
M  V30 10980 C 1520.33 -5.17448 6.36119 0
M  V30 10981 O 1519.94 -4.45271 7.53232 0
M  V30 10982 C 1519.45 -4.74639 5.19936 0
M  V30 10983 C 1520.16 -3.49432 4.70418 0
M  V30 10984 N 1520.11 -3.32099 3.22613 0
M  V30 10985 C 1520.19 -4.28245 2.25527 0
M  V30 10986 N 1520.12 -3.80823 1.04874 0
M  V30 10987 C 1519.97 -2.44571 1.23535 0
M  V30 10988 C 1519.84 -1.37068 0.330675 0
M  V30 10989 N 1519.83 -1.51472 -0.990824 0
M  V30 10990 N 1519.72 -0.138614 0.848756 0
M  V30 10991 C 1519.73 0.00675923 2.16999 0
M  V30 10992 N 1519.85 -0.904372 3.11122 0
M  V30 10993 C 1519.97 -2.12707 2.56212 0
M  V30 10994 H 1522.95 -6.54213 5.71376 0
M  V30 10995 H 1523.22 -5.30936 4.43503 0
M  V30 10996 H 1522.35 -4.55889 6.76652 0
M  V30 10997 H 1519.7 -2.61715 5.17932 0
M  V30 10998 H 1519.42 -5.52155 4.41878 0
M  V30 10999 H 1518.43 -4.51981 5.53374 0
M  V30 11000 H 1520.26 -6.25124 6.55234 0
M  V30 11001 H 1520.3 -5.34372 2.47488 0
M  V30 11002 H 1519.92 -2.45153 -1.4078 0
M  V30 11003 H 1519.73 -0.688422 -1.59911 0
M  V30 11004 H 1519.63 1.02584 2.52346 0
M  V30 11005 P 1518.39 -4.23843 7.83734 0
M  V30 11006 O 1518.17 -4.19407 9.29784 0
M  V30 11007 O 1517.6 -5.24426 7.09156 0
M  V30 11008 O 1518.14 -2.7935 7.20758 0
M  V30 11009 C 1519.08 -1.7299 7.50419 0
M  V30 11010 C 1518.35 -0.406376 7.57911 0
M  V30 11011 O 1518.14 0.0897726 6.21935 0
M  V30 11012 C 1516.95 -0.447224 8.1878 0
M  V30 11013 O 1516.56 0.825065 8.71101 0
M  V30 11014 C 1516.07 -0.783801 6.99623 0
M  V30 11015 C 1516.78 -0.0619192 5.85967 0
M  V30 11016 N 1516.73 -0.7859 4.56281 0
M  V30 11017 H 1519.57 -1.93423 8.4679 0
M  V30 11018 H 1519.84 -1.68181 6.71046 0
M  V30 11019 H 1518.97 0.289041 8.15388 0
M  V30 11020 P 1515.01 1.17771 8.83182 0
M  V30 11021 O 1514.79 2.07206 9.98732 0
M  V30 11022 O 1514.22 -0.0743816 8.81969 0
M  V30 11023 O 1514.76 1.97678 7.474 0
M  V30 11024 C 1515.7 3.01133 7.08783 0
M  V30 11025 C 1514.97 4.1203 6.37546 0
M  V30 11026 O 1514.76 3.72887 4.9796 0
M  V30 11027 C 1513.57 4.45085 6.88694 0
M  V30 11028 O 1513.18 5.78836 6.56315 0
M  V30 11029 C 1512.69 3.47817 6.12078 0
M  V30 11030 C 1513.4 3.39414 4.77697 0
M  V30 11031 N 1513.35 2.04615 4.15333 0
M  V30 11032 C 1513.2 1.96929 2.77162 0
M  V30 11033 O 1513.11 3.02017 2.12006 0
M  V30 11034 N 1513.15 0.55485 2.24237 0
M  V30 11035 C 1513.25 -0.367808 2.9169 0
M  V30 11036 N 1513.2 -1.53426 2.29427 0
M  V30 11037 C 1513.4 -0.319148 4.33828 0
M  V30 11038 C 1513.45 0.920672 4.90433 0
M  V30 11039 H 1516.19 3.41209 7.98667 0
M  V30 11040 H 1516.46 2.5837 6.41742 0
M  V30 11041 H 1515.59 5.02718 6.42752 0
M  V30 11042 H 1512.94 4.11779 4.09026 0
M  V30 11043 H 1512.66 2.49661 6.61772 0
M  V30 11044 H 1511.67 3.86674 6.00946 0
M  V30 11045 H 1513.5 4.29991 7.97006 0
M  V30 11046 H 1513.57 1.00589 5.98303 0
M  V30 11047 H 1513.47 -1.22639 4.93799 0
M  V30 11048 H 1513.08 -1.56819 1.27167 0
M  V30 11049 H 1513.28 -2.41062 2.83063 0
M  V30 11050 P 1511.63 6.144 6.45285 0
M  V30 11051 O 1511.41 7.54673 6.86199 0
M  V30 11052 O 1510.84 5.12391 7.179 0
M  V30 11053 O 1511.38 5.99158 4.88404 0
M  V30 11054 C 1512.32 6.60234 3.96415 0
M  V30 11055 C 1511.59 7.08259 2.72856 0
M  V30 11056 O 1511.38 5.9427 1.83651 0
M  V30 11057 C 1510.19 7.64886 2.9555 0
M  V30 11058 O 1509.8 8.53963 1.90717 0
M  V30 11059 C 1509.31 6.4116 2.90739 0
M  V30 11060 C 1510.02 5.55375 1.86963 0
M  V30 11061 N 1509.97 4.09664 2.15742 0
M  V30 11062 H 1512.81 7.45574 4.45629 0
M  V30 11063 H 1513.08 5.86232 3.67314 0
M  V30 11064 H 1512.21 7.84412 2.24479 0
M  V30 11065 P 1508.25 8.7635 1.60911 0
M  V30 11066 O 1508.03 10.1388 1.11561 0
M  V30 11067 O 1507.46 8.36503 2.79617 0
M  V30 11068 O 1508 7.71806 0.42951 0
M  V30 11069 C 1508.94 7.67148 -0.673689 0
M  V30 11070 C 1508.21 7.33374 -1.95559 0
M  V30 11071 O 1508 5.88721 -2.00726 0
M  V30 11072 C 1506.81 7.92526 -2.10483 0
M  V30 11073 O 1506.42 8.02971 -3.47653 0
M  V30 11074 C 1505.93 6.89602 -1.41652 0
M  V30 11075 C 1506.64 5.59201 -1.75185 0
M  V30 11076 N 1506.59 4.58235 -0.662552 0
M  V30 11077 H 1509.43 8.65116 -0.777161 0
M  V30 11078 H 1509.7 6.90173 -0.474152 0
M  V30 11079 H 1508.83 7.66548 -2.79458 0
M  V30 11080 P 1504.87 8.03563 -3.84925 0
M  V30 11081 O 1504.65 8.85821 -5.0569 0
M  V30 11082 O 1504.08 8.41101 -2.65469 0
M  V30 11083 O 1504.62 6.4965 -4.18908 0
M  V30 11084 C 1505.56 5.80886 -5.05289 0
M  V30 11085 C 1504.83 4.78366 -5.89277 0
M  V30 11086 O 1504.62 3.58302 -5.08433 0
M  V30 11087 C 1503.43 5.16748 -6.36559 0
M  V30 11088 O 1503.04 4.45271 -7.53232 0
M  V30 11089 C 1502.55 4.74572 -5.19863 0
M  V30 11090 C 1503.26 3.49373 -4.70338 0
M  V30 11091 N 1503.21 3.31704 -3.22876 0
M  V30 11092 C 1503.06 2.03326 -2.74871 0
M  V30 11093 O 1502.97 1.06486 -3.48076 0
M  V30 11094 N 1503.02 1.91838 -1.37456 0
M  V30 11095 C 1503.11 2.94295 -0.462035 0
M  V30 11096 O 1503.06 2.71763 0.752928 0
M  V30 11097 C 1503.26 4.25064 -1.05249 0
M  V30 11098 C 1503.37 5.39815 -0.095697 0
M  V30 11099 C 1503.31 4.40214 -2.39192 0
M  V30 11100 H 1506.05 6.54063 -5.71245 0
M  V30 11101 H 1506.32 5.30339 -4.43905 0
M  V30 11102 H 1505.45 4.55889 -6.76652 0
M  V30 11103 H 1502.8 2.6167 -5.17842 0
M  V30 11104 H 1502.52 5.52155 -4.41878 0
M  V30 11105 H 1501.53 4.51918 -5.53297 0
M  V30 11106 H 1503.36 6.25055 -6.55162 0
M  V30 11107 H 1503.43 5.39798 -2.81523 0
M  V30 11108 H 1502.4 5.91593 -0.0279582 0
M  V30 11109 H 1504.14 6.10038 -0.450573 0
M  V30 11110 H 1503.65 5.02007 0.89937 0
M  V30 11111 H 1502.92 0.995326 -1.00435 0
M  V30 11112 P 1501.49 4.23843 -7.83734 0
M  V30 11113 O 1501.27 4.19407 -9.29784 0
M  V30 11114 O 1500.7 5.24426 -7.09156 0
M  V30 11115 O 1501.24 2.7935 -7.20758 0
M  V30 11116 C 1502.18 1.7299 -7.50419 0
M  V30 11117 C 1501.45 0.406376 -7.57911 0
M  V30 11118 O 1501.24 -0.0897726 -6.21935 0
M  V30 11119 C 1500.05 0.447224 -8.1878 0
M  V30 11120 O 1499.66 -0.825065 -8.71101 0
M  V30 11121 C 1499.17 0.783801 -6.99623 0
M  V30 11122 C 1499.88 0.0619192 -5.85967 0
M  V30 11123 N 1499.83 0.7859 -4.56281 0
M  V30 11124 H 1502.67 1.93423 -8.4679 0
M  V30 11125 H 1502.94 1.68181 -6.71046 0
M  V30 11126 H 1502.07 -0.289041 -8.15388 0
M  V30 11127 P 1498.11 -1.17771 -8.83182 0
M  V30 11128 O 1497.89 -2.07206 -9.98732 0
M  V30 11129 O 1497.32 0.0743816 -8.81969 0
M  V30 11130 O 1497.86 -1.97652 -7.47304 0
M  V30 11131 C 1498.8 -3.01055 -7.08599 0
M  V30 11132 C 1498.07 -4.12613 -6.37049 0
M  V30 11133 O 1497.86 -3.72827 -4.97879 0
M  V30 11134 C 1496.67 -4.45719 -6.88164 0
M  V30 11135 O 1496.28 -5.7877 -6.5624 0
M  V30 11136 C 1495.79 -3.47768 -6.11991 0
M  V30 11137 C 1496.5 -3.39356 -4.77615 0
M  V30 11138 N 1496.45 -2.04571 -4.15244 0
M  V30 11139 C 1496.3 -1.98587 -2.78314 0
M  V30 11140 O 1496.21 -2.98134 -2.08835 0
M  V30 11141 N 1496.26 -0.714467 -2.24925 0
M  V30 11142 C 1496.35 0.470001 -2.94169 0
M  V30 11143 O 1496.3 1.55587 -2.35195 0
M  V30 11144 C 1496.5 0.312541 -4.36783 0
M  V30 11145 C 1496.61 1.57711 -5.16352 0
M  V30 11146 C 1496.55 -0.914512 -4.92583 0
M  V30 11147 H 1499.29 -3.41169 -7.98575 0
M  V30 11148 H 1499.56 -2.58295 -6.41556 0
M  V30 11149 H 1498.69 -5.02657 -6.42673 0
M  V30 11150 H 1496.04 -4.11637 -4.08885 0
M  V30 11151 H 1495.76 -2.49626 -6.61679 0
M  V30 11152 H 1494.77 -3.86566 -6.00778 0
M  V30 11153 H 1496.6 -4.29943 -7.96918 0
M  V30 11154 H 1496.67 -1.00937 -6.00374 0
M  V30 11155 H 1495.64 1.80153 -5.63503 0
M  V30 11156 H 1497.38 1.4566 -5.94104 0
M  V30 11157 H 1496.89 2.40664 -4.49645 0
M  V30 11158 H 1496.16 -0.647622 -1.25697 0
M  V30 11159 P 1494.73 -6.144 -6.45285 0
M  V30 11160 O 1494.51 -7.54673 -6.86199 0
M  V30 11161 O 1493.94 -5.12391 -7.179 0
M  V30 11162 O 1494.48 -5.99158 -4.88404 0
M  V30 11163 C 1495.42 -6.60062 -3.96313 0
M  V30 11164 C 1494.69 -7.08259 -2.72856 0
M  V30 11165 O 1494.48 -5.9427 -1.83651 0
M  V30 11166 C 1493.29 -7.65087 -2.94749 0
M  V30 11167 O 1492.9 -8.53963 -1.90717 0
M  V30 11168 C 1492.41 -6.41069 -2.90698 0
M  V30 11169 C 1493.12 -5.5528 -1.86931 0
M  V30 11170 N 1493.07 -4.09575 -2.15696 0
M  V30 11171 C 1492.92 -3.24249 -1.08435 0
M  V30 11172 O 1492.83 -3.63946 0.0628747 0
M  V30 11173 N 1492.88 -1.90009 -1.39973 0
M  V30 11174 C 1492.97 -1.34884 -2.65614 0
M  V30 11175 C 1493.12 -2.3145 -3.71736 0
M  V30 11176 C 1493.17 -3.63518 -3.44754 0
M  V30 11177 H 1495.91 -7.45402 -4.45526 0
M  V30 11178 H 1496.18 -5.86062 -3.67208 0
M  V30 11179 H 1495.31 -7.84412 -2.24479 0
M  V30 11180 H 1492.66 -5.73358 -0.888409 0
M  V30 11181 H 1492.38 -5.90877 -3.88583 0
M  V30 11182 H 1491.39 -6.65867 -2.58821 0
M  V30 11183 H 1493.22 -8.16248 -3.92006 0
M  V30 11184 H 1493.29 -4.34551 -4.26383 0
M  V30 11185 P 1491.35 -8.7635 -1.60911 0
M  V30 11186 O 1491.13 -10.1388 -1.11561 0
M  V30 11187 O 1490.56 -8.36503 -2.79617 0
M  V30 11188 O 1491.1 -7.71806 -0.42951 0
M  V30 11189 C 1492.04 -7.66948 0.673514 0
M  V30 11190 C 1491.31 -7.33374 1.95559 0
M  V30 11191 O 1491.1 -5.88721 2.00726 0
M  V30 11192 C 1489.91 -7.92218 2.1125 0
M  V30 11193 O 1489.52 -8.02971 3.47653 0
M  V30 11194 C 1489.03 -6.89504 1.41631 0
M  V30 11195 C 1489.74 -5.59106 1.75155 0
M  V30 11196 N 1489.69 -4.58136 0.662409 0
M  V30 11197 C 1489.54 -3.26059 1.02863 0
M  V30 11198 O 1489.45 -2.90743 2.19009 0
M  V30 11199 N 1489.5 -2.35995 -0.0155585 0
M  V30 11200 C 1489.59 -2.65248 -1.35603 0
M  V30 11201 C 1489.74 -4.05747 -1.64698 0
M  V30 11202 C 1489.79 -4.96734 -0.652411 0
M  V30 11203 H 1492.53 -8.64917 0.776982 0
M  V30 11204 H 1492.8 -6.89974 0.474015 0
M  V30 11205 H 1491.93 -7.66548 2.79458 0
M  V30 11206 H 1489.28 -5.16076 2.65138 0
M  V30 11207 H 1489 -7.06433 0.329384 0
M  V30 11208 H 1488.01 -6.90829 1.81996 0
M  V30 11209 H 1489.84 -8.90774 1.62639 0
M  V30 11210 H 1489.91 -6.02181 -0.895285 0
M  V30 11211 P 1487.97 -8.03563 3.84925 0
M  V30 11212 O 1487.75 -8.85821 5.0569 0
M  V30 11213 O 1487.18 -8.41101 2.65469 0
M  V30 11214 O 1487.72 -6.4965 4.18908 0
M  V30 11215 C 1488.66 -5.81037 5.05421 0
M  V30 11216 C 1487.93 -4.78366 5.89277 0
M  V30 11217 O 1487.72 -3.58302 5.08433 0
M  V30 11218 C 1486.53 -5.17448 6.36119 0
M  V30 11219 O 1486.14 -4.45271 7.53232 0
M  V30 11220 C 1485.65 -4.74639 5.19936 0
M  V30 11221 C 1486.36 -3.49432 4.70418 0
M  V30 11222 N 1486.31 -3.31776 3.22945 0
M  V30 11223 H 1489.15 -6.54213 5.71376 0
M  V30 11224 H 1489.42 -5.30492 4.44033 0
M  V30 11225 H 1488.55 -4.55889 6.76652 0
M  V30 11226 P 1484.59 -4.23843 7.83734 0
M  V30 11227 O 1484.37 -4.19407 9.29784 0
M  V30 11228 O 1483.8 -5.24426 7.09156 0
M  V30 11229 O 1484.34 -2.7935 7.20758 0
M  V30 11230 C 1485.28 -1.7299 7.50419 0
M  V30 11231 C 1484.55 -0.406376 7.57911 0
M  V30 11232 O 1484.34 0.0897726 6.21935 0
M  V30 11233 C 1483.15 -0.447224 8.1878 0
M  V30 11234 O 1482.76 0.825065 8.71101 0
M  V30 11235 C 1482.27 -0.783801 6.99623 0
M  V30 11236 C 1482.98 -0.0619192 5.85967 0
M  V30 11237 N 1482.93 -0.7859 4.56281 0
M  V30 11238 C 1483.01 -2.14308 4.31736 0
M  V30 11239 N 1482.93 -2.46106 3.05116 0
M  V30 11240 C 1482.79 -1.23422 2.4014 0
M  V30 11241 C 1482.66 -0.938381 1.02409 0
M  V30 11242 N 1482.54 0.444647 0.805413 0
M  V30 11243 C 1482.54 1.40829 1.79435 0
M  V30 11244 N 1482.41 2.67213 1.38558 0
M  V30 11245 N 1482.67 1.12947 3.09005 0
M  V30 11246 C 1482.79 -0.204887 3.32369 0
M  V30 11247 H 1485.77 -1.93423 8.4679 0
M  V30 11248 H 1486.04 -1.68181 6.71046 0
M  V30 11249 H 1485.17 0.289041 8.15388 0
M  V30 11250 P 1481.21 1.17771 8.83182 0
M  V30 11251 O 1480.99 2.07206 9.98732 0
M  V30 11252 O 1480.42 -0.0743816 8.81969 0
M  V30 11253 O 1480.96 1.97652 7.47304 0
M  V30 11254 C 1481.9 3.01133 7.08783 0
M  V30 11255 C 1481.17 4.12613 6.37049 0
M  V30 11256 O 1480.96 3.72827 4.97879 0
M  V30 11257 C 1479.77 4.45085 6.88694 0
M  V30 11258 O 1479.38 5.7877 6.5624 0
M  V30 11259 C 1478.89 3.47817 6.12078 0
M  V30 11260 C 1479.6 3.39414 4.77697 0
M  V30 11261 N 1479.55 2.04615 4.15333 0
M  V30 11262 H 1482.39 3.41248 7.98759 0
M  V30 11263 H 1482.66 2.5837 6.41742 0
M  V30 11264 H 1481.79 5.02657 6.42673 0
M  V30 11265 P 1477.83 6.144 6.45285 0
M  V30 11266 O 1477.61 7.54673 6.86199 0
M  V30 11267 O 1477.04 5.12391 7.179 0
M  V30 11268 O 1477.58 5.99158 4.88404 0
M  V30 11269 C 1478.52 6.60234 3.96415 0
M  V30 11270 C 1477.79 7.08259 2.72856 0
M  V30 11271 O 1477.58 5.9427 1.83651 0
M  V30 11272 C 1476.39 7.64886 2.9555 0
M  V30 11273 O 1476 8.53963 1.90717 0
M  V30 11274 C 1475.51 6.4116 2.90739 0
M  V30 11275 C 1476.22 5.55375 1.86963 0
M  V30 11276 N 1476.17 4.09664 2.15742 0
M  V30 11277 C 1476.25 3.44381 3.37233 0
M  V30 11278 N 1476.17 2.14131 3.28347 0
M  V30 11279 C 1476.03 1.90247 1.91588 0
M  V30 11280 C 1475.9 0.683992 1.20892 0
M  V30 11281 O 1475.88 -0.46618 1.64523 0
M  V30 11282 N 1475.78 0.903396 -0.173998 0
M  V30 11283 C 1475.78 2.14171 -0.784879 0
M  V30 11284 N 1475.65 2.1435 -2.11317 0
M  V30 11285 N 1475.91 3.28784 -0.119316 0
M  V30 11286 C 1476.03 3.0977 1.22194 0
M  V30 11287 H 1479.01 7.45574 4.45629 0
M  V30 11288 H 1479.28 5.86232 3.67314 0
M  V30 11289 H 1478.41 7.84412 2.24479 0
M  V30 11290 H 1475.76 5.73556 0.888715 0
M  V30 11291 H 1475.48 5.9096 3.88638 0
M  V30 11292 H 1474.49 6.66053 2.58894 0
M  V30 11293 H 1476.32 8.16429 3.92093 0
M  V30 11294 H 1476.37 3.96785 4.32043 0
M  V30 11295 H 1475.69 0.0999567 -0.761467 0
M  V30 11296 H 1475.65 3.03436 -2.63076 0
M  V30 11297 H 1475.55 1.25228 -2.62233 0
M  V30 11298 P 1474.45 8.7635 1.60911 0
M  V30 11299 O 1474.23 10.1388 1.11561 0
M  V30 11300 O 1473.66 8.36503 2.79617 0
M  V30 11301 O 1474.2 7.71806 0.42951 0
M  V30 11302 C 1475.14 7.67148 -0.673689 0
M  V30 11303 C 1474.41 7.33374 -1.95559 0
M  V30 11304 O 1474.2 5.88721 -2.00726 0
M  V30 11305 C 1473.01 7.92526 -2.10483 0
M  V30 11306 O 1472.62 8.02971 -3.47653 0
M  V30 11307 C 1472.13 6.89602 -1.41652 0
M  V30 11308 C 1472.84 5.59201 -1.75185 0
M  V30 11309 N 1472.79 4.58235 -0.662552 0
M  V30 11310 H 1475.63 8.65116 -0.777161 0
M  V30 11311 H 1475.9 6.90173 -0.474152 0
M  V30 11312 H 1475.03 7.66548 -2.79458 0
M  V30 11313 P 1471.07 8.03563 -3.84925 0
M  V30 11314 O 1470.85 8.85821 -5.0569 0
M  V30 11315 O 1470.28 8.41101 -2.65469 0
M  V30 11316 O 1470.82 6.4965 -4.18908 0
M  V30 11317 C 1471.76 5.81037 -5.05421 0
M  V30 11318 C 1471.03 4.78366 -5.89277 0
M  V30 11319 O 1470.82 3.58302 -5.08433 0
M  V30 11320 C 1469.63 5.17448 -6.36119 0
M  V30 11321 O 1469.24 4.45271 -7.53232 0
M  V30 11322 C 1468.75 4.74639 -5.19936 0
M  V30 11323 C 1469.46 3.49432 -4.70418 0
M  V30 11324 N 1469.41 3.31776 -3.22945 0
M  V30 11325 H 1472.25 6.54213 -5.71376 0
M  V30 11326 H 1472.52 5.30492 -4.44033 0
M  V30 11327 H 1471.65 4.55889 -6.76652 0
M  V30 11328 P 1467.69 4.23843 -7.83734 0
M  V30 11329 O 1467.47 4.19407 -9.29784 0
M  V30 11330 O 1466.9 5.24426 -7.09156 0
M  V30 11331 O 1467.44 2.7935 -7.20758 0
M  V30 11332 C 1468.38 1.7299 -7.50419 0
M  V30 11333 C 1467.65 0.406376 -7.57911 0
M  V30 11334 O 1467.44 -0.0897726 -6.21935 0
M  V30 11335 C 1466.25 0.447224 -8.1878 0
M  V30 11336 O 1465.86 -0.825065 -8.71101 0
M  V30 11337 C 1465.37 0.783801 -6.99623 0
M  V30 11338 C 1466.08 0.0619192 -5.85967 0
M  V30 11339 N 1466.03 0.7859 -4.56281 0
M  V30 11340 H 1468.87 1.93423 -8.4679 0
M  V30 11341 H 1469.14 1.68181 -6.71046 0
M  V30 11342 H 1468.27 -0.289041 -8.15388 0
M  V30 11343 P 1464.31 -1.17771 -8.83182 0
M  V30 11344 O 1464.09 -2.07206 -9.98732 0
M  V30 11345 O 1463.52 0.0743816 -8.81969 0
M  V30 11346 O 1464.06 -1.97652 -7.47304 0
M  V30 11347 C 1465 -3.01133 -7.08783 0
M  V30 11348 C 1464.27 -4.12613 -6.37049 0
M  V30 11349 O 1464.06 -3.72827 -4.97879 0
M  V30 11350 C 1462.87 -4.45085 -6.88694 0
M  V30 11351 O 1462.48 -5.7877 -6.5624 0
M  V30 11352 C 1461.99 -3.47817 -6.12078 0
M  V30 11353 C 1462.7 -3.39414 -4.77697 0
M  V30 11354 N 1462.65 -2.04199 -4.15538 0
M  V30 11355 H 1465.49 -3.41248 -7.98759 0
M  V30 11356 H 1465.76 -2.57728 -6.42 0
M  V30 11357 H 1464.89 -5.02657 -6.42673 0
M  V30 11358 H 1462.24 -4.11708 -4.08956 0
M  V30 11359 H 1461.96 -2.49626 -6.61679 0
M  V30 11360 H 1460.97 -3.8662 -6.00862 0
M  V30 11361 H 1462.8 -4.29991 -7.97006 0
M  V30 11362 P 1460.93 -6.144 -6.45285 0
M  V30 11363 O 1460.71 -7.54673 -6.86199 0
M  V30 11364 O 1460.14 -5.12391 -7.179 0
M  V30 11365 O 1460.68 -5.99158 -4.88404 0
M  V30 11366 C 1461.62 -6.60234 -3.96415 0
M  V30 11367 C 1460.89 -7.08259 -2.72856 0
M  V30 11368 O 1460.68 -5.9427 -1.83651 0
M  V30 11369 C 1459.49 -7.64886 -2.9555 0
M  V30 11370 O 1459.1 -8.53963 -1.90717 0
M  V30 11371 C 1458.61 -6.4116 -2.90739 0
M  V30 11372 C 1459.32 -5.55375 -1.86963 0
M  V30 11373 N 1459.27 -4.09664 -2.15742 0
M  V30 11374 H 1462.11 -7.45574 -4.45629 0
M  V30 11375 H 1462.38 -5.86232 -3.67314 0
M  V30 11376 H 1461.51 -7.84412 -2.24479 0
M  V30 11377 P 1457.55 -8.7635 -1.60911 0
M  V30 11378 O 1457.33 -10.1388 -1.11561 0
M  V30 11379 O 1456.76 -8.36503 -2.79617 0
M  V30 11380 O 1457.3 -7.71806 -0.42951 0
M  V30 11381 C 1458.24 -7.66948 0.673514 0
M  V30 11382 C 1457.51 -7.33374 1.95559 0
M  V30 11383 O 1457.3 -5.88721 2.00726 0
M  V30 11384 C 1456.11 -7.92218 2.1125 0
M  V30 11385 O 1455.72 -8.02971 3.47653 0
M  V30 11386 C 1455.23 -6.89504 1.41631 0
M  V30 11387 C 1455.94 -5.59106 1.75155 0
M  V30 11388 N 1455.89 -4.58136 0.662409 0
M  V30 11389 C 1455.74 -3.26059 1.02863 0
M  V30 11390 O 1455.65 -2.90743 2.19009 0
M  V30 11391 N 1455.7 -2.35995 -0.0155585 0
M  V30 11392 C 1455.79 -2.65248 -1.35603 0
M  V30 11393 C 1455.94 -4.05747 -1.64698 0
M  V30 11394 C 1455.99 -4.96734 -0.652411 0
M  V30 11395 H 1458.73 -8.64917 0.776982 0
M  V30 11396 H 1459 -6.89974 0.474015 0
M  V30 11397 H 1458.13 -7.66548 2.79458 0
M  V30 11398 H 1455.48 -5.16076 2.65138 0
M  V30 11399 H 1455.2 -7.06433 0.329384 0
M  V30 11400 H 1454.21 -6.90829 1.81996 0
M  V30 11401 H 1456.04 -8.90774 1.62639 0
M  V30 11402 H 1456.11 -6.02181 -0.895285 0
M  V30 11403 P 1454.17 -8.03563 3.84925 0
M  V30 11404 O 1453.95 -8.85821 5.0569 0
M  V30 11405 O 1453.38 -8.41101 2.65469 0
M  V30 11406 O 1453.92 -6.4965 4.18908 0
M  V30 11407 C 1454.86 -5.81037 5.05421 0
M  V30 11408 C 1454.13 -4.78366 5.89277 0
M  V30 11409 O 1453.92 -3.58302 5.08433 0
M  V30 11410 C 1452.73 -5.17448 6.36119 0
M  V30 11411 O 1452.34 -4.45271 7.53232 0
M  V30 11412 C 1451.85 -4.74639 5.19936 0
M  V30 11413 C 1452.56 -3.49432 4.70418 0
M  V30 11414 N 1452.51 -3.31776 3.22945 0
M  V30 11415 H 1455.35 -6.54213 5.71376 0
M  V30 11416 H 1455.62 -5.30492 4.44033 0
M  V30 11417 H 1454.75 -4.55889 6.76652 0
M  V30 11418 P 1450.79 -4.23843 7.83734 0
M  V30 11419 O 1450.57 -4.19407 9.29784 0
M  V30 11420 O 1450 -5.24426 7.09156 0
M  V30 11421 O 1450.54 -2.7935 7.20758 0
M  V30 11422 C 1451.48 -1.72945 7.50224 0
M  V30 11423 C 1450.75 -0.406376 7.57911 0
M  V30 11424 O 1450.54 0.0897726 6.21935 0
M  V30 11425 C 1449.35 -0.438983 8.18724 0
M  V30 11426 O 1448.96 0.825065 8.71101 0
M  V30 11427 C 1448.47 -0.783689 6.99524 0
M  V30 11428 C 1449.18 -0.0619086 5.85867 0
M  V30 11429 N 1449.13 -0.78573 4.56183 0
M  V30 11430 C 1448.98 -0.0292889 3.41887 0
M  V30 11431 O 1448.89 1.18445 3.4419 0
M  V30 11432 N 1448.94 -0.744061 2.23964 0
M  V30 11433 C 1449.03 -2.10932 2.10362 0
M  V30 11434 O 1448.98 -2.64117 0.98825 0
M  V30 11435 C 1449.18 -2.8202 3.34994 0
M  V30 11436 C 1449.29 -4.31095 3.25037 0
M  V30 11437 C 1449.23 -2.15547 4.52261 0
M  V30 11438 H 1451.97 -1.93379 8.46595 0
M  V30 11439 H 1452.24 -1.68132 6.70852 0
M  V30 11440 H 1451.37 0.289041 8.15388 0
M  V30 11441 H 1448.72 0.926847 5.72749 0
M  V30 11442 H 1448.44 -1.86973 6.82036 0
M  V30 11443 H 1447.45 -0.403896 7.13257 0
M  V30 11444 H 1449.28 -1.20585 8.97435 0
M  V30 11445 H 1449.35 -2.71231 5.45042 0
M  V30 11446 H 1448.32 -4.76966 3.49992 0
M  V30 11447 H 1450.06 -4.67047 3.95024 0
M  V30 11448 H 1449.57 -4.58996 2.22312 0
M  V30 11449 H 1448.84 -0.214893 1.39758 0
M  V30 11450 P 1447.41 1.17771 8.83182 0
M  V30 11451 O 1447.19 2.07206 9.98732 0
M  V30 11452 O 1446.62 -0.0743816 8.81969 0
M  V30 11453 O 1447.16 1.97652 7.47304 0
M  V30 11454 C 1448.1 3.01133 7.08783 0
M  V30 11455 C 1447.37 4.12613 6.37049 0
M  V30 11456 O 1447.16 3.72827 4.97879 0
M  V30 11457 C 1445.97 4.45085 6.88694 0
M  V30 11458 O 1445.58 5.7877 6.5624 0
M  V30 11459 C 1445.09 3.47817 6.12078 0
M  V30 11460 C 1445.8 3.39414 4.77697 0
M  V30 11461 N 1445.75 2.04199 4.15538 0
M  V30 11462 H 1448.59 3.41248 7.98759 0
M  V30 11463 H 1448.86 2.57728 6.42 0
M  V30 11464 H 1447.99 5.02657 6.42673 0
M  V30 11465 H 1445.34 4.11708 4.08956 0
M  V30 11466 H 1445.06 2.49626 6.61679 0
M  V30 11467 H 1444.07 3.8662 6.00862 0
M  V30 11468 H 1445.9 4.29991 7.97006 0
M  V30 11469 P 1444.03 6.144 6.45285 0
M  V30 11470 O 1443.81 7.54673 6.86199 0
M  V30 11471 O 1443.24 5.12391 7.179 0
M  V30 11472 O 1443.78 5.99158 4.88404 0
M  V30 11473 C 1444.72 6.60234 3.96415 0
M  V30 11474 C 1443.99 7.08259 2.72856 0
M  V30 11475 O 1443.78 5.9427 1.83651 0
M  V30 11476 C 1442.59 7.64886 2.9555 0
M  V30 11477 O 1442.2 8.53963 1.90717 0
M  V30 11478 C 1441.71 6.4116 2.90739 0
M  V30 11479 C 1442.42 5.55375 1.86963 0
M  V30 11480 N 1442.37 4.09664 2.15742 0
M  V30 11481 H 1445.21 7.45574 4.45629 0
M  V30 11482 H 1445.48 5.86232 3.67314 0
M  V30 11483 H 1444.61 7.84412 2.24479 0
M  V30 11484 P 1440.65 8.7635 1.60911 0
M  V30 11485 O 1440.43 10.1388 1.11561 0
M  V30 11486 O 1439.86 8.36503 2.79617 0
M  V30 11487 O 1440.4 7.71806 0.42951 0
M  V30 11488 C 1441.34 7.67148 -0.673689 0
M  V30 11489 C 1440.61 7.33374 -1.95559 0
M  V30 11490 O 1440.4 5.88721 -2.00726 0
M  V30 11491 C 1439.21 7.92526 -2.10483 0
M  V30 11492 O 1438.82 8.02971 -3.47653 0
M  V30 11493 C 1438.33 6.89602 -1.41652 0
M  V30 11494 C 1439.04 5.59201 -1.75185 0
M  V30 11495 N 1438.99 4.58301 -0.657969 0
M  V30 11496 C 1439.07 4.79019 0.692603 0
M  V30 11497 N 1439 3.69736 1.38998 0
M  V30 11498 C 1438.85 2.70474 0.438135 0
M  V30 11499 C 1438.72 1.30327 0.538142 0
M  V30 11500 N 1438.71 0.64304 1.69192 0
M  V30 11501 N 1438.6 0.611027 -0.605183 0
M  V30 11502 C 1438.61 1.27002 -1.75953 0
M  V30 11503 N 1438.73 2.56038 -1.98546 0
M  V30 11504 C 1438.85 3.22681 -0.822541 0
M  V30 11505 H 1441.83 8.65116 -0.777161 0
M  V30 11506 H 1442.1 6.9022 -0.46725 0
M  V30 11507 H 1441.23 7.66548 -2.79458 0
M  V30 11508 H 1438.58 5.16165 -2.65183 0
M  V30 11509 H 1438.3 7.06433 -0.329384 0
M  V30 11510 H 1437.31 6.90926 -1.82021 0
M  V30 11511 H 1439.14 8.90873 -1.62657 0
M  V30 11512 H 1439.18 5.77785 1.13874 0
M  V30 11513 H 1438.8 1.15585 2.57991 0
M  V30 11514 H 1438.61 -0.382989 1.69835 0
M  V30 11515 H 1438.51 0.653331 -2.64449 0
M  V30 11516 P 1437.27 8.03563 -3.84925 0
M  V30 11517 O 1437.05 8.85821 -5.0569 0
M  V30 11518 O 1436.48 8.41101 -2.65469 0
M  V30 11519 O 1437.02 6.4965 -4.18908 0
M  V30 11520 C 1437.96 5.81037 -5.05421 0
M  V30 11521 C 1437.23 4.78366 -5.89277 0
M  V30 11522 O 1437.02 3.58302 -5.08433 0
M  V30 11523 C 1435.83 5.17448 -6.36119 0
M  V30 11524 O 1435.44 4.45271 -7.53232 0
M  V30 11525 C 1434.95 4.74639 -5.19936 0
M  V30 11526 C 1435.66 3.49432 -4.70418 0
M  V30 11527 N 1435.61 3.32099 -3.22613 0
M  V30 11528 H 1438.45 6.54213 -5.71376 0
M  V30 11529 H 1438.72 5.30936 -4.43503 0
M  V30 11530 H 1437.85 4.55889 -6.76652 0
M  V30 11531 H 1435.2 2.61715 -5.17932 0
M  V30 11532 H 1434.92 5.52155 -4.41878 0
M  V30 11533 H 1433.93 4.51981 -5.53374 0
M  V30 11534 H 1435.76 6.25124 -6.55234 0
M  V30 11535 P 1433.89 4.23843 -7.83734 0
M  V30 11536 O 1433.67 4.19407 -9.29784 0
M  V30 11537 O 1433.1 5.24426 -7.09156 0
M  V30 11538 O 1433.64 2.79386 -7.20852 0
M  V30 11539 C 1434.58 1.7299 -7.50419 0
M  V30 11540 C 1433.85 0.41401 -7.5797 0
M  V30 11541 O 1433.64 -0.089787 -6.22035 0
M  V30 11542 C 1432.45 0.447224 -8.1878 0
M  V30 11543 O 1432.06 -0.825159 -8.71201 0
M  V30 11544 C 1431.57 0.783801 -6.99623 0
M  V30 11545 C 1432.28 0.0619192 -5.85967 0
M  V30 11546 N 1432.23 0.7859 -4.56281 0
M  V30 11547 C 1432.08 0.0359258 -3.39981 0
M  V30 11548 O 1431.99 -1.19723 -3.49038 0
M  V30 11549 N 1432.03 0.869151 -2.14025 0
M  V30 11550 C 1432.13 2.01207 -2.14363 0
M  V30 11551 N 1432.08 2.58978 -0.954287 0
M  V30 11552 C 1432.28 2.80817 -3.32215 0
M  V30 11553 C 1432.33 2.13785 -4.50884 0
M  V30 11554 H 1435.07 1.93401 -8.46693 0
M  V30 11555 H 1435.34 1.68181 -6.71046 0
M  V30 11556 H 1434.47 -0.289076 -8.15488 0
M  V30 11557 H 1431.82 -0.927166 -5.72947 0
M  V30 11558 H 1431.54 1.87 -6.82132 0
M  V30 11559 H 1430.55 0.404009 -7.13457 0
M  V30 11560 H 1432.38 1.20599 -8.97534 0
M  V30 11561 H 1432.45 2.70295 -5.43162 0
M  V30 11562 H 1432.35 3.89465 -3.27406 0
M  V30 11563 H 1431.96 2.01616 -0.107046 0
M  V30 11564 H 1432.16 3.61403 -0.873101 0
M  V30 11565 P 1430.51 -1.17771 -8.83182 0
M  V30 11566 O 1430.29 -2.07206 -9.98732 0
M  V30 11567 O 1429.72 0.0743816 -8.81969 0
M  V30 11568 O 1430.26 -1.97652 -7.47304 0
M  V30 11569 C 1431.2 -3.01133 -7.08783 0
M  V30 11570 C 1430.47 -4.12613 -6.37049 0
M  V30 11571 O 1430.26 -3.72827 -4.97879 0
M  V30 11572 C 1429.07 -4.45085 -6.88694 0
M  V30 11573 O 1428.68 -5.7877 -6.5624 0
M  V30 11574 C 1428.19 -3.47817 -6.12078 0
M  V30 11575 C 1428.9 -3.39414 -4.77697 0
M  V30 11576 N 1428.85 -2.04615 -4.15333 0
M  V30 11577 H 1431.69 -3.41248 -7.98759 0
M  V30 11578 H 1431.96 -2.5837 -6.41742 0
M  V30 11579 H 1431.09 -5.02657 -6.42673 0
M  V30 11580 P 1427.13 -6.144 -6.45285 0
M  V30 11581 O 1426.91 -7.54673 -6.86199 0
M  V30 11582 O 1426.34 -5.12391 -7.179 0
M  V30 11583 O 1426.88 -5.99158 -4.88404 0
M  V30 11584 C 1427.82 -6.60234 -3.96415 0
M  V30 11585 C 1427.09 -7.08259 -2.72856 0
M  V30 11586 O 1426.88 -5.9427 -1.83651 0
M  V30 11587 C 1425.69 -7.64886 -2.9555 0
M  V30 11588 O 1425.3 -8.53963 -1.90717 0
M  V30 11589 C 1424.81 -6.4116 -2.90739 0
M  V30 11590 C 1425.52 -5.55375 -1.86963 0
M  V30 11591 N 1425.47 -4.09664 -2.15742 0
M  V30 11592 H 1428.31 -7.45574 -4.45629 0
M  V30 11593 H 1428.58 -5.86232 -3.67314 0
M  V30 11594 H 1427.71 -7.84412 -2.24479 0
M  V30 11595 P 1423.75 -8.7635 -1.60911 0
M  V30 11596 O 1423.53 -10.1388 -1.11561 0
M  V30 11597 O 1422.96 -8.36503 -2.79617 0
M  V30 11598 O 1423.5 -7.71806 -0.42951 0
M  V30 11599 C 1424.44 -7.67148 0.673689 0
M  V30 11600 C 1423.71 -7.33374 1.95559 0
M  V30 11601 O 1423.5 -5.88721 2.00726 0
M  V30 11602 C 1422.31 -7.92526 2.10483 0
M  V30 11603 O 1421.92 -8.02971 3.47653 0
M  V30 11604 C 1421.43 -6.89602 1.41652 0
M  V30 11605 C 1422.14 -5.59201 1.75185 0
M  V30 11606 N 1422.09 -4.58235 0.662552 0
M  V30 11607 H 1424.93 -8.65116 0.777161 0
M  V30 11608 H 1425.2 -6.90173 0.474152 0
M  V30 11609 H 1424.33 -7.66548 2.79458 0
M  V30 11610 P 1420.37 -8.03563 3.84925 0
M  V30 11611 O 1420.15 -8.85821 5.0569 0
M  V30 11612 O 1419.58 -8.41101 2.65469 0
M  V30 11613 O 1420.12 -6.4965 4.18908 0
M  V30 11614 C 1421.06 -5.81037 5.05421 0
M  V30 11615 C 1420.33 -4.78366 5.89277 0
M  V30 11616 O 1420.12 -3.58302 5.08433 0
M  V30 11617 C 1418.93 -5.17448 6.36119 0
M  V30 11618 O 1418.54 -4.45271 7.53232 0
M  V30 11619 C 1418.05 -4.74639 5.19936 0
M  V30 11620 C 1418.76 -3.49432 4.70418 0
M  V30 11621 N 1418.71 -3.32099 3.22613 0
M  V30 11622 H 1421.55 -6.54213 5.71376 0
M  V30 11623 H 1421.82 -5.30936 4.43503 0
M  V30 11624 H 1420.95 -4.55889 6.76652 0
M  V30 11625 H 1418.3 -2.61715 5.17932 0
M  V30 11626 H 1418.02 -5.52155 4.41878 0
M  V30 11627 H 1417.03 -4.51981 5.53374 0
M  V30 11628 H 1418.86 -6.25124 6.55234 0
M  V30 11629 P 1416.99 -4.23843 7.83734 0
M  V30 11630 O 1416.77 -4.19407 9.29784 0
M  V30 11631 O 1416.2 -5.24426 7.09156 0
M  V30 11632 O 1416.74 -2.7935 7.20758 0
M  V30 11633 C 1417.68 -1.7299 7.50419 0
M  V30 11634 C 1416.95 -0.406376 7.57911 0
M  V30 11635 O 1416.74 0.0897726 6.21935 0
M  V30 11636 C 1415.55 -0.447224 8.1878 0
M  V30 11637 O 1415.16 0.825065 8.71101 0
M  V30 11638 C 1414.67 -0.783801 6.99623 0
M  V30 11639 C 1415.38 -0.0619192 5.85967 0
M  V30 11640 N 1415.33 -0.790462 4.56202 0
M  V30 11641 H 1418.17 -1.93423 8.4679 0
M  V30 11642 H 1418.44 -1.68852 6.70877 0
M  V30 11643 H 1417.57 0.289041 8.15388 0
M  V30 11644 H 1414.92 0.927006 5.72848 0
M  V30 11645 H 1414.64 -1.86973 6.82036 0
M  V30 11646 H 1413.65 -0.403953 7.13357 0
M  V30 11647 H 1415.48 -1.20599 8.97534 0
M  V30 11648 P 1413.61 1.17771 8.83182 0
M  V30 11649 O 1413.39 2.07206 9.98732 0
M  V30 11650 O 1412.82 -0.0743816 8.81969 0
M  V30 11651 O 1413.36 1.97652 7.47304 0
M  V30 11652 C 1414.3 3.01133 7.08783 0
M  V30 11653 C 1413.57 4.12613 6.37049 0
M  V30 11654 O 1413.36 3.72827 4.97879 0
M  V30 11655 C 1412.17 4.45085 6.88694 0
M  V30 11656 O 1411.78 5.7877 6.5624 0
M  V30 11657 C 1411.29 3.47817 6.12078 0
M  V30 11658 C 1412 3.39414 4.77697 0
M  V30 11659 N 1411.95 2.04615 4.15333 0
M  V30 11660 H 1414.79 3.41248 7.98759 0
M  V30 11661 H 1415.06 2.5837 6.41742 0
M  V30 11662 H 1414.19 5.02657 6.42673 0
M  V30 11663 P 1410.23 6.144 6.45285 0
M  V30 11664 O 1410.01 7.54673 6.86199 0
M  V30 11665 O 1409.44 5.12391 7.179 0
M  V30 11666 O 1409.98 5.99158 4.88404 0
M  V30 11667 C 1410.92 6.60234 3.96415 0
M  V30 11668 C 1410.19 7.08259 2.72856 0
M  V30 11669 O 1409.98 5.9427 1.83651 0
M  V30 11670 C 1408.79 7.64886 2.9555 0
M  V30 11671 O 1408.4 8.53963 1.90717 0
M  V30 11672 C 1407.91 6.4116 2.90739 0
M  V30 11673 C 1408.62 5.55375 1.86963 0
M  V30 11674 N 1408.57 4.09448 2.16152 0
M  V30 11675 H 1411.41 7.45574 4.45629 0
M  V30 11676 H 1411.68 5.85864 3.679 0
M  V30 11677 H 1410.81 7.84412 2.24479 0
M  V30 11678 H 1408.16 5.73457 0.888562 0
M  V30 11679 H 1407.88 5.90877 3.88583 0
M  V30 11680 H 1406.89 6.6596 2.58858 0
M  V30 11681 H 1408.72 8.16339 3.92049 0
M  V30 11682 P 1406.85 8.7635 1.60911 0
M  V30 11683 O 1406.63 10.1388 1.11561 0
M  V30 11684 O 1406.06 8.36503 2.79617 0
M  V30 11685 O 1406.6 7.71806 0.42951 0
M  V30 11686 C 1407.54 7.67148 -0.673689 0
M  V30 11687 C 1406.81 7.33374 -1.95559 0
M  V30 11688 O 1406.6 5.88721 -2.00726 0
M  V30 11689 C 1405.41 7.92526 -2.10483 0
M  V30 11690 O 1405.02 8.02971 -3.47653 0
M  V30 11691 C 1404.53 6.89602 -1.41652 0
M  V30 11692 C 1405.24 5.59201 -1.75185 0
M  V30 11693 N 1405.19 4.58301 -0.657969 0
M  V30 11694 H 1408.03 8.65116 -0.777161 0
M  V30 11695 H 1408.3 6.9022 -0.46725 0
M  V30 11696 H 1407.43 7.66548 -2.79458 0
M  V30 11697 H 1404.78 5.16165 -2.65183 0
M  V30 11698 H 1404.5 7.06433 -0.329384 0
M  V30 11699 H 1403.51 6.90926 -1.82021 0
M  V30 11700 H 1405.34 8.90873 -1.62657 0
M  V30 11701 P 1403.47 8.03563 -3.84925 0
M  V30 11702 O 1403.25 8.85821 -5.0569 0
M  V30 11703 O 1402.68 8.41101 -2.65469 0
M  V30 11704 O 1403.22 6.4965 -4.18908 0
M  V30 11705 C 1404.16 5.81037 -5.05421 0
M  V30 11706 C 1403.43 4.78366 -5.89277 0
M  V30 11707 O 1403.22 3.58302 -5.08433 0
M  V30 11708 C 1402.03 5.17448 -6.36119 0
M  V30 11709 O 1401.64 4.45271 -7.53232 0
M  V30 11710 C 1401.15 4.74639 -5.19936 0
M  V30 11711 C 1401.86 3.49432 -4.70418 0
M  V30 11712 N 1401.81 3.32099 -3.22613 0
M  V30 11713 H 1404.65 6.54213 -5.71376 0
M  V30 11714 H 1404.92 5.30936 -4.43503 0
M  V30 11715 H 1404.05 4.55889 -6.76652 0
M  V30 11716 H 1401.4 2.61715 -5.17932 0
M  V30 11717 H 1401.12 5.52155 -4.41878 0
M  V30 11718 H 1400.13 4.51981 -5.53374 0
M  V30 11719 H 1401.96 6.25124 -6.55234 0
M  V30 11720 P 1400.09 4.23843 -7.83734 0
M  V30 11721 O 1399.87 4.19407 -9.29784 0
M  V30 11722 O 1399.3 5.24426 -7.09156 0
M  V30 11723 O 1399.84 2.7935 -7.20758 0
M  V30 11724 C 1400.78 1.7299 -7.50419 0
M  V30 11725 C 1400.05 0.406376 -7.57911 0
M  V30 11726 O 1399.84 -0.0897726 -6.21935 0
M  V30 11727 C 1398.65 0.447224 -8.1878 0
M  V30 11728 O 1398.26 -0.825065 -8.71101 0
M  V30 11729 C 1397.77 0.783801 -6.99623 0
M  V30 11730 C 1398.48 0.0619192 -5.85967 0
M  V30 11731 N 1398.43 0.7859 -4.56281 0
M  V30 11732 H 1401.27 1.93423 -8.4679 0
M  V30 11733 H 1401.54 1.68181 -6.71046 0
M  V30 11734 H 1400.67 -0.289041 -8.15388 0
M  V30 11735 P 1396.71 -1.17771 -8.83182 0
M  V30 11736 O 1396.49 -2.07206 -9.98732 0
M  V30 11737 O 1395.92 0.0743816 -8.81969 0
M  V30 11738 O 1396.46 -1.97652 -7.47304 0
M  V30 11739 C 1397.4 -3.01055 -7.08599 0
M  V30 11740 C 1396.67 -4.12613 -6.37049 0
M  V30 11741 O 1396.46 -3.72827 -4.97879 0
M  V30 11742 C 1395.27 -4.45719 -6.88164 0
M  V30 11743 O 1394.88 -5.7877 -6.5624 0
M  V30 11744 C 1394.39 -3.47768 -6.11991 0
M  V30 11745 C 1395.1 -3.39356 -4.77615 0
M  V30 11746 N 1395.05 -2.04571 -4.15244 0
M  V30 11747 C 1394.9 -1.98587 -2.78314 0
M  V30 11748 O 1394.81 -2.98134 -2.08835 0
M  V30 11749 N 1394.86 -0.714467 -2.24925 0
M  V30 11750 C 1394.95 0.470001 -2.94169 0
M  V30 11751 C 1395.1 0.312541 -4.36783 0
M  V30 11752 C 1395.15 -0.914512 -4.92583 0
M  V30 11753 H 1397.89 -3.41169 -7.98575 0
M  V30 11754 H 1398.16 -2.58295 -6.41556 0
M  V30 11755 H 1397.29 -5.02657 -6.42673 0
M  V30 11756 H 1394.64 -4.11637 -4.08885 0
M  V30 11757 H 1394.36 -2.49626 -6.61679 0
M  V30 11758 H 1393.37 -3.86566 -6.00778 0
M  V30 11759 H 1395.2 -4.29943 -7.96918 0
M  V30 11760 H 1395.27 -1.00937 -6.00374 0
M  V30 11761 P 1393.33 -6.144 -6.45285 0
M  V30 11762 O 1393.11 -7.54673 -6.86199 0
M  V30 11763 O 1392.54 -5.12391 -7.179 0
M  V30 11764 O 1393.08 -5.99158 -4.88404 0
M  V30 11765 C 1394.02 -6.60234 -3.96415 0
M  V30 11766 C 1393.29 -7.08259 -2.72856 0
M  V30 11767 O 1393.08 -5.9427 -1.83651 0
M  V30 11768 C 1391.89 -7.64886 -2.9555 0
M  V30 11769 O 1391.5 -8.53963 -1.90717 0
M  V30 11770 C 1391.01 -6.4116 -2.90739 0
M  V30 11771 C 1391.72 -5.55375 -1.86963 0
M  V30 11772 N 1391.67 -4.09664 -2.15742 0
M  V30 11773 H 1394.51 -7.45574 -4.45629 0
M  V30 11774 H 1394.78 -5.86232 -3.67314 0
M  V30 11775 H 1393.91 -7.84412 -2.24479 0
M  V30 11776 P 1389.95 -8.7635 -1.60911 0
M  V30 11777 O 1389.73 -10.1388 -1.11561 0
M  V30 11778 O 1389.16 -8.36503 -2.79617 0
M  V30 11779 O 1389.7 -7.71806 -0.42951 0
M  V30 11780 C 1390.64 -7.66948 0.673514 0
M  V30 11781 C 1389.91 -7.33374 1.95559 0
M  V30 11782 O 1389.7 -5.88721 2.00726 0
M  V30 11783 C 1388.51 -7.92218 2.1125 0
M  V30 11784 O 1388.12 -8.02971 3.47653 0
M  V30 11785 C 1387.63 -6.89504 1.41631 0
M  V30 11786 C 1388.34 -5.59106 1.75155 0
M  V30 11787 N 1388.29 -4.58136 0.662409 0
M  V30 11788 C 1388.14 -3.26059 1.02863 0
M  V30 11789 O 1388.05 -2.90743 2.19009 0
M  V30 11790 N 1388.1 -2.35995 -0.0155585 0
M  V30 11791 C 1388.19 -2.65248 -1.35603 0
M  V30 11792 C 1388.34 -4.05747 -1.64698 0
M  V30 11793 C 1388.39 -4.96734 -0.652411 0
M  V30 11794 H 1391.13 -8.64917 0.776982 0
M  V30 11795 H 1391.4 -6.89974 0.474015 0
M  V30 11796 H 1390.53 -7.66548 2.79458 0
M  V30 11797 H 1387.88 -5.16076 2.65138 0
M  V30 11798 H 1387.6 -7.06433 0.329384 0
M  V30 11799 H 1386.61 -6.90829 1.81996 0
M  V30 11800 H 1388.44 -8.90774 1.62639 0
M  V30 11801 H 1388.51 -6.02181 -0.895285 0
M  V30 11802 P 1386.57 -8.03563 3.84925 0
M  V30 11803 O 1386.35 -8.85821 5.0569 0
M  V30 11804 O 1385.78 -8.41101 2.65469 0
M  V30 11805 O 1386.32 -6.4965 4.18908 0
M  V30 11806 C 1387.26 -5.81037 5.05421 0
M  V30 11807 C 1386.53 -4.78366 5.89277 0
M  V30 11808 O 1386.32 -3.58302 5.08433 0
M  V30 11809 C 1385.13 -5.17448 6.36119 0
M  V30 11810 O 1384.74 -4.45271 7.53232 0
M  V30 11811 C 1384.25 -4.74639 5.19936 0
M  V30 11812 C 1384.96 -3.49432 4.70418 0
M  V30 11813 N 1384.91 -3.31776 3.22945 0
M  V30 11814 H 1387.75 -6.54213 5.71376 0
M  V30 11815 H 1388.02 -5.30492 4.44033 0
M  V30 11816 H 1387.15 -4.55889 6.76652 0
M  V30 11817 P 1383.19 -4.23843 7.83734 0
M  V30 11818 O 1382.97 -4.19407 9.29784 0
M  V30 11819 O 1382.4 -5.24426 7.09156 0
M  V30 11820 O 1382.94 -2.7935 7.20758 0
M  V30 11821 C 1383.88 -1.7299 7.50419 0
M  V30 11822 C 1383.15 -0.406376 7.57911 0
M  V30 11823 O 1382.94 0.0897726 6.21935 0
M  V30 11824 C 1381.75 -0.447224 8.1878 0
M  V30 11825 O 1381.36 0.825065 8.71101 0
M  V30 11826 C 1380.87 -0.783801 6.99623 0
M  V30 11827 C 1381.58 -0.0619192 5.85967 0
M  V30 11828 N 1381.53 -0.7859 4.56281 0
M  V30 11829 H 1384.37 -1.93423 8.4679 0
M  V30 11830 H 1384.64 -1.68181 6.71046 0
M  V30 11831 H 1383.77 0.289041 8.15388 0
M  V30 11832 P 1379.81 1.17771 8.83182 0
M  V30 11833 O 1379.59 2.07206 9.98732 0
M  V30 11834 O 1379.02 -0.0743816 8.81969 0
M  V30 11835 O 1379.56 1.97652 7.47304 0
M  V30 11836 C 1380.5 3.01133 7.08783 0
M  V30 11837 C 1379.77 4.12613 6.37049 0
M  V30 11838 O 1379.56 3.72827 4.97879 0
M  V30 11839 C 1378.37 4.45085 6.88694 0
M  V30 11840 O 1377.98 5.7877 6.5624 0
M  V30 11841 C 1377.49 3.47817 6.12078 0
M  V30 11842 C 1378.2 3.39414 4.77697 0
M  V30 11843 N 1378.15 2.04199 4.15538 0
M  V30 11844 H 1380.99 3.41248 7.98759 0
M  V30 11845 H 1381.26 2.57728 6.42 0
M  V30 11846 H 1380.39 5.02657 6.42673 0
M  V30 11847 H 1377.74 4.11708 4.08956 0
M  V30 11848 H 1377.46 2.49626 6.61679 0
M  V30 11849 H 1376.47 3.8662 6.00862 0
M  V30 11850 H 1378.3 4.29991 7.97006 0
M  V30 11851 P 1376.43 6.144 6.45285 0
M  V30 11852 O 1376.21 7.54673 6.86199 0
M  V30 11853 O 1375.64 5.12391 7.179 0
M  V30 11854 O 1376.18 5.99158 4.88404 0
M  V30 11855 C 1377.12 6.60234 3.96415 0
M  V30 11856 C 1376.39 7.08259 2.72856 0
M  V30 11857 O 1376.18 5.9427 1.83651 0
M  V30 11858 C 1374.99 7.64886 2.9555 0
M  V30 11859 O 1374.6 8.53963 1.90717 0
M  V30 11860 C 1374.11 6.4116 2.90739 0
M  V30 11861 C 1374.82 5.55375 1.86963 0
M  V30 11862 N 1374.77 4.09664 2.15742 0
M  V30 11863 H 1377.61 7.45574 4.45629 0
M  V30 11864 H 1377.88 5.86232 3.67314 0
M  V30 11865 H 1377.01 7.84412 2.24479 0
M  V30 11866 P 1373.05 8.7635 1.60911 0
M  V30 11867 O 1372.83 10.1388 1.11561 0
M  V30 11868 O 1372.26 8.36503 2.79617 0
M  V30 11869 O 1372.8 7.71806 0.42951 0
M  V30 11870 C 1373.74 7.67148 -0.673689 0
M  V30 11871 C 1373.01 7.33374 -1.95559 0
M  V30 11872 O 1372.8 5.88721 -2.00726 0
M  V30 11873 C 1371.61 7.92526 -2.10483 0
M  V30 11874 O 1371.22 8.02971 -3.47653 0
M  V30 11875 C 1370.73 6.89602 -1.41652 0
M  V30 11876 C 1371.44 5.59201 -1.75185 0
M  V30 11877 N 1371.39 4.58235 -0.662552 0
M  V30 11878 H 1374.23 8.65116 -0.777161 0
M  V30 11879 H 1374.5 6.90173 -0.474152 0
M  V30 11880 H 1373.63 7.66548 -2.79458 0
M  V30 11881 P 1369.67 8.03563 -3.84925 0
M  V30 11882 O 1369.45 8.85821 -5.0569 0
M  V30 11883 O 1368.88 8.41101 -2.65469 0
M  V30 11884 O 1369.42 6.4965 -4.18908 0
M  V30 11885 C 1370.36 5.81037 -5.05421 0
M  V30 11886 C 1369.63 4.78366 -5.89277 0
M  V30 11887 O 1369.42 3.58302 -5.08433 0
M  V30 11888 C 1368.23 5.17448 -6.36119 0
M  V30 11889 O 1367.84 4.45271 -7.53232 0
M  V30 11890 C 1367.35 4.74639 -5.19936 0
M  V30 11891 C 1368.06 3.49432 -4.70418 0
M  V30 11892 N 1368.01 3.31776 -3.22945 0
M  V30 11893 H 1370.85 6.54213 -5.71376 0
M  V30 11894 H 1371.12 5.30492 -4.44033 0
M  V30 11895 H 1370.25 4.55889 -6.76652 0
M  V30 11896 P 1366.29 4.23843 -7.83734 0
M  V30 11897 O 1366.07 4.19407 -9.29784 0
M  V30 11898 O 1365.5 5.24426 -7.09156 0
M  V30 11899 O 1366.04 2.7935 -7.20758 0
M  V30 11900 C 1366.98 1.7299 -7.50419 0
M  V30 11901 C 1366.25 0.406376 -7.57911 0
M  V30 11902 O 1366.04 -0.0897726 -6.21935 0
M  V30 11903 C 1364.85 0.447224 -8.1878 0
M  V30 11904 O 1364.46 -0.825065 -8.71101 0
M  V30 11905 C 1363.97 0.783801 -6.99623 0
M  V30 11906 C 1364.68 0.0619192 -5.85967 0
M  V30 11907 N 1364.63 0.7859 -4.56281 0
M  V30 11908 H 1367.47 1.93423 -8.4679 0
M  V30 11909 H 1367.74 1.68181 -6.71046 0
M  V30 11910 H 1366.87 -0.289041 -8.15388 0
M  V30 11911 P 1362.91 -1.17771 -8.83182 0
M  V30 11912 O 1362.69 -2.07206 -9.98732 0
M  V30 11913 O 1362.12 0.0743816 -8.81969 0
M  V30 11914 O 1362.66 -1.97652 -7.47304 0
M  V30 11915 C 1363.6 -3.01133 -7.08783 0
M  V30 11916 C 1362.87 -4.12613 -6.37049 0
M  V30 11917 O 1362.66 -3.72827 -4.97879 0
M  V30 11918 C 1361.47 -4.45085 -6.88694 0
M  V30 11919 O 1361.08 -5.7877 -6.5624 0
M  V30 11920 C 1360.59 -3.47817 -6.12078 0
M  V30 11921 C 1361.3 -3.39414 -4.77697 0
M  V30 11922 N 1361.25 -2.04615 -4.15333 0
M  V30 11923 C 1361.33 -0.803897 -4.75249 0
M  V30 11924 N 1361.25 0.197615 -3.91502 0
M  V30 11925 C 1361.11 -0.413002 -2.66823 0
M  V30 11926 C 1360.98 0.157221 -1.38007 0
M  V30 11927 O 1360.96 1.34419 -1.057 0
M  V30 11928 N 1360.86 -0.833136 -0.390236 0
M  V30 11929 C 1360.86 -2.19402 -0.623885 0
M  V30 11930 N 1360.73 -2.97622 0.449677 0
M  V30 11931 N 1360.99 -2.73005 -1.83601 0
M  V30 11932 C 1361.11 -1.78786 -2.80935 0
M  V30 11933 H 1364.09 -3.41248 -7.98759 0
M  V30 11934 H 1364.36 -2.5837 -6.41742 0
M  V30 11935 H 1363.49 -5.02657 -6.42673 0
M  V30 11936 H 1360.84 -4.11779 -4.09026 0
M  V30 11937 H 1360.56 -2.49661 -6.61772 0
M  V30 11938 H 1359.57 -3.86674 -6.00946 0
M  V30 11939 H 1361.4 -4.30038 -7.97094 0
M  V30 11940 H 1361.45 -0.670579 -5.82754 0
M  V30 11941 H 1360.77 -0.528446 0.557287 0
M  V30 11942 H 1360.73 -4.00117 0.344773 0
M  V30 11943 H 1360.63 -2.55448 1.38544 0
M  V30 11944 P 1359.53 -6.144 -6.45285 0
M  V30 11945 O 1359.31 -7.54673 -6.86199 0
M  V30 11946 O 1358.74 -5.12391 -7.179 0
M  V30 11947 O 1359.28 -5.99158 -4.88404 0
M  V30 11948 C 1360.22 -6.60234 -3.96415 0
M  V30 11949 C 1359.49 -7.08259 -2.72856 0
M  V30 11950 O 1359.28 -5.9427 -1.83651 0
M  V30 11951 C 1358.09 -7.64886 -2.9555 0
M  V30 11952 O 1357.7 -8.53963 -1.90717 0
M  V30 11953 C 1357.21 -6.4116 -2.90739 0
M  V30 11954 C 1357.92 -5.55375 -1.86963 0
M  V30 11955 N 1357.87 -4.09448 -2.16152 0
M  V30 11956 H 1360.71 -7.45574 -4.45629 0
M  V30 11957 H 1360.98 -5.85864 -3.679 0
M  V30 11958 H 1360.11 -7.84412 -2.24479 0
M  V30 11959 H 1357.46 -5.73457 -0.888562 0
M  V30 11960 H 1357.18 -5.90877 -3.88583 0
M  V30 11961 H 1356.19 -6.6596 -2.58858 0
M  V30 11962 H 1358.02 -8.16339 -3.92049 0
M  V30 11963 P 1356.15 -8.7635 -1.60911 0
M  V30 11964 O 1355.93 -10.1388 -1.11561 0
M  V30 11965 O 1355.36 -8.36503 -2.79617 0
M  V30 11966 O 1355.9 -7.71806 -0.42951 0
M  V30 11967 C 1356.84 -7.67148 0.673689 0
M  V30 11968 C 1356.11 -7.33374 1.95559 0
M  V30 11969 O 1355.9 -5.88721 2.00726 0
M  V30 11970 C 1354.71 -7.92526 2.10483 0
M  V30 11971 O 1354.32 -8.02971 3.47653 0
M  V30 11972 C 1353.83 -6.89602 1.41652 0
M  V30 11973 C 1354.54 -5.59201 1.75185 0
M  V30 11974 N 1354.49 -4.58235 0.662552 0
M  V30 11975 H 1357.33 -8.65116 0.777161 0
M  V30 11976 H 1357.6 -6.90173 0.474152 0
M  V30 11977 H 1356.73 -7.66548 2.79458 0
M  V30 11978 P 1352.77 -8.03563 3.84925 0
M  V30 11979 O 1352.55 -8.85821 5.0569 0
M  V30 11980 O 1351.98 -8.41101 2.65469 0
M  V30 11981 O 1352.52 -6.4965 4.18908 0
M  V30 11982 C 1353.46 -5.81037 5.05421 0
M  V30 11983 C 1352.73 -4.78366 5.89277 0
M  V30 11984 O 1352.52 -3.58302 5.08433 0
M  V30 11985 C 1351.33 -5.17448 6.36119 0
M  V30 11986 O 1350.94 -4.45271 7.53232 0
M  V30 11987 C 1350.45 -4.74639 5.19936 0
M  V30 11988 C 1351.16 -3.49432 4.70418 0
M  V30 11989 N 1351.11 -3.31776 3.22945 0
M  V30 11990 H 1353.95 -6.54213 5.71376 0
M  V30 11991 H 1354.22 -5.30492 4.44033 0
M  V30 11992 H 1353.36 -4.55889 6.76652 0
M  V30 11993 P 1349.39 -4.23843 7.83734 0
M  V30 11994 O 1349.17 -4.19407 9.29784 0
M  V30 11995 O 1348.6 -5.24426 7.09156 0
M  V30 11996 O 1349.14 -2.7935 7.20758 0
M  V30 11997 C 1350.08 -1.7299 7.50419 0
M  V30 11998 C 1349.35 -0.406376 7.57911 0
M  V30 11999 O 1349.14 0.0897726 6.21935 0
M  V30 12000 C 1347.95 -0.447224 8.1878 0
M  V30 12001 O 1347.56 0.825065 8.71101 0
M  V30 12002 C 1347.07 -0.783801 6.99623 0
M  V30 12003 C 1347.78 -0.0619192 5.85967 0
M  V30 12004 N 1347.73 -0.7859 4.56281 0
M  V30 12005 H 1350.57 -1.93423 8.4679 0
M  V30 12006 H 1350.84 -1.68181 6.71046 0
M  V30 12007 H 1349.98 0.289041 8.15388 0
M  V30 12008 P 1346.01 1.17771 8.83182 0
M  V30 12009 O 1345.79 2.07206 9.98732 0
M  V30 12010 O 1345.22 -0.0743816 8.81969 0
M  V30 12011 O 1345.76 1.97652 7.47304 0
M  V30 12012 C 1346.7 3.01133 7.08783 0
M  V30 12013 C 1345.97 4.12613 6.37049 0
M  V30 12014 O 1345.76 3.72827 4.97879 0
M  V30 12015 C 1344.57 4.45085 6.88694 0
M  V30 12016 O 1344.18 5.7877 6.5624 0
M  V30 12017 C 1343.69 3.47817 6.12078 0
M  V30 12018 C 1344.4 3.39414 4.77697 0
M  V30 12019 N 1344.35 2.04199 4.15538 0
M  V30 12020 H 1347.19 3.41248 7.98759 0
M  V30 12021 H 1347.46 2.57728 6.42 0
M  V30 12022 H 1346.6 5.02657 6.42673 0
M  V30 12023 H 1343.94 4.11708 4.08956 0
M  V30 12024 H 1343.66 2.49626 6.61679 0
M  V30 12025 H 1342.67 3.8662 6.00862 0
M  V30 12026 H 1344.5 4.29991 7.97006 0
M  V30 12027 P 1342.63 6.144 6.45285 0
M  V30 12028 O 1342.41 7.54673 6.86199 0
M  V30 12029 O 1341.84 5.12391 7.179 0
M  V30 12030 O 1342.38 5.99158 4.88404 0
M  V30 12031 C 1343.32 6.60234 3.96415 0
M  V30 12032 C 1342.59 7.08259 2.72856 0
M  V30 12033 O 1342.38 5.9427 1.83651 0
M  V30 12034 C 1341.19 7.64886 2.9555 0
M  V30 12035 O 1340.8 8.53963 1.90717 0
M  V30 12036 C 1340.31 6.4116 2.90739 0
M  V30 12037 C 1341.02 5.55375 1.86963 0
M  V30 12038 N 1340.97 4.09664 2.15742 0
M  V30 12039 H 1343.81 7.45574 4.45629 0
M  V30 12040 H 1344.08 5.86232 3.67314 0
M  V30 12041 H 1343.22 7.84412 2.24479 0
M  V30 12042 P 1339.25 8.7635 1.60911 0
M  V30 12043 O 1339.03 10.1388 1.11561 0
M  V30 12044 O 1338.46 8.36503 2.79617 0
M  V30 12045 O 1339 7.71806 0.42951 0
M  V30 12046 C 1339.94 7.66948 -0.673514 0
M  V30 12047 C 1339.21 7.33374 -1.95559 0
M  V30 12048 O 1339 5.88721 -2.00726 0
M  V30 12049 C 1337.81 7.92218 -2.1125 0
M  V30 12050 O 1337.42 8.02971 -3.47653 0
M  V30 12051 C 1336.93 6.89504 -1.41631 0
M  V30 12052 C 1337.64 5.59106 -1.75155 0
M  V30 12053 N 1337.59 4.58136 -0.662409 0
M  V30 12054 C 1337.44 3.26059 -1.02863 0
M  V30 12055 O 1337.35 2.90743 -2.19009 0
M  V30 12056 N 1337.4 2.35995 0.0155585 0
M  V30 12057 C 1337.49 2.65248 1.35603 0
M  V30 12058 O 1337.44 1.75605 2.20651 0
M  V30 12059 C 1337.64 4.05747 1.64698 0
M  V30 12060 C 1337.75 4.42345 3.09553 0
M  V30 12061 C 1337.69 4.96734 0.652411 0
M  V30 12062 H 1340.43 8.64917 -0.776982 0
M  V30 12063 H 1340.7 6.89974 -0.474015 0
M  V30 12064 H 1339.84 7.66548 -2.79458 0
M  V30 12065 H 1337.18 5.16076 -2.65138 0
M  V30 12066 H 1336.9 7.06433 -0.329384 0
M  V30 12067 H 1335.91 6.90829 -1.81996 0
M  V30 12068 H 1337.74 8.90774 -1.62639 0
M  V30 12069 H 1337.81 6.02181 0.895285 0
M  V30 12070 H 1336.78 4.80252 3.45468 0
M  V30 12071 H 1338.52 5.20015 3.22119 0
M  V30 12072 H 1338.03 3.53269 3.67833 0
M  V30 12073 H 1337.3 1.39558 -0.227499 0
M  V30 12074 P 1335.87 8.03563 -3.84925 0
M  V30 12075 O 1335.65 8.85821 -5.0569 0
M  V30 12076 O 1335.08 8.41101 -2.65469 0
M  V30 12077 O 1335.62 6.4965 -4.18908 0
M  V30 12078 C 1336.56 5.81037 -5.05421 0
M  V30 12079 C 1335.83 4.78366 -5.89277 0
M  V30 12080 O 1335.62 3.58302 -5.08433 0
M  V30 12081 C 1334.43 5.17448 -6.36119 0
M  V30 12082 O 1334.04 4.45271 -7.53232 0
M  V30 12083 C 1333.55 4.74639 -5.19936 0
M  V30 12084 C 1334.26 3.49432 -4.70418 0
M  V30 12085 N 1334.21 3.32099 -3.22613 0
M  V30 12086 H 1337.05 6.54213 -5.71376 0
M  V30 12087 H 1337.32 5.30936 -4.43503 0
M  V30 12088 H 1336.46 4.55889 -6.76652 0
M  V30 12089 H 1333.8 2.61715 -5.17932 0
M  V30 12090 H 1333.52 5.52155 -4.41878 0
M  V30 12091 H 1332.53 4.51981 -5.53374 0
M  V30 12092 H 1334.36 6.25124 -6.55234 0
M  V30 12093 P 1332.49 4.23843 -7.83734 0
M  V30 12094 O 1332.27 4.19407 -9.29784 0
M  V30 12095 O 1331.7 5.24426 -7.09156 0
M  V30 12096 O 1332.24 2.7935 -7.20758 0
M  V30 12097 C 1333.18 1.7299 -7.50419 0
M  V30 12098 C 1332.45 0.406376 -7.57911 0
M  V30 12099 O 1332.24 -0.0897726 -6.21935 0
M  V30 12100 C 1331.05 0.447224 -8.1878 0
M  V30 12101 O 1330.66 -0.825065 -8.71101 0
M  V30 12102 C 1330.17 0.783801 -6.99623 0
M  V30 12103 C 1330.88 0.0619192 -5.85967 0
M  V30 12104 N 1330.83 0.7859 -4.56281 0
M  V30 12105 H 1333.67 1.93423 -8.4679 0
M  V30 12106 H 1333.94 1.68181 -6.71046 0
M  V30 12107 H 1333.08 -0.289041 -8.15388 0
M  V30 12108 P 1329.11 -1.17771 -8.83182 0
M  V30 12109 O 1328.89 -2.07206 -9.98732 0
M  V30 12110 O 1328.32 0.0743816 -8.81969 0
M  V30 12111 O 1328.86 -1.97652 -7.47304 0
M  V30 12112 C 1329.8 -3.01133 -7.08783 0
M  V30 12113 C 1329.07 -4.12613 -6.37049 0
M  V30 12114 O 1328.86 -3.72827 -4.97879 0
M  V30 12115 C 1327.67 -4.45085 -6.88694 0
M  V30 12116 O 1327.28 -5.7877 -6.5624 0
M  V30 12117 C 1326.79 -3.47817 -6.12078 0
M  V30 12118 C 1327.5 -3.39414 -4.77697 0
M  V30 12119 N 1327.45 -2.04199 -4.15538 0
M  V30 12120 H 1330.29 -3.41248 -7.98759 0
M  V30 12121 H 1330.56 -2.57728 -6.42 0
M  V30 12122 H 1329.7 -5.02657 -6.42673 0
M  V30 12123 H 1327.04 -4.11708 -4.08956 0
M  V30 12124 H 1326.76 -2.49626 -6.61679 0
M  V30 12125 H 1325.77 -3.8662 -6.00862 0
M  V30 12126 H 1327.6 -4.29991 -7.97006 0
M  V30 12127 P 1325.73 -6.144 -6.45285 0
M  V30 12128 O 1325.51 -7.54673 -6.86199 0
M  V30 12129 O 1324.94 -5.12391 -7.179 0
M  V30 12130 O 1325.48 -5.99158 -4.88404 0
M  V30 12131 C 1326.42 -6.60062 -3.96313 0
M  V30 12132 C 1325.69 -7.08259 -2.72856 0
M  V30 12133 O 1325.48 -5.9427 -1.83651 0
M  V30 12134 C 1324.29 -7.65087 -2.94749 0
M  V30 12135 O 1323.9 -8.53963 -1.90717 0
M  V30 12136 C 1323.41 -6.41069 -2.90698 0
M  V30 12137 C 1324.12 -5.5528 -1.86931 0
M  V30 12138 N 1324.07 -4.09575 -2.15696 0
M  V30 12139 C 1323.92 -3.24249 -1.08435 0
M  V30 12140 O 1323.83 -3.63946 0.0628747 0
M  V30 12141 N 1323.88 -1.90009 -1.39973 0
M  V30 12142 C 1323.97 -1.34884 -2.65614 0
M  V30 12143 C 1324.12 -2.3145 -3.71736 0
M  V30 12144 C 1324.17 -3.63518 -3.44754 0
M  V30 12145 H 1326.91 -7.45402 -4.45526 0
M  V30 12146 H 1327.18 -5.86062 -3.67208 0
M  V30 12147 H 1326.32 -7.84412 -2.24479 0
M  V30 12148 H 1323.66 -5.73358 -0.888409 0
M  V30 12149 H 1323.38 -5.90877 -3.88583 0
M  V30 12150 H 1322.39 -6.65867 -2.58821 0
M  V30 12151 H 1324.22 -8.16248 -3.92006 0
M  V30 12152 H 1324.29 -4.34551 -4.26383 0
M  V30 12153 P 1322.35 -8.7635 -1.60911 0
M  V30 12154 O 1322.13 -10.1388 -1.11561 0
M  V30 12155 O 1321.56 -8.36503 -2.79617 0
M  V30 12156 O 1322.1 -7.71806 -0.42951 0
M  V30 12157 C 1323.04 -7.67148 0.673689 0
M  V30 12158 C 1322.31 -7.33374 1.95559 0
M  V30 12159 O 1322.1 -5.88721 2.00726 0
M  V30 12160 C 1320.91 -7.92526 2.10483 0
M  V30 12161 O 1320.52 -8.02971 3.47653 0
M  V30 12162 C 1320.03 -6.89602 1.41652 0
M  V30 12163 C 1320.74 -5.59201 1.75185 0
M  V30 12164 N 1320.69 -4.58301 0.657969 0
M  V30 12165 H 1323.53 -8.65116 0.777161 0
M  V30 12166 H 1323.8 -6.9022 0.46725 0
M  V30 12167 H 1322.94 -7.66548 2.79458 0
M  V30 12168 H 1320.28 -5.16165 2.65183 0
M  V30 12169 H 1320 -7.06433 0.329384 0
M  V30 12170 H 1319.01 -6.90926 1.82021 0
M  V30 12171 H 1320.84 -8.90873 1.62657 0
M  V30 12172 P 1318.97 -8.03563 3.84925 0
M  V30 12173 O 1318.75 -8.85821 5.0569 0
M  V30 12174 O 1318.18 -8.41101 2.65469 0
M  V30 12175 O 1318.72 -6.4965 4.18908 0
M  V30 12176 C 1319.66 -5.81037 5.05421 0
M  V30 12177 C 1318.93 -4.78366 5.89277 0
M  V30 12178 O 1318.72 -3.58302 5.08433 0
M  V30 12179 C 1317.53 -5.17448 6.36119 0
M  V30 12180 O 1317.14 -4.45271 7.53232 0
M  V30 12181 C 1316.65 -4.74639 5.19936 0
M  V30 12182 C 1317.36 -3.49432 4.70418 0
M  V30 12183 N 1317.31 -3.31776 3.22945 0
M  V30 12184 H 1320.15 -6.54213 5.71376 0
M  V30 12185 H 1320.42 -5.30492 4.44033 0
M  V30 12186 H 1319.56 -4.55889 6.76652 0
M  V30 12187 P 1315.59 -4.23843 7.83734 0
M  V30 12188 O 1315.37 -4.19407 9.29784 0
M  V30 12189 O 1314.8 -5.24426 7.09156 0
M  V30 12190 O 1315.34 -2.7935 7.20758 0
M  V30 12191 C 1316.28 -1.7299 7.50419 0
M  V30 12192 C 1315.55 -0.406376 7.57911 0
M  V30 12193 O 1315.34 0.0897726 6.21935 0
M  V30 12194 C 1314.15 -0.447224 8.1878 0
M  V30 12195 O 1313.76 0.825065 8.71101 0
M  V30 12196 C 1313.27 -0.783801 6.99623 0
M  V30 12197 C 1313.98 -0.0619192 5.85967 0
M  V30 12198 N 1313.93 -0.7859 4.56281 0
M  V30 12199 H 1316.77 -1.93423 8.4679 0
M  V30 12200 H 1317.04 -1.68181 6.71046 0
M  V30 12201 H 1316.18 0.289041 8.15388 0
M  V30 12202 P 1312.21 1.17771 8.83182 0
M  V30 12203 O 1311.99 2.07206 9.98732 0
M  V30 12204 O 1311.42 -0.0743816 8.81969 0
M  V30 12205 O 1311.96 1.97652 7.47304 0
M  V30 12206 C 1312.9 3.01055 7.08599 0
M  V30 12207 C 1312.17 4.12613 6.37049 0
M  V30 12208 O 1311.96 3.72827 4.97879 0
M  V30 12209 C 1310.77 4.45719 6.88164 0
M  V30 12210 O 1310.38 5.7877 6.5624 0
M  V30 12211 C 1309.89 3.47768 6.11991 0
M  V30 12212 C 1310.6 3.39356 4.77615 0
M  V30 12213 N 1310.55 2.04571 4.15244 0
M  V30 12214 C 1310.4 1.98587 2.78314 0
M  V30 12215 O 1310.31 2.98134 2.08835 0
M  V30 12216 N 1310.36 0.714467 2.24925 0
M  V30 12217 C 1310.45 -0.470001 2.94169 0
M  V30 12218 C 1310.6 -0.312541 4.36783 0
M  V30 12219 C 1310.65 0.914512 4.92583 0
M  V30 12220 H 1313.39 3.41169 7.98575 0
M  V30 12221 H 1313.66 2.58295 6.41556 0
M  V30 12222 H 1312.8 5.02657 6.42673 0
M  V30 12223 H 1310.14 4.11637 4.08885 0
M  V30 12224 H 1309.86 2.49626 6.61679 0
M  V30 12225 H 1308.87 3.86566 6.00778 0
M  V30 12226 H 1310.7 4.29943 7.96918 0
M  V30 12227 H 1310.77 1.00937 6.00374 0
M  V30 12228 P 1308.83 6.144 6.45285 0
M  V30 12229 O 1308.61 7.54673 6.86199 0
M  V30 12230 O 1308.04 5.12391 7.179 0
M  V30 12231 O 1308.58 5.99158 4.88404 0
M  V30 12232 C 1309.52 6.60234 3.96415 0
M  V30 12233 C 1308.79 7.08259 2.72856 0
M  V30 12234 O 1308.58 5.9427 1.83651 0
M  V30 12235 C 1307.39 7.64886 2.9555 0
M  V30 12236 O 1307 8.53963 1.90717 0
M  V30 12237 C 1306.51 6.4116 2.90739 0
M  V30 12238 C 1307.22 5.55375 1.86963 0
M  V30 12239 N 1307.17 4.09664 2.15742 0
M  V30 12240 H 1310.01 7.45574 4.45629 0
M  V30 12241 H 1310.28 5.86232 3.67314 0
M  V30 12242 H 1309.42 7.84412 2.24479 0
M  V30 12243 P 1305.45 8.7635 1.60911 0
M  V30 12244 O 1305.23 10.1388 1.11561 0
M  V30 12245 O 1304.66 8.36503 2.79617 0
M  V30 12246 O 1305.2 7.71806 0.42951 0
M  V30 12247 C 1306.14 7.67148 -0.673689 0
M  V30 12248 C 1305.41 7.33374 -1.95559 0
M  V30 12249 O 1305.2 5.88721 -2.00726 0
M  V30 12250 C 1304.01 7.92526 -2.10483 0
M  V30 12251 O 1303.62 8.02971 -3.47653 0
M  V30 12252 C 1303.13 6.89602 -1.41652 0
M  V30 12253 C 1303.84 5.59201 -1.75185 0
M  V30 12254 N 1303.79 4.58301 -0.657969 0
M  V30 12255 H 1306.63 8.65116 -0.777161 0
M  V30 12256 H 1306.9 6.9022 -0.46725 0
M  V30 12257 H 1306.04 7.66548 -2.79458 0
M  V30 12258 H 1303.38 5.16165 -2.65183 0
M  V30 12259 H 1303.1 7.06433 -0.329384 0
M  V30 12260 H 1302.11 6.90926 -1.82021 0
M  V30 12261 H 1303.94 8.90873 -1.62657 0
M  V30 12262 P 1302.07 8.03563 -3.84925 0
M  V30 12263 O 1301.85 8.85821 -5.0569 0
M  V30 12264 O 1301.28 8.41101 -2.65469 0
M  V30 12265 O 1301.82 6.4965 -4.18908 0
M  V30 12266 C 1302.76 5.81037 -5.05421 0
M  V30 12267 C 1302.03 4.78366 -5.89277 0
M  V30 12268 O 1301.82 3.58302 -5.08433 0
M  V30 12269 C 1300.63 5.17448 -6.36119 0
M  V30 12270 O 1300.24 4.45271 -7.53232 0
M  V30 12271 C 1299.75 4.74639 -5.19936 0
M  V30 12272 C 1300.46 3.49432 -4.70418 0
M  V30 12273 N 1300.41 3.31776 -3.22945 0
M  V30 12274 H 1303.25 6.54213 -5.71376 0
M  V30 12275 H 1303.52 5.30492 -4.44033 0
M  V30 12276 H 1302.66 4.55889 -6.76652 0
M  V30 12277 P 1298.69 4.23843 -7.83734 0
M  V30 12278 O 1298.47 4.19407 -9.29784 0
M  V30 12279 O 1297.9 5.24426 -7.09156 0
M  V30 12280 O 1298.44 2.7935 -7.20758 0
M  V30 12281 C 1299.38 1.7299 -7.50419 0
M  V30 12282 C 1298.65 0.406376 -7.57911 0
M  V30 12283 O 1298.44 -0.0897726 -6.21935 0
M  V30 12284 C 1297.25 0.447224 -8.1878 0
M  V30 12285 O 1296.86 -0.825065 -8.71101 0
M  V30 12286 C 1296.37 0.783801 -6.99623 0
M  V30 12287 C 1297.08 0.0619192 -5.85967 0
M  V30 12288 N 1297.03 0.7859 -4.56281 0
M  V30 12289 H 1299.87 1.93423 -8.4679 0
M  V30 12290 H 1300.14 1.68181 -6.71046 0
M  V30 12291 H 1299.28 -0.289041 -8.15388 0
M  V30 12292 P 1295.31 -1.17771 -8.83182 0
M  V30 12293 O 1295.09 -2.07206 -9.98732 0
M  V30 12294 O 1294.52 0.0743816 -8.81969 0
M  V30 12295 O 1295.06 -1.97652 -7.47304 0
M  V30 12296 C 1296 -3.01133 -7.08783 0
M  V30 12297 C 1295.27 -4.12613 -6.37049 0
M  V30 12298 O 1295.06 -3.72827 -4.97879 0
M  V30 12299 C 1293.87 -4.45085 -6.88694 0
M  V30 12300 O 1293.48 -5.7877 -6.5624 0
M  V30 12301 C 1292.99 -3.47817 -6.12078 0
M  V30 12302 C 1293.7 -3.39414 -4.77697 0
M  V30 12303 N 1293.65 -2.04199 -4.15538 0
M  V30 12304 C 1293.73 -0.821545 -4.76977 0
M  V30 12305 N 1293.66 0.1794 -3.94592 0
M  V30 12306 C 1293.51 -0.419121 -2.70776 0
M  V30 12307 C 1293.38 0.109072 -1.40577 0
M  V30 12308 N 1293.37 1.4104 -1.1344 0
M  V30 12309 N 1293.26 -0.764381 -0.39411 0
M  V30 12310 C 1293.27 -2.06587 -0.664135 0
M  V30 12311 N 1293.39 -2.67948 -1.82153 0
M  V30 12312 C 1293.51 -1.77942 -2.8147 0
M  V30 12313 H 1296.49 -3.41248 -7.98759 0
M  V30 12314 H 1296.76 -2.57728 -6.42 0
M  V30 12315 H 1295.9 -5.02657 -6.42673 0
M  V30 12316 H 1293.24 -4.11708 -4.08956 0
M  V30 12317 H 1292.96 -2.49626 -6.61679 0
M  V30 12318 H 1291.97 -3.8662 -6.00862 0
M  V30 12319 H 1293.8 -4.29991 -7.97006 0
M  V30 12320 H 1293.84 -0.702451 -5.84696 0
M  V30 12321 H 1293.46 2.09647 -1.89651 0
M  V30 12322 H 1293.27 1.73358 -0.160575 0
M  V30 12323 H 1293.17 -2.71695 0.195838 0
M  V30 12324 P 1291.93 -6.144 -6.45285 0
M  V30 12325 O 1291.71 -7.54673 -6.86199 0
M  V30 12326 O 1291.14 -5.12391 -7.179 0
M  V30 12327 O 1291.68 -5.99158 -4.88404 0
M  V30 12328 C 1292.62 -6.60234 -3.96415 0
M  V30 12329 C 1291.89 -7.08259 -2.72856 0
M  V30 12330 O 1291.68 -5.9427 -1.83651 0
M  V30 12331 C 1290.49 -7.64886 -2.9555 0
M  V30 12332 O 1290.1 -8.53963 -1.90717 0
M  V30 12333 C 1289.61 -6.4116 -2.90739 0
M  V30 12334 C 1290.32 -5.55375 -1.86963 0
M  V30 12335 N 1290.27 -4.09448 -2.16152 0
M  V30 12336 H 1293.11 -7.45574 -4.45629 0
M  V30 12337 H 1293.38 -5.85864 -3.679 0
M  V30 12338 H 1292.52 -7.84412 -2.24479 0
M  V30 12339 H 1289.86 -5.73457 -0.888562 0
M  V30 12340 H 1289.58 -5.90877 -3.88583 0
M  V30 12341 H 1288.59 -6.6596 -2.58858 0
M  V30 12342 H 1290.42 -8.16339 -3.92049 0
M  V30 12343 P 1288.55 -8.7635 -1.60911 0
M  V30 12344 O 1288.33 -10.1388 -1.11561 0
M  V30 12345 O 1287.76 -8.36503 -2.79617 0
M  V30 12346 O 1288.3 -7.71806 -0.42951 0
M  V30 12347 C 1289.24 -7.67148 0.673689 0
M  V30 12348 C 1288.51 -7.33374 1.95559 0
M  V30 12349 O 1288.3 -5.88721 2.00726 0
M  V30 12350 C 1287.11 -7.92526 2.10483 0
M  V30 12351 O 1286.72 -8.02971 3.47653 0
M  V30 12352 C 1286.23 -6.89602 1.41652 0
M  V30 12353 C 1286.94 -5.59201 1.75185 0
M  V30 12354 N 1286.89 -4.58235 0.662552 0
M  V30 12355 H 1289.73 -8.65116 0.777161 0
M  V30 12356 H 1290 -6.90173 0.474152 0
M  V30 12357 H 1289.14 -7.66548 2.79458 0
M  V30 12358 P 1285.17 -8.03563 3.84925 0
M  V30 12359 O 1284.95 -8.85821 5.0569 0
M  V30 12360 O 1284.38 -8.41101 2.65469 0
M  V30 12361 O 1284.92 -6.4965 4.18908 0
M  V30 12362 C 1285.86 -5.81037 5.05421 0
M  V30 12363 C 1285.13 -4.78366 5.89277 0
M  V30 12364 O 1284.92 -3.58302 5.08433 0
M  V30 12365 C 1283.73 -5.17448 6.36119 0
M  V30 12366 O 1283.34 -4.45271 7.53232 0
M  V30 12367 C 1282.85 -4.74639 5.19936 0
M  V30 12368 C 1283.56 -3.49432 4.70418 0
M  V30 12369 N 1283.51 -3.31776 3.22945 0
M  V30 12370 H 1286.35 -6.54213 5.71376 0
M  V30 12371 H 1286.62 -5.30492 4.44033 0
M  V30 12372 H 1285.76 -4.55889 6.76652 0
M  V30 12373 P 1281.79 -4.23843 7.83734 0
M  V30 12374 O 1281.57 -4.19407 9.29784 0
M  V30 12375 O 1281 -5.24426 7.09156 0
M  V30 12376 O 1281.54 -2.7935 7.20758 0
M  V30 12377 C 1282.48 -1.7299 7.50419 0
M  V30 12378 C 1281.75 -0.406376 7.57911 0
M  V30 12379 O 1281.54 0.0897726 6.21935 0
M  V30 12380 C 1280.35 -0.447224 8.1878 0
M  V30 12381 O 1279.96 0.825065 8.71101 0
M  V30 12382 C 1279.47 -0.783801 6.99623 0
M  V30 12383 C 1280.18 -0.0619192 5.85967 0
M  V30 12384 N 1280.13 -0.7859 4.56281 0
M  V30 12385 H 1282.97 -1.93423 8.4679 0
M  V30 12386 H 1283.24 -1.68181 6.71046 0
M  V30 12387 H 1282.38 0.289041 8.15388 0
M  V30 12388 P 1278.41 1.17771 8.83182 0
M  V30 12389 O 1278.19 2.07206 9.98732 0
M  V30 12390 O 1277.62 -0.0743816 8.81969 0
M  V30 12391 O 1278.16 1.97652 7.47304 0
M  V30 12392 C 1279.1 3.01133 7.08783 0
M  V30 12393 C 1278.37 4.12613 6.37049 0
M  V30 12394 O 1278.16 3.72827 4.97879 0
M  V30 12395 C 1276.97 4.45085 6.88694 0
M  V30 12396 O 1276.58 5.7877 6.5624 0
M  V30 12397 C 1276.09 3.47817 6.12078 0
M  V30 12398 C 1276.8 3.39414 4.77697 0
M  V30 12399 N 1276.75 2.04199 4.15538 0
M  V30 12400 H 1279.59 3.41248 7.98759 0
M  V30 12401 H 1279.86 2.57728 6.42 0
M  V30 12402 H 1279 5.02657 6.42673 0
M  V30 12403 H 1276.34 4.11708 4.08956 0
M  V30 12404 H 1276.06 2.49626 6.61679 0
M  V30 12405 H 1275.07 3.8662 6.00862 0
M  V30 12406 H 1276.9 4.29991 7.97006 0
M  V30 12407 P 1275.03 6.144 6.45285 0
M  V30 12408 O 1274.81 7.54673 6.86199 0
M  V30 12409 O 1274.24 5.12391 7.179 0
M  V30 12410 O 1274.78 5.99158 4.88404 0
M  V30 12411 C 1275.72 6.60234 3.96415 0
M  V30 12412 C 1274.99 7.08259 2.72856 0
M  V30 12413 O 1274.78 5.9427 1.83651 0
M  V30 12414 C 1273.59 7.64886 2.9555 0
M  V30 12415 O 1273.2 8.53963 1.90717 0
M  V30 12416 C 1272.71 6.4116 2.90739 0
M  V30 12417 C 1273.42 5.55375 1.86963 0
M  V30 12418 N 1273.37 4.09664 2.15742 0
M  V30 12419 C 1273.45 3.44381 3.37233 0
M  V30 12420 N 1273.37 2.14131 3.28347 0
M  V30 12421 C 1273.23 1.90247 1.91588 0
M  V30 12422 C 1273.1 0.683992 1.20892 0
M  V30 12423 N 1272.98 0.903396 -0.173998 0
M  V30 12424 C 1272.98 2.14171 -0.784879 0
M  V30 12425 N 1272.85 2.1435 -2.11317 0
M  V30 12426 N 1273.11 3.28784 -0.119316 0
M  V30 12427 C 1273.23 3.0977 1.22194 0
M  V30 12428 H 1276.21 7.45574 4.45629 0
M  V30 12429 H 1276.48 5.86232 3.67314 0
M  V30 12430 H 1275.62 7.84412 2.24479 0
M  V30 12431 P 1271.65 8.7635 1.60911 0
M  V30 12432 O 1271.43 10.1388 1.11561 0
M  V30 12433 O 1270.86 8.36503 2.79617 0
M  V30 12434 O 1271.4 7.71806 0.42951 0
M  V30 12435 C 1272.34 7.67148 -0.673689 0
M  V30 12436 C 1271.61 7.33374 -1.95559 0
M  V30 12437 O 1271.4 5.88721 -2.00726 0
M  V30 12438 C 1270.21 7.92526 -2.10483 0
M  V30 12439 O 1269.82 8.02971 -3.47653 0
M  V30 12440 C 1269.33 6.89602 -1.41652 0
M  V30 12441 C 1270.04 5.59201 -1.75185 0
M  V30 12442 N 1269.99 4.58235 -0.662552 0
M  V30 12443 C 1270.07 4.7683 0.704049 0
M  V30 12444 N 1269.99 3.66233 1.39775 0
M  V30 12445 C 1269.85 2.66526 0.431739 0
M  V30 12446 C 1269.72 1.26394 0.575992 0
M  V30 12447 N 1269.6 0.62859 -0.67177 0
M  V30 12448 C 1269.6 1.27134 -1.89385 0
M  V30 12449 N 1269.47 0.492035 -2.96951 0
M  V30 12450 N 1269.73 2.58978 -2.02907 0
M  V30 12451 C 1269.85 3.22433 -0.832218 0
M  V30 12452 H 1272.83 8.65116 -0.777161 0
M  V30 12453 H 1273.1 6.90173 -0.474152 0
M  V30 12454 H 1272.24 7.66548 -2.79458 0
M  V30 12455 P 1268.27 8.03563 -3.84925 0
M  V30 12456 O 1268.05 8.85821 -5.0569 0
M  V30 12457 O 1267.48 8.41101 -2.65469 0
M  V30 12458 O 1268.02 6.4965 -4.18908 0
M  V30 12459 C 1268.96 5.81037 -5.05421 0
M  V30 12460 C 1268.23 4.78366 -5.89277 0
M  V30 12461 O 1268.02 3.58302 -5.08433 0
M  V30 12462 C 1266.83 5.17448 -6.36119 0
M  V30 12463 O 1266.44 4.45271 -7.53232 0
M  V30 12464 C 1265.95 4.74639 -5.19936 0
M  V30 12465 C 1266.66 3.49432 -4.70418 0
M  V30 12466 N 1266.61 3.31776 -3.22945 0
M  V30 12467 H 1269.45 6.54213 -5.71376 0
M  V30 12468 H 1269.72 5.30492 -4.44033 0
M  V30 12469 H 1268.86 4.55889 -6.76652 0
M  V30 12470 P 1264.89 4.23843 -7.83734 0
M  V30 12471 O 1264.67 4.19407 -9.29784 0
M  V30 12472 O 1264.1 5.24426 -7.09156 0
M  V30 12473 O 1264.64 2.7935 -7.20758 0
M  V30 12474 C 1265.58 1.7299 -7.50419 0
M  V30 12475 C 1264.85 0.406376 -7.57911 0
M  V30 12476 O 1264.64 -0.0897726 -6.21935 0
M  V30 12477 C 1263.45 0.447224 -8.1878 0
M  V30 12478 O 1263.06 -0.825065 -8.71101 0
M  V30 12479 C 1262.57 0.783801 -6.99623 0
M  V30 12480 C 1263.28 0.0619192 -5.85967 0
M  V30 12481 N 1263.23 0.7859 -4.56281 0
M  V30 12482 H 1266.07 1.93423 -8.4679 0
M  V30 12483 H 1266.34 1.68181 -6.71046 0
M  V30 12484 H 1265.48 -0.289041 -8.15388 0
M  V30 12485 P 1261.51 -1.17771 -8.83182 0
M  V30 12486 O 1261.29 -2.07206 -9.98732 0
M  V30 12487 O 1260.72 0.0743816 -8.81969 0
M  V30 12488 O 1261.26 -1.97652 -7.47304 0
M  V30 12489 C 1262.2 -3.01133 -7.08783 0
M  V30 12490 C 1261.47 -4.12613 -6.37049 0
M  V30 12491 O 1261.26 -3.72827 -4.97879 0
M  V30 12492 C 1260.07 -4.45085 -6.88694 0
M  V30 12493 O 1259.68 -5.7877 -6.5624 0
M  V30 12494 C 1259.19 -3.47817 -6.12078 0
M  V30 12495 C 1259.9 -3.39414 -4.77697 0
M  V30 12496 N 1259.85 -2.04615 -4.15333 0
M  V30 12497 H 1262.69 -3.41248 -7.98759 0
M  V30 12498 H 1262.96 -2.5837 -6.41742 0
M  V30 12499 H 1262.1 -5.02657 -6.42673 0
M  V30 12500 P 1258.13 -6.144 -6.45285 0
M  V30 12501 O 1257.91 -7.54673 -6.86199 0
M  V30 12502 O 1257.34 -5.12391 -7.179 0
M  V30 12503 O 1257.88 -5.99236 -4.88467 0
M  V30 12504 C 1258.82 -6.60234 -3.96415 0
M  V30 12505 C 1258.09 -7.08079 -2.736 0
M  V30 12506 O 1257.88 -5.94365 -1.8368 0
M  V30 12507 C 1256.69 -7.64886 -2.9555 0
M  V30 12508 O 1256.3 -8.5406 -1.90739 0
M  V30 12509 C 1255.81 -6.4116 -2.90739 0
M  V30 12510 C 1256.52 -5.55375 -1.86963 0
M  V30 12511 N 1256.47 -4.09664 -2.15742 0
M  V30 12512 C 1256.32 -3.22231 -1.08477 0
M  V30 12513 O 1256.23 -3.68951 0.0600489 0
M  V30 12514 N 1256.27 -1.76692 -1.48799 0
M  V30 12515 C 1256.37 -1.41695 -2.57602 0
M  V30 12516 N 1256.32 -0.107296 -2.75791 0
M  V30 12517 C 1256.52 -2.29178 -3.69733 0
M  V30 12518 C 1256.57 -3.62753 -3.42653 0
M  V30 12519 H 1259.31 -7.45488 -4.45578 0
M  V30 12520 H 1259.58 -5.86232 -3.67314 0
M  V30 12521 H 1258.72 -7.84508 -2.24507 0
M  V30 12522 H 1256.06 -5.73556 -0.888715 0
M  V30 12523 H 1255.78 -5.9096 -3.88638 0
M  V30 12524 H 1254.79 -6.66053 -2.58894 0
M  V30 12525 H 1256.62 -8.16339 -3.92049 0
M  V30 12526 H 1256.7 -4.33052 -4.24913 0
M  V30 12527 H 1256.59 -1.9103 -4.71577 0
M  V30 12528 H 1256.21 0.521221 -1.95056 0
M  V30 12529 H 1256.4 0.286429 -3.70695 0
M  V30 12530 P 1254.75 -8.7635 -1.60911 0
M  V30 12531 O 1254.53 -10.1388 -1.11561 0
M  V30 12532 O 1253.96 -8.36503 -2.79617 0
M  V30 12533 O 1254.5 -7.71806 -0.42951 0
M  V30 12534 C 1255.44 -7.67148 0.673689 0
M  V30 12535 C 1254.71 -7.33374 1.95559 0
M  V30 12536 O 1254.5 -5.88721 2.00726 0
M  V30 12537 C 1253.31 -7.92526 2.10483 0
M  V30 12538 O 1252.92 -8.02971 3.47653 0
M  V30 12539 C 1252.43 -6.89602 1.41652 0
M  V30 12540 C 1253.14 -5.59201 1.75185 0
M  V30 12541 N 1253.09 -4.58301 0.657969 0
M  V30 12542 H 1255.93 -8.65116 0.777161 0
M  V30 12543 H 1256.2 -6.9022 0.46725 0
M  V30 12544 H 1255.34 -7.66548 2.79458 0
M  V30 12545 H 1252.68 -5.16165 2.65183 0
M  V30 12546 H 1252.4 -7.06433 0.329384 0
M  V30 12547 H 1251.41 -6.90926 1.82021 0
M  V30 12548 H 1253.24 -8.90873 1.62657 0
M  V30 12549 P 1251.37 -8.03563 3.84925 0
M  V30 12550 O 1251.15 -8.85821 5.0569 0
M  V30 12551 O 1250.58 -8.41101 2.65469 0
M  V30 12552 O 1251.12 -6.4965 4.18908 0
M  V30 12553 C 1252.06 -5.81037 5.05421 0
M  V30 12554 C 1251.33 -4.78366 5.89277 0
M  V30 12555 O 1251.12 -3.58302 5.08433 0
M  V30 12556 C 1249.93 -5.17448 6.36119 0
M  V30 12557 O 1249.54 -4.45271 7.53232 0
M  V30 12558 C 1249.05 -4.74639 5.19936 0
M  V30 12559 C 1249.76 -3.49432 4.70418 0
M  V30 12560 N 1249.71 -3.32099 3.22613 0
M  V30 12561 H 1252.55 -6.54213 5.71376 0
M  V30 12562 H 1252.82 -5.30936 4.43503 0
M  V30 12563 H 1251.96 -4.55889 6.76652 0
M  V30 12564 H 1249.3 -2.61715 5.17932 0
M  V30 12565 H 1249.02 -5.52155 4.41878 0
M  V30 12566 H 1248.03 -4.51981 5.53374 0
M  V30 12567 H 1249.86 -6.25124 6.55234 0
M  V30 12568 P 1247.99 -4.23843 7.83734 0
M  V30 12569 O 1247.77 -4.19407 9.29784 0
M  V30 12570 O 1247.2 -5.24426 7.09156 0
M  V30 12571 O 1247.74 -2.7935 7.20758 0
M  V30 12572 C 1248.68 -1.7299 7.50419 0
M  V30 12573 C 1247.95 -0.406376 7.57911 0
M  V30 12574 O 1247.74 0.0897726 6.21935 0
M  V30 12575 C 1246.55 -0.447224 8.1878 0
M  V30 12576 O 1246.16 0.825065 8.71101 0
M  V30 12577 C 1245.67 -0.783801 6.99623 0
M  V30 12578 C 1246.38 -0.0619192 5.85967 0
M  V30 12579 N 1246.33 -0.7859 4.56281 0
M  V30 12580 H 1249.17 -1.93423 8.4679 0
M  V30 12581 H 1249.44 -1.68181 6.71046 0
M  V30 12582 H 1248.58 0.289041 8.15388 0
M  V30 12583 P 1244.61 1.17771 8.83182 0
M  V30 12584 O 1244.39 2.07206 9.98732 0
M  V30 12585 O 1243.82 -0.0743816 8.81969 0
M  V30 12586 O 1244.36 1.97652 7.47304 0
M  V30 12587 C 1245.3 3.01133 7.08783 0
M  V30 12588 C 1244.57 4.12613 6.37049 0
M  V30 12589 O 1244.36 3.72827 4.97879 0
M  V30 12590 C 1243.17 4.45085 6.88694 0
M  V30 12591 O 1242.78 5.7877 6.5624 0
M  V30 12592 C 1242.29 3.47817 6.12078 0
M  V30 12593 C 1243 3.39414 4.77697 0
M  V30 12594 N 1242.95 2.04615 4.15333 0
M  V30 12595 H 1245.79 3.41248 7.98759 0
M  V30 12596 H 1246.06 2.5837 6.41742 0
M  V30 12597 H 1245.2 5.02657 6.42673 0
M  V30 12598 P 1241.23 6.144 6.45285 0
M  V30 12599 O 1241.01 7.54673 6.86199 0
M  V30 12600 O 1240.44 5.12391 7.179 0
M  V30 12601 O 1240.98 5.99158 4.88404 0
M  V30 12602 C 1241.92 6.60234 3.96415 0
M  V30 12603 C 1241.19 7.08259 2.72856 0
M  V30 12604 O 1240.98 5.9427 1.83651 0
M  V30 12605 C 1239.79 7.64886 2.9555 0
M  V30 12606 O 1239.4 8.53963 1.90717 0
M  V30 12607 C 1238.91 6.4116 2.90739 0
M  V30 12608 C 1239.62 5.55375 1.86963 0
M  V30 12609 N 1239.57 4.09664 2.15742 0
M  V30 12610 H 1242.41 7.45574 4.45629 0
M  V30 12611 H 1242.68 5.86232 3.67314 0
M  V30 12612 H 1241.82 7.84412 2.24479 0
M  V30 12613 P 1237.85 8.7635 1.60911 0
M  V30 12614 O 1237.63 10.1388 1.11561 0
M  V30 12615 O 1237.06 8.36503 2.79617 0
M  V30 12616 O 1237.6 7.71806 0.42951 0
M  V30 12617 C 1238.54 7.67148 -0.673689 0
M  V30 12618 C 1237.81 7.33374 -1.95559 0
M  V30 12619 O 1237.6 5.88721 -2.00726 0
M  V30 12620 C 1236.41 7.92526 -2.10483 0
M  V30 12621 O 1236.02 8.02971 -3.47653 0
M  V30 12622 C 1235.53 6.89602 -1.41652 0
M  V30 12623 C 1236.24 5.59201 -1.75185 0
M  V30 12624 N 1236.19 4.58235 -0.662552 0
M  V30 12625 H 1239.03 8.65116 -0.777161 0
M  V30 12626 H 1239.3 6.90173 -0.474152 0
M  V30 12627 H 1238.44 7.66548 -2.79458 0
M  V30 12628 P 1234.47 8.03563 -3.84925 0
M  V30 12629 O 1234.25 8.85821 -5.0569 0
M  V30 12630 O 1233.68 8.41101 -2.65469 0
M  V30 12631 O 1234.22 6.4965 -4.18908 0
M  V30 12632 C 1235.16 5.81037 -5.05421 0
M  V30 12633 C 1234.43 4.78366 -5.89277 0
M  V30 12634 O 1234.22 3.58302 -5.08433 0
M  V30 12635 C 1233.03 5.17448 -6.36119 0
M  V30 12636 O 1232.64 4.45271 -7.53232 0
M  V30 12637 C 1232.15 4.74639 -5.19936 0
M  V30 12638 C 1232.86 3.49432 -4.70418 0
M  V30 12639 N 1232.81 3.31776 -3.22945 0
M  V30 12640 H 1235.65 6.54213 -5.71376 0
M  V30 12641 H 1235.92 5.30492 -4.44033 0
M  V30 12642 H 1235.06 4.55889 -6.76652 0
M  V30 12643 P 1231.09 4.23843 -7.83734 0
M  V30 12644 O 1230.87 4.19407 -9.29784 0
M  V30 12645 O 1230.3 5.24426 -7.09156 0
M  V30 12646 O 1230.84 2.7935 -7.20758 0
M  V30 12647 C 1231.78 1.7299 -7.50419 0
M  V30 12648 C 1231.05 0.406376 -7.57911 0
M  V30 12649 O 1230.84 -0.0897726 -6.21935 0
M  V30 12650 C 1229.65 0.447224 -8.1878 0
M  V30 12651 O 1229.26 -0.825065 -8.71101 0
M  V30 12652 C 1228.77 0.783801 -6.99623 0
M  V30 12653 C 1229.48 0.0619192 -5.85967 0
M  V30 12654 N 1229.43 0.7859 -4.56281 0
M  V30 12655 H 1232.27 1.93423 -8.4679 0
M  V30 12656 H 1232.54 1.68181 -6.71046 0
M  V30 12657 H 1231.68 -0.289041 -8.15388 0
M  V30 12658 P 1227.71 -1.17771 -8.83182 0
M  V30 12659 O 1227.49 -2.07206 -9.98732 0
M  V30 12660 O 1226.92 0.0743816 -8.81969 0
M  V30 12661 O 1227.46 -1.97652 -7.47304 0
M  V30 12662 C 1228.4 -3.01133 -7.08783 0
M  V30 12663 C 1227.67 -4.12613 -6.37049 0
M  V30 12664 O 1227.46 -3.72827 -4.97879 0
M  V30 12665 C 1226.27 -4.45085 -6.88694 0
M  V30 12666 O 1225.88 -5.7877 -6.5624 0
M  V30 12667 C 1225.39 -3.47817 -6.12078 0
M  V30 12668 C 1226.1 -3.39414 -4.77697 0
M  V30 12669 N 1226.05 -2.04199 -4.15538 0
M  V30 12670 H 1228.89 -3.41248 -7.98759 0
M  V30 12671 H 1229.16 -2.57728 -6.42 0
M  V30 12672 H 1228.3 -5.02657 -6.42673 0
M  V30 12673 H 1225.64 -4.11708 -4.08956 0
M  V30 12674 H 1225.36 -2.49626 -6.61679 0
M  V30 12675 H 1224.37 -3.8662 -6.00862 0
M  V30 12676 H 1226.2 -4.29991 -7.97006 0
M  V30 12677 P 1224.33 -6.144 -6.45285 0
M  V30 12678 O 1224.11 -7.54673 -6.86199 0
M  V30 12679 O 1223.54 -5.12391 -7.179 0
M  V30 12680 O 1224.08 -5.99158 -4.88404 0
M  V30 12681 C 1225.02 -6.60234 -3.96415 0
M  V30 12682 C 1224.29 -7.08259 -2.72856 0
M  V30 12683 O 1224.08 -5.9427 -1.83651 0
M  V30 12684 C 1222.89 -7.64886 -2.9555 0
M  V30 12685 O 1222.5 -8.53963 -1.90717 0
M  V30 12686 C 1222.01 -6.4116 -2.90739 0
M  V30 12687 C 1222.72 -5.55375 -1.86963 0
M  V30 12688 N 1222.67 -4.09664 -2.15742 0
M  V30 12689 H 1225.51 -7.45574 -4.45629 0
M  V30 12690 H 1225.78 -5.86232 -3.67314 0
M  V30 12691 H 1224.92 -7.84412 -2.24479 0
M  V30 12692 P 1220.95 -8.7635 -1.60911 0
M  V30 12693 O 1220.73 -10.1388 -1.11561 0
M  V30 12694 O 1220.16 -8.36503 -2.79617 0
M  V30 12695 O 1220.7 -7.71806 -0.42951 0
M  V30 12696 C 1221.64 -7.67148 0.673689 0
M  V30 12697 C 1220.91 -7.33374 1.95559 0
M  V30 12698 O 1220.7 -5.88721 2.00726 0
M  V30 12699 C 1219.51 -7.92526 2.10483 0
M  V30 12700 O 1219.12 -8.02971 3.47653 0
M  V30 12701 C 1218.63 -6.89602 1.41652 0
M  V30 12702 C 1219.34 -5.59201 1.75185 0
M  V30 12703 N 1219.29 -4.58235 0.662552 0
M  V30 12704 H 1222.13 -8.65116 0.777161 0
M  V30 12705 H 1222.4 -6.90173 0.474152 0
M  V30 12706 H 1221.54 -7.66548 2.79458 0
M  V30 12707 P 1217.57 -8.03563 3.84925 0
M  V30 12708 O 1217.35 -8.85821 5.0569 0
M  V30 12709 O 1216.78 -8.41101 2.65469 0
M  V30 12710 O 1217.32 -6.4965 4.18908 0
M  V30 12711 C 1218.26 -5.81037 5.05421 0
M  V30 12712 C 1217.53 -4.78366 5.89277 0
M  V30 12713 O 1217.32 -3.58302 5.08433 0
M  V30 12714 C 1216.13 -5.17448 6.36119 0
M  V30 12715 O 1215.74 -4.45271 7.53232 0
M  V30 12716 C 1215.25 -4.74639 5.19936 0
M  V30 12717 C 1215.96 -3.49432 4.70418 0
M  V30 12718 N 1215.91 -3.31776 3.22945 0
M  V30 12719 H 1218.75 -6.54213 5.71376 0
M  V30 12720 H 1219.02 -5.30492 4.44033 0
M  V30 12721 H 1218.16 -4.55889 6.76652 0
M  V30 12722 P 1214.19 -4.23843 7.83734 0
M  V30 12723 O 1213.97 -4.19407 9.29784 0
M  V30 12724 O 1213.4 -5.24426 7.09156 0
M  V30 12725 O 1213.94 -2.7935 7.20758 0
M  V30 12726 C 1214.88 -1.7299 7.50419 0
M  V30 12727 C 1214.15 -0.406376 7.57911 0
M  V30 12728 O 1213.94 0.0897726 6.21935 0
M  V30 12729 C 1212.75 -0.447224 8.1878 0
M  V30 12730 O 1212.36 0.825065 8.71101 0
M  V30 12731 C 1211.87 -0.783801 6.99623 0
M  V30 12732 C 1212.58 -0.0619192 5.85967 0
M  V30 12733 N 1212.53 -0.7859 4.56281 0
M  V30 12734 H 1215.37 -1.93423 8.4679 0
M  V30 12735 H 1215.64 -1.68181 6.71046 0
M  V30 12736 H 1214.78 0.289041 8.15388 0
M  V30 12737 P 1210.81 1.17771 8.83182 0
M  V30 12738 O 1210.59 2.07206 9.98732 0
M  V30 12739 O 1210.02 -0.0743816 8.81969 0
M  V30 12740 O 1210.56 1.97652 7.47304 0
M  V30 12741 C 1211.5 3.01133 7.08783 0
M  V30 12742 C 1210.77 4.12613 6.37049 0
M  V30 12743 O 1210.56 3.72827 4.97879 0
M  V30 12744 C 1209.37 4.45085 6.88694 0
M  V30 12745 O 1208.98 5.7877 6.5624 0
M  V30 12746 C 1208.49 3.47817 6.12078 0
M  V30 12747 C 1209.2 3.39414 4.77697 0
M  V30 12748 N 1209.15 2.04615 4.15333 0
M  V30 12749 H 1211.99 3.41248 7.98759 0
M  V30 12750 H 1212.26 2.5837 6.41742 0
M  V30 12751 H 1211.4 5.02657 6.42673 0
M  V30 12752 P 1207.43 6.144 6.45285 0
M  V30 12753 O 1207.21 7.54673 6.86199 0
M  V30 12754 O 1206.64 5.12391 7.179 0
M  V30 12755 O 1207.18 5.99158 4.88404 0
M  V30 12756 C 1208.12 6.60234 3.96415 0
M  V30 12757 C 1207.39 7.08259 2.72856 0
M  V30 12758 O 1207.18 5.9427 1.83651 0
M  V30 12759 C 1205.99 7.64886 2.9555 0
M  V30 12760 O 1205.6 8.53963 1.90717 0
M  V30 12761 C 1205.11 6.4116 2.90739 0
M  V30 12762 C 1205.82 5.55375 1.86963 0
M  V30 12763 N 1205.77 4.09664 2.15742 0
M  V30 12764 H 1208.61 7.45574 4.45629 0
M  V30 12765 H 1208.88 5.86232 3.67314 0
M  V30 12766 H 1208.02 7.84412 2.24479 0
M  V30 12767 P 1204.05 8.7635 1.60911 0
M  V30 12768 O 1203.83 10.1388 1.11561 0
M  V30 12769 O 1203.26 8.36503 2.79617 0
M  V30 12770 O 1203.8 7.71806 0.42951 0
M  V30 12771 C 1204.74 7.67148 -0.673689 0
M  V30 12772 C 1204.01 7.33374 -1.95559 0
M  V30 12773 O 1203.8 5.88721 -2.00726 0
M  V30 12774 C 1202.61 7.92526 -2.10483 0
M  V30 12775 O 1202.22 8.02971 -3.47653 0
M  V30 12776 C 1201.73 6.89602 -1.41652 0
M  V30 12777 C 1202.44 5.59201 -1.75185 0
M  V30 12778 N 1202.39 4.58301 -0.657969 0
M  V30 12779 H 1205.23 8.65116 -0.777161 0
M  V30 12780 H 1205.5 6.9022 -0.46725 0
M  V30 12781 H 1204.64 7.66548 -2.79458 0
M  V30 12782 H 1201.98 5.16165 -2.65183 0
M  V30 12783 H 1201.7 7.06433 -0.329384 0
M  V30 12784 H 1200.71 6.90926 -1.82021 0
M  V30 12785 H 1202.54 8.90873 -1.62657 0
M  V30 12786 P 1200.67 8.03563 -3.84925 0
M  V30 12787 O 1200.45 8.85821 -5.0569 0
M  V30 12788 O 1199.88 8.41101 -2.65469 0
M  V30 12789 O 1200.42 6.4965 -4.18908 0
M  V30 12790 C 1201.36 5.81037 -5.05421 0
M  V30 12791 C 1200.63 4.78366 -5.89277 0
M  V30 12792 O 1200.42 3.58302 -5.08433 0
M  V30 12793 C 1199.23 5.17448 -6.36119 0
M  V30 12794 O 1198.84 4.45271 -7.53232 0
M  V30 12795 C 1198.35 4.74639 -5.19936 0
M  V30 12796 C 1199.06 3.49432 -4.70418 0
M  V30 12797 N 1199.01 3.31776 -3.22945 0
M  V30 12798 H 1201.85 6.54213 -5.71376 0
M  V30 12799 H 1202.12 5.30492 -4.44033 0
M  V30 12800 H 1201.26 4.55889 -6.76652 0
M  V30 12801 P 1197.29 4.23843 -7.83734 0
M  V30 12802 O 1197.07 4.19407 -9.29784 0
M  V30 12803 O 1196.5 5.24426 -7.09156 0
M  V30 12804 O 1197.04 2.7935 -7.20758 0
M  V30 12805 C 1197.98 1.7299 -7.50419 0
M  V30 12806 C 1197.25 0.406376 -7.57911 0
M  V30 12807 O 1197.04 -0.0897726 -6.21935 0
M  V30 12808 C 1195.85 0.447224 -8.1878 0
M  V30 12809 O 1195.46 -0.825065 -8.71101 0
M  V30 12810 C 1194.97 0.783801 -6.99623 0
M  V30 12811 C 1195.68 0.0619192 -5.85967 0
M  V30 12812 N 1195.63 0.790462 -4.56202 0
M  V30 12813 C 1195.71 2.13895 -4.34171 0
M  V30 12814 N 1195.64 2.46449 -3.08687 0
M  V30 12815 C 1195.49 1.2525 -2.43697 0
M  V30 12816 C 1195.36 0.914535 -1.07318 0
M  V30 12817 N 1195.35 1.80782 -0.0887348 0
M  V30 12818 N 1195.24 -0.386745 -0.768133 0
M  V30 12819 C 1195.25 -1.28096 -1.75159 0
M  V30 12820 N 1195.37 -1.09708 -3.04861 0
M  V30 12821 C 1195.49 0.214857 -3.32306 0
M  V30 12822 H 1198.47 1.93423 -8.4679 0
M  V30 12823 H 1198.74 1.68852 -6.70877 0
M  V30 12824 H 1197.88 -0.289041 -8.15388 0
M  V30 12825 H 1195.22 -0.927006 -5.72848 0
M  V30 12826 H 1194.94 1.86973 -6.82036 0
M  V30 12827 H 1193.95 0.403953 -7.13357 0
M  V30 12828 H 1195.78 1.20599 -8.97534 0
M  V30 12829 H 1195.82 2.86846 -5.14318 0
M  V30 12830 H 1195.44 2.81082 -0.302037 0
M  V30 12831 H 1195.25 1.49688 0.889064 0
M  V30 12832 H 1195.15 -2.31317 -1.43855 0
M  V30 12833 P 1193.91 -1.17771 -8.83182 0
M  V30 12834 O 1193.69 -2.07206 -9.98732 0
M  V30 12835 O 1193.12 0.0743816 -8.81969 0
M  V30 12836 O 1193.66 -1.97652 -7.47304 0
M  V30 12837 C 1194.6 -3.01133 -7.08783 0
M  V30 12838 C 1193.87 -4.12613 -6.37049 0
M  V30 12839 O 1193.66 -3.72827 -4.97879 0
M  V30 12840 C 1192.47 -4.45085 -6.88694 0
M  V30 12841 O 1192.08 -5.7877 -6.5624 0
M  V30 12842 C 1191.59 -3.47817 -6.12078 0
M  V30 12843 C 1192.3 -3.39414 -4.77697 0
M  V30 12844 N 1192.25 -2.04199 -4.15538 0
M  V30 12845 H 1195.09 -3.41248 -7.98759 0
M  V30 12846 H 1195.36 -2.57728 -6.42 0
M  V30 12847 H 1194.5 -5.02657 -6.42673 0
M  V30 12848 H 1191.84 -4.11708 -4.08956 0
M  V30 12849 H 1191.56 -2.49626 -6.61679 0
M  V30 12850 H 1190.57 -3.8662 -6.00862 0
M  V30 12851 H 1192.4 -4.29991 -7.97006 0
M  V30 12852 P 1190.53 -6.144 -6.45285 0
M  V30 12853 O 1190.31 -7.54673 -6.86199 0
M  V30 12854 O 1189.74 -5.12391 -7.179 0
M  V30 12855 O 1190.28 -5.99236 -4.88467 0
M  V30 12856 C 1191.22 -6.60234 -3.96415 0
M  V30 12857 C 1190.49 -7.08079 -2.736 0
M  V30 12858 O 1190.28 -5.94365 -1.8368 0
M  V30 12859 C 1189.09 -7.64886 -2.9555 0
M  V30 12860 O 1188.7 -8.5406 -1.90739 0
M  V30 12861 C 1188.21 -6.4116 -2.90739 0
M  V30 12862 C 1188.92 -5.55375 -1.86963 0
M  V30 12863 N 1188.87 -4.09664 -2.15742 0
M  V30 12864 C 1188.72 -3.22231 -1.08477 0
M  V30 12865 O 1188.63 -3.68951 0.0600489 0
M  V30 12866 N 1188.67 -1.76692 -1.48799 0
M  V30 12867 C 1188.77 -1.41695 -2.57602 0
M  V30 12868 N 1188.72 -0.107296 -2.75791 0
M  V30 12869 C 1188.92 -2.29178 -3.69733 0
M  V30 12870 C 1188.97 -3.62753 -3.42653 0
M  V30 12871 H 1191.71 -7.45488 -4.45578 0
M  V30 12872 H 1191.98 -5.86232 -3.67314 0
M  V30 12873 H 1191.12 -7.84508 -2.24507 0
M  V30 12874 H 1188.46 -5.73556 -0.888715 0
M  V30 12875 H 1188.18 -5.9096 -3.88638 0
M  V30 12876 H 1187.19 -6.66053 -2.58894 0
M  V30 12877 H 1189.02 -8.16339 -3.92049 0
M  V30 12878 H 1189.1 -4.33052 -4.24913 0
M  V30 12879 H 1188.99 -1.9103 -4.71577 0
M  V30 12880 H 1188.61 0.521221 -1.95056 0
M  V30 12881 H 1188.8 0.286429 -3.70695 0
M  V30 12882 P 1187.15 -8.7635 -1.60911 0
M  V30 12883 O 1186.93 -10.1388 -1.11561 0
M  V30 12884 O 1186.36 -8.36503 -2.79617 0
M  V30 12885 O 1186.9 -7.71806 -0.42951 0
M  V30 12886 C 1187.84 -7.67148 0.673689 0
M  V30 12887 C 1187.11 -7.33374 1.95559 0
M  V30 12888 O 1186.9 -5.88721 2.00726 0
M  V30 12889 C 1185.71 -7.92526 2.10483 0
M  V30 12890 O 1185.32 -8.02971 3.47653 0
M  V30 12891 C 1184.83 -6.89602 1.41652 0
M  V30 12892 C 1185.54 -5.59201 1.75185 0
M  V30 12893 N 1185.49 -4.58235 0.662552 0
M  V30 12894 H 1188.33 -8.65116 0.777161 0
M  V30 12895 H 1188.6 -6.90173 0.474152 0
M  V30 12896 H 1187.74 -7.66548 2.79458 0
M  V30 12897 P 1183.77 -8.03563 3.84925 0
M  V30 12898 O 1183.55 -8.85821 5.0569 0
M  V30 12899 O 1182.98 -8.41101 2.65469 0
M  V30 12900 O 1183.52 -6.4965 4.18908 0
M  V30 12901 C 1184.46 -5.81037 5.05421 0
M  V30 12902 C 1183.73 -4.78366 5.89277 0
M  V30 12903 O 1183.52 -3.58302 5.08433 0
M  V30 12904 C 1182.33 -5.17448 6.36119 0
M  V30 12905 O 1181.94 -4.45271 7.53232 0
M  V30 12906 C 1181.45 -4.74639 5.19936 0
M  V30 12907 C 1182.16 -3.49432 4.70418 0
M  V30 12908 N 1182.11 -3.32099 3.22613 0
M  V30 12909 H 1184.95 -6.54213 5.71376 0
M  V30 12910 H 1185.22 -5.30936 4.43503 0
M  V30 12911 H 1184.36 -4.55889 6.76652 0
M  V30 12912 H 1181.7 -2.61715 5.17932 0
M  V30 12913 H 1181.42 -5.52155 4.41878 0
M  V30 12914 H 1180.43 -4.51981 5.53374 0
M  V30 12915 H 1182.26 -6.25124 6.55234 0
M  V30 12916 P 1180.39 -4.23843 7.83734 0
M  V30 12917 O 1180.17 -4.19407 9.29784 0
M  V30 12918 O 1179.6 -5.24426 7.09156 0
M  V30 12919 O 1180.14 -2.7935 7.20758 0
M  V30 12920 C 1181.08 -1.7299 7.50419 0
M  V30 12921 C 1180.35 -0.406376 7.57911 0
M  V30 12922 O 1180.14 0.0897726 6.21935 0
M  V30 12923 C 1178.95 -0.447224 8.1878 0
M  V30 12924 O 1178.56 0.825065 8.71101 0
M  V30 12925 C 1178.07 -0.783801 6.99623 0
M  V30 12926 C 1178.78 -0.0619192 5.85967 0
M  V30 12927 N 1178.73 -0.790462 4.56202 0
M  V30 12928 C 1178.81 -2.13895 4.34171 0
M  V30 12929 N 1178.74 -2.46449 3.08687 0
M  V30 12930 C 1178.59 -1.2525 2.43697 0
M  V30 12931 C 1178.46 -0.914535 1.07318 0
M  V30 12932 N 1178.45 -1.80782 0.0887348 0
M  V30 12933 N 1178.34 0.386745 0.768133 0
M  V30 12934 C 1178.35 1.28096 1.75159 0
M  V30 12935 N 1178.47 1.09708 3.04861 0
M  V30 12936 C 1178.59 -0.214857 3.32306 0
M  V30 12937 H 1181.57 -1.93423 8.4679 0
M  V30 12938 H 1181.84 -1.68852 6.70877 0
M  V30 12939 H 1180.98 0.289041 8.15388 0
M  V30 12940 H 1178.32 0.927006 5.72848 0
M  V30 12941 H 1178.04 -1.86973 6.82036 0
M  V30 12942 H 1177.05 -0.403953 7.13357 0
M  V30 12943 H 1178.88 -1.20599 8.97534 0
M  V30 12944 H 1178.93 -2.86846 5.14318 0
M  V30 12945 H 1178.54 -2.81082 0.302037 0
M  V30 12946 H 1178.36 -1.49688 -0.889064 0
M  V30 12947 H 1178.25 2.31317 1.43855 0
M  V30 12948 P 1177.01 1.17771 8.83182 0
M  V30 12949 O 1176.79 2.07206 9.98732 0
M  V30 12950 O 1176.22 -0.0743816 8.81969 0
M  V30 12951 O 1176.76 1.97652 7.47304 0
M  V30 12952 C 1177.7 3.01133 7.08783 0
M  V30 12953 C 1176.97 4.12613 6.37049 0
M  V30 12954 O 1176.76 3.72827 4.97879 0
M  V30 12955 C 1175.57 4.45085 6.88694 0
M  V30 12956 O 1175.18 5.7877 6.5624 0
M  V30 12957 C 1174.69 3.47817 6.12078 0
M  V30 12958 C 1175.4 3.39414 4.77697 0
M  V30 12959 N 1175.35 2.04615 4.15333 0
M  V30 12960 H 1178.19 3.41248 7.98759 0
M  V30 12961 H 1178.46 2.5837 6.41742 0
M  V30 12962 H 1177.6 5.02657 6.42673 0
M  V30 12963 P 1173.63 6.144 6.45285 0
M  V30 12964 O 1173.41 7.54673 6.86199 0
M  V30 12965 O 1172.84 5.12391 7.179 0
M  V30 12966 O 1173.38 5.99158 4.88404 0
M  V30 12967 C 1174.32 6.60234 3.96415 0
M  V30 12968 C 1173.59 7.08259 2.72856 0
M  V30 12969 O 1173.38 5.9427 1.83651 0
M  V30 12970 C 1172.19 7.64886 2.9555 0
M  V30 12971 O 1171.8 8.53963 1.90717 0
M  V30 12972 C 1171.31 6.4116 2.90739 0
M  V30 12973 C 1172.02 5.55375 1.86963 0
M  V30 12974 N 1171.97 4.09664 2.15742 0
M  V30 12975 H 1174.81 7.45574 4.45629 0
M  V30 12976 H 1175.08 5.86232 3.67314 0
M  V30 12977 H 1174.22 7.84412 2.24479 0
M  V30 12978 P 1170.25 8.7635 1.60911 0
M  V30 12979 O 1170.03 10.1388 1.11561 0
M  V30 12980 O 1169.46 8.36503 2.79617 0
M  V30 12981 O 1170 7.71806 0.42951 0
M  V30 12982 C 1170.94 7.67148 -0.673689 0
M  V30 12983 C 1170.21 7.33374 -1.95559 0
M  V30 12984 O 1170 5.88721 -2.00726 0
M  V30 12985 C 1168.81 7.92526 -2.10483 0
M  V30 12986 O 1168.42 8.02971 -3.47653 0
M  V30 12987 C 1167.93 6.89602 -1.41652 0
M  V30 12988 C 1168.64 5.59201 -1.75185 0
M  V30 12989 N 1168.59 4.58235 -0.662552 0
M  V30 12990 H 1171.43 8.65116 -0.777161 0
M  V30 12991 H 1171.7 6.90173 -0.474152 0
M  V30 12992 H 1170.84 7.66548 -2.79458 0
M  V30 12993 P 1166.87 8.03563 -3.84925 0
M  V30 12994 O 1166.65 8.85821 -5.0569 0
M  V30 12995 O 1166.08 8.41101 -2.65469 0
M  V30 12996 O 1166.62 6.4965 -4.18908 0
M  V30 12997 C 1167.56 5.81037 -5.05421 0
M  V30 12998 C 1166.83 4.78366 -5.89277 0
M  V30 12999 O 1166.62 3.58302 -5.08433 0
M  V30 13000 C 1165.43 5.17448 -6.36119 0
M  V30 13001 O 1165.04 4.45271 -7.53232 0
M  V30 13002 C 1164.55 4.74639 -5.19936 0
M  V30 13003 C 1165.26 3.49432 -4.70418 0
M  V30 13004 N 1165.21 3.32099 -3.22613 0
M  V30 13005 H 1168.05 6.54213 -5.71376 0
M  V30 13006 H 1168.32 5.30936 -4.43503 0
M  V30 13007 H 1167.46 4.55889 -6.76652 0
M  V30 13008 H 1164.8 2.61715 -5.17932 0
M  V30 13009 H 1164.52 5.52155 -4.41878 0
M  V30 13010 H 1163.53 4.51981 -5.53374 0
M  V30 13011 H 1165.36 6.25124 -6.55234 0
M  V30 13012 P 1163.49 4.23843 -7.83734 0
M  V30 13013 O 1163.27 4.19407 -9.29784 0
M  V30 13014 O 1162.7 5.24426 -7.09156 0
M  V30 13015 O 1163.24 2.7935 -7.20758 0
M  V30 13016 C 1164.18 1.7299 -7.50419 0
M  V30 13017 C 1163.45 0.406376 -7.57911 0
M  V30 13018 O 1163.24 -0.0897726 -6.21935 0
M  V30 13019 C 1162.05 0.447224 -8.1878 0
M  V30 13020 O 1161.66 -0.825065 -8.71101 0
M  V30 13021 C 1161.17 0.783801 -6.99623 0
M  V30 13022 C 1161.88 0.0619192 -5.85967 0
M  V30 13023 N 1161.83 0.7859 -4.56281 0
M  V30 13024 H 1164.67 1.93423 -8.4679 0
M  V30 13025 H 1164.94 1.68181 -6.71046 0
M  V30 13026 H 1164.08 -0.289041 -8.15388 0
M  V30 13027 P 1160.11 -1.17771 -8.83182 0
M  V30 13028 O 1159.89 -2.07206 -9.98732 0
M  V30 13029 O 1159.32 0.0743816 -8.81969 0
M  V30 13030 O 1159.86 -1.97652 -7.47304 0
M  V30 13031 C 1160.8 -3.01133 -7.08783 0
M  V30 13032 C 1160.07 -4.12613 -6.37049 0
M  V30 13033 O 1159.86 -3.72827 -4.97879 0
M  V30 13034 C 1158.67 -4.45085 -6.88694 0
M  V30 13035 O 1158.28 -5.7877 -6.5624 0
M  V30 13036 C 1157.79 -3.47817 -6.12078 0
M  V30 13037 C 1158.5 -3.39414 -4.77697 0
M  V30 13038 N 1158.45 -2.04199 -4.15538 0
M  V30 13039 H 1161.29 -3.41248 -7.98759 0
M  V30 13040 H 1161.56 -2.57728 -6.42 0
M  V30 13041 H 1160.7 -5.02657 -6.42673 0
M  V30 13042 H 1158.04 -4.11708 -4.08956 0
M  V30 13043 H 1157.76 -2.49626 -6.61679 0
M  V30 13044 H 1156.77 -3.8662 -6.00862 0
M  V30 13045 H 1158.6 -4.29991 -7.97006 0
M  V30 13046 P 1156.73 -6.144 -6.45285 0
M  V30 13047 O 1156.51 -7.54673 -6.86199 0
M  V30 13048 O 1155.94 -5.12391 -7.179 0
M  V30 13049 O 1156.48 -5.99158 -4.88404 0
M  V30 13050 C 1157.42 -6.60234 -3.96415 0
M  V30 13051 C 1156.69 -7.08259 -2.72856 0
M  V30 13052 O 1156.48 -5.9427 -1.83651 0
M  V30 13053 C 1155.29 -7.64886 -2.9555 0
M  V30 13054 O 1154.9 -8.53963 -1.90717 0
M  V30 13055 C 1154.41 -6.4116 -2.90739 0
M  V30 13056 C 1155.12 -5.55375 -1.86963 0
M  V30 13057 N 1155.07 -4.09664 -2.15742 0
M  V30 13058 H 1157.91 -7.45574 -4.45629 0
M  V30 13059 H 1158.18 -5.86232 -3.67314 0
M  V30 13060 H 1157.32 -7.84412 -2.24479 0
M  V30 13061 P 1153.35 -8.7635 -1.60911 0
M  V30 13062 O 1153.13 -10.1388 -1.11561 0
M  V30 13063 O 1152.56 -8.36503 -2.79617 0
M  V30 13064 O 1153.1 -7.71906 -0.429565 0
M  V30 13065 C 1154.04 -7.67148 0.673689 0
M  V30 13066 C 1153.31 -7.33666 1.94851 0
M  V30 13067 O 1153.1 -5.88816 2.00759 0
M  V30 13068 C 1151.91 -7.92526 2.10483 0
M  V30 13069 O 1151.52 -8.03063 3.47693 0
M  V30 13070 C 1151.03 -6.89602 1.41652 0
M  V30 13071 C 1151.74 -5.59201 1.75185 0
M  V30 13072 N 1151.69 -4.58235 0.662552 0
M  V30 13073 C 1151.54 -3.24451 1.01643 0
M  V30 13074 O 1151.45 -2.94958 2.21722 0
M  V30 13075 N 1151.49 -2.30408 -0.165238 0
M  V30 13076 C 1151.59 -2.66048 -1.25118 0
M  V30 13077 N 1151.54 -1.70787 -2.16813 0
M  V30 13078 C 1151.74 -4.02732 -1.64413 0
M  V30 13079 C 1151.79 -4.9488 -0.63991 0
M  V30 13080 H 1154.53 -8.65017 0.777072 0
M  V30 13081 H 1154.8 -6.90173 0.474152 0
M  V30 13082 H 1153.94 -7.66642 2.79492 0
M  V30 13083 H 1151.28 -5.16254 2.65229 0
M  V30 13084 H 1151 -7.06532 0.329431 0
M  V30 13085 H 1150.01 -6.91023 1.82047 0
M  V30 13086 H 1151.84 -8.90873 1.62657 0
M  V30 13087 H 1151.92 -6.00104 -0.892197 0
M  V30 13088 H 1151.81 -4.31733 -2.69229 0
M  V30 13089 H 1151.43 -0.724835 -1.8844 0
M  V30 13090 H 1151.62 -1.94716 -3.16734 0
M  V30 13091 P 1149.97 -8.03563 3.84925 0
M  V30 13092 O 1149.75 -8.85821 5.0569 0
M  V30 13093 O 1149.18 -8.41101 2.65469 0
M  V30 13094 O 1149.72 -6.4965 4.18908 0
M  V30 13095 C 1150.66 -5.81037 5.05421 0
M  V30 13096 C 1149.93 -4.78366 5.89277 0
M  V30 13097 O 1149.72 -3.58302 5.08433 0
M  V30 13098 C 1148.53 -5.17448 6.36119 0
M  V30 13099 O 1148.14 -4.45271 7.53232 0
M  V30 13100 C 1147.65 -4.74639 5.19936 0
M  V30 13101 C 1148.36 -3.49432 4.70418 0
M  V30 13102 N 1148.31 -3.31776 3.22945 0
M  V30 13103 H 1151.15 -6.54213 5.71376 0
M  V30 13104 H 1151.42 -5.30492 4.44033 0
M  V30 13105 H 1150.56 -4.55889 6.76652 0
M  V30 13106 P 1146.59 -4.23843 7.83734 0
M  V30 13107 O 1146.37 -4.19407 9.29784 0
M  V30 13108 O 1145.8 -5.24426 7.09156 0
M  V30 13109 O 1146.34 -2.7935 7.20758 0
M  V30 13110 C 1147.28 -1.7299 7.50419 0
M  V30 13111 C 1146.55 -0.406376 7.57911 0
M  V30 13112 O 1146.34 0.0897726 6.21935 0
M  V30 13113 C 1145.15 -0.447224 8.1878 0
M  V30 13114 O 1144.76 0.825065 8.71101 0
M  V30 13115 C 1144.27 -0.783801 6.99623 0
M  V30 13116 C 1144.98 -0.0619192 5.85967 0
M  V30 13117 N 1144.93 -0.790462 4.56202 0
M  V30 13118 H 1147.77 -1.93423 8.4679 0
M  V30 13119 H 1148.04 -1.68852 6.70877 0
M  V30 13120 H 1147.18 0.289041 8.15388 0
M  V30 13121 H 1144.52 0.927006 5.72848 0
M  V30 13122 H 1144.24 -1.86973 6.82036 0
M  V30 13123 H 1143.25 -0.403953 7.13357 0
M  V30 13124 H 1145.08 -1.20599 8.97534 0
M  V30 13125 P 1143.21 1.17771 8.83182 0
M  V30 13126 O 1142.99 2.07206 9.98732 0
M  V30 13127 O 1142.42 -0.0743816 8.81969 0
M  V30 13128 O 1142.96 1.97652 7.47304 0
M  V30 13129 C 1143.9 3.01133 7.08783 0
M  V30 13130 C 1143.17 4.12613 6.37049 0
M  V30 13131 O 1142.96 3.72827 4.97879 0
M  V30 13132 C 1141.77 4.45085 6.88694 0
M  V30 13133 O 1141.38 5.7877 6.5624 0
M  V30 13134 C 1140.89 3.47817 6.12078 0
M  V30 13135 C 1141.6 3.39414 4.77697 0
M  V30 13136 N 1141.55 2.04199 4.15538 0
M  V30 13137 H 1144.39 3.41248 7.98759 0
M  V30 13138 H 1144.66 2.57728 6.42 0
M  V30 13139 H 1143.8 5.02657 6.42673 0
M  V30 13140 H 1141.14 4.11708 4.08956 0
M  V30 13141 H 1140.86 2.49626 6.61679 0
M  V30 13142 H 1139.87 3.8662 6.00862 0
M  V30 13143 H 1141.7 4.29991 7.97006 0
M  V30 13144 P 1139.83 6.144 6.45285 0
M  V30 13145 O 1139.61 7.54673 6.86199 0
M  V30 13146 O 1139.04 5.12391 7.179 0
M  V30 13147 O 1139.58 5.99236 4.88467 0
M  V30 13148 C 1140.52 6.60234 3.96415 0
M  V30 13149 C 1139.79 7.08079 2.736 0
M  V30 13150 O 1139.58 5.94365 1.8368 0
M  V30 13151 C 1138.39 7.64886 2.9555 0
M  V30 13152 O 1138 8.5406 1.90739 0
M  V30 13153 C 1137.51 6.4116 2.90739 0
M  V30 13154 C 1138.22 5.55375 1.86963 0
M  V30 13155 N 1138.17 4.09664 2.15742 0
M  V30 13156 C 1138.02 3.22231 1.08477 0
M  V30 13157 O 1137.93 3.68951 -0.0600489 0
M  V30 13158 N 1137.97 1.76692 1.48799 0
M  V30 13159 C 1138.07 1.41695 2.57602 0
M  V30 13160 N 1138.02 0.107296 2.75791 0
M  V30 13161 C 1138.22 2.29178 3.69733 0
M  V30 13162 C 1138.27 3.62753 3.42653 0
M  V30 13163 H 1141.01 7.45488 4.45578 0
M  V30 13164 H 1141.28 5.86232 3.67314 0
M  V30 13165 H 1140.42 7.84508 2.24507 0
M  V30 13166 H 1137.76 5.73556 0.888715 0
M  V30 13167 H 1137.48 5.9096 3.88638 0
M  V30 13168 H 1136.49 6.66053 2.58894 0
M  V30 13169 H 1138.32 8.16339 3.92049 0
M  V30 13170 H 1138.4 4.33052 4.24913 0
M  V30 13171 H 1138.29 1.9103 4.71577 0
M  V30 13172 H 1137.91 -0.521221 1.95056 0
M  V30 13173 H 1138.1 -0.286429 3.70695 0
M  V30 13174 P 1136.45 8.7635 1.60911 0
M  V30 13175 O 1136.23 10.1388 1.11561 0
M  V30 13176 O 1135.66 8.36503 2.79617 0
M  V30 13177 O 1136.2 7.71806 0.42951 0
M  V30 13178 C 1137.14 7.66948 -0.673514 0
M  V30 13179 C 1136.41 7.33374 -1.95559 0
M  V30 13180 O 1136.2 5.88721 -2.00726 0
M  V30 13181 C 1135.01 7.92218 -2.1125 0
M  V30 13182 O 1134.62 8.02971 -3.47653 0
M  V30 13183 C 1134.13 6.89504 -1.41631 0
M  V30 13184 C 1134.84 5.59106 -1.75155 0
M  V30 13185 N 1134.79 4.58136 -0.662409 0
M  V30 13186 C 1134.64 3.26059 -1.02863 0
M  V30 13187 O 1134.55 2.90743 -2.19009 0
M  V30 13188 N 1134.6 2.35995 0.0155585 0
M  V30 13189 C 1134.69 2.65248 1.35603 0
M  V30 13190 C 1134.84 4.05747 1.64698 0
M  V30 13191 C 1134.89 4.96734 0.652411 0
M  V30 13192 H 1137.63 8.64917 -0.776982 0
M  V30 13193 H 1137.9 6.89974 -0.474015 0
M  V30 13194 H 1137.04 7.66548 -2.79458 0
M  V30 13195 H 1134.38 5.16076 -2.65138 0
M  V30 13196 H 1134.1 7.06433 -0.329384 0
M  V30 13197 H 1133.11 6.90829 -1.81996 0
M  V30 13198 H 1134.94 8.90774 -1.62639 0
M  V30 13199 H 1135.02 6.02181 0.895285 0
M  V30 13200 P 1133.07 8.03563 -3.84925 0
M  V30 13201 O 1132.85 8.85821 -5.0569 0
M  V30 13202 O 1132.28 8.41101 -2.65469 0
M  V30 13203 O 1132.82 6.4965 -4.18908 0
M  V30 13204 C 1133.76 5.80886 -5.05289 0
M  V30 13205 C 1133.03 4.78366 -5.89277 0
M  V30 13206 O 1132.82 3.58302 -5.08433 0
M  V30 13207 C 1131.63 5.16748 -6.36559 0
M  V30 13208 O 1131.24 4.45271 -7.53232 0
M  V30 13209 C 1130.75 4.74572 -5.19863 0
M  V30 13210 C 1131.46 3.49373 -4.70338 0
M  V30 13211 N 1131.41 3.31704 -3.22876 0
M  V30 13212 C 1131.26 2.03326 -2.74871 0
M  V30 13213 O 1131.17 1.06486 -3.48076 0
M  V30 13214 N 1131.22 1.91838 -1.37456 0
M  V30 13215 C 1131.31 2.94295 -0.462035 0
M  V30 13216 C 1131.46 4.25064 -1.05249 0
M  V30 13217 C 1131.51 4.40214 -2.39192 0
M  V30 13218 H 1134.25 6.54063 -5.71245 0
M  V30 13219 H 1134.52 5.30339 -4.43905 0
M  V30 13220 H 1133.66 4.55889 -6.76652 0
M  V30 13221 H 1131 2.6167 -5.17842 0
M  V30 13222 H 1130.72 5.52155 -4.41878 0
M  V30 13223 H 1129.73 4.51918 -5.53297 0
M  V30 13224 H 1131.56 6.25055 -6.55162 0
M  V30 13225 H 1131.64 5.39798 -2.81523 0
M  V30 13226 P 1129.69 4.23843 -7.83734 0
M  V30 13227 O 1129.47 4.19407 -9.29784 0
M  V30 13228 O 1128.9 5.24426 -7.09156 0
M  V30 13229 O 1129.44 2.7935 -7.20758 0
M  V30 13230 C 1130.38 1.7299 -7.50419 0
M  V30 13231 C 1129.65 0.406376 -7.57911 0
M  V30 13232 O 1129.44 -0.0897726 -6.21935 0
M  V30 13233 C 1128.25 0.447224 -8.1878 0
M  V30 13234 O 1127.86 -0.825065 -8.71101 0
M  V30 13235 C 1127.37 0.783801 -6.99623 0
M  V30 13236 C 1128.08 0.0619192 -5.85967 0
M  V30 13237 N 1128.03 0.7859 -4.56281 0
M  V30 13238 H 1130.87 1.93423 -8.4679 0
M  V30 13239 H 1131.14 1.68181 -6.71046 0
M  V30 13240 H 1130.28 -0.289041 -8.15388 0
M  V30 13241 P 1126.31 -1.17771 -8.83182 0
M  V30 13242 O 1126.09 -2.07206 -9.98732 0
M  V30 13243 O 1125.52 0.0743816 -8.81969 0
M  V30 13244 O 1126.06 -1.97678 -7.474 0
M  V30 13245 C 1127 -3.01133 -7.08783 0
M  V30 13246 C 1126.27 -4.1203 -6.37546 0
M  V30 13247 O 1126.06 -3.72887 -4.9796 0
M  V30 13248 C 1124.87 -4.45085 -6.88694 0
M  V30 13249 O 1124.48 -5.78836 -6.56315 0
M  V30 13250 C 1123.99 -3.47817 -6.12078 0
M  V30 13251 C 1124.7 -3.39414 -4.77697 0
M  V30 13252 N 1124.65 -2.04615 -4.15333 0
M  V30 13253 C 1124.5 -1.96929 -2.77162 0
M  V30 13254 O 1124.41 -3.02017 -2.12006 0
M  V30 13255 N 1124.45 -0.55485 -2.24237 0
M  V30 13256 C 1124.55 0.367808 -2.9169 0
M  V30 13257 N 1124.5 1.53426 -2.29427 0
M  V30 13258 C 1124.7 0.319148 -4.33828 0
M  V30 13259 C 1124.75 -0.920672 -4.90433 0
M  V30 13260 H 1127.49 -3.41209 -7.98667 0
M  V30 13261 H 1127.76 -2.5837 -6.41742 0
M  V30 13262 H 1126.9 -5.02718 -6.42752 0
M  V30 13263 H 1124.24 -4.11779 -4.09026 0
M  V30 13264 H 1123.96 -2.49661 -6.61772 0
M  V30 13265 H 1122.97 -3.86674 -6.00946 0
M  V30 13266 H 1124.8 -4.29991 -7.97006 0
M  V30 13267 H 1124.88 -1.00589 -5.98303 0
M  V30 13268 H 1124.77 1.22639 -4.93799 0
M  V30 13269 H 1124.39 1.56819 -1.27167 0
M  V30 13270 H 1124.58 2.41062 -2.83063 0
M  V30 13271 P 1122.93 -6.144 -6.45285 0
M  V30 13272 O 1122.71 -7.54673 -6.86199 0
M  V30 13273 O 1122.14 -5.12391 -7.179 0
M  V30 13274 O 1122.68 -5.99236 -4.88467 0
M  V30 13275 C 1123.62 -6.60234 -3.96415 0
M  V30 13276 C 1122.89 -7.08079 -2.736 0
M  V30 13277 O 1122.68 -5.94365 -1.8368 0
M  V30 13278 C 1121.49 -7.64886 -2.9555 0
M  V30 13279 O 1121.1 -8.5406 -1.90739 0
M  V30 13280 C 1120.61 -6.4116 -2.90739 0
M  V30 13281 C 1121.32 -5.55375 -1.86963 0
M  V30 13282 N 1121.27 -4.09664 -2.15742 0
M  V30 13283 C 1121.12 -3.22231 -1.08477 0
M  V30 13284 O 1121.03 -3.68951 0.0600489 0
M  V30 13285 N 1121.07 -1.76692 -1.48799 0
M  V30 13286 C 1121.17 -1.41695 -2.57602 0
M  V30 13287 N 1121.12 -0.107296 -2.75791 0
M  V30 13288 C 1121.32 -2.29178 -3.69733 0
M  V30 13289 C 1121.37 -3.62753 -3.42653 0
M  V30 13290 H 1124.11 -7.45488 -4.45578 0
M  V30 13291 H 1124.38 -5.86232 -3.67314 0
M  V30 13292 H 1123.52 -7.84508 -2.24507 0
M  V30 13293 H 1120.86 -5.73556 -0.888715 0
M  V30 13294 H 1120.58 -5.9096 -3.88638 0
M  V30 13295 H 1119.59 -6.66053 -2.58894 0
M  V30 13296 H 1121.42 -8.16339 -3.92049 0
M  V30 13297 H 1121.5 -4.33052 -4.24913 0
M  V30 13298 H 1121.39 -1.9103 -4.71577 0
M  V30 13299 H 1121.01 0.521221 -1.95056 0
M  V30 13300 H 1121.2 0.286429 -3.70695 0
M  V30 13301 P 1119.55 -8.7635 -1.60911 0
M  V30 13302 O 1119.33 -10.1388 -1.11561 0
M  V30 13303 O 1118.76 -8.36503 -2.79617 0
M  V30 13304 O 1119.3 -7.71806 -0.42951 0
M  V30 13305 C 1120.24 -7.67148 0.673689 0
M  V30 13306 C 1119.51 -7.33374 1.95559 0
M  V30 13307 O 1119.3 -5.88721 2.00726 0
M  V30 13308 C 1118.11 -7.92526 2.10483 0
M  V30 13309 O 1117.72 -8.02971 3.47653 0
M  V30 13310 C 1117.23 -6.89602 1.41652 0
M  V30 13311 C 1117.94 -5.59201 1.75185 0
M  V30 13312 N 1117.89 -4.58301 0.657969 0
M  V30 13313 C 1117.97 -4.79019 -0.692603 0
M  V30 13314 N 1117.9 -3.69736 -1.38998 0
M  V30 13315 C 1117.75 -2.70474 -0.438135 0
M  V30 13316 C 1117.62 -1.30327 -0.538142 0
M  V30 13317 N 1117.61 -0.64304 -1.69192 0
M  V30 13318 N 1117.5 -0.611027 0.605183 0
M  V30 13319 C 1117.51 -1.27002 1.75953 0
M  V30 13320 N 1117.63 -2.56038 1.98546 0
M  V30 13321 C 1117.75 -3.22681 0.822541 0
M  V30 13322 H 1120.73 -8.65116 0.777161 0
M  V30 13323 H 1121 -6.9022 0.46725 0
M  V30 13324 H 1120.14 -7.66548 2.79458 0
M  V30 13325 H 1117.48 -5.16165 2.65183 0
M  V30 13326 H 1117.2 -7.06433 0.329384 0
M  V30 13327 H 1116.21 -6.90926 1.82021 0
M  V30 13328 H 1118.04 -8.90873 1.62657 0
M  V30 13329 H 1118.09 -5.77785 -1.13874 0
M  V30 13330 H 1117.7 -1.15585 -2.57991 0
M  V30 13331 H 1117.52 0.382989 -1.69835 0
M  V30 13332 H 1117.41 -0.653331 2.64449 0
M  V30 13333 P 1116.17 -8.03563 3.84925 0
M  V30 13334 O 1115.95 -8.85821 5.0569 0
M  V30 13335 O 1115.38 -8.41101 2.65469 0
M  V30 13336 O 1115.92 -6.4965 4.18908 0
M  V30 13337 C 1116.86 -5.81037 5.05421 0
M  V30 13338 C 1116.13 -4.78366 5.89277 0
M  V30 13339 O 1115.92 -3.58302 5.08433 0
M  V30 13340 C 1114.73 -5.17448 6.36119 0
M  V30 13341 O 1114.34 -4.45271 7.53232 0
M  V30 13342 C 1113.85 -4.74639 5.19936 0
M  V30 13343 C 1114.56 -3.49432 4.70418 0
M  V30 13344 N 1114.51 -3.31776 3.22945 0
M  V30 13345 H 1117.35 -6.54213 5.71376 0
M  V30 13346 H 1117.62 -5.30492 4.44033 0
M  V30 13347 H 1116.76 -4.55889 6.76652 0
M  V30 13348 P 1112.79 -4.23843 7.83734 0
M  V30 13349 O 1112.57 -4.19407 9.29784 0
M  V30 13350 O 1112 -5.24426 7.09156 0
M  V30 13351 O 1112.54 -2.7935 7.20758 0
M  V30 13352 C 1113.48 -1.7299 7.50419 0
M  V30 13353 C 1112.75 -0.406376 7.57911 0
M  V30 13354 O 1112.54 0.0897726 6.21935 0
M  V30 13355 C 1111.35 -0.447224 8.1878 0
M  V30 13356 O 1110.96 0.825065 8.71101 0
M  V30 13357 C 1110.47 -0.783801 6.99623 0
M  V30 13358 C 1111.18 -0.0619192 5.85967 0
M  V30 13359 N 1111.13 -0.790462 4.56202 0
M  V30 13360 C 1111.21 -2.13895 4.34171 0
M  V30 13361 N 1111.14 -2.46449 3.08687 0
M  V30 13362 C 1110.99 -1.2525 2.43697 0
M  V30 13363 C 1110.86 -0.914535 1.07318 0
M  V30 13364 N 1110.85 -1.80782 0.0887348 0
M  V30 13365 N 1110.74 0.386745 0.768133 0
M  V30 13366 C 1110.75 1.28096 1.75159 0
M  V30 13367 N 1110.87 1.09708 3.04861 0
M  V30 13368 C 1110.99 -0.214857 3.32306 0
M  V30 13369 H 1113.97 -1.93423 8.4679 0
M  V30 13370 H 1114.24 -1.68852 6.70877 0
M  V30 13371 H 1113.38 0.289041 8.15388 0
M  V30 13372 H 1110.72 0.927006 5.72848 0
M  V30 13373 H 1110.44 -1.86973 6.82036 0
M  V30 13374 H 1109.45 -0.403953 7.13357 0
M  V30 13375 H 1111.28 -1.20599 8.97534 0
M  V30 13376 H 1111.33 -2.86846 5.14318 0
M  V30 13377 H 1110.94 -2.81082 0.302037 0
M  V30 13378 H 1110.76 -1.49688 -0.889064 0
M  V30 13379 H 1110.65 2.31317 1.43855 0
M  V30 13380 P 1109.41 1.17771 8.83182 0
M  V30 13381 O 1109.19 2.07206 9.98732 0
M  V30 13382 O 1108.62 -0.0743816 8.81969 0
M  V30 13383 O 1109.16 1.97652 7.47304 0
M  V30 13384 C 1110.1 3.01133 7.08783 0
M  V30 13385 C 1109.37 4.12613 6.37049 0
M  V30 13386 O 1109.16 3.72827 4.97879 0
M  V30 13387 C 1107.97 4.45085 6.88694 0
M  V30 13388 O 1107.58 5.7877 6.5624 0
M  V30 13389 C 1107.09 3.47817 6.12078 0
M  V30 13390 C 1107.8 3.39414 4.77697 0
M  V30 13391 N 1107.75 2.04615 4.15333 0
M  V30 13392 H 1110.59 3.41248 7.98759 0
M  V30 13393 H 1110.86 2.5837 6.41742 0
M  V30 13394 H 1110 5.02657 6.42673 0
M  V30 13395 P 1106.03 6.144 6.45285 0
M  V30 13396 O 1105.81 7.54673 6.86199 0
M  V30 13397 O 1105.24 5.12391 7.179 0
M  V30 13398 O 1105.78 5.99158 4.88404 0
M  V30 13399 C 1106.72 6.60234 3.96415 0
M  V30 13400 C 1105.99 7.08259 2.72856 0
M  V30 13401 O 1105.78 5.9427 1.83651 0
M  V30 13402 C 1104.59 7.64886 2.9555 0
M  V30 13403 O 1104.2 8.53963 1.90717 0
M  V30 13404 C 1103.71 6.4116 2.90739 0
M  V30 13405 C 1104.42 5.55375 1.86963 0
M  V30 13406 N 1104.37 4.09664 2.15742 0
M  V30 13407 H 1107.21 7.45574 4.45629 0
M  V30 13408 H 1107.48 5.86232 3.67314 0
M  V30 13409 H 1106.62 7.84412 2.24479 0
M  V30 13410 P 1102.65 8.7635 1.60911 0
M  V30 13411 O 1102.43 10.1388 1.11561 0
M  V30 13412 O 1101.86 8.36503 2.79617 0
M  V30 13413 O 1102.4 7.71806 0.42951 0
M  V30 13414 C 1103.34 7.66948 -0.673514 0
M  V30 13415 C 1102.61 7.33374 -1.95559 0
M  V30 13416 O 1102.4 5.88721 -2.00726 0
M  V30 13417 C 1101.21 7.92218 -2.1125 0
M  V30 13418 O 1100.82 8.02971 -3.47653 0
M  V30 13419 C 1100.33 6.89504 -1.41631 0
M  V30 13420 C 1101.04 5.59106 -1.75155 0
M  V30 13421 N 1100.99 4.58136 -0.662409 0
M  V30 13422 C 1100.84 3.26059 -1.02863 0
M  V30 13423 O 1100.75 2.90743 -2.19009 0
M  V30 13424 N 1100.8 2.35995 0.0155585 0
M  V30 13425 C 1100.89 2.65248 1.35603 0
M  V30 13426 O 1100.84 1.75605 2.20651 0
M  V30 13427 C 1101.04 4.05747 1.64698 0
M  V30 13428 C 1101.15 4.42345 3.09553 0
M  V30 13429 C 1101.09 4.96734 0.652411 0
M  V30 13430 H 1103.83 8.64917 -0.776982 0
M  V30 13431 H 1104.1 6.89974 -0.474015 0
M  V30 13432 H 1103.24 7.66548 -2.79458 0
M  V30 13433 H 1100.58 5.16076 -2.65138 0
M  V30 13434 H 1100.3 7.06433 -0.329384 0
M  V30 13435 H 1099.31 6.90829 -1.81996 0
M  V30 13436 H 1101.14 8.90774 -1.62639 0
M  V30 13437 H 1101.22 6.02181 0.895285 0
M  V30 13438 H 1100.19 4.80252 3.45468 0
M  V30 13439 H 1101.92 5.20015 3.22119 0
M  V30 13440 H 1101.43 3.53269 3.67833 0
M  V30 13441 H 1100.7 1.39558 -0.227499 0
M  V30 13442 P 1099.27 8.03563 -3.84925 0
M  V30 13443 O 1099.05 8.85821 -5.0569 0
M  V30 13444 O 1098.48 8.41101 -2.65469 0
M  V30 13445 O 1099.02 6.4965 -4.18908 0
M  V30 13446 C 1099.96 5.81037 -5.05421 0
M  V30 13447 C 1099.23 4.78366 -5.89277 0
M  V30 13448 O 1099.02 3.58302 -5.08433 0
M  V30 13449 C 1097.83 5.17448 -6.36119 0
M  V30 13450 O 1097.44 4.45271 -7.53232 0
M  V30 13451 C 1096.95 4.74639 -5.19936 0
M  V30 13452 C 1097.66 3.49432 -4.70418 0
M  V30 13453 N 1097.61 3.32099 -3.22613 0
M  V30 13454 H 1100.45 6.54213 -5.71376 0
M  V30 13455 H 1100.72 5.30936 -4.43503 0
M  V30 13456 H 1099.86 4.55889 -6.76652 0
M  V30 13457 H 1097.2 2.61715 -5.17932 0
M  V30 13458 H 1096.92 5.52155 -4.41878 0
M  V30 13459 H 1095.93 4.51981 -5.53374 0
M  V30 13460 H 1097.76 6.25124 -6.55234 0
M  V30 13461 P 1095.89 4.23843 -7.83734 0
M  V30 13462 O 1095.67 4.19407 -9.29784 0
M  V30 13463 O 1095.1 5.24426 -7.09156 0
M  V30 13464 O 1095.64 2.7935 -7.20758 0
M  V30 13465 C 1096.58 1.7299 -7.50419 0
M  V30 13466 C 1095.85 0.406376 -7.57911 0
M  V30 13467 O 1095.64 -0.0897726 -6.21935 0
M  V30 13468 C 1094.45 0.447224 -8.1878 0
M  V30 13469 O 1094.06 -0.825065 -8.71101 0
M  V30 13470 C 1093.57 0.783801 -6.99623 0
M  V30 13471 C 1094.28 0.0619192 -5.85967 0
M  V30 13472 N 1094.23 0.7859 -4.56281 0
M  V30 13473 H 1097.07 1.93423 -8.4679 0
M  V30 13474 H 1097.34 1.68181 -6.71046 0
M  V30 13475 H 1096.48 -0.289041 -8.15388 0
M  V30 13476 P 1092.51 -1.17771 -8.83182 0
M  V30 13477 O 1092.29 -2.07206 -9.98732 0
M  V30 13478 O 1091.72 0.0743816 -8.81969 0
M  V30 13479 O 1092.26 -1.97652 -7.47304 0
M  V30 13480 C 1093.2 -3.01133 -7.08783 0
M  V30 13481 C 1092.47 -4.12613 -6.37049 0
M  V30 13482 O 1092.26 -3.72827 -4.97879 0
M  V30 13483 C 1091.07 -4.45085 -6.88694 0
M  V30 13484 O 1090.68 -5.7877 -6.5624 0
M  V30 13485 C 1090.19 -3.47817 -6.12078 0
M  V30 13486 C 1090.9 -3.39414 -4.77697 0
M  V30 13487 N 1090.85 -2.04615 -4.15333 0
M  V30 13488 H 1093.69 -3.41248 -7.98759 0
M  V30 13489 H 1093.96 -2.5837 -6.41742 0
M  V30 13490 H 1093.1 -5.02657 -6.42673 0
M  V30 13491 P 1089.13 -6.144 -6.45285 0
M  V30 13492 O 1088.91 -7.54673 -6.86199 0
M  V30 13493 O 1088.34 -5.12391 -7.179 0
M  V30 13494 O 1088.88 -5.99158 -4.88404 0
M  V30 13495 C 1089.82 -6.60234 -3.96415 0
M  V30 13496 C 1089.09 -7.08259 -2.72856 0
M  V30 13497 O 1088.88 -5.9427 -1.83651 0
M  V30 13498 C 1087.69 -7.64886 -2.9555 0
M  V30 13499 O 1087.3 -8.53963 -1.90717 0
M  V30 13500 C 1086.81 -6.4116 -2.90739 0
M  V30 13501 C 1087.52 -5.55375 -1.86963 0
M  V30 13502 N 1087.47 -4.09664 -2.15742 0
M  V30 13503 H 1090.31 -7.45574 -4.45629 0
M  V30 13504 H 1090.58 -5.86232 -3.67314 0
M  V30 13505 H 1089.72 -7.84412 -2.24479 0
M  V30 13506 P 1085.75 -8.7635 -1.60911 0
M  V30 13507 O 1085.53 -10.1388 -1.11561 0
M  V30 13508 O 1084.96 -8.36503 -2.79617 0
M  V30 13509 O 1085.5 -7.71806 -0.42951 0
M  V30 13510 C 1086.44 -7.66948 0.673514 0
M  V30 13511 C 1085.71 -7.33374 1.95559 0
M  V30 13512 O 1085.5 -5.88721 2.00726 0
M  V30 13513 C 1084.31 -7.92218 2.1125 0
M  V30 13514 O 1083.92 -8.02971 3.47653 0
M  V30 13515 C 1083.43 -6.89504 1.41631 0
M  V30 13516 C 1084.14 -5.59106 1.75155 0
M  V30 13517 N 1084.09 -4.58136 0.662409 0
M  V30 13518 C 1083.94 -3.26059 1.02863 0
M  V30 13519 O 1083.85 -2.90743 2.19009 0
M  V30 13520 N 1083.9 -2.35995 -0.0155585 0
M  V30 13521 C 1083.99 -2.65248 -1.35603 0
M  V30 13522 O 1083.94 -1.75605 -2.20651 0
M  V30 13523 C 1084.14 -4.05747 -1.64698 0
M  V30 13524 C 1084.25 -4.42345 -3.09553 0
M  V30 13525 C 1084.19 -4.96734 -0.652411 0
M  V30 13526 H 1086.93 -8.64917 0.776982 0
M  V30 13527 H 1087.2 -6.89974 0.474015 0
M  V30 13528 H 1086.34 -7.66548 2.79458 0
M  V30 13529 H 1083.68 -5.16076 2.65138 0
M  V30 13530 H 1083.4 -7.06433 0.329384 0
M  V30 13531 H 1082.41 -6.90829 1.81996 0
M  V30 13532 H 1084.24 -8.90774 1.62639 0
M  V30 13533 H 1084.32 -6.02181 -0.895285 0
M  V30 13534 H 1083.29 -4.80252 -3.45468 0
M  V30 13535 H 1085.02 -5.20015 -3.22119 0
M  V30 13536 H 1084.53 -3.53269 -3.67833 0
M  V30 13537 H 1083.8 -1.39558 0.227499 0
M  V30 13538 P 1082.37 -8.03563 3.84925 0
M  V30 13539 O 1082.15 -8.85821 5.0569 0
M  V30 13540 O 1081.58 -8.41101 2.65469 0
M  V30 13541 O 1082.12 -6.4965 4.18908 0
M  V30 13542 C 1083.06 -5.81037 5.05421 0
M  V30 13543 C 1082.33 -4.78366 5.89277 0
M  V30 13544 O 1082.12 -3.58302 5.08433 0
M  V30 13545 C 1080.93 -5.17448 6.36119 0
M  V30 13546 O 1080.54 -4.45271 7.53232 0
M  V30 13547 C 1080.05 -4.74639 5.19936 0
M  V30 13548 C 1080.76 -3.49432 4.70418 0
M  V30 13549 N 1080.71 -3.31776 3.22945 0
M  V30 13550 H 1083.55 -6.54213 5.71376 0
M  V30 13551 H 1083.82 -5.30492 4.44033 0
M  V30 13552 H 1082.96 -4.55889 6.76652 0
M  V30 13553 P 1078.99 -4.23843 7.83734 0
M  V30 13554 O 1078.77 -4.19407 9.29784 0
M  V30 13555 O 1078.2 -5.24426 7.09156 0
M  V30 13556 O 1078.74 -2.7935 7.20758 0
M  V30 13557 C 1079.68 -1.7299 7.50419 0
M  V30 13558 C 1078.95 -0.406376 7.57911 0
M  V30 13559 O 1078.74 0.0897726 6.21935 0
M  V30 13560 C 1077.55 -0.447224 8.1878 0
M  V30 13561 O 1077.16 0.825065 8.71101 0
M  V30 13562 C 1076.67 -0.783801 6.99623 0
M  V30 13563 C 1077.38 -0.0619192 5.85967 0
M  V30 13564 N 1077.33 -0.7859 4.56281 0
M  V30 13565 H 1080.17 -1.93423 8.4679 0
M  V30 13566 H 1080.44 -1.68181 6.71046 0
M  V30 13567 H 1079.58 0.289041 8.15388 0
M  V30 13568 P 1075.61 1.17771 8.83182 0
M  V30 13569 O 1075.39 2.07206 9.98732 0
M  V30 13570 O 1074.82 -0.0743816 8.81969 0
M  V30 13571 O 1075.36 1.97652 7.47304 0
M  V30 13572 C 1076.3 3.01055 7.08599 0
M  V30 13573 C 1075.57 4.12613 6.37049 0
M  V30 13574 O 1075.36 3.72827 4.97879 0
M  V30 13575 C 1074.17 4.45719 6.88164 0
M  V30 13576 O 1073.78 5.7877 6.5624 0
M  V30 13577 C 1073.29 3.47768 6.11991 0
M  V30 13578 C 1074 3.39356 4.77615 0
M  V30 13579 N 1073.95 2.04571 4.15244 0
M  V30 13580 C 1073.8 1.98587 2.78314 0
M  V30 13581 O 1073.71 2.98134 2.08835 0
M  V30 13582 N 1073.76 0.714467 2.24925 0
M  V30 13583 C 1073.85 -0.470001 2.94169 0
M  V30 13584 O 1073.8 -1.55587 2.35195 0
M  V30 13585 C 1074 -0.312541 4.36783 0
M  V30 13586 C 1074.11 -1.57711 5.16352 0
M  V30 13587 C 1074.05 0.914512 4.92583 0
M  V30 13588 H 1076.79 3.41169 7.98575 0
M  V30 13589 H 1077.06 2.58295 6.41556 0
M  V30 13590 H 1076.2 5.02657 6.42673 0
M  V30 13591 H 1073.54 4.11637 4.08885 0
M  V30 13592 H 1073.26 2.49626 6.61679 0
M  V30 13593 H 1072.27 3.86566 6.00778 0
M  V30 13594 H 1074.1 4.29943 7.96918 0
M  V30 13595 H 1074.18 1.00937 6.00374 0
M  V30 13596 H 1073.15 -1.80153 5.63503 0
M  V30 13597 H 1074.88 -1.4566 5.94104 0
M  V30 13598 H 1074.39 -2.40664 4.49645 0
M  V30 13599 H 1073.66 0.647622 1.25697 0
M  V30 13600 P 1072.23 6.144 6.45285 0
M  V30 13601 O 1072.01 7.54673 6.86199 0
M  V30 13602 O 1071.44 5.12391 7.179 0
M  V30 13603 O 1071.98 5.99158 4.88404 0
M  V30 13604 C 1072.92 6.60234 3.96415 0
M  V30 13605 C 1072.19 7.08259 2.72856 0
M  V30 13606 O 1071.98 5.9427 1.83651 0
M  V30 13607 C 1070.79 7.64886 2.9555 0
M  V30 13608 O 1070.4 8.53963 1.90717 0
M  V30 13609 C 1069.91 6.4116 2.90739 0
M  V30 13610 C 1070.62 5.55375 1.86963 0
M  V30 13611 N 1070.57 4.09664 2.15742 0
M  V30 13612 H 1073.41 7.45574 4.45629 0
M  V30 13613 H 1073.68 5.86232 3.67314 0
M  V30 13614 H 1072.82 7.84412 2.24479 0
M  V30 13615 P 1068.85 8.7635 1.60911 0
M  V30 13616 O 1068.63 10.1388 1.11561 0
M  V30 13617 O 1068.06 8.36503 2.79617 0
M  V30 13618 O 1068.6 7.71806 0.42951 0
M  V30 13619 C 1069.54 7.67148 -0.673689 0
M  V30 13620 C 1068.81 7.33374 -1.95559 0
M  V30 13621 O 1068.6 5.88721 -2.00726 0
M  V30 13622 C 1067.41 7.92526 -2.10483 0
M  V30 13623 O 1067.02 8.02971 -3.47653 0
M  V30 13624 C 1066.53 6.89602 -1.41652 0
M  V30 13625 C 1067.24 5.59201 -1.75185 0
M  V30 13626 N 1067.19 4.58301 -0.657969 0
M  V30 13627 H 1070.03 8.65116 -0.777161 0
M  V30 13628 H 1070.3 6.9022 -0.46725 0
M  V30 13629 H 1069.44 7.66548 -2.79458 0
M  V30 13630 H 1066.78 5.16165 -2.65183 0
M  V30 13631 H 1066.5 7.06433 -0.329384 0
M  V30 13632 H 1065.51 6.90926 -1.82021 0
M  V30 13633 H 1067.34 8.90873 -1.62657 0
M  V30 13634 P 1065.47 8.03563 -3.84925 0
M  V30 13635 O 1065.25 8.85821 -5.0569 0
M  V30 13636 O 1064.68 8.41101 -2.65469 0
M  V30 13637 O 1065.22 6.4965 -4.18908 0
M  V30 13638 C 1066.16 5.81037 -5.05421 0
M  V30 13639 C 1065.43 4.78366 -5.89277 0
M  V30 13640 O 1065.22 3.58302 -5.08433 0
M  V30 13641 C 1064.03 5.17448 -6.36119 0
M  V30 13642 O 1063.64 4.45271 -7.53232 0
M  V30 13643 C 1063.15 4.74639 -5.19936 0
M  V30 13644 C 1063.86 3.49432 -4.70418 0
M  V30 13645 N 1063.81 3.31776 -3.22945 0
M  V30 13646 H 1066.65 6.54213 -5.71376 0
M  V30 13647 H 1066.92 5.30492 -4.44033 0
M  V30 13648 H 1066.06 4.55889 -6.76652 0
M  V30 13649 P 1062.09 4.23843 -7.83734 0
M  V30 13650 O 1061.87 4.19407 -9.29784 0
M  V30 13651 O 1061.3 5.24426 -7.09156 0
M  V30 13652 O 1061.84 2.7935 -7.20758 0
M  V30 13653 C 1062.78 1.7299 -7.50419 0
M  V30 13654 C 1062.05 0.406376 -7.57911 0
M  V30 13655 O 1061.84 -0.0897726 -6.21935 0
M  V30 13656 C 1060.65 0.447224 -8.1878 0
M  V30 13657 O 1060.26 -0.825065 -8.71101 0
M  V30 13658 C 1059.77 0.783801 -6.99623 0
M  V30 13659 C 1060.48 0.0619192 -5.85967 0
M  V30 13660 N 1060.43 0.7859 -4.56281 0
M  V30 13661 H 1063.27 1.93423 -8.4679 0
M  V30 13662 H 1063.54 1.68181 -6.71046 0
M  V30 13663 H 1062.68 -0.289041 -8.15388 0
M  V30 13664 P 1058.71 -1.17771 -8.83182 0
M  V30 13665 O 1058.49 -2.07206 -9.98732 0
M  V30 13666 O 1057.92 0.0743816 -8.81969 0
M  V30 13667 O 1058.46 -1.97652 -7.47304 0
M  V30 13668 C 1059.4 -3.01133 -7.08783 0
M  V30 13669 C 1058.67 -4.12613 -6.37049 0
M  V30 13670 O 1058.46 -3.72827 -4.97879 0
M  V30 13671 C 1057.27 -4.45085 -6.88694 0
M  V30 13672 O 1056.88 -5.7877 -6.5624 0
M  V30 13673 C 1056.39 -3.47817 -6.12078 0
M  V30 13674 C 1057.1 -3.39414 -4.77697 0
M  V30 13675 N 1057.05 -2.04615 -4.15333 0
M  V30 13676 H 1059.89 -3.41248 -7.98759 0
M  V30 13677 H 1060.16 -2.5837 -6.41742 0
M  V30 13678 H 1059.3 -5.02657 -6.42673 0
M  V30 13679 P 1055.33 -6.144 -6.45285 0
M  V30 13680 O 1055.11 -7.54673 -6.86199 0
M  V30 13681 O 1054.54 -5.12391 -7.179 0
M  V30 13682 O 1055.08 -5.99158 -4.88404 0
M  V30 13683 C 1056.02 -6.60234 -3.96415 0
M  V30 13684 C 1055.29 -7.08259 -2.72856 0
M  V30 13685 O 1055.08 -5.9427 -1.83651 0
M  V30 13686 C 1053.89 -7.64886 -2.9555 0
M  V30 13687 O 1053.5 -8.53963 -1.90717 0
M  V30 13688 C 1053.01 -6.4116 -2.90739 0
M  V30 13689 C 1053.72 -5.55375 -1.86963 0
M  V30 13690 N 1053.67 -4.09448 -2.16152 0
M  V30 13691 H 1056.51 -7.45574 -4.45629 0
M  V30 13692 H 1056.78 -5.85864 -3.679 0
M  V30 13693 H 1055.92 -7.84412 -2.24479 0
M  V30 13694 H 1053.26 -5.73457 -0.888562 0
M  V30 13695 H 1052.98 -5.90877 -3.88583 0
M  V30 13696 H 1051.99 -6.6596 -2.58858 0
M  V30 13697 H 1053.82 -8.16339 -3.92049 0
M  V30 13698 P 1051.95 -8.7635 -1.60911 0
M  V30 13699 O 1051.73 -10.1388 -1.11561 0
M  V30 13700 O 1051.16 -8.36503 -2.79617 0
M  V30 13701 O 1051.7 -7.71806 -0.42951 0
M  V30 13702 C 1052.64 -7.67148 0.673689 0
M  V30 13703 C 1051.91 -7.33374 1.95559 0
M  V30 13704 O 1051.7 -5.88721 2.00726 0
M  V30 13705 C 1050.51 -7.92526 2.10483 0
M  V30 13706 O 1050.12 -8.02971 3.47653 0
M  V30 13707 C 1049.63 -6.89602 1.41652 0
M  V30 13708 C 1050.34 -5.59201 1.75185 0
M  V30 13709 N 1050.29 -4.58235 0.662552 0
M  V30 13710 H 1053.13 -8.65116 0.777161 0
M  V30 13711 H 1053.4 -6.90173 0.474152 0
M  V30 13712 H 1052.54 -7.66548 2.79458 0
M  V30 13713 P 1048.57 -8.03563 3.84925 0
M  V30 13714 O 1048.35 -8.85821 5.0569 0
M  V30 13715 O 1047.78 -8.41101 2.65469 0
M  V30 13716 O 1048.32 -6.4965 4.18908 0
M  V30 13717 C 1049.26 -5.80886 5.05289 0
M  V30 13718 C 1048.53 -4.78366 5.89277 0
M  V30 13719 O 1048.32 -3.58302 5.08433 0
M  V30 13720 C 1047.13 -5.16748 6.36559 0
M  V30 13721 O 1046.74 -4.45271 7.53232 0
M  V30 13722 C 1046.25 -4.74572 5.19863 0
M  V30 13723 C 1046.96 -3.49373 4.70338 0
M  V30 13724 N 1046.91 -3.31704 3.22876 0
M  V30 13725 C 1046.76 -2.03326 2.74871 0
M  V30 13726 O 1046.67 -1.06486 3.48076 0
M  V30 13727 N 1046.72 -1.91838 1.37456 0
M  V30 13728 C 1046.81 -2.94295 0.462035 0
M  V30 13729 O 1046.76 -2.71763 -0.752928 0
M  V30 13730 C 1046.96 -4.25064 1.05249 0
M  V30 13731 C 1047.07 -5.39815 0.095697 0
M  V30 13732 C 1047.01 -4.40214 2.39192 0
M  V30 13733 H 1049.75 -6.54063 5.71245 0
M  V30 13734 H 1050.02 -5.30339 4.43905 0
M  V30 13735 H 1049.16 -4.55889 6.76652 0
M  V30 13736 H 1046.5 -2.6167 5.17842 0
M  V30 13737 H 1046.22 -5.52155 4.41878 0
M  V30 13738 H 1045.23 -4.51918 5.53297 0
M  V30 13739 H 1047.06 -6.25055 6.55162 0
M  V30 13740 H 1047.14 -5.39798 2.81523 0
M  V30 13741 H 1046.11 -5.91593 0.0279582 0
M  V30 13742 H 1047.84 -6.10038 0.450573 0
M  V30 13743 H 1047.35 -5.02007 -0.89937 0
M  V30 13744 H 1046.62 -0.995326 1.00435 0
M  V30 13745 P 1045.19 -4.23843 7.83734 0
M  V30 13746 O 1044.97 -4.19407 9.29784 0
M  V30 13747 O 1044.4 -5.24426 7.09156 0
M  V30 13748 O 1044.94 -2.7935 7.20758 0
M  V30 13749 C 1045.88 -1.7299 7.50419 0
M  V30 13750 C 1045.15 -0.406376 7.57911 0
M  V30 13751 O 1044.94 0.0897726 6.21935 0
M  V30 13752 C 1043.75 -0.447224 8.1878 0
M  V30 13753 O 1043.36 0.825065 8.71101 0
M  V30 13754 C 1042.87 -0.783801 6.99623 0
M  V30 13755 C 1043.58 -0.0619192 5.85967 0
M  V30 13756 N 1043.53 -0.7859 4.56281 0
M  V30 13757 H 1046.37 -1.93423 8.4679 0
M  V30 13758 H 1046.64 -1.68181 6.71046 0
M  V30 13759 H 1045.78 0.289041 8.15388 0
M  V30 13760 P 1041.81 1.17771 8.83182 0
M  V30 13761 O 1041.59 2.07206 9.98732 0
M  V30 13762 O 1041.02 -0.0743816 8.81969 0
M  V30 13763 O 1041.56 1.97652 7.47304 0
M  V30 13764 C 1042.5 3.01055 7.08599 0
M  V30 13765 C 1041.77 4.12613 6.37049 0
M  V30 13766 O 1041.56 3.72827 4.97879 0
M  V30 13767 C 1040.37 4.45719 6.88164 0
M  V30 13768 O 1039.98 5.7877 6.5624 0
M  V30 13769 C 1039.49 3.47768 6.11991 0
M  V30 13770 C 1040.2 3.39356 4.77615 0
M  V30 13771 N 1040.15 2.04571 4.15244 0
M  V30 13772 C 1040 1.98587 2.78314 0
M  V30 13773 O 1039.91 2.98134 2.08835 0
M  V30 13774 N 1039.96 0.714467 2.24925 0
M  V30 13775 C 1040.05 -0.470001 2.94169 0
M  V30 13776 O 1040 -1.55587 2.35195 0
M  V30 13777 C 1040.2 -0.312541 4.36783 0
M  V30 13778 C 1040.31 -1.57711 5.16352 0
M  V30 13779 C 1040.25 0.914512 4.92583 0
M  V30 13780 H 1042.99 3.41169 7.98575 0
M  V30 13781 H 1043.26 2.58295 6.41556 0
M  V30 13782 H 1042.4 5.02657 6.42673 0
M  V30 13783 H 1039.74 4.11637 4.08885 0
M  V30 13784 H 1039.46 2.49626 6.61679 0
M  V30 13785 H 1038.47 3.86566 6.00778 0
M  V30 13786 H 1040.3 4.29943 7.96918 0
M  V30 13787 H 1040.38 1.00937 6.00374 0
M  V30 13788 H 1039.35 -1.80153 5.63503 0
M  V30 13789 H 1041.08 -1.4566 5.94104 0
M  V30 13790 H 1040.59 -2.40664 4.49645 0
M  V30 13791 H 1039.86 0.647622 1.25697 0
M  V30 13792 P 1038.43 6.144 6.45285 0
M  V30 13793 O 1038.21 7.54673 6.86199 0
M  V30 13794 O 1037.64 5.12391 7.179 0
M  V30 13795 O 1038.18 5.99158 4.88404 0
M  V30 13796 C 1039.12 6.60234 3.96415 0
M  V30 13797 C 1038.39 7.08259 2.72856 0
M  V30 13798 O 1038.18 5.9427 1.83651 0
M  V30 13799 C 1036.99 7.64886 2.9555 0
M  V30 13800 O 1036.6 8.53963 1.90717 0
M  V30 13801 C 1036.11 6.4116 2.90739 0
M  V30 13802 C 1036.82 5.55375 1.86963 0
M  V30 13803 N 1036.77 4.09664 2.15742 0
M  V30 13804 H 1039.61 7.45574 4.45629 0
M  V30 13805 H 1039.88 5.86232 3.67314 0
M  V30 13806 H 1039.02 7.84412 2.24479 0
M  V30 13807 P 1035.05 8.7635 1.60911 0
M  V30 13808 O 1034.83 10.1388 1.11561 0
M  V30 13809 O 1034.26 8.36503 2.79617 0
M  V30 13810 O 1034.8 7.71806 0.42951 0
M  V30 13811 C 1035.74 7.66948 -0.673514 0
M  V30 13812 C 1035.01 7.33374 -1.95559 0
M  V30 13813 O 1034.8 5.88721 -2.00726 0
M  V30 13814 C 1033.61 7.92218 -2.1125 0
M  V30 13815 O 1033.22 8.02971 -3.47653 0
M  V30 13816 C 1032.73 6.89504 -1.41631 0
M  V30 13817 C 1033.44 5.59106 -1.75155 0
M  V30 13818 N 1033.39 4.58136 -0.662409 0
M  V30 13819 C 1033.24 3.26059 -1.02863 0
M  V30 13820 O 1033.15 2.90743 -2.19009 0
M  V30 13821 N 1033.2 2.35995 0.0155585 0
M  V30 13822 C 1033.29 2.65248 1.35603 0
M  V30 13823 O 1033.24 1.75605 2.20651 0
M  V30 13824 C 1033.44 4.05747 1.64698 0
M  V30 13825 C 1033.55 4.42345 3.09553 0
M  V30 13826 C 1033.49 4.96734 0.652411 0
M  V30 13827 H 1036.23 8.64917 -0.776982 0
M  V30 13828 H 1036.5 6.89974 -0.474015 0
M  V30 13829 H 1035.64 7.66548 -2.79458 0
M  V30 13830 H 1032.98 5.16076 -2.65138 0
M  V30 13831 H 1032.7 7.06433 -0.329384 0
M  V30 13832 H 1031.71 6.90829 -1.81996 0
M  V30 13833 H 1033.54 8.90774 -1.62639 0
M  V30 13834 H 1033.62 6.02181 0.895285 0
M  V30 13835 H 1032.59 4.80252 3.45468 0
M  V30 13836 H 1034.32 5.20015 3.22119 0
M  V30 13837 H 1033.83 3.53269 3.67833 0
M  V30 13838 H 1033.1 1.39558 -0.227499 0
M  V30 13839 P 1031.67 8.03563 -3.84925 0
M  V30 13840 O 1031.45 8.85821 -5.0569 0
M  V30 13841 O 1030.88 8.41101 -2.65469 0
M  V30 13842 O 1031.42 6.4965 -4.18908 0
M  V30 13843 C 1032.36 5.80886 -5.05289 0
M  V30 13844 C 1031.63 4.78366 -5.89277 0
M  V30 13845 O 1031.42 3.58302 -5.08433 0
M  V30 13846 C 1030.23 5.16748 -6.36559 0
M  V30 13847 O 1029.84 4.45271 -7.53232 0
M  V30 13848 C 1029.35 4.74572 -5.19863 0
M  V30 13849 C 1030.06 3.49373 -4.70338 0
M  V30 13850 N 1030.01 3.31704 -3.22876 0
M  V30 13851 C 1029.86 2.03326 -2.74871 0
M  V30 13852 O 1029.77 1.06486 -3.48076 0
M  V30 13853 N 1029.82 1.91838 -1.37456 0
M  V30 13854 C 1029.91 2.94295 -0.462035 0
M  V30 13855 C 1030.06 4.25064 -1.05249 0
M  V30 13856 C 1030.11 4.40214 -2.39192 0
M  V30 13857 H 1032.85 6.54063 -5.71245 0
M  V30 13858 H 1033.12 5.30339 -4.43905 0
M  V30 13859 H 1032.26 4.55889 -6.76652 0
M  V30 13860 H 1029.6 2.6167 -5.17842 0
M  V30 13861 H 1029.32 5.52155 -4.41878 0
M  V30 13862 H 1028.33 4.51918 -5.53297 0
M  V30 13863 H 1030.16 6.25055 -6.55162 0
M  V30 13864 H 1030.24 5.39798 -2.81523 0
M  V30 13865 P 1028.29 4.23843 -7.83734 0
M  V30 13866 O 1028.07 4.19407 -9.29784 0
M  V30 13867 O 1027.5 5.24426 -7.09156 0
M  V30 13868 O 1028.04 2.7935 -7.20758 0
M  V30 13869 C 1028.98 1.7299 -7.50419 0
M  V30 13870 C 1028.25 0.406376 -7.57911 0
M  V30 13871 O 1028.04 -0.0897726 -6.21935 0
M  V30 13872 C 1026.85 0.447224 -8.1878 0
M  V30 13873 O 1026.46 -0.825065 -8.71101 0
M  V30 13874 C 1025.97 0.783801 -6.99623 0
M  V30 13875 C 1026.68 0.0619192 -5.85967 0
M  V30 13876 N 1026.63 0.790462 -4.56202 0
M  V30 13877 C 1026.71 2.13895 -4.34171 0
M  V30 13878 N 1026.64 2.46449 -3.08687 0
M  V30 13879 C 1026.49 1.2525 -2.43697 0
M  V30 13880 C 1026.36 0.914535 -1.07318 0
M  V30 13881 N 1026.35 1.80782 -0.0887348 0
M  V30 13882 N 1026.24 -0.386745 -0.768133 0
M  V30 13883 C 1026.25 -1.28096 -1.75159 0
M  V30 13884 N 1026.37 -1.09708 -3.04861 0
M  V30 13885 C 1026.49 0.214857 -3.32306 0
M  V30 13886 H 1029.47 1.93423 -8.4679 0
M  V30 13887 H 1029.74 1.68852 -6.70877 0
M  V30 13888 H 1028.88 -0.289041 -8.15388 0
M  V30 13889 H 1026.22 -0.927006 -5.72848 0
M  V30 13890 H 1025.94 1.86973 -6.82036 0
M  V30 13891 H 1024.95 0.403953 -7.13357 0
M  V30 13892 H 1026.78 1.20599 -8.97534 0
M  V30 13893 H 1026.83 2.86846 -5.14318 0
M  V30 13894 H 1026.44 2.81082 -0.302037 0
M  V30 13895 H 1026.26 1.49688 0.889064 0
M  V30 13896 H 1026.15 -2.31317 -1.43855 0
M  V30 13897 P 1024.91 -1.17771 -8.83182 0
M  V30 13898 O 1024.69 -2.07206 -9.98732 0
M  V30 13899 O 1024.12 0.0743816 -8.81969 0
M  V30 13900 O 1024.66 -1.97652 -7.47304 0
M  V30 13901 C 1025.6 -3.01133 -7.08783 0
M  V30 13902 C 1024.87 -4.12613 -6.37049 0
M  V30 13903 O 1024.66 -3.72827 -4.97879 0
M  V30 13904 C 1023.47 -4.45085 -6.88694 0
M  V30 13905 O 1023.08 -5.7877 -6.5624 0
M  V30 13906 C 1022.59 -3.47817 -6.12078 0
M  V30 13907 C 1023.3 -3.39414 -4.77697 0
M  V30 13908 N 1023.25 -2.04615 -4.15333 0
M  V30 13909 H 1026.09 -3.41248 -7.98759 0
M  V30 13910 H 1026.36 -2.5837 -6.41742 0
M  V30 13911 H 1025.5 -5.02657 -6.42673 0
M  V30 13912 P 1021.53 -6.144 -6.45285 0
M  V30 13913 O 1021.31 -7.54673 -6.86199 0
M  V30 13914 O 1020.74 -5.12391 -7.179 0
M  V30 13915 O 1021.28 -5.99158 -4.88404 0
M  V30 13916 C 1022.22 -6.60234 -3.96415 0
M  V30 13917 C 1021.49 -7.08259 -2.72856 0
M  V30 13918 O 1021.28 -5.9427 -1.83651 0
M  V30 13919 C 1020.09 -7.64886 -2.9555 0
M  V30 13920 O 1019.7 -8.53963 -1.90717 0
M  V30 13921 C 1019.21 -6.4116 -2.90739 0
M  V30 13922 C 1019.92 -5.55375 -1.86963 0
M  V30 13923 N 1019.87 -4.09664 -2.15742 0
M  V30 13924 C 1019.95 -3.44381 -3.37233 0
M  V30 13925 N 1019.87 -2.14131 -3.28347 0
M  V30 13926 C 1019.73 -1.90247 -1.91588 0
M  V30 13927 C 1019.6 -0.683992 -1.20892 0
M  V30 13928 O 1019.58 0.46618 -1.64523 0
M  V30 13929 N 1019.48 -0.903396 0.173998 0
M  V30 13930 C 1019.48 -2.14171 0.784879 0
M  V30 13931 N 1019.35 -2.1435 2.11317 0
M  V30 13932 N 1019.61 -3.28784 0.119316 0
M  V30 13933 C 1019.73 -3.0977 -1.22194 0
M  V30 13934 H 1022.71 -7.45574 -4.45629 0
M  V30 13935 H 1022.98 -5.86232 -3.67314 0
M  V30 13936 H 1022.12 -7.84412 -2.24479 0
M  V30 13937 H 1019.46 -5.73556 -0.888715 0
M  V30 13938 H 1019.18 -5.9096 -3.88638 0
M  V30 13939 H 1018.19 -6.66053 -2.58894 0
M  V30 13940 H 1020.02 -8.16429 -3.92093 0
M  V30 13941 H 1020.07 -3.96785 -4.32043 0
M  V30 13942 H 1019.39 -0.0999567 0.761467 0
M  V30 13943 H 1019.35 -3.03436 2.63076 0
M  V30 13944 H 1019.25 -1.25228 2.62233 0
M  V30 13945 P 1018.15 -8.7635 -1.60911 0
M  V30 13946 O 1017.93 -10.1388 -1.11561 0
M  V30 13947 O 1017.36 -8.36503 -2.79617 0
M  V30 13948 O 1017.9 -7.71806 -0.42951 0
M  V30 13949 C 1018.84 -7.67148 0.673689 0
M  V30 13950 C 1018.11 -7.33374 1.95559 0
M  V30 13951 O 1017.9 -5.88721 2.00726 0
M  V30 13952 C 1016.71 -7.92526 2.10483 0
M  V30 13953 O 1016.32 -8.02971 3.47653 0
M  V30 13954 C 1015.83 -6.89602 1.41652 0
M  V30 13955 C 1016.54 -5.59201 1.75185 0
M  V30 13956 N 1016.49 -4.58301 0.657969 0
M  V30 13957 H 1019.33 -8.65116 0.777161 0
M  V30 13958 H 1019.61 -6.9022 0.46725 0
M  V30 13959 H 1018.74 -7.66548 2.79458 0
M  V30 13960 H 1016.08 -5.16165 2.65183 0
M  V30 13961 H 1015.8 -7.06433 0.329384 0
M  V30 13962 H 1014.81 -6.90926 1.82021 0
M  V30 13963 H 1016.65 -8.90873 1.62657 0
M  V30 13964 P 1014.77 -8.03563 3.84925 0
M  V30 13965 O 1014.55 -8.85821 5.0569 0
M  V30 13966 O 1013.98 -8.41101 2.65469 0
M  V30 13967 O 1014.52 -6.4965 4.18908 0
M  V30 13968 C 1015.46 -5.81037 5.05421 0
M  V30 13969 C 1014.73 -4.78366 5.89277 0
M  V30 13970 O 1014.52 -3.58302 5.08433 0
M  V30 13971 C 1013.33 -5.17448 6.36119 0
M  V30 13972 O 1012.94 -4.45271 7.53232 0
M  V30 13973 C 1012.45 -4.74639 5.19936 0
M  V30 13974 C 1013.16 -3.49432 4.70418 0
M  V30 13975 N 1013.11 -3.31776 3.22945 0
M  V30 13976 H 1015.95 -6.54213 5.71376 0
M  V30 13977 H 1016.23 -5.30492 4.44033 0
M  V30 13978 H 1015.36 -4.55889 6.76652 0
M  V30 13979 P 1011.39 -4.23843 7.83734 0
M  V30 13980 O 1011.17 -4.19407 9.29784 0
M  V30 13981 O 1010.6 -5.24426 7.09156 0
M  V30 13982 O 1011.14 -2.7935 7.20758 0
M  V30 13983 C 1012.08 -1.7299 7.50419 0
M  V30 13984 C 1011.35 -0.406376 7.57911 0
M  V30 13985 O 1011.14 0.0897726 6.21935 0
M  V30 13986 C 1009.95 -0.447224 8.1878 0
M  V30 13987 O 1009.56 0.825065 8.71101 0
M  V30 13988 C 1009.07 -0.783801 6.99623 0
M  V30 13989 C 1009.78 -0.0619192 5.85967 0
M  V30 13990 N 1009.73 -0.7859 4.56281 0
M  V30 13991 H 1012.57 -1.93423 8.4679 0
M  V30 13992 H 1012.85 -1.68181 6.71046 0
M  V30 13993 H 1011.98 0.289041 8.15388 0
M  V30 13994 P 1008.01 1.17771 8.83182 0
M  V30 13995 O 1007.79 2.07206 9.98732 0
M  V30 13996 O 1007.22 -0.0743816 8.81969 0
M  V30 13997 O 1007.76 1.97652 7.47304 0
M  V30 13998 C 1008.7 3.01133 7.08783 0
M  V30 13999 C 1007.97 4.12613 6.37049 0
M  V30 14000 O 1007.76 3.72827 4.97879 0
M  V30 14001 C 1006.57 4.45085 6.88694 0
M  V30 14002 O 1006.18 5.7877 6.5624 0
M  V30 14003 C 1005.69 3.47817 6.12078 0
M  V30 14004 C 1006.4 3.39414 4.77697 0
M  V30 14005 N 1006.35 2.04199 4.15538 0
M  V30 14006 H 1009.19 3.41248 7.98759 0
M  V30 14007 H 1009.47 2.57728 6.42 0
M  V30 14008 H 1008.6 5.02657 6.42673 0
M  V30 14009 H 1005.94 4.11708 4.08956 0
M  V30 14010 H 1005.66 2.49626 6.61679 0
M  V30 14011 H 1004.67 3.8662 6.00862 0
M  V30 14012 H 1006.51 4.29991 7.97006 0
M  V30 14013 P 1004.63 6.144 6.45285 0
M  V30 14014 O 1004.41 7.54673 6.86199 0
M  V30 14015 O 1003.84 5.12391 7.179 0
M  V30 14016 O 1004.38 5.99158 4.88404 0
M  V30 14017 C 1005.32 6.60234 3.96415 0
M  V30 14018 C 1004.59 7.08259 2.72856 0
M  V30 14019 O 1004.38 5.9427 1.83651 0
M  V30 14020 C 1003.19 7.64886 2.9555 0
M  V30 14021 O 1002.8 8.53963 1.90717 0
M  V30 14022 C 1002.31 6.4116 2.90739 0
M  V30 14023 C 1003.02 5.55375 1.86963 0
M  V30 14024 N 1002.97 4.09664 2.15742 0
M  V30 14025 H 1005.81 7.45574 4.45629 0
M  V30 14026 H 1006.09 5.86232 3.67314 0
M  V30 14027 H 1005.22 7.84412 2.24479 0
M  V30 14028 P 1001.25 8.7635 1.60911 0
M  V30 14029 O 1001.03 10.1388 1.11561 0
M  V30 14030 O 1000.46 8.36503 2.79617 0
M  V30 14031 O 1001 7.71806 0.42951 0
M  V30 14032 C 1001.94 7.67148 -0.673689 0
M  V30 14033 C 1001.21 7.33374 -1.95559 0
M  V30 14034 O 1001 5.88721 -2.00726 0
M  V30 14035 C 999.814 7.92526 -2.10483 0
M  V30 14036 O 999.424 8.02971 -3.47653 0
M  V30 14037 C 998.934 6.89602 -1.41652 0
M  V30 14038 C 999.644 5.59201 -1.75185 0
M  V30 14039 N 999.594 4.58235 -0.662552 0
M  V30 14040 C 999.674 4.7683 0.704049 0
M  V30 14041 N 999.594 3.66233 1.39775 0
M  V30 14042 C 999.454 2.66526 0.431739 0
M  V30 14043 C 999.324 1.26394 0.575992 0
M  V30 14044 N 999.204 0.62859 -0.67177 0
M  V30 14045 C 999.204 1.27134 -1.89385 0
M  V30 14046 N 999.074 0.492035 -2.96951 0
M  V30 14047 N 999.334 2.58978 -2.02907 0
M  V30 14048 C 999.454 3.22433 -0.832218 0
M  V30 14049 H 1002.43 8.65116 -0.777161 0
M  V30 14050 H 1002.71 6.90173 -0.474152 0
M  V30 14051 H 1001.84 7.66548 -2.79458 0
M  V30 14052 P 997.874 8.03563 -3.84925 0
M  V30 14053 O 997.654 8.85821 -5.0569 0
M  V30 14054 O 997.084 8.41101 -2.65469 0
M  V30 14055 O 997.624 6.4965 -4.18908 0
M  V30 14056 C 998.564 5.81037 -5.05421 0
M  V30 14057 C 997.834 4.78366 -5.89277 0
M  V30 14058 O 997.624 3.58302 -5.08433 0
M  V30 14059 C 996.434 5.17448 -6.36119 0
M  V30 14060 O 996.044 4.45271 -7.53232 0
M  V30 14061 C 995.554 4.74639 -5.19936 0
M  V30 14062 C 996.264 3.49432 -4.70418 0
M  V30 14063 N 996.214 3.31776 -3.22945 0
M  V30 14064 C 996.294 4.27147 -2.23315 0
M  V30 14065 N 996.214 3.78447 -1.02186 0
M  V30 14066 C 996.074 2.41001 -1.21732 0
M  V30 14067 C 995.944 1.36111 -0.27694 0
M  V30 14068 N 995.824 0.113683 -0.912949 0
M  V30 14069 C 995.824 -0.0846396 -2.27943 0
M  V30 14070 N 995.694 -1.34737 -2.6916 0
M  V30 14071 N 995.954 0.902521 -3.16379 0
M  V30 14072 C 996.074 2.11937 -2.56849 0
M  V30 14073 H 999.053 6.54213 -5.71376 0
M  V30 14074 H 999.325 5.30492 -4.44033 0
M  V30 14075 H 998.457 4.55889 -6.76652 0
M  V30 14076 P 994.494 4.23843 -7.83734 0
M  V30 14077 O 994.274 4.19407 -9.29784 0
M  V30 14078 O 993.704 5.24426 -7.09156 0
M  V30 14079 O 994.244 2.7935 -7.20758 0
M  V30 14080 C 995.184 1.7299 -7.50419 0
M  V30 14081 C 994.454 0.406376 -7.57911 0
M  V30 14082 O 994.244 -0.0897726 -6.21935 0
M  V30 14083 C 993.054 0.447224 -8.1878 0
M  V30 14084 O 992.664 -0.825065 -8.71101 0
M  V30 14085 C 992.174 0.783801 -6.99623 0
M  V30 14086 C 992.884 0.0619192 -5.85967 0
M  V30 14087 N 992.834 0.7859 -4.56281 0
M  V30 14088 H 995.673 1.93423 -8.4679 0
M  V30 14089 H 995.945 1.68181 -6.71046 0
M  V30 14090 H 995.077 -0.289041 -8.15388 0
M  V30 14091 P 991.114 -1.17771 -8.83182 0
M  V30 14092 O 990.894 -2.07206 -9.98732 0
M  V30 14093 O 990.324 0.0743816 -8.81969 0
M  V30 14094 O 990.864 -1.97652 -7.47304 0
M  V30 14095 C 991.804 -3.01133 -7.08783 0
M  V30 14096 C 991.074 -4.12613 -6.37049 0
M  V30 14097 O 990.864 -3.72827 -4.97879 0
M  V30 14098 C 989.674 -4.45085 -6.88694 0
M  V30 14099 O 989.284 -5.7877 -6.5624 0
M  V30 14100 C 988.794 -3.47817 -6.12078 0
M  V30 14101 C 989.504 -3.39414 -4.77697 0
M  V30 14102 N 989.454 -2.04615 -4.15333 0
M  V30 14103 H 992.293 -3.41248 -7.98759 0
M  V30 14104 H 992.565 -2.5837 -6.41742 0
M  V30 14105 H 991.697 -5.02657 -6.42673 0
M  V30 14106 P 987.734 -6.144 -6.45285 0
M  V30 14107 O 987.514 -7.54673 -6.86199 0
M  V30 14108 O 986.944 -5.12391 -7.179 0
M  V30 14109 O 987.484 -5.99236 -4.88467 0
M  V30 14110 C 988.424 -6.60234 -3.96415 0
M  V30 14111 C 987.694 -7.08079 -2.736 0
M  V30 14112 O 987.484 -5.94365 -1.8368 0
M  V30 14113 C 986.294 -7.64886 -2.9555 0
M  V30 14114 O 985.904 -8.5406 -1.90739 0
M  V30 14115 C 985.414 -6.4116 -2.90739 0
M  V30 14116 C 986.124 -5.55375 -1.86963 0
M  V30 14117 N 986.074 -4.09664 -2.15742 0
M  V30 14118 C 985.924 -3.22231 -1.08477 0
M  V30 14119 O 985.834 -3.68951 0.0600489 0
M  V30 14120 N 985.874 -1.76692 -1.48799 0
M  V30 14121 C 985.974 -1.41695 -2.57602 0
M  V30 14122 N 985.924 -0.107296 -2.75791 0
M  V30 14123 C 986.124 -2.29178 -3.69733 0
M  V30 14124 C 986.174 -3.62753 -3.42653 0
M  V30 14125 H 988.914 -7.45488 -4.45578 0
M  V30 14126 H 989.184 -5.86232 -3.67314 0
M  V30 14127 H 988.317 -7.84508 -2.24507 0
M  V30 14128 H 985.662 -5.73556 -0.888715 0
M  V30 14129 H 985.382 -5.9096 -3.88638 0
M  V30 14130 H 984.391 -6.66053 -2.58894 0
M  V30 14131 H 986.225 -8.16339 -3.92049 0
M  V30 14132 H 986.297 -4.33052 -4.24913 0
M  V30 14133 H 986.195 -1.9103 -4.71577 0
M  V30 14134 H 985.807 0.521221 -1.95056 0
M  V30 14135 H 986.003 0.286429 -3.70695 0
M  V30 14136 P 984.354 -8.7635 -1.60911 0
M  V30 14137 O 984.134 -10.1388 -1.11561 0
M  V30 14138 O 983.564 -8.36503 -2.79617 0
M  V30 14139 O 984.104 -7.71806 -0.42951 0
M  V30 14140 C 985.044 -7.66948 0.673514 0
M  V30 14141 C 984.314 -7.33374 1.95559 0
M  V30 14142 O 984.104 -5.88721 2.00726 0
M  V30 14143 C 982.914 -7.92218 2.1125 0
M  V30 14144 O 982.524 -8.02971 3.47653 0
M  V30 14145 C 982.034 -6.89504 1.41631 0
M  V30 14146 C 982.744 -5.59106 1.75155 0
M  V30 14147 N 982.694 -4.58136 0.662409 0
M  V30 14148 C 982.544 -3.26059 1.02863 0
M  V30 14149 O 982.454 -2.90743 2.19009 0
M  V30 14150 N 982.504 -2.35995 -0.0155585 0
M  V30 14151 C 982.594 -2.65248 -1.35603 0
M  V30 14152 O 982.544 -1.75605 -2.20651 0
M  V30 14153 C 982.744 -4.05747 -1.64698 0
M  V30 14154 C 982.854 -4.42345 -3.09553 0
M  V30 14155 C 982.794 -4.96734 -0.652411 0
M  V30 14156 H 985.535 -8.64917 0.776982 0
M  V30 14157 H 985.804 -6.89974 0.474015 0
M  V30 14158 H 984.937 -7.66548 2.79458 0
M  V30 14159 H 982.282 -5.16076 2.65138 0
M  V30 14160 H 982.003 -7.06433 0.329384 0
M  V30 14161 H 981.011 -6.90829 1.81996 0
M  V30 14162 H 982.845 -8.90774 1.62639 0
M  V30 14163 H 982.916 -6.02181 -0.895285 0
M  V30 14164 H 981.886 -4.80252 -3.45468 0
M  V30 14165 H 983.623 -5.20015 -3.22119 0
M  V30 14166 H 983.135 -3.53269 -3.67833 0
M  V30 14167 H 982.399 -1.39558 0.227499 0
M  V30 14168 P 980.974 -8.03563 3.84925 0
M  V30 14169 O 980.754 -8.85821 5.0569 0
M  V30 14170 O 980.184 -8.41101 2.65469 0
M  V30 14171 O 980.724 -6.4965 4.18908 0
M  V30 14172 C 981.664 -5.81037 5.05421 0
M  V30 14173 C 980.934 -4.78366 5.89277 0
M  V30 14174 O 980.724 -3.58302 5.08433 0
M  V30 14175 C 979.534 -5.17448 6.36119 0
M  V30 14176 O 979.144 -4.45271 7.53232 0
M  V30 14177 C 978.654 -4.74639 5.19936 0
M  V30 14178 C 979.364 -3.49432 4.70418 0
M  V30 14179 N 979.314 -3.32099 3.22613 0
M  V30 14180 H 982.153 -6.54213 5.71376 0
M  V30 14181 H 982.425 -5.30936 4.43503 0
M  V30 14182 H 981.557 -4.55889 6.76652 0
M  V30 14183 H 978.902 -2.61715 5.17932 0
M  V30 14184 H 978.622 -5.52155 4.41878 0
M  V30 14185 H 977.631 -4.51981 5.53374 0
M  V30 14186 H 979.465 -6.25124 6.55234 0
M  V30 14187 P 977.594 -4.23843 7.83734 0
M  V30 14188 O 977.374 -4.19407 9.29784 0
M  V30 14189 O 976.804 -5.24426 7.09156 0
M  V30 14190 O 977.344 -2.7935 7.20758 0
M  V30 14191 C 978.284 -1.7299 7.50419 0
M  V30 14192 C 977.554 -0.406376 7.57911 0
M  V30 14193 O 977.344 0.0897726 6.21935 0
M  V30 14194 C 976.154 -0.447224 8.1878 0
M  V30 14195 O 975.764 0.825065 8.71101 0
M  V30 14196 C 975.274 -0.783801 6.99623 0
M  V30 14197 C 975.984 -0.0619192 5.85967 0
M  V30 14198 N 975.934 -0.7859 4.56281 0
M  V30 14199 H 978.773 -1.93423 8.4679 0
M  V30 14200 H 979.045 -1.68181 6.71046 0
M  V30 14201 H 978.177 0.289041 8.15388 0
M  V30 14202 P 974.214 1.17771 8.83182 0
M  V30 14203 O 973.994 2.07206 9.98732 0
M  V30 14204 O 973.424 -0.0743816 8.81969 0
M  V30 14205 O 973.964 1.97652 7.47304 0
M  V30 14206 C 974.904 3.01133 7.08783 0
M  V30 14207 C 974.174 4.12613 6.37049 0
M  V30 14208 O 973.964 3.72827 4.97879 0
M  V30 14209 C 972.774 4.45085 6.88694 0
M  V30 14210 O 972.384 5.7877 6.5624 0
M  V30 14211 C 971.894 3.47817 6.12078 0
M  V30 14212 C 972.604 3.39414 4.77697 0
M  V30 14213 N 972.554 2.04615 4.15333 0
M  V30 14214 H 975.393 3.41248 7.98759 0
M  V30 14215 H 975.665 2.5837 6.41742 0
M  V30 14216 H 974.797 5.02657 6.42673 0
M  V30 14217 P 970.834 6.144 6.45285 0
M  V30 14218 O 970.614 7.54673 6.86199 0
M  V30 14219 O 970.044 5.12391 7.179 0
M  V30 14220 O 970.584 5.99158 4.88404 0
M  V30 14221 C 971.524 6.60062 3.96313 0
M  V30 14222 C 970.794 7.08259 2.72856 0
M  V30 14223 O 970.584 5.9427 1.83651 0
M  V30 14224 C 969.394 7.65087 2.94749 0
M  V30 14225 O 969.004 8.53963 1.90717 0
M  V30 14226 C 968.514 6.41069 2.90698 0
M  V30 14227 C 969.224 5.5528 1.86931 0
M  V30 14228 N 969.174 4.09575 2.15696 0
M  V30 14229 C 969.024 3.24249 1.08435 0
M  V30 14230 O 968.934 3.63946 -0.0628747 0
M  V30 14231 N 968.984 1.90009 1.39973 0
M  V30 14232 C 969.074 1.34884 2.65614 0
M  V30 14233 C 969.224 2.3145 3.71736 0
M  V30 14234 C 969.274 3.63518 3.44754 0
M  V30 14235 H 972.015 7.45402 4.45526 0
M  V30 14236 H 972.284 5.86062 3.67208 0
M  V30 14237 H 971.417 7.84412 2.24479 0
M  V30 14238 H 968.762 5.73358 0.888409 0
M  V30 14239 H 968.483 5.90877 3.88583 0
M  V30 14240 H 967.491 6.65867 2.58821 0
M  V30 14241 H 969.325 8.16248 3.92006 0
M  V30 14242 H 969.396 4.34551 4.26383 0
M  V30 14243 P 967.454 8.7635 1.60911 0
M  V30 14244 O 967.234 10.1388 1.11561 0
M  V30 14245 O 966.664 8.36503 2.79617 0
M  V30 14246 O 967.204 7.71806 0.42951 0
M  V30 14247 C 968.144 7.67148 -0.673689 0
M  V30 14248 C 967.414 7.33374 -1.95559 0
M  V30 14249 O 967.204 5.88721 -2.00726 0
M  V30 14250 C 966.014 7.92526 -2.10483 0
M  V30 14251 O 965.624 8.02971 -3.47653 0
M  V30 14252 C 965.134 6.89602 -1.41652 0
M  V30 14253 C 965.844 5.59201 -1.75185 0
M  V30 14254 N 965.794 4.58301 -0.657969 0
M  V30 14255 C 965.874 4.79019 0.692603 0
M  V30 14256 N 965.804 3.69736 1.38998 0
M  V30 14257 C 965.654 2.70474 0.438135 0
M  V30 14258 C 965.524 1.30327 0.538142 0
M  V30 14259 N 965.514 0.64304 1.69192 0
M  V30 14260 N 965.404 0.611027 -0.605183 0
M  V30 14261 C 965.414 1.27002 -1.75953 0
M  V30 14262 N 965.534 2.56038 -1.98546 0
M  V30 14263 C 965.654 3.22681 -0.822541 0
M  V30 14264 H 968.633 8.65116 -0.777161 0
M  V30 14265 H 968.905 6.9022 -0.46725 0
M  V30 14266 H 968.037 7.66548 -2.79458 0
M  V30 14267 H 965.382 5.16165 -2.65183 0
M  V30 14268 H 965.102 7.06433 -0.329384 0
M  V30 14269 H 964.111 6.90926 -1.82021 0
M  V30 14270 H 965.945 8.90873 -1.62657 0
M  V30 14271 H 965.986 5.77785 1.13874 0
M  V30 14272 H 965.605 1.15585 2.57991 0
M  V30 14273 H 965.416 -0.382989 1.69835 0
M  V30 14274 H 965.308 0.653331 -2.64449 0
M  V30 14275 P 964.074 8.03563 -3.84925 0
M  V30 14276 O 963.854 8.85821 -5.0569 0
M  V30 14277 O 963.284 8.41101 -2.65469 0
M  V30 14278 O 963.824 6.4965 -4.18908 0
M  V30 14279 C 964.764 5.81037 -5.05421 0
M  V30 14280 C 964.034 4.78366 -5.89277 0
M  V30 14281 O 963.824 3.58302 -5.08433 0
M  V30 14282 C 962.634 5.17448 -6.36119 0
M  V30 14283 O 962.244 4.45271 -7.53232 0
M  V30 14284 C 961.754 4.74639 -5.19936 0
M  V30 14285 C 962.464 3.49432 -4.70418 0
M  V30 14286 N 962.414 3.31776 -3.22945 0
M  V30 14287 H 965.253 6.54213 -5.71376 0
M  V30 14288 H 965.525 5.30492 -4.44033 0
M  V30 14289 H 964.657 4.55889 -6.76652 0
M  V30 14290 P 960.694 4.23843 -7.83734 0
M  V30 14291 O 960.474 4.19407 -9.29784 0
M  V30 14292 O 959.904 5.24426 -7.09156 0
M  V30 14293 O 960.444 2.7935 -7.20758 0
M  V30 14294 C 961.384 1.7299 -7.50419 0
M  V30 14295 C 960.654 0.406376 -7.57911 0
M  V30 14296 O 960.444 -0.0897726 -6.21935 0
M  V30 14297 C 959.254 0.447224 -8.1878 0
M  V30 14298 O 958.864 -0.825065 -8.71101 0
M  V30 14299 C 958.374 0.783801 -6.99623 0
M  V30 14300 C 959.084 0.0619192 -5.85967 0
M  V30 14301 N 959.034 0.790462 -4.56202 0
M  V30 14302 H 961.873 1.93423 -8.4679 0
M  V30 14303 H 962.145 1.68852 -6.70877 0
M  V30 14304 H 961.277 -0.289041 -8.15388 0
M  V30 14305 H 958.622 -0.927006 -5.72848 0
M  V30 14306 H 958.342 1.86973 -6.82036 0
M  V30 14307 H 957.351 0.403953 -7.13357 0
M  V30 14308 H 959.185 1.20599 -8.97534 0
M  V30 14309 P 957.314 -1.17771 -8.83182 0
M  V30 14310 O 957.094 -2.07206 -9.98732 0
M  V30 14311 O 956.524 0.0743816 -8.81969 0
M  V30 14312 O 957.064 -1.97652 -7.47304 0
M  V30 14313 C 958.004 -3.01133 -7.08783 0
M  V30 14314 C 957.274 -4.12613 -6.37049 0
M  V30 14315 O 957.064 -3.72827 -4.97879 0
M  V30 14316 C 955.874 -4.45085 -6.88694 0
M  V30 14317 O 955.484 -5.7877 -6.5624 0
M  V30 14318 C 954.994 -3.47817 -6.12078 0
M  V30 14319 C 955.704 -3.39414 -4.77697 0
M  V30 14320 N 955.654 -2.04615 -4.15333 0
M  V30 14321 H 958.493 -3.41248 -7.98759 0
M  V30 14322 H 958.765 -2.5837 -6.41742 0
M  V30 14323 H 957.897 -5.02657 -6.42673 0
M  V30 14324 P 953.934 -6.144 -6.45285 0
M  V30 14325 O 953.714 -7.54673 -6.86199 0
M  V30 14326 O 953.144 -5.12391 -7.179 0
M  V30 14327 O 953.684 -5.99158 -4.88404 0
M  V30 14328 C 954.624 -6.60234 -3.96415 0
M  V30 14329 C 953.894 -7.08259 -2.72856 0
M  V30 14330 O 953.684 -5.9427 -1.83651 0
M  V30 14331 C 952.494 -7.64886 -2.9555 0
M  V30 14332 O 952.104 -8.53963 -1.90717 0
M  V30 14333 C 951.614 -6.4116 -2.90739 0
M  V30 14334 C 952.324 -5.55375 -1.86963 0
M  V30 14335 N 952.274 -4.09448 -2.16152 0
M  V30 14336 H 955.113 -7.45574 -4.45629 0
M  V30 14337 H 955.385 -5.85864 -3.679 0
M  V30 14338 H 954.517 -7.84412 -2.24479 0
M  V30 14339 H 951.862 -5.73457 -0.888562 0
M  V30 14340 H 951.582 -5.90877 -3.88583 0
M  V30 14341 H 950.591 -6.6596 -2.58858 0
M  V30 14342 H 952.425 -8.16339 -3.92049 0
M  V30 14343 P 950.554 -8.7635 -1.60911 0
M  V30 14344 O 950.334 -10.1388 -1.11561 0
M  V30 14345 O 949.764 -8.36503 -2.79617 0
M  V30 14346 O 950.304 -7.71806 -0.42951 0
M  V30 14347 C 951.244 -7.67148 0.673689 0
M  V30 14348 C 950.514 -7.33374 1.95559 0
M  V30 14349 O 950.304 -5.88721 2.00726 0
M  V30 14350 C 949.114 -7.92526 2.10483 0
M  V30 14351 O 948.724 -8.02971 3.47653 0
M  V30 14352 C 948.234 -6.89602 1.41652 0
M  V30 14353 C 948.944 -5.59201 1.75185 0
M  V30 14354 N 948.894 -4.58301 0.657969 0
M  V30 14355 H 951.733 -8.65116 0.777161 0
M  V30 14356 H 952.005 -6.9022 0.46725 0
M  V30 14357 H 951.137 -7.66548 2.79458 0
M  V30 14358 H 948.482 -5.16165 2.65183 0
M  V30 14359 H 948.202 -7.06433 0.329384 0
M  V30 14360 H 947.211 -6.90926 1.82021 0
M  V30 14361 H 949.045 -8.90873 1.62657 0
M  V30 14362 P 947.174 -8.03563 3.84925 0
M  V30 14363 O 946.954 -8.85821 5.0569 0
M  V30 14364 O 946.384 -8.41101 2.65469 0
M  V30 14365 O 946.924 -6.4965 4.18908 0
M  V30 14366 C 947.864 -5.81037 5.05421 0
M  V30 14367 C 947.134 -4.78366 5.89277 0
M  V30 14368 O 946.924 -3.58302 5.08433 0
M  V30 14369 C 945.734 -5.17448 6.36119 0
M  V30 14370 O 945.344 -4.45271 7.53232 0
M  V30 14371 C 944.854 -4.74639 5.19936 0
M  V30 14372 C 945.564 -3.49432 4.70418 0
M  V30 14373 N 945.514 -3.32099 3.22613 0
M  V30 14374 H 948.353 -6.54213 5.71376 0
M  V30 14375 H 948.625 -5.30936 4.43503 0
M  V30 14376 H 947.757 -4.55889 6.76652 0
M  V30 14377 H 945.102 -2.61715 5.17932 0
M  V30 14378 H 944.822 -5.52155 4.41878 0
M  V30 14379 H 943.831 -4.51981 5.53374 0
M  V30 14380 H 945.665 -6.25124 6.55234 0
M  V30 14381 P 943.794 -4.23843 7.83734 0
M  V30 14382 O 943.574 -4.19407 9.29784 0
M  V30 14383 O 943.004 -5.24426 7.09156 0
M  V30 14384 O 943.544 -2.7935 7.20758 0
M  V30 14385 C 944.484 -1.7299 7.50419 0
M  V30 14386 C 943.754 -0.406376 7.57911 0
M  V30 14387 O 943.544 0.0897726 6.21935 0
M  V30 14388 C 942.354 -0.447224 8.1878 0
M  V30 14389 O 941.964 0.825065 8.71101 0
M  V30 14390 C 941.474 -0.783801 6.99623 0
M  V30 14391 C 942.184 -0.0619192 5.85967 0
M  V30 14392 N 942.134 -0.790462 4.56202 0
M  V30 14393 H 944.973 -1.93423 8.4679 0
M  V30 14394 H 945.245 -1.68852 6.70877 0
M  V30 14395 H 944.377 0.289041 8.15388 0
M  V30 14396 H 941.722 0.927006 5.72848 0
M  V30 14397 H 941.442 -1.86973 6.82036 0
M  V30 14398 H 940.451 -0.403953 7.13357 0
M  V30 14399 H 942.285 -1.20599 8.97534 0
M  V30 14400 P 940.414 1.17771 8.83182 0
M  V30 14401 O 940.194 2.07206 9.98732 0
M  V30 14402 O 939.624 -0.0743816 8.81969 0
M  V30 14403 O 940.164 1.97652 7.47304 0
M  V30 14404 C 941.104 3.01055 7.08599 0
M  V30 14405 C 940.374 4.12613 6.37049 0
M  V30 14406 O 940.164 3.72827 4.97879 0
M  V30 14407 C 938.974 4.45719 6.88164 0
M  V30 14408 O 938.584 5.7877 6.5624 0
M  V30 14409 C 938.094 3.47768 6.11991 0
M  V30 14410 C 938.804 3.39356 4.77615 0
M  V30 14411 N 938.754 2.04571 4.15244 0
M  V30 14412 C 938.604 1.98587 2.78314 0
M  V30 14413 O 938.514 2.98134 2.08835 0
M  V30 14414 N 938.564 0.714467 2.24925 0
M  V30 14415 C 938.654 -0.470001 2.94169 0
M  V30 14416 C 938.804 -0.312541 4.36783 0
M  V30 14417 C 938.854 0.914512 4.92583 0
M  V30 14418 H 941.595 3.41169 7.98575 0
M  V30 14419 H 941.864 2.58295 6.41556 0
M  V30 14420 H 940.997 5.02657 6.42673 0
M  V30 14421 H 938.342 4.11637 4.08885 0
M  V30 14422 H 938.063 2.49626 6.61679 0
M  V30 14423 H 937.071 3.86566 6.00778 0
M  V30 14424 H 938.905 4.29943 7.96918 0
M  V30 14425 H 938.976 1.00937 6.00374 0
M  V30 14426 P 937.034 6.144 6.45285 0
M  V30 14427 O 936.814 7.54673 6.86199 0
M  V30 14428 O 936.244 5.12391 7.179 0
M  V30 14429 O 936.784 5.99158 4.88404 0
M  V30 14430 C 937.724 6.60234 3.96415 0
M  V30 14431 C 936.994 7.08259 2.72856 0
M  V30 14432 O 936.784 5.9427 1.83651 0
M  V30 14433 C 935.594 7.64886 2.9555 0
M  V30 14434 O 935.204 8.53963 1.90717 0
M  V30 14435 C 934.714 6.4116 2.90739 0
M  V30 14436 C 935.424 5.55375 1.86963 0
M  V30 14437 N 935.374 4.09664 2.15742 0
M  V30 14438 H 938.213 7.45574 4.45629 0
M  V30 14439 H 938.485 5.86232 3.67314 0
M  V30 14440 H 937.617 7.84412 2.24479 0
M  V30 14441 P 933.655 8.7635 1.60911 0
M  V30 14442 O 933.435 10.1388 1.11561 0
M  V30 14443 O 932.865 8.36503 2.79617 0
M  V30 14444 O 933.405 7.71806 0.42951 0
M  V30 14445 C 934.345 7.67148 -0.673689 0
M  V30 14446 C 933.615 7.33374 -1.95559 0
M  V30 14447 O 933.405 5.88721 -2.00726 0
M  V30 14448 C 932.215 7.92526 -2.10483 0
M  V30 14449 O 931.825 8.02971 -3.47653 0
M  V30 14450 C 931.335 6.89602 -1.41652 0
M  V30 14451 C 932.045 5.59201 -1.75185 0
M  V30 14452 N 931.995 4.58301 -0.657969 0
M  V30 14453 H 934.834 8.65116 -0.777161 0
M  V30 14454 H 935.106 6.9022 -0.46725 0
M  V30 14455 H 934.238 7.66548 -2.79458 0
M  V30 14456 H 931.583 5.16165 -2.65183 0
M  V30 14457 H 931.303 7.06433 -0.329384 0
M  V30 14458 H 930.312 6.90926 -1.82021 0
M  V30 14459 H 932.146 8.90873 -1.62657 0
M  V30 14460 P 930.275 8.03563 -3.84925 0
M  V30 14461 O 930.055 8.85821 -5.0569 0
M  V30 14462 O 929.485 8.41101 -2.65469 0
M  V30 14463 O 930.025 6.4965 -4.18908 0
M  V30 14464 C 930.965 5.81037 -5.05421 0
M  V30 14465 C 930.235 4.78366 -5.89277 0
M  V30 14466 O 930.025 3.58302 -5.08433 0
M  V30 14467 C 928.835 5.17448 -6.36119 0
M  V30 14468 O 928.445 4.45271 -7.53232 0
M  V30 14469 C 927.955 4.74639 -5.19936 0
M  V30 14470 C 928.665 3.49432 -4.70418 0
M  V30 14471 N 928.615 3.32099 -3.22613 0
M  V30 14472 H 931.454 6.54213 -5.71376 0
M  V30 14473 H 931.726 5.30936 -4.43503 0
M  V30 14474 H 930.858 4.55889 -6.76652 0
M  V30 14475 H 928.203 2.61715 -5.17932 0
M  V30 14476 H 927.923 5.52155 -4.41878 0
M  V30 14477 H 926.932 4.51981 -5.53374 0
M  V30 14478 H 928.766 6.25124 -6.55234 0
M  V30 14479 P 926.895 4.23843 -7.83734 0
M  V30 14480 O 926.675 4.19407 -9.29784 0
M  V30 14481 O 926.105 5.24426 -7.09156 0
M  V30 14482 O 926.645 2.7935 -7.20758 0
M  V30 14483 C 927.585 1.7299 -7.50419 0
M  V30 14484 C 926.855 0.406376 -7.57911 0
M  V30 14485 O 926.645 -0.0897726 -6.21935 0
M  V30 14486 C 925.455 0.447224 -8.1878 0
M  V30 14487 O 925.065 -0.825065 -8.71101 0
M  V30 14488 C 924.575 0.783801 -6.99623 0
M  V30 14489 C 925.285 0.0619192 -5.85967 0
M  V30 14490 N 925.235 0.7859 -4.56281 0
M  V30 14491 H 928.074 1.93423 -8.4679 0
M  V30 14492 H 928.346 1.68181 -6.71046 0
M  V30 14493 H 927.478 -0.289041 -8.15388 0
M  V30 14494 P 923.515 -1.17771 -8.83182 0
M  V30 14495 O 923.295 -2.07206 -9.98732 0
M  V30 14496 O 922.725 0.0743816 -8.81969 0
M  V30 14497 O 923.265 -1.97652 -7.47304 0
M  V30 14498 C 924.205 -3.01133 -7.08783 0
M  V30 14499 C 923.475 -4.12613 -6.37049 0
M  V30 14500 O 923.265 -3.72827 -4.97879 0
M  V30 14501 C 922.075 -4.45085 -6.88694 0
M  V30 14502 O 921.685 -5.7877 -6.5624 0
M  V30 14503 C 921.195 -3.47817 -6.12078 0
M  V30 14504 C 921.905 -3.39414 -4.77697 0
M  V30 14505 N 921.855 -2.04199 -4.15538 0
M  V30 14506 C 921.935 -0.821545 -4.76977 0
M  V30 14507 N 921.865 0.1794 -3.94592 0
M  V30 14508 C 921.715 -0.419121 -2.70776 0
M  V30 14509 C 921.585 0.109072 -1.40577 0
M  V30 14510 N 921.575 1.4104 -1.1344 0
M  V30 14511 N 921.465 -0.764381 -0.39411 0
M  V30 14512 C 921.475 -2.06587 -0.664135 0
M  V30 14513 N 921.595 -2.67948 -1.82153 0
M  V30 14514 C 921.715 -1.77942 -2.8147 0
M  V30 14515 H 924.694 -3.41248 -7.98759 0
M  V30 14516 H 924.966 -2.57728 -6.42 0
M  V30 14517 H 924.098 -5.02657 -6.42673 0
M  V30 14518 H 921.443 -4.11708 -4.08956 0
M  V30 14519 H 921.163 -2.49626 -6.61679 0
M  V30 14520 H 920.172 -3.8662 -6.00862 0
M  V30 14521 H 922.006 -4.29991 -7.97006 0
M  V30 14522 H 922.047 -0.702451 -5.84696 0
M  V30 14523 H 921.666 2.09647 -1.89651 0
M  V30 14524 H 921.477 1.73358 -0.160575 0
M  V30 14525 H 921.369 -2.71695 0.195838 0
M  V30 14526 P 920.135 -6.144 -6.45285 0
M  V30 14527 O 919.915 -7.54673 -6.86199 0
M  V30 14528 O 919.345 -5.12391 -7.179 0
M  V30 14529 O 919.885 -5.99158 -4.88404 0
M  V30 14530 C 920.825 -6.60062 -3.96313 0
M  V30 14531 C 920.095 -7.08259 -2.72856 0
M  V30 14532 O 919.885 -5.9427 -1.83651 0
M  V30 14533 C 918.695 -7.65087 -2.94749 0
M  V30 14534 O 918.305 -8.53963 -1.90717 0
M  V30 14535 C 917.815 -6.41069 -2.90698 0
M  V30 14536 C 918.525 -5.5528 -1.86931 0
M  V30 14537 N 918.475 -4.09575 -2.15696 0
M  V30 14538 C 918.325 -3.24249 -1.08435 0
M  V30 14539 O 918.235 -3.63946 0.0628747 0
M  V30 14540 N 918.285 -1.90009 -1.39973 0
M  V30 14541 C 918.375 -1.34884 -2.65614 0
M  V30 14542 C 918.525 -2.3145 -3.71736 0
M  V30 14543 C 918.575 -3.63518 -3.44754 0
M  V30 14544 H 921.316 -7.45402 -4.45526 0
M  V30 14545 H 921.585 -5.86062 -3.67208 0
M  V30 14546 H 920.718 -7.84412 -2.24479 0
M  V30 14547 H 918.063 -5.73358 -0.888409 0
M  V30 14548 H 917.784 -5.90877 -3.88583 0
M  V30 14549 H 916.792 -6.65867 -2.58821 0
M  V30 14550 H 918.626 -8.16248 -3.92006 0
M  V30 14551 H 918.697 -4.34551 -4.26383 0
M  V30 14552 P 916.755 -8.7635 -1.60911 0
M  V30 14553 O 916.535 -10.1388 -1.11561 0
M  V30 14554 O 915.965 -8.36503 -2.79617 0
M  V30 14555 O 916.505 -7.71806 -0.42951 0
M  V30 14556 C 917.445 -7.67148 0.673689 0
M  V30 14557 C 916.715 -7.33374 1.95559 0
M  V30 14558 O 916.505 -5.88721 2.00726 0
M  V30 14559 C 915.315 -7.92526 2.10483 0
M  V30 14560 O 914.925 -8.02971 3.47653 0
M  V30 14561 C 914.435 -6.89602 1.41652 0
M  V30 14562 C 915.145 -5.59201 1.75185 0
M  V30 14563 N 915.095 -4.58235 0.662552 0
M  V30 14564 H 917.934 -8.65116 0.777161 0
M  V30 14565 H 918.206 -6.90173 0.474152 0
M  V30 14566 H 917.338 -7.66548 2.79458 0
M  V30 14567 P 913.375 -8.03563 3.84925 0
M  V30 14568 O 913.155 -8.85821 5.0569 0
M  V30 14569 O 912.585 -8.41101 2.65469 0
M  V30 14570 O 913.125 -6.49734 4.18962 0
M  V30 14571 C 914.065 -5.81037 5.05421 0
M  V30 14572 C 913.335 -4.79018 5.88876 0
M  V30 14573 O 913.125 -3.58359 5.08515 0
M  V30 14574 C 911.935 -5.17448 6.36119 0
M  V30 14575 O 911.545 -4.45322 7.53318 0
M  V30 14576 C 911.055 -4.74639 5.19936 0
M  V30 14577 C 911.765 -3.49432 4.70418 0
M  V30 14578 N 911.715 -3.31776 3.22945 0
M  V30 14579 C 911.565 -2.02742 2.72939 0
M  V30 14580 O 911.475 -1.08301 3.52749 0
M  V30 14581 N 911.515 -1.96117 1.22063 0
M  V30 14582 C 911.615 -2.8878 0.551566 0
M  V30 14583 N 911.565 -2.65609 -0.750198 0
M  V30 14584 C 911.765 -4.22457 1.03707 0
M  V30 14585 C 911.815 -4.37979 2.39113 0
M  V30 14586 H 914.555 -6.54138 5.7131 0
M  V30 14587 H 914.825 -5.30492 4.44033 0
M  V30 14588 H 913.958 -4.55945 6.76735 0
M  V30 14589 H 911.303 -2.6176 5.18021 0
M  V30 14590 H 911.023 -5.52233 4.41941 0
M  V30 14591 H 910.032 -4.52045 5.53452 0
M  V30 14592 H 911.866 -6.25124 6.55234 0
M  V30 14593 H 911.938 -5.37936 2.80552 0
M  V30 14594 H 911.836 -5.07528 0.359553 0
M  V30 14595 H 911.448 -1.69403 -1.09847 0
M  V30 14596 H 911.644 -3.43701 -1.41792 0
M  V30 14597 P 909.995 -4.23843 7.83734 0
M  V30 14598 O 909.775 -4.19407 9.29784 0
M  V30 14599 O 909.205 -5.24426 7.09156 0
M  V30 14600 O 909.745 -2.7935 7.20758 0
M  V30 14601 C 910.685 -1.7299 7.50419 0
M  V30 14602 C 909.955 -0.406376 7.57911 0
M  V30 14603 O 909.745 0.0897726 6.21935 0
M  V30 14604 C 908.555 -0.447224 8.1878 0
M  V30 14605 O 908.165 0.825065 8.71101 0
M  V30 14606 C 907.675 -0.783801 6.99623 0
M  V30 14607 C 908.385 -0.0619192 5.85967 0
M  V30 14608 N 908.335 -0.7859 4.56281 0
M  V30 14609 H 911.174 -1.93423 8.4679 0
M  V30 14610 H 911.446 -1.68181 6.71046 0
M  V30 14611 H 910.578 0.289041 8.15388 0
M  V30 14612 P 906.615 1.17771 8.83182 0
M  V30 14613 O 906.395 2.07206 9.98732 0
M  V30 14614 O 905.825 -0.0743816 8.81969 0
M  V30 14615 O 906.365 1.97652 7.47304 0
M  V30 14616 C 907.305 3.01055 7.08599 0
M  V30 14617 C 906.575 4.12613 6.37049 0
M  V30 14618 O 906.365 3.72827 4.97879 0
M  V30 14619 C 905.175 4.45719 6.88164 0
M  V30 14620 O 904.785 5.7877 6.5624 0
M  V30 14621 C 904.295 3.47768 6.11991 0
M  V30 14622 C 905.005 3.39356 4.77615 0
M  V30 14623 N 904.955 2.04571 4.15244 0
M  V30 14624 C 904.805 1.98587 2.78314 0
M  V30 14625 O 904.715 2.98134 2.08835 0
M  V30 14626 N 904.765 0.714467 2.24925 0
M  V30 14627 C 904.855 -0.470001 2.94169 0
M  V30 14628 C 905.005 -0.312541 4.36783 0
M  V30 14629 C 905.055 0.914512 4.92583 0
M  V30 14630 H 907.796 3.41169 7.98575 0
M  V30 14631 H 908.065 2.58295 6.41556 0
M  V30 14632 H 907.198 5.02657 6.42673 0
M  V30 14633 H 904.543 4.11637 4.08885 0
M  V30 14634 H 904.264 2.49626 6.61679 0
M  V30 14635 H 903.272 3.86566 6.00778 0
M  V30 14636 H 905.106 4.29943 7.96918 0
M  V30 14637 H 905.177 1.00937 6.00374 0
M  V30 14638 P 903.235 6.144 6.45285 0
M  V30 14639 O 903.015 7.54673 6.86199 0
M  V30 14640 O 902.445 5.12391 7.179 0
M  V30 14641 O 902.985 5.99158 4.88404 0
M  V30 14642 C 903.925 6.60234 3.96415 0
M  V30 14643 C 903.195 7.08259 2.72856 0
M  V30 14644 O 902.985 5.9427 1.83651 0
M  V30 14645 C 901.795 7.64886 2.9555 0
M  V30 14646 O 901.405 8.53963 1.90717 0
M  V30 14647 C 900.915 6.4116 2.90739 0
M  V30 14648 C 901.625 5.55375 1.86963 0
M  V30 14649 N 901.575 4.09664 2.15742 0
M  V30 14650 H 904.414 7.45574 4.45629 0
M  V30 14651 H 904.686 5.86232 3.67314 0
M  V30 14652 H 903.818 7.84412 2.24479 0
M  V30 14653 P 899.855 8.7635 1.60911 0
M  V30 14654 O 899.635 10.1388 1.11561 0
M  V30 14655 O 899.065 8.36503 2.79617 0
M  V30 14656 O 899.605 7.71806 0.42951 0
M  V30 14657 C 900.545 7.67148 -0.673689 0
M  V30 14658 C 899.815 7.33374 -1.95559 0
M  V30 14659 O 899.605 5.88721 -2.00726 0
M  V30 14660 C 898.415 7.92526 -2.10483 0
M  V30 14661 O 898.025 8.02971 -3.47653 0
M  V30 14662 C 897.535 6.89602 -1.41652 0
M  V30 14663 C 898.245 5.59201 -1.75185 0
M  V30 14664 N 898.195 4.58235 -0.662552 0
M  V30 14665 H 901.034 8.65116 -0.777161 0
M  V30 14666 H 901.306 6.90173 -0.474152 0
M  V30 14667 H 900.438 7.66548 -2.79458 0
M  V30 14668 P 896.475 8.03563 -3.84925 0
M  V30 14669 O 896.255 8.85821 -5.0569 0
M  V30 14670 O 895.685 8.41101 -2.65469 0
M  V30 14671 O 896.225 6.4965 -4.18908 0
M  V30 14672 C 897.165 5.81037 -5.05421 0
M  V30 14673 C 896.435 4.78366 -5.89277 0
M  V30 14674 O 896.225 3.58302 -5.08433 0
M  V30 14675 C 895.035 5.17448 -6.36119 0
M  V30 14676 O 894.645 4.45271 -7.53232 0
M  V30 14677 C 894.155 4.74639 -5.19936 0
M  V30 14678 C 894.865 3.49432 -4.70418 0
M  V30 14679 N 894.815 3.32099 -3.22613 0
M  V30 14680 H 897.654 6.54213 -5.71376 0
M  V30 14681 H 897.926 5.30936 -4.43503 0
M  V30 14682 H 897.058 4.55889 -6.76652 0
M  V30 14683 H 894.403 2.61715 -5.17932 0
M  V30 14684 H 894.123 5.52155 -4.41878 0
M  V30 14685 H 893.132 4.51981 -5.53374 0
M  V30 14686 H 894.966 6.25124 -6.55234 0
M  V30 14687 P 893.095 4.23843 -7.83734 0
M  V30 14688 O 892.875 4.19407 -9.29784 0
M  V30 14689 O 892.305 5.24426 -7.09156 0
M  V30 14690 O 892.845 2.7935 -7.20758 0
M  V30 14691 C 893.785 1.7299 -7.50419 0
M  V30 14692 C 893.055 0.406376 -7.57911 0
M  V30 14693 O 892.845 -0.0897726 -6.21935 0
M  V30 14694 C 891.655 0.447224 -8.1878 0
M  V30 14695 O 891.265 -0.825065 -8.71101 0
M  V30 14696 C 890.775 0.783801 -6.99623 0
M  V30 14697 C 891.485 0.0619192 -5.85967 0
M  V30 14698 N 891.435 0.7859 -4.56281 0
M  V30 14699 H 894.274 1.93423 -8.4679 0
M  V30 14700 H 894.546 1.68181 -6.71046 0
M  V30 14701 H 893.678 -0.289041 -8.15388 0
M  V30 14702 P 889.715 -1.17771 -8.83182 0
M  V30 14703 O 889.495 -2.07206 -9.98732 0
M  V30 14704 O 888.925 0.0743816 -8.81969 0
M  V30 14705 O 889.465 -1.97652 -7.47304 0
M  V30 14706 C 890.405 -3.01133 -7.08783 0
M  V30 14707 C 889.675 -4.12613 -6.37049 0
M  V30 14708 O 889.465 -3.72827 -4.97879 0
M  V30 14709 C 888.275 -4.45085 -6.88694 0
M  V30 14710 O 887.885 -5.7877 -6.5624 0
M  V30 14711 C 887.395 -3.47817 -6.12078 0
M  V30 14712 C 888.105 -3.39414 -4.77697 0
M  V30 14713 N 888.055 -2.04199 -4.15538 0
M  V30 14714 H 890.894 -3.41248 -7.98759 0
M  V30 14715 H 891.166 -2.57728 -6.42 0
M  V30 14716 H 890.298 -5.02657 -6.42673 0
M  V30 14717 H 887.643 -4.11708 -4.08956 0
M  V30 14718 H 887.363 -2.49626 -6.61679 0
M  V30 14719 H 886.372 -3.8662 -6.00862 0
M  V30 14720 H 888.206 -4.29991 -7.97006 0
M  V30 14721 P 886.335 -6.144 -6.45285 0
M  V30 14722 O 886.115 -7.54673 -6.86199 0
M  V30 14723 O 885.545 -5.12391 -7.179 0
M  V30 14724 O 886.085 -5.99158 -4.88404 0
M  V30 14725 C 887.025 -6.60234 -3.96415 0
M  V30 14726 C 886.295 -7.08259 -2.72856 0
M  V30 14727 O 886.085 -5.9427 -1.83651 0
M  V30 14728 C 884.895 -7.64886 -2.9555 0
M  V30 14729 O 884.505 -8.53963 -1.90717 0
M  V30 14730 C 884.015 -6.4116 -2.90739 0
M  V30 14731 C 884.725 -5.55375 -1.86963 0
M  V30 14732 N 884.675 -4.09448 -2.16152 0
M  V30 14733 C 884.755 -3.46824 -3.37593 0
M  V30 14734 N 884.685 -2.17422 -3.29777 0
M  V30 14735 C 884.535 -1.93065 -1.94427 0
M  V30 14736 C 884.405 -0.738053 -1.20141 0
M  V30 14737 N 884.395 0.474256 -1.74676 0
M  V30 14738 N 884.285 -0.850049 0.13045 0
M  V30 14739 C 884.295 -2.06169 0.676992 0
M  V30 14740 N 884.415 -3.23842 0.101312 0
M  V30 14741 C 884.535 -3.09402 -1.23122 0
M  V30 14742 H 887.514 -7.45574 -4.45629 0
M  V30 14743 H 887.786 -5.85864 -3.679 0
M  V30 14744 H 886.918 -7.84412 -2.24479 0
M  V30 14745 H 884.263 -5.73457 -0.888562 0
M  V30 14746 H 883.983 -5.90877 -3.88583 0
M  V30 14747 H 882.992 -6.6596 -2.58858 0
M  V30 14748 H 884.826 -8.16339 -3.92049 0
M  V30 14749 H 884.867 -4.00505 -4.3174 0
M  V30 14750 H 884.486 0.581337 -2.76658 0
M  V30 14751 H 884.297 1.30811 -1.14888 0
M  V30 14752 H 884.189 -2.08295 1.75542 0
M  V30 14753 P 882.955 -8.7635 -1.60911 0
M  V30 14754 O 882.735 -10.1388 -1.11561 0
M  V30 14755 O 882.165 -8.36503 -2.79617 0
M  V30 14756 O 882.705 -7.71806 -0.42951 0
M  V30 14757 C 883.645 -7.67148 0.673689 0
M  V30 14758 C 882.915 -7.33374 1.95559 0
M  V30 14759 O 882.705 -5.88721 2.00726 0
M  V30 14760 C 881.515 -7.92526 2.10483 0
M  V30 14761 O 881.125 -8.02971 3.47653 0
M  V30 14762 C 880.635 -6.89602 1.41652 0
M  V30 14763 C 881.345 -5.59201 1.75185 0
M  V30 14764 N 881.295 -4.58301 0.657969 0
M  V30 14765 H 884.134 -8.65116 0.777161 0
M  V30 14766 H 884.406 -6.9022 0.46725 0
M  V30 14767 H 883.538 -7.66548 2.79458 0
M  V30 14768 H 880.883 -5.16165 2.65183 0
M  V30 14769 H 880.603 -7.06433 0.329384 0
M  V30 14770 H 879.612 -6.90926 1.82021 0
M  V30 14771 H 881.446 -8.90873 1.62657 0
M  V30 14772 P 879.575 -8.03563 3.84925 0
M  V30 14773 O 879.355 -8.85821 5.0569 0
M  V30 14774 O 878.785 -8.41101 2.65469 0
M  V30 14775 O 879.325 -6.4965 4.18908 0
M  V30 14776 C 880.265 -5.81037 5.05421 0
M  V30 14777 C 879.535 -4.78366 5.89277 0
M  V30 14778 O 879.325 -3.58302 5.08433 0
M  V30 14779 C 878.135 -5.17448 6.36119 0
M  V30 14780 O 877.745 -4.45271 7.53232 0
M  V30 14781 C 877.255 -4.74639 5.19936 0
M  V30 14782 C 877.965 -3.49432 4.70418 0
M  V30 14783 N 877.915 -3.31776 3.22945 0
M  V30 14784 H 880.754 -6.54213 5.71376 0
M  V30 14785 H 881.026 -5.30492 4.44033 0
M  V30 14786 H 880.158 -4.55889 6.76652 0
M  V30 14787 P 876.195 -4.23843 7.83734 0
M  V30 14788 O 875.975 -4.19407 9.29784 0
M  V30 14789 O 875.405 -5.24426 7.09156 0
M  V30 14790 O 875.945 -2.79386 7.20852 0
M  V30 14791 C 876.885 -1.7299 7.50419 0
M  V30 14792 C 876.155 -0.41401 7.5797 0
M  V30 14793 O 875.945 0.089787 6.22035 0
M  V30 14794 C 874.755 -0.447224 8.1878 0
M  V30 14795 O 874.365 0.825159 8.71201 0
M  V30 14796 C 873.875 -0.783801 6.99623 0
M  V30 14797 C 874.585 -0.0619192 5.85967 0
M  V30 14798 N 874.535 -0.7859 4.56281 0
M  V30 14799 C 874.385 -0.0359258 3.39981 0
M  V30 14800 O 874.295 1.19723 3.49038 0
M  V30 14801 N 874.335 -0.869151 2.14025 0
M  V30 14802 C 874.435 -2.01207 2.14363 0
M  V30 14803 N 874.385 -2.58978 0.954287 0
M  V30 14804 C 874.585 -2.80817 3.32215 0
M  V30 14805 C 874.635 -2.13785 4.50884 0
M  V30 14806 H 877.375 -1.93401 8.46693 0
M  V30 14807 H 877.645 -1.68181 6.71046 0
M  V30 14808 H 876.778 0.289076 8.15488 0
M  V30 14809 H 874.123 0.927166 5.72947 0
M  V30 14810 H 873.843 -1.87 6.82132 0
M  V30 14811 H 872.852 -0.404009 7.13457 0
M  V30 14812 H 874.686 -1.20599 8.97534 0
M  V30 14813 H 874.758 -2.70295 5.43162 0
M  V30 14814 H 874.656 -3.89465 3.27406 0
M  V30 14815 H 874.268 -2.01616 0.107046 0
M  V30 14816 H 874.464 -3.61403 0.873101 0
M  V30 14817 P 872.815 1.17771 8.83182 0
M  V30 14818 O 872.595 2.07206 9.98732 0
M  V30 14819 O 872.025 -0.0743816 8.81969 0
M  V30 14820 O 872.565 1.97652 7.47304 0
M  V30 14821 C 873.505 3.01133 7.08783 0
M  V30 14822 C 872.775 4.12613 6.37049 0
M  V30 14823 O 872.565 3.72827 4.97879 0
M  V30 14824 C 871.375 4.45085 6.88694 0
M  V30 14825 O 870.985 5.7877 6.5624 0
M  V30 14826 C 870.495 3.47817 6.12078 0
M  V30 14827 C 871.205 3.39414 4.77697 0
M  V30 14828 N 871.155 2.04615 4.15333 0
M  V30 14829 H 873.994 3.41248 7.98759 0
M  V30 14830 H 874.266 2.5837 6.41742 0
M  V30 14831 H 873.398 5.02657 6.42673 0
M  V30 14832 P 869.435 6.144 6.45285 0
M  V30 14833 O 869.215 7.54673 6.86199 0
M  V30 14834 O 868.645 5.12391 7.179 0
M  V30 14835 O 869.185 5.99236 4.88467 0
M  V30 14836 C 870.125 6.60234 3.96415 0
M  V30 14837 C 869.395 7.08079 2.736 0
M  V30 14838 O 869.185 5.94365 1.8368 0
M  V30 14839 C 867.995 7.64886 2.9555 0
M  V30 14840 O 867.605 8.5406 1.90739 0
M  V30 14841 C 867.115 6.4116 2.90739 0
M  V30 14842 C 867.825 5.55375 1.86963 0
M  V30 14843 N 867.775 4.09664 2.15742 0
M  V30 14844 C 867.625 3.22231 1.08477 0
M  V30 14845 O 867.535 3.68951 -0.0600489 0
M  V30 14846 N 867.575 1.76692 1.48799 0
M  V30 14847 C 867.675 1.41695 2.57602 0
M  V30 14848 N 867.625 0.107296 2.75791 0
M  V30 14849 C 867.825 2.29178 3.69733 0
M  V30 14850 C 867.875 3.62753 3.42653 0
M  V30 14851 H 870.615 7.45488 4.45578 0
M  V30 14852 H 870.885 5.86232 3.67314 0
M  V30 14853 H 870.018 7.84508 2.24507 0
M  V30 14854 H 867.363 5.73556 0.888715 0
M  V30 14855 H 867.083 5.9096 3.88638 0
M  V30 14856 H 866.092 6.66053 2.58894 0
M  V30 14857 H 867.926 8.16339 3.92049 0
M  V30 14858 H 867.998 4.33052 4.24913 0
M  V30 14859 H 867.896 1.9103 4.71577 0
M  V30 14860 H 867.508 -0.521221 1.95056 0
M  V30 14861 H 867.704 -0.286429 3.70695 0
M  V30 14862 P 866.055 8.7635 1.60911 0
M  V30 14863 O 865.835 10.1388 1.11561 0
M  V30 14864 O 865.265 8.36503 2.79617 0
M  V30 14865 O 865.805 7.71806 0.42951 0
M  V30 14866 C 866.745 7.67148 -0.673689 0
M  V30 14867 C 866.015 7.33374 -1.95559 0
M  V30 14868 O 865.805 5.88721 -2.00726 0
M  V30 14869 C 864.615 7.92526 -2.10483 0
M  V30 14870 O 864.225 8.02971 -3.47653 0
M  V30 14871 C 863.735 6.89602 -1.41652 0
M  V30 14872 C 864.445 5.59201 -1.75185 0
M  V30 14873 N 864.395 4.58235 -0.662552 0
M  V30 14874 H 867.234 8.65116 -0.777161 0
M  V30 14875 H 867.506 6.90173 -0.474152 0
M  V30 14876 H 866.638 7.66548 -2.79458 0
M  V30 14877 P 862.675 8.03563 -3.84925 0
M  V30 14878 O 862.455 8.85821 -5.0569 0
M  V30 14879 O 861.885 8.41101 -2.65469 0
M  V30 14880 O 862.425 6.4965 -4.18908 0
M  V30 14881 C 863.365 5.81037 -5.05421 0
M  V30 14882 C 862.635 4.78366 -5.89277 0
M  V30 14883 O 862.425 3.58302 -5.08433 0
M  V30 14884 C 861.235 5.17448 -6.36119 0
M  V30 14885 O 860.845 4.45271 -7.53232 0
M  V30 14886 C 860.355 4.74639 -5.19936 0
M  V30 14887 C 861.065 3.49432 -4.70418 0
M  V30 14888 N 861.015 3.31776 -3.22945 0
M  V30 14889 H 863.854 6.54213 -5.71376 0
M  V30 14890 H 864.126 5.30492 -4.44033 0
M  V30 14891 H 863.258 4.55889 -6.76652 0
M  V30 14892 P 859.295 4.23843 -7.83734 0
M  V30 14893 O 859.075 4.19407 -9.29784 0
M  V30 14894 O 858.505 5.24426 -7.09156 0
M  V30 14895 O 859.045 2.7935 -7.20758 0
M  V30 14896 C 859.985 1.7299 -7.50419 0
M  V30 14897 C 859.255 0.406376 -7.57911 0
M  V30 14898 O 859.045 -0.0897726 -6.21935 0
M  V30 14899 C 857.855 0.447224 -8.1878 0
M  V30 14900 O 857.465 -0.825065 -8.71101 0
M  V30 14901 C 856.975 0.783801 -6.99623 0
M  V30 14902 C 857.685 0.0619192 -5.85967 0
M  V30 14903 N 857.635 0.790462 -4.56202 0
M  V30 14904 H 860.474 1.93423 -8.4679 0
M  V30 14905 H 860.746 1.68852 -6.70877 0
M  V30 14906 H 859.878 -0.289041 -8.15388 0
M  V30 14907 H 857.223 -0.927006 -5.72848 0
M  V30 14908 H 856.943 1.86973 -6.82036 0
M  V30 14909 H 855.952 0.403953 -7.13357 0
M  V30 14910 H 857.786 1.20599 -8.97534 0
M  V30 14911 P 855.915 -1.17771 -8.83182 0
M  V30 14912 O 855.695 -2.07206 -9.98732 0
M  V30 14913 O 855.125 0.0743816 -8.81969 0
M  V30 14914 O 855.665 -1.97652 -7.47304 0
M  V30 14915 C 856.605 -3.01133 -7.08783 0
M  V30 14916 C 855.875 -4.12613 -6.37049 0
M  V30 14917 O 855.665 -3.72827 -4.97879 0
M  V30 14918 C 854.475 -4.45085 -6.88694 0
M  V30 14919 O 854.085 -5.7877 -6.5624 0
M  V30 14920 C 853.595 -3.47817 -6.12078 0
M  V30 14921 C 854.305 -3.39414 -4.77697 0
M  V30 14922 N 854.255 -2.04199 -4.15538 0
M  V30 14923 C 854.335 -0.821545 -4.76977 0
M  V30 14924 N 854.265 0.1794 -3.94592 0
M  V30 14925 C 854.115 -0.419121 -2.70776 0
M  V30 14926 C 853.985 0.109072 -1.40577 0
M  V30 14927 N 853.975 1.4104 -1.1344 0
M  V30 14928 N 853.865 -0.764381 -0.39411 0
M  V30 14929 C 853.875 -2.06587 -0.664135 0
M  V30 14930 N 853.995 -2.67948 -1.82153 0
M  V30 14931 C 854.115 -1.77942 -2.8147 0
M  V30 14932 H 857.094 -3.41248 -7.98759 0
M  V30 14933 H 857.366 -2.57728 -6.42 0
M  V30 14934 H 856.498 -5.02657 -6.42673 0
M  V30 14935 H 853.843 -4.11708 -4.08956 0
M  V30 14936 H 853.563 -2.49626 -6.61679 0
M  V30 14937 H 852.572 -3.8662 -6.00862 0
M  V30 14938 H 854.406 -4.29991 -7.97006 0
M  V30 14939 H 854.447 -0.702451 -5.84696 0
M  V30 14940 H 854.066 2.09647 -1.89651 0
M  V30 14941 H 853.877 1.73358 -0.160575 0
M  V30 14942 H 853.769 -2.71695 0.195838 0
M  V30 14943 P 852.535 -6.144 -6.45285 0
M  V30 14944 O 852.315 -7.54673 -6.86199 0
M  V30 14945 O 851.745 -5.12391 -7.179 0
M  V30 14946 O 852.285 -5.99158 -4.88404 0
M  V30 14947 C 853.225 -6.60234 -3.96415 0
M  V30 14948 C 852.495 -7.08259 -2.72856 0
M  V30 14949 O 852.285 -5.9427 -1.83651 0
M  V30 14950 C 851.095 -7.64886 -2.9555 0
M  V30 14951 O 850.705 -8.53963 -1.90717 0
M  V30 14952 C 850.215 -6.4116 -2.90739 0
M  V30 14953 C 850.925 -5.55375 -1.86963 0
M  V30 14954 N 850.875 -4.09664 -2.15742 0
M  V30 14955 H 853.714 -7.45574 -4.45629 0
M  V30 14956 H 853.986 -5.86232 -3.67314 0
M  V30 14957 H 853.118 -7.84412 -2.24479 0
M  V30 14958 P 849.155 -8.7635 -1.60911 0
M  V30 14959 O 848.935 -10.1388 -1.11561 0
M  V30 14960 O 848.365 -8.36503 -2.79617 0
M  V30 14961 O 848.905 -7.71806 -0.42951 0
M  V30 14962 C 849.845 -7.67148 0.673689 0
M  V30 14963 C 849.115 -7.33374 1.95559 0
M  V30 14964 O 848.905 -5.88721 2.00726 0
M  V30 14965 C 847.715 -7.92526 2.10483 0
M  V30 14966 O 847.325 -8.02971 3.47653 0
M  V30 14967 C 846.835 -6.89602 1.41652 0
M  V30 14968 C 847.545 -5.59201 1.75185 0
M  V30 14969 N 847.495 -4.58235 0.662552 0
M  V30 14970 H 850.334 -8.65116 0.777161 0
M  V30 14971 H 850.606 -6.90173 0.474152 0
M  V30 14972 H 849.738 -7.66548 2.79458 0
M  V30 14973 P 845.775 -8.03563 3.84925 0
M  V30 14974 O 845.555 -8.85821 5.0569 0
M  V30 14975 O 844.985 -8.41101 2.65469 0
M  V30 14976 O 845.525 -6.4965 4.18908 0
M  V30 14977 C 846.465 -5.81037 5.05421 0
M  V30 14978 C 845.735 -4.78366 5.89277 0
M  V30 14979 O 845.525 -3.58302 5.08433 0
M  V30 14980 C 844.335 -5.17448 6.36119 0
M  V30 14981 O 843.945 -4.45271 7.53232 0
M  V30 14982 C 843.455 -4.74639 5.19936 0
M  V30 14983 C 844.165 -3.49432 4.70418 0
M  V30 14984 N 844.115 -3.32099 3.22613 0
M  V30 14985 H 846.954 -6.54213 5.71376 0
M  V30 14986 H 847.226 -5.30936 4.43503 0
M  V30 14987 H 846.358 -4.55889 6.76652 0
M  V30 14988 H 843.703 -2.61715 5.17932 0
M  V30 14989 H 843.423 -5.52155 4.41878 0
M  V30 14990 H 842.432 -4.51981 5.53374 0
M  V30 14991 H 844.266 -6.25124 6.55234 0
M  V30 14992 P 842.395 -4.23843 7.83734 0
M  V30 14993 O 842.175 -4.19407 9.29784 0
M  V30 14994 O 841.605 -5.24426 7.09156 0
M  V30 14995 O 842.145 -2.7935 7.20758 0
M  V30 14996 C 843.085 -1.7299 7.50419 0
M  V30 14997 C 842.355 -0.406376 7.57911 0
M  V30 14998 O 842.145 0.0897726 6.21935 0
M  V30 14999 C 840.955 -0.447224 8.1878 0
M  V30 15000 O 840.565 0.825065 8.71101 0
M  V30 15001 C 840.075 -0.783801 6.99623 0
M  V30 15002 C 840.785 -0.0619192 5.85967 0
M  V30 15003 N 840.735 -0.7859 4.56281 0
M  V30 15004 H 843.574 -1.93423 8.4679 0
M  V30 15005 H 843.846 -1.68181 6.71046 0
M  V30 15006 H 842.978 0.289041 8.15388 0
M  V30 15007 P 839.015 1.17771 8.83182 0
M  V30 15008 O 838.795 2.07206 9.98732 0
M  V30 15009 O 838.225 -0.0743816 8.81969 0
M  V30 15010 O 838.765 1.97652 7.47304 0
M  V30 15011 C 839.705 3.01133 7.08783 0
M  V30 15012 C 838.975 4.12613 6.37049 0
M  V30 15013 O 838.765 3.72827 4.97879 0
M  V30 15014 C 837.575 4.45085 6.88694 0
M  V30 15015 O 837.185 5.7877 6.5624 0
M  V30 15016 C 836.695 3.47817 6.12078 0
M  V30 15017 C 837.405 3.39414 4.77697 0
M  V30 15018 N 837.355 2.04199 4.15538 0
M  V30 15019 H 840.194 3.41248 7.98759 0
M  V30 15020 H 840.466 2.57728 6.42 0
M  V30 15021 H 839.598 5.02657 6.42673 0
M  V30 15022 H 836.943 4.11708 4.08956 0
M  V30 15023 H 836.663 2.49626 6.61679 0
M  V30 15024 H 835.672 3.8662 6.00862 0
M  V30 15025 H 837.506 4.29991 7.97006 0
M  V30 15026 P 835.635 6.144 6.45285 0
M  V30 15027 O 835.415 7.54673 6.86199 0
M  V30 15028 O 834.845 5.12391 7.179 0
M  V30 15029 O 835.385 5.99158 4.88404 0
M  V30 15030 C 836.325 6.60234 3.96415 0
M  V30 15031 C 835.595 7.08259 2.72856 0
M  V30 15032 O 835.385 5.9427 1.83651 0
M  V30 15033 C 834.195 7.64886 2.9555 0
M  V30 15034 O 833.805 8.53963 1.90717 0
M  V30 15035 C 833.315 6.4116 2.90739 0
M  V30 15036 C 834.025 5.55375 1.86963 0
M  V30 15037 N 833.975 4.09664 2.15742 0
M  V30 15038 H 836.814 7.45574 4.45629 0
M  V30 15039 H 837.086 5.86232 3.67314 0
M  V30 15040 H 836.218 7.84412 2.24479 0
M  V30 15041 P 832.255 8.7635 1.60911 0
M  V30 15042 O 832.035 10.1388 1.11561 0
M  V30 15043 O 831.465 8.36503 2.79617 0
M  V30 15044 O 832.005 7.71806 0.42951 0
M  V30 15045 C 832.945 7.67148 -0.673689 0
M  V30 15046 C 832.215 7.33374 -1.95559 0
M  V30 15047 O 832.005 5.88721 -2.00726 0
M  V30 15048 C 830.815 7.92526 -2.10483 0
M  V30 15049 O 830.425 8.02971 -3.47653 0
M  V30 15050 C 829.935 6.89602 -1.41652 0
M  V30 15051 C 830.645 5.59201 -1.75185 0
M  V30 15052 N 830.595 4.58235 -0.662552 0
M  V30 15053 C 830.675 4.7683 0.704049 0
M  V30 15054 N 830.595 3.66233 1.39775 0
M  V30 15055 C 830.455 2.66526 0.431739 0
M  V30 15056 C 830.325 1.26394 0.575992 0
M  V30 15057 N 830.205 0.62859 -0.67177 0
M  V30 15058 C 830.205 1.27134 -1.89385 0
M  V30 15059 N 830.075 0.492035 -2.96951 0
M  V30 15060 N 830.335 2.58978 -2.02907 0
M  V30 15061 C 830.455 3.22433 -0.832218 0
M  V30 15062 H 833.434 8.65116 -0.777161 0
M  V30 15063 H 833.706 6.90173 -0.474152 0
M  V30 15064 H 832.838 7.66548 -2.79458 0
M  V30 15065 P 828.875 8.03563 -3.84925 0
M  V30 15066 O 828.655 8.85821 -5.0569 0
M  V30 15067 O 828.085 8.41101 -2.65469 0
M  V30 15068 O 828.625 6.4965 -4.18908 0
M  V30 15069 C 829.565 5.80886 -5.05289 0
M  V30 15070 C 828.835 4.78366 -5.89277 0
M  V30 15071 O 828.625 3.58302 -5.08433 0
M  V30 15072 C 827.435 5.16748 -6.36559 0
M  V30 15073 O 827.045 4.45271 -7.53232 0
M  V30 15074 C 826.555 4.74572 -5.19863 0
M  V30 15075 C 827.265 3.49373 -4.70338 0
M  V30 15076 N 827.215 3.31704 -3.22876 0
M  V30 15077 C 827.065 2.03326 -2.74871 0
M  V30 15078 O 826.975 1.06486 -3.48076 0
M  V30 15079 N 827.025 1.91838 -1.37456 0
M  V30 15080 C 827.115 2.94295 -0.462035 0
M  V30 15081 C 827.265 4.25064 -1.05249 0
M  V30 15082 C 827.315 4.40214 -2.39192 0
M  V30 15083 H 830.056 6.54063 -5.71245 0
M  V30 15084 H 830.325 5.30339 -4.43905 0
M  V30 15085 H 829.458 4.55889 -6.76652 0
M  V30 15086 H 826.803 2.6167 -5.17842 0
M  V30 15087 H 826.524 5.52155 -4.41878 0
M  V30 15088 H 825.532 4.51918 -5.53297 0
M  V30 15089 H 827.366 6.25055 -6.55162 0
M  V30 15090 H 827.437 5.39798 -2.81523 0
M  V30 15091 P 825.495 4.23843 -7.83734 0
M  V30 15092 O 825.275 4.19407 -9.29784 0
M  V30 15093 O 824.705 5.24426 -7.09156 0
M  V30 15094 O 825.245 2.7935 -7.20758 0
M  V30 15095 C 826.185 1.7299 -7.50419 0
M  V30 15096 C 825.455 0.406376 -7.57911 0
M  V30 15097 O 825.245 -0.0897726 -6.21935 0
M  V30 15098 C 824.055 0.447224 -8.1878 0
M  V30 15099 O 823.665 -0.825065 -8.71101 0
M  V30 15100 C 823.175 0.783801 -6.99623 0
M  V30 15101 C 823.885 0.0619192 -5.85967 0
M  V30 15102 N 823.835 0.7859 -4.56281 0
M  V30 15103 H 826.674 1.93423 -8.4679 0
M  V30 15104 H 826.946 1.68181 -6.71046 0
M  V30 15105 H 826.078 -0.289041 -8.15388 0
M  V30 15106 P 822.115 -1.17771 -8.83182 0
M  V30 15107 O 821.895 -2.07206 -9.98732 0
M  V30 15108 O 821.325 0.0743816 -8.81969 0
M  V30 15109 O 821.865 -1.97652 -7.47304 0
M  V30 15110 C 822.805 -3.01133 -7.08783 0
M  V30 15111 C 822.075 -4.12613 -6.37049 0
M  V30 15112 O 821.865 -3.72827 -4.97879 0
M  V30 15113 C 820.675 -4.45085 -6.88694 0
M  V30 15114 O 820.285 -5.7877 -6.5624 0
M  V30 15115 C 819.795 -3.47817 -6.12078 0
M  V30 15116 C 820.505 -3.39414 -4.77697 0
M  V30 15117 N 820.455 -2.04199 -4.15538 0
M  V30 15118 H 823.294 -3.41248 -7.98759 0
M  V30 15119 H 823.566 -2.57728 -6.42 0
M  V30 15120 H 822.698 -5.02657 -6.42673 0
M  V30 15121 H 820.043 -4.11708 -4.08956 0
M  V30 15122 H 819.763 -2.49626 -6.61679 0
M  V30 15123 H 818.772 -3.8662 -6.00862 0
M  V30 15124 H 820.606 -4.29991 -7.97006 0
M  V30 15125 P 818.735 -6.144 -6.45285 0
M  V30 15126 O 818.515 -7.54673 -6.86199 0
M  V30 15127 O 817.945 -5.12391 -7.179 0
M  V30 15128 O 818.485 -5.99158 -4.88404 0
M  V30 15129 C 819.425 -6.60234 -3.96415 0
M  V30 15130 C 818.695 -7.08259 -2.72856 0
M  V30 15131 O 818.485 -5.9427 -1.83651 0
M  V30 15132 C 817.295 -7.64886 -2.9555 0
M  V30 15133 O 816.905 -8.53963 -1.90717 0
M  V30 15134 C 816.415 -6.4116 -2.90739 0
M  V30 15135 C 817.125 -5.55375 -1.86963 0
M  V30 15136 N 817.075 -4.09664 -2.15742 0
M  V30 15137 H 819.914 -7.45574 -4.45629 0
M  V30 15138 H 820.186 -5.86232 -3.67314 0
M  V30 15139 H 819.318 -7.84412 -2.24479 0
M  V30 15140 P 815.355 -8.7635 -1.60911 0
M  V30 15141 O 815.135 -10.1388 -1.11561 0
M  V30 15142 O 814.565 -8.36503 -2.79617 0
M  V30 15143 O 815.105 -7.71806 -0.42951 0
M  V30 15144 C 816.045 -7.67148 0.673689 0
M  V30 15145 C 815.315 -7.33374 1.95559 0
M  V30 15146 O 815.105 -5.88721 2.00726 0
M  V30 15147 C 813.915 -7.92526 2.10483 0
M  V30 15148 O 813.525 -8.02971 3.47653 0
M  V30 15149 C 813.035 -6.89602 1.41652 0
M  V30 15150 C 813.745 -5.59201 1.75185 0
M  V30 15151 N 813.695 -4.58235 0.662552 0
M  V30 15152 H 816.534 -8.65116 0.777161 0
M  V30 15153 H 816.806 -6.90173 0.474152 0
M  V30 15154 H 815.938 -7.66548 2.79458 0
M  V30 15155 P 811.975 -8.03563 3.84925 0
M  V30 15156 O 811.755 -8.85821 5.0569 0
M  V30 15157 O 811.185 -8.41101 2.65469 0
M  V30 15158 O 811.725 -6.4965 4.18908 0
M  V30 15159 C 812.665 -5.81037 5.05421 0
M  V30 15160 C 811.935 -4.78366 5.89277 0
M  V30 15161 O 811.725 -3.58302 5.08433 0
M  V30 15162 C 810.535 -5.17448 6.36119 0
M  V30 15163 O 810.145 -4.45271 7.53232 0
M  V30 15164 C 809.655 -4.74639 5.19936 0
M  V30 15165 C 810.365 -3.49432 4.70418 0
M  V30 15166 N 810.315 -3.31776 3.22945 0
M  V30 15167 H 813.154 -6.54213 5.71376 0
M  V30 15168 H 813.426 -5.30492 4.44033 0
M  V30 15169 H 812.558 -4.55889 6.76652 0
M  V30 15170 P 808.595 -4.23843 7.83734 0
M  V30 15171 O 808.375 -4.19407 9.29784 0
M  V30 15172 O 807.805 -5.24426 7.09156 0
M  V30 15173 O 808.345 -2.7935 7.20758 0
M  V30 15174 C 809.285 -1.72945 7.50224 0
M  V30 15175 C 808.555 -0.406376 7.57911 0
M  V30 15176 O 808.345 0.0897726 6.21935 0
M  V30 15177 C 807.155 -0.438983 8.18724 0
M  V30 15178 O 806.765 0.825065 8.71101 0
M  V30 15179 C 806.275 -0.783689 6.99524 0
M  V30 15180 C 806.985 -0.0619086 5.85867 0
M  V30 15181 N 806.935 -0.78573 4.56183 0
M  V30 15182 C 806.785 -0.0292889 3.41887 0
M  V30 15183 O 806.695 1.18445 3.4419 0
M  V30 15184 N 806.745 -0.744061 2.23964 0
M  V30 15185 C 806.835 -2.10932 2.10362 0
M  V30 15186 O 806.785 -2.64117 0.98825 0
M  V30 15187 C 806.985 -2.8202 3.34994 0
M  V30 15188 C 807.095 -4.31095 3.25037 0
M  V30 15189 C 807.035 -2.15547 4.52261 0
M  V30 15190 H 809.776 -1.93379 8.46595 0
M  V30 15191 H 810.045 -1.68132 6.70852 0
M  V30 15192 H 809.178 0.289041 8.15388 0
M  V30 15193 H 806.523 0.926847 5.72749 0
M  V30 15194 H 806.244 -1.86973 6.82036 0
M  V30 15195 H 805.252 -0.403896 7.13257 0
M  V30 15196 H 807.086 -1.20585 8.97435 0
M  V30 15197 H 807.157 -2.71231 5.45042 0
M  V30 15198 H 806.127 -4.76966 3.49992 0
M  V30 15199 H 807.864 -4.67047 3.95024 0
M  V30 15200 H 807.376 -4.58996 2.22312 0
M  V30 15201 H 806.64 -0.214893 1.39758 0
M  V30 15202 P 805.215 1.17771 8.83182 0
M  V30 15203 O 804.995 2.07206 9.98732 0
M  V30 15204 O 804.425 -0.0743816 8.81969 0
M  V30 15205 O 804.965 1.97652 7.47304 0
M  V30 15206 C 805.905 3.01133 7.08783 0
M  V30 15207 C 805.175 4.12613 6.37049 0
M  V30 15208 O 804.965 3.72827 4.97879 0
M  V30 15209 C 803.775 4.45085 6.88694 0
M  V30 15210 O 803.385 5.7877 6.5624 0
M  V30 15211 C 802.895 3.47817 6.12078 0
M  V30 15212 C 803.605 3.39414 4.77697 0
M  V30 15213 N 803.555 2.04199 4.15538 0
M  V30 15214 H 806.394 3.41248 7.98759 0
M  V30 15215 H 806.666 2.57728 6.42 0
M  V30 15216 H 805.798 5.02657 6.42673 0
M  V30 15217 H 803.143 4.11708 4.08956 0
M  V30 15218 H 802.863 2.49626 6.61679 0
M  V30 15219 H 801.872 3.8662 6.00862 0
M  V30 15220 H 803.706 4.29991 7.97006 0
M  V30 15221 P 801.835 6.144 6.45285 0
M  V30 15222 O 801.615 7.54673 6.86199 0
M  V30 15223 O 801.045 5.12391 7.179 0
M  V30 15224 O 801.585 5.99158 4.88404 0
M  V30 15225 C 802.525 6.60234 3.96415 0
M  V30 15226 C 801.795 7.08259 2.72856 0
M  V30 15227 O 801.585 5.9427 1.83651 0
M  V30 15228 C 800.395 7.64886 2.9555 0
M  V30 15229 O 800.005 8.53963 1.90717 0
M  V30 15230 C 799.515 6.4116 2.90739 0
M  V30 15231 C 800.225 5.55375 1.86963 0
M  V30 15232 N 800.175 4.09664 2.15742 0
M  V30 15233 H 803.014 7.45574 4.45629 0
M  V30 15234 H 803.286 5.86232 3.67314 0
M  V30 15235 H 802.418 7.84412 2.24479 0
M  V30 15236 P 798.455 8.7635 1.60911 0
M  V30 15237 O 798.235 10.1388 1.11561 0
M  V30 15238 O 797.665 8.36503 2.79617 0
M  V30 15239 O 798.205 7.71806 0.42951 0
M  V30 15240 C 799.145 7.67148 -0.673689 0
M  V30 15241 C 798.415 7.33374 -1.95559 0
M  V30 15242 O 798.205 5.88721 -2.00726 0
M  V30 15243 C 797.015 7.92526 -2.10483 0
M  V30 15244 O 796.625 8.02971 -3.47653 0
M  V30 15245 C 796.135 6.89602 -1.41652 0
M  V30 15246 C 796.845 5.59201 -1.75185 0
M  V30 15247 N 796.795 4.58235 -0.662552 0
M  V30 15248 H 799.634 8.65116 -0.777161 0
M  V30 15249 H 799.906 6.90173 -0.474152 0
M  V30 15250 H 799.038 7.66548 -2.79458 0
M  V30 15251 P 795.075 8.03563 -3.84925 0
M  V30 15252 O 794.855 8.85821 -5.0569 0
M  V30 15253 O 794.285 8.41101 -2.65469 0
M  V30 15254 O 794.825 6.4965 -4.18908 0
M  V30 15255 C 795.765 5.81037 -5.05421 0
M  V30 15256 C 795.035 4.78366 -5.89277 0
M  V30 15257 O 794.825 3.58302 -5.08433 0
M  V30 15258 C 793.635 5.17448 -6.36119 0
M  V30 15259 O 793.245 4.45271 -7.53232 0
M  V30 15260 C 792.755 4.74639 -5.19936 0
M  V30 15261 C 793.465 3.49432 -4.70418 0
M  V30 15262 N 793.415 3.32099 -3.22613 0
M  V30 15263 H 796.254 6.54213 -5.71376 0
M  V30 15264 H 796.526 5.30936 -4.43503 0
M  V30 15265 H 795.658 4.55889 -6.76652 0
M  V30 15266 H 793.003 2.61715 -5.17932 0
M  V30 15267 H 792.723 5.52155 -4.41878 0
M  V30 15268 H 791.732 4.51981 -5.53374 0
M  V30 15269 H 793.566 6.25124 -6.55234 0
M  V30 15270 P 791.695 4.23843 -7.83734 0
M  V30 15271 O 791.475 4.19407 -9.29784 0
M  V30 15272 O 790.905 5.24426 -7.09156 0
M  V30 15273 O 791.445 2.7935 -7.20758 0
M  V30 15274 C 792.385 1.7299 -7.50419 0
M  V30 15275 C 791.655 0.406376 -7.57911 0
M  V30 15276 O 791.445 -0.0897726 -6.21935 0
M  V30 15277 C 790.255 0.447224 -8.1878 0
M  V30 15278 O 789.865 -0.825065 -8.71101 0
M  V30 15279 C 789.375 0.783801 -6.99623 0
M  V30 15280 C 790.085 0.0619192 -5.85967 0
M  V30 15281 N 790.035 0.790462 -4.56202 0
M  V30 15282 H 792.874 1.93423 -8.4679 0
M  V30 15283 H 793.146 1.68852 -6.70877 0
M  V30 15284 H 792.278 -0.289041 -8.15388 0
M  V30 15285 H 789.623 -0.927006 -5.72848 0
M  V30 15286 H 789.343 1.86973 -6.82036 0
M  V30 15287 H 788.352 0.403953 -7.13357 0
M  V30 15288 H 790.186 1.20599 -8.97534 0
M  V30 15289 P 788.315 -1.17771 -8.83182 0
M  V30 15290 O 788.095 -2.07206 -9.98732 0
M  V30 15291 O 787.525 0.0743816 -8.81969 0
M  V30 15292 O 788.065 -1.97652 -7.47304 0
M  V30 15293 C 789.005 -3.01133 -7.08783 0
M  V30 15294 C 788.275 -4.12613 -6.37049 0
M  V30 15295 O 788.065 -3.72827 -4.97879 0
M  V30 15296 C 786.875 -4.45085 -6.88694 0
M  V30 15297 O 786.485 -5.7877 -6.5624 0
M  V30 15298 C 785.995 -3.47817 -6.12078 0
M  V30 15299 C 786.705 -3.39414 -4.77697 0
M  V30 15300 N 786.655 -2.04615 -4.15333 0
M  V30 15301 H 789.494 -3.41248 -7.98759 0
M  V30 15302 H 789.766 -2.5837 -6.41742 0
M  V30 15303 H 788.898 -5.02657 -6.42673 0
M  V30 15304 P 784.935 -6.144 -6.45285 0
M  V30 15305 O 784.715 -7.54673 -6.86199 0
M  V30 15306 O 784.145 -5.12391 -7.179 0
M  V30 15307 O 784.685 -5.99236 -4.88467 0
M  V30 15308 C 785.625 -6.60234 -3.96415 0
M  V30 15309 C 784.895 -7.08079 -2.736 0
M  V30 15310 O 784.685 -5.94365 -1.8368 0
M  V30 15311 C 783.495 -7.64886 -2.9555 0
M  V30 15312 O 783.105 -8.5406 -1.90739 0
M  V30 15313 C 782.615 -6.4116 -2.90739 0
M  V30 15314 C 783.325 -5.55375 -1.86963 0
M  V30 15315 N 783.275 -4.09664 -2.15742 0
M  V30 15316 C 783.125 -3.22231 -1.08477 0
M  V30 15317 O 783.035 -3.68951 0.0600489 0
M  V30 15318 N 783.075 -1.76692 -1.48799 0
M  V30 15319 C 783.175 -1.41695 -2.57602 0
M  V30 15320 N 783.125 -0.107296 -2.75791 0
M  V30 15321 C 783.325 -2.29178 -3.69733 0
M  V30 15322 C 783.375 -3.62753 -3.42653 0
M  V30 15323 H 786.115 -7.45488 -4.45578 0
M  V30 15324 H 786.385 -5.86232 -3.67314 0
M  V30 15325 H 785.518 -7.84508 -2.24507 0
M  V30 15326 H 782.863 -5.73556 -0.888715 0
M  V30 15327 H 782.583 -5.9096 -3.88638 0
M  V30 15328 H 781.592 -6.66053 -2.58894 0
M  V30 15329 H 783.426 -8.16339 -3.92049 0
M  V30 15330 H 783.498 -4.33052 -4.24913 0
M  V30 15331 H 783.396 -1.9103 -4.71577 0
M  V30 15332 H 783.008 0.521221 -1.95056 0
M  V30 15333 H 783.204 0.286429 -3.70695 0
M  V30 15334 P 781.555 -8.7635 -1.60911 0
M  V30 15335 O 781.335 -10.1388 -1.11561 0
M  V30 15336 O 780.765 -8.36503 -2.79617 0
M  V30 15337 O 781.305 -7.71806 -0.42951 0
M  V30 15338 C 782.245 -7.67148 0.673689 0
M  V30 15339 C 781.515 -7.33374 1.95559 0
M  V30 15340 O 781.305 -5.88721 2.00726 0
M  V30 15341 C 780.115 -7.92526 2.10483 0
M  V30 15342 O 779.725 -8.02971 3.47653 0
M  V30 15343 C 779.235 -6.89602 1.41652 0
M  V30 15344 C 779.945 -5.59201 1.75185 0
M  V30 15345 N 779.895 -4.58301 0.657969 0
M  V30 15346 H 782.734 -8.65116 0.777161 0
M  V30 15347 H 783.006 -6.9022 0.46725 0
M  V30 15348 H 782.138 -7.66548 2.79458 0
M  V30 15349 H 779.483 -5.16165 2.65183 0
M  V30 15350 H 779.203 -7.06433 0.329384 0
M  V30 15351 H 778.212 -6.90926 1.82021 0
M  V30 15352 H 780.046 -8.90873 1.62657 0
M  V30 15353 P 778.175 -8.03563 3.84925 0
M  V30 15354 O 777.955 -8.85821 5.0569 0
M  V30 15355 O 777.385 -8.41101 2.65469 0
M  V30 15356 O 777.925 -6.4965 4.18908 0
M  V30 15357 C 778.865 -5.81037 5.05421 0
M  V30 15358 C 778.135 -4.78366 5.89277 0
M  V30 15359 O 777.925 -3.58302 5.08433 0
M  V30 15360 C 776.735 -5.17448 6.36119 0
M  V30 15361 O 776.345 -4.45271 7.53232 0
M  V30 15362 C 775.855 -4.74639 5.19936 0
M  V30 15363 C 776.565 -3.49432 4.70418 0
M  V30 15364 N 776.515 -3.31776 3.22945 0
M  V30 15365 H 779.354 -6.54213 5.71376 0
M  V30 15366 H 779.626 -5.30492 4.44033 0
M  V30 15367 H 778.758 -4.55889 6.76652 0
M  V30 15368 P 774.795 -4.23843 7.83734 0
M  V30 15369 O 774.575 -4.19407 9.29784 0
M  V30 15370 O 774.005 -5.24426 7.09156 0
M  V30 15371 O 774.545 -2.7935 7.20758 0
M  V30 15372 C 775.485 -1.7299 7.50419 0
M  V30 15373 C 774.755 -0.406376 7.57911 0
M  V30 15374 O 774.545 0.0897726 6.21935 0
M  V30 15375 C 773.355 -0.447224 8.1878 0
M  V30 15376 O 772.965 0.825065 8.71101 0
M  V30 15377 C 772.475 -0.783801 6.99623 0
M  V30 15378 C 773.185 -0.0619192 5.85967 0
M  V30 15379 N 773.135 -0.7859 4.56281 0
M  V30 15380 H 775.974 -1.93423 8.4679 0
M  V30 15381 H 776.246 -1.68181 6.71046 0
M  V30 15382 H 775.378 0.289041 8.15388 0
M  V30 15383 P 771.415 1.17771 8.83182 0
M  V30 15384 O 771.195 2.07206 9.98732 0
M  V30 15385 O 770.625 -0.0743816 8.81969 0
M  V30 15386 O 771.165 1.97652 7.47304 0
M  V30 15387 C 772.105 3.01133 7.08783 0
M  V30 15388 C 771.375 4.12613 6.37049 0
M  V30 15389 O 771.165 3.72827 4.97879 0
M  V30 15390 C 769.975 4.45085 6.88694 0
M  V30 15391 O 769.585 5.7877 6.5624 0
M  V30 15392 C 769.095 3.47817 6.12078 0
M  V30 15393 C 769.805 3.39414 4.77697 0
M  V30 15394 N 769.755 2.04615 4.15333 0
M  V30 15395 H 772.594 3.41248 7.98759 0
M  V30 15396 H 772.866 2.5837 6.41742 0
M  V30 15397 H 771.998 5.02657 6.42673 0
M  V30 15398 P 768.035 6.144 6.45285 0
M  V30 15399 O 767.815 7.54673 6.86199 0
M  V30 15400 O 767.245 5.12391 7.179 0
M  V30 15401 O 767.785 5.99158 4.88404 0
M  V30 15402 C 768.725 6.60234 3.96415 0
M  V30 15403 C 767.995 7.08259 2.72856 0
M  V30 15404 O 767.785 5.9427 1.83651 0
M  V30 15405 C 766.595 7.64886 2.9555 0
M  V30 15406 O 766.205 8.53963 1.90717 0
M  V30 15407 C 765.715 6.4116 2.90739 0
M  V30 15408 C 766.425 5.55375 1.86963 0
M  V30 15409 N 766.375 4.09664 2.15742 0
M  V30 15410 H 769.214 7.45574 4.45629 0
M  V30 15411 H 769.486 5.86232 3.67314 0
M  V30 15412 H 768.618 7.84412 2.24479 0
M  V30 15413 P 764.656 8.7635 1.60911 0
M  V30 15414 O 764.436 10.1388 1.11561 0
M  V30 15415 O 763.866 8.36503 2.79617 0
M  V30 15416 O 764.406 7.71806 0.42951 0
M  V30 15417 C 765.346 7.67148 -0.673689 0
M  V30 15418 C 764.616 7.33374 -1.95559 0
M  V30 15419 O 764.406 5.88721 -2.00726 0
M  V30 15420 C 763.216 7.92526 -2.10483 0
M  V30 15421 O 762.826 8.02971 -3.47653 0
M  V30 15422 C 762.336 6.89602 -1.41652 0
M  V30 15423 C 763.046 5.59201 -1.75185 0
M  V30 15424 N 762.996 4.58235 -0.662552 0
M  V30 15425 H 765.835 8.65116 -0.777161 0
M  V30 15426 H 766.107 6.90173 -0.474152 0
M  V30 15427 H 765.239 7.66548 -2.79458 0
M  V30 15428 P 761.276 8.03563 -3.84925 0
M  V30 15429 O 761.056 8.85821 -5.0569 0
M  V30 15430 O 760.486 8.41101 -2.65469 0
M  V30 15431 O 761.026 6.4965 -4.18908 0
M  V30 15432 C 761.966 5.81037 -5.05421 0
M  V30 15433 C 761.236 4.78366 -5.89277 0
M  V30 15434 O 761.026 3.58302 -5.08433 0
M  V30 15435 C 759.836 5.17448 -6.36119 0
M  V30 15436 O 759.446 4.45271 -7.53232 0
M  V30 15437 C 758.956 4.74639 -5.19936 0
M  V30 15438 C 759.666 3.49432 -4.70418 0
M  V30 15439 N 759.616 3.31776 -3.22945 0
M  V30 15440 H 762.455 6.54213 -5.71376 0
M  V30 15441 H 762.727 5.30492 -4.44033 0
M  V30 15442 H 761.859 4.55889 -6.76652 0
M  V30 15443 P 757.896 4.23843 -7.83734 0
M  V30 15444 O 757.676 4.19407 -9.29784 0
M  V30 15445 O 757.106 5.24426 -7.09156 0
M  V30 15446 O 757.646 2.7935 -7.20758 0
M  V30 15447 C 758.586 1.7299 -7.50419 0
M  V30 15448 C 757.856 0.406376 -7.57911 0
M  V30 15449 O 757.646 -0.0897726 -6.21935 0
M  V30 15450 C 756.456 0.447224 -8.1878 0
M  V30 15451 O 756.066 -0.825065 -8.71101 0
M  V30 15452 C 755.576 0.783801 -6.99623 0
M  V30 15453 C 756.286 0.0619192 -5.85967 0
M  V30 15454 N 756.236 0.7859 -4.56281 0
M  V30 15455 H 759.075 1.93423 -8.4679 0
M  V30 15456 H 759.347 1.68181 -6.71046 0
M  V30 15457 H 758.479 -0.289041 -8.15388 0
M  V30 15458 P 754.516 -1.17771 -8.83182 0
M  V30 15459 O 754.296 -2.07206 -9.98732 0
M  V30 15460 O 753.726 0.0743816 -8.81969 0
M  V30 15461 O 754.266 -1.97678 -7.474 0
M  V30 15462 C 755.206 -3.01133 -7.08783 0
M  V30 15463 C 754.476 -4.1203 -6.37546 0
M  V30 15464 O 754.266 -3.72887 -4.9796 0
M  V30 15465 C 753.076 -4.45085 -6.88694 0
M  V30 15466 O 752.686 -5.78836 -6.56315 0
M  V30 15467 C 752.196 -3.47817 -6.12078 0
M  V30 15468 C 752.906 -3.39414 -4.77697 0
M  V30 15469 N 752.856 -2.04615 -4.15333 0
M  V30 15470 C 752.706 -1.96929 -2.77162 0
M  V30 15471 O 752.616 -3.02017 -2.12006 0
M  V30 15472 N 752.656 -0.55485 -2.24237 0
M  V30 15473 C 752.756 0.367808 -2.9169 0
M  V30 15474 N 752.706 1.53426 -2.29427 0
M  V30 15475 C 752.906 0.319148 -4.33828 0
M  V30 15476 C 752.956 -0.920672 -4.90433 0
M  V30 15477 H 755.696 -3.41209 -7.98667 0
M  V30 15478 H 755.966 -2.5837 -6.41742 0
M  V30 15479 H 755.099 -5.02718 -6.42752 0
M  V30 15480 H 752.444 -4.11779 -4.09026 0
M  V30 15481 H 752.164 -2.49661 -6.61772 0
M  V30 15482 H 751.173 -3.86674 -6.00946 0
M  V30 15483 H 753.007 -4.29991 -7.97006 0
M  V30 15484 H 753.079 -1.00589 -5.98303 0
M  V30 15485 H 752.977 1.22639 -4.93799 0
M  V30 15486 H 752.589 1.56819 -1.27167 0
M  V30 15487 H 752.785 2.41062 -2.83063 0
M  V30 15488 P 751.136 -6.144 -6.45285 0
M  V30 15489 O 750.916 -7.54673 -6.86199 0
M  V30 15490 O 750.346 -5.12391 -7.179 0
M  V30 15491 O 750.886 -5.99158 -4.88404 0
M  V30 15492 C 751.826 -6.60234 -3.96415 0
M  V30 15493 C 751.096 -7.08259 -2.72856 0
M  V30 15494 O 750.886 -5.9427 -1.83651 0
M  V30 15495 C 749.696 -7.64886 -2.9555 0
M  V30 15496 O 749.306 -8.53963 -1.90717 0
M  V30 15497 C 748.816 -6.4116 -2.90739 0
M  V30 15498 C 749.526 -5.55375 -1.86963 0
M  V30 15499 N 749.476 -4.09448 -2.16152 0
M  V30 15500 H 752.315 -7.45574 -4.45629 0
M  V30 15501 H 752.587 -5.85864 -3.679 0
M  V30 15502 H 751.719 -7.84412 -2.24479 0
M  V30 15503 H 749.064 -5.73457 -0.888562 0
M  V30 15504 H 748.784 -5.90877 -3.88583 0
M  V30 15505 H 747.793 -6.6596 -2.58858 0
M  V30 15506 H 749.627 -8.16339 -3.92049 0
M  V30 15507 P 747.756 -8.7635 -1.60911 0
M  V30 15508 O 747.536 -10.1388 -1.11561 0
M  V30 15509 O 746.966 -8.36503 -2.79617 0
M  V30 15510 O 747.506 -7.71806 -0.42951 0
M  V30 15511 C 748.446 -7.67148 0.673689 0
M  V30 15512 C 747.716 -7.33374 1.95559 0
M  V30 15513 O 747.506 -5.88721 2.00726 0
M  V30 15514 C 746.316 -7.92526 2.10483 0
M  V30 15515 O 745.926 -8.02971 3.47653 0
M  V30 15516 C 745.436 -6.89602 1.41652 0
M  V30 15517 C 746.146 -5.59201 1.75185 0
M  V30 15518 N 746.096 -4.58235 0.662552 0
M  V30 15519 H 748.935 -8.65116 0.777161 0
M  V30 15520 H 749.207 -6.90173 0.474152 0
M  V30 15521 H 748.339 -7.66548 2.79458 0
M  V30 15522 P 744.376 -8.03563 3.84925 0
M  V30 15523 O 744.156 -8.85821 5.0569 0
M  V30 15524 O 743.586 -8.41101 2.65469 0
M  V30 15525 O 744.126 -6.4965 4.18908 0
M  V30 15526 C 745.066 -5.81037 5.05421 0
M  V30 15527 C 744.336 -4.78366 5.89277 0
M  V30 15528 O 744.126 -3.58302 5.08433 0
M  V30 15529 C 742.936 -5.17448 6.36119 0
M  V30 15530 O 742.546 -4.45271 7.53232 0
M  V30 15531 C 742.056 -4.74639 5.19936 0
M  V30 15532 C 742.766 -3.49432 4.70418 0
M  V30 15533 N 742.716 -3.32099 3.22613 0
M  V30 15534 H 745.555 -6.54213 5.71376 0
M  V30 15535 H 745.827 -5.30936 4.43503 0
M  V30 15536 H 744.959 -4.55889 6.76652 0
M  V30 15537 H 742.304 -2.61715 5.17932 0
M  V30 15538 H 742.024 -5.52155 4.41878 0
M  V30 15539 H 741.033 -4.51981 5.53374 0
M  V30 15540 H 742.867 -6.25124 6.55234 0
M  V30 15541 P 740.996 -4.23843 7.83734 0
M  V30 15542 O 740.776 -4.19407 9.29784 0
M  V30 15543 O 740.206 -5.24426 7.09156 0
M  V30 15544 O 740.746 -2.7935 7.20758 0
M  V30 15545 C 741.686 -1.7299 7.50419 0
M  V30 15546 C 740.956 -0.406376 7.57911 0
M  V30 15547 O 740.746 0.0897726 6.21935 0
M  V30 15548 C 739.556 -0.447224 8.1878 0
M  V30 15549 O 739.166 0.825065 8.71101 0
M  V30 15550 C 738.676 -0.783801 6.99623 0
M  V30 15551 C 739.386 -0.0619192 5.85967 0
M  V30 15552 N 739.336 -0.790462 4.56202 0
M  V30 15553 H 742.175 -1.93423 8.4679 0
M  V30 15554 H 742.447 -1.68852 6.70877 0
M  V30 15555 H 741.579 0.289041 8.15388 0
M  V30 15556 H 738.924 0.927006 5.72848 0
M  V30 15557 H 738.644 -1.86973 6.82036 0
M  V30 15558 H 737.653 -0.403953 7.13357 0
M  V30 15559 H 739.487 -1.20599 8.97534 0
M  V30 15560 P 737.616 1.17771 8.83182 0
M  V30 15561 O 737.396 2.07206 9.98732 0
M  V30 15562 O 736.826 -0.0743816 8.81969 0
M  V30 15563 O 737.366 1.97678 7.474 0
M  V30 15564 C 738.306 3.01133 7.08783 0
M  V30 15565 C 737.576 4.1203 6.37546 0
M  V30 15566 O 737.366 3.72887 4.9796 0
M  V30 15567 C 736.176 4.45085 6.88694 0
M  V30 15568 O 735.786 5.78836 6.56315 0
M  V30 15569 C 735.296 3.47817 6.12078 0
M  V30 15570 C 736.006 3.39414 4.77697 0
M  V30 15571 N 735.956 2.04615 4.15333 0
M  V30 15572 C 735.806 1.96929 2.77162 0
M  V30 15573 O 735.716 3.02017 2.12006 0
M  V30 15574 N 735.756 0.55485 2.24237 0
M  V30 15575 C 735.856 -0.367808 2.9169 0
M  V30 15576 N 735.806 -1.53426 2.29427 0
M  V30 15577 C 736.006 -0.319148 4.33828 0
M  V30 15578 C 736.056 0.920672 4.90433 0
M  V30 15579 H 738.796 3.41209 7.98667 0
M  V30 15580 H 739.066 2.5837 6.41742 0
M  V30 15581 H 738.199 5.02718 6.42752 0
M  V30 15582 H 735.544 4.11779 4.09026 0
M  V30 15583 H 735.264 2.49661 6.61772 0
M  V30 15584 H 734.273 3.86674 6.00946 0
M  V30 15585 H 736.107 4.29991 7.97006 0
M  V30 15586 H 736.179 1.00589 5.98303 0
M  V30 15587 H 736.077 -1.22639 4.93799 0
M  V30 15588 H 735.689 -1.56819 1.27167 0
M  V30 15589 H 735.885 -2.41062 2.83063 0
M  V30 15590 P 734.236 6.144 6.45285 0
M  V30 15591 O 734.016 7.54673 6.86199 0
M  V30 15592 O 733.446 5.12391 7.179 0
M  V30 15593 O 733.986 5.99158 4.88404 0
M  V30 15594 C 734.926 6.60234 3.96415 0
M  V30 15595 C 734.196 7.08259 2.72856 0
M  V30 15596 O 733.986 5.9427 1.83651 0
M  V30 15597 C 732.796 7.64886 2.9555 0
M  V30 15598 O 732.406 8.53963 1.90717 0
M  V30 15599 C 731.916 6.4116 2.90739 0
M  V30 15600 C 732.626 5.55375 1.86963 0
M  V30 15601 N 732.576 4.09664 2.15742 0
M  V30 15602 H 735.415 7.45574 4.45629 0
M  V30 15603 H 735.687 5.86232 3.67314 0
M  V30 15604 H 734.819 7.84412 2.24479 0
M  V30 15605 P 730.856 8.7635 1.60911 0
M  V30 15606 O 730.636 10.1388 1.11561 0
M  V30 15607 O 730.066 8.36503 2.79617 0
M  V30 15608 O 730.606 7.71806 0.42951 0
M  V30 15609 C 731.546 7.67148 -0.673689 0
M  V30 15610 C 730.816 7.33374 -1.95559 0
M  V30 15611 O 730.606 5.88721 -2.00726 0
M  V30 15612 C 729.416 7.92526 -2.10483 0
M  V30 15613 O 729.026 8.02971 -3.47653 0
M  V30 15614 C 728.536 6.89602 -1.41652 0
M  V30 15615 C 729.246 5.59201 -1.75185 0
M  V30 15616 N 729.196 4.58235 -0.662552 0
M  V30 15617 C 729.276 4.7683 0.704049 0
M  V30 15618 N 729.196 3.66233 1.39775 0
M  V30 15619 C 729.056 2.66526 0.431739 0
M  V30 15620 C 728.926 1.26394 0.575992 0
M  V30 15621 O 728.906 0.589894 1.60503 0
M  V30 15622 N 728.806 0.62859 -0.67177 0
M  V30 15623 C 728.806 1.27134 -1.89385 0
M  V30 15624 N 728.676 0.492035 -2.96951 0
M  V30 15625 N 728.936 2.58978 -2.02907 0
M  V30 15626 C 729.056 3.22433 -0.832218 0
M  V30 15627 H 732.035 8.65116 -0.777161 0
M  V30 15628 H 732.307 6.90173 -0.474152 0
M  V30 15629 H 731.439 7.66548 -2.79458 0
M  V30 15630 H 728.784 5.16254 -2.65229 0
M  V30 15631 H 728.504 7.06532 -0.329431 0
M  V30 15632 H 727.513 6.91023 -1.82047 0
M  V30 15633 H 729.347 8.90971 -1.62675 0
M  V30 15634 H 729.396 5.74954 1.16305 0
M  V30 15635 H 728.714 -0.366713 -0.674793 0
M  V30 15636 H 728.677 0.908532 -3.91188 0
M  V30 15637 H 728.576 -0.528253 -2.85758 0
M  V30 15638 P 727.476 8.03563 -3.84925 0
M  V30 15639 O 727.256 8.85821 -5.0569 0
M  V30 15640 O 726.686 8.41101 -2.65469 0
M  V30 15641 O 727.226 6.4965 -4.18908 0
M  V30 15642 C 728.166 5.81037 -5.05421 0
M  V30 15643 C 727.436 4.78366 -5.89277 0
M  V30 15644 O 727.226 3.58302 -5.08433 0
M  V30 15645 C 726.036 5.17448 -6.36119 0
M  V30 15646 O 725.646 4.45271 -7.53232 0
M  V30 15647 C 725.156 4.74639 -5.19936 0
M  V30 15648 C 725.866 3.49432 -4.70418 0
M  V30 15649 N 725.816 3.31776 -3.22945 0
M  V30 15650 H 728.655 6.54213 -5.71376 0
M  V30 15651 H 728.927 5.30492 -4.44033 0
M  V30 15652 H 728.059 4.55889 -6.76652 0
M  V30 15653 P 724.096 4.23843 -7.83734 0
M  V30 15654 O 723.876 4.19407 -9.29784 0
M  V30 15655 O 723.306 5.24426 -7.09156 0
M  V30 15656 O 723.846 2.7935 -7.20758 0
M  V30 15657 C 724.786 1.7299 -7.50419 0
M  V30 15658 C 724.056 0.406376 -7.57911 0
M  V30 15659 O 723.846 -0.0897726 -6.21935 0
M  V30 15660 C 722.656 0.447224 -8.1878 0
M  V30 15661 O 722.266 -0.825065 -8.71101 0
M  V30 15662 C 721.776 0.783801 -6.99623 0
M  V30 15663 C 722.486 0.0619192 -5.85967 0
M  V30 15664 N 722.436 0.7859 -4.56281 0
M  V30 15665 H 725.275 1.93423 -8.4679 0
M  V30 15666 H 725.547 1.68181 -6.71046 0
M  V30 15667 H 724.679 -0.289041 -8.15388 0
M  V30 15668 P 720.716 -1.17771 -8.83182 0
M  V30 15669 O 720.496 -2.07206 -9.98732 0
M  V30 15670 O 719.926 0.0743816 -8.81969 0
M  V30 15671 O 720.466 -1.97678 -7.474 0
M  V30 15672 C 721.406 -3.01133 -7.08783 0
M  V30 15673 C 720.676 -4.1203 -6.37546 0
M  V30 15674 O 720.466 -3.72887 -4.9796 0
M  V30 15675 C 719.276 -4.45085 -6.88694 0
M  V30 15676 O 718.886 -5.78836 -6.56315 0
M  V30 15677 C 718.396 -3.47817 -6.12078 0
M  V30 15678 C 719.106 -3.39414 -4.77697 0
M  V30 15679 N 719.056 -2.04615 -4.15333 0
M  V30 15680 C 718.906 -1.96929 -2.77162 0
M  V30 15681 O 718.816 -3.02017 -2.12006 0
M  V30 15682 N 718.856 -0.55485 -2.24237 0
M  V30 15683 C 718.956 0.367808 -2.9169 0
M  V30 15684 N 718.906 1.53426 -2.29427 0
M  V30 15685 C 719.106 0.319148 -4.33828 0
M  V30 15686 C 719.156 -0.920672 -4.90433 0
M  V30 15687 H 721.896 -3.41209 -7.98667 0
M  V30 15688 H 722.166 -2.5837 -6.41742 0
M  V30 15689 H 721.299 -5.02718 -6.42752 0
M  V30 15690 H 718.644 -4.11779 -4.09026 0
M  V30 15691 H 718.364 -2.49661 -6.61772 0
M  V30 15692 H 717.373 -3.86674 -6.00946 0
M  V30 15693 H 719.207 -4.29991 -7.97006 0
M  V30 15694 H 719.279 -1.00589 -5.98303 0
M  V30 15695 H 719.177 1.22639 -4.93799 0
M  V30 15696 H 718.789 1.56819 -1.27167 0
M  V30 15697 H 718.985 2.41062 -2.83063 0
M  V30 15698 P 717.336 -6.144 -6.45285 0
M  V30 15699 O 717.116 -7.54673 -6.86199 0
M  V30 15700 O 716.546 -5.12391 -7.179 0
M  V30 15701 O 717.086 -5.99158 -4.88404 0
M  V30 15702 C 718.026 -6.60234 -3.96415 0
M  V30 15703 C 717.296 -7.08259 -2.72856 0
M  V30 15704 O 717.086 -5.9427 -1.83651 0
M  V30 15705 C 715.896 -7.64886 -2.9555 0
M  V30 15706 O 715.506 -8.53963 -1.90717 0
M  V30 15707 C 715.016 -6.4116 -2.90739 0
M  V30 15708 C 715.726 -5.55375 -1.86963 0
M  V30 15709 N 715.676 -4.09664 -2.15742 0
M  V30 15710 H 718.515 -7.45574 -4.45629 0
M  V30 15711 H 718.787 -5.86232 -3.67314 0
M  V30 15712 H 717.919 -7.84412 -2.24479 0
M  V30 15713 P 713.956 -8.7635 -1.60911 0
M  V30 15714 O 713.736 -10.1388 -1.11561 0
M  V30 15715 O 713.166 -8.36503 -2.79617 0
M  V30 15716 O 713.706 -7.71806 -0.42951 0
M  V30 15717 C 714.646 -7.67148 0.673689 0
M  V30 15718 C 713.916 -7.33374 1.95559 0
M  V30 15719 O 713.706 -5.88721 2.00726 0
M  V30 15720 C 712.516 -7.92526 2.10483 0
M  V30 15721 O 712.126 -8.02971 3.47653 0
M  V30 15722 C 711.636 -6.89602 1.41652 0
M  V30 15723 C 712.346 -5.59201 1.75185 0
M  V30 15724 N 712.296 -4.58301 0.657969 0
M  V30 15725 C 712.376 -4.79019 -0.692603 0
M  V30 15726 N 712.306 -3.69736 -1.38998 0
M  V30 15727 C 712.156 -2.70474 -0.438135 0
M  V30 15728 C 712.026 -1.30327 -0.538142 0
M  V30 15729 N 712.016 -0.64304 -1.69192 0
M  V30 15730 N 711.906 -0.611027 0.605183 0
M  V30 15731 C 711.916 -1.27002 1.75953 0
M  V30 15732 N 712.036 -2.56038 1.98546 0
M  V30 15733 C 712.156 -3.22681 0.822541 0
M  V30 15734 H 715.135 -8.65116 0.777161 0
M  V30 15735 H 715.407 -6.9022 0.46725 0
M  V30 15736 H 714.539 -7.66548 2.79458 0
M  V30 15737 H 711.884 -5.16165 2.65183 0
M  V30 15738 H 711.604 -7.06433 0.329384 0
M  V30 15739 H 710.613 -6.90926 1.82021 0
M  V30 15740 H 712.447 -8.90873 1.62657 0
M  V30 15741 H 712.488 -5.77785 -1.13874 0
M  V30 15742 H 712.107 -1.15585 -2.57991 0
M  V30 15743 H 711.918 0.382989 -1.69835 0
M  V30 15744 H 711.81 -0.653331 2.64449 0
M  V30 15745 P 710.576 -8.03563 3.84925 0
M  V30 15746 O 710.356 -8.85821 5.0569 0
M  V30 15747 O 709.786 -8.41101 2.65469 0
M  V30 15748 O 710.326 -6.4965 4.18908 0
M  V30 15749 C 711.266 -5.81037 5.05421 0
M  V30 15750 C 710.536 -4.78366 5.89277 0
M  V30 15751 O 710.326 -3.58302 5.08433 0
M  V30 15752 C 709.136 -5.17448 6.36119 0
M  V30 15753 O 708.746 -4.45271 7.53232 0
M  V30 15754 C 708.256 -4.74639 5.19936 0
M  V30 15755 C 708.966 -3.49432 4.70418 0
M  V30 15756 N 708.916 -3.32099 3.22613 0
M  V30 15757 H 711.755 -6.54213 5.71376 0
M  V30 15758 H 712.027 -5.30936 4.43503 0
M  V30 15759 H 711.159 -4.55889 6.76652 0
M  V30 15760 H 708.504 -2.61715 5.17932 0
M  V30 15761 H 708.224 -5.52155 4.41878 0
M  V30 15762 H 707.233 -4.51981 5.53374 0
M  V30 15763 H 709.067 -6.25124 6.55234 0
M  V30 15764 P 707.196 -4.23843 7.83734 0
M  V30 15765 O 706.976 -4.19407 9.29784 0
M  V30 15766 O 706.406 -5.24426 7.09156 0
M  V30 15767 O 706.946 -2.7935 7.20758 0
M  V30 15768 C 707.886 -1.7299 7.50419 0
M  V30 15769 C 707.156 -0.406376 7.57911 0
M  V30 15770 O 706.946 0.0897726 6.21935 0
M  V30 15771 C 705.756 -0.447224 8.1878 0
M  V30 15772 O 705.366 0.825065 8.71101 0
M  V30 15773 C 704.876 -0.783801 6.99623 0
M  V30 15774 C 705.586 -0.0619192 5.85967 0
M  V30 15775 N 705.536 -0.790462 4.56202 0
M  V30 15776 H 708.375 -1.93423 8.4679 0
M  V30 15777 H 708.647 -1.68852 6.70877 0
M  V30 15778 H 707.779 0.289041 8.15388 0
M  V30 15779 H 705.124 0.927006 5.72848 0
M  V30 15780 H 704.844 -1.86973 6.82036 0
M  V30 15781 H 703.853 -0.403953 7.13357 0
M  V30 15782 H 705.687 -1.20599 8.97534 0
M  V30 15783 P 703.816 1.17771 8.83182 0
M  V30 15784 O 703.596 2.07206 9.98732 0
M  V30 15785 O 703.026 -0.0743816 8.81969 0
M  V30 15786 O 703.566 1.97652 7.47304 0
M  V30 15787 C 704.506 3.01133 7.08783 0
M  V30 15788 C 703.776 4.12613 6.37049 0
M  V30 15789 O 703.566 3.72827 4.97879 0
M  V30 15790 C 702.376 4.45085 6.88694 0
M  V30 15791 O 701.986 5.7877 6.5624 0
M  V30 15792 C 701.496 3.47817 6.12078 0
M  V30 15793 C 702.206 3.39414 4.77697 0
M  V30 15794 N 702.156 2.04615 4.15333 0
M  V30 15795 H 704.995 3.41248 7.98759 0
M  V30 15796 H 705.267 2.5837 6.41742 0
M  V30 15797 H 704.399 5.02657 6.42673 0
M  V30 15798 P 700.436 6.144 6.45285 0
M  V30 15799 O 700.216 7.54673 6.86199 0
M  V30 15800 O 699.646 5.12391 7.179 0
M  V30 15801 O 700.186 5.99158 4.88404 0
M  V30 15802 C 701.126 6.60234 3.96415 0
M  V30 15803 C 700.396 7.08259 2.72856 0
M  V30 15804 O 700.186 5.9427 1.83651 0
M  V30 15805 C 698.996 7.64886 2.9555 0
M  V30 15806 O 698.606 8.53963 1.90717 0
M  V30 15807 C 698.116 6.4116 2.90739 0
M  V30 15808 C 698.826 5.55375 1.86963 0
M  V30 15809 N 698.776 4.09448 2.16152 0
M  V30 15810 H 701.615 7.45574 4.45629 0
M  V30 15811 H 701.887 5.85864 3.679 0
M  V30 15812 H 701.019 7.84412 2.24479 0
M  V30 15813 H 698.364 5.73457 0.888562 0
M  V30 15814 H 698.084 5.90877 3.88583 0
M  V30 15815 H 697.093 6.6596 2.58858 0
M  V30 15816 H 698.927 8.16339 3.92049 0
M  V30 15817 P 697.056 8.7635 1.60911 0
M  V30 15818 O 696.836 10.1388 1.11561 0
M  V30 15819 O 696.266 8.36503 2.79617 0
M  V30 15820 O 696.806 7.71806 0.42951 0
M  V30 15821 C 697.746 7.67148 -0.673689 0
M  V30 15822 C 697.016 7.33374 -1.95559 0
M  V30 15823 O 696.806 5.88721 -2.00726 0
M  V30 15824 C 695.616 7.92526 -2.10483 0
M  V30 15825 O 695.226 8.02971 -3.47653 0
M  V30 15826 C 694.736 6.89602 -1.41652 0
M  V30 15827 C 695.446 5.59201 -1.75185 0
M  V30 15828 N 695.396 4.58235 -0.662552 0
M  V30 15829 H 698.235 8.65116 -0.777161 0
M  V30 15830 H 698.507 6.90173 -0.474152 0
M  V30 15831 H 697.639 7.66548 -2.79458 0
M  V30 15832 P 693.676 8.03563 -3.84925 0
M  V30 15833 O 693.456 8.85821 -5.0569 0
M  V30 15834 O 692.886 8.41101 -2.65469 0
M  V30 15835 O 693.426 6.4965 -4.18908 0
M  V30 15836 C 694.366 5.81037 -5.05421 0
M  V30 15837 C 693.636 4.78366 -5.89277 0
M  V30 15838 O 693.426 3.58302 -5.08433 0
M  V30 15839 C 692.236 5.17448 -6.36119 0
M  V30 15840 O 691.846 4.45271 -7.53232 0
M  V30 15841 C 691.356 4.74639 -5.19936 0
M  V30 15842 C 692.066 3.49432 -4.70418 0
M  V30 15843 N 692.016 3.31776 -3.22945 0
M  V30 15844 H 694.855 6.54213 -5.71376 0
M  V30 15845 H 695.127 5.30492 -4.44033 0
M  V30 15846 H 694.259 4.55889 -6.76652 0
M  V30 15847 P 690.296 4.23843 -7.83734 0
M  V30 15848 O 690.076 4.19407 -9.29784 0
M  V30 15849 O 689.506 5.24426 -7.09156 0
M  V30 15850 O 690.046 2.7935 -7.20758 0
M  V30 15851 C 690.986 1.7299 -7.50419 0
M  V30 15852 C 690.256 0.406376 -7.57911 0
M  V30 15853 O 690.046 -0.0897726 -6.21935 0
M  V30 15854 C 688.856 0.447224 -8.1878 0
M  V30 15855 O 688.466 -0.825065 -8.71101 0
M  V30 15856 C 687.976 0.783801 -6.99623 0
M  V30 15857 C 688.686 0.0619192 -5.85967 0
M  V30 15858 N 688.636 0.790462 -4.56202 0
M  V30 15859 C 688.716 2.13895 -4.34171 0
M  V30 15860 N 688.646 2.46449 -3.08687 0
M  V30 15861 C 688.496 1.2525 -2.43697 0
M  V30 15862 C 688.366 0.914535 -1.07318 0
M  V30 15863 N 688.356 1.80782 -0.0887348 0
M  V30 15864 N 688.246 -0.386745 -0.768133 0
M  V30 15865 C 688.256 -1.28096 -1.75159 0
M  V30 15866 N 688.376 -1.09708 -3.04861 0
M  V30 15867 C 688.496 0.214857 -3.32306 0
M  V30 15868 H 691.475 1.93423 -8.4679 0
M  V30 15869 H 691.747 1.68852 -6.70877 0
M  V30 15870 H 690.879 -0.289041 -8.15388 0
M  V30 15871 H 688.224 -0.927006 -5.72848 0
M  V30 15872 H 687.944 1.86973 -6.82036 0
M  V30 15873 H 686.953 0.403953 -7.13357 0
M  V30 15874 H 688.787 1.20599 -8.97534 0
M  V30 15875 H 688.828 2.86846 -5.14318 0
M  V30 15876 H 688.447 2.81082 -0.302037 0
M  V30 15877 H 688.258 1.49688 0.889064 0
M  V30 15878 H 688.15 -2.31317 -1.43855 0
M  V30 15879 P 686.916 -1.17771 -8.83182 0
M  V30 15880 O 686.696 -2.07206 -9.98732 0
M  V30 15881 O 686.126 0.0743816 -8.81969 0
M  V30 15882 O 686.666 -1.97652 -7.47304 0
M  V30 15883 C 687.606 -3.01133 -7.08783 0
M  V30 15884 C 686.876 -4.12613 -6.37049 0
M  V30 15885 O 686.666 -3.72827 -4.97879 0
M  V30 15886 C 685.476 -4.45085 -6.88694 0
M  V30 15887 O 685.086 -5.7877 -6.5624 0
M  V30 15888 C 684.596 -3.47817 -6.12078 0
M  V30 15889 C 685.306 -3.39414 -4.77697 0
M  V30 15890 N 685.256 -2.04615 -4.15333 0
M  V30 15891 H 688.095 -3.41248 -7.98759 0
M  V30 15892 H 688.367 -2.5837 -6.41742 0
M  V30 15893 H 687.499 -5.02657 -6.42673 0
M  V30 15894 P 683.536 -6.144 -6.45285 0
M  V30 15895 O 683.316 -7.54673 -6.86199 0
M  V30 15896 O 682.746 -5.12391 -7.179 0
M  V30 15897 O 683.286 -5.99158 -4.88404 0
M  V30 15898 C 684.226 -6.60234 -3.96415 0
M  V30 15899 C 683.496 -7.08259 -2.72856 0
M  V30 15900 O 683.286 -5.9427 -1.83651 0
M  V30 15901 C 682.096 -7.64886 -2.9555 0
M  V30 15902 O 681.706 -8.53963 -1.90717 0
M  V30 15903 C 681.216 -6.4116 -2.90739 0
M  V30 15904 C 681.926 -5.55375 -1.86963 0
M  V30 15905 N 681.876 -4.09664 -2.15742 0
M  V30 15906 H 684.715 -7.45574 -4.45629 0
M  V30 15907 H 684.987 -5.86232 -3.67314 0
M  V30 15908 H 684.119 -7.84412 -2.24479 0
M  V30 15909 P 680.156 -8.7635 -1.60911 0
M  V30 15910 O 679.936 -10.1388 -1.11561 0
M  V30 15911 O 679.366 -8.36503 -2.79617 0
M  V30 15912 O 679.906 -7.71806 -0.42951 0
M  V30 15913 C 680.846 -7.67148 0.673689 0
M  V30 15914 C 680.116 -7.33374 1.95559 0
M  V30 15915 O 679.906 -5.88721 2.00726 0
M  V30 15916 C 678.716 -7.92526 2.10483 0
M  V30 15917 O 678.326 -8.02971 3.47653 0
M  V30 15918 C 677.836 -6.89602 1.41652 0
M  V30 15919 C 678.546 -5.59201 1.75185 0
M  V30 15920 N 678.496 -4.58235 0.662552 0
M  V30 15921 H 681.335 -8.65116 0.777161 0
M  V30 15922 H 681.607 -6.90173 0.474152 0
M  V30 15923 H 680.739 -7.66548 2.79458 0
M  V30 15924 P 676.776 -8.03563 3.84925 0
M  V30 15925 O 676.556 -8.85821 5.0569 0
M  V30 15926 O 675.986 -8.41101 2.65469 0
M  V30 15927 O 676.526 -6.4965 4.18908 0
M  V30 15928 C 677.466 -5.81037 5.05421 0
M  V30 15929 C 676.736 -4.78366 5.89277 0
M  V30 15930 O 676.526 -3.58302 5.08433 0
M  V30 15931 C 675.336 -5.17448 6.36119 0
M  V30 15932 O 674.946 -4.45271 7.53232 0
M  V30 15933 C 674.456 -4.74639 5.19936 0
M  V30 15934 C 675.166 -3.49432 4.70418 0
M  V30 15935 N 675.116 -3.32099 3.22613 0
M  V30 15936 H 677.955 -6.54213 5.71376 0
M  V30 15937 H 678.227 -5.30936 4.43503 0
M  V30 15938 H 677.359 -4.55889 6.76652 0
M  V30 15939 H 674.704 -2.61715 5.17932 0
M  V30 15940 H 674.424 -5.52155 4.41878 0
M  V30 15941 H 673.433 -4.51981 5.53374 0
M  V30 15942 H 675.267 -6.25124 6.55234 0
M  V30 15943 P 673.396 -4.23843 7.83734 0
M  V30 15944 O 673.176 -4.19407 9.29784 0
M  V30 15945 O 672.606 -5.24426 7.09156 0
M  V30 15946 O 673.146 -2.7935 7.20758 0
M  V30 15947 C 674.086 -1.7299 7.50419 0
M  V30 15948 C 673.356 -0.406376 7.57911 0
M  V30 15949 O 673.146 0.0897726 6.21935 0
M  V30 15950 C 671.956 -0.447224 8.1878 0
M  V30 15951 O 671.566 0.825065 8.71101 0
M  V30 15952 C 671.076 -0.783801 6.99623 0
M  V30 15953 C 671.786 -0.0619192 5.85967 0
M  V30 15954 N 671.736 -0.790462 4.56202 0
M  V30 15955 H 674.575 -1.93423 8.4679 0
M  V30 15956 H 674.847 -1.68852 6.70877 0
M  V30 15957 H 673.979 0.289041 8.15388 0
M  V30 15958 H 671.324 0.927006 5.72848 0
M  V30 15959 H 671.044 -1.86973 6.82036 0
M  V30 15960 H 670.053 -0.403953 7.13357 0
M  V30 15961 H 671.887 -1.20599 8.97534 0
M  V30 15962 P 670.016 1.17771 8.83182 0
M  V30 15963 O 669.796 2.07206 9.98732 0
M  V30 15964 O 669.226 -0.0743816 8.81969 0
M  V30 15965 O 669.766 1.97652 7.47304 0
M  V30 15966 C 670.706 3.01133 7.08783 0
M  V30 15967 C 669.976 4.12613 6.37049 0
M  V30 15968 O 669.766 3.72827 4.97879 0
M  V30 15969 C 668.576 4.45085 6.88694 0
M  V30 15970 O 668.186 5.7877 6.5624 0
M  V30 15971 C 667.696 3.47817 6.12078 0
M  V30 15972 C 668.406 3.39414 4.77697 0
M  V30 15973 N 668.356 2.04615 4.15333 0
M  V30 15974 H 671.195 3.41248 7.98759 0
M  V30 15975 H 671.467 2.5837 6.41742 0
M  V30 15976 H 670.599 5.02657 6.42673 0
M  V30 15977 P 666.636 6.144 6.45285 0
M  V30 15978 O 666.416 7.54673 6.86199 0
M  V30 15979 O 665.846 5.12391 7.179 0
M  V30 15980 O 666.386 5.99158 4.88404 0
M  V30 15981 C 667.326 6.60234 3.96415 0
M  V30 15982 C 666.596 7.08259 2.72856 0
M  V30 15983 O 666.386 5.9427 1.83651 0
M  V30 15984 C 665.196 7.64886 2.9555 0
M  V30 15985 O 664.806 8.53963 1.90717 0
M  V30 15986 C 664.316 6.4116 2.90739 0
M  V30 15987 C 665.026 5.55375 1.86963 0
M  V30 15988 N 664.976 4.09664 2.15742 0
M  V30 15989 H 667.815 7.45574 4.45629 0
M  V30 15990 H 668.087 5.86232 3.67314 0
M  V30 15991 H 667.219 7.84412 2.24479 0
M  V30 15992 P 663.256 8.7635 1.60911 0
M  V30 15993 O 663.036 10.1388 1.11561 0
M  V30 15994 O 662.466 8.36503 2.79617 0
M  V30 15995 O 663.006 7.71806 0.42951 0
M  V30 15996 C 663.946 7.67148 -0.673689 0
M  V30 15997 C 663.216 7.33374 -1.95559 0
M  V30 15998 O 663.006 5.88721 -2.00726 0
M  V30 15999 C 661.816 7.92526 -2.10483 0
M  V30 16000 O 661.426 8.02971 -3.47653 0
M  V30 16001 C 660.936 6.89602 -1.41652 0
M  V30 16002 C 661.646 5.59201 -1.75185 0
M  V30 16003 N 661.596 4.58301 -0.657969 0
M  V30 16004 H 664.435 8.65116 -0.777161 0
M  V30 16005 H 664.707 6.9022 -0.46725 0
M  V30 16006 H 663.839 7.66548 -2.79458 0
M  V30 16007 H 661.184 5.16165 -2.65183 0
M  V30 16008 H 660.904 7.06433 -0.329384 0
M  V30 16009 H 659.913 6.90926 -1.82021 0
M  V30 16010 H 661.747 8.90873 -1.62657 0
M  V30 16011 P 659.876 8.03563 -3.84925 0
M  V30 16012 O 659.656 8.85821 -5.0569 0
M  V30 16013 O 659.086 8.41101 -2.65469 0
M  V30 16014 O 659.626 6.4965 -4.18908 0
M  V30 16015 C 660.566 5.80886 -5.05289 0
M  V30 16016 C 659.836 4.78366 -5.89277 0
M  V30 16017 O 659.626 3.58302 -5.08433 0
M  V30 16018 C 658.436 5.16748 -6.36559 0
M  V30 16019 O 658.046 4.45271 -7.53232 0
M  V30 16020 C 657.556 4.74572 -5.19863 0
M  V30 16021 C 658.266 3.49373 -4.70338 0
M  V30 16022 N 658.216 3.31704 -3.22876 0
M  V30 16023 C 658.066 2.03326 -2.74871 0
M  V30 16024 O 657.976 1.06486 -3.48076 0
M  V30 16025 N 658.026 1.91838 -1.37456 0
M  V30 16026 C 658.116 2.94295 -0.462035 0
M  V30 16027 O 658.066 2.71763 0.752928 0
M  V30 16028 C 658.266 4.25064 -1.05249 0
M  V30 16029 C 658.376 5.39815 -0.095697 0
M  V30 16030 C 658.316 4.40214 -2.39192 0
M  V30 16031 H 661.057 6.54063 -5.71245 0
M  V30 16032 H 661.326 5.30339 -4.43905 0
M  V30 16033 H 660.459 4.55889 -6.76652 0
M  V30 16034 H 657.804 2.6167 -5.17842 0
M  V30 16035 H 657.525 5.52155 -4.41878 0
M  V30 16036 H 656.533 4.51918 -5.53297 0
M  V30 16037 H 658.367 6.25055 -6.55162 0
M  V30 16038 H 658.438 5.39798 -2.81523 0
M  V30 16039 H 657.408 5.91593 -0.0279582 0
M  V30 16040 H 659.145 6.10038 -0.450573 0
M  V30 16041 H 658.657 5.02007 0.89937 0
M  V30 16042 H 657.921 0.995326 -1.00435 0
M  V30 16043 P 656.496 4.23843 -7.83734 0
M  V30 16044 O 656.276 4.19407 -9.29784 0
M  V30 16045 O 655.706 5.24426 -7.09156 0
M  V30 16046 O 656.246 2.7935 -7.20758 0
M  V30 16047 C 657.186 1.72945 -7.50224 0
M  V30 16048 C 656.456 0.406376 -7.57911 0
M  V30 16049 O 656.246 -0.0897726 -6.21935 0
M  V30 16050 C 655.056 0.438983 -8.18724 0
M  V30 16051 O 654.666 -0.825065 -8.71101 0
M  V30 16052 C 654.176 0.783689 -6.99524 0
M  V30 16053 C 654.886 0.0619086 -5.85867 0
M  V30 16054 N 654.836 0.78573 -4.56183 0
M  V30 16055 C 654.686 0.0292889 -3.41887 0
M  V30 16056 O 654.596 -1.18445 -3.4419 0
M  V30 16057 N 654.646 0.744061 -2.23964 0
M  V30 16058 C 654.736 2.10932 -2.10362 0
M  V30 16059 O 654.686 2.64117 -0.98825 0
M  V30 16060 C 654.886 2.8202 -3.34994 0
M  V30 16061 C 654.996 4.31095 -3.25037 0
M  V30 16062 C 654.936 2.15547 -4.52261 0
M  V30 16063 H 657.677 1.93379 -8.46595 0
M  V30 16064 H 657.946 1.68132 -6.70852 0
M  V30 16065 H 657.079 -0.289041 -8.15388 0
M  V30 16066 H 654.424 -0.926847 -5.72749 0
M  V30 16067 H 654.145 1.86973 -6.82036 0
M  V30 16068 H 653.153 0.403896 -7.13257 0
M  V30 16069 H 654.987 1.20585 -8.97435 0
M  V30 16070 H 655.058 2.71231 -5.45042 0
M  V30 16071 H 654.028 4.76966 -3.49992 0
M  V30 16072 H 655.765 4.67047 -3.95024 0
M  V30 16073 H 655.277 4.58996 -2.22312 0
M  V30 16074 H 654.541 0.214893 -1.39758 0
M  V30 16075 P 653.116 -1.17771 -8.83182 0
M  V30 16076 O 652.896 -2.07206 -9.98732 0
M  V30 16077 O 652.326 0.0743816 -8.81969 0
M  V30 16078 O 652.866 -1.97652 -7.47304 0
M  V30 16079 C 653.806 -3.01055 -7.08599 0
M  V30 16080 C 653.076 -4.12613 -6.37049 0
M  V30 16081 O 652.866 -3.72827 -4.97879 0
M  V30 16082 C 651.676 -4.45719 -6.88164 0
M  V30 16083 O 651.286 -5.7877 -6.5624 0
M  V30 16084 C 650.796 -3.47768 -6.11991 0
M  V30 16085 C 651.506 -3.39356 -4.77615 0
M  V30 16086 N 651.456 -2.04571 -4.15244 0
M  V30 16087 C 651.306 -1.98587 -2.78314 0
M  V30 16088 O 651.216 -2.98134 -2.08835 0
M  V30 16089 N 651.266 -0.714467 -2.24925 0
M  V30 16090 C 651.356 0.470001 -2.94169 0
M  V30 16091 C 651.506 0.312541 -4.36783 0
M  V30 16092 C 651.556 -0.914512 -4.92583 0
M  V30 16093 H 654.297 -3.41169 -7.98575 0
M  V30 16094 H 654.566 -2.58295 -6.41556 0
M  V30 16095 H 653.699 -5.02657 -6.42673 0
M  V30 16096 H 651.044 -4.11637 -4.08885 0
M  V30 16097 H 650.765 -2.49626 -6.61679 0
M  V30 16098 H 649.773 -3.86566 -6.00778 0
M  V30 16099 H 651.607 -4.29943 -7.96918 0
M  V30 16100 H 651.678 -1.00937 -6.00374 0
M  V30 16101 P 649.736 -6.144 -6.45285 0
M  V30 16102 O 649.516 -7.54673 -6.86199 0
M  V30 16103 O 648.946 -5.12391 -7.179 0
M  V30 16104 O 649.486 -5.99158 -4.88404 0
M  V30 16105 C 650.426 -6.60234 -3.96415 0
M  V30 16106 C 649.696 -7.08259 -2.72856 0
M  V30 16107 O 649.486 -5.9427 -1.83651 0
M  V30 16108 C 648.296 -7.64886 -2.9555 0
M  V30 16109 O 647.906 -8.53963 -1.90717 0
M  V30 16110 C 647.416 -6.4116 -2.90739 0
M  V30 16111 C 648.126 -5.55375 -1.86963 0
M  V30 16112 N 648.076 -4.09664 -2.15742 0
M  V30 16113 H 650.915 -7.45574 -4.45629 0
M  V30 16114 H 651.187 -5.86232 -3.67314 0
M  V30 16115 H 650.319 -7.84412 -2.24479 0
M  V30 16116 P 646.356 -8.7635 -1.60911 0
M  V30 16117 O 646.136 -10.1388 -1.11561 0
M  V30 16118 O 645.566 -8.36503 -2.79617 0
M  V30 16119 O 646.106 -7.71806 -0.42951 0
M  V30 16120 C 647.046 -7.67148 0.673689 0
M  V30 16121 C 646.316 -7.33374 1.95559 0
M  V30 16122 O 646.106 -5.88721 2.00726 0
M  V30 16123 C 644.916 -7.92526 2.10483 0
M  V30 16124 O 644.526 -8.02971 3.47653 0
M  V30 16125 C 644.036 -6.89602 1.41652 0
M  V30 16126 C 644.746 -5.59201 1.75185 0
M  V30 16127 N 644.696 -4.58235 0.662552 0
M  V30 16128 H 647.535 -8.65116 0.777161 0
M  V30 16129 H 647.807 -6.90173 0.474152 0
M  V30 16130 H 646.939 -7.66548 2.79458 0
M  V30 16131 P 642.976 -8.03563 3.84925 0
M  V30 16132 O 642.756 -8.85821 5.0569 0
M  V30 16133 O 642.186 -8.41101 2.65469 0
M  V30 16134 O 642.726 -6.4965 4.18908 0
M  V30 16135 C 643.666 -5.81037 5.05421 0
M  V30 16136 C 642.936 -4.78366 5.89277 0
M  V30 16137 O 642.726 -3.58302 5.08433 0
M  V30 16138 C 641.536 -5.17448 6.36119 0
M  V30 16139 O 641.146 -4.45271 7.53232 0
M  V30 16140 C 640.656 -4.74639 5.19936 0
M  V30 16141 C 641.366 -3.49432 4.70418 0
M  V30 16142 N 641.316 -3.32099 3.22613 0
M  V30 16143 C 641.396 -4.28245 2.25527 0
M  V30 16144 N 641.326 -3.80823 1.04874 0
M  V30 16145 C 641.176 -2.44571 1.23535 0
M  V30 16146 C 641.046 -1.37068 0.330675 0
M  V30 16147 N 641.036 -1.51472 -0.990824 0
M  V30 16148 N 640.926 -0.138614 0.848756 0
M  V30 16149 C 640.936 0.00675923 2.16999 0
M  V30 16150 N 641.056 -0.904372 3.11122 0
M  V30 16151 C 641.176 -2.12707 2.56212 0
M  V30 16152 H 644.155 -6.54213 5.71376 0
M  V30 16153 H 644.427 -5.30936 4.43503 0
M  V30 16154 H 643.559 -4.55889 6.76652 0
M  V30 16155 H 640.904 -2.61715 5.17932 0
M  V30 16156 H 640.624 -5.52155 4.41878 0
M  V30 16157 H 639.633 -4.51981 5.53374 0
M  V30 16158 H 641.467 -6.25124 6.55234 0
M  V30 16159 H 641.508 -5.34372 2.47488 0
M  V30 16160 H 641.127 -2.45153 -1.4078 0
M  V30 16161 H 640.938 -0.688422 -1.59911 0
M  V30 16162 H 640.83 1.02584 2.52346 0
M  V30 16163 P 639.596 -4.23843 7.83734 0
M  V30 16164 O 639.376 -4.19407 9.29784 0
M  V30 16165 O 638.806 -5.24426 7.09156 0
M  V30 16166 O 639.346 -2.7935 7.20758 0
M  V30 16167 C 640.286 -1.7299 7.50419 0
M  V30 16168 C 639.556 -0.406376 7.57911 0
M  V30 16169 O 639.346 0.0897726 6.21935 0
M  V30 16170 C 638.156 -0.447224 8.1878 0
M  V30 16171 O 637.766 0.825065 8.71101 0
M  V30 16172 C 637.276 -0.783801 6.99623 0
M  V30 16173 C 637.986 -0.0619192 5.85967 0
M  V30 16174 N 637.936 -0.7859 4.56281 0
M  V30 16175 H 640.775 -1.93423 8.4679 0
M  V30 16176 H 641.047 -1.68181 6.71046 0
M  V30 16177 H 640.179 0.289041 8.15388 0
M  V30 16178 P 636.216 1.17771 8.83182 0
M  V30 16179 O 635.996 2.07206 9.98732 0
M  V30 16180 O 635.426 -0.0743816 8.81969 0
M  V30 16181 O 635.966 1.97652 7.47304 0
M  V30 16182 C 636.906 3.01133 7.08783 0
M  V30 16183 C 636.176 4.12613 6.37049 0
M  V30 16184 O 635.966 3.72827 4.97879 0
M  V30 16185 C 634.776 4.45085 6.88694 0
M  V30 16186 O 634.386 5.7877 6.5624 0
M  V30 16187 C 633.896 3.47817 6.12078 0
M  V30 16188 C 634.606 3.39414 4.77697 0
M  V30 16189 N 634.556 2.04615 4.15333 0
M  V30 16190 C 634.636 0.803897 4.75249 0
M  V30 16191 N 634.556 -0.197615 3.91502 0
M  V30 16192 C 634.416 0.413002 2.66823 0
M  V30 16193 C 634.286 -0.157221 1.38007 0
M  V30 16194 O 634.266 -1.34419 1.057 0
M  V30 16195 N 634.166 0.833136 0.390236 0
M  V30 16196 C 634.166 2.19402 0.623885 0
M  V30 16197 N 634.036 2.97622 -0.449677 0
M  V30 16198 N 634.296 2.73005 1.83601 0
M  V30 16199 C 634.416 1.78786 2.80935 0
M  V30 16200 H 637.395 3.41248 7.98759 0
M  V30 16201 H 637.667 2.5837 6.41742 0
M  V30 16202 H 636.799 5.02657 6.42673 0
M  V30 16203 H 634.144 4.11779 4.09026 0
M  V30 16204 H 633.864 2.49661 6.61772 0
M  V30 16205 H 632.873 3.86674 6.00946 0
M  V30 16206 H 634.707 4.30038 7.97094 0
M  V30 16207 H 634.756 0.670579 5.82754 0
M  V30 16208 H 634.074 0.528446 -0.557287 0
M  V30 16209 H 634.037 4.00117 -0.344773 0
M  V30 16210 H 633.936 2.55448 -1.38544 0
M  V30 16211 P 632.836 6.144 6.45285 0
M  V30 16212 O 632.616 7.54673 6.86199 0
M  V30 16213 O 632.046 5.12391 7.179 0
M  V30 16214 O 632.586 5.99158 4.88404 0
M  V30 16215 C 633.526 6.60234 3.96415 0
M  V30 16216 C 632.796 7.08259 2.72856 0
M  V30 16217 O 632.586 5.9427 1.83651 0
M  V30 16218 C 631.396 7.64886 2.9555 0
M  V30 16219 O 631.006 8.53963 1.90717 0
M  V30 16220 C 630.516 6.4116 2.90739 0
M  V30 16221 C 631.226 5.55375 1.86963 0
M  V30 16222 N 631.176 4.09448 2.16152 0
M  V30 16223 H 634.015 7.45574 4.45629 0
M  V30 16224 H 634.287 5.85864 3.679 0
M  V30 16225 H 633.419 7.84412 2.24479 0
M  V30 16226 H 630.764 5.73457 0.888562 0
M  V30 16227 H 630.484 5.90877 3.88583 0
M  V30 16228 H 629.493 6.6596 2.58858 0
M  V30 16229 H 631.327 8.16339 3.92049 0
M  V30 16230 P 629.456 8.7635 1.60911 0
M  V30 16231 O 629.236 10.1388 1.11561 0
M  V30 16232 O 628.666 8.36503 2.79617 0
M  V30 16233 O 629.206 7.71806 0.42951 0
M  V30 16234 C 630.146 7.67148 -0.673689 0
M  V30 16235 C 629.416 7.33374 -1.95559 0
M  V30 16236 O 629.206 5.88721 -2.00726 0
M  V30 16237 C 628.016 7.92526 -2.10483 0
M  V30 16238 O 627.626 8.02971 -3.47653 0
M  V30 16239 C 627.136 6.89602 -1.41652 0
M  V30 16240 C 627.846 5.59201 -1.75185 0
M  V30 16241 N 627.796 4.58301 -0.657969 0
M  V30 16242 H 630.635 8.65116 -0.777161 0
M  V30 16243 H 630.907 6.9022 -0.46725 0
M  V30 16244 H 630.039 7.66548 -2.79458 0
M  V30 16245 H 627.384 5.16165 -2.65183 0
M  V30 16246 H 627.104 7.06433 -0.329384 0
M  V30 16247 H 626.113 6.90926 -1.82021 0
M  V30 16248 H 627.947 8.90873 -1.62657 0
M  V30 16249 P 626.076 8.03563 -3.84925 0
M  V30 16250 O 625.856 8.85821 -5.0569 0
M  V30 16251 O 625.286 8.41101 -2.65469 0
M  V30 16252 O 625.826 6.4965 -4.18908 0
M  V30 16253 C 626.766 5.81037 -5.05421 0
M  V30 16254 C 626.036 4.78366 -5.89277 0
M  V30 16255 O 625.826 3.58302 -5.08433 0
M  V30 16256 C 624.636 5.17448 -6.36119 0
M  V30 16257 O 624.246 4.45271 -7.53232 0
M  V30 16258 C 623.756 4.74639 -5.19936 0
M  V30 16259 C 624.466 3.49432 -4.70418 0
M  V30 16260 N 624.416 3.31776 -3.22945 0
M  V30 16261 H 627.255 6.54213 -5.71376 0
M  V30 16262 H 627.527 5.30492 -4.44033 0
M  V30 16263 H 626.659 4.55889 -6.76652 0
M  V30 16264 P 622.696 4.23843 -7.83734 0
M  V30 16265 O 622.476 4.19407 -9.29784 0
M  V30 16266 O 621.906 5.24426 -7.09156 0
M  V30 16267 O 622.446 2.7935 -7.20758 0
M  V30 16268 C 623.386 1.7299 -7.50419 0
M  V30 16269 C 622.656 0.406376 -7.57911 0
M  V30 16270 O 622.446 -0.0897726 -6.21935 0
M  V30 16271 C 621.256 0.447224 -8.1878 0
M  V30 16272 O 620.866 -0.825065 -8.71101 0
M  V30 16273 C 620.376 0.783801 -6.99623 0
M  V30 16274 C 621.086 0.0619192 -5.85967 0
M  V30 16275 N 621.036 0.7859 -4.56281 0
M  V30 16276 H 623.875 1.93423 -8.4679 0
M  V30 16277 H 624.147 1.68181 -6.71046 0
M  V30 16278 H 623.279 -0.289041 -8.15388 0
M  V30 16279 P 619.316 -1.17771 -8.83182 0
M  V30 16280 O 619.096 -2.07206 -9.98732 0
M  V30 16281 O 618.526 0.0743816 -8.81969 0
M  V30 16282 O 619.066 -1.97652 -7.47304 0
M  V30 16283 C 620.006 -3.01133 -7.08783 0
M  V30 16284 C 619.276 -4.12613 -6.37049 0
M  V30 16285 O 619.066 -3.72827 -4.97879 0
M  V30 16286 C 617.876 -4.45085 -6.88694 0
M  V30 16287 O 617.486 -5.7877 -6.5624 0
M  V30 16288 C 616.996 -3.47817 -6.12078 0
M  V30 16289 C 617.706 -3.39414 -4.77697 0
M  V30 16290 N 617.656 -2.04615 -4.15333 0
M  V30 16291 H 620.495 -3.41248 -7.98759 0
M  V30 16292 H 620.767 -2.5837 -6.41742 0
M  V30 16293 H 619.899 -5.02657 -6.42673 0
M  V30 16294 P 615.936 -6.144 -6.45285 0
M  V30 16295 O 615.716 -7.54673 -6.86199 0
M  V30 16296 O 615.146 -5.12391 -7.179 0
M  V30 16297 O 615.686 -5.99158 -4.88404 0
M  V30 16298 C 616.626 -6.60062 -3.96313 0
M  V30 16299 C 615.896 -7.08259 -2.72856 0
M  V30 16300 O 615.686 -5.9427 -1.83651 0
M  V30 16301 C 614.496 -7.65087 -2.94749 0
M  V30 16302 O 614.106 -8.53963 -1.90717 0
M  V30 16303 C 613.616 -6.41069 -2.90698 0
M  V30 16304 C 614.326 -5.5528 -1.86931 0
M  V30 16305 N 614.276 -4.09575 -2.15696 0
M  V30 16306 C 614.126 -3.24249 -1.08435 0
M  V30 16307 O 614.036 -3.63946 0.0628747 0
M  V30 16308 N 614.086 -1.90009 -1.39973 0
M  V30 16309 C 614.176 -1.34884 -2.65614 0
M  V30 16310 C 614.326 -2.3145 -3.71736 0
M  V30 16311 C 614.376 -3.63518 -3.44754 0
M  V30 16312 H 617.117 -7.45402 -4.45526 0
M  V30 16313 H 617.386 -5.86062 -3.67208 0
M  V30 16314 H 616.519 -7.84412 -2.24479 0
M  V30 16315 H 613.864 -5.73358 -0.888409 0
M  V30 16316 H 613.585 -5.90877 -3.88583 0
M  V30 16317 H 612.593 -6.65867 -2.58821 0
M  V30 16318 H 614.427 -8.16248 -3.92006 0
M  V30 16319 H 614.498 -4.34551 -4.26383 0
M  V30 16320 P 612.556 -8.7635 -1.60911 0
M  V30 16321 O 612.336 -10.1388 -1.11561 0
M  V30 16322 O 611.766 -8.36503 -2.79617 0
M  V30 16323 O 612.306 -7.71806 -0.42951 0
M  V30 16324 C 613.246 -7.67148 0.673689 0
M  V30 16325 C 612.516 -7.33374 1.95559 0
M  V30 16326 O 612.306 -5.88721 2.00726 0
M  V30 16327 C 611.116 -7.92526 2.10483 0
M  V30 16328 O 610.726 -8.02971 3.47653 0
M  V30 16329 C 610.236 -6.89602 1.41652 0
M  V30 16330 C 610.946 -5.59201 1.75185 0
M  V30 16331 N 610.896 -4.58235 0.662552 0
M  V30 16332 H 613.735 -8.65116 0.777161 0
M  V30 16333 H 614.007 -6.90173 0.474152 0
M  V30 16334 H 613.139 -7.66548 2.79458 0
M  V30 16335 P 609.176 -8.03563 3.84925 0
M  V30 16336 O 608.956 -8.85821 5.0569 0
M  V30 16337 O 608.386 -8.41101 2.65469 0
M  V30 16338 O 608.926 -6.4965 4.18908 0
M  V30 16339 C 609.866 -5.81037 5.05421 0
M  V30 16340 C 609.136 -4.78366 5.89277 0
M  V30 16341 O 608.926 -3.58302 5.08433 0
M  V30 16342 C 607.736 -5.17448 6.36119 0
M  V30 16343 O 607.346 -4.45271 7.53232 0
M  V30 16344 C 606.856 -4.74639 5.19936 0
M  V30 16345 C 607.566 -3.49432 4.70418 0
M  V30 16346 N 607.516 -3.31776 3.22945 0
M  V30 16347 H 610.355 -6.54213 5.71376 0
M  V30 16348 H 610.627 -5.30492 4.44033 0
M  V30 16349 H 609.759 -4.55889 6.76652 0
M  V30 16350 P 605.796 -4.23843 7.83734 0
M  V30 16351 O 605.576 -4.19407 9.29784 0
M  V30 16352 O 605.006 -5.24426 7.09156 0
M  V30 16353 O 605.546 -2.7935 7.20758 0
M  V30 16354 C 606.486 -1.7299 7.50419 0
M  V30 16355 C 605.756 -0.406376 7.57911 0
M  V30 16356 O 605.546 0.0897726 6.21935 0
M  V30 16357 C 604.356 -0.447224 8.1878 0
M  V30 16358 O 603.966 0.825065 8.71101 0
M  V30 16359 C 603.476 -0.783801 6.99623 0
M  V30 16360 C 604.186 -0.0619192 5.85967 0
M  V30 16361 N 604.136 -0.7859 4.56281 0
M  V30 16362 C 604.216 -2.14308 4.31736 0
M  V30 16363 N 604.136 -2.46106 3.05116 0
M  V30 16364 C 603.996 -1.23422 2.4014 0
M  V30 16365 C 603.866 -0.938381 1.02409 0
M  V30 16366 O 603.846 -1.70876 0.0650402 0
M  V30 16367 N 603.746 0.444647 0.805413 0
M  V30 16368 C 603.746 1.40829 1.79435 0
M  V30 16369 N 603.616 2.67213 1.38558 0
M  V30 16370 N 603.876 1.12947 3.09005 0
M  V30 16371 C 603.996 -0.204887 3.32369 0
M  V30 16372 H 606.975 -1.93423 8.4679 0
M  V30 16373 H 607.247 -1.68181 6.71046 0
M  V30 16374 H 606.379 0.289041 8.15388 0
M  V30 16375 H 603.724 0.927166 5.72947 0
M  V30 16376 H 603.444 -1.87 6.82132 0
M  V30 16377 H 602.453 -0.404009 7.13457 0
M  V30 16378 H 604.287 -1.20612 8.97633 0
M  V30 16379 H 604.336 -2.88284 5.10874 0
M  V30 16380 H 603.654 0.755087 -0.140242 0
M  V30 16381 H 603.617 3.43967 2.0729 0
M  V30 16382 H 603.516 2.88096 0.380644 0
M  V30 16383 P 602.416 1.17771 8.83182 0
M  V30 16384 O 602.196 2.07206 9.98732 0
M  V30 16385 O 601.626 -0.0743816 8.81969 0
M  V30 16386 O 602.166 1.97652 7.47304 0
M  V30 16387 C 603.106 3.01133 7.08783 0
M  V30 16388 C 602.376 4.12613 6.37049 0
M  V30 16389 O 602.166 3.72827 4.97879 0
M  V30 16390 C 600.976 4.45085 6.88694 0
M  V30 16391 O 600.586 5.7877 6.5624 0
M  V30 16392 C 600.096 3.47817 6.12078 0
M  V30 16393 C 600.806 3.39414 4.77697 0
M  V30 16394 N 600.756 2.04615 4.15333 0
M  V30 16395 H 603.595 3.41248 7.98759 0
M  V30 16396 H 603.867 2.5837 6.41742 0
M  V30 16397 H 602.999 5.02657 6.42673 0
M  V30 16398 P 599.036 6.144 6.45285 0
M  V30 16399 O 598.816 7.54673 6.86199 0
M  V30 16400 O 598.246 5.12391 7.179 0
M  V30 16401 O 598.786 5.99158 4.88404 0
M  V30 16402 C 599.726 6.60234 3.96415 0
M  V30 16403 C 598.996 7.08259 2.72856 0
M  V30 16404 O 598.786 5.9427 1.83651 0
M  V30 16405 C 597.596 7.64886 2.9555 0
M  V30 16406 O 597.206 8.53963 1.90717 0
M  V30 16407 C 596.716 6.4116 2.90739 0
M  V30 16408 C 597.426 5.55375 1.86963 0
M  V30 16409 N 597.376 4.09664 2.15742 0
M  V30 16410 H 600.215 7.45574 4.45629 0
M  V30 16411 H 600.487 5.86232 3.67314 0
M  V30 16412 H 599.619 7.84412 2.24479 0
M  V30 16413 P 595.656 8.7635 1.60911 0
M  V30 16414 O 595.437 10.1388 1.11561 0
M  V30 16415 O 594.866 8.36503 2.79617 0
M  V30 16416 O 595.406 7.71806 0.42951 0
M  V30 16417 C 596.346 7.66948 -0.673514 0
M  V30 16418 C 595.616 7.33374 -1.95559 0
M  V30 16419 O 595.406 5.88721 -2.00726 0
M  V30 16420 C 594.216 7.92218 -2.1125 0
M  V30 16421 O 593.827 8.02971 -3.47653 0
M  V30 16422 C 593.337 6.89504 -1.41631 0
M  V30 16423 C 594.046 5.59106 -1.75155 0
M  V30 16424 N 593.996 4.58136 -0.662409 0
M  V30 16425 C 593.846 3.26059 -1.02863 0
M  V30 16426 O 593.756 2.90743 -2.19009 0
M  V30 16427 N 593.806 2.35995 0.0155585 0
M  V30 16428 C 593.896 2.65248 1.35603 0
M  V30 16429 O 593.846 1.75605 2.20651 0
M  V30 16430 C 594.046 4.05747 1.64698 0
M  V30 16431 C 594.156 4.42345 3.09553 0
M  V30 16432 C 594.096 4.96734 0.652411 0
M  V30 16433 H 596.837 8.64917 -0.776982 0
M  V30 16434 H 597.106 6.89974 -0.474015 0
M  V30 16435 H 596.24 7.66548 -2.79458 0
M  V30 16436 H 593.584 5.16076 -2.65138 0
M  V30 16437 H 593.305 7.06433 -0.329384 0
M  V30 16438 H 592.313 6.90829 -1.81996 0
M  V30 16439 H 594.147 8.90774 -1.62639 0
M  V30 16440 H 594.218 6.02181 0.895285 0
M  V30 16441 H 593.188 4.80252 3.45468 0
M  V30 16442 H 594.925 5.20015 3.22119 0
M  V30 16443 H 594.438 3.53269 3.67833 0
M  V30 16444 H 593.702 1.39558 -0.227499 0
M  V30 16445 P 592.277 8.03563 -3.84925 0
M  V30 16446 O 592.057 8.85821 -5.0569 0
M  V30 16447 O 591.487 8.41101 -2.65469 0
M  V30 16448 O 592.027 6.4965 -4.18908 0
M  V30 16449 C 592.967 5.81037 -5.05421 0
M  V30 16450 C 592.237 4.78366 -5.89277 0
M  V30 16451 O 592.027 3.58302 -5.08433 0
M  V30 16452 C 590.837 5.17448 -6.36119 0
M  V30 16453 O 590.447 4.45271 -7.53232 0
M  V30 16454 C 589.957 4.74639 -5.19936 0
M  V30 16455 C 590.667 3.49432 -4.70418 0
M  V30 16456 N 590.617 3.31776 -3.22945 0
M  V30 16457 H 593.456 6.54213 -5.71376 0
M  V30 16458 H 593.728 5.30492 -4.44033 0
M  V30 16459 H 592.86 4.55889 -6.76652 0
M  V30 16460 P 588.897 4.23843 -7.83734 0
M  V30 16461 O 588.677 4.19407 -9.29784 0
M  V30 16462 O 588.107 5.24426 -7.09156 0
M  V30 16463 O 588.647 2.7935 -7.20758 0
M  V30 16464 C 589.587 1.7299 -7.50419 0
M  V30 16465 C 588.857 0.406376 -7.57911 0
M  V30 16466 O 588.647 -0.0897726 -6.21935 0
M  V30 16467 C 587.457 0.447224 -8.1878 0
M  V30 16468 O 587.067 -0.825065 -8.71101 0
M  V30 16469 C 586.577 0.783801 -6.99623 0
M  V30 16470 C 587.287 0.0619192 -5.85967 0
M  V30 16471 N 587.237 0.7859 -4.56281 0
M  V30 16472 H 590.076 1.93423 -8.4679 0
M  V30 16473 H 590.348 1.68181 -6.71046 0
M  V30 16474 H 589.48 -0.289041 -8.15388 0
M  V30 16475 P 585.517 -1.17771 -8.83182 0
M  V30 16476 O 585.297 -2.07206 -9.98732 0
M  V30 16477 O 584.727 0.0743816 -8.81969 0
M  V30 16478 O 585.267 -1.97652 -7.47304 0
M  V30 16479 C 586.207 -3.01133 -7.08783 0
M  V30 16480 C 585.477 -4.12613 -6.37049 0
M  V30 16481 O 585.267 -3.72827 -4.97879 0
M  V30 16482 C 584.077 -4.45085 -6.88694 0
M  V30 16483 O 583.687 -5.7877 -6.5624 0
M  V30 16484 C 583.197 -3.47817 -6.12078 0
M  V30 16485 C 583.907 -3.39414 -4.77697 0
M  V30 16486 N 583.857 -2.04199 -4.15538 0
M  V30 16487 H 586.696 -3.41248 -7.98759 0
M  V30 16488 H 586.968 -2.57728 -6.42 0
M  V30 16489 H 586.1 -5.02657 -6.42673 0
M  V30 16490 H 583.445 -4.11708 -4.08956 0
M  V30 16491 H 583.165 -2.49626 -6.61679 0
M  V30 16492 H 582.174 -3.8662 -6.00862 0
M  V30 16493 H 584.008 -4.29991 -7.97006 0
M  V30 16494 P 582.137 -6.144 -6.45285 0
M  V30 16495 O 581.917 -7.54673 -6.86199 0
M  V30 16496 O 581.347 -5.12391 -7.179 0
M  V30 16497 O 581.887 -5.99158 -4.88404 0
M  V30 16498 C 582.827 -6.60234 -3.96415 0
M  V30 16499 C 582.097 -7.08259 -2.72856 0
M  V30 16500 O 581.887 -5.9427 -1.83651 0
M  V30 16501 C 580.697 -7.64886 -2.9555 0
M  V30 16502 O 580.307 -8.53963 -1.90717 0
M  V30 16503 C 579.817 -6.4116 -2.90739 0
M  V30 16504 C 580.527 -5.55375 -1.86963 0
M  V30 16505 N 580.477 -4.09664 -2.15742 0
M  V30 16506 H 583.316 -7.45574 -4.45629 0
M  V30 16507 H 583.588 -5.86232 -3.67314 0
M  V30 16508 H 582.72 -7.84412 -2.24479 0
M  V30 16509 P 578.757 -8.7635 -1.60911 0
M  V30 16510 O 578.537 -10.1388 -1.11561 0
M  V30 16511 O 577.967 -8.36503 -2.79617 0
M  V30 16512 O 578.507 -7.71806 -0.42951 0
M  V30 16513 C 579.447 -7.66948 0.673514 0
M  V30 16514 C 578.717 -7.33374 1.95559 0
M  V30 16515 O 578.507 -5.88721 2.00726 0
M  V30 16516 C 577.317 -7.92218 2.1125 0
M  V30 16517 O 576.927 -8.02971 3.47653 0
M  V30 16518 C 576.437 -6.89504 1.41631 0
M  V30 16519 C 577.147 -5.59106 1.75155 0
M  V30 16520 N 577.097 -4.58136 0.662409 0
M  V30 16521 C 576.947 -3.26059 1.02863 0
M  V30 16522 O 576.857 -2.90743 2.19009 0
M  V30 16523 N 576.907 -2.35995 -0.0155585 0
M  V30 16524 C 576.997 -2.65248 -1.35603 0
M  V30 16525 O 576.947 -1.75605 -2.20651 0
M  V30 16526 C 577.147 -4.05747 -1.64698 0
M  V30 16527 C 577.257 -4.42345 -3.09553 0
M  V30 16528 C 577.197 -4.96734 -0.652411 0
M  V30 16529 H 579.938 -8.64917 0.776982 0
M  V30 16530 H 580.207 -6.89974 0.474015 0
M  V30 16531 H 579.34 -7.66548 2.79458 0
M  V30 16532 H 576.685 -5.16076 2.65138 0
M  V30 16533 H 576.406 -7.06433 0.329384 0
M  V30 16534 H 575.414 -6.90829 1.81996 0
M  V30 16535 H 577.248 -8.90774 1.62639 0
M  V30 16536 H 577.319 -6.02181 -0.895285 0
M  V30 16537 H 576.289 -4.80252 -3.45468 0
M  V30 16538 H 578.026 -5.20015 -3.22119 0
M  V30 16539 H 577.538 -3.53269 -3.67833 0
M  V30 16540 H 576.802 -1.39558 0.227499 0
M  V30 16541 P 575.377 -8.03563 3.84925 0
M  V30 16542 O 575.157 -8.85821 5.0569 0
M  V30 16543 O 574.587 -8.41101 2.65469 0
M  V30 16544 O 575.127 -6.4965 4.18908 0
M  V30 16545 C 576.067 -5.81037 5.05421 0
M  V30 16546 C 575.337 -4.78366 5.89277 0
M  V30 16547 O 575.127 -3.58302 5.08433 0
M  V30 16548 C 573.937 -5.17448 6.36119 0
M  V30 16549 O 573.547 -4.45271 7.53232 0
M  V30 16550 C 573.057 -4.74639 5.19936 0
M  V30 16551 C 573.767 -3.49432 4.70418 0
M  V30 16552 N 573.717 -3.32099 3.22613 0
M  V30 16553 H 576.556 -6.54213 5.71376 0
M  V30 16554 H 576.828 -5.30936 4.43503 0
M  V30 16555 H 575.96 -4.55889 6.76652 0
M  V30 16556 H 573.305 -2.61715 5.17932 0
M  V30 16557 H 573.025 -5.52155 4.41878 0
M  V30 16558 H 572.034 -4.51981 5.53374 0
M  V30 16559 H 573.868 -6.25124 6.55234 0
M  V30 16560 P 571.997 -4.23843 7.83734 0
M  V30 16561 O 571.777 -4.19407 9.29784 0
M  V30 16562 O 571.207 -5.24426 7.09156 0
M  V30 16563 O 571.747 -2.7935 7.20758 0
M  V30 16564 C 572.687 -1.7299 7.50419 0
M  V30 16565 C 571.957 -0.406376 7.57911 0
M  V30 16566 O 571.747 0.0897726 6.21935 0
M  V30 16567 C 570.557 -0.447224 8.1878 0
M  V30 16568 O 570.167 0.825065 8.71101 0
M  V30 16569 C 569.677 -0.783801 6.99623 0
M  V30 16570 C 570.387 -0.0619192 5.85967 0
M  V30 16571 N 570.337 -0.790462 4.56202 0
M  V30 16572 C 570.417 -2.13895 4.34171 0
M  V30 16573 N 570.347 -2.46449 3.08687 0
M  V30 16574 C 570.197 -1.2525 2.43697 0
M  V30 16575 C 570.067 -0.914535 1.07318 0
M  V30 16576 N 570.057 -1.80782 0.0887348 0
M  V30 16577 N 569.947 0.386745 0.768133 0
M  V30 16578 C 569.957 1.28096 1.75159 0
M  V30 16579 N 570.077 1.09708 3.04861 0
M  V30 16580 C 570.197 -0.214857 3.32306 0
M  V30 16581 H 573.176 -1.93423 8.4679 0
M  V30 16582 H 573.448 -1.68852 6.70877 0
M  V30 16583 H 572.58 0.289041 8.15388 0
M  V30 16584 H 569.925 0.927006 5.72848 0
M  V30 16585 H 569.645 -1.86973 6.82036 0
M  V30 16586 H 568.654 -0.403953 7.13357 0
M  V30 16587 H 570.488 -1.20599 8.97534 0
M  V30 16588 H 570.529 -2.86846 5.14318 0
M  V30 16589 H 570.148 -2.81082 0.302037 0
M  V30 16590 H 569.959 -1.49688 -0.889064 0
M  V30 16591 H 569.851 2.31317 1.43855 0
M  V30 16592 P 568.617 1.17771 8.83182 0
M  V30 16593 O 568.397 2.07206 9.98732 0
M  V30 16594 O 567.827 -0.0743816 8.81969 0
M  V30 16595 O 568.367 1.97652 7.47304 0
M  V30 16596 C 569.307 3.01133 7.08783 0
M  V30 16597 C 568.577 4.12613 6.37049 0
M  V30 16598 O 568.367 3.72827 4.97879 0
M  V30 16599 C 567.177 4.45085 6.88694 0
M  V30 16600 O 566.787 5.7877 6.5624 0
M  V30 16601 C 566.297 3.47817 6.12078 0
M  V30 16602 C 567.007 3.39414 4.77697 0
M  V30 16603 N 566.957 2.04615 4.15333 0
M  V30 16604 H 569.796 3.41248 7.98759 0
M  V30 16605 H 570.068 2.5837 6.41742 0
M  V30 16606 H 569.2 5.02657 6.42673 0
M  V30 16607 P 565.237 6.144 6.45285 0
M  V30 16608 O 565.017 7.54673 6.86199 0
M  V30 16609 O 564.447 5.12391 7.179 0
M  V30 16610 O 564.987 5.99158 4.88404 0
M  V30 16611 C 565.927 6.60234 3.96415 0
M  V30 16612 C 565.197 7.08259 2.72856 0
M  V30 16613 O 564.987 5.9427 1.83651 0
M  V30 16614 C 563.797 7.64886 2.9555 0
M  V30 16615 O 563.407 8.53963 1.90717 0
M  V30 16616 C 562.917 6.4116 2.90739 0
M  V30 16617 C 563.627 5.55375 1.86963 0
M  V30 16618 N 563.577 4.09664 2.15742 0
M  V30 16619 H 566.416 7.45574 4.45629 0
M  V30 16620 H 566.688 5.86232 3.67314 0
M  V30 16621 H 565.82 7.84412 2.24479 0
M  V30 16622 P 561.857 8.7635 1.60911 0
M  V30 16623 O 561.637 10.1388 1.11561 0
M  V30 16624 O 561.067 8.36503 2.79617 0
M  V30 16625 O 561.607 7.71806 0.42951 0
M  V30 16626 C 562.547 7.67148 -0.673689 0
M  V30 16627 C 561.817 7.33374 -1.95559 0
M  V30 16628 O 561.607 5.88721 -2.00726 0
M  V30 16629 C 560.417 7.92526 -2.10483 0
M  V30 16630 O 560.027 8.02971 -3.47653 0
M  V30 16631 C 559.537 6.89602 -1.41652 0
M  V30 16632 C 560.247 5.59201 -1.75185 0
M  V30 16633 N 560.197 4.58235 -0.662552 0
M  V30 16634 H 563.036 8.65116 -0.777161 0
M  V30 16635 H 563.308 6.90173 -0.474152 0
M  V30 16636 H 562.44 7.66548 -2.79458 0
M  V30 16637 P 558.477 8.03563 -3.84925 0
M  V30 16638 O 558.257 8.85821 -5.0569 0
M  V30 16639 O 557.687 8.41101 -2.65469 0
M  V30 16640 O 558.227 6.4965 -4.18908 0
M  V30 16641 C 559.167 5.81037 -5.05421 0
M  V30 16642 C 558.437 4.78366 -5.89277 0
M  V30 16643 O 558.227 3.58302 -5.08433 0
M  V30 16644 C 557.037 5.17448 -6.36119 0
M  V30 16645 O 556.647 4.45271 -7.53232 0
M  V30 16646 C 556.157 4.74639 -5.19936 0
M  V30 16647 C 556.867 3.49432 -4.70418 0
M  V30 16648 N 556.817 3.31776 -3.22945 0
M  V30 16649 H 559.656 6.54213 -5.71376 0
M  V30 16650 H 559.928 5.30492 -4.44033 0
M  V30 16651 H 559.06 4.55889 -6.76652 0
M  V30 16652 P 555.097 4.23843 -7.83734 0
M  V30 16653 O 554.877 4.19407 -9.29784 0
M  V30 16654 O 554.307 5.24426 -7.09156 0
M  V30 16655 O 554.847 2.7935 -7.20758 0
M  V30 16656 C 555.787 1.7299 -7.50419 0
M  V30 16657 C 555.057 0.406376 -7.57911 0
M  V30 16658 O 554.847 -0.0897726 -6.21935 0
M  V30 16659 C 553.657 0.447224 -8.1878 0
M  V30 16660 O 553.267 -0.825065 -8.71101 0
M  V30 16661 C 552.777 0.783801 -6.99623 0
M  V30 16662 C 553.487 0.0619192 -5.85967 0
M  V30 16663 N 553.437 0.7859 -4.56281 0
M  V30 16664 C 553.517 2.14308 -4.31736 0
M  V30 16665 N 553.437 2.46106 -3.05116 0
M  V30 16666 C 553.297 1.23422 -2.4014 0
M  V30 16667 C 553.167 0.938381 -1.02409 0
M  V30 16668 O 553.147 1.70876 -0.0650402 0
M  V30 16669 N 553.047 -0.444647 -0.805413 0
M  V30 16670 C 553.047 -1.40829 -1.79435 0
M  V30 16671 N 552.917 -2.67213 -1.38558 0
M  V30 16672 N 553.177 -1.12947 -3.09005 0
M  V30 16673 C 553.297 0.204887 -3.32369 0
M  V30 16674 H 556.276 1.93423 -8.4679 0
M  V30 16675 H 556.548 1.68181 -6.71046 0
M  V30 16676 H 555.68 -0.289041 -8.15388 0
M  V30 16677 H 553.025 -0.927166 -5.72947 0
M  V30 16678 H 552.745 1.87 -6.82132 0
M  V30 16679 H 551.754 0.404009 -7.13457 0
M  V30 16680 H 553.588 1.20612 -8.97633 0
M  V30 16681 H 553.637 2.88284 -5.10874 0
M  V30 16682 H 552.955 -0.755087 0.140242 0
M  V30 16683 H 552.918 -3.43967 -2.0729 0
M  V30 16684 H 552.817 -2.88096 -0.380644 0
M  V30 16685 P 551.717 -1.17771 -8.83182 0
M  V30 16686 O 551.497 -2.07206 -9.98732 0
M  V30 16687 O 550.927 0.0743816 -8.81969 0
M  V30 16688 O 551.467 -1.97652 -7.47304 0
M  V30 16689 C 552.407 -3.01133 -7.08783 0
M  V30 16690 C 551.677 -4.12613 -6.37049 0
M  V30 16691 O 551.467 -3.72827 -4.97879 0
M  V30 16692 C 550.277 -4.45085 -6.88694 0
M  V30 16693 O 549.887 -5.7877 -6.5624 0
M  V30 16694 C 549.397 -3.47817 -6.12078 0
M  V30 16695 C 550.107 -3.39414 -4.77697 0
M  V30 16696 N 550.057 -2.04615 -4.15333 0
M  V30 16697 H 552.896 -3.41248 -7.98759 0
M  V30 16698 H 553.168 -2.5837 -6.41742 0
M  V30 16699 H 552.3 -5.02657 -6.42673 0
M  V30 16700 P 548.337 -6.144 -6.45285 0
M  V30 16701 O 548.117 -7.54673 -6.86199 0
M  V30 16702 O 547.547 -5.12391 -7.179 0
M  V30 16703 O 548.087 -5.99158 -4.88404 0
M  V30 16704 C 549.027 -6.60234 -3.96415 0
M  V30 16705 C 548.297 -7.08259 -2.72856 0
M  V30 16706 O 548.087 -5.9427 -1.83651 0
M  V30 16707 C 546.897 -7.64886 -2.9555 0
M  V30 16708 O 546.507 -8.53963 -1.90717 0
M  V30 16709 C 546.017 -6.4116 -2.90739 0
M  V30 16710 C 546.727 -5.55375 -1.86963 0
M  V30 16711 N 546.677 -4.09664 -2.15742 0
M  V30 16712 H 549.516 -7.45574 -4.45629 0
M  V30 16713 H 549.788 -5.86232 -3.67314 0
M  V30 16714 H 548.92 -7.84412 -2.24479 0
M  V30 16715 P 544.957 -8.7635 -1.60911 0
M  V30 16716 O 544.737 -10.1388 -1.11561 0
M  V30 16717 O 544.167 -8.36503 -2.79617 0
M  V30 16718 O 544.707 -7.71806 -0.42951 0
M  V30 16719 C 545.647 -7.67148 0.673689 0
M  V30 16720 C 544.917 -7.33374 1.95559 0
M  V30 16721 O 544.707 -5.88721 2.00726 0
M  V30 16722 C 543.517 -7.92526 2.10483 0
M  V30 16723 O 543.127 -8.02971 3.47653 0
M  V30 16724 C 542.637 -6.89602 1.41652 0
M  V30 16725 C 543.347 -5.59201 1.75185 0
M  V30 16726 N 543.297 -4.58235 0.662552 0
M  V30 16727 H 546.136 -8.65116 0.777161 0
M  V30 16728 H 546.408 -6.90173 0.474152 0
M  V30 16729 H 545.54 -7.66548 2.79458 0
M  V30 16730 P 541.577 -8.03563 3.84925 0
M  V30 16731 O 541.357 -8.85821 5.0569 0
M  V30 16732 O 540.787 -8.41101 2.65469 0
M  V30 16733 O 541.327 -6.4965 4.18908 0
M  V30 16734 C 542.267 -5.81037 5.05421 0
M  V30 16735 C 541.537 -4.78366 5.89277 0
M  V30 16736 O 541.327 -3.58302 5.08433 0
M  V30 16737 C 540.137 -5.17448 6.36119 0
M  V30 16738 O 539.747 -4.45271 7.53232 0
M  V30 16739 C 539.257 -4.74639 5.19936 0
M  V30 16740 C 539.967 -3.49432 4.70418 0
M  V30 16741 N 539.917 -3.32099 3.22613 0
M  V30 16742 C 539.997 -4.28245 2.25527 0
M  V30 16743 N 539.927 -3.80823 1.04874 0
M  V30 16744 C 539.777 -2.44571 1.23535 0
M  V30 16745 C 539.647 -1.37068 0.330675 0
M  V30 16746 N 539.637 -1.51472 -0.990824 0
M  V30 16747 N 539.527 -0.138614 0.848756 0
M  V30 16748 C 539.537 0.00675923 2.16999 0
M  V30 16749 N 539.657 -0.904372 3.11122 0
M  V30 16750 C 539.777 -2.12707 2.56212 0
M  V30 16751 H 542.756 -6.54213 5.71376 0
M  V30 16752 H 543.028 -5.30936 4.43503 0
M  V30 16753 H 542.16 -4.55889 6.76652 0
M  V30 16754 H 539.505 -2.61715 5.17932 0
M  V30 16755 H 539.225 -5.52155 4.41878 0
M  V30 16756 H 538.234 -4.51981 5.53374 0
M  V30 16757 H 540.068 -6.25124 6.55234 0
M  V30 16758 H 540.109 -5.34372 2.47488 0
M  V30 16759 H 539.728 -2.45153 -1.4078 0
M  V30 16760 H 539.539 -0.688422 -1.59911 0
M  V30 16761 H 539.431 1.02584 2.52346 0
M  V30 16762 P 538.197 -4.23843 7.83734 0
M  V30 16763 O 537.977 -4.19407 9.29784 0
M  V30 16764 O 537.407 -5.24426 7.09156 0
M  V30 16765 O 537.947 -2.7935 7.20758 0
M  V30 16766 C 538.887 -1.7299 7.50419 0
M  V30 16767 C 538.157 -0.406376 7.57911 0
M  V30 16768 O 537.947 0.0897726 6.21935 0
M  V30 16769 C 536.757 -0.447224 8.1878 0
M  V30 16770 O 536.367 0.825065 8.71101 0
M  V30 16771 C 535.877 -0.783801 6.99623 0
M  V30 16772 C 536.587 -0.0619192 5.85967 0
M  V30 16773 N 536.537 -0.790462 4.56202 0
M  V30 16774 C 536.617 -2.13895 4.34171 0
M  V30 16775 N 536.547 -2.46449 3.08687 0
M  V30 16776 C 536.397 -1.2525 2.43697 0
M  V30 16777 C 536.267 -0.914535 1.07318 0
M  V30 16778 N 536.257 -1.80782 0.0887348 0
M  V30 16779 N 536.147 0.386745 0.768133 0
M  V30 16780 C 536.157 1.28096 1.75159 0
M  V30 16781 N 536.277 1.09708 3.04861 0
M  V30 16782 C 536.397 -0.214857 3.32306 0
M  V30 16783 H 539.376 -1.93423 8.4679 0
M  V30 16784 H 539.648 -1.68852 6.70877 0
M  V30 16785 H 538.78 0.289041 8.15388 0
M  V30 16786 H 536.125 0.927006 5.72848 0
M  V30 16787 H 535.845 -1.86973 6.82036 0
M  V30 16788 H 534.854 -0.403953 7.13357 0
M  V30 16789 H 536.688 -1.20599 8.97534 0
M  V30 16790 H 536.729 -2.86846 5.14318 0
M  V30 16791 H 536.348 -2.81082 0.302037 0
M  V30 16792 H 536.159 -1.49688 -0.889064 0
M  V30 16793 H 536.051 2.31317 1.43855 0
M  V30 16794 P 534.817 1.17771 8.83182 0
M  V30 16795 O 534.597 2.07206 9.98732 0
M  V30 16796 O 534.027 -0.0743816 8.81969 0
M  V30 16797 O 534.567 1.97652 7.47304 0
M  V30 16798 C 535.507 3.01055 7.08599 0
M  V30 16799 C 534.777 4.12613 6.37049 0
M  V30 16800 O 534.567 3.72827 4.97879 0
M  V30 16801 C 533.377 4.45719 6.88164 0
M  V30 16802 O 532.987 5.7877 6.5624 0
M  V30 16803 C 532.497 3.47768 6.11991 0
M  V30 16804 C 533.207 3.39356 4.77615 0
M  V30 16805 N 533.157 2.04571 4.15244 0
M  V30 16806 C 533.007 1.98587 2.78314 0
M  V30 16807 O 532.917 2.98134 2.08835 0
M  V30 16808 N 532.967 0.714467 2.24925 0
M  V30 16809 C 533.057 -0.470001 2.94169 0
M  V30 16810 C 533.207 -0.312541 4.36783 0
M  V30 16811 C 533.257 0.914512 4.92583 0
M  V30 16812 H 535.998 3.41169 7.98575 0
M  V30 16813 H 536.267 2.58295 6.41556 0
M  V30 16814 H 535.4 5.02657 6.42673 0
M  V30 16815 H 532.745 4.11637 4.08885 0
M  V30 16816 H 532.466 2.49626 6.61679 0
M  V30 16817 H 531.474 3.86566 6.00778 0
M  V30 16818 H 533.308 4.29943 7.96918 0
M  V30 16819 H 533.379 1.00937 6.00374 0
M  V30 16820 P 531.437 6.144 6.45285 0
M  V30 16821 O 531.217 7.54673 6.86199 0
M  V30 16822 O 530.647 5.12391 7.179 0
M  V30 16823 O 531.187 5.99158 4.88404 0
M  V30 16824 C 532.127 6.60062 3.96313 0
M  V30 16825 C 531.397 7.08259 2.72856 0
M  V30 16826 O 531.187 5.9427 1.83651 0
M  V30 16827 C 529.997 7.65087 2.94749 0
M  V30 16828 O 529.607 8.53963 1.90717 0
M  V30 16829 C 529.117 6.41069 2.90698 0
M  V30 16830 C 529.827 5.5528 1.86931 0
M  V30 16831 N 529.777 4.09575 2.15696 0
M  V30 16832 C 529.627 3.24249 1.08435 0
M  V30 16833 O 529.537 3.63946 -0.0628747 0
M  V30 16834 N 529.587 1.90009 1.39973 0
M  V30 16835 C 529.677 1.34884 2.65614 0
M  V30 16836 C 529.827 2.3145 3.71736 0
M  V30 16837 C 529.877 3.63518 3.44754 0
M  V30 16838 H 532.618 7.45402 4.45526 0
M  V30 16839 H 532.887 5.86062 3.67208 0
M  V30 16840 H 532.02 7.84412 2.24479 0
M  V30 16841 H 529.365 5.73358 0.888409 0
M  V30 16842 H 529.086 5.90877 3.88583 0
M  V30 16843 H 528.094 6.65867 2.58821 0
M  V30 16844 H 529.928 8.16248 3.92006 0
M  V30 16845 H 529.999 4.34551 4.26383 0
M  V30 16846 P 528.057 8.7635 1.60911 0
M  V30 16847 O 527.837 10.1388 1.11561 0
M  V30 16848 O 527.267 8.36503 2.79617 0
M  V30 16849 O 527.807 7.71806 0.42951 0
M  V30 16850 C 528.747 7.67148 -0.673689 0
M  V30 16851 C 528.017 7.33374 -1.95559 0
M  V30 16852 O 527.807 5.88721 -2.00726 0
M  V30 16853 C 526.617 7.92526 -2.10483 0
M  V30 16854 O 526.227 8.02971 -3.47653 0
M  V30 16855 C 525.737 6.89602 -1.41652 0
M  V30 16856 C 526.447 5.59201 -1.75185 0
M  V30 16857 N 526.397 4.58235 -0.662552 0
M  V30 16858 H 529.236 8.65116 -0.777161 0
M  V30 16859 H 529.508 6.90173 -0.474152 0
M  V30 16860 H 528.64 7.66548 -2.79458 0
M  V30 16861 P 524.677 8.03563 -3.84925 0
M  V30 16862 O 524.457 8.85821 -5.0569 0
M  V30 16863 O 523.887 8.41101 -2.65469 0
M  V30 16864 O 524.427 6.4965 -4.18908 0
M  V30 16865 C 525.367 5.81037 -5.05421 0
M  V30 16866 C 524.637 4.78366 -5.89277 0
M  V30 16867 O 524.427 3.58302 -5.08433 0
M  V30 16868 C 523.237 5.17448 -6.36119 0
M  V30 16869 O 522.847 4.45271 -7.53232 0
M  V30 16870 C 522.357 4.74639 -5.19936 0
M  V30 16871 C 523.067 3.49432 -4.70418 0
M  V30 16872 N 523.017 3.31776 -3.22945 0
M  V30 16873 C 523.097 4.27147 -2.23315 0
M  V30 16874 N 523.017 3.78447 -1.02186 0
M  V30 16875 C 522.877 2.41001 -1.21732 0
M  V30 16876 C 522.747 1.36111 -0.27694 0
M  V30 16877 O 522.727 1.42065 0.951767 0
M  V30 16878 N 522.627 0.113683 -0.912949 0
M  V30 16879 C 522.627 -0.0846396 -2.27943 0
M  V30 16880 N 522.497 -1.34737 -2.6916 0
M  V30 16881 N 522.757 0.902521 -3.16379 0
M  V30 16882 C 522.877 2.11937 -2.56849 0
M  V30 16883 H 525.856 6.54213 -5.71376 0
M  V30 16884 H 526.128 5.30492 -4.44033 0
M  V30 16885 H 525.26 4.55889 -6.76652 0
M  V30 16886 H 522.605 2.6176 -5.18021 0
M  V30 16887 H 522.325 5.52233 -4.41941 0
M  V30 16888 H 521.334 4.52045 -5.53452 0
M  V30 16889 H 523.168 6.25193 -6.55307 0
M  V30 16890 H 523.217 5.3351 -2.43857 0
M  V30 16891 H 522.535 -0.69331 -0.330371 0
M  V30 16892 H 522.498 -1.56433 -3.6988 0
M  V30 16893 H 522.397 -2.10701 -2.00133 0
M  V30 16894 P 521.297 4.23843 -7.83734 0
M  V30 16895 O 521.077 4.19407 -9.29784 0
M  V30 16896 O 520.507 5.24426 -7.09156 0
M  V30 16897 O 521.047 2.7935 -7.20758 0
M  V30 16898 C 521.987 1.72945 -7.50224 0
M  V30 16899 C 521.257 0.406376 -7.57911 0
M  V30 16900 O 521.047 -0.0897726 -6.21935 0
M  V30 16901 C 519.857 0.438983 -8.18724 0
M  V30 16902 O 519.467 -0.825065 -8.71101 0
M  V30 16903 C 518.977 0.783689 -6.99524 0
M  V30 16904 C 519.687 0.0619086 -5.85867 0
M  V30 16905 N 519.637 0.78573 -4.56183 0
M  V30 16906 C 519.487 0.0292889 -3.41887 0
M  V30 16907 O 519.397 -1.18445 -3.4419 0
M  V30 16908 N 519.447 0.744061 -2.23964 0
M  V30 16909 C 519.537 2.10932 -2.10362 0
M  V30 16910 O 519.487 2.64117 -0.98825 0
M  V30 16911 C 519.687 2.8202 -3.34994 0
M  V30 16912 C 519.797 4.31095 -3.25037 0
M  V30 16913 C 519.737 2.15547 -4.52261 0
M  V30 16914 H 522.478 1.93379 -8.46595 0
M  V30 16915 H 522.747 1.68132 -6.70852 0
M  V30 16916 H 521.88 -0.289041 -8.15388 0
M  V30 16917 H 519.225 -0.926847 -5.72749 0
M  V30 16918 H 518.946 1.86973 -6.82036 0
M  V30 16919 H 517.954 0.403896 -7.13257 0
M  V30 16920 H 519.788 1.20585 -8.97435 0
M  V30 16921 H 519.859 2.71231 -5.45042 0
M  V30 16922 H 518.829 4.76966 -3.49992 0
M  V30 16923 H 520.566 4.67047 -3.95024 0
M  V30 16924 H 520.078 4.58996 -2.22312 0
M  V30 16925 H 519.342 0.214893 -1.39758 0
M  V30 16926 P 517.917 -1.17771 -8.83182 0
M  V30 16927 O 517.697 -2.07206 -9.98732 0
M  V30 16928 O 517.127 0.0743816 -8.81969 0
M  V30 16929 O 517.667 -1.97652 -7.47304 0
M  V30 16930 C 518.607 -3.01133 -7.08783 0
M  V30 16931 C 517.877 -4.12613 -6.37049 0
M  V30 16932 O 517.667 -3.72827 -4.97879 0
M  V30 16933 C 516.477 -4.45085 -6.88694 0
M  V30 16934 O 516.087 -5.7877 -6.5624 0
M  V30 16935 C 515.597 -3.47817 -6.12078 0
M  V30 16936 C 516.307 -3.39414 -4.77697 0
M  V30 16937 N 516.257 -2.04615 -4.15333 0
M  V30 16938 C 516.337 -0.803897 -4.75249 0
M  V30 16939 N 516.257 0.197615 -3.91502 0
M  V30 16940 C 516.117 -0.413002 -2.66823 0
M  V30 16941 C 515.987 0.157221 -1.38007 0
M  V30 16942 N 515.867 -0.833136 -0.390236 0
M  V30 16943 C 515.867 -2.19402 -0.623885 0
M  V30 16944 N 515.737 -2.97622 0.449677 0
M  V30 16945 N 515.997 -2.73005 -1.83601 0
M  V30 16946 C 516.117 -1.78786 -2.80935 0
M  V30 16947 H 519.096 -3.41248 -7.98759 0
M  V30 16948 H 519.368 -2.5837 -6.41742 0
M  V30 16949 H 518.5 -5.02657 -6.42673 0
M  V30 16950 P 514.537 -6.144 -6.45285 0
M  V30 16951 O 514.317 -7.54673 -6.86199 0
M  V30 16952 O 513.747 -5.12391 -7.179 0
M  V30 16953 O 514.287 -5.99158 -4.88404 0
M  V30 16954 C 515.227 -6.60234 -3.96415 0
M  V30 16955 C 514.497 -7.08259 -2.72856 0
M  V30 16956 O 514.287 -5.9427 -1.83651 0
M  V30 16957 C 513.097 -7.64886 -2.9555 0
M  V30 16958 O 512.707 -8.53963 -1.90717 0
M  V30 16959 C 512.217 -6.4116 -2.90739 0
M  V30 16960 C 512.927 -5.55375 -1.86963 0
M  V30 16961 N 512.877 -4.09664 -2.15742 0
M  V30 16962 H 515.716 -7.45574 -4.45629 0
M  V30 16963 H 515.988 -5.86232 -3.67314 0
M  V30 16964 H 515.12 -7.84412 -2.24479 0
M  V30 16965 P 511.157 -8.7635 -1.60911 0
M  V30 16966 O 510.937 -10.1388 -1.11561 0
M  V30 16967 O 510.367 -8.36503 -2.79617 0
M  V30 16968 O 510.907 -7.71806 -0.42951 0
M  V30 16969 C 511.847 -7.67148 0.673689 0
M  V30 16970 C 511.117 -7.33374 1.95559 0
M  V30 16971 O 510.907 -5.88721 2.00726 0
M  V30 16972 C 509.717 -7.92526 2.10483 0
M  V30 16973 O 509.327 -8.02971 3.47653 0
M  V30 16974 C 508.837 -6.89602 1.41652 0
M  V30 16975 C 509.547 -5.59201 1.75185 0
M  V30 16976 N 509.497 -4.58301 0.657969 0
M  V30 16977 H 512.336 -8.65116 0.777161 0
M  V30 16978 H 512.608 -6.9022 0.46725 0
M  V30 16979 H 511.74 -7.66548 2.79458 0
M  V30 16980 H 509.085 -5.16165 2.65183 0
M  V30 16981 H 508.805 -7.06433 0.329384 0
M  V30 16982 H 507.814 -6.90926 1.82021 0
M  V30 16983 H 509.648 -8.90873 1.62657 0
M  V30 16984 P 507.777 -8.03563 3.84925 0
M  V30 16985 O 507.557 -8.85821 5.0569 0
M  V30 16986 O 506.987 -8.41101 2.65469 0
M  V30 16987 O 507.527 -6.4965 4.18908 0
M  V30 16988 C 508.467 -5.81037 5.05421 0
M  V30 16989 C 507.737 -4.78366 5.89277 0
M  V30 16990 O 507.527 -3.58302 5.08433 0
M  V30 16991 C 506.337 -5.17448 6.36119 0
M  V30 16992 O 505.947 -4.45271 7.53232 0
M  V30 16993 C 505.457 -4.74639 5.19936 0
M  V30 16994 C 506.167 -3.49432 4.70418 0
M  V30 16995 N 506.117 -3.31776 3.22945 0
M  V30 16996 H 508.956 -6.54213 5.71376 0
M  V30 16997 H 509.228 -5.30492 4.44033 0
M  V30 16998 H 508.36 -4.55889 6.76652 0
M  V30 16999 P 504.397 -4.23843 7.83734 0
M  V30 17000 O 504.177 -4.19407 9.29784 0
M  V30 17001 O 503.607 -5.24426 7.09156 0
M  V30 17002 O 504.147 -2.7935 7.20758 0
M  V30 17003 C 505.087 -1.7299 7.50419 0
M  V30 17004 C 504.357 -0.406376 7.57911 0
M  V30 17005 O 504.147 0.0897726 6.21935 0
M  V30 17006 C 502.957 -0.447224 8.1878 0
M  V30 17007 O 502.567 0.825065 8.71101 0
M  V30 17008 C 502.077 -0.783801 6.99623 0
M  V30 17009 C 502.787 -0.0619192 5.85967 0
M  V30 17010 N 502.737 -0.790462 4.56202 0
M  V30 17011 H 505.576 -1.93423 8.4679 0
M  V30 17012 H 505.848 -1.68852 6.70877 0
M  V30 17013 H 504.98 0.289041 8.15388 0
M  V30 17014 H 502.325 0.927006 5.72848 0
M  V30 17015 H 502.045 -1.86973 6.82036 0
M  V30 17016 H 501.054 -0.403953 7.13357 0
M  V30 17017 H 502.888 -1.20599 8.97534 0
M  V30 17018 P 501.017 1.17771 8.83182 0
M  V30 17019 O 500.797 2.07206 9.98732 0
M  V30 17020 O 500.227 -0.0743816 8.81969 0
M  V30 17021 O 500.767 1.97652 7.47304 0
M  V30 17022 C 501.707 3.01133 7.08783 0
M  V30 17023 C 500.977 4.12613 6.37049 0
M  V30 17024 O 500.767 3.72827 4.97879 0
M  V30 17025 C 499.577 4.45085 6.88694 0
M  V30 17026 O 499.187 5.7877 6.5624 0
M  V30 17027 C 498.697 3.47817 6.12078 0
M  V30 17028 C 499.407 3.39414 4.77697 0
M  V30 17029 N 499.357 2.04615 4.15333 0
M  V30 17030 H 502.196 3.41248 7.98759 0
M  V30 17031 H 502.468 2.5837 6.41742 0
M  V30 17032 H 501.6 5.02657 6.42673 0
M  V30 17033 P 497.637 6.144 6.45285 0
M  V30 17034 O 497.417 7.54673 6.86199 0
M  V30 17035 O 496.847 5.12391 7.179 0
M  V30 17036 O 497.387 5.99158 4.88404 0
M  V30 17037 C 498.327 6.60234 3.96415 0
M  V30 17038 C 497.597 7.08259 2.72856 0
M  V30 17039 O 497.387 5.9427 1.83651 0
M  V30 17040 C 496.197 7.64886 2.9555 0
M  V30 17041 O 495.807 8.53963 1.90717 0
M  V30 17042 C 495.317 6.4116 2.90739 0
M  V30 17043 C 496.027 5.55375 1.86963 0
M  V30 17044 N 495.977 4.09664 2.15742 0
M  V30 17045 H 498.816 7.45574 4.45629 0
M  V30 17046 H 499.088 5.86232 3.67314 0
M  V30 17047 H 498.22 7.84412 2.24479 0
M  V30 17048 P 494.257 8.7635 1.60911 0
M  V30 17049 O 494.037 10.1388 1.11561 0
M  V30 17050 O 493.467 8.36503 2.79617 0
M  V30 17051 O 494.007 7.71806 0.42951 0
M  V30 17052 C 494.947 7.66948 -0.673514 0
M  V30 17053 C 494.217 7.33374 -1.95559 0
M  V30 17054 O 494.007 5.88721 -2.00726 0
M  V30 17055 C 492.817 7.92218 -2.1125 0
M  V30 17056 O 492.427 8.02971 -3.47653 0
M  V30 17057 C 491.937 6.89504 -1.41631 0
M  V30 17058 C 492.647 5.59106 -1.75155 0
M  V30 17059 N 492.597 4.58136 -0.662409 0
M  V30 17060 C 492.447 3.26059 -1.02863 0
M  V30 17061 O 492.357 2.90743 -2.19009 0
M  V30 17062 N 492.407 2.35995 0.0155585 0
M  V30 17063 C 492.497 2.65248 1.35603 0
M  V30 17064 O 492.447 1.75605 2.20651 0
M  V30 17065 C 492.647 4.05747 1.64698 0
M  V30 17066 C 492.757 4.42345 3.09553 0
M  V30 17067 C 492.697 4.96734 0.652411 0
M  V30 17068 H 495.438 8.64917 -0.776982 0
M  V30 17069 H 495.707 6.89974 -0.474015 0
M  V30 17070 H 494.84 7.66548 -2.79458 0
M  V30 17071 H 492.185 5.16076 -2.65138 0
M  V30 17072 H 491.906 7.06433 -0.329384 0
M  V30 17073 H 490.914 6.90829 -1.81996 0
M  V30 17074 H 492.748 8.90774 -1.62639 0
M  V30 17075 H 492.819 6.02181 0.895285 0
M  V30 17076 H 491.789 4.80252 3.45468 0
M  V30 17077 H 493.526 5.20015 3.22119 0
M  V30 17078 H 493.038 3.53269 3.67833 0
M  V30 17079 H 492.302 1.39558 -0.227499 0
M  V30 17080 P 490.877 8.03563 -3.84925 0
M  V30 17081 O 490.657 8.85821 -5.0569 0
M  V30 17082 O 490.087 8.41101 -2.65469 0
M  V30 17083 O 490.627 6.4965 -4.18908 0
M  V30 17084 C 491.567 5.81037 -5.05421 0
M  V30 17085 C 490.837 4.78366 -5.89277 0
M  V30 17086 O 490.627 3.58302 -5.08433 0
M  V30 17087 C 489.437 5.17448 -6.36119 0
M  V30 17088 O 489.047 4.45271 -7.53232 0
M  V30 17089 C 488.557 4.74639 -5.19936 0
M  V30 17090 C 489.267 3.49432 -4.70418 0
M  V30 17091 N 489.217 3.31776 -3.22945 0
M  V30 17092 H 492.056 6.54213 -5.71376 0
M  V30 17093 H 492.328 5.30492 -4.44033 0
M  V30 17094 H 491.46 4.55889 -6.76652 0
M  V30 17095 P 487.497 4.23843 -7.83734 0
M  V30 17096 O 487.277 4.19407 -9.29784 0
M  V30 17097 O 486.707 5.24426 -7.09156 0
M  V30 17098 O 487.247 2.7935 -7.20758 0
M  V30 17099 C 488.187 1.7299 -7.50419 0
M  V30 17100 C 487.457 0.406376 -7.57911 0
M  V30 17101 O 487.247 -0.0897726 -6.21935 0
M  V30 17102 C 486.057 0.447224 -8.1878 0
M  V30 17103 O 485.667 -0.825065 -8.71101 0
M  V30 17104 C 485.177 0.783801 -6.99623 0
M  V30 17105 C 485.887 0.0619192 -5.85967 0
M  V30 17106 N 485.837 0.7859 -4.56281 0
M  V30 17107 H 488.676 1.93423 -8.4679 0
M  V30 17108 H 488.948 1.68181 -6.71046 0
M  V30 17109 H 488.08 -0.289041 -8.15388 0
M  V30 17110 P 484.117 -1.17771 -8.83182 0
M  V30 17111 O 483.897 -2.07206 -9.98732 0
M  V30 17112 O 483.327 0.0743816 -8.81969 0
M  V30 17113 O 483.867 -1.97652 -7.47304 0
M  V30 17114 C 484.807 -3.01133 -7.08783 0
M  V30 17115 C 484.077 -4.12613 -6.37049 0
M  V30 17116 O 483.867 -3.72827 -4.97879 0
M  V30 17117 C 482.677 -4.45085 -6.88694 0
M  V30 17118 O 482.287 -5.7877 -6.5624 0
M  V30 17119 C 481.797 -3.47817 -6.12078 0
M  V30 17120 C 482.507 -3.39414 -4.77697 0
M  V30 17121 N 482.457 -2.04615 -4.15333 0
M  V30 17122 H 485.296 -3.41248 -7.98759 0
M  V30 17123 H 485.568 -2.5837 -6.41742 0
M  V30 17124 H 484.7 -5.02657 -6.42673 0
M  V30 17125 P 480.737 -6.144 -6.45285 0
M  V30 17126 O 480.517 -7.54673 -6.86199 0
M  V30 17127 O 479.947 -5.12391 -7.179 0
M  V30 17128 O 480.487 -5.99158 -4.88404 0
M  V30 17129 C 481.427 -6.60234 -3.96415 0
M  V30 17130 C 480.697 -7.08259 -2.72856 0
M  V30 17131 O 480.487 -5.9427 -1.83651 0
M  V30 17132 C 479.297 -7.64886 -2.9555 0
M  V30 17133 O 478.907 -8.53963 -1.90717 0
M  V30 17134 C 478.417 -6.4116 -2.90739 0
M  V30 17135 C 479.127 -5.55375 -1.86963 0
M  V30 17136 N 479.077 -4.09448 -2.16152 0
M  V30 17137 C 479.157 -3.46824 -3.37593 0
M  V30 17138 N 479.087 -2.17422 -3.29777 0
M  V30 17139 C 478.937 -1.93065 -1.94427 0
M  V30 17140 C 478.807 -0.738053 -1.20141 0
M  V30 17141 N 478.797 0.474256 -1.74676 0
M  V30 17142 N 478.687 -0.850049 0.13045 0
M  V30 17143 C 478.697 -2.06169 0.676992 0
M  V30 17144 N 478.817 -3.23842 0.101312 0
M  V30 17145 C 478.937 -3.09402 -1.23122 0
M  V30 17146 H 481.916 -7.45574 -4.45629 0
M  V30 17147 H 482.188 -5.85864 -3.679 0
M  V30 17148 H 481.32 -7.84412 -2.24479 0
M  V30 17149 H 478.665 -5.73457 -0.888562 0
M  V30 17150 H 478.385 -5.90877 -3.88583 0
M  V30 17151 H 477.394 -6.6596 -2.58858 0
M  V30 17152 H 479.228 -8.16339 -3.92049 0
M  V30 17153 H 479.269 -4.00505 -4.3174 0
M  V30 17154 H 478.888 0.581337 -2.76658 0
M  V30 17155 H 478.699 1.30811 -1.14888 0
M  V30 17156 H 478.591 -2.08295 1.75542 0
M  V30 17157 P 477.357 -8.7635 -1.60911 0
M  V30 17158 O 477.137 -10.1388 -1.11561 0
M  V30 17159 O 476.567 -8.36503 -2.79617 0
M  V30 17160 O 477.107 -7.71806 -0.42951 0
M  V30 17161 C 478.047 -7.67148 0.673689 0
M  V30 17162 C 477.317 -7.33374 1.95559 0
M  V30 17163 O 477.107 -5.88721 2.00726 0
M  V30 17164 C 475.917 -7.92526 2.10483 0
M  V30 17165 O 475.527 -8.02971 3.47653 0
M  V30 17166 C 475.037 -6.89602 1.41652 0
M  V30 17167 C 475.747 -5.59201 1.75185 0
M  V30 17168 N 475.697 -4.58301 0.657969 0
M  V30 17169 H 478.536 -8.65116 0.777161 0
M  V30 17170 H 478.808 -6.9022 0.46725 0
M  V30 17171 H 477.94 -7.66548 2.79458 0
M  V30 17172 H 475.285 -5.16165 2.65183 0
M  V30 17173 H 475.005 -7.06433 0.329384 0
M  V30 17174 H 474.014 -6.90926 1.82021 0
M  V30 17175 H 475.848 -8.90873 1.62657 0
M  V30 17176 P 473.977 -8.03563 3.84925 0
M  V30 17177 O 473.757 -8.85821 5.0569 0
M  V30 17178 O 473.187 -8.41101 2.65469 0
M  V30 17179 O 473.727 -6.4965 4.18908 0
M  V30 17180 C 474.667 -5.81037 5.05421 0
M  V30 17181 C 473.937 -4.78366 5.89277 0
M  V30 17182 O 473.727 -3.58302 5.08433 0
M  V30 17183 C 472.537 -5.17448 6.36119 0
M  V30 17184 O 472.147 -4.45271 7.53232 0
M  V30 17185 C 471.657 -4.74639 5.19936 0
M  V30 17186 C 472.367 -3.49432 4.70418 0
M  V30 17187 N 472.317 -3.31776 3.22945 0
M  V30 17188 H 475.156 -6.54213 5.71376 0
M  V30 17189 H 475.428 -5.30492 4.44033 0
M  V30 17190 H 474.56 -4.55889 6.76652 0
M  V30 17191 P 470.597 -4.23843 7.83734 0
M  V30 17192 O 470.377 -4.19407 9.29784 0
M  V30 17193 O 469.807 -5.24426 7.09156 0
M  V30 17194 O 470.347 -2.7935 7.20758 0
M  V30 17195 C 471.287 -1.7299 7.50419 0
M  V30 17196 C 470.557 -0.406376 7.57911 0
M  V30 17197 O 470.347 0.0897726 6.21935 0
M  V30 17198 C 469.157 -0.447224 8.1878 0
M  V30 17199 O 468.767 0.825065 8.71101 0
M  V30 17200 C 468.277 -0.783801 6.99623 0
M  V30 17201 C 468.987 -0.0619192 5.85967 0
M  V30 17202 N 468.937 -0.7859 4.56281 0
M  V30 17203 H 471.776 -1.93423 8.4679 0
M  V30 17204 H 472.048 -1.68181 6.71046 0
M  V30 17205 H 471.18 0.289041 8.15388 0
M  V30 17206 P 467.217 1.17771 8.83182 0
M  V30 17207 O 466.997 2.07206 9.98732 0
M  V30 17208 O 466.427 -0.0743816 8.81969 0
M  V30 17209 O 466.967 1.97678 7.474 0
M  V30 17210 C 467.907 3.01133 7.08783 0
M  V30 17211 C 467.177 4.1203 6.37546 0
M  V30 17212 O 466.967 3.72887 4.9796 0
M  V30 17213 C 465.777 4.45085 6.88694 0
M  V30 17214 O 465.387 5.78836 6.56315 0
M  V30 17215 C 464.897 3.47817 6.12078 0
M  V30 17216 C 465.607 3.39414 4.77697 0
M  V30 17217 N 465.557 2.04615 4.15333 0
M  V30 17218 C 465.407 1.96929 2.77162 0
M  V30 17219 O 465.317 3.02017 2.12006 0
M  V30 17220 N 465.357 0.55485 2.24237 0
M  V30 17221 C 465.457 -0.367808 2.9169 0
M  V30 17222 N 465.407 -1.53426 2.29427 0
M  V30 17223 C 465.607 -0.319148 4.33828 0
M  V30 17224 C 465.657 0.920672 4.90433 0
M  V30 17225 H 468.397 3.41209 7.98667 0
M  V30 17226 H 468.667 2.5837 6.41742 0
M  V30 17227 H 467.8 5.02718 6.42752 0
M  V30 17228 H 465.145 4.11779 4.09026 0
M  V30 17229 H 464.865 2.49661 6.61772 0
M  V30 17230 H 463.874 3.86674 6.00946 0
M  V30 17231 H 465.708 4.29991 7.97006 0
M  V30 17232 H 465.78 1.00589 5.98303 0
M  V30 17233 H 465.678 -1.22639 4.93799 0
M  V30 17234 H 465.29 -1.56819 1.27167 0
M  V30 17235 H 465.486 -2.41062 2.83063 0
M  V30 17236 P 463.837 6.144 6.45285 0
M  V30 17237 O 463.617 7.54673 6.86199 0
M  V30 17238 O 463.047 5.12391 7.179 0
M  V30 17239 O 463.587 5.99158 4.88404 0
M  V30 17240 C 464.527 6.60234 3.96415 0
M  V30 17241 C 463.797 7.08259 2.72856 0
M  V30 17242 O 463.587 5.9427 1.83651 0
M  V30 17243 C 462.397 7.64886 2.9555 0
M  V30 17244 O 462.007 8.53963 1.90717 0
M  V30 17245 C 461.517 6.4116 2.90739 0
M  V30 17246 C 462.227 5.55375 1.86963 0
M  V30 17247 N 462.177 4.09664 2.15742 0
M  V30 17248 H 465.016 7.45574 4.45629 0
M  V30 17249 H 465.288 5.86232 3.67314 0
M  V30 17250 H 464.42 7.84412 2.24479 0
M  V30 17251 P 460.457 8.7635 1.60911 0
M  V30 17252 O 460.237 10.1388 1.11561 0
M  V30 17253 O 459.667 8.36503 2.79617 0
M  V30 17254 O 460.207 7.71806 0.42951 0
M  V30 17255 C 461.147 7.67148 -0.673689 0
M  V30 17256 C 460.417 7.33374 -1.95559 0
M  V30 17257 O 460.207 5.88721 -2.00726 0
M  V30 17258 C 459.017 7.92526 -2.10483 0
M  V30 17259 O 458.627 8.02971 -3.47653 0
M  V30 17260 C 458.137 6.89602 -1.41652 0
M  V30 17261 C 458.847 5.59201 -1.75185 0
M  V30 17262 N 458.797 4.58235 -0.662552 0
M  V30 17263 H 461.636 8.65116 -0.777161 0
M  V30 17264 H 461.908 6.90173 -0.474152 0
M  V30 17265 H 461.04 7.66548 -2.79458 0
M  V30 17266 P 457.077 8.03563 -3.84925 0
M  V30 17267 O 456.857 8.85821 -5.0569 0
M  V30 17268 O 456.287 8.41101 -2.65469 0
M  V30 17269 O 456.827 6.4965 -4.18908 0
M  V30 17270 C 457.767 5.81037 -5.05421 0
M  V30 17271 C 457.037 4.78366 -5.89277 0
M  V30 17272 O 456.827 3.58302 -5.08433 0
M  V30 17273 C 455.637 5.17448 -6.36119 0
M  V30 17274 O 455.247 4.45271 -7.53232 0
M  V30 17275 C 454.757 4.74639 -5.19936 0
M  V30 17276 C 455.467 3.49432 -4.70418 0
M  V30 17277 N 455.417 3.32099 -3.22613 0
M  V30 17278 C 455.497 4.28245 -2.25527 0
M  V30 17279 N 455.427 3.80823 -1.04874 0
M  V30 17280 C 455.277 2.44571 -1.23535 0
M  V30 17281 C 455.147 1.37068 -0.330675 0
M  V30 17282 N 455.137 1.51472 0.990824 0
M  V30 17283 N 455.027 0.138614 -0.848756 0
M  V30 17284 C 455.037 -0.00675923 -2.16999 0
M  V30 17285 N 455.157 0.904372 -3.11122 0
M  V30 17286 C 455.277 2.12707 -2.56212 0
M  V30 17287 H 458.256 6.54213 -5.71376 0
M  V30 17288 H 458.528 5.30936 -4.43503 0
M  V30 17289 H 457.66 4.55889 -6.76652 0
M  V30 17290 H 455.005 2.61715 -5.17932 0
M  V30 17291 H 454.725 5.52155 -4.41878 0
M  V30 17292 H 453.734 4.51981 -5.53374 0
M  V30 17293 H 455.568 6.25124 -6.55234 0
M  V30 17294 H 455.609 5.34372 -2.47488 0
M  V30 17295 H 455.228 2.45153 1.4078 0
M  V30 17296 H 455.039 0.688422 1.59911 0
M  V30 17297 H 454.931 -1.02584 -2.52346 0
M  V30 17298 P 453.697 4.23843 -7.83734 0
M  V30 17299 O 453.477 4.19407 -9.29784 0
M  V30 17300 O 452.907 5.24426 -7.09156 0
M  V30 17301 O 453.447 2.7935 -7.20758 0
M  V30 17302 C 454.387 1.7299 -7.50419 0
M  V30 17303 C 453.657 0.406376 -7.57911 0
M  V30 17304 O 453.447 -0.0897726 -6.21935 0
M  V30 17305 C 452.257 0.447224 -8.1878 0
M  V30 17306 O 451.867 -0.825065 -8.71101 0
M  V30 17307 C 451.377 0.783801 -6.99623 0
M  V30 17308 C 452.087 0.0619192 -5.85967 0
M  V30 17309 N 452.037 0.790462 -4.56202 0
M  V30 17310 H 454.876 1.93423 -8.4679 0
M  V30 17311 H 455.148 1.68852 -6.70877 0
M  V30 17312 H 454.28 -0.289041 -8.15388 0
M  V30 17313 H 451.625 -0.927006 -5.72848 0
M  V30 17314 H 451.345 1.86973 -6.82036 0
M  V30 17315 H 450.354 0.403953 -7.13357 0
M  V30 17316 H 452.188 1.20599 -8.97534 0
M  V30 17317 P 450.317 -1.17771 -8.83182 0
M  V30 17318 O 450.097 -2.07206 -9.98732 0
M  V30 17319 O 449.527 0.0743816 -8.81969 0
M  V30 17320 O 450.067 -1.97652 -7.47304 0
M  V30 17321 C 451.007 -3.01133 -7.08783 0
M  V30 17322 C 450.277 -4.12613 -6.37049 0
M  V30 17323 O 450.067 -3.72827 -4.97879 0
M  V30 17324 C 448.877 -4.45085 -6.88694 0
M  V30 17325 O 448.487 -5.7877 -6.5624 0
M  V30 17326 C 447.997 -3.47817 -6.12078 0
M  V30 17327 C 448.707 -3.39414 -4.77697 0
M  V30 17328 N 448.657 -2.04199 -4.15538 0
M  V30 17329 H 451.496 -3.41248 -7.98759 0
M  V30 17330 H 451.768 -2.57728 -6.42 0
M  V30 17331 H 450.9 -5.02657 -6.42673 0
M  V30 17332 H 448.245 -4.11708 -4.08956 0
M  V30 17333 H 447.965 -2.49626 -6.61679 0
M  V30 17334 H 446.974 -3.8662 -6.00862 0
M  V30 17335 H 448.808 -4.29991 -7.97006 0
M  V30 17336 P 446.937 -6.144 -6.45285 0
M  V30 17337 O 446.717 -7.54673 -6.86199 0
M  V30 17338 O 446.147 -5.12391 -7.179 0
M  V30 17339 O 446.687 -5.99158 -4.88404 0
M  V30 17340 C 447.627 -6.60234 -3.96415 0
M  V30 17341 C 446.897 -7.08259 -2.72856 0
M  V30 17342 O 446.687 -5.9427 -1.83651 0
M  V30 17343 C 445.497 -7.64886 -2.9555 0
M  V30 17344 O 445.107 -8.53963 -1.90717 0
M  V30 17345 C 444.617 -6.4116 -2.90739 0
M  V30 17346 C 445.327 -5.55375 -1.86963 0
M  V30 17347 N 445.277 -4.09448 -2.16152 0
M  V30 17348 H 448.116 -7.45574 -4.45629 0
M  V30 17349 H 448.388 -5.85864 -3.679 0
M  V30 17350 H 447.52 -7.84412 -2.24479 0
M  V30 17351 H 444.865 -5.73457 -0.888562 0
M  V30 17352 H 444.585 -5.90877 -3.88583 0
M  V30 17353 H 443.594 -6.6596 -2.58858 0
M  V30 17354 H 445.428 -8.16339 -3.92049 0
M  V30 17355 P 443.557 -8.7635 -1.60911 0
M  V30 17356 O 443.337 -10.1388 -1.11561 0
M  V30 17357 O 442.767 -8.36503 -2.79617 0
M  V30 17358 O 443.307 -7.71806 -0.42951 0
M  V30 17359 C 444.247 -7.67148 0.673689 0
M  V30 17360 C 443.517 -7.33374 1.95559 0
M  V30 17361 O 443.307 -5.88721 2.00726 0
M  V30 17362 C 442.117 -7.92526 2.10483 0
M  V30 17363 O 441.727 -8.02971 3.47653 0
M  V30 17364 C 441.237 -6.89602 1.41652 0
M  V30 17365 C 441.947 -5.59201 1.75185 0
M  V30 17366 N 441.897 -4.58235 0.662552 0
M  V30 17367 C 441.977 -4.7683 -0.704049 0
M  V30 17368 N 441.897 -3.66233 -1.39775 0
M  V30 17369 C 441.757 -2.66526 -0.431739 0
M  V30 17370 C 441.627 -1.26394 -0.575992 0
M  V30 17371 N 441.507 -0.62859 0.67177 0
M  V30 17372 C 441.507 -1.27134 1.89385 0
M  V30 17373 N 441.377 -0.492035 2.96951 0
M  V30 17374 N 441.637 -2.58978 2.02907 0
M  V30 17375 C 441.757 -3.22433 0.832218 0
M  V30 17376 H 444.736 -8.65116 0.777161 0
M  V30 17377 H 445.008 -6.90173 0.474152 0
M  V30 17378 H 444.14 -7.66548 2.79458 0
M  V30 17379 P 440.177 -8.03563 3.84925 0
M  V30 17380 O 439.957 -8.85821 5.0569 0
M  V30 17381 O 439.387 -8.41101 2.65469 0
M  V30 17382 O 439.927 -6.4965 4.18908 0
M  V30 17383 C 440.867 -5.81037 5.05421 0
M  V30 17384 C 440.137 -4.78366 5.89277 0
M  V30 17385 O 439.927 -3.58302 5.08433 0
M  V30 17386 C 438.737 -5.17448 6.36119 0
M  V30 17387 O 438.347 -4.45271 7.53232 0
M  V30 17388 C 437.857 -4.74639 5.19936 0
M  V30 17389 C 438.567 -3.49432 4.70418 0
M  V30 17390 N 438.517 -3.32099 3.22613 0
M  V30 17391 H 441.356 -6.54213 5.71376 0
M  V30 17392 H 441.628 -5.30936 4.43503 0
M  V30 17393 H 440.76 -4.55889 6.76652 0
M  V30 17394 H 438.105 -2.61715 5.17932 0
M  V30 17395 H 437.825 -5.52155 4.41878 0
M  V30 17396 H 436.834 -4.51981 5.53374 0
M  V30 17397 H 438.668 -6.25124 6.55234 0
M  V30 17398 P 436.797 -4.23843 7.83734 0
M  V30 17399 O 436.577 -4.19407 9.29784 0
M  V30 17400 O 436.007 -5.24426 7.09156 0
M  V30 17401 O 436.547 -2.7935 7.20758 0
M  V30 17402 C 437.487 -1.72945 7.50224 0
M  V30 17403 C 436.757 -0.406376 7.57911 0
M  V30 17404 O 436.547 0.0897726 6.21935 0
M  V30 17405 C 435.357 -0.438983 8.18724 0
M  V30 17406 O 434.967 0.825065 8.71101 0
M  V30 17407 C 434.477 -0.783689 6.99524 0
M  V30 17408 C 435.187 -0.0619086 5.85867 0
M  V30 17409 N 435.137 -0.78573 4.56183 0
M  V30 17410 C 434.987 -0.0292889 3.41887 0
M  V30 17411 O 434.897 1.18445 3.4419 0
M  V30 17412 N 434.947 -0.744061 2.23964 0
M  V30 17413 C 435.037 -2.10932 2.10362 0
M  V30 17414 C 435.187 -2.8202 3.34994 0
M  V30 17415 C 435.237 -2.15547 4.52261 0
M  V30 17416 H 437.978 -1.93379 8.46595 0
M  V30 17417 H 438.247 -1.68132 6.70852 0
M  V30 17418 H 437.38 0.289041 8.15388 0
M  V30 17419 H 434.725 0.926847 5.72749 0
M  V30 17420 H 434.446 -1.86973 6.82036 0
M  V30 17421 H 433.454 -0.403896 7.13257 0
M  V30 17422 H 435.288 -1.20585 8.97435 0
M  V30 17423 H 435.359 -2.71231 5.45042 0
M  V30 17424 P 433.417 1.17771 8.83182 0
M  V30 17425 O 433.197 2.07206 9.98732 0
M  V30 17426 O 432.627 -0.0743816 8.81969 0
M  V30 17427 O 433.167 1.97652 7.47304 0
M  V30 17428 C 434.107 3.01055 7.08599 0
M  V30 17429 C 433.377 4.12613 6.37049 0
M  V30 17430 O 433.167 3.72827 4.97879 0
M  V30 17431 C 431.977 4.45719 6.88164 0
M  V30 17432 O 431.587 5.7877 6.5624 0
M  V30 17433 C 431.097 3.47768 6.11991 0
M  V30 17434 C 431.807 3.39356 4.77615 0
M  V30 17435 N 431.757 2.04571 4.15244 0
M  V30 17436 C 431.607 1.98587 2.78314 0
M  V30 17437 O 431.517 2.98134 2.08835 0
M  V30 17438 N 431.567 0.714467 2.24925 0
M  V30 17439 C 431.657 -0.470001 2.94169 0
M  V30 17440 C 431.807 -0.312541 4.36783 0
M  V30 17441 C 431.857 0.914512 4.92583 0
M  V30 17442 H 434.598 3.41169 7.98575 0
M  V30 17443 H 434.867 2.58295 6.41556 0
M  V30 17444 H 434 5.02657 6.42673 0
M  V30 17445 H 431.345 4.11637 4.08885 0
M  V30 17446 H 431.066 2.49626 6.61679 0
M  V30 17447 H 430.074 3.86566 6.00778 0
M  V30 17448 H 431.908 4.29943 7.96918 0
M  V30 17449 H 431.979 1.00937 6.00374 0
M  V30 17450 P 430.037 6.144 6.45285 0
M  V30 17451 O 429.817 7.54673 6.86199 0
M  V30 17452 O 429.247 5.12391 7.179 0
M  V30 17453 O 429.787 5.99158 4.88404 0
M  V30 17454 C 430.727 6.60234 3.96415 0
M  V30 17455 C 429.997 7.08259 2.72856 0
M  V30 17456 O 429.787 5.9427 1.83651 0
M  V30 17457 C 428.597 7.64886 2.9555 0
M  V30 17458 O 428.207 8.53963 1.90717 0
M  V30 17459 C 427.717 6.4116 2.90739 0
M  V30 17460 C 428.427 5.55375 1.86963 0
M  V30 17461 N 428.377 4.09664 2.15742 0
M  V30 17462 H 431.216 7.45574 4.45629 0
M  V30 17463 H 431.488 5.86232 3.67314 0
M  V30 17464 H 430.62 7.84412 2.24479 0
M  V30 17465 P 426.657 8.7635 1.60911 0
M  V30 17466 O 426.437 10.1388 1.11561 0
M  V30 17467 O 425.867 8.36503 2.79617 0
M  V30 17468 O 426.407 7.71806 0.42951 0
M  V30 17469 C 427.347 7.67148 -0.673689 0
M  V30 17470 C 426.617 7.33374 -1.95559 0
M  V30 17471 O 426.407 5.88721 -2.00726 0
M  V30 17472 C 425.217 7.92526 -2.10483 0
M  V30 17473 O 424.827 8.02971 -3.47653 0
M  V30 17474 C 424.337 6.89602 -1.41652 0
M  V30 17475 C 425.047 5.59201 -1.75185 0
M  V30 17476 N 424.997 4.58235 -0.662552 0
M  V30 17477 H 427.836 8.65116 -0.777161 0
M  V30 17478 H 428.108 6.90173 -0.474152 0
M  V30 17479 H 427.24 7.66548 -2.79458 0
M  V30 17480 P 423.278 8.03563 -3.84925 0
M  V30 17481 O 423.058 8.85821 -5.0569 0
M  V30 17482 O 422.488 8.41101 -2.65469 0
M  V30 17483 O 423.028 6.4965 -4.18908 0
M  V30 17484 C 423.968 5.81037 -5.05421 0
M  V30 17485 C 423.238 4.78366 -5.89277 0
M  V30 17486 O 423.028 3.58302 -5.08433 0
M  V30 17487 C 421.838 5.17448 -6.36119 0
M  V30 17488 O 421.448 4.45271 -7.53232 0
M  V30 17489 C 420.958 4.74639 -5.19936 0
M  V30 17490 C 421.668 3.49432 -4.70418 0
M  V30 17491 N 421.618 3.31776 -3.22945 0
M  V30 17492 H 424.457 6.54213 -5.71376 0
M  V30 17493 H 424.729 5.30492 -4.44033 0
M  V30 17494 H 423.861 4.55889 -6.76652 0
M  V30 17495 P 419.898 4.23843 -7.83734 0
M  V30 17496 O 419.678 4.19407 -9.29784 0
M  V30 17497 O 419.108 5.24426 -7.09156 0
M  V30 17498 O 419.648 2.7935 -7.20758 0
M  V30 17499 C 420.588 1.7299 -7.50419 0
M  V30 17500 C 419.858 0.406376 -7.57911 0
M  V30 17501 O 419.648 -0.0897726 -6.21935 0
M  V30 17502 C 418.458 0.447224 -8.1878 0
M  V30 17503 O 418.068 -0.825065 -8.71101 0
M  V30 17504 C 417.578 0.783801 -6.99623 0
M  V30 17505 C 418.288 0.0619192 -5.85967 0
M  V30 17506 N 418.238 0.7859 -4.56281 0
M  V30 17507 H 421.077 1.93423 -8.4679 0
M  V30 17508 H 421.349 1.68181 -6.71046 0
M  V30 17509 H 420.481 -0.289041 -8.15388 0
M  V30 17510 P 416.518 -1.17771 -8.83182 0
M  V30 17511 O 416.298 -2.07206 -9.98732 0
M  V30 17512 O 415.728 0.0743816 -8.81969 0
M  V30 17513 O 416.268 -1.97652 -7.47304 0
M  V30 17514 C 417.208 -3.01133 -7.08783 0
M  V30 17515 C 416.478 -4.12613 -6.37049 0
M  V30 17516 O 416.268 -3.72827 -4.97879 0
M  V30 17517 C 415.078 -4.45085 -6.88694 0
M  V30 17518 O 414.688 -5.7877 -6.5624 0
M  V30 17519 C 414.198 -3.47817 -6.12078 0
M  V30 17520 C 414.908 -3.39414 -4.77697 0
M  V30 17521 N 414.858 -2.04615 -4.15333 0
M  V30 17522 H 417.697 -3.41248 -7.98759 0
M  V30 17523 H 417.969 -2.5837 -6.41742 0
M  V30 17524 H 417.101 -5.02657 -6.42673 0
M  V30 17525 P 413.138 -6.144 -6.45285 0
M  V30 17526 O 412.918 -7.54673 -6.86199 0
M  V30 17527 O 412.348 -5.12391 -7.179 0
M  V30 17528 O 412.888 -5.99158 -4.88404 0
M  V30 17529 C 413.828 -6.60234 -3.96415 0
M  V30 17530 C 413.098 -7.08259 -2.72856 0
M  V30 17531 O 412.888 -5.9427 -1.83651 0
M  V30 17532 C 411.698 -7.64886 -2.9555 0
M  V30 17533 O 411.308 -8.53963 -1.90717 0
M  V30 17534 C 410.818 -6.4116 -2.90739 0
M  V30 17535 C 411.528 -5.55375 -1.86963 0
M  V30 17536 N 411.478 -4.09448 -2.16152 0
M  V30 17537 H 414.317 -7.45574 -4.45629 0
M  V30 17538 H 414.589 -5.85864 -3.679 0
M  V30 17539 H 413.721 -7.84412 -2.24479 0
M  V30 17540 H 411.066 -5.73457 -0.888562 0
M  V30 17541 H 410.786 -5.90877 -3.88583 0
M  V30 17542 H 409.795 -6.6596 -2.58858 0
M  V30 17543 H 411.629 -8.16339 -3.92049 0
M  V30 17544 P 409.758 -8.7635 -1.60911 0
M  V30 17545 O 409.538 -10.1388 -1.11561 0
M  V30 17546 O 408.968 -8.36503 -2.79617 0
M  V30 17547 O 409.508 -7.71906 -0.429565 0
M  V30 17548 C 410.448 -7.67148 0.673689 0
M  V30 17549 C 409.718 -7.33666 1.94851 0
M  V30 17550 O 409.508 -5.88816 2.00759 0
M  V30 17551 C 408.318 -7.92526 2.10483 0
M  V30 17552 O 407.928 -8.03063 3.47693 0
M  V30 17553 C 407.438 -6.89602 1.41652 0
M  V30 17554 C 408.148 -5.59201 1.75185 0
M  V30 17555 N 408.098 -4.58235 0.662552 0
M  V30 17556 C 407.948 -3.24451 1.01643 0
M  V30 17557 O 407.858 -2.94958 2.21722 0
M  V30 17558 N 407.898 -2.30408 -0.165238 0
M  V30 17559 C 407.998 -2.66048 -1.25118 0
M  V30 17560 N 407.948 -1.70787 -2.16813 0
M  V30 17561 C 408.148 -4.02732 -1.64413 0
M  V30 17562 C 408.198 -4.9488 -0.63991 0
M  V30 17563 H 410.938 -8.65017 0.777072 0
M  V30 17564 H 411.208 -6.90173 0.474152 0
M  V30 17565 H 410.341 -7.66642 2.79492 0
M  V30 17566 H 407.686 -5.16254 2.65229 0
M  V30 17567 H 407.406 -7.06532 0.329431 0
M  V30 17568 H 406.415 -6.91023 1.82047 0
M  V30 17569 H 408.249 -8.90873 1.62657 0
M  V30 17570 H 408.321 -6.00104 -0.892197 0
M  V30 17571 H 408.219 -4.31733 -2.69229 0
M  V30 17572 H 407.831 -0.724835 -1.8844 0
M  V30 17573 H 408.027 -1.94716 -3.16734 0
M  V30 17574 P 406.378 -8.03563 3.84925 0
M  V30 17575 O 406.158 -8.85821 5.0569 0
M  V30 17576 O 405.588 -8.41101 2.65469 0
M  V30 17577 O 406.128 -6.4965 4.18908 0
M  V30 17578 C 407.068 -5.81037 5.05421 0
M  V30 17579 C 406.338 -4.78366 5.89277 0
M  V30 17580 O 406.128 -3.58302 5.08433 0
M  V30 17581 C 404.938 -5.17448 6.36119 0
M  V30 17582 O 404.548 -4.45271 7.53232 0
M  V30 17583 C 404.058 -4.74639 5.19936 0
M  V30 17584 C 404.768 -3.49432 4.70418 0
M  V30 17585 N 404.718 -3.32099 3.22613 0
M  V30 17586 C 404.798 -4.28245 2.25527 0
M  V30 17587 N 404.728 -3.80823 1.04874 0
M  V30 17588 C 404.578 -2.44571 1.23535 0
M  V30 17589 C 404.448 -1.37068 0.330675 0
M  V30 17590 N 404.438 -1.51472 -0.990824 0
M  V30 17591 N 404.328 -0.138614 0.848756 0
M  V30 17592 C 404.338 0.00675923 2.16999 0
M  V30 17593 N 404.458 -0.904372 3.11122 0
M  V30 17594 C 404.578 -2.12707 2.56212 0
M  V30 17595 H 407.557 -6.54213 5.71376 0
M  V30 17596 H 407.829 -5.30936 4.43503 0
M  V30 17597 H 406.961 -4.55889 6.76652 0
M  V30 17598 H 404.306 -2.61715 5.17932 0
M  V30 17599 H 404.026 -5.52155 4.41878 0
M  V30 17600 H 403.035 -4.51981 5.53374 0
M  V30 17601 H 404.869 -6.25124 6.55234 0
M  V30 17602 H 404.91 -5.34372 2.47488 0
M  V30 17603 H 404.529 -2.45153 -1.4078 0
M  V30 17604 H 404.34 -0.688422 -1.59911 0
M  V30 17605 H 404.232 1.02584 2.52346 0
M  V30 17606 P 402.998 -4.23843 7.83734 0
M  V30 17607 O 402.778 -4.19407 9.29784 0
M  V30 17608 O 402.208 -5.24426 7.09156 0
M  V30 17609 O 402.748 -2.7935 7.20758 0
M  V30 17610 C 403.688 -1.7299 7.50419 0
M  V30 17611 C 402.958 -0.406376 7.57911 0
M  V30 17612 O 402.748 0.0897726 6.21935 0
M  V30 17613 C 401.558 -0.447224 8.1878 0
M  V30 17614 O 401.168 0.825065 8.71101 0
M  V30 17615 C 400.678 -0.783801 6.99623 0
M  V30 17616 C 401.388 -0.0619192 5.85967 0
M  V30 17617 N 401.338 -0.7859 4.56281 0
M  V30 17618 H 404.177 -1.93423 8.4679 0
M  V30 17619 H 404.449 -1.68181 6.71046 0
M  V30 17620 H 403.581 0.289041 8.15388 0
M  V30 17621 P 399.618 1.17771 8.83182 0
M  V30 17622 O 399.398 2.07206 9.98732 0
M  V30 17623 O 398.828 -0.0743816 8.81969 0
M  V30 17624 O 399.368 1.97652 7.47304 0
M  V30 17625 C 400.308 3.01133 7.08783 0
M  V30 17626 C 399.578 4.12613 6.37049 0
M  V30 17627 O 399.368 3.72827 4.97879 0
M  V30 17628 C 398.178 4.45085 6.88694 0
M  V30 17629 O 397.788 5.7877 6.5624 0
M  V30 17630 C 397.298 3.47817 6.12078 0
M  V30 17631 C 398.008 3.39414 4.77697 0
M  V30 17632 N 397.958 2.04615 4.15333 0
M  V30 17633 H 400.797 3.41248 7.98759 0
M  V30 17634 H 401.069 2.5837 6.41742 0
M  V30 17635 H 400.201 5.02657 6.42673 0
M  V30 17636 P 396.238 6.144 6.45285 0
M  V30 17637 O 396.018 7.54673 6.86199 0
M  V30 17638 O 395.448 5.12391 7.179 0
M  V30 17639 O 395.988 5.99158 4.88404 0
M  V30 17640 C 396.928 6.60234 3.96415 0
M  V30 17641 C 396.198 7.08259 2.72856 0
M  V30 17642 O 395.988 5.9427 1.83651 0
M  V30 17643 C 394.798 7.64886 2.9555 0
M  V30 17644 O 394.408 8.53963 1.90717 0
M  V30 17645 C 393.918 6.4116 2.90739 0
M  V30 17646 C 394.628 5.55375 1.86963 0
M  V30 17647 N 394.578 4.09664 2.15742 0
M  V30 17648 H 397.417 7.45574 4.45629 0
M  V30 17649 H 397.689 5.86232 3.67314 0
M  V30 17650 H 396.821 7.84412 2.24479 0
M  V30 17651 P 392.858 8.7635 1.60911 0
M  V30 17652 O 392.638 10.1388 1.11561 0
M  V30 17653 O 392.068 8.36503 2.79617 0
M  V30 17654 O 392.608 7.71806 0.42951 0
M  V30 17655 C 393.548 7.67148 -0.673689 0
M  V30 17656 C 392.818 7.33374 -1.95559 0
M  V30 17657 O 392.608 5.88721 -2.00726 0
M  V30 17658 C 391.418 7.92526 -2.10483 0
M  V30 17659 O 391.028 8.02971 -3.47653 0
M  V30 17660 C 390.538 6.89602 -1.41652 0
M  V30 17661 C 391.248 5.59201 -1.75185 0
M  V30 17662 N 391.198 4.58235 -0.662552 0
M  V30 17663 H 394.037 8.65116 -0.777161 0
M  V30 17664 H 394.309 6.90173 -0.474152 0
M  V30 17665 H 393.441 7.66548 -2.79458 0
M  V30 17666 P 389.478 8.03563 -3.84925 0
M  V30 17667 O 389.258 8.85821 -5.0569 0
M  V30 17668 O 388.688 8.41101 -2.65469 0
M  V30 17669 O 389.228 6.4965 -4.18908 0
M  V30 17670 C 390.168 5.81037 -5.05421 0
M  V30 17671 C 389.438 4.78366 -5.89277 0
M  V30 17672 O 389.228 3.58302 -5.08433 0
M  V30 17673 C 388.038 5.17448 -6.36119 0
M  V30 17674 O 387.648 4.45271 -7.53232 0
M  V30 17675 C 387.158 4.74639 -5.19936 0
M  V30 17676 C 387.868 3.49432 -4.70418 0
M  V30 17677 N 387.818 3.32099 -3.22613 0
M  V30 17678 H 390.657 6.54213 -5.71376 0
M  V30 17679 H 390.929 5.30936 -4.43503 0
M  V30 17680 H 390.061 4.55889 -6.76652 0
M  V30 17681 H 387.406 2.61715 -5.17932 0
M  V30 17682 H 387.126 5.52155 -4.41878 0
M  V30 17683 H 386.135 4.51981 -5.53374 0
M  V30 17684 H 387.969 6.25124 -6.55234 0
M  V30 17685 P 386.098 4.23843 -7.83734 0
M  V30 17686 O 385.878 4.19407 -9.29784 0
M  V30 17687 O 385.308 5.24426 -7.09156 0
M  V30 17688 O 385.848 2.79386 -7.20852 0
M  V30 17689 C 386.788 1.7299 -7.50419 0
M  V30 17690 C 386.058 0.41401 -7.5797 0
M  V30 17691 O 385.848 -0.089787 -6.22035 0
M  V30 17692 C 384.658 0.447224 -8.1878 0
M  V30 17693 O 384.268 -0.825159 -8.71201 0
M  V30 17694 C 383.778 0.783801 -6.99623 0
M  V30 17695 C 384.488 0.0619192 -5.85967 0
M  V30 17696 N 384.438 0.7859 -4.56281 0
M  V30 17697 C 384.288 0.0359258 -3.39981 0
M  V30 17698 O 384.198 -1.19723 -3.49038 0
M  V30 17699 N 384.238 0.869151 -2.14025 0
M  V30 17700 C 384.338 2.01207 -2.14363 0
M  V30 17701 N 384.288 2.58978 -0.954287 0
M  V30 17702 C 384.488 2.80817 -3.32215 0
M  V30 17703 C 384.538 2.13785 -4.50884 0
M  V30 17704 H 387.278 1.93401 -8.46693 0
M  V30 17705 H 387.548 1.68181 -6.71046 0
M  V30 17706 H 386.681 -0.289076 -8.15488 0
M  V30 17707 H 384.026 -0.927166 -5.72947 0
M  V30 17708 H 383.746 1.87 -6.82132 0
M  V30 17709 H 382.755 0.404009 -7.13457 0
M  V30 17710 H 384.589 1.20599 -8.97534 0
M  V30 17711 H 384.661 2.70295 -5.43162 0
M  V30 17712 H 384.559 3.89465 -3.27406 0
M  V30 17713 H 384.171 2.01616 -0.107046 0
M  V30 17714 H 384.367 3.61403 -0.873101 0
M  V30 17715 P 382.718 -1.17771 -8.83182 0
M  V30 17716 O 382.498 -2.07206 -9.98732 0
M  V30 17717 O 381.928 0.0743816 -8.81969 0
M  V30 17718 O 382.468 -1.97652 -7.47304 0
M  V30 17719 C 383.408 -3.01055 -7.08599 0
M  V30 17720 C 382.678 -4.12613 -6.37049 0
M  V30 17721 O 382.468 -3.72827 -4.97879 0
M  V30 17722 C 381.278 -4.45719 -6.88164 0
M  V30 17723 O 380.888 -5.7877 -6.5624 0
M  V30 17724 C 380.398 -3.47768 -6.11991 0
M  V30 17725 C 381.108 -3.39356 -4.77615 0
M  V30 17726 N 381.058 -2.04571 -4.15244 0
M  V30 17727 C 380.908 -1.98587 -2.78314 0
M  V30 17728 O 380.818 -2.98134 -2.08835 0
M  V30 17729 N 380.868 -0.714467 -2.24925 0
M  V30 17730 C 380.958 0.470001 -2.94169 0
M  V30 17731 O 380.908 1.55587 -2.35195 0
M  V30 17732 C 381.108 0.312541 -4.36783 0
M  V30 17733 C 381.218 1.57711 -5.16352 0
M  V30 17734 C 381.158 -0.914512 -4.92583 0
M  V30 17735 H 383.899 -3.41169 -7.98575 0
M  V30 17736 H 384.168 -2.58295 -6.41556 0
M  V30 17737 H 383.301 -5.02657 -6.42673 0
M  V30 17738 H 380.646 -4.11637 -4.08885 0
M  V30 17739 H 380.367 -2.49626 -6.61679 0
M  V30 17740 H 379.375 -3.86566 -6.00778 0
M  V30 17741 H 381.209 -4.29943 -7.96918 0
M  V30 17742 H 381.28 -1.00937 -6.00374 0
M  V30 17743 H 380.25 1.80153 -5.63503 0
M  V30 17744 H 381.987 1.4566 -5.94104 0
M  V30 17745 H 381.499 2.40664 -4.49645 0
M  V30 17746 H 380.763 -0.647622 -1.25697 0
M  V30 17747 P 379.338 -6.144 -6.45285 0
M  V30 17748 O 379.118 -7.54673 -6.86199 0
M  V30 17749 O 378.548 -5.12391 -7.179 0
M  V30 17750 O 379.088 -5.99158 -4.88404 0
M  V30 17751 C 380.028 -6.60062 -3.96313 0
M  V30 17752 C 379.298 -7.08259 -2.72856 0
M  V30 17753 O 379.088 -5.9427 -1.83651 0
M  V30 17754 C 377.898 -7.65087 -2.94749 0
M  V30 17755 O 377.508 -8.53963 -1.90717 0
M  V30 17756 C 377.018 -6.41069 -2.90698 0
M  V30 17757 C 377.728 -5.5528 -1.86931 0
M  V30 17758 N 377.678 -4.09575 -2.15696 0
M  V30 17759 C 377.528 -3.24249 -1.08435 0
M  V30 17760 O 377.438 -3.63946 0.0628747 0
M  V30 17761 N 377.488 -1.90009 -1.39973 0
M  V30 17762 C 377.578 -1.34884 -2.65614 0
M  V30 17763 C 377.728 -2.3145 -3.71736 0
M  V30 17764 C 377.778 -3.63518 -3.44754 0
M  V30 17765 H 380.519 -7.45402 -4.45526 0
M  V30 17766 H 380.788 -5.86062 -3.67208 0
M  V30 17767 H 379.921 -7.84412 -2.24479 0
M  V30 17768 H 377.266 -5.73358 -0.888409 0
M  V30 17769 H 376.987 -5.90877 -3.88583 0
M  V30 17770 H 375.995 -6.65867 -2.58821 0
M  V30 17771 H 377.829 -8.16248 -3.92006 0
M  V30 17772 H 377.9 -4.34551 -4.26383 0
M  V30 17773 P 375.958 -8.7635 -1.60911 0
M  V30 17774 O 375.738 -10.1388 -1.11561 0
M  V30 17775 O 375.168 -8.36503 -2.79617 0
M  V30 17776 O 375.708 -7.71806 -0.42951 0
M  V30 17777 C 376.648 -7.67148 0.673689 0
M  V30 17778 C 375.918 -7.33374 1.95559 0
M  V30 17779 O 375.708 -5.88721 2.00726 0
M  V30 17780 C 374.518 -7.92526 2.10483 0
M  V30 17781 O 374.128 -8.02971 3.47653 0
M  V30 17782 C 373.638 -6.89602 1.41652 0
M  V30 17783 C 374.348 -5.59201 1.75185 0
M  V30 17784 N 374.298 -4.58235 0.662552 0
M  V30 17785 H 377.137 -8.65116 0.777161 0
M  V30 17786 H 377.409 -6.90173 0.474152 0
M  V30 17787 H 376.541 -7.66548 2.79458 0
M  V30 17788 P 372.578 -8.03563 3.84925 0
M  V30 17789 O 372.358 -8.85821 5.0569 0
M  V30 17790 O 371.788 -8.41101 2.65469 0
M  V30 17791 O 372.328 -6.4965 4.18908 0
M  V30 17792 C 373.268 -5.81037 5.05421 0
M  V30 17793 C 372.538 -4.78366 5.89277 0
M  V30 17794 O 372.328 -3.58302 5.08433 0
M  V30 17795 C 371.138 -5.17448 6.36119 0
M  V30 17796 O 370.748 -4.45271 7.53232 0
M  V30 17797 C 370.258 -4.74639 5.19936 0
M  V30 17798 C 370.968 -3.49432 4.70418 0
M  V30 17799 N 370.918 -3.31776 3.22945 0
M  V30 17800 C 370.998 -4.27147 2.23315 0
M  V30 17801 N 370.918 -3.78447 1.02186 0
M  V30 17802 C 370.778 -2.41001 1.21732 0
M  V30 17803 C 370.648 -1.36111 0.27694 0
M  V30 17804 O 370.628 -1.42065 -0.951767 0
M  V30 17805 N 370.528 -0.113683 0.912949 0
M  V30 17806 C 370.528 0.0846396 2.27943 0
M  V30 17807 N 370.398 1.34737 2.6916 0
M  V30 17808 N 370.658 -0.902521 3.16379 0
M  V30 17809 C 370.778 -2.11937 2.56849 0
M  V30 17810 H 373.757 -6.54213 5.71376 0
M  V30 17811 H 374.029 -5.30492 4.44033 0
M  V30 17812 H 373.161 -4.55889 6.76652 0
M  V30 17813 H 370.506 -2.6176 5.18021 0
M  V30 17814 H 370.226 -5.52233 4.41941 0
M  V30 17815 H 369.235 -4.52045 5.53452 0
M  V30 17816 H 371.069 -6.25193 6.55307 0
M  V30 17817 H 371.118 -5.3351 2.43857 0
M  V30 17818 H 370.436 0.69331 0.330371 0
M  V30 17819 H 370.399 1.56433 3.6988 0
M  V30 17820 H 370.298 2.10701 2.00133 0
M  V30 17821 P 369.198 -4.23843 7.83734 0
M  V30 17822 O 368.978 -4.19407 9.29784 0
M  V30 17823 O 368.408 -5.24426 7.09156 0
M  V30 17824 O 368.948 -2.7935 7.20758 0
M  V30 17825 C 369.888 -1.7299 7.50419 0
M  V30 17826 C 369.158 -0.406376 7.57911 0
M  V30 17827 O 368.948 0.0897726 6.21935 0
M  V30 17828 C 367.758 -0.447224 8.1878 0
M  V30 17829 O 367.368 0.825065 8.71101 0
M  V30 17830 C 366.878 -0.783801 6.99623 0
M  V30 17831 C 367.588 -0.0619192 5.85967 0
M  V30 17832 N 367.538 -0.7859 4.56281 0
M  V30 17833 H 370.377 -1.93423 8.4679 0
M  V30 17834 H 370.649 -1.68181 6.71046 0
M  V30 17835 H 369.781 0.289041 8.15388 0
M  V30 17836 P 365.818 1.17771 8.83182 0
M  V30 17837 O 365.598 2.07206 9.98732 0
M  V30 17838 O 365.028 -0.0743816 8.81969 0
M  V30 17839 O 365.568 1.97652 7.47304 0
M  V30 17840 C 366.508 3.01133 7.08783 0
M  V30 17841 C 365.778 4.12613 6.37049 0
M  V30 17842 O 365.568 3.72827 4.97879 0
M  V30 17843 C 364.378 4.45085 6.88694 0
M  V30 17844 O 363.988 5.7877 6.5624 0
M  V30 17845 C 363.498 3.47817 6.12078 0
M  V30 17846 C 364.208 3.39414 4.77697 0
M  V30 17847 N 364.158 2.04615 4.15333 0
M  V30 17848 H 366.997 3.41248 7.98759 0
M  V30 17849 H 367.269 2.5837 6.41742 0
M  V30 17850 H 366.401 5.02657 6.42673 0
M  V30 17851 P 362.438 6.144 6.45285 0
M  V30 17852 O 362.218 7.54673 6.86199 0
M  V30 17853 O 361.648 5.12391 7.179 0
M  V30 17854 O 362.188 5.99158 4.88404 0
M  V30 17855 C 363.128 6.60234 3.96415 0
M  V30 17856 C 362.398 7.08259 2.72856 0
M  V30 17857 O 362.188 5.9427 1.83651 0
M  V30 17858 C 360.998 7.64886 2.9555 0
M  V30 17859 O 360.608 8.53963 1.90717 0
M  V30 17860 C 360.118 6.4116 2.90739 0
M  V30 17861 C 360.828 5.55375 1.86963 0
M  V30 17862 N 360.778 4.09664 2.15742 0
M  V30 17863 H 363.617 7.45574 4.45629 0
M  V30 17864 H 363.889 5.86232 3.67314 0
M  V30 17865 H 363.021 7.84412 2.24479 0
M  V30 17866 P 359.058 8.7635 1.60911 0
M  V30 17867 O 358.838 10.1388 1.11561 0
M  V30 17868 O 358.268 8.36503 2.79617 0
M  V30 17869 O 358.808 7.71806 0.42951 0
M  V30 17870 C 359.748 7.67148 -0.673689 0
M  V30 17871 C 359.018 7.33374 -1.95559 0
M  V30 17872 O 358.808 5.88721 -2.00726 0
M  V30 17873 C 357.618 7.92526 -2.10483 0
M  V30 17874 O 357.228 8.02971 -3.47653 0
M  V30 17875 C 356.738 6.89602 -1.41652 0
M  V30 17876 C 357.448 5.59201 -1.75185 0
M  V30 17877 N 357.398 4.58235 -0.662552 0
M  V30 17878 H 360.237 8.65116 -0.777161 0
M  V30 17879 H 360.509 6.90173 -0.474152 0
M  V30 17880 H 359.641 7.66548 -2.79458 0
M  V30 17881 P 355.678 8.03563 -3.84925 0
M  V30 17882 O 355.458 8.85821 -5.0569 0
M  V30 17883 O 354.888 8.41101 -2.65469 0
M  V30 17884 O 355.428 6.4965 -4.18908 0
M  V30 17885 C 356.368 5.81037 -5.05421 0
M  V30 17886 C 355.638 4.78366 -5.89277 0
M  V30 17887 O 355.428 3.58302 -5.08433 0
M  V30 17888 C 354.238 5.17448 -6.36119 0
M  V30 17889 O 353.848 4.45271 -7.53232 0
M  V30 17890 C 353.358 4.74639 -5.19936 0
M  V30 17891 C 354.068 3.49432 -4.70418 0
M  V30 17892 N 354.018 3.32099 -3.22613 0
M  V30 17893 H 356.857 6.54213 -5.71376 0
M  V30 17894 H 357.129 5.30936 -4.43503 0
M  V30 17895 H 356.261 4.55889 -6.76652 0
M  V30 17896 H 353.606 2.61715 -5.17932 0
M  V30 17897 H 353.326 5.52155 -4.41878 0
M  V30 17898 H 352.335 4.51981 -5.53374 0
M  V30 17899 H 354.169 6.25124 -6.55234 0
M  V30 17900 P 352.298 4.23843 -7.83734 0
M  V30 17901 O 352.078 4.19407 -9.29784 0
M  V30 17902 O 351.508 5.24426 -7.09156 0
M  V30 17903 O 352.048 2.7935 -7.20758 0
M  V30 17904 C 352.988 1.7299 -7.50419 0
M  V30 17905 C 352.258 0.406376 -7.57911 0
M  V30 17906 O 352.048 -0.0897726 -6.21935 0
M  V30 17907 C 350.858 0.447224 -8.1878 0
M  V30 17908 O 350.468 -0.825065 -8.71101 0
M  V30 17909 C 349.978 0.783801 -6.99623 0
M  V30 17910 C 350.688 0.0619192 -5.85967 0
M  V30 17911 N 350.638 0.7859 -4.56281 0
M  V30 17912 H 353.477 1.93423 -8.4679 0
M  V30 17913 H 353.749 1.68181 -6.71046 0
M  V30 17914 H 352.881 -0.289041 -8.15388 0
M  V30 17915 P 348.918 -1.17771 -8.83182 0
M  V30 17916 O 348.698 -2.07206 -9.98732 0
M  V30 17917 O 348.128 0.0743816 -8.81969 0
M  V30 17918 O 348.668 -1.97652 -7.47304 0
M  V30 17919 C 349.608 -3.01133 -7.08783 0
M  V30 17920 C 348.878 -4.12613 -6.37049 0
M  V30 17921 O 348.668 -3.72827 -4.97879 0
M  V30 17922 C 347.478 -4.45085 -6.88694 0
M  V30 17923 O 347.088 -5.7877 -6.5624 0
M  V30 17924 C 346.598 -3.47817 -6.12078 0
M  V30 17925 C 347.308 -3.39414 -4.77697 0
M  V30 17926 N 347.258 -2.04199 -4.15538 0
M  V30 17927 H 350.097 -3.41248 -7.98759 0
M  V30 17928 H 350.369 -2.57728 -6.42 0
M  V30 17929 H 349.501 -5.02657 -6.42673 0
M  V30 17930 H 346.846 -4.11708 -4.08956 0
M  V30 17931 H 346.566 -2.49626 -6.61679 0
M  V30 17932 H 345.575 -3.8662 -6.00862 0
M  V30 17933 H 347.409 -4.29991 -7.97006 0
M  V30 17934 P 345.538 -6.144 -6.45285 0
M  V30 17935 O 345.318 -7.54673 -6.86199 0
M  V30 17936 O 344.748 -5.12391 -7.179 0
M  V30 17937 O 345.288 -5.99158 -4.88404 0
M  V30 17938 C 346.228 -6.60234 -3.96415 0
M  V30 17939 C 345.498 -7.08259 -2.72856 0
M  V30 17940 O 345.288 -5.9427 -1.83651 0
M  V30 17941 C 344.098 -7.64886 -2.9555 0
M  V30 17942 O 343.708 -8.53963 -1.90717 0
M  V30 17943 C 343.218 -6.4116 -2.90739 0
M  V30 17944 C 343.928 -5.55375 -1.86963 0
M  V30 17945 N 343.878 -4.09664 -2.15742 0
M  V30 17946 H 346.717 -7.45574 -4.45629 0
M  V30 17947 H 346.989 -5.86232 -3.67314 0
M  V30 17948 H 346.121 -7.84412 -2.24479 0
M  V30 17949 P 342.158 -8.7635 -1.60911 0
M  V30 17950 O 341.938 -10.1388 -1.11561 0
M  V30 17951 O 341.368 -8.36503 -2.79617 0
M  V30 17952 O 341.908 -7.71806 -0.42951 0
M  V30 17953 C 342.848 -7.67148 0.673689 0
M  V30 17954 C 342.118 -7.33374 1.95559 0
M  V30 17955 O 341.908 -5.88721 2.00726 0
M  V30 17956 C 340.718 -7.92526 2.10483 0
M  V30 17957 O 340.328 -8.02971 3.47653 0
M  V30 17958 C 339.838 -6.89602 1.41652 0
M  V30 17959 C 340.548 -5.59201 1.75185 0
M  V30 17960 N 340.498 -4.58235 0.662552 0
M  V30 17961 H 343.337 -8.65116 0.777161 0
M  V30 17962 H 343.609 -6.90173 0.474152 0
M  V30 17963 H 342.741 -7.66548 2.79458 0
M  V30 17964 P 338.778 -8.03563 3.84925 0
M  V30 17965 O 338.558 -8.85821 5.0569 0
M  V30 17966 O 337.988 -8.41101 2.65469 0
M  V30 17967 O 338.528 -6.4965 4.18908 0
M  V30 17968 C 339.468 -5.81037 5.05421 0
M  V30 17969 C 338.738 -4.78366 5.89277 0
M  V30 17970 O 338.528 -3.58302 5.08433 0
M  V30 17971 C 337.338 -5.17448 6.36119 0
M  V30 17972 O 336.948 -4.45271 7.53232 0
M  V30 17973 C 336.458 -4.74639 5.19936 0
M  V30 17974 C 337.168 -3.49432 4.70418 0
M  V30 17975 N 337.118 -3.31776 3.22945 0
M  V30 17976 H 339.957 -6.54213 5.71376 0
M  V30 17977 H 340.229 -5.30492 4.44033 0
M  V30 17978 H 339.361 -4.55889 6.76652 0
M  V30 17979 P 335.398 -4.23843 7.83734 0
M  V30 17980 O 335.178 -4.19407 9.29784 0
M  V30 17981 O 334.608 -5.24426 7.09156 0
M  V30 17982 O 335.148 -2.7935 7.20758 0
M  V30 17983 C 336.088 -1.7299 7.50419 0
M  V30 17984 C 335.358 -0.406376 7.57911 0
M  V30 17985 O 335.148 0.0897726 6.21935 0
M  V30 17986 C 333.958 -0.447224 8.1878 0
M  V30 17987 O 333.568 0.825065 8.71101 0
M  V30 17988 C 333.078 -0.783801 6.99623 0
M  V30 17989 C 333.788 -0.0619192 5.85967 0
M  V30 17990 N 333.738 -0.7859 4.56281 0
M  V30 17991 H 336.577 -1.93423 8.4679 0
M  V30 17992 H 336.849 -1.68181 6.71046 0
M  V30 17993 H 335.981 0.289041 8.15388 0
M  V30 17994 P 332.018 1.17771 8.83182 0
M  V30 17995 O 331.798 2.07206 9.98732 0
M  V30 17996 O 331.228 -0.0743816 8.81969 0
M  V30 17997 O 331.768 1.97652 7.47304 0
M  V30 17998 C 332.708 3.01133 7.08783 0
M  V30 17999 C 331.978 4.12613 6.37049 0
M  V30 18000 O 331.768 3.72827 4.97879 0
M  V30 18001 C 330.578 4.45085 6.88694 0
M  V30 18002 O 330.188 5.7877 6.5624 0
M  V30 18003 C 329.698 3.47817 6.12078 0
M  V30 18004 C 330.408 3.39414 4.77697 0
M  V30 18005 N 330.358 2.04615 4.15333 0
M  V30 18006 H 333.197 3.41248 7.98759 0
M  V30 18007 H 333.469 2.5837 6.41742 0
M  V30 18008 H 332.601 5.02657 6.42673 0
M  V30 18009 P 328.638 6.144 6.45285 0
M  V30 18010 O 328.418 7.54673 6.86199 0
M  V30 18011 O 327.848 5.12391 7.179 0
M  V30 18012 O 328.388 5.99158 4.88404 0
M  V30 18013 C 329.328 6.60234 3.96415 0
M  V30 18014 C 328.598 7.08259 2.72856 0
M  V30 18015 O 328.388 5.9427 1.83651 0
M  V30 18016 C 327.198 7.64886 2.9555 0
M  V30 18017 O 326.808 8.53963 1.90717 0
M  V30 18018 C 326.318 6.4116 2.90739 0
M  V30 18019 C 327.028 5.55375 1.86963 0
M  V30 18020 N 326.978 4.09448 2.16152 0
M  V30 18021 H 329.817 7.45574 4.45629 0
M  V30 18022 H 330.089 5.85864 3.679 0
M  V30 18023 H 329.221 7.84412 2.24479 0
M  V30 18024 H 326.566 5.73457 0.888562 0
M  V30 18025 H 326.286 5.90877 3.88583 0
M  V30 18026 H 325.295 6.6596 2.58858 0
M  V30 18027 H 327.129 8.16339 3.92049 0
M  V30 18028 P 325.258 8.7635 1.60911 0
M  V30 18029 O 325.038 10.1388 1.11561 0
M  V30 18030 O 324.468 8.36503 2.79617 0
M  V30 18031 O 325.008 7.71806 0.42951 0
M  V30 18032 C 325.948 7.67148 -0.673689 0
M  V30 18033 C 325.218 7.33374 -1.95559 0
M  V30 18034 O 325.008 5.88721 -2.00726 0
M  V30 18035 C 323.818 7.92526 -2.10483 0
M  V30 18036 O 323.428 8.02971 -3.47653 0
M  V30 18037 C 322.938 6.89602 -1.41652 0
M  V30 18038 C 323.648 5.59201 -1.75185 0
M  V30 18039 N 323.598 4.58301 -0.657969 0
M  V30 18040 H 326.437 8.65116 -0.777161 0
M  V30 18041 H 326.709 6.9022 -0.46725 0
M  V30 18042 H 325.841 7.66548 -2.79458 0
M  V30 18043 H 323.186 5.16165 -2.65183 0
M  V30 18044 H 322.906 7.06433 -0.329384 0
M  V30 18045 H 321.915 6.90926 -1.82021 0
M  V30 18046 H 323.749 8.90873 -1.62657 0
M  V30 18047 P 321.878 8.03563 -3.84925 0
M  V30 18048 O 321.658 8.85821 -5.0569 0
M  V30 18049 O 321.088 8.41101 -2.65469 0
M  V30 18050 O 321.628 6.4965 -4.18908 0
M  V30 18051 C 322.568 5.81037 -5.05421 0
M  V30 18052 C 321.838 4.78366 -5.89277 0
M  V30 18053 O 321.628 3.58302 -5.08433 0
M  V30 18054 C 320.438 5.17448 -6.36119 0
M  V30 18055 O 320.048 4.45271 -7.53232 0
M  V30 18056 C 319.558 4.74639 -5.19936 0
M  V30 18057 C 320.268 3.49432 -4.70418 0
M  V30 18058 N 320.218 3.31776 -3.22945 0
M  V30 18059 H 323.057 6.54213 -5.71376 0
M  V30 18060 H 323.329 5.30492 -4.44033 0
M  V30 18061 H 322.461 4.55889 -6.76652 0
M  V30 18062 P 318.498 4.23843 -7.83734 0
M  V30 18063 O 318.278 4.19407 -9.29784 0
M  V30 18064 O 317.708 5.24426 -7.09156 0
M  V30 18065 O 318.248 2.7935 -7.20758 0
M  V30 18066 C 319.188 1.7299 -7.50419 0
M  V30 18067 C 318.458 0.406376 -7.57911 0
M  V30 18068 O 318.248 -0.0897726 -6.21935 0
M  V30 18069 C 317.058 0.447224 -8.1878 0
M  V30 18070 O 316.668 -0.825065 -8.71101 0
M  V30 18071 C 316.178 0.783801 -6.99623 0
M  V30 18072 C 316.888 0.0619192 -5.85967 0
M  V30 18073 N 316.838 0.7859 -4.56281 0
M  V30 18074 H 319.677 1.93423 -8.4679 0
M  V30 18075 H 319.949 1.68181 -6.71046 0
M  V30 18076 H 319.081 -0.289041 -8.15388 0
M  V30 18077 P 315.118 -1.17771 -8.83182 0
M  V30 18078 O 314.898 -2.07206 -9.98732 0
M  V30 18079 O 314.328 0.0743816 -8.81969 0
M  V30 18080 O 314.868 -1.97652 -7.47304 0
M  V30 18081 C 315.808 -3.01133 -7.08783 0
M  V30 18082 C 315.078 -4.12613 -6.37049 0
M  V30 18083 O 314.868 -3.72827 -4.97879 0
M  V30 18084 C 313.678 -4.45085 -6.88694 0
M  V30 18085 O 313.288 -5.7877 -6.5624 0
M  V30 18086 C 312.798 -3.47817 -6.12078 0
M  V30 18087 C 313.508 -3.39414 -4.77697 0
M  V30 18088 N 313.458 -2.04615 -4.15333 0
M  V30 18089 H 316.297 -3.41248 -7.98759 0
M  V30 18090 H 316.569 -2.5837 -6.41742 0
M  V30 18091 H 315.701 -5.02657 -6.42673 0
M  V30 18092 P 311.738 -6.144 -6.45285 0
M  V30 18093 O 311.518 -7.54673 -6.86199 0
M  V30 18094 O 310.948 -5.12391 -7.179 0
M  V30 18095 O 311.488 -5.99158 -4.88404 0
M  V30 18096 C 312.428 -6.60234 -3.96415 0
M  V30 18097 C 311.698 -7.08259 -2.72856 0
M  V30 18098 O 311.488 -5.9427 -1.83651 0
M  V30 18099 C 310.298 -7.64886 -2.9555 0
M  V30 18100 O 309.908 -8.53963 -1.90717 0
M  V30 18101 C 309.418 -6.4116 -2.90739 0
M  V30 18102 C 310.128 -5.55375 -1.86963 0
M  V30 18103 N 310.078 -4.09448 -2.16152 0
M  V30 18104 H 312.917 -7.45574 -4.45629 0
M  V30 18105 H 313.189 -5.85864 -3.679 0
M  V30 18106 H 312.321 -7.84412 -2.24479 0
M  V30 18107 H 309.666 -5.73457 -0.888562 0
M  V30 18108 H 309.386 -5.90877 -3.88583 0
M  V30 18109 H 308.395 -6.6596 -2.58858 0
M  V30 18110 H 310.229 -8.16339 -3.92049 0
M  V30 18111 P 308.358 -8.7635 -1.60911 0
M  V30 18112 O 308.138 -10.1388 -1.11561 0
M  V30 18113 O 307.568 -8.36503 -2.79617 0
M  V30 18114 O 308.108 -7.71806 -0.42951 0
M  V30 18115 C 309.048 -7.67148 0.673689 0
M  V30 18116 C 308.318 -7.33374 1.95559 0
M  V30 18117 O 308.108 -5.88721 2.00726 0
M  V30 18118 C 306.918 -7.92526 2.10483 0
M  V30 18119 O 306.528 -8.02971 3.47653 0
M  V30 18120 C 306.038 -6.89602 1.41652 0
M  V30 18121 C 306.748 -5.59201 1.75185 0
M  V30 18122 N 306.698 -4.58235 0.662552 0
M  V30 18123 H 309.537 -8.65116 0.777161 0
M  V30 18124 H 309.809 -6.90173 0.474152 0
M  V30 18125 H 308.941 -7.66548 2.79458 0
M  V30 18126 P 304.978 -8.03563 3.84925 0
M  V30 18127 O 304.758 -8.85821 5.0569 0
M  V30 18128 O 304.188 -8.41101 2.65469 0
M  V30 18129 O 304.728 -6.4965 4.18908 0
M  V30 18130 C 305.668 -5.80886 5.05289 0
M  V30 18131 C 304.938 -4.78366 5.89277 0
M  V30 18132 O 304.728 -3.58302 5.08433 0
M  V30 18133 C 303.538 -5.16748 6.36559 0
M  V30 18134 O 303.148 -4.45271 7.53232 0
M  V30 18135 C 302.658 -4.74572 5.19863 0
M  V30 18136 C 303.368 -3.49373 4.70338 0
M  V30 18137 N 303.318 -3.31704 3.22876 0
M  V30 18138 C 303.168 -2.03326 2.74871 0
M  V30 18139 O 303.078 -1.06486 3.48076 0
M  V30 18140 N 303.128 -1.91838 1.37456 0
M  V30 18141 C 303.218 -2.94295 0.462035 0
M  V30 18142 O 303.168 -2.71763 -0.752928 0
M  V30 18143 C 303.368 -4.25064 1.05249 0
M  V30 18144 C 303.478 -5.39815 0.095697 0
M  V30 18145 C 303.418 -4.40214 2.39192 0
M  V30 18146 H 306.159 -6.54063 5.71245 0
M  V30 18147 H 306.428 -5.30339 4.43905 0
M  V30 18148 H 305.561 -4.55889 6.76652 0
M  V30 18149 H 302.906 -2.6167 5.17842 0
M  V30 18150 H 302.627 -5.52155 4.41878 0
M  V30 18151 H 301.635 -4.51918 5.53297 0
M  V30 18152 H 303.469 -6.25055 6.55162 0
M  V30 18153 H 303.54 -5.39798 2.81523 0
M  V30 18154 H 302.51 -5.91593 0.0279582 0
M  V30 18155 H 304.247 -6.10038 0.450573 0
M  V30 18156 H 303.759 -5.02007 -0.89937 0
M  V30 18157 H 303.023 -0.995326 1.00435 0
M  V30 18158 P 301.598 -4.23843 7.83734 0
M  V30 18159 O 301.378 -4.19407 9.29784 0
M  V30 18160 O 300.808 -5.24426 7.09156 0
M  V30 18161 O 301.348 -2.7935 7.20758 0
M  V30 18162 C 302.288 -1.7299 7.50419 0
M  V30 18163 C 301.558 -0.406376 7.57911 0
M  V30 18164 O 301.348 0.0897726 6.21935 0
M  V30 18165 C 300.158 -0.447224 8.1878 0
M  V30 18166 O 299.768 0.825065 8.71101 0
M  V30 18167 C 299.278 -0.783801 6.99623 0
M  V30 18168 C 299.988 -0.0619192 5.85967 0
M  V30 18169 N 299.938 -0.7859 4.56281 0
M  V30 18170 H 302.777 -1.93423 8.4679 0
M  V30 18171 H 303.049 -1.68181 6.71046 0
M  V30 18172 H 302.181 0.289041 8.15388 0
M  V30 18173 P 298.218 1.17771 8.83182 0
M  V30 18174 O 297.998 2.07206 9.98732 0
M  V30 18175 O 297.428 -0.0743816 8.81969 0
M  V30 18176 O 297.968 1.97652 7.47304 0
M  V30 18177 C 298.908 3.01133 7.08783 0
M  V30 18178 C 298.178 4.12613 6.37049 0
M  V30 18179 O 297.968 3.72827 4.97879 0
M  V30 18180 C 296.778 4.45085 6.88694 0
M  V30 18181 O 296.388 5.7877 6.5624 0
M  V30 18182 C 295.898 3.47817 6.12078 0
M  V30 18183 C 296.608 3.39414 4.77697 0
M  V30 18184 N 296.558 2.04615 4.15333 0
M  V30 18185 H 299.397 3.41248 7.98759 0
M  V30 18186 H 299.669 2.5837 6.41742 0
M  V30 18187 H 298.801 5.02657 6.42673 0
M  V30 18188 P 294.838 6.144 6.45285 0
M  V30 18189 O 294.618 7.54673 6.86199 0
M  V30 18190 O 294.048 5.12391 7.179 0
M  V30 18191 O 294.588 5.99158 4.88404 0
M  V30 18192 C 295.528 6.60234 3.96415 0
M  V30 18193 C 294.798 7.08259 2.72856 0
M  V30 18194 O 294.588 5.9427 1.83651 0
M  V30 18195 C 293.398 7.64886 2.9555 0
M  V30 18196 O 293.008 8.53963 1.90717 0
M  V30 18197 C 292.518 6.4116 2.90739 0
M  V30 18198 C 293.228 5.55375 1.86963 0
M  V30 18199 N 293.178 4.09664 2.15742 0
M  V30 18200 H 296.017 7.45574 4.45629 0
M  V30 18201 H 296.289 5.86232 3.67314 0
M  V30 18202 H 295.421 7.84412 2.24479 0
M  V30 18203 P 291.458 8.7635 1.60911 0
M  V30 18204 O 291.238 10.1388 1.11561 0
M  V30 18205 O 290.668 8.36503 2.79617 0
M  V30 18206 O 291.208 7.71806 0.42951 0
M  V30 18207 C 292.148 7.67148 -0.673689 0
M  V30 18208 C 291.418 7.33374 -1.95559 0
M  V30 18209 O 291.208 5.88721 -2.00726 0
M  V30 18210 C 290.018 7.92526 -2.10483 0
M  V30 18211 O 289.628 8.02971 -3.47653 0
M  V30 18212 C 289.138 6.89602 -1.41652 0
M  V30 18213 C 289.848 5.59201 -1.75185 0
M  V30 18214 N 289.798 4.58235 -0.662552 0
M  V30 18215 H 292.637 8.65116 -0.777161 0
M  V30 18216 H 292.909 6.90173 -0.474152 0
M  V30 18217 H 292.041 7.66548 -2.79458 0
M  V30 18218 P 288.078 8.03563 -3.84925 0
M  V30 18219 O 287.858 8.85821 -5.0569 0
M  V30 18220 O 287.288 8.41101 -2.65469 0
M  V30 18221 O 287.828 6.4965 -4.18908 0
M  V30 18222 C 288.768 5.81037 -5.05421 0
M  V30 18223 C 288.038 4.78366 -5.89277 0
M  V30 18224 O 287.828 3.58302 -5.08433 0
M  V30 18225 C 286.638 5.17448 -6.36119 0
M  V30 18226 O 286.248 4.45271 -7.53232 0
M  V30 18227 C 285.758 4.74639 -5.19936 0
M  V30 18228 C 286.468 3.49432 -4.70418 0
M  V30 18229 N 286.418 3.31776 -3.22945 0
M  V30 18230 H 289.257 6.54213 -5.71376 0
M  V30 18231 H 289.529 5.30492 -4.44033 0
M  V30 18232 H 288.661 4.55889 -6.76652 0
M  V30 18233 P 284.698 4.23843 -7.83734 0
M  V30 18234 O 284.478 4.19407 -9.29784 0
M  V30 18235 O 283.908 5.24426 -7.09156 0
M  V30 18236 O 284.448 2.7935 -7.20758 0
M  V30 18237 C 285.388 1.7299 -7.50419 0
M  V30 18238 C 284.658 0.406376 -7.57911 0
M  V30 18239 O 284.448 -0.0897726 -6.21935 0
M  V30 18240 C 283.258 0.447224 -8.1878 0
M  V30 18241 O 282.868 -0.825065 -8.71101 0
M  V30 18242 C 282.378 0.783801 -6.99623 0
M  V30 18243 C 283.088 0.0619192 -5.85967 0
M  V30 18244 N 283.038 0.7859 -4.56281 0
M  V30 18245 H 285.877 1.93423 -8.4679 0
M  V30 18246 H 286.149 1.68181 -6.71046 0
M  V30 18247 H 285.281 -0.289041 -8.15388 0
M  V30 18248 P 281.318 -1.17771 -8.83182 0
M  V30 18249 O 281.098 -2.07206 -9.98732 0
M  V30 18250 O 280.528 0.0743816 -8.81969 0
M  V30 18251 O 281.068 -1.97652 -7.47304 0
M  V30 18252 C 282.008 -3.01133 -7.08783 0
M  V30 18253 C 281.278 -4.12613 -6.37049 0
M  V30 18254 O 281.068 -3.72827 -4.97879 0
M  V30 18255 C 279.878 -4.45085 -6.88694 0
M  V30 18256 O 279.488 -5.7877 -6.5624 0
M  V30 18257 C 278.998 -3.47817 -6.12078 0
M  V30 18258 C 279.708 -3.39414 -4.77697 0
M  V30 18259 N 279.658 -2.04199 -4.15538 0
M  V30 18260 H 282.497 -3.41248 -7.98759 0
M  V30 18261 H 282.769 -2.57728 -6.42 0
M  V30 18262 H 281.901 -5.02657 -6.42673 0
M  V30 18263 H 279.246 -4.11708 -4.08956 0
M  V30 18264 H 278.966 -2.49626 -6.61679 0
M  V30 18265 H 277.975 -3.8662 -6.00862 0
M  V30 18266 H 279.809 -4.29991 -7.97006 0
M  V30 18267 P 277.938 -6.144 -6.45285 0
M  V30 18268 O 277.718 -7.54673 -6.86199 0
M  V30 18269 O 277.148 -5.12391 -7.179 0
M  V30 18270 O 277.688 -5.99158 -4.88404 0
M  V30 18271 C 278.628 -6.60234 -3.96415 0
M  V30 18272 C 277.898 -7.08259 -2.72856 0
M  V30 18273 O 277.688 -5.9427 -1.83651 0
M  V30 18274 C 276.498 -7.64886 -2.9555 0
M  V30 18275 O 276.108 -8.53963 -1.90717 0
M  V30 18276 C 275.618 -6.4116 -2.90739 0
M  V30 18277 C 276.328 -5.55375 -1.86963 0
M  V30 18278 N 276.278 -4.09448 -2.16152 0
M  V30 18279 H 279.117 -7.45574 -4.45629 0
M  V30 18280 H 279.389 -5.85864 -3.679 0
M  V30 18281 H 278.521 -7.84412 -2.24479 0
M  V30 18282 H 275.866 -5.73457 -0.888562 0
M  V30 18283 H 275.586 -5.90877 -3.88583 0
M  V30 18284 H 274.595 -6.6596 -2.58858 0
M  V30 18285 H 276.429 -8.16339 -3.92049 0
M  V30 18286 P 274.558 -8.7635 -1.60911 0
M  V30 18287 O 274.338 -10.1388 -1.11561 0
M  V30 18288 O 273.768 -8.36503 -2.79617 0
M  V30 18289 O 274.308 -7.71906 -0.429565 0
M  V30 18290 C 275.248 -7.67148 0.673689 0
M  V30 18291 C 274.518 -7.33666 1.94851 0
M  V30 18292 O 274.308 -5.88816 2.00759 0
M  V30 18293 C 273.118 -7.92526 2.10483 0
M  V30 18294 O 272.728 -8.03063 3.47693 0
M  V30 18295 C 272.238 -6.89602 1.41652 0
M  V30 18296 C 272.948 -5.59201 1.75185 0
M  V30 18297 N 272.898 -4.58235 0.662552 0
M  V30 18298 C 272.748 -3.24451 1.01643 0
M  V30 18299 O 272.658 -2.94958 2.21722 0
M  V30 18300 N 272.698 -2.30408 -0.165238 0
M  V30 18301 C 272.798 -2.66048 -1.25118 0
M  V30 18302 N 272.748 -1.70787 -2.16813 0
M  V30 18303 C 272.948 -4.02732 -1.64413 0
M  V30 18304 C 272.998 -4.9488 -0.63991 0
M  V30 18305 H 275.738 -8.65017 0.777072 0
M  V30 18306 H 276.008 -6.90173 0.474152 0
M  V30 18307 H 275.141 -7.66642 2.79492 0
M  V30 18308 H 272.486 -5.16254 2.65229 0
M  V30 18309 H 272.206 -7.06532 0.329431 0
M  V30 18310 H 271.215 -6.91023 1.82047 0
M  V30 18311 H 273.049 -8.90873 1.62657 0
M  V30 18312 H 273.121 -6.00104 -0.892197 0
M  V30 18313 H 273.019 -4.31733 -2.69229 0
M  V30 18314 H 272.631 -0.724835 -1.8844 0
M  V30 18315 H 272.827 -1.94716 -3.16734 0
M  V30 18316 P 271.178 -8.03563 3.84925 0
M  V30 18317 O 270.958 -8.85821 5.0569 0
M  V30 18318 O 270.388 -8.41101 2.65469 0
M  V30 18319 O 270.928 -6.4965 4.18908 0
M  V30 18320 C 271.868 -5.81037 5.05421 0
M  V30 18321 C 271.138 -4.78366 5.89277 0
M  V30 18322 O 270.928 -3.58302 5.08433 0
M  V30 18323 C 269.738 -5.17448 6.36119 0
M  V30 18324 O 269.348 -4.45271 7.53232 0
M  V30 18325 C 268.858 -4.74639 5.19936 0
M  V30 18326 C 269.568 -3.49432 4.70418 0
M  V30 18327 N 269.518 -3.32099 3.22613 0
M  V30 18328 H 272.357 -6.54213 5.71376 0
M  V30 18329 H 272.629 -5.30936 4.43503 0
M  V30 18330 H 271.761 -4.55889 6.76652 0
M  V30 18331 H 269.106 -2.61715 5.17932 0
M  V30 18332 H 268.826 -5.52155 4.41878 0
M  V30 18333 H 267.835 -4.51981 5.53374 0
M  V30 18334 H 269.669 -6.25124 6.55234 0
M  V30 18335 P 267.798 -4.23843 7.83734 0
M  V30 18336 O 267.578 -4.19407 9.29784 0
M  V30 18337 O 267.008 -5.24426 7.09156 0
M  V30 18338 O 267.548 -2.7935 7.20758 0
M  V30 18339 C 268.488 -1.7299 7.50419 0
M  V30 18340 C 267.758 -0.406376 7.57911 0
M  V30 18341 O 267.548 0.0897726 6.21935 0
M  V30 18342 C 266.358 -0.447224 8.1878 0
M  V30 18343 O 265.968 0.825065 8.71101 0
M  V30 18344 C 265.478 -0.783801 6.99623 0
M  V30 18345 C 266.188 -0.0619192 5.85967 0
M  V30 18346 N 266.138 -0.7859 4.56281 0
M  V30 18347 H 268.977 -1.93423 8.4679 0
M  V30 18348 H 269.249 -1.68181 6.71046 0
M  V30 18349 H 268.381 0.289041 8.15388 0
M  V30 18350 P 264.418 1.17771 8.83182 0
M  V30 18351 O 264.198 2.07206 9.98732 0
M  V30 18352 O 263.628 -0.0743816 8.81969 0
M  V30 18353 O 264.168 1.97652 7.47304 0
M  V30 18354 C 265.108 3.01133 7.08783 0
M  V30 18355 C 264.378 4.12613 6.37049 0
M  V30 18356 O 264.168 3.72827 4.97879 0
M  V30 18357 C 262.978 4.45085 6.88694 0
M  V30 18358 O 262.588 5.7877 6.5624 0
M  V30 18359 C 262.098 3.47817 6.12078 0
M  V30 18360 C 262.808 3.39414 4.77697 0
M  V30 18361 N 262.758 2.04615 4.15333 0
M  V30 18362 H 265.597 3.41248 7.98759 0
M  V30 18363 H 265.869 2.5837 6.41742 0
M  V30 18364 H 265.001 5.02657 6.42673 0
M  V30 18365 P 261.038 6.144 6.45285 0
M  V30 18366 O 260.818 7.54673 6.86199 0
M  V30 18367 O 260.248 5.12391 7.179 0
M  V30 18368 O 260.788 5.99158 4.88404 0
M  V30 18369 C 261.728 6.60234 3.96415 0
M  V30 18370 C 260.998 7.08259 2.72856 0
M  V30 18371 O 260.788 5.9427 1.83651 0
M  V30 18372 C 259.598 7.64886 2.9555 0
M  V30 18373 O 259.208 8.53963 1.90717 0
M  V30 18374 C 258.718 6.4116 2.90739 0
M  V30 18375 C 259.428 5.55375 1.86963 0
M  V30 18376 N 259.378 4.09664 2.15742 0
M  V30 18377 H 262.217 7.45574 4.45629 0
M  V30 18378 H 262.489 5.86232 3.67314 0
M  V30 18379 H 261.621 7.84412 2.24479 0
M  V30 18380 P 257.658 8.7635 1.60911 0
M  V30 18381 O 257.438 10.1388 1.11561 0
M  V30 18382 O 256.868 8.36503 2.79617 0
M  V30 18383 O 257.408 7.71806 0.42951 0
M  V30 18384 C 258.348 7.66948 -0.673514 0
M  V30 18385 C 257.618 7.33374 -1.95559 0
M  V30 18386 O 257.408 5.88721 -2.00726 0
M  V30 18387 C 256.218 7.92218 -2.1125 0
M  V30 18388 O 255.828 8.02971 -3.47653 0
M  V30 18389 C 255.338 6.89504 -1.41631 0
M  V30 18390 C 256.048 5.59106 -1.75155 0
M  V30 18391 N 255.998 4.58136 -0.662409 0
M  V30 18392 C 255.848 3.26059 -1.02863 0
M  V30 18393 O 255.758 2.90743 -2.19009 0
M  V30 18394 N 255.808 2.35995 0.0155585 0
M  V30 18395 C 255.898 2.65248 1.35603 0
M  V30 18396 O 255.848 1.75605 2.20651 0
M  V30 18397 C 256.048 4.05747 1.64698 0
M  V30 18398 C 256.158 4.42345 3.09553 0
M  V30 18399 C 256.098 4.96734 0.652411 0
M  V30 18400 H 258.839 8.64917 -0.776982 0
M  V30 18401 H 259.108 6.89974 -0.474015 0
M  V30 18402 H 258.241 7.66548 -2.79458 0
M  V30 18403 H 255.586 5.16076 -2.65138 0
M  V30 18404 H 255.307 7.06433 -0.329384 0
M  V30 18405 H 254.315 6.90829 -1.81996 0
M  V30 18406 H 256.149 8.90774 -1.62639 0
M  V30 18407 H 256.22 6.02181 0.895285 0
M  V30 18408 H 255.19 4.80252 3.45468 0
M  V30 18409 H 256.927 5.20015 3.22119 0
M  V30 18410 H 256.439 3.53269 3.67833 0
M  V30 18411 H 255.703 1.39558 -0.227499 0
M  V30 18412 P 254.279 8.03563 -3.84925 0
M  V30 18413 O 254.059 8.85821 -5.0569 0
M  V30 18414 O 253.489 8.41101 -2.65469 0
M  V30 18415 O 254.029 6.4965 -4.18908 0
M  V30 18416 C 254.969 5.81037 -5.05421 0
M  V30 18417 C 254.239 4.78366 -5.89277 0
M  V30 18418 O 254.029 3.58302 -5.08433 0
M  V30 18419 C 252.839 5.17448 -6.36119 0
M  V30 18420 O 252.449 4.45271 -7.53232 0
M  V30 18421 C 251.959 4.74639 -5.19936 0
M  V30 18422 C 252.669 3.49432 -4.70418 0
M  V30 18423 N 252.619 3.31776 -3.22945 0
M  V30 18424 H 255.458 6.54213 -5.71376 0
M  V30 18425 H 255.73 5.30492 -4.44033 0
M  V30 18426 H 254.862 4.55889 -6.76652 0
M  V30 18427 P 250.899 4.23843 -7.83734 0
M  V30 18428 O 250.679 4.19407 -9.29784 0
M  V30 18429 O 250.109 5.24426 -7.09156 0
M  V30 18430 O 250.649 2.7935 -7.20758 0
M  V30 18431 C 251.589 1.7299 -7.50419 0
M  V30 18432 C 250.859 0.406376 -7.57911 0
M  V30 18433 O 250.649 -0.0897726 -6.21935 0
M  V30 18434 C 249.459 0.447224 -8.1878 0
M  V30 18435 O 249.069 -0.825065 -8.71101 0
M  V30 18436 C 248.579 0.783801 -6.99623 0
M  V30 18437 C 249.289 0.0619192 -5.85967 0
M  V30 18438 N 249.239 0.7859 -4.56281 0
M  V30 18439 H 252.078 1.93423 -8.4679 0
M  V30 18440 H 252.35 1.68181 -6.71046 0
M  V30 18441 H 251.482 -0.289041 -8.15388 0
M  V30 18442 P 247.519 -1.17771 -8.83182 0
M  V30 18443 O 247.299 -2.07206 -9.98732 0
M  V30 18444 O 246.729 0.0743816 -8.81969 0
M  V30 18445 O 247.269 -1.97652 -7.47304 0
M  V30 18446 C 248.209 -3.01133 -7.08783 0
M  V30 18447 C 247.479 -4.12613 -6.37049 0
M  V30 18448 O 247.269 -3.72827 -4.97879 0
M  V30 18449 C 246.079 -4.45085 -6.88694 0
M  V30 18450 O 245.689 -5.7877 -6.5624 0
M  V30 18451 C 245.199 -3.47817 -6.12078 0
M  V30 18452 C 245.909 -3.39414 -4.77697 0
M  V30 18453 N 245.859 -2.04615 -4.15333 0
M  V30 18454 H 248.698 -3.41248 -7.98759 0
M  V30 18455 H 248.97 -2.5837 -6.41742 0
M  V30 18456 H 248.102 -5.02657 -6.42673 0
M  V30 18457 P 244.139 -6.144 -6.45285 0
M  V30 18458 O 243.919 -7.54673 -6.86199 0
M  V30 18459 O 243.349 -5.12391 -7.179 0
M  V30 18460 O 243.889 -5.99158 -4.88404 0
M  V30 18461 C 244.829 -6.60234 -3.96415 0
M  V30 18462 C 244.099 -7.08259 -2.72856 0
M  V30 18463 O 243.889 -5.9427 -1.83651 0
M  V30 18464 C 242.699 -7.64886 -2.9555 0
M  V30 18465 O 242.309 -8.53963 -1.90717 0
M  V30 18466 C 241.819 -6.4116 -2.90739 0
M  V30 18467 C 242.529 -5.55375 -1.86963 0
M  V30 18468 N 242.479 -4.09448 -2.16152 0
M  V30 18469 C 242.559 -3.46824 -3.37593 0
M  V30 18470 N 242.489 -2.17422 -3.29777 0
M  V30 18471 C 242.339 -1.93065 -1.94427 0
M  V30 18472 C 242.209 -0.738053 -1.20141 0
M  V30 18473 N 242.199 0.474256 -1.74676 0
M  V30 18474 N 242.089 -0.850049 0.13045 0
M  V30 18475 C 242.099 -2.06169 0.676992 0
M  V30 18476 N 242.219 -3.23842 0.101312 0
M  V30 18477 C 242.339 -3.09402 -1.23122 0
M  V30 18478 H 245.318 -7.45574 -4.45629 0
M  V30 18479 H 245.59 -5.85864 -3.679 0
M  V30 18480 H 244.722 -7.84412 -2.24479 0
M  V30 18481 H 242.067 -5.73457 -0.888562 0
M  V30 18482 H 241.787 -5.90877 -3.88583 0
M  V30 18483 H 240.796 -6.6596 -2.58858 0
M  V30 18484 H 242.63 -8.16339 -3.92049 0
M  V30 18485 H 242.671 -4.00505 -4.3174 0
M  V30 18486 H 242.29 0.581337 -2.76658 0
M  V30 18487 H 242.101 1.30811 -1.14888 0
M  V30 18488 H 241.993 -2.08295 1.75542 0
M  V30 18489 P 240.759 -8.7635 -1.60911 0
M  V30 18490 O 240.539 -10.1388 -1.11561 0
M  V30 18491 O 239.969 -8.36503 -2.79617 0
M  V30 18492 O 240.509 -7.71806 -0.42951 0
M  V30 18493 C 241.449 -7.67148 0.673689 0
M  V30 18494 C 240.719 -7.33374 1.95559 0
M  V30 18495 O 240.509 -5.88721 2.00726 0
M  V30 18496 C 239.319 -7.92526 2.10483 0
M  V30 18497 O 238.929 -8.02971 3.47653 0
M  V30 18498 C 238.439 -6.89602 1.41652 0
M  V30 18499 C 239.149 -5.59201 1.75185 0
M  V30 18500 N 239.099 -4.58235 0.662552 0
M  V30 18501 H 241.938 -8.65116 0.777161 0
M  V30 18502 H 242.21 -6.90173 0.474152 0
M  V30 18503 H 241.342 -7.66548 2.79458 0
M  V30 18504 P 237.379 -8.03563 3.84925 0
M  V30 18505 O 237.159 -8.85821 5.0569 0
M  V30 18506 O 236.589 -8.41101 2.65469 0
M  V30 18507 O 237.129 -6.4965 4.18908 0
M  V30 18508 C 238.069 -5.81037 5.05421 0
M  V30 18509 C 237.339 -4.78366 5.89277 0
M  V30 18510 O 237.129 -3.58302 5.08433 0
M  V30 18511 C 235.939 -5.17448 6.36119 0
M  V30 18512 O 235.549 -4.45271 7.53232 0
M  V30 18513 C 235.059 -4.74639 5.19936 0
M  V30 18514 C 235.769 -3.49432 4.70418 0
M  V30 18515 N 235.719 -3.32099 3.22613 0
M  V30 18516 H 238.558 -6.54213 5.71376 0
M  V30 18517 H 238.83 -5.30936 4.43503 0
M  V30 18518 H 237.962 -4.55889 6.76652 0
M  V30 18519 H 235.307 -2.61715 5.17932 0
M  V30 18520 H 235.027 -5.52155 4.41878 0
M  V30 18521 H 234.036 -4.51981 5.53374 0
M  V30 18522 H 235.87 -6.25124 6.55234 0
M  V30 18523 P 233.999 -4.23843 7.83734 0
M  V30 18524 O 233.779 -4.19407 9.29784 0
M  V30 18525 O 233.209 -5.24426 7.09156 0
M  V30 18526 O 233.749 -2.7935 7.20758 0
M  V30 18527 C 234.689 -1.7299 7.50419 0
M  V30 18528 C 233.959 -0.406376 7.57911 0
M  V30 18529 O 233.749 0.0897726 6.21935 0
M  V30 18530 C 232.559 -0.447224 8.1878 0
M  V30 18531 O 232.169 0.825065 8.71101 0
M  V30 18532 C 231.679 -0.783801 6.99623 0
M  V30 18533 C 232.389 -0.0619192 5.85967 0
M  V30 18534 N 232.339 -0.790462 4.56202 0
M  V30 18535 H 235.178 -1.93423 8.4679 0
M  V30 18536 H 235.45 -1.68852 6.70877 0
M  V30 18537 H 234.582 0.289041 8.15388 0
M  V30 18538 H 231.927 0.927006 5.72848 0
M  V30 18539 H 231.647 -1.86973 6.82036 0
M  V30 18540 H 230.656 -0.403953 7.13357 0
M  V30 18541 H 232.49 -1.20599 8.97534 0
M  V30 18542 P 230.619 1.17771 8.83182 0
M  V30 18543 O 230.399 2.07206 9.98732 0
M  V30 18544 O 229.829 -0.0743816 8.81969 0
M  V30 18545 O 230.369 1.97652 7.47304 0
M  V30 18546 C 231.309 3.01133 7.08783 0
M  V30 18547 C 230.579 4.12613 6.37049 0
M  V30 18548 O 230.369 3.72827 4.97879 0
M  V30 18549 C 229.179 4.45085 6.88694 0
M  V30 18550 O 228.789 5.7877 6.5624 0
M  V30 18551 C 228.299 3.47817 6.12078 0
M  V30 18552 C 229.009 3.39414 4.77697 0
M  V30 18553 N 228.959 2.04199 4.15538 0
M  V30 18554 H 231.798 3.41248 7.98759 0
M  V30 18555 H 232.07 2.57728 6.42 0
M  V30 18556 H 231.202 5.02657 6.42673 0
M  V30 18557 H 228.547 4.11708 4.08956 0
M  V30 18558 H 228.267 2.49626 6.61679 0
M  V30 18559 H 227.276 3.8662 6.00862 0
M  V30 18560 H 229.11 4.29991 7.97006 0
M  V30 18561 P 227.239 6.144 6.45285 0
M  V30 18562 O 227.019 7.54673 6.86199 0
M  V30 18563 O 226.449 5.12391 7.179 0
M  V30 18564 O 226.989 5.99158 4.88404 0
M  V30 18565 C 227.929 6.60234 3.96415 0
M  V30 18566 C 227.199 7.08259 2.72856 0
M  V30 18567 O 226.989 5.9427 1.83651 0
M  V30 18568 C 225.799 7.64886 2.9555 0
M  V30 18569 O 225.409 8.53963 1.90717 0
M  V30 18570 C 224.919 6.4116 2.90739 0
M  V30 18571 C 225.629 5.55375 1.86963 0
M  V30 18572 N 225.579 4.09664 2.15742 0
M  V30 18573 H 228.418 7.45574 4.45629 0
M  V30 18574 H 228.69 5.86232 3.67314 0
M  V30 18575 H 227.822 7.84412 2.24479 0
M  V30 18576 P 223.859 8.7635 1.60911 0
M  V30 18577 O 223.639 10.1388 1.11561 0
M  V30 18578 O 223.069 8.36503 2.79617 0
M  V30 18579 O 223.609 7.71806 0.42951 0
M  V30 18580 C 224.549 7.67148 -0.673689 0
M  V30 18581 C 223.819 7.33374 -1.95559 0
M  V30 18582 O 223.609 5.88721 -2.00726 0
M  V30 18583 C 222.419 7.92526 -2.10483 0
M  V30 18584 O 222.029 8.02971 -3.47653 0
M  V30 18585 C 221.539 6.89602 -1.41652 0
M  V30 18586 C 222.249 5.59201 -1.75185 0
M  V30 18587 N 222.199 4.58235 -0.662552 0
M  V30 18588 H 225.038 8.65116 -0.777161 0
M  V30 18589 H 225.31 6.90173 -0.474152 0
M  V30 18590 H 224.442 7.66548 -2.79458 0
M  V30 18591 P 220.479 8.03563 -3.84925 0
M  V30 18592 O 220.259 8.85821 -5.0569 0
M  V30 18593 O 219.689 8.41101 -2.65469 0
M  V30 18594 O 220.229 6.4965 -4.18908 0
M  V30 18595 C 221.169 5.81037 -5.05421 0
M  V30 18596 C 220.439 4.78366 -5.89277 0
M  V30 18597 O 220.229 3.58302 -5.08433 0
M  V30 18598 C 219.039 5.17448 -6.36119 0
M  V30 18599 O 218.649 4.45271 -7.53232 0
M  V30 18600 C 218.159 4.74639 -5.19936 0
M  V30 18601 C 218.869 3.49432 -4.70418 0
M  V30 18602 N 218.819 3.31776 -3.22945 0
M  V30 18603 H 221.658 6.54213 -5.71376 0
M  V30 18604 H 221.93 5.30492 -4.44033 0
M  V30 18605 H 221.062 4.55889 -6.76652 0
M  V30 18606 P 217.099 4.23843 -7.83734 0
M  V30 18607 O 216.879 4.19407 -9.29784 0
M  V30 18608 O 216.309 5.24426 -7.09156 0
M  V30 18609 O 216.849 2.7935 -7.20758 0
M  V30 18610 C 217.789 1.7299 -7.50419 0
M  V30 18611 C 217.059 0.406376 -7.57911 0
M  V30 18612 O 216.849 -0.0897726 -6.21935 0
M  V30 18613 C 215.659 0.447224 -8.1878 0
M  V30 18614 O 215.269 -0.825065 -8.71101 0
M  V30 18615 C 214.779 0.783801 -6.99623 0
M  V30 18616 C 215.489 0.0619192 -5.85967 0
M  V30 18617 N 215.439 0.7859 -4.56281 0
M  V30 18618 H 218.278 1.93423 -8.4679 0
M  V30 18619 H 218.55 1.68181 -6.71046 0
M  V30 18620 H 217.682 -0.289041 -8.15388 0
M  V30 18621 P 213.719 -1.17771 -8.83182 0
M  V30 18622 O 213.499 -2.07206 -9.98732 0
M  V30 18623 O 212.929 0.0743816 -8.81969 0
M  V30 18624 O 213.469 -1.97652 -7.47304 0
M  V30 18625 C 214.409 -3.01133 -7.08783 0
M  V30 18626 C 213.679 -4.12613 -6.37049 0
M  V30 18627 O 213.469 -3.72827 -4.97879 0
M  V30 18628 C 212.279 -4.45085 -6.88694 0
M  V30 18629 O 211.889 -5.7877 -6.5624 0
M  V30 18630 C 211.399 -3.47817 -6.12078 0
M  V30 18631 C 212.109 -3.39414 -4.77697 0
M  V30 18632 N 212.059 -2.04615 -4.15333 0
M  V30 18633 H 214.898 -3.41248 -7.98759 0
M  V30 18634 H 215.17 -2.5837 -6.41742 0
M  V30 18635 H 214.302 -5.02657 -6.42673 0
M  V30 18636 P 210.339 -6.144 -6.45285 0
M  V30 18637 O 210.119 -7.54673 -6.86199 0
M  V30 18638 O 209.549 -5.12391 -7.179 0
M  V30 18639 O 210.089 -5.99158 -4.88404 0
M  V30 18640 C 211.029 -6.60062 -3.96313 0
M  V30 18641 C 210.299 -7.08259 -2.72856 0
M  V30 18642 O 210.089 -5.9427 -1.83651 0
M  V30 18643 C 208.899 -7.65087 -2.94749 0
M  V30 18644 O 208.509 -8.53963 -1.90717 0
M  V30 18645 C 208.019 -6.41069 -2.90698 0
M  V30 18646 C 208.729 -5.5528 -1.86931 0
M  V30 18647 N 208.679 -4.09575 -2.15696 0
M  V30 18648 C 208.529 -3.24249 -1.08435 0
M  V30 18649 O 208.439 -3.63946 0.0628747 0
M  V30 18650 N 208.489 -1.90009 -1.39973 0
M  V30 18651 C 208.579 -1.34884 -2.65614 0
M  V30 18652 C 208.729 -2.3145 -3.71736 0
M  V30 18653 C 208.779 -3.63518 -3.44754 0
M  V30 18654 H 211.52 -7.45402 -4.45526 0
M  V30 18655 H 211.789 -5.86062 -3.67208 0
M  V30 18656 H 210.922 -7.84412 -2.24479 0
M  V30 18657 H 208.267 -5.73358 -0.888409 0
M  V30 18658 H 207.988 -5.90877 -3.88583 0
M  V30 18659 H 206.996 -6.65867 -2.58821 0
M  V30 18660 H 208.83 -8.16248 -3.92006 0
M  V30 18661 H 208.901 -4.34551 -4.26383 0
M  V30 18662 P 206.959 -8.7635 -1.60911 0
M  V30 18663 O 206.739 -10.1388 -1.11561 0
M  V30 18664 O 206.169 -8.36503 -2.79617 0
M  V30 18665 O 206.709 -7.71806 -0.42951 0
M  V30 18666 C 207.649 -7.67148 0.673689 0
M  V30 18667 C 206.919 -7.33374 1.95559 0
M  V30 18668 O 206.709 -5.88721 2.00726 0
M  V30 18669 C 205.519 -7.92526 2.10483 0
M  V30 18670 O 205.129 -8.02971 3.47653 0
M  V30 18671 C 204.639 -6.89602 1.41652 0
M  V30 18672 C 205.349 -5.59201 1.75185 0
M  V30 18673 N 205.299 -4.58235 0.662552 0
M  V30 18674 H 208.138 -8.65116 0.777161 0
M  V30 18675 H 208.41 -6.90173 0.474152 0
M  V30 18676 H 207.542 -7.66548 2.79458 0
M  V30 18677 P 203.579 -8.03563 3.84925 0
M  V30 18678 O 203.359 -8.85821 5.0569 0
M  V30 18679 O 202.789 -8.41101 2.65469 0
M  V30 18680 O 203.329 -6.49734 4.18962 0
M  V30 18681 C 204.269 -5.81037 5.05421 0
M  V30 18682 C 203.539 -4.79018 5.88876 0
M  V30 18683 O 203.329 -3.58359 5.08515 0
M  V30 18684 C 202.139 -5.17448 6.36119 0
M  V30 18685 O 201.749 -4.45322 7.53318 0
M  V30 18686 C 201.259 -4.74639 5.19936 0
M  V30 18687 C 201.969 -3.49432 4.70418 0
M  V30 18688 N 201.919 -3.31776 3.22945 0
M  V30 18689 C 201.769 -2.02742 2.72939 0
M  V30 18690 O 201.679 -1.08301 3.52749 0
M  V30 18691 N 201.719 -1.96117 1.22063 0
M  V30 18692 C 201.819 -2.8878 0.551566 0
M  V30 18693 N 201.769 -2.65609 -0.750198 0
M  V30 18694 C 201.969 -4.22457 1.03707 0
M  V30 18695 C 202.019 -4.37979 2.39113 0
M  V30 18696 H 204.759 -6.54138 5.7131 0
M  V30 18697 H 205.029 -5.30492 4.44033 0
M  V30 18698 H 204.162 -4.55945 6.76735 0
M  V30 18699 H 201.507 -2.6176 5.18021 0
M  V30 18700 H 201.227 -5.52233 4.41941 0
M  V30 18701 H 200.236 -4.52045 5.53452 0
M  V30 18702 H 202.07 -6.25124 6.55234 0
M  V30 18703 H 202.142 -5.37936 2.80552 0
M  V30 18704 H 202.04 -5.07528 0.359553 0
M  V30 18705 H 201.652 -1.69403 -1.09847 0
M  V30 18706 H 201.848 -3.43701 -1.41792 0
M  V30 18707 P 200.199 -4.23843 7.83734 0
M  V30 18708 O 199.979 -4.19407 9.29784 0
M  V30 18709 O 199.409 -5.24426 7.09156 0
M  V30 18710 O 199.949 -2.7935 7.20758 0
M  V30 18711 C 200.889 -1.7299 7.50419 0
M  V30 18712 C 200.159 -0.406376 7.57911 0
M  V30 18713 O 199.949 0.0897726 6.21935 0
M  V30 18714 C 198.759 -0.447224 8.1878 0
M  V30 18715 O 198.369 0.825065 8.71101 0
M  V30 18716 C 197.879 -0.783801 6.99623 0
M  V30 18717 C 198.589 -0.0619192 5.85967 0
M  V30 18718 N 198.539 -0.790462 4.56202 0
M  V30 18719 H 201.378 -1.93423 8.4679 0
M  V30 18720 H 201.65 -1.68852 6.70877 0
M  V30 18721 H 200.782 0.289041 8.15388 0
M  V30 18722 H 198.127 0.927006 5.72848 0
M  V30 18723 H 197.847 -1.86973 6.82036 0
M  V30 18724 H 196.856 -0.403953 7.13357 0
M  V30 18725 H 198.69 -1.20599 8.97534 0
M  V30 18726 P 196.819 1.17771 8.83182 0
M  V30 18727 O 196.599 2.07206 9.98732 0
M  V30 18728 O 196.029 -0.0743816 8.81969 0
M  V30 18729 O 196.569 1.97652 7.47304 0
M  V30 18730 C 197.509 3.01055 7.08599 0
M  V30 18731 C 196.779 4.12613 6.37049 0
M  V30 18732 O 196.569 3.72827 4.97879 0
M  V30 18733 C 195.379 4.45719 6.88164 0
M  V30 18734 O 194.989 5.7877 6.5624 0
M  V30 18735 C 194.499 3.47768 6.11991 0
M  V30 18736 C 195.209 3.39356 4.77615 0
M  V30 18737 N 195.159 2.04571 4.15244 0
M  V30 18738 C 195.009 1.98587 2.78314 0
M  V30 18739 O 194.919 2.98134 2.08835 0
M  V30 18740 N 194.969 0.714467 2.24925 0
M  V30 18741 C 195.059 -0.470001 2.94169 0
M  V30 18742 C 195.209 -0.312541 4.36783 0
M  V30 18743 C 195.259 0.914512 4.92583 0
M  V30 18744 H 198 3.41169 7.98575 0
M  V30 18745 H 198.269 2.58295 6.41556 0
M  V30 18746 H 197.402 5.02657 6.42673 0
M  V30 18747 H 194.747 4.11637 4.08885 0
M  V30 18748 H 194.468 2.49626 6.61679 0
M  V30 18749 H 193.476 3.86566 6.00778 0
M  V30 18750 H 195.31 4.29943 7.96918 0
M  V30 18751 H 195.381 1.00937 6.00374 0
M  V30 18752 P 193.439 6.144 6.45285 0
M  V30 18753 O 193.219 7.54673 6.86199 0
M  V30 18754 O 192.649 5.12391 7.179 0
M  V30 18755 O 193.189 5.99158 4.88404 0
M  V30 18756 C 194.129 6.60062 3.96313 0
M  V30 18757 C 193.399 7.08259 2.72856 0
M  V30 18758 O 193.189 5.9427 1.83651 0
M  V30 18759 C 191.999 7.65087 2.94749 0
M  V30 18760 O 191.609 8.53963 1.90717 0
M  V30 18761 C 191.119 6.41069 2.90698 0
M  V30 18762 C 191.829 5.5528 1.86931 0
M  V30 18763 N 191.779 4.09575 2.15696 0
M  V30 18764 C 191.629 3.24249 1.08435 0
M  V30 18765 O 191.539 3.63946 -0.0628747 0
M  V30 18766 N 191.589 1.90009 1.39973 0
M  V30 18767 C 191.679 1.34884 2.65614 0
M  V30 18768 C 191.829 2.3145 3.71736 0
M  V30 18769 C 191.879 3.63518 3.44754 0
M  V30 18770 H 194.62 7.45402 4.45526 0
M  V30 18771 H 194.889 5.86062 3.67208 0
M  V30 18772 H 194.022 7.84412 2.24479 0
M  V30 18773 H 191.367 5.73358 0.888409 0
M  V30 18774 H 191.088 5.90877 3.88583 0
M  V30 18775 H 190.096 6.65867 2.58821 0
M  V30 18776 H 191.93 8.16248 3.92006 0
M  V30 18777 H 192.001 4.34551 4.26383 0
M  V30 18778 P 190.059 8.7635 1.60911 0
M  V30 18779 O 189.839 10.1388 1.11561 0
M  V30 18780 O 189.269 8.36503 2.79617 0
M  V30 18781 O 189.809 7.71806 0.42951 0
M  V30 18782 C 190.749 7.66948 -0.673514 0
M  V30 18783 C 190.019 7.33374 -1.95559 0
M  V30 18784 O 189.809 5.88721 -2.00726 0
M  V30 18785 C 188.619 7.92218 -2.1125 0
M  V30 18786 O 188.229 8.02971 -3.47653 0
M  V30 18787 C 187.739 6.89504 -1.41631 0
M  V30 18788 C 188.449 5.59106 -1.75155 0
M  V30 18789 N 188.399 4.58136 -0.662409 0
M  V30 18790 C 188.249 3.26059 -1.02863 0
M  V30 18791 O 188.159 2.90743 -2.19009 0
M  V30 18792 N 188.209 2.35995 0.0155585 0
M  V30 18793 C 188.299 2.65248 1.35603 0
M  V30 18794 O 188.249 1.75605 2.20651 0
M  V30 18795 C 188.449 4.05747 1.64698 0
M  V30 18796 C 188.559 4.42345 3.09553 0
M  V30 18797 C 188.499 4.96734 0.652411 0
M  V30 18798 H 191.24 8.64917 -0.776982 0
M  V30 18799 H 191.509 6.89974 -0.474015 0
M  V30 18800 H 190.642 7.66548 -2.79458 0
M  V30 18801 H 187.987 5.16076 -2.65138 0
M  V30 18802 H 187.708 7.06433 -0.329384 0
M  V30 18803 H 186.716 6.90829 -1.81996 0
M  V30 18804 H 188.55 8.90774 -1.62639 0
M  V30 18805 H 188.621 6.02181 0.895285 0
M  V30 18806 H 187.591 4.80252 3.45468 0
M  V30 18807 H 189.328 5.20015 3.22119 0
M  V30 18808 H 188.84 3.53269 3.67833 0
M  V30 18809 H 188.104 1.39558 -0.227499 0
M  V30 18810 P 186.679 8.03563 -3.84925 0
M  V30 18811 O 186.459 8.85821 -5.0569 0
M  V30 18812 O 185.889 8.41101 -2.65469 0
M  V30 18813 O 186.429 6.4965 -4.18908 0
M  V30 18814 C 187.369 5.81037 -5.05421 0
M  V30 18815 C 186.639 4.78366 -5.89277 0
M  V30 18816 O 186.429 3.58302 -5.08433 0
M  V30 18817 C 185.239 5.17448 -6.36119 0
M  V30 18818 O 184.849 4.45271 -7.53232 0
M  V30 18819 C 184.359 4.74639 -5.19936 0
M  V30 18820 C 185.069 3.49432 -4.70418 0
M  V30 18821 N 185.019 3.31776 -3.22945 0
M  V30 18822 H 187.858 6.54213 -5.71376 0
M  V30 18823 H 188.13 5.30492 -4.44033 0
M  V30 18824 H 187.262 4.55889 -6.76652 0
M  V30 18825 P 183.299 4.23843 -7.83734 0
M  V30 18826 O 183.079 4.19407 -9.29784 0
M  V30 18827 O 182.509 5.24426 -7.09156 0
M  V30 18828 O 183.049 2.7935 -7.20758 0
M  V30 18829 C 183.989 1.7299 -7.50419 0
M  V30 18830 C 183.259 0.406376 -7.57911 0
M  V30 18831 O 183.049 -0.0897726 -6.21935 0
M  V30 18832 C 181.859 0.447224 -8.1878 0
M  V30 18833 O 181.469 -0.825065 -8.71101 0
M  V30 18834 C 180.979 0.783801 -6.99623 0
M  V30 18835 C 181.689 0.0619192 -5.85967 0
M  V30 18836 N 181.639 0.7859 -4.56281 0
M  V30 18837 H 184.478 1.93423 -8.4679 0
M  V30 18838 H 184.75 1.68181 -6.71046 0
M  V30 18839 H 183.882 -0.289041 -8.15388 0
M  V30 18840 P 179.919 -1.17771 -8.83182 0
M  V30 18841 O 179.699 -2.07206 -9.98732 0
M  V30 18842 O 179.129 0.0743816 -8.81969 0
M  V30 18843 O 179.669 -1.97652 -7.47304 0
M  V30 18844 C 180.609 -3.01133 -7.08783 0
M  V30 18845 C 179.879 -4.12613 -6.37049 0
M  V30 18846 O 179.669 -3.72827 -4.97879 0
M  V30 18847 C 178.479 -4.45085 -6.88694 0
M  V30 18848 O 178.089 -5.7877 -6.5624 0
M  V30 18849 C 177.599 -3.47817 -6.12078 0
M  V30 18850 C 178.309 -3.39414 -4.77697 0
M  V30 18851 N 178.259 -2.04615 -4.15333 0
M  V30 18852 H 181.098 -3.41248 -7.98759 0
M  V30 18853 H 181.37 -2.5837 -6.41742 0
M  V30 18854 H 180.502 -5.02657 -6.42673 0
M  V30 18855 P 176.539 -6.144 -6.45285 0
M  V30 18856 O 176.319 -7.54673 -6.86199 0
M  V30 18857 O 175.749 -5.12391 -7.179 0
M  V30 18858 O 176.289 -5.99158 -4.88404 0
M  V30 18859 C 177.229 -6.60234 -3.96415 0
M  V30 18860 C 176.499 -7.08259 -2.72856 0
M  V30 18861 O 176.289 -5.9427 -1.83651 0
M  V30 18862 C 175.099 -7.64886 -2.9555 0
M  V30 18863 O 174.709 -8.53963 -1.90717 0
M  V30 18864 C 174.219 -6.4116 -2.90739 0
M  V30 18865 C 174.929 -5.55375 -1.86963 0
M  V30 18866 N 174.879 -4.09664 -2.15742 0
M  V30 18867 H 177.718 -7.45574 -4.45629 0
M  V30 18868 H 177.99 -5.86232 -3.67314 0
M  V30 18869 H 177.122 -7.84412 -2.24479 0
M  V30 18870 P 173.159 -8.7635 -1.60911 0
M  V30 18871 O 172.939 -10.1388 -1.11561 0
M  V30 18872 O 172.369 -8.36503 -2.79617 0
M  V30 18873 O 172.909 -7.71806 -0.42951 0
M  V30 18874 C 173.849 -7.67148 0.673689 0
M  V30 18875 C 173.119 -7.33374 1.95559 0
M  V30 18876 O 172.909 -5.88721 2.00726 0
M  V30 18877 C 171.719 -7.92526 2.10483 0
M  V30 18878 O 171.329 -8.02971 3.47653 0
M  V30 18879 C 170.839 -6.89602 1.41652 0
M  V30 18880 C 171.549 -5.59201 1.75185 0
M  V30 18881 N 171.499 -4.58235 0.662552 0
M  V30 18882 H 174.338 -8.65116 0.777161 0
M  V30 18883 H 174.61 -6.90173 0.474152 0
M  V30 18884 H 173.742 -7.66548 2.79458 0
M  V30 18885 P 169.779 -8.03563 3.84925 0
M  V30 18886 O 169.559 -8.85821 5.0569 0
M  V30 18887 O 168.989 -8.41101 2.65469 0
M  V30 18888 O 169.529 -6.4965 4.18908 0
M  V30 18889 C 170.469 -5.80886 5.05289 0
M  V30 18890 C 169.739 -4.78366 5.89277 0
M  V30 18891 O 169.529 -3.58302 5.08433 0
M  V30 18892 C 168.339 -5.16748 6.36559 0
M  V30 18893 O 167.949 -4.45271 7.53232 0
M  V30 18894 C 167.459 -4.74572 5.19863 0
M  V30 18895 C 168.169 -3.49373 4.70338 0
M  V30 18896 N 168.119 -3.31704 3.22876 0
M  V30 18897 C 167.969 -2.03326 2.74871 0
M  V30 18898 O 167.879 -1.06486 3.48076 0
M  V30 18899 N 167.929 -1.91838 1.37456 0
M  V30 18900 C 168.019 -2.94295 0.462035 0
M  V30 18901 O 167.969 -2.71763 -0.752928 0
M  V30 18902 C 168.169 -4.25064 1.05249 0
M  V30 18903 C 168.279 -5.39815 0.095697 0
M  V30 18904 C 168.219 -4.40214 2.39192 0
M  V30 18905 H 170.96 -6.54063 5.71245 0
M  V30 18906 H 171.229 -5.30339 4.43905 0
M  V30 18907 H 170.362 -4.55889 6.76652 0
M  V30 18908 H 167.707 -2.6167 5.17842 0
M  V30 18909 H 167.428 -5.52155 4.41878 0
M  V30 18910 H 166.436 -4.51918 5.53297 0
M  V30 18911 H 168.27 -6.25055 6.55162 0
M  V30 18912 H 168.341 -5.39798 2.81523 0
M  V30 18913 H 167.311 -5.91593 0.0279582 0
M  V30 18914 H 169.048 -6.10038 0.450573 0
M  V30 18915 H 168.56 -5.02007 -0.89937 0
M  V30 18916 H 167.824 -0.995326 1.00435 0
M  V30 18917 P 166.399 -4.23843 7.83734 0
M  V30 18918 O 166.179 -4.19407 9.29784 0
M  V30 18919 O 165.609 -5.24426 7.09156 0
M  V30 18920 O 166.149 -2.7935 7.20758 0
M  V30 18921 C 167.089 -1.72945 7.50224 0
M  V30 18922 C 166.359 -0.406376 7.57911 0
M  V30 18923 O 166.149 0.0897726 6.21935 0
M  V30 18924 C 164.959 -0.438983 8.18724 0
M  V30 18925 O 164.569 0.825065 8.71101 0
M  V30 18926 C 164.079 -0.783689 6.99524 0
M  V30 18927 C 164.789 -0.0619086 5.85867 0
M  V30 18928 N 164.739 -0.78573 4.56183 0
M  V30 18929 C 164.589 -0.0292889 3.41887 0
M  V30 18930 O 164.499 1.18445 3.4419 0
M  V30 18931 N 164.549 -0.744061 2.23964 0
M  V30 18932 C 164.639 -2.10932 2.10362 0
M  V30 18933 C 164.789 -2.8202 3.34994 0
M  V30 18934 C 164.839 -2.15547 4.52261 0
M  V30 18935 H 167.58 -1.93379 8.46595 0
M  V30 18936 H 167.849 -1.68132 6.70852 0
M  V30 18937 H 166.982 0.289041 8.15388 0
M  V30 18938 H 164.327 0.926847 5.72749 0
M  V30 18939 H 164.048 -1.86973 6.82036 0
M  V30 18940 H 163.056 -0.403896 7.13257 0
M  V30 18941 H 164.89 -1.20585 8.97435 0
M  V30 18942 H 164.961 -2.71231 5.45042 0
M  V30 18943 P 163.019 1.17771 8.83182 0
M  V30 18944 O 162.799 2.07206 9.98732 0
M  V30 18945 O 162.229 -0.0743816 8.81969 0
M  V30 18946 O 162.769 1.97652 7.47304 0
M  V30 18947 C 163.709 3.01055 7.08599 0
M  V30 18948 C 162.979 4.12613 6.37049 0
M  V30 18949 O 162.769 3.72827 4.97879 0
M  V30 18950 C 161.579 4.45719 6.88164 0
M  V30 18951 O 161.189 5.7877 6.5624 0
M  V30 18952 C 160.699 3.47768 6.11991 0
M  V30 18953 C 161.409 3.39356 4.77615 0
M  V30 18954 N 161.359 2.04571 4.15244 0
M  V30 18955 C 161.209 1.98587 2.78314 0
M  V30 18956 O 161.119 2.98134 2.08835 0
M  V30 18957 N 161.169 0.714467 2.24925 0
M  V30 18958 C 161.259 -0.470001 2.94169 0
M  V30 18959 C 161.409 -0.312541 4.36783 0
M  V30 18960 C 161.459 0.914512 4.92583 0
M  V30 18961 H 164.2 3.41169 7.98575 0
M  V30 18962 H 164.469 2.58295 6.41556 0
M  V30 18963 H 163.602 5.02657 6.42673 0
M  V30 18964 H 160.947 4.11637 4.08885 0
M  V30 18965 H 160.668 2.49626 6.61679 0
M  V30 18966 H 159.676 3.86566 6.00778 0
M  V30 18967 H 161.51 4.29943 7.96918 0
M  V30 18968 H 161.581 1.00937 6.00374 0
M  V30 18969 P 159.639 6.144 6.45285 0
M  V30 18970 O 159.419 7.54673 6.86199 0
M  V30 18971 O 158.849 5.12391 7.179 0
M  V30 18972 O 159.389 5.99158 4.88404 0
M  V30 18973 C 160.329 6.60234 3.96415 0
M  V30 18974 C 159.599 7.08259 2.72856 0
M  V30 18975 O 159.389 5.9427 1.83651 0
M  V30 18976 C 158.199 7.64886 2.9555 0
M  V30 18977 O 157.809 8.53963 1.90717 0
M  V30 18978 C 157.319 6.4116 2.90739 0
M  V30 18979 C 158.029 5.55375 1.86963 0
M  V30 18980 N 157.979 4.09448 2.16152 0
M  V30 18981 C 158.059 3.46824 3.37593 0
M  V30 18982 N 157.989 2.17422 3.29777 0
M  V30 18983 C 157.839 1.93065 1.94427 0
M  V30 18984 C 157.709 0.738053 1.20141 0
M  V30 18985 N 157.699 -0.474256 1.74676 0
M  V30 18986 N 157.589 0.850049 -0.13045 0
M  V30 18987 C 157.599 2.06169 -0.676992 0
M  V30 18988 N 157.719 3.23842 -0.101312 0
M  V30 18989 C 157.839 3.09402 1.23122 0
M  V30 18990 H 160.818 7.45574 4.45629 0
M  V30 18991 H 161.09 5.85864 3.679 0
M  V30 18992 H 160.222 7.84412 2.24479 0
M  V30 18993 H 157.567 5.73457 0.888562 0
M  V30 18994 H 157.287 5.90877 3.88583 0
M  V30 18995 H 156.296 6.6596 2.58858 0
M  V30 18996 H 158.13 8.16339 3.92049 0
M  V30 18997 H 158.171 4.00505 4.3174 0
M  V30 18998 H 157.79 -0.581337 2.76658 0
M  V30 18999 H 157.601 -1.30811 1.14888 0
M  V30 19000 H 157.493 2.08295 -1.75542 0
M  V30 19001 P 156.259 8.7635 1.60911 0
M  V30 19002 O 156.039 10.1388 1.11561 0
M  V30 19003 O 155.469 8.36503 2.79617 0
M  V30 19004 O 156.009 7.71806 0.42951 0
M  V30 19005 C 156.949 7.67148 -0.673689 0
M  V30 19006 C 156.219 7.33374 -1.95559 0
M  V30 19007 O 156.009 5.88721 -2.00726 0
M  V30 19008 C 154.819 7.92526 -2.10483 0
M  V30 19009 O 154.429 8.02971 -3.47653 0
M  V30 19010 C 153.939 6.89602 -1.41652 0
M  V30 19011 C 154.649 5.59201 -1.75185 0
M  V30 19012 N 154.599 4.58301 -0.657969 0
M  V30 19013 C 154.679 4.79019 0.692603 0
M  V30 19014 N 154.609 3.69736 1.38998 0
M  V30 19015 C 154.459 2.70474 0.438135 0
M  V30 19016 C 154.329 1.30327 0.538142 0
M  V30 19017 N 154.319 0.64304 1.69192 0
M  V30 19018 N 154.209 0.611027 -0.605183 0
M  V30 19019 C 154.219 1.27002 -1.75953 0
M  V30 19020 N 154.339 2.56038 -1.98546 0
M  V30 19021 C 154.459 3.22681 -0.822541 0
M  V30 19022 H 157.438 8.65116 -0.777161 0
M  V30 19023 H 157.71 6.9022 -0.46725 0
M  V30 19024 H 156.842 7.66548 -2.79458 0
M  V30 19025 H 154.187 5.16165 -2.65183 0
M  V30 19026 H 153.907 7.06433 -0.329384 0
M  V30 19027 H 152.916 6.90926 -1.82021 0
M  V30 19028 H 154.75 8.90873 -1.62657 0
M  V30 19029 H 154.791 5.77785 1.13874 0
M  V30 19030 H 154.41 1.15585 2.57991 0
M  V30 19031 H 154.221 -0.382989 1.69835 0
M  V30 19032 H 154.113 0.653331 -2.64449 0
M  V30 19033 P 152.879 8.03563 -3.84925 0
M  V30 19034 O 152.659 8.85821 -5.0569 0
M  V30 19035 O 152.089 8.41101 -2.65469 0
M  V30 19036 O 152.629 6.49734 -4.18962 0
M  V30 19037 C 153.569 5.81037 -5.05421 0
M  V30 19038 C 152.839 4.79018 -5.88876 0
M  V30 19039 O 152.629 3.58359 -5.08515 0
M  V30 19040 C 151.439 5.17448 -6.36119 0
M  V30 19041 O 151.049 4.45322 -7.53318 0
M  V30 19042 C 150.559 4.74639 -5.19936 0
M  V30 19043 C 151.269 3.49432 -4.70418 0
M  V30 19044 N 151.219 3.31776 -3.22945 0
M  V30 19045 C 151.069 2.02742 -2.72939 0
M  V30 19046 O 150.979 1.08301 -3.52749 0
M  V30 19047 N 151.019 1.96117 -1.22063 0
M  V30 19048 C 151.119 2.8878 -0.551566 0
M  V30 19049 N 151.069 2.65609 0.750198 0
M  V30 19050 C 151.269 4.22457 -1.03707 0
M  V30 19051 C 151.319 4.37979 -2.39113 0
M  V30 19052 H 154.059 6.54138 -5.7131 0
M  V30 19053 H 154.329 5.30492 -4.44033 0
M  V30 19054 H 153.462 4.55945 -6.76735 0
M  V30 19055 H 150.807 2.6176 -5.18021 0
M  V30 19056 H 150.527 5.52233 -4.41941 0
M  V30 19057 H 149.536 4.52045 -5.53452 0
M  V30 19058 H 151.37 6.25124 -6.55234 0
M  V30 19059 H 151.442 5.37936 -2.80552 0
M  V30 19060 H 151.34 5.07528 -0.359553 0
M  V30 19061 H 150.952 1.69403 1.09847 0
M  V30 19062 H 151.148 3.43701 1.41792 0
M  V30 19063 P 149.499 4.23843 -7.83734 0
M  V30 19064 O 149.279 4.19407 -9.29784 0
M  V30 19065 O 148.709 5.24426 -7.09156 0
M  V30 19066 O 149.249 2.7935 -7.20758 0
M  V30 19067 C 150.189 1.7299 -7.50419 0
M  V30 19068 C 149.459 0.406376 -7.57911 0
M  V30 19069 O 149.249 -0.0897726 -6.21935 0
M  V30 19070 C 148.059 0.447224 -8.1878 0
M  V30 19071 O 147.669 -0.825065 -8.71101 0
M  V30 19072 C 147.179 0.783801 -6.99623 0
M  V30 19073 C 147.889 0.0619192 -5.85967 0
M  V30 19074 N 147.839 0.7859 -4.56281 0
M  V30 19075 H 150.678 1.93423 -8.4679 0
M  V30 19076 H 150.95 1.68181 -6.71046 0
M  V30 19077 H 150.082 -0.289041 -8.15388 0
M  V30 19078 P 146.119 -1.17771 -8.83182 0
M  V30 19079 O 145.899 -2.07206 -9.98732 0
M  V30 19080 O 145.329 0.0743816 -8.81969 0
M  V30 19081 O 145.869 -1.97652 -7.47304 0
M  V30 19082 C 146.809 -3.01133 -7.08783 0
M  V30 19083 C 146.079 -4.12613 -6.37049 0
M  V30 19084 O 145.869 -3.72827 -4.97879 0
M  V30 19085 C 144.679 -4.45085 -6.88694 0
M  V30 19086 O 144.289 -5.7877 -6.5624 0
M  V30 19087 C 143.799 -3.47817 -6.12078 0
M  V30 19088 C 144.509 -3.39414 -4.77697 0
M  V30 19089 N 144.459 -2.04199 -4.15538 0
M  V30 19090 H 147.298 -3.41248 -7.98759 0
M  V30 19091 H 147.57 -2.57728 -6.42 0
M  V30 19092 H 146.702 -5.02657 -6.42673 0
M  V30 19093 H 144.047 -4.11708 -4.08956 0
M  V30 19094 H 143.767 -2.49626 -6.61679 0
M  V30 19095 H 142.776 -3.8662 -6.00862 0
M  V30 19096 H 144.61 -4.29991 -7.97006 0
M  V30 19097 P 142.739 -6.144 -6.45285 0
M  V30 19098 O 142.519 -7.54673 -6.86199 0
M  V30 19099 O 141.949 -5.12391 -7.179 0
M  V30 19100 O 142.489 -5.99158 -4.88404 0
M  V30 19101 C 143.429 -6.60234 -3.96415 0
M  V30 19102 C 142.699 -7.08259 -2.72856 0
M  V30 19103 O 142.489 -5.9427 -1.83651 0
M  V30 19104 C 141.299 -7.64886 -2.9555 0
M  V30 19105 O 140.909 -8.53963 -1.90717 0
M  V30 19106 C 140.419 -6.4116 -2.90739 0
M  V30 19107 C 141.129 -5.55375 -1.86963 0
M  V30 19108 N 141.079 -4.09448 -2.16152 0
M  V30 19109 H 143.918 -7.45574 -4.45629 0
M  V30 19110 H 144.19 -5.85864 -3.679 0
M  V30 19111 H 143.322 -7.84412 -2.24479 0
M  V30 19112 H 140.667 -5.73457 -0.888562 0
M  V30 19113 H 140.387 -5.90877 -3.88583 0
M  V30 19114 H 139.396 -6.6596 -2.58858 0
M  V30 19115 H 141.23 -8.16339 -3.92049 0
M  V30 19116 P 139.359 -8.7635 -1.60911 0
M  V30 19117 O 139.139 -10.1388 -1.11561 0
M  V30 19118 O 138.569 -8.36503 -2.79617 0
M  V30 19119 O 139.109 -7.71806 -0.42951 0
M  V30 19120 C 140.049 -7.67148 0.673689 0
M  V30 19121 C 139.319 -7.33374 1.95559 0
M  V30 19122 O 139.109 -5.88721 2.00726 0
M  V30 19123 C 137.919 -7.92526 2.10483 0
M  V30 19124 O 137.529 -8.02971 3.47653 0
M  V30 19125 C 137.039 -6.89602 1.41652 0
M  V30 19126 C 137.749 -5.59201 1.75185 0
M  V30 19127 N 137.699 -4.58235 0.662552 0
M  V30 19128 H 140.538 -8.65116 0.777161 0
M  V30 19129 H 140.81 -6.90173 0.474152 0
M  V30 19130 H 139.942 -7.66548 2.79458 0
M  V30 19131 P 135.979 -8.03563 3.84925 0
M  V30 19132 O 135.759 -8.85821 5.0569 0
M  V30 19133 O 135.189 -8.41101 2.65469 0
M  V30 19134 O 135.729 -6.4965 4.18908 0
M  V30 19135 C 136.669 -5.81037 5.05421 0
M  V30 19136 C 135.939 -4.78366 5.89277 0
M  V30 19137 O 135.729 -3.58302 5.08433 0
M  V30 19138 C 134.539 -5.17448 6.36119 0
M  V30 19139 O 134.149 -4.45271 7.53232 0
M  V30 19140 C 133.659 -4.74639 5.19936 0
M  V30 19141 C 134.369 -3.49432 4.70418 0
M  V30 19142 N 134.319 -3.31776 3.22945 0
M  V30 19143 H 137.158 -6.54213 5.71376 0
M  V30 19144 H 137.43 -5.30492 4.44033 0
M  V30 19145 H 136.562 -4.55889 6.76652 0
M  V30 19146 P 132.599 -4.23843 7.83734 0
M  V30 19147 O 132.379 -4.19407 9.29784 0
M  V30 19148 O 131.809 -5.24426 7.09156 0
M  V30 19149 O 132.349 -2.7935 7.20758 0
M  V30 19150 C 133.289 -1.7299 7.50419 0
M  V30 19151 C 132.559 -0.406376 7.57911 0
M  V30 19152 O 132.349 0.0897726 6.21935 0
M  V30 19153 C 131.159 -0.447224 8.1878 0
M  V30 19154 O 130.769 0.825065 8.71101 0
M  V30 19155 C 130.279 -0.783801 6.99623 0
M  V30 19156 C 130.989 -0.0619192 5.85967 0
M  V30 19157 N 130.939 -0.7859 4.56281 0
M  V30 19158 H 133.778 -1.93423 8.4679 0
M  V30 19159 H 134.05 -1.68181 6.71046 0
M  V30 19160 H 133.182 0.289041 8.15388 0
M  V30 19161 P 129.219 1.17771 8.83182 0
M  V30 19162 O 128.999 2.07206 9.98732 0
M  V30 19163 O 128.429 -0.0743816 8.81969 0
M  V30 19164 O 128.969 1.97652 7.47304 0
M  V30 19165 C 129.909 3.01133 7.08783 0
M  V30 19166 C 129.179 4.12613 6.37049 0
M  V30 19167 O 128.969 3.72827 4.97879 0
M  V30 19168 C 127.779 4.45085 6.88694 0
M  V30 19169 O 127.389 5.7877 6.5624 0
M  V30 19170 C 126.899 3.47817 6.12078 0
M  V30 19171 C 127.609 3.39414 4.77697 0
M  V30 19172 N 127.559 2.04615 4.15333 0
M  V30 19173 H 130.398 3.41248 7.98759 0
M  V30 19174 H 130.67 2.5837 6.41742 0
M  V30 19175 H 129.802 5.02657 6.42673 0
M  V30 19176 P 125.839 6.144 6.45285 0
M  V30 19177 O 125.619 7.54673 6.86199 0
M  V30 19178 O 125.049 5.12391 7.179 0
M  V30 19179 O 125.589 5.99158 4.88404 0
M  V30 19180 C 126.529 6.60234 3.96415 0
M  V30 19181 C 125.799 7.08259 2.72856 0
M  V30 19182 O 125.589 5.9427 1.83651 0
M  V30 19183 C 124.399 7.64886 2.9555 0
M  V30 19184 O 124.009 8.53963 1.90717 0
M  V30 19185 C 123.519 6.4116 2.90739 0
M  V30 19186 C 124.229 5.55375 1.86963 0
M  V30 19187 N 124.179 4.09664 2.15742 0
M  V30 19188 H 127.018 7.45574 4.45629 0
M  V30 19189 H 127.29 5.86232 3.67314 0
M  V30 19190 H 126.422 7.84412 2.24479 0
M  V30 19191 P 122.459 8.7635 1.60911 0
M  V30 19192 O 122.239 10.1388 1.11561 0
M  V30 19193 O 121.669 8.36503 2.79617 0
M  V30 19194 O 122.209 7.71806 0.42951 0
M  V30 19195 C 123.149 7.67148 -0.673689 0
M  V30 19196 C 122.419 7.33374 -1.95559 0
M  V30 19197 O 122.209 5.88721 -2.00726 0
M  V30 19198 C 121.019 7.92526 -2.10483 0
M  V30 19199 O 120.629 8.02971 -3.47653 0
M  V30 19200 C 120.139 6.89602 -1.41652 0
M  V30 19201 C 120.849 5.59201 -1.75185 0
M  V30 19202 N 120.799 4.58235 -0.662552 0
M  V30 19203 H 123.638 8.65116 -0.777161 0
M  V30 19204 H 123.91 6.90173 -0.474152 0
M  V30 19205 H 123.042 7.66548 -2.79458 0
M  V30 19206 P 119.079 8.03563 -3.84925 0
M  V30 19207 O 118.859 8.85821 -5.0569 0
M  V30 19208 O 118.289 8.41101 -2.65469 0
M  V30 19209 O 118.829 6.4965 -4.18908 0
M  V30 19210 C 119.769 5.81037 -5.05421 0
M  V30 19211 C 119.039 4.78366 -5.89277 0
M  V30 19212 O 118.829 3.58302 -5.08433 0
M  V30 19213 C 117.639 5.17448 -6.36119 0
M  V30 19214 O 117.249 4.45271 -7.53232 0
M  V30 19215 C 116.759 4.74639 -5.19936 0
M  V30 19216 C 117.469 3.49432 -4.70418 0
M  V30 19217 N 117.419 3.31776 -3.22945 0
M  V30 19218 H 120.258 6.54213 -5.71376 0
M  V30 19219 H 120.53 5.30492 -4.44033 0
M  V30 19220 H 119.662 4.55889 -6.76652 0
M  V30 19221 P 115.699 4.23843 -7.83734 0
M  V30 19222 O 115.479 4.19407 -9.29784 0
M  V30 19223 O 114.909 5.24426 -7.09156 0
M  V30 19224 O 115.449 2.7935 -7.20758 0
M  V30 19225 C 116.389 1.7299 -7.50419 0
M  V30 19226 C 115.659 0.406376 -7.57911 0
M  V30 19227 O 115.449 -0.0897726 -6.21935 0
M  V30 19228 C 114.259 0.447224 -8.1878 0
M  V30 19229 O 113.869 -0.825065 -8.71101 0
M  V30 19230 C 113.379 0.783801 -6.99623 0
M  V30 19231 C 114.089 0.0619192 -5.85967 0
M  V30 19232 N 114.039 0.790462 -4.56202 0
M  V30 19233 H 116.878 1.93423 -8.4679 0
M  V30 19234 H 117.15 1.68852 -6.70877 0
M  V30 19235 H 116.282 -0.289041 -8.15388 0
M  V30 19236 H 113.627 -0.927006 -5.72848 0
M  V30 19237 H 113.347 1.86973 -6.82036 0
M  V30 19238 H 112.356 0.403953 -7.13357 0
M  V30 19239 H 114.19 1.20599 -8.97534 0
M  V30 19240 P 112.319 -1.17771 -8.83182 0
M  V30 19241 O 112.099 -2.07206 -9.98732 0
M  V30 19242 O 111.529 0.0743816 -8.81969 0
M  V30 19243 O 112.069 -1.97652 -7.47304 0
M  V30 19244 C 113.009 -3.01133 -7.08783 0
M  V30 19245 C 112.279 -4.12613 -6.37049 0
M  V30 19246 O 112.069 -3.72827 -4.97879 0
M  V30 19247 C 110.879 -4.45085 -6.88694 0
M  V30 19248 O 110.489 -5.7877 -6.5624 0
M  V30 19249 C 109.999 -3.47817 -6.12078 0
M  V30 19250 C 110.709 -3.39414 -4.77697 0
M  V30 19251 N 110.659 -2.04615 -4.15333 0
M  V30 19252 H 113.498 -3.41248 -7.98759 0
M  V30 19253 H 113.77 -2.5837 -6.41742 0
M  V30 19254 H 112.902 -5.02657 -6.42673 0
M  V30 19255 P 108.939 -6.144 -6.45285 0
M  V30 19256 O 108.719 -7.54673 -6.86199 0
M  V30 19257 O 108.149 -5.12391 -7.179 0
M  V30 19258 O 108.689 -5.99158 -4.88404 0
M  V30 19259 C 109.629 -6.60234 -3.96415 0
M  V30 19260 C 108.899 -7.08259 -2.72856 0
M  V30 19261 O 108.689 -5.9427 -1.83651 0
M  V30 19262 C 107.499 -7.64886 -2.9555 0
M  V30 19263 O 107.109 -8.53963 -1.90717 0
M  V30 19264 C 106.619 -6.4116 -2.90739 0
M  V30 19265 C 107.329 -5.55375 -1.86963 0
M  V30 19266 N 107.279 -4.09664 -2.15742 0
M  V30 19267 H 110.118 -7.45574 -4.45629 0
M  V30 19268 H 110.39 -5.86232 -3.67314 0
M  V30 19269 H 109.522 -7.84412 -2.24479 0
M  V30 19270 P 105.559 -8.7635 -1.60911 0
M  V30 19271 O 105.339 -10.1388 -1.11561 0
M  V30 19272 O 104.769 -8.36503 -2.79617 0
M  V30 19273 O 105.309 -7.71806 -0.42951 0
M  V30 19274 C 106.249 -7.67148 0.673689 0
M  V30 19275 C 105.519 -7.33374 1.95559 0
M  V30 19276 O 105.309 -5.88721 2.00726 0
M  V30 19277 C 104.119 -7.92526 2.10483 0
M  V30 19278 O 103.729 -8.02971 3.47653 0
M  V30 19279 C 103.239 -6.89602 1.41652 0
M  V30 19280 C 103.949 -5.59201 1.75185 0
M  V30 19281 N 103.899 -4.58301 0.657969 0
M  V30 19282 H 106.738 -8.65116 0.777161 0
M  V30 19283 H 107.01 -6.9022 0.46725 0
M  V30 19284 H 106.142 -7.66548 2.79458 0
M  V30 19285 H 103.487 -5.16165 2.65183 0
M  V30 19286 H 103.207 -7.06433 0.329384 0
M  V30 19287 H 102.216 -6.90926 1.82021 0
M  V30 19288 H 104.05 -8.90873 1.62657 0
M  V30 19289 P 102.179 -8.03563 3.84925 0
M  V30 19290 O 101.959 -8.85821 5.0569 0
M  V30 19291 O 101.389 -8.41101 2.65469 0
M  V30 19292 O 101.929 -6.4965 4.18908 0
M  V30 19293 C 102.869 -5.81037 5.05421 0
M  V30 19294 C 102.139 -4.78366 5.89277 0
M  V30 19295 O 101.929 -3.58302 5.08433 0
M  V30 19296 C 100.739 -5.17448 6.36119 0
M  V30 19297 O 100.349 -4.45271 7.53232 0
M  V30 19298 C 99.8594 -4.74639 5.19936 0
M  V30 19299 C 100.569 -3.49432 4.70418 0
M  V30 19300 N 100.519 -3.31776 3.22945 0
M  V30 19301 H 103.358 -6.54213 5.71376 0
M  V30 19302 H 103.63 -5.30492 4.44033 0
M  V30 19303 H 102.762 -4.55889 6.76652 0
M  V30 19304 P 98.7994 -4.23843 7.83734 0
M  V30 19305 O 98.5794 -4.19407 9.29784 0
M  V30 19306 O 98.0094 -5.24426 7.09156 0
M  V30 19307 O 98.5494 -2.7935 7.20758 0
M  V30 19308 C 99.4894 -1.7299 7.50419 0
M  V30 19309 C 98.7594 -0.406376 7.57911 0
M  V30 19310 O 98.5494 0.0897726 6.21935 0
M  V30 19311 C 97.3594 -0.447224 8.1878 0
M  V30 19312 O 96.9694 0.825065 8.71101 0
M  V30 19313 C 96.4794 -0.783801 6.99623 0
M  V30 19314 C 97.1894 -0.0619192 5.85967 0
M  V30 19315 N 97.1394 -0.790462 4.56202 0
M  V30 19316 H 99.9784 -1.93423 8.4679 0
M  V30 19317 H 100.25 -1.68852 6.70877 0
M  V30 19318 H 99.3824 0.289041 8.15388 0
M  V30 19319 H 96.7274 0.927006 5.72848 0
M  V30 19320 H 96.4474 -1.86973 6.82036 0
M  V30 19321 H 95.4564 -0.403953 7.13357 0
M  V30 19322 H 97.2904 -1.20599 8.97534 0
M  V30 19323 P 95.4195 1.17771 8.83182 0
M  V30 19324 O 95.1995 2.07206 9.98732 0
M  V30 19325 O 94.6295 -0.0743816 8.81969 0
M  V30 19326 O 95.1695 1.97652 7.47304 0
M  V30 19327 C 96.1095 3.01133 7.08783 0
M  V30 19328 C 95.3795 4.12613 6.37049 0
M  V30 19329 O 95.1695 3.72827 4.97879 0
M  V30 19330 C 93.9795 4.45085 6.88694 0
M  V30 19331 O 93.5895 5.7877 6.5624 0
M  V30 19332 C 93.0995 3.47817 6.12078 0
M  V30 19333 C 93.8095 3.39414 4.77697 0
M  V30 19334 N 93.7595 2.04615 4.15333 0
M  V30 19335 H 96.5985 3.41248 7.98759 0
M  V30 19336 H 96.8705 2.5837 6.41742 0
M  V30 19337 H 96.0025 5.02657 6.42673 0
M  V30 19338 P 92.0395 6.144 6.45285 0
M  V30 19339 O 91.8195 7.54673 6.86199 0
M  V30 19340 O 91.2495 5.12391 7.179 0
M  V30 19341 O 91.7895 5.99158 4.88404 0
M  V30 19342 C 92.7295 6.60234 3.96415 0
M  V30 19343 C 91.9995 7.08259 2.72856 0
M  V30 19344 O 91.7895 5.9427 1.83651 0
M  V30 19345 C 90.5995 7.64886 2.9555 0
M  V30 19346 O 90.2095 8.53963 1.90717 0
M  V30 19347 C 89.7195 6.4116 2.90739 0
M  V30 19348 C 90.4295 5.55375 1.86963 0
M  V30 19349 N 90.3795 4.09664 2.15742 0
M  V30 19350 H 93.2185 7.45574 4.45629 0
M  V30 19351 H 93.4905 5.86232 3.67314 0
M  V30 19352 H 92.6225 7.84412 2.24479 0
M  V30 19353 P 88.6595 8.7635 1.60911 0
M  V30 19354 O 88.4395 10.1388 1.11561 0
M  V30 19355 O 87.8695 8.36503 2.79617 0
M  V30 19356 O 88.4095 7.71806 0.42951 0
M  V30 19357 C 89.3495 7.67148 -0.673689 0
M  V30 19358 C 88.6195 7.33374 -1.95559 0
M  V30 19359 O 88.4095 5.88721 -2.00726 0
M  V30 19360 C 87.2195 7.92526 -2.10483 0
M  V30 19361 O 86.8295 8.02971 -3.47653 0
M  V30 19362 C 86.3395 6.89602 -1.41652 0
M  V30 19363 C 87.0495 5.59201 -1.75185 0
M  V30 19364 N 86.9995 4.58301 -0.657969 0
M  V30 19365 H 89.8385 8.65116 -0.777161 0
M  V30 19366 H 90.1105 6.9022 -0.46725 0
M  V30 19367 H 89.2425 7.66548 -2.79458 0
M  V30 19368 H 86.5875 5.16165 -2.65183 0
M  V30 19369 H 86.3075 7.06433 -0.329384 0
M  V30 19370 H 85.3165 6.90926 -1.82021 0
M  V30 19371 H 87.1505 8.90873 -1.62657 0
M  V30 19372 P 85.2795 8.03563 -3.84925 0
M  V30 19373 O 85.0595 8.85821 -5.0569 0
M  V30 19374 O 84.4895 8.41101 -2.65469 0
M  V30 19375 O 85.0295 6.4965 -4.18908 0
M  V30 19376 C 85.9695 5.81037 -5.05421 0
M  V30 19377 C 85.2395 4.78366 -5.89277 0
M  V30 19378 O 85.0295 3.58302 -5.08433 0
M  V30 19379 C 83.8395 5.17448 -6.36119 0
M  V30 19380 O 83.4495 4.45271 -7.53232 0
M  V30 19381 C 82.9595 4.74639 -5.19936 0
M  V30 19382 C 83.6695 3.49432 -4.70418 0
M  V30 19383 N 83.6195 3.32099 -3.22613 0
M  V30 19384 H 86.4585 6.54213 -5.71376 0
M  V30 19385 H 86.7305 5.30936 -4.43503 0
M  V30 19386 H 85.8625 4.55889 -6.76652 0
M  V30 19387 H 83.2075 2.61715 -5.17932 0
M  V30 19388 H 82.9275 5.52155 -4.41878 0
M  V30 19389 H 81.9365 4.51981 -5.53374 0
M  V30 19390 H 83.7705 6.25124 -6.55234 0
M  V30 19391 P 81.8995 4.23843 -7.83734 0
M  V30 19392 O 81.6795 4.19407 -9.29784 0
M  V30 19393 O 81.1095 5.24426 -7.09156 0
M  V30 19394 O 81.6495 2.7935 -7.20758 0
M  V30 19395 C 82.5895 1.72945 -7.50224 0
M  V30 19396 C 81.8595 0.406376 -7.57911 0
M  V30 19397 O 81.6495 -0.0897726 -6.21935 0
M  V30 19398 C 80.4595 0.438983 -8.18724 0
M  V30 19399 O 80.0695 -0.825065 -8.71101 0
M  V30 19400 C 79.5795 0.783689 -6.99524 0
M  V30 19401 C 80.2895 0.0619086 -5.85867 0
M  V30 19402 N 80.2395 0.78573 -4.56183 0
M  V30 19403 C 80.0895 0.0292889 -3.41887 0
M  V30 19404 O 79.9995 -1.18445 -3.4419 0
M  V30 19405 N 80.0495 0.744061 -2.23964 0
M  V30 19406 C 80.1395 2.10932 -2.10362 0
M  V30 19407 O 80.0895 2.64117 -0.98825 0
M  V30 19408 C 80.2895 2.8202 -3.34994 0
M  V30 19409 C 80.3995 4.31095 -3.25037 0
M  V30 19410 C 80.3395 2.15547 -4.52261 0
M  V30 19411 H 83.0805 1.93379 -8.46595 0
M  V30 19412 H 83.3495 1.68132 -6.70852 0
M  V30 19413 H 82.4825 -0.289041 -8.15388 0
M  V30 19414 H 79.8275 -0.926847 -5.72749 0
M  V30 19415 H 79.5485 1.86973 -6.82036 0
M  V30 19416 H 78.5565 0.403896 -7.13257 0
M  V30 19417 H 80.3905 1.20585 -8.97435 0
M  V30 19418 H 80.4615 2.71231 -5.45042 0
M  V30 19419 H 79.4315 4.76966 -3.49992 0
M  V30 19420 H 81.1685 4.67047 -3.95024 0
M  V30 19421 H 80.6805 4.58996 -2.22312 0
M  V30 19422 H 79.9445 0.214893 -1.39758 0
M  V30 19423 P 78.5196 -1.17771 -8.83182 0
M  V30 19424 O 78.2996 -2.07206 -9.98732 0
M  V30 19425 O 77.7296 0.0743816 -8.81969 0
M  V30 19426 O 78.2696 -1.97652 -7.47304 0
M  V30 19427 C 79.2096 -3.01133 -7.08783 0
M  V30 19428 C 78.4796 -4.12613 -6.37049 0
M  V30 19429 O 78.2696 -3.72827 -4.97879 0
M  V30 19430 C 77.0796 -4.45085 -6.88694 0
M  V30 19431 O 76.6896 -5.7877 -6.5624 0
M  V30 19432 C 76.1996 -3.47817 -6.12078 0
M  V30 19433 C 76.9096 -3.39414 -4.77697 0
M  V30 19434 N 76.8596 -2.04615 -4.15333 0
M  V30 19435 H 79.6986 -3.41248 -7.98759 0
M  V30 19436 H 79.9706 -2.5837 -6.41742 0
M  V30 19437 H 79.1026 -5.02657 -6.42673 0
M  V30 19438 P 75.1396 -6.144 -6.45285 0
M  V30 19439 O 74.9196 -7.54673 -6.86199 0
M  V30 19440 O 74.3496 -5.12391 -7.179 0
M  V30 19441 O 74.8896 -5.99158 -4.88404 0
M  V30 19442 C 75.8296 -6.60234 -3.96415 0
M  V30 19443 C 75.0996 -7.08259 -2.72856 0
M  V30 19444 O 74.8896 -5.9427 -1.83651 0
M  V30 19445 C 73.6996 -7.64886 -2.9555 0
M  V30 19446 O 73.3096 -8.53963 -1.90717 0
M  V30 19447 C 72.8196 -6.4116 -2.90739 0
M  V30 19448 C 73.5296 -5.55375 -1.86963 0
M  V30 19449 N 73.4796 -4.09664 -2.15742 0
M  V30 19450 H 76.3186 -7.45574 -4.45629 0
M  V30 19451 H 76.5906 -5.86232 -3.67314 0
M  V30 19452 H 75.7226 -7.84412 -2.24479 0
M  V30 19453 P 71.7596 -8.7635 -1.60911 0
M  V30 19454 O 71.5396 -10.1388 -1.11561 0
M  V30 19455 O 70.9696 -8.36503 -2.79617 0
M  V30 19456 O 71.5096 -7.71806 -0.42951 0
M  V30 19457 C 72.4496 -7.66948 0.673514 0
M  V30 19458 C 71.7196 -7.33374 1.95559 0
M  V30 19459 O 71.5096 -5.88721 2.00726 0
M  V30 19460 C 70.3196 -7.92218 2.1125 0
M  V30 19461 O 69.9296 -8.02971 3.47653 0
M  V30 19462 C 69.4396 -6.89504 1.41631 0
M  V30 19463 C 70.1496 -5.59106 1.75155 0
M  V30 19464 N 70.0996 -4.58136 0.662409 0
M  V30 19465 C 69.9496 -3.26059 1.02863 0
M  V30 19466 O 69.8596 -2.90743 2.19009 0
M  V30 19467 N 69.9096 -2.35995 -0.0155585 0
M  V30 19468 C 69.9996 -2.65248 -1.35603 0
M  V30 19469 O 69.9496 -1.75605 -2.20651 0
M  V30 19470 C 70.1496 -4.05747 -1.64698 0
M  V30 19471 C 70.2596 -4.42345 -3.09553 0
M  V30 19472 C 70.1996 -4.96734 -0.652411 0
M  V30 19473 H 72.9406 -8.64917 0.776982 0
M  V30 19474 H 73.2096 -6.89974 0.474015 0
M  V30 19475 H 72.3426 -7.66548 2.79458 0
M  V30 19476 H 69.6876 -5.16076 2.65138 0
M  V30 19477 H 69.4086 -7.06433 0.329384 0
M  V30 19478 H 68.4166 -6.90829 1.81996 0
M  V30 19479 H 70.2506 -8.90774 1.62639 0
M  V30 19480 H 70.3216 -6.02181 -0.895285 0
M  V30 19481 H 69.2916 -4.80252 -3.45468 0
M  V30 19482 H 71.0286 -5.20015 -3.22119 0
M  V30 19483 H 70.5406 -3.53269 -3.67833 0
M  V30 19484 H 69.8046 -1.39558 0.227499 0
M  V30 19485 P 68.3796 -8.03563 3.84925 0
M  V30 19486 O 68.1596 -8.85821 5.0569 0
M  V30 19487 O 67.5896 -8.41101 2.65469 0
M  V30 19488 O 68.1296 -6.49734 4.18962 0
M  V30 19489 C 69.0696 -5.81037 5.05421 0
M  V30 19490 C 68.3396 -4.79018 5.88876 0
M  V30 19491 O 68.1296 -3.58359 5.08515 0
M  V30 19492 C 66.9396 -5.17448 6.36119 0
M  V30 19493 O 66.5496 -4.45322 7.53318 0
M  V30 19494 C 66.0596 -4.74639 5.19936 0
M  V30 19495 C 66.7696 -3.49432 4.70418 0
M  V30 19496 N 66.7196 -3.31776 3.22945 0
M  V30 19497 C 66.5696 -2.02742 2.72939 0
M  V30 19498 O 66.4796 -1.08301 3.52749 0
M  V30 19499 N 66.5196 -1.96117 1.22063 0
M  V30 19500 C 66.6196 -2.8878 0.551566 0
M  V30 19501 N 66.5696 -2.65609 -0.750198 0
M  V30 19502 C 66.7696 -4.22457 1.03707 0
M  V30 19503 C 66.8196 -4.37979 2.39113 0
M  V30 19504 H 69.5596 -6.54138 5.7131 0
M  V30 19505 H 69.8296 -5.30492 4.44033 0
M  V30 19506 H 68.9626 -4.55945 6.76735 0
M  V30 19507 H 66.3076 -2.6176 5.18021 0
M  V30 19508 H 66.0276 -5.52233 4.41941 0
M  V30 19509 H 65.0366 -4.52045 5.53452 0
M  V30 19510 H 66.8706 -6.25124 6.55234 0
M  V30 19511 H 66.9426 -5.37936 2.80552 0
M  V30 19512 H 66.8406 -5.07528 0.359553 0
M  V30 19513 H 66.4526 -1.69403 -1.09847 0
M  V30 19514 H 66.6486 -3.43701 -1.41792 0
M  V30 19515 P 64.9996 -4.23843 7.83734 0
M  V30 19516 O 64.7796 -4.19407 9.29784 0
M  V30 19517 O 64.2096 -5.24426 7.09156 0
M  V30 19518 O 64.7496 -2.7935 7.20758 0
M  V30 19519 C 65.6896 -1.7299 7.50419 0
M  V30 19520 C 64.9596 -0.406376 7.57911 0
M  V30 19521 O 64.7496 0.0897726 6.21935 0
M  V30 19522 C 63.5596 -0.447224 8.1878 0
M  V30 19523 O 63.1696 0.825065 8.71101 0
M  V30 19524 C 62.6796 -0.783801 6.99623 0
M  V30 19525 C 63.3896 -0.0619192 5.85967 0
M  V30 19526 N 63.3396 -0.790462 4.56202 0
M  V30 19527 C 63.4196 -2.13895 4.34171 0
M  V30 19528 N 63.3496 -2.46449 3.08687 0
M  V30 19529 C 63.1996 -1.2525 2.43697 0
M  V30 19530 C 63.0696 -0.914535 1.07318 0
M  V30 19531 N 63.0596 -1.80782 0.0887348 0
M  V30 19532 N 62.9496 0.386745 0.768133 0
M  V30 19533 C 62.9596 1.28096 1.75159 0
M  V30 19534 N 63.0796 1.09708 3.04861 0
M  V30 19535 C 63.1996 -0.214857 3.32306 0
M  V30 19536 H 66.1786 -1.93423 8.4679 0
M  V30 19537 H 66.4506 -1.68852 6.70877 0
M  V30 19538 H 65.5826 0.289041 8.15388 0
M  V30 19539 H 62.9276 0.927006 5.72848 0
M  V30 19540 H 62.6476 -1.86973 6.82036 0
M  V30 19541 H 61.6566 -0.403953 7.13357 0
M  V30 19542 H 63.4906 -1.20599 8.97534 0
M  V30 19543 H 63.5316 -2.86846 5.14318 0
M  V30 19544 H 63.1506 -2.81082 0.302037 0
M  V30 19545 H 62.9616 -1.49688 -0.889064 0
M  V30 19546 H 62.8536 2.31317 1.43855 0
M  V30 19547 P 61.6197 1.17771 8.83182 0
M  V30 19548 O 61.3997 2.07206 9.98732 0
M  V30 19549 O 60.8297 -0.0743816 8.81969 0
M  V30 19550 O 61.3697 1.97652 7.47304 0
M  V30 19551 C 62.3097 3.01133 7.08783 0
M  V30 19552 C 61.5797 4.12613 6.37049 0
M  V30 19553 O 61.3697 3.72827 4.97879 0
M  V30 19554 C 60.1797 4.45085 6.88694 0
M  V30 19555 O 59.7897 5.7877 6.5624 0
M  V30 19556 C 59.2997 3.47817 6.12078 0
M  V30 19557 C 60.0097 3.39414 4.77697 0
M  V30 19558 N 59.9597 2.04615 4.15333 0
M  V30 19559 H 62.7987 3.41248 7.98759 0
M  V30 19560 H 63.0707 2.5837 6.41742 0
M  V30 19561 H 62.2027 5.02657 6.42673 0
M  V30 19562 P 58.2397 6.144 6.45285 0
M  V30 19563 O 58.0197 7.54673 6.86199 0
M  V30 19564 O 57.4497 5.12391 7.179 0
M  V30 19565 O 57.9897 5.99158 4.88404 0
M  V30 19566 C 58.9297 6.60062 3.96313 0
M  V30 19567 C 58.1997 7.08259 2.72856 0
M  V30 19568 O 57.9897 5.9427 1.83651 0
M  V30 19569 C 56.7997 7.65087 2.94749 0
M  V30 19570 O 56.4097 8.53963 1.90717 0
M  V30 19571 C 55.9197 6.41069 2.90698 0
M  V30 19572 C 56.6297 5.5528 1.86931 0
M  V30 19573 N 56.5797 4.09575 2.15696 0
M  V30 19574 C 56.4297 3.24249 1.08435 0
M  V30 19575 O 56.3397 3.63946 -0.0628747 0
M  V30 19576 N 56.3897 1.90009 1.39973 0
M  V30 19577 C 56.4797 1.34884 2.65614 0
M  V30 19578 C 56.6297 2.3145 3.71736 0
M  V30 19579 C 56.6797 3.63518 3.44754 0
M  V30 19580 H 59.4207 7.45402 4.45526 0
M  V30 19581 H 59.6897 5.86062 3.67208 0
M  V30 19582 H 58.8227 7.84412 2.24479 0
M  V30 19583 H 56.1677 5.73358 0.888409 0
M  V30 19584 H 55.8887 5.90877 3.88583 0
M  V30 19585 H 54.8967 6.65867 2.58821 0
M  V30 19586 H 56.7307 8.16248 3.92006 0
M  V30 19587 H 56.8017 4.34551 4.26383 0
M  V30 19588 P 54.8597 8.7635 1.60911 0
M  V30 19589 O 54.6397 10.1388 1.11561 0
M  V30 19590 O 54.0697 8.36503 2.79617 0
M  V30 19591 O 54.6097 7.71806 0.42951 0
M  V30 19592 C 55.5497 7.67148 -0.673689 0
M  V30 19593 C 54.8197 7.33374 -1.95559 0
M  V30 19594 O 54.6097 5.88721 -2.00726 0
M  V30 19595 C 53.4197 7.92526 -2.10483 0
M  V30 19596 O 53.0297 8.02971 -3.47653 0
M  V30 19597 C 52.5397 6.89602 -1.41652 0
M  V30 19598 C 53.2497 5.59201 -1.75185 0
M  V30 19599 N 53.1997 4.58235 -0.662552 0
M  V30 19600 H 56.0387 8.65116 -0.777161 0
M  V30 19601 H 56.3107 6.90173 -0.474152 0
M  V30 19602 H 55.4427 7.66548 -2.79458 0
M  V30 19603 P 51.4797 8.03563 -3.84925 0
M  V30 19604 O 51.2597 8.85821 -5.0569 0
M  V30 19605 O 50.6897 8.41101 -2.65469 0
M  V30 19606 O 51.2297 6.4965 -4.18908 0
M  V30 19607 C 52.1697 5.80886 -5.05289 0
M  V30 19608 C 51.4397 4.78366 -5.89277 0
M  V30 19609 O 51.2297 3.58302 -5.08433 0
M  V30 19610 C 50.0397 5.16748 -6.36559 0
M  V30 19611 O 49.6497 4.45271 -7.53232 0
M  V30 19612 C 49.1597 4.74572 -5.19863 0
M  V30 19613 C 49.8697 3.49373 -4.70338 0
M  V30 19614 N 49.8197 3.31704 -3.22876 0
M  V30 19615 C 49.6697 2.03326 -2.74871 0
M  V30 19616 O 49.5797 1.06486 -3.48076 0
M  V30 19617 N 49.6297 1.91838 -1.37456 0
M  V30 19618 C 49.7197 2.94295 -0.462035 0
M  V30 19619 C 49.8697 4.25064 -1.05249 0
M  V30 19620 C 49.9197 4.40214 -2.39192 0
M  V30 19621 H 52.6607 6.54063 -5.71245 0
M  V30 19622 H 52.9297 5.30339 -4.43905 0
M  V30 19623 H 52.0627 4.55889 -6.76652 0
M  V30 19624 H 49.4077 2.6167 -5.17842 0
M  V30 19625 H 49.1287 5.52155 -4.41878 0
M  V30 19626 H 48.1367 4.51918 -5.53297 0
M  V30 19627 H 49.9707 6.25055 -6.55162 0
M  V30 19628 H 50.0417 5.39798 -2.81523 0
M  V30 19629 P 48.0997 4.23843 -7.83734 0
M  V30 19630 O 47.8797 4.19407 -9.29784 0
M  V30 19631 O 47.3097 5.24426 -7.09156 0
M  V30 19632 O 47.8497 2.7935 -7.20758 0
M  V30 19633 C 48.7897 1.7299 -7.50419 0
M  V30 19634 C 48.0597 0.406376 -7.57911 0
M  V30 19635 O 47.8497 -0.0897726 -6.21935 0
M  V30 19636 C 46.6597 0.447224 -8.1878 0
M  V30 19637 O 46.2697 -0.825065 -8.71101 0
M  V30 19638 C 45.7797 0.783801 -6.99623 0
M  V30 19639 C 46.4897 0.0619192 -5.85967 0
M  V30 19640 N 46.4397 0.790462 -4.56202 0
M  V30 19641 H 49.2787 1.93423 -8.4679 0
M  V30 19642 H 49.5507 1.68852 -6.70877 0
M  V30 19643 H 48.6827 -0.289041 -8.15388 0
M  V30 19644 H 46.0277 -0.927006 -5.72848 0
M  V30 19645 H 45.7477 1.86973 -6.82036 0
M  V30 19646 H 44.7567 0.403953 -7.13357 0
M  V30 19647 H 46.5907 1.20599 -8.97534 0
M  V30 19648 P 44.7198 -1.17771 -8.83182 0
M  V30 19649 O 44.4998 -2.07206 -9.98732 0
M  V30 19650 O 43.9298 0.0743816 -8.81969 0
M  V30 19651 O 44.4698 -1.97652 -7.47304 0
M  V30 19652 C 45.4098 -3.01133 -7.08783 0
M  V30 19653 C 44.6798 -4.12613 -6.37049 0
M  V30 19654 O 44.4698 -3.72827 -4.97879 0
M  V30 19655 C 43.2798 -4.45085 -6.88694 0
M  V30 19656 O 42.8898 -5.7877 -6.5624 0
M  V30 19657 C 42.3998 -3.47817 -6.12078 0
M  V30 19658 C 43.1098 -3.39414 -4.77697 0
M  V30 19659 N 43.0598 -2.04199 -4.15538 0
M  V30 19660 H 45.8988 -3.41248 -7.98759 0
M  V30 19661 H 46.1708 -2.57728 -6.42 0
M  V30 19662 H 45.3028 -5.02657 -6.42673 0
M  V30 19663 H 42.6478 -4.11708 -4.08956 0
M  V30 19664 H 42.3678 -2.49626 -6.61679 0
M  V30 19665 H 41.3768 -3.8662 -6.00862 0
M  V30 19666 H 43.2108 -4.29991 -7.97006 0
M  V30 19667 P 41.3398 -6.144 -6.45285 0
M  V30 19668 O 41.1198 -7.54673 -6.86199 0
M  V30 19669 O 40.5498 -5.12391 -7.179 0
M  V30 19670 O 41.0898 -5.99158 -4.88404 0
M  V30 19671 C 42.0298 -6.60062 -3.96313 0
M  V30 19672 C 41.2998 -7.08259 -2.72856 0
M  V30 19673 O 41.0898 -5.9427 -1.83651 0
M  V30 19674 C 39.8998 -7.65087 -2.94749 0
M  V30 19675 O 39.5098 -8.53963 -1.90717 0
M  V30 19676 C 39.0198 -6.41069 -2.90698 0
M  V30 19677 C 39.7298 -5.5528 -1.86931 0
M  V30 19678 N 39.6798 -4.09575 -2.15696 0
M  V30 19679 C 39.5298 -3.24249 -1.08435 0
M  V30 19680 O 39.4398 -3.63946 0.0628747 0
M  V30 19681 N 39.4898 -1.90009 -1.39973 0
M  V30 19682 C 39.5798 -1.34884 -2.65614 0
M  V30 19683 C 39.7298 -2.3145 -3.71736 0
M  V30 19684 C 39.7798 -3.63518 -3.44754 0
M  V30 19685 H 42.5208 -7.45402 -4.45526 0
M  V30 19686 H 42.7898 -5.86062 -3.67208 0
M  V30 19687 H 41.9228 -7.84412 -2.24479 0
M  V30 19688 H 39.2678 -5.73358 -0.888409 0
M  V30 19689 H 38.9888 -5.90877 -3.88583 0
M  V30 19690 H 37.9968 -6.65867 -2.58821 0
M  V30 19691 H 39.8308 -8.16248 -3.92006 0
M  V30 19692 H 39.9018 -4.34551 -4.26383 0
M  V30 19693 P 37.9598 -8.7635 -1.60911 0
M  V30 19694 O 37.7398 -10.1388 -1.11561 0
M  V30 19695 O 37.1698 -8.36503 -2.79617 0
M  V30 19696 O 37.7098 -7.71806 -0.42951 0
M  V30 19697 C 38.6498 -7.67148 0.673689 0
M  V30 19698 C 37.9198 -7.33374 1.95559 0
M  V30 19699 O 37.7098 -5.88721 2.00726 0
M  V30 19700 C 36.5198 -7.92526 2.10483 0
M  V30 19701 O 36.1298 -8.02971 3.47653 0
M  V30 19702 C 35.6398 -6.89602 1.41652 0
M  V30 19703 C 36.3498 -5.59201 1.75185 0
M  V30 19704 N 36.2998 -4.58235 0.662552 0
M  V30 19705 H 39.1388 -8.65116 0.777161 0
M  V30 19706 H 39.4108 -6.90173 0.474152 0
M  V30 19707 H 38.5428 -7.66548 2.79458 0
M  V30 19708 P 34.5798 -8.03563 3.84925 0
M  V30 19709 O 34.3598 -8.85821 5.0569 0
M  V30 19710 O 33.7898 -8.41101 2.65469 0
M  V30 19711 O 34.3298 -6.4965 4.18908 0
M  V30 19712 C 35.2698 -5.81037 5.05421 0
M  V30 19713 C 34.5398 -4.78366 5.89277 0
M  V30 19714 O 34.3298 -3.58302 5.08433 0
M  V30 19715 C 33.1398 -5.17448 6.36119 0
M  V30 19716 O 32.7498 -4.45271 7.53232 0
M  V30 19717 C 32.2598 -4.74639 5.19936 0
M  V30 19718 C 32.9698 -3.49432 4.70418 0
M  V30 19719 N 32.9198 -3.32099 3.22613 0
M  V30 19720 H 35.7588 -6.54213 5.71376 0
M  V30 19721 H 36.0308 -5.30936 4.43503 0
M  V30 19722 H 35.1628 -4.55889 6.76652 0
M  V30 19723 H 32.5078 -2.61715 5.17932 0
M  V30 19724 H 32.2278 -5.52155 4.41878 0
M  V30 19725 H 31.2368 -4.51981 5.53374 0
M  V30 19726 H 33.0708 -6.25124 6.55234 0
M  V30 19727 P 31.1998 -4.23843 7.83734 0
M  V30 19728 O 30.9798 -4.19407 9.29784 0
M  V30 19729 O 30.4098 -5.24426 7.09156 0
M  V30 19730 O 30.9498 -2.7935 7.20758 0
M  V30 19731 C 31.8898 -1.7299 7.50419 0
M  V30 19732 C 31.1598 -0.406376 7.57911 0
M  V30 19733 O 30.9498 0.0897726 6.21935 0
M  V30 19734 C 29.7598 -0.447224 8.1878 0
M  V30 19735 O 29.3698 0.825065 8.71101 0
M  V30 19736 C 28.8798 -0.783801 6.99623 0
M  V30 19737 C 29.5898 -0.0619192 5.85967 0
M  V30 19738 N 29.5398 -0.7859 4.56281 0
M  V30 19739 H 32.3788 -1.93423 8.4679 0
M  V30 19740 H 32.6508 -1.68181 6.71046 0
M  V30 19741 H 31.7828 0.289041 8.15388 0
M  V30 19742 P 27.8199 1.17771 8.83182 0
M  V30 19743 O 27.5999 2.07206 9.98732 0
M  V30 19744 O 27.0299 -0.0743816 8.81969 0
M  V30 19745 O 27.5699 1.97652 7.47304 0
M  V30 19746 C 28.5099 3.01133 7.08783 0
M  V30 19747 C 27.7799 4.12613 6.37049 0
M  V30 19748 O 27.5699 3.72827 4.97879 0
M  V30 19749 C 26.3799 4.45085 6.88694 0
M  V30 19750 O 25.9899 5.7877 6.5624 0
M  V30 19751 C 25.4999 3.47817 6.12078 0
M  V30 19752 C 26.2099 3.39414 4.77697 0
M  V30 19753 N 26.1599 2.04615 4.15333 0
M  V30 19754 H 28.9989 3.41248 7.98759 0
M  V30 19755 H 29.2709 2.5837 6.41742 0
M  V30 19756 H 28.4029 5.02657 6.42673 0
M  V30 19757 P 24.4399 6.144 6.45285 0
M  V30 19758 O 24.2199 7.54673 6.86199 0
M  V30 19759 O 23.6499 5.12391 7.179 0
M  V30 19760 O 24.1899 5.99158 4.88404 0
M  V30 19761 C 25.1299 6.60234 3.96415 0
M  V30 19762 C 24.3999 7.08259 2.72856 0
M  V30 19763 O 24.1899 5.9427 1.83651 0
M  V30 19764 C 22.9999 7.64886 2.9555 0
M  V30 19765 O 22.6099 8.53963 1.90717 0
M  V30 19766 C 22.1199 6.4116 2.90739 0
M  V30 19767 C 22.8299 5.55375 1.86963 0
M  V30 19768 N 22.7799 4.09448 2.16152 0
M  V30 19769 H 25.6189 7.45574 4.45629 0
M  V30 19770 H 25.8909 5.85864 3.679 0
M  V30 19771 H 25.0229 7.84412 2.24479 0
M  V30 19772 H 22.3679 5.73457 0.888562 0
M  V30 19773 H 22.0879 5.90877 3.88583 0
M  V30 19774 H 21.0969 6.6596 2.58858 0
M  V30 19775 H 22.9309 8.16339 3.92049 0
M  V30 19776 P 21.0599 8.7635 1.60911 0
M  V30 19777 O 20.8399 10.1388 1.11561 0
M  V30 19778 O 20.2699 8.36503 2.79617 0
M  V30 19779 O 20.8099 7.71806 0.42951 0
M  V30 19780 C 21.7499 7.66948 -0.673514 0
M  V30 19781 C 21.0199 7.33374 -1.95559 0
M  V30 19782 O 20.8099 5.88721 -2.00726 0
M  V30 19783 C 19.6199 7.92218 -2.1125 0
M  V30 19784 O 19.2299 8.02971 -3.47653 0
M  V30 19785 C 18.7399 6.89504 -1.41631 0
M  V30 19786 C 19.4499 5.59106 -1.75155 0
M  V30 19787 N 19.3999 4.58136 -0.662409 0
M  V30 19788 C 19.2499 3.26059 -1.02863 0
M  V30 19789 O 19.1599 2.90743 -2.19009 0
M  V30 19790 N 19.2099 2.35995 0.0155585 0
M  V30 19791 C 19.2999 2.65248 1.35603 0
M  V30 19792 O 19.2499 1.75605 2.20651 0
M  V30 19793 C 19.4499 4.05747 1.64698 0
M  V30 19794 C 19.5599 4.42345 3.09553 0
M  V30 19795 C 19.4999 4.96734 0.652411 0
M  V30 19796 H 22.2409 8.64917 -0.776982 0
M  V30 19797 H 22.5099 6.89974 -0.474015 0
M  V30 19798 H 21.6429 7.66548 -2.79458 0
M  V30 19799 H 18.9879 5.16076 -2.65138 0
M  V30 19800 H 18.7089 7.06433 -0.329384 0
M  V30 19801 H 17.7169 6.90829 -1.81996 0
M  V30 19802 H 19.5509 8.90774 -1.62639 0
M  V30 19803 H 19.6219 6.02181 0.895285 0
M  V30 19804 H 18.5919 4.80252 3.45468 0
M  V30 19805 H 20.3289 5.20015 3.22119 0
M  V30 19806 H 19.8409 3.53269 3.67833 0
M  V30 19807 H 19.1049 1.39558 -0.227499 0
M  V30 19808 P 17.6799 8.03563 -3.84925 0
M  V30 19809 O 17.4599 8.85821 -5.0569 0
M  V30 19810 O 16.8899 8.41101 -2.65469 0
M  V30 19811 O 17.4299 6.4965 -4.18908 0
M  V30 19812 C 18.3699 5.80886 -5.05289 0
M  V30 19813 C 17.6399 4.78366 -5.89277 0
M  V30 19814 O 17.4299 3.58302 -5.08433 0
M  V30 19815 C 16.2399 5.16748 -6.36559 0
M  V30 19816 O 15.8499 4.45271 -7.53232 0
M  V30 19817 C 15.3599 4.74572 -5.19863 0
M  V30 19818 C 16.0699 3.49373 -4.70338 0
M  V30 19819 N 16.0199 3.31704 -3.22876 0
M  V30 19820 C 15.8699 2.03326 -2.74871 0
M  V30 19821 O 15.7799 1.06486 -3.48076 0
M  V30 19822 N 15.8299 1.91838 -1.37456 0
M  V30 19823 C 15.9199 2.94295 -0.462035 0
M  V30 19824 C 16.0699 4.25064 -1.05249 0
M  V30 19825 C 16.1199 4.40214 -2.39192 0
M  V30 19826 H 18.8609 6.54063 -5.71245 0
M  V30 19827 H 19.1299 5.30339 -4.43905 0
M  V30 19828 H 18.2629 4.55889 -6.76652 0
M  V30 19829 H 15.6079 2.6167 -5.17842 0
M  V30 19830 H 15.3289 5.52155 -4.41878 0
M  V30 19831 H 14.3369 4.51918 -5.53297 0
M  V30 19832 H 16.1709 6.25055 -6.55162 0
M  V30 19833 H 16.2419 5.39798 -2.81523 0
M  V30 19834 P 14.2999 4.23843 -7.83734 0
M  V30 19835 O 14.0799 4.19407 -9.29784 0
M  V30 19836 O 13.5099 5.24426 -7.09156 0
M  V30 19837 O 14.0499 2.7935 -7.20758 0
M  V30 19838 C 14.9899 1.7299 -7.50419 0
M  V30 19839 C 14.2599 0.406376 -7.57911 0
M  V30 19840 O 14.0499 -0.0897726 -6.21935 0
M  V30 19841 C 12.8599 0.447224 -8.1878 0
M  V30 19842 O 12.4699 -0.825065 -8.71101 0
M  V30 19843 C 11.9799 0.783801 -6.99623 0
M  V30 19844 C 12.6899 0.0619192 -5.85967 0
M  V30 19845 N 12.6399 0.7859 -4.56281 0
M  V30 19846 H 15.4789 1.93423 -8.4679 0
M  V30 19847 H 15.7509 1.68181 -6.71046 0
M  V30 19848 H 14.8829 -0.289041 -8.15388 0
M  V30 19849 P 10.92 -1.17771 -8.83182 0
M  V30 19850 O 10.7 -2.07206 -9.98732 0
M  V30 19851 O 10.13 0.0743816 -8.81969 0
M  V30 19852 O 10.67 -1.97652 -7.47304 0
M  V30 19853 C 11.61 -3.01133 -7.08783 0
M  V30 19854 C 10.88 -4.12613 -6.37049 0
M  V30 19855 O 10.67 -3.72827 -4.97879 0
M  V30 19856 C 9.47996 -4.45085 -6.88694 0
M  V30 19857 O 9.08996 -5.7877 -6.5624 0
M  V30 19858 C 8.59996 -3.47817 -6.12078 0
M  V30 19859 C 9.30996 -3.39414 -4.77697 0
M  V30 19860 N 9.25996 -2.04615 -4.15333 0
M  V30 19861 H 12.099 -3.41248 -7.98759 0
M  V30 19862 H 12.371 -2.5837 -6.41742 0
M  V30 19863 H 11.503 -5.02657 -6.42673 0
M  V30 19864 P 7.53998 -6.144 -6.45285 0
M  V30 19865 O 7.31998 -7.54673 -6.86199 0
M  V30 19866 O 6.74998 -5.12391 -7.179 0
M  V30 19867 O 7.28998 -5.99158 -4.88404 0
M  V30 19868 C 8.22998 -6.60234 -3.96415 0
M  V30 19869 C 7.49998 -7.08259 -2.72856 0
M  V30 19870 O 7.28998 -5.9427 -1.83651 0
M  V30 19871 C 6.09998 -7.64886 -2.9555 0
M  V30 19872 O 5.70998 -8.53963 -1.90717 0
M  V30 19873 C 5.21998 -6.4116 -2.90739 0
M  V30 19874 C 5.92998 -5.55375 -1.86963 0
M  V30 19875 N 5.87998 -4.09448 -2.16152 0
M  V30 19876 H 8.71898 -7.45574 -4.45629 0
M  V30 19877 H 8.99098 -5.85864 -3.679 0
M  V30 19878 H 8.12298 -7.84412 -2.24479 0
M  V30 19879 H 5.46798 -5.73457 -0.888562 0
M  V30 19880 H 5.18798 -5.90877 -3.88583 0
M  V30 19881 H 4.19698 -6.6596 -2.58858 0
M  V30 19882 H 6.03098 -8.16339 -3.92049 0
M  V30 19883 P 4.16 -8.7635 -1.60911 0
M  V30 19884 O 3.94 -10.1388 -1.11561 0
M  V30 19885 O 3.37 -8.36503 -2.79617 0
M  V30 19886 O 3.91 -7.71806 -0.42951 0
M  V30 19887 C 4.85 -7.67148 0.673689 0
M  V30 19888 C 4.12 -7.33374 1.95559 0
M  V30 19889 O 3.91 -5.88721 2.00726 0
M  V30 19890 C 2.72 -7.92526 2.10483 0
M  V30 19891 O 2.33 -8.02971 3.47653 0
M  V30 19892 C 1.84 -6.89602 1.41652 0
M  V30 19893 C 2.55 -5.59201 1.75185 0
M  V30 19894 N 2.5 -4.58235 0.662552 0
M  V30 19895 H 5.339 -8.65116 0.777161 0
M  V30 19896 H 5.611 -6.90173 0.474152 0
M  V30 19897 H 4.743 -7.66548 2.79458 0
M  V30 19898 H 1.613 -8.66322 3.55694 0
M  V30 END ATOM
M  V30 BEGIN BOND
M  V30 END BOND
M  V30 END CTAB
M  END
$$$$
