drugbank_target|Q9NVH6 Trimethyllysine dioxygenase, mitochondrial (DB00126)
 OpenBabel12092120073D

  0  0  0     0  0            999 V3000
M  V30 BEGIN CTAB
M  V30 COUNTS 6922 7025 0 0 0
M  V30 BEGIN ATOM
M  V30 1 H -0.908 1.98254 -0.117106 0
M  V30 2 N 0 1.576 0 0
M  V30 3 C 0.933 2.03868 1.02534 0
M  V30 4 C 1.911 0.928543 1.3348 0
M  V30 5 O 3.095 1.19667 1.45644 0
M  V30 6 C 0.222 2.43627 2.35294 0
M  V30 7 C -0.732 3.65373 2.2001 0
M  V30 8 S 0.101 5.13292 1.52614 0
M  V30 9 C 1.257 5.56322 2.86805 0
M  V30 10 H 1.49 2.90518 0.631377 0
M  V30 11 H -0.977 1.52953 0.210867 0
M  V30 12 H 0.981 2.67203 3.11629 0
M  V30 13 H -0.358 1.57376 2.7183 0
M  V30 14 H -1.165 3.90944 3.18086 0
M  V30 15 H -1.563 3.418 1.51819 0
M  V30 16 H 0.729 5.58782 3.83104 0
M  V30 17 H 1.672 6.56266 2.65933 0
M  V30 18 H 2.08 4.83886 2.90714 0
M  V30 19 N 1.4781 -0.272755 1.55222 0
M  V30 20 C 2.7241 -1.00172 1.77023 0
M  V30 21 C 3.0791 -1.83928 0.564633 0
M  V30 22 O 2.3721 -1.86416 -0.442674 0
M  V30 23 C 2.5661 -1.91642 3.01675 0
M  V30 24 C 2.3951 -1.16888 4.34243 0
M  V30 25 C 1.1651 -0.884464 4.97499 0
M  V30 26 C 3.3631 -0.55919 5.11251 0
M  V30 27 N 1.3451 -0.11015 6.13801 0
M  V30 28 C 2.7161 0.0809469 6.19947 0
M  V30 29 C 4.7711 -0.467058 4.95705 0
M  V30 30 C 3.4741 0.804335 7.14789 0
M  V30 31 C 5.5001 0.242739 5.90902 0
M  V30 32 C 4.8621 0.871613 6.98987 0
M  V30 33 H 0.9611 -0.348529 0.700037 0
M  V30 34 H 3.5451 -0.277365 1.92714 0
M  V30 35 H 1.7161 -2.61303 2.87359 0
M  V30 36 H 3.4481 -2.57901 3.1188 0
M  V30 37 H 0.2031 -1.18979 4.58411 0
M  V30 38 H 0.6271 0.264344 6.76484 0
M  V30 39 H 5.2691 -0.93894 4.12242 0
M  V30 40 H 2.9871 1.2879 7.97771 0
M  V30 41 H 6.5731 0.314347 5.8095 0
M  V30 42 H 5.4531 1.4121 7.71381 0
M  V30 43 N 2.9562 -1.48159 -0.537278 0
M  V30 44 C 4.1862 -1.59223 -1.3165 0
M  V30 45 C 4.5942 -0.248849 -1.87556 0
M  V30 46 O 3.9372 0.770949 -1.6674 0
M  V30 47 C 3.9992 -2.57365 -2.51005 0
M  V30 48 C 3.6632 -4.02603 -2.16239 0
M  V30 49 C 4.6602 -4.90503 -1.72344 0
M  V30 50 C 2.3452 -4.48088 -2.26986 0
M  V30 51 C 4.3392 -6.21913 -1.39651 0
M  V30 52 C 2.0262 -5.7952 -1.93906 0
M  V30 53 C 3.0242 -6.66255 -1.50309 0
M  V30 54 O 2.7122 -7.95243 -1.17659 0
M  V30 55 H 2.4442 -0.539831 -0.406889 0
M  V30 56 H 4.9982 -1.94655 -0.655641 0
M  V30 57 H 3.2282 -2.1704 -3.20048 0
M  V30 58 H 4.9172 -2.58342 -3.13072 0
M  V30 59 H 5.6832 -4.56604 -1.63517 0
M  V30 60 H 1.5622 -3.80769 -2.59877 0
M  V30 61 H 5.1062 -6.89569 -1.0555 0
M  V30 62 H 1.0032 -6.12957 -2.02371 0
M  V30 63 H 1.7712 -8.0793 -1.31119 0
M  V30 64 N 4.4343 0.785586 -1.36625 0
M  V30 65 C 5.3843 1.88822 -1.27789 0
M  V30 66 C 6.3683 1.60014 -0.168579 0
M  V30 67 O 7.5603 1.72381 -0.401737 0
M  V30 68 C 4.6893 3.26092 -1.07327 0
M  V30 69 C 3.7753 3.60897 -2.22743 0
M  V30 70 N 4.1663 3.66982 -3.48077 0
M  V30 71 C 2.4643 3.90981 -2.14593 0
M  V30 72 C 3.1653 3.98137 -4.24101 0
M  V30 73 N 2.1413 4.13319 -3.53084 0
M  V30 74 H 5.9433 1.91759 -2.22723 0
M  V30 75 H 3.4573 0.981311 -1.29399 0
M  V30 76 H 5.4543 4.04954 -0.990842 0
M  V30 77 H 4.1143 3.24428 -0.132977 0
M  V30 78 H 5.1253 3.49531 -3.82163 0
M  V30 79 H 1.8023 3.9722 -1.2854 0
M  V30 80 H 3.1923 4.09737 -5.32509 0
M  V30 81 N 5.9124 1.20967 1.01018 0
M  V30 82 C 7.3284 0.965905 1.27053 0
M  V30 83 C 7.5284 -0.350785 1.98423 0
M  V30 84 O 6.5844 -1.07773 2.28344 0
M  V30 85 C 7.8974 2.15294 2.09926 0
M  V30 86 C 9.4454 2.19463 2.23171 0
M  V30 87 C 9.9204 3.3767 3.09424 0
M  V30 88 N 11.4114 3.37724 3.17012 0
M  V30 89 C 12.1464 4.25837 3.83993 0
M  V30 90 N 11.6424 5.24138 4.53047 0
M  V30 91 N 13.4354 4.1366 3.80581 0
M  V30 92 H 5.5864 2.0565 0.531194 0
M  V30 93 H 7.8494 0.90024 0.297106 0
M  V30 94 H 7.5554 3.10684 1.64828 0
M  V30 95 H 7.4294 2.13923 3.10672 0
M  V30 96 H 9.8164 1.24632 2.6749 0
M  V30 97 H 9.8974 2.2488 1.21912 0
M  V30 98 H 9.5414 4.32791 2.65808 0
M  V30 99 H 9.4714 3.29491 4.10784 0
M  V30 100 H 11.9624 2.6658 2.6785 0
M  V30 101 H 12.2754 5.87684 5.01844 0
M  V30 102 H 10.6204 5.28068 4.5185 0
M  V30 103 H 13.8114 3.36127 3.25785 0
M  V30 104 H 13.9844 4.82538 4.32505 0
M  V30 105 N 7.3905 -1.2043 1.01659 0
M  V30 106 C 8.3205 -2.25466 0.607226 0
M  V30 107 C 9.3015 -1.65853 -0.377716 0
M  V30 108 O 10.4865 -1.92409 -0.263149 0
M  V30 109 C 7.6165 -3.47256 -0.0552949 0
M  V30 110 C 6.5705 -4.19462 0.850632 0
M  V30 111 C 5.8965 -5.34673 0.0538859 0
M  V30 112 C 7.1965 -4.75603 2.15868 0
M  V30 113 H 8.8905 -2.59962 1.48526 0
M  V30 114 H 6.4365 -1.2496 0.715605 0
M  V30 115 H 8.3895 -4.19917 -0.353233 0
M  V30 116 H 7.1135 -3.11924 -0.968045 0
M  V30 117 H 5.7725 -3.48667 1.13257 0
M  V30 118 H 5.4205 -4.95585 -0.860514 0
M  V30 119 H 5.1205 -5.83913 0.657192 0
M  V30 120 H 6.6445 -6.10138 -0.237598 0
M  V30 121 H 8.0585 -5.40083 1.92311 0
M  V30 122 H 6.4555 -5.3528 2.71284 0
M  V30 123 H 7.5255 -3.94346 2.82169 0
M  V30 124 N 8.8686 -0.792821 -1.36206 0
M  V30 125 C 10.0936 -0.377701 -2.03932 0
M  V30 126 C 10.5186 0.998947 -1.59382 0
M  V30 127 O 9.8766 1.64421 -0.763903 0
M  V30 128 C 9.9246 -0.453635 -3.57735 0
M  V30 129 O 9.0286 0.538151 -4.08874 0
M  V30 130 H 8.3696 -0.159855 -0.644471 0
M  V30 131 H 10.8996 -1.07488 -1.7409 0
M  V30 132 H 10.9096 -0.318464 -4.06755 0
M  V30 133 H 9.5846 -1.45784 -3.89512 0
M  V30 134 H 8.1616 0.364359 -3.71116 0
M  V30 135 N 10.3467 1.47872 -0.545128 0
M  V30 136 C 11.2967 2.26842 0.229456 0
M  V30 137 C 12.2807 1.33626 0.896267 0
M  V30 138 O 13.4727 1.58063 0.79657 0
M  V30 139 C 10.6017 3.19089 1.26638 0
M  V30 140 C 9.6877 4.19783 0.603598 0
M  V30 141 N 10.0787 5.0479 -0.319405 0
M  V30 142 C 8.3767 4.3765 0.858989 0
M  V30 143 C 9.0777 5.77433 -0.703241 0
M  V30 144 N 8.0537 5.43566 -0.0608309 0
M  V30 145 H 11.8557 2.89947 -0.480391 0
M  V30 146 H 9.3697 1.58263 -0.364209 0
M  V30 147 H 11.3667 3.74337 1.83515 0
M  V30 148 H 10.0267 2.5754 1.97745 0
M  V30 149 H 11.0377 5.13244 -0.692889 0
M  V30 150 H 7.7147 3.87281 1.55948 0
M  V30 151 H 9.1047 6.55824 -1.46098 0
M  V30 152 N 11.8248 0.280983 1.55075 0
M  V30 153 C 12.7548 -0.597469 2.25727 0
M  V30 154 C 13.7358 -1.15417 1.24952 0
M  V30 155 O 14.9208 -1.18722 1.53684 0
M  V30 156 C 12.0508 -1.7789 2.98283 0
M  V30 157 C 11.0048 -1.35347 4.06036 0
M  V30 158 C 10.3308 -2.61846 4.66198 0
M  V30 159 C 11.6308 -0.499354 5.19907 0
M  V30 160 H 13.3248 -0.00824265 2.99399 0
M  V30 161 H 10.8708 -0.0025244 1.44 0
M  V30 162 H 12.8238 -2.39937 3.46422 0
M  V30 163 H 11.5478 -2.39405 2.22155 0
M  V30 164 H 10.2068 -0.756156 3.58717 0
M  V30 165 H 9.8548 -3.21632 3.86732 0
M  V30 166 H 9.5548 -2.3409 5.38958 0
M  V30 167 H 11.0788 -3.24732 5.1709 0
M  V30 168 H 12.4928 -1.02498 5.64063 0
M  V30 169 H 10.8898 -0.316424 5.99265 0
M  V30 170 H 11.9598 0.480459 4.82514 0
M  V30 171 N 13.3029 -1.57598 0.00835791 0
M  V30 172 C 14.2529 -2.05431 -0.989045 0
M  V30 173 C 15.2369 -0.950662 -1.29812 0
M  V30 174 O 16.4289 -1.21438 -1.28771 0
M  V30 175 C 13.5579 -2.56801 -2.27833 0
M  V30 176 C 12.6439 -3.74058 -1.99853 0
M  V30 177 N 13.0349 -4.8544 -1.42062 0
M  V30 178 C 11.3329 -3.82148 -2.29953 0
M  V30 179 C 12.0339 -5.66817 -1.30743 0
M  V30 180 N 11.0099 -5.13077 -1.7959 0
M  V30 181 H 14.8119 -2.88955 -0.536853 0
M  V30 182 H 12.3259 -1.61199 -0.197148 0
M  V30 183 H 14.3229 -2.89349 -3.00137 0
M  V30 184 H 12.9829 -1.74699 -2.73698 0
M  V30 185 H 13.9939 -5.0612 -1.09833 0
M  V30 186 H 10.6709 -3.10916 -2.78635 0
M  V30 187 H 12.0609 -6.66343 -0.862328 0
M  V30 188 N 14.781 0.264519 -1.55364 0
M  V30 189 C 16.006 1.01726 -1.80739 0
M  V30 190 C 16.431 1.78836 -0.583044 0
M  V30 191 O 15.789 1.75167 0.467566 0
M  V30 192 C 15.837 1.94482 -3.03659 0
M  V30 193 O 14.941 3.03386 -2.7934 0
M  V30 194 H 14.282 0.290395 -0.597132 0
M  V30 195 H 16.812 0.290854 -2.02522 0
M  V30 196 H 16.822 2.36278 -3.32621 0
M  V30 197 H 15.497 1.37772 -3.92418 0
M  V30 198 H 14.074 2.65844 -2.61498 0
M  V30 199 N 16.2591 1.48442 0.529413 0
M  V30 200 C 17.6751 1.34575 0.858004 0
M  V30 201 C 17.8751 0.3572 1.98309 0
M  V30 202 O 16.9311 -0.221379 2.51528 0
M  V30 203 C 18.2441 2.74617 1.22499 0
M  V30 204 C 19.7921 2.83109 1.33484 0
M  V30 205 C 20.2671 4.23854 1.73526 0
M  V30 206 N 21.7581 4.2653 1.80628 0
M  V30 207 C 22.4931 5.32372 2.12997 0
M  V30 208 N 21.9891 6.48491 2.43786 0
M  V30 209 N 23.7821 5.19766 2.14008 0
M  V30 210 H 15.9331 2.1133 -0.212925 0
M  V30 211 H 18.1961 0.947439 -0.0326199 0
M  V30 212 H 17.9021 3.4852 0.471905 0
M  V30 213 H 17.7761 3.08177 2.17501 0
M  V30 214 H 20.1631 2.09462 2.0787 0
M  V30 215 H 20.2441 2.53168 0.366027 0
M  V30 216 H 19.8881 4.98018 0.997013 0
M  V30 217 H 19.8181 4.5124 2.71459 0
M  V30 218 H 22.3091 3.42772 1.59108 0
M  V30 219 H 22.6221 7.24993 2.67592 0
M  V30 220 H 20.9671 6.51765 2.41304 0
M  V30 221 H 24.1581 4.28066 1.89412 0
M  V30 222 H 24.3311 6.02354 2.38902 0
M  V30 223 N 17.7372 -0.778329 1.37039 0
M  V30 224 C 18.6672 -1.90546 1.34962 0
M  V30 225 C 19.6482 -1.68681 0.219274 0
M  V30 226 O 20.8332 -1.89634 0.418624 0
M  V30 227 C 17.9632 -3.27734 1.14925 0
M  V30 228 C 16.9172 -3.64147 2.24902 0
M  V30 229 C 16.2432 -4.99806 1.89996 0
M  V30 230 C 17.5432 -3.71579 3.67051 0
M  V30 231 H 19.2372 -1.92541 2.29277 0
M  V30 232 H 16.7832 -0.924948 1.10366 0
M  V30 233 H 18.7362 -4.06215 1.12104 0
M  V30 234 H 17.4602 -3.26154 0.170631 0
M  V30 235 H 16.1192 -2.8797 2.26868 0
M  V30 236 H 15.7672 -4.94759 0.906796 0
M  V30 237 H 15.4672 -5.25139 2.63634 0
M  V30 238 H 16.9912 -5.80694 1.88749 0
M  V30 239 H 18.4052 -4.40227 3.67251 0
M  V30 240 H 16.8022 -4.08405 4.39688 0
M  V30 241 H 17.8722 -2.72404 4.01154 0
M  V30 242 N 19.2153 -1.21501 -1.00376 0
M  V30 243 C 20.1473 -0.933174 -2.09343 0
M  V30 244 C 21.1603 0.0840896 -1.62583 0
M  V30 245 O 22.3493 -0.148563 -1.77881 0
M  V30 246 C 19.4493 -0.379869 -3.36764 0
M  V30 247 C 18.6223 -1.45176 -4.12605 0
M  V30 248 C 17.6813 -0.907476 -5.18316 0
M  V30 249 O 16.7073 -1.5912 -5.46507 0
M  V30 250 N 17.9093 0.276649 -5.7984 0
M  V30 251 H 20.6743 -1.87124 -2.34104 0
M  V30 252 H 18.2353 -1.12043 -1.16867 0
M  V30 253 H 20.2273 -0.00131488 -4.047 0
M  V30 254 H 18.7973 0.463048 -3.09151 0
M  V30 255 H 18.0173 -2.00411 -3.39454 0
M  V30 256 H 19.3053 -2.17328 -4.6005 0
M  V30 257 H 18.7033 0.849147 -5.59291 0
M  V30 258 H 17.2603 0.596702 -6.49063 0
M  V30 259 N 20.6934 1.19889 -1.02296 0
M  V30 260 C 21.9704 1.85148 -0.630832 0
M  V30 261 C 22.3504 1.91385 0.890782 0
M  V30 262 O 21.6984 1.42642 1.78509 0
M  V30 263 C 21.9084 3.24442 -1.28602 0
M  V30 264 C 23.2564 4.00663 -1.4055 0
M  V30 265 O 24.2804 3.33818 -1.24273 0
M  V30 266 O 23.1394 5.20387 -1.66913 0
M  V30 267 H 20.2334 0.797613 -0.218499 0
M  V30 268 H 22.7794 1.27427 -1.12074 0
M  V30 269 H 21.5514 3.14704 -2.32545 0
M  V30 270 H 21.1744 3.89802 -0.7836 0
M  V30 271 N 22.1715 0.800033 1.35784 0
M  V30 272 C 23.1015 0.220184 2.3246 0
M  V30 273 C 24.0825 -0.65073 1.57161 0
M  V30 274 O 25.2675 -0.582359 1.85263 0
M  V30 275 C 22.3975 -0.637353 3.41402 0
M  V30 276 C 21.3515 0.134531 4.27789 0
M  V30 277 C 20.6775 -0.844285 5.27992 0
M  V30 278 C 21.9775 1.32979 5.05088 0
M  V30 279 H 23.6715 1.02787 2.81203 0
M  V30 280 H 21.2175 0.495717 1.35199 0
M  V30 281 H 23.1705 -1.05302 4.08031 0
M  V30 282 H 21.8945 -1.47785 2.91251 0
M  V30 283 H 20.5535 0.531296 3.6273 0
M  V30 284 H 20.2015 -1.68011 4.74111 0
M  V30 285 H 19.9015 -0.332184 5.8666 0
M  V30 286 H 21.4255 -1.2583 5.97494 0
M  V30 287 H 22.8395 0.98934 5.64699 0
M  V30 288 H 21.2365 1.77593 5.7322 0
M  V30 289 H 22.3065 2.11978 4.36111 0
M  V30 290 N 23.6496 -1.47581 0.552962 0
M  V30 291 C 24.5796 -2.32762 -0.185451 0
M  V30 292 C 25.5606 -1.43527 -0.912905 0
M  V30 293 O 26.7456 -1.72388 -0.894201 0
M  V30 294 C 23.8756 -3.25219 -1.21859 0
M  V30 295 C 22.8296 -4.23661 -0.607864 0
M  V30 296 C 22.1556 -5.05413 -1.74533 0
M  V30 297 C 23.4556 -5.20481 0.435582 0
M  V30 298 H 25.1496 -2.94749 0.525684 0
M  V30 299 H 22.6956 -1.41738 0.254251 0
M  V30 300 H 24.6486 -3.8365 -1.7433 0
M  V30 301 H 23.3726 -2.61279 -1.95961 0
M  V30 302 H 22.0316 -3.66451 -0.104489 0
M  V30 303 H 21.6796 -4.3788 -2.47529 0
M  V30 304 H 21.3796 -5.72059 -1.34249 0
M  V30 305 H 22.9036 -5.66701 -2.27338 0
M  V30 306 H 24.3176 -5.733 -0.00290157 0
M  V30 307 H 22.7146 -5.95305 0.757067 0
M  V30 308 H 23.7846 -4.66217 1.33303 0
M  V30 309 N 25.1277 -0.289203 -1.54924 0
M  V30 310 C 26.0747 0.592115 -2.23075 0
M  V30 311 C 27.0447 1.13881 -1.20915 0
M  V30 312 O 28.2297 1.18551 -1.495 0
M  V30 313 C 25.3697 1.76376 -2.96623 0
M  V30 314 C 24.4827 1.24959 -4.13533 0
M  V30 315 C 23.6177 2.38416 -4.74691 0
M  V30 316 C 22.6567 1.84072 -5.83767 0
M  V30 317 N 21.7937 2.91057 -6.38929 0
M  V30 318 H 26.6337 0.00432038 -2.98 0
M  V30 319 H 24.1707 -0.00963529 -1.47097 0
M  V30 320 H 26.1287 2.45268 -3.3749 0
M  V30 321 H 24.7587 2.32337 -2.24097 0
M  V30 322 H 23.8107 0.453307 -3.77689 0
M  V30 323 H 25.1227 0.811662 -4.92152 0
M  V30 324 H 24.2767 3.15276 -5.18349 0
M  V30 325 H 23.0157 2.8553 -3.95378 0
M  V30 326 H 22.0207 1.05697 -5.39545 0
M  V30 327 H 23.2457 1.37877 -6.64956 0
M  V30 328 H 21.1917 3.37526 -5.62505 0
M  V30 329 H 21.1087 2.51724 -7.12861 0
M  V30 330 H 22.3767 3.6785 -6.87246 0
M  V30 331 N 26.6058 1.57591 -0.0167156 0
M  V30 332 C 27.8538 1.90906 0.663285 0
M  V30 333 C 28.1748 0.892509 1.73376 0
M  V30 334 O 27.4448 -0.0677623 1.95783 0
M  V30 335 H 26.0248 0.704637 0.247983 0
M  V30 336 H 28.6868 1.94803 -0.0615909 0
M  V30 337 H 27.7828 2.9116 1.12393 0
M  V30 338 N 28.0839 -0.256276 1.55502 0
M  V30 339 C 29.3319 -0.983672 1.76545 0
M  V30 340 C 29.6529 -1.86206 0.578982 0
M  V30 341 O 28.9229 -1.91656 -0.405577 0
M  V30 342 H 27.5029 -0.366191 0.651086 0
M  V30 343 H 30.1649 -0.276479 1.92929 0
M  V30 344 H 29.2609 -1.61087 2.67315 0
M  V30 345 N 29.562 -1.4872 -0.521534 0
M  V30 346 C 30.808 -1.574 -1.27879 0
M  V30 347 C 31.141 -0.250817 -1.92573 0
M  V30 348 O 30.416 0.743934 -1.79711 0
M  V30 349 C 30.699 -2.71843 -2.36164 0
M  V30 350 C 30.552 -4.13893 -1.76105 0
M  V30 351 C 31.871 -2.82008 -3.37875 0
M  V30 352 H 28.99 -0.572941 -0.463581 0
M  V30 353 H 31.632 -1.80927 -0.580119 0
M  V30 354 H 29.782 -2.51914 -2.95756 0
M  V30 355 H 31.454 -4.45284 -1.20499 0
M  V30 356 H 29.697 -4.20498 -1.06601 0
M  V30 357 H 30.368 -4.89804 -2.5455 0
M  V30 358 H 32.844 -3.00086 -2.88249 0
M  V30 359 H 31.72 -3.63796 -4.11028 0
M  V30 360 H 31.981 -1.90511 -3.98946 0
M  V30 361 N 31.0401 0.771051 -1.3745 0
M  V30 362 C 32.2891 1.52491 -1.3202 0
M  V30 363 C 32.6021 1.9538 0.0927347 0
M  V30 364 O 33.8081 2.70159 0.269503 0
M  V30 365 C 32.2641 2.75366 -2.31736 0
M  V30 366 C 31.8721 2.39573 -3.78562 0
M  V30 367 C 33.6161 3.53307 -2.35318 0
M  V30 368 C 31.5231 3.58954 -4.70007 0
M  V30 369 H 30.4531 0.572506 -0.490666 0
M  V30 370 H 33.1041 0.844474 -1.62914 0
M  V30 371 H 31.4861 3.45303 -1.93861 0
M  V30 372 H 32.6601 1.77415 -4.25277 0
M  V30 373 H 30.9751 1.74805 -3.77932 0
M  V30 374 H 33.5721 4.42039 -3.00842 0
M  V30 375 H 33.9151 3.93217 -1.36698 0
M  V30 376 H 34.4481 2.90367 -2.71904 0
M  V30 377 H 31.1871 3.24125 -5.69757 0
M  V30 378 H 30.7071 4.20214 -4.27996 0
M  V30 379 H 32.3861 4.25758 -4.87175 0
M  V30 380 N 32.5182 1.22032 0.997298 0
M  V30 381 C 33.7482 1.06686 1.76923 0
M  V30 382 C 34.1562 -0.385838 1.85224 0
M  V30 383 O 33.4992 -1.27929 1.31833 0
M  V30 384 C 33.5612 1.59802 3.22031 0
M  V30 385 C 33.2252 3.08362 3.37286 0
M  V30 386 C 34.2222 4.05835 3.24952 0
M  V30 387 C 31.9072 3.47727 3.6248 0
M  V30 388 C 33.9012 5.4066 3.37588 0
M  V30 389 C 31.5882 4.82701 3.74757 0
M  V30 390 C 32.5862 5.78977 3.62319 0
M  V30 391 O 32.2742 7.11502 3.74193 0
M  V30 392 H 32.0062 0.374767 0.562606 0
M  V30 393 H 34.5602 1.61991 1.26286 0
M  V30 394 H 32.7902 0.989003 3.73839 0
M  V30 395 H 34.4792 1.40184 3.80924 0
M  V30 396 H 35.2452 3.76766 3.05405 0
M  V30 397 H 31.1242 2.73317 3.7124 0
M  V30 398 H 34.6682 6.15788 3.27796 0
M  V30 399 H 30.5652 5.11453 3.9381 0
M  V30 400 H 31.3332 7.19019 3.91093 0
M  V30 401 N 33.9963 -1.19345 1.0293 0
M  V30 402 C 35.4073 -1.70725 0.755633 0
M  V30 403 C 35.7583 -1.82326 -0.724676 0
M  V30 404 O 34.8833 -1.49471 -1.56484 0
M  V30 405 C 35.4783 -3.10084 1.36503 0
M  V30 406 C 34.0373 -3.58723 1.13994 0
M  V30 407 C 33.1843 -2.35577 1.46283 0
M  V30 408 H 36.1353 -1.0418 1.19718 0
M  V30 409 H 36.1563 -3.72787 0.762217 0
M  V30 410 H 35.6683 -3.01609 2.44241 0
M  V30 411 H 33.7693 -3.72512 0.0807901 0
M  V30 412 H 33.8823 -4.42816 1.82894 0
M  V30 413 H 32.2463 -2.38935 0.88217 0
M  V30 414 H 33.0293 -2.29731 2.55105 0
M  V30 415 N 35.4744 -0.807222 -1.35358 0
M  V30 416 C 36.4374 -0.223665 -2.28106 0
M  V30 417 C 37.4374 0.589354 -1.4961 0
M  V30 418 O 38.6274 0.407745 -1.69361 0
M  V30 419 C 35.7594 0.688149 -3.33882 0
M  V30 420 H 36.9524 -1.04169 -2.81227 0
M  V30 421 H 34.5054 -0.577921 -1.45223 0
M  V30 422 H 35.2404 1.52984 -2.85948 0
M  V30 423 H 35.0254 0.10687 -3.91954 0
M  V30 424 H 36.5154 1.09075 -4.03104 0
M  V30 425 N 36.9525 1.47285 -0.560781 0
M  V30 426 C 37.8825 2.32857 0.173105 0
M  V30 427 C 38.8635 1.44009 0.905281 0
M  V30 428 O 40.0485 1.7286 0.885046 0
M  V30 429 C 37.1785 3.25861 1.20133 0
M  V30 430 C 36.1325 4.23978 0.585388 0
M  V30 431 C 35.4585 5.06332 1.7185 0
M  V30 432 C 36.7585 5.20242 -0.463178 0
M  V30 433 H 38.4525 2.94466 -0.541307 0
M  V30 434 H 35.9985 1.41601 -0.261764 0
M  V30 435 H 37.9515 3.84569 1.72293 0
M  V30 436 H 36.6755 2.62315 1.94573 0
M  V30 437 H 35.3345 3.66501 0.085054 0
M  V30 438 H 34.9825 4.39186 2.45203 0
M  V30 439 H 34.6825 5.72762 1.31213 0
M  V30 440 H 36.2065 5.67899 2.24329 0
M  V30 441 H 37.6205 5.73293 -0.027502 0
M  V30 442 H 36.0175 5.94896 -0.788627 0
M  V30 443 H 37.0875 4.65504 -1.35773 0
M  V30 444 N 38.4306 0.297415 1.54768 0
M  V30 445 C 39.8416 -0.195947 1.85669 0
M  V30 446 C 40.1926 -1.53707 1.21937 0
M  V30 447 O 39.3176 -2.10164 0.515754 0
M  V30 448 C 39.9126 -0.362318 3.36857 0
M  V30 449 C 38.4716 -0.799901 3.67802 0
M  V30 450 C 37.6186 0.0938578 2.77141 0
M  V30 451 H 40.5696 0.518538 1.4999 0
M  V30 452 H 40.5906 -1.19745 3.61167 0
M  V30 453 H 40.1026 0.613921 3.83214 0
M  V30 454 H 38.2036 -1.78682 3.26961 0
M  V30 455 H 38.3166 -0.621773 4.75048 0
M  V30 456 H 36.6806 -0.426254 2.51108 0
M  V30 457 H 37.4636 1.06639 3.26318 0
M  V30 458 N 39.9087 -1.5758 0.0250728 0
M  V30 459 C 40.8407 -2.06869 -0.986796 0
M  V30 460 C 41.8537 -0.991332 -1.29137 0
M  V30 461 O 43.0427 -1.26761 -1.25674 0
M  V30 462 C 40.1427 -2.47486 -2.31525 0
M  V30 463 C 39.3157 -3.78253 -2.19643 0
M  V30 464 C 38.3747 -4.05464 -3.35388 0
M  V30 465 O 37.4007 -4.75774 -3.12454 0
M  V30 466 N 38.6027 -3.55321 -4.59051 0
M  V30 467 H 41.3677 -2.94302 -0.566276 0
M  V30 468 H 38.9287 -1.6109 -0.161776 0
M  V30 469 H 40.9207 -2.62785 -3.07776 0
M  V30 470 H 39.4907 -1.65441 -2.65232 0
M  V30 471 H 38.7107 -3.7279 -1.28144 0
M  V30 472 H 39.9987 -4.63936 -2.08903 0
M  V30 473 H 39.3967 -2.98431 -4.80578 0
M  V30 474 H 37.9537 -3.75905 -5.32483 0
M  V30 475 N 41.3868 0.248026 -1.55636 0
M  V30 476 C 42.7978 0.817177 -1.67866 0
M  V30 477 C 43.1488 1.86069 -0.622322 0
M  V30 478 O 42.2738 2.15157 0.231618 0
M  V30 479 C 42.8688 1.489 -3.04326 0
M  V30 480 C 41.4278 2.00587 -3.185 0
M  V30 481 C 40.5748 0.856573 -2.63739 0
M  V30 482 H 43.5258 0.0238579 -1.58682 0
M  V30 483 H 43.5468 2.35698 -2.98708 0
M  V30 484 H 43.0588 0.729279 -3.81186 0
M  V30 485 H 41.1598 2.79443 -2.4646 0
M  V30 486 H 41.2728 2.20402 -4.25393 0
M  V30 487 H 39.6368 1.25678 -2.21534 0
M  V30 488 H 40.4198 0.109953 -3.43124 0
M  V30 489 N 42.8649 1.48995 0.513639 0
M  V30 490 C 43.8129 1.65199 1.63744 0
M  V30 491 C 44.8069 0.51809 1.61283 0
M  V30 492 O 46.0129 0.697335 1.65943 0
M  V30 493 H 42.3879 0.52069 0.542574 0
M  V30 494 H 44.3589 2.59552 1.47226 0
M  V30 495 C 43.1079 1.72409 3.01945 0
M  V30 496 H 42.4309 2.59029 3.04539 0
M  V30 497 H 43.8709 1.87785 3.80148 0
M  V30 498 C 42.3299 0.46618 3.33659 0
M  V30 499 O 42.8599 -0.413744 3.99564 0
M  V30 500 N 41.0659 0.332931 2.88687 0
M  V30 501 H 40.6129 1.04996 2.35231 0
M  V30 502 H 40.5709 -0.507665 3.10274 0
M  V30 503 N 44.343 -0.763751 1.37857 0
M  V30 504 C 45.59 -1.52257 1.33506 0
M  V30 505 C 45.918 -1.94343 -0.078022 0
M  V30 506 O 45.173 -1.64958 -1.05297 0
M  V30 507 C 45.472 -2.79499 2.22745 0
M  V30 508 C 45.138 -2.56426 3.70886 0
M  V30 509 C 43.8 -2.49842 4.11257 0
M  V30 510 C 46.152 -2.36008 4.64704 0
M  V30 511 C 43.48 -2.20841 5.43549 0
M  V30 512 C 45.832 -2.0853 5.97242 0
M  V30 513 C 44.496 -2.00396 6.36709 0
M  V30 514 H 43.766 -0.557149 0.488534 0
M  V30 515 H 46.413 -0.879073 1.70131 0
M  V30 516 H 44.718 -3.48447 1.79142 0
M  V30 517 H 46.415 -3.37413 2.16688 0
M  V30 518 H 43.005 -2.62416 3.38874 0
M  V30 519 H 47.189 -2.40079 4.34368 0
M  V30 520 H 42.445 -2.13045 5.73081 0
M  V30 521 H 46.619 -1.91732 6.69486 0
M  V30 522 H 44.246 -1.77688 7.39142 0
M  V30 523 N 45.8211 -1.22559 -0.990812 0
M  V30 524 C 46.7681 -0.997519 -2.0813 0
M  V30 525 C 47.7381 0.0814702 -1.659 0
M  V30 526 O 48.9231 -0.0685424 -1.90677 0
M  V30 527 C 46.0631 -0.583615 -3.40129 0
M  V30 528 C 45.1761 -1.7336 -3.9569 0
M  V30 529 C 44.3111 -1.26748 -5.15857 0
M  V30 530 C 43.3501 -2.38888 -5.63559 0
M  V30 531 N 42.4871 -1.93308 -6.74964 0
M  V30 532 H 47.3271 -1.93099 -2.26973 0
M  V30 533 H 44.8641 -0.962114 -1.11273 0
M  V30 534 H 46.8221 -0.324801 -4.15934 0
M  V30 535 H 45.4521 0.312845 -3.2128 0
M  V30 536 H 44.5041 -2.10669 -3.16738 0
M  V30 537 H 45.8161 -2.57704 -4.27071 0
M  V30 538 H 44.9701 -0.966173 -5.98957 0
M  V30 539 H 43.7091 -0.394272 -4.86104 0
M  V30 540 H 42.7141 -2.69805 -4.79046 0
M  V30 541 H 43.9391 -3.26728 -5.95336 0
M  V30 542 H 41.8851 -1.08352 -6.4699 0
M  V30 543 H 41.8021 -2.71217 -7.05675 0
M  V30 544 H 43.0701 -1.66252 -7.61564 0
M  V30 545 N 47.2992 1.18797 -1.03562 0
M  V30 546 C 48.5242 1.9314 -0.755764 0
M  V30 547 C 48.9492 1.7537 0.68022 0
M  V30 548 O 48.3072 1.06046 1.47051 0
M  V30 549 C 48.3552 3.42747 -1.12058 0
M  V30 550 O 47.4592 4.11683 -0.243124 0
M  V30 551 H 46.8002 0.602724 -0.278604 0
M  V30 552 H 49.3302 1.50678 -1.3841 0
M  V30 553 H 49.3402 3.93437 -1.08035 0
M  V30 554 H 48.0152 3.55002 -2.16672 0
M  V30 555 H 46.5922 3.71323 -0.342539 0
M  V30 556 N 48.7773 0.814389 1.34928 0
M  V30 557 C 49.7073 0.244827 2.32213 0
M  V30 558 C 50.6883 -0.634024 1.57842 0
M  V30 559 O 51.8733 -0.562676 1.8587 0
M  V30 560 C 49.0033 -0.601106 3.42058 0
M  V30 561 C 47.9573 0.179896 4.27622 0
M  V30 562 C 47.2833 -0.788237 5.28858 0
M  V30 563 C 48.5833 1.38329 5.03649 0
M  V30 564 H 50.2773 1.05763 2.80097 0
M  V30 565 H 47.8233 0.510029 1.34665 0
M  V30 566 H 49.7763 -1.00968 4.09125 0
M  V30 567 H 48.5003 -1.44688 2.92802 0
M  V30 568 H 47.1593 0.569739 3.62146 0
M  V30 569 H 46.8073 -1.62973 4.75866 0
M  V30 570 H 46.5073 -0.269942 5.8698 0
M  V30 571 H 48.0313 -1.19485 5.98795 0
M  V30 572 H 49.4453 1.04918 5.63618 0
M  V30 573 H 47.8423 1.83662 5.71304 0
M  V30 574 H 48.9123 2.16592 4.33839 0
M  V30 575 N 50.2554 -1.46986 0.568584 0
M  V30 576 C 51.1854 -2.32946 -0.160753 0
M  V30 577 C 52.1664 -1.44487 -0.897631 0
M  V30 578 O 53.3514 -1.73327 -0.875867 0
M  V30 579 C 50.4814 -3.26494 -1.18403 0
M  V30 580 C 49.4354 -4.24282 -0.562895 0
M  V30 581 C 48.7614 -5.07236 -1.69163 0
M  V30 582 C 50.0614 -5.19989 0.490761 0
M  V30 583 H 51.7554 -2.94175 0.556916 0
M  V30 584 H 49.3014 -1.4146 0.26927 0
M  V30 585 H 51.2544 -3.85477 -1.70251 0
M  V30 586 H 49.9784 -2.63343 -1.93179 0
M  V30 587 H 48.6374 -3.66541 -0.0656164 0
M  V30 588 H 48.2854 -4.4048 -2.42871 0
M  V30 589 H 47.9854 -5.7345 -1.28174 0
M  V30 590 H 49.5094 -5.6908 -2.21314 0
M  V30 591 H 50.9234 -5.73271 0.0579047 0
M  V30 592 H 49.3204 -5.94469 0.820165 0
M  V30 593 H 50.3904 -4.64777 1.3824 0
M  V30 594 N 51.7335 -0.305618 -1.54608 0
M  V30 595 C 53.1445 0.186098 -1.8577 0
M  V30 596 C 53.4955 1.53058 -1.22751 0
M  V30 597 O 52.6205 2.09888 -0.526893 0
M  V30 598 C 53.2155 0.344449 -3.37044 0
M  V30 599 C 51.7745 0.780384 -3.68221 0
M  V30 600 C 50.9215 -0.108554 -2.77087 0
M  V30 601 H 53.8725 -0.526485 -1.49712 0
M  V30 602 H 53.8935 1.17828 -3.61796 0
M  V30 603 H 53.4055 -0.634235 -3.82883 0
M  V30 604 H 51.5065 1.76945 -3.27904 0
M  V30 605 H 51.6195 0.596572 -4.75371 0
M  V30 606 H 49.9835 0.412931 -2.5133 0
M  V30 607 H 50.7665 -1.08368 -3.25747 0
M  V30 608 N 53.2116 1.57565 -0.0334293 0
M  V30 609 C 54.1416 2.13511 0.945265 0
M  V30 610 C 55.1226 1.05231 1.33643 0
M  V30 611 O 56.3076 1.33084 1.41429 0
M  V30 612 C 53.4376 2.6657 2.22616 0
M  V30 613 C 52.3916 3.79676 1.97561 0
M  V30 614 C 51.7176 4.1918 3.31952 0
M  V30 615 C 53.0176 5.0557 1.31135 0
M  V30 616 H 54.7116 2.95538 0.479325 0
M  V30 617 H 52.2576 1.42166 0.229115 0
M  V30 618 H 54.2106 3.04344 2.91466 0
M  V30 619 H 52.9346 1.8171 2.71384 0
M  V30 620 H 51.5936 3.42347 1.31127 0
M  V30 621 H 51.2416 3.31296 3.78487 0
M  V30 622 H 50.9416 4.95402 3.15992 0
M  V30 623 H 52.4656 4.59541 4.02063 0
M  V30 624 H 53.8796 5.40903 1.89992 0
M  V30 625 H 52.2766 5.86818 1.25559 0
M  V30 626 H 53.3466 4.84062 0.284894 0
M  V30 627 N 54.6897 -0.239769 1.55765 0
M  V30 628 C 55.6527 -1.28038 1.90103 0
M  V30 629 C 56.6527 -1.40723 0.778055 0
M  V30 630 O 57.8427 -1.39301 1.04599 0
M  V30 631 C 54.9747 -2.65702 2.13577 0
M  V30 632 H 56.1677 -0.988048 2.83157 0
M  V30 633 H 53.7207 -0.479382 1.48767 0
M  V30 634 H 54.4557 -3.00063 1.23015 0
M  V30 635 H 54.2407 -2.57875 2.95369 0
M  V30 636 H 55.7307 -3.40828 2.41301 0
M  V30 637 N 56.1678 -1.49265 -0.50573 0
M  V30 638 C 57.4138 -1.58748 -1.26202 0
M  V30 639 C 57.7468 -0.271227 -1.92297 0
M  V30 640 O 57.0218 0.724831 -1.80489 0
M  V30 641 C 57.3048 -2.74332 -2.33268 0
M  V30 642 C 57.1578 -4.15737 -1.71705 0
M  V30 643 C 58.4768 -2.85576 -3.34865 0
M  V30 644 H 55.5958 -0.577826 -0.457478 0
M  V30 645 H 58.2378 -1.81532 -0.560897 0
M  V30 646 H 56.3878 -2.55036 -2.93068 0
M  V30 647 H 58.0598 -4.46537 -1.15769 0
M  V30 648 H 56.3028 -4.21605 -1.02135 0
M  V30 649 H 56.9738 -4.92477 -2.49341 0
M  V30 650 H 59.4498 -3.03127 -2.8505 0
M  V30 651 H 58.3258 -3.68135 -4.07146 0
M  V30 652 H 58.5868 -1.94732 -3.96903 0
M  V30 653 N 57.6459 0.756429 -1.3826 0
M  V30 654 C 58.5959 1.86069 -1.31766 0
M  V30 655 C 59.5799 1.59621 -0.202483 0
M  V30 656 O 60.7719 1.7149 -0.438211 0
M  V30 657 C 57.9009 3.23742 -1.1422 0
M  V30 658 C 56.9869 3.56091 -2.30348 0
M  V30 659 N 57.3779 3.59517 -3.55783 0
M  V30 660 C 55.6759 3.86341 -2.22838 0
M  V30 661 C 56.3769 3.89052 -4.32451 0
M  V30 662 N 55.3529 4.05736 -3.61772 0
M  V30 663 H 59.1549 1.86992 -2.26741 0
M  V30 664 H 56.6689 0.953643 -1.31451 0
M  V30 665 H 58.6659 4.02761 -1.07652 0
M  V30 666 H 57.3259 3.24073 -0.201763 0
M  V30 667 H 58.3369 3.41347 -3.89491 0
M  V30 668 H 55.0139 3.94404 -1.36937 0
M  V30 669 H 56.4039 3.98349 -5.4108 0
M  V30 670 N 59.124 1.23083 0.984299 0
M  V30 671 C 60.37 1.07221 1.72845 0
M  V30 672 C 60.725 -0.387453 1.88458 0
M  V30 673 O 60.018 -1.28309 1.42293 0
M  V30 674 C 60.212 1.72673 3.1292 0
M  V30 675 C 60.041 3.24853 3.10967 0
M  V30 676 C 58.811 3.93998 3.16376 0
M  V30 677 C 61.009 4.21674 2.94441 0
M  V30 678 N 58.991 5.33192 3.04268 0
M  V30 679 C 60.362 5.47756 2.90453 0
M  V30 680 C 62.417 4.12457 2.78897 0
M  V30 681 C 61.12 6.6568 2.72512 0
M  V30 682 C 63.146 5.3004 2.62319 0
M  V30 683 C 62.508 6.55046 2.59026 0
M  V30 684 H 58.607 0.44685 0.641755 0
M  V30 685 H 61.191 1.55753 1.16829 0
M  V30 686 H 59.362 1.26679 3.67161 0
M  V30 687 H 61.094 1.49824 3.75945 0
M  V30 688 H 57.849 3.45052 3.24401 0
M  V30 689 H 58.273 6.06157 3.015 0
M  V30 690 H 62.915 3.16588 2.80235 0
M  V30 691 H 60.633 7.61689 2.69919 0
M  V30 692 H 64.219 5.24747 2.5126 0
M  V30 693 H 63.099 7.44498 2.46357 0
M  V30 694 N 60.6021 -1.18246 1.0419 0
M  V30 695 C 61.5521 -2.19843 0.604392 0
M  V30 696 C 62.5361 -1.56962 -0.353814 0
M  V30 697 O 63.7281 -1.76156 -0.17267 0
M  V30 698 C 60.8571 -3.43287 -0.0298975 0
M  V30 699 C 59.9431 -4.13288 0.951531 0
M  V30 700 N 60.3341 -4.59271 2.11906 0
M  V30 701 C 58.6321 -4.39165 0.7778 0
M  V30 702 C 59.3331 -5.13173 2.73912 0
M  V30 703 N 58.3091 -5.04763 2.01779 0
M  V30 704 H 62.1111 -2.53089 1.4941 0
M  V30 705 H 59.6251 -1.34465 0.910658 0
M  V30 706 H 61.6221 -4.15334 -0.361037 0
M  V30 707 H 60.2821 -3.11537 -0.915127 0
M  V30 708 H 61.2931 -4.5368 2.49789 0
M  V30 709 H 57.9701 -4.17461 -0.0572331 0
M  V30 710 H 59.3601 -5.58947 3.72864 0
M  V30 711 N 62.0802 -0.821533 -1.34494 0
M  V30 712 C 63.0302 -0.214793 -2.26986 0
M  V30 713 C 64.0142 0.620125 -1.4847 0
M  V30 714 O 65.2062 0.474933 -1.70509 0
M  V30 715 C 62.3352 0.623566 -3.37589 0
M  V30 716 C 61.4212 -0.221904 -4.23519 0
M  V30 717 N 61.8122 -1.29223 -4.89014 0
M  V30 718 C 60.1102 -0.00600922 -4.46 0
M  V30 719 C 60.8112 -1.80965 -5.52835 0
M  V30 720 N 59.7872 -1.11376 -5.32068 0
M  V30 721 H 63.5892 -1.03354 -2.75128 0
M  V30 722 H 61.1032 -0.6642 -1.48196 0
M  V30 723 H 63.1002 1.0744 -4.02818 0
M  V30 724 H 61.7602 1.44049 -2.90998 0
M  V30 725 H 62.7712 -1.67502 -4.90065 0
M  V30 726 H 59.4482 0.77886 -4.10171 0
M  V30 727 H 60.8382 -2.70502 -6.15043 0
M  V30 728 N 63.5583 1.46682 -0.576371 0
M  V30 729 C 64.7863 2.06798 -0.0649635 0
M  V30 730 C 65.2013 1.42612 1.23723 0
M  V30 731 O 64.5583 0.529203 1.74659 0
M  V30 732 C 64.6093 3.6132 0.114202 0
M  V30 733 O 64.3303 4.23104 -1.13644 0
M  V30 734 C 65.8313 4.38349 0.66069 0
M  V30 735 H 63.0513 0.668778 -0.0545616 0
M  V30 736 H 65.5953 1.88404 -0.795237 0
M  V30 737 H 63.7503 3.79162 0.794673 0
M  V30 738 H 64.1643 5.15894 -0.946253 0
M  V30 739 H 65.6383 5.47081 0.73526 0
M  V30 740 H 66.1153 4.05953 1.67627 0
M  V30 741 H 66.7213 4.25297 0.0152951 0
M  V30 742 N 65.0364 0.313813 1.54444 0
M  V30 743 C 65.9994 -0.54379 2.22656 0
M  V30 744 C 66.9994 -1.05124 1.21678 0
M  V30 745 O 68.1894 -0.945225 1.46325 0
M  V30 746 C 65.3214 -1.75427 2.92298 0
M  V30 747 H 66.5144 0.0523599 2.99854 0
M  V30 748 H 64.0674 0.0647834 1.56166 0
M  V30 749 H 64.8024 -2.38991 2.19211 0
M  V30 750 H 64.5874 -1.39791 3.66334 0
M  V30 751 H 66.0774 -2.36325 3.44297 0
M  V30 752 N 66.5145 -1.57545 0.0417849 0
M  V30 753 C 67.7395 -1.97035 -0.647455 0
M  V30 754 C 68.1645 -0.918775 -1.64135 0
M  V30 755 O 67.5225 0.119006 -1.80909 0
M  V30 756 C 67.5705 -3.35609 -1.31905 0
M  V30 757 O 66.6745 -3.3287 -2.43457 0
M  V30 758 H 66.0155 -0.64211 -0.169086 0
M  V30 759 H 68.5455 -2.04318 0.107399 0
M  V30 760 H 68.5555 -3.72126 -1.67291 0
M  V30 761 H 67.2305 -4.11685 -0.590586 0
M  V30 762 H 65.8075 -3.08087 -2.10088 0
M  V30 763 N 67.9926 0.231505 -1.5589 0
M  V30 764 C 68.9396 1.28682 -1.91598 0
M  V30 765 C 69.9096 1.47071 -0.771974 0
M  V30 766 O 71.0946 1.60802 -1.027 0
M  V30 767 C 68.2346 2.6342 -2.22944 0
M  V30 768 C 67.3476 2.52912 -3.50228 0
M  V30 769 C 66.4826 3.80106 -3.7107 0
M  V30 770 C 65.5216 3.64279 -4.91902 0
M  V30 771 N 64.6586 4.834 -5.09184 0
M  V30 772 H 69.4986 0.975305 -2.81588 0
M  V30 773 H 67.0356 0.470299 -1.39379 0
M  V30 774 H 68.9936 3.41869 -2.39126 0
M  V30 775 H 67.6236 2.92687 -1.36139 0
M  V30 776 H 66.6756 1.6595 -3.42294 0
M  V30 777 H 67.9876 2.37133 -4.38827 0
M  V30 778 H 67.1416 4.66999 -3.87295 0
M  V30 779 H 65.8806 3.98799 -2.80733 0
M  V30 780 H 64.8856 2.7577 -4.75637 0
M  V30 781 H 66.1106 3.47067 -5.83714 0
M  V30 782 H 64.0566 5.02425 -4.21788 0
M  V30 783 H 63.9736 4.70311 -5.91898 0
M  V30 784 H 65.2416 5.71747 -5.29835 0
M  V30 785 N 69.4707 1.49531 0.497807 0
M  V30 786 C 70.6957 1.63159 1.28039 0
M  V30 787 C 71.1207 0.30418 1.85624 0
M  V30 788 O 70.4787 -0.728618 1.66015 0
M  V30 789 C 70.5267 2.70537 2.38416 0
M  V30 790 O 69.6307 2.29931 3.42353 0
M  V30 791 H 68.9717 0.546001 0.377861 0
M  V30 792 H 71.5017 1.9574 0.59558 0
M  V30 793 H 71.5117 2.92802 2.84132 0
M  V30 794 H 70.1867 3.6689 1.95869 0
M  V30 795 H 68.7637 2.18009 3.02533 0
M  V30 796 N 70.9488 -0.749086 1.3866 0
M  V30 797 C 71.8788 -1.8764 1.38973 0
M  V30 798 C 72.8598 -1.68178 0.255004 0
M  V30 799 O 74.0448 -1.88704 0.458754 0
M  V30 800 C 71.1748 -3.25222 1.21851 0
M  V30 801 C 70.1288 -3.59295 2.32575 0
M  V30 802 C 69.4548 -4.95663 2.00555 0
M  V30 803 C 70.7548 -3.63709 3.7485 0
M  V30 804 H 72.4488 -1.87635 2.3331 0
M  V30 805 H 69.9948 -0.901329 1.12303 0
M  V30 806 H 71.9478 -4.03746 1.20695 0
M  V30 807 H 70.6718 -3.25719 0.239775 0
M  V30 808 H 69.3308 -2.83093 2.32925 0
M  V30 809 H 68.9788 -4.92724 1.01154 0
M  V30 810 H 68.6788 -5.19429 2.74714 0
M  V30 811 H 70.2028 -5.7656 2.01024 0
M  V30 812 H 71.6168 -4.32338 3.76506 0
M  V30 813 H 70.0138 -3.98986 4.48252 0
M  V30 814 H 71.0838 -2.63834 4.06841 0
M  V30 815 N 72.4269 -1.23603 -0.977757 0
M  V30 816 C 73.6549 -1.09646 -1.75458 0
M  V30 817 C 74.0699 0.351859 -1.85492 0
M  V30 818 O 73.4269 1.24327 -1.336 0
M  V30 819 C 73.4779 -1.71895 -3.18016 0
M  V30 820 O 73.1989 -3.11063 -3.08498 0
M  V30 821 C 74.6999 -1.63415 -4.12081 0
M  V30 822 H 71.9199 -0.38359 -0.550545 0
M  V30 823 H 74.4639 -1.63507 -1.22824 0
M  V30 824 H 72.6189 -1.22061 -3.67668 0
M  V30 825 H 73.0329 -3.41305 -3.9826 0
M  V30 826 H 74.5069 -2.11669 -5.09804 0
M  V30 827 H 74.9839 -0.593462 -4.35172 0
M  V30 828 H 75.5899 -2.12628 -3.68334 0
M  V30 829 N 73.905 1.17692 -1.04816 0
M  V30 830 C 75.145 1.89545 -0.764979 0
M  V30 831 C 75.509 1.78979 0.695028 0
M  V30 832 O 76.71 2.45613 1.09215 0
M  V30 833 C 74.981 3.35659 -1.22751 0
M  V30 834 S 76.54 4.25526 -1.07112 0
M  V30 835 H 73.358 0.654432 -0.27792 0
M  V30 836 H 75.96 1.42163 -1.34201 0
M  V30 837 H 74.664 3.40882 -2.28533 0
M  V30 838 H 74.195 3.88083 -0.644594 0
M  V30 839 H 76.21 4.962 0.00697508 0
M  V30 840 N 75.3831 0.828654 1.34056 0
M  V30 841 C 76.3461 0.259927 2.27721 0
M  V30 842 C 77.3461 -0.565478 1.50529 0
M  V30 843 O 78.5361 -0.38075 1.69988 0
M  V30 844 C 75.6681 -0.634944 3.34935 0
M  V30 845 H 76.8611 1.0863 2.79534 0
M  V30 846 H 74.4141 0.600951 1.44285 0
M  V30 847 H 75.1491 -1.48416 2.88346 0
M  V30 848 H 74.9341 -0.0444999 3.92075 0
M  V30 849 H 76.4241 -1.02648 4.04788 0
M  V30 850 N 76.8612 -1.46375 0.584142 0
M  V30 851 C 78.1072 -2.03248 0.0787103 0
M  V30 852 C 78.4622 -1.44737 -1.26763 0
M  V30 853 O 77.7552 -0.603625 -1.81843 0
M  V30 854 C 77.9492 -3.57373 -0.0439342 0
M  V30 855 C 77.7782 -4.30831 1.28897 0
M  V30 856 C 76.5482 -4.69683 1.8635 0
M  V30 857 C 78.7462 -4.64278 2.21248 0
M  V30 858 N 76.7282 -5.27898 3.13365 0
M  V30 859 C 78.0992 -5.23078 3.32851 0
M  V30 860 C 80.1542 -4.46209 2.20911 0
M  V30 861 C 78.8572 -5.65715 4.44251 0
M  V30 862 C 80.8832 -4.89864 3.31341 0
M  V30 863 C 80.2452 -5.48736 4.41665 0
M  V30 864 H 76.3442 -0.778714 0.0716144 0
M  V30 865 H 78.9282 -1.78509 0.777355 0
M  V30 866 H 77.0992 -3.81823 -0.711749 0
M  V30 867 H 78.8312 -4.00892 -0.553881 0
M  V30 868 H 75.5862 -4.52488 1.39826 0
M  V30 869 H 76.0102 -5.61525 3.78178 0
M  V30 870 H 80.6522 -4.00027 1.36888 0
M  V30 871 H 78.3702 -6.10875 5.29015 0
M  V30 872 H 81.9562 -4.77634 3.322 0
M  V30 873 H 80.8362 -5.81898 5.25704 0
M  V30 874 N 78.3393 -0.321999 -1.54275 0
M  V30 875 C 79.2713 0.578671 -2.21775 0
M  V30 876 C 80.2843 1.08109 -1.21722 0
M  V30 877 O 81.4733 0.994938 -1.482 0
M  V30 878 C 78.5733 1.80661 -2.86731 0
M  V30 879 C 77.7463 1.44314 -4.12907 0
M  V30 880 C 76.8053 2.52845 -4.61472 0
M  V30 881 O 75.8313 2.17054 -5.2619 0
M  V30 882 N 77.0333 3.83748 -4.35566 0
M  V30 883 H 79.7983 0.000709447 -2.997 0
M  V30 884 H 77.3593 -0.145132 -1.61248 0
M  V30 885 H 79.3513 2.52655 -3.16145 0
M  V30 886 H 77.9213 2.29245 -2.12521 0
M  V30 887 H 77.1413 0.554906 -3.90275 0
M  V30 888 H 78.4293 1.17598 -4.95023 0
M  V30 889 H 77.8273 4.15625 -3.83761 0
M  V30 890 H 76.3843 4.51977 -4.69638 0
M  V30 891 N 79.8174 1.5752 -0.0501392 0
M  V30 892 C 80.7494 2.08413 0.95376 0
M  V30 893 C 81.7624 1.01175 1.27544 0
M  V30 894 O 82.9514 1.28744 1.23641 0
M  V30 895 C 80.0514 2.51138 2.27559 0
M  V30 896 C 79.2244 3.817 2.13598 0
M  V30 897 C 78.2834 4.10749 3.28895 0
M  V30 898 O 77.3094 4.80685 3.04845 0
M  V30 899 N 78.5114 3.62579 4.5334 0
M  V30 900 H 81.2764 2.95165 0.519383 0
M  V30 901 H 78.8374 1.61327 0.136127 0
M  V30 902 H 80.8294 2.67648 3.03557 0
M  V30 903 H 79.3994 1.6964 2.62567 0
M  V30 904 H 78.6194 3.74782 1.22197 0
M  V30 905 H 79.9074 4.67201 2.01496 0
M  V30 906 H 79.3054 3.06039 4.75769 0
M  V30 907 H 77.8624 3.84329 5.26436 0
M  V30 908 N 81.2955 -0.223234 1.56011 0
M  V30 909 C 82.2455 -1.28008 1.88674 0
M  V30 910 C 83.2295 -1.42369 0.749663 0
M  V30 911 O 84.4215 -1.45212 1.01205 0
M  V30 912 C 81.5505 -2.63084 2.20548 0
M  V30 913 C 80.6365 -2.52632 3.40643 0
M  V30 914 N 81.0275 -2.11829 4.59306 0
M  V30 915 C 79.3255 -2.83594 3.44224 0
M  V30 916 C 80.0265 -2.12587 5.41463 0
M  V30 917 N 79.0025 -2.5301 4.81131 0
M  V30 918 H 82.8045 -0.955487 2.77935 0
M  V30 919 H 80.3185 -0.431801 1.56554 0
M  V30 920 H 82.3155 -3.39385 2.42122 0
M  V30 921 H 80.9755 -2.96391 1.32599 0
M  V30 922 H 81.9865 -1.82988 4.84496 0
M  V30 923 H 78.6635 -3.21284 2.66614 0
M  V30 924 H 80.0535 -1.83179 6.46448 0
M  V30 925 N 82.7736 -1.49793 -0.48987 0
M  V30 926 C 83.6836 -1.70036 -1.61632 0
M  V30 927 C 84.6996 -0.583102 -1.63939 0
M  V30 928 O 85.8756 -0.859169 -1.82154 0
M  V30 929 C 82.9406 -1.77277 -2.97949 0
M  V30 930 C 82.0016 -3.00918 -3.06181 0
M  V30 931 C 81.2346 -3.07804 -4.35996 0
M  V30 932 O 81.4576 -2.21982 -5.25433 0
M  V30 933 O 80.3916 -4.00369 -4.49431 0
M  V30 934 H 84.2176 -2.65486 -1.47482 0
M  V30 935 H 81.8026 -1.33666 -0.667362 0
M  V30 936 H 83.6846 -1.84329 -3.78947 0
M  V30 937 H 82.3596 -0.850076 -3.12339 0
M  V30 938 H 81.2666 -2.99377 -2.2433 0
M  V30 939 H 82.5996 -3.92704 -2.96723 0
M  V30 940 N 84.2517 0.741722 -1.39055 0
M  V30 941 C 85.5287 1.49252 -1.26425 0
M  V30 942 C 85.9087 2.10705 0.129144 0
M  V30 943 O 85.2567 1.98045 1.13976 0
M  V30 944 C 85.4667 2.54934 -2.38347 0
M  V30 945 C 86.8147 3.21506 -2.77343 0
M  V30 946 O 87.8387 2.65245 -2.37747 0
M  V30 947 O 86.6977 4.23294 -3.45665 0
M  V30 948 H 83.7917 0.662451 -0.495064 0
M  V30 949 H 86.3377 0.776121 -1.50912 0
M  V30 950 H 85.1097 2.07857 -3.31529 0
M  V30 951 H 84.7327 3.34141 -2.15489 0
M  V30 952 N 85.7298 1.2412 0.971189 0
M  V30 953 C 86.6798 0.997551 2.05019 0
M  V30 954 C 87.6638 -0.0597747 1.60789 0
M  V30 955 O 88.8558 0.153516 1.76333 0
M  V30 956 C 85.9848 0.600557 3.38006 0
M  V30 957 C 85.0708 1.69377 3.88809 0
M  V30 958 N 85.4618 2.92586 4.12586 0
M  V30 959 C 83.7598 1.57048 4.17435 0
M  V30 960 C 84.4608 3.63431 4.54195 0
M  V30 961 N 83.4368 2.90979 4.59165 0
M  V30 962 H 87.2388 1.93316 2.21374 0
M  V30 963 H 84.7528 1.14194 1.1547 0
M  V30 964 H 86.7498 0.40725 4.14906 0
M  V30 965 H 85.4098 -0.327903 3.2304 0
M  V30 966 H 86.4208 3.288 4.00139 0
M  V30 967 H 83.0978 0.709798 4.11422 0
M  V30 968 H 84.4878 4.69102 4.81033 0
M  V30 969 N 87.2079 -1.17134 1.05439 0
M  V30 970 C 88.4549 -1.87456 0.765942 0
M  V30 971 C 88.7829 -1.81189 -0.707153 0
M  V30 972 O 88.0379 -1.21633 -1.5331 0
M  V30 973 C 88.3369 -3.36833 1.19491 0
M  V30 974 C 88.0029 -3.63301 2.67063 0
M  V30 975 C 86.6649 -3.70234 3.07376 0
M  V30 976 C 89.0169 -3.74575 3.62413 0
M  V30 977 C 86.3449 -3.85933 4.41896 0
M  V30 978 C 88.6969 -3.91793 4.9667 0
M  V30 979 C 87.3609 -3.96966 5.36633 0
M  V30 980 H 86.6309 -0.685948 0.280278 0
M  V30 981 H 89.2779 -1.38556 1.32192 0
M  V30 982 H 87.5829 -3.87807 0.557969 0
M  V30 983 H 89.2799 -3.89611 0.948893 0
M  V30 984 H 85.8699 -3.58532 2.34846 0
M  V30 985 H 90.0539 -3.68537 3.32406 0
M  V30 986 H 85.3099 -3.88187 4.72357 0
M  V30 987 H 89.4839 -3.99458 5.70444 0
M  V30 988 H 87.1109 -4.08883 6.40874 0
M  V30 989 N 88.686 -0.835752 -1.33615 0
M  V30 990 C 89.596 -0.269088 -2.33052 0
M  V30 991 C 90.612 0.603251 -1.63208 0
M  V30 992 O 91.788 0.508112 -1.94885 0
M  V30 993 C 88.853 0.549091 -3.42324 0
M  V30 994 C 87.914 -0.347156 -4.27894 0
M  V30 995 C 87.147 0.43207 -5.31948 0
M  V30 996 O 87.37 1.66409 -5.45586 0
M  V30 997 O 86.304 -0.192298 -6.01593 0
M  V30 998 H 90.13 -1.09243 -2.83372 0
M  V30 999 H 87.715 -0.598198 -1.36901 0
M  V30 1000 H 89.597 1.01414 -4.09015 0
M  V30 1001 H 88.272 1.34955 -2.94226 0
M  V30 1002 H 87.179 -0.859979 -3.64081 0
M  V30 1003 H 88.512 -1.1123 -4.79467 0
M  V30 1004 N 90.1641 1.46063 -0.591896 0
M  V30 1005 C 91.0941 2.33172 0.123673 0
M  V30 1006 C 92.0751 1.45897 0.87453 0
M  V30 1007 O 93.2601 1.74698 0.848181 0
M  V30 1008 C 90.3901 3.28336 1.13194 0
M  V30 1009 C 89.3441 4.25124 0.495324 0
M  V30 1010 C 88.6701 5.09863 1.61071 0
M  V30 1011 C 89.9701 5.19143 -0.573425 0
M  V30 1012 H 91.6641 2.93252 -0.603646 0
M  V30 1013 H 89.2101 1.41014 -0.291741 0
M  V30 1014 H 91.1631 3.88137 1.64097 0
M  V30 1015 H 89.8871 2.66383 1.88965 0
M  V30 1016 H 88.5461 3.66599 0.00729452 0
M  V30 1017 H 88.1941 4.44288 2.35832 0
M  V30 1018 H 87.8941 5.75417 1.19035 0
M  V30 1019 H 89.4181 5.72529 2.12233 0
M  V30 1020 H 90.8321 5.73106 -0.1491 0
M  V30 1021 H 89.2291 5.93089 -0.914636 0
M  V30 1022 H 90.2991 4.62519 -1.45617 0
M  V30 1023 N 91.6422 0.330177 1.54103 0
M  V30 1024 C 92.5892 -0.532762 2.24567 0
M  V30 1025 C 93.5592 -1.10635 1.23892 0
M  V30 1026 O 94.7442 -1.14546 1.5259 0
M  V30 1027 C 91.8842 -1.6845 3.01195 0
M  V30 1028 C 90.9972 -1.13951 4.167 0
M  V30 1029 C 90.1322 -2.25746 4.80845 0
M  V30 1030 C 89.1712 -1.6853 5.88442 0
M  V30 1031 N 88.3082 -2.74014 6.46421 0
M  V30 1032 H 93.1482 0.0746905 2.97906 0
M  V30 1033 H 90.6852 0.048632 1.4702 0
M  V30 1034 H 92.6432 -2.36234 3.43874 0
M  V30 1035 H 91.2732 -2.26314 2.30178 0
M  V30 1036 H 90.3252 -0.35301 3.78758 0
M  V30 1037 H 91.6372 -0.680892 4.94131 0
M  V30 1038 H 90.7912 -3.01422 5.26526 0
M  V30 1039 H 89.5302 -2.74947 4.0281 0
M  V30 1040 H 88.5352 -0.913543 5.42157 0
M  V30 1041 H 89.7602 -1.20198 6.68378 0
M  V30 1042 H 87.7062 -3.22494 5.71256 0
M  V30 1043 H 87.6232 -2.32735 7.19285 0
M  V30 1044 H 88.8912 -3.49499 6.96757 0
M  V30 1045 N 93.1203 -1.57491 0.0584922 0
M  V30 1046 C 94.3503 -1.9701 -0.622134 0
M  V30 1047 C 94.7583 -0.935034 -1.6448 0
M  V30 1048 O 94.1013 0.0882904 -1.83488 0
M  V30 1049 C 94.1633 -3.32794 -1.35972 0
M  V30 1050 C 93.8273 -4.54343 -0.492043 0
M  V30 1051 C 94.8243 -5.19323 0.244901 0
M  V30 1052 C 92.5093 -5.00534 -0.420821 0
M  V30 1053 C 94.5033 -6.28835 1.04143 0
M  V30 1054 C 92.1903 -6.09921 0.379389 0
M  V30 1055 C 93.1883 -6.73933 1.10919 0
M  V30 1056 O 92.8763 -7.81216 1.89623 0
M  V30 1057 H 92.6083 -0.653127 -0.174359 0
M  V30 1058 H 95.1623 -2.05029 0.123418 0
M  V30 1059 H 93.3923 -3.21351 -2.15105 0
M  V30 1060 H 95.0813 -3.5701 -1.93129 0
M  V30 1061 H 95.8473 -4.8459 0.19939 0
M  V30 1062 H 91.7263 -4.50496 -0.978474 0
M  V30 1063 H 95.2703 -6.7873 1.61157 0
M  V30 1064 H 91.1673 -6.44089 0.426512 0
M  V30 1065 H 91.9353 -7.98029 1.81913 0
M  V30 1066 N 94.5984 0.214957 -1.56127 0
M  V30 1067 C 95.5614 1.24997 -1.92116 0
M  V30 1068 C 96.5614 1.39467 -0.800344 0
M  V30 1069 O 97.7514 1.37619 -1.06802 0
M  V30 1070 C 94.8834 2.62271 -2.17777 0
M  V30 1071 H 96.0764 0.942875 -2.84693 0
M  V30 1072 H 93.6294 0.455654 -1.49511 0
M  V30 1073 H 94.3644 2.98068 -1.27773 0
M  V30 1074 H 94.1494 2.53143 -2.99434 0
M  V30 1075 H 95.6394 3.36946 -2.46693 0
M  V30 1076 N 96.0765 1.50051 0.48192 0
M  V30 1077 C 97.0245 1.68635 1.60203 0
M  V30 1078 C 98.0185 0.552184 1.60148 0
M  V30 1079 O 99.2245 0.732377 1.64427 0
M  V30 1080 H 95.5995 0.532081 0.531407 0
M  V30 1081 H 97.5705 2.62616 1.41688 0
M  V30 1082 C 96.3195 1.78775 2.9822 0
M  V30 1083 H 95.6425 2.6543 2.98976 0
M  V30 1084 H 97.0825 1.95806 3.7608 0
M  V30 1085 C 95.5415 0.536849 3.32595 0
M  V30 1086 O 96.0715 -0.328897 4.00351 0
M  V30 1087 N 94.2775 0.394091 2.87915 0
M  V30 1088 H 93.8245 1.09962 2.32951 0
M  V30 1089 H 93.7825 -0.441737 3.11281 0
M  V30 1090 N 97.5546 -0.734337 1.39446 0
M  V30 1091 C 98.7826 -1.52358 1.39981 0
M  V30 1092 C 99.1976 -1.88799 -0.0054975 0
M  V30 1093 O 98.5546 -1.54146 -0.976998 0
M  V30 1094 C 98.6056 -2.81072 2.27333 0
M  V30 1095 O 98.3266 -2.46178 3.62392 0
M  V30 1096 C 99.8276 -3.75096 2.36259 0
M  V30 1097 H 97.0476 -0.470806 0.478103 0
M  V30 1098 H 99.5916 -0.907339 1.83269 0
M  V30 1099 H 97.7466 -3.39026 1.87457 0
M  V30 1100 H 98.1606 -3.28866 4.08592 0
M  V30 1101 H 99.6346 -4.62305 3.01626 0
M  V30 1102 H 100.112 -4.16892 1.38194 0
M  V30 1103 H 100.718 -3.23061 2.76608 0
M  V30 1104 N 99.0327 -1.24633 -0.964593 0
M  V30 1105 C 100.279 -1.08949 -1.71049 0
M  V30 1106 C 100.612 0.370302 -1.90637 0
M  V30 1107 O 99.8867 1.27349 -1.47011 0
M  V30 1108 C 100.17 -1.83329 -3.0994 0
M  V30 1109 C 100.023 -3.37077 -2.97824 0
M  V30 1110 C 101.342 -1.60846 -4.09654 0
M  V30 1111 H 98.4607 -0.397178 -0.620821 0
M  V30 1112 H 101.103 -1.5334 -1.12191 0
M  V30 1113 H 99.2527 -1.45597 -3.60186 0
M  V30 1114 H 100.925 -3.84425 -2.5498 0
M  V30 1115 H 99.1677 -3.65298 -2.33965 0
M  V30 1116 H 99.8387 -3.84324 -3.96231 0
M  V30 1117 H 102.315 -1.93674 -3.68279 0
M  V30 1118 H 101.191 -2.1534 -5.04896 0
M  V30 1119 H 101.452 -0.547434 -4.38698 0
M  V30 1120 N 100.511 1.16574 -1.06058 0
M  V30 1121 C 101.444 2.19798 -0.61352 0
M  V30 1122 C 102.422 1.58509 0.362453 0
M  V30 1123 O 103.606 1.86527 0.271994 0
M  V30 1124 C 100.733 3.3855 0.100915 0
M  V30 1125 C 99.7788 4.18317 -0.831438 0
M  V30 1126 S 100.612 4.82375 -2.32539 0
M  V30 1127 C 101.768 6.04508 -1.62238 0
M  V30 1128 H 102.001 2.5738 -1.48805 0
M  V30 1129 H 99.5338 1.27327 -0.873338 0
M  V30 1130 H 101.492 4.07358 0.506898 0
M  V30 1131 H 100.153 2.99338 0.951604 0
M  V30 1132 H 99.3458 5.03232 -0.278071 0
M  V30 1133 H 98.9478 3.5499 -1.17719 0
M  V30 1134 H 101.24 6.71133 -0.926622 0
M  V30 1135 H 102.183 6.64389 -2.44934 0
M  V30 1136 H 102.591 5.53559 -1.106 0
M  V30 1137 N 101.989 0.842826 1.3317 0
M  V30 1138 C 103.405 0.531128 1.50503 0
M  V30 1139 C 103.605 -0.940734 1.78192 0
M  V30 1140 O 102.661 -1.72436 1.84451 0
M  V30 1141 C 103.974 1.40789 2.65705 0
M  V30 1142 C 105.522 1.40708 2.79589 0
M  V30 1143 C 105.997 2.26878 3.97857 0
M  V30 1144 N 107.488 2.24609 4.05099 0
M  V30 1145 C 108.223 2.88019 4.95815 0
M  V30 1146 N 107.719 3.60496 5.9162 0
M  V30 1147 N 109.512 2.77469 4.88843 0
M  V30 1148 H 101.663 1.79557 1.1346 0
M  V30 1149 H 103.926 0.766267 0.558156 0
M  V30 1150 H 103.632 2.454 2.51936 0
M  V30 1151 H 103.506 1.08677 3.61205 0
M  V30 1152 H 105.893 0.368668 2.92788 0
M  V30 1153 H 105.974 1.76829 1.84838 0
M  V30 1154 H 105.618 3.3078 3.85418 0
M  V30 1155 H 105.548 1.88096 4.91861 0
M  V30 1156 H 108.039 1.71906 3.36536 0
M  V30 1157 H 108.352 4.06076 6.57512 0
M  V30 1158 H 106.697 3.64604 5.91683 0
M  V30 1159 H 109.888 2.20406 4.12963 0
M  V30 1160 H 110.061 3.2717 5.59342 0
M  V30 1161 N 103.467 -1.45747 0.599634 0
M  V30 1162 C 104.714 -2.02292 0.0917284 0
M  V30 1163 C 105.042 -1.46906 -1.27472 0
M  V30 1164 O 104.297 -0.630652 -1.8526 0
M  V30 1165 C 104.596 -3.57399 -0.00602758 0
M  V30 1166 C 104.262 -4.31902 1.29503 0
M  V30 1167 C 102.924 -4.51974 1.65144 0
M  V30 1168 C 105.276 -4.74551 2.15525 0
M  V30 1169 C 102.604 -5.11949 2.86574 0
M  V30 1170 C 104.956 -5.35868 3.36196 0
M  V30 1171 C 103.62 -5.54165 3.72099 0
M  V30 1172 H 102.89 -0.740239 0.0335658 0
M  V30 1173 H 105.537 -1.7491 0.779661 0
M  V30 1174 H 103.842 -3.84014 -0.777183 0
M  V30 1175 H 105.539 -3.98846 -0.415038 0
M  V30 1176 H 102.129 -4.16588 1.00761 0
M  V30 1177 H 106.313 -4.58784 1.8929 0
M  V30 1178 H 101.569 -5.24305 3.14507 0
M  V30 1179 H 105.743 -5.6787 4.03109 0
M  V30 1180 H 103.37 -6.00406 4.6628 0
M  V30 1181 N 104.945 -0.338344 -1.53925 0
M  V30 1182 C 106.222 0.314774 -1.93051 0
M  V30 1183 C 106.602 1.68669 -1.26941 0
M  V30 1184 O 105.95 2.24636 -0.418445 0
M  V30 1185 C 106.16 0.392249 -3.46789 0
M  V30 1186 C 107.508 0.645554 -4.19664 0
M  V30 1187 O 108.532 0.474575 -3.53024 0
M  V30 1188 O 107.391 0.976408 -5.37707 0
M  V30 1189 H 104.485 0.182598 -0.80659 0
M  V30 1190 H 107.031 -0.389141 -1.65178 0
M  V30 1191 H 105.803 -0.570702 -3.87116 0
M  V30 1192 H 105.426 1.14316 -3.80812 0
M  V30 1193 N 106.423 1.57458 -0.0668435 0
M  V30 1194 C 107.653 1.97337 0.611677 0
M  V30 1195 C 108.061 0.943744 1.63982 0
M  V30 1196 O 107.404 -0.0785584 1.83532 0
M  V30 1197 C 107.466 3.33511 1.34205 0
M  V30 1198 C 107.13 4.54598 0.467941 0
M  V30 1199 C 108.127 5.19186 -0.272439 0
M  V30 1200 C 105.812 5.0075 0.39427 0
M  V30 1201 C 107.806 6.28274 -1.07476 0
M  V30 1202 C 105.493 6.09711 -0.411729 0
M  V30 1203 C 106.491 6.73335 -1.14492 0
M  V30 1204 O 106.179 7.80199 -1.93763 0
M  V30 1205 H 105.911 0.654042 0.170893 0
M  V30 1206 H 108.465 2.04961 -0.134289 0
M  V30 1207 H 106.695 3.22487 2.13398 0
M  V30 1208 H 108.384 3.58029 1.91233 0
M  V30 1209 H 109.15 4.84477 -0.225086 0
M  V30 1210 H 105.029 4.51009 0.954569 0
M  V30 1211 H 108.573 6.77866 -1.64755 0
M  V30 1212 H 104.47 6.43854 -0.460664 0
M  V30 1213 H 105.238 7.97053 -1.86142 0
M  V30 1214 N 107.901 -0.206675 1.56239 0
M  V30 1215 C 109.147 -0.930218 1.80208 0
M  V30 1216 C 109.48 -1.83387 0.638981 0
M  V30 1217 O 108.755 -1.91119 -0.361066 0
M  V30 1218 C 109.038 -1.75641 3.1436 0
M  V30 1219 C 108.891 -0.878257 4.41142 0
M  V30 1220 C 110.21 -2.73129 3.45092 0
M  V30 1221 H 107.329 -0.336742 0.655571 0
M  V30 1222 H 109.971 -0.198222 1.88963 0
M  V30 1223 H 108.121 -2.38048 3.07027 0
M  V30 1224 H 109.793 -0.269787 4.6051 0
M  V30 1225 H 108.036 -0.184385 4.33408 0
M  V30 1226 H 108.707 -1.49106 5.3148 0
M  V30 1227 H 111.183 -2.20856 3.52649 0
M  V30 1228 H 110.059 -3.28028 4.40101 0
M  V30 1229 H 110.32 -3.51606 2.68003 0
M  V30 1230 N 109.379 -1.50304 -0.473955 0
M  V30 1231 C 110.625 -1.62358 -1.22521 0
M  V30 1232 C 110.98 -0.318555 -1.89745 0
M  V30 1233 O 110.273 0.683315 -1.79001 0
M  V30 1234 C 110.467 -2.73938 -2.29549 0
M  V30 1235 C 110.296 -4.15165 -1.72825 0
M  V30 1236 C 109.066 -4.81604 -1.52924 0
M  V30 1237 C 111.264 -4.99503 -1.22481 0
M  V30 1238 N 109.246 -6.07056 -0.91413 0
M  V30 1239 C 110.617 -6.15655 -0.732743 0
M  V30 1240 C 112.672 -4.85299 -1.11308 0
M  V30 1241 C 111.375 -7.19164 -0.139976 0
M  V30 1242 C 113.401 -5.88982 -0.534258 0
M  V30 1243 C 112.763 -7.0438 -0.0525562 0
M  V30 1244 H 108.862 -0.648286 -0.437321 0
M  V30 1245 H 111.446 -1.87413 -0.527692 0
M  V30 1246 H 109.617 -2.50611 -2.9673 0
M  V30 1247 H 111.349 -2.75366 -2.96573 0
M  V30 1248 H 108.104 -4.3885 -1.78067 0
M  V30 1249 H 108.528 -6.74108 -0.625071 0
M  V30 1250 H 113.17 -3.96369 -1.47144 0
M  V30 1251 H 110.888 -8.07771 0.230591 0
M  V30 1252 H 114.474 -5.80055 -0.450219 0
M  V30 1253 H 113.354 -7.83238 0.388324 0
M  V30 1254 N 110.857 0.726932 -1.39834 0
M  V30 1255 C 111.787 1.85405 -1.41941 0
M  V30 1256 C 112.768 1.67751 -0.281728 0
M  V30 1257 O 113.953 1.8795 -0.488717 0
M  V30 1258 C 111.083 3.23243 -1.2701 0
M  V30 1259 C 110.037 3.55549 -2.38262 0
M  V30 1260 C 109.363 4.9241 -2.08415 0
M  V30 1261 C 110.663 3.577 -3.80589 0
M  V30 1262 H 112.357 1.83899 -2.36266 0
M  V30 1263 H 109.903 0.883349 -1.13723 0
M  V30 1264 H 111.856 4.01775 -1.27103 0
M  V30 1265 H 110.58 3.25296 -0.291564 0
M  V30 1266 H 109.239 2.79351 -2.37399 0
M  V30 1267 H 108.887 4.91052 -1.0898 0
M  V30 1268 H 108.587 5.14992 -2.82943 0
M  V30 1269 H 110.111 5.73289 -2.10171 0
M  V30 1270 H 111.525 4.26293 -3.83337 0
M  V30 1271 H 109.922 3.91804 -4.54543 0
M  V30 1272 H 110.992 2.57328 -4.10987 0
M  V30 1273 N 112.336 1.25143 0.95797 0
M  V30 1274 C 113.752 1.01892 1.22842 0
M  V30 1275 C 113.952 -0.266311 1.99732 0
M  V30 1276 O 113.008 -0.979913 2.3271 0
M  V30 1277 C 114.321 2.24004 2.00606 0
M  V30 1278 C 115.869 2.28731 2.13662 0
M  V30 1279 C 116.344 3.5049 2.94823 0
M  V30 1280 N 117.835 3.50866 3.02403 0
M  V30 1281 C 118.57 4.4174 3.65586 0
M  V30 1282 N 118.066 5.42882 4.30408 0
M  V30 1283 N 119.859 4.29429 3.62694 0
M  V30 1284 H 112.01 2.07718 0.443493 0
M  V30 1285 H 114.273 0.912031 0.258657 0
M  V30 1286 H 113.979 3.17395 1.51503 0
M  V30 1287 H 113.853 2.26907 3.01319 0
M  V30 1288 H 116.24 1.35865 2.61963 0
M  V30 1289 H 116.321 2.29848 1.12265 0
M  V30 1290 H 115.965 4.43676 2.47213 0
M  V30 1291 H 115.895 3.46617 3.96439 0
M  V30 1292 H 118.386 2.777 2.56302 0
M  V30 1293 H 118.699 6.0844 4.76467 0
M  V30 1294 H 117.044 5.46758 4.29047 0
M  V30 1295 H 120.235 3.49643 3.11236 0
M  V30 1296 H 120.408 5.00448 4.1165 0
M  V30 1297 N 113.814 -1.1601 1.06675 0
M  V30 1298 C 115.091 -1.82679 0.699114 0
M  V30 1299 C 115.471 -1.94559 -0.819137 0
M  V30 1300 O 114.819 -1.49169 -1.73092 0
M  V30 1301 C 115.029 -3.19445 1.40555 0
M  V30 1302 C 116.377 -3.95171 1.55323 0
M  V30 1303 O 117.401 -3.28976 1.36577 0
M  V30 1304 O 116.26 -5.13833 1.86112 0
M  V30 1305 H 113.354 -0.788954 0.247951 0
M  V30 1306 H 115.9 -1.23179 1.16726 0
M  V30 1307 H 114.672 -3.05856 2.44065 0
M  V30 1308 H 114.295 -3.86625 0.927733 0
M  V30 1309 N 115.292 -0.849877 -1.32721 0
M  V30 1310 C 116.242 -0.262892 -2.26479 0
M  V30 1311 C 117.226 0.588493 -1.49752 0
M  V30 1312 O 118.418 0.438659 -1.71478 0
M  V30 1313 C 115.547 0.551818 -3.38836 0
M  V30 1314 C 114.633 -0.311689 -4.22953 0
M  V30 1315 N 115.024 -1.39567 -4.86163 0
M  V30 1316 C 113.322 -0.100611 -4.45887 0
M  V30 1317 C 114.023 -1.92651 -5.48872 0
M  V30 1318 N 112.999 -1.22637 -5.29586 0
M  V30 1319 H 116.801 -1.09166 -2.72873 0
M  V30 1320 H 114.315 -0.695486 -1.46754 0
M  V30 1321 H 116.312 0.988713 -4.05006 0
M  V30 1322 H 114.972 1.37844 -2.93988 0
M  V30 1323 H 115.983 -1.77859 -4.86402 0
M  V30 1324 H 112.66 0.691681 -4.11731 0
M  V30 1325 H 114.05 -2.83487 -6.09167 0
M  V30 1326 N 116.77 1.45427 -0.607355 0
M  V30 1327 C 118.01 2.04128 -0.105458 0
M  V30 1328 C 118.374 1.46555 1.24039 0
M  V30 1329 O 119.575 1.96608 1.833 0
M  V30 1330 C 117.846 3.57338 -0.0665324 0
M  V30 1331 S 119.405 4.37201 0.374207 0
M  V30 1332 H 116.223 0.709278 -0.0494575 0
M  V30 1333 H 118.825 1.78139 -0.805404 0
M  V30 1334 H 117.529 3.96752 -1.04957 0
M  V30 1335 H 117.06 3.87902 0.655415 0
M  V30 1336 H 119.075 4.6888 1.62377 0
M  V30 1337 N 118.248 0.346503 1.53744 0
M  V30 1338 C 119.664 -0.00530975 1.59599 0
M  V30 1339 C 119.864 -1.48465 1.36236 0
M  V30 1340 O 118.92 -2.24376 1.15808 0
M  V30 1341 C 120.233 0.433516 2.97559 0
M  V30 1342 C 121.781 0.386111 3.10609 0
M  V30 1343 C 122.256 0.800451 4.50951 0
M  V30 1344 N 123.747 0.754753 4.5701 0
M  V30 1345 C 124.482 1.04727 5.63755 0
M  V30 1346 N 123.978 1.4081 6.7834 0
M  V30 1347 N 125.771 0.971316 5.53644 0
M  V30 1348 H 117.922 1.31009 1.67184 0
M  V30 1349 H 120.185 0.534242 0.783128 0
M  V30 1350 H 119.891 1.46509 3.19731 0
M  V30 1351 H 119.765 -0.189753 3.76722 0
M  V30 1352 H 122.152 -0.636295 2.88158 0
M  V30 1353 H 122.233 1.04462 2.33498 0
M  V30 1354 H 121.877 1.82088 4.74137 0
M  V30 1355 H 121.807 0.119386 5.26465 0
M  V30 1356 H 124.298 0.488662 3.74727 0
M  V30 1357 H 124.611 1.61607 7.55714 0
M  V30 1358 H 122.956 1.44657 6.79779 0
M  V30 1359 H 126.147 0.688748 4.63005 0
M  V30 1360 H 126.32 1.20263 6.36742 0
M  V30 1361 N 119.726 -1.57421 0.075193 0
M  V30 1362 C 120.951 -1.98364 -0.605515 0
M  V30 1363 C 121.376 -0.953383 -1.62149 0
M  V30 1364 O 120.734 0.0806053 -1.81121 0
M  V30 1365 C 120.782 -3.38332 -1.24756 0
M  V30 1366 O 119.886 -3.37959 -2.36342 0
M  V30 1367 H 119.227 -0.645553 -0.155428 0
M  V30 1368 H 121.757 -2.04044 0.150714 0
M  V30 1369 H 121.767 -3.75591 -1.5936 0
M  V30 1370 H 120.442 -4.12846 -0.503129 0
M  V30 1371 H 119.019 -3.12474 -2.03506 0
M  V30 1372 N 121.204 0.198386 -1.56346 0
M  V30 1373 C 122.167 1.22952 -1.93431 0
M  V30 1374 C 123.167 1.38611 -0.815092 0
M  V30 1375 O 124.357 1.36479 -1.08255 0
M  V30 1376 C 121.489 2.59946 -2.20546 0
M  V30 1377 H 122.682 0.912626 -2.85677 0
M  V30 1378 H 120.235 0.43977 -1.49986 0
M  V30 1379 H 120.97 2.96696 -1.30927 0
M  V30 1380 H 120.755 2.49953 -3.02102 0
M  V30 1381 H 122.245 3.3431 -2.50253 0
M  V30 1382 N 122.682 1.50554 0.465978 0
M  V30 1383 C 123.907 1.65838 1.24549 0
M  V30 1384 C 124.332 0.343486 1.84937 0
M  V30 1385 O 123.69 -0.69324 1.67523 0
M  V30 1386 C 123.738 2.75533 2.32624 0
M  V30 1387 O 122.842 2.37142 3.37398 0
M  V30 1388 H 122.183 0.553893 0.366194 0
M  V30 1389 H 124.713 1.96959 0.553927 0
M  V30 1390 H 124.723 2.98763 2.77857 0
M  V30 1391 H 123.398 3.70962 1.88043 0
M  V30 1392 H 121.975 2.24377 2.97841 0
M  V30 1393 N 124.16 -0.719506 1.40217 0
M  V30 1394 C 125.4 -1.49181 1.39729 0
M  V30 1395 C 125.764 -1.92 -0.00250614 0
M  V30 1396 O 126.965 -2.68473 -0.132479 0
M  V30 1397 C 125.236 -2.68767 2.35582 0
M  V30 1398 S 126.795 -3.58224 2.53418 0
M  V30 1399 H 123.613 -0.510091 0.495307 0
M  V30 1400 H 126.215 -0.841724 1.76452 0
M  V30 1401 H 124.919 -2.35475 3.36124 0
M  V30 1402 H 124.45 -3.38691 2.0013 0
M  V30 1403 H 126.465 -4.63033 1.78367 0
M  V30 1404 N 125.638 -1.25649 -0.95132 0
M  V30 1405 C 126.868 -1.13179 -1.72841 0
M  V30 1406 C 127.276 0.316827 -1.86528 0
M  V30 1407 O 126.619 1.22948 -1.3649 0
M  V30 1408 C 126.681 -1.71644 -3.15878 0
M  V30 1409 C 126.345 -3.20667 -3.25609 0
M  V30 1410 C 127.342 -4.17616 -3.09666 0
M  V30 1411 C 125.027 -3.6094 -3.49324 0
M  V30 1412 C 127.021 -5.52817 -3.17289 0
M  V30 1413 C 124.708 -4.96278 -3.56584 0
M  V30 1414 C 125.706 -5.92025 -3.40581 0
M  V30 1415 O 125.394 -7.24899 -3.47528 0
M  V30 1416 H 125.126 -0.395389 -0.54831 0
M  V30 1417 H 127.68 -1.66566 -1.20187 0
M  V30 1418 H 125.91 -1.12707 -3.69911 0
M  V30 1419 H 127.599 -1.54225 -3.75459 0
M  V30 1420 H 128.365 -3.87842 -2.91211 0
M  V30 1421 H 124.244 -2.86907 -3.6084 0
M  V30 1422 H 127.788 -6.2753 -3.04716 0
M  V30 1423 H 123.685 -5.25716 -3.74556 0
M  V30 1424 H 124.453 -7.33039 -3.64138 0
M  V30 1425 N 127.117 1.15442 -1.07289 0
M  V30 1426 C 128.065 2.22225 -0.686952 0
M  V30 1427 C 129.059 1.66688 0.30193 0
M  V30 1428 O 130.265 1.79236 0.165712 0
M  V30 1429 H 126.64 0.723783 -0.204064 0
M  V30 1430 H 128.611 2.52056 -1.5972 0
M  V30 1431 C 127.36 3.47556 -0.100149 0
M  V30 1432 H 126.683 3.90612 -0.852211 0
M  V30 1433 H 128.123 4.23794 0.132235 0
M  V30 1434 C 126.582 3.16337 1.159 0
M  V30 1435 O 127.112 3.33074 2.24555 0
M  V30 1436 N 125.318 2.70385 1.06491 0
M  V30 1437 H 124.865 2.56966 0.180668 0
M  V30 1438 H 124.823 2.49871 1.90819 0
M  V30 1439 N 128.595 0.856903 1.32268 0
M  V30 1440 C 129.82 0.474569 2.01897 0
M  V30 1441 C 130.245 -0.921766 1.63967 0
M  V30 1442 O 129.603 -1.60589 0.84148 0
M  V30 1443 C 129.651 0.623799 3.55164 0
M  V30 1444 O 128.755 -0.342459 4.10976 0
M  V30 1445 H 128.096 0.190422 0.63611 0
M  V30 1446 H 130.626 1.15672 1.68764 0
M  V30 1447 H 130.636 0.512169 4.04773 0
M  V30 1448 H 129.311 1.64202 3.82113 0
M  V30 1449 H 127.888 -0.18688 3.72431 0
M  V30 1450 N 130.073 -1.45103 0.615059 0
M  V30 1451 C 131.02 -2.30586 -0.0993978 0
M  V30 1452 C 131.99 -1.42544 -0.852669 0
M  V30 1453 O 133.175 -1.71465 -0.836917 0
M  V30 1454 C 130.315 -3.27572 -1.08583 0
M  V30 1455 C 129.428 -4.30717 -0.332656 0
M  V30 1456 C 128.563 -5.14807 -1.30947 0
M  V30 1457 C 127.602 -6.09673 -0.544538 0
M  V30 1458 N 126.739 -6.86517 -1.47101 0
M  V30 1459 H 131.579 -2.91144 0.635542 0
M  V30 1460 H 129.116 -1.4346 0.325206 0
M  V30 1461 H 131.074 -3.82276 -1.67095 0
M  V30 1462 H 129.704 -2.68751 -1.78809 0
M  V30 1463 H 128.756 -3.78615 0.368107 0
M  V30 1464 H 130.068 -4.98102 0.263842 0
M  V30 1465 H 129.222 -5.73948 -1.96643 0
M  V30 1466 H 127.961 -4.47458 -1.9399 0
M  V30 1467 H 126.966 -5.49656 0.126003 0
M  V30 1468 H 128.191 -6.79052 0.080947 0
M  V30 1469 H 126.137 -6.21851 -2.08895 0
M  V30 1470 H 126.054 -7.50281 -0.928137 0
M  V30 1471 H 127.322 -7.50194 -2.11731 0
M  V30 1472 N 131.551 -0.354651 -1.53558 0
M  V30 1473 C 132.779 0.239515 -2.05509 0
M  V30 1474 C 133.194 1.4333 -1.2289 0
M  V30 1475 O 132.551 1.80538 -0.266899 0
M  V30 1476 C 132.602 0.643719 -3.55723 0
M  V30 1477 O 132.323 -0.502602 -4.35207 0
M  V30 1478 C 133.824 1.29743 -4.23889 0
M  V30 1479 H 131.044 0.0442697 -0.669538 0
M  V30 1480 H 133.588 -0.509856 -1.98042 0
M  V30 1481 H 131.743 1.34302 -3.63376 0
M  V30 1482 H 132.157 -0.178172 -5.24197 0
M  V30 1483 H 133.631 1.53091 -5.30346 0
M  V30 1484 H 134.108 2.25441 -3.76926 0
M  V30 1485 H 134.714 0.639865 -4.20459 0
M  V30 1486 N 133.029 1.57378 -0.0835403 0
M  V30 1487 C 133.979 2.09916 0.889905 0
M  V30 1488 C 134.963 1.01151 1.25129 0
M  V30 1489 O 136.155 1.27443 1.2283 0
M  V30 1490 C 133.284 2.67379 2.15322 0
M  V30 1491 C 132.37 3.83167 1.81779 0
M  V30 1492 N 132.761 4.91665 1.18739 0
M  V30 1493 C 131.059 3.92685 2.11459 0
M  V30 1494 C 131.76 5.72409 1.0355 0
M  V30 1495 N 130.736 5.21062 1.54906 0
M  V30 1496 H 134.538 2.91188 0.398378 0
M  V30 1497 H 132.052 1.61956 0.120013 0
M  V30 1498 H 134.049 3.0334 2.8599 0
M  V30 1499 H 132.709 1.87558 2.65051 0
M  V30 1500 H 133.72 5.10784 0.855604 0
M  V30 1501 H 130.397 3.23856 2.63483 0
M  V30 1502 H 131.787 6.69699 0.543425 0
M  V30 1503 N 134.507 -0.190092 1.56449 0
M  V30 1504 C 135.439 -1.25973 1.91477 0
M  V30 1505 C 136.452 -1.41452 0.805931 0
M  V30 1506 O 137.641 -1.41789 1.08435 0
M  V30 1507 C 134.741 -2.63117 2.13594 0
M  V30 1508 C 133.914 -2.69182 3.4476 0
M  V30 1509 C 132.973 -3.87557 3.5593 0
M  V30 1510 O 131.999 -3.74427 4.28711 0
M  V30 1511 N 133.201 -5.03224 2.89388 0
M  V30 1512 H 135.966 -0.962394 2.83828 0
M  V30 1513 H 133.527 -0.379981 1.57378 0
M  V30 1514 H 135.519 -3.40742 2.1835 0
M  V30 1515 H 134.089 -2.85319 1.27719 0
M  V30 1516 H 133.309 -1.77793 3.51828 0
M  V30 1517 H 134.597 -2.70229 4.31107 0
M  V30 1518 H 133.995 -5.16791 2.30094 0
M  V30 1519 H 132.552 -5.78778 2.99764 0
M  V30 1520 N 135.985 -1.50799 -0.457987 0
M  V30 1521 C 137.401 -1.38515 -0.792819 0
M  V30 1522 C 137.601 -0.451409 -1.96379 0
M  V30 1523 O 136.657 0.10112 -2.52297 0
M  V30 1524 C 137.97 -2.80149 -1.09258 0
M  V30 1525 C 139.518 -2.89156 -1.19825 0
M  V30 1526 C 139.993 -4.31651 -1.53106 0
M  V30 1527 N 141.484 -4.34662 -1.60072 0
M  V30 1528 C 142.219 -5.41928 -1.87354 0
M  V30 1529 N 141.715 -6.59384 -2.12568 0
M  V30 1530 N 143.508 -5.29385 -1.88965 0
M  V30 1531 H 135.659 -2.10073 0.313511 0
M  V30 1532 H 137.922 -0.944803 0.0777862 0
M  V30 1533 H 137.628 -3.50374 -0.305084 0
M  V30 1534 H 137.502 -3.18204 -2.02549 0
M  V30 1535 H 139.889 -2.19141 -1.97639 0
M  V30 1536 H 139.97 -2.54626 -0.244821 0
M  V30 1537 H 139.614 -5.02208 -0.758266 0
M  V30 1538 H 139.544 -4.63678 -2.49621 0
M  V30 1539 H 142.035 -3.49973 -1.42573 0
M  V30 1540 H 142.348 -7.36934 -2.32696 0
M  V30 1541 H 140.693 -6.62535 -2.09933 0
M  V30 1542 H 143.884 -4.36616 -1.68772 0
M  V30 1543 H 144.057 -6.13066 -2.09891 0
M  V30 1544 N 137.463 0.71206 -1.40597 0
M  V30 1545 C 138.688 1.50617 -1.42581 0
M  V30 1546 C 139.113 1.88079 -0.0282102 0
M  V30 1547 O 138.471 1.53511 0.964579 0
M  V30 1548 C 138.519 2.7557 -2.3258 0
M  V30 1549 O 137.623 3.72414 -1.77148 0
M  V30 1550 H 136.964 0.453966 -0.484573 0
M  V30 1551 H 139.494 0.876649 -1.84868 0
M  V30 1552 H 139.504 3.2406 -2.47889 0
M  V30 1553 H 138.179 2.47639 -3.34138 0
M  V30 1554 H 136.756 3.31276 -1.71204 0
M  V30 1555 N 138.941 1.26152 0.944643 0
M  V30 1556 C 139.871 1.09902 2.06019 0
M  V30 1557 C 140.852 0.00519538 1.70099 0
M  V30 1558 O 142.037 0.176583 1.93396 0
M  V30 1559 C 139.167 0.727562 3.39594 0
M  V30 1560 C 138.121 1.77274 3.89561 0
M  V30 1561 C 137.447 1.25569 5.19747 0
M  V30 1562 C 138.747 3.17357 4.14827 0
M  V30 1563 H 140.441 2.03217 2.19871 0
M  V30 1564 H 137.987 0.978452 1.05652 0
M  V30 1565 H 139.94 0.600777 4.17095 0
M  V30 1566 H 138.664 -0.241287 3.25707 0
M  V30 1567 H 137.323 1.88814 3.14237 0
M  V30 1568 H 136.971 0.276783 5.02238 0
M  V30 1569 H 136.671 1.95433 5.54148 0
M  V30 1570 H 138.195 1.1415 5.99835 0
M  V30 1571 H 139.609 3.08914 4.82954 0
M  V30 1572 H 138.006 3.84781 4.60504 0
M  V30 1573 H 139.076 3.63673 3.20734 0
M  V30 1574 N 140.419 -1.14872 1.07899 0
M  V30 1575 C 141.696 -1.81928 0.71845 0
M  V30 1576 C 142.076 -1.95417 -0.798455 0
M  V30 1577 O 141.424 -1.50997 -1.715 0
M  V30 1578 C 141.634 -3.17937 1.43935 0
M  V30 1579 C 142.982 -3.93501 1.59506 0
M  V30 1580 O 144.006 -3.27509 1.40058 0
M  V30 1581 O 142.865 -5.1183 1.91551 0
M  V30 1582 H 139.959 -0.78628 0.256305 0
M  V30 1583 H 142.505 -1.21934 1.18026 0
M  V30 1584 H 141.277 -3.0325 2.47295 0
M  V30 1585 H 140.9 -3.85619 0.968687 0
M  V30 1586 N 141.898 -0.863906 -1.31812 0
M  V30 1587 C 143.126 -0.486111 -2.01108 0
M  V30 1588 C 143.541 0.919755 -1.64882 0
M  V30 1589 O 142.898 1.60162 -0.874893 0
M  V30 1590 C 142.949 -0.626435 -3.56031 0
M  V30 1591 O 142.67 -1.97693 -3.90959 0
M  V30 1592 C 144.171 -0.248857 -4.42601 0
M  V30 1593 H 141.391 -0.190052 -0.643523 0
M  V30 1594 H 143.935 -1.1634 -1.68182 0
M  V30 1595 H 142.09 0.00322717 -3.874 0
M  V30 1596 H 142.504 -1.98034 -4.85678 0
M  V30 1597 H 143.978 -0.398016 -5.50563 0
M  V30 1598 H 144.455 0.811489 -4.31638 0
M  V30 1599 H 145.061 -0.853971 -4.16638 0
M  V30 1600 N 143.376 1.44774 -0.622745 0
M  V30 1601 C 144.339 2.29069 0.0774015 0
M  V30 1602 C 145.339 1.4059 0.780461 0
M  V30 1603 O 146.529 1.62551 0.626322 0
M  V30 1604 C 143.661 3.21974 1.12006 0
M  V30 1605 H 144.854 2.92459 -0.663901 0
M  V30 1606 H 142.407 1.51548 -0.382486 0
M  V30 1607 H 143.142 2.63417 1.89162 0
M  V30 1608 H 142.927 3.87168 0.619951 0
M  V30 1609 H 144.417 3.85318 1.60995 0
M  V30 1610 N 144.854 0.36279 1.53368 0
M  V30 1611 C 146.079 -0.231226 2.06107 0
M  V30 1612 C 146.504 -1.419 1.23474 0
M  V30 1613 O 145.862 -1.79524 0.253128 0
M  V30 1614 C 145.91 -0.605523 3.5548 0
M  V30 1615 O 145.014 -1.70312 3.7559 0
M  V30 1616 H 144.355 -0.034327 0.663112 0
M  V30 1617 H 146.885 0.522584 1.97814 0
M  V30 1618 H 146.895 -0.877314 3.98456 0
M  V30 1619 H 145.57 0.263004 4.15068 0
M  V30 1620 H 144.147 -1.4271 3.44512 0
M  V30 1621 N 146.332 -1.57332 0.0918853 0
M  V30 1622 C 147.578 -1.94524 -0.573425 0
M  V30 1623 C 147.911 -0.973578 -1.68033 0
M  V30 1624 O 147.186 -0.00609226 -1.94499 0
M  V30 1625 C 147.469 -3.41858 -1.13161 0
M  V30 1626 C 147.322 -4.4979 -0.0299747 0
M  V30 1627 C 148.641 -3.90435 -2.03098 0
M  V30 1628 H 145.76 -0.70734 -0.206975 0
M  V30 1629 H 148.402 -1.89309 0.161942 0
M  V30 1630 H 146.552 -3.46433 -1.7583 0
M  V30 1631 H 148.224 -4.57327 0.604112 0
M  V30 1632 H 146.467 -4.291 0.636833 0
M  V30 1633 H 147.138 -5.50069 -0.461287 0
M  V30 1634 H 149.614 -3.87992 -1.50338 0
M  V30 1635 H 148.49 -4.94097 -2.39081 0
M  V30 1636 H 148.751 -3.29541 -2.94712 0
M  V30 1637 N 147.81 0.181792 -1.56548 0
M  V30 1638 C 149.087 0.926765 -1.72251 0
M  V30 1639 C 149.467 2.00831 -0.650386 0
M  V30 1640 O 148.815 2.26008 0.336521 0
M  V30 1641 C 149.025 1.50106 -3.1507 0
M  V30 1642 C 150.373 1.97805 -3.75711 0
M  V30 1643 O 151.397 1.59922 -3.18282 0
M  V30 1644 O 150.256 2.67555 -4.76525 0
M  V30 1645 H 147.35 0.435506 -0.703039 0
M  V30 1646 H 149.896 0.170443 -1.68842 0
M  V30 1647 H 148.668 0.72212 -3.84579 0
M  V30 1648 H 148.291 2.32186 -3.22763 0
M  V30 1649 N 149.288 1.51039 0.449983 0
M  V30 1650 C 150.218 1.74379 1.55288 0
M  V30 1651 C 151.199 0.593236 1.5942 0
M  V30 1652 O 152.384 0.834625 1.7535 0
M  V30 1653 C 149.514 1.85728 2.93466 0
M  V30 1654 C 148.468 3.01078 3.04197 0
M  V30 1655 C 147.794 2.97595 4.44231 0
M  V30 1656 C 149.094 4.41254 2.7945 0
M  V30 1657 H 150.788 2.66725 1.36008 0
M  V30 1658 H 148.334 1.2835 0.652864 0
M  V30 1659 H 150.287 2.0064 3.70569 0
M  V30 1660 H 149.011 0.900207 3.13949 0
M  V30 1661 H 147.67 2.85851 2.29531 0
M  V30 1662 H 147.318 1.99691 4.61663 0
M  V30 1663 H 147.018 3.75046 4.52343 0
M  V30 1664 H 148.542 3.14583 5.23326 0
M  V30 1665 H 149.956 4.56897 3.46292 0
M  V30 1666 H 148.353 5.20315 2.98985 0
M  V30 1667 H 149.423 4.52164 1.75144 0
M  V30 1668 N 150.766 -0.704594 1.40972 0
M  V30 1669 C 152.006 -1.47691 1.41304 0
M  V30 1670 C 152.37 -1.91992 0.0178582 0
M  V30 1671 O 153.571 -2.68599 -0.103996 0
M  V30 1672 C 151.842 -2.66254 2.38419 0
M  V30 1673 S 153.401 -3.55516 2.57204 0
M  V30 1674 H 150.219 -0.504808 0.500689 0
M  V30 1675 H 152.821 -0.822962 1.77335 0
M  V30 1676 H 151.525 -2.31897 3.38603 0
M  V30 1677 H 151.056 -3.3655 2.03711 0
M  V30 1678 H 153.071 -4.61115 1.83268 0
M  V30 1679 N 152.244 -1.26651 -0.937939 0
M  V30 1680 C 153.493 -1.11775 -1.67897 0
M  V30 1681 C 153.806 0.33794 -1.92659 0
M  V30 1682 O 155.012 0.607434 -2.64618 0
M  V30 1683 C 153.468 -1.9523 -3.02346 0
M  V30 1684 C 153.076 -3.45393 -2.8532 0
M  V30 1685 C 154.82 -1.88972 -3.80118 0
M  V30 1686 C 152.727 -4.21083 -4.15263 0
M  V30 1687 H 151.657 -0.414696 -0.629717 0
M  V30 1688 H 154.308 -1.50988 -1.04283 0
M  V30 1689 H 152.69 -1.48853 -3.66959 0
M  V30 1690 H 153.864 -3.99561 -2.29537 0
M  V30 1691 H 152.179 -3.52921 -2.20988 0
M  V30 1692 H 154.776 -2.42805 -4.76392 0
M  V30 1693 H 155.119 -0.86113 -4.07296 0
M  V30 1694 H 155.652 -2.33189 -3.22285 0
M  V30 1695 H 152.391 -5.24425 -3.93267 0
M  V30 1696 H 151.911 -3.71695 -4.70747 0
M  V30 1697 H 153.59 -4.29706 -4.83696 0
M  V30 1698 N 153.722 1.14298 -1.08507 0
M  V30 1699 C 154.669 2.19414 -0.715965 0
M  V30 1700 C 155.639 1.63399 0.298326 0
M  V30 1701 O 156.824 1.89929 0.182101 0
M  V30 1702 C 153.964 3.44845 -0.132534 0
M  V30 1703 C 153.077 4.15007 -1.19973 0
M  V30 1704 C 152.212 5.28024 -0.580048 0
M  V30 1705 C 151.251 5.9002 -1.62921 0
M  V30 1706 N 150.388 6.94485 -1.03125 0
M  V30 1707 H 155.228 2.50336 -1.61666 0
M  V30 1708 H 152.765 1.2293 -0.807882 0
M  V30 1709 H 154.723 4.16601 0.223454 0
M  V30 1710 H 153.353 3.14403 0.731467 0
M  V30 1711 H 152.405 3.41629 -1.67313 0
M  V30 1712 H 153.717 4.57178 -1.99473 0
M  V30 1713 H 152.871 6.06455 -0.172364 0
M  V30 1714 H 151.61 4.87076 0.246603 0
M  V30 1715 H 150.615 5.10291 -2.04654 0
M  V30 1716 H 151.84 6.33042 -2.45835 0
M  V30 1717 H 149.786 6.55612 -0.225711 0
M  V30 1718 H 149.703 7.35148 -1.76334 0
M  V30 1719 H 150.971 7.7679 -0.649458 0
M  V30 1720 N 155.201 0.870884 1.31352 0
M  V30 1721 C 156.612 0.534714 1.78879 0
M  V30 1722 C 156.963 -0.948423 1.71754 0
M  V30 1723 O 156.088 -1.74055 1.28584 0
M  V30 1724 C 156.683 0.963839 3.24801 0
M  V30 1725 C 155.242 0.679311 3.70219 0
M  V30 1726 C 154.389 1.15465 2.52117 0
M  V30 1727 H 157.34 1.05651 1.18421 0
M  V30 1728 H 157.361 0.286892 3.79417 0
M  V30 1729 H 156.873 2.04332 3.29955 0
M  V30 1730 H 154.974 -0.388769 3.70566 0
M  V30 1731 H 155.087 1.25698 4.62317 0
M  V30 1732 H 153.451 0.574383 2.48139 0
M  V30 1733 H 154.234 2.24157 2.60016 0
M  V30 1734 N 156.679 -1.44442 0.630414 0
M  V30 1735 C 157.626 -2.30678 -0.0749355 0
M  V30 1736 C 158.596 -1.4344 -0.837502 0
M  V30 1737 O 159.781 -1.72343 -0.818684 0
M  V30 1738 C 156.921 -3.28706 -1.05103 0
M  V30 1739 C 156.034 -4.31046 -0.286954 0
M  V30 1740 C 155.169 -5.16167 -1.2548 0
M  V30 1741 C 154.208 -6.10216 -0.479843 0
M  V30 1742 N 153.345 -6.88039 -1.39811 0
M  V30 1743 H 158.185 -2.90454 0.666386 0
M  V30 1744 H 155.722 -1.43107 0.340404 0
M  V30 1745 H 157.68 -3.84027 -1.63031 0
M  V30 1746 H 156.31 -2.70632 -1.75949 0
M  V30 1747 H 155.362 -3.78203 0.408243 0
M  V30 1748 H 156.674 -4.97794 0.316657 0
M  V30 1749 H 155.828 -5.76002 -1.90544 0
M  V30 1750 H 154.567 -4.49491 -1.89233 0
M  V30 1751 H 153.572 -5.49491 0.184295 0
M  V30 1752 H 154.797 -6.78928 0.152965 0
M  V30 1753 H 152.743 -6.24032 -2.02287 0
M  V30 1754 H 152.66 -7.51223 -0.848508 0
M  V30 1755 H 153.928 -7.52397 -2.03762 0
M  V30 1756 N 158.157 -0.370918 -1.53173 0
M  V30 1757 C 159.385 0.217704 -2.05751 0
M  V30 1758 C 159.8 1.42018 -1.24404 0
M  V30 1759 O 159.157 1.80245 -0.286033 0
M  V30 1760 C 159.208 0.605954 -3.56385 0
M  V30 1761 O 158.929 -0.548734 -4.3465 0
M  V30 1762 C 160.43 1.2524 -4.25241 0
M  V30 1763 H 157.65 0.0371659 -0.66997 0
M  V30 1764 H 160.194 -0.530832 -1.9749 0
M  V30 1765 H 158.349 1.3044 -3.6478 0
M  V30 1766 H 158.763 -0.23376 -5.23979 0
M  V30 1767 H 160.237 1.47458 -5.3194 0
M  V30 1768 H 160.714 2.2143 -3.79296 0
M  V30 1769 H 161.32 0.595233 -4.21114 0
M  V30 1770 N 159.635 1.57281 -0.100228 0
M  V30 1771 C 160.884 1.93713 0.561984 0
M  V30 1772 C 161.197 0.984492 1.69018 0
M  V30 1773 O 162.403 1.24273 2.41389 0
M  V30 1774 C 160.859 3.4421 1.05106 0
M  V30 1775 C 160.467 4.47975 -0.0476628 0
M  V30 1776 C 162.211 3.89595 1.68571 0
M  V30 1777 C 160.118 5.89631 0.457055 0
M  V30 1778 H 159.048 0.723082 0.2137 0
M  V30 1779 H 161.699 1.82644 -0.177057 0
M  V30 1780 H 160.081 3.50449 1.84395 0
M  V30 1781 H 161.255 4.53385 -0.823333 0
M  V30 1782 H 159.57 4.1223 -0.587816 0
M  V30 1783 H 162.167 4.92832 2.07414 0
M  V30 1784 H 162.51 3.28526 2.55688 0
M  V30 1785 H 163.043 3.86078 0.958562 0
M  V30 1786 H 159.782 6.54411 -0.377616 0
M  V30 1787 H 159.302 5.87681 1.19962 0
M  V30 1788 H 160.981 6.40363 0.92437 0
M  V30 1789 N 161.113 -0.173488 1.56642 0
M  V30 1790 C 162.529 -0.525174 1.50712 0
M  V30 1791 C 162.729 -1.8476 0.804107 0
M  V30 1792 O 161.785 -2.49869 0.363574 0
M  V30 1793 C 163.098 -0.559937 2.95441 0
M  V30 1794 C 164.646 -0.647288 3.06234 0
M  V30 1795 C 165.121 -0.712963 4.52417 0
M  V30 1796 N 166.612 -0.775911 4.56655 0
M  V30 1797 C 167.347 -0.847264 5.67106 0
M  V30 1798 N 166.843 -0.879585 6.87194 0
M  V30 1799 N 168.636 -0.886117 5.55071 0
M  V30 1800 H 160.787 0.693681 2.00753 0
M  V30 1801 H 163.05 0.249841 0.914485 0
M  V30 1802 H 162.756 0.343049 3.50023 0
M  V30 1803 H 162.63 -1.40718 3.49969 0
M  V30 1804 H 165.017 -1.5407 2.51687 0
M  V30 1805 H 165.098 0.226586 2.54794 0
M  V30 1806 H 164.742 0.176183 5.07594 0
M  V30 1807 H 164.672 -1.60295 5.0161 0
M  V30 1808 H 167.163 -0.759304 3.70193 0
M  V30 1809 H 167.476 -0.935144 7.67121 0
M  V30 1810 H 165.821 -0.847898 6.89808 0
M  V30 1811 H 169.012 -0.857853 4.60172 0
M  V30 1812 H 169.185 -0.938263 6.41171 0
M  V30 1813 N 162.591 -1.51276 -0.441967 0
M  V30 1814 C 163.521 -1.752 -1.54361 0
M  V30 1815 C 164.502 -0.601682 -1.59103 0
M  V30 1816 O 165.687 -0.843913 -1.74905 0
M  V30 1817 C 162.817 -1.87282 -2.92477 0
M  V30 1818 C 161.771 -3.02687 -3.02596 0
M  V30 1819 C 161.097 -2.99947 -4.42647 0
M  V30 1820 C 162.397 -4.4273 -2.77106 0
M  V30 1821 H 164.091 -2.67442 -1.34592 0
M  V30 1822 H 161.637 -1.28694 -0.646048 0
M  V30 1823 H 163.59 -2.02602 -3.695 0
M  V30 1824 H 162.314 -0.916844 -3.13467 0
M  V30 1825 H 160.973 -2.87065 -2.28012 0
M  V30 1826 H 160.621 -2.02136 -4.60597 0
M  V30 1827 H 160.321 -3.77439 -4.50348 0
M  V30 1828 H 161.845 -3.17354 -5.2165 0
M  V30 1829 H 163.259 -4.58727 -3.43864 0
M  V30 1830 H 161.656 -5.21893 -2.96222 0
M  V30 1831 H 162.726 -4.53087 -1.72744 0
M  V30 1832 N 164.069 0.697108 -1.41344 0
M  V30 1833 C 165.346 1.45154 -1.31109 0
M  V30 1834 C 165.726 2.11009 0.0620449 0
M  V30 1835 O 165.074 2.01571 1.07618 0
M  V30 1836 C 165.284 2.47223 -2.46337 0
M  V30 1837 C 166.632 3.1252 -2.87431 0
M  V30 1838 O 167.656 2.57547 -2.46065 0
M  V30 1839 O 166.515 4.12083 -3.58957 0
M  V30 1840 H 163.609 0.646365 -0.515889 0
M  V30 1841 H 166.155 0.727716 -1.53305 0
M  V30 1842 H 164.927 1.97204 -3.37974 0
M  V30 1843 H 164.55 3.27116 -2.2601 0
M  V30 1844 N 165.547 1.27147 0.931209 0
M  V30 1845 C 166.457 1.11372 2.06478 0
M  V30 1846 C 167.473 0.044645 1.73943 0
M  V30 1847 O 168.649 0.250417 1.99837 0
M  V30 1848 C 165.714 0.758838 3.38294 0
M  V30 1849 C 164.775 1.90841 3.84549 0
M  V30 1850 C 164.008 1.57036 5.10074 0
M  V30 1851 O 164.231 0.476645 5.68405 0
M  V30 1852 O 163.165 2.40839 5.51616 0
M  V30 1853 H 166.991 2.06493 2.22698 0
M  V30 1854 H 164.576 1.06301 1.04978 0
M  V30 1855 H 166.458 0.574098 4.17471 0
M  V30 1856 H 165.133 -0.162879 3.2329 0
M  V30 1857 H 164.04 2.14819 3.06274 0
M  V30 1858 H 165.373 2.81021 4.04089 0
M  V30 1859 N 167.025 -1.13721 1.09112 0
M  V30 1860 C 168.253 -1.88773 0.846899 0
M  V30 1861 C 168.668 -1.7896 -0.601572 0
M  V30 1862 O 168.025 -1.15394 -1.41388 0
M  V30 1863 C 168.076 -3.3849 1.26913 0
M  V30 1864 O 167.797 -3.48043 2.66079 0
M  V30 1865 C 169.298 -4.30518 1.05682 0
M  V30 1866 H 166.518 -0.59772 0.304914 0
M  V30 1867 H 169.062 -1.43977 1.45227 0
M  V30 1868 H 167.217 -3.80881 0.707723 0
M  V30 1869 H 167.631 -4.4109 2.83795 0
M  V30 1870 H 169.105 -5.3391 1.40156 0
M  V30 1871 H 169.582 -4.392 -0.00563416 0
M  V30 1872 H 170.188 -3.93893 1.60402 0
M  V30 1873 N 168.503 -0.877838 -1.30888 0
M  V30 1874 C 169.731 -0.507414 -2.00581 0
M  V30 1875 C 170.146 0.902216 -1.65848 0
M  V30 1876 O 169.503 1.59225 -0.891831 0
M  V30 1877 C 169.554 -0.664162 -3.55347 0
M  V30 1878 O 169.275 -2.01829 -3.8884 0
M  V30 1879 C 170.776 -0.295787 -4.42312 0
M  V30 1880 H 167.996 -0.196866 -0.641471 0
M  V30 1881 H 170.54 -1.18117 -1.66939 0
M  V30 1882 H 168.695 -0.0378619 -3.87381 0
M  V30 1883 H 169.109 -2.03174 -4.8355 0
M  V30 1884 H 170.583 -0.456388 -5.5011 0
M  V30 1885 H 171.06 0.765663 -4.32475 0
M  V30 1886 H 171.666 -0.898113 -4.15709 0
M  V30 1887 N 169.982 1.44106 -0.638065 0
M  V30 1888 C 170.912 2.33448 0.0494287 0
M  V30 1889 C 171.893 1.48606 0.827672 0
M  V30 1890 O 173.078 1.77308 0.792173 0
M  V30 1891 C 170.208 3.31771 1.02691 0
M  V30 1892 C 169.162 4.26485 0.359823 0
M  V30 1893 C 168.488 5.14729 1.44769 0
M  V30 1894 C 169.788 5.17056 -0.738296 0
M  V30 1895 H 171.482 2.91183 -0.696636 0
M  V30 1896 H 169.028 1.40014 -0.336456 0
M  V30 1897 H 170.981 3.93161 1.51666 0
M  V30 1898 H 169.705 2.7226 1.80395 0
M  V30 1899 H 168.364 3.66437 -0.10934 0
M  V30 1900 H 168.012 4.51566 2.21578 0
M  V30 1901 H 167.712 5.78913 1.00668 0
M  V30 1902 H 169.236 5.78991 1.93911 0
M  V30 1903 H 170.65 5.72342 -0.331354 0
M  V30 1904 H 169.047 5.89879 -1.10286 0
M  V30 1905 H 170.117 4.57652 -1.60258 0
M  V30 1906 N 171.46 0.379036 1.52974 0
M  V30 1907 C 172.707 -0.206421 2.01445 0
M  V30 1908 C 173.035 -1.47668 1.26587 0
M  V30 1909 O 172.29 -1.92514 0.351675 0
M  V30 1910 C 172.589 -0.53096 3.53434 0
M  V30 1911 C 172.255 0.646546 4.46241 0
M  V30 1912 C 170.917 0.969604 4.7133 0
M  V30 1913 C 173.269 1.43479 5.01062 0
M  V30 1914 C 170.597 2.08263 5.48492 0
M  V30 1915 C 172.949 2.53834 5.7944 0
M  V30 1916 C 171.613 2.86659 6.02812 0
M  V30 1917 H 170.883 -0.0755349 0.73714 0
M  V30 1918 H 173.53 0.514271 1.84465 0
M  V30 1919 H 171.835 -1.33285 3.68432 0
M  V30 1920 H 173.532 -0.996417 3.88423 0
M  V30 1921 H 170.122 0.384734 4.2687 0
M  V30 1922 H 174.306 1.19844 4.81613 0
M  V30 1923 H 169.562 2.34078 5.64816 0
M  V30 1924 H 173.736 3.15319 6.20924 0
M  V30 1925 H 171.363 3.73026 6.62387 0
M  V30 1926 N 172.938 -1.57226 0.108567 0
M  V30 1927 C 174.185 -1.94833 -0.551943 0
M  V30 1928 C 174.513 -0.991204 -1.67348 0
M  V30 1929 O 173.768 -0.0131878 -1.95696 0
M  V30 1930 C 174.067 -3.38911 -1.13463 0
M  V30 1931 C 173.733 -4.50696 -0.135509 0
M  V30 1932 C 172.395 -4.80998 0.139252 0
M  V30 1933 C 174.747 -5.18333 0.545957 0
M  V30 1934 C 172.075 -5.76259 1.10194 0
M  V30 1935 C 174.427 -6.14627 1.49721 0
M  V30 1936 C 173.091 -6.43327 1.78006 0
M  V30 1937 H 172.361 -0.712944 -0.20197 0
M  V30 1938 H 175.008 -1.90582 0.18726 0
M  V30 1939 H 173.313 -3.39805 -1.95037 0
M  V30 1940 H 175.01 -3.65317 -1.65362 0
M  V30 1941 H 171.6 -4.27087 -0.359846 0
M  V30 1942 H 175.784 -4.95087 0.346842 0
M  V30 1943 H 171.04 -5.96804 1.32795 0
M  V30 1944 H 175.214 -6.66126 2.03099 0
M  V30 1945 H 172.841 -7.1695 2.52759 0
M  V30 1946 N 174.416 0.165178 -1.56732 0
M  V30 1947 C 175.644 0.896218 -1.86482 0
M  V30 1948 C 176.059 1.75555 -0.694675 0
M  V30 1949 O 175.416 1.79379 0.33607 0
M  V30 1950 C 175.467 1.76792 -3.1532 0
M  V30 1951 O 175.188 0.943239 -4.27825 0
M  V30 1952 C 176.689 2.6081 -3.58459 0
M  V30 1953 H 173.909 0.260064 -0.618553 0
M  V30 1954 H 176.453 0.163428 -2.03846 0
M  V30 1955 H 174.608 2.45398 -2.99764 0
M  V30 1956 H 175.022 1.53998 -5.01383 0
M  V30 1957 H 176.496 3.17579 -4.51495 0
M  V30 1958 H 176.973 3.35977 -2.82872 0
M  V30 1959 H 177.579 1.97526 -3.76648 0
M  V30 1960 N 175.894 1.51508 0.433938 0
M  V30 1961 C 177.14 1.65549 1.18173 0
M  V30 1962 C 177.495 0.368751 1.88833 0
M  V30 1963 O 176.788 -0.635616 1.8075 0
M  V30 1964 C 176.982 2.79928 2.22205 0
M  V30 1965 C 176.811 4.19601 1.61756 0
M  V30 1966 C 175.581 4.85489 1.40101 0
M  V30 1967 C 177.779 5.02574 1.09194 0
M  V30 1968 N 175.761 6.09266 0.752859 0
M  V30 1969 C 177.132 6.17381 0.569255 0
M  V30 1970 C 179.187 4.88079 0.984025 0
M  V30 1971 C 177.89 7.19282 -0.0507472 0
M  V30 1972 C 179.916 5.90191 0.377912 0
M  V30 1973 C 179.278 7.04272 -0.134216 0
M  V30 1974 H 175.377 0.659653 0.419979 0
M  V30 1975 H 177.961 1.88746 0.477818 0
M  V30 1976 H 176.132 2.5839 2.89982 0
M  V30 1977 H 177.864 2.83132 2.89168 0
M  V30 1978 H 174.619 4.43417 1.66369 0
M  V30 1979 H 175.043 6.75528 0.446123 0
M  V30 1980 H 179.685 4.00131 1.36583 0
M  V30 1981 H 177.403 8.06876 -0.444676 0
M  V30 1982 H 180.989 5.81045 0.296269 0
M  V30 1983 H 179.869 7.81933 -0.59585 0
M  V30 1984 N 177.372 -0.689602 1.41712 0
M  V30 1985 C 178.783 -1.26973 1.36875 0
M  V30 1986 C 179.134 -1.96124 0.054748 0
M  V30 1987 O 178.259 -1.99141 -0.84687 0
M  V30 1988 C 178.854 -2.30912 2.47922 0
M  V30 1989 C 177.413 -2.84486 2.46464 0
M  V30 1990 C 176.56 -1.58603 2.27465 0
M  V30 1991 H 179.511 -0.48396 1.51141 0
M  V30 1992 H 179.532 -3.12331 2.17323 0
M  V30 1993 H 179.044 -1.80554 3.43543 0
M  V30 1994 H 177.145 -3.39005 1.54617 0
M  V30 1995 H 177.258 -3.34511 3.42986 0
M  V30 1996 H 175.622 -1.84632 1.75451 0
M  V30 1997 H 176.405 -1.10233 3.25121 0
M  V30 1998 N 178.85 -1.27639 -0.924453 0
M  V30 1999 C 180.127 -1.04887 -1.651 0
M  V30 2000 C 180.507 0.415327 -2.06974 0
M  V30 2001 O 179.855 1.39923 -1.80648 0
M  V30 2002 C 180.065 -2.01348 -2.85061 0
M  V30 2003 C 181.413 -2.30899 -3.56329 0
M  V30 2004 O 182.437 -1.99348 -2.95193 0
M  V30 2005 O 181.296 -2.84699 -4.66485 0
M  V30 2006 H 178.39 -0.400083 -0.723784 0
M  V30 2007 H 180.936 -1.38916 -0.974703 0
M  V30 2008 H 179.708 -3.0008 -2.51133 0
M  V30 2009 H 179.331 -1.679 -3.6041 0
M  V30 2010 N 180.328 1.1314 -1.09713 0
M  V30 2011 C 181.576 1.84119 -0.833338 0
M  V30 2012 C 181.897 1.84097 0.642904 0
M  V30 2013 O 181.167 1.29881 1.46655 0
M  V30 2014 H 179.747 0.681766 -0.305293 0
M  V30 2015 H 182.409 1.37038 -1.38588 0
M  V30 2016 H 181.505 2.88543 -1.18951 0
M  V30 2017 N 181.806 0.884767 1.30421 0
M  V30 2018 C 182.756 0.322846 2.25703 0
M  V30 2019 C 183.74 -0.548582 1.51259 0
M  V30 2020 O 184.932 -0.39304 1.72581 0
M  V30 2021 C 182.061 -0.461787 3.4018 0
M  V30 2022 C 181.147 0.423717 4.21978 0
M  V30 2023 N 181.538 1.52408 4.82292 0
M  V30 2024 C 179.836 0.218795 4.45463 0
M  V30 2025 C 180.537 2.07136 5.43571 0
M  V30 2026 N 179.513 1.36635 5.26148 0
M  V30 2027 H 183.315 1.16363 2.69883 0
M  V30 2028 H 180.829 0.73415 1.44859 0
M  V30 2029 H 182.826 -0.880985 4.07485 0
M  V30 2030 H 181.486 -1.30001 2.9754 0
M  V30 2031 H 182.497 1.90693 4.81515 0
M  V30 2032 H 179.174 -0.582275 4.1342 0
M  V30 2033 H 180.564 2.99538 6.01437 0
M  V30 2034 N 183.284 -1.43765 0.645699 0
M  V30 2035 C 184.53 -2.02197 0.156271 0
M  V30 2036 C 184.863 -1.50776 -1.22393 0
M  V30 2037 O 184.138 -0.697771 -1.81553 0
M  V30 2038 C 184.421 -3.59749 0.158872 0
M  V30 2039 C 184.274 -4.21419 1.57245 0
M  V30 2040 C 185.593 -4.37149 -0.50879 0
M  V30 2041 H 182.712 -0.734694 0.0582602 0
M  V30 2042 H 185.354 -1.71157 0.824951 0
M  V30 2043 H 183.504 -3.86325 -0.410525 0
M  V30 2044 H 185.176 -4.059 2.19186 0
M  V30 2045 H 183.419 -3.78356 2.122 0
M  V30 2046 H 184.09 -5.30482 1.52619 0
M  V30 2047 H 186.566 -4.16093 -0.024412 0
M  V30 2048 H 185.442 -5.4683 -0.476213 0
M  V30 2049 H 185.703 -4.12839 -1.58165 0
M  V30 2050 N 184.763 -0.387143 -1.52771 0
M  V30 2051 C 185.991 0.195869 -2.05971 0
M  V30 2052 C 186.406 1.40691 -1.25903 0
M  V30 2053 O 185.763 1.79931 -0.305134 0
M  V30 2054 C 185.814 0.56812 -3.57008 0
M  V30 2055 O 185.535 -0.594803 -4.34043 0
M  V30 2056 C 187.036 1.20723 -4.26545 0
M  V30 2057 H 184.256 0.0300578 -0.670326 0
M  V30 2058 H 186.8 -0.551749 -1.96916 0
M  V30 2059 H 184.955 1.26564 -3.66143 0
M  V30 2060 H 185.369 -0.289322 -5.23701 0
M  V30 2061 H 186.843 1.41807 -5.33474 0
M  V30 2062 H 187.32 2.17395 -3.81623 0
M  V30 2063 H 187.926 0.550535 -4.21722 0
M  V30 2064 N 186.241 1.57166 -0.116904 0
M  V30 2065 C 187.188 2.15202 0.83408 0
M  V30 2066 C 188.158 1.07644 1.26499 0
M  V30 2067 O 189.343 1.35541 1.34288 0
M  V30 2068 C 186.483 2.75405 2.07957 0
M  V30 2069 C 185.596 3.97264 1.69721 0
M  V30 2070 C 184.731 4.45561 2.89221 0
M  V30 2071 C 183.77 5.59956 2.47215 0
M  V30 2072 N 182.907 6.03006 3.59622 0
M  V30 2073 H 187.747 2.96141 0.332335 0
M  V30 2074 H 185.284 1.46309 0.152349 0
M  V30 2075 H 187.242 3.08439 2.80929 0
M  V30 2076 H 185.872 1.97159 2.55594 0
M  V30 2077 H 184.924 3.70404 0.866316 0
M  V30 2078 H 186.236 4.80226 1.34849 0
M  V30 2079 H 185.39 4.80493 3.7042 0
M  V30 2080 H 184.129 3.61544 3.27318 0
M  V30 2081 H 183.134 5.2463 1.64448 0
M  V30 2082 H 184.359 6.45738 2.10238 0
M  V30 2083 H 182.305 5.21931 3.97396 0
M  V30 2084 H 182.222 6.80819 3.28667 0
M  V30 2085 H 183.49 6.42576 4.41267 0
M  V30 2086 N 187.719 -0.156864 1.56817 0
M  V30 2087 C 188.949 -0.885031 1.86684 0
M  V30 2088 C 189.357 -1.75696 0.701954 0
M  V30 2089 O 188.7 -1.80569 -0.337732 0
M  V30 2090 C 188.762 -1.80092 3.11138 0
M  V30 2091 C 188.426 -1.10714 4.43386 0
M  V30 2092 C 189.423 -0.465714 5.1781 0
M  V30 2093 C 187.108 -1.09959 4.90117 0
M  V30 2094 C 189.102 0.174002 6.37162 0
M  V30 2095 C 186.789 -0.456055 6.09396 0
M  V30 2096 C 187.787 0.179622 6.82764 0
M  V30 2097 O 187.475 0.812975 7.99779 0
M  V30 2098 H 187.207 -0.261813 0.623242 0
M  V30 2099 H 189.761 -0.157383 2.04796 0
M  V30 2100 H 187.991 -2.56926 2.89009 0
M  V30 2101 H 189.68 -2.40018 3.27332 0
M  V30 2102 H 190.446 -0.463427 4.82781 0
M  V30 2103 H 186.325 -1.58378 4.3294 0
M  V30 2104 H 189.869 0.670765 6.94368 0
M  V30 2105 H 185.766 -0.455975 6.43888 0
M  V30 2106 H 186.534 0.71366 8.15383 0
M  V30 2107 N 189.197 -1.51736 -0.425897 0
M  V30 2108 C 190.474 -1.55519 -1.1863 0
M  V30 2109 C 190.854 -0.326219 -2.08564 0
M  V30 2110 O 190.202 0.688012 -2.17896 0
M  V30 2111 C 190.412 -2.87521 -1.9782 0
M  V30 2112 C 191.76 -3.39899 -2.54468 0
M  V30 2113 O 192.784 -2.89148 -2.08019 0
M  V30 2114 O 191.643 -4.2848 -3.39215 0
M  V30 2115 H 188.737 -0.625739 -0.540721 0
M  V30 2116 H 191.283 -1.64055 -0.434038 0
M  V30 2117 H 190.055 -3.68422 -1.31836 0
M  V30 2118 H 189.678 -2.822 -2.80088 0
M  V30 2119 N 190.675 0.682077 -1.42076 0
M  V30 2120 C 191.605 1.80796 -1.47767 0
M  V30 2121 C 192.586 1.6677 -0.334954 0
M  V30 2122 O 193.771 1.863 -0.548264 0
M  V30 2123 C 190.901 3.19038 -1.37229 0
M  V30 2124 C 189.855 3.47789 -2.49453 0
M  V30 2125 C 189.181 4.8553 -2.23975 0
M  V30 2126 C 190.481 3.45411 -3.91776 0
M  V30 2127 H 192.175 1.7629 -2.41997 0
M  V30 2128 H 189.721 0.846721 -1.16476 0
M  V30 2129 H 191.674 3.97528 -1.39821 0
M  V30 2130 H 190.398 3.24204 -0.394907 0
M  V30 2131 H 189.057 2.71657 -2.46166 0
M  V30 2132 H 188.705 4.87337 -1.24547 0
M  V30 2133 H 188.405 5.0573 -2.99184 0
M  V30 2134 H 189.929 5.66312 -2.28304 0
M  V30 2135 H 191.343 4.13882 -3.96705 0
M  V30 2136 H 189.74 3.77145 -4.66778 0
M  V30 2137 H 190.81 2.44122 -4.18966 0
M  V30 2138 N 192.153 1.28127 0.917671 0
M  V30 2139 C 193.101 1.11569 2.04096 0
M  V30 2140 C 194.095 0.0360242 1.69362 0
M  V30 2141 O 195.301 0.194501 1.78946 0
M  V30 2142 H 191.676 0.344097 0.668656 0
M  V30 2143 H 193.647 2.06711 2.15205 0
M  V30 2144 C 192.396 0.790197 3.38602 0
M  V30 2145 H 191.719 1.61293 3.6582 0
M  V30 2146 H 193.159 0.714271 4.1794 0
M  V30 2147 C 191.618 -0.505897 3.3308 0
M  V30 2148 O 192.148 -1.53736 3.71117 0
M  V30 2149 N 190.354 -0.505193 2.86175 0
M  V30 2150 H 189.901 0.334621 2.55417 0
M  V30 2151 H 189.859 -1.37243 2.82863 0
M  V30 2152 N 193.631 -1.12557 1.10312 0
M  V30 2153 C 194.877 -1.84515 0.855901 0
M  V30 2154 C 195.232 -1.82409 -0.611936 0
M  V30 2155 O 194.525 -1.25778 -1.44535 0
M  V30 2156 C 194.719 -3.31462 1.33669 0
M  V30 2157 C 194.548 -3.47879 2.84974 0
M  V30 2158 C 193.318 -3.61589 3.52961 0
M  V30 2159 C 195.516 -3.43152 3.83081 0
M  V30 2160 N 193.498 -3.66359 4.926 0
M  V30 2161 C 194.869 -3.54401 5.08724 0
M  V30 2162 C 196.924 -3.2661 3.75807 0
M  V30 2163 C 195.627 -3.50815 6.2795 0
M  V30 2164 C 197.653 -3.24335 4.94531 0
M  V30 2165 C 197.015 -3.36144 6.19021 0
M  V30 2166 H 193.114 -0.690967 0.366182 0
M  V30 2167 H 195.698 -1.34763 1.40524 0
M  V30 2168 H 193.869 -3.7976 0.814686 0
M  V30 2169 H 195.601 -3.91272 1.03385 0
M  V30 2170 H 192.356 -3.63652 3.03404 0
M  V30 2171 H 192.78 -3.72411 5.65366 0
M  V30 2172 H 197.422 -3.16375 2.80476 0
M  V30 2173 H 195.14 -3.5982 7.23571 0
M  V30 2174 H 198.726 -3.12719 4.9061 0
M  V30 2175 H 197.606 -3.34357 7.09348 0
M  V30 2176 N 195.109 -0.891671 -1.2995 0
M  V30 2177 C 196.039 -0.379797 -2.30391 0
M  V30 2178 C 197.02 0.540919 -1.6127 0
M  V30 2179 O 198.205 0.453352 -1.88834 0
M  V30 2180 C 195.335 0.400654 -3.44981 0
M  V30 2181 C 194.289 -0.428905 -4.25846 0
M  V30 2182 C 193.615 0.478557 -5.32554 0
M  V30 2183 C 194.915 -1.67458 -4.94727 0
M  V30 2184 H 196.609 -1.21914 -2.73454 0
M  V30 2185 H 194.155 -0.587675 -1.31462 0
M  V30 2186 H 196.108 0.769434 -4.14316 0
M  V30 2187 H 194.832 1.27371 -3.0074 0
M  V30 2188 H 193.491 -0.779911 -3.58208 0
M  V30 2189 H 193.139 1.34951 -4.84559 0
M  V30 2190 H 192.839 -0.0727433 -5.87555 0
M  V30 2191 H 194.363 0.843705 -6.04743 0
M  V30 2192 H 195.777 -1.376 -5.56542 0
M  V30 2193 H 194.174 -2.16659 -5.59624 0
M  V30 2194 H 195.244 -2.41518 -4.20473 0
M  V30 2195 N 196.587 1.43421 -0.653314 0
M  V30 2196 C 197.833 2.02111 -0.166992 0
M  V30 2197 C 198.166 1.51423 1.21592 0
M  V30 2198 O 197.441 0.707389 1.8118 0
M  V30 2199 C 197.724 3.5966 -0.177948 0
M  V30 2200 C 197.577 4.20579 -1.59478 0
M  V30 2201 C 198.896 4.37413 0.4856 0
M  V30 2202 H 196.015 0.734374 -0.0621557 0
M  V30 2203 H 198.657 1.70717 -0.834016 0
M  V30 2204 H 196.807 3.86537 0.390032 0
M  V30 2205 H 198.479 4.04732 -2.21336 0
M  V30 2206 H 196.722 3.77226 -2.14204 0
M  V30 2207 H 197.393 5.29665 -1.5543 0
M  V30 2208 H 199.869 4.161 0.00234528 0
M  V30 2209 H 198.745 5.47075 0.447207 0
M  V30 2210 H 199.006 4.13672 1.55974 0
M  V30 2211 N 198.065 0.39524 1.52563 0
M  V30 2212 C 199.012 -0.437036 2.26624 0
M  V30 2213 C 199.982 -1.05281 1.28472 0
M  V30 2214 O 201.167 -1.07971 1.57311 0
M  V30 2215 C 198.307 -1.55524 3.08069 0
M  V30 2216 C 197.42 -0.961745 4.21158 0
M  V30 2217 C 196.555 -2.05149 4.89987 0
M  V30 2218 C 195.594 -1.4342 5.95061 0
M  V30 2219 N 194.731 -2.46351 6.57462 0
M  V30 2220 H 199.571 0.200976 2.97322 0
M  V30 2221 H 197.108 0.110944 1.46681 0
M  V30 2222 H 199.066 -2.21437 3.53584 0
M  V30 2223 H 197.696 -2.16348 2.3957 0
M  V30 2224 H 196.748 -0.192048 3.79915 0
M  V30 2225 H 198.06 -0.470701 4.96574 0
M  V30 2226 H 197.214 -2.78819 5.38837 0
M  V30 2227 H 195.953 -2.57615 4.14109 0
M  V30 2228 H 194.958 -0.682774 5.45544 0
M  V30 2229 H 196.183 -0.917416 6.72875 0
M  V30 2230 H 194.129 -2.97975 5.8442 0
M  V30 2231 H 194.046 -2.02019 7.28508 0
M  V30 2232 H 195.314 -3.19633 7.10954 0
M  V30 2233 N 199.544 -1.57102 0.125237 0
M  V30 2234 C 200.492 -2.16905 -0.839927 0
M  V30 2235 C 201.486 -1.11998 -1.27094 0
M  V30 2236 O 202.692 -1.3029 -1.24195 0
M  V30 2237 H 199.067 -0.694252 -0.288995 0
M  V30 2238 H 201.038 -2.96774 -0.311115 0
M  V30 2239 C 199.787 -2.78795 -2.07771 0
M  V30 2240 H 199.11 -3.59221 -1.755 0
M  V30 2241 H 200.55 -3.2417 -2.73295 0
M  V30 2242 C 199.009 -1.76193 -2.87155 0
M  V30 2243 O 199.539 -1.21909 -3.82755 0
M  V30 2244 N 197.745 -1.45991 -2.51267 0
M  V30 2245 H 197.292 -1.90325 -1.73592 0
M  V30 2246 H 197.25 -0.775844 -3.04677 0
M  V30 2247 N 201.022 0.148545 -1.56898 0
M  V30 2248 C 202.247 0.880385 -1.87787 0
M  V30 2249 C 202.672 1.74018 -0.714093 0
M  V30 2250 O 202.03 1.78153 0.336343 0
M  V30 2251 C 202.078 1.71422 -3.17249 0
M  V30 2252 O 201.182 2.8183 -3.01074 0
M  V30 2253 H 200.523 0.245301 -0.617028 0
M  V30 2254 H 203.053 0.139826 -2.04122 0
M  V30 2255 H 203.063 2.10954 -3.49231 0
M  V30 2256 H 201.738 1.08284 -4.01556 0
M  V30 2257 H 200.315 2.45715 -2.80497 0
M  V30 2258 N 202.5 1.5196 0.417844 0
M  V30 2259 C 203.73 1.69181 1.18581 0
M  V30 2260 C 204.138 0.397104 1.84986 0
M  V30 2261 O 203.481 -0.636011 1.72339 0
M  V30 2262 C 203.543 2.76497 2.29759 0
M  V30 2263 C 203.207 4.18514 1.83563 0
M  V30 2264 C 204.204 5.02648 1.32821 0
M  V30 2265 C 201.889 4.64708 1.90661 0
M  V30 2266 C 203.883 6.31044 0.897894 0
M  V30 2267 C 201.57 5.93096 1.47241 0
M  V30 2268 C 202.568 6.76093 0.968891 0
M  V30 2269 O 202.256 8.02078 0.540924 0
M  V30 2270 H 201.988 0.570457 0.362705 0
M  V30 2271 H 204.542 1.99249 0.498885 0
M  V30 2272 H 202.772 2.41786 3.01789 0
M  V30 2273 H 204.461 2.82403 2.91553 0
M  V30 2274 H 205.227 4.68154 1.26716 0
M  V30 2275 H 201.106 4.00216 2.28797 0
M  V30 2276 H 204.65 6.95776 0.504192 0
M  V30 2277 H 200.547 6.271 1.53022 0
M  V30 2278 H 201.315 8.15794 0.66502 0
M  V30 2279 N 203.978 -0.674533 1.42435 0
M  V30 2280 C 204.888 -1.81751 1.48337 0
M  V30 2281 C 205.904 -1.69975 0.372099 0
M  V30 2282 O 207.08 -1.91521 0.62304 0
M  V30 2283 C 204.145 -3.17895 1.38361 0
M  V30 2284 C 203.206 -3.41625 2.59982 0
M  V30 2285 C 202.439 -4.71274 2.50473 0
M  V30 2286 O 202.662 -5.49197 1.54075 0
M  V30 2287 O 201.596 -4.96254 3.4061 0
M  V30 2288 H 205.422 -1.79728 2.44809 0
M  V30 2289 H 203.007 -0.830312 1.24202 0
M  V30 2290 H 204.889 -3.99136 1.35161 0
M  V30 2291 H 203.564 -3.20555 0.450144 0
M  V30 2292 H 202.471 -2.60231 2.68757 0
M  V30 2293 H 203.804 -3.43796 3.52229 0
M  V30 2294 N 205.456 -1.28612 -0.910864 0
M  V30 2295 C 206.704 -1.15705 -1.65701 0
M  V30 2296 C 207.025 0.29416 -1.92769 0
M  V30 2297 O 206.295 1.20331 -1.54588 0
M  V30 2298 H 204.875 -0.425216 -0.614167 0
M  V30 2299 H 207.537 -1.61381 -1.0928 0
M  V30 2300 H 206.633 -1.6988 -2.61815 0
M  V30 2301 N 206.934 1.1197 -1.10907 0
M  V30 2302 C 207.866 2.17592 -0.720175 0
M  V30 2303 C 208.879 1.60938 0.245495 0
M  V30 2304 O 210.068 1.78476 0.0292245 0
M  V30 2305 C 207.168 3.38873 -0.0427917 0
M  V30 2306 C 206.341 4.25006 -1.03388 0
M  V30 2307 C 205.4 5.24774 -0.387075 0
M  V30 2308 O 204.426 5.59631 -1.03934 0
M  V30 2309 N 205.628 5.74208 0.852407 0
M  V30 2310 H 208.393 2.51567 -1.62893 0
M  V30 2311 H 205.954 1.27439 -0.998543 0
M  V30 2312 H 207.946 4.02703 0.401501 0
M  V30 2313 H 206.516 3.03007 0.768456 0
M  V30 2314 H 205.736 3.57716 -1.65629 0
M  V30 2315 H 207.024 4.79397 -1.70458 0
M  V30 2316 H 206.422 5.48062 1.40161 0
M  V30 2317 H 204.979 6.39901 1.23977 0
M  V30 2318 N 208.412 0.89855 1.29475 0
M  V30 2319 C 209.359 0.373819 2.27753 0
M  V30 2320 C 210.329 -0.543444 1.56958 0
M  V30 2321 O 211.514 -0.468934 1.84948 0
M  V30 2322 C 208.654 -0.393648 3.42848 0
M  V30 2323 C 207.767 0.554379 4.28428 0
M  V30 2324 C 206.902 -0.230026 5.30702 0
M  V30 2325 C 205.941 0.712599 6.07938 0
M  V30 2326 N 205.078 -0.0373283 7.0209 0
M  V30 2327 H 209.918 1.21699 2.72017 0
M  V30 2328 H 207.455 0.611456 1.33789 0
M  V30 2329 H 209.413 -0.85466 4.08352 0
M  V30 2330 H 208.043 -1.20128 2.99615 0
M  V30 2331 H 207.095 1.13391 3.63107 0
M  V30 2332 H 208.407 1.27597 4.82204 0
M  V30 2333 H 207.561 -0.752288 6.02018 0
M  V30 2334 H 206.3 -0.984758 4.77654 0
M  V30 2335 H 205.305 1.24637 5.35486 0
M  V30 2336 H 206.53 1.46664 6.63074 0
M  V30 2337 H 204.476 -0.774348 6.51414 0
M  V30 2338 H 204.393 0.624374 7.53417 0
M  V30 2339 H 205.661 -0.539891 7.77628 0
M  V30 2340 N 209.89 -1.43072 0.660911 0
M  V30 2341 C 210.822 -2.29108 -0.0647641 0
M  V30 2342 C 211.835 -1.42928 -0.779448 0
M  V30 2343 O 213.024 -1.66788 -0.635921 0
M  V30 2344 C 210.124 -3.20032 -1.11503 0
M  V30 2345 C 209.297 -4.34792 -0.476955 0
M  V30 2346 C 208.356 -5.06534 -1.42513 0
M  V30 2347 O 207.382 -5.61538 -0.930771 0
M  V30 2348 N 208.584 -5.1075 -2.75889 0
M  V30 2349 H 211.349 -2.92029 0.673731 0
M  V30 2350 H 208.91 -1.53846 0.50427 0
M  V30 2351 H 210.902 -3.64892 -1.75032 0
M  V30 2352 H 209.472 -2.58658 -1.75541 0
M  V30 2353 H 208.692 -3.92752 0.337572 0
M  V30 2354 H 209.98 -5.0879 -0.0318525 0
M  V30 2355 H 209.378 -4.67447 -3.18606 0
M  V30 2356 H 207.935 -5.59302 -3.347 0
M  V30 2357 N 211.368 -0.403325 -1.52352 0
M  V30 2358 C 212.315 0.425011 -2.26853 0
M  V30 2359 C 213.285 1.04598 -1.29029 0
M  V30 2360 O 214.47 1.07135 -1.57882 0
M  V30 2361 C 211.61 1.53888 -3.08889 0
M  V30 2362 C 210.723 0.939396 -4.21663 0
M  V30 2363 C 209.858 2.02547 -4.91068 0
M  V30 2364 C 208.897 1.40263 -5.95813 0
M  V30 2365 N 208.034 2.4286 -6.58759 0
M  V30 2366 H 212.874 -0.21674 -2.97211 0
M  V30 2367 H 210.411 -0.118722 -1.4662 0
M  V30 2368 H 212.369 2.19558 -3.54753 0
M  V30 2369 H 210.999 2.15074 -2.40714 0
M  V30 2370 H 210.051 0.171898 -3.80011 0
M  V30 2371 H 211.363 0.44436 -4.96817 0
M  V30 2372 H 210.517 2.75958 -5.40308 0
M  V30 2373 H 209.256 2.55415 -4.15469 0
M  V30 2374 H 208.261 0.653833 -5.45898 0
M  V30 2375 H 209.486 0.881719 -6.73352 0
M  V30 2376 H 207.432 2.94871 -5.85992 0
M  V30 2377 H 207.349 1.98152 -7.2957 0
M  V30 2378 H 208.617 3.15858 -7.12639 0
M  V30 2379 N 212.846 1.57033 -0.133567 0
M  V30 2380 C 214.092 1.95976 0.521649 0
M  V30 2381 C 214.425 1.01779 1.65393 0
M  V30 2382 O 213.7 0.0576581 1.94415 0
M  V30 2383 C 213.983 3.44738 1.04057 0
M  V30 2384 C 213.836 4.49711 -0.0892897 0
M  V30 2385 C 215.155 3.95682 1.92675 0
M  V30 2386 H 212.274 0.712579 0.188149 0
M  V30 2387 H 214.916 1.88813 -0.212076 0
M  V30 2388 H 213.066 3.50973 1.66583 0
M  V30 2389 H 214.738 4.55565 -0.725152 0
M  V30 2390 H 212.981 4.27261 -0.750378 0
M  V30 2391 H 213.652 5.51099 0.315284 0
M  V30 2392 H 216.128 3.91841 1.39998 0
M  V30 2393 H 215.004 5.00262 2.25897 0
M  V30 2394 H 215.265 3.37239 2.85872 0
M  V30 2395 N 214.325 -0.140222 1.56975 0
M  V30 2396 C 215.574 -0.850152 1.82908 0
M  V30 2397 C 215.887 -1.82028 0.715892 0
M  V30 2398 O 217.093 -2.57485 0.861016 0
M  V30 2399 C 215.549 -1.5625 3.24213 0
M  V30 2400 C 215.157 -0.63443 4.43485 0
M  V30 2401 C 216.901 -2.25881 3.59413 0
M  V30 2402 C 214.808 -1.34879 5.75814 0
M  V30 2403 H 213.738 -0.321221 0.682153 0
M  V30 2404 H 216.389 -0.102874 1.83211 0
M  V30 2405 H 214.771 -2.35565 3.18316 0
M  V30 2406 H 215.945 0.12398 4.60633 0
M  V30 2407 H 214.26 -0.0461836 4.16374 0
M  V30 2408 H 216.857 -2.79978 4.5554 0
M  V30 2409 H 217.2 -3.02693 2.85802 0
M  V30 2410 H 217.733 -1.53477 3.67001 0
M  V30 2411 H 214.472 -0.622385 6.52539 0
M  V30 2412 H 213.992 -2.07974 5.6259 0
M  V30 2413 H 215.671 -1.88784 6.18845 0
M  V30 2414 N 215.803 -1.52179 -0.40978 0
M  V30 2415 C 216.735 -1.71703 -1.51825 0
M  V30 2416 C 217.748 -0.597445 -1.51441 0
M  V30 2417 O 218.937 -0.872582 -1.55719 0
M  V30 2418 C 216.037 -1.74171 -2.90719 0
M  V30 2419 C 215.21 -3.03156 -3.15302 0
M  V30 2420 C 214.269 -2.97445 -4.34065 0
M  V30 2421 O 213.295 -3.71352 -4.31377 0
M  V30 2422 N 214.497 -2.15191 -5.39141 0
M  V30 2423 H 217.262 -2.67334 -1.35472 0
M  V30 2424 H 214.823 -1.50409 -0.599069 0
M  V30 2425 H 216.815 -1.67884 -3.68235 0
M  V30 2426 H 215.385 -0.860166 -3.00533 0
M  V30 2427 H 214.605 -3.23097 -2.25836 0
M  V30 2428 H 215.893 -3.88484 -3.28569 0
M  V30 2429 H 215.291 -1.54573 -5.44173 0
M  V30 2430 H 213.848 -2.1476 -6.15403 0
M  V30 2431 N 217.281 0.66697 -1.42791 0
M  V30 2432 C 218.692 1.2478 -1.38877 0
M  V30 2433 C 219.043 1.96012 -0.0859426 0
M  V30 2434 O 218.168 2.00463 0.815081 0
M  V30 2435 C 218.763 2.26938 -2.51564 0
M  V30 2436 C 217.322 2.80529 -2.50959 0
M  V30 2437 C 216.469 1.54965 -2.29959 0
M  V30 2438 H 219.42 0.459853 -1.51892 0
M  V30 2439 H 219.441 3.08834 -2.22265 0
M  V30 2440 H 218.953 1.75065 -3.46372 0
M  V30 2441 H 217.054 3.36502 -1.59991 0
M  V30 2442 H 217.167 3.29012 -3.48265 0
M  V30 2443 H 215.531 1.81817 -1.78366 0
M  V30 2444 H 216.314 1.05047 -3.26833 0
M  V30 2445 N 218.759 1.29093 0.90403 0
M  V30 2446 C 220.175 1.07011 1.1841 0
M  V30 2447 C 220.375 -0.181358 2.00682 0
M  V30 2448 O 219.431 -0.880331 2.36657 0
M  V30 2449 C 220.744 2.32311 1.90924 0
M  V30 2450 C 222.292 2.37587 2.03768 0
M  V30 2451 C 222.767 3.62679 2.79693 0
M  V30 2452 N 224.258 3.63376 2.87249 0
M  V30 2453 C 224.993 4.56848 3.46522 0
M  V30 2454 N 224.489 5.60648 4.06996 0
M  V30 2455 N 226.282 4.44426 3.44154 0
M  V30 2456 H 218.433 2.09412 0.354993 0
M  V30 2457 H 220.696 0.922181 0.219742 0
M  V30 2458 H 220.402 3.23536 1.37905 0
M  V30 2459 H 220.276 2.39483 2.91424 0
M  V30 2460 H 222.663 1.46853 2.55965 0
M  V30 2461 H 222.744 2.34403 1.02415 0
M  V30 2462 H 222.388 4.53762 2.28173 0
M  V30 2463 H 222.318 3.63119 3.81381 0
M  V30 2464 H 224.809 2.88321 2.44293 0
M  V30 2465 H 225.122 6.28101 4.50232 0
M  V30 2466 H 223.467 5.64463 4.05471 0
M  V30 2467 H 226.658 3.62529 2.96126 0
M  V30 2468 H 226.831 5.17457 3.90054 0
M  V30 2469 N 220.237 -1.11381 1.11499 0
M  V30 2470 C 221.486 -1.82494 0.858993 0
M  V30 2471 C 221.799 -1.85605 -0.617278 0
M  V30 2472 O 223.005 -2.52824 -0.989552 0
M  V30 2473 C 221.461 -3.27745 1.48699 0
M  V30 2474 C 221.069 -3.32961 2.99735 0
M  V30 2475 C 222.813 -4.03754 1.31085 0
M  V30 2476 C 220.72 -4.72612 3.55516 0
M  V30 2477 H 219.65 -0.683802 0.317696 0
M  V30 2478 H 222.301 -1.25331 1.34031 0
M  V30 2479 H 220.683 -3.84844 0.933339 0
M  V30 2480 H 221.857 -2.85741 3.61509 0
M  V30 2481 H 220.172 -2.70433 3.16631 0
M  V30 2482 H 222.769 -5.06891 1.70192 0
M  V30 2483 H 223.112 -4.15527 0.253496 0
M  V30 2484 H 223.645 -3.53043 1.83318 0
M  V30 2485 H 220.384 -4.66036 4.60967 0
M  V30 2486 H 219.904 -5.2024 2.98513 0
M  V30 2487 H 221.583 -5.4157 3.53992 0
M  V30 2488 N 221.715 -0.905404 -1.28997 0
M  V30 2489 C 222.645 -0.404212 -2.29975 0
M  V30 2490 C 223.626 0.523784 -1.61835 0
M  V30 2491 O 224.811 0.433298 -1.89304 0
M  V30 2492 C 221.941 0.364042 -3.45387 0
M  V30 2493 C 220.895 -0.474048 -4.25367 0
M  V30 2494 C 220.221 0.422045 -5.33032 0
M  V30 2495 C 221.521 -1.72696 -4.92923 0
M  V30 2496 H 223.215 -1.24807 -2.72146 0
M  V30 2497 H 220.761 -0.601585 -1.30832 0
M  V30 2498 H 222.714 0.725447 -4.15109 0
M  V30 2499 H 221.438 1.24174 -3.02074 0
M  V30 2500 H 220.097 -0.81786 -3.57361 0
M  V30 2501 H 219.745 1.29804 -4.85963 0
M  V30 2502 H 219.445 -0.135057 -5.87445 0
M  V30 2503 H 220.969 0.779517 -6.05604 0
M  V30 2504 H 222.383 -1.43495 -5.55051 0
M  V30 2505 H 220.78 -2.22582 -5.57295 0
M  V30 2506 H 221.85 -2.45964 -4.17887 0
M  V30 2507 N 223.193 1.4272 -0.668489 0
M  V30 2508 C 224.439 2.02443 -0.197076 0
M  V30 2509 C 224.794 1.51882 1.18109 0
M  V30 2510 O 224.087 0.708618 1.78015 0
M  V30 2511 C 224.281 3.57021 -0.164499 0
M  V30 2512 C 224.11 4.22583 -1.53797 0
M  V30 2513 C 222.88 4.58019 -2.13416 0
M  V30 2514 C 225.078 4.50588 -2.47941 0
M  V30 2515 N 223.06 5.08729 -3.4361 0
M  V30 2516 C 224.431 5.02782 -3.62782 0
M  V30 2517 C 226.486 4.32571 -2.46551 0
M  V30 2518 C 225.189 5.38852 -4.76478 0
M  V30 2519 C 227.215 4.69713 -3.59338 0
M  V30 2520 C 226.577 5.22053 -4.72906 0
M  V30 2521 H 222.676 0.773214 -0.116894 0
M  V30 2522 H 225.26 1.73673 -0.880108 0
M  V30 2523 H 223.431 3.85323 0.487925 0
M  V30 2524 H 225.163 4.03439 0.319207 0
M  V30 2525 H 221.918 4.43566 -1.65969 0
M  V30 2526 H 222.342 5.38521 -4.10273 0
M  V30 2527 H 226.984 3.91365 -1.59978 0
M  V30 2528 H 224.702 5.78993 -5.63731 0
M  V30 2529 H 228.288 4.57454 -3.59482 0
M  V30 2530 H 227.168 5.50258 -5.58736 0
M  V30 2531 N 224.671 0.411399 1.52136 0
M  V30 2532 C 225.619 -0.427633 2.28635 0
M  V30 2533 C 226.613 -1.04383 1.33419 0
M  V30 2534 O 227.819 -0.981772 1.50868 0
M  V30 2535 H 224.194 -0.156689 0.735495 0
M  V30 2536 H 226.165 0.238761 2.97443 0
M  V30 2537 C 224.914 -1.53082 3.12188 0
M  V30 2538 H 224.237 -1.06601 3.85326 0
M  V30 2539 H 225.677 -2.09167 3.68816 0
M  V30 2540 C 224.136 -2.49946 2.25895 0
M  V30 2541 O 224.666 -3.53884 1.90076 0
M  V30 2542 N 222.872 -2.2021 1.8962 0
M  V30 2543 H 222.419 -1.35719 2.18948 0
M  V30 2544 H 222.377 -2.85266 1.32176 0
M  V30 2545 N 226.149 -1.5696 0.141893 0
M  V30 2546 C 227.112 -2.15316 -0.785587 0
M  V30 2547 C 228.112 -1.09366 -1.1788 0
M  V30 2548 O 229.302 -1.35031 -1.10056 0
M  V30 2549 C 226.434 -2.71211 -2.06537 0
M  V30 2550 H 227.627 -2.98608 -0.278041 0
M  V30 2551 H 225.18 -1.5593 -0.107519 0
M  V30 2552 H 225.915 -1.91571 -2.6167 0
M  V30 2553 H 225.7 -3.4872 -1.79268 0
M  V30 2554 H 227.19 -3.16189 -2.72789 0
M  V30 2555 N 227.627 0.131896 -1.57047 0
M  V30 2556 C 228.537 1.1815 -2.02676 0
M  V30 2557 C 229.553 1.46113 -0.944824 0
M  V30 2558 O 230.729 1.57485 -1.25541 0
M  V30 2559 C 227.794 2.49139 -2.41103 0
M  V30 2560 C 226.855 2.28688 -3.63318 0
M  V30 2561 C 226.088 3.53431 -3.99903 0
M  V30 2562 O 226.311 4.60223 -3.36973 0
M  V30 2563 O 225.245 3.45198 -4.93074 0
M  V30 2564 H 229.071 0.824069 -2.92306 0
M  V30 2565 H 226.656 0.341745 -1.45439 0
M  V30 2566 H 228.538 3.26338 -2.66611 0
M  V30 2567 H 227.213 2.84382 -1.54624 0
M  V30 2568 H 226.12 1.4939 -3.42977 0
M  V30 2569 H 227.453 1.98355 -4.50462 0
M  V30 2570 N 229.106 1.52395 0.401703 0
M  V30 2571 C 230.355 1.66044 1.14509 0
M  V30 2572 C 230.668 0.400216 1.91462 0
M  V30 2573 O 231.874 0.416632 2.68284 0
M  V30 2574 C 230.33 2.93388 2.0845 0
M  V30 2575 C 229.938 4.26545 1.36978 0
M  V30 2576 C 231.682 3.16402 2.83001 0
M  V30 2577 C 229.589 5.45007 2.29611 0
M  V30 2578 H 228.519 0.618562 0.431158 0
M  V30 2579 H 231.17 1.78886 0.40892 0
M  V30 2580 H 229.552 2.74263 2.8565 0
M  V30 2581 H 230.726 4.56179 0.650916 0
M  V30 2582 H 229.041 4.09692 0.74438 0
M  V30 2583 H 231.638 4.02085 3.52465 0
M  V30 2584 H 231.981 2.30943 3.46368 0
M  V30 2585 H 232.514 3.36034 2.12898 0
M  V30 2586 H 229.253 6.32835 1.70879 0
M  V30 2587 H 228.773 5.19702 2.9945 0
M  V30 2588 H 230.452 5.7838 2.89974 0
M  V30 2589 N 230.584 -0.659388 1.43143 0
M  V30 2590 C 231.814 -1.44513 1.47646 0
M  V30 2591 C 232.222 -1.88981 0.0910095 0
M  V30 2592 O 231.565 -1.59702 -0.907789 0
M  V30 2593 C 231.627 -2.71663 2.35456 0
M  V30 2594 C 231.291 -2.49175 3.83094 0
M  V30 2595 C 232.288 -2.1279 4.74359 0
M  V30 2596 C 229.973 -2.63691 4.27519 0
M  V30 2597 C 231.967 -1.9121 6.08044 0
M  V30 2598 C 229.654 -2.41726 5.61259 0
M  V30 2599 C 230.652 -2.0554 6.51339 0
M  V30 2600 O 230.34 -1.838 7.82606 0
M  V30 2601 H 230.072 -0.45064 0.503884 0
M  V30 2602 H 232.626 -0.816248 1.88485 0
M  V30 2603 H 230.856 -3.37089 1.89493 0
M  V30 2604 H 232.545 -3.33595 2.31235 0
M  V30 2605 H 233.311 -2.01157 4.41317 0
M  V30 2606 H 229.19 -2.90832 3.57684 0
M  V30 2607 H 232.734 -1.62889 6.78316 0
M  V30 2608 H 228.631 -2.52959 5.9387 0
M  V30 2609 H 229.399 -1.98275 7.94122 0
M  V30 2610 N 232.062 -1.29571 -0.897171 0
M  V30 2611 C 232.994 -1.10724 -2.00681 0
M  V30 2612 C 234.007 -0.0540026 -1.6271 0
M  V30 2613 O 235.196 -0.298783 -1.75982 0
M  V30 2614 C 232.296 -0.663912 -3.32333 0
M  V30 2615 C 231.469 -1.79622 -3.98816 0
M  V30 2616 C 230.528 -1.34349 -5.0876 0
M  V30 2617 O 229.554 -2.04864 -5.31055 0
M  V30 2618 N 230.756 -0.215764 -5.80099 0
M  V30 2619 H 233.521 -2.06291 -2.17403 0
M  V30 2620 H 231.082 -1.21544 -1.06951 0
M  V30 2621 H 233.074 -0.344295 -4.03233 0
M  V30 2622 H 231.644 0.199375 -3.11964 0
M  V30 2623 H 230.864 -2.28459 -3.21248 0
M  V30 2624 H 232.152 -2.55535 -4.39976 0
M  V30 2625 H 231.55 0.372091 -5.64475 0
M  V30 2626 H 230.107 0.0444707 -6.51785 0
M  V30 2627 N 233.54 1.10788 -1.12088 0
M  V30 2628 C 234.472 2.16816 -0.743213 0
M  V30 2629 C 235.485 1.6119 0.228412 0
M  V30 2630 O 236.674 1.78497 0.0102931 0
M  V30 2631 C 233.774 3.38809 -0.0787313 0
M  V30 2632 C 232.947 4.23885 -1.0789 0
M  V30 2633 C 232.006 5.24334 -0.442713 0
M  V30 2634 O 231.032 5.58497 -1.09864 0
M  V30 2635 N 232.234 5.75079 0.791457 0
M  V30 2636 H 234.999 2.49825 -1.65552 0
M  V30 2637 H 232.56 1.26373 -1.012 0
M  V30 2638 H 234.552 4.03107 0.358766 0
M  V30 2639 H 233.122 3.03805 0.736275 0
M  V30 2640 H 232.342 3.55939 -1.69414 0
M  V30 2641 H 233.63 4.77562 -1.75533 0
M  V30 2642 H 233.028 5.49517 1.3434 0
M  V30 2643 H 231.585 6.4118 1.17183 0
M  V30 2644 N 235.018 0.912232 1.28515 0
M  V30 2645 C 235.981 0.404223 2.25607 0
M  V30 2646 C 236.981 -0.468602 1.53821 0
M  V30 2647 O 238.171 -0.271873 1.72065 0
M  V30 2648 C 235.303 -0.420653 3.38295 0
M  V30 2649 H 236.496 1.26188 2.7206 0
M  V30 2650 H 234.049 0.691495 1.40171 0
M  V30 2651 H 234.784 -1.29777 2.97201 0
M  V30 2652 H 234.569 0.204935 3.91564 0
M  V30 2653 H 236.059 -0.766971 4.10496 0
M  V30 2654 N 236.496 -1.42363 0.676048 0
M  V30 2655 C 237.428 -2.29164 -0.0404605 0
M  V30 2656 C 238.441 -1.43747 -0.764245 0
M  V30 2657 O 239.63 -1.67453 -0.618195 0
M  V30 2658 C 236.73 -3.21196 -1.08103 0
M  V30 2659 C 235.903 -4.35273 -0.430812 0
M  V30 2660 C 234.962 -5.08017 -1.37133 0
M  V30 2661 O 233.988 -5.62494 -0.87116 0
M  V30 2662 N 235.19 -5.13647 -2.70456 0
M  V30 2663 H 237.955 -2.91298 0.704667 0
M  V30 2664 H 235.516 -1.53303 0.520559 0
M  V30 2665 H 237.508 -3.66728 -1.71152 0
M  V30 2666 H 236.078 -2.60505 -1.72788 0
M  V30 2667 H 235.298 -3.92372 0.379209 0
M  V30 2668 H 236.586 -5.08795 0.0221132 0
M  V30 2669 H 235.984 -4.708 -3.1363 0
M  V30 2670 H 234.541 -5.62821 -3.28749 0
M  V30 2671 N 237.974 -0.419461 -1.51915 0
M  V30 2672 C 239.22 0.153166 -2.02221 0
M  V30 2673 C 239.553 1.43907 -1.30401 0
M  V30 2674 O 238.828 1.90055 -0.413438 0
M  V30 2675 C 239.111 0.390291 -3.57979 0
M  V30 2676 C 238.964 -0.913014 -4.40436 0
M  V30 2677 C 240.283 1.16794 -4.2432 0
M  V30 2678 H 237.402 0.0541924 -0.735005 0
M  V30 2679 H 240.044 -0.554955 -1.81715 0
M  V30 2680 H 238.194 0.993491 -3.75582 0
M  V30 2681 H 239.866 -1.54882 -4.34522 0
M  V30 2682 H 238.109 -1.52168 -4.06236 0
M  V30 2683 H 238.78 -0.701361 -5.47526 0
M  V30 2684 H 241.256 0.657161 -4.10878 0
M  V30 2685 H 240.132 1.3026 -5.3322 0
M  V30 2686 H 240.393 2.19132 -3.83971 0
M  V30 2687 N 239.452 1.56882 -0.150215 0
M  V30 2688 C 240.863 1.82995 0.370076 0
M  V30 2689 C 241.214 1.06907 1.64515 0
M  V30 2690 O 240.339 0.315369 2.1409 0
M  V30 2691 C 240.934 3.31942 0.678208 0
M  V30 2692 C 239.493 3.58625 1.14301 0
M  V30 2693 C 238.64 2.76792 0.167778 0
M  V30 2694 H 241.591 1.54209 -0.374858 0
M  V30 2695 H 241.612 3.48272 1.53254 0
M  V30 2696 H 241.124 3.87294 -0.249991 0
M  V30 2697 H 239.225 3.08664 2.08704 0
M  V30 2698 H 239.338 4.67073 1.06676 0
M  V30 2699 H 237.702 2.45972 0.661037 0
M  V30 2700 H 238.485 3.34916 -0.754069 0
M  V30 2701 N 240.93 -0.123565 1.57115 0
M  V30 2702 C 242.155 -0.850398 1.89164 0
M  V30 2703 C 242.58 -1.7286 0.741688 0
M  V30 2704 O 241.938 -1.78665 -0.307958 0
M  V30 2705 C 241.986 -1.66353 3.19936 0
M  V30 2706 O 241.09 -2.77004 3.0552 0
M  V30 2707 H 240.431 -0.235454 0.620852 0
M  V30 2708 H 242.961 -0.107335 2.04318 0
M  V30 2709 H 242.971 -2.05372 3.52543 0
M  V30 2710 H 241.646 -1.01881 4.03228 0
M  V30 2711 H 240.223 -2.41221 2.84371 0
M  V30 2712 N 242.408 -1.52605 -0.393616 0
M  V30 2713 C 243.654 -1.67672 -1.14079 0
M  V30 2714 C 243.987 -0.413121 -1.89755 0
M  V30 2715 O 243.262 0.588952 -1.85369 0
M  V30 2716 C 243.545 -2.9088 -2.12276 0
M  V30 2717 C 243.398 -4.27329 -1.40394 0
M  V30 2718 C 244.717 -3.09628 -3.12759 0
M  V30 2719 H 241.836 -0.610168 -0.413356 0
M  V30 2720 H 244.478 -1.85193 -0.424696 0
M  V30 2721 H 242.628 -2.76073 -2.73342 0
M  V30 2722 H 244.3 -4.53894 -0.82327 0
M  V30 2723 H 242.543 -4.2802 -0.705801 0
M  V30 2724 H 243.214 -5.09615 -2.12123 0
M  V30 2725 H 245.69 -3.23436 -2.61779 0
M  V30 2726 H 244.566 -3.97322 -3.78717 0
M  V30 2727 H 244.827 -2.23637 -3.81365 0
M  V30 2728 N 243.887 0.651787 -1.4349 0
M  V30 2729 C 245.164 1.40909 -1.35661 0
M  V30 2730 C 245.544 2.11099 -0.00511733 0
M  V30 2731 O 244.892 2.04892 1.0115 0
M  V30 2732 C 245.102 2.3926 -2.54078 0
M  V30 2733 C 246.45 3.03217 -2.97228 0
M  V30 2734 O 247.474 2.49588 -2.54135 0
M  V30 2735 O 246.333 4.00455 -3.71885 0
M  V30 2736 H 243.427 0.629625 -0.536191 0
M  V30 2737 H 245.973 0.678575 -1.55542 0
M  V30 2738 H 244.745 1.86352 -3.44076 0
M  V30 2739 H 244.368 3.1976 -2.36303 0
M  V30 2740 N 245.365 1.30045 0.890287 0
M  V30 2741 C 246.605 1.19839 1.65584 0
M  V30 2742 C 246.969 -0.244175 1.90441 0
M  V30 2743 O 248.17 -0.469378 2.6467 0
M  V30 2744 C 246.441 1.99876 2.96284 0
M  V30 2745 S 248 2.06309 3.87275 0
M  V30 2746 H 244.818 0.427157 0.568382 0
M  V30 2747 H 247.42 1.64453 1.05715 0
M  V30 2748 H 246.124 3.03809 2.75913 0
M  V30 2749 H 245.655 1.55903 3.61189 0
M  V30 2750 H 247.67 1.18661 4.81803 0
M  V30 2751 N 246.843 -1.10192 1.12674 0
M  V30 2752 C 247.775 -2.16418 0.754701 0
M  V30 2753 C 248.788 -1.61309 -0.21986 0
M  V30 2754 O 249.977 -1.785 -0.000826841 0
M  V30 2755 C 247.077 -3.38762 0.096698 0
M  V30 2756 C 246.25 -4.23307 1.10136 0
M  V30 2757 C 245.309 -5.24092 0.470513 0
M  V30 2758 O 244.335 -5.57906 1.12824 0
M  V30 2759 N 245.537 -5.75491 -0.760948 0
M  V30 2760 H 248.302 -2.48943 1.66875 0
M  V30 2761 H 245.863 -1.25834 1.01869 0
M  V30 2762 H 247.855 -4.03291 -0.337384 0
M  V30 2763 H 246.425 -3.04192 -0.720153 0
M  V30 2764 H 245.645 -3.55036 1.71299 0
M  V30 2765 H 246.933 -4.76624 1.78064 0
M  V30 2766 H 246.331 -5.50222 -1.31424 0
M  V30 2767 H 244.888 -6.41792 -1.13781 0
M  V30 2768 N 248.321 -0.919034 -1.28029 0
M  V30 2769 C 249.546 -0.570357 -1.99403 0
M  V30 2770 C 249.971 0.842486 -1.68178 0
M  V30 2771 O 249.329 1.56391 -0.917141 0
M  V30 2772 C 249.377 -0.792541 -3.51783 0
M  V30 2773 O 248.481 0.145988 -4.12142 0
M  V30 2774 H 247.822 -0.220555 -0.6263 0
M  V30 2775 H 250.352 -1.23592 -1.63053 0
M  V30 2776 H 250.362 -0.704708 -4.01868 0
M  V30 2777 H 249.037 -1.82247 -3.73844 0
M  V30 2778 H 247.614 0.00897528 -3.72899 0
M  V30 2779 N 249.799 1.42003 -0.683588 0
M  V30 2780 C 251.046 2.01413 -0.209514 0
M  V30 2781 C 251.374 1.54088 1.1869 0
M  V30 2782 O 250.629 0.737591 1.81268 0
M  V30 2783 C 250.928 3.56827 -0.202357 0
M  V30 2784 C 250.594 4.23617 -1.54464 0
M  V30 2785 C 249.256 4.41577 -1.91215 0
M  V30 2786 C 251.608 4.61178 -2.42826 0
M  V30 2787 C 248.936 4.9437 -3.15935 0
M  V30 2788 C 251.288 5.15355 -3.66867 0
M  V30 2789 C 249.952 5.31528 -4.03776 0
M  V30 2790 H 249.222 0.737023 -0.0766668 0
M  V30 2791 H 251.869 1.70067 -0.880312 0
M  V30 2792 H 250.174 3.87892 0.551969 0
M  V30 2793 H 251.871 4.00588 0.181793 0
M  V30 2794 H 248.461 4.10004 -1.24877 0
M  V30 2795 H 252.645 4.46968 -2.15717 0
M  V30 2796 H 247.901 5.05076 -3.44541 0
M  V30 2797 H 252.075 5.43402 -4.35531 0
M  V30 2798 H 249.702 5.72199 -5.00492 0
M  V30 2799 N 251.277 0.427512 1.51691 0
M  V30 2800 C 252.207 -0.3796 2.30394 0
M  V30 2801 C 253.188 -1.02982 1.35384 0
M  V30 2802 O 254.373 -1.03534 1.643 0
M  V30 2803 C 251.503 -1.48649 3.1388 0
M  V30 2804 C 250.457 -0.960294 4.17088 0
M  V30 2805 C 249.783 -2.16219 4.89033 0
M  V30 2806 C 251.083 -0.00153679 5.223 0
M  V30 2807 H 252.777 0.277164 2.98114 0
M  V30 2808 H 250.323 0.134739 1.43368 0
M  V30 2809 H 252.276 -2.05826 3.67714 0
M  V30 2810 H 251 -2.1714 2.43962 0
M  V30 2811 H 249.659 -0.410806 3.64291 0
M  V30 2812 H 249.307 -2.83307 4.15628 0
M  V30 2813 H 249.007 -1.81654 5.58816 0
M  V30 2814 H 250.531 -2.73968 5.45687 0
M  V30 2815 H 251.945 -0.482687 5.71264 0
M  V30 2816 H 250.342 0.256199 5.99553 0
M  V30 2817 H 251.412 0.938174 4.75738 0
M  V30 2818 N 252.755 -1.56801 0.158532 0
M  V30 2819 C 253.665 -2.20916 -0.789518 0
M  V30 2820 C 254.681 -1.1969 -1.26294 0
M  V30 2821 O 255.857 -1.52308 -1.31773 0
M  V30 2822 C 252.922 -2.82727 -2.00665 0
M  V30 2823 C 251.983 -3.99114 -1.58134 0
M  V30 2824 C 251.216 -4.57968 -2.74045 0
M  V30 2825 O 251.439 -4.15704 -3.90572 0
M  V30 2826 O 250.373 -5.48047 -2.48855 0
M  V30 2827 H 254.199 -3.02464 -0.273681 0
M  V30 2828 H 251.784 -1.4924 -0.0690548 0
M  V30 2829 H 253.666 -3.21968 -2.71872 0
M  V30 2830 H 252.341 -2.04184 -2.51179 0
M  V30 2831 H 251.248 -3.64567 -0.839155 0
M  V30 2832 H 252.581 -4.79212 -1.12325 0
M  V30 2833 N 254.233 0.115231 -1.57178 0
M  V30 2834 C 255.461 0.836437 -1.89239 0
M  V30 2835 C 255.876 1.73256 -0.750175 0
M  V30 2836 O 255.233 1.80357 0.278832 0
M  V30 2837 C 255.284 1.66671 -3.20785 0
M  V30 2838 O 255.005 0.806652 -4.3061 0
M  V30 2839 C 256.506 2.49274 -3.66575 0
M  V30 2840 H 253.726 0.240253 -0.626514 0
M  V30 2841 H 256.27 0.0984932 -2.04263 0
M  V30 2842 H 254.425 2.35737 -3.0742 0
M  V30 2843 H 254.839 1.37969 -5.06028 0
M  V30 2844 H 256.313 3.03055 -4.6137 0
M  V30 2845 H 256.79 3.26807 -2.93417 0
M  V30 2846 H 257.396 1.85443 -3.82741 0
M  V30 2847 N 255.711 1.52812 0.385517 0
M  V30 2848 C 256.659 1.78482 1.49155 0
M  V30 2849 C 257.653 0.652914 1.56312 0
M  V30 2850 O 258.859 0.835464 1.59436 0
M  V30 2851 H 255.234 0.5648 0.496493 0
M  V30 2852 H 257.205 2.71095 1.24699 0
M  V30 2853 C 255.954 1.97378 2.86247 0
M  V30 2854 H 255.277 2.83907 2.81491 0
M  V30 2855 H 256.717 2.19327 3.62866 0
M  V30 2856 C 255.176 0.74728 3.28508 0
M  V30 2857 O 255.706 -0.0736232 4.01633 0
M  V30 2858 N 253.912 0.576396 2.84826 0
M  V30 2859 H 253.459 1.24555 2.25486 0
M  V30 2860 H 253.417 -0.24288 3.1346 0
M  V30 2861 N 257.189 -0.644168 1.43834 0
M  V30 2862 C 258.099 -1.78563 1.52159 0
M  V30 2863 C 259.115 -1.69147 0.408069 0
M  V30 2864 O 260.291 -1.90156 0.663524 0
M  V30 2865 C 257.356 -3.14888 1.45073 0
M  V30 2866 C 256.417 -3.36034 2.6717 0
M  V30 2867 C 255.65 -4.65855 2.60413 0
M  V30 2868 O 255.873 -5.45805 1.65689 0
M  V30 2869 O 254.807 -4.88918 3.5106 0
M  V30 2870 H 258.633 -1.74494 2.48567 0
M  V30 2871 H 256.218 -0.80378 1.25935 0
M  V30 2872 H 258.1 -3.96179 1.43597 0
M  V30 2873 H 256.775 -3.19528 0.518037 0
M  V30 2874 H 255.682 -2.54472 2.74217 0
M  V30 2875 H 257.015 -3.36247 3.59442 0
M  V30 2876 N 258.668 -1.30515 -0.883378 0
M  V30 2877 C 259.916 -1.19194 -1.63209 0
M  V30 2878 C 260.237 0.253205 -1.93349 0
M  V30 2879 O 259.507 1.17025 -1.57105 0
M  V30 2880 H 258.087 -0.438148 -0.605009 0
M  V30 2881 H 260.749 -1.63663 -1.05832 0
M  V30 2882 H 259.845 -1.75396 -2.58153 0
M  V30 2883 N 260.146 1.09593 -1.13257 0
M  V30 2884 C 261.076 2.18214 -0.830946 0
M  V30 2885 C 262.057 1.68812 0.208966 0
M  V30 2886 O 263.242 1.9408 0.0682666 0
M  V30 2887 C 260.372 3.46051 -0.294296 0
M  V30 2888 C 259.326 4.08778 -1.26826 0
M  V30 2889 C 258.652 5.31419 -0.591449 0
M  V30 2890 C 259.952 4.51476 -2.62615 0
M  V30 2891 H 261.646 2.43703 -1.73923 0
M  V30 2892 H 259.192 1.17128 -0.837675 0
M  V30 2893 H 261.145 4.2134 -0.0709606 0
M  V30 2894 H 259.869 3.20079 0.649366 0
M  V30 2895 H 258.528 3.35505 -1.47756 0
M  V30 2896 H 258.176 5.01727 0.357633 0
M  V30 2897 H 257.876 5.74341 -1.24123 0
M  V30 2898 H 259.4 6.09433 -0.377355 0
M  V30 2899 H 260.814 5.17999 -2.45663 0
M  V30 2900 H 259.211 5.05277 -3.23752 0
M  V30 2901 H 260.281 3.63962 -3.20406 0
M  V30 2902 N 261.624 0.925811 1.2754 0
M  V30 2903 C 262.571 0.422045 2.26908 0
M  V30 2904 C 263.541 -0.510029 1.58076 0
M  V30 2905 O 264.726 -0.429599 1.85901 0
M  V30 2906 C 261.866 -0.320837 3.43605 0
M  V30 2907 C 260.979 0.64513 4.27156 0
M  V30 2908 C 260.114 -0.117405 5.3107 0
M  V30 2909 C 259.153 0.841391 6.0629 0
M  V30 2910 N 258.29 0.111604 7.02011 0
M  V30 2911 H 263.13 1.27441 2.69375 0
M  V30 2912 H 260.667 0.639697 1.32462 0
M  V30 2913 H 262.625 -0.76785 4.10073 0
M  V30 2914 H 261.255 -1.13745 3.02096 0
M  V30 2915 H 260.307 1.21067 3.6062 0
M  V30 2916 H 261.619 1.37797 4.79389 0
M  V30 2917 H 260.773 -0.624422 6.03478 0
M  V30 2918 H 259.512 -0.883219 4.79636 0
M  V30 2919 H 258.517 1.35967 5.32722 0
M  V30 2920 H 259.742 1.60696 6.59813 0
M  V30 2921 H 257.688 -0.635999 6.5291 0
M  V30 2922 H 257.605 0.784044 7.51923 0
M  V30 2923 H 258.873 -0.374823 7.78598 0
M  V30 2924 N 263.102 -1.41638 0.69111 0
M  V30 2925 C 264.049 -2.30789 0.0229705 0
M  V30 2926 C 265.019 -1.46863 -0.775911 0
M  V30 2927 O 266.204 -1.75661 -0.74485 0
M  V30 2928 C 263.344 -3.32868 -0.910666 0
M  V30 2929 C 262.457 -4.31875 -0.103874 0
M  V30 2930 C 261.592 -5.21024 -1.03475 0
M  V30 2931 C 260.631 -6.11702 -0.220598 0
M  V30 2932 N 259.768 -6.93349 -1.10504 0
M  V30 2933 H 264.608 -2.87366 0.788978 0
M  V30 2934 H 262.145 -1.41535 0.400794 0
M  V30 2935 H 264.103 -3.90596 -1.46597 0
M  V30 2936 H 262.733 -2.77851 -1.64312 0
M  V30 2937 H 261.785 -3.76131 0.568285 0
M  V30 2938 H 263.097 -4.96003 0.527504 0
M  V30 2939 H 262.251 -5.83565 -1.65943 0
M  V30 2940 H 260.99 -4.57112 -1.69999 0
M  V30 2941 H 259.995 -5.48215 0.417187 0
M  V30 2942 H 261.22 -6.77668 0.440784 0
M  V30 2943 H 259.166 -6.3205 -1.75638 0
M  V30 2944 H 259.083 -7.54146 -0.529125 0
M  V30 2945 H 260.351 -7.60362 -1.71667 0
M  V30 2946 N 264.58 -0.43555 -1.51462 0
M  V30 2947 C 265.827 0.131514 -2.02072 0
M  V30 2948 C 266.155 1.42868 -1.31981 0
M  V30 2949 O 265.41 1.91076 -0.422883 0
M  V30 2950 C 265.709 0.39942 -3.55161 0
M  V30 2951 C 265.375 -0.81172 -4.43533 0
M  V30 2952 C 264.037 -1.14387 -4.67407 0
M  V30 2953 C 266.389 -1.61976 -4.95392 0
M  V30 2954 C 263.717 -2.28477 -5.40384 0
M  V30 2955 C 266.069 -2.75164 -5.6962 0
M  V30 2956 C 264.733 -3.08835 -5.91758 0
M  V30 2957 H 264.003 0.0481244 -0.739436 0
M  V30 2958 H 266.65 -0.58238 -1.8243 0
M  V30 2959 H 264.955 1.19519 -3.73125 0
M  V30 2960 H 266.652 0.85157 -3.91854 0
M  V30 2961 H 263.242 -0.542898 -4.25148 0
M  V30 2962 H 267.426 -1.37637 -4.76833 0
M  V30 2963 H 262.682 -2.5488 -5.55739 0
M  V30 2964 H 266.856 -3.38147 -6.08793 0
M  V30 2965 H 264.483 -3.97353 -6.48086 0
M  V30 2966 N 266.058 1.56714 -0.166846 0
M  V30 2967 C 266.988 2.20754 0.760913 0
M  V30 2968 C 267.969 1.16178 1.24244 0
M  V30 2969 O 269.154 1.44592 1.29641 0
M  V30 2970 C 266.284 2.84478 1.99223 0
M  V30 2971 C 265.238 3.95053 1.64672 0
M  V30 2972 C 264.564 4.45805 2.95232 0
M  V30 2973 C 265.864 5.14865 0.878155 0
M  V30 2974 H 267.558 2.98537 0.22713 0
M  V30 2975 H 265.104 1.43596 0.107805 0
M  V30 2976 H 267.057 3.27951 2.64624 0
M  V30 2977 H 265.781 2.04056 2.55007 0
M  V30 2978 H 264.44 3.52228 1.01641 0
M  V30 2979 H 264.088 3.62181 3.49047 0
M  V30 2980 H 263.788 5.204 2.7287 0
M  V30 2981 H 265.312 4.91962 3.6167 0
M  V30 2982 H 266.726 5.55059 1.43466 0
M  V30 2983 H 265.123 5.95348 0.753738 0
M  V30 2984 H 266.193 4.84735 -0.126377 0
M  V30 2985 N 267.536 -0.106894 1.57237 0
M  V30 2986 C 268.468 -1.15646 1.97885 0
M  V30 2987 C 269.481 -1.36981 0.879779 0
M  V30 2988 O 270.67 -1.35841 1.15799 0
M  V30 2989 C 267.77 -2.51425 2.27241 0
M  V30 2990 C 266.943 -2.50529 3.58545 0
M  V30 2991 C 266.002 -3.68145 3.75973 0
M  V30 2992 O 265.028 -3.51176 4.47956 0
M  V30 2993 N 266.23 -4.87177 3.15656 0
M  V30 2994 H 268.995 -0.81059 2.8853 0
M  V30 2995 H 266.556 -0.296024 1.59171 0
M  V30 2996 H 268.548 -3.28689 2.36105 0
M  V30 2997 H 267.118 -2.78147 1.42663 0
M  V30 2998 H 266.338 -1.58894 3.60758 0
M  V30 2999 H 267.626 -2.46997 4.44826 0
M  V30 3000 H 267.024 -5.03868 2.57165 0
M  V30 3001 H 265.581 -5.62075 3.30023 0
M  V30 3002 N 269.014 -1.53014 -0.377408 0
M  V30 3003 C 269.962 -1.7927 -1.48206 0
M  V30 3004 C 270.956 -0.661195 -1.55963 0
M  V30 3005 O 272.162 -0.843908 -1.58991 0
M  V30 3006 H 268.537 -0.567425 -0.493491 0
M  V30 3007 H 270.508 -2.71753 -1.2326 0
M  V30 3008 C 269.257 -1.98894 -2.85196 0
M  V30 3009 H 268.58 -2.85395 -2.79981 0
M  V30 3010 H 270.02 -2.21249 -3.61698 0
M  V30 3011 C 268.479 -0.764691 -3.28107 0
M  V30 3012 O 269.009 0.0523226 -4.01666 0
M  V30 3013 N 267.215 -0.591493 -2.84517 0
M  V30 3014 H 266.762 -1.25749 -2.24822 0
M  V30 3015 H 266.72 0.226253 -3.13585 0
M  V30 3016 N 270.492 0.636531 -1.44174 0
M  V30 3017 C 271.739 1.39619 -1.46672 0
M  V30 3018 C 272.067 1.94257 -0.0972691 0
M  V30 3019 O 271.322 1.73768 0.900175 0
M  V30 3020 C 271.621 2.58309 -2.47005 0
M  V30 3021 C 271.287 2.21992 -3.92467 0
M  V30 3022 C 269.949 2.118 -4.32081 0
M  V30 3023 C 272.301 1.9321 -4.84065 0
M  V30 3024 C 269.629 1.71007 -5.61225 0
M  V30 3025 C 271.981 1.53911 -6.13591 0
M  V30 3026 C 270.645 1.42257 -6.52165 0
M  V30 3027 H 269.915 0.510902 -0.536712 0
M  V30 3028 H 272.562 0.722328 -1.77355 0
M  V30 3029 H 270.867 3.30903 -2.09786 0
M  V30 3030 H 272.564 3.16533 -2.46186 0
M  V30 3031 H 269.154 2.30841 -3.61124 0
M  V30 3032 H 273.338 1.99997 -4.54219 0
M  V30 3033 H 268.594 1.60583 -5.89935 0
M  V30 3034 H 272.768 1.30677 -6.8403 0
M  V30 3035 H 270.395 1.10419 -7.52138 0
M  V30 3036 N 271.97 1.30982 0.876444 0
M  V30 3037 C 272.9 1.20668 1.99903 0
M  V30 3038 C 273.881 0.095354 1.69833 0
M  V30 3039 O 275.066 0.27885 1.92188 0
M  V30 3040 C 272.196 0.90655 3.3526 0
M  V30 3041 C 271.15 1.97675 3.79617 0
M  V30 3042 C 270.476 1.52943 5.1236 0
M  V30 3043 C 271.776 3.389 3.97422 0
M  V30 3044 H 273.47 2.14586 2.0879 0
M  V30 3045 H 271.016 1.03308 1.00317 0
M  V30 3046 H 272.969 0.821025 4.13324 0
M  V30 3047 H 271.693 -0.0682969 3.26529 0
M  V30 3048 H 270.352 2.05205 3.03787 0
M  V30 3049 H 270 0.54262 5.00065 0
M  V30 3050 H 269.7 2.24532 5.43009 0
M  V30 3051 H 271.224 1.45786 5.92941 0
M  V30 3052 H 272.638 3.34081 4.659 0
M  V30 3053 H 271.035 4.0865 4.3946 0
M  V30 3054 H 272.105 3.80163 3.01006 0
M  V30 3055 N 273.449 -1.08991 1.13837 0
M  V30 3056 C 274.379 -2.17771 0.842507 0
M  V30 3057 C 275.36 -1.6892 -0.20001 0
M  V30 3058 O 276.545 -1.94113 -0.0579731 0
M  V30 3059 C 273.675 -3.4589 0.312644 0
M  V30 3060 C 272.629 -4.08099 1.28992 0
M  V30 3061 C 271.955 -5.31098 0.619623 0
M  V30 3062 C 273.255 -4.50077 2.65005 0
M  V30 3063 H 274.949 -2.42777 1.75213 0
M  V30 3064 H 272.495 -1.16682 0.843875 0
M  V30 3065 H 274.448 -4.21297 0.0933043 0
M  V30 3066 H 273.172 -3.20419 -0.632382 0
M  V30 3067 H 271.831 -3.34717 1.49533 0
M  V30 3068 H 271.479 -5.0191 -0.33102 0
M  V30 3069 H 271.179 -5.73674 1.27167 0
M  V30 3070 H 272.703 -6.09224 0.409669 0
M  V30 3071 H 274.117 -5.16688 2.48407 0
M  V30 3072 H 272.514 -5.03553 3.26427 0
M  V30 3073 H 273.584 -3.62257 3.22332 0
M  V30 3074 N 274.927 -0.932562 -1.27047 0
M  V30 3075 C 276.157 -0.591173 -1.97961 0
M  V30 3076 C 276.565 0.836219 -1.69717 0
M  V30 3077 O 275.908 1.56801 -0.957036 0
M  V30 3078 C 275.97 -0.743082 -3.51736 0
M  V30 3079 C 275.634 -2.1435 -4.03613 0
M  V30 3080 C 276.631 -3.11815 -4.16014 0
M  V30 3081 C 274.316 -2.46175 -4.37839 0
M  V30 3082 C 276.31 -4.39211 -4.61923 0
M  V30 3083 C 273.997 -3.73806 -4.83438 0
M  V30 3084 C 274.995 -4.70137 -4.95439 0
M  V30 3085 O 274.683 -5.95496 -5.40037 0
M  V30 3086 H 274.415 -0.222375 -0.638377 0
M  V30 3087 H 276.969 -1.25317 -1.62742 0
M  V30 3088 H 275.199 -0.0239739 -3.86693 0
M  V30 3089 H 276.888 -0.40603 -4.03864 0
M  V30 3090 H 277.654 -2.88549 -3.89826 0
M  V30 3091 H 273.533 -1.71936 -4.27737 0
M  V30 3092 H 277.077 -5.14404 -4.71205 0
M  V30 3093 H 272.974 -3.96888 -5.09068 0
M  V30 3094 H 273.742 -5.98554 -5.58279 0
M  V30 3095 N 276.405 1.4127 -0.698611 0
M  V30 3096 C 277.653 2.00782 -0.230409 0
M  V30 3097 C 277.974 1.5562 1.17505 0
M  V30 3098 O 277.244 0.78815 1.79346 0
M  V30 3099 H 275.824 0.742464 -0.0821944 0
M  V30 3100 H 278.486 1.72852 -0.90045 0
M  V30 3101 H 277.582 3.11095 -0.25021 0
M  V30 3102 N 277.883 0.443576 1.51229 0
M  V30 3103 C 279.132 -0.122332 2.01329 0
M  V30 3104 C 279.445 -1.43237 1.33201 0
M  V30 3105 O 280.651 -2.0816 1.74304 0
M  V30 3106 C 279.107 -0.268551 3.58897 0
M  V30 3107 C 278.715 1.03142 4.35965 0
M  V30 3108 C 280.459 -0.787894 4.17124 0
M  V30 3109 C 278.366 0.850504 5.85252 0
M  V30 3110 H 277.296 -0.0494929 0.752374 0
M  V30 3111 H 279.947 0.574289 1.74282 0
M  V30 3112 H 278.329 -1.02832 3.82415 0
M  V30 3113 H 279.503 1.80001 4.24189 0
M  V30 3114 H 277.818 1.47977 3.89219 0
M  V30 3115 H 280.415 -0.939841 5.26375 0
M  V30 3116 H 280.758 -1.77201 3.76703 0
M  V30 3117 H 281.291 -0.0862669 3.97706 0
M  V30 3118 H 278.03 1.80718 6.30096 0
M  V30 3119 H 277.55 0.121825 5.99676 0
M  V30 3120 H 279.229 0.506163 6.45017 0
M  V30 3121 N 279.361 -1.56624 0.175154 0
M  V30 3122 C 280.324 -2.16934 -0.739738 0
M  V30 3123 C 281.324 -1.11842 -1.15533 0
M  V30 3124 O 282.514 -1.37335 -1.07167 0
M  V30 3125 C 279.646 -2.75531 -2.00738 0
M  V30 3126 H 280.839 -2.99131 -0.214639 0
M  V30 3127 H 278.392 -1.56123 -0.0744197 0
M  V30 3128 H 279.127 -1.97078 -2.57548 0
M  V30 3129 H 278.912 -3.52444 -1.71831 0
M  V30 3130 H 280.402 -3.21904 -2.66021 0
M  V30 3131 N 280.839 0.0985539 -1.57292 0
M  V30 3132 C 282.086 0.802678 -1.85912 0
M  V30 3133 C 282.414 1.78901 -0.763186 0
M  V30 3134 O 281.669 1.94178 0.243559 0
M  V30 3135 C 281.968 1.56927 -3.21105 0
M  V30 3136 C 281.634 0.725376 -4.45027 0
M  V30 3137 C 280.296 0.492726 -4.78671 0
M  V30 3138 C 282.648 0.138493 -5.21016 0
M  V30 3139 C 279.976 -0.336727 -5.85733 0
M  V30 3140 C 282.328 -0.678264 -6.28953 0
M  V30 3141 C 280.992 -0.921039 -6.61115 0
M  V30 3142 H 280.262 0.293721 -0.680301 0
M  V30 3143 H 282.909 0.0642841 -1.91392 0
M  V30 3144 H 281.214 2.37914 -3.11294 0
M  V30 3145 H 282.911 2.11841 -3.40477 0
M  V30 3146 H 279.501 0.916815 -4.18679 0
M  V30 3147 H 283.685 0.305404 -4.95359 0
M  V30 3148 H 278.941 -0.533836 -6.09065 0
M  V30 3149 H 283.115 -1.1399 -6.87007 0
M  V30 3150 H 280.742 -1.56556 -7.43905 0
M  V30 3151 N 282.317 1.53212 0.369288 0
M  V30 3152 C 283.563 1.69466 1.11397 0
M  V30 3153 C 283.896 0.443257 1.89074 0
M  V30 3154 O 283.171 -0.559386 1.86282 0
M  V30 3155 C 283.454 2.9422 2.07621 0
M  V30 3156 C 283.307 4.29508 1.33577 0
M  V30 3157 C 284.626 3.14565 3.07794 0
M  V30 3158 H 281.745 0.616667 0.403597 0
M  V30 3159 H 284.387 1.85845 0.395179 0
M  V30 3160 H 282.537 2.80387 2.68916 0
M  V30 3161 H 284.209 4.55147 0.750955 0
M  V30 3162 H 282.452 4.29088 0.637618 0
M  V30 3163 H 283.123 5.12926 2.03989 0
M  V30 3164 H 285.599 3.2756 2.56601 0
M  V30 3165 H 284.475 4.03297 3.72348 0
M  V30 3166 H 284.736 2.29675 3.77759 0
M  V30 3167 N 283.795 -0.628877 1.44509 0
M  V30 3168 C 284.705 -1.7694 1.54044 0
M  V30 3169 C 285.721 -1.68705 0.425987 0
M  V30 3170 O 286.897 -1.89442 0.683656 0
M  V30 3171 C 283.962 -3.13332 1.48405 0
M  V30 3172 C 283.023 -3.33181 2.70719 0
M  V30 3173 C 282.256 -4.63067 2.6534 0
M  V30 3174 O 282.479 -5.44017 1.71469 0
M  V30 3175 O 281.413 -4.85167 3.56226 0
M  V30 3176 H 285.239 -1.71848 2.50403 0
M  V30 3177 H 282.824 -0.790378 1.26781 0
M  V30 3178 H 284.706 -3.94634 1.47791 0
M  V30 3179 H 283.381 -3.1896 0.551898 0
M  V30 3180 H 282.288 -2.51549 2.769 0
M  V30 3181 H 283.621 -3.32416 3.62988 0
M  V30 3182 N 285.273 -1.31445 -0.869486 0
M  V30 3183 C 286.221 -1.19067 -1.99814 0
M  V30 3184 C 287.215 -0.0988569 -1.69111 0
M  V30 3185 O 288.421 -0.260781 -1.78101 0
M  V30 3186 H 284.796 -0.368677 -0.655425 0
M  V30 3187 H 286.767 -2.14555 -2.07385 0
M  V30 3188 C 285.516 -0.915323 -3.35436 0
M  V30 3189 H 284.839 -1.74759 -3.59582 0
M  V30 3190 H 286.279 -0.868895 -4.15001 0
M  V30 3191 C 284.738 0.381928 -3.34728 0
M  V30 3192 O 285.268 1.39857 -3.76567 0
M  V30 3193 N 283.474 0.398633 -2.87853 0
M  V30 3194 H 283.021 -0.429186 -2.54 0
M  V30 3195 H 282.979 1.26651 -2.87762 0
M  V30 3196 N 286.751 1.08385 -1.14413 0
M  V30 3197 C 287.997 1.81044 -0.913834 0
M  V30 3198 C 288.33 1.86004 0.558209 0
M  V30 3199 O 287.605 1.33606 1.4135 0
M  V30 3200 C 287.888 3.26648 -1.51569 0
M  V30 3201 C 287.741 3.29895 -3.0576 0
M  V30 3202 C 289.06 4.23629 -1.19273 0
M  V30 3203 H 286.179 0.65727 -0.333414 0
M  V30 3204 H 288.821 1.26896 -1.41412 0
M  V30 3205 H 286.971 3.72889 -1.09023 0
M  V30 3206 H 288.643 2.91977 -3.57137 0
M  V30 3207 H 286.886 2.69163 -3.40197 0
M  V30 3208 H 287.557 4.32516 -3.42977 0
M  V30 3209 H 290.033 3.85727 -1.56057 0
M  V30 3210 H 288.909 5.23822 -1.64017 0
M  V30 3211 H 289.17 4.41968 -0.108068 0
M  V30 3212 N 288.23 0.939286 1.26551 0
M  V30 3213 C 289.641 0.628782 1.75793 0
M  V30 3214 C 289.992 -0.856046 1.7654 0
M  V30 3215 O 289.117 -1.66994 1.3763 0
M  V30 3216 C 289.712 1.13465 3.19235 0
M  V30 3217 C 288.271 0.874601 3.66098 0
M  V30 3218 C 287.418 1.28667 2.45642 0
M  V30 3219 H 290.369 1.1178 1.12654 0
M  V30 3220 H 290.39 0.487609 3.77363 0
M  V30 3221 H 289.902 2.21535 3.1866 0
M  V30 3222 H 288.003 -0.191793 3.72106 0
M  V30 3223 H 288.116 1.50028 4.55004 0
M  V30 3224 H 286.48 0.705109 2.44745 0
M  V30 3225 H 287.263 2.37625 2.47769 0
M  V30 3226 N 289.708 -1.40897 0.706093 0
M  V30 3227 C 291.119 -1.84023 0.315052 0
M  V30 3228 C 291.47 -1.5906 -1.14866 0
M  V30 3229 O 290.595 -1.06651 -1.88293 0
M  V30 3230 C 291.19 -3.34055 0.565038 0
M  V30 3231 C 289.749 -3.7571 0.227806 0
M  V30 3232 C 288.896 -2.64204 0.842122 0
M  V30 3233 H 291.847 -1.303 0.905963 0
M  V30 3234 H 291.868 -3.80107 -0.172843 0
M  V30 3235 H 291.38 -3.52192 1.63042 0
M  V30 3236 H 289.481 -3.63172 -0.832895 0
M  V30 3237 H 289.594 -4.74103 0.690174 0
M  V30 3238 H 287.958 -2.53255 0.270893 0
M  V30 3239 H 288.741 -2.85155 1.91158 0
M  V30 3240 N 291.186 -0.45159 -1.50991 0
M  V30 3241 C 292.414 0.108334 -2.06616 0
M  V30 3242 C 292.829 1.35224 -1.31757 0
M  V30 3243 O 292.186 1.78475 -0.381174 0
M  V30 3244 C 292.237 0.41619 -3.59096 0
M  V30 3245 O 291.958 -0.778361 -4.3113 0
M  V30 3246 C 293.459 1.02523 -4.31282 0
M  V30 3247 H 290.679 0.00159995 -0.670998 0
M  V30 3248 H 293.223 -0.634771 -1.94399 0
M  V30 3249 H 291.378 1.10921 -3.71181 0
M  V30 3250 H 291.792 -0.511181 -5.22003 0
M  V30 3251 H 293.266 1.19053 -5.39009 0
M  V30 3252 H 293.743 2.01013 -3.905 0
M  V30 3253 H 294.349 0.371173 -4.23677 0
M  V30 3254 N 292.664 1.56529 -0.183458 0
M  V30 3255 C 293.596 2.15747 0.773697 0
M  V30 3256 C 294.609 1.1162 1.1851 0
M  V30 3257 O 295.798 1.3876 1.12285 0
M  V30 3258 C 292.898 2.6952 2.05456 0
M  V30 3259 C 292.071 3.98429 1.8048 0
M  V30 3260 C 291.13 4.37145 2.92901 0
M  V30 3261 O 290.156 5.04791 2.6301 0
M  V30 3262 N 291.358 3.99695 4.2098 0
M  V30 3263 H 294.123 2.98505 0.26736 0
M  V30 3264 H 291.684 1.619 -0.0010878 0
M  V30 3265 H 293.676 2.92412 2.79781 0
M  V30 3266 H 292.246 1.91282 2.47245 0
M  V30 3267 H 291.466 3.8379 0.899947 0
M  V30 3268 H 292.754 4.82597 1.61175 0
M  V30 3269 H 292.152 3.4526 4.48121 0
M  V30 3270 H 290.709 4.27562 4.9197 0
M  V30 3271 N 294.142 -0.090211 1.57342 0
M  V30 3272 C 295.052 -1.12735 2.05738 0
M  V30 3273 C 296.068 -1.43557 0.983231 0
M  V30 3274 O 297.244 -1.54101 1.29672 0
M  V30 3275 C 294.309 -2.42659 2.47624 0
M  V30 3276 C 293.37 -2.18975 3.69254 0
M  V30 3277 C 292.603 -3.42704 4.09133 0
M  V30 3278 O 292.826 -4.51127 3.49057 0
M  V30 3279 O 291.76 -3.32003 5.02053 0
M  V30 3280 H 295.586 -0.746279 2.94388 0
M  V30 3281 H 293.171 -0.303064 1.46294 0
M  V30 3282 H 295.053 -3.19155 2.7517 0
M  V30 3283 H 293.728 -2.80182 1.62109 0
M  V30 3284 H 292.635 -1.40244 3.46818 0
M  V30 3285 H 293.968 -1.86342 4.55563 0
M  V30 3286 N 295.62 -1.53406 -0.361157 0
M  V30 3287 C 296.57 -1.76536 -1.44287 0
M  V30 3288 C 297.554 -0.620019 -1.48474 0
M  V30 3289 O 298.746 -0.878834 -1.53641 0
M  V30 3290 C 295.875 -1.96266 -2.81664 0
M  V30 3291 C 294.961 -3.16815 -2.81938 0
M  V30 3292 N 295.352 -4.38637 -2.51855 0
M  V30 3293 C 293.65 -3.17627 -3.13096 0
M  V30 3294 C 294.351 -5.20401 -2.59919 0
M  V30 3295 N 293.327 -4.56712 -2.94814 0
M  V30 3296 H 297.129 -2.68331 -1.19899 0
M  V30 3297 H 294.643 -1.52091 -0.56938 0
M  V30 3298 H 296.64 -2.10966 -3.59582 0
M  V30 3299 H 295.3 -1.05702 -3.07013 0
M  V30 3300 H 296.311 -4.66293 -2.25369 0
M  V30 3301 H 292.988 -2.36971 -3.43731 0
M  V30 3302 H 294.378 -6.27586 -2.39969 0
M  V30 3303 N 297.098 0.621204 -1.44841 0
M  V30 3304 C 298.326 1.40752 -1.51646 0
M  V30 3305 C 298.741 1.88246 -0.144549 0
M  V30 3306 O 298.098 1.61422 0.851416 0
M  V30 3307 C 298.149 2.62119 -2.4895 0
M  V30 3308 O 297.87 2.16602 -3.80808 0
M  V30 3309 C 299.371 3.55135 -2.65319 0
M  V30 3310 H 296.591 0.431325 -0.514004 0
M  V30 3311 H 299.135 0.758835 -1.899 0
M  V30 3312 H 297.29 3.23058 -2.13805 0
M  V30 3313 H 297.704 2.95358 -4.33433 0
M  V30 3314 H 299.178 4.36874 -3.37409 0
M  V30 3315 H 299.655 4.04592 -1.70886 0
M  V30 3316 H 300.261 3.00058 -3.01405 0
M  V30 3317 N 298.576 1.31904 0.862503 0
M  V30 3318 C 299.486 1.22161 2.00285 0
M  V30 3319 C 300.502 0.136785 1.73462 0
M  V30 3320 O 301.678 0.355994 1.98229 0
M  V30 3321 C 298.743 0.937093 3.33796 0
M  V30 3322 C 297.804 2.10957 3.73893 0
M  V30 3323 C 297.037 1.83853 5.01033 0
M  V30 3324 O 297.26 0.777274 5.65079 0
M  V30 3325 O 296.194 2.69741 5.38074 0
M  V30 3326 H 300.02 2.18008 2.11439 0
M  V30 3327 H 297.605 1.11716 0.991957 0
M  V30 3328 H 299.487 0.794583 4.13841 0
M  V30 3329 H 298.162 0.00871894 3.23699 0
M  V30 3330 H 297.069 2.30752 2.94456 0
M  V30 3331 H 298.402 3.02046 3.88625 0
M  V30 3332 N 300.054 -1.07777 1.14986 0
M  V30 3333 C 301.001 -2.14867 0.842672 0
M  V30 3334 C 301.971 -1.6486 -0.202552 0
M  V30 3335 O 303.156 -1.90668 -0.0710568 0
M  V30 3336 C 300.296 -3.43486 0.333363 0
M  V30 3337 C 299.409 -4.07306 1.43965 0
M  V30 3338 C 298.544 -5.23744 0.886914 0
M  V30 3339 C 297.583 -5.79517 1.97043 0
M  V30 3340 N 296.72 -6.87291 1.4344 0
M  V30 3341 H 301.56 -2.40485 1.75986 0
M  V30 3342 H 299.097 -1.1801 0.878179 0
M  V30 3343 H 301.055 -4.17195 0.0198163 0
M  V30 3344 H 299.685 -3.18133 -0.546916 0
M  V30 3345 H 298.737 -3.31293 1.86946 0
M  V30 3346 H 300.049 -4.44771 2.25788 0
M  V30 3347 H 299.203 -6.04419 0.525651 0
M  V30 3348 H 297.942 -4.87685 0.0377957 0
M  V30 3349 H 296.947 -4.97491 2.34057 0
M  V30 3350 H 298.172 -6.17632 2.82325 0
M  V30 3351 H 296.118 -6.5318 0.607567 0
M  V30 3352 H 296.035 -7.23617 2.18895 0
M  V30 3353 H 297.303 -7.71682 1.10124 0
M  V30 3354 N 301.532 -0.945985 -1.26051 0
M  V30 3355 C 302.462 -0.477172 -2.28572 0
M  V30 3356 C 303.443 0.472032 -1.63419 0
M  V30 3357 O 304.628 0.372853 -1.90587 0
M  V30 3358 C 301.758 0.253975 -3.4637 0
M  V30 3359 C 300.712 -0.609135 -4.23643 0
M  V30 3360 C 300.038 0.252252 -5.34105 0
M  V30 3361 C 301.338 -1.8829 -4.8718 0
M  V30 3362 H 303.032 -1.33402 -2.68038 0
M  V30 3363 H 300.578 -0.642904 -1.28852 0
M  V30 3364 H 302.531 0.593016 -4.17207 0
M  V30 3365 H 301.255 1.145 -3.05871 0
M  V30 3366 H 299.914 -0.931138 -3.54578 0
M  V30 3367 H 299.562 1.14278 -4.89846 0
M  V30 3368 H 299.262 -0.32188 -5.86718 0
M  V30 3369 H 300.786 0.586454 -6.07777 0
M  V30 3370 H 302.2 -1.61081 -5.50205 0
M  V30 3371 H 300.597 -2.40199 -5.49931 0
M  V30 3372 H 301.667 -2.59134 -4.09851 0
M  V30 3373 N 303.011 1.40521 -0.713556 0
M  V30 3374 C 303.974 2.29098 -0.0684347 0
M  V30 3375 C 304.974 1.45268 0.689472 0
M  V30 3376 O 306.164 1.66205 0.521677 0
M  V30 3377 C 303.296 3.28446 0.913024 0
M  V30 3378 H 304.489 2.87645 -0.84855 0
M  V30 3379 H 302.042 1.48809 -0.47809 0
M  V30 3380 H 302.777 2.74913 1.72027 0
M  V30 3381 H 302.562 3.90327 0.372472 0
M  V30 3382 H 304.052 3.94777 1.36165 0
M  V30 3383 N 304.489 0.459591 1.5075 0
M  V30 3384 C 305.399 -0.34613 2.32033 0
M  V30 3385 C 306.415 -1.00686 1.41909 0
M  V30 3386 O 307.591 -0.997361 1.7497 0
M  V30 3387 C 304.656 -1.42029 3.16273 0
M  V30 3388 C 303.717 -0.777362 4.22203 0
M  V30 3389 C 302.95 -1.80034 5.02418 0
M  V30 3390 O 303.173 -3.02544 4.83553 0
M  V30 3391 O 302.107 -1.37853 5.85901 0
M  V30 3392 H 305.933 0.318054 3.0203 0
M  V30 3393 H 303.518 0.221663 1.47746 0
M  V30 3394 H 305.4 -2.04275 3.68578 0
M  V30 3395 H 304.075 -2.06815 2.49016 0
M  V30 3396 H 302.982 -0.116256 3.73919 0
M  V30 3397 H 304.315 -0.172634 4.91897 0
M  V30 3398 N 305.967 -1.56429 0.191757 0
M  V30 3399 C 307.383 -1.58754 -0.164137 0
M  V30 3400 C 307.583 -1.20782 -1.61288 0
M  V30 3401 O 306.639 -0.928999 -2.34789 0
M  V30 3402 C 307.952 -3.00396 0.135195 0
M  V30 3403 C 309.5 -3.1291 0.0750351 0
M  V30 3404 C 309.975 -4.56679 0.347632 0
M  V30 3405 N 311.466 -4.62252 0.296131 0
M  V30 3406 C 312.201 -5.71379 0.480948 0
M  V30 3407 N 311.697 -6.88986 0.725933 0
M  V30 3408 N 313.49 -5.60563 0.415435 0
M  V30 3409 H 305.641 -1.79393 1.13718 0
M  V30 3410 H 307.904 -0.832414 0.453643 0
M  V30 3411 H 307.61 -3.32726 1.13958 0
M  V30 3412 H 307.484 -3.72963 -0.563773 0
M  V30 3413 H 309.871 -2.80394 -0.919948 0
M  V30 3414 H 309.952 -2.42736 0.807029 0
M  V30 3415 H 309.596 -4.89907 1.33992 0
M  V30 3416 H 309.526 -5.25039 -0.405212 0
M  V30 3417 H 312.017 -3.7773 0.113259 0
M  V30 3418 H 312.33 -7.68046 0.855857 0
M  V30 3419 H 310.675 -6.90801 0.762788 0
M  V30 3420 H 313.866 -4.67561 0.224486 0
M  V30 3421 H 314.039 -6.45551 0.562889 0
M  V30 3422 N 307.445 0.0818655 -1.57387 0
M  V30 3423 C 308.694 0.781681 -1.85937 0
M  V30 3424 C 309.007 1.79246 -0.782957 0
M  V30 3425 O 310.213 2.54112 -0.955987 0
M  V30 3426 C 308.669 1.44109 -3.29789 0
M  V30 3427 C 308.277 0.469396 -4.45534 0
M  V30 3428 C 310.021 2.12386 -3.67549 0
M  V30 3429 C 307.928 1.13415 -5.80423 0
M  V30 3430 H 306.858 0.295682 -0.693605 0
M  V30 3431 H 309.509 0.0348051 -1.83467 0
M  V30 3432 H 307.891 2.23588 -3.2684 0
M  V30 3433 H 309.065 -0.294856 -4.59856 0
M  V30 3434 H 307.38 -0.108383 -4.16259 0
M  V30 3435 H 309.977 2.62878 -4.65617 0
M  V30 3436 H 310.32 2.91877 -2.96839 0
M  V30 3437 H 310.853 1.39751 -3.72444 0
M  V30 3438 H 307.592 0.379771 -6.54399 0
M  V30 3439 H 307.112 1.8695 -5.69921 0
M  V30 3440 H 308.791 1.65686 -6.25426 0
M  V30 3441 N 308.923 1.53595 0.353017 0
M  V30 3442 C 310.148 1.7462 1.11904 0
M  V30 3443 C 310.573 0.479721 1.8188 0
M  V30 3444 O 309.931 -0.567066 1.72204 0
M  V30 3445 C 309.979 2.92029 2.11545 0
M  V30 3446 O 309.083 2.61516 3.18878 0
M  V30 3447 H 308.424 0.579531 0.324099 0
M  V30 3448 H 310.954 2.00525 0.406301 0
M  V30 3449 H 310.964 3.18551 2.5493 0
M  V30 3450 H 309.639 3.83888 1.60008 0
M  V30 3451 H 308.216 2.45852 2.80377 0
M  V30 3452 N 310.401 -0.613514 1.45168 0
M  V30 3453 C 311.331 -1.7354 1.56225 0
M  V30 3454 C 312.312 -1.64981 0.41414 0
M  V30 3455 O 313.497 -1.83472 0.636526 0
M  V30 3456 C 310.627 -3.12128 1.52295 0
M  V30 3457 C 309.581 -3.35491 2.65762 0
M  V30 3458 C 308.907 -4.74291 2.46885 0
M  V30 3459 C 310.207 -3.26325 4.0781 0
M  V30 3460 H 311.901 -1.64543 2.50132 0
M  V30 3461 H 309.447 -0.790185 1.20383 0
M  V30 3462 H 311.4 -3.90404 1.58628 0
M  V30 3463 H 310.124 -3.2195 0.549139 0
M  V30 3464 H 308.783 -2.59603 2.58847 0
M  V30 3465 H 308.431 -4.80839 1.47657 0
M  V30 3466 H 308.131 -4.9088 3.22972 0
M  V30 3467 H 309.655 -5.54775 2.55063 0
M  V30 3468 H 311.069 -3.94483 4.16 0
M  V30 3469 H 309.466 -3.54445 4.8424 0
M  V30 3470 H 310.536 -2.23855 4.30136 0
M  V30 3471 N 311.879 -1.3236 -0.855495 0
M  V30 3472 C 313.128 -1.22226 -1.60448 0
M  V30 3473 C 313.441 0.214733 -1.94418 0
M  V30 3474 O 314.647 0.437917 -2.67945 0
M  V30 3475 C 313.103 -2.14063 -2.89318 0
M  V30 3476 C 312.711 -3.62839 -2.62777 0
M  V30 3477 C 314.455 -2.12764 -3.67331 0
M  V30 3478 C 312.362 -4.4664 -3.87643 0
M  V30 3479 H 311.292 -0.453904 -0.602069 0
M  V30 3480 H 313.943 -1.57314 -0.944698 0
M  V30 3481 H 312.325 -1.71889 -3.5675 0
M  V30 3482 H 313.499 -4.1335 -2.03662 0
M  V30 3483 H 311.814 -3.66261 -1.98096 0
M  V30 3484 H 314.411 -2.72611 -4.59987 0
M  V30 3485 H 314.754 -1.11841 -4.00995 0
M  V30 3486 H 315.287 -2.53214 -3.06802 0
M  V30 3487 H 312.026 -5.48373 -3.5912 0
M  V30 3488 H 311.546 -4.0088 -4.46156 0
M  V30 3489 H 313.225 -4.59597 -4.55389 0
M  V30 3490 N 313.357 1.07166 -1.15556 0
M  V30 3491 C 314.773 1.31899 -0.898603 0
M  V30 3492 C 314.973 1.96333 0.453383 0
M  V30 3493 O 314.029 2.22438 1.19489 0
M  V30 3494 C 315.342 2.20826 -2.04099 0
M  V30 3495 C 316.89 2.34269 -2.07574 0
M  V30 3496 C 317.365 3.26546 -3.21141 0
M  V30 3497 N 318.856 3.34127 -3.20801 0
M  V30 3498 C 319.591 4.05595 -4.05315 0
M  V30 3499 N 319.087 4.79661 -4.99897 0
M  V30 3500 N 320.88 4.01555 -3.93332 0
M  V30 3501 H 313.031 0.637302 -2.02613 0
M  V30 3502 H 315.294 0.343468 -0.883591 0
M  V30 3503 H 315 1.80744 -3.01703 0
M  V30 3504 H 314.874 3.21364 -1.97496 0
M  V30 3505 H 317.261 2.73603 -1.10568 0
M  V30 3506 H 317.342 1.33429 -2.18244 0
M  V30 3507 H 316.986 2.87931 -4.184 0
M  V30 3508 H 316.916 4.27345 -3.07708 0
M  V30 3509 H 319.407 2.81336 -2.52306 0
M  V30 3510 H 319.72 5.31694 -5.60822 0
M  V30 3511 H 318.065 4.78671 -5.03884 0
M  V30 3512 H 321.256 3.42806 -3.18751 0
M  V30 3513 H 321.429 4.56987 -4.5942 0
M  V30 3514 N 314.835 0.952656 1.25548 0
M  V30 3515 C 315.745 0.47782 2.29682 0
M  V30 3516 C 316.761 -0.453859 1.67977 0
M  V30 3517 O 317.937 -0.330587 1.98668 0
M  V30 3518 C 315.002 -0.238655 3.45878 0
M  V30 3519 C 314.063 0.730994 4.23031 0
M  V30 3520 C 313.296 0.0486165 5.33678 0
M  V30 3521 O 313.519 -1.16612 5.58353 0
M  V30 3522 O 312.453 0.733152 5.97418 0
M  V30 3523 H 316.279 1.34312 2.72386 0
M  V30 3524 H 313.864 0.719026 1.30959 0
M  V30 3525 H 315.746 -0.641774 4.16484 0
M  V30 3526 H 314.421 -1.07916 3.05181 0
M  V30 3527 H 313.328 1.18428 3.5486 0
M  V30 3528 H 314.661 1.53946 4.67506 0
M  V30 3529 N 316.313 -1.40141 0.720998 0
M  V30 3530 C 317.541 -2.05096 0.272656 0
M  V30 3531 C 317.956 -1.54334 -1.0875 0
M  V30 3532 O 317.313 -0.702211 -1.6845 0
M  V30 3533 C 317.364 -3.60636 0.249835 0
M  V30 3534 O 317.085 -4.09526 1.55629 0
M  V30 3535 C 318.586 -4.42772 -0.216396 0
M  V30 3536 H 315.806 -0.659897 0.121558 0
M  V30 3537 H 318.35 -1.79449 0.980723 0
M  V30 3538 H 316.505 -3.85232 -0.409237 0
M  V30 3539 H 316.919 -5.03758 1.4604 0
M  V30 3540 H 318.393 -5.51702 -0.181212 0
M  V30 3541 H 318.87 -4.20756 -1.25941 0
M  V30 3542 H 319.476 -4.23294 0.412596 0
M  V30 3543 N 317.792 -0.46758 -1.50504 0
M  V30 3544 C 319.041 0.0902868 -2.01498 0
M  V30 3545 C 319.354 1.411 -1.35463 0
M  V30 3546 O 320.56 2.0536 -1.77594 0
M  V30 3547 C 319.016 0.21142 -3.59278 0
M  V30 3548 C 318.624 -1.10065 -4.34269 0
M  V30 3549 C 320.368 0.721433 -4.18325 0
M  V30 3550 C 318.275 -0.943505 -5.83825 0
M  V30 3551 H 317.205 0.037517 -0.753066 0
M  V30 3552 H 319.856 -0.601943 -1.73346 0
M  V30 3553 H 318.238 0.967352 -3.84003 0
M  V30 3554 H 319.412 -1.86726 -4.21272 0
M  V30 3555 H 317.727 -1.5415 -3.86816 0
M  V30 3556 H 320.324 0.85598 -5.27804 0
M  V30 3557 H 320.667 1.71186 -3.79475 0
M  V30 3558 H 321.2 0.0229843 -3.97793 0
M  V30 3559 H 317.939 -1.90719 -6.27141 0
M  V30 3560 H 317.459 -0.217213 -5.99407 0
M  V30 3561 H 319.138 -0.608715 -6.4413 0
M  V30 3562 N 319.27 1.56325 -0.20005 0
M  V30 3563 C 320.5 2.01811 0.442232 0
M  V30 3564 C 320.908 1.07932 1.55394 0
M  V30 3565 O 320.251 0.0772685 1.83537 0
M  V30 3566 C 320.313 3.43685 1.05457 0
M  V30 3567 C 319.977 4.56928 0.0809833 0
M  V30 3568 C 320.974 5.15009 -0.711471 0
M  V30 3569 C 318.659 5.0229 -0.0315364 0
M  V30 3570 C 320.653 6.16904 -1.60336 0
M  V30 3571 C 318.34 6.04028 -0.926981 0
M  V30 3572 C 319.338 6.6121 -1.71146 0
M  V30 3573 O 319.026 7.60971 -2.59189 0
M  V30 3574 H 318.758 0.666173 0.114848 0
M  V30 3575 H 321.312 2.03085 -0.307511 0
M  V30 3576 H 319.542 3.39413 1.85299 0
M  V30 3577 H 321.231 3.72948 1.60201 0
M  V30 3578 H 321.997 4.80827 -0.634873 0
M  V30 3579 H 317.876 4.57476 0.568902 0
M  V30 3580 H 321.42 6.61464 -2.21611 0
M  V30 3581 H 317.317 6.37634 -1.00468 0
M  V30 3582 H 318.085 7.7841 -2.53023 0
M  V30 3583 N 320.748 -0.0735177 1.57428 0
M  V30 3584 C 321.996 -0.771472 1.86796 0
M  V30 3585 C 322.317 -1.78201 0.791804 0
M  V30 3586 O 321.587 -1.95074 -0.179718 0
M  V30 3587 H 320.167 -0.28791 0.689287 0
M  V30 3588 H 322.829 -0.0500161 1.94836 0
M  V30 3589 H 321.925 -1.28874 2.8425 0
M  V30 3590 N 322.226 -1.5378 -0.344866 0
M  V30 3591 C 323.642 -1.44015 -0.687888 0
M  V30 3592 C 323.842 -0.595834 -1.92489 0
M  V30 3593 O 322.898 -0.0863064 -2.52352 0
M  V30 3594 C 324.211 -2.87481 -0.881758 0
M  V30 3595 C 325.759 -2.97247 -0.980459 0
M  V30 3596 C 326.234 -4.41819 -1.20665 0
M  V30 3597 N 327.725 -4.45339 -1.27389 0
M  V30 3598 C 328.46 -5.54333 -1.46639 0
M  V30 3599 N 327.956 -6.73335 -1.63071 0
M  V30 3600 N 329.749 -5.41944 -1.49176 0
M  V30 3601 H 321.9 -2.07169 0.468475 0
M  V30 3602 H 324.163 -0.93643 0.147655 0
M  V30 3603 H 323.869 -3.51672 -0.0443444 0
M  V30 3604 H 323.743 -3.32352 -1.78388 0
M  V30 3605 H 326.13 -2.33197 -1.8084 0
M  V30 3606 H 326.211 -2.5574 -0.0552713 0
M  V30 3607 H 325.855 -5.06449 -0.383652 0
M  V30 3608 H 325.785 -4.80917 -2.14539 0
M  V30 3609 H 328.276 -3.59585 -1.1622 0
M  V30 3610 H 328.589 -7.52165 -1.77391 0
M  V30 3611 H 326.934 -6.76282 -1.60209 0
M  V30 3612 H 330.125 -4.47932 -1.3592 0
M  V30 3613 H 330.298 -6.26946 -1.63837 0
M  V30 3614 N 323.704 0.605807 -1.45491 0
M  V30 3615 C 324.637 1.73022 -1.48791 0
M  V30 3616 C 325.615 1.58917 -0.344112 0
M  V30 3617 O 326.799 1.80453 -0.544876 0
M  V30 3618 C 323.926 3.10865 -1.34463 0
M  V30 3619 C 322.972 3.43554 -2.5273 0
M  V30 3620 S 323.805 3.38196 -4.15191 0
M  V30 3621 C 324.961 4.78616 -4.03333 0
M  V30 3622 H 325.194 1.69961 -2.43928 0
M  V30 3623 H 322.727 0.782611 -1.33096 0
M  V30 3624 H 324.685 3.90398 -1.26884 0
M  V30 3625 H 323.346 3.1144 -0.40794 0
M  V30 3626 H 322.539 4.43924 -2.38637 0
M  V30 3627 H 322.141 2.71541 -2.5718 0
M  V30 3628 H 324.433 5.68463 -3.68587 0
M  V30 3629 H 325.376 4.97767 -5.03621 0
M  V30 3630 H 325.784 4.54381 -3.34959 0
M  V30 3631 N 325.182 1.32811 0.848464 0
M  V30 3632 C 326.428 1.24917 1.60522 0
M  V30 3633 C 326.783 -0.185761 1.91501 0
M  V30 3634 O 326.076 -1.12524 1.55077 0
M  V30 3635 C 326.27 2.04831 2.92881 0
M  V30 3636 C 326.099 3.55949 2.74828 0
M  V30 3637 C 324.869 4.25277 2.72887 0
M  V30 3638 C 327.067 4.50476 2.48145 0
M  V30 3639 N 325.049 5.62408 2.46111 0
M  V30 3640 C 326.42 5.75427 2.30832 0
M  V30 3641 C 328.475 4.39665 2.33664 0
M  V30 3642 C 327.178 6.90789 2.00508 0
M  V30 3643 C 329.204 5.54833 2.04731 0
M  V30 3644 C 328.566 6.78787 1.88223 0
M  V30 3645 H 324.665 0.512279 0.590842 0
M  V30 3646 H 327.249 1.67246 0.996839 0
M  V30 3647 H 325.42 1.64837 3.51686 0
M  V30 3648 H 327.152 1.88782 3.57971 0
M  V30 3649 H 323.907 3.77456 2.86049 0
M  V30 3650 H 324.331 6.3467 2.35634 0
M  V30 3651 H 328.973 3.44477 2.45144 0
M  V30 3652 H 326.691 7.85984 1.87765 0
M  V30 3653 H 330.277 5.48398 1.94295 0
M  V30 3654 H 329.157 7.66396 1.66155 0
M  V30 3655 N 326.66 -1.06551 1.16123 0
M  V30 3656 C 327.89 -1.8274 0.963838 0
M  V30 3657 C 328.298 -1.82712 -0.491228 0
M  V30 3658 O 327.641 -1.24294 -1.35265 0
M  V30 3659 C 327.703 -3.3065 1.41106 0
M  V30 3660 C 327.367 -3.54384 2.88549 0
M  V30 3661 C 328.364 -3.4765 3.86569 0
M  V30 3662 C 326.049 -3.81789 3.26408 0
M  V30 3663 C 328.043 -3.67982 5.2045 0
M  V30 3664 C 325.73 -4.01772 4.60459 0
M  V30 3665 C 326.728 -3.94866 5.57288 0
M  V30 3666 O 326.416 -4.14306 6.88916 0
M  V30 3667 H 326.148 -0.583136 0.341948 0
M  V30 3668 H 328.702 -1.35351 1.54497 0
M  V30 3669 H 326.932 -3.78887 0.773394 0
M  V30 3670 H 328.621 -3.88324 1.1815 0
M  V30 3671 H 329.387 -3.2647 3.58667 0
M  V30 3672 H 325.266 -3.86276 2.51619 0
M  V30 3673 H 328.81 -3.62507 5.96015 0
M  V30 3674 H 324.707 -4.2244 4.88072 0
M  V30 3675 H 325.475 -4.31609 6.95454 0
M  V30 3676 N 328.138 -0.959301 -1.25041 0
M  V30 3677 C 329.385 -0.616611 -1.92884 0
M  V30 3678 C 329.713 0.847036 -1.75087 0
M  V30 3679 O 328.968 1.62374 -1.09239 0
M  V30 3680 C 329.267 -0.927136 -3.45165 0
M  V30 3681 C 328.933 -2.37757 -3.83122 0
M  V30 3682 C 327.595 -2.77402 -3.93194 0
M  V30 3683 C 329.947 -3.31929 -4.01836 0
M  V30 3684 C 327.275 -4.10277 -4.19392 0
M  V30 3685 C 329.627 -4.64423 -4.29528 0
M  V30 3686 C 328.291 -5.03857 -4.37818 0
M  V30 3687 H 327.561 -0.225634 -0.705812 0
M  V30 3688 H 330.208 -1.20921 -1.48493 0
M  V30 3689 H 328.513 -0.252195 -3.90987 0
M  V30 3690 H 330.21 -0.6405 -3.95852 0
M  V30 3691 H 326.8 -2.06013 -3.75841 0
M  V30 3692 H 330.984 -3.02488 -3.93465 0
M  V30 3693 H 326.24 -4.40467 -4.24027 0
M  V30 3694 H 330.414 -5.37369 -4.42953 0
M  V30 3695 H 328.041 -6.06843 -4.57871 0
M  V30 3696 N 329.616 1.39756 -0.72842 0
M  V30 3697 C 330.844 2.04948 -0.283528 0
M  V30 3698 C 331.259 1.54908 1.0793 0
M  V30 3699 O 330.616 0.711135 1.68075 0
M  V30 3700 C 330.667 3.60498 -0.268957 0
M  V30 3701 O 330.388 4.08695 -1.57798 0
M  V30 3702 C 331.889 4.4288 0.192912 0
M  V30 3703 H 329.109 0.659243 -0.125056 0
M  V30 3704 H 331.653 1.78927 -0.990226 0
M  V30 3705 H 329.808 3.85444 0.388801 0
M  V30 3706 H 330.222 5.02977 -1.48709 0
M  V30 3707 H 331.696 5.51791 0.151952 0
M  V30 3708 H 332.173 4.21418 1.23708 0
M  V30 3709 H 332.779 4.23069 -0.435039 0
M  V30 3710 N 331.094 0.475555 1.50254 0
M  V30 3711 C 332.319 -0.0777042 2.07254 0
M  V30 3712 C 332.744 -1.3235 1.3366 0
M  V30 3713 O 332.102 -1.77152 0.385597 0
M  V30 3714 C 332.15 -0.340169 3.58992 0
M  V30 3715 O 331.254 -1.41982 3.87188 0
M  V30 3716 H 330.595 0.0149556 0.663832 0
M  V30 3717 H 333.125 0.667878 1.93392 0
M  V30 3718 H 333.135 -0.579332 4.03866 0
M  V30 3719 H 331.81 0.570167 4.11973 0
M  V30 3720 H 330.387 -1.16762 3.54148 0
M  V30 3721 N 332.573 -1.56217 0.208337 0
M  V30 3722 C 333.85 -1.89739 -0.475234 0
M  V30 3723 C 334.23 -1.1238 -1.78701 0
M  V30 3724 O 333.578 -0.228979 -2.2735 0
M  V30 3725 C 333.788 -3.42289 -0.681101 0
M  V30 3726 C 335.136 -4.12789 -0.994507 0
M  V30 3727 O 336.16 -3.47814 -0.768357 0
M  V30 3728 O 335.019 -5.27649 -1.42299 0
M  V30 3729 H 332.113 -0.788478 -0.249461 0
M  V30 3730 H 334.659 -1.67855 0.249538 0
M  V30 3731 H 333.431 -3.90534 0.244722 0
M  V30 3732 H 333.054 -3.69909 -1.45785 0
M  V30 3733 N 334.051 0.0651679 -1.57465 0
M  V30 3734 C 335.298 0.763063 -1.87573 0
M  V30 3735 C 335.626 1.77242 -0.800961 0
M  V30 3736 O 334.881 1.94651 0.202316 0
M  V30 3737 C 335.18 1.50081 -3.24362 0
M  V30 3738 C 334.846 0.630816 -4.46466 0
M  V30 3739 C 333.508 0.391082 -4.79608 0
M  V30 3740 C 335.86 0.0279465 -5.21193 0
M  V30 3741 C 333.188 -0.460894 -5.84887 0
M  V30 3742 C 335.54 -0.811522 -6.27373 0
M  V30 3743 C 334.204 -1.06106 -6.59013 0
M  V30 3744 H 333.474 0.279224 -0.686378 0
M  V30 3745 H 336.121 0.0236726 -1.91485 0
M  V30 3746 H 334.426 2.31258 -3.16271 0
M  V30 3747 H 336.123 2.04571 -3.44894 0
M  V30 3748 H 332.713 0.8278 -4.2053 0
M  V30 3749 H 336.897 0.200262 -4.95896 0
M  V30 3750 H 332.153 -0.662907 -6.07796 0
M  V30 3751 H 336.327 -1.28537 -6.84435 0
M  V30 3752 H 333.954 -1.723 -7.40417 0
M  V30 3753 N 335.529 1.53961 0.336706 0
M  V30 3754 C 336.754 1.75797 1.10046 0
M  V30 3755 C 337.179 0.498985 1.81361 0
M  V30 3756 O 336.537 -0.548769 1.72795 0
M  V30 3757 C 336.585 2.94257 2.08436 0
M  V30 3758 O 335.689 2.64883 3.16087 0
M  V30 3759 H 335.03 0.582936 0.317934 0
M  V30 3760 H 337.56 2.00945 0.38501 0
M  V30 3761 H 337.57 3.21237 2.51537 0
M  V30 3762 H 336.245 3.85564 1.55927 0
M  V30 3763 H 334.822 2.48812 2.77753 0
M  V30 3764 N 337.007 -0.598083 1.45811 0
M  V30 3765 C 338.423 -0.919847 1.30426 0
M  V30 3766 C 338.623 -1.99759 0.264303 0
M  V30 3767 O 337.679 -2.50221 -0.338472 0
M  V30 3768 C 338.992 -1.35176 2.68603 0
M  V30 3769 C 340.54 -1.46546 2.76574 0
M  V30 3770 C 341.015 -1.9311 4.15298 0
M  V30 3771 N 342.506 -2.00328 4.1764 0
M  V30 3772 C 343.241 -2.37599 5.21856 0
M  V30 3773 N 342.737 -2.73771 6.36413 0
M  V30 3774 N 344.53 -2.38021 5.09218 0
M  V30 3775 H 336.681 0.114111 2.12093 0
M  V30 3776 H 338.944 -0.0116121 0.947929 0
M  V30 3777 H 338.65 -0.633969 3.45939 0
M  V30 3778 H 338.524 -2.3164 2.97696 0
M  V30 3779 H 340.911 -2.17415 1.99537 0
M  V30 3780 H 340.992 -0.483727 2.51185 0
M  V30 3781 H 340.636 -1.22824 4.92825 0
M  V30 3782 H 340.566 -2.92213 4.38086 0
M  V30 3783 H 343.057 -1.74925 3.34977 0
M  V30 3784 H 343.37 -3.0112 7.11721 0
M  V30 3785 H 341.715 -2.71445 6.39799 0
M  V30 3786 H 344.906 -2.09174 4.18765 0
M  V30 3787 H 345.079 -2.66741 5.90554 0
M  V30 3788 N 338.485 -1.33259 -0.841409 0
M  V30 3789 C 339.733 -1.24326 -1.59334 0
M  V30 3790 C 340.054 0.191564 -1.94057 0
M  V30 3791 O 339.324 1.11967 -1.60749 0
M  V30 3792 H 337.904 -0.457174 -0.590763 0
M  V30 3793 H 340.566 -1.66947 -1.00571 0
M  V30 3794 H 339.662 -1.8352 -2.52442 0
M  V30 3795 N 339.963 1.05934 -1.16686 0
M  V30 3796 C 341.24 1.75643 -0.860747 0
M  V30 3797 C 341.62 2.01144 0.640641 0
M  V30 3798 O 340.968 1.64147 1.58959 0
M  V30 3799 C 341.178 3.05493 -1.68745 0
M  V30 3800 C 342.526 3.79581 -1.90271 0
M  V30 3801 O 343.55 3.15344 -1.65641 0
M  V30 3802 O 342.409 4.9499 -2.31618 0
M  V30 3803 H 339.503 0.763426 -0.317977 0
M  V30 3804 H 342.049 1.1217 -1.27342 0
M  V30 3805 H 340.821 2.8264 -2.70611 0
M  V30 3806 H 340.444 3.76702 -1.27206 0
M  V30 3807 N 341.441 0.965919 1.2453 0
M  V30 3808 C 342.669 0.644385 1.96609 0
M  V30 3809 C 343.084 -0.785823 1.71669 0
M  V30 3810 O 342.441 -1.52703 0.999399 0
M  V30 3811 C 342.492 0.907375 3.49927 0
M  V30 3812 O 342.213 2.28136 3.74013 0
M  V30 3813 C 343.714 0.599784 4.39224 0
M  V30 3814 H 340.934 0.240588 0.626385 0
M  V30 3815 H 343.478 1.29337 1.58405 0
M  V30 3816 H 341.633 0.304631 3.862 0
M  V30 3817 H 342.047 2.36002 4.68405 0
M  V30 3818 H 343.521 0.834263 5.45659 0
M  V30 3819 H 343.998 -0.465921 4.36722 0
M  V30 3820 H 344.604 1.18235 4.08535 0
M  V30 3821 N 342.919 -1.39368 0.735821 0
M  V30 3822 C 343.882 -2.2896 0.104874 0
M  V30 3823 C 344.882 -1.46347 -0.666274 0
M  V30 3824 O 346.072 -1.67014 -0.49517 0
M  V30 3825 C 343.204 -3.29857 -0.860656 0
M  V30 3826 H 344.397 -2.86259 0.894205 0
M  V30 3827 H 341.95 -1.48029 0.501704 0
M  V30 3828 H 342.685 -2.77615 -1.67631 0
M  V30 3829 H 342.47 -3.9087 -0.310327 0
M  V30 3830 H 343.96 -3.96893 -1.29867 0
M  V30 3831 N 344.397 -0.483516 -1.5 0
M  V30 3832 C 345.627 0.0643896 -2.065 0
M  V30 3833 C 346.035 1.32949 -1.34615 0
M  V30 3834 O 345.378 1.79003 -0.412756 0
M  V30 3835 C 345.44 0.405983 -3.572 0
M  V30 3836 C 345.104 -0.758875 -4.50655 0
M  V30 3837 C 346.101 -1.64445 -4.93208 0
M  V30 3838 C 343.786 -0.952725 -4.93182 0
M  V30 3839 C 345.78 -2.70818 -5.77006 0
M  V30 3840 C 343.467 -2.01966 -5.76761 0
M  V30 3841 C 344.465 -2.89574 -6.18576 0
M  V30 3842 O 344.153 -3.94429 -7.00486 0
M  V30 3843 H 343.885 -0.00934786 -0.675935 0
M  V30 3844 H 346.439 -0.674959 -1.93993 0
M  V30 3845 H 344.669 1.19869 -3.67652 0
M  V30 3846 H 346.358 0.890433 -3.96013 0
M  V30 3847 H 347.124 -1.50643 -4.61012 0
M  V30 3848 H 343.003 -0.280247 -4.60147 0
M  V30 3849 H 346.547 -3.3923 -6.09565 0
M  V30 3850 H 342.444 -2.1577 -6.0837 0
M  V30 3851 H 343.212 -3.91568 -7.1876 0
M  V30 3852 N 345.875 1.56104 -0.216619 0
M  V30 3853 C 347.103 2.02563 0.421413 0
M  V30 3854 C 347.518 1.0965 1.53695 0
M  V30 3855 O 346.875 0.10521 1.82196 0
M  V30 3856 C 346.926 3.48584 0.957665 0
M  V30 3857 O 346.647 4.37953 -0.113389 0
M  V30 3858 C 348.148 4.10664 1.66943 0
M  V30 3859 H 345.368 0.662944 0.103665 0
M  V30 3860 H 347.912 2.01793 -0.331629 0
M  V30 3861 H 346.067 3.49985 1.661 0
M  V30 3862 H 346.481 5.23704 0.288932 0
M  V30 3863 H 347.955 5.14622 1.99671 0
M  V30 3864 H 348.432 3.55373 2.58083 0
M  V30 3865 H 349.038 4.13098 1.01142 0
M  V30 3866 N 347.353 -0.0568162 1.57498 0
M  V30 3867 C 348.3 -1.06591 2.04712 0
M  V30 3868 C 349.27 -1.3758 0.930644 0
M  V30 3869 O 350.455 -1.48392 1.19935 0
M  V30 3870 C 347.595 -2.3701 2.50839 0
M  V30 3871 C 346.708 -2.12421 3.76167 0
M  V30 3872 C 345.843 -3.36511 4.11015 0
M  V30 3873 C 344.882 -3.07353 5.2934 0
M  V30 3874 N 344.019 -4.23816 5.59754 0
M  V30 3875 H 348.859 -0.65631 2.90683 0
M  V30 3876 H 346.396 -0.312481 1.43743 0
M  V30 3877 H 348.354 -3.13175 2.7564 0
M  V30 3878 H 346.984 -2.75744 1.67825 0
M  V30 3879 H 346.036 -1.2688 3.58616 0
M  V30 3880 H 347.348 -1.86894 4.62463 0
M  V30 3881 H 346.502 -4.21062 4.36797 0
M  V30 3882 H 345.241 -3.65128 3.23315 0
M  V30 3883 H 344.246 -2.212 5.03339 0
M  V30 3884 H 345.471 -2.80043 6.1867 0
M  V30 3885 H 343.417 -4.52436 4.75014 0
M  V30 3886 H 343.334 -4.01614 6.40501 0
M  V30 3887 H 344.602 -5.0932 5.90096 0
M  V30 3888 N 348.832 -1.54138 -0.328536 0
M  V30 3889 C 349.762 -1.86167 -1.40939 0
M  V30 3890 C 350.743 -0.718044 -1.54202 0
M  V30 3891 O 351.928 -0.971328 -1.68163 0
M  V30 3892 C 349.058 -2.08461 -2.77779 0
M  V30 3893 C 348.012 -3.24299 -2.7931 0
M  V30 3894 C 347.338 -3.31955 -4.19178 0
M  V30 3895 C 348.638 -4.62065 -2.43502 0
M  V30 3896 H 350.332 -2.76689 -1.14383 0
M  V30 3897 H 347.878 -1.33132 -0.548806 0
M  V30 3898 H 349.831 -2.29453 -3.53454 0
M  V30 3899 H 348.555 -1.14684 -3.05802 0
M  V30 3900 H 347.214 -3.03187 -2.0609 0
M  V30 3901 H 346.862 -2.35745 -4.44335 0
M  V30 3902 H 346.562 -4.09805 -4.2111 0
M  V30 3903 H 348.086 -3.55175 -4.96672 0
M  V30 3904 H 349.5 -4.8297 -3.08889 0
M  V30 3905 H 347.897 -5.42429 -2.56693 0
M  V30 3906 H 348.967 -4.64652 -1.38659 0
M  V30 3907 N 350.31 0.590341 -1.46126 0
M  V30 3908 C 351.273 1.68194 -1.55703 0
M  V30 3909 C 352.273 1.54808 -0.434868 0
M  V30 3910 O 353.463 1.59564 -0.698928 0
M  V30 3911 C 350.595 3.07575 -1.47005 0
M  V30 3912 H 351.788 1.61064 -2.52979 0
M  V30 3913 H 349.341 0.807541 -1.33823 0
M  V30 3914 H 350.076 3.20268 -0.509785 0
M  V30 3915 H 349.861 3.187 -2.28414 0
M  V30 3916 H 351.351 3.87055 -1.56776 0
M  V30 3917 N 351.788 1.33704 0.83433 0
M  V30 3918 C 352.718 1.26967 1.95963 0
M  V30 3919 C 353.699 0.149337 1.69443 0
M  V30 3920 O 354.884 0.339852 1.91203 0
M  V30 3921 C 352.014 1.01275 3.32206 0
M  V30 3922 C 350.968 2.09652 3.73136 0
M  V30 3923 C 350.294 1.69166 5.07235 0
M  V30 3924 C 351.594 3.51372 3.86439 0
M  V30 3925 H 353.288 2.2112 2.01857 0
M  V30 3926 H 350.834 1.06447 0.969793 0
M  V30 3927 H 352.787 0.952106 4.10503 0
M  V30 3928 H 351.511 0.0356203 3.26581 0
M  V30 3929 H 350.17 2.14766 2.97104 0
M  V30 3930 H 349.818 0.701437 4.98085 0
M  V30 3931 H 349.518 2.41694 5.35591 0
M  V30 3932 H 351.042 1.64576 5.88003 0
M  V30 3933 H 352.456 3.48734 4.55036 0
M  V30 3934 H 350.853 4.22425 4.26236 0
M  V30 3935 H 351.923 3.89546 2.88759 0
M  V30 3936 N 353.266 -1.05314 1.17247 0
M  V30 3937 C 354.543 -1.75184 0.87005 0
M  V30 3938 C 354.923 -2.01481 -0.629965 0
M  V30 3939 O 354.271 -1.64988 -1.58086 0
M  V30 3940 C 354.481 -3.04594 1.70363 0
M  V30 3941 C 355.829 -3.78567 1.92281 0
M  V30 3942 O 356.853 -3.14461 1.67311 0
M  V30 3943 O 355.712 -4.93755 2.3424 0
M  V30 3944 H 352.806 -0.761729 0.322021 0
M  V30 3945 H 355.352 -1.11493 1.27935 0
M  V30 3946 H 354.124 -2.81201 2.72106 0
M  V30 3947 H 353.747 -3.76022 1.29202 0
M  V30 3948 N 354.744 -0.972509 -1.24016 0
M  V30 3949 C 356.16 -0.679827 -1.44397 0
M  V30 3950 C 356.36 0.756716 -1.86751 0
M  V30 3951 O 355.416 1.53007 -2.00861 0
M  V30 3952 C 356.729 -1.66803 -2.50195 0
M  V30 3953 C 358.277 -1.68119 -2.64017 0
M  V30 3954 C 358.752 -2.65748 -3.73017 0
M  V30 3955 N 360.243 -2.64219 -3.8045 0
M  V30 3956 C 360.978 -3.36433 -4.64328 0
M  V30 3957 N 360.474 -4.1818 -5.52356 0
M  V30 3958 N 362.267 -3.25235 -4.58453 0
M  V30 3959 H 354.418 -1.90059 -0.948228 0
M  V30 3960 H 356.681 -0.818527 -0.478245 0
M  V30 3961 H 356.387 -2.69498 -2.25973 0
M  V30 3962 H 356.261 -1.4446 -3.48441 0
M  V30 3963 H 358.648 -0.661319 -2.87594 0
M  V30 3964 H 358.729 -1.94525 -1.66113 0
M  V30 3965 H 358.373 -3.67872 -3.50189 0
M  V30 3966 H 358.303 -2.36619 -4.70446 0
M  V30 3967 H 360.794 -2.04887 -3.17537 0
M  V30 3968 H 361.107 -4.70157 -6.13329 0
M  V30 3969 H 359.452 -4.22273 -5.52006 0
M  V30 3970 H 362.643 -2.60829 -3.88698 0
M  V30 3971 H 362.816 -3.81776 -5.23594 0
M  V30 3972 N 356.222 1.38976 -0.743202 0
M  V30 3973 C 357.172 2.27843 -0.084513 0
M  V30 3974 C 358.156 1.44677 0.704094 0
M  V30 3975 O 359.348 1.67511 0.571755 0
M  V30 3976 C 356.477 3.33466 0.815781 0
M  V30 3977 C 355.563 4.24095 0.0208844 0
M  V30 3978 N 355.954 4.95609 -1.0102 0
M  V30 3979 C 354.252 4.45303 0.249293 0
M  V30 3980 C 354.953 5.62287 -1.49024 0
M  V30 3981 N 353.929 5.37571 -0.807377 0
M  V30 3982 H 357.731 2.80593 -0.87436 0
M  V30 3983 H 355.245 1.51755 -0.578283 0
M  V30 3984 H 357.242 3.96008 1.30321 0
M  V30 3985 H 355.902 2.82276 1.6047 0
M  V30 3986 H 356.913 4.98849 -1.39176 0
M  V30 3987 H 353.59 4.0504 1.01237 0
M  V30 3988 H 354.98 6.29519 -2.34853 0
M  V30 3989 N 357.7 0.491464 1.49741 0
M  V30 3990 C 358.928 -0.0535151 2.06831 0
M  V30 3991 C 359.343 -1.31683 1.35296 0
M  V30 3992 O 358.7 -1.77402 0.42836 0
M  V30 3993 C 358.751 -0.320835 3.60073 0
M  V30 3994 O 358.472 0.892394 4.28915 0
M  V30 3995 C 359.973 -0.910519 4.33848 0
M  V30 3996 H 357.193 0.0161909 0.670805 0
M  V30 3997 H 359.737 0.68609 1.92647 0
M  V30 3998 H 357.892 -1.0104 3.73991 0
M  V30 3999 H 358.306 0.649401 5.20464 0
M  V30 4000 H 359.78 -1.04721 5.41976 0
M  V30 4001 H 360.257 -1.90589 3.95692 0
M  V30 4002 H 360.863 -0.258712 4.24512 0
M  V30 4003 N 359.178 -1.55987 0.224894 0
M  V30 4004 C 360.455 -1.90232 -0.455083 0
M  V30 4005 C 360.835 -1.14269 -1.77499 0
M  V30 4006 O 360.183 -0.253079 -2.27094 0
M  V30 4007 C 360.393 -3.42993 -0.644758 0
M  V30 4008 C 361.741 -4.13821 -0.950669 0
M  V30 4009 O 362.765 -3.4861 -0.731423 0
M  V30 4010 O 361.624 -5.29128 -1.36695 0
M  V30 4011 H 358.718 -0.79108 -0.241084 0
M  V30 4012 H 361.264 -1.67581 0.267327 0
M  V30 4013 H 360.036 -3.90252 0.28613 0
M  V30 4014 H 359.659 -3.71434 -1.41853 0
M  V30 4015 N 360.656 0.0484629 -1.57525 0
M  V30 4016 C 361.884 0.755421 -1.92616 0
M  V30 4017 C 362.299 1.69919 -0.822984 0
M  V30 4018 O 361.656 1.81378 0.202085 0
M  V30 4019 C 361.707 1.52915 -3.27566 0
M  V30 4020 O 361.428 0.62329 -4.33644 0
M  V30 4021 C 362.929 2.33502 -3.76818 0
M  V30 4022 H 360.149 0.213465 -0.63614 0
M  V30 4023 H 362.693 0.0117698 -2.04497 0
M  V30 4024 H 360.848 2.22486 -3.17142 0
M  V30 4025 H 361.262 1.16383 -5.11425 0
M  V30 4026 H 362.736 2.83214 -4.73808 0
M  V30 4027 H 363.213 3.14068 -3.07014 0
M  V30 4028 H 363.819 1.69043 -3.90262 0
M  V30 4029 N 362.134 1.5431 0.320358 0
M  V30 4030 C 363.362 1.76636 1.07738 0
M  V30 4031 C 363.777 0.51649 1.81598 0
M  V30 4032 O 363.134 -0.512942 1.75143 0
M  V30 4033 C 363.185 2.96158 2.07299 0
M  V30 4034 O 362.906 4.16313 1.36438 0
M  V30 4035 C 364.407 3.3072 2.95193 0
M  V30 4036 H 361.627 0.589597 0.320339 0
M  V30 4037 H 364.171 2.01207 0.36551 0
M  V30 4038 H 362.326 2.73851 2.74016 0
M  V30 4039 H 362.74 4.83565 2.03138 0
M  V30 4040 H 364.214 4.17643 3.60941 0
M  V30 4041 H 364.691 2.48026 3.62463 0
M  V30 4042 H 365.297 3.55117 2.34034 0
M  V30 4043 N 363.613 -0.582584 1.46437 0
M  V30 4044 C 364.843 -1.36484 1.55099 0
M  V30 4045 C 365.251 -1.88233 0.191056 0
M  V30 4046 O 364.594 -1.6429 -0.821858 0
M  V30 4047 C 364.656 -2.588 2.49525 0
M  V30 4048 C 364.32 -2.28517 3.95764 0
M  V30 4049 C 365.317 -1.87346 4.84972 0
M  V30 4050 C 363.002 -2.40658 4.40896 0
M  V30 4051 C 364.996 -1.5871 6.17325 0
M  V30 4052 C 362.683 -2.11635 5.73284 0
M  V30 4053 C 363.681 -1.70725 6.61318 0
M  V30 4054 O 363.369 -1.42057 7.91249 0
M  V30 4055 H 363.101 -0.423297 0.527063 0
M  V30 4056 H 365.655 -0.715188 1.92547 0
M  V30 4057 H 363.885 -3.26571 2.07095 0
M  V30 4058 H 365.574 -3.20868 2.48593 0
M  V30 4059 H 366.34 -1.77481 4.5136 0
M  V30 4060 H 362.219 -2.71463 3.72598 0
M  V30 4061 H 365.763 -1.26704 6.85997 0
M  V30 4062 H 361.66 -2.21124 6.06444 0
M  V30 4063 H 362.428 -1.55901 8.03515 0
M  V30 4064 N 365.091 -1.34144 -0.827227 0
M  V30 4065 C 366.338 -1.26258 -1.58319 0
M  V30 4066 C 366.666 0.168595 -1.93768 0
M  V30 4067 O 365.921 1.12877 -1.59866 0
M  V30 4068 C 366.22 -2.09464 -2.89585 0
M  V30 4069 C 365.886 -3.58521 -2.73448 0
M  V30 4070 C 364.548 -3.99155 -2.68754 0
M  V30 4071 C 366.9 -4.53189 -2.57428 0
M  V30 4072 C 364.228 -5.32656 -2.45957 0
M  V30 4073 C 366.58 -5.86864 -2.36163 0
M  V30 4074 C 365.244 -6.26667 -2.29879 0
M  V30 4075 H 364.514 -0.462013 -0.579332 0
M  V30 4076 H 367.161 -1.65845 -0.95748 0
M  V30 4077 H 365.466 -1.62692 -3.56425 0
M  V30 4078 H 367.163 -2.00712 -3.47154 0
M  V30 4079 H 363.753 -3.26264 -2.77939 0
M  V30 4080 H 367.937 -4.22696 -2.60081 0
M  V30 4081 H 363.193 -5.62519 -2.39546 0
M  V30 4082 H 367.367 -6.59813 -2.22754 0
M  V30 4083 H 364.994 -7.30049 -2.11975 0
M  V30 4084 N 366.569 1.04691 -1.17803 0
M  V30 4085 C 367.501 2.12571 -0.857097 0
M  V30 4086 C 368.514 1.62174 0.142647 0
M  V30 4087 O 369.703 1.78301 -0.0843387 0
M  V30 4088 C 366.803 3.37915 -0.258216 0
M  V30 4089 C 365.976 4.1757 -1.30207 0
M  V30 4090 C 365.035 5.2125 -0.720029 0
M  V30 4091 O 364.061 5.51888 -1.39314 0
M  V30 4092 N 365.263 5.78466 0.485507 0
M  V30 4093 H 368.028 2.40698 -1.78562 0
M  V30 4094 H 365.589 1.20831 -1.07757 0
M  V30 4095 H 367.581 4.04442 0.144584 0
M  V30 4096 H 366.151 3.07281 0.574199 0
M  V30 4097 H 365.371 3.46458 -1.88043 0
M  V30 4098 H 366.659 4.67586 -2.00601 0
M  V30 4099 H 366.057 5.55866 1.05022 0
M  V30 4100 H 364.614 6.4649 0.830307 0
M  V30 4101 N 368.047 0.979072 1.23499 0
M  V30 4102 C 368.957 0.526431 2.28617 0
M  V30 4103 C 369.973 -0.418126 1.68901 0
M  V30 4104 O 371.149 -0.288372 1.99325 0
M  V30 4105 C 368.214 -0.165235 3.46306 0
M  V30 4106 C 367.275 0.82056 4.21385 0
M  V30 4107 C 366.508 0.161807 5.33455 0
M  V30 4108 O 366.731 -1.04742 5.60701 0
M  V30 4109 O 365.665 0.859708 5.95729 0
M  V30 4110 H 369.491 1.4006 2.69475 0
M  V30 4111 H 367.076 0.746643 1.29405 0
M  V30 4112 H 368.958 -0.553287 4.17752 0
M  V30 4113 H 367.633 -1.01419 3.07402 0
M  V30 4114 H 366.54 1.25929 3.52268 0
M  V30 4115 H 367.873 1.63828 4.64135 0
M  V30 4116 N 369.525 -1.3858 0.750561 0
M  V30 4117 C 370.936 -1.82927 0.373438 0
M  V30 4118 C 371.287 -1.62634 -1.09748 0
M  V30 4119 O 370.412 -1.12588 -1.84805 0
M  V30 4120 C 371.007 -3.32088 0.671029 0
M  V30 4121 C 369.566 -3.74795 0.34722 0
M  V30 4122 C 368.713 -2.61391 0.92575 0
M  V30 4123 H 371.664 -1.27351 0.946958 0
M  V30 4124 H 371.685 -3.80465 -0.0518269 0
M  V30 4125 H 371.197 -3.46826 1.74164 0
M  V30 4126 H 369.298 -3.65638 -0.716933 0
M  V30 4127 H 369.411 -4.71667 0.840656 0
M  V30 4128 H 367.775 -2.52265 0.351327 0
M  V30 4129 H 368.558 -2.78929 2.00133 0
M  V30 4130 N 371.003 -0.499398 -1.49478 0
M  V30 4131 C 372.243 0.0440751 -2.04352 0
M  V30 4132 C 372.607 1.34423 -1.37093 0
M  V30 4133 O 373.808 1.97184 -1.82679 0
M  V30 4134 C 372.079 0.194918 -3.56868 0
M  V30 4135 S 373.638 0.69287 -4.33295 0
M  V30 4136 H 370.456 0.00253458 -0.710995 0
M  V30 4137 H 373.058 -0.673 -1.83551 0
M  V30 4138 H 371.762 -0.756672 -4.03364 0
M  V30 4139 H 371.293 0.93728 -3.82071 0
M  V30 4140 H 373.308 1.96226 -4.55752 0
M  V30 4141 N 372.481 1.55866 -0.233164 0
M  V30 4142 C 373.729 1.9821 0.394593 0
M  V30 4143 C 374.05 1.12234 1.59463 0
M  V30 4144 O 373.32 0.201981 1.94856 0
M  V30 4145 H 371.9 0.732034 0.148778 0
M  V30 4146 H 374.562 1.92107 -0.32876 0
M  V30 4147 H 373.658 3.03845 0.713063 0
M  V30 4148 N 373.959 -0.0401083 1.57549 0
M  V30 4149 C 375.208 -0.732108 1.87944 0
M  V30 4150 C 375.521 -1.77107 0.830206 0
M  V30 4151 O 376.727 -2.51488 1.02302 0
M  V30 4152 C 375.183 -1.35315 3.33494 0
M  V30 4153 C 374.791 -0.351105 4.46622 0
M  V30 4154 C 376.535 -2.02566 3.73051 0
M  V30 4155 C 374.442 -0.979859 5.83226 0
M  V30 4156 H 373.372 -0.277188 0.701201 0
M  V30 4157 H 376.023 0.0138501 1.83495 0
M  V30 4158 H 374.405 -2.14844 3.32653 0
M  V30 4159 H 375.579 0.416674 4.58912 0
M  V30 4160 H 373.894 0.218708 4.15825 0
M  V30 4161 H 376.491 -2.50441 4.72423 0
M  V30 4162 H 376.834 -2.83904 3.04474 0
M  V30 4163 H 377.367 -1.29827 3.76018 0
M  V30 4164 H 374.106 -0.206135 6.55176 0
M  V30 4165 H 373.626 -1.71774 5.74677 0
M  V30 4166 H 375.305 -1.49046 6.29599 0
M  V30 4167 N 375.437 -1.54477 -0.31217 0
M  V30 4168 C 376.369 -1.81011 -1.40598 0
M  V30 4169 C 377.382 -0.692546 -1.47335 0
M  V30 4170 O 378.571 -0.969847 -1.49854 0
M  V30 4171 C 375.671 -1.92307 -2.79054 0
M  V30 4172 C 374.844 -3.22594 -2.95384 0
M  V30 4173 C 373.903 -3.24448 -4.1427 0
M  V30 4174 O 372.929 -3.98035 -4.06887 0
M  V30 4175 N 374.131 -2.49042 -5.24365 0
M  V30 4176 H 376.896 -2.75408 -1.18196 0
M  V30 4177 H 374.457 -1.53914 -0.502202 0
M  V30 4178 H 376.449 -1.90962 -3.56813 0
M  V30 4179 H 375.019 -1.04955 -2.94454 0
M  V30 4180 H 374.239 -3.36806 -2.04831 0
M  V30 4181 H 375.527 -4.08593 -3.03198 0
M  V30 4182 H 374.925 -1.88867 -5.33241 0
M  V30 4183 H 373.482 -2.53463 -6.005 0
M  V30 4184 N 376.915 0.57481 -1.46744 0
M  V30 4185 C 378.161 1.3347 -1.52688 0
M  V30 4186 C 378.494 1.93353 -0.181229 0
M  V30 4187 O 377.769 1.76912 0.808237 0
M  V30 4188 C 378.052 2.45811 -2.63152 0
M  V30 4189 C 377.905 1.90912 -4.07275 0
M  V30 4190 C 379.224 3.47822 -2.69644 0
M  V30 4191 H 376.343 0.483935 -0.555856 0
M  V30 4192 H 378.985 0.644968 -1.78718 0
M  V30 4193 H 377.135 3.04646 -2.41088 0
M  V30 4194 H 378.807 1.36473 -4.4065 0
M  V30 4195 H 377.05 1.21691 -4.16382 0
M  V30 4196 H 377.721 2.72042 -4.80309 0
M  V30 4197 H 380.197 2.9888 -2.895 0
M  V30 4198 H 379.073 4.23876 -3.48742 0
M  V30 4199 H 379.334 4.05555 -1.76005 0
M  V30 4200 N 378.394 1.34581 0.820102 0
M  V30 4201 C 379.641 1.27096 1.57648 0
M  V30 4202 C 379.969 -0.158317 1.93855 0
M  V30 4203 O 379.224 -1.12028 1.60463 0
M  V30 4204 C 379.523 2.10997 2.8847 0
M  V30 4205 C 379.189 3.59966 2.71543 0
M  V30 4206 C 377.851 4.00575 2.66634 0
M  V30 4207 C 380.203 4.54548 2.55021 0
M  V30 4208 C 377.531 5.33953 2.43128 0
M  V30 4209 C 379.883 5.88109 2.33047 0
M  V30 4210 C 378.547 6.27878 2.26552 0
M  V30 4211 H 377.817 0.465078 0.576874 0
M  V30 4212 H 380.464 1.6635 0.948671 0
M  V30 4213 H 378.769 1.6458 3.55557 0
M  V30 4214 H 380.466 2.0255 3.46084 0
M  V30 4215 H 377.056 3.27733 2.76205 0
M  V30 4216 H 381.24 4.24069 2.57835 0
M  V30 4217 H 376.496 5.63781 2.3656 0
M  V30 4218 H 380.67 6.60985 2.19251 0
M  V30 4219 H 378.297 7.31162 2.081 0
M  V30 4220 N 379.872 -1.04064 1.18357 0
M  V30 4221 C 380.822 -2.10393 0.878561 0
M  V30 4222 C 381.806 -1.60183 -0.151713 0
M  V30 4223 O 382.998 -1.76923 0.0523303 0
M  V30 4224 C 380.127 -3.4089 0.406096 0
M  V30 4225 C 379.213 -3.97866 1.46844 0
M  V30 4226 N 379.604 -4.28657 2.68489 0
M  V30 4227 C 377.902 -4.2574 1.32896 0
M  V30 4228 C 378.603 -4.74253 3.36836 0
M  V30 4229 N 377.579 -4.75068 2.64219 0
M  V30 4230 H 381.381 -2.32076 1.80327 0
M  V30 4231 H 378.895 -1.21818 1.07397 0
M  V30 4232 H 380.892 -4.16557 0.169088 0
M  V30 4233 H 379.552 -3.20633 -0.512275 0
M  V30 4234 H 380.563 -4.18304 3.05356 0
M  V30 4235 H 377.24 -4.1481 0.473134 0
M  V30 4236 H 378.63 -5.07096 4.40798 0
M  V30 4237 N 381.35 -0.985608 -1.22978 0
M  V30 4238 C 382.59 -0.665487 -1.93263 0
M  V30 4239 C 382.954 0.78706 -1.75127 0
M  V30 4240 O 384.155 1.21826 -2.39608 0
M  V30 4241 C 382.426 -1.0515 -3.41582 0
M  V30 4242 S 383.985 -0.848637 -4.30516 0
M  V30 4243 H 380.803 -0.24355 -0.667985 0
M  V30 4244 H 383.405 -1.26635 -1.48942 0
M  V30 4245 H 382.109 -2.10517 -3.52293 0
M  V30 4246 H 381.64 -0.442134 -3.90908 0
M  V30 4247 H 383.655 0.264717 -4.95493 0
M  V30 4248 N 382.828 1.3818 -0.7579 0
M  V30 4249 C 383.758 2.33027 -0.148597 0
M  V30 4250 C 384.739 1.55085 0.69875 0
M  V30 4251 O 385.924 1.83384 0.639053 0
M  V30 4252 C 383.054 3.3928 0.742034 0
M  V30 4253 C 382.008 4.28 -0.00291946 0
M  V30 4254 C 381.334 5.25146 1.00625 0
M  V30 4255 C 382.634 5.08938 -1.17385 0
M  V30 4256 H 384.328 2.84231 -0.940909 0
M  V30 4257 H 381.874 1.36659 -0.453908 0
M  V30 4258 H 383.827 4.046 1.17799 0
M  V30 4259 H 382.551 2.86569 1.56671 0
M  V30 4260 H 381.21 3.64192 -0.419504 0
M  V30 4261 H 380.858 4.68721 1.8251 0
M  V30 4262 H 380.558 5.85361 0.512428 0
M  V30 4263 H 382.082 5.93342 1.44143 0
M  V30 4264 H 383.496 5.67474 -0.815224 0
M  V30 4265 H 381.893 5.7841 -1.59882 0
M  V30 4266 H 382.963 4.42424 -1.98468 0
M  V30 4267 N 384.306 0.507319 1.49211 0
M  V30 4268 C 385.253 -0.267728 2.29242 0
M  V30 4269 C 386.223 -0.954609 1.35928 0
M  V30 4270 O 387.408 -0.960046 1.64887 0
M  V30 4271 C 384.548 -1.32243 3.18756 0
M  V30 4272 C 383.661 -0.64669 4.27132 0
M  V30 4273 C 382.796 -1.68238 5.03855 0
M  V30 4274 C 381.835 -0.98885 6.0406 0
M  V30 4275 N 380.972 -1.96903 6.73924 0
M  V30 4276 H 385.812 0.420968 2.95012 0
M  V30 4277 H 383.349 0.219443 1.45454 0
M  V30 4278 H 385.307 -1.94599 3.69036 0
M  V30 4279 H 383.937 -1.97981 2.54958 0
M  V30 4280 H 382.989 0.0902926 3.80293 0
M  V30 4281 H 384.301 -0.101058 4.98698 0
M  V30 4282 H 383.455 -2.38081 5.58034 0
M  V30 4283 H 382.194 -2.26187 4.32077 0
M  V30 4284 H 381.199 -0.276222 5.49106 0
M  V30 4285 H 382.424 -0.415767 6.77826 0
M  V30 4286 H 380.37 -2.53803 6.04913 0
M  V30 4287 H 380.287 -1.47423 7.41487 0
M  V30 4288 H 381.555 -2.66015 7.32705 0
M  V30 4289 N 385.784 -1.5574 0.241426 0
M  V30 4290 C 386.734 -2.17803 -0.674233 0
M  V30 4291 C 387.718 -1.13225 -1.14319 0
M  V30 4292 O 388.91 -1.39153 -1.09387 0
M  V30 4293 C 386.039 -2.87682 -1.87333 0
M  V30 4294 C 385.125 -3.99509 -1.42313 0
M  V30 4295 N 385.516 -5.01115 -0.686798 0
M  V30 4296 C 383.814 -4.11964 -1.70885 0
M  V30 4297 C 384.515 -5.79922 -0.454456 0
M  V30 4298 N 383.491 -5.34001 -1.01705 0
M  V30 4299 H 387.293 -2.93718 -0.103447 0
M  V30 4300 H 384.807 -1.62342 0.0435095 0
M  V30 4301 H 386.804 -3.3057 -2.54026 0
M  V30 4302 H 385.464 -2.13269 -2.4484 0
M  V30 4303 H 386.475 -5.16799 -0.337459 0
M  V30 4304 H 383.152 -3.48718 -2.2957 0
M  V30 4305 H 384.542 -6.71768 0.132992 0
M  V30 4306 N 387.262 0.0317525 -1.57568 0
M  V30 4307 C 388.172 1.05021 -2.0978 0
M  V30 4308 C 389.188 1.39809 -1.03583 0
M  V30 4309 O 390.364 1.49182 -1.35302 0
M  V30 4310 C 387.429 2.33301 -2.56459 0
M  V30 4311 C 386.49 2.0512 -3.77127 0
M  V30 4312 C 385.723 3.27283 -4.2157 0
M  V30 4313 O 385.946 4.37861 -3.65559 0
M  V30 4314 O 384.88 3.13141 -5.14029 0
M  V30 4315 H 388.706 0.636505 -2.96955 0
M  V30 4316 H 386.291 0.248559 -1.47318 0
M  V30 4317 H 388.173 3.08722 -2.86825 0
M  V30 4318 H 386.848 2.73973 -1.72397 0
M  V30 4319 H 385.755 1.27276 -3.51784 0
M  V30 4320 H 387.088 1.69305 -4.62165 0
M  V30 4321 N 388.74 1.54641 0.303973 0
M  V30 4322 C 389.988 1.73437 1.0375 0
M  V30 4323 C 390.309 0.521449 1.87899 0
M  V30 4324 O 389.579 -0.46432 1.90318 0
M  V30 4325 H 388.159 0.639518 0.386039 0
M  V30 4326 H 390.821 1.91988 0.335675 0
M  V30 4327 H 389.917 2.62235 1.69231 0
M  V30 4328 N 390.218 -0.567019 1.47046 0
M  V30 4329 C 391.446 -1.35027 1.56765 0
M  V30 4330 C 391.861 -1.8758 0.214316 0
M  V30 4331 O 391.218 -1.64471 -0.790919 0
M  V30 4332 C 391.269 -2.52698 2.58507 0
M  V30 4333 O 390.99 -2.0232 3.88585 0
M  V30 4334 C 392.491 -3.45043 2.78316 0
M  V30 4335 H 389.711 -0.41195 0.529658 0
M  V30 4336 H 392.255 -0.687832 1.92585 0
M  V30 4337 H 390.41 -3.149 2.25648 0
M  V30 4338 H 390.824 -2.79068 4.44096 0
M  V30 4339 H 392.298 -4.2405 3.53391 0
M  V30 4340 H 392.775 -3.97971 1.85784 0
M  V30 4341 H 393.381 -2.88665 3.12334 0
M  V30 4342 N 391.696 -1.35014 -0.812953 0
M  V30 4343 C 392.944 -1.27678 -1.56661 0
M  V30 4344 C 393.265 0.150359 -1.94419 0
M  V30 4345 O 392.535 1.08532 -1.63088 0
M  V30 4346 H 391.115 -0.469602 -0.580933 0
M  V30 4347 H 393.777 -1.69043 -0.970076 0
M  V30 4348 H 392.873 -1.88833 -2.48492 0
M  V30 4349 N 393.175 1.03435 -1.18907 0
M  V30 4350 C 394.423 1.76394 -0.986382 0
M  V30 4351 C 394.744 1.88883 0.484567 0
M  V30 4352 O 394.014 1.41843 1.3512 0
M  V30 4353 H 392.594 0.65344 -0.361975 0
M  V30 4354 H 395.256 1.248 -1.49703 0
M  V30 4355 H 394.352 2.77424 -1.42978 0
M  V30 4356 N 394.653 0.992116 1.22453 0
M  V30 4357 C 396.069 0.702713 1.43297 0
M  V30 4358 C 396.269 -0.726909 1.87932 0
M  V30 4359 O 395.325 -1.49792 2.0327 0
M  V30 4360 C 396.638 1.70762 2.47509 0
M  V30 4361 C 398.186 1.72298 2.61309 0
M  V30 4362 C 398.661 2.71649 3.68742 0
M  V30 4363 N 400.152 2.70239 3.76199 0
M  V30 4364 C 400.887 3.43778 4.58917 0
M  V30 4365 N 400.383 4.26914 5.45633 0
M  V30 4366 N 402.176 3.32487 4.5322 0
M  V30 4367 H 394.327 1.91543 0.917871 0
M  V30 4368 H 396.59 0.826031 0.465162 0
M  V30 4369 H 396.296 2.73059 2.21657 0
M  V30 4370 H 396.17 1.49985 3.46099 0
M  V30 4371 H 398.557 0.706989 2.86506 0
M  V30 4372 H 398.638 1.97143 1.62997 0
M  V30 4373 H 398.282 3.73397 3.44292 0
M  V30 4374 H 398.212 2.44074 4.66622 0
M  V30 4375 H 400.703 2.09912 3.14237 0
M  V30 4376 H 401.016 4.79855 6.05771 0
M  V30 4377 H 399.361 4.31002 5.45218 0
M  V30 4378 H 402.552 2.6698 3.84499 0
M  V30 4379 H 402.725 3.90058 5.17454 0
M  V30 4380 N 396.131 -1.37776 0.765217 0
M  V30 4381 C 397.359 -2.04124 0.337767 0
M  V30 4382 C 397.774 -1.57715 -1.03785 0
M  V30 4383 O 397.131 -0.755447 -1.6613 0
M  V30 4384 C 397.182 -3.59658 0.364442 0
M  V30 4385 O 396.903 -4.04367 1.68579 0
M  V30 4386 C 398.404 -4.43236 -0.0754221 0
M  V30 4387 H 395.624 -0.655696 0.142491 0
M  V30 4388 H 398.168 -1.76238 1.03732 0
M  V30 4389 H 396.323 -3.86339 -0.286471 0
M  V30 4390 H 396.737 -4.98857 1.61993 0
M  V30 4391 H 398.211 -5.52 -0.00560067 0
M  V30 4392 H 398.688 -4.2455 -1.12491 0
M  V30 4393 H 399.294 -4.21767 0.547055 0
M  V30 4394 N 397.609 -0.515225 -1.4894 0
M  V30 4395 C 398.539 0.244628 -2.32215 0
M  V30 4396 C 399.52 0.949136 -1.41157 0
M  V30 4397 O 400.705 0.937783 -1.70057 0
M  V30 4398 C 397.835 1.30096 -3.22013 0
M  V30 4399 C 396.789 0.715486 -4.21977 0
M  V30 4400 C 396.115 1.87339 -5.00808 0
M  V30 4401 C 397.415 -0.302982 -5.2142 0
M  V30 4402 H 399.109 -0.450501 -2.95991 0
M  V30 4403 H 396.655 -0.218098 -1.42339 0
M  V30 4404 H 398.608 1.84037 -3.79089 0
M  V30 4405 H 397.332 2.02547 -2.56207 0
M  V30 4406 H 395.991 0.197715 -3.66066 0
M  V30 4407 H 395.639 2.58592 -4.31438 0
M  V30 4408 H 395.339 1.48764 -5.68457 0
M  V30 4409 H 396.863 2.41686 -5.60732 0
M  V30 4410 H 398.277 0.148802 -5.73107 0
M  V30 4411 H 396.674 -0.60532 -5.97039 0
M  V30 4412 H 397.744 -1.21395 -4.69459 0
M  V30 4413 N 399.087 1.5561 -0.249682 0
M  V30 4414 C 400.017 2.24477 0.642826 0
M  V30 4415 C 400.998 1.22601 1.17911 0
M  V30 4416 O 402.183 1.5126 1.21795 0
M  V30 4417 C 399.313 2.94638 1.83863 0
M  V30 4418 C 398.267 4.03227 1.435 0
M  V30 4419 C 397.593 4.60828 2.71186 0
M  V30 4420 C 398.893 5.18796 0.604002 0
M  V30 4421 H 400.587 2.99321 0.0685625 0
M  V30 4422 H 398.133 1.43965 0.0315363 0
M  V30 4423 H 400.086 3.41517 2.46868 0
M  V30 4424 H 398.81 2.17287 2.43832 0
M  V30 4425 H 397.469 3.57121 0.828275 0
M  V30 4426 H 397.117 3.80174 3.29358 0
M  V30 4427 H 396.817 5.34132 2.44901 0
M  V30 4428 H 398.341 5.10442 3.35084 0
M  V30 4429 H 399.755 5.61883 1.13842 0
M  V30 4430 H 398.152 5.98506 0.437097 0
M  V30 4431 H 399.222 4.83384 -0.383147 0
M  V30 4432 N 400.565 -0.0233959 1.57583 0
M  V30 4433 C 401.811 -0.714119 1.89811 0
M  V30 4434 C 402.144 -1.74702 0.848113 0
M  V30 4435 O 401.419 -1.94023 -0.136135 0
M  V30 4436 C 401.702 -1.37853 3.32669 0
M  V30 4437 C 401.555 -0.358764 4.48367 0
M  V30 4438 C 402.874 -2.31101 3.7454 0
M  V30 4439 H 399.993 -0.25814 0.690314 0
M  V30 4440 H 402.635 0.0230927 1.89986 0
M  V30 4441 H 400.785 -2.00689 3.3265 0
M  V30 4442 H 402.457 0.268115 4.6052 0
M  V30 4443 H 400.7 0.321387 4.32608 0
M  V30 4444 H 401.371 -0.862242 5.45224 0
M  V30 4445 H 403.847 -1.78304 3.75961 0
M  V30 4446 H 402.723 -2.74567 4.75294 0
M  V30 4447 H 402.984 -3.18018 3.0711 0
M  V30 4448 N 402.043 -1.548 -0.295768 0
M  V30 4449 C 403.32 -1.65014 -1.05023 0
M  V30 4450 C 403.7 -0.501805 -2.05049 0
M  V30 4451 O 403.048 0.500869 -2.22943 0
M  V30 4452 C 403.258 -3.03252 -1.72741 0
M  V30 4453 C 404.606 -3.60242 -2.24746 0
M  V30 4454 O 405.63 -3.05737 -1.82765 0
M  V30 4455 O 404.489 -4.55687 -3.01681 0
M  V30 4456 H 401.583 -0.669314 -0.485744 0
M  V30 4457 H 404.129 -1.67144 -0.293438 0
M  V30 4458 H 402.901 -3.7827 -1.00138 0
M  V30 4459 H 402.524 -3.04922 -2.55163 0
M  V30 4460 N 403.521 0.559213 -1.47345 0
M  V30 4461 C 404.769 1.31388 -1.53563 0
M  V30 4462 C 405.09 1.93985 -0.198678 0
M  V30 4463 O 404.36 1.79825 0.777167 0
M  V30 4464 H 402.94 0.487901 -0.565652 0
M  V30 4465 H 405.602 0.65315 -1.8363 0
M  V30 4466 H 404.698 2.10844 -2.30111 0
M  V30 4467 N 404.999 1.35443 0.805782 0
M  V30 4468 C 406.246 1.28761 1.56291 0
M  V30 4469 C 406.574 -0.137747 1.94012 0
M  V30 4470 O 405.829 -1.1032 1.61642 0
M  V30 4471 C 406.128 2.14045 2.86216 0
M  V30 4472 C 405.794 3.62826 2.67709 0
M  V30 4473 C 404.456 4.0338 2.6237 0
M  V30 4474 C 406.808 4.57227 2.50186 0
M  V30 4475 C 404.136 5.36501 2.37451 0
M  V30 4476 C 406.488 5.90547 2.26797 0
M  V30 4477 C 405.152 6.30245 2.1988 0
M  V30 4478 H 404.422 0.471171 0.571908 0
M  V30 4479 H 407.069 1.67347 0.930974 0
M  V30 4480 H 405.374 1.68342 3.53791 0
M  V30 4481 H 407.071 2.0621 3.43917 0
M  V30 4482 H 403.661 3.30644 2.72713 0
M  V30 4483 H 407.845 4.2678 2.53323 0
M  V30 4484 H 403.101 5.66259 2.30567 0
M  V30 4485 H 407.275 6.63274 2.12228 0
M  V30 4486 H 404.902 7.33328 2.00333 0
M  V30 4487 N 406.477 -1.02803 1.19454 0
M  V30 4488 C 407.707 -1.79581 1.02149 0
M  V30 4489 C 408.115 -1.84182 -0.432851 0
M  V30 4490 O 407.458 -1.28534 -1.31243 0
M  V30 4491 C 407.52 -3.25993 1.51554 0
M  V30 4492 C 407.184 -3.45025 2.99678 0
M  V30 4493 C 408.181 -3.35175 3.97434 0
M  V30 4494 C 405.866 -3.71212 3.38389 0
M  V30 4495 C 407.86 -3.51238 5.31893 0
M  V30 4496 C 405.547 -3.8692 4.73008 0
M  V30 4497 C 406.545 -3.76936 5.69569 0
M  V30 4498 O 406.233 -3.92179 7.01748 0
M  V30 4499 H 405.965 -0.571962 0.360327 0
M  V30 4500 H 408.519 -1.30367 1.58725 0
M  V30 4501 H 406.749 -3.76235 0.893543 0
M  V30 4502 H 408.438 -3.84368 1.30444 0
M  V30 4503 H 409.204 -3.14895 3.68872 0
M  V30 4504 H 405.083 -3.78075 2.6378 0
M  V30 4505 H 408.627 -3.43362 6.07247 0
M  V30 4506 H 404.524 -4.06699 5.01265 0
M  V30 4507 H 405.292 -4.09265 7.08833 0
M  V30 4508 N 407.956 -0.998596 -1.21925 0
M  V30 4509 C 408.919 -0.558679 -2.22287 0
M  V30 4510 C 409.919 0.361525 -1.56683 0
M  V30 4511 O 411.109 0.152695 -1.73529 0
M  V30 4512 C 408.241 0.18661 -3.40389 0
M  V30 4513 H 409.434 -1.4463 -2.62721 0
M  V30 4514 H 406.987 -0.786413 -1.35075 0
M  V30 4515 H 407.722 1.08996 -3.05435 0
M  V30 4516 H 407.507 -0.474188 -3.89222 0
M  V30 4517 H 408.997 0.482367 -4.14805 0
M  V30 4518 N 409.434 1.37368 -0.772513 0
M  V30 4519 C 410.397 2.28601 -0.165541 0
M  V30 4520 C 411.397 1.48062 0.627238 0
M  V30 4521 O 412.587 1.68268 0.450715 0
M  V30 4522 C 409.719 3.32023 0.772897 0
M  V30 4523 H 410.912 2.83787 -0.969787 0
M  V30 4524 H 408.465 1.46647 -0.540775 0
M  V30 4525 H 409.2 2.81962 1.60212 0
M  V30 4526 H 408.985 3.91555 0.206585 0
M  V30 4527 H 410.475 4.00197 1.19298 0
M  V30 4528 N 410.912 0.523116 1.48665 0
M  V30 4529 C 411.822 -0.247406 2.33292 0
M  V30 4530 C 412.838 -0.945769 1.46052 0
M  V30 4531 O 414.014 -0.922253 1.79043 0
M  V30 4532 C 411.079 -1.28487 3.22012 0
M  V30 4533 C 410.14 -0.597592 4.2512 0
M  V30 4534 C 409.373 -1.58563 5.09601 0
M  V30 4535 O 409.596 -2.81763 4.95949 0
M  V30 4536 O 408.53 -1.12879 5.91221 0
M  V30 4537 H 412.356 0.445869 3.00409 0
M  V30 4538 H 409.941 0.284128 1.46673 0
M  V30 4539 H 411.823 -1.88459 3.7691 0
M  V30 4540 H 410.498 -1.96068 2.57564 0
M  V30 4541 H 409.405 0.0424407 3.74076 0
M  V30 4542 H 410.738 0.0361517 4.92187 0
M  V30 4543 N 412.39 -1.55475 0.257931 0
M  V30 4544 C 413.322 -2.19192 -0.669881 0
M  V30 4545 C 414.335 -1.17148 -1.1305 0
M  V30 4546 O 415.524 -1.43959 -1.05537 0
M  V30 4547 C 412.624 -2.79016 -1.92363 0
M  V30 4548 C 411.797 -4.06586 -1.61265 0
M  V30 4549 C 410.856 -4.50622 -2.7171 0
M  V30 4550 O 409.882 -5.16765 -2.38627 0
M  V30 4551 N 411.084 -4.19325 -4.01431 0
M  V30 4552 H 413.849 -2.99441 -0.124635 0
M  V30 4553 H 411.41 -1.6171 0.0783311 0
M  V30 4554 H 413.402 -3.05427 -2.65511 0
M  V30 4555 H 411.972 -2.0286 -2.37837 0
M  V30 4556 H 411.192 -3.87646 -0.715811 0
M  V30 4557 H 412.48 -4.89737 -1.37967 0
M  V30 4558 H 411.878 -3.66247 -4.31138 0
M  V30 4559 H 410.435 -4.50547 -4.7101 0
M  V30 4560 N 413.868 0.0150385 -1.57593 0
M  V30 4561 C 415.114 0.704043 -1.90187 0
M  V30 4562 C 415.447 1.74249 -0.857366 0
M  V30 4563 O 414.722 1.94092 0.125843 0
M  V30 4564 C 415.005 1.36087 -3.33395 0
M  V30 4565 C 414.858 0.334981 -4.48551 0
M  V30 4566 C 416.177 2.29112 -3.7576 0
M  V30 4567 H 413.296 0.254475 -0.691673 0
M  V30 4568 H 415.938 -0.0331678 -1.89971 0
M  V30 4569 H 414.088 1.98922 -3.3371 0
M  V30 4570 H 415.76 -0.292534 -4.60372 0
M  V30 4571 H 414.003 -0.344325 -4.32431 0
M  V30 4572 H 414.674 0.833316 -5.45674 0
M  V30 4573 H 417.15 1.76308 -3.76902 0
M  V30 4574 H 416.026 2.72043 -4.76743 0
M  V30 4575 H 416.287 3.16385 -3.08793 0
M  V30 4576 N 415.346 1.54954 0.287554 0
M  V30 4577 C 416.276 1.89839 1.35954 0
M  V30 4578 C 417.257 0.758675 1.52244 0
M  V30 4579 O 418.442 1.01557 1.65529 0
M  V30 4580 C 415.572 2.15753 2.72154 0
M  V30 4581 C 414.526 3.3159 2.70614 0
M  V30 4582 C 413.852 3.42952 4.10229 0
M  V30 4583 C 415.152 4.68359 2.31165 0
M  V30 4584 H 416.846 2.79625 1.07007 0
M  V30 4585 H 414.392 1.3454 0.513316 0
M  V30 4586 H 416.345 2.38743 3.47246 0
M  V30 4587 H 415.069 1.22752 3.02654 0
M  V30 4588 H 413.728 3.08545 1.97979 0
M  V30 4589 H 413.376 2.47443 4.37928 0
M  V30 4590 H 413.076 4.20826 4.10097 0
M  V30 4591 H 414.6 3.68218 4.87081 0
M  V30 4592 H 416.014 4.9099 2.95976 0
M  V30 4593 H 414.411 5.49044 2.42221 0
M  V30 4594 H 415.481 4.68165 1.26291 0
M  V30 4595 N 416.824 -0.551391 1.4764 0
M  V30 4596 C 417.756 -1.67333 1.56628 0
M  V30 4597 C 418.769 -1.56398 0.452045 0
M  V30 4598 O 419.958 -1.6325 0.721926 0
M  V30 4599 C 417.058 -3.05841 1.45994 0
M  V30 4600 C 416.231 -3.42472 2.72088 0
M  V30 4601 C 415.29 -4.60168 2.55209 0
M  V30 4602 O 414.316 -4.64458 3.2904 0
M  V30 4603 N 415.518 -5.57024 1.63416 0
M  V30 4604 H 418.283 -1.60066 2.53375 0
M  V30 4605 H 415.844 -0.738169 1.44093 0
M  V30 4606 H 417.836 -3.8242 1.32428 0
M  V30 4607 H 416.406 -3.07302 0.573071 0
M  V30 4608 H 415.626 -2.55284 3.00373 0
M  V30 4609 H 416.914 -3.63723 3.55785 0
M  V30 4610 H 416.312 -5.56319 1.02594 0
M  V30 4611 H 414.869 -6.32906 1.558 0
M  V30 4612 N 418.302 -1.35869 -0.798587 0
M  V30 4613 C 419.249 -1.29446 -1.91082 0
M  V30 4614 C 420.219 -0.16487 -1.6528 0
M  V30 4615 O 421.404 -0.349888 -1.87564 0
M  V30 4616 C 418.544 -1.0804 -3.27752 0
M  V30 4617 C 417.657 -2.29993 -3.65687 0
M  V30 4618 C 416.792 -2.01673 -4.91428 0
M  V30 4619 C 415.831 -3.19636 -5.22015 0
M  V30 4620 N 414.968 -2.91039 -6.38937 0
M  V30 4621 H 419.808 -2.24553 -1.95907 0
M  V30 4622 H 417.345 -1.11615 -0.958148 0
M  V30 4623 H 419.303 -0.936586 -4.06551 0
M  V30 4624 H 417.933 -0.16592 -3.22373 0
M  V30 4625 H 416.985 -2.55211 -2.82085 0
M  V30 4626 H 418.297 -3.18052 -3.84245 0
M  V30 4627 H 417.451 -1.84168 -5.78072 0
M  V30 4628 H 416.19 -1.10911 -4.74921 0
M  V30 4629 H 415.195 -3.37709 -4.33858 0
M  V30 4630 H 416.42 -4.11211 -5.40447 0
M  V30 4631 H 414.366 -2.0288 -6.2384 0
M  V30 4632 H 414.283 -3.72635 -6.57784 0
M  V30 4633 H 415.551 -2.77093 -7.28587 0
M  V30 4634 N 419.78 1.02168 -1.19998 0
M  V30 4635 C 420.743 2.08765 -0.94604 0
M  V30 4636 C 421.743 1.60618 0.0763846 0
M  V30 4637 O 422.933 1.73472 -0.159135 0
M  V30 4638 C 420.065 3.38262 -0.423255 0
M  V30 4639 H 421.258 2.32726 -1.89153 0
M  V30 4640 H 418.811 1.1889 -1.01464 0
M  V30 4641 H 419.546 3.19974 0.527938 0
M  V30 4642 H 419.331 3.74532 -1.16053 0
M  V30 4643 H 420.821 4.16759 -0.264911 0
M  V30 4644 N 421.258 1.00505 1.21394 0
M  V30 4645 C 422.669 0.721082 1.72213 0
M  V30 4646 C 423.02 -0.761263 1.80829 0
M  V30 4647 O 422.145 -1.59464 1.46288 0
M  V30 4648 C 422.74 1.30228 3.12772 0
M  V30 4649 C 421.299 1.06743 3.60947 0
M  V30 4650 C 420.446 1.41507 2.38477 0
M  V30 4651 H 423.397 1.17594 1.06571 0
M  V30 4652 H 423.418 0.686955 3.74247 0
M  V30 4653 H 422.93 2.38115 3.06468 0
M  V30 4654 H 421.031 0.00572162 3.726 0
M  V30 4655 H 421.144 1.73936 4.46411 0
M  V30 4656 H 419.508 0.833852 2.40664 0
M  V30 4657 H 420.291 2.50424 2.34824 0
M  V30 4658 N 422.737 -1.36956 0.779787 0
M  V30 4659 C 423.647 -2.33965 0.172491 0
M  V30 4660 C 424.663 -1.60574 -0.670222 0
M  V30 4661 O 425.839 -1.92617 -0.588263 0
M  V30 4662 C 422.904 -3.39761 -0.690173 0
M  V30 4663 C 421.965 -4.28964 0.169924 0
M  V30 4664 C 421.198 -5.29707 -0.651662 0
M  V30 4665 O 421.421 -5.38238 -1.88827 0
M  V30 4666 O 420.355 -6.01873 -0.0566264 0
M  V30 4667 H 424.181 -2.87647 0.974321 0
M  V30 4668 H 421.766 -1.39258 0.541078 0
M  V30 4669 H 423.648 -4.04471 -1.1824 0
M  V30 4670 H 422.323 -2.88394 -1.47006 0
M  V30 4671 H 421.23 -3.67326 0.708696 0
M  V30 4672 H 422.563 -4.83656 0.913085 0
M  V30 4673 N 424.215 -0.530993 -1.48385 0
M  V30 4674 C 425.125 0.23503 -2.3342 0
M  V30 4675 C 426.141 0.93801 -1.46552 0
M  V30 4676 O 427.317 0.912745 -1.7953 0
M  V30 4677 C 424.382 1.26778 -3.22689 0
M  V30 4678 C 423.443 0.575038 -4.25431 0
M  V30 4679 C 422.676 1.55858 -5.10435 0
M  V30 4680 O 422.899 2.79129 -4.97437 0
M  V30 4681 O 421.833 1.09742 -5.91811 0
M  V30 4682 H 425.659 -0.461794 -3.00169 0
M  V30 4683 H 423.244 -0.291903 -1.46521 0
M  V30 4684 H 425.126 1.86457 -3.77904 0
M  V30 4685 H 423.801 1.94699 -2.586 0
M  V30 4686 H 422.708 -0.0622782 -3.74048 0
M  V30 4687 H 424.041 -0.062253 -4.92161 0
M  V30 4688 N 425.693 1.55336 -0.266172 0
M  V30 4689 C 426.94 1.99397 0.353158 0
M  V30 4690 C 427.268 1.15451 1.56529 0
M  V30 4691 O 426.523 0.209974 1.9457 0
M  V30 4692 C 426.822 3.48606 0.787957 0
M  V30 4693 C 426.488 4.49773 -0.318541 0
M  V30 4694 C 425.15 4.77158 -0.62239 0
M  V30 4695 C 427.502 5.10212 -1.06459 0
M  V30 4696 C 424.83 5.62251 -1.67602 0
M  V30 4697 C 427.182 5.96449 -2.10788 0
M  V30 4698 C 425.846 6.22158 -2.41817 0
M  V30 4699 H 425.116 0.729644 0.12923 0
M  V30 4700 H 427.763 1.87732 -0.37802 0
M  V30 4701 H 426.068 3.57701 1.59866 0
M  V30 4702 H 427.765 3.80098 1.27775 0
M  V30 4703 H 424.355 4.2854 -0.0715925 0
M  V30 4704 H 428.539 4.89086 -0.843098 0
M  V30 4705 H 423.795 5.80419 -1.92155 0
M  V30 4706 H 427.969 6.42317 -2.69076 0
M  V30 4707 H 425.596 6.87888 -3.23596 0
M  V30 4708 N 427.171 -0.0066808 1.57599 0
M  V30 4709 C 428.081 -1.01671 2.11424 0
M  V30 4710 C 429.097 -1.38143 1.05795 0
M  V30 4711 O 430.273 -1.47011 1.37658 0
M  V30 4712 C 427.338 -2.29192 2.60139 0
M  V30 4713 C 426.399 -1.99094 3.80342 0
M  V30 4714 C 425.632 -3.20535 4.26724 0
M  V30 4715 O 425.855 -4.3199 3.72479 0
M  V30 4716 O 424.789 -3.04924 5.18946 0
M  V30 4717 H 428.615 -0.589181 2.9793 0
M  V30 4718 H 426.2 -0.225091 1.47695 0
M  V30 4719 H 428.082 -3.0412 2.917 0
M  V30 4720 H 426.757 -2.71195 1.76733 0
M  V30 4721 H 425.664 -1.21663 3.53764 0
M  V30 4722 H 426.997 -1.61931 4.648 0
M  V30 4723 N 428.649 -1.55105 -0.279332 0
M  V30 4724 C 429.579 -1.90557 -1.34945 0
M  V30 4725 C 430.56 -0.766738 -1.51839 0
M  V30 4726 O 431.745 -1.02434 -1.64988 0
M  V30 4727 C 428.875 -2.17193 -2.71006 0
M  V30 4728 C 427.829 -3.33021 -2.68851 0
M  V30 4729 C 427.155 -3.45123 -4.08405 0
M  V30 4730 C 428.455 -4.69578 -2.28678 0
M  V30 4731 H 430.149 -2.80188 -1.05522 0
M  V30 4732 H 427.695 -1.34811 -0.506173 0
M  V30 4733 H 429.648 -2.40581 -3.45975 0
M  V30 4734 H 428.372 -1.24355 -3.01999 0
M  V30 4735 H 427.031 -3.0959 -1.9634 0
M  V30 4736 H 426.679 -2.49762 -4.3661 0
M  V30 4737 H 426.379 -4.22995 -4.07859 0
M  V30 4738 H 427.903 -3.70796 -4.85121 0
M  V30 4739 H 429.317 -4.92553 -2.93368 0
M  V30 4740 H 427.714 -5.5032 -2.39306 0
M  V30 4741 H 428.784 -4.68828 -1.23807 0
M  V30 4742 N 430.127 0.543554 -1.4793 0
M  V30 4743 C 431.057 1.65888 -1.64327 0
M  V30 4744 C 432.038 1.62818 -0.492383 0
M  V30 4745 O 433.223 1.80226 -0.723338 0
M  V30 4746 C 430.353 3.04506 -1.67013 0
M  V30 4747 C 429.307 3.2243 -2.81466 0
M  V30 4748 C 428.633 4.61972 -2.69233 0
M  V30 4749 C 429.933 3.06496 -4.22915 0
M  V30 4750 H 431.627 1.52421 -2.57698 0
M  V30 4751 H 429.173 0.731849 -1.24016 0
M  V30 4752 H 431.126 3.82391 -1.77074 0
M  V30 4753 H 429.85 3.18964 -0.70212 0
M  V30 4754 H 428.509 2.46957 -2.70938 0
M  V30 4755 H 428.157 4.73247 -1.7043 0
M  V30 4756 H 427.857 4.74911 -3.46025 0
M  V30 4757 H 429.381 5.41974 -2.81242 0
M  V30 4758 H 430.795 3.74186 -4.34348 0
M  V30 4759 H 429.192 3.30938 -5.006 0
M  V30 4760 H 430.262 2.03077 -4.40327 0
M  V30 4761 N 431.605 1.3629 0.791371 0
M  V30 4762 C 432.83 1.33726 1.58531 0
M  V30 4763 C 433.255 -0.0794933 1.87932 0
M  V30 4764 O 432.613 -1.05087 1.47738 0
M  V30 4765 C 432.661 2.16425 2.88431 0
M  V30 4766 O 431.765 1.5554 3.81944 0
M  V30 4767 H 431.106 0.457793 0.480959 0
M  V30 4768 H 433.636 1.79547 0.981031 0
M  V30 4769 H 433.646 2.28933 3.37718 0
M  V30 4770 H 432.321 3.19415 2.66359 0
M  V30 4771 H 430.898 1.51961 3.40532 0
M  V30 4772 N 433.083 -1.0153 1.20538 0
M  V30 4773 C 434.03 -2.10098 0.955383 0
M  V30 4774 C 435 -1.65702 -0.114878 0
M  V30 4775 O 436.185 -1.90776 0.0301118 0
M  V30 4776 C 433.325 -3.41236 0.514969 0
M  V30 4777 C 432.438 -3.99102 1.65353 0
M  V30 4778 C 431.573 -5.18306 1.16329 0
M  V30 4779 C 430.612 -5.68258 2.27485 0
M  V30 4780 N 429.749 -6.78722 1.7967 0
M  V30 4781 H 434.589 -2.30818 1.88486 0
M  V30 4782 H 432.126 -1.13189 0.939499 0
M  V30 4783 H 434.084 -4.16504 0.240935 0
M  V30 4784 H 432.714 -3.20585 -0.377512 0
M  V30 4785 H 431.766 -3.20918 2.04245 0
M  V30 4786 H 433.078 -4.32177 2.49047 0
M  V30 4787 H 432.232 -6.00782 0.845302 0
M  V30 4788 H 430.971 -4.86799 0.296254 0
M  V30 4789 H 429.976 -4.84385 2.60099 0
M  V30 4790 H 431.201 -6.01798 3.14667 0
M  V30 4791 H 429.147 -6.49042 0.95295 0
M  V30 4792 H 429.064 -7.10996 2.56944 0
M  V30 4793 H 430.332 -7.64759 1.50875 0
M  V30 4794 N 434.561 -1.01147 -1.20859 0
M  V30 4795 C 435.807 -0.698899 -1.90377 0
M  V30 4796 C 436.14 0.76904 -1.78324 0
M  V30 4797 O 435.415 1.55817 -1.16409 0
M  V30 4798 C 435.698 -1.12878 -3.41951 0
M  V30 4799 C 435.551 -2.65665 -3.62963 0
M  V30 4800 C 436.87 -0.696114 -4.3456 0
M  V30 4801 H 433.989 -0.255372 -0.691342 0
M  V30 4802 H 436.631 -1.25831 -1.42361 0
M  V30 4803 H 434.781 -0.652827 -3.82976 0
M  V30 4804 H 436.453 -3.21074 -3.31224 0
M  V30 4805 H 434.696 -3.06878 -3.06608 0
M  V30 4806 H 435.367 -2.90797 -4.69192 0
M  V30 4807 H 437.843 -1.10521 -4.01154 0
M  V30 4808 H 436.719 -1.025 -5.39245 0
M  V30 4809 H 436.98 0.402465 -4.40264 0
M  V30 4810 N 436.039 1.36541 -0.78704 0
M  V30 4811 C 437.45 1.81873 -0.421807 0
M  V30 4812 C 437.801 1.65487 1.05397 0
M  V30 4813 O 436.926 1.17448 1.81755 0
M  V30 4814 C 437.521 3.30192 -0.758841 0
M  V30 4815 C 436.08 3.73743 -0.446468 0
M  V30 4816 C 435.227 2.58844 -0.994728 0
M  V30 4817 H 438.178 1.24796 -0.98039 0
M  V30 4818 H 438.199 3.80468 -0.0490648 0
M  V30 4819 H 437.711 3.42087 -1.83299 0
M  V30 4820 H 435.812 3.6741 0.619739 0
M  V30 4821 H 435.925 4.69272 -0.965415 0
M  V30 4822 H 434.289 2.51245 -0.418087 0
M  V30 4823 H 435.072 2.73525 -2.07458 0
M  V30 4824 N 437.518 0.538854 1.48102 0
M  V30 4825 C 438.448 -0.207654 2.32575 0
M  V30 4826 C 439.429 -0.926559 1.4265 0
M  V30 4827 O 440.614 -0.91061 1.71527 0
M  V30 4828 C 437.744 -1.24957 3.24042 0
M  V30 4829 C 436.698 -0.648263 4.23062 0
M  V30 4830 C 436.024 -1.79348 5.03725 0
M  V30 4831 C 437.324 0.385897 5.20872 0
M  V30 4832 H 439.018 0.497534 2.95237 0
M  V30 4833 H 436.564 0.240715 1.41974 0
M  V30 4834 H 438.517 -1.77983 3.81969 0
M  V30 4835 H 437.241 -1.98446 2.59397 0
M  V30 4836 H 435.9 -0.139452 3.66335 0
M  V30 4837 H 435.548 -2.51696 4.35498 0
M  V30 4838 H 435.248 -1.39702 5.70751 0
M  V30 4839 H 436.772 -2.32735 5.64506 0
M  V30 4840 H 438.186 -0.057607 5.73271 0
M  V30 4841 H 436.583 0.700227 5.96001 0
M  V30 4842 H 437.653 1.28848 4.67468 0
M  V30 4843 N 438.996 -1.55193 0.274407 0
M  V30 4844 C 439.943 -2.225 -0.613374 0
M  V30 4845 C 440.913 -1.19823 -1.15029 0
M  V30 4846 O 442.098 -1.48362 -1.19973 0
M  V30 4847 C 439.238 -2.94927 -1.79199 0
M  V30 4848 C 438.351 -4.12322 -1.28899 0
M  V30 4849 C 437.486 -4.72394 -2.42934 0
M  V30 4850 C 436.525 -5.81984 -1.89634 0
M  V30 4851 N 435.662 -6.36123 -2.9714 0
M  V30 4852 H 440.502 -2.97982 -0.032756 0
M  V30 4853 H 438.039 -1.47099 -0.00440146 0
M  V30 4854 H 439.997 -3.35134 -2.48478 0
M  V30 4855 H 438.627 -2.2187 -2.34465 0
M  V30 4856 H 437.679 -3.7724 -0.489327 0
M  V30 4857 H 438.991 -4.91355 -0.858587 0
M  V30 4858 H 438.145 -5.15317 -3.20208 0
M  V30 4859 H 436.884 -3.92636 -2.8929 0
M  V30 4860 H 435.889 -5.38511 -1.1084 0
M  V30 4861 H 437.114 -6.6361 -1.44215 0
M  V30 4862 H 435.06 -5.59259 -3.42878 0
M  V30 4863 H 434.977 -7.10427 -2.58515 0
M  V30 4864 H 436.245 -6.83704 -3.74391 0
M  V30 4865 N 440.474 -0.00167713 -1.576 0
M  V30 4866 C 441.424 0.997744 -2.0501 0
M  V30 4867 C 442.408 1.30214 -0.94515 0
M  V30 4868 O 443.6 1.29284 -1.20891 0
M  V30 4869 C 440.729 2.2892 -2.55833 0
M  V30 4870 C 439.815 2.01437 -3.73208 0
M  V30 4871 N 440.206 1.44119 -4.84833 0
M  V30 4872 C 438.504 2.31571 -3.8117 0
M  V30 4873 C 439.205 1.33145 -5.66257 0
M  V30 4874 N 438.181 1.81763 -5.12312 0
M  V30 4875 H 441.983 0.549098 -2.88725 0
M  V30 4876 H 439.497 0.20398 -1.61114 0
M  V30 4877 H 441.494 3.01361 -2.88075 0
M  V30 4878 H 440.154 2.74436 -1.73537 0
M  V30 4879 H 441.165 1.11978 -5.0565 0
M  V30 4880 H 437.842 2.7995 -3.09732 0
M  V30 4881 H 439.232 0.890567 -6.65972 0
M  V30 4882 N 441.952 1.55251 0.271103 0
M  V30 4883 C 442.862 1.9136 1.35714 0
M  V30 4884 C 443.878 0.811075 1.5394 0
M  V30 4885 O 445.054 1.11031 1.6803 0
M  V30 4886 C 442.119 2.1798 2.69603 0
M  V30 4887 C 441.18 3.4153 2.60107 0
M  V30 4888 C 440.413 3.66871 3.8761 0
M  V30 4889 O 440.636 2.94689 4.8838 0
M  V30 4890 O 439.57 4.60405 3.87699 0
M  V30 4891 H 443.396 2.83815 1.08088 0
M  V30 4892 H 440.981 1.41821 0.469792 0
M  V30 4893 H 442.863 2.36518 3.48765 0
M  V30 4894 H 441.538 1.28708 2.97012 0
M  V30 4895 H 440.445 3.28325 1.79314 0
M  V30 4896 H 441.778 4.31027 2.37647 0
M  V30 4897 N 443.43 -0.535701 1.48216 0
M  V30 4898 C 444.66 -1.3148 1.59363 0
M  V30 4899 C 445.068 -1.8753 0.250844 0
M  V30 4900 O 444.411 -1.66821 -0.769174 0
M  V30 4901 C 444.473 -2.50731 2.57632 0
M  V30 4902 C 444.137 -2.15811 4.02833 0
M  V30 4903 C 445.134 -1.71822 4.90686 0
M  V30 4904 C 442.819 -2.26509 4.48329 0
M  V30 4905 C 444.813 -1.3899 6.22062 0
M  V30 4906 C 442.5 -1.93289 5.79726 0
M  V30 4907 C 443.498 -1.49599 6.66415 0
M  V30 4908 O 443.186 -1.16812 7.95368 0
M  V30 4909 H 442.918 -0.406315 0.540263 0
M  V30 4910 H 445.472 -0.653569 1.94725 0
M  V30 4911 H 443.702 -3.19817 2.1738 0
M  V30 4912 H 445.391 -3.12797 2.58675 0
M  V30 4913 H 446.157 -1.63031 4.56778 0
M  V30 4914 H 442.036 -2.59471 3.81045 0
M  V30 4915 H 445.58 -1.04816 6.89681 0
M  V30 4916 H 441.477 -2.01718 6.13172 0
M  V30 4917 H 442.245 -1.30259 8.08069 0
M  V30 4918 N 444.908 -1.36708 -0.784132 0
M  V30 4919 C 446.157 -1.30559 -1.53744 0
M  V30 4920 C 446.47 0.111374 -1.95283 0
M  V30 4921 O 447.676 0.29527 -2.6989 0
M  V30 4922 C 446.132 -2.29098 -2.77565 0
M  V30 4923 C 445.74 -3.76258 -2.43174 0
M  V30 4924 C 447.484 -2.31936 -3.55536 0
M  V30 4925 C 445.391 -4.6656 -3.63422 0
M  V30 4926 H 444.321 -0.48518 -0.577162 0
M  V30 4927 H 446.972 -1.62101 -0.859981 0
M  V30 4928 H 445.354 -1.90557 -3.47137 0
M  V30 4929 H 446.528 -4.23565 -1.81465 0
M  V30 4930 H 444.843 -3.76246 -1.78403 0
M  V30 4931 H 447.44 -2.9661 -4.44889 0
M  V30 4932 H 447.783 -1.3294 -3.94503 0
M  V30 4933 H 448.316 -2.6912 -2.92949 0
M  V30 4934 H 445.055 -5.66638 -3.29547 0
M  V30 4935 H 444.575 -4.23966 -4.24279 0
M  V30 4936 H 446.254 -4.8309 -4.30387 0
M  V30 4937 N 446.386 1.0089 -1.21074 0
M  V30 4938 C 447.296 2.13039 -0.982425 0
M  V30 4939 C 448.312 1.73881 0.0642161 0
M  V30 4940 O 449.488 2.01012 -0.12496 0
M  V30 4941 C 446.553 3.42377 -0.545803 0
M  V30 4942 C 445.614 3.95731 -1.6642 0
M  V30 4943 C 444.847 5.18896 -1.24832 0
M  V30 4944 O 445.07 5.70273 -0.120265 0
M  V30 4945 O 444.004 5.65597 -2.05873 0
M  V30 4946 H 447.83 2.35175 -1.92163 0
M  V30 4947 H 445.415 1.1142 -0.995285 0
M  V30 4948 H 447.297 4.20244 -0.311912 0
M  V30 4949 H 445.972 3.21639 0.364727 0
M  V30 4950 H 444.879 3.19108 -1.95246 0
M  V30 4951 H 446.212 4.20872 -2.55201 0
M  V30 4952 N 447.864 1.01787 1.20321 0
M  V30 4953 C 449.141 0.622978 1.85414 0
M  V30 4954 C 449.521 -0.898887 1.91006 0
M  V30 4955 O 448.869 -1.79112 1.41884 0
M  V30 4956 C 449.079 1.27226 3.24984 0
M  V30 4957 C 450.427 1.3885 4.01255 0
M  V30 4958 O 451.451 1.22857 3.34342 0
M  V30 4959 O 450.31 1.64705 5.2109 0
M  V30 4960 H 447.404 0.215116 0.798533 0
M  V30 4961 H 449.95 1.11533 1.27901 0
M  V30 4962 H 448.722 2.31209 3.15687 0
M  V30 4963 H 448.345 0.767069 3.90131 0
M  V30 4964 N 449.342 -1.36122 0.79427 0
M  V30 4965 C 450.588 -1.99406 0.369452 0
M  V30 4966 C 450.921 -1.62886 -1.05743 0
M  V30 4967 O 450.196 -0.886053 -1.73145 0
M  V30 4968 C 450.479 -3.56046 0.538833 0
M  V30 4969 C 450.332 -4.02404 2.00976 0
M  V30 4970 C 451.651 -4.40079 -0.0431359 0
M  V30 4971 H 448.77 -0.724397 0.135712 0
M  V30 4972 H 451.412 -1.61461 1.00151 0
M  V30 4973 H 449.562 -3.885 0.000771004 0
M  V30 4974 H 451.234 -3.80415 2.60926 0
M  V30 4975 H 449.477 -3.53765 2.51063 0
M  V30 4976 H 450.148 -5.11344 2.07922 0
M  V30 4977 H 452.624 -4.14013 0.416228 0
M  V30 4978 H 451.5 -5.48799 0.105374 0
M  V30 4979 H 451.761 -4.27264 -1.13571 0
M  V30 4980 N 450.82 -0.546701 -1.47814 0
M  V30 4981 C 452.068 -0.0187037 -2.02091 0
M  V30 4982 C 452.389 1.33168 -1.42447 0
M  V30 4983 O 451.659 1.86619 -0.595839 0
M  V30 4984 H 450.239 -0.00392531 -0.74699 0
M  V30 4985 H 452.901 -0.714327 -1.81338 0
M  V30 4986 H 451.997 0.0772219 -3.12004 0
M  V30 4987 N 452.299 1.55045 -0.282633 0
M  V30 4988 C 453.209 2.26491 0.61147 0
M  V30 4989 C 454.225 1.29348 1.16384 0
M  V30 4990 O 455.401 1.62298 1.19253 0
M  V30 4991 C 452.466 2.97779 1.77563 0
M  V30 4992 C 451.527 4.10418 1.25919 0
M  V30 4993 C 450.76 4.78297 2.36786 0
M  V30 4994 O 450.983 4.45426 3.56303 0
M  V30 4995 O 449.917 5.66089 2.04517 0
M  V30 4996 H 453.743 3.03683 0.0324615 0
M  V30 4997 H 451.328 1.49317 -0.0497576 0
M  V30 4998 H 453.21 3.42554 2.45427 0
M  V30 4999 H 451.885 2.23498 2.34159 0
M  V30 5000 H 450.792 3.70082 0.546797 0
M  V30 5001 H 452.125 4.86622 0.738887 0
M  V30 5002 N 453.777 0.010035 1.57597 0
M  V30 5003 C 455.017 -0.677084 1.9286 0
M  V30 5004 C 455.381 -1.70377 0.885192 0
M  V30 5005 O 456.582 -2.44199 1.12339 0
M  V30 5006 C 454.853 -1.29452 3.33132 0
M  V30 5007 S 456.412 -2.00537 3.90295 0
M  V30 5008 H 453.23 -0.223409 0.674989 0
M  V30 5009 H 455.832 0.0691289 1.95378 0
M  V30 5010 H 454.536 -0.534593 4.06903 0
M  V30 5011 H 454.067 -2.07845 3.34012 0
M  V30 5012 H 456.082 -3.28168 3.72183 0
M  V30 5013 N 455.255 -1.55392 -0.262866 0
M  V30 5014 C 456.205 -1.85355 -1.32768 0
M  V30 5015 C 457.189 -0.713188 -1.44231 0
M  V30 5016 O 458.381 -0.974765 -1.47741 0
M  V30 5017 C 455.51 -2.13781 -2.68612 0
M  V30 5018 C 454.596 -3.34104 -2.61219 0
M  V30 5019 N 454.987 -4.53766 -2.2345 0
M  V30 5020 C 453.285 -3.36895 -2.92263 0
M  V30 5021 C 453.986 -5.35877 -2.26298 0
M  V30 5022 N 452.962 -4.74536 -2.65172 0
M  V30 5023 H 456.764 -2.75413 -1.02591 0
M  V30 5024 H 454.278 -1.55405 -0.471503 0
M  V30 5025 H 456.275 -2.33407 -3.45437 0
M  V30 5026 H 454.935 -1.25013 -2.99669 0
M  V30 5027 H 455.946 -4.79682 -1.95258 0
M  V30 5028 H 452.623 -2.58351 -3.27965 0
M  V30 5029 H 454.013 -6.41577 -1.99572 0
M  V30 5030 N 456.733 0.527833 -1.48498 0
M  V30 5031 C 457.681 1.65313 -1.63628 0
M  V30 5032 C 458.675 1.6177 -0.502676 0
M  V30 5033 O 459.881 1.66601 -0.681469 0
M  V30 5034 H 456.256 0.547518 -0.515488 0
M  V30 5035 H 458.227 1.49696 -2.58135 0
M  V30 5036 C 456.976 3.03576 -1.6952 0
M  V30 5037 H 456.299 3.06997 -2.56111 0
M  V30 5038 H 457.739 3.81923 -1.84149 0
M  V30 5039 C 456.198 3.34089 -0.43432 0
M  V30 5040 O 456.728 3.99151 0.451852 0
M  V30 5041 N 454.934 2.88991 -0.305368 0
M  V30 5042 H 454.481 2.36222 -1.02747 0
M  V30 5043 H 454.439 3.09776 0.537249 0
M  V30 5044 N 458.211 1.37122 0.776871 0
M  V30 5045 C 459.161 1.28989 1.88005 0
M  V30 5046 C 460.145 0.178765 1.59904 0
M  V30 5047 O 461.337 0.412705 1.72121 0
M  V30 5048 C 458.466 1.09402 3.25402 0
M  V30 5049 C 457.552 2.25036 3.59471 0
M  V30 5050 N 457.943 3.50407 3.64759 0
M  V30 5051 C 456.241 2.17078 3.89607 0
M  V30 5052 C 456.942 4.26628 3.95428 0
M  V30 5053 N 455.918 3.55709 4.11062 0
M  V30 5054 H 459.72 2.2394 1.90337 0
M  V30 5055 H 457.234 1.30021 0.973052 0
M  V30 5056 H 459.231 1.01661 4.04315 0
M  V30 5057 H 457.891 0.153632 3.24336 0
M  V30 5058 H 458.902 3.8438 3.47091 0
M  V30 5059 H 455.579 1.31067 3.96393 0
M  V30 5060 H 456.969 5.35107 4.06338 0
M  V30 5061 N 459.689 -1.00246 1.21608 0
M  V30 5062 C 460.622 -2.08794 0.920892 0
M  V30 5063 C 461.6 -1.62059 -0.132552 0
M  V30 5064 O 462.784 -1.885 -0.0030366 0
M  V30 5065 C 459.911 -3.36525 0.383226 0
M  V30 5066 C 458.957 -4.02172 1.41987 0
M  V30 5067 S 459.79 -4.44256 2.98994 0
M  V30 5068 C 460.946 -5.7517 2.4684 0
M  V30 5069 H 461.179 -2.33511 1.8401 0
M  V30 5070 H 458.712 -1.13562 1.04609 0
M  V30 5071 H 460.67 -4.10423 0.0795871 0
M  V30 5072 H 459.331 -3.09854 -0.514711 0
M  V30 5073 H 458.524 -4.94114 0.993335 0
M  V30 5074 H 458.126 -3.34559 1.67171 0
M  V30 5075 H 460.418 -6.51042 1.87484 0
M  V30 5076 H 461.361 -6.22638 3.37235 0
M  V30 5077 H 461.769 -5.32112 1.88461 0
M  V30 5078 N 461.167 -1.02423 -1.1978 0
M  V30 5079 C 462.416 -0.713265 -1.88667 0
M  V30 5080 C 462.729 0.7609 -1.80193 0
M  V30 5081 O 463.935 1.18473 -2.44288 0
M  V30 5082 C 462.391 -1.22545 -3.38394 0
M  V30 5083 C 461.999 -2.72706 -3.55437 0
M  V30 5084 C 463.743 -0.990257 -4.12788 0
M  V30 5085 C 461.65 -3.17367 -4.99031 0
M  V30 5086 H 460.58 -0.263105 -0.706606 0
M  V30 5087 H 463.231 -1.23792 -1.35454 0
M  V30 5088 H 461.613 -0.628732 -3.90977 0
M  V30 5089 H 462.787 -3.37993 -3.13205 0
M  V30 5090 H 461.102 -2.94453 -2.94425 0
M  V30 5091 H 463.699 -1.29926 -5.18675 0
M  V30 5092 H 464.042 0.0730761 -4.16236 0
M  V30 5093 H 464.575 -1.55074 -3.66329 0
M  V30 5094 H 461.314 -4.23009 -5.00743 0
M  V30 5095 H 460.834 -2.56805 -5.42044 0
M  V30 5096 H 462.513 -3.10441 -5.67658 0
M  V30 5097 N 462.645 1.35699 -0.801477 0
M  V30 5098 C 463.893 1.9852 -0.37871 0
M  V30 5099 C 464.214 1.63907 1.05638 0
M  V30 5100 O 463.484 0.919013 1.73006 0
M  V30 5101 H 462.064 0.734322 -0.137042 0
M  V30 5102 H 464.726 1.65697 -1.02619 0
M  V30 5103 H 463.822 3.08382 -0.480284 0
M  V30 5104 N 464.123 0.554532 1.47522 0
M  V30 5105 C 465.372 0.0273458 2.01681 0
M  V30 5106 C 465.685 -1.32962 1.43459 0
M  V30 5107 O 466.891 -1.94657 1.89265 0
M  V30 5108 C 465.347 -0.00159057 3.599 0
M  V30 5109 C 464.955 1.35197 4.27113 0
M  V30 5110 C 466.699 -0.476311 4.21819 0
M  V30 5111 C 464.606 1.28229 5.77331 0
M  V30 5112 H 463.536 0.00645269 0.753972 0
M  V30 5113 H 466.187 0.701985 1.69542 0
M  V30 5114 H 464.569 -0.741821 3.8899 0
M  V30 5115 H 465.743 2.1097 4.09668 0
M  V30 5116 H 464.058 1.76441 3.77171 0
M  V30 5117 H 466.655 -0.5468 5.31897 0
M  V30 5118 H 466.998 -1.4877 3.8881 0
M  V30 5119 H 467.531 0.20898 3.97251 0
M  V30 5120 H 464.27 2.26959 6.14955 0
M  V30 5121 H 463.79 0.566314 5.97121 0
M  V30 5122 H 465.469 0.983226 6.39485 0
M  V30 5123 N 465.601 -1.54893 0.290851 0
M  V30 5124 C 466.849 -1.99538 -0.320756 0
M  V30 5125 C 467.17 -1.18075 -1.55188 0
M  V30 5126 O 466.44 -0.274162 -1.93972 0
M  V30 5127 H 465.02 -0.737052 -0.121507 0
M  V30 5128 H 467.682 -1.90755 0.399832 0
M  V30 5129 H 466.778 -3.06282 -0.599802 0
M  V30 5130 N 467.08 -0.0183926 -1.57589 0
M  V30 5131 C 468.491 0.521927 -1.79256 0
M  V30 5132 C 468.842 1.72885 -0.927636 0
M  V30 5133 O 467.967 2.15978 -0.135091 0
M  V30 5134 C 468.562 0.953632 -3.25102 0
M  V30 5135 C 467.121 1.43913 -3.47801 0
M  V30 5136 C 466.268 0.398837 -2.74417 0
M  V30 5137 H 469.219 -0.244485 -1.56805 0
M  V30 5138 H 469.24 1.81863 -3.34224 0
M  V30 5139 H 468.752 0.0750123 -3.88028 0
M  V30 5140 H 466.853 2.33804 -2.90115 0
M  V30 5141 H 466.966 1.45391 -4.56507 0
M  V30 5142 H 465.33 0.864572 -2.39577 0
M  V30 5143 H 466.113 -0.471132 -3.40052 0
M  V30 5144 N 468.558 1.5553 0.254621 0
M  V30 5145 C 469.804 1.77262 0.985193 0
M  V30 5146 C 470.137 0.582286 1.85265 0
M  V30 5147 O 469.412 -0.419666 1.89919 0
M  V30 5148 C 469.695 3.0881 1.85225 0
M  V30 5149 C 469.548 4.38233 1.0135 0
M  V30 5150 C 470.867 3.3653 2.83612 0
M  V30 5151 H 467.986 0.644906 0.356742 0
M  V30 5152 H 470.628 1.88264 0.256236 0
M  V30 5153 H 468.778 2.99562 2.47376 0
M  V30 5154 H 470.45 4.59463 0.411269 0
M  V30 5155 H 468.693 4.32636 0.317574 0
M  V30 5156 H 469.364 5.26644 1.65379 0
M  V30 5157 H 471.84 3.45691 2.31596 0
M  V30 5158 H 470.716 4.29805 3.41407 0
M  V30 5159 H 470.977 2.57064 3.59681 0
M  V30 5160 N 470.036 -0.519951 1.48776 0
M  V30 5161 C 470.966 -1.63253 1.66945 0
M  V30 5162 C 471.947 -1.62014 0.518224 0
M  V30 5163 O 473.132 -1.79053 0.751919 0
M  V30 5164 C 470.262 -3.0181 1.71836 0
M  V30 5165 C 469.216 -3.17911 2.8656 0
M  V30 5166 C 468.542 -4.5763 2.76548 0
M  V30 5167 C 469.842 -2.99729 4.27738 0
M  V30 5168 H 471.536 -1.48302 2.6009 0
M  V30 5169 H 469.082 -0.712026 1.25165 0
M  V30 5170 H 471.035 -3.79525 1.83135 0
M  V30 5171 H 469.759 -3.17806 0.752775 0
M  V30 5172 H 468.418 -2.42616 2.74833 0
M  V30 5173 H 468.066 -4.70476 1.77937 0
M  V30 5174 H 467.766 -4.69346 3.53536 0
M  V30 5175 H 469.29 -5.37431 2.89828 0
M  V30 5176 H 470.704 -3.67228 4.40246 0
M  V30 5177 H 469.101 -3.22932 5.05801 0
M  V30 5178 H 470.171 -1.96047 4.43502 0
M  V30 5179 N 471.514 -1.37532 -0.769588 0
M  V30 5180 C 472.462 -1.33561 -1.90432 0
M  V30 5181 C 473.456 -0.224027 -1.67912 0
M  V30 5182 O 474.662 -0.392174 -1.75676 0
M  V30 5183 H 471.037 -0.416279 -0.626271 0
M  V30 5184 H 473.008 -2.29348 -1.90899 0
M  V30 5185 C 471.757 -1.16162 -3.27722 0
M  V30 5186 H 471.08 -2.00951 -3.45628 0
M  V30 5187 H 472.52 -1.17434 -4.07413 0
M  V30 5188 C 470.979 0.132583 -3.36639 0
M  V30 5189 O 471.509 1.11539 -3.85904 0
M  V30 5190 N 469.715 0.184013 -2.90017 0
M  V30 5191 H 469.262 -0.616415 -2.50116 0
M  V30 5192 H 469.22 1.04956 -2.96364 0
M  V30 5193 N 472.992 0.995999 -1.22138 0
M  V30 5194 C 474.241 1.72928 -1.03821 0
M  V30 5195 C 474.554 1.90872 0.427444 0
M  V30 5196 O 475.76 2.61496 0.730212 0
M  V30 5197 C 474.216 3.11124 -1.80913 0
M  V30 5198 C 473.824 3.01122 -3.31707 0
M  V30 5199 C 475.568 3.8852 -1.71035 0
M  V30 5200 C 473.475 4.34453 -4.01253 0
M  V30 5201 H 472.405 0.648376 -0.384869 0
M  V30 5202 H 475.056 1.11213 -1.45959 0
M  V30 5203 H 473.438 3.73503 -1.31573 0
M  V30 5204 H 474.612 2.47926 -3.88419 0
M  V30 5205 H 472.927 2.3721 -3.42228 0
M  V30 5206 H 475.524 4.872 -2.20318 0
M  V30 5207 H 475.867 4.1087 -0.670196 0
M  V30 5208 H 476.4 3.32812 -2.17902 0
M  V30 5209 H 473.139 4.17303 -5.05508 0
M  V30 5210 H 472.659 4.87574 -3.49331 0
M  V30 5211 H 474.338 5.03215 -4.06674 0
M  V30 5212 N 474.47 1.03057 1.19235 0
M  V30 5213 C 475.7 0.746613 1.92638 0
M  V30 5214 C 476.108 -0.698708 1.75826 0
M  V30 5215 O 475.451 -1.487 1.07861 0
M  V30 5216 C 475.513 1.02024 3.44719 0
M  V30 5217 C 475.177 2.45745 3.85303 0
M  V30 5218 C 476.174 3.43887 3.8992 0
M  V30 5219 C 473.859 2.8019 4.16892 0
M  V30 5220 C 475.853 4.74529 4.2556 0
M  V30 5221 C 473.54 4.1104 4.52205 0
M  V30 5222 C 474.538 5.0802 4.56513 0
M  V30 5223 O 474.226 6.36527 4.91008 0
M  V30 5224 H 473.958 0.272401 0.618687 0
M  V30 5225 H 476.512 1.37853 1.52269 0
M  V30 5226 H 474.742 0.331184 3.85279 0
M  V30 5227 H 476.431 0.725677 3.9936 0
M  V30 5228 H 477.197 3.18614 3.65664 0
M  V30 5229 H 473.076 2.05382 4.12722 0
M  V30 5230 H 476.62 5.50222 4.28838 0
M  V30 5231 H 472.517 4.36086 4.7592 0
M  V30 5232 H 473.285 6.41025 5.08949 0
M  V30 5233 N 475.948 -1.35272 0.808662 0
M  V30 5234 C 477.359 -1.81179 0.450688 0
M  V30 5235 C 477.71 -1.67143 -1.02751 0
M  V30 5236 O 476.835 -1.20325 -1.79864 0
M  V30 5237 C 477.43 -3.28943 0.811275 0
M  V30 5238 C 475.989 -3.72985 0.505871 0
M  V30 5239 C 475.136 -2.57229 1.03578 0
M  V30 5240 H 478.087 -1.2322 1.00012 0
M  V30 5241 H 478.108 -3.80342 0.109588 0
M  V30 5242 H 477.62 -3.39127 1.88718 0
M  V30 5243 H 475.721 -3.68349 -0.561209 0
M  V30 5244 H 475.834 -4.67677 1.03995 0
M  V30 5245 H 474.198 -2.50548 0.458005 0
M  V30 5246 H 474.981 -2.7019 2.11784 0
M  V30 5247 N 477.426 -0.562348 -1.47226 0
M  V30 5248 C 478.672 -0.0485293 -2.03342 0
M  V30 5249 C 479.027 1.28898 -1.42839 0
M  V30 5250 O 478.32 1.82719 -0.576563 0
M  V30 5251 C 478.514 0.0969817 -3.57268 0
M  V30 5252 C 478.343 -1.22487 -4.32697 0
M  V30 5253 C 477.113 -1.79357 -4.72397 0
M  V30 5254 C 479.311 -2.14332 -4.67511 0
M  V30 5255 N 477.293 -3.05493 -5.32491 0
M  V30 5256 C 478.664 -3.25049 -5.27961 0
M  V30 5257 C 480.719 -2.14263 -4.4944 0
M  V30 5258 C 479.422 -4.35804 -5.72248 0
M  V30 5259 C 481.448 -3.24033 -4.94729 0
M  V30 5260 C 480.81 -4.3347 -5.55233 0
M  V30 5261 H 476.909 -0.0600464 -0.779691 0
M  V30 5262 H 479.493 -0.750769 -1.79643 0
M  V30 5263 H 477.664 0.768353 -3.80724 0
M  V30 5264 H 479.396 0.613333 -4.00025 0
M  V30 5265 H 476.151 -1.33093 -4.54514 0
M  V30 5266 H 476.575 -3.698 -5.67077 0
M  V30 5267 H 481.217 -1.30935 -4.02015 0
M  V30 5268 H 478.935 -5.19888 -6.18661 0
M  V30 5269 H 482.521 -3.25073 -4.82513 0
M  V30 5270 H 481.401 -5.17008 -5.89638 0
M  V30 5271 N 478.904 1.54736 -0.299062 0
M  V30 5272 C 479.852 2.24897 0.593658 0
M  V30 5273 C 480.846 1.25429 1.13859 0
M  V30 5274 O 482.052 1.43286 1.08945 0
M  V30 5275 H 478.427 0.72207 0.210046 0
M  V30 5276 H 480.398 2.98393 -0.0206421 0
M  V30 5277 C 479.147 3.00159 1.75499 0
M  V30 5278 H 478.47 3.76501 1.34489 0
M  V30 5279 H 479.91 3.52535 2.35574 0
M  V30 5280 C 478.369 2.07015 2.65794 0
M  V30 5281 O 478.899 1.63692 3.66835 0
M  V30 5282 N 477.105 1.73012 2.33485 0
M  V30 5283 H 476.652 2.08439 1.51364 0
M  V30 5284 H 476.61 1.10965 2.94167 0
M  V30 5285 N 480.382 0.0267497 1.57577 0
M  V30 5286 C 481.329 -0.955894 2.10075 0
M  V30 5287 C 482.299 -1.32453 1.00226 0
M  V30 5288 O 483.484 -1.41826 1.27632 0
M  V30 5289 C 480.624 -2.2338 2.6305 0
M  V30 5290 C 479.737 -1.92183 3.86898 0
M  V30 5291 C 478.872 -3.14251 4.28275 0
M  V30 5292 C 477.911 -2.78862 5.44888 0
M  V30 5293 N 477.048 -3.93548 5.81433 0
M  V30 5294 H 481.888 -0.501303 2.93753 0
M  V30 5295 H 479.425 -0.235847 1.45197 0
M  V30 5296 H 481.383 -2.98124 2.91853 0
M  V30 5297 H 480.013 -2.6646 1.82205 0
M  V30 5298 H 479.065 -1.07692 3.64838 0
M  V30 5299 H 480.377 -1.62117 4.7172 0
M  V30 5300 H 479.531 -3.97317 4.58502 0
M  V30 5301 H 478.27 -3.47476 3.42215 0
M  V30 5302 H 477.275 -1.94208 5.14357 0
M  V30 5303 H 478.5 -2.46855 6.32645 0
M  V30 5304 H 476.446 -4.2662 4.98328 0
M  V30 5305 H 476.363 -3.67098 6.6089 0
M  V30 5306 H 477.631 -4.77325 6.16264 0
M  V30 5307 N 481.861 -1.55662 -0.24637 0
M  V30 5308 C 482.771 -1.93495 -1.32653 0
M  V30 5309 C 483.787 -0.835462 -1.5263 0
M  V30 5310 O 484.963 -1.1369 -1.66242 0
M  V30 5311 C 482.028 -2.22242 -2.66101 0
M  V30 5312 C 481.089 -3.45625 -2.54641 0
M  V30 5313 C 480.322 -3.72991 -3.81724 0
M  V30 5314 O 480.545 -3.02421 -4.8363 0
M  V30 5315 O 479.479 -4.66515 -3.80325 0
M  V30 5316 H 483.305 -2.85498 -1.03559 0
M  V30 5317 H 480.89 -1.42551 -0.44717 0
M  V30 5318 H 482.772 -2.42037 -3.44958 0
M  V30 5319 H 481.447 -1.33417 -2.94926 0
M  V30 5320 H 480.354 -3.31136 -1.74067 0
M  V30 5321 H 481.687 -4.34754 -2.3076 0
M  V30 5322 N 483.339 0.512053 -1.4905 0
M  V30 5323 C 484.269 1.62365 -1.67809 0
M  V30 5324 C 485.25 1.61737 -0.526809 0
M  V30 5325 O 486.435 1.78651 -0.761404 0
M  V30 5326 C 483.565 3.00895 -1.73435 0
M  V30 5327 C 482.519 3.16387 -2.88242 0
M  V30 5328 C 481.845 4.56157 -2.78971 0
M  V30 5329 C 483.145 2.97457 -4.29321 0
M  V30 5330 H 484.839 1.46921 -2.60873 0
M  V30 5331 H 482.385 0.705379 -1.2554 0
M  V30 5332 H 484.338 3.78549 -1.85145 0
M  V30 5333 H 483.062 3.17403 -0.769619 0
M  V30 5334 H 481.721 2.41155 -2.76116 0
M  V30 5335 H 481.369 4.69525 -1.8043 0
M  V30 5336 H 481.069 4.67465 -3.5602 0
M  V30 5337 H 482.593 5.35886 -2.92675 0
M  V30 5338 H 484.007 3.64888 -4.42187 0
M  V30 5339 H 482.404 3.20245 -5.07507 0
M  V30 5340 H 483.474 1.93692 -4.44535 0
M  V30 5341 N 484.817 1.37938 0.762283 0
M  V30 5342 C 486.047 1.36685 1.54922 0
M  V30 5343 C 486.455 -0.0474099 1.89141 0
M  V30 5344 O 485.798 -1.02213 1.52638 0
M  V30 5345 C 485.86 2.14963 2.88152 0
M  V30 5346 C 485.524 3.6385 2.76518 0
M  V30 5347 C 486.521 4.57531 2.46904 0
M  V30 5348 C 484.206 4.07095 2.94243 0
M  V30 5349 C 486.2 5.92436 2.35156 0
M  V30 5350 C 483.887 5.42083 2.82116 0
M  V30 5351 C 484.885 6.34567 2.52614 0
M  V30 5352 O 484.573 7.67073 2.40529 0
M  V30 5353 H 484.305 0.469586 0.486276 0
M  V30 5354 H 486.859 1.82012 0.951876 0
M  V30 5355 H 485.089 1.6434 3.50042 0
M  V30 5356 H 486.778 2.06224 3.49609 0
M  V30 5357 H 487.544 4.25428 2.32886 0
M  V30 5358 H 483.423 3.35462 3.16206 0
M  V30 5359 H 486.967 6.64591 2.12049 0
M  V30 5360 H 482.864 5.73785 2.95704 0
M  V30 5361 H 483.632 7.77499 2.55807 0
M  V30 5362 N 486.295 -0.989507 1.22664 0
M  V30 5363 C 487.225 -2.09847 1.02404 0
M  V30 5364 C 488.206 -1.70007 -0.0561303 0
M  V30 5365 O 489.391 -1.93906 0.106748 0
M  V30 5366 C 486.521 -3.41996 0.604663 0
M  V30 5367 C 485.475 -3.95699 1.63115 0
M  V30 5368 C 484.801 -5.23936 1.0675 0
M  V30 5369 C 486.101 -4.25999 3.02196 0
M  V30 5370 H 487.795 -2.27054 1.95158 0
M  V30 5371 H 485.341 -1.09111 0.939727 0
M  V30 5372 H 487.294 -4.1899 0.45002 0
M  V30 5373 H 486.018 -3.24626 -0.35855 0
M  V30 5374 H 484.677 -3.2084 1.77362 0
M  V30 5375 H 484.325 -5.02909 0.0955422 0
M  V30 5376 H 484.025 -5.60833 1.75328 0
M  V30 5377 H 485.549 -6.0356 0.924516 0
M  V30 5378 H 486.963 -4.93777 2.91303 0
M  V30 5379 H 485.36 -4.74076 3.67929 0
M  V30 5380 H 486.43 -3.33636 3.51873 0
M  V30 5381 N 487.773 -1.03688 -1.18687 0
M  V30 5382 C 489.022 -0.733235 -1.879 0
M  V30 5383 C 489.335 0.741745 -1.8099 0
M  V30 5384 O 490.541 1.15875 -2.4553 0
M  V30 5385 C 488.997 -1.26127 -3.37076 0
M  V30 5386 C 488.605 -2.76461 -3.52524 0
M  V30 5387 C 490.349 -1.03398 -4.11715 0
M  V30 5388 C 488.256 -3.22642 -4.95637 0
M  V30 5389 H 487.186 -0.270584 -0.703776 0
M  V30 5390 H 489.837 -1.25222 -1.34133 0
M  V30 5391 H 488.219 -0.670165 -3.90288 0
M  V30 5392 H 489.393 -3.41296 -3.09602 0
M  V30 5393 H 487.708 -2.97559 -2.91286 0
M  V30 5394 H 490.305 -1.3542 -5.17267 0
M  V30 5395 H 490.648 0.0289246 -4.1629 0
M  V30 5396 H 491.181 -1.5895 -3.64664 0
M  V30 5397 H 487.92 -4.28296 -4.96228 0
M  V30 5398 H 487.44 -2.62539 -5.39289 0
M  V30 5399 H 489.119 -3.16444 -5.64333 0
M  V30 5400 N 489.251 1.34841 -0.815825 0
M  V30 5401 C 490.667 1.51543 -0.500697 0
M  V30 5402 C 490.867 1.76261 0.976444 0
M  V30 5403 O 489.923 1.8094 1.76117 0
M  V30 5404 C 491.236 2.68487 -1.35407 0
M  V30 5405 C 492.784 2.82368 -1.35046 0
M  V30 5406 C 493.259 4.02347 -2.18816 0
M  V30 5407 N 494.75 4.09542 -2.16402 0
M  V30 5408 C 495.485 5.01517 -2.77971 0
M  V30 5409 N 494.981 5.98763 -3.48503 0
M  V30 5410 N 496.774 4.94334 -2.67563 0
M  V30 5411 H 488.925 1.17055 -1.77234 0
M  V30 5412 H 491.188 0.573481 -0.754866 0
M  V30 5413 H 490.894 2.56829 -2.40274 0
M  V30 5414 H 490.768 3.63321 -1.01377 0
M  V30 5415 H 493.155 2.93471 -0.309604 0
M  V30 5416 H 493.236 1.88363 -1.73069 0
M  V30 5417 H 492.88 3.92004 -3.22948 0
M  V30 5418 H 492.81 4.95551 -1.78148 0
M  V30 5419 H 495.301 3.39932 -1.65091 0
M  V30 5420 H 495.614 6.6556 -3.92747 0
M  V30 5421 H 493.959 5.98909 -3.52609 0
M  V30 5422 H 497.15 4.1732 -2.12041 0
M  V30 5423 H 497.323 5.6582 -3.15834 0
M  V30 5424 N 490.729 0.570148 1.46925 0
M  V30 5425 C 491.959 0.0561151 2.06524 0
M  V30 5426 C 492.367 -1.24874 1.42137 0
M  V30 5427 O 491.71 -1.76292 0.516417 0
M  V30 5428 C 491.772 -0.197035 3.5896 0
M  V30 5429 C 491.436 1.02033 4.45464 0
M  V30 5430 C 492.433 1.92921 4.82781 0
M  V30 5431 C 490.118 1.23864 4.86788 0
M  V30 5432 C 492.112 3.03999 5.60235 0
M  V30 5433 C 489.799 2.35249 5.64004 0
M  V30 5434 C 490.797 3.25146 6.0064 0
M  V30 5435 O 490.485 4.34598 6.76299 0
M  V30 5436 H 490.217 0.0487409 0.674241 0
M  V30 5437 H 492.771 0.786915 1.89728 0
M  V30 5438 H 491.001 -0.982299 3.74016 0
M  V30 5439 H 492.69 -0.658032 4.00531 0
M  V30 5440 H 493.456 1.77265 4.51444 0
M  V30 5441 H 489.335 0.54805 4.57731 0
M  V30 5442 H 492.879 3.74192 5.8875 0
M  V30 5443 H 488.776 2.50873 5.94755 0
M  V30 5444 H 489.544 4.32808 6.94708 0
M  V30 5445 N 492.207 -1.54576 0.307264 0
M  V30 5446 C 493.155 -2.25208 -0.581723 0
M  V30 5447 C 494.149 -1.26031 -1.13192 0
M  V30 5448 O 495.355 -1.43862 -1.08184 0
M  V30 5449 H 491.73 -0.723173 -0.206214 0
M  V30 5450 H 493.701 -2.98378 0.0364663 0
M  V30 5451 C 492.45 -3.01086 -1.73904 0
M  V30 5452 H 491.773 -3.77208 -1.32491 0
M  V30 5453 H 493.213 -3.5378 -2.33701 0
M  V30 5454 C 491.672 -2.08422 -2.64692 0
M  V30 5455 O 492.202 -1.65636 -3.65961 0
M  V30 5456 N 490.408 -1.74247 -2.32564 0
M  V30 5457 H 489.955 -2.09238 -1.50257 0
M  V30 5458 H 489.913 -1.12524 -2.93574 0
M  V30 5459 N 493.685 -0.035106 -1.57561 0
M  V30 5460 C 494.633 0.962707 -2.11742 0
M  V30 5461 C 495.627 1.33296 -1.0454 0
M  V30 5462 O 496.833 1.31449 -1.22968 0
M  V30 5463 H 493.208 0.32826 -0.676572 0
M  V30 5464 H 495.179 0.48048 -2.94506 0
M  V30 5465 C 493.928 2.23388 -2.66445 0
M  V30 5466 H 493.251 1.95774 -3.48587 0
M  V30 5467 H 494.691 2.91402 -3.07995 0
M  V30 5468 C 493.15 2.96769 -1.59467 0
M  V30 5469 O 493.68 3.89105 -0.998 0
M  V30 5470 N 491.886 2.59212 -1.31369 0
M  V30 5471 H 491.433 1.84202 -1.80076 0
M  V30 5472 H 491.391 3.08618 -0.600173 0
M  V30 5473 N 495.163 1.55791 0.238111 0
M  V30 5474 C 496.393 1.81834 0.980809 0
M  V30 5475 C 496.801 0.609741 1.79106 0
M  V30 5476 O 496.144 -0.431073 1.78571 0
M  V30 5477 C 496.206 3.01363 1.96011 0
M  V30 5478 C 495.87 4.37037 1.33597 0
M  V30 5479 C 496.867 5.14692 0.734063 0
M  V30 5480 C 494.552 4.83743 1.3527 0
M  V30 5481 C 496.546 6.37206 0.157208 0
M  V30 5482 C 494.233 6.06204 0.77199 0
M  V30 5483 C 495.231 6.82775 0.175282 0
M  V30 5484 O 494.919 8.02922 -0.396432 0
M  V30 5485 H 494.651 0.6088 0.293834 0
M  V30 5486 H 497.205 2.03702 0.263552 0
M  V30 5487 H 495.435 2.75273 2.71591 0
M  V30 5488 H 497.124 3.14422 2.56697 0
M  V30 5489 H 497.89 4.79722 0.713582 0
M  V30 5490 H 493.769 4.24129 1.80653 0
M  V30 5491 H 497.313 6.96915 -0.30917 0
M  V30 5492 H 493.21 6.4065 0.789828 0
M  V30 5493 H 493.978 8.17989 -0.289145 0
M  V30 5494 N 496.642 -0.504142 1.49319 0
M  V30 5495 C 497.919 -1.26548 1.49147 0
M  V30 5496 C 498.299 -2.09977 0.21744 0
M  V30 5497 O 497.647 -2.14028 -0.800269 0
M  V30 5498 C 497.857 -2.12489 2.76857 0
M  V30 5499 C 499.205 -2.7178 3.26222 0
M  V30 5500 O 500.229 -2.22758 2.77952 0
M  V30 5501 O 499.088 -3.61015 4.10281 0
M  V30 5502 H 496.182 -0.572495 0.596806 0
M  V30 5503 H 498.728 -0.51867 1.61579 0
M  V30 5504 H 497.5 -1.50796 3.61077 0
M  V30 5505 H 497.123 -2.94368 2.6727 0
M  V30 5506 N 498.12 -1.38341 -0.754957 0
M  V30 5507 C 499.536 -1.19508 -1.05783 0
M  V30 5508 C 499.736 -0.0428005 -2.01455 0
M  V30 5509 O 498.792 0.611861 -2.44975 0
M  V30 5510 C 500.105 -2.52091 -1.63923 0
M  V30 5511 C 501.653 -2.58762 -1.76101 0
M  V30 5512 C 502.128 -3.91517 -2.37652 0
M  V30 5513 N 503.619 -3.93049 -2.45085 0
M  V30 5514 C 504.354 -4.9253 -2.93602 0
M  V30 5515 N 503.85 -6.02408 -3.42165 0
M  V30 5516 N 505.643 -4.79921 -2.92629 0
M  V30 5517 H 497.794 -2.1206 -0.120056 0
M  V30 5518 H 500.057 -0.94089 -0.11589 0
M  V30 5519 H 499.763 -3.36858 -1.01093 0
M  V30 5520 H 499.637 -2.70388 -2.63003 0
M  V30 5521 H 502.024 -1.74391 -2.38058 0
M  V30 5522 H 502.105 -2.44333 -0.757294 0
M  V30 5523 H 501.749 -4.76309 -1.76329 0
M  V30 5524 H 501.679 -4.03256 -3.38662 0
M  V30 5525 H 504.17 -3.13685 -2.10736 0
M  V30 5526 H 504.483 -6.74248 -3.77637 0
M  V30 5527 H 502.828 -6.0603 -3.40225 0
M  V30 5528 H 506.019 -3.93194 -2.54001 0
M  V30 5529 H 506.192 -5.57601 -3.30128 0
M  V30 5530 N 499.598 0.982988 -1.23187 0
M  V30 5531 C 500.561 2.05649 -1.01198 0
M  V30 5532 C 501.561 1.6078 0.0252464 0
M  V30 5533 O 502.751 1.72878 -0.214243 0
M  V30 5534 C 499.883 3.36744 -0.530656 0
M  V30 5535 H 501.076 2.2659 -1.96461 0
M  V30 5536 H 498.629 1.15602 -1.05195 0
M  V30 5537 H 499.364 3.21492 0.425873 0
M  V30 5538 H 499.149 3.7065 -1.2791 0
M  V30 5539 H 500.639 4.15705 -0.397366 0
M  V30 5540 N 501.076 1.04316 1.18135 0
M  V30 5541 C 502.322 0.749128 1.88457 0
M  V30 5542 C 502.655 -0.72149 1.803 0
M  V30 5543 O 501.93 -1.52676 1.205 0
M  V30 5544 C 502.213 1.21905 3.38838 0
M  V30 5545 C 502.066 2.75195 3.55792 0
M  V30 5546 C 503.385 0.811085 4.32561 0
M  V30 5547 H 500.504 0.273611 0.684329 0
M  V30 5548 H 503.146 1.29561 1.38975 0
M  V30 5549 H 501.296 0.754137 3.8111 0
M  V30 5550 H 502.968 3.29743 3.22595 0
M  V30 5551 H 501.211 3.14899 2.98364 0
M  V30 5552 H 501.882 3.03135 4.61317 0
M  V30 5553 H 504.358 1.21118 3.98082 0
M  V30 5554 H 503.234 1.16761 5.36338 0
M  V30 5555 H 503.495 -0.285596 4.41177 0
M  V30 5556 N 502.554 -1.34406 0.822964 0
M  V30 5557 C 503.803 -1.97542 0.407458 0
M  V30 5558 C 504.116 -1.65973 -1.035 0
M  V30 5559 O 505.322 -2.22598 -1.55442 0
M  V30 5560 C 503.778 -3.53463 0.677623 0
M  V30 5561 C 503.386 -3.93925 2.1337 0
M  V30 5562 C 505.13 -4.23229 0.328284 0
M  V30 5563 C 503.037 -5.42759 2.34876 0
M  V30 5564 H 501.967 -0.739207 0.148623 0
M  V30 5565 H 504.618 -1.53248 1.00932 0
M  V30 5566 H 503 -3.96 0.00558965 0
M  V30 5567 H 504.174 -3.62494 2.8449 0
M  V30 5568 H 502.489 -3.37097 2.44448 0
M  V30 5569 H 505.086 -5.32659 0.466794 0
M  V30 5570 H 505.429 -4.09899 -0.727224 0
M  V30 5571 H 505.962 -3.86169 0.954896 0
M  V30 5572 H 502.701 -5.61075 3.38932 0
M  V30 5573 H 502.221 -5.75704 1.68299 0
M  V30 5574 H 503.9 -6.0944 2.17236 0
M  V30 5575 N 504.032 -0.577932 -1.46621 0
M  V30 5576 C 504.98 0.170882 -2.31971 0
M  V30 5577 C 505.974 0.889086 -1.44193 0
M  V30 5578 O 507.18 0.808017 -1.60845 0
M  V30 5579 H 503.555 0.0739763 -0.748353 0
M  V30 5580 H 505.526 -0.567856 -2.92947 0
M  V30 5581 C 504.275 1.17438 -3.27267 0
M  V30 5582 H 503.598 0.63116 -3.94787 0
M  V30 5583 H 505.038 1.66882 -3.89778 0
M  V30 5584 C 503.497 2.23292 -2.52274 0
M  V30 5585 O 504.027 3.30567 -2.28229 0
M  V30 5586 N 502.233 1.97772 -2.12919 0
M  V30 5587 H 501.78 1.10545 -2.32675 0
M  V30 5588 H 501.738 2.68809 -1.63062 0
M  V30 5589 N 505.51 1.54411 -0.315457 0
M  V30 5590 C 506.738 2.04833 0.291738 0
M  V30 5591 C 507.153 1.19203 1.46411 0
M  V30 5592 O 506.51 0.220867 1.81159 0
M  V30 5593 C 506.561 3.53969 0.73404 0
M  V30 5594 O 506.282 4.36346 -0.391682 0
M  V30 5595 C 507.783 4.2045 1.40489 0
M  V30 5596 H 505.003 0.668195 0.0612947 0
M  V30 5597 H 507.547 1.99276 -0.45929 0
M  V30 5598 H 505.702 3.5984 1.43506 0
M  V30 5599 H 506.116 5.24481 -0.0447088 0
M  V30 5600 H 507.59 5.26278 1.66539 0
M  V30 5601 H 508.067 3.71067 2.3496 0
M  V30 5602 H 508.673 4.18694 0.746662 0
M  V30 5603 N 506.988 0.0434614 1.5754 0
M  V30 5604 C 508.234 -0.632971 1.92669 0
M  V30 5605 C 508.567 -1.70947 0.921446 0
M  V30 5606 O 507.842 -1.94426 -0.0537202 0
M  V30 5607 C 508.125 -1.23619 3.38216 0
M  V30 5608 C 507.978 -0.168274 4.49485 0
M  V30 5609 C 509.297 -2.15008 3.84005 0
M  V30 5610 H 506.416 -0.228629 0.700641 0
M  V30 5611 H 509.058 0.103651 1.89717 0
M  V30 5612 H 507.208 -1.864 3.40863 0
M  V30 5613 H 508.88 0.463196 4.58969 0
M  V30 5614 H 507.123 0.504581 4.30855 0
M  V30 5615 H 507.794 -0.630218 5.48391 0
M  V30 5616 H 510.27 -1.62198 3.83185 0
M  V30 5617 H 509.146 -2.54161 4.86511 0
M  V30 5618 H 509.407 -3.04707 3.20322 0
M  V30 5619 N 508.466 -1.55915 -0.229846 0
M  V30 5620 C 509.877 -1.68809 -0.797531 0
M  V30 5621 C 510.228 -0.643995 -1.8533 0
M  V30 5622 O 509.353 0.206492 -2.15413 0
M  V30 5623 C 509.948 -3.06043 -1.45338 0
M  V30 5624 C 508.507 -3.20819 -1.96856 0
M  V30 5625 C 507.654 -2.6472 -0.825736 0
M  V30 5626 H 510.605 -1.58699 -0.00533733 0
M  V30 5627 H 510.626 -3.01438 -2.32196 0
M  V30 5628 H 510.138 -3.82012 -0.684743 0
M  V30 5629 H 508.239 -2.49704 -2.76548 0
M  V30 5630 H 508.352 -4.27937 -2.15423 0
M  V30 5631 H 506.716 -2.22985 -1.23084 0
M  V30 5632 H 507.499 -3.43229 -0.0699019 0
M  V30 5633 N 509.944 0.496216 -1.49584 0
M  V30 5634 C 511.174 1.27209 -1.62793 0
M  V30 5635 C 511.582 1.86799 -0.300476 0
M  V30 5636 O 510.925 1.68802 0.724674 0
M  V30 5637 C 510.987 2.43812 -2.64189 0
M  V30 5638 C 510.651 2.05055 -4.08414 0
M  V30 5639 C 511.648 1.58752 -4.9507 0
M  V30 5640 C 509.333 2.14543 -4.54177 0
M  V30 5641 C 511.327 1.22448 -6.25528 0
M  V30 5642 C 509.014 1.77851 -5.84647 0
M  V30 5643 C 510.012 1.31878 -6.70147 0
M  V30 5644 O 509.7 0.956834 -7.98185 0
M  V30 5645 H 509.432 0.391848 -0.550846 0
M  V30 5646 H 511.986 0.601712 -1.96389 0
M  V30 5647 H 510.216 3.13941 -2.25783 0
M  V30 5648 H 511.905 3.05829 -2.66877 0
M  V30 5649 H 512.671 1.50863 -4.60939 0
M  V30 5650 H 508.55 2.49277 -3.87791 0
M  V30 5651 H 512.094 0.864933 -6.92217 0
M  V30 5652 H 507.991 1.8539 -6.18305 0
M  V30 5653 H 508.759 1.08789 -8.11238 0
M  V30 5654 N 511.423 1.38739 0.74761 0
M  V30 5655 C 512.7 1.25791 1.49786 0
M  V30 5656 C 513.08 -0.138075 2.10648 0
M  V30 5657 O 512.428 -1.14815 1.9756 0
M  V30 5658 C 512.638 2.37265 2.55942 0
M  V30 5659 C 513.986 2.75978 3.22679 0
M  V30 5660 O 515.01 2.36621 2.6625 0
M  V30 5661 O 513.869 3.43867 4.24756 0
M  V30 5662 H 510.963 0.492251 0.664543 0
M  V30 5663 H 513.509 1.50582 0.782511 0
M  V30 5664 H 512.281 3.30644 2.0926 0
M  V30 5665 H 511.904 2.14071 3.35051 0
M  V30 5666 N 512.901 -0.976442 1.23707 0
M  V30 5667 C 514.147 -1.72081 1.07312 0
M  V30 5668 C 514.48 -1.90275 -0.388476 0
M  V30 5669 O 513.755 -1.4579 -1.28746 0
M  V30 5670 C 514.038 -3.11675 1.80363 0
M  V30 5671 C 513.891 -3.01027 3.3422 0
M  V30 5672 C 515.21 -4.1117 1.5693 0
M  V30 5673 H 512.329 -0.624583 0.391236 0
M  V30 5674 H 514.971 -1.13649 1.52263 0
M  V30 5675 H 513.121 -3.61559 1.42153 0
M  V30 5676 H 514.793 -2.58637 3.81975 0
M  V30 5677 H 513.036 -2.3744 3.63049 0
M  V30 5678 H 513.707 -3.9988 3.80525 0
M  V30 5679 H 516.183 -3.7011 1.90151 0
M  V30 5680 H 515.059 -5.06928 2.10513 0
M  V30 5681 H 515.32 -4.392 0.505548 0
M  V30 5682 N 514.379 -1.04941 -1.1758 0
M  V30 5683 C 515.625 -0.759112 -1.88057 0
M  V30 5684 C 515.958 0.711918 -1.8068 0
M  V30 5685 O 515.233 1.52035 -1.21308 0
M  V30 5686 C 515.516 -1.237 -3.38187 0
M  V30 5687 C 515.369 -2.77078 -3.54327 0
M  V30 5688 C 516.688 -0.834014 -4.32125 0
M  V30 5689 H 513.807 -0.277237 -0.682868 0
M  V30 5690 H 516.449 -1.30296 -1.38286 0
M  V30 5691 H 514.599 -0.774337 -3.80705 0
M  V30 5692 H 516.271 -3.31449 -3.20842 0
M  V30 5693 H 514.514 -3.16477 -2.96689 0
M  V30 5694 H 515.185 -3.05577 -4.59703 0
M  V30 5695 H 517.661 -1.23228 -3.97434 0
M  V30 5696 H 516.537 -1.19603 -5.35711 0
M  V30 5697 H 516.798 0.262195 -4.41322 0
M  V30 5698 N 515.857 1.33968 -0.830081 0
M  V30 5699 C 516.807 2.26845 -0.229242 0
M  V30 5700 C 517.791 1.48862 0.610659 0
M  V30 5701 O 518.983 1.70808 0.464067 0
M  V30 5702 C 516.112 3.3798 0.602057 0
M  V30 5703 C 515.198 4.23369 -0.248866 0
M  V30 5704 N 515.589 4.88182 -1.32334 0
M  V30 5705 C 513.887 4.45987 -0.0344077 0
M  V30 5706 C 514.588 5.51671 -1.84482 0
M  V30 5707 N 513.564 5.31348 -1.14762 0
M  V30 5708 H 517.366 2.74464 -1.05104 0
M  V30 5709 H 514.88 1.4777 -0.673623 0
M  V30 5710 H 516.877 4.03494 1.04873 0
M  V30 5711 H 515.537 2.9191 1.42193 0
M  V30 5712 H 516.548 4.88988 -1.70619 0
M  V30 5713 H 513.225 4.10658 0.752727 0
M  V30 5714 H 514.615 6.13308 -2.74413 0
M  V30 5715 N 517.335 0.585699 1.46312 0
M  V30 5716 C 518.751 0.247607 1.57668 0
M  V30 5717 C 518.951 -1.25007 1.58037 0
M  V30 5718 O 518.007 -2.03196 1.49893 0
M  V30 5719 C 519.32 0.899456 2.86933 0
M  V30 5720 C 520.868 0.873326 3.00569 0
M  V30 5721 C 521.343 1.50477 4.32574 0
M  V30 5722 N 522.834 1.46925 4.3928 0
M  V30 5723 C 523.569 1.92719 5.40044 0
M  V30 5724 N 523.065 2.46499 6.47464 0
M  V30 5725 N 524.858 1.83617 5.31264 0
M  V30 5726 H 517.009 1.55841 1.44317 0
M  V30 5727 H 519.272 0.651564 0.688599 0
M  V30 5728 H 518.978 1.95313 2.92482 0
M  V30 5729 H 518.852 0.409476 3.74971 0
M  V30 5730 H 521.239 -0.171736 2.946 0
M  V30 5731 H 521.32 1.40136 2.13999 0
M  V30 5732 H 520.964 2.54905 4.39302 0
M  V30 5733 H 520.894 0.951944 5.17924 0
M  V30 5734 H 523.385 1.07616 3.62253 0
M  V30 5735 H 523.698 2.79291 7.20567 0
M  V30 5736 H 522.043 2.50526 6.48276 0
M  V30 5737 H 525.234 1.41358 4.46246 0
M  V30 5738 H 525.407 2.19622 6.09648 0
M  V30 5739 N 518.813 -1.54241 0.323641 0
M  V30 5740 C 520.059 -2.01572 -0.272089 0
M  V30 5741 C 520.414 -1.20774 -1.49771 0
M  V30 5742 O 519.707 -0.281821 -1.89516 0
M  V30 5743 C 519.901 -3.5129 -0.658031 0
M  V30 5744 C 519.73 -4.46582 0.528645 0
M  V30 5745 C 518.5 -4.94737 1.02777 0
M  V30 5746 C 520.698 -4.95416 1.38086 0
M  V30 5747 N 518.68 -5.73933 2.17885 0
M  V30 5748 C 520.051 -5.72537 2.3791 0
M  V30 5749 C 522.106 -4.77559 1.40861 0
M  V30 5750 C 520.809 -6.33702 3.40314 0
M  V30 5751 C 522.835 -5.39559 2.42136 0
M  V30 5752 C 522.197 -6.16532 3.40688 0
M  V30 5753 H 518.296 -0.779425 -0.0634072 0
M  V30 5754 H 520.88 -1.8922 0.458697 0
M  V30 5755 H 519.051 -3.63888 -1.35795 0
M  V30 5756 H 520.783 -3.85388 -1.23524 0
M  V30 5757 H 517.538 -4.69796 0.599046 0
M  V30 5758 H 517.962 -6.18209 2.75947 0
M  V30 5759 H 522.604 -4.17611 0.660352 0
M  V30 5760 H 520.322 -6.9277 4.16047 0
M  V30 5761 H 523.908 -5.27659 2.45086 0
M  V30 5762 H 522.788 -6.63655 4.1777 0
M  V30 5763 N 520.291 -0.0518155 -1.57515 0
M  V30 5764 C 521.521 0.63048 -1.96745 0
M  V30 5765 C 521.929 1.64875 -0.928054 0
M  V30 5766 O 521.272 1.83449 0.0960678 0
M  V30 5767 C 521.334 1.37381 -3.32215 0
M  V30 5768 C 520.998 0.511298 -4.54131 0
M  V30 5769 C 521.995 -0.222884 -5.19422 0
M  V30 5770 C 519.68 0.442035 -5.00351 0
M  V30 5771 C 521.674 -1.01476 -6.2927 0
M  V30 5772 C 519.361 -0.35353 -6.10077 0
M  V30 5773 C 520.359 -1.08062 -6.74397 0
M  V30 5774 O 520.047 -1.8631 -7.82013 0
M  V30 5775 H 519.779 0.177126 -0.652382 0
M  V30 5776 H 522.333 -0.114726 -2.05079 0
M  V30 5777 H 520.563 2.16466 -3.20436 0
M  V30 5778 H 522.252 1.9464 -3.56188 0
M  V30 5779 H 523.018 -0.178846 -4.8467 0
M  V30 5780 H 518.897 0.997562 -4.50077 0
M  V30 5781 H 522.441 -1.58279 -6.79407 0
M  V30 5782 H 518.338 -0.399205 -6.44264 0
M  V30 5783 H 519.106 -1.78528 -7.98793 0
M  V30 5784 N 521.769 1.56035 0.221574 0
M  V30 5785 C 522.997 1.8313 0.962864 0
M  V30 5786 C 523.412 0.630934 1.77946 0
M  V30 5787 O 522.769 -0.400519 1.78051 0
M  V30 5788 C 522.82 3.08742 1.88045 0
M  V30 5789 O 522.541 4.24147 1.09686 0
M  V30 5790 C 524.042 3.48824 2.73563 0
M  V30 5791 H 521.262 0.608775 0.282194 0
M  V30 5792 H 523.806 2.03124 0.23681 0
M  V30 5793 H 521.961 2.90723 2.56045 0
M  V30 5794 H 522.375 4.95505 1.71974 0
M  V30 5795 H 523.849 4.39752 3.3365 0
M  V30 5796 H 524.326 2.70575 3.45956 0
M  V30 5797 H 524.932 3.69282 2.10976 0
M  V30 5798 N 523.247 -0.488276 1.49845 0
M  V30 5799 C 524.21 -1.57069 1.66919 0
M  V30 5800 C 525.21 -1.51445 0.540479 0
M  V30 5801 O 526.4 -1.5437 0.807188 0
M  V30 5802 C 523.532 -2.96718 1.67844 0
M  V30 5803 H 524.725 -1.43254 2.63474 0
M  V30 5804 H 522.278 -0.713435 1.39068 0
M  V30 5805 H 523.013 -3.15996 0.7292 0
M  V30 5806 H 522.798 -3.02208 2.49826 0
M  V30 5807 H 524.288 -3.75335 1.83066 0
M  V30 5808 N 524.725 -1.39134 -0.740242 0
M  V30 5809 C 525.675 -1.33928 -1.84519 0
M  V30 5810 C 526.659 -0.221097 -1.59374 0
M  V30 5811 O 527.851 -0.458195 -1.70967 0
M  V30 5812 C 524.98 -1.17991 -3.22387 0
M  V30 5813 C 524.066 -2.34488 -3.53378 0
M  V30 5814 N 524.457 -3.59954 -3.5534 0
M  V30 5815 C 522.755 -2.27331 -3.83714 0
M  V30 5816 C 523.456 -4.36962 -3.83978 0
M  V30 5817 N 522.432 -3.66482 -4.01487 0
M  V30 5818 H 526.234 -2.28907 -1.84333 0
M  V30 5819 H 523.748 -1.32555 -0.938237 0
M  V30 5820 H 525.745 -1.12345 -4.01478 0
M  V30 5821 H 524.405 -0.23957 -3.23815 0
M  V30 5822 H 525.416 -3.93448 -3.36778 0
M  V30 5823 H 522.093 -1.41531 -3.92779 0
M  V30 5824 H 523.483 -5.45692 -3.92008 0
M  V30 5825 N 526.204 0.969867 -1.24223 0
M  V30 5826 C 527.62 1.23809 -1.00716 0
M  V30 5827 C 527.82 1.99469 0.285358 0
M  V30 5828 O 526.876 2.31764 1.00207 0
M  V30 5829 C 528.189 2.02734 -2.2208 0
M  V30 5830 C 529.737 2.15834 -2.26681 0
M  V30 5831 C 530.212 2.98154 -3.47661 0
M  V30 5832 N 531.703 3.05737 -3.47964 0
M  V30 5833 C 532.438 3.69785 -4.38231 0
M  V30 5834 N 531.934 4.35569 -5.3875 0
M  V30 5835 N 533.727 3.66775 -4.25949 0
M  V30 5836 H 525.878 0.463294 -2.07286 0
M  V30 5837 H 528.141 0.267348 -0.909521 0
M  V30 5838 H 527.847 1.54524 -3.15935 0
M  V30 5839 H 527.721 3.0347 -2.24021 0
M  V30 5840 H 530.108 2.63248 -1.33359 0
M  V30 5841 H 530.189 1.14453 -2.28767 0
M  V30 5842 H 529.833 2.51435 -4.41297 0
M  V30 5843 H 529.763 3.99729 -3.42818 0
M  V30 5844 H 532.254 2.58941 -2.75242 0
M  V30 5845 H 532.567 4.82251 -6.03866 0
M  V30 5846 H 530.912 4.34244 -5.42639 0
M  V30 5847 H 534.103 3.14558 -3.46657 0
M  V30 5848 H 534.276 4.16407 -4.96497 0
M  V30 5849 N 527.682 1.05563 1.17022 0
M  V30 5850 C 528.91 0.78845 1.91288 0
M  V30 5851 C 529.325 -0.656318 1.77025 0
M  V30 5852 O 528.682 -1.44869 1.10992 0
M  V30 5853 C 528.733 1.16444 3.42232 0
M  V30 5854 O 528.454 2.5525 3.5606 0
M  V30 5855 C 529.955 0.923937 4.33565 0
M  V30 5856 H 527.175 0.286389 0.606813 0
M  V30 5857 H 529.719 1.4073 1.48375 0
M  V30 5858 H 527.874 0.590266 3.82877 0
M  V30 5859 H 528.288 2.70097 4.49609 0
M  V30 5860 H 529.762 1.23672 5.37968 0
M  V30 5861 H 530.239 -0.140688 4.38975 0
M  V30 5862 H 530.845 1.48214 3.98639 0
M  V30 5863 N 529.16 -1.33526 0.837174 0
M  V30 5864 C 530.09 -2.31764 0.284206 0
M  V30 5865 C 531.071 -1.58896 -0.607142 0
M  V30 5866 O 532.256 -1.86798 -0.531047 0
M  V30 5867 C 529.386 -3.43029 -0.542962 0
M  V30 5868 C 528.34 -4.27255 0.252451 0
M  V30 5869 C 527.666 -5.3012 -0.69836 0
M  V30 5870 C 528.966 -5.01229 1.46858 0
M  V30 5871 H 530.66 -2.78262 1.10502 0
M  V30 5872 H 528.206 -1.3378 0.532812 0
M  V30 5873 H 530.159 -4.1078 -0.940096 0
M  V30 5874 H 528.883 -2.95216 -1.39697 0
M  V30 5875 H 527.542 -3.61127 0.631124 0
M  V30 5876 H 527.19 -4.78564 -1.54872 0
M  V30 5877 H 526.89 -5.87353 -0.170274 0
M  V30 5878 H 528.414 -6.00737 -1.09305 0
M  V30 5879 H 529.828 -5.61756 1.14469 0
M  V30 5880 H 528.225 -5.68104 1.93333 0
M  V30 5881 H 529.295 -4.301 2.23924 0
M  V30 5882 N 530.638 -0.59345 -1.46 0
M  V30 5883 C 531.866 -0.0890934 -2.06708 0
M  V30 5884 C 532.281 1.2205 -1.44046 0
M  V30 5885 O 531.638 1.74029 -0.549551 0
M  V30 5886 C 531.689 0.0720263 -3.61428 0
M  V30 5887 O 531.41 -1.18574 -4.21748 0
M  V30 5888 C 532.911 0.609487 -4.3909 0
M  V30 5889 H 530.131 -0.0623628 -0.668096 0
M  V30 5890 H 532.675 -0.817171 -1.87464 0
M  V30 5891 H 530.83 0.750369 -3.80063 0
M  V30 5892 H 531.244 -1.0064 -5.14754 0
M  V30 5893 H 532.718 0.671363 -5.47902 0
M  V30 5894 H 533.195 1.62878 -4.07882 0
M  V30 5895 H 533.801 -0.03434 -4.25286 0
M  V30 5896 N 532.116 1.54067 -0.331816 0
M  V30 5897 C 533.365 1.99895 0.269209 0
M  V30 5898 C 533.678 1.22371 1.52593 0
M  V30 5899 O 534.884 1.58618 2.20347 0
M  V30 5900 C 533.34 3.55972 0.530244 0
M  V30 5901 C 532.948 4.4234 -0.709901 0
M  V30 5902 C 534.692 4.10247 1.09077 0
M  V30 5903 C 532.599 5.89905 -0.420312 0
M  V30 5904 H 531.529 0.746741 0.104371 0
M  V30 5905 H 534.18 1.78014 -0.445324 0
M  V30 5906 H 532.562 3.73873 1.30518 0
M  V30 5907 H 533.736 4.36215 -1.48504 0
M  V30 5908 H 532.051 3.98997 -1.19123 0
M  V30 5909 H 534.648 5.18095 1.32219 0
M  V30 5910 H 534.991 3.62739 2.0427 0
M  V30 5911 H 535.524 3.96011 0.376824 0
M  V30 5912 H 532.263 6.41623 -1.34164 0
M  V30 5913 H 531.783 5.98962 0.316962 0
M  V30 5914 H 533.462 6.46991 -0.0331956 0
M  V30 5915 N 533.594 0.0601682 1.57485 0
M  V30 5916 C 534.504 -0.926121 2.15546 0
M  V30 5917 C 535.52 -1.33532 1.11558 0
M  V30 5918 O 536.696 -1.4104 1.4377 0
M  V30 5919 C 533.761 -2.17952 2.69625 0
M  V30 5920 C 532.822 -1.82783 3.88444 0
M  V30 5921 C 532.055 -3.02148 4.39935 0
M  V30 5922 O 532.278 -4.15803 3.90466 0
M  V30 5923 O 531.212 -2.82639 5.31412 0
M  V30 5924 H 535.038 -0.462289 3.00161 0
M  V30 5925 H 532.623 -0.162246 1.48516 0
M  V30 5926 H 534.505 -2.91474 3.04337 0
M  V30 5927 H 533.18 -2.63456 1.88077 0
M  V30 5928 H 532.087 -1.06549 3.58606 0
M  V30 5929 H 533.42 -1.42072 4.7125 0
M  V30 5930 N 535.072 -1.5615 -0.213296 0
M  V30 5931 C 536.002 -1.96109 -1.26742 0
M  V30 5932 C 536.983 -0.830448 -1.48451 0
M  V30 5933 O 538.168 -1.09339 -1.60495 0
M  V30 5934 C 535.298 -2.28492 -2.61551 0
M  V30 5935 C 534.252 -3.44124 -2.54485 0
M  V30 5936 C 533.578 -3.62134 -3.93399 0
M  V30 5937 C 534.878 -4.78855 -2.08556 0
M  V30 5938 H 536.572 -2.84412 -0.935434 0
M  V30 5939 H 534.118 -1.36836 -0.44854 0
M  V30 5940 H 536.071 -2.55039 -3.3546 0
M  V30 5941 H 534.795 -1.37052 -2.96453 0
M  V30 5942 H 533.454 -3.17639 -1.83033 0
M  V30 5943 H 533.102 -2.68055 -4.25623 0
M  V30 5944 H 532.802 -4.39913 -3.89551 0
M  V30 5945 H 534.326 -3.91038 -4.68958 0
M  V30 5946 H 535.74 -5.04552 -2.72213 0
M  V30 5947 H 534.137 -5.59975 -2.1575 0
M  V30 5948 H 535.207 -4.73657 -1.03811 0
M  V30 5949 N 536.55 0.480323 -1.50102 0
M  V30 5950 C 537.966 0.813295 -1.37323 0
M  V30 5951 C 538.166 1.97027 -0.422206 0
M  V30 5952 O 537.222 2.5212 0.138563 0
M  V30 5953 C 538.535 1.13404 -2.78496 0
M  V30 5954 C 540.083 1.24104 -2.87345 0
M  V30 5955 C 540.558 1.59497 -4.29331 0
M  V30 5956 N 542.049 1.66507 -4.32238 0
M  V30 5957 C 542.784 1.95378 -5.39087 0
M  V30 5958 N 542.28 2.22333 -6.56155 0
M  V30 5959 N 544.073 1.96803 -5.26522 0
M  V30 5960 H 536.224 -0.282291 -2.10516 0
M  V30 5961 H 538.487 -0.063752 -0.945854 0
M  V30 5962 H 538.193 0.357064 -3.49883 0
M  V30 5963 H 538.067 2.07251 -3.15162 0
M  V30 5964 H 540.454 2.00871 -2.16183 0
M  V30 5965 H 540.535 0.282593 -2.54234 0
M  V30 5966 H 540.179 0.832736 -5.01027 0
M  V30 5967 H 540.109 2.56477 -4.59921 0
M  V30 5968 H 542.6 1.47753 -3.47818 0
M  V30 5969 H 542.913 2.43611 -7.33399 0
M  V30 5970 H 541.258 2.19745 -6.59346 0
M  V30 5971 H 544.449 1.75235 -4.34062 0
M  V30 5972 H 544.622 2.18969 -6.09883 0
M  V30 5973 N 538.028 1.39524 0.732853 0
M  V30 5974 C 539.444 1.21176 1.03868 0
M  V30 5975 C 539.644 0.0748448 2.01361 0
M  V30 5976 O 538.7 -0.57281 2.45917 0
M  V30 5977 C 540.013 2.54667 1.59892 0
M  V30 5978 C 541.561 2.6153 1.71962 0
M  V30 5979 C 542.036 3.95248 2.31394 0
M  V30 5980 N 543.527 3.96899 2.38801 0
M  V30 5981 C 544.262 4.97138 2.85729 0
M  V30 5982 N 543.758 6.07775 3.32537 0
M  V30 5983 N 545.551 4.84516 2.84957 0
M  V30 5984 H 537.702 2.12225 0.086304 0
M  V30 5985 H 539.965 0.942614 0.100907 0
M  V30 5986 H 539.671 3.38423 0.95721 0
M  V30 5987 H 539.545 2.74538 2.58668 0
M  V30 5988 H 541.932 1.78156 2.35254 0
M  V30 5989 H 542.013 2.45507 0.718327 0
M  V30 5990 H 541.657 4.79054 1.68729 0
M  V30 5991 H 541.587 4.08593 3.32204 0
M  V30 5992 H 544.078 3.16998 2.05719 0
M  V30 5993 H 544.391 6.8017 3.66862 0
M  V30 5994 H 542.736 6.11366 3.30541 0
M  V30 5995 H 545.927 3.97185 2.47713 0
M  V30 5996 H 546.1 5.62783 3.21215 0
M  V30 5997 N 539.506 -0.963266 1.24736 0
M  V30 5998 C 540.917 -1.52145 1.08207 0
M  V30 5999 C 541.268 -1.93142 -0.345061 0
M  V30 6000 O 540.393 -1.77769 -1.23399 0
M  V30 6001 C 540.988 -2.76486 1.95808 0
M  V30 6002 C 539.547 -3.28646 1.8349 0
M  V30 6003 C 538.694 -2.01529 1.90476 0
M  V30 6004 H 541.645 -0.781083 1.38148 0
M  V30 6005 H 541.666 -3.49986 1.49297 0
M  V30 6006 H 541.178 -2.46617 2.99669 0
M  V30 6007 H 539.279 -3.63357 0.824787 0
M  V30 6008 H 539.392 -3.97246 2.67829 0
M  V30 6009 H 537.756 -2.16442 1.34258 0
M  V30 6010 H 538.539 -1.7402 2.95926 0
M  V30 6011 N 540.985 -1.06182 -1.16461 0
M  V30 6012 C 541.895 -0.682671 -2.24448 0
M  V30 6013 C 542.911 0.30078 -1.71381 0
M  V30 6014 O 544.087 0.150376 -2.00838 0
M  V30 6015 C 541.152 -0.0737202 -3.46622 0
M  V30 6016 C 540.213 -1.10889 -4.14731 0
M  V30 6017 C 539.446 -0.528908 -5.31073 0
M  V30 6018 O 539.669 0.65868 -5.66584 0
M  V30 6019 O 538.603 -1.26805 -5.88391 0
M  V30 6020 H 542.429 -1.58291 -2.59187 0
M  V30 6021 H 540.014 -0.834013 -1.23954 0
M  V30 6022 H 541.896 0.264192 -4.20571 0
M  V30 6023 H 540.571 0.800015 -3.13658 0
M  V30 6024 H 539.478 -1.49896 -3.42756 0
M  V30 6025 H 540.811 -1.95412 -4.51747 0
M  V30 6026 N 542.463 1.3308 -0.844243 0
M  V30 6027 C 543.411 2.31028 -0.269954 0
M  V30 6028 C 544.405 1.58381 0.600997 0
M  V30 6029 O 545.611 1.73203 0.48996 0
M  V30 6030 H 541.986 0.748866 -0.0685782 0
M  V30 6031 H 543.957 2.76967 -1.11049 0
M  V30 6032 C 542.706 3.43549 0.535676 0
M  V30 6033 H 542.029 3.99604 -0.125202 0
M  V30 6034 H 543.469 4.14267 0.903262 0
M  V30 6035 C 541.928 2.8988 1.71672 0
M  V30 6036 O 542.458 2.86511 2.81557 0
M  V30 6037 N 540.664 2.46416 1.54037 0
M  V30 6038 H 540.211 2.49356 0.64649 0
M  V30 6039 H 540.169 2.1086 2.33207 0
M  V30 6040 N 543.941 0.601185 1.45683 0
M  V30 6041 C 544.851 -0.123395 2.34275 0
M  V30 6042 C 545.867 -0.86702 1.5086 0
M  V30 6043 O 547.043 -0.826049 1.8368 0
M  V30 6044 C 544.108 -1.11237 3.2837 0
M  V30 6045 C 543.169 -0.371405 4.2769 0
M  V30 6046 C 542.402 -1.31327 5.1729 0
M  V30 6047 O 542.625 -2.55078 5.10188 0
M  V30 6048 O 541.559 -0.813811 5.96373 0
M  V30 6049 H 545.385 0.604483 2.97623 0
M  V30 6050 H 542.97 0.361477 1.44961 0
M  V30 6051 H 544.852 -1.68214 3.8637 0
M  V30 6052 H 543.527 -1.82139 2.67595 0
M  V30 6053 H 542.434 0.24067 3.73325 0
M  V30 6054 H 543.767 0.296998 4.91303 0
M  V30 6055 N 545.419 -1.53889 0.339982 0
M  V30 6056 C 546.666 -2.00855 -0.257621 0
M  V30 6057 C 546.994 -1.22788 -1.50842 0
M  V30 6058 O 546.249 -0.302567 -1.93347 0
M  V30 6059 C 546.548 -3.51968 -0.620735 0
M  V30 6060 C 546.214 -4.47741 0.532771 0
M  V30 6061 C 544.876 -4.73645 0.849339 0
M  V30 6062 C 547.228 -5.04551 1.3068 0
M  V30 6063 C 544.556 -5.53614 1.94237 0
M  V30 6064 C 546.908 -5.85713 2.39005 0
M  V30 6065 C 545.572 -6.09912 2.71225 0
M  V30 6066 H 544.842 -0.734979 -0.0942703 0
M  V30 6067 H 547.489 -1.85714 0.467159 0
M  V30 6068 H 545.794 -3.64921 -1.42618 0
M  V30 6069 H 547.491 -3.85762 -1.09495 0
M  V30 6070 H 544.081 -4.27711 0.275973 0
M  V30 6071 H 548.265 -4.84507 1.07549 0
M  V30 6072 H 543.521 -5.7059 2.19628 0
M  V30 6073 H 547.695 -6.28748 2.99415 0
M  V30 6074 H 545.322 -6.71665 3.56047 0
M  V30 6075 N 546.897 -0.0685191 -1.57451 0
M  V30 6076 C 548.143 0.596247 -1.94465 0
M  V30 6077 C 548.498 1.67417 -0.948117 0
M  V30 6078 O 547.791 1.91576 0.0301056 0
M  V30 6079 C 547.985 1.22051 -3.35914 0
M  V30 6080 C 547.814 0.204586 -4.49234 0
M  V30 6081 C 546.584 -0.20959 -5.04865 0
M  V30 6082 C 548.782 -0.556872 -5.11276 0
M  V30 6083 N 546.764 -1.21656 -6.01725 0
M  V30 6084 C 548.135 -1.41642 -6.03604 0
M  V30 6085 C 550.19 -0.613297 -4.94108 0
M  V30 6086 C 548.893 -2.32737 -6.80607 0
M  V30 6087 C 550.919 -1.51174 -5.71752 0
M  V30 6088 C 550.281 -2.35898 -6.63726 0
M  V30 6089 H 546.38 0.189307 -0.75874 0
M  V30 6090 H 548.964 -0.144899 -1.9416 0
M  V30 6091 H 547.135 1.9316 -3.36963 0
M  V30 6092 H 548.867 1.84548 -3.60172 0
M  V30 6093 H 545.622 0.172871 -4.73284 0
M  V30 6094 H 546.046 -1.71746 -6.54853 0
M  V30 6095 H 550.688 0.0275228 -4.22791 0
M  V30 6096 H 548.406 -2.97856 -7.51204 0
M  V30 6097 H 551.992 -1.5602 -5.6049 0
M  V30 6098 H 550.872 -3.04291 -7.22756 0
M  V30 6099 N 548.375 1.56261 0.205012 0
M  V30 6100 C 549.621 1.80306 0.9283 0
M  V30 6101 C 549.954 0.640932 1.83319 0
M  V30 6102 O 549.229 -0.359032 1.91158 0
M  V30 6103 C 549.512 3.14547 1.75306 0
M  V30 6104 C 549.365 4.41236 0.873562 0
M  V30 6105 C 550.684 3.45382 2.72762 0
M  V30 6106 H 547.803 0.655929 0.336044 0
M  V30 6107 H 550.445 1.88984 0.196211 0
M  V30 6108 H 548.595 3.0728 2.37721 0
M  V30 6109 H 550.267 4.60539 0.264887 0
M  V30 6110 H 548.51 4.33427 0.179773 0
M  V30 6111 H 549.181 5.31639 1.48541 0
M  V30 6112 H 551.657 3.52884 2.20481 0
M  V30 6113 H 550.533 4.40449 3.2756 0
M  V30 6114 H 550.794 2.68377 3.51321 0
M  V30 6115 N 549.853 -0.472356 1.50355 0
M  V30 6116 C 550.8 -1.57051 1.69126 0
M  V30 6117 C 551.77 -1.5733 0.532574 0
M  V30 6118 O 552.955 -1.7488 0.762994 0
M  V30 6119 C 550.095 -2.95033 1.79024 0
M  V30 6120 C 549.208 -3.04552 3.06386 0
M  V30 6121 C 548.343 -4.33441 3.07087 0
M  V30 6122 C 547.382 -4.36697 4.28908 0
M  V30 6123 N 546.519 -5.57056 4.27356 0
M  V30 6124 H 551.359 -1.40351 2.62879 0
M  V30 6125 H 548.896 -0.682403 1.30314 0
M  V30 6126 H 550.854 -3.75048 1.82744 0
M  V30 6127 H 549.484 -3.10371 0.887109 0
M  V30 6128 H 548.536 -2.17419 3.12143 0
M  V30 6129 H 549.848 -3.02818 3.96362 0
M  V30 6130 H 549.002 -5.21801 3.09529 0
M  V30 6131 H 547.741 -4.37782 2.14939 0
M  V30 6132 H 546.746 -3.46734 4.2668 0
M  V30 6133 H 547.971 -4.34049 5.22282 0
M  V30 6134 H 545.917 -5.62184 3.3806 0
M  V30 6135 H 545.834 -5.57058 5.111 0
M  V30 6136 H 547.102 -6.47545 4.33942 0
M  V30 6137 N 551.331 -1.39911 -0.725443 0
M  V30 6138 C 552.261 -1.42138 -1.85254 0
M  V30 6139 C 553.242 -0.283513 -1.67721 0
M  V30 6140 O 554.427 -0.490717 -1.87898 0
M  V30 6141 C 551.557 -1.27354 -3.23107 0
M  V30 6142 C 550.511 -2.3864 -3.55296 0
M  V30 6143 C 549.837 -2.08939 -4.92188 0
M  V30 6144 C 551.137 -3.8097 -3.57295 0
M  V30 6145 H 552.831 -2.36461 -1.83648 0
M  V30 6146 H 550.377 -1.13817 -0.882138 0
M  V30 6147 H 552.33 -1.2753 -4.01639 0
M  V30 6148 H 551.054 -0.295025 -3.25265 0
M  V30 6149 H 549.713 -2.37696 -2.79099 0
M  V30 6150 H 549.361 -1.09502 -4.90936 0
M  V30 6151 H 549.061 -2.83491 -5.14691 0
M  V30 6152 H 550.585 -2.10781 -5.73065 0
M  V30 6153 H 551.999 -3.8379 -4.25885 0
M  V30 6154 H 550.396 -4.5496 -3.9132 0
M  V30 6155 H 551.466 -4.11261 -2.5689 0
M  V30 6156 N 552.809 0.956637 -1.25245 0
M  V30 6157 C 553.756 2.053 -1.05454 0
M  V30 6158 C 554.726 1.66062 0.0356889 0
M  V30 6159 O 555.911 1.90415 -0.121099 0
M  V30 6160 C 553.051 3.38391 -0.677191 0
M  V30 6161 C 552.164 3.90758 -1.84206 0
M  V30 6162 C 551.299 5.12165 -1.40926 0
M  V30 6163 C 550.338 5.56757 -2.54338 0
M  V30 6164 N 549.475 6.69376 -2.11848 0
M  V30 6165 H 554.315 2.21562 -1.99284 0
M  V30 6166 H 551.852 1.08578 -0.992434 0
M  V30 6167 H 553.81 4.1488 -0.43938 0
M  V30 6168 H 552.44 3.22021 0.224127 0
M  V30 6169 H 551.492 3.10808 -2.19323 0
M  V30 6170 H 552.804 4.19802 -2.69383 0
M  V30 6171 H 551.958 5.96065 -1.13098 0
M  V30 6172 H 550.697 4.84832 -0.528175 0
M  V30 6173 H 549.702 4.71423 -2.82913 0
M  V30 6174 H 550.927 5.861 -3.43022 0
M  V30 6175 H 548.873 6.43756 -1.26153 0
M  V30 6176 H 548.79 6.97927 -2.90574 0
M  V30 6177 H 550.058 7.5669 -1.87191 0
M  V30 6178 N 554.287 1.06798 1.15896 0
M  V30 6179 C 555.698 0.811355 1.68149 0
M  V30 6180 C 556.049 -0.664339 1.8461 0
M  V30 6181 O 555.174 -1.51485 1.54535 0
M  V30 6182 C 555.769 1.46624 3.05429 0
M  V30 6183 C 554.328 1.25726 3.54781 0
M  V30 6184 C 553.475 1.53949 2.3064 0
M  V30 6185 H 556.426 1.23078 1.00187 0
M  V30 6186 H 556.447 0.88437 3.7008 0
M  V30 6187 H 555.959 2.54025 2.93416 0
M  V30 6188 H 554.06 0.20322 3.72045 0
M  V30 6189 H 554.173 1.97354 4.36564 0
M  V30 6190 H 552.537 0.96025 2.35905 0
M  V30 6191 H 553.32 2.6252 2.2122 0
M  V30 6192 N 555.766 -1.3263 0.851289 0
M  V30 6193 C 557.014 -1.96978 0.452128 0
M  V30 6194 C 557.335 -1.67715 -0.99482 0
M  V30 6195 O 556.605 -0.98259 -1.69476 0
M  V30 6196 H 555.185 -0.72873 0.164202 0
M  V30 6197 H 557.847 -1.61774 1.08698 0
M  V30 6198 H 556.943 -3.06387 0.594407 0
M  V30 6199 N 557.244 -0.608902 -1.45362 0
M  V30 6200 C 558.66 -0.272659 -1.57254 0
M  V30 6201 C 558.86 1.22477 -1.60005 0
M  V30 6202 O 557.916 2.00785 -1.53106 0
M  V30 6203 C 559.229 -0.944991 -2.85465 0
M  V30 6204 C 560.777 -0.921033 -2.99142 0
M  V30 6205 C 561.252 -1.5734 -4.30126 0
M  V30 6206 N 562.743 -1.53895 -4.36887 0
M  V30 6207 C 563.478 -2.01286 -5.36909 0
M  V30 6208 N 562.974 -2.56768 -6.43461 0
M  V30 6209 N 564.767 -1.92046 -5.28275 0
M  V30 6210 H 556.918 -1.58117 -1.4182 0
M  V30 6211 H 559.181 -0.662437 -0.678146 0
M  V30 6212 H 558.887 -1.99941 -2.89338 0
M  V30 6213 H 558.761 -0.469079 -3.74272 0
M  V30 6214 H 561.148 0.124846 -2.94836 0
M  V30 6215 H 561.229 -1.43522 -2.11743 0
M  V30 6216 H 560.873 -2.61862 -4.35191 0
M  V30 6217 H 560.803 -1.03422 -5.16344 0
M  V30 6218 H 563.294 -1.13366 -3.60495 0
M  V30 6219 H 563.607 -2.9072 -7.16032 0
M  V30 6220 H 561.952 -2.60808 -6.44208 0
M  V30 6221 H 565.143 -1.48439 -4.43941 0
M  V30 6222 H 565.316 -2.29293 -6.06077 0
M  V30 6223 N 558.722 1.53707 -0.348139 0
M  V30 6224 C 559.968 2.01286 0.247332 0
M  V30 6225 C 560.301 1.23546 1.49834 0
M  V30 6226 O 559.576 0.324331 1.91777 0
M  V30 6227 C 559.859 3.55768 0.556858 0
M  V30 6228 C 559.712 4.44216 -0.706564 0
M  V30 6229 C 561.031 4.1841 1.3646 0
M  V30 6230 H 558.15 0.731677 0.0884201 0
M  V30 6231 H 560.792 1.84106 -0.469584 0
M  V30 6232 H 558.942 3.70539 1.16761 0
M  V30 6233 H 560.614 4.41274 -1.34444 0
M  V30 6234 H 558.857 4.12892 -1.33052 0
M  V30 6235 H 559.528 5.50202 -0.445186 0
M  V30 6236 H 562.004 4.07365 0.848113 0
M  V30 6237 H 560.88 5.26563 1.54992 0
M  V30 6238 H 561.141 3.7333 2.36805 0
M  V30 6239 N 560.2 0.0768682 1.57412 0
M  V30 6240 C 561.13 -0.886026 2.16037 0
M  V30 6241 C 562.111 -1.30691 1.08876 0
M  V30 6242 O 563.296 -1.37705 1.36934 0
M  V30 6243 C 560.426 -2.1518 2.72608 0
M  V30 6244 C 559.38 -1.87015 3.8498 0
M  V30 6245 C 558.706 -3.20266 4.28175 0
M  V30 6246 C 560.006 -1.17143 5.08994 0
M  V30 6247 H 561.7 -0.397642 2.96748 0
M  V30 6248 H 559.246 -0.189823 1.42743 0
M  V30 6249 H 561.199 -2.82962 3.12266 0
M  V30 6250 H 559.923 -2.66269 1.89125 0
M  V30 6251 H 558.582 -1.21636 3.45833 0
M  V30 6252 H 558.23 -3.69207 3.41607 0
M  V30 6253 H 557.93 -3.0221 5.03927 0
M  V30 6254 H 559.454 -3.89237 4.70454 0
M  V30 6255 H 560.868 -1.75003 5.45937 0
M  V30 6256 H 559.265 -1.09328 5.90057 0
M  V30 6257 H 560.335 -0.151295 4.84664 0
M  V30 6258 N 561.678 -1.56367 -0.196722 0
M  V30 6259 C 562.925 -1.80529 -0.917366 0
M  V30 6260 C 563.253 -0.649817 -1.83324 0
M  V30 6261 O 562.508 0.36451 -1.92275 0
M  V30 6262 C 562.807 -3.10663 -1.767 0
M  V30 6263 C 562.473 -4.3962 -1.00225 0
M  V30 6264 C 561.135 -4.74653 -0.791095 0
M  V30 6265 C 563.487 -5.1913 -0.464035 0
M  V30 6266 C 560.815 -5.86692 -0.0302155 0
M  V30 6267 C 563.167 -6.31964 0.283625 0
M  V30 6268 C 561.831 -6.65581 0.505813 0
M  V30 6269 H 561.101 -0.660602 -0.335688 0
M  V30 6270 H 563.748 -1.90615 -0.183844 0
M  V30 6271 H 562.053 -2.95807 -2.56915 0
M  V30 6272 H 563.75 -3.26563 -2.32718 0
M  V30 6273 H 560.34 -4.12127 -1.17684 0
M  V30 6274 H 564.524 -4.9248 -0.614575 0
M  V30 6275 H 559.78 -6.11211 0.151917 0
M  V30 6276 H 563.954 -6.92791 0.708057 0
M  V30 6277 H 561.581 -7.52239 1.0973 0
M  V30 6278 N 563.156 0.464375 -1.50603 0
M  V30 6279 C 564.405 1.21277 -1.61167 0
M  V30 6280 C 564.718 1.92953 -0.320704 0
M  V30 6281 O 565.924 2.69778 -0.30534 0
M  V30 6282 C 564.38 2.20403 -2.84518 0
M  V30 6283 C 563.988 1.54499 -4.20516 0
M  V30 6284 C 565.732 2.95843 -3.0443 0
M  V30 6285 C 563.639 2.51951 -5.35047 0
M  V30 6286 H 562.569 0.456367 -0.600204 0
M  V30 6287 H 565.22 0.48254 -1.77042 0
M  V30 6288 H 563.602 2.96746 -2.62217 0
M  V30 6289 H 564.776 0.83899 -4.53098 0
M  V30 6290 H 563.091 0.913152 -4.06264 0
M  V30 6291 H 565.688 3.6879 -3.87167 0
M  V30 6292 H 566.031 3.55622 -2.16423 0
M  V30 6293 H 566.564 2.26611 -3.26944 0
M  V30 6294 H 563.303 1.96901 -6.25228 0
M  V30 6295 H 562.823 3.20683 -5.06875 0
M  V30 6296 H 564.502 3.13643 -5.65895 0
M  V30 6297 N 564.634 1.40294 0.718013 0
M  V30 6298 C 565.911 1.2894 1.47084 0
M  V30 6299 C 566.291 -0.0933625 2.10893 0
M  V30 6300 O 565.639 -1.10598 1.99951 0
M  V30 6301 C 565.849 2.4264 2.50852 0
M  V30 6302 C 567.197 2.8276 3.16752 0
M  V30 6303 O 568.221 2.42215 2.61171 0
M  V30 6304 O 567.08 3.528 4.17366 0
M  V30 6305 H 564.174 0.506236 0.653952 0
M  V30 6306 H 566.72 1.52208 0.750394 0
M  V30 6307 H 565.492 3.35009 2.022 0
M  V30 6308 H 565.115 2.21129 3.30435 0
M  V30 6309 N 566.112 -0.949982 1.2575 0
M  V30 6310 C 567.06 -2.06869 1.06339 0
M  V30 6311 C 568.054 -1.69399 -0.00708901 0
M  V30 6312 O 569.26 -1.79383 0.148897 0
M  V30 6313 H 565.635 -0.677197 0.326969 0
M  V30 6314 H 567.606 -2.20396 2.01167 0
M  V30 6315 C 566.355 -3.40503 0.703769 0
M  V30 6316 H 565.678 -3.69807 1.51931 0
M  V30 6317 H 567.118 -4.19623 0.607677 0
M  V30 6318 C 565.577 -3.31685 -0.5905 0
M  V30 6319 O 566.107 -3.67085 -1.63131 0
M  V30 6320 N 564.313 -2.84797 -0.577859 0
M  V30 6321 H 563.86 -2.56186 0.26951 0
M  V30 6322 H 563.818 -2.79279 -1.44398 0
M  V30 6323 N 567.59 -1.07411 -1.15328 0
M  V30 6324 C 568.836 -0.808666 -1.86634 0
M  V30 6325 C 569.191 0.65816 -1.80793 0
M  V30 6326 O 568.484 1.47689 -1.22059 0
M  V30 6327 C 568.678 -1.25191 -3.34757 0
M  V30 6328 C 568.507 -2.76028 -3.55019 0
M  V30 6329 C 567.277 -3.43644 -3.70455 0
M  V30 6330 C 569.475 -3.74224 -3.5279 0
M  V30 6331 N 567.457 -4.83117 -3.78776 0
M  V30 6332 C 568.828 -4.9954 -3.67233 0
M  V30 6333 C 570.883 -3.67373 -3.36068 0
M  V30 6334 C 569.586 -6.18819 -3.66682 0
M  V30 6335 C 571.612 -4.86116 -3.36816 0
M  V30 6336 C 570.974 -6.10266 -3.51789 0
M  V30 6337 H 567.073 -0.348478 -0.700062 0
M  V30 6338 H 569.657 -1.37049 -1.38295 0
M  V30 6339 H 567.828 -0.717775 -3.8171 0
M  V30 6340 H 569.56 -0.933936 -3.93776 0
M  V30 6341 H 566.315 -2.94051 -3.71256 0
M  V30 6342 H 566.739 -5.55705 -3.86679 0
M  V30 6343 H 571.381 -2.72334 -3.2341 0
M  V30 6344 H 569.099 -7.14179 -3.78118 0
M  V30 6345 H 572.685 -4.82492 -3.25103 0
M  V30 6346 H 571.565 -7.00609 -3.52301 0
M  V30 6347 N 569.068 1.32177 -0.85831 0
M  V30 6348 C 570.484 1.49873 -0.548656 0
M  V30 6349 C 570.684 1.79278 0.919874 0
M  V30 6350 O 569.74 1.86451 1.70271 0
M  V30 6351 C 571.053 2.64043 -1.4388 0
M  V30 6352 C 572.601 2.77928 -1.43961 0
M  V30 6353 C 573.076 3.95182 -2.31506 0
M  V30 6354 N 574.567 4.0245 -2.29321 0
M  V30 6355 C 575.302 4.9242 -2.93786 0
M  V30 6356 N 574.798 5.87373 -3.67376 0
M  V30 6357 N 576.591 4.85572 -2.83155 0
M  V30 6358 H 568.742 1.11357 -1.80868 0
M  V30 6359 H 571.005 0.549175 -0.772729 0
M  V30 6360 H 570.711 2.49055 -2.48324 0
M  V30 6361 H 570.585 3.59912 -1.12885 0
M  V30 6362 H 572.972 2.92338 -0.402813 0
M  V30 6363 H 573.053 1.82762 -1.78974 0
M  V30 6364 H 572.697 3.81531 -3.35256 0
M  V30 6365 H 572.627 4.89633 -1.93823 0
M  V30 6366 H 575.118 3.34507 -1.75822 0
M  V30 6367 H 575.431 6.52728 -4.13722 0
M  V30 6368 H 573.776 5.87388 -3.71484 0
M  V30 6369 H 576.967 4.10363 -2.25211 0
M  V30 6370 H 577.14 5.55486 -3.33676 0
M  V30 6371 N 570.547 0.616602 1.45037 0
M  V30 6372 C 571.793 0.115501 2.02471 0
M  V30 6373 C 572.126 -1.25406 1.4828 0
M  V30 6374 O 571.401 -1.82922 0.661051 0
M  V30 6375 C 571.684 0.0863588 3.59996 0
M  V30 6376 C 571.537 1.48723 4.24501 0
M  V30 6377 C 572.856 -0.596762 4.36035 0
M  V30 6378 H 569.975 0.0434461 0.735718 0
M  V30 6379 H 572.617 0.7903 1.72784 0
M  V30 6380 H 570.767 -0.488277 3.85419 0
M  V30 6381 H 572.439 2.10964 4.10234 0
M  V30 6382 H 570.682 2.04534 3.82555 0
M  V30 6383 H 571.353 1.419 5.3345 0
M  V30 6384 H 573.829 -0.10824 4.15959 0
M  V30 6385 H 572.705 -0.586289 5.4576 0
M  V30 6386 H 572.966 -1.66451 4.09569 0
M  V30 6387 N 572.025 -1.5352 0.356285 0
M  V30 6388 C 572.955 -2.28372 -0.486661 0
M  V30 6389 C 573.936 -1.30432 -1.09185 0
M  V30 6390 O 575.121 -1.59291 -1.11085 0
M  V30 6391 C 572.251 -3.06604 -1.63129 0
M  V30 6392 C 571.205 -4.12154 -1.15381 0
M  V30 6393 C 570.531 -4.78415 -2.38796 0
M  V30 6394 C 571.831 -5.21724 -0.245179 0
M  V30 6395 H 573.525 -2.99083 0.137797 0
M  V30 6396 H 571.071 -1.43841 0.0677134 0
M  V30 6397 H 573.024 -3.57712 -2.22755 0
M  V30 6398 H 571.748 -2.33568 -2.28284 0
M  V30 6399 H 570.407 -3.61978 -0.580294 0
M  V30 6400 H 570.055 -4.01959 -3.02387 0
M  V30 6401 H 569.755 -5.49734 -2.07524 0
M  V30 6402 H 571.279 -5.32313 -2.99125 0
M  V30 6403 H 572.693 -5.68391 -0.748646 0
M  V30 6404 H 571.09 -6.00095 -0.0237608 0
M  V30 6405 H 572.16 -4.79596 0.715229 0
M  V30 6406 N 573.503 -0.0852151 -1.57369 0
M  V30 6407 C 574.453 0.88767 -2.10011 0
M  V30 6408 C 575.437 1.25021 -1.01285 0
M  V30 6409 O 576.629 1.22694 -1.27574 0
M  V30 6410 C 573.758 2.15037 -2.67608 0
M  V30 6411 C 572.844 1.81371 -3.83361 0
M  V30 6412 N 573.235 1.18216 -4.91791 0
M  V30 6413 C 571.533 2.11041 -3.92909 0
M  V30 6414 C 572.234 1.02941 -5.72519 0
M  V30 6415 N 571.21 1.54351 -5.21226 0
M  V30 6416 H 575.012 0.395279 -2.9123 0
M  V30 6417 H 572.526 0.11829 -1.61969 0
M  V30 6418 H 574.523 2.85667 -3.03644 0
M  V30 6419 H 573.183 2.64851 -1.8784 0
M  V30 6420 H 574.194 0.850168 -5.10874 0
M  V30 6421 H 570.871 2.63138 -3.24136 0
M  V30 6422 H 572.261 0.536298 -6.69756 0
M  V30 6423 N 574.981 1.5647 0.188427 0
M  V30 6424 C 576.229 1.80655 0.905986 0
M  V30 6425 C 576.55 0.659391 1.83513 0
M  V30 6426 O 575.82 -0.321868 1.93238 0
M  V30 6427 H 574.4 0.666391 0.337538 0
M  V30 6428 H 577.062 1.93949 0.192339 0
M  V30 6429 H 576.158 2.74066 1.49313 0
M  V30 6430 N 576.459 -0.456382 1.50847 0
M  V30 6431 C 577.875 -0.791345 1.386 0
M  V30 6432 C 578.075 -1.9633 0.453498 0
M  V30 6433 O 577.131 -2.52308 -0.0984353 0
M  V30 6434 C 578.444 -1.08959 2.80265 0
M  V30 6435 C 579.992 -1.19517 2.89283 0
M  V30 6436 C 580.467 -1.52647 4.31814 0
M  V30 6437 N 581.958 -1.59609 4.34832 0
M  V30 6438 C 582.693 -1.86777 5.42127 0
M  V30 6439 N 582.189 -2.11866 6.59609 0
M  V30 6440 N 583.982 -1.88402 5.29586 0
M  V30 6441 H 576.133 0.315746 2.1004 0
M  V30 6442 H 578.396 0.0787916 0.94472 0
M  V30 6443 H 578.102 -0.301355 3.50407 0
M  V30 6444 H 577.976 -2.02211 3.18419 0
M  V30 6445 H 580.363 -1.97406 2.19351 0
M  V30 6446 H 580.444 -0.242111 2.54652 0
M  V30 6447 H 580.088 -0.752922 5.02288 0
M  V30 6448 H 580.018 -2.49127 4.63943 0
M  V30 6449 H 582.509 -1.42201 3.50125 0
M  V30 6450 H 582.822 -2.31912 7.37182 0
M  V30 6451 H 581.167 -2.09228 6.62758 0
M  V30 6452 H 584.358 -1.68307 4.36795 0
M  V30 6453 H 584.531 -2.09238 6.13289 0
M  V30 6454 N 577.937 -1.40673 -0.710563 0
M  V30 6455 C 578.847 -1.43663 -1.85467 0
M  V30 6456 C 579.863 -0.328721 -1.70867 0
M  V30 6457 O 581.039 -0.574098 -1.93044 0
M  V30 6458 C 578.104 -1.30226 -3.21313 0
M  V30 6459 C 577.165 -2.51204 -3.48131 0
M  V30 6460 C 576.398 -2.38398 -4.77495 0
M  V30 6461 O 576.621 -1.40048 -5.5294 0
M  V30 6462 O 575.555 -3.2787 -5.04762 0
M  V30 6463 H 579.381 -2.40156 -1.859 0
M  V30 6464 H 576.966 -1.22049 -0.861652 0
M  V30 6465 H 578.848 -1.2496 -4.02446 0
M  V30 6466 H 577.523 -0.368419 -3.21597 0
M  V30 6467 H 576.43 -2.62048 -2.66987 0
M  V30 6468 H 577.763 -3.43366 -3.52648 0
M  V30 6469 N 579.415 0.9433 -1.26252 0
M  V30 6470 C 580.655 1.70397 -1.1289 0
M  V30 6471 C 581.019 1.89268 0.322713 0
M  V30 6472 O 582.22 2.62503 0.578418 0
M  V30 6473 C 580.491 3.04296 -1.87453 0
M  V30 6474 S 582.05 3.95475 -1.90119 0
M  V30 6475 H 578.868 0.585559 -0.403289 0
M  V30 6476 H 581.47 1.12424 -1.59941 0
M  V30 6477 H 580.174 2.8824 -2.9214 0
M  V30 6478 H 579.705 3.67327 -1.40835 0
M  V30 6479 H 581.72 4.86297 -0.986373 0
M  V30 6480 N 580.893 1.08022 1.14757 0
M  V30 6481 C 582.14 0.807509 1.85703 0
M  V30 6482 C 582.468 -0.666617 1.8272 0
M  V30 6483 O 581.723 -1.50562 1.25018 0
M  V30 6484 C 582.022 1.26964 3.34088 0
M  V30 6485 C 581.688 2.7509 3.57262 0
M  V30 6486 C 580.35 3.15547 3.63296 0
M  V30 6487 C 582.702 3.70667 3.66409 0
M  V30 6488 C 580.03 4.50384 3.75994 0
M  V30 6489 C 582.382 5.05274 3.80632 0
M  V30 6490 C 581.046 5.45342 3.84913 0
M  V30 6491 H 580.316 0.295488 0.679535 0
M  V30 6492 H 582.963 1.35245 1.35577 0
M  V30 6493 H 581.268 0.644216 3.86467 0
M  V30 6494 H 582.965 1.03544 3.87401 0
M  V30 6495 H 579.555 2.42775 3.53212 0
M  V30 6496 H 583.739 3.40533 3.61041 0
M  V30 6497 H 578.995 4.80886 3.77569 0
M  V30 6498 H 583.169 5.79201 3.86652 0
M  V30 6499 H 580.796 6.49823 3.94505 0
M  V30 6500 N 582.371 -1.3172 0.865308 0
M  V30 6501 C 583.599 -2.01057 0.488251 0
M  V30 6502 C 584.014 -1.64979 -0.918 0
M  V30 6503 O 583.371 -0.876597 -1.60069 0
M  V30 6504 C 583.422 -3.55964 0.630224 0
M  V30 6505 O 583.143 -3.90749 1.98109 0
M  V30 6506 C 584.644 -4.42574 0.253567 0
M  V30 6507 H 581.864 -0.64332 0.190736 0
M  V30 6508 H 584.408 -1.68058 1.16519 0
M  V30 6509 H 582.563 -3.874 0.000895422 0
M  V30 6510 H 582.977 -4.85467 1.9855 0
M  V30 6511 H 584.451 -5.50521 0.403875 0
M  V30 6512 H 584.928 -4.31724 -0.806895 0
M  V30 6513 H 585.534 -4.16547 0.858404 0
M  V30 6514 N 583.85 -0.624285 -1.44708 0
M  V30 6515 C 585.098 -0.125802 -2.01708 0
M  V30 6516 C 585.418 1.2543 -1.49306 0
M  V30 6517 O 584.689 1.83198 -0.693924 0
M  V30 6518 H 583.269 -0.0435161 -0.745731 0
M  V30 6519 H 585.931 -0.809446 -1.77296 0
M  V30 6520 H 585.027 -0.0882734 -3.11975 0
M  V30 6521 N 585.328 1.53329 -0.364422 0
M  V30 6522 C 586.558 2.05359 0.226096 0
M  V30 6523 C 586.966 1.23777 1.43094 0
M  V30 6524 O 586.309 0.271139 1.81688 0
M  V30 6525 C 586.371 3.52918 0.684794 0
M  V30 6526 C 586.035 4.55218 -0.403206 0
M  V30 6527 C 587.032 5.04583 -1.2527 0
M  V30 6528 C 584.717 4.99134 -0.563117 0
M  V30 6529 C 586.711 5.96463 -2.24745 0
M  V30 6530 C 584.398 5.9082 -1.56124 0
M  V30 6531 C 585.396 6.39375 -2.40184 0
M  V30 6532 O 585.084 7.29255 -3.38293 0
M  V30 6533 H 584.816 0.674588 0.0436772 0
M  V30 6534 H 587.37 1.98688 -0.520782 0
M  V30 6535 H 585.6 3.57122 1.48326 0
M  V30 6536 H 587.289 3.87812 1.19818 0
M  V30 6537 H 588.055 4.71403 -1.14034 0
M  V30 6538 H 583.934 4.60928 0.0813909 0
M  V30 6539 H 587.478 6.34285 -2.90393 0
M  V30 6540 H 583.375 6.23414 -1.67407 0
M  V30 6541 H 584.143 7.47249 -3.34009 0
M  V30 6542 N 586.806 0.0935595 1.57322 0
M  V30 6543 C 588.222 -0.263091 1.57417 0
M  V30 6544 C 588.422 -1.68526 1.1046 0
M  V30 6545 O 587.478 -2.40139 0.780357 0
M  V30 6546 C 588.791 -0.0529201 3.00653 0
M  V30 6547 C 590.339 -0.120788 3.12767 0
M  V30 6548 C 590.814 0.0613707 4.57959 0
M  V30 6549 N 592.305 0.00648534 4.632 0
M  V30 6550 C 593.04 0.122699 5.73269 0
M  V30 6551 N 592.536 0.29366 6.92177 0
M  V30 6552 N 594.329 0.0640787 5.62063 0
M  V30 6553 H 586.48 1.02277 1.86154 0
M  V30 6554 H 588.743 0.4007 0.859153 0
M  V30 6555 H 588.449 0.929279 3.39201 0
M  V30 6556 H 588.323 -0.795899 3.68708 0
M  V30 6557 H 590.71 -1.09349 2.74093 0
M  V30 6558 H 590.791 0.653656 2.47307 0
M  V30 6559 H 590.435 1.03093 4.97327 0
M  V30 6560 H 590.365 -0.732748 5.21477 0
M  V30 6561 H 592.856 -0.123173 3.77699 0
M  V30 6562 H 593.169 0.37389 7.71895 0
M  V30 6563 H 591.514 0.329307 6.94219 0
M  V30 6564 H 594.705 -0.0683396 4.6805 0
M  V30 6565 H 594.878 0.158097 6.47807 0
M  V30 6566 N 588.284 -1.56567 -0.180126 0
M  V30 6567 C 589.216 -1.92275 -1.24751 0
M  V30 6568 C 590.229 -0.814922 -1.40936 0
M  V30 6569 O 591.418 -1.09336 -1.41095 0
M  V30 6570 C 588.518 -2.15265 -2.61752 0
M  V30 6571 C 587.691 -3.46467 -2.66981 0
M  V30 6572 C 586.75 -3.58391 -3.85283 0
M  V30 6573 O 585.776 -4.31086 -3.7169 0
M  V30 6574 N 586.978 -2.92587 -5.01371 0
M  V30 6575 H 589.743 -2.84435 -0.944302 0
M  V30 6576 H 587.304 -1.57617 -0.369952 0
M  V30 6577 H 589.296 -2.20515 -3.39345 0
M  V30 6578 H 587.866 -1.29533 -2.845 0
M  V30 6579 H 587.086 -3.52953 -1.75549 0
M  V30 6580 H 588.374 -4.32819 -2.67479 0
M  V30 6581 H 587.772 -2.3338 -5.15316 0
M  V30 6582 H 586.329 -3.03444 -5.76858 0
M  V30 6583 N 589.762 0.448376 -1.51087 0
M  V30 6584 C 590.692 1.55102 -1.74544 0
M  V30 6585 C 591.673 1.59357 -0.594932 0
M  V30 6586 O 592.858 1.75261 -0.836491 0
M  V30 6587 C 589.988 2.93268 -1.86041 0
M  V30 6588 C 588.942 3.03877 -3.01402 0
M  V30 6589 C 588.268 4.43914 -2.98068 0
M  V30 6590 C 589.568 2.7898 -4.41551 0
M  V30 6591 H 591.262 1.35724 -2.66869 0
M  V30 6592 H 588.808 0.651498 -1.28419 0
M  V30 6593 H 590.761 3.70356 -2.01034 0
M  V30 6594 H 589.485 3.13853 -0.903548 0
M  V30 6595 H 588.144 2.29227 -2.86096 0
M  V30 6596 H 587.792 4.6145 -2.00182 0
M  V30 6597 H 587.492 4.51944 -3.75527 0
M  V30 6598 H 589.016 5.22991 -3.1514 0
M  V30 6599 H 590.43 3.45805 -4.57265 0
M  V30 6600 H 588.827 2.98431 -5.20633 0
M  V30 6601 H 589.897 1.74663 -4.5235 0
M  V30 6602 N 591.24 1.41047 0.703093 0
M  V30 6603 C 592.48 1.41461 1.4754 0
M  V30 6604 C 592.844 0.0199013 1.9199 0
M  V30 6605 O 594.045 -0.101138 2.6861 0
M  V30 6606 C 592.316 2.38703 2.66 0
M  V30 6607 S 593.875 2.57582 3.55242 0
M  V30 6608 H 590.693 0.501226 0.504275 0
M  V30 6609 H 593.295 1.77422 0.821074 0
M  V30 6610 H 591.999 3.3885 2.31536 0
M  V30 6611 H 591.53 2.04069 3.36333 0
M  V30 6612 H 593.545 1.83758 4.6092 0
M  V30 6613 N 592.718 -0.936591 1.26751 0
M  V30 6614 C 593.966 -1.67998 1.12343 0
M  V30 6615 C 594.287 -1.92137 -0.332938 0
M  V30 6616 O 593.557 -1.52132 -1.23421 0
M  V30 6617 H 592.137 -0.622609 0.412756 0
M  V30 6618 H 594.799 -1.12509 1.59147 0
M  V30 6619 H 593.895 -2.65185 1.64571 0
M  V30 6620 N 594.196 -1.08629 -1.14182 0
M  V30 6621 C 595.436 -0.826884 -1.86928 0
M  V30 6622 C 595.8 0.635808 -1.81167 0
M  V30 6623 O 597.001 1.0108 -2.49071 0
M  V30 6624 C 595.272 -1.33721 -3.31442 0
M  V30 6625 S 596.831 -1.21045 -4.21774 0
M  V30 6626 H 593.649 -0.299286 -0.644941 0
M  V30 6627 H 596.251 -1.38802 -1.37674 0
M  V30 6628 H 594.955 -2.39617 -3.33184 0
M  V30 6629 H 594.486 -0.771839 -3.85754 0
M  V30 6630 H 596.501 -0.156168 -4.95954 0
M  V30 6631 N 595.674 1.31259 -0.872281 0
M  V30 6632 C 596.904 2.00504 -0.498183 0
M  V30 6633 C 597.312 1.65632 0.914479 0
M  V30 6634 O 596.655 0.882849 1.61095 0
M  V30 6635 C 596.717 3.5482 -0.578194 0
M  V30 6636 C 596.381 4.13172 -1.95289 0
M  V30 6637 C 597.378 4.30107 -2.92069 0
M  V30 6638 C 595.063 4.48846 -2.25483 0
M  V30 6639 C 597.057 4.81908 -4.17185 0
M  V30 6640 C 594.744 5.00349 -3.50847 0
M  V30 6641 C 595.742 5.16831 -4.46514 0
M  V30 6642 O 595.43 5.67228 -5.69656 0
M  V30 6643 H 595.162 0.648055 -0.192354 0
M  V30 6644 H 597.716 1.6841 -1.17589 0
M  V30 6645 H 595.946 3.86383 0.156438 0
M  V30 6646 H 597.635 4.05318 -0.217192 0
M  V30 6647 H 598.401 4.02862 -2.7005 0
M  V30 6648 H 594.28 4.35292 -1.51795 0
M  V30 6649 H 597.824 4.94688 -4.91863 0
M  V30 6650 H 593.721 5.27028 -3.72708 0
M  V30 6651 H 594.489 5.85592 -5.7186 0
M  V30 6652 N 597.152 0.631951 1.44375 0
M  V30 6653 C 598.082 -0.0593243 2.33425 0
M  V30 6654 C 599.063 -0.833964 1.48253 0
M  V30 6655 O 600.248 -0.799682 1.76971 0
M  V30 6656 C 597.378 -1.04096 3.31333 0
M  V30 6657 C 596.332 -0.377899 4.26328 0
M  V30 6658 C 595.658 -1.4695 5.14111 0
M  V30 6659 C 596.958 0.716371 5.17364 0
M  V30 6660 H 598.652 0.684287 2.91475 0
M  V30 6661 H 596.198 0.330518 1.40156 0
M  V30 6662 H 598.151 -1.53331 3.92514 0
M  V30 6663 H 596.875 -1.81547 2.71493 0
M  V30 6664 H 595.534 0.0938054 3.6648 0
M  V30 6665 H 595.182 -2.2349 4.50623 0
M  V30 6666 H 594.882 -1.03121 5.78481 0
M  V30 6667 H 596.406 -1.96363 5.78164 0
M  V30 6668 H 597.82 0.307089 5.72477 0
M  V30 6669 H 596.217 1.07784 5.90341 0
M  V30 6670 H 597.287 1.58316 4.58327 0
M  V30 6671 N 598.631 -1.53133 0.372548 0
M  V30 6672 C 599.859 -2.05774 -0.215515 0
M  V30 6673 C 600.274 -1.24555 -1.41886 0
M  V30 6674 O 599.631 -0.287951 -1.80214 0
M  V30 6675 C 599.682 -3.5645 -0.602161 0
M  V30 6676 O 599.403 -4.34591 0.553359 0
M  V30 6677 C 600.904 -4.25374 -1.24787 0
M  V30 6678 H 598.124 -0.670009 -0.0364529 0
M  V30 6679 H 600.668 -1.97434 0.532934 0
M  V30 6680 H 598.823 -3.64918 -1.30052 0
M  V30 6681 H 599.237 -5.23954 0.239336 0
M  V30 6682 H 600.711 -5.32097 -1.46891 0
M  V30 6683 H 601.188 -3.79531 -2.21026 0
M  V30 6684 H 601.794 -4.21177 -0.590752 0
M  V30 6685 N 600.109 -0.101901 -1.5727 0
M  V30 6686 C 601.525 0.254739 -1.57554 0
M  V30 6687 C 601.725 1.67937 -1.11352 0
M  V30 6688 O 600.781 2.39722 -0.793081 0
M  V30 6689 C 602.094 0.036975 -3.00677 0
M  V30 6690 C 603.642 0.104199 -3.12827 0
M  V30 6691 C 604.117 -0.0856565 -4.5792 0
M  V30 6692 N 605.608 -0.0310498 -4.6319 0
M  V30 6693 C 606.343 -0.153099 -5.73196 0
M  V30 6694 N 605.839 -0.330364 -6.92012 0
M  V30 6695 N 607.632 -0.0938854 -5.62022 0
M  V30 6696 H 599.783 -1.03263 -1.85609 0
M  V30 6697 H 602.046 -0.405251 -0.857016 0
M  V30 6698 H 601.752 -0.947254 -3.38703 0
M  V30 6699 H 601.626 0.776335 -3.69124 0
M  V30 6700 H 604.013 1.07894 -2.74669 0
M  V30 6701 H 604.094 -0.666762 -2.46957 0
M  V30 6702 H 603.738 -1.05729 -4.96773 0
M  V30 6703 H 603.668 0.705082 -5.21858 0
M  V30 6704 H 606.159 0.103141 -3.77759 0
M  V30 6705 H 606.472 -0.41482 -7.71686 0
M  V30 6706 H 604.817 -0.366119 -6.94035 0
M  V30 6707 H 608.008 0.0435168 -4.6808 0
M  V30 6708 H 608.181 -0.19245 -6.47714 0
M  V30 6709 N 601.587 1.56661 0.17182 0
M  V30 6710 C 602.864 1.72838 0.915778 0
M  V30 6711 C 603.244 0.66316 2.00413 0
M  V30 6712 O 602.592 -0.322123 2.26218 0
M  V30 6713 C 602.802 3.16019 1.48097 0
M  V30 6714 C 604.15 3.76962 1.95408 0
M  V30 6715 O 605.174 3.19294 1.57892 0
M  V30 6716 O 604.033 4.78219 2.64516 0
M  V30 6717 H 601.127 0.705797 0.431021 0
M  V30 6718 H 603.673 1.68947 0.159689 0
M  V30 6719 H 602.445 3.85031 0.697618 0
M  V30 6720 H 602.068 3.24234 2.30126 0
M  V30 6721 N 603.065 -0.440357 1.51323 0
M  V30 6722 C 604.342 -1.20109 1.5438 0
M  V30 6723 C 604.722 -2.08866 0.306303 0
M  V30 6724 O 604.07 -2.1723 -0.708773 0
M  V30 6725 C 604.28 -2.00555 2.8562 0
M  V30 6726 C 605.628 -2.577 3.37455 0
M  V30 6727 O 606.652 -2.10769 2.8715 0
M  V30 6728 O 605.511 -3.43289 4.25224 0
M  V30 6729 H 602.605 -0.546668 0.620551 0
M  V30 6730 H 605.151 -0.449672 1.63634 0
M  V30 6731 H 603.923 -1.35346 3.67147 0
M  V30 6732 H 603.546 -2.82768 2.79514 0
M  V30 6733 N 604.543 -1.41418 -0.695603 0
M  V30 6734 C 605.789 -1.40982 -1.4578 0
M  V30 6735 C 606.122 -0.0187763 -1.94191 0
M  V30 6736 O 605.397 0.95346 -1.69527 0
M  V30 6737 C 605.68 -2.41657 -2.66972 0
M  V30 6738 C 605.533 -3.89869 -2.24327 0
M  V30 6739 C 606.852 -2.39589 -3.69168 0
M  V30 6740 H 603.971 -0.513405 -0.528757 0
M  V30 6741 H 606.613 -1.72693 -0.792275 0
M  V30 6742 H 604.763 -2.14746 -3.23754 0
M  V30 6743 H 606.435 -4.27683 -1.72872 0
M  V30 6744 H 604.678 -4.04737 -1.56111 0
M  V30 6745 H 605.349 -4.55857 -3.11285 0
M  V30 6746 H 607.825 -2.63471 -3.2206 0
M  V30 6747 H 606.701 -3.12044 -4.51575 0
M  V30 6748 H 606.962 -1.41447 -4.18862 0
M  V30 6749 N 606.021 0.929856 -1.27246 0
M  V30 6750 C 606.951 2.04722 -1.12299 0
M  V30 6751 C 607.932 1.70082 -0.0250464 0
M  V30 6752 O 609.117 1.93176 -0.199141 0
M  V30 6753 C 606.247 3.38721 -0.767145 0
M  V30 6754 C 605.201 3.87466 -1.81808 0
M  V30 6755 C 604.527 5.18246 -1.31626 0
M  V30 6756 C 605.827 4.11095 -3.22177 0
M  V30 6757 H 607.521 2.17485 -2.05769 0
M  V30 6758 H 605.067 1.04503 -0.990715 0
M  V30 6759 H 607.02 4.16366 -0.649413 0
M  V30 6760 H 605.744 3.25967 0.203259 0
M  V30 6761 H 604.403 3.12012 -1.92468 0
M  V30 6762 H 604.051 5.01881 -0.335378 0
M  V30 6763 H 603.751 5.51829 -2.01887 0
M  V30 6764 H 605.275 5.98462 -1.21143 0
M  V30 6765 H 606.689 4.79316 -3.1453 0
M  V30 6766 H 605.086 4.55982 -3.90129 0
M  V30 6767 H 606.156 3.16468 -3.67391 0
M  V30 6768 N 607.499 1.09233 1.13605 0
M  V30 6769 C 608.447 0.724572 2.21027 0
M  V30 6770 C 609.441 -0.273595 1.67176 0
M  V30 6771 O 610.647 -0.135266 1.79491 0
M  V30 6772 H 607.022 0.216319 0.720215 0
M  V30 6773 H 608.993 1.63975 2.49309 0
M  V30 6774 C 607.742 0.159126 3.47336 0
M  V30 6775 H 607.065 0.918387 3.89109 0
M  V30 6776 H 608.505 -0.0602851 4.23957 0
M  V30 6777 C 606.964 -1.10514 3.18258 0
M  V30 6778 O 607.494 -2.18869 3.36837 0
M  V30 6779 N 605.7 -1.01886 2.72154 0
M  V30 6780 H 605.247 -0.137027 2.57235 0
M  V30 6781 H 605.205 -1.8655 2.53074 0
M  V30 6782 N 608.977 -1.30795 0.87923 0
M  V30 6783 C 610.205 -2.00527 0.509548 0
M  V30 6784 C 610.62 -1.65944 -0.90045 0
M  V30 6785 O 609.977 -0.893525 -1.5913 0
M  V30 6786 C 610.028 -3.55276 0.667943 0
M  V30 6787 O 609.749 -3.88625 2.02242 0
M  V30 6788 C 611.25 -4.4228 0.300494 0
M  V30 6789 H 608.47 -0.641261 0.197549 0
M  V30 6790 H 611.014 -1.66813 1.18295 0
M  V30 6791 H 609.169 -3.87377 0.0419843 0
M  V30 6792 H 609.583 -4.83334 2.03688 0
M  V30 6793 H 611.057 -5.50061 0.462242 0
M  V30 6794 H 611.534 -4.32556 -0.76106 0
M  V30 6795 H 612.14 -4.15613 0.902536 0
M  V30 6796 N 610.455 -0.639598 -1.44038 0
M  V30 6797 C 611.418 0.0506628 -2.29144 0
M  V30 6798 C 612.418 0.764001 -1.41491 0
M  V30 6799 O 613.608 0.607309 -1.63271 0
M  V30 6800 C 610.74 1.0824 -3.2326 0
M  V30 6801 H 611.933 -0.697987 -2.91664 0
M  V30 6802 H 609.486 -0.400146 -1.51091 0
M  V30 6803 H 610.221 1.86075 -2.65606 0
M  V30 6804 H 610.006 0.574725 -3.87865 0
M  V30 6805 H 611.496 1.56487 -3.87171 0
M  V30 6806 N 611.933 1.52934 -0.380664 0
M  V30 6807 C 613.349 1.59571 -0.0302429 0
M  V30 6808 C 613.549 1.39509 1.45394 0
M  V30 6809 O 612.605 1.20777 2.21741 0
M  V30 6810 C 613.918 2.96519 -0.499691 0
M  V30 6811 C 615.466 3.09672 -0.455204 0
M  V30 6812 C 615.941 4.49056 -0.900703 0
M  V30 6813 N 617.432 4.55215 -0.856367 0
M  V30 6814 C 618.167 5.61282 -1.17259 0
M  V30 6815 N 617.663 6.75035 -1.55885 0
M  V30 6816 N 619.456 5.51343 -1.0944 0
M  V30 6817 H 611.607 1.64224 -1.347 0
M  V30 6818 H 613.87 0.771033 -0.551554 0
M  V30 6819 H 613.576 3.16388 -1.53595 0
M  V30 6820 H 613.45 3.77052 0.105789 0
M  V30 6821 H 615.837 2.89504 0.571949 0
M  V30 6822 H 615.918 2.31113 -1.09638 0
M  V30 6823 H 615.562 4.69964 -1.92604 0
M  V30 6824 H 615.492 5.26068 -0.236629 0
M  V30 6825 H 617.983 3.73546 -0.572013 0
M  V30 6826 H 618.296 7.51926 -1.784 0
M  V30 6827 H 616.641 6.76388 -1.59764 0
M  V30 6828 H 619.832 4.61356 -0.791713 0
M  V30 6829 H 620.005 6.33905 -1.34417 0
M  V30 6830 N 613.412 0.11024 1.57214 0
M  V30 6831 C 614.342 -0.840002 2.17867 0
M  V30 6832 C 615.323 -1.28352 1.11624 0
M  V30 6833 O 616.508 -1.3477 1.39824 0
M  V30 6834 C 613.638 -2.09349 2.77111 0
M  V30 6835 C 612.592 -1.78807 3.8886 0
M  V30 6836 C 611.918 -3.11112 4.34872 0
M  V30 6837 C 613.218 -1.0632 5.11364 0
M  V30 6838 H 614.912 -0.334608 2.97524 0
M  V30 6839 H 612.458 -0.159502 1.43114 0
M  V30 6840 H 614.411 -2.76275 3.18198 0
M  V30 6841 H 613.135 -2.62198 1.9473 0
M  V30 6842 H 611.794 -1.14273 3.48335 0
M  V30 6843 H 611.442 -3.61877 3.49362 0
M  V30 6844 H 611.142 -2.91453 5.10224 0
M  V30 6845 H 612.666 -3.79171 4.78604 0
M  V30 6846 H 614.08 -1.63383 5.49526 0
M  V30 6847 H 612.477 -0.967876 5.92243 0
M  V30 6848 H 613.547 -0.0484569 4.84876 0
M  V30 6849 N 614.89 -1.56749 -0.16351 0
M  V30 6850 C 615.82 -2.00042 -1.20438 0
M  V30 6851 C 616.801 -0.877256 -1.45733 0
M  V30 6852 O 617.986 -1.1439 -1.56935 0
M  V30 6853 C 615.116 -2.36697 -2.54149 0
M  V30 6854 C 614.07 -3.52046 -2.43408 0
M  V30 6855 C 613.396 -3.74466 -3.81679 0
M  V30 6856 C 614.696 -4.85247 -1.93216 0
M  V30 6857 H 616.39 -2.87244 -0.844477 0
M  V30 6858 H 613.936 -1.38194 -0.40478 0
M  V30 6859 H 615.889 -2.65582 -3.27176 0
M  V30 6860 H 614.613 -1.46414 -2.91943 0
M  V30 6861 H 613.272 -3.23301 -1.72834 0
M  V30 6862 H 612.92 -2.81461 -4.1688 0
M  V30 6863 H 612.62 -4.52084 -3.75359 0
M  V30 6864 H 614.144 -4.0576 -4.5628 0
M  V30 6865 H 615.558 -5.12957 -2.56023 0
M  V30 6866 H 613.955 -5.66556 -1.97825 0
M  V30 6867 H 615.025 -4.7672 -0.88689 0
M  V30 6868 N 616.368 0.432326 -1.51554 0
M  V30 6869 C 617.616 1.17901 -1.64146 0
M  V30 6870 C 617.937 1.91604 -0.362367 0
M  V30 6871 O 617.207 1.85764 0.621968 0
M  V30 6872 H 615.787 0.438206 -0.604966 0
M  V30 6873 H 618.449 0.495172 -1.88505 0
M  V30 6874 H 617.545 1.90584 -2.47152 0
M  V30 6875 N 617.846 1.41785 0.688094 0
M  V30 6876 C 618.776 1.47 1.8142 0
M  V30 6877 C 619.757 0.327881 1.6691 0
M  V30 6878 O 620.942 0.540362 1.86531 0
M  V30 6879 C 618.072 1.35876 3.19617 0
M  V30 6880 C 617.026 2.47976 3.48844 0
M  V30 6881 C 616.352 2.21915 4.86475 0
M  V30 6882 C 617.652 3.90309 3.47068 0
M  V30 6883 H 619.346 2.41247 1.77314 0
M  V30 6884 H 616.892 1.16116 0.851651 0
M  V30 6885 H 618.845 1.38134 3.98117 0
M  V30 6886 H 617.569 0.38116 3.24368 0
M  V30 6887 H 616.228 2.45013 2.72698 0
M  V30 6888 H 615.876 1.2248 4.8786 0
M  V30 6889 H 615.576 2.97037 5.06994 0
M  V30 6890 H 617.1 2.25901 5.67275 0
M  V30 6891 H 618.514 3.94947 4.1556 0
M  V30 6892 H 616.911 4.65175 3.7912 0
M  V30 6893 H 617.981 4.17927 2.45896 0
M  V30 6894 N 619.324 -0.923095 1.27737 0
M  V30 6895 C 620.256 -2.02871 1.06658 0
M  V30 6896 C 621.269 -1.62786 0.0212095 0
M  V30 6897 O 622.458 -1.76548 0.263267 0
M  V30 6898 C 619.558 -3.33603 0.59682 0
M  V30 6899 C 618.731 -4.02354 1.71551 0
M  V30 6900 C 617.79 -5.11364 1.24071 0
M  V30 6901 O 616.816 -5.35075 1.94123 0
M  V30 6902 N 618.018 -5.80416 0.0988444 0
M  V30 6903 H 620.783 -2.21515 2.01869 0
M  V30 6904 H 618.344 -1.09378 1.19365 0
M  V30 6905 H 620.336 -4.03845 0.262984 0
M  V30 6906 H 618.906 -3.11499 -0.262187 0
M  V30 6907 H 618.126 -3.25786 2.2194 0
M  V30 6908 H 619.414 -4.45035 2.46619 0
M  V30 6909 H 618.812 -5.63611 -0.485743 0
M  V30 6910 H 617.369 -6.51563 -0.17578 0
M  V30 6911 N 620.802 -1.09834 -1.13024 0
M  V30 6912 C 621.765 -0.745058 -2.16752 0
M  V30 6913 C 622.765 0.227435 -1.59183 0
M  V30 6914 O 623.955 0.0050786 -1.74199 0
M  V30 6915 C 621.087 -0.102543 -3.40746 0
M  V30 6916 H 622.28 -1.66375 -2.49518 0
M  V30 6917 H 619.833 -0.898061 -1.27924 0
M  V30 6918 H 620.568 0.827177 -3.13573 0
M  V30 6919 H 620.353 -0.80235 -3.83803 0
M  V30 6920 H 621.843 0.129082 -4.174 0
M  V30 6921 O 622.319 1.25285 -1.01911 0
M  V30 6922 H 623.01 1.81359 -0.680326 0
M  V30 END ATOM
M  V30 BEGIN BOND
M  V30 END BOND
M  V30 END CTAB
M  END
$$$$
