drugbank_target|P0AFM2 Glycine betaine-binding periplasmic protein (DB04284; DB04455)
 OpenBabel12092120033D

  0  0  0     0  0            999 V3000
M  V30 BEGIN CTAB
M  V30 COUNTS 5009 5074 0 0 0
M  V30 BEGIN ATOM
M  V30 1 H -0.908 1.98254 -0.117106 0
M  V30 2 N 0 1.576 0 0
M  V30 3 C 0.933 2.03868 1.02534 0
M  V30 4 C 1.911 0.928543 1.3348 0
M  V30 5 O 3.095 1.19667 1.45644 0
M  V30 6 C 0.222 2.43627 2.35294 0
M  V30 7 C -0.732 3.65373 2.2001 0
M  V30 8 S 0.101 5.13292 1.52614 0
M  V30 9 C 1.257 5.56322 2.86805 0
M  V30 10 H 1.49 2.90518 0.631377 0
M  V30 11 H -0.977 1.52953 0.210867 0
M  V30 12 H 0.981 2.67203 3.11629 0
M  V30 13 H -0.358 1.57376 2.7183 0
M  V30 14 H -1.165 3.90944 3.18086 0
M  V30 15 H -1.563 3.418 1.51819 0
M  V30 16 H 0.729 5.58782 3.83104 0
M  V30 17 H 1.672 6.56266 2.65933 0
M  V30 18 H 2.08 4.83886 2.90714 0
M  V30 19 N 1.4781 -0.272755 1.55222 0
M  V30 20 C 2.8941 -0.619959 1.47067 0
M  V30 21 C 3.0941 -1.895 0.684978 0
M  V30 22 O 2.1501 -2.51675 0.203931 0
M  V30 23 C 3.4631 -0.746693 2.91282 0
M  V30 24 C 5.0111 -0.840731 3.01497 0
M  V30 25 C 5.4861 -0.99924 4.46967 0
M  V30 26 N 6.9771 -1.06476 4.50796 0
M  V30 27 C 7.7121 -1.20621 5.6057 0
M  V30 28 N 7.2081 -1.31483 6.80209 0
M  V30 29 N 9.0011 -1.23733 5.48312 0
M  V30 30 H 1.1521 0.564606 2.04758 0
M  V30 31 H 3.4151 0.191177 0.928523 0
M  V30 32 H 3.1211 0.119753 3.51496 0
M  V30 33 H 2.9951 -1.6269 3.40311 0
M  V30 34 H 5.3821 -1.69764 2.41379 0
M  V30 35 H 5.4631 0.0640874 2.5572 0
M  V30 36 H 5.1071 -0.146984 5.07687 0
M  V30 37 H 5.0371 -1.91871 4.90401 0
M  V30 38 H 7.5281 -0.993196 3.64615 0
M  V30 39 H 7.8411 -1.42111 7.59621 0
M  V30 40 H 6.1861 -1.28487 6.8302 0
M  V30 41 H 9.3771 -1.14877 4.53785 0
M  V30 42 H 9.5501 -1.34412 6.33906 0
M  V30 43 N 2.9562 -1.48159 -0.537278 0
M  V30 44 C 3.9062 -1.5854 -1.63857 0
M  V30 45 C 4.8902 -0.442969 -1.54682 0
M  V30 46 O 6.0822 -0.69401 -1.62827 0
M  V30 47 C 3.2112 -1.62144 -3.02596 0
M  V30 48 C 2.2972 -2.81841 -3.16901 0
M  V30 49 N 2.6882 -4.06337 -3.01204 0
M  V30 50 C 0.9862 -2.79021 -3.47942 0
M  V30 51 C 1.6872 -4.86606 -3.18731 0
M  V30 52 N 0.6632 -4.19288 -3.45974 0
M  V30 53 H 4.4652 -2.5255 -1.50319 0
M  V30 54 H 1.9792 -1.4443 -0.742555 0
M  V30 55 H 3.9762 -1.67674 -3.81695 0
M  V30 56 H 2.6362 -0.69245 -3.17231 0
M  V30 57 H 3.6472 -4.36888 -2.78117 0
M  V30 58 H 0.3242 -1.95347 -3.6898 0
M  V30 59 H 1.7142 -5.95385 -3.11394 0
M  V30 60 N 4.4343 0.785586 -1.36625 0
M  V30 61 C 5.6593 1.57963 -1.34397 0
M  V30 62 C 6.0843 1.87964 0.071526 0
M  V30 63 O 5.4423 1.48182 1.0446 0
M  V30 64 C 5.4903 2.87511 -2.17646 0
M  V30 65 O 4.5943 3.81281 -1.57158 0
M  V30 66 H 3.9353 0.479014 -0.459828 0
M  V30 67 H 6.4653 0.973411 -1.79961 0
M  V30 68 H 6.4753 3.36745 -2.30362 0
M  V30 69 H 5.1503 2.65002 -3.20541 0
M  V30 70 H 3.7273 3.39885 -1.53403 0
M  V30 71 N 5.9124 1.20967 1.01018 0
M  V30 72 C 7.1584 1.02526 1.74975 0
M  V30 73 C 7.4914 -0.4408 1.89131 0
M  V30 74 O 6.7664 -1.32718 1.42184 0
M  V30 75 C 7.0494 1.71699 3.1653 0
M  V30 76 C 6.9024 3.25791 3.10129 0
M  V30 77 C 8.2214 1.45531 4.15342 0
M  V30 78 H 5.3404 0.373863 0.635134 0
M  V30 79 H 7.9824 1.49071 1.17805 0
M  V30 80 H 6.1324 1.32128 3.65341 0
M  V30 81 H 7.8044 3.74697 2.69072 0
M  V30 82 H 6.0474 3.56363 2.47362 0
M  V30 83 H 6.7184 3.69353 4.10222 0
M  V30 84 H 9.1944 1.79872 3.75213 0
M  V30 85 H 8.0704 1.96453 5.1254 0
M  V30 86 H 8.3314 0.384237 4.40427 0
M  V30 87 N 7.3905 -1.2043 1.01659 0
M  V30 88 C 8.3205 -2.25466 0.607226 0
M  V30 89 C 9.3015 -1.65853 -0.377716 0
M  V30 90 O 10.4865 -1.92409 -0.263149 0
M  V30 91 C 7.6165 -3.47256 -0.0552949 0
M  V30 92 C 6.5705 -4.19462 0.850632 0
M  V30 93 C 5.8965 -5.34673 0.0538859 0
M  V30 94 C 7.1965 -4.75603 2.15868 0
M  V30 95 H 8.8905 -2.59962 1.48526 0
M  V30 96 H 6.4365 -1.2496 0.715605 0
M  V30 97 H 8.3895 -4.19917 -0.353233 0
M  V30 98 H 7.1135 -3.11924 -0.968045 0
M  V30 99 H 5.7725 -3.48667 1.13257 0
M  V30 100 H 5.4205 -4.95585 -0.860514 0
M  V30 101 H 5.1205 -5.83913 0.657192 0
M  V30 102 H 6.6445 -6.10138 -0.237598 0
M  V30 103 H 8.0585 -5.40083 1.92311 0
M  V30 104 H 6.4555 -5.3528 2.71284 0
M  V30 105 H 7.5255 -3.94346 2.82169 0
M  V30 106 N 8.8686 -0.792821 -1.36206 0
M  V30 107 C 10.1156 -0.366786 -1.99151 0
M  V30 108 C 10.4436 1.06243 -1.62919 0
M  V30 109 O 9.6986 1.74927 -0.877442 0
M  V30 110 C 9.9976 -0.481501 -3.54142 0
M  V30 111 C 9.6636 -1.87202 -4.10203 0
M  V30 112 C 8.3256 -2.25248 -4.25226 0
M  V30 113 C 10.6776 -2.78237 -4.40719 0
M  V30 114 C 8.0056 -3.53723 -4.68078 0
M  V30 115 C 10.3576 -4.06144 -4.85005 0
M  V30 116 C 9.0216 -4.44207 -4.98234 0
M  V30 117 H 8.2916 -0.134217 -0.728743 0
M  V30 118 H 10.9386 -1.01094 -1.62641 0
M  V30 119 H 9.2436 0.246146 -3.91026 0
M  V30 120 H 10.9406 -0.132844 -4.0078 0
M  V30 121 H 7.5306 -1.56639 -3.98951 0
M  V30 122 H 11.7146 -2.50097 -4.28679 0
M  V30 123 H 6.9706 -3.8308 -4.76508 0
M  V30 124 H 11.1446 -4.76796 -5.07581 0
M  V30 125 H 8.7716 -5.43814 -5.31197 0
M  V30 126 N 10.3467 1.47872 -0.545128 0
M  V30 127 C 11.3097 2.28337 0.198717 0
M  V30 128 C 12.3097 1.36255 0.853888 0
M  V30 129 O 13.4997 1.59003 0.711606 0
M  V30 130 C 10.6317 3.15585 1.28915 0
M  V30 131 H 11.8247 2.95567 -0.507941 0
M  V30 132 H 9.3777 1.53362 -0.301616 0
M  V30 133 H 10.1127 2.53019 2.02859 0
M  V30 134 H 9.8977 3.83337 0.824309 0
M  V30 135 H 11.3877 3.76243 1.81194 0
M  V30 136 N 11.8248 0.280983 1.55075 0
M  V30 137 C 13.0528 -0.337293 2.04132 0
M  V30 138 C 13.4678 -1.4903 1.15912 0
M  V30 139 O 12.8248 -1.81606 0.180459 0
M  V30 140 C 12.8758 -0.812706 3.52246 0
M  V30 141 O 12.5968 0.294387 4.3711 0
M  V30 142 C 14.0978 -1.4982 4.17216 0
M  V30 143 H 11.3178 -0.0761638 0.666663 0
M  V30 144 H 13.8618 0.414787 2.00249 0
M  V30 145 H 12.0168 -1.51486 3.56554 0
M  V30 146 H 12.4308 -0.0721325 5.2445 0
M  V30 147 H 13.9048 -1.7822 5.22438 0
M  V30 148 H 14.3818 -2.43168 3.65741 0
M  V30 149 H 14.9878 -0.839742 4.16927 0
M  V30 150 N 13.3029 -1.57598 0.00835791 0
M  V30 151 C 14.2659 -2.07884 -0.965242 0
M  V30 152 C 15.2659 -0.989825 -1.26725 0
M  V30 153 O 16.4559 -1.25218 -1.21104 0
M  V30 154 C 13.5879 -2.52731 -2.28779 0
M  V30 155 H 14.7809 -2.95178 -0.530112 0
M  V30 156 H 12.3339 -1.54458 -0.239283 0
M  V30 157 H 13.0689 -1.68705 -2.76964 0
M  V30 158 H 12.8539 -3.32272 -2.08177 0
M  V30 159 H 14.3439 -2.91933 -2.98605 0
M  V30 160 N 14.781 0.264519 -1.55364 0
M  V30 161 C 16.028 0.994986 -1.7637 0
M  V30 162 C 16.356 1.85976 -0.5695 0
M  V30 163 O 15.611 1.90509 0.44776 0
M  V30 164 C 15.91 1.9004 -3.02687 0
M  V30 165 C 15.576 1.19243 -4.34847 0
M  V30 166 C 14.238 0.996709 -4.70764 0
M  V30 167 C 16.59 0.689296 -5.16622 0
M  V30 168 C 13.918 0.285261 -5.86006 0
M  V30 169 C 16.27 -0.00860079 -6.32599 0
M  V30 170 C 14.934 -0.215963 -6.67151 0
M  V30 171 H 14.204 0.364091 -0.645383 0
M  V30 172 H 16.851 0.266543 -1.89636 0
M  V30 173 H 15.156 2.69533 -2.84357 0
M  V30 174 H 16.853 2.46695 -3.16137 0
M  V30 175 H 13.443 1.3549 -4.06621 0
M  V30 176 H 17.627 0.828108 -4.89342 0
M  V30 177 H 12.883 0.113961 -6.11294 0
M  V30 178 H 17.057 -0.406186 -6.95214 0
M  V30 179 H 14.684 -0.769217 -7.56298 0
M  V30 180 N 16.2591 1.48442 0.529413 0
M  V30 181 C 17.2221 1.62524 1.61612 0
M  V30 182 C 18.2221 0.498509 1.52877 0
M  V30 183 O 19.4121 0.76431 1.56537 0
M  V30 184 C 16.5441 1.59597 3.01233 0
M  V30 185 H 17.7371 2.59423 1.50465 0
M  V30 186 H 15.2901 1.37047 0.751514 0
M  V30 187 H 16.0251 0.641781 3.17886 0
M  V30 188 H 15.8101 2.41397 3.08982 0
M  V30 189 H 17.3001 1.72646 3.80241 0
M  V30 190 N 17.7372 -0.778329 1.37039 0
M  V30 191 C 18.9652 -1.56734 1.35063 0
M  V30 192 C 19.3802 -1.88686 -0.0655597 0
M  V30 193 O 18.7372 -1.5096 -1.02554 0
M  V30 194 C 18.7882 -2.88163 2.18276 0
M  V30 195 O 18.5092 -2.57583 3.54376 0
M  V30 196 C 20.0102 -3.82422 2.24206 0
M  V30 197 H 17.2302 -0.485778 0.462883 0
M  V30 198 H 19.7742 -0.965185 1.8029 0
M  V30 199 H 17.9292 -3.44818 1.76576 0
M  V30 200 H 18.3432 -3.41699 3.97922 0
M  V30 201 H 19.8172 -4.71667 2.86765 0
M  V30 202 H 20.2942 -4.21078 1.24861 0
M  V30 203 H 20.9002 -3.31697 2.6619 0
M  V30 204 N 19.2153 -1.21501 -1.00376 0
M  V30 205 C 20.1453 -0.999478 -2.11028 0
M  V30 206 C 21.1263 0.0759671 -1.6993 0
M  V30 207 O 22.3113 -0.0841106 -1.94018 0
M  V30 208 C 19.4413 -0.564709 -3.42678 0
M  V30 209 C 18.3953 -1.58486 -3.97576 0
M  V30 210 C 17.7213 -1.00628 -5.25146 0
M  V30 211 C 19.0213 -2.97204 -4.29496 0
M  V30 212 H 20.7153 -1.92495 -2.29317 0
M  V30 213 H 18.2613 -0.92693 -1.102 0
M  V30 214 H 20.2143 -0.401091 -4.19487 0
M  V30 215 H 18.9383 0.396411 -3.24185 0
M  V30 216 H 17.5973 -1.73606 -3.22888 0
M  V30 217 H 17.2453 -0.0368439 -5.02987 0
M  V30 218 H 16.9453 -1.68771 -5.62841 0
M  V30 219 H 18.4693 -0.854015 -6.04598 0
M  V30 220 H 19.8833 -2.8552 -4.97143 0
M  V30 221 H 18.2803 -3.62372 -4.78338 0
M  V30 222 H 19.3503 -3.47956 -3.3772 0
M  V30 223 N 20.6934 1.19889 -1.02296 0
M  V30 224 C 21.9424 1.88743 -0.711257 0
M  V30 225 C 22.2554 1.80112 0.762817 0
M  V30 226 O 23.4614 2.44161 1.18733 0
M  V30 227 C 21.9174 3.38525 -1.22185 0
M  V30 228 C 21.5254 3.55727 -2.72328 0
M  V30 229 C 23.2694 4.12893 -0.985864 0
M  V30 230 C 21.1764 4.99369 -3.16835 0
M  V30 231 H 20.1064 0.706885 -0.262353 0
M  V30 232 H 22.7574 1.35586 -1.23648 0
M  V30 233 H 21.1394 3.91044 -0.624571 0
M  V30 234 H 22.3134 3.13564 -3.3766 0
M  V30 235 H 20.6284 2.94739 -2.9414 0
M  V30 236 H 23.2254 5.18813 -1.29374 0
M  V30 237 H 23.5684 4.16228 0.0775055 0
M  V30 238 H 24.1014 3.66494 -1.54684 0
M  V30 239 H 20.8404 5.01193 -4.22476 0
M  V30 240 H 20.3604 5.42317 -2.56228 0
M  V30 241 H 22.0394 5.67988 -3.09837 0
M  V30 242 N 22.1715 0.800033 1.35784 0
M  V30 243 C 23.3965 0.388511 2.03729 0
M  V30 244 C 23.8215 -0.990481 1.5991 0
M  V30 245 O 23.1795 -1.64013 0.772612 0
M  V30 246 C 23.2275 0.4726 3.5749 0
M  V30 247 O 22.3315 -0.51646 4.09153 0
M  V30 248 H 21.6725 0.163271 0.643614 0
M  V30 249 H 24.2025 1.0841 1.73518 0
M  V30 250 H 24.2125 0.34003 4.06581 0
M  V30 251 H 22.8875 1.47848 3.88734 0
M  V30 252 H 21.4645 -0.344673 3.71304 0
M  V30 253 N 23.6496 -1.47581 0.552962 0
M  V30 254 C 24.8776 -2.06875 0.0320556 0
M  V30 255 C 25.2926 -1.40625 -1.25976 0
M  V30 256 O 24.6496 -0.501349 -1.75479 0
M  V30 257 C 24.7006 -3.61092 -0.17167 0
M  V30 258 O 24.4216 -4.24858 1.06899 0
M  V30 259 C 25.9226 -4.37242 -0.730344 0
M  V30 260 H 23.1426 -0.669561 0.043915 0
M  V30 261 H 25.6866 -1.89646 0.765163 0
M  V30 262 H 23.8416 -3.7785 -0.854894 0
M  V30 263 H 24.2556 -5.17334 0.864059 0
M  V30 264 H 25.7296 -5.45842 -0.822203 0
M  V30 265 H 26.2066 -4.03235 -1.74064 0
M  V30 266 H 26.8126 -4.25219 -0.0829543 0
M  V30 267 N 25.1277 -0.289203 -1.54924 0
M  V30 268 C 26.0597 0.625583 -2.20497 0
M  V30 269 C 27.0727 1.10667 -1.19402 0
M  V30 270 O 28.2617 1.02615 -1.46056 0
M  V30 271 C 25.3617 1.86702 -2.82835 0
M  V30 272 C 24.5347 1.5304 -4.09753 0
M  V30 273 C 23.5937 2.62576 -4.56005 0
M  V30 274 O 22.6197 2.28167 -5.21468 0
M  V30 275 N 23.8217 3.92901 -4.27328 0
M  V30 276 H 26.5867 0.0642801 -2.99631 0
M  V30 277 H 24.1477 -0.110896 -1.6152 0
M  V30 278 H 26.1397 2.59304 -3.10715 0
M  V30 279 H 24.7097 2.33702 -2.07611 0
M  V30 280 H 23.9297 0.637564 -3.8901 0
M  V30 281 H 25.2177 1.28072 -4.92418 0
M  V30 282 H 24.6157 4.23671 -3.74859 0
M  V30 283 H 23.1727 4.61837 -4.59946 0
M  V30 284 N 26.6058 1.57591 -0.0167156 0
M  V30 285 C 27.8338 1.95575 0.675128 0
M  V30 286 C 28.2488 0.892542 1.6637 0
M  V30 287 O 27.6058 -0.126912 1.82058 0
M  V30 288 C 27.6568 3.33608 1.39239 0
M  V30 289 O 27.3778 4.3585 0.443444 0
M  V30 290 C 28.8788 3.86151 2.17721 0
M  V30 291 H 26.0988 0.644423 0.186978 0
M  V30 292 H 28.6428 2.0437 -0.0728 0
M  V30 293 H 26.7978 3.2607 2.09182 0
M  V30 294 H 27.2118 5.158 0.951358 0
M  V30 295 H 28.6858 4.85114 2.63379 0
M  V30 296 H 29.1628 3.19738 3.01105 0
M  V30 297 H 29.7688 3.96918 1.52761 0
M  V30 298 N 28.0839 -0.256276 1.55502 0
M  V30 299 C 29.3309 -0.985619 1.76895 0
M  V30 300 C 29.6589 -1.85671 0.579355 0
M  V30 301 O 28.9139 -1.90744 -0.437651 0
M  V30 302 C 29.2129 -1.88432 3.03691 0
M  V30 303 C 28.8789 -1.16936 4.35473 0
M  V30 304 C 27.5409 -0.97173 4.71286 0
M  V30 305 C 29.8929 -0.661889 5.1698 0
M  V30 306 C 27.2209 -0.254179 5.86149 0
M  V30 307 C 29.5729 0.042149 6.32586 0
M  V30 308 C 28.2369 0.25134 6.67027 0
M  V30 309 H 27.5069 -0.360663 0.647304 0
M  V30 310 H 30.1539 -0.256483 1.89775 0
M  V30 311 H 28.4589 -2.68021 2.85783 0
M  V30 312 H 30.1559 -2.45015 3.1744 0
M  V30 313 H 26.7459 -1.33332 4.07333 0
M  V30 314 H 30.9299 -0.802145 4.89775 0
M  V30 315 H 26.1859 -0.0815408 6.11346 0
M  V30 316 H 30.3599 0.443049 6.94989 0
M  V30 317 H 27.9869 0.809314 7.5588 0
M  V30 318 N 29.562 -1.4872 -0.521534 0
M  V30 319 C 30.525 -1.63379 -1.60748 0
M  V30 320 C 31.525 -0.50661 -1.52611 0
M  V30 321 O 32.715 -0.772601 -1.5613 0
M  V30 322 C 29.847 -1.61192 -3.00383 0
M  V30 323 H 31.04 -2.60217 -1.49087 0
M  V30 324 H 28.593 -1.37444 -0.744235 0
M  V30 325 H 29.328 -0.65863 -3.17541 0
M  V30 326 H 29.113 -2.43032 -3.07698 0
M  V30 327 H 30.603 -1.7466 -3.7932 0
M  V30 328 N 31.0401 0.771051 -1.3745 0
M  V30 329 C 32.0031 1.86598 -1.33093 0
M  V30 330 C 33.0031 1.59076 -0.234845 0
M  V30 331 O 34.1931 1.67145 -0.490732 0
M  V30 332 C 31.3251 3.23747 -1.06773 0
M  V30 333 H 32.5181 1.91873 -2.30488 0
M  V30 334 H 30.0711 0.970876 -1.2249 0
M  V30 335 H 30.8061 3.24148 -0.099129 0
M  V30 336 H 30.5911 3.45115 -1.86112 0
M  V30 337 H 32.0811 4.03824 -1.06377 0
M  V30 338 N 32.5182 1.22032 0.997298 0
M  V30 339 C 33.7952 0.950823 1.70935 0
M  V30 340 C 34.1752 -0.535292 2.042 0
M  V30 341 O 33.5232 -1.50217 1.72183 0
M  V30 342 C 33.7332 1.84386 2.96315 0
M  V30 343 C 35.0812 2.09732 3.69185 0
M  V30 344 O 36.1052 1.81798 3.06314 0
M  V30 345 O 34.9642 2.57018 4.82291 0
M  V30 346 H 32.0582 0.357204 0.745878 0
M  V30 347 H 34.6042 1.32997 1.05404 0
M  V30 348 H 33.3762 2.84928 2.68201 0
M  V30 349 H 32.9992 1.46602 3.69586 0
M  V30 350 N 33.9963 -1.19345 1.0293 0
M  V30 351 C 34.9263 -2.2481 0.631105 0
M  V30 352 C 35.9073 -1.66245 -0.360104 0
M  V30 353 O 37.0923 -1.92677 -0.242726 0
M  V30 354 C 34.2223 -3.47295 -0.0184607 0
M  V30 355 C 33.1763 -4.18536 0.895073 0
M  V30 356 C 32.5023 -5.34586 0.110592 0
M  V30 357 C 33.8023 -4.73287 2.209 0
M  V30 358 H 35.4963 -2.58372 1.51275 0
M  V30 359 H 33.0423 -1.24194 0.728818 0
M  V30 360 H 34.9953 -4.20268 -0.308675 0
M  V30 361 H 33.7193 -3.12933 -0.934907 0
M  V30 362 H 32.3783 -3.47446 1.16949 0
M  V30 363 H 32.0263 -4.96469 -0.807902 0
M  V30 364 H 31.7263 -5.83183 0.719087 0
M  V30 365 H 33.2503 -6.10355 -0.172871 0
M  V30 366 H 34.6643 -5.38013 1.98028 0
M  V30 367 H 33.0613 -5.32373 2.76946 0
M  V30 368 H 34.1313 -3.91331 2.86336 0
M  V30 369 N 35.4744 -0.807222 -1.35358 0
M  V30 370 C 36.8854 -0.44876 -1.81226 0
M  V30 371 C 37.2364 1.02929 -1.67033 0
M  V30 372 O 36.3614 1.79991 -1.20133 0
M  V30 373 C 36.9564 -0.807774 -3.2903 0
M  V30 374 C 35.5154 -0.501901 -3.73039 0
M  V30 375 C 34.6624 -1.03304 -2.57339 0
M  V30 376 H 37.6134 -0.998808 -1.23327 0
M  V30 377 H 37.6344 -0.10554 -3.80354 0
M  V30 378 H 37.1464 -1.88357 -3.39328 0
M  V30 379 H 35.2474 0.565128 -3.68289 0
M  V30 380 H 35.3604 -1.03497 -4.67787 0
M  V30 381 H 33.7244 -0.455339 -2.50597 0
M  V30 382 H 34.5074 -2.11496 -2.70415 0
M  V30 383 N 36.9525 1.47285 -0.560781 0
M  V30 384 C 38.2005 2.02064 -0.0379868 0
M  V30 385 C 38.5215 1.43711 1.31803 0
M  V30 386 O 37.7915 0.61362 1.86042 0
M  V30 387 H 36.3715 0.746918 -0.0110531 0
M  V30 388 H 39.0335 1.80648 -0.731598 0
M  V30 389 H 38.1295 3.12064 0.0474463 0
M  V30 390 N 38.4306 0.297415 1.54768 0
M  V30 391 C 39.3776 -0.580276 2.23386 0
M  V30 392 C 40.3476 -1.13238 1.21517 0
M  V30 393 O 41.5326 -1.17757 1.50126 0
M  V30 394 C 38.6726 -1.74801 2.97555 0
M  V30 395 C 37.7856 -1.22764 4.1419 0
M  V30 396 C 36.9206 -2.35895 4.75949 0
M  V30 397 C 35.9596 -1.80974 5.84735 0
M  V30 398 N 35.0966 -2.87664 6.40464 0
M  V30 399 H 39.9366 0.0114833 2.97998 0
M  V30 400 H 37.4736 0.0174361 1.4709 0
M  V30 401 H 39.4316 -2.43475 3.38786 0
M  V30 402 H 38.0616 -2.31145 2.25326 0
M  V30 403 H 37.1136 -0.433271 3.77924 0
M  V30 404 H 38.4256 -0.785551 4.92575 0
M  V30 405 H 37.5796 -3.12523 5.20014 0
M  V30 406 H 36.3186 -2.83429 3.96887 0
M  V30 407 H 35.3236 -1.02834 5.40097 0
M  V30 408 H 36.5486 -1.34348 6.65678 0
M  V30 409 H 34.4946 -3.34538 5.64287 0
M  V30 410 H 34.4116 -2.4794 7.14186 0
M  V30 411 H 35.6796 -3.642 6.89187 0
M  V30 412 N 39.9087 -1.5758 0.0250728 0
M  V30 413 C 41.1567 -1.91255 -0.653151 0
M  V30 414 C 41.4777 -0.901691 -1.729 0
M  V30 415 O 40.7477 0.0573785 -1.95816 0
M  V30 416 H 39.3277 -0.705942 -0.244243 0
M  V30 417 H 41.9897 -1.94767 0.0719209 0
M  V30 418 H 41.0857 -2.91752 -1.10847 0
M  V30 419 N 41.3868 0.248026 -1.55636 0
M  V30 420 C 42.6358 0.974134 -1.76617 0
M  V30 421 C 42.9488 1.86528 -0.588796 0
M  V30 422 O 44.1548 2.62805 -0.681594 0
M  V30 423 C 42.6108 1.78213 -3.12679 0
M  V30 424 C 42.2188 0.93843 -4.38061 0
M  V30 425 C 43.9628 2.50104 -3.42999 0
M  V30 426 C 41.8698 1.74225 -5.65155 0
M  V30 427 H 40.7998 0.36745 -0.658405 0
M  V30 428 H 43.4508 0.22884 -1.82067 0
M  V30 429 H 41.8328 2.56933 -3.01333 0
M  V30 430 H 43.0068 0.193635 -4.60393 0
M  V30 431 H 41.3218 0.332905 -4.15067 0
M  V30 432 H 43.9188 3.10694 -4.3517 0
M  V30 433 H 44.2618 3.21662 -2.64271 0
M  V30 434 H 44.7948 1.78395 -3.55556 0
M  V30 435 H 41.5338 1.07043 -6.46701 0
M  V30 436 H 41.0538 2.46235 -5.46926 0
M  V30 437 H 42.7328 2.30967 -6.0437 0
M  V30 438 N 42.8649 1.48995 0.513639 0
M  V30 439 C 44.0929 1.61531 1.29288 0
M  V30 440 C 44.5079 0.281801 1.86685 0
M  V30 441 O 43.8649 -0.731111 1.67215 0
M  V30 442 C 43.9159 2.67449 2.43215 0
M  V30 443 O 43.6369 3.95626 1.88179 0
M  V30 444 C 45.1379 2.90575 3.34785 0
M  V30 445 H 42.3579 0.544165 0.392588 0
M  V30 446 H 44.9019 1.9494 0.617956 0
M  V30 447 H 43.0569 2.36853 3.0656 0
M  V30 448 H 43.4709 4.53868 2.62876 0
M  V30 449 H 44.9449 3.68449 4.11035 0
M  V30 450 H 45.4219 2.00011 3.91015 0
M  V30 451 H 46.0279 3.22538 2.77218 0
M  V30 452 N 44.343 -0.763751 1.37857 0
M  V30 453 C 45.589 -1.52483 1.33704 0
M  V30 454 C 45.922 -1.94051 -0.0759612 0
M  V30 455 O 45.197 -1.64675 -1.03501 0
M  V30 456 C 45.48 -2.78441 2.28348 0
M  V30 457 C 45.333 -2.43075 3.78463 0
M  V30 458 C 46.652 -3.80415 2.21298 0
M  V30 459 H 43.771 -0.553169 0.487005 0
M  V30 460 H 46.413 -0.875562 1.68624 0
M  V30 461 H 44.563 -3.33842 1.987 0
M  V30 462 H 46.235 -1.93527 4.18742 0
M  V30 463 H 44.478 -1.75666 3.96641 0
M  V30 464 H 45.149 -3.33149 4.40132 0
M  V30 465 H 47.625 -3.34527 2.47449 0
M  V30 466 H 46.501 -4.66257 2.89647 0
M  V30 467 H 46.762 -4.25262 1.20849 0
M  V30 468 N 45.8211 -1.22559 -0.990812 0
M  V30 469 C 46.7691 -0.994798 -2.10253 0
M  V30 470 C 47.7631 0.0627798 -1.69284 0
M  V30 471 O 48.9691 -0.0898392 -1.79776 0
M  V30 472 H 45.3441 -0.304527 -0.687581 0
M  V30 473 H 47.3151 -1.93812 -2.26891 0
M  V30 474 C 46.0641 -0.591439 -3.42633 0
M  V30 475 H 45.3871 -1.3969 -3.74602 0
M  V30 476 H 46.8271 -0.469385 -4.21394 0
M  V30 477 C 45.2861 0.699232 -3.29564 0
M  V30 478 O 45.8161 1.75112 -3.61523 0
M  V30 479 N 44.0221 0.671182 -2.82743 0
M  V30 480 H 43.5691 -0.185136 -2.56934 0
M  V30 481 H 43.5271 1.53502 -2.7438 0
M  V30 482 N 47.2992 1.18797 -1.03562 0
M  V30 483 C 48.7102 1.70322 -0.764676 0
M  V30 484 C 49.0612 1.82708 0.714996 0
M  V30 485 O 48.1862 1.50299 1.55689 0
M  V30 486 C 48.7812 3.09356 -1.38145 0
M  V30 487 C 47.3402 3.58114 -1.15895 0
M  V30 488 C 46.4872 2.34798 -1.4753 0
M  V30 489 H 49.4382 1.03543 -1.20268 0
M  V30 490 H 49.4592 3.72378 -0.781977 0
M  V30 491 H 48.9712 3.00309 -2.45837 0
M  V30 492 H 47.0722 3.72464 -0.100544 0
M  V30 493 H 47.1852 4.4184 -1.8524 0
M  V30 494 H 45.5492 2.38464 -0.894829 0
M  V30 495 H 46.3322 2.28375 -2.56319 0
M  V30 496 N 48.7773 0.814389 1.34928 0
M  V30 497 C 50.0233 0.399013 1.98836 0
M  V30 498 C 50.3563 -1.03314 1.64438 0
M  V30 499 O 49.6313 -1.71811 0.911659 0
M  V30 500 C 49.9143 0.591629 3.55207 0
M  V30 501 C 49.7673 2.06928 3.99376 0
M  V30 502 C 51.0863 0.022199 4.40094 0
M  V30 503 H 48.2053 0.146451 0.722303 0
M  V30 504 H 50.8473 1.02537 1.59957 0
M  V30 505 H 48.9973 0.0584441 3.88456 0
M  V30 506 H 50.6693 2.66544 3.76499 0
M  V30 507 H 48.9123 2.56287 3.49999 0
M  V30 508 H 49.5833 2.1549 5.08201 0
M  V30 509 H 52.0593 0.477643 4.13349 0
M  V30 510 H 50.9353 0.186832 5.48582 0
M  V30 511 H 51.1963 -1.07215 4.28902 0
M  V30 512 N 50.2554 -1.46986 0.568584 0
M  V30 513 C 51.1874 -2.28233 -0.210337 0
M  V30 514 C 52.2004 -1.37682 -0.868767 0
M  V30 515 O 53.3894 -1.62406 -0.740705 0
M  V30 516 C 50.4894 -3.12293 -1.3163 0
M  V30 517 C 49.6624 -4.30878 -0.7525 0
M  V30 518 C 48.7214 -4.96445 -1.74439 0
M  V30 519 O 47.7474 -5.54482 -1.286 0
M  V30 520 N 48.9494 -4.92171 -3.07812 0
M  V30 521 H 51.7144 -2.95723 0.486648 0
M  V30 522 H 49.2754 -1.56742 0.405409 0
M  V30 523 H 51.2674 -3.53022 -1.97883 0
M  V30 524 H 49.8374 -2.46971 -1.91636 0
M  V30 525 H 49.0574 -3.94104 0.0871128 0
M  V30 526 H 50.3454 -5.07558 -0.35536 0
M  V30 527 H 49.7434 -4.46239 -3.47688 0
M  V30 528 H 48.3004 -5.36884 -3.69592 0
M  V30 529 N 51.7335 -0.305618 -1.54608 0
M  V30 530 C 52.9585 0.307562 -2.05107 0
M  V30 531 C 53.3835 1.46385 -1.18123 0
M  V30 532 O 52.7415 1.8034 -0.186324 0
M  V30 533 C 52.7895 0.73704 -3.52987 0
M  V30 534 O 51.8935 1.84134 -3.6901 0
M  V30 535 H 51.2345 0.0589143 -0.661381 0
M  V30 536 H 53.7645 -0.448807 -1.99617 0
M  V30 537 H 53.7745 1.02459 -3.94925 0
M  V30 538 H 52.4495 -0.108773 -4.15758 0
M  V30 539 H 51.0265 1.55398 -3.38978 0
M  V30 540 N 53.2116 1.57565 -0.0334293 0
M  V30 541 C 54.4396 1.9628 0.654347 0
M  V30 542 C 54.8546 0.910138 1.65414 0
M  V30 543 O 54.2116 -0.107595 1.82183 0
M  V30 544 C 54.2626 3.35067 1.35693 0
M  V30 545 O 53.9836 4.36296 0.397191 0
M  V30 546 C 55.4846 3.88439 2.13613 0
M  V30 547 H 52.7046 0.646369 0.180132 0
M  V30 548 H 55.2486 2.04282 -0.0944721 0
M  V30 549 H 53.4036 3.2827 2.05712 0
M  V30 550 H 53.8176 5.1678 0.896597 0
M  V30 551 H 55.2916 4.8788 2.58219 0
M  V30 552 H 55.7686 3.22914 2.97696 0
M  V30 553 H 56.3746 3.98516 1.48543 0
M  V30 554 N 54.6897 -0.239769 1.55765 0
M  V30 555 C 55.9387 -0.964754 1.77131 0
M  V30 556 C 56.2517 -1.86213 0.59868 0
M  V30 557 O 57.4577 -2.6244 0.695522 0
M  V30 558 C 55.9137 -1.76552 3.1362 0
M  V30 559 C 55.5217 -0.915185 4.38553 0
M  V30 560 C 57.2657 -2.48281 3.44321 0
M  V30 561 C 55.1727 -1.71225 5.66071 0
M  V30 562 H 54.1027 -0.363953 0.660344 0
M  V30 563 H 56.7537 -0.219181 1.82186 0
M  V30 564 H 55.1357 -2.55331 3.02691 0
M  V30 565 H 56.3097 -0.169217 4.60489 0
M  V30 566 H 54.6247 -0.310889 4.15238 0
M  V30 567 H 57.2217 -3.08382 4.36812 0
M  V30 568 H 57.5647 -3.20256 2.65973 0
M  V30 569 H 58.0977 -1.76507 3.56497 0
M  V30 570 H 54.8367 -1.03612 6.4726 0
M  V30 571 H 54.3567 -2.43331 5.48224 0
M  V30 572 H 56.0357 -2.27758 6.05587 0
M  V30 573 N 56.1678 -1.49265 -0.50573 0
M  V30 574 C 57.3958 -1.62215 -1.28429 0
M  V30 575 C 57.8108 -0.291697 -1.86533 0
M  V30 576 O 57.1678 0.722233 -1.67601 0
M  V30 577 C 57.2188 -2.68735 -2.41793 0
M  V30 578 O 56.9398 -3.96619 -1.86078 0
M  V30 579 C 58.4408 -2.92346 -3.3324 0
M  V30 580 H 55.6608 -0.546239 -0.389697 0
M  V30 581 H 58.2048 -1.95265 -0.607609 0
M  V30 582 H 56.3598 -2.38476 -3.053 0
M  V30 583 H 56.7738 -4.55256 -2.60465 0
M  V30 584 H 58.2478 -3.70623 -4.09075 0
M  V30 585 H 58.7248 -2.02081 -3.89948 0
M  V30 586 H 59.3308 -3.24003 -2.75503 0
M  V30 587 N 57.6459 0.756429 -1.3826 0
M  V30 588 C 58.5559 1.9009 -1.37488 0
M  V30 589 C 59.5719 1.71855 -0.272366 0
M  V30 590 O 60.7479 1.94827 -0.510318 0
M  V30 591 C 57.8129 3.25421 -1.19592 0
M  V30 592 C 56.8739 3.56202 -2.39622 0
M  V30 593 C 56.1069 4.85075 -2.2257 0
M  V30 594 O 56.3299 5.57246 -1.21793 0
M  V30 595 O 55.2639 5.15269 -3.11098 0
M  V30 596 H 59.0899 1.93695 -2.33914 0
M  V30 597 H 56.6749 0.901313 -1.1915 0
M  V30 598 H 58.5569 4.06337 -1.11661 0
M  V30 599 H 57.2319 3.22634 -0.262486 0
M  V30 600 H 56.1389 2.75458 -2.53128 0
M  V30 601 H 57.4719 3.63747 -3.31586 0
M  V30 602 N 59.124 1.23083 0.984299 0
M  V30 603 C 60.034 1.02515 2.11016 0
M  V30 604 C 61.05 -0.0291702 1.73976 0
M  V30 605 O 62.226 0.165434 2.00719 0
M  V30 606 C 59.291 0.614673 3.41208 0
M  V30 607 C 58.352 1.74359 3.92297 0
M  V30 608 C 57.585 1.35261 5.16275 0
M  V30 609 O 57.808 0.235136 5.69915 0
M  V30 610 O 56.742 2.17227 5.61334 0
M  V30 611 H 60.568 1.96862 2.31255 0
M  V30 612 H 58.153 1.01753 1.09392 0
M  V30 613 H 60.035 0.396518 4.1953 0
M  V30 614 H 58.71 -0.299851 3.22308 0
M  V30 615 H 57.617 2.01635 3.1511 0
M  V30 616 H 58.95 2.63629 4.15645 0
M  V30 617 N 60.6021 -1.18246 1.0419 0
M  V30 618 C 61.8301 -1.92195 0.766072 0
M  V30 619 C 62.2451 -1.76247 -0.676933 0
M  V30 620 O 61.6021 -1.09293 -1.46155 0
M  V30 621 C 61.6531 -3.43568 1.12442 0
M  V30 622 O 61.3741 -3.59015 2.51078 0
M  V30 623 C 62.8751 -4.34613 0.873275 0
M  V30 624 H 60.0951 -0.610114 0.279288 0
M  V30 625 H 62.6391 -1.50007 1.38989 0
M  V30 626 H 60.7941 -3.8354 0.545542 0
M  V30 627 H 61.2081 -4.5273 2.64831 0
M  V30 628 H 62.6821 -5.39374 1.17385 0
M  V30 629 H 63.1591 -4.38781 -0.191909 0
M  V30 630 H 63.7651 -4.00341 1.43551 0
M  V30 631 N 62.0802 -0.821533 -1.34494 0
M  V30 632 C 63.3272 -0.408946 -1.98328 0
M  V30 633 C 63.6552 1.02764 -1.65136 0
M  V30 634 O 62.9102 1.73026 -0.914349 0
M  V30 635 C 63.2092 -0.556512 -3.53041 0
M  V30 636 C 62.8752 -1.95861 -4.0614 0
M  V30 637 C 61.5372 -2.34217 -4.20352 0
M  V30 638 C 63.8892 -2.87523 -4.34718 0
M  V30 639 C 61.2172 -3.63572 -4.6047 0
M  V30 640 C 63.5692 -4.1634 -4.76281 0
M  V30 641 C 62.2332 -4.54675 -4.88699 0
M  V30 642 H 61.5032 -0.149644 -0.725732 0
M  V30 643 H 64.1502 -1.04521 -1.6046 0
M  V30 644 H 62.4552 0.163148 -3.9146 0
M  V30 645 H 64.1522 -0.217826 -4.00408 0
M  V30 646 H 60.7422 -1.65066 -3.95539 0
M  V30 647 H 64.9262 -2.59133 -4.23277 0
M  V30 648 H 60.1822 -3.93101 -4.68275 0
M  V30 649 H 64.3562 -4.87455 -4.97354 0
M  V30 650 H 61.9832 -5.54959 -5.19542 0
M  V30 651 N 63.5583 1.46682 -0.576371 0
M  V30 652 C 64.4903 2.28341 0.198231 0
M  V30 653 C 65.5033 1.38141 0.861453 0
M  V30 654 O 66.6923 1.62797 0.732082 0
M  V30 655 C 63.7923 3.12986 1.29972 0
M  V30 656 C 62.9653 4.31271 0.729639 0
M  V30 657 C 62.0243 4.97363 1.71803 0
M  V30 658 O 61.0503 5.55156 1.25658 0
M  V30 659 N 62.2523 4.93796 3.05198 0
M  V30 660 H 65.0173 2.9546 -0.502324 0
M  V30 661 H 62.5783 1.56525 -0.413715 0
M  V30 662 H 64.5703 3.54066 1.96008 0
M  V30 663 H 63.1403 2.47984 1.90323 0
M  V30 664 H 62.3603 3.94052 -0.108012 0
M  V30 665 H 63.6483 5.07739 0.328438 0
M  V30 666 H 63.0463 4.48077 3.45317 0
M  V30 667 H 61.6033 5.38837 3.6674 0
M  V30 668 N 65.0364 0.313813 1.54444 0
M  V30 669 C 66.2644 -0.293918 2.04802 0
M  V30 670 C 66.6794 -1.46537 1.19047 0
M  V30 671 O 66.0364 -1.81182 0.218939 0
M  V30 672 C 66.0874 -0.737806 3.53891 0
M  V30 673 O 65.8084 0.387038 4.36387 0
M  V30 674 C 67.3094 -1.40936 4.203 0
M  V30 675 H 64.5294 -0.0620057 0.668129 0
M  V30 676 H 67.0734 0.457169 1.99324 0
M  V30 677 H 65.2284 -1.43889 3.59687 0
M  V30 678 H 65.6424 0.0391274 5.24485 0
M  V30 679 H 67.1164 -1.67099 5.26101 0
M  V30 680 H 67.5934 -2.35355 3.70816 0
M  V30 681 H 68.1994 -0.751117 4.18615 0
M  V30 682 N 66.5145 -1.57545 0.0417849 0
M  V30 683 C 67.4445 -2.14009 -0.933929 0
M  V30 684 C 68.4255 -1.05938 -1.33083 0
M  V30 685 O 69.6105 -1.33833 -1.40721 0
M  V30 686 C 66.7405 -2.67747 -2.21199 0
M  V30 687 C 65.6945 -3.80718 -1.95544 0
M  V30 688 C 65.0205 -4.20935 -3.29724 0
M  V30 689 C 66.3205 -5.06258 -1.28452 0
M  V30 690 H 68.0145 -2.95788 -0.463645 0
M  V30 691 H 65.5605 -1.42285 -0.221573 0
M  V30 692 H 67.5135 -3.05886 -2.89848 0
M  V30 693 H 66.2375 -1.83147 -2.70416 0
M  V30 694 H 64.8965 -3.43037 -1.2931 0
M  V30 695 H 64.5445 -3.33298 -3.76724 0
M  V30 696 H 64.2445 -4.9707 -3.13361 0
M  V30 697 H 65.7685 -4.61666 -3.9962 0
M  V30 698 H 67.1825 -5.41903 -1.8712 0
M  V30 699 H 65.5795 -5.87475 -1.22445 0
M  V30 700 H 66.6495 -4.84207 -0.259219 0
M  V30 701 N 67.9926 0.231505 -1.5589 0
M  V30 702 C 68.9226 1.29022 -1.94617 0
M  V30 703 C 69.9036 1.4941 -0.813067 0
M  V30 704 O 71.0886 1.6176 -1.07459 0
M  V30 705 C 68.2186 2.64199 -2.25424 0
M  V30 706 C 67.1726 2.58484 -3.41131 0
M  V30 707 C 66.4986 3.97599 -3.57518 0
M  V30 708 C 67.7986 2.1413 -4.76388 0
M  V30 709 H 69.4926 0.968563 -2.83301 0
M  V30 710 H 67.0386 0.464479 -1.36303 0
M  V30 711 H 68.9916 3.38413 -2.51107 0
M  V30 712 H 67.7156 2.98032 -1.33583 0
M  V30 713 H 66.3746 1.86727 -3.15481 0
M  V30 714 H 66.0226 4.28723 -2.6307 0
M  V30 715 H 65.7226 3.94659 -4.35337 0
M  V30 716 H 67.2466 4.7349 -3.85538 0
M  V30 717 H 68.6606 2.78083 -5.01341 0
M  V30 718 H 67.0576 2.2227 -5.57419 0
M  V30 719 H 68.1276 1.09331 -4.72414 0
M  V30 720 N 69.4707 1.49531 0.497807 0
M  V30 721 C 70.7167 1.59415 1.25358 0
M  V30 722 C 71.0497 0.281422 1.9215 0
M  V30 723 O 70.3247 -0.715249 1.80871 0
M  V30 724 C 70.6077 2.75566 2.3181 0
M  V30 725 C 70.4607 4.16642 1.69498 0
M  V30 726 C 71.7797 2.87347 3.33346 0
M  V30 727 H 68.8987 0.580244 0.454408 0
M  V30 728 H 71.5407 1.81827 0.551262 0
M  V30 729 H 69.6907 2.56587 2.91711 0
M  V30 730 H 71.3627 4.47145 1.13399 0
M  V30 731 H 69.6057 4.22141 0.998978 0
M  V30 732 H 70.2767 4.93792 2.46725 0
M  V30 733 H 72.7527 3.04634 2.83438 0
M  V30 734 H 71.6287 3.70289 4.05188 0
M  V30 735 H 71.8897 1.96834 3.95865 0
M  V30 736 N 70.9488 -0.749086 1.3866 0
M  V30 737 C 72.1738 -1.54344 1.38538 0
M  V30 738 C 72.5988 -1.88088 -0.0216655 0
M  V30 739 O 71.9568 -1.50899 -1.00494 0
M  V30 740 C 72.0048 -2.8164 2.25192 0
M  V30 741 O 71.1088 -3.7698 1.67212 0
M  V30 742 H 70.4498 -0.466654 0.472367 0
M  V30 743 H 72.9798 -0.925355 1.82478 0
M  V30 744 H 72.9898 -3.30519 2.3921 0
M  V30 745 H 71.6648 -2.56411 3.27454 0
M  V30 746 H 70.2418 -3.35699 1.6236 0
M  V30 747 N 72.4269 -1.23603 -0.977757 0
M  V30 748 C 73.8429 -0.999251 -1.24447 0
M  V30 749 C 74.0429 0.298053 -1.99283 0
M  V30 750 O 73.0989 1.01681 -2.31122 0
M  V30 751 C 74.4119 -2.20784 -2.04144 0
M  V30 752 C 75.9599 -2.25303 -2.17273 0
M  V30 753 C 76.4349 -3.45755 -3.00362 0
M  V30 754 N 77.9259 -3.4601 -3.07947 0
M  V30 755 C 78.6609 -4.35868 -3.72568 0
M  V30 756 N 78.1569 -5.35966 -4.38991 0
M  V30 757 N 79.9499 -4.23605 -3.6948 0
M  V30 758 H 72.1009 -2.06986 -0.476483 0
M  V30 759 H 74.3639 -0.907801 -0.273134 0
M  V30 760 H 74.0699 -3.14945 -1.56533 0
M  V30 761 H 73.9439 -2.22085 -3.04891 0
M  V30 762 H 76.3309 -1.3168 -2.64092 0
M  V30 763 H 76.4119 -2.28033 -1.15907 0
M  V30 764 H 76.0559 -4.39687 -2.5424 0
M  V30 765 H 75.9859 -3.40266 -4.01904 0
M  V30 766 H 78.4769 -2.73588 -2.60688 0
M  V30 767 H 78.7899 -6.00783 -4.86086 0
M  V30 768 H 77.1349 -5.39863 -4.37691 0
M  V30 769 H 80.3259 -3.44647 -3.16759 0
M  V30 770 H 80.4989 -4.93836 -4.1956 0
M  V30 771 N 73.905 1.17692 -1.04816 0
M  V30 772 C 74.868 2.19787 -0.650117 0
M  V30 773 C 75.868 1.58044 0.296427 0
M  V30 774 O 77.058 1.74012 0.0808097 0
M  V30 775 C 74.19 3.40869 0.0456987 0
M  V30 776 H 75.383 2.56516 -1.5537 0
M  V30 777 H 72.936 1.31708 -0.841594 0
M  V30 778 H 73.671 3.09681 0.962726 0
M  V30 779 H 73.456 3.86928 -0.634727 0
M  V30 780 H 74.946 4.16445 0.310432 0
M  V30 781 N 75.3831 0.828654 1.34056 0
M  V30 782 C 76.3131 0.269443 2.3194 0
M  V30 783 C 77.2941 -0.617247 1.58506 0
M  V30 784 O 78.4791 -0.542931 1.86456 0
M  V30 785 C 75.6091 -0.564793 3.42677 0
M  V30 786 C 74.5631 0.225241 4.27407 0
M  V30 787 C 73.8891 -0.7321 5.29664 0
M  V30 788 C 75.1891 1.43663 5.02154 0
M  V30 789 H 76.8831 1.08728 2.7896 0
M  V30 790 H 74.4291 0.524283 1.34117 0
M  V30 791 H 76.3821 -0.966233 4.10173 0
M  V30 792 H 75.1061 -1.41574 2.9432 0
M  V30 793 H 73.7651 0.608117 3.61521 0
M  V30 794 H 73.4131 -1.57916 4.77568 0
M  V30 795 H 73.1131 -0.20767 5.87233 0
M  V30 796 H 74.6371 -1.13128 6.00029 0
M  V30 797 H 76.0511 1.1089 5.62473 0
M  V30 798 H 74.4481 1.89711 5.69324 0
M  V30 799 H 75.5181 2.21181 4.31517 0
M  V30 800 N 76.8612 -1.46375 0.584142 0
M  V30 801 C 77.7712 -2.34115 -0.150728 0
M  V30 802 C 78.7872 -1.49838 -0.884567 0
M  V30 803 O 79.9632 -1.82704 -0.847429 0
M  V30 804 C 77.0282 -3.2705 -1.15062 0
M  V30 805 C 76.0892 -4.27228 -0.421293 0
M  V30 806 C 75.3222 -5.15722 -1.37355 0
M  V30 807 O 75.5452 -5.07176 -2.61014 0
M  V30 808 O 74.4792 -5.95383 -0.883355 0
M  V30 809 H 78.3052 -2.98309 0.569708 0
M  V30 810 H 75.8902 -1.45373 0.344535 0
M  V30 811 H 77.7722 -3.84381 -1.72712 0
M  V30 812 H 76.4472 -2.65451 -1.8525 0
M  V30 813 H 75.3542 -3.7358 0.197085 0
M  V30 814 H 76.6872 -4.91616 0.239641 0
M  V30 815 N 78.3393 -0.321999 -1.54275 0
M  V30 816 C 79.2863 0.544664 -2.24281 0
M  V30 817 C 80.2563 1.1129 -1.23303 0
M  V30 818 O 81.4413 1.15354 -1.51981 0
M  V30 819 C 78.5813 1.70045 -3.00298 0
M  V30 820 C 77.6943 1.16159 -4.1609 0
M  V30 821 C 76.8293 2.28293 -4.79641 0
M  V30 822 C 75.8683 1.71648 -5.8754 0
M  V30 823 N 75.0053 2.77438 -6.44959 0
M  V30 824 H 79.8453 -0.0588907 -2.97942 0
M  V30 825 H 77.3823 -0.0408345 -1.47043 0
M  V30 826 H 79.3403 2.38054 -3.42616 0
M  V30 827 H 77.9703 2.27531 -2.28975 0
M  V30 828 H 77.0223 0.373092 -3.78566 0
M  V30 829 H 78.3343 0.707087 -4.93763 0
M  V30 830 H 77.4883 3.0421 -5.2492 0
M  V30 831 H 76.2273 2.77079 -4.01346 0
M  V30 832 H 75.2323 0.942282 -5.41665 0
M  V30 833 H 76.4573 1.23741 -6.67731 0
M  V30 834 H 74.4033 3.25519 -5.69538 0
M  V30 835 H 74.3203 2.36547 -7.1804 0
M  V30 836 H 75.5883 3.53189 -6.94894 0
M  V30 837 N 79.8174 1.5752 -0.0501392 0
M  V30 838 C 80.7474 2.14502 0.922566 0
M  V30 839 C 81.7284 1.06642 1.3252 0
M  V30 840 O 82.9134 1.34577 1.4001 0
M  V30 841 C 80.0434 2.68916 2.19776 0
M  V30 842 C 78.9974 3.8175 1.93523 0
M  V30 843 C 78.3234 4.22677 3.27487 0
M  V30 844 C 79.6234 5.06932 1.25765 0
M  V30 845 H 81.3174 2.9603 0.447952 0
M  V30 846 H 78.8634 1.42401 0.214024 0
M  V30 847 H 80.8164 3.07419 2.88222 0
M  V30 848 H 79.5404 1.84578 2.69441 0
M  V30 849 H 78.1994 3.43718 1.27489 0
M  V30 850 H 77.8474 3.35291 3.74952 0
M  V30 851 H 77.5474 4.98725 3.1072 0
M  V30 852 H 79.0714 4.63779 3.97166 0
M  V30 853 H 80.4854 5.42888 1.84244 0
M  V30 854 H 78.8824 5.88116 1.19328 0
M  V30 855 H 79.9524 4.84337 0.233536 0
M  V30 856 N 81.2955 -0.223234 1.56011 0
M  V30 857 C 82.5435 -0.946003 1.78592 0
M  V30 858 C 82.8645 -1.84936 0.618349 0
M  V30 859 O 82.1345 -1.92473 -0.364833 0
M  V30 860 H 80.7145 -0.352298 0.658707 0
M  V30 861 H 83.3765 -0.235494 1.93472 0
M  V30 862 H 82.4725 -1.55381 2.70672 0
M  V30 863 N 82.7736 -1.49793 -0.48987 0
M  V30 864 C 84.0036 -1.6333 -1.26518 0
M  V30 865 C 84.4116 -0.308392 -1.8667 0
M  V30 866 O 83.7546 0.717512 -1.69108 0
M  V30 867 C 83.8166 -2.6522 -2.4269 0
M  V30 868 C 83.4806 -4.09279 -2.03321 0
M  V30 869 C 84.4776 -4.95738 -1.56652 0
M  V30 870 C 82.1626 -4.55082 -2.12616 0
M  V30 871 C 84.1566 -6.26041 -1.19795 0
M  V30 872 C 81.8436 -5.85396 -1.75371 0
M  V30 873 C 82.8416 -6.707 -1.29036 0
M  V30 874 O 82.5296 -7.98584 -0.92299 0
M  V30 875 H 82.2616 -0.552502 -0.389509 0
M  V30 876 H 84.8156 -1.96642 -0.593381 0
M  V30 877 H 83.0456 -2.27112 -3.12981 0
M  V30 878 H 84.7346 -2.68171 -3.04695 0
M  V30 879 H 85.5006 -4.61575 -1.48908 0
M  V30 880 H 81.3796 -3.88844 -2.47631 0
M  V30 881 H 84.9236 -6.92578 -0.835582 0
M  V30 882 H 80.8206 -6.19085 -1.82768 0
M  V30 883 H 81.5886 -8.11692 -1.05349 0
M  V30 884 N 84.2517 0.741722 -1.39055 0
M  V30 885 C 85.4797 1.53098 -1.39171 0
M  V30 886 C 85.8947 1.88794 0.0155099 0
M  V30 887 O 85.2517 1.53626 0.985159 0
M  V30 888 C 85.3027 2.82274 -2.2584 0
M  V30 889 O 85.0237 2.48097 -3.61081 0
M  V30 890 C 86.5247 3.76343 -2.34266 0
M  V30 891 H 83.7447 0.473335 -0.4756 0
M  V30 892 H 86.2887 0.917045 -1.82785 0
M  V30 893 H 84.4437 3.40015 -1.85656 0
M  V30 894 H 84.8577 3.31029 -4.06842 0
M  V30 895 H 86.3317 4.63898 -2.9917 0
M  V30 896 H 86.8087 4.17619 -1.35982 0
M  V30 897 H 87.4147 3.24523 -2.74891 0
M  V30 898 N 85.7298 1.2412 0.971189 0
M  V30 899 C 86.9758 1.08041 1.71625 0
M  V30 900 C 87.3088 -0.380407 1.90438 0
M  V30 901 O 86.5838 -1.28127 1.46334 0
M  V30 902 C 86.8668 1.81682 3.10908 0
M  V30 903 C 86.7198 3.35493 2.99608 0
M  V30 904 C 88.0388 1.58671 4.10501 0
M  V30 905 H 85.1578 0.39388 0.622919 0
M  V30 906 H 87.7998 1.52743 1.13003 0
M  V30 907 H 85.9498 1.43684 3.60953 0
M  V30 908 H 87.6218 3.83068 2.57015 0
M  V30 909 H 85.8648 3.64052 2.35899 0
M  V30 910 H 86.5358 3.82217 3.98264 0
M  V30 911 H 89.0118 1.91719 3.69301 0
M  V30 912 H 87.8878 2.1266 5.06031 0
M  V30 913 H 88.1488 0.524161 4.38982 0
M  V30 914 N 87.2079 -1.17134 1.05439 0
M  V30 915 C 88.1559 -2.23289 0.651511 0
M  V30 916 C 89.1499 -1.66186 -0.328411 0
M  V30 917 O 90.3559 -1.78949 -0.194206 0
M  V30 918 H 86.7309 -0.726938 0.192523 0
M  V30 919 H 88.7019 -2.54565 1.55689 0
M  V30 920 C 87.4509 -3.47671 0.0448436 0
M  V30 921 H 86.7739 -3.91918 0.78996 0
M  V30 922 H 88.2139 -4.2353 -0.19964 0
M  V30 923 C 86.6729 -3.14453 -1.20918 0
M  V30 924 O 87.2029 -3.29459 -2.29825 0
M  V30 925 N 85.4089 -2.68657 -1.10779 0
M  V30 926 H 84.9559 -2.56646 -0.221526 0
M  V30 927 H 84.9139 -2.46804 -1.9477 0
M  V30 928 N 88.686 -0.835752 -1.33615 0
M  V30 929 C 89.633 -0.26473 -2.29277 0
M  V30 930 C 90.603 0.617712 -1.54187 0
M  V30 931 O 91.788 0.556641 -1.825 0
M  V30 932 C 88.928 0.556777 -3.40579 0
M  V30 933 C 88.041 -0.349339 -4.30585 0
M  V30 934 C 87.176 0.482969 -5.29 0
M  V30 935 C 86.215 -0.421732 -6.10645 0
M  V30 936 N 85.352 0.372262 -7.01112 0
M  V30 937 H 90.192 -1.08582 -2.77514 0
M  V30 938 H 87.729 -0.546927 -1.36554 0
M  V30 939 H 89.687 1.04852 -4.03809 0
M  V30 940 H 88.317 1.34286 -2.93542 0
M  V30 941 H 87.369 -0.959372 -3.68104 0
M  V30 942 H 88.681 -1.04445 -4.87742 0
M  V30 943 H 87.835 1.03866 -5.97743 0
M  V30 944 H 86.574 1.21153 -4.72412 0
M  V30 945 H 85.579 -0.989464 -5.40823 0
M  V30 946 H 86.804 -1.14861 -6.69316 0
M  V30 947 H 84.75 1.08426 -6.46977 0
M  V30 948 H 84.667 -0.264198 -7.55538 0
M  V30 949 H 85.935 0.910293 -7.74167 0
M  V30 950 N 90.1641 1.46063 -0.591896 0
M  V30 951 C 91.5751 1.85944 -0.167822 0
M  V30 952 C 91.9261 1.49429 1.27143 0
M  V30 953 O 91.0511 0.913515 1.96173 0
M  V30 954 C 91.6461 3.37489 -0.297794 0
M  V30 955 C 90.2051 3.76332 0.0714732 0
M  V30 956 C 89.3521 2.7006 -0.629509 0
M  V30 957 H 92.3031 1.37087 -0.799555 0
M  V30 958 H 92.3241 3.77532 0.474349 0
M  V30 959 H 91.8361 3.64034 -1.3454 0
M  V30 960 H 89.9371 3.55405 1.11886 0
M  V30 961 H 90.0501 4.78088 -0.311245 0
M  V30 962 H 88.4141 2.54607 -0.0687867 0
M  V30 963 H 89.1971 2.99444 -1.67894 0
M  V30 964 N 91.6422 0.330177 1.54103 0
M  V30 965 C 92.8672 -0.274893 2.0557 0
M  V30 966 C 93.2922 -1.44487 1.20437 0
M  V30 967 O 92.6502 -1.80021 0.214991 0
M  V30 968 C 92.6982 -0.68079 3.54115 0
M  V30 969 O 91.8022 -1.7824 3.71893 0
M  V30 970 H 91.1432 -0.0483849 0.662235 0
M  V30 971 H 93.6732 0.480508 1.98878 0
M  V30 972 H 93.6832 -0.961635 3.96505 0
M  V30 973 H 92.3582 0.174903 4.15532 0
M  V30 974 H 90.9352 -1.49985 3.41407 0
M  V30 975 N 93.1203 -1.57491 0.0584922 0
M  V30 976 C 94.0303 -2.15448 -0.928414 0
M  V30 977 C 95.0463 -1.11416 -1.3365 0
M  V30 978 O 96.2223 -1.4362 -1.41193 0
M  V30 979 C 93.2873 -2.69393 -2.18239 0
M  V30 980 C 92.3483 -3.88249 -1.83196 0
M  V30 981 C 91.5813 -4.39613 -3.02616 0
M  V30 982 O 91.8043 -3.90023 -4.16219 0
M  V30 983 O 90.7383 -5.31111 -2.83204 0
M  V30 984 H 94.5643 -3.00112 -0.465483 0
M  V30 985 H 92.1493 -1.48499 -0.163826 0
M  V30 986 H 94.0313 -3.04026 -2.91798 0
M  V30 987 H 92.7063 -1.87796 -2.63656 0
M  V30 988 H 91.6133 -3.58492 -1.06931 0
M  V30 989 H 92.9463 -4.71098 -1.42573 0
M  V30 990 N 94.5984 0.214957 -1.56127 0
M  V30 991 C 95.8444 0.939762 -1.79712 0
M  V30 992 C 96.1774 1.83723 -0.629247 0
M  V30 993 O 95.4524 1.90925 0.371197 0
M  V30 994 C 95.7354 1.77306 -3.13424 0
M  V30 995 C 95.5884 0.90164 -4.40671 0
M  V30 996 C 96.9074 2.74956 -3.43638 0
M  V30 997 H 94.0264 0.340214 -0.653776 0
M  V30 998 H 96.6684 0.20824 -1.88855 0
M  V30 999 H 94.8184 2.39673 -3.0576 0
M  V30 1000 H 96.4904 0.294206 -4.60361 0
M  V30 1001 H 94.7334 0.207368 -4.33304 0
M  V30 1002 H 95.4044 1.51923 -5.30682 0
M  V30 1003 H 97.8804 2.22724 -3.51473 0
M  V30 1004 H 96.7564 3.30358 -4.38355 0
M  V30 1005 H 97.0174 3.53023 -2.66134 0
M  V30 1006 N 96.0765 1.50051 0.48192 0
M  V30 1007 C 97.3535 1.51009 1.2432 0
M  V30 1008 C 97.7335 0.248587 2.09631 0
M  V30 1009 O 97.0815 -0.768409 2.15192 0
M  V30 1010 C 97.2915 2.79981 2.08355 0
M  V30 1011 C 98.6395 3.3022 2.66908 0
M  V30 1012 O 99.6635 2.81228 2.18607 0
M  V30 1013 O 98.5225 4.15595 3.54884 0
M  V30 1014 H 95.6165 0.605239 0.563573 0
M  V30 1015 H 98.1625 1.62332 0.494627 0
M  V30 1016 H 96.9345 3.63275 1.45419 0
M  V30 1017 H 96.5575 2.7161 2.90368 0
M  V30 1018 N 97.5546 -0.734337 1.39446 0
M  V30 1019 C 98.7846 -1.52137 1.39778 0
M  V30 1020 C 99.1926 -1.89198 -0.00929312 0
M  V30 1021 O 98.5356 -1.54666 -0.991168 0
M  V30 1022 C 98.5976 -2.83762 2.20724 0
M  V30 1023 C 98.2616 -2.69131 3.69347 0
M  V30 1024 C 99.2586 -2.37635 4.62413 0
M  V30 1025 C 96.9436 -2.85982 4.1294 0
M  V30 1026 C 98.9376 -2.23172 5.97054 0
M  V30 1027 C 96.6246 -2.71137 5.47657 0
M  V30 1028 C 97.6226 -2.39777 6.39528 0
M  V30 1029 O 97.3106 -2.25026 7.71763 0
M  V30 1030 H 97.0426 -0.476717 0.479288 0
M  V30 1031 H 99.5966 -0.915012 1.83893 0
M  V30 1032 H 97.8266 -3.4666 1.71359 0
M  V30 1033 H 99.5156 -3.45383 2.13226 0
M  V30 1034 H 100.282 -2.24267 4.30034 0
M  V30 1035 H 96.1606 -3.09383 3.41765 0
M  V30 1036 H 99.7046 -1.98617 6.68728 0
M  V30 1037 H 95.6016 -2.84083 5.79626 0
M  V30 1038 H 96.3696 -2.40091 7.82495 0
M  V30 1039 N 99.0327 -1.24633 -0.964593 0
M  V30 1040 C 99.9807 -1.03917 -2.08096 0
M  V30 1041 C 100.975 0.0268581 -1.69379 0
M  V30 1042 O 102.181 -0.127952 -1.79545 0
M  V30 1043 H 98.5557 -0.319044 -0.680966 0
M  V30 1044 H 100.527 -1.98581 -2.22729 0
M  V30 1045 C 99.2757 -0.663983 -3.41301 0
M  V30 1046 H 98.5987 -1.47605 -3.71555 0
M  V30 1047 H 100.039 -0.558663 -4.20303 0
M  V30 1048 C 98.4977 0.629169 -3.30973 0
M  V30 1049 O 99.0277 1.67404 -3.65156 0
M  V30 1050 N 97.2337 0.611057 -2.84103 0
M  V30 1051 H 96.7807 -0.239593 -2.56483 0
M  V30 1052 H 96.7387 1.47647 -2.77575 0
M  V30 1053 N 100.511 1.16574 -1.06058 0
M  V30 1054 C 101.757 1.87324 -0.777022 0
M  V30 1055 C 102.09 1.81351 0.694645 0
M  V30 1056 O 101.365 1.22753 1.50871 0
M  V30 1057 C 101.648 3.36991 -1.26922 0
M  V30 1058 C 101.501 3.51667 -2.80447 0
M  V30 1059 C 102.82 4.3131 -0.87521 0
M  V30 1060 H 99.9388 0.680191 -0.28374 0
M  V30 1061 H 102.581 1.37036 -1.3161 0
M  V30 1062 H 100.731 3.79949 -0.81063 0
M  V30 1063 H 102.403 3.17664 -3.34495 0
M  V30 1064 H 100.646 2.93656 -3.19294 0
M  V30 1065 H 101.317 4.56766 -3.0995 0
M  V30 1066 H 103.793 3.9624 -1.27014 0
M  V30 1067 H 102.669 5.34545 -1.2471 0
M  V30 1068 H 102.93 4.41552 0.220071 0
M  V30 1069 N 101.989 0.842826 1.3317 0
M  V30 1070 C 103.237 0.439577 1.97262 0
M  V30 1071 C 103.558 -1.00548 1.67078 0
M  V30 1072 O 102.828 -1.70098 0.971779 0
M  V30 1073 H 101.408 0.159558 0.72976 0
M  V30 1074 H 104.07 1.07665 1.62463 0
M  V30 1075 H 103.166 0.574886 3.0676 0
M  V30 1076 N 103.467 -1.45747 0.599634 0
M  V30 1077 C 104.697 -2.06369 0.0977132 0
M  V30 1078 C 105.105 -1.44624 -1.21985 0
M  V30 1079 O 104.448 -0.551831 -1.75216 0
M  V30 1080 C 104.51 -3.59284 -0.124673 0
M  V30 1081 C 104.174 -4.43318 1.10987 0
M  V30 1082 C 105.171 -4.78796 2.02609 0
M  V30 1083 C 102.856 -4.84194 1.33647 0
M  V30 1084 C 104.85 -5.53997 3.15224 0
M  V30 1085 C 102.537 -5.5915 2.46565 0
M  V30 1086 C 103.535 -5.93968 3.37182 0
M  V30 1087 O 103.223 -6.67405 4.48136 0
M  V30 1088 H 102.955 -0.673122 0.0623153 0
M  V30 1089 H 105.509 -1.88104 0.824981 0
M  V30 1090 H 103.739 -3.75919 -0.906745 0
M  V30 1091 H 105.428 -4.01775 -0.577201 0
M  V30 1092 H 106.194 -4.47781 1.86325 0
M  V30 1093 H 102.073 -4.56534 0.64016 0
M  V30 1094 H 105.617 -5.81091 3.85978 0
M  V30 1095 H 101.514 -5.89579 2.62805 0
M  V30 1096 H 102.282 -6.85847 4.46717 0
M  V30 1097 N 104.945 -0.338344 -1.53925 0
M  V30 1098 C 106.173 0.261298 -2.05243 0
M  V30 1099 C 106.588 1.44625 -1.21363 0
M  V30 1100 O 105.945 1.80811 -0.247736 0
M  V30 1101 C 105.996 0.681412 -3.5502 0
M  V30 1102 O 105.717 -0.456414 -4.35716 0
M  V30 1103 C 107.218 1.34232 -4.22489 0
M  V30 1104 H 104.438 0.0513685 -0.669031 0
M  V30 1105 H 106.982 -0.488822 -1.98572 0
M  V30 1106 H 105.137 1.38148 -3.61931 0
M  V30 1107 H 105.551 -0.122564 -5.24357 0
M  V30 1108 H 107.025 1.58708 -5.28693 0
M  V30 1109 H 107.502 2.29426 -3.74514 0
M  V30 1110 H 108.108 0.684424 -4.19757 0
M  V30 1111 N 106.423 1.57458 -0.0668435 0
M  V30 1112 C 107.648 1.9804 0.616027 0
M  V30 1113 C 108.073 0.944771 1.62652 0
M  V30 1114 O 107.431 -0.0902094 1.81075 0
M  V30 1115 C 107.479 3.37665 1.26549 0
M  V30 1116 O 106.583 3.36701 2.38131 0
M  V30 1117 H 105.924 0.644719 0.158849 0
M  V30 1118 H 108.454 2.04121 -0.139891 0
M  V30 1119 H 108.464 3.7474 1.6135 0
M  V30 1120 H 107.139 4.12573 0.525016 0
M  V30 1121 H 105.716 3.1139 2.0516 0
M  V30 1122 N 107.901 -0.206675 1.56239 0
M  V30 1123 C 108.831 -1.25909 1.96645 0
M  V30 1124 C 109.812 -1.48097 0.836734 0
M  V30 1125 O 110.997 -1.6003 1.10019 0
M  V30 1126 C 108.127 -2.6058 2.29599 0
M  V30 1127 C 107.081 -2.53024 3.452 0
M  V30 1128 C 106.407 -3.91861 3.63798 0
M  V30 1129 C 107.707 -2.06524 4.79734 0
M  V30 1130 H 109.401 -0.923369 2.84806 0
M  V30 1131 H 106.947 -0.442735 1.37025 0
M  V30 1132 H 108.9 -3.34375 2.56459 0
M  V30 1133 H 107.624 -2.95869 1.38307 0
M  V30 1134 H 106.283 -1.81684 3.18412 0
M  V30 1135 H 105.931 -4.24483 2.69857 0
M  V30 1136 H 105.631 -3.87683 4.4156 0
M  V30 1137 H 107.155 -4.67296 3.93022 0
M  V30 1138 H 108.569 -2.70072 5.05702 0
M  V30 1139 H 106.966 -2.13374 5.60885 0
M  V30 1140 H 108.036 -1.01802 4.74093 0
M  V30 1141 N 109.379 -1.50304 -0.473955 0
M  V30 1142 C 110.342 -1.6841 -1.55469 0
M  V30 1143 C 111.342 -0.554905 -1.50922 0
M  V30 1144 O 112.532 -0.821882 -1.53593 0
M  V30 1145 C 109.664 -1.70667 -2.95102 0
M  V30 1146 H 110.857 -2.64828 -1.40733 0
M  V30 1147 H 108.41 -1.39742 -0.700132 0
M  V30 1148 H 109.145 -0.75932 -3.15285 0
M  V30 1149 H 108.93 -2.52698 -2.9981 0
M  V30 1150 H 110.42 -1.8664 -3.73571 0
M  V30 1151 N 110.857 0.726932 -1.39834 0
M  V30 1152 C 112.082 1.52121 -1.40976 0
M  V30 1153 C 112.507 1.88098 -0.00826029 0
M  V30 1154 O 111.865 1.52479 0.980807 0
M  V30 1155 C 111.913 2.78021 -2.29644 0
M  V30 1156 O 111.017 3.74272 -1.73188 0
M  V30 1157 H 110.358 0.45908 -0.479731 0
M  V30 1158 H 112.888 0.896207 -1.83927 0
M  V30 1159 H 112.898 3.26671 -2.44438 0
M  V30 1160 H 111.573 2.51169 -3.31492 0
M  V30 1161 H 110.15 3.33073 -1.6768 0
M  V30 1162 N 112.336 1.25143 0.95797 0
M  V30 1163 C 113.584 1.09476 1.69881 0
M  V30 1164 C 113.905 -0.365502 1.91544 0
M  V30 1165 O 113.175 -1.25985 1.50015 0
M  V30 1166 H 111.755 0.402128 0.629525 0
M  V30 1167 H 114.417 1.57214 1.15194 0
M  V30 1168 H 113.513 1.60046 2.6794 0
M  V30 1169 N 113.814 -1.1601 1.06675 0
M  V30 1170 C 115.091 -1.82679 0.699114 0
M  V30 1171 C 115.471 -1.94559 -0.819137 0
M  V30 1172 O 114.819 -1.49169 -1.73092 0
M  V30 1173 C 115.029 -3.19445 1.40555 0
M  V30 1174 C 116.377 -3.95171 1.55323 0
M  V30 1175 O 117.401 -3.28976 1.36577 0
M  V30 1176 O 116.26 -5.13833 1.86112 0
M  V30 1177 H 113.354 -0.788954 0.247951 0
M  V30 1178 H 115.9 -1.23179 1.16726 0
M  V30 1179 H 114.672 -3.05856 2.44065 0
M  V30 1180 H 114.295 -3.86625 0.927733 0
M  V30 1181 N 115.292 -0.849877 -1.32721 0
M  V30 1182 C 116.255 -0.296122 -2.27279 0
M  V30 1183 C 117.255 0.541458 -1.5141 0
M  V30 1184 O 118.445 0.353658 -1.70572 0
M  V30 1185 C 115.577 0.581579 -3.35902 0
M  V30 1186 H 116.77 -1.13064 -2.77771 0
M  V30 1187 H 114.323 -0.62383 -1.43311 0
M  V30 1188 H 115.058 1.43809 -2.9067 0
M  V30 1189 H 114.843 -0.0178814 -3.92096 0
M  V30 1190 H 116.333 0.961951 -4.0637 0
M  V30 1191 N 116.77 1.45427 -0.607355 0
M  V30 1192 C 117.998 2.06614 -0.108814 0
M  V30 1193 C 118.413 1.45204 1.2067 0
M  V30 1194 O 117.77 0.566132 1.73497 0
M  V30 1195 C 117.821 3.61481 0.0375347 0
M  V30 1196 O 117.542 4.20598 -1.22593 0
M  V30 1197 C 119.043 4.39652 0.567561 0
M  V30 1198 H 116.263 0.66747 -0.0687351 0
M  V30 1199 H 118.807 1.86675 -0.835022 0
M  V30 1200 H 116.962 3.80762 0.714068 0
M  V30 1201 H 117.376 5.1377 -1.05547 0
M  V30 1202 H 118.85 5.48518 0.61905 0
M  V30 1203 H 119.327 4.09417 1.58978 0
M  V30 1204 H 119.933 4.25234 -0.0749202 0
M  V30 1205 N 118.248 0.346503 1.53744 0
M  V30 1206 C 119.495 -0.249104 2.00962 0
M  V30 1207 C 119.823 -1.5032 1.23426 0
M  V30 1208 O 119.078 -1.93217 0.310761 0
M  V30 1209 C 119.377 -0.605809 3.52228 0
M  V30 1210 C 119.043 0.551747 4.47512 0
M  V30 1211 C 117.705 0.86941 4.73281 0
M  V30 1212 C 120.057 1.32818 5.03993 0
M  V30 1213 C 117.385 1.96582 5.52786 0
M  V30 1214 C 119.737 2.41486 5.84694 0
M  V30 1215 C 118.401 2.73808 6.08757 0
M  V30 1216 H 117.671 -0.0911538 0.735372 0
M  V30 1217 H 120.318 0.475027 1.85515 0
M  V30 1218 H 118.623 -1.4107 3.65522 0
M  V30 1219 H 120.32 -1.07858 3.86222 0
M  V30 1220 H 116.91 0.294102 4.2759 0
M  V30 1221 H 121.094 1.09602 4.84047 0
M  V30 1222 H 116.35 2.22045 5.69654 0
M  V30 1223 H 120.524 3.02078 6.27473 0
M  V30 1224 H 118.151 3.58892 6.7015 0
M  V30 1225 N 119.726 -1.57421 0.075193 0
M  V30 1226 C 120.954 -1.97946 -0.602076 0
M  V30 1227 C 121.369 -0.953674 -1.62943 0
M  V30 1228 O 120.726 0.0592551 -1.82404 0
M  V30 1229 C 120.777 -3.38546 -1.26762 0
M  V30 1230 O 120.498 -4.37195 -0.281376 0
M  V30 1231 C 121.999 -3.93966 -2.03239 0
M  V30 1232 H 119.219 -0.650918 -0.162931 0
M  V30 1233 H 121.763 -2.03959 0.148601 0
M  V30 1234 H 119.918 -3.33609 -1.96936 0
M  V30 1235 H 120.332 -5.18975 -0.759267 0
M  V30 1236 H 121.806 -4.94555 -2.45193 0
M  V30 1237 H 122.283 -3.30693 -2.8903 0
M  V30 1238 H 122.889 -4.02315 -1.37924 0
M  V30 1239 N 121.204 0.198386 -1.56346 0
M  V30 1240 C 122.167 1.22952 -1.93431 0
M  V30 1241 C 123.167 1.38611 -0.815092 0
M  V30 1242 O 124.357 1.36479 -1.08255 0
M  V30 1243 C 121.489 2.59946 -2.20546 0
M  V30 1244 H 122.682 0.912626 -2.85677 0
M  V30 1245 H 120.235 0.43977 -1.49986 0
M  V30 1246 H 120.97 2.96696 -1.30927 0
M  V30 1247 H 120.755 2.49953 -3.02102 0
M  V30 1248 H 122.245 3.3431 -2.50253 0
M  V30 1249 N 122.682 1.50554 0.465978 0
M  V30 1250 C 123.928 1.62038 1.21949 0
M  V30 1251 C 124.261 0.322116 1.9151 0
M  V30 1252 O 123.536 -0.676723 1.82348 0
M  V30 1253 C 123.819 2.80421 2.25912 0
M  V30 1254 C 123.672 4.20144 1.60622 0
M  V30 1255 C 124.991 2.94354 3.27176 0
M  V30 1256 H 122.11 0.589752 0.441998 0
M  V30 1257 H 124.752 1.82956 0.51257 0
M  V30 1258 H 122.902 2.62717 2.86203 0
M  V30 1259 H 124.574 4.49449 1.03889 0
M  V30 1260 H 122.817 4.24165 0.909211 0
M  V30 1261 H 123.488 4.98914 2.36196 0
M  V30 1262 H 125.964 3.10578 2.76913 0
M  V30 1263 H 124.84 3.788 3.97242 0
M  V30 1264 H 125.101 2.05186 3.916 0
M  V30 1265 N 124.16 -0.719506 1.40217 0
M  V30 1266 C 125.108 -1.85493 1.40339 0
M  V30 1267 C 126.102 -1.66995 0.284415 0
M  V30 1268 O 127.308 -1.74148 0.455252 0
M  V30 1269 H 123.683 -0.610857 0.438586 0
M  V30 1270 H 125.654 -1.82506 2.36081 0
M  V30 1271 C 124.403 -3.23321 1.27901 0
M  V30 1272 H 123.726 -3.38159 2.1328 0
M  V30 1273 H 125.166 -4.02914 1.32045 0
M  V30 1274 C 123.625 -3.36898 -0.0111355 0
M  V30 1275 O 124.155 -3.89674 -0.975538 0
M  V30 1276 N 122.361 -2.90492 -0.0793393 0
M  V30 1277 H 121.908 -2.47731 0.706183 0
M  V30 1278 H 121.866 -2.99955 -0.942038 0
M  V30 1279 N 125.638 -1.25649 -0.95132 0
M  V30 1280 C 126.884 -1.11766 -1.69941 0
M  V30 1281 C 127.239 0.33735 -1.89419 0
M  V30 1282 O 126.532 1.24491 -1.45645 0
M  V30 1283 C 126.726 -1.80909 -3.08231 0
M  V30 1284 C 126.555 -3.32984 -3.02245 0
M  V30 1285 C 125.325 -4.02247 -3.05819 0
M  V30 1286 C 127.523 -4.29332 -2.83157 0
M  V30 1287 N 125.505 -5.41072 -2.90024 0
M  V30 1288 C 126.876 -5.55265 -2.75828 0
M  V30 1289 C 128.931 -4.19707 -2.67863 0
M  V30 1290 C 127.634 -6.72671 -2.54767 0
M  V30 1291 C 129.66 -5.36809 -2.48173 0
M  V30 1292 C 129.022 -6.61683 -2.41567 0
M  V30 1293 H 125.121 -0.463708 -0.629682 0
M  V30 1294 H 127.705 -1.58796 -1.12659 0
M  V30 1295 H 125.876 -1.36369 -3.63673 0
M  V30 1296 H 127.608 -1.59739 -3.71841 0
M  V30 1297 H 124.363 -3.53531 -3.15139 0
M  V30 1298 H 124.787 -6.13938 -2.85323 0
M  V30 1299 H 129.429 -3.23907 -2.71743 0
M  V30 1300 H 127.147 -7.68577 -2.49629 0
M  V30 1301 H 130.733 -5.31224 -2.37259 0
M  V30 1302 H 129.613 -7.50768 -2.26531 0
M  V30 1303 N 127.117 1.15442 -1.07289 0
M  V30 1304 C 128.345 1.90096 -0.81676 0
M  V30 1305 C 128.76 1.7798 0.629966 0
M  V30 1306 O 128.117 1.1313 1.43206 0
M  V30 1307 C 128.168 3.40466 -1.21512 0
M  V30 1308 O 127.889 3.52232 -2.60508 0
M  V30 1309 C 129.39 4.32145 -0.988198 0
M  V30 1310 H 126.61 0.602495 -0.295366 0
M  V30 1311 H 129.154 1.4627 -1.42918 0
M  V30 1312 H 127.309 3.81958 -0.647039 0
M  V30 1313 H 127.723 4.45549 -2.76742 0
M  V30 1314 H 129.197 5.36072 -1.31645 0
M  V30 1315 H 129.674 4.39135 0.0755063 0
M  V30 1316 H 130.28 3.96395 -1.54115 0
M  V30 1317 N 128.595 0.856903 1.32268 0
M  V30 1318 C 130.006 0.515711 1.79436 0
M  V30 1319 C 130.357 -0.966586 1.70738 0
M  V30 1320 O 129.482 -1.75409 1.26731 0
M  V30 1321 C 130.077 0.929335 3.25805 0
M  V30 1322 C 128.636 0.640006 3.70919 0
M  V30 1323 C 127.783 1.12784 2.53328 0
M  V30 1324 H 130.734 1.04389 1.19535 0
M  V30 1325 H 130.755 0.246633 3.797 0
M  V30 1326 H 130.267 2.00821 3.32103 0
M  V30 1327 H 128.368 -0.428051 3.70133 0
M  V30 1328 H 128.481 1.20788 4.63624 0
M  V30 1329 H 126.845 0.548033 2.48734 0
M  V30 1330 H 127.628 2.21387 2.62379 0
M  V30 1331 N 130.073 -1.45103 0.615059 0
M  V30 1332 C 131.003 -2.33339 -0.0865619 0
M  V30 1333 C 131.984 -1.4727 -0.851209 0
M  V30 1334 O 133.169 -1.76026 -0.820281 0
M  V30 1335 C 130.299 -3.30095 -1.07956 0
M  V30 1336 C 129.253 -4.25858 -0.427628 0
M  V30 1337 C 128.579 -5.12361 -1.5294 0
M  V30 1338 C 129.879 -5.18165 0.655944 0
M  V30 1339 H 131.573 -2.92254 0.650224 0
M  V30 1340 H 129.119 -1.40532 0.314138 0
M  V30 1341 H 131.072 -3.90698 -1.57901 0
M  V30 1342 H 129.796 -2.69355 -1.84703 0
M  V30 1343 H 128.455 -3.66564 0.0510292 0
M  V30 1344 H 128.103 -4.47984 -2.28734 0
M  V30 1345 H 127.803 -5.77238 -1.09865 0
M  V30 1346 H 129.327 -5.75833 -2.03098 0
M  V30 1347 H 130.741 -5.72796 0.240257 0
M  V30 1348 H 129.138 -5.91559 1.00888 0
M  V30 1349 H 130.208 -4.60144 1.52957 0
M  V30 1350 N 131.551 -0.354651 -1.53558 0
M  V30 1351 C 132.501 0.513179 -2.2215 0
M  V30 1352 C 133.485 1.05734 -1.21281 0
M  V30 1353 O 134.677 0.989202 -1.46778 0
M  V30 1354 C 131.806 1.65798 -3.00609 0
M  V30 1355 C 130.892 1.12722 -4.08845 0
M  V30 1356 N 131.283 0.318563 -5.04796 0
M  V30 1357 C 129.581 1.40307 -4.23356 0
M  V30 1358 C 130.282 0.0292224 -5.81693 0
M  V30 1359 N 129.258 0.623891 -5.40008 0
M  V30 1360 H 133.06 -0.111586 -2.93688 0
M  V30 1361 H 130.574 -0.162091 -1.61589 0
M  V30 1362 H 132.571 2.29176 -3.48258 0
M  V30 1363 H 131.231 2.28591 -2.306 0
M  V30 1364 H 132.242 -0.0413091 -5.17884 0
M  V30 1365 H 128.919 2.03458 -3.6457 0
M  V30 1366 H 130.309 -0.623808 -6.68998 0
M  V30 1367 N 133.029 1.57378 -0.0835403 0
M  V30 1368 C 134.306 1.85363 0.624507 0
M  V30 1369 C 134.686 0.978239 1.87066 0
M  V30 1370 O 134.034 0.0475908 2.2845 0
M  V30 1371 C 134.244 3.35795 0.950947 0
M  V30 1372 C 135.592 4.03581 1.31939 0
M  V30 1373 O 136.616 3.40609 1.04232 0
M  V30 1374 O 135.475 5.14672 1.83779 0
M  V30 1375 H 132.569 0.766162 0.311329 0
M  V30 1376 H 135.115 1.69307 -0.115362 0
M  V30 1377 H 133.887 3.91244 0.0663899 0
M  V30 1378 H 133.51 3.57154 1.74719 0
M  V30 1379 N 134.507 -0.190092 1.56449 0
M  V30 1380 C 135.455 -1.25501 1.95837 0
M  V30 1381 C 136.449 -1.4685 0.844485 0
M  V30 1382 O 137.655 -1.47651 1.02952 0
M  V30 1383 H 134.03 -0.421447 0.622805 0
M  V30 1384 H 136.001 -0.895821 2.84636 0
M  V30 1385 C 134.75 -2.59124 2.31841 0
M  V30 1386 H 134.073 -2.43514 3.17082 0
M  V30 1387 H 135.513 -3.32371 2.6326 0
M  V30 1388 C 133.972 -3.16488 1.15486 0
M  V30 1389 O 134.502 -3.99365 0.432535 0
M  V30 1390 N 132.708 -2.75305 0.930349 0
M  V30 1391 H 132.255 -2.08013 1.51948 0
M  V30 1392 H 132.213 -3.14024 0.153634 0
M  V30 1393 N 135.985 -1.50799 -0.457987 0
M  V30 1394 C 136.918 -1.65273 -1.57353 0
M  V30 1395 C 137.896 -0.500578 -1.54703 0
M  V30 1396 O 139.08 -0.721781 -1.74134 0
M  V30 1397 C 136.207 -1.64737 -2.95938 0
M  V30 1398 C 135.253 -2.8567 -3.16693 0
M  V30 1399 S 136.086 -4.46791 -2.95191 0
M  V30 1400 C 137.242 -4.48968 -4.36095 0
M  V30 1401 H 137.475 -2.59633 -1.44838 0
M  V30 1402 H 135.008 -1.40225 -0.64625 0
M  V30 1403 H 136.966 -1.65112 -3.7583 0
M  V30 1404 H 135.627 -0.715899 -3.05833 0
M  V30 1405 H 134.82 -2.81637 -4.17967 0
M  V30 1406 H 134.422 -2.8293 -2.44594 0
M  V30 1407 H 136.714 -4.23337 -5.28954 0
M  V30 1408 H 137.657 -5.50664 -4.45168 0
M  V30 1409 H 138.065 -3.78522 -4.18786 0
M  V30 1410 N 137.463 0.71206 -1.40597 0
M  V30 1411 C 138.693 1.49894 -1.42181 0
M  V30 1412 C 139.101 1.89189 -0.0208078 0
M  V30 1413 O 138.444 1.56223 0.966436 0
M  V30 1414 C 138.506 2.80215 -2.25211 0
M  V30 1415 C 138.17 2.63221 -3.73582 0
M  V30 1416 C 139.167 2.30249 -4.66135 0
M  V30 1417 C 136.852 2.79376 -4.17438 0
M  V30 1418 C 138.846 2.13645 -6.00529 0
M  V30 1419 C 136.533 2.6239 -5.51901 0
M  V30 1420 C 137.531 2.29573 -6.43262 0
M  V30 1421 O 137.219 2.12719 -7.75246 0
M  V30 1422 H 136.951 0.469031 -0.486812 0
M  V30 1423 H 139.505 0.88564 -1.85326 0
M  V30 1424 H 137.735 3.4389 -1.76852 0
M  V30 1425 H 139.424 3.41947 -2.18694 0
M  V30 1426 H 140.19 2.17398 -4.33547 0
M  V30 1427 H 136.069 3.03906 -3.46644 0
M  V30 1428 H 139.613 1.87953 -6.71803 0
M  V30 1429 H 135.51 2.74826 -5.84073 0
M  V30 1430 H 136.278 2.27611 -7.86216 0
M  V30 1431 N 138.941 1.26152 0.944643 0
M  V30 1432 C 139.851 1.09176 2.07648 0
M  V30 1433 C 140.867 0.0261935 1.7398 0
M  V30 1434 O 142.043 0.229208 2.00091 0
M  V30 1435 C 139.108 0.722915 3.39079 0
M  V30 1436 C 138.169 1.86752 3.86552 0
M  V30 1437 C 137.402 1.51617 5.11711 0
M  V30 1438 O 137.625 0.416331 5.68879 0
M  V30 1439 O 136.559 2.34975 5.54139 0
M  V30 1440 H 140.385 2.0412 2.24875 0
M  V30 1441 H 137.97 1.05182 1.061 0
M  V30 1442 H 139.852 0.529787 4.18056 0
M  V30 1443 H 138.527 -0.197159 3.23099 0
M  V30 1444 H 137.434 2.11558 3.08535 0
M  V30 1445 H 138.767 2.76719 4.07047 0
M  V30 1446 N 140.419 -1.14872 1.07899 0
M  V30 1447 C 141.382 -2.17986 0.708161 0
M  V30 1448 C 142.382 -1.58775 -0.25442 0
M  V30 1449 O 143.572 -1.74166 -0.034645 0
M  V30 1450 C 140.704 -3.40871 0.0446929 0
M  V30 1451 H 141.897 -2.52306 1.62116 0
M  V30 1452 H 139.45 -1.2943 0.876218 0
M  V30 1453 H 140.185 -3.12124 -0.880281 0
M  V30 1454 H 139.97 -3.8511 0.737091 0
M  V30 1455 H 141.46 -4.17121 -0.19991 0
M  V30 1456 N 141.898 -0.863906 -1.31812 0
M  V30 1457 C 142.861 -0.320212 -2.26952 0
M  V30 1458 C 143.861 0.525369 -1.51975 0
M  V30 1459 O 145.051 0.335547 -1.70938 0
M  V30 1460 C 142.183 0.545919 -3.365 0
M  V30 1461 H 143.376 -1.16004 -2.76556 0
M  V30 1462 H 140.929 -0.638995 -1.42641 0
M  V30 1463 H 141.664 1.40718 -2.92179 0
M  V30 1464 H 141.449 -0.0594674 -3.92055 0
M  V30 1465 H 142.939 0.918796 -4.07367 0
M  V30 1466 N 143.376 1.44774 -0.622745 0
M  V30 1467 C 144.624 2.01721 -0.123655 0
M  V30 1468 C 144.945 1.49172 1.25589 0
M  V30 1469 O 144.215 0.691974 1.83272 0
M  V30 1470 H 142.795 0.745777 -0.0427225 0
M  V30 1471 H 145.457 1.77382 -0.807559 0
M  V30 1472 H 144.553 3.11984 -0.0849534 0
M  V30 1473 N 144.854 0.36279 1.53368 0
M  V30 1474 C 146.102 -0.227326 2.00817 0
M  V30 1475 C 146.423 -1.49511 1.25186 0
M  V30 1476 O 145.693 -1.92482 0.364348 0
M  V30 1477 H 144.273 -0.0869923 0.741917 0
M  V30 1478 H 146.935 0.488381 1.88682 0
M  V30 1479 H 146.031 -0.456273 3.08747 0
M  V30 1480 N 146.332 -1.57332 0.0918853 0
M  V30 1481 C 147.609 -1.85691 -0.614668 0
M  V30 1482 C 147.989 -0.988146 -1.86545 0
M  V30 1483 O 147.337 -0.0597055 -2.28422 0
M  V30 1484 C 147.547 -3.36294 -0.933126 0
M  V30 1485 C 148.895 -4.04275 -1.29796 0
M  V30 1486 O 149.919 -3.41157 -1.02424 0
M  V30 1487 O 148.778 -5.1564 -1.81047 0
M  V30 1488 H 145.872 -0.767802 -0.307261 0
M  V30 1489 H 148.418 -1.69244 0.12434 0
M  V30 1490 H 147.19 -3.91273 -0.0456404 0
M  V30 1491 H 146.813 -3.58076 -1.72822 0
M  V30 1492 N 147.81 0.181792 -1.56548 0
M  V30 1493 C 148.757 1.22521 -1.95595 0
M  V30 1494 C 149.727 1.4454 -0.818373 0
M  V30 1495 O 150.912 1.57454 -1.07763 0
M  V30 1496 C 148.052 2.56193 -2.31212 0
M  V30 1497 C 147.165 2.41641 -3.58097 0
M  V30 1498 C 146.3 3.68108 -3.82975 0
M  V30 1499 C 145.339 3.48445 -5.03242 0
M  V30 1500 N 144.476 4.66956 -5.24306 0
M  V30 1501 H 149.316 0.885226 -2.84548 0
M  V30 1502 H 146.853 0.425718 -1.40805 0
M  V30 1503 H 148.811 3.34088 -2.49882 0
M  V30 1504 H 147.441 2.88208 -1.45382 0
M  V30 1505 H 146.493 1.54976 -3.474 0
M  V30 1506 H 147.805 2.23052 -4.46149 0
M  V30 1507 H 146.959 4.54441 -4.01956 0
M  V30 1508 H 145.698 3.89666 -2.93278 0
M  V30 1509 H 144.703 2.60499 -4.8417 0
M  V30 1510 H 145.928 3.2832 -5.9446 0
M  V30 1511 H 143.874 4.88752 -4.37559 0
M  V30 1512 H 143.791 4.51242 -6.06561 0
M  V30 1513 H 145.059 5.54602 -5.47756 0
M  V30 1514 N 149.288 1.51039 0.449983 0
M  V30 1515 C 150.235 1.71439 1.54523 0
M  V30 1516 C 151.205 0.555871 1.56522 0
M  V30 1517 O 152.39 0.788871 1.73728 0
M  V30 1518 C 149.53 1.83384 2.92343 0
M  V30 1519 C 148.643 3.10873 2.9997 0
M  V30 1520 C 147.778 3.13488 4.28834 0
M  V30 1521 C 146.817 4.35343 4.30282 0
M  V30 1522 N 145.954 4.35579 5.5065 0
M  V30 1523 H 150.794 2.64934 1.36433 0
M  V30 1524 H 148.331 1.31312 0.662982 0
M  V30 1525 H 150.289 1.88291 3.72293 0
M  V30 1526 H 148.919 0.933086 3.0902 0
M  V30 1527 H 147.971 3.15336 2.12761 0
M  V30 1528 H 149.283 4.00814 2.96901 0
M  V30 1529 H 148.437 3.17241 5.17149 0
M  V30 1530 H 147.176 2.21414 4.34543 0
M  V30 1531 H 146.181 4.3178 3.40362 0
M  V30 1532 H 147.406 5.28668 4.26248 0
M  V30 1533 H 145.352 3.46369 5.57104 0
M  V30 1534 H 145.269 5.19313 5.49409 0
M  V30 1535 H 146.537 4.43507 6.41032 0
M  V30 1536 N 150.766 -0.704594 1.40972 0
M  V30 1537 C 152.013 -1.46458 1.39844 0
M  V30 1538 C 152.341 -1.94499 0.00447594 0
M  V30 1539 O 151.596 -1.69275 -0.982057 0
M  V30 1540 C 151.895 -2.698 2.34399 0
M  V30 1541 C 151.561 -2.40464 3.81429 0
M  V30 1542 C 150.223 -2.32174 4.21484 0
M  V30 1543 C 152.575 -2.16086 4.74296 0
M  V30 1544 C 149.903 -1.97589 5.52427 0
M  V30 1545 C 152.255 -1.83011 6.05549 0
M  V30 1546 C 150.919 -1.7321 6.44635 0
M  V30 1547 H 150.189 -0.535927 0.511725 0
M  V30 1548 H 152.836 -0.806124 1.73706 0
M  V30 1549 H 151.141 -3.40536 1.93759 0
M  V30 1550 H 152.838 -3.27919 2.30804 0
M  V30 1551 H 149.428 -2.47808 3.49699 0
M  V30 1552 H 153.612 -2.2144 4.4416 0
M  V30 1553 H 148.868 -1.88547 5.81601 0
M  V30 1554 H 153.042 -1.63164 6.77016 0
M  V30 1555 H 150.669 -1.46179 7.46013 0
M  V30 1556 N 152.244 -1.26651 -0.937939 0
M  V30 1557 C 153.474 -1.15006 -1.71631 0
M  V30 1558 C 153.882 0.297026 -1.86854 0
M  V30 1559 O 153.225 1.21493 -1.37786 0
M  V30 1560 C 153.287 -1.74984 -3.14039 0
M  V30 1561 C 152.951 -3.24103 -3.2219 0
M  V30 1562 C 153.948 -4.20877 -3.05219 0
M  V30 1563 C 151.633 -3.64625 -3.45476 0
M  V30 1564 C 153.627 -5.56151 -3.11408 0
M  V30 1565 C 151.314 -5.00032 -3.513 0
M  V30 1566 C 152.312 -5.95604 -3.34282 0
M  V30 1567 O 152 -7.28545 -3.3982 0
M  V30 1568 H 151.732 -0.401183 -0.544085 0
M  V30 1569 H 154.286 -1.67832 -1.18413 0
M  V30 1570 H 152.516 -1.16624 -3.68695 0
M  V30 1571 H 154.205 -1.58199 -3.73802 0
M  V30 1572 H 154.971 -3.90908 -2.87081 0
M  V30 1573 H 150.85 -2.90718 -3.57777 0
M  V30 1574 H 154.394 -6.30727 -2.98043 0
M  V30 1575 H 150.291 -5.29659 -3.68959 0
M  V30 1576 H 151.059 -7.3686 -3.56343 0
M  V30 1577 N 153.722 1.14298 -1.08507 0
M  V30 1578 C 155.138 1.37347 -0.812901 0
M  V30 1579 C 155.338 1.93052 0.577325 0
M  V30 1580 O 154.394 2.14389 1.33393 0
M  V30 1581 C 155.707 2.33359 -1.89642 0
M  V30 1582 C 157.255 2.46996 -1.92255 0
M  V30 1583 C 157.73 3.46309 -2.99724 0
M  V30 1584 N 159.221 3.53853 -2.98902 0
M  V30 1585 C 159.956 4.3055 -3.787 0
M  V30 1586 N 159.452 5.10482 -4.6838 0
M  V30 1587 N 161.245 4.25757 -3.66998 0
M  V30 1588 H 153.396 0.764867 -1.9815 0
M  V30 1589 H 155.659 0.398966 -0.859959 0
M  V30 1590 H 155.365 1.99565 -2.89597 0
M  V30 1591 H 155.239 3.33274 -1.76659 0
M  V30 1592 H 157.626 2.80081 -0.929445 0
M  V30 1593 H 157.707 1.47039 -2.09316 0
M  V30 1594 H 157.351 3.13957 -3.99241 0
M  V30 1595 H 157.281 4.46049 -2.79907 0
M  V30 1596 H 159.772 2.96812 -2.33904 0
M  V30 1597 H 160.085 5.66284 -5.25873 0
M  V30 1598 H 158.43 5.09747 -4.72422 0
M  V30 1599 H 161.621 3.62383 -2.96304 0
M  V30 1600 H 161.794 4.85279 -4.29427 0
M  V30 1601 N 155.201 0.870884 1.31352 0
M  V30 1602 C 156.111 0.330783 2.32256 0
M  V30 1603 C 157.127 -0.559767 1.6475 0
M  V30 1604 O 158.303 -0.456263 1.96164 0
M  V30 1605 C 155.368 -0.458137 3.4366 0
M  V30 1606 C 154.429 0.460482 4.26823 0
M  V30 1607 C 153.662 -0.290881 5.32907 0
M  V30 1608 O 153.885 -1.51885 5.49806 0
M  V30 1609 O 152.819 0.351732 6.00871 0
M  V30 1610 H 156.645 1.16718 2.80376 0
M  V30 1611 H 154.23 0.634285 1.35267 0
M  V30 1612 H 156.112 -0.905343 4.1156 0
M  V30 1613 H 154.787 -1.27106 2.97701 0
M  V30 1614 H 153.694 0.956207 3.61673 0
M  V30 1615 H 155.027 1.23903 4.7635 0
M  V30 1616 N 156.679 -1.44442 0.630414 0
M  V30 1617 C 157.927 -2.01653 0.134351 0
M  V30 1618 C 158.248 -1.49836 -1.24796 0
M  V30 1619 O 157.518 -0.701684 -1.82902 0
M  V30 1620 H 156.098 -0.74554 0.0466769 0
M  V30 1621 H 158.76 -1.76952 0.816955 0
M  V30 1622 H 157.856 -3.11935 0.101498 0
M  V30 1623 N 158.157 -0.370918 -1.53173 0
M  V30 1624 C 159.403 0.217423 -2.01631 0
M  V30 1625 C 159.736 1.47983 -1.25756 0
M  V30 1626 O 159.011 1.91274 -0.352764 0
M  V30 1627 C 159.294 0.503982 -3.56556 0
M  V30 1628 C 159.147 -0.77243 -4.43118 0
M  V30 1629 C 160.466 1.30234 -4.20389 0
M  V30 1630 H 157.585 0.0775486 -0.732909 0
M  V30 1631 H 160.227 -0.496863 -1.83388 0
M  V30 1632 H 158.377 1.11248 -3.72231 0
M  V30 1633 H 160.049 -1.4098 -4.39229 0
M  V30 1634 H 158.292 -1.39167 -4.10871 0
M  V30 1635 H 158.963 -0.526815 -5.4948 0
M  V30 1636 H 161.439 0.787546 -4.08579 0
M  V30 1637 H 160.315 1.47158 -5.28806 0
M  V30 1638 H 160.576 2.31237 -3.76805 0
M  V30 1639 N 159.635 1.57281 -0.100228 0
M  V30 1640 C 160.882 1.94537 0.562268 0
M  V30 1641 C 161.21 0.982315 1.67871 0
M  V30 1642 O 160.465 0.00280936 1.957 0
M  V30 1643 C 160.764 3.38305 1.15259 0
M  V30 1644 C 160.43 4.50618 0.159409 0
M  V30 1645 C 159.092 4.81066 -0.113741 0
M  V30 1646 C 161.444 5.18615 -0.518461 0
M  V30 1647 C 158.772 5.76835 -1.07137 0
M  V30 1648 C 161.124 6.15412 -1.46459 0
M  V30 1649 C 159.788 6.44262 -1.74592 0
M  V30 1650 H 159.058 0.711863 0.205748 0
M  V30 1651 H 161.705 1.90679 -0.17715 0
M  V30 1652 H 160.01 3.38766 1.96836 0
M  V30 1653 H 161.707 3.64435 1.67297 0
M  V30 1654 H 158.297 4.2689 0.382491 0
M  V30 1655 H 162.481 4.95264 -0.320581 0
M  V30 1656 H 157.737 5.975 -1.29628 0
M  V30 1657 H 161.911 6.67194 -1.99564 0
M  V30 1658 H 159.538 7.1828 -2.48953 0
M  V30 1659 N 161.113 -0.173488 1.56642 0
M  V30 1660 C 162.359 -0.891784 1.8214 0
M  V30 1661 C 162.692 -1.8199 0.677736 0
M  V30 1662 O 161.967 -1.91842 -0.320446 0
M  V30 1663 C 162.25 -1.68933 3.18015 0
M  V30 1664 C 162.103 -0.784487 4.42906 0
M  V30 1665 C 163.422 -2.65748 3.50808 0
M  V30 1666 H 160.541 -0.322761 0.662567 0
M  V30 1667 H 163.183 -0.158095 1.89341 0
M  V30 1668 H 161.333 -2.31482 3.12007 0
M  V30 1669 H 163.005 -0.172046 4.60979 0
M  V30 1670 H 161.248 -0.0924117 4.33702 0
M  V30 1671 H 161.919 -1.37799 5.34524 0
M  V30 1672 H 164.395 -2.13327 3.57255 0
M  V30 1673 H 163.271 -3.18619 4.4696 0
M  V30 1674 H 163.532 -3.45842 2.75401 0
M  V30 1675 N 162.591 -1.51276 -0.441967 0
M  V30 1676 C 163.539 -1.72823 -1.55676 0
M  V30 1677 C 164.533 -0.59445 -1.58627 0
M  V30 1678 O 165.739 -0.775715 -1.62427 0
M  V30 1679 H 162.114 -0.545983 -0.517113 0
M  V30 1680 H 164.085 -2.6628 -1.34675 0
M  V30 1681 C 162.834 -1.86619 -2.93375 0
M  V30 1682 H 162.157 -2.73264 -2.91834 0
M  V30 1683 H 163.597 -2.05709 -3.70756 0
M  V30 1684 C 162.056 -0.624842 -3.31055 0
M  V30 1685 O 162.586 0.222636 -4.01083 0
M  V30 1686 N 160.792 -0.470288 -2.86769 0
M  V30 1687 H 160.339 -1.161 -2.29953 0
M  V30 1688 H 160.297 0.359051 -3.12343 0
M  V30 1689 N 164.069 0.697108 -1.41344 0
M  V30 1690 C 165.317 1.45426 -1.40341 0
M  V30 1691 C 165.638 1.94996 -0.0128787 0
M  V30 1692 O 164.908 1.71599 0.945027 0
M  V30 1693 H 163.488 0.539594 -0.516573 0
M  V30 1694 H 166.15 0.825201 -1.76569 0
M  V30 1695 H 165.246 2.31817 -2.08967 0
M  V30 1696 N 165.547 1.27147 0.931209 0
M  V30 1697 C 166.51 1.09615 2.01289 0
M  V30 1698 C 167.51 0.0412581 1.60747 0
M  V30 1699 O 168.7 0.285545 1.71844 0
M  V30 1700 C 165.832 0.669447 3.34262 0
M  V30 1701 H 167.025 2.05662 2.18273 0
M  V30 1702 H 164.578 1.09885 1.11153 0
M  V30 1703 H 165.313 -0.292572 3.22978 0
M  V30 1704 H 165.098 1.43127 3.65044 0
M  V30 1705 H 166.588 0.568921 4.13706 0
M  V30 1706 N 167.025 -1.13721 1.09112 0
M  V30 1707 C 167.988 -2.17222 0.731241 0
M  V30 1708 C 168.988 -1.59035 -0.237566 0
M  V30 1709 O 170.178 -1.74192 -0.0161704 0
M  V30 1710 C 167.31 -3.40804 0.0808443 0
M  V30 1711 H 168.503 -2.50573 1.64783 0
M  V30 1712 H 166.056 -1.28493 0.889897 0
M  V30 1713 H 166.791 -3.1304 -0.847127 0
M  V30 1714 H 166.576 -3.84306 0.777896 0
M  V30 1715 H 168.066 -4.1731 -0.155657 0
M  V30 1716 N 168.503 -0.877838 -1.30888 0
M  V30 1717 C 169.435 -0.296607 -2.27273 0
M  V30 1718 C 170.448 0.544799 -1.53414 0
M  V30 1719 O 171.637 0.365511 -1.74718 0
M  V30 1720 C 168.737 0.597481 -3.33592 0
M  V30 1721 C 167.91 -0.213251 -4.3688 0
M  V30 1722 C 166.969 0.610208 -5.2265 0
M  V30 1723 O 165.995 0.035441 -5.69189 0
M  V30 1724 N 167.197 1.92071 -5.47804 0
M  V30 1725 H 169.962 -1.12492 -2.77787 0
M  V30 1726 H 167.523 -0.740105 -1.43993 0
M  V30 1727 H 169.515 1.15425 -3.87891 0
M  V30 1728 H 168.085 1.32647 -2.83061 0
M  V30 1729 H 167.305 -0.951466 -3.82545 0
M  V30 1730 H 168.593 -0.769262 -5.02951 0
M  V30 1731 H 167.991 2.4107 -5.11763 0
M  V30 1732 H 166.548 2.42508 -6.05007 0
M  V30 1733 N 169.982 1.44106 -0.638065 0
M  V30 1734 C 171.23 2.01579 -0.145043 0
M  V30 1735 C 171.551 1.50496 1.24 0
M  V30 1736 O 170.821 0.711374 1.82527 0
M  V30 1737 H 169.401 0.745282 -0.05063 0
M  V30 1738 H 172.063 1.76516 -0.826327 0
M  V30 1739 H 171.159 3.11877 -0.118039 0
M  V30 1740 N 171.46 0.379036 1.52974 0
M  V30 1741 C 172.69 -0.20649 2.05566 0
M  V30 1742 C 173.098 -1.41906 1.25137 0
M  V30 1743 O 172.441 -1.81421 0.288464 0
M  V30 1744 C 172.503 -0.651086 3.53555 0
M  V30 1745 C 172.167 0.446626 4.54812 0
M  V30 1746 C 173.164 1.30079 5.03364 0
M  V30 1747 C 170.849 0.610719 4.98573 0
M  V30 1748 C 172.843 2.30426 5.94292 0
M  V30 1749 C 170.53 1.61754 5.89304 0
M  V30 1750 C 171.528 2.46274 6.37054 0
M  V30 1751 O 171.216 3.45237 7.25994 0
M  V30 1752 H 170.948 -0.0372381 0.674974 0
M  V30 1753 H 173.502 0.539718 1.98182 0
M  V30 1754 H 171.732 -1.44911 3.58522 0
M  V30 1755 H 173.421 -1.16112 3.88938 0
M  V30 1756 H 174.187 1.18527 4.70294 0
M  V30 1757 H 170.066 -0.0374044 4.60985 0
M  V30 1758 H 173.61 2.96432 6.31485 0
M  V30 1759 H 169.507 1.73348 6.21788 0
M  V30 1760 H 170.275 3.41124 7.44027 0
M  V30 1761 N 172.938 -1.57226 0.108567 0
M  V30 1762 C 173.868 -2.17778 -0.84232 0
M  V30 1763 C 174.849 -1.11487 -1.2847 0
M  V30 1764 O 176.034 -1.39681 -1.34918 0
M  V30 1765 C 173.164 -2.76888 -2.09644 0
M  V30 1766 C 172.118 -3.88669 -1.79221 0
M  V30 1767 C 171.444 -4.34541 -3.11574 0
M  V30 1768 C 172.744 -5.11251 -1.06864 0
M  V30 1769 H 174.438 -2.97489 -0.337774 0
M  V30 1770 H 171.984 -1.43097 -0.161025 0
M  V30 1771 H 173.937 -3.17904 -2.76614 0
M  V30 1772 H 172.661 -1.94451 -2.62405 0
M  V30 1773 H 171.32 -3.48213 -1.14644 0
M  V30 1774 H 170.968 -3.48977 -3.62249 0
M  V30 1775 H 170.668 -5.09914 -2.91996 0
M  V30 1776 H 172.192 -4.782 -3.7968 0
M  V30 1777 H 173.606 -5.49352 -1.63968 0
M  V30 1778 H 172.003 -5.9214 -0.974178 0
M  V30 1779 H 173.073 -4.8487 -0.0536168 0
M  V30 1780 N 174.416 0.165178 -1.56732 0
M  V30 1781 C 175.665 0.879143 -1.81532 0
M  V30 1782 C 175.978 1.83144 -0.686842 0
M  V30 1783 O 177.184 2.58823 -0.819944 0
M  V30 1784 C 175.64 1.61388 -3.21686 0
M  V30 1785 C 175.248 0.704904 -4.4242 0
M  V30 1786 C 176.992 2.3157 -3.55774 0
M  V30 1787 C 174.899 1.44022 -5.73595 0
M  V30 1788 H 173.829 0.332033 -0.676957 0
M  V30 1789 H 176.48 0.132008 -1.83025 0
M  V30 1790 H 174.862 2.40599 -3.14529 0
M  V30 1791 H 176.036 -0.0506815 -4.60772 0
M  V30 1792 H 174.351 0.112419 -4.16248 0
M  V30 1793 H 176.948 2.8719 -4.51028 0
M  V30 1794 H 177.291 3.07201 -2.8095 0
M  V30 1795 H 177.824 1.59297 -3.64513 0
M  V30 1796 H 174.563 0.72612 -6.51466 0
M  V30 1797 H 174.083 2.16898 -5.5921 0
M  V30 1798 H 175.762 1.98606 -6.15764 0
M  V30 1799 N 175.894 1.51508 0.433938 0
M  V30 1800 C 177.171 1.54888 1.19453 0
M  V30 1801 C 177.551 0.315154 2.08734 0
M  V30 1802 O 176.899 -0.699558 2.17528 0
M  V30 1803 C 177.109 2.86467 1.99342 0
M  V30 1804 C 178.457 3.38545 2.56267 0
M  V30 1805 O 179.481 2.88041 2.0955 0
M  V30 1806 O 178.34 4.26675 3.41483 0
M  V30 1807 H 175.434 0.622863 0.544032 0
M  V30 1808 H 177.98 1.63823 0.442732 0
M  V30 1809 H 176.752 3.67718 1.33788 0
M  V30 1810 H 176.375 2.8071 2.8158 0
M  V30 1811 N 177.372 -0.689602 1.41712 0
M  V30 1812 C 178.319 -1.80345 1.44029 0
M  V30 1813 C 179.289 -1.63478 0.293948 0
M  V30 1814 O 180.474 -1.84244 0.495869 0
M  V30 1815 C 177.614 -3.18272 1.33405 0
M  V30 1816 C 176.727 -3.46529 2.57956 0
M  V30 1817 C 175.862 -4.74103 2.39582 0
M  V30 1818 C 174.901 -4.95347 3.5958 0
M  V30 1819 N 174.038 -6.14151 3.40239 0
M  V30 1820 H 178.878 -1.77698 2.39222 0
M  V30 1821 H 176.415 -0.867688 1.18784 0
M  V30 1822 H 178.373 -3.97956 1.25246 0
M  V30 1823 H 177.003 -3.2008 0.418164 0
M  V30 1824 H 176.055 -2.61207 2.76542 0
M  V30 1825 H 177.367 -3.58126 3.47199 0
M  V30 1826 H 176.521 -5.61853 2.28924 0
M  V30 1827 H 175.26 -4.64763 1.47805 0
M  V30 1828 H 174.265 -4.06044 3.70686 0
M  V30 1829 H 175.49 -5.06542 4.52318 0
M  V30 1830 H 173.436 -6.06013 2.51167 0
M  V30 1831 H 173.353 -6.26543 4.23061 0
M  V30 1832 H 174.621 -7.04619 3.33365 0
M  V30 1833 N 178.85 -1.27639 -0.924453 0
M  V30 1834 C 179.797 -1.10644 -2.0255 0
M  V30 1835 C 180.767 -0.00658438 -1.66099 0
M  V30 1836 O 181.952 -0.16952 -1.90045 0
M  V30 1837 C 179.092 -0.76309 -3.36557 0
M  V30 1838 C 178.205 -1.94091 -3.85944 0
M  V30 1839 C 177.34 -1.53914 -5.08413 0
M  V30 1840 C 176.379 -2.68425 -5.50104 0
M  V30 1841 N 175.516 -2.28815 -6.63768 0
M  V30 1842 H 180.356 -2.04858 -2.16419 0
M  V30 1843 H 177.893 -1.01974 -1.06017 0
M  V30 1844 H 179.851 -0.544822 -4.13627 0
M  V30 1845 H 178.481 0.142102 -3.22487 0
M  V30 1846 H 177.533 -2.27162 -3.05125 0
M  V30 1847 H 178.845 -2.7998 -4.12811 0
M  V30 1848 H 177.999 -1.28231 -5.92994 0
M  V30 1849 H 176.738 -0.651391 -4.8333 0
M  V30 1850 H 175.743 -2.94819 -4.64071 0
M  V30 1851 H 176.968 -3.57826 -5.7718 0
M  V30 1852 H 174.914 -1.42495 -6.40337 0
M  V30 1853 H 174.831 -3.08242 -6.90306 0
M  V30 1854 H 176.099 -2.06387 -7.51681 0
M  V30 1855 N 180.328 1.1314 -1.09713 0
M  V30 1856 C 181.556 1.88321 -0.856898 0
M  V30 1857 C 181.971 1.79276 0.592073 0
M  V30 1858 O 181.328 1.16142 1.40774 0
M  V30 1859 C 181.379 3.37812 -1.28706 0
M  V30 1860 O 181.1 3.46627 -2.67921 0
M  V30 1861 C 182.601 4.29952 -1.07964 0
M  V30 1862 H 179.821 0.596094 -0.308079 0
M  V30 1863 H 182.365 1.43205 -1.45988 0
M  V30 1864 H 180.52 3.805 -0.727912 0
M  V30 1865 H 180.934 4.39579 -2.8613 0
M  V30 1866 H 182.408 5.33159 -1.42986 0
M  V30 1867 H 182.885 4.39196 -0.0176577 0
M  V30 1868 H 183.491 3.93036 -1.62489 0
M  V30 1869 N 181.806 0.884767 1.30421 0
M  V30 1870 C 182.769 0.356277 2.26414 0
M  V30 1871 C 183.769 -0.501124 1.52792 0
M  V30 1872 O 184.959 -0.30831 1.7145 0
M  V30 1873 C 182.091 -0.492316 3.37326 0
M  V30 1874 H 183.284 1.20389 2.74675 0
M  V30 1875 H 180.837 0.661607 1.41607 0
M  V30 1876 H 181.572 -1.36052 2.94381 0
M  V30 1877 H 181.357 0.121832 3.91911 0
M  V30 1878 H 182.847 -0.853871 4.08777 0
M  V30 1879 N 183.284 -1.43765 0.645699 0
M  V30 1880 C 184.561 -1.9541 0.0862963 0
M  V30 1881 C 184.941 -1.58725 -1.39175 0
M  V30 1882 O 184.289 -0.868581 -2.11348 0
M  V30 1883 C 184.499 -3.47488 0.324565 0
M  V30 1884 C 185.847 -4.24001 0.225497 0
M  V30 1885 O 186.871 -3.55274 0.256715 0
M  V30 1886 O 185.73 -5.46313 0.142801 0
M  V30 1887 H 182.824 -0.826882 -0.0139483 0
M  V30 1888 H 185.37 -1.53743 0.718415 0
M  V30 1889 H 184.142 -3.67289 1.3496 0
M  V30 1890 H 183.765 -3.96135 -0.340987 0
M  V30 1891 N 184.763 -0.387143 -1.52771 0
M  V30 1892 C 185.695 0.484089 -2.2403 0
M  V30 1893 C 186.708 1.02849 -1.26198 0
M  V30 1894 O 187.897 0.931186 -1.52286 0
M  V30 1895 C 184.997 1.68337 -2.94136 0
M  V30 1896 C 184.17 1.26672 -4.18656 0
M  V30 1897 C 183.229 2.33045 -4.7178 0
M  V30 1898 O 182.255 1.94541 -5.34923 0
M  V30 1899 N 183.457 3.64929 -4.5145 0
M  V30 1900 H 186.222 -0.126404 -2.99433 0
M  V30 1901 H 183.783 -0.213392 -1.60488 0
M  V30 1902 H 185.775 2.39019 -3.26577 0
M  V30 1903 H 184.345 2.20025 -2.22053 0
M  V30 1904 H 183.565 0.388878 -3.92277 0
M  V30 1905 H 184.853 0.964964 -4.99566 0
M  V30 1906 H 184.251 3.98974 -4.01044 0
M  V30 1907 H 182.808 4.31651 -4.88386 0
M  V30 1908 N 186.241 1.57166 -0.116904 0
M  V30 1909 C 187.471 1.99184 0.548586 0
M  V30 1910 C 187.879 0.995436 1.60897 0
M  V30 1911 O 187.222 -0.0201293 1.83689 0
M  V30 1912 C 187.284 3.37611 1.23526 0
M  V30 1913 C 186.948 4.55857 0.323077 0
M  V30 1914 C 187.945 5.18056 -0.437476 0
M  V30 1915 C 185.63 5.01751 0.234761 0
M  V30 1916 C 187.624 6.24536 -1.2741 0
M  V30 1917 C 185.311 6.08093 -0.605496 0
M  V30 1918 C 186.309 6.69352 -1.35856 0
M  V30 1919 O 185.997 7.7364 -2.18487 0
M  V30 1920 H 185.729 0.659148 0.149999 0
M  V30 1921 H 188.283 2.0443 -0.199428 0
M  V30 1922 H 186.513 3.29113 2.0303 0
M  V30 1923 H 188.202 3.63932 1.79745 0
M  V30 1924 H 188.968 4.83516 -0.379105 0
M  V30 1925 H 184.847 4.53817 0.810601 0
M  V30 1926 H 188.391 6.72281 -1.86237 0
M  V30 1927 H 184.288 6.42063 -0.665268 0
M  V30 1928 H 185.056 7.90727 -2.11406 0
M  V30 1929 N 187.719 -0.156864 1.56817 0
M  V30 1930 C 188.666 -1.19394 1.97519 0
M  V30 1931 C 189.636 -1.4322 0.841265 0
M  V30 1932 O 190.821 -1.55719 1.10255 0
M  V30 1933 C 187.961 -2.52483 2.35258 0
M  V30 1934 C 187.074 -2.35914 3.61896 0
M  V30 1935 C 186.209 -3.61969 3.88782 0
M  V30 1936 C 185.248 -3.40395 5.08722 0
M  V30 1937 N 184.385 -4.58556 5.31668 0
M  V30 1938 H 189.225 -0.839845 2.85921 0
M  V30 1939 H 186.762 -0.403264 1.41464 0
M  V30 1940 H 188.72 -3.30071 2.55165 0
M  V30 1941 H 187.35 -2.85859 1.49949 0
M  V30 1942 H 186.402 -1.49429 3.49821 0
M  V30 1943 H 187.714 -2.15926 4.49641 0
M  V30 1944 H 186.868 -4.47989 4.09135 0
M  V30 1945 H 185.607 -3.84951 2.9944 0
M  V30 1946 H 184.612 -2.52763 4.88253 0
M  V30 1947 H 185.837 -3.18822 5.99608 0
M  V30 1948 H 183.783 -4.81729 4.45279 0
M  V30 1949 H 183.7 -4.41535 6.13664 0
M  V30 1950 H 184.968 -5.45817 5.5651 0
M  V30 1951 N 189.197 -1.51736 -0.425897 0
M  V30 1952 C 190.446 -1.64201 -1.17136 0
M  V30 1953 C 190.759 -0.369705 -1.92074 0
M  V30 1954 O 191.965 -0.373898 -2.68913 0
M  V30 1955 C 190.421 -2.90035 -2.13091 0
M  V30 1956 C 190.029 -4.24312 -1.43747 0
M  V30 1957 C 191.773 -3.1186 -2.87999 0
M  V30 1958 C 189.68 -5.41285 -2.38253 0
M  V30 1959 H 188.61 -0.611624 -0.440944 0
M  V30 1960 H 191.261 -1.78212 -0.437328 0
M  V30 1961 H 189.643 -2.69684 -2.89977 0
M  V30 1962 H 190.817 -4.55086 -0.723408 0
M  V30 1963 H 189.132 -4.08456 -0.809465 0
M  V30 1964 H 191.729 -3.96427 -3.58817 0
M  V30 1965 H 192.072 -2.25403 -3.49999 0
M  V30 1966 H 192.605 -3.32605 -2.18217 0
M  V30 1967 H 189.344 -6.30037 -1.80925 0
M  V30 1968 H 188.864 -5.14872 -3.0768 0
M  V30 1969 H 190.543 -5.73694 -2.99139 0
M  V30 1970 N 190.675 0.682077 -1.42076 0
M  V30 1971 C 191.903 1.47057 -1.4554 0
M  V30 1972 C 192.318 1.8869 -0.0645779 0
M  V30 1973 O 191.675 1.57666 0.919115 0
M  V30 1974 C 191.726 2.72442 -2.37609 0
M  V30 1975 O 191.447 2.32559 -3.71279 0
M  V30 1976 C 192.948 3.66069 -2.50017 0
M  V30 1977 H 190.168 0.452737 -0.495248 0
M  V30 1978 H 192.712 0.838695 -1.8651 0
M  V30 1979 H 190.867 3.31835 -1.9991 0
M  V30 1980 H 191.281 3.13475 -4.20516 0
M  V30 1981 H 192.755 4.50792 -3.18576 0
M  V30 1982 H 193.232 4.11476 -1.53572 0
M  V30 1983 H 193.838 3.12572 -2.88407 0
M  V30 1984 N 192.153 1.28127 0.917671 0
M  V30 1985 C 193.101 1.11569 2.04096 0
M  V30 1986 C 194.095 0.0360242 1.69362 0
M  V30 1987 O 195.301 0.194501 1.78946 0
M  V30 1988 H 191.676 0.344097 0.668656 0
M  V30 1989 H 193.647 2.06711 2.15205 0
M  V30 1990 C 192.396 0.790197 3.38602 0
M  V30 1991 H 191.719 1.61293 3.6582 0
M  V30 1992 H 193.159 0.714271 4.1794 0
M  V30 1993 C 191.618 -0.505897 3.3308 0
M  V30 1994 O 192.148 -1.53736 3.71117 0
M  V30 1995 N 190.354 -0.505193 2.86175 0
M  V30 1996 H 189.901 0.334621 2.55417 0
M  V30 1997 H 189.859 -1.37243 2.82863 0
M  V30 1998 N 193.631 -1.12557 1.10312 0
M  V30 1999 C 194.88 -1.83395 0.839588 0
M  V30 2000 C 195.193 -1.84939 -0.636929 0
M  V30 2001 O 196.399 -2.51761 -1.01631 0
M  V30 2002 C 194.855 -3.29303 1.45215 0
M  V30 2003 C 194.463 -3.36122 2.96186 0
M  V30 2004 C 196.207 -4.05121 1.26796 0
M  V30 2005 C 194.114 -4.76357 3.50483 0
M  V30 2006 H 193.044 -0.687133 0.310425 0
M  V30 2007 H 195.695 -1.26746 1.32694 0
M  V30 2008 H 194.077 -3.85812 0.892469 0
M  V30 2009 H 195.251 -2.89559 3.58458 0
M  V30 2010 H 193.566 -2.73776 3.13745 0
M  V30 2011 H 196.163 -5.08668 1.64806 0
M  V30 2012 H 196.506 -4.15773 0.209409 0
M  V30 2013 H 197.039 -3.54967 1.79563 0
M  V30 2014 H 193.778 -4.70899 4.55998 0
M  V30 2015 H 193.298 -5.23377 2.92978 0
M  V30 2016 H 194.977 -5.45294 3.48228 0
M  V30 2017 N 195.109 -0.891671 -1.2995 0
M  V30 2018 C 196.072 -0.36828 -2.26222 0
M  V30 2019 C 197.072 0.493014 -1.53056 0
M  V30 2020 O 198.262 0.299213 -1.71611 0
M  V30 2021 C 195.394 0.47442 -3.37583 0
M  V30 2022 H 196.587 -1.21844 -2.74033 0
M  V30 2023 H 194.14 -0.669107 -1.41254 0
M  V30 2024 H 194.875 1.34489 -2.95099 0
M  V30 2025 H 194.66 -0.142615 -3.91841 0
M  V30 2026 H 196.15 0.83218 -4.09224 0
M  V30 2027 N 196.587 1.43421 -0.653314 0
M  V30 2028 C 197.519 2.29071 0.0769134 0
M  V30 2029 C 198.532 1.42513 0.787017 0
M  V30 2030 O 199.721 1.66449 0.644757 0
M  V30 2031 C 196.821 3.19436 1.13199 0
M  V30 2032 C 195.994 4.34533 0.500006 0
M  V30 2033 C 195.053 5.05771 1.45198 0
M  V30 2034 O 194.079 5.61037 0.960538 0
M  V30 2035 N 195.281 5.0928 2.78594 0
M  V30 2036 H 198.046 2.92382 -0.658235 0
M  V30 2037 H 195.607 1.54112 -0.496104 0
M  V30 2038 H 197.599 3.63958 1.76964 0
M  V30 2039 H 196.169 2.57724 1.7691 0
M  V30 2040 H 195.389 3.92925 -0.316738 0
M  V30 2041 H 196.677 5.08766 0.0588345 0
M  V30 2042 H 196.075 4.65751 3.2108 0
M  V30 2043 H 194.632 5.57519 3.37662 0
M  V30 2044 N 198.065 0.39524 1.52563 0
M  V30 2045 C 198.995 -0.428384 2.29537 0
M  V30 2046 C 199.976 -1.05831 1.33169 0
M  V30 2047 O 201.161 -1.06995 1.62067 0
M  V30 2048 C 198.291 -1.55274 3.10656 0
M  V30 2049 C 197.245 -1.04855 4.14957 0
M  V30 2050 C 196.571 -2.26543 4.84337 0
M  V30 2051 C 197.871 -0.112324 5.22179 0
M  V30 2052 H 199.565 0.213867 2.98635 0
M  V30 2053 H 197.111 0.104298 1.43622 0
M  V30 2054 H 199.064 -2.1358 3.63265 0
M  V30 2055 H 197.788 -2.22266 2.39302 0
M  V30 2056 H 196.447 -0.487985 3.63338 0
M  V30 2057 H 196.095 -2.92059 4.09525 0
M  V30 2058 H 195.795 -1.93466 5.54837 0
M  V30 2059 H 197.319 -2.85481 5.39753 0
M  V30 2060 H 198.733 -0.603752 5.70112 0
M  V30 2061 H 197.13 0.128968 5.99961 0
M  V30 2062 H 198.2 0.837052 4.77621 0
M  V30 2063 N 199.544 -1.57102 0.125237 0
M  V30 2064 C 200.491 -2.15641 -0.822655 0
M  V30 2065 C 201.461 -1.08313 -1.25927 0
M  V30 2066 O 202.646 -1.36251 -1.33567 0
M  V30 2067 C 199.786 -2.76504 -2.06494 0
M  V30 2068 C 198.899 -3.98158 -1.67612 0
M  V30 2069 C 198.034 -4.47088 -2.86854 0
M  V30 2070 C 197.073 -5.6126 -2.44242 0
M  V30 2071 N 196.21 -6.04905 -3.56419 0
M  V30 2072 H 201.05 -2.96313 -0.316625 0
M  V30 2073 H 198.587 -1.46388 -0.144588 0
M  V30 2074 H 200.545 -3.09925 -2.79289 0
M  V30 2075 H 199.175 -1.98512 -2.54545 0
M  V30 2076 H 198.227 -3.70858 -0.846661 0
M  V30 2077 H 199.539 -4.80934 -1.32301 0
M  V30 2078 H 198.693 -4.82451 -3.67867 0
M  V30 2079 H 197.432 -3.63275 -3.25396 0
M  V30 2080 H 196.437 -5.25495 -1.61663 0
M  V30 2081 H 197.662 -6.46843 -2.0681 0
M  V30 2082 H 195.608 -5.24032 -3.94623 0
M  V30 2083 H 195.525 -6.82552 -3.25051 0
M  V30 2084 H 196.793 -6.44907 -4.37853 0
M  V30 2085 N 201.022 0.148545 -1.56898 0
M  V30 2086 C 202.299 0.890019 -1.74178 0
M  V30 2087 C 202.679 1.99407 -0.692839 0
M  V30 2088 O 202.027 2.26671 0.288505 0
M  V30 2089 C 202.237 1.43389 -3.18183 0
M  V30 2090 C 203.585 1.89791 -3.79822 0
M  V30 2091 O 204.609 1.53134 -3.21603 0
M  V30 2092 O 203.468 2.57387 -4.82093 0
M  V30 2093 H 200.562 0.420496 -0.712118 0
M  V30 2094 H 203.108 0.134591 -1.69165 0
M  V30 2095 H 201.88 0.640383 -3.86024 0
M  V30 2096 H 201.503 2.25287 -3.27615 0
M  V30 2097 N 202.5 1.5196 0.417844 0
M  V30 2098 C 203.911 1.57851 0.997 0
M  V30 2099 C 204.262 0.413714 1.91789 0
M  V30 2100 O 203.387 -0.467057 2.113 0
M  V30 2101 C 203.982 2.86085 1.81496 0
M  V30 2102 C 202.541 2.94483 2.34428 0
M  V30 2103 C 201.688 2.52707 1.14169 0
M  V30 2104 H 204.639 1.57455 0.198392 0
M  V30 2105 H 204.66 2.70947 2.67148 0
M  V30 2106 H 204.172 3.70842 1.14446 0
M  V30 2107 H 202.273 2.142 3.04875 0
M  V30 2108 H 202.386 3.98546 2.65891 0
M  V30 2109 H 200.75 2.06353 1.49301 0
M  V30 2110 H 201.533 3.39828 0.486999 0
M  V30 2111 N 203.978 -0.674533 1.42435 0
M  V30 2112 C 204.925 -1.78807 1.45934 0
M  V30 2113 C 205.895 -1.63157 0.311271 0
M  V30 2114 O 207.08 -1.83707 0.515383 0
M  V30 2115 C 204.22 -3.16839 1.36773 0
M  V30 2116 C 203.333 -3.43774 2.61617 0
M  V30 2117 C 202.468 -4.71536 2.44597 0
M  V30 2118 C 201.507 -4.91505 3.64814 0
M  V30 2119 N 200.644 -6.10508 3.46734 0
M  V30 2120 H 205.484 -1.75151 2.41093 0
M  V30 2121 H 203.021 -0.85504 1.19697 0
M  V30 2122 H 204.979 -3.96606 1.29459 0
M  V30 2123 H 203.609 -3.19619 0.452089 0
M  V30 2124 H 202.661 -2.58259 2.79297 0
M  V30 2125 H 203.973 -3.54423 3.50978 0
M  V30 2126 H 203.127 -5.59393 2.3487 0
M  V30 2127 H 201.866 -4.6317 1.52726 0
M  V30 2128 H 200.871 -4.0209 3.74972 0
M  V30 2129 H 202.096 -5.01716 4.57665 0
M  V30 2130 H 200.042 -6.03315 2.5758 0
M  V30 2131 H 199.959 -6.2202 4.29682 0
M  V30 2132 H 201.227 -7.01044 3.40819 0
M  V30 2133 N 205.456 -1.28612 -0.910864 0
M  V30 2134 C 206.705 -1.15311 -1.65488 0
M  V30 2135 C 207.018 0.296999 -1.93332 0
M  V30 2136 O 208.224 0.551168 -2.65847 0
M  V30 2137 C 206.68 -2.01599 -2.98137 0
M  V30 2138 C 206.288 -3.51367 -2.7793 0
M  V30 2139 C 208.032 -1.96993 -3.76024 0
M  V30 2140 C 205.939 -4.29797 -4.06237 0
M  V30 2141 H 204.869 -0.42796 -0.620779 0
M  V30 2142 H 207.52 -1.53166 -1.01057 0
M  V30 2143 H 205.902 -1.56603 -3.63719 0
M  V30 2144 H 207.076 -4.0434 -2.21011 0
M  V30 2145 H 205.391 -3.57529 -2.13452 0
M  V30 2146 H 207.988 -2.52856 -4.71135 0
M  V30 2147 H 208.331 -0.94733 -4.05378 0
M  V30 2148 H 208.864 -2.39973 -3.17266 0
M  V30 2149 H 205.603 -5.32648 -3.82055 0
M  V30 2150 H 205.123 -3.81596 -4.62757 0
M  V30 2151 H 206.802 -4.39869 -4.74473 0
M  V30 2152 N 206.934 1.1197 -1.10907 0
M  V30 2153 C 207.897 2.16031 -0.765707 0
M  V30 2154 C 208.897 1.59393 0.212235 0
M  V30 2155 O 210.087 1.74196 -0.0115441 0
M  V30 2156 C 207.219 3.40632 -0.135053 0
M  V30 2157 H 208.412 2.47919 -1.68748 0
M  V30 2158 H 205.965 1.27061 -0.910226 0
M  V30 2159 H 206.7 3.14348 0.797218 0
M  V30 2160 H 206.485 3.8302 -0.838937 0
M  V30 2161 H 207.975 4.17505 0.0892469 0
M  V30 2162 N 208.412 0.89855 1.29475 0
M  V30 2163 C 209.359 0.373819 2.27753 0
M  V30 2164 C 210.329 -0.543444 1.56958 0
M  V30 2165 O 211.514 -0.468934 1.84948 0
M  V30 2166 C 208.654 -0.393648 3.42848 0
M  V30 2167 C 207.767 0.554379 4.28428 0
M  V30 2168 C 206.902 -0.230026 5.30702 0
M  V30 2169 C 205.941 0.712599 6.07938 0
M  V30 2170 N 205.078 -0.0373283 7.0209 0
M  V30 2171 H 209.918 1.21699 2.72017 0
M  V30 2172 H 207.455 0.611456 1.33789 0
M  V30 2173 H 209.413 -0.85466 4.08352 0
M  V30 2174 H 208.043 -1.20128 2.99615 0
M  V30 2175 H 207.095 1.13391 3.63107 0
M  V30 2176 H 208.407 1.27597 4.82204 0
M  V30 2177 H 207.561 -0.752288 6.02018 0
M  V30 2178 H 206.3 -0.984758 4.77654 0
M  V30 2179 H 205.305 1.24637 5.35486 0
M  V30 2180 H 206.53 1.46664 6.63074 0
M  V30 2181 H 204.476 -0.774348 6.51414 0
M  V30 2182 H 204.393 0.624374 7.53417 0
M  V30 2183 H 205.661 -0.539891 7.77628 0
M  V30 2184 N 209.89 -1.43072 0.660911 0
M  V30 2185 C 210.82 -2.33497 -0.0122829 0
M  V30 2186 C 211.801 -1.49903 -0.803925 0
M  V30 2187 O 212.986 -1.78546 -0.763864 0
M  V30 2188 C 210.116 -3.33363 -0.973994 0
M  V30 2189 C 209.07 -4.27003 -0.291928 0
M  V30 2190 C 208.396 -5.16967 -1.36562 0
M  V30 2191 C 209.696 -5.15816 0.820462 0
M  V30 2192 H 211.39 -2.90038 0.742873 0
M  V30 2193 H 208.936 -1.39461 0.358688 0
M  V30 2194 H 210.889 -3.95524 -1.45392 0
M  V30 2195 H 209.613 -2.75095 -1.7604 0
M  V30 2196 H 208.272 -3.66217 0.167623 0
M  V30 2197 H 207.92 -4.55034 -2.14366 0
M  V30 2198 H 207.62 -5.80441 -0.914454 0
M  V30 2199 H 209.144 -5.82003 -1.84675 0
M  V30 2200 H 210.558 -5.71742 0.422366 0
M  V30 2201 H 208.955 -5.8805 1.19656 0
M  V30 2202 H 210.025 -4.55045 1.67518 0
M  V30 2203 N 211.368 -0.403325 -1.52352 0
M  V30 2204 C 212.615 0.174347 -2.01748 0
M  V30 2205 C 212.943 1.45636 -1.2892 0
M  V30 2206 O 212.198 1.9193 -0.382258 0
M  V30 2207 C 212.497 0.474665 -3.54234 0
M  V30 2208 C 212.163 -0.717458 -4.45155 0
M  V30 2209 C 210.825 -1.04447 -4.69728 0
M  V30 2210 C 213.177 -1.51432 -4.98716 0
M  V30 2211 C 210.505 -2.16963 -5.45109 0
M  V30 2212 C 212.857 -2.6302 -5.75329 0
M  V30 2213 C 211.521 -2.96213 -5.98175 0
M  V30 2214 H 210.791 0.0637981 -0.738248 0
M  V30 2215 H 213.438 -0.543553 -1.83624 0
M  V30 2216 H 211.743 1.27406 -3.70506 0
M  V30 2217 H 213.44 0.934496 -3.89959 0
M  V30 2218 H 210.03 -0.452596 -4.26204 0
M  V30 2219 H 214.214 -1.27491 -4.79645 0
M  V30 2220 H 209.47 -2.43034 -5.61021 0
M  V30 2221 H 213.644 -3.25158 -6.15829 0
M  V30 2222 H 211.271 -3.83516 -6.56368 0
M  V30 2223 N 212.846 1.57033 -0.133567 0
M  V30 2224 C 214.123 1.87256 0.56522 0
M  V30 2225 C 214.503 1.03726 1.83859 0
M  V30 2226 O 213.851 0.120247 2.28183 0
M  V30 2227 C 214.061 3.3865 0.843636 0
M  V30 2228 C 215.409 4.07574 1.19032 0
M  V30 2229 O 216.433 3.43752 0.933429 0
M  V30 2230 O 215.292 5.20259 1.67312 0
M  V30 2231 H 212.386 0.775678 0.286796 0
M  V30 2232 H 214.932 1.68855 -0.169168 0
M  V30 2233 H 213.704 3.91257 -0.0581149 0
M  V30 2234 H 213.327 3.62532 1.63268 0
M  V30 2235 N 214.325 -0.140222 1.56975 0
M  V30 2236 C 215.553 -0.866437 1.87884 0
M  V30 2237 C 215.968 -1.74428 0.722517 0
M  V30 2238 O 215.325 -1.79891 -0.30749 0
M  V30 2239 C 215.376 -1.71753 3.18093 0
M  V30 2240 O 215.097 -0.875056 4.29272 0
M  V30 2241 C 216.598 -2.55074 3.62563 0
M  V30 2242 H 213.818 -0.25019 0.622612 0
M  V30 2243 H 216.362 -0.130977 2.0408 0
M  V30 2244 H 214.517 -2.40598 3.03631 0
M  V30 2245 H 214.931 -1.46002 5.03769 0
M  V30 2246 H 216.405 -3.10356 4.5649 0
M  V30 2247 H 216.882 -3.31434 2.88181 0
M  V30 2248 H 217.488 -1.91509 3.79743 0
M  V30 2249 N 215.803 -1.52179 -0.40978 0
M  V30 2250 C 216.751 -1.76086 -1.51975 0
M  V30 2251 C 217.745 -0.627964 -1.57331 0
M  V30 2252 O 218.951 -0.809993 -1.60745 0
M  V30 2253 H 215.326 -0.556829 -0.505416 0
M  V30 2254 H 217.297 -2.69077 -1.28996 0
M  V30 2255 C 216.046 -1.92799 -2.8935 0
M  V30 2256 H 215.369 -2.79392 -2.85972 0
M  V30 2257 H 216.809 -2.13527 -3.66309 0
M  V30 2258 C 215.268 -0.694923 -3.29655 0
M  V30 2259 O 215.798 0.13751 -4.01465 0
M  V30 2260 N 214.004 -0.53101 -2.85707 0
M  V30 2261 H 213.551 -1.20952 -2.27439 0
M  V30 2262 H 213.509 0.292718 -3.13034 0
M  V30 2263 N 217.281 0.66697 -1.42791 0
M  V30 2264 C 218.529 1.42417 -1.43394 0
M  V30 2265 C 218.85 1.94925 -0.0542373 0
M  V30 2266 O 218.12 1.73564 0.908415 0
M  V30 2267 H 216.7 0.528515 -0.527902 0
M  V30 2268 H 219.362 0.787562 -1.78279 0
M  V30 2269 H 218.458 2.27333 -2.13837 0
M  V30 2270 N 218.759 1.29093 0.90403 0
M  V30 2271 C 220.036 1.075 1.63411 0
M  V30 2272 C 220.416 -0.382346 2.07609 0
M  V30 2273 O 219.764 -1.37031 1.82851 0
M  V30 2274 C 219.974 2.05858 2.81822 0
M  V30 2275 C 221.322 2.36539 3.52611 0
M  V30 2276 O 222.346 2.04019 2.91984 0
M  V30 2277 O 221.205 2.92085 4.61897 0
M  V30 2278 H 218.299 0.411547 0.717327 0
M  V30 2279 H 220.845 1.40449 0.952479 0
M  V30 2280 H 219.617 3.04037 2.46327 0
M  V30 2281 H 219.24 1.73613 3.57693 0
M  V30 2282 N 220.237 -1.11381 1.11499 0
M  V30 2283 C 221.485 -1.8277 0.862524 0
M  V30 2284 C 221.806 -1.85097 -0.613534 0
M  V30 2285 O 221.076 -1.32198 -1.4457 0
M  V30 2286 H 219.656 -0.676823 0.316101 0
M  V30 2287 H 222.318 -1.34816 1.4075 0
M  V30 2288 H 221.414 -2.86614 1.23527 0
M  V30 2289 N 221.715 -0.905404 -1.28997 0
M  V30 2290 C 222.662 -0.385892 -2.27551 0
M  V30 2291 C 223.632 0.535113 -1.57244 0
M  V30 2292 O 224.817 0.459119 -1.85194 0
M  V30 2293 C 221.957 0.375461 -3.43051 0
M  V30 2294 C 221.07 -0.577092 -4.28128 0
M  V30 2295 C 220.205 0.201879 -5.30816 0
M  V30 2296 C 219.244 -0.744829 -6.07551 0
M  V30 2297 N 218.381 9.42587e-05 -7.021 0
M  V30 2298 H 223.221 -1.23139 -2.71368 0
M  V30 2299 H 220.758 -0.618542 -1.33463 0
M  V30 2300 H 222.716 0.832992 -4.088 0
M  V30 2301 H 221.346 1.18537 -3.00248 0
M  V30 2302 H 220.398 -1.15315 -3.62501 0
M  V30 2303 H 221.71 -1.30152 -4.8152 0
M  V30 2304 H 220.864 0.720351 -6.02408 0
M  V30 2305 H 219.603 0.959413 -4.7817 0
M  V30 2306 H 218.608 -1.27475 -5.34818 0
M  V30 2307 H 219.833 -1.50178 -6.62286 0
M  V30 2308 H 217.779 0.739791 -6.51815 0
M  V30 2309 H 217.696 -0.664321 -7.53076 0
M  V30 2310 H 218.964 0.498644 -7.77903 0
M  V30 2311 N 223.193 1.4272 -0.668489 0
M  V30 2312 C 224.156 2.292 0.00448567 0
M  V30 2313 C 225.156 1.43001 0.735339 0
M  V30 2314 O 226.346 1.64461 0.57429 0
M  V30 2315 C 223.478 3.25375 1.01705 0
M  V30 2316 H 224.671 2.90199 -0.756608 0
M  V30 2317 H 222.224 1.50254 -0.430506 0
M  V30 2318 H 222.959 2.69301 1.80686 0
M  V30 2319 H 222.744 3.88944 0.496463 0
M  V30 2320 H 224.234 3.90245 1.48655 0
M  V30 2321 N 224.671 0.411399 1.52136 0
M  V30 2322 C 225.948 -0.222308 1.94333 0
M  V30 2323 C 226.328 -1.6242 1.34844 0
M  V30 2324 O 225.676 -2.22384 0.525145 0
M  V30 2325 C 225.886 -0.226345 3.48265 0
M  V30 2326 C 227.234 -0.444592 4.22266 0
M  V30 2327 O 228.258 -0.305602 3.54887 0
M  V30 2328 O 227.117 -0.718749 5.41753 0
M  V30 2329 H 224.211 -0.143907 0.814383 0
M  V30 2330 H 226.757 0.467506 1.63133 0
M  V30 2331 H 225.529 0.75475 3.83952 0
M  V30 2332 H 225.152 -0.960163 3.85832 0
M  V30 2333 N 226.149 -1.5696 0.141893 0
M  V30 2334 C 227.079 -2.19516 -0.795936 0
M  V30 2335 C 228.06 -1.14187 -1.26077 0
M  V30 2336 O 229.245 -1.42511 -1.31925 0
M  V30 2337 C 226.375 -2.81272 -2.03723 0
M  V30 2338 C 225.329 -3.92384 -1.70936 0
M  V30 2339 C 224.655 -4.41052 -3.02287 0
M  V30 2340 C 225.955 -5.13403 -0.959954 0
M  V30 2341 H 227.649 -2.98138 -0.274596 0
M  V30 2342 H 225.195 -1.43406 -0.130636 0
M  V30 2343 H 227.148 -3.237 -2.69808 0
M  V30 2344 H 225.872 -1.99973 -2.58221 0
M  V30 2345 H 224.531 -3.50566 -1.07232 0
M  V30 2346 H 224.179 -3.56582 -3.54765 0
M  V30 2347 H 223.879 -5.15993 -2.81114 0
M  V30 2348 H 225.403 -4.86146 -3.69451 0
M  V30 2349 H 226.817 -5.52706 -1.52279 0
M  V30 2350 H 225.214 -5.94073 -0.848357 0
M  V30 2351 H 226.284 -4.84875 0.0492434 0
M  V30 2352 N 227.627 0.131896 -1.57047 0
M  V30 2353 C 228.855 0.856461 -1.88341 0
M  V30 2354 C 229.27 1.74042 -0.731757 0
M  V30 2355 O 228.627 1.80051 0.297945 0
M  V30 2356 C 228.678 1.70064 -3.18999 0
M  V30 2357 O 228.399 0.852278 -4.2973 0
M  V30 2358 C 229.9 2.53148 -3.63911 0
M  V30 2359 H 227.12 0.246885 -0.62393 0
M  V30 2360 H 229.664 0.120152 -2.04147 0
M  V30 2361 H 227.819 2.38984 -3.04902 0
M  V30 2362 H 228.233 1.43329 -5.04537 0
M  V30 2363 H 229.707 3.07931 -4.58129 0
M  V30 2364 H 230.184 3.29901 -2.89935 0
M  V30 2365 H 230.79 1.89492 -3.80753 0
M  V30 2366 N 229.106 1.52395 0.401703 0
M  V30 2367 C 230.354 1.66488 1.14569 0
M  V30 2368 C 230.675 0.400897 1.90835 0
M  V30 2369 O 229.945 -0.584415 1.8698 0
M  V30 2370 H 228.525 0.613672 0.425929 0
M  V30 2371 H 231.187 1.89464 0.457093 0
M  V30 2372 H 230.283 2.50942 1.85566 0
M  V30 2373 N 230.584 -0.659388 1.43143 0
M  V30 2374 C 231.824 -1.43121 1.45931 0
M  V30 2375 C 232.188 -1.91838 0.0789298 0
M  V30 2376 O 233.389 -2.68794 -0.018491 0
M  V30 2377 C 231.66 -2.58534 2.46769 0
M  V30 2378 S 233.219 -3.47154 2.68384 0
M  V30 2379 H 230.037 -0.488624 0.516496 0
M  V30 2380 H 232.639 -0.766128 1.79863 0
M  V30 2381 H 231.343 -2.21007 3.45809 0
M  V30 2382 H 230.874 -3.29898 2.14315 0
M  V30 2383 H 232.889 -4.55051 1.97845 0
M  V30 2384 N 232.062 -1.29571 -0.897171 0
M  V30 2385 C 233.01 -1.14802 -2.02295 0
M  V30 2386 C 234.004 -0.0629637 -1.69283 0
M  V30 2387 O 235.21 -0.222945 -1.78614 0
M  V30 2388 H 231.585 -0.354692 -0.663097 0
M  V30 2389 H 233.556 -2.10108 -2.11889 0
M  V30 2390 C 232.305 -0.843966 -3.37302 0
M  V30 2391 H 231.628 -1.67093 -3.63208 0
M  V30 2392 H 233.068 -0.780672 -4.16751 0
M  V30 2393 C 231.527 0.452843 -3.33843 0
M  V30 2394 O 232.057 1.47813 -3.73516 0
M  V30 2395 N 230.263 0.459601 -2.86943 0
M  V30 2396 H 229.81 -0.375213 -2.54853 0
M  V30 2397 H 229.768 1.32726 -2.85011 0
M  V30 2398 N 233.54 1.10788 -1.12088 0
M  V30 2399 C 234.951 1.64181 -0.88891 0
M  V30 2400 C 235.302 1.87508 0.577498 0
M  V30 2401 O 234.427 1.61434 1.44112 0
M  V30 2402 C 235.022 2.98257 -1.60712 0
M  V30 2403 C 233.581 3.4853 -1.42139 0
M  V30 2404 C 232.728 2.23208 -1.6454 0
M  V30 2405 H 235.679 0.943368 -1.27618 0
M  V30 2406 H 235.7 3.65552 -1.05604 0
M  V30 2407 H 235.212 2.81246 -2.67436 0
M  V30 2408 H 233.313 3.70692 -0.376552 0
M  V30 2409 H 233.426 4.26882 -2.17505 0
M  V30 2410 H 231.79 2.31169 -1.06925 0
M  V30 2411 H 232.573 2.08733 -2.72554 0
M  V30 2412 N 235.018 0.912232 1.28515 0
M  V30 2413 C 236.266 0.543523 1.94654 0
M  V30 2414 C 236.587 -0.9155 1.72173 0
M  V30 2415 O 235.857 -1.64708 1.06058 0
M  V30 2416 H 234.437 0.198017 0.720277 0
M  V30 2417 H 237.099 1.16126 1.56527 0
M  V30 2418 H 236.195 0.736684 3.03281 0
M  V30 2419 N 236.496 -1.42363 0.676048 0
M  V30 2420 C 237.742 -2.02336 0.207809 0
M  V30 2421 C 238.097 -1.52506 -1.17302 0
M  V30 2422 O 237.39 -0.718048 -1.77636 0
M  V30 2423 C 237.584 -3.56929 0.183431 0
M  V30 2424 C 237.413 -4.21762 1.56036 0
M  V30 2425 C 236.183 -4.56881 2.15842 0
M  V30 2426 C 238.381 -4.49267 2.50327 0
M  V30 2427 N 236.363 -5.069 3.46303 0
M  V30 2428 C 237.734 -5.00851 3.65443 0
M  V30 2429 C 239.789 -4.31257 2.48841 0
M  V30 2430 C 238.492 -5.36317 4.79329 0
M  V30 2431 C 240.518 -4.678 3.61824 0
M  V30 2432 C 239.88 -5.19537 4.75668 0
M  V30 2433 H 235.979 -0.772583 0.120993 0
M  V30 2434 H 238.563 -1.73203 0.889306 0
M  V30 2435 H 236.734 -3.85576 -0.467483 0
M  V30 2436 H 238.466 -4.03603 -0.297808 0
M  V30 2437 H 235.221 -4.4268 1.68319 0
M  V30 2438 H 235.645 -5.36338 4.13123 0
M  V30 2439 H 240.287 -3.90511 1.62051 0
M  V30 2440 H 238.005 -5.75995 5.66794 0
M  V30 2441 H 241.591 -4.55541 3.61903 0
M  V30 2442 H 240.471 -5.47287 5.61646 0
M  V30 2443 N 237.974 -0.419461 -1.51915 0
M  V30 2444 C 239.222 0.152637 -2.01523 0
M  V30 2445 C 239.543 1.44762 -1.30649 0
M  V30 2446 O 238.813 1.90997 -0.435535 0
M  V30 2447 H 237.393 0.0593966 -0.744635 0
M  V30 2448 H 240.055 -0.558073 -1.86739 0
M  V30 2449 H 239.151 0.341369 -3.10227 0
M  V30 2450 N 239.452 1.56882 -0.150215 0
M  V30 2451 C 240.692 1.98119 0.502804 0
M  V30 2452 C 241.056 1.03327 1.61826 0
M  V30 2453 O 242.257 1.33621 2.33236 0
M  V30 2454 C 240.528 3.43329 0.992988 0
M  V30 2455 S 242.087 4.0659 1.65015 0
M  V30 2456 H 238.905 0.692189 0.162467 0
M  V30 2457 H 241.507 1.93988 -0.242689 0
M  V30 2458 H 240.211 4.10046 0.170436 0
M  V30 2459 H 239.742 3.5118 1.77303 0
M  V30 2460 H 241.757 3.99906 2.93752 0
M  V30 2461 N 240.93 -0.123565 1.57115 0
M  V30 2462 C 241.84 -1.17074 2.033 0
M  V30 2463 C 242.856 -1.4561 0.952559 0
M  V30 2464 O 244.032 -1.56817 1.26374 0
M  V30 2465 C 241.097 -2.47857 2.42421 0
M  V30 2466 C 240.158 -2.26758 3.64526 0
M  V30 2467 C 239.391 -3.51305 4.01771 0
M  V30 2468 O 239.614 -4.5843 3.39409 0
M  V30 2469 O 238.548 -3.42578 4.94898 0
M  V30 2470 H 242.374 -0.808555 2.92739 0
M  V30 2471 H 239.959 -0.334027 1.45618 0
M  V30 2472 H 241.841 -3.2492 2.68338 0
M  V30 2473 H 240.516 -2.83558 1.5613 0
M  V30 2474 H 239.423 -1.47569 3.43765 0
M  V30 2475 H 240.756 -1.95963 4.51508 0
M  V30 2476 N 242.408 -1.52605 -0.393616 0
M  V30 2477 C 243.656 -1.67093 -1.13685 0
M  V30 2478 C 243.977 -0.411011 -1.90619 0
M  V30 2479 O 243.247 0.574491 -1.87287 0
M  V30 2480 H 241.827 -0.615923 -0.422668 0
M  V30 2481 H 244.489 -1.89704 -0.447039 0
M  V30 2482 H 243.585 -2.51922 -1.84232 0
M  V30 2483 N 243.887 0.651787 -1.4349 0
M  V30 2484 C 244.85 1.74647 -1.48429 0
M  V30 2485 C 245.85 1.56513 -0.368817 0
M  V30 2486 O 247.04 1.62385 -0.630623 0
M  V30 2487 C 244.172 3.13533 -1.33827 0
M  V30 2488 H 245.365 1.71649 -2.4592 0
M  V30 2489 H 242.918 0.863573 -1.30277 0
M  V30 2490 H 243.653 3.22142 -0.37349 0
M  V30 2491 H 243.438 3.28101 -2.14691 0
M  V30 2492 H 244.928 3.93356 -1.40218 0
M  V30 2493 N 245.365 1.30045 0.890287 0
M  V30 2494 C 246.614 1.17929 1.63633 0
M  V30 2495 C 246.927 -0.266204 1.9378 0
M  V30 2496 O 248.133 -0.508804 2.6669 0
M  V30 2497 C 246.589 2.06317 2.94892 0
M  V30 2498 C 246.197 3.55745 2.72305 0
M  V30 2499 C 247.941 2.0295 3.72843 0
M  V30 2500 C 245.848 4.36205 3.99348 0
M  V30 2501 H 244.778 0.437782 0.613892 0
M  V30 2502 H 247.429 1.54754 0.986075 0
M  V30 2503 H 245.811 1.6237 3.61182 0
M  V30 2504 H 246.985 4.07805 2.1455 0
M  V30 2505 H 245.3 3.6088 2.07737 0
M  V30 2506 H 247.897 2.60319 4.67053 0
M  V30 2507 H 248.24 1.0117 4.0382 0
M  V30 2508 H 248.773 2.4499 3.13408 0
M  V30 2509 H 245.512 5.38659 3.73533 0
M  V30 2510 H 245.032 3.8891 4.56628 0
M  V30 2511 H 246.711 4.47362 4.67415 0
M  V30 2512 N 246.843 -1.10192 1.12674 0
M  V30 2513 C 247.791 -2.18694 0.792196 0
M  V30 2514 C 248.785 -1.67938 -0.222058 0
M  V30 2515 O 249.991 -1.79822 -0.0800074 0
M  V30 2516 H 246.366 -0.713223 0.238364 0
M  V30 2517 H 248.337 -2.44149 1.71564 0
M  V30 2518 C 247.086 -3.46682 0.265859 0
M  V30 2519 H 246.409 -3.86101 1.03761 0
M  V30 2520 H 247.849 -4.23942 0.0701128 0
M  V30 2521 C 246.308 -3.21506 -1.00675 0
M  V30 2522 O 246.838 -3.43408 -2.08408 0
M  V30 2523 N 245.044 -2.75158 -0.934692 0
M  V30 2524 H 244.591 -2.57535 -0.0578604 0
M  V30 2525 H 244.549 -2.58691 -1.7868 0
M  V30 2526 N 248.321 -0.919034 -1.28029 0
M  V30 2527 C 249.271 -0.382574 -2.24767 0
M  V30 2528 C 250.255 0.508286 -1.52661 0
M  V30 2529 O 251.447 0.347145 -1.73562 0
M  V30 2530 C 248.576 0.371432 -3.41285 0
M  V30 2531 C 247.662 -0.535449 -4.20706 0
M  V30 2532 N 248.053 -1.65141 -4.78082 0
M  V30 2533 C 246.351 -0.336824 -4.44726 0
M  V30 2534 C 247.052 -2.21475 -5.37888 0
M  V30 2535 N 246.028 -1.50537 -5.22341 0
M  V30 2536 H 249.83 -1.23477 -2.66703 0
M  V30 2537 H 247.344 -0.772299 -1.42861 0
M  V30 2538 H 249.341 0.772638 -4.09678 0
M  V30 2539 H 248.001 1.22066 -3.00882 0
M  V30 2540 H 249.012 -2.03392 -4.7629 0
M  V30 2541 H 245.689 0.47246 -4.14818 0
M  V30 2542 H 247.079 -3.15379 -5.93284 0
M  V30 2543 N 249.799 1.42003 -0.683588 0
M  V30 2544 C 250.731 2.29183 0.0283068 0
M  V30 2545 C 251.744 1.4415 0.756611 0
M  V30 2546 O 252.933 1.67779 0.609306 0
M  V30 2547 C 250.033 3.21765 1.06398 0
M  V30 2548 C 249.206 4.35496 0.407723 0
M  V30 2549 C 248.265 5.08737 1.34437 0
M  V30 2550 O 247.291 5.62948 0.841318 0
M  V30 2551 N 248.493 5.15075 2.67728 0
M  V30 2552 H 251.258 2.9092 -0.720105 0
M  V30 2553 H 248.819 1.53025 -0.528682 0
M  V30 2554 H 250.811 3.6763 1.69204 0
M  V30 2555 H 249.381 2.61418 1.71404 0
M  V30 2556 H 248.601 3.92165 -0.400012 0
M  V30 2557 H 249.889 5.08776 -0.0490956 0
M  V30 2558 H 249.287 4.72457 3.11129 0
M  V30 2559 H 247.844 5.64556 3.2576 0
M  V30 2560 N 251.277 0.427512 1.51691 0
M  V30 2561 C 252.207 -0.3796 2.30394 0
M  V30 2562 C 253.188 -1.02982 1.35384 0
M  V30 2563 O 254.373 -1.03534 1.643 0
M  V30 2564 C 251.503 -1.48649 3.1388 0
M  V30 2565 C 250.457 -0.960294 4.17088 0
M  V30 2566 C 249.783 -2.16219 4.89033 0
M  V30 2567 C 251.083 -0.00153679 5.223 0
M  V30 2568 H 252.777 0.277164 2.98114 0
M  V30 2569 H 250.323 0.134739 1.43368 0
M  V30 2570 H 252.276 -2.05826 3.67714 0
M  V30 2571 H 251 -2.1714 2.43962 0
M  V30 2572 H 249.659 -0.410806 3.64291 0
M  V30 2573 H 249.307 -2.83307 4.15628 0
M  V30 2574 H 249.007 -1.81654 5.58816 0
M  V30 2575 H 250.531 -2.73968 5.45687 0
M  V30 2576 H 251.945 -0.482687 5.71264 0
M  V30 2577 H 250.342 0.256199 5.99553 0
M  V30 2578 H 251.412 0.938174 4.75738 0
M  V30 2579 N 252.755 -1.56801 0.158532 0
M  V30 2580 C 253.718 -2.16138 -0.762705 0
M  V30 2581 C 254.718 -1.1061 -1.16713 0
M  V30 2582 O 255.908 -1.36191 -1.08617 0
M  V30 2583 C 253.04 -2.73386 -2.03649 0
M  V30 2584 H 254.233 -2.98886 -0.246354 0
M  V30 2585 H 251.786 -1.56035 -0.0909744 0
M  V30 2586 H 252.521 -1.94335 -2.59623 0
M  V30 2587 H 252.306 -3.50601 -1.75559 0
M  V30 2588 H 253.796 -3.19065 -2.6942 0
M  V30 2589 N 254.233 0.115231 -1.57178 0
M  V30 2590 C 255.196 1.12526 -1.99676 0
M  V30 2591 C 256.196 1.34095 -0.88742 0
M  V30 2592 O 257.386 1.30548 -1.15337 0
M  V30 2593 C 254.518 2.4789 -2.34015 0
M  V30 2594 H 255.711 0.759912 -2.90113 0
M  V30 2595 H 253.264 0.359648 -1.52106 0
M  V30 2596 H 253.999 2.89339 -1.4647 0
M  V30 2597 H 253.784 2.33588 -3.14927 0
M  V30 2598 H 255.274 3.20575 -2.67622 0
M  V30 2599 N 255.711 1.52812 0.385517 0
M  V30 2600 C 256.941 1.71658 1.14966 0
M  V30 2601 C 257.349 0.436253 1.84102 0
M  V30 2602 O 256.692 -0.599313 1.73649 0
M  V30 2603 C 256.754 2.81309 2.23843 0
M  V30 2604 C 256.418 4.22313 1.74644 0
M  V30 2605 C 257.415 5.05352 1.22129 0
M  V30 2606 C 255.1 4.68648 1.80761 0
M  V30 2607 C 257.094 6.32807 0.763838 0
M  V30 2608 C 254.781 5.96086 1.34627 0
M  V30 2609 C 255.779 6.77996 0.825264 0
M  V30 2610 O 255.467 8.03045 0.370669 0
M  V30 2611 H 255.199 0.578022 0.350523 0
M  V30 2612 H 257.753 2.00263 0.456509 0
M  V30 2613 H 255.983 2.48133 2.96592 0
M  V30 2614 H 257.672 2.88524 2.85497 0
M  V30 2615 H 258.438 4.70736 1.16758 0
M  V30 2616 H 254.317 4.04979 2.20256 0
M  V30 2617 H 257.861 6.96689 0.356494 0
M  V30 2618 H 253.758 6.30205 1.39686 0
M  V30 2619 H 254.526 8.17021 0.491829 0
M  V30 2620 N 257.189 -0.644168 1.43834 0
M  V30 2621 C 258.099 -1.78563 1.52159 0
M  V30 2622 C 259.115 -1.69147 0.408069 0
M  V30 2623 O 260.291 -1.90156 0.663524 0
M  V30 2624 C 257.356 -3.14888 1.45073 0
M  V30 2625 C 256.417 -3.36034 2.6717 0
M  V30 2626 C 255.65 -4.65855 2.60413 0
M  V30 2627 O 255.873 -5.45805 1.65689 0
M  V30 2628 O 254.807 -4.88918 3.5106 0
M  V30 2629 H 258.633 -1.74494 2.48567 0
M  V30 2630 H 256.218 -0.80378 1.25935 0
M  V30 2631 H 258.1 -3.96179 1.43597 0
M  V30 2632 H 256.775 -3.19528 0.518037 0
M  V30 2633 H 255.682 -2.54472 2.74217 0
M  V30 2634 H 257.015 -3.36247 3.59442 0
M  V30 2635 N 258.668 -1.30515 -0.883378 0
M  V30 2636 C 259.598 -1.19607 -2.00541 0
M  V30 2637 C 260.579 -0.086346 -1.69881 0
M  V30 2638 O 261.764 -0.268654 -1.92333 0
M  V30 2639 C 258.894 -0.888758 -3.35736 0
M  V30 2640 C 257.848 -1.95659 -3.8066 0
M  V30 2641 C 257.174 -1.50224 -5.13164 0
M  V30 2642 C 258.474 -3.36788 -3.99213 0
M  V30 2643 H 260.168 -2.13476 -2.09925 0
M  V30 2644 H 257.714 -1.02775 -1.00863 0
M  V30 2645 H 259.667 -0.799094 -4.13754 0
M  V30 2646 H 258.391 0.0856125 -3.26488 0
M  V30 2647 H 257.05 -2.03591 -3.04871 0
M  V30 2648 H 256.698 -0.516092 -5.00345 0
M  V30 2649 H 256.398 -2.2165 -5.44192 0
M  V30 2650 H 257.922 -1.42639 -5.93706 0
M  V30 2651 H 259.336 -3.31605 -4.67665 0
M  V30 2652 H 257.733 -4.06314 -4.41621 0
M  V30 2653 H 258.803 -3.78561 -3.03017 0
M  V30 2654 N 260.146 1.09593 -1.13257 0
M  V30 2655 C 261.374 1.855 -0.916378 0
M  V30 2656 C 261.789 1.81069 0.534738 0
M  V30 2657 O 261.146 1.20562 1.37007 0
M  V30 2658 C 261.197 3.33546 -1.39388 0
M  V30 2659 O 260.918 3.37927 -2.78813 0
M  V30 2660 C 262.419 4.26299 -1.21588 0
M  V30 2661 H 259.639 0.585991 -0.326887 0
M  V30 2662 H 262.183 1.38488 -1.5047 0
M  V30 2663 H 260.338 3.77992 -0.848597 0
M  V30 2664 H 260.752 4.30254 -2.9997 0
M  V30 2665 H 262.226 5.28341 -1.59876 0
M  V30 2666 H 262.703 4.38918 -0.157376 0
M  V30 2667 H 263.309 3.87668 -1.7491 0
M  V30 2668 N 261.624 0.925811 1.2754 0
M  V30 2669 C 262.572 0.413897 2.28888 0
M  V30 2670 C 263.566 -0.500779 1.61829 0
M  V30 2671 O 264.772 -0.38069 1.75928 0
M  V30 2672 H 261.147 0.115274 0.743112 0
M  V30 2673 H 263.118 1.28151 2.69481 0
M  V30 2674 C 261.867 -0.319792 3.46226 0
M  V30 2675 H 261.19 0.374846 3.98039 0
M  V30 2676 H 262.63 -0.642435 4.19105 0
M  V30 2677 C 261.089 -1.53209 3.00048 0
M  V30 2678 O 261.619 -2.6309 3.03557 0
M  V30 2679 N 259.825 -1.38326 2.55566 0
M  V30 2680 H 259.372 -0.489292 2.5291 0
M  V30 2681 H 259.33 -2.19564 2.25031 0
M  V30 2682 N 263.102 -1.41638 0.69111 0
M  V30 2683 C 264.33 -2.05628 0.22909 0
M  V30 2684 C 264.745 -1.51992 -1.11999 0
M  V30 2685 O 264.102 -0.666322 -1.69901 0
M  V30 2686 C 264.153 -3.61084 0.173283 0
M  V30 2687 O 263.874 -4.12735 1.46907 0
M  V30 2688 C 265.375 -4.42213 -0.310266 0
M  V30 2689 H 262.595 -0.662327 0.107534 0
M  V30 2690 H 265.139 -1.81489 0.942438 0
M  V30 2691 H 263.294 -3.84278 -0.490858 0
M  V30 2692 H 263.708 -5.06743 1.35322 0
M  V30 2693 H 265.182 -5.51194 -0.298196 0
M  V30 2694 H 265.659 -4.1799 -1.34838 0
M  V30 2695 H 266.265 -4.24074 0.322716 0
M  V30 2696 N 264.58 -0.43555 -1.51462 0
M  V30 2697 C 265.826 0.131709 -2.02372 0
M  V30 2698 C 266.159 1.42516 -1.3192 0
M  V30 2699 O 265.434 1.89606 -0.433573 0
M  V30 2700 C 265.717 0.352301 -3.58373 0
M  V30 2701 C 265.57 -0.959676 -4.39443 0
M  V30 2702 C 266.889 1.12286 -4.25535 0
M  V30 2703 H 264.008 0.0463936 -0.735538 0
M  V30 2704 H 266.65 -0.574197 -1.81116 0
M  V30 2705 H 264.8 0.9536 -3.76615 0
M  V30 2706 H 266.472 -1.59482 -4.32855 0
M  V30 2707 H 264.715 -1.56468 -4.04599 0
M  V30 2708 H 265.386 -0.759394 -5.46752 0
M  V30 2709 H 267.862 0.613545 -4.11552 0
M  V30 2710 H 266.738 1.24598 -5.34571 0
M  V30 2711 H 266.999 2.15048 -3.86273 0
M  V30 2712 N 266.058 1.56714 -0.166846 0
M  V30 2713 C 267.286 2.0112 0.485644 0
M  V30 2714 C 267.701 1.04705 1.57106 0
M  V30 2715 O 267.058 0.0471923 1.82439 0
M  V30 2716 C 267.109 3.45361 1.06808 0
M  V30 2717 O 266.83 4.38092 0.0259995 0
M  V30 2718 C 268.331 4.05145 1.79924 0
M  V30 2719 H 265.551 0.65931 0.124704 0
M  V30 2720 H 268.095 2.02746 -0.267262 0
M  V30 2721 H 266.25 3.44524 1.7715 0
M  V30 2722 H 266.664 5.22519 0.455398 0
M  V30 2723 H 268.138 5.08009 2.15942 0
M  V30 2724 H 268.615 3.46982 2.69258 0
M  V30 2725 H 269.221 4.09672 1.14234 0
M  V30 2726 N 267.536 -0.106894 1.57237 0
M  V30 2727 C 268.486 -1.1366 1.9765 0
M  V30 2728 C 269.47 -1.36416 0.853203 0
M  V30 2729 O 270.662 -1.37305 1.11697 0
M  V30 2730 C 267.791 -2.46 2.39455 0
M  V30 2731 C 266.877 -2.26668 3.58445 0
M  V30 2732 N 267.268 -1.77176 4.73754 0
M  V30 2733 C 265.566 -2.57279 3.64312 0
M  V30 2734 C 266.267 -1.71836 5.5574 0
M  V30 2735 N 265.243 -2.16623 4.98573 0
M  V30 2736 H 269.045 -0.74669 2.84256 0
M  V30 2737 H 266.559 -0.314483 1.59326 0
M  V30 2738 H 268.556 -3.2049 2.6663 0
M  V30 2739 H 267.216 -2.85738 1.54219 0
M  V30 2740 H 268.227 -1.46545 4.96734 0
M  V30 2741 H 264.904 -3.00622 2.89711 0
M  V30 2742 H 266.294 -1.34723 6.58255 0
M  V30 2743 N 269.014 -1.53014 -0.377408 0
M  V30 2744 C 269.962 -1.7927 -1.48206 0
M  V30 2745 C 270.956 -0.661195 -1.55963 0
M  V30 2746 O 272.162 -0.843908 -1.58991 0
M  V30 2747 H 268.537 -0.567425 -0.493491 0
M  V30 2748 H 270.508 -2.71753 -1.2326 0
M  V30 2749 C 269.257 -1.98894 -2.85196 0
M  V30 2750 H 268.58 -2.85395 -2.79981 0
M  V30 2751 H 270.02 -2.21249 -3.61698 0
M  V30 2752 C 268.479 -0.764691 -3.28107 0
M  V30 2753 O 269.009 0.0523226 -4.01666 0
M  V30 2754 N 267.215 -0.591493 -2.84517 0
M  V30 2755 H 266.762 -1.25749 -2.24822 0
M  V30 2756 H 266.72 0.226253 -3.13585 0
M  V30 2757 N 270.492 0.636531 -1.44174 0
M  V30 2758 C 271.424 1.7618 -1.46606 0
M  V30 2759 C 272.437 1.58768 -0.360091 0
M  V30 2760 O 273.626 1.67181 -0.625518 0
M  V30 2761 C 270.726 3.13833 -1.27915 0
M  V30 2762 C 269.899 3.57753 -2.51658 0
M  V30 2763 C 268.958 4.74265 -2.27945 0
M  V30 2764 O 267.984 4.82852 -3.01401 0
M  V30 2765 N 269.186 5.65604 -1.30662 0
M  V30 2766 H 271.951 1.74567 -2.43612 0
M  V30 2767 H 269.512 0.820924 -1.39544 0
M  V30 2768 H 271.504 3.8949 -1.09907 0
M  V30 2769 H 270.074 3.10121 -0.39293 0
M  V30 2770 H 269.294 2.72362 -2.84978 0
M  V30 2771 H 270.582 3.83847 -3.33974 0
M  V30 2772 H 269.98 5.61354 -0.699844 0
M  V30 2773 H 268.537 6.40913 -1.18634 0
M  V30 2774 N 271.97 1.30982 0.876444 0
M  V30 2775 C 273.218 1.20058 1.62575 0
M  V30 2776 C 273.539 -0.242947 1.93481 0
M  V30 2777 O 272.809 -1.1619 1.57724 0
M  V30 2778 H 271.389 0.44135 0.602677 0
M  V30 2779 H 274.051 1.64222 1.04962 0
M  V30 2780 H 273.147 1.76762 2.57219 0
M  V30 2781 N 273.449 -1.08991 1.13837 0
M  V30 2782 C 274.397 -2.17841 0.815347 0
M  V30 2783 C 275.391 -1.68164 -0.204233 0
M  V30 2784 O 276.597 -1.79897 -0.0609304 0
M  V30 2785 H 272.972 -0.710654 0.245915 0
M  V30 2786 H 274.943 -2.42315 1.74143 0
M  V30 2787 C 273.692 -3.46381 0.302614 0
M  V30 2788 H 273.015 -3.84979 1.0785 0
M  V30 2789 H 274.455 -4.23844 0.115074 0
M  V30 2790 C 272.914 -3.22556 -0.972591 0
M  V30 2791 O 273.444 -3.45599 -2.04754 0
M  V30 2792 N 271.65 -2.76134 -0.905455 0
M  V30 2793 H 271.197 -2.57582 -0.0305421 0
M  V30 2794 H 271.155 -2.60571 -1.75926 0
M  V30 2795 N 274.927 -0.932562 -1.27047 0
M  V30 2796 C 276.157 -0.591173 -1.97961 0
M  V30 2797 C 276.565 0.836219 -1.69717 0
M  V30 2798 O 275.908 1.56801 -0.957036 0
M  V30 2799 C 275.97 -0.743082 -3.51736 0
M  V30 2800 C 275.634 -2.1435 -4.03613 0
M  V30 2801 C 276.631 -3.11815 -4.16014 0
M  V30 2802 C 274.316 -2.46175 -4.37839 0
M  V30 2803 C 276.31 -4.39211 -4.61923 0
M  V30 2804 C 273.997 -3.73806 -4.83438 0
M  V30 2805 C 274.995 -4.70137 -4.95439 0
M  V30 2806 O 274.683 -5.95496 -5.40037 0
M  V30 2807 H 274.415 -0.222375 -0.638377 0
M  V30 2808 H 276.969 -1.25317 -1.62742 0
M  V30 2809 H 275.199 -0.0239739 -3.86693 0
M  V30 2810 H 276.888 -0.40603 -4.03864 0
M  V30 2811 H 277.654 -2.88549 -3.89826 0
M  V30 2812 H 273.533 -1.71936 -4.27737 0
M  V30 2813 H 277.077 -5.14404 -4.71205 0
M  V30 2814 H 272.974 -3.96888 -5.09068 0
M  V30 2815 H 273.742 -5.98554 -5.58279 0
M  V30 2816 N 276.405 1.4127 -0.698611 0
M  V30 2817 C 277.368 2.29158 -0.044132 0
M  V30 2818 C 278.368 1.44529 0.704841 0
M  V30 2819 O 279.558 1.65643 0.539276 0
M  V30 2820 C 276.69 3.27459 0.947809 0
M  V30 2821 H 277.883 2.88529 -0.817994 0
M  V30 2822 H 275.436 1.49307 -0.46228 0
M  V30 2823 H 276.171 2.73073 1.74933 0
M  V30 2824 H 275.956 3.8991 0.41385 0
M  V30 2825 H 277.446 3.93311 1.40344 0
M  V30 2826 N 277.883 0.443576 1.51229 0
M  V30 2827 C 278.846 -0.353132 2.26463 0
M  V30 2828 C 279.846 -0.944338 1.3015 0
M  V30 2829 O 281.036 -0.817813 1.5381 0
M  V30 2830 C 278.168 -1.50023 3.06114 0
M  V30 2831 H 279.361 0.3063 2.98332 0
M  V30 2832 H 276.914 0.196902 1.55055 0
M  V30 2833 H 277.649 -2.19553 2.38677 0
M  V30 2834 H 277.434 -1.08241 3.76864 0
M  V30 2835 H 278.924 -2.06296 3.63087 0
M  V30 2836 N 279.361 -1.56624 0.175154 0
M  V30 2837 C 280.294 -2.14 -0.792412 0
M  V30 2838 C 281.272 -1.07114 -1.22333 0
M  V30 2839 O 282.456 -1.35112 -1.31442 0
M  V30 2840 C 279.583 -2.68268 -2.0676 0
M  V30 2841 C 278.629 -3.87562 -1.7804 0
M  V30 2842 S 279.462 -5.27074 -0.946222 0
M  V30 2843 C 280.618 -5.8475 -2.23199 0
M  V30 2844 H 280.851 -2.95736 -0.304588 0
M  V30 2845 H 278.384 -1.54349 -0.0395705 0
M  V30 2846 H 280.342 -3.00182 -2.80002 0
M  V30 2847 H 279.003 -1.86612 -2.52656 0
M  V30 2848 H 278.196 -4.23874 -2.72666 0
M  V30 2849 H 277.798 -3.56555 -1.12891 0
M  V30 2850 H 280.09 -5.97898 -3.18629 0
M  V30 2851 H 281.033 -6.81756 -1.91349 0
M  V30 2852 H 281.441 -5.13198 -2.35134 0
M  V30 2853 N 280.839 0.0985539 -1.57292 0
M  V30 2854 C 281.772 1.15082 -1.97057 0
M  V30 2855 C 282.75 1.39025 -0.843255 0
M  V30 2856 O 283.934 1.52842 -1.10325 0
M  V30 2857 C 281.061 2.50069 -2.28437 0
M  V30 2858 C 280.107 2.42428 -3.509 0
M  V30 2859 S 280.94 1.84414 -5.02744 0
M  V30 2860 C 282.096 3.21032 -5.37298 0
M  V30 2861 H 282.329 0.811815 -2.86002 0
M  V30 2862 H 279.862 0.306102 -1.51335 0
M  V30 2863 H 281.82 3.27729 -2.47192 0
M  V30 2864 H 280.481 2.8114 -1.40069 0
M  V30 2865 H 279.674 3.41911 -3.70288 0
M  V30 2866 H 279.276 1.72896 -3.31637 0
M  V30 2867 H 281.568 4.17297 -5.33731 0
M  V30 2868 H 282.511 3.06452 -6.38352 0
M  V30 2869 H 282.919 3.20404 -4.64759 0
M  V30 2870 N 282.317 1.53212 0.369288 0
M  V30 2871 C 283.28 1.7872 1.43498 0
M  V30 2872 C 284.28 0.657554 1.46741 0
M  V30 2873 O 285.47 0.925736 1.47566 0
M  V30 2874 C 282.602 1.90591 2.82645 0
M  V30 2875 H 283.795 2.73894 1.22156 0
M  V30 2876 H 281.348 1.44233 0.602203 0
M  V30 2877 H 282.083 0.974709 3.09306 0
M  V30 2878 H 281.868 2.72751 2.8169 0
M  V30 2879 H 283.358 2.11931 3.59826 0
M  V30 2880 N 283.795 -0.628877 1.44509 0
M  V30 2881 C 285.072 -1.38733 1.37886 0
M  V30 2882 C 285.452 -2.11065 0.0387008 0
M  V30 2883 O 284.8 -2.06476 -0.97878 0
M  V30 2884 C 285.01 -2.35188 2.57852 0
M  V30 2885 C 286.358 -2.9845 3.02014 0
M  V30 2886 O 287.382 -2.45513 2.58073 0
M  V30 2887 O 286.241 -3.94487 3.78209 0
M  V30 2888 H 283.335 -0.621015 0.54614 0
M  V30 2889 H 285.881 -0.653744 1.56602 0
M  V30 2890 H 284.653 -1.80855 3.46998 0
M  V30 2891 H 284.276 -3.1596 2.4136 0
M  V30 2892 N 285.273 -1.31445 -0.869486 0
M  V30 2893 C 286.501 -1.24122 -1.65534 0
M  V30 2894 C 286.916 0.193387 -1.87807 0
M  V30 2895 O 286.273 1.12557 -1.43656 0
M  V30 2896 C 286.324 -1.98229 -3.02304 0
M  V30 2897 O 286.045 -3.3609 -2.81026 0
M  V30 2898 C 287.546 -1.97751 -3.96749 0
M  V30 2899 H 284.766 -0.428868 -0.516055 0
M  V30 2900 H 287.31 -1.73328 -1.08525 0
M  V30 2901 H 285.465 -1.52782 -3.56001 0
M  V30 2902 H 285.879 -3.7383 -3.67902 0
M  V30 2903 H 287.353 -2.54114 -4.90031 0
M  V30 2904 H 287.83 -0.960137 -4.28577 0
M  V30 2905 H 288.436 -2.43079 -3.48988 0
M  V30 2906 N 286.751 1.08385 -1.14413 0
M  V30 2907 C 288 1.80153 -0.907076 0
M  V30 2908 C 288.313 1.87176 0.567851 0
M  V30 2909 O 289.519 2.55359 0.922172 0
M  V30 2910 C 287.975 3.23687 -1.57336 0
M  V30 2911 C 287.583 3.24897 -3.08457 0
M  V30 2912 C 289.327 4.00136 -1.41744 0
M  V30 2913 C 287.234 4.6302 -3.67921 0
M  V30 2914 H 286.164 0.675139 -0.335714 0
M  V30 2915 H 288.815 1.21733 -1.37307 0
M  V30 2916 H 287.197 3.82234 -1.03505 0
M  V30 2917 H 288.371 2.76055 -3.68958 0
M  V30 2918 H 286.686 2.61943 -3.2369 0
M  V30 2919 H 289.283 5.02201 -1.83572 0
M  V30 2920 H 289.626 4.14709 -0.363576 0
M  V30 2921 H 290.159 3.48058 -1.92614 0
M  V30 2922 H 286.898 4.5365 -4.73161 0
M  V30 2923 H 286.418 5.12143 -3.12201 0
M  V30 2924 H 288.097 5.31994 -3.68227 0
M  V30 2925 N 288.23 0.939286 1.26551 0
M  V30 2926 C 289.455 0.602008 1.98471 0
M  V30 2927 C 289.88 -0.815624 1.69497 0
M  V30 2928 O 289.238 -1.54912 0.941905 0
M  V30 2929 C 289.286 0.848407 3.50477 0
M  V30 2930 O 288.39 -0.0804009 4.12322 0
M  V30 2931 H 287.731 0.23049 0.622712 0
M  V30 2932 H 290.261 1.2617 1.61066 0
M  V30 2933 H 290.271 0.768553 4.00696 0
M  V30 2934 H 288.946 1.88171 3.70897 0
M  V30 2935 H 287.523 0.0503508 3.72866 0
M  V30 2936 N 289.708 -1.40897 0.706093 0
M  V30 2937 C 291.124 -1.55042 0.37869 0
M  V30 2938 C 291.324 -1.67944 -1.11342 0
M  V30 2939 O 290.38 -1.66372 -1.89938 0
M  V30 2940 C 291.693 -2.78398 1.13643 0
M  V30 2941 C 293.241 -2.92206 1.12181 0
M  V30 2942 C 293.716 -4.18463 1.86152 0
M  V30 2943 N 295.207 -4.25443 1.83173 0
M  V30 2944 C 295.942 -5.2202 2.37239 0
M  V30 2945 N 295.438 -6.24563 2.99821 0
M  V30 2946 N 297.231 -5.14033 2.27435 0
M  V30 2947 H 289.382 -1.30769 1.67372 0
M  V30 2948 H 291.645 -0.631653 0.706907 0
M  V30 2949 H 291.351 -2.7511 2.19106 0
M  V30 2950 H 291.225 -3.70228 0.721853 0
M  V30 2951 H 293.612 -2.95004 0.0754171 0
M  V30 2952 H 293.693 -2.01521 1.57554 0
M  V30 2953 H 293.337 -4.16427 2.90776 0
M  V30 2954 H 293.267 -5.08141 1.38206 0
M  V30 2955 H 295.758 -3.51976 1.37556 0
M  V30 2956 H 296.071 -6.94665 3.38616 0
M  V30 2957 H 294.416 -6.25035 3.03902 0
M  V30 2958 H 297.607 -4.3285 1.78208 0
M  V30 2959 H 297.78 -5.89129 2.69873 0
M  V30 2960 N 291.186 -0.45159 -1.50991 0
M  V30 2961 C 292.416 0.108177 -2.06317 0
M  V30 2962 C 292.824 1.35774 -1.31765 0
M  V30 2963 O 292.167 1.79838 -0.374694 0
M  V30 2964 C 292.229 0.481659 -3.56259 0
M  V30 2965 C 291.893 -0.663114 -4.52163 0
M  V30 2966 C 292.89 -1.53947 -4.96585 0
M  V30 2967 C 290.575 -0.8479 -4.95092 0
M  V30 2968 C 292.569 -2.58518 -5.82621 0
M  V30 2969 C 290.256 -1.89686 -5.80915 0
M  V30 2970 C 291.254 -2.76388 -6.24579 0
M  V30 2971 O 290.942 -3.79482 -7.08695 0
M  V30 2972 H 290.674 0.00499183 -0.675982 0
M  V30 2973 H 293.228 -0.633659 -1.95381 0
M  V30 2974 H 291.458 1.27641 -3.65027 0
M  V30 2975 H 293.147 0.974233 -3.94035 0
M  V30 2976 H 293.913 -1.4083 -4.64103 0
M  V30 2977 H 289.792 -0.18258 -4.60638 0
M  V30 2978 H 293.336 -3.26224 -6.16623 0
M  V30 2979 H 289.233 -2.02817 -6.12809 0
M  V30 2980 H 290.001 -3.76234 -7.26905 0
M  V30 2981 N 292.664 1.56529 -0.183458 0
M  V30 2982 C 293.611 2.18546 0.742055 0
M  V30 2983 C 294.581 1.12912 1.2182 0
M  V30 2984 O 295.766 1.41115 1.28418 0
M  V30 2985 C 292.906 2.83977 1.96089 0
M  V30 2986 C 292.019 4.04105 1.52719 0
M  V30 2987 C 291.154 4.57427 2.70063 0
M  V30 2988 C 290.193 5.69938 2.23243 0
M  V30 2989 N 289.33 6.17717 3.33722 0
M  V30 2990 H 294.17 2.97284 0.206432 0
M  V30 2991 H 291.707 1.46823 0.0901571 0
M  V30 2992 H 293.665 3.20077 2.67594 0
M  V30 2993 H 292.295 2.07822 2.47002 0
M  V30 2994 H 291.347 3.73745 0.708436 0
M  V30 2995 H 292.659 4.85513 1.1436 0
M  V30 2996 H 291.813 4.95772 3.49708 0
M  V30 2997 H 290.552 3.75101 3.11689 0
M  V30 2998 H 289.557 5.31133 1.42048 0
M  V30 2999 H 290.782 6.54073 1.82661 0
M  V30 3000 H 288.728 5.38317 3.74902 0
M  V30 3001 H 288.645 6.94146 2.99495 0
M  V30 3002 H 289.913 6.60713 4.13616 0
M  V30 3003 N 294.142 -0.090211 1.57342 0
M  V30 3004 C 295.052 -1.12735 2.05738 0
M  V30 3005 C 296.068 -1.43557 0.983231 0
M  V30 3006 O 297.244 -1.54101 1.29672 0
M  V30 3007 C 294.309 -2.42659 2.47624 0
M  V30 3008 C 293.37 -2.18975 3.69254 0
M  V30 3009 C 292.603 -3.42704 4.09133 0
M  V30 3010 O 292.826 -4.51127 3.49057 0
M  V30 3011 O 291.76 -3.32003 5.02053 0
M  V30 3012 H 295.586 -0.746279 2.94388 0
M  V30 3013 H 293.171 -0.303064 1.46294 0
M  V30 3014 H 295.053 -3.19155 2.7517 0
M  V30 3015 H 293.728 -2.80182 1.62109 0
M  V30 3016 H 292.635 -1.40244 3.46818 0
M  V30 3017 H 293.968 -1.86342 4.55563 0
M  V30 3018 N 295.62 -1.53406 -0.361157 0
M  V30 3019 C 296.868 -1.69467 -1.10115 0
M  V30 3020 C 297.189 -0.451352 -1.89705 0
M  V30 3021 O 296.459 0.534636 -1.88463 0
M  V30 3022 H 295.039 -0.624749 -0.409508 0
M  V30 3023 H 297.701 -1.90609 -0.406699 0
M  V30 3024 H 296.797 -2.55774 -1.78847 0
M  V30 3025 N 297.098 0.621204 -1.44841 0
M  V30 3026 C 298.045 1.73267 -1.5247 0
M  V30 3027 C 299.015 1.6189 -0.371611 0
M  V30 3028 O 300.2 1.81668 -0.58321 0
M  V30 3029 C 297.34 3.11545 -1.48438 0
M  V30 3030 C 296.453 3.33827 -2.74196 0
M  V30 3031 C 295.588 4.62133 -2.61929 0
M  V30 3032 C 294.627 4.77627 -3.82804 0
M  V30 3033 N 293.764 5.97219 -3.69153 0
M  V30 3034 H 298.604 1.66082 -2.47428 0
M  V30 3035 H 296.141 0.810026 -1.22788 0
M  V30 3036 H 298.099 3.91528 -1.4409 0
M  V30 3037 H 296.729 3.1772 -0.570402 0
M  V30 3038 H 295.781 2.47715 -2.88689 0
M  V30 3039 H 297.093 3.41153 -3.6389 0
M  V30 3040 H 296.247 5.50291 -2.5547 0
M  V30 3041 H 294.986 4.57182 -1.69811 0
M  V30 3042 H 293.991 3.87896 -3.89637 0
M  V30 3043 H 295.216 4.84385 -4.75971 0
M  V30 3044 H 293.162 5.93339 -2.79794 0
M  V30 3045 H 293.079 6.05644 -4.52472 0
M  V30 3046 H 294.347 6.87912 -3.66603 0
M  V30 3047 N 298.576 1.31904 0.862503 0
M  V30 3048 C 299.987 1.19803 1.43193 0
M  V30 3049 C 300.338 -0.192567 1.95253 0
M  V30 3050 O 299.463 -1.09081 1.86896 0
M  V30 3051 C 300.058 2.16883 2.60283 0
M  V30 3052 C 298.617 2.08692 3.13248 0
M  V30 3053 C 297.764 2.05691 1.85975 0
M  V30 3054 H 300.715 1.43846 0.670365 0
M  V30 3055 H 300.736 1.76278 3.37204 0
M  V30 3056 H 300.248 3.18083 2.22363 0
M  V30 3057 H 298.349 1.10713 3.55771 0
M  V30 3058 H 298.462 2.9815 3.75025 0
M  V30 3059 H 296.826 1.50814 2.05249 0
M  V30 3060 H 297.609 3.08659 1.50282 0
M  V30 3061 N 300.054 -1.07777 1.14986 0
M  V30 3062 C 301.3 -1.80557 0.923422 0
M  V30 3063 C 301.633 -1.86298 -0.548337 0
M  V30 3064 O 300.908 -1.34354 -1.40639 0
M  V30 3065 C 301.191 -3.25839 1.53299 0
M  V30 3066 C 301.044 -3.28269 3.07505 0
M  V30 3067 C 302.363 -4.22991 1.21518 0
M  V30 3068 H 299.482 -0.655493 0.336894 0
M  V30 3069 H 302.124 -1.26144 1.42083 0
M  V30 3070 H 300.274 -3.72306 1.10999 0
M  V30 3071 H 301.946 -2.90079 3.58681 0
M  V30 3072 H 300.189 -2.67355 3.4162 0
M  V30 3073 H 300.86 -4.30691 3.45266 0
M  V30 3074 H 303.336 -3.84894 1.581 0
M  V30 3075 H 302.212 -5.22945 1.66793 0
M  V30 3076 H 302.473 -4.41904 0.131505 0
M  V30 3077 N 301.532 -0.945985 -1.26051 0
M  V30 3078 C 302.779 -0.596118 -1.93527 0
M  V30 3079 C 303.107 0.865559 -1.74179 0
M  V30 3080 O 302.362 1.63524 -1.0751 0
M  V30 3081 C 302.661 -0.890475 -3.46129 0
M  V30 3082 C 302.327 -2.3368 -3.85622 0
M  V30 3083 C 300.989 -2.73216 -3.96114 0
M  V30 3084 C 303.341 -3.27648 -4.05334 0
M  V30 3085 C 300.669 -4.05806 -4.2372 0
M  V30 3086 C 303.021 -4.59841 -4.3443 0
M  V30 3087 C 301.685 -4.99185 -4.43137 0
M  V30 3088 H 300.955 -0.218135 -0.708165 0
M  V30 3089 H 303.602 -1.1934 -1.49768 0
M  V30 3090 H 301.907 -0.210711 -3.91233 0
M  V30 3091 H 303.604 -0.598478 -3.96509 0
M  V30 3092 H 300.194 -2.02015 -3.78005 0
M  V30 3093 H 304.378 -2.98298 -3.96651 0
M  V30 3094 H 299.634 -4.35945 -4.28675 0
M  V30 3095 H 303.808 -5.32641 -4.48628 0
M  V30 3096 H 301.435 -6.01952 -4.64282 0
M  V30 3097 N 303.011 1.40521 -0.713556 0
M  V30 3098 C 304.241 2.0494 -0.261395 0
M  V30 3099 C 304.649 1.53861 1.10107 0
M  V30 3100 O 303.992 0.689321 1.70276 0
M  V30 3101 C 304.054 3.59138 -0.161227 0
M  V30 3102 C 303.718 4.33096 -1.45865 0
M  V30 3103 C 304.715 4.61182 -2.40016 0
M  V30 3104 C 302.4 4.72043 -1.71701 0
M  V30 3105 C 304.394 5.27196 -3.58251 0
M  V30 3106 C 302.081 5.37789 -2.90218 0
M  V30 3107 C 303.079 5.65295 -3.83315 0
M  V30 3108 O 302.767 6.29683 -4.99754 0
M  V30 3109 H 302.499 0.666041 -0.115608 0
M  V30 3110 H 305.053 1.80954 -0.971849 0
M  V30 3111 H 303.283 3.81936 0.605153 0
M  V30 3112 H 304.972 4.05091 0.256105 0
M  V30 3113 H 305.738 4.31559 -2.21318 0
M  V30 3114 H 301.617 4.50003 -1.00092 0
M  V30 3115 H 305.161 5.48582 -4.30934 0
M  V30 3116 H 301.058 5.66831 -3.08825 0
M  V30 3117 H 301.826 6.4818 -4.99805 0
M  V30 3118 N 304.489 0.459591 1.5075 0
M  V30 3119 C 305.719 -0.0972338 2.06371 0
M  V30 3120 C 306.127 -1.35074 1.32483 0
M  V30 3121 O 305.47 -1.79637 0.384226 0
M  V30 3122 C 305.532 -0.462759 3.56509 0
M  V30 3123 C 305.196 0.687084 4.51805 0
M  V30 3124 C 306.193 1.56578 4.95761 0
M  V30 3125 C 303.878 0.874144 4.94635 0
M  V30 3126 C 305.872 2.61604 5.81242 0
M  V30 3127 C 303.559 1.92765 5.79901 0
M  V30 3128 C 304.557 2.79697 6.23104 0
M  V30 3129 O 304.245 3.83235 7.06673 0
M  V30 3130 H 303.977 -0.00140687 0.675999 0
M  V30 3131 H 306.531 0.644011 1.95043 0
M  V30 3132 H 304.761 -1.25703 3.65699 0
M  V30 3133 H 306.45 -0.953323 3.94546 0
M  V30 3134 H 307.216 1.4329 4.6335 0
M  V30 3135 H 303.095 0.207006 4.60535 0
M  V30 3136 H 306.639 3.29489 6.14884 0
M  V30 3137 H 302.536 2.06064 6.11725 0
M  V30 3138 H 303.304 3.80084 7.24899 0
M  V30 3139 N 305.967 -1.56429 0.191757 0
M  V30 3140 C 307.195 -2.01867 -0.453586 0
M  V30 3141 C 307.61 -1.07191 -1.5542 0
M  V30 3142 O 306.967 -0.0762108 -1.82341 0
M  V30 3143 C 307.018 -3.47017 -1.013 0
M  V30 3144 O 306.739 -4.38078 0.0437005 0
M  V30 3145 C 308.24 -4.07956 -1.73456 0
M  V30 3146 H 305.46 -0.661211 -0.114199 0
M  V30 3147 H 308.004 -2.02295 0.299483 0
M  V30 3148 H 306.159 -3.47298 -1.71647 0
M  V30 3149 H 306.573 -5.23178 -0.372212 0
M  V30 3150 H 308.047 -5.1138 -2.07833 0
M  V30 3151 H 308.524 -3.51222 -2.63704 0
M  V30 3152 H 309.13 -4.11437 -1.07702 0
M  V30 3153 N 307.445 0.0818655 -1.57387 0
M  V30 3154 C 308.691 0.778884 -1.87896 0
M  V30 3155 C 309.046 1.75692 -0.784229 0
M  V30 3156 O 308.339 1.90417 0.212567 0
M  V30 3157 C 308.533 1.53513 -3.22752 0
M  V30 3158 C 308.362 0.631838 -4.45239 0
M  V30 3159 C 307.132 0.272571 -5.04564 0
M  V30 3160 C 309.33 -0.0670191 -5.14256 0
M  V30 3161 N 307.312 -0.637498 -6.10581 0
M  V30 3162 C 308.683 -0.834653 -6.14356 0
M  V30 3163 C 310.738 -0.139551 -4.97704 0
M  V30 3164 C 309.441 -1.66806 -6.99691 0
M  V30 3165 C 311.467 -0.959903 -5.83558 0
M  V30 3166 C 310.829 -1.71561 -6.83188 0
M  V30 3167 H 306.928 0.260764 -0.737242 0
M  V30 3168 H 309.512 0.0408227 -1.94657 0
M  V30 3169 H 307.683 2.24398 -3.17018 0
M  V30 3170 H 309.415 2.18038 -3.40942 0
M  V30 3171 H 306.17 0.62319 -4.69482 0
M  V30 3172 H 306.594 -1.08548 -6.68241 0
M  V30 3173 H 311.236 0.430376 -4.20604 0
M  V30 3174 H 308.954 -2.249 -7.76174 0
M  V30 3175 H 312.54 -1.01887 -5.72809 0
M  V30 3176 H 311.42 -2.34017 -7.48469 0
M  V30 3177 N 308.923 1.53595 0.353017 0
M  V30 3178 C 310.151 1.74311 1.1146 0
M  V30 3179 C 310.566 0.477854 1.82653 0
M  V30 3180 O 309.923 -0.549977 1.74016 0
M  V30 3181 C 309.974 2.91694 2.13534 0
M  V30 3182 O 309.695 4.13325 1.45238 0
M  V30 3183 C 311.196 3.24384 3.02142 0
M  V30 3184 H 308.416 0.582669 0.332773 0
M  V30 3185 H 310.96 2.00386 0.408107 0
M  V30 3186 H 309.115 2.67977 2.79763 0
M  V30 3187 H 309.529 4.79148 2.13349 0
M  V30 3188 H 311.003 4.09893 3.69718 0
M  V30 3189 H 311.48 2.40282 3.67643 0
M  V30 3190 H 312.086 3.50073 2.41514 0
M  V30 3191 N 310.401 -0.613514 1.45168 0
M  V30 3192 C 311.812 -1.19539 1.43413 0
M  V30 3193 C 312.163 -1.95558 0.158632 0
M  V30 3194 O 311.288 -2.0335 -0.740119 0
M  V30 3195 C 311.883 -2.17445 2.59813 0
M  V30 3196 C 310.442 -2.71022 2.61197 0
M  V30 3197 C 309.589 -1.46323 2.35552 0
M  V30 3198 H 312.54 -0.403163 1.53494 0
M  V30 3199 H 312.561 -3.00373 2.33574 0
M  V30 3200 H 312.073 -1.62089 3.52631 0
M  V30 3201 H 310.174 -3.30332 1.7237 0
M  V30 3202 H 310.287 -3.15859 3.60236 0
M  V30 3203 H 308.651 -1.75072 1.84992 0
M  V30 3204 H 309.434 -0.92844 3.30507 0
M  V30 3205 N 311.879 -1.3236 -0.855495 0
M  V30 3206 C 313.109 -1.25688 -1.6397 0
M  V30 3207 C 313.517 0.177592 -1.88365 0
M  V30 3208 O 312.86 1.12485 -1.45234 0
M  V30 3209 C 312.922 -1.94602 -3.02275 0
M  V30 3210 C 312.586 -3.43937 -3.00926 0
M  V30 3211 C 313.583 -4.39435 -2.77835 0
M  V30 3212 C 311.268 -3.85858 -3.21588 0
M  V30 3213 C 313.262 -5.74829 -2.75409 0
M  V30 3214 C 310.949 -5.21361 -3.18789 0
M  V30 3215 C 311.947 -6.15658 -2.95727 0
M  V30 3216 O 311.635 -7.48681 -2.928 0
M  V30 3217 H 311.367 -0.434972 -0.51747 0
M  V30 3218 H 313.921 -1.75023 -1.075 0
M  V30 3219 H 312.151 -1.39836 -3.60531 0
M  V30 3220 H 313.84 -1.81651 -3.62985 0
M  V30 3221 H 314.606 -4.08374 -2.6164 0
M  V30 3222 H 310.485 -3.12883 -3.38564 0
M  V30 3223 H 314.029 -6.48404 -2.57328 0
M  V30 3224 H 309.926 -5.52052 -3.34528 0
M  V30 3225 H 310.694 -7.5803 -3.0876 0
M  V30 3226 N 313.357 1.07166 -1.15556 0
M  V30 3227 C 314.603 1.80222 -0.942961 0
M  V30 3228 C 314.958 1.85121 0.524209 0
M  V30 3229 O 314.251 1.32531 1.38369 0
M  V30 3230 C 314.445 3.24707 -1.49332 0
M  V30 3231 C 314.274 3.33887 -3.01247 0
M  V30 3232 C 313.044 3.44337 -3.69811 0
M  V30 3233 C 315.242 3.24484 -3.99017 0
M  V30 3234 N 313.224 3.42439 -5.09518 0
M  V30 3235 C 314.595 3.29726 -5.25053 0
M  V30 3236 C 316.65 3.08307 -3.90962 0
M  V30 3237 C 315.353 3.20455 -6.43973 0
M  V30 3238 C 317.379 3.00371 -5.09442 0
M  V30 3239 C 316.741 3.06227 -6.34354 0
M  V30 3240 H 312.84 0.672709 -0.398731 0
M  V30 3241 H 315.424 1.27905 -1.46794 0
M  V30 3242 H 313.595 3.7544 -0.994946 0
M  V30 3243 H 315.327 3.85894 -1.21935 0
M  V30 3244 H 312.082 3.48762 -3.20409 0
M  V30 3245 H 312.506 3.45013 -5.8249 0
M  V30 3246 H 317.148 3.02633 -2.95251 0
M  V30 3247 H 314.866 3.24888 -7.39914 0
M  V30 3248 H 318.452 2.88955 -5.04971 0
M  V30 3249 H 317.332 3.00132 -7.24493 0
M  V30 3250 N 314.835 0.952656 1.25548 0
M  V30 3251 C 316.081 0.607272 1.93494 0
M  V30 3252 C 316.414 -0.853245 1.74452 0
M  V30 3253 O 315.689 -1.61194 1.08843 0
M  V30 3254 C 315.972 0.96435 3.46947 0
M  V30 3255 C 315.825 2.48045 3.75225 0
M  V30 3256 C 317.144 0.487987 4.37386 0
M  V30 3257 H 314.263 0.222096 0.702739 0
M  V30 3258 H 316.905 1.18895 1.48203 0
M  V30 3259 H 315.055 0.469361 3.85654 0
M  V30 3260 H 316.727 3.04905 3.46166 0
M  V30 3261 H 314.97 2.919 3.209 0
M  V30 3262 H 315.641 2.6808 4.82532 0
M  V30 3263 H 318.117 0.912558 4.0597 0
M  V30 3264 H 316.993 0.766547 5.43521 0
M  V30 3265 H 317.254 -0.612063 4.37843 0
M  V30 3266 N 316.313 -1.40141 0.720998 0
M  V30 3267 C 317.538 -2.05618 0.271258 0
M  V30 3268 C 317.963 -1.53978 -1.08039 0
M  V30 3269 O 317.321 -0.677463 -1.68167 0
M  V30 3270 C 317.369 -3.59609 0.267197 0
M  V30 3271 O 316.473 -4.05526 -0.749814 0
M  V30 3272 H 315.814 -0.651904 0.126162 0
M  V30 3273 H 318.344 -1.79439 0.982997 0
M  V30 3274 H 318.354 -4.0786 0.106744 0
M  V30 3275 H 317.029 -3.96559 1.25354 0
M  V30 3276 H 315.606 -3.68722 -0.556644 0
M  V30 3277 N 317.792 -0.46758 -1.50504 0
M  V30 3278 C 318.74 0.342482 -2.30065 0
M  V30 3279 C 319.734 0.993596 -1.37201 0
M  V30 3280 O 320.94 0.925102 -1.54408 0
M  V30 3281 H 317.315 0.129283 -0.740803 0
M  V30 3282 H 319.286 -0.34899 -2.96352 0
M  V30 3283 C 318.035 1.4139 -3.17654 0
M  V30 3284 H 317.358 0.922264 -3.89017 0
M  V30 3285 H 318.798 1.95335 -3.76325 0
M  V30 3286 C 317.257 2.4139 -2.35016 0
M  V30 3287 O 317.787 3.46586 -2.03079 0
M  V30 3288 N 315.993 2.13021 -1.97662 0
M  V30 3289 H 315.54 1.27499 -2.23834 0
M  V30 3290 H 315.498 2.80164 -1.42673 0
M  V30 3291 N 319.27 1.56325 -0.20005 0
M  V30 3292 C 320.18 2.22931 0.730668 0
M  V30 3293 C 321.196 1.22997 1.23076 0
M  V30 3294 O 322.372 1.55748 1.27689 0
M  V30 3295 C 319.437 2.87948 1.93098 0
M  V30 3296 C 318.498 4.03166 1.47497 0
M  V30 3297 C 317.731 4.65073 2.61807 0
M  V30 3298 O 317.954 4.25913 3.79413 0
M  V30 3299 O 316.888 5.54452 2.34237 0
M  V30 3300 H 320.714 3.03084 0.193391 0
M  V30 3301 H 318.299 1.49371 0.0294621 0
M  V30 3302 H 320.181 3.29063 2.6324 0
M  V30 3303 H 318.856 2.10771 2.45677 0
M  V30 3304 H 317.763 3.66664 0.742201 0
M  V30 3305 H 319.096 4.82022 0.995796 0
M  V30 3306 N 320.748 -0.0735177 1.57428 0
M  V30 3307 C 321.678 -1.0879 2.06608 0
M  V30 3308 C 322.659 -1.40473 0.959237 0
M  V30 3309 O 323.844 -1.5013 1.23185 0
M  V30 3310 C 320.974 -2.40183 2.50857 0
M  V30 3311 C 319.928 -2.22858 3.65402 0
M  V30 3312 C 319.254 -3.59619 3.957 0
M  V30 3313 C 320.554 -1.65123 4.95511 0
M  V30 3314 H 322.248 -0.678673 2.91607 0
M  V30 3315 H 319.794 -0.325013 1.40284 0
M  V30 3316 H 321.747 -3.11437 2.83874 0
M  V30 3317 H 320.471 -2.83083 1.62885 0
M  V30 3318 H 319.13 -1.54045 3.32664 0
M  V30 3319 H 318.778 -4.00086 3.04861 0
M  V30 3320 H 318.478 -3.48866 4.72828 0
M  V30 3321 H 320.002 -4.32306 4.31212 0
M  V30 3322 H 321.416 -2.26241 5.26771 0
M  V30 3323 H 319.813 -1.65071 5.7695 0
M  V30 3324 H 320.883 -0.612559 4.81015 0
M  V30 3325 N 322.226 -1.5378 -0.344866 0
M  V30 3326 C 323.173 -1.81676 -1.42346 0
M  V30 3327 C 324.143 -0.662376 -1.52321 0
M  V30 3328 O 325.328 -0.906675 -1.67881 0
M  V30 3329 C 322.468 -2.03087 -2.79015 0
M  V30 3330 C 321.581 -3.30799 -2.77842 0
M  V30 3331 C 320.716 -3.42285 -4.0622 0
M  V30 3332 C 319.755 -4.6395 -3.9927 0
M  V30 3333 N 318.892 -4.72477 -5.19336 0
M  V30 3334 H 323.732 -2.73703 -1.17858 0
M  V30 3335 H 321.269 -1.35568 -0.570949 0
M  V30 3336 H 323.227 -2.1349 -3.58438 0
M  V30 3337 H 321.857 -1.14375 -3.01858 0
M  V30 3338 H 320.909 -3.29244 -1.90533 0
M  V30 3339 H 322.221 -4.20314 -2.68584 0
M  V30 3340 H 321.375 -3.52113 -4.94066 0
M  V30 3341 H 320.114 -2.50823 -4.18258 0
M  V30 3342 H 319.119 -4.54201 -3.09809 0
M  V30 3343 H 320.344 -5.56775 -3.88817 0
M  V30 3344 H 318.29 -3.83924 -5.3192 0
M  V30 3345 H 318.207 -5.55927 -5.12329 0
M  V30 3346 H 319.475 -4.86613 -6.08957 0
M  V30 3347 N 323.704 0.605807 -1.45491 0
M  V30 3348 C 325.115 1.18777 -1.44045 0
M  V30 3349 C 325.466 1.95471 -0.169001 0
M  V30 3350 O 324.591 2.0374 0.729324 0
M  V30 3351 C 325.186 2.16064 -2.60963 0
M  V30 3352 C 323.745 2.69633 -2.62631 0
M  V30 3353 C 322.892 1.45072 -2.36325 0
M  V30 3354 H 325.843 0.395017 -1.53705 0
M  V30 3355 H 325.864 2.9913 -2.35163 0
M  V30 3356 H 325.376 1.60217 -3.53486 0
M  V30 3357 H 323.477 3.29414 -1.74119 0
M  V30 3358 H 323.59 3.13944 -3.61906 0
M  V30 3359 H 321.954 1.74089 -1.85917 0
M  V30 3360 H 322.737 0.910899 -3.30995 0
M  V30 3361 N 325.182 1.32811 0.848464 0
M  V30 3362 C 326.43 1.23479 1.59991 0
M  V30 3363 C 326.751 -0.201853 1.93952 0
M  V30 3364 O 326.021 -1.12818 1.60153 0
M  V30 3365 H 324.601 0.454034 0.593179 0
M  V30 3366 H 327.263 1.66412 1.01455 0
M  V30 3367 H 326.359 1.82178 2.53412 0
M  V30 3368 N 326.66 -1.06551 1.16123 0
M  V30 3369 C 327.607 -2.13961 0.865414 0
M  V30 3370 C 328.577 -1.65066 -0.185055 0
M  V30 3371 O 329.762 -1.90732 -0.05083 0
M  V30 3372 C 326.902 -3.43113 0.369776 0
M  V30 3373 C 326.015 -4.05756 1.48276 0
M  V30 3374 C 325.15 -5.22773 0.942414 0
M  V30 3375 C 324.189 -5.77395 2.03179 0
M  V30 3376 N 323.326 -6.85731 1.50721 0
M  V30 3377 H 328.166 -2.38605 1.78527 0
M  V30 3378 H 325.703 -1.17072 0.890646 0
M  V30 3379 H 327.661 -4.17151 0.0640643 0
M  V30 3380 H 326.291 -3.18695 -0.513143 0
M  V30 3381 H 325.343 -3.29292 1.9045 0
M  V30 3382 H 326.655 -4.42351 2.30493 0
M  V30 3383 H 325.809 -6.03827 0.589729 0
M  V30 3384 H 324.548 -4.87618 0.0895191 0
M  V30 3385 H 323.553 -4.94981 2.3932 0
M  V30 3386 H 324.778 -6.14603 2.8886 0
M  V30 3387 H 322.724 -6.52499 0.676811 0
M  V30 3388 H 322.641 -7.21254 2.26557 0
M  V30 3389 H 323.909 -7.7047 1.18303 0
M  V30 3390 N 328.138 -0.959301 -1.25041 0
M  V30 3391 C 329.415 -0.533805 -1.88175 0
M  V30 3392 C 329.795 0.988994 -1.865 0
M  V30 3393 O 329.143 1.85677 -1.33177 0
M  V30 3394 C 329.353 -1.11575 -3.30684 0
M  V30 3395 C 330.701 -1.19548 -4.07423 0
M  V30 3396 O 331.725 -1.06765 -3.39823 0
M  V30 3397 O 330.584 -1.39656 -5.28354 0
M  V30 3398 H 327.678 -0.176772 -0.807887 0
M  V30 3399 H 330.224 -1.05303 -1.33076 0
M  V30 3400 H 328.996 -2.15884 -3.26358 0
M  V30 3401 H 328.619 -0.580059 -3.93346 0
M  V30 3402 N 329.616 1.39756 -0.72842 0
M  V30 3403 C 330.862 2.00942 -0.273892 0
M  V30 3404 C 331.195 1.57656 1.13394 0
M  V30 3405 O 330.47 0.802434 1.77176 0
M  V30 3406 C 330.753 3.58211 -0.368346 0
M  V30 3407 C 330.606 4.11534 -1.81548 0
M  V30 3408 C 331.925 4.39372 0.253054 0
M  V30 3409 H 329.044 0.730047 -0.100996 0
M  V30 3410 H 331.686 1.66056 -0.923337 0
M  V30 3411 H 329.836 3.88061 0.184588 0
M  V30 3412 H 331.508 3.92431 -2.42478 0
M  V30 3413 H 329.751 3.65341 -2.33898 0
M  V30 3414 H 330.422 5.20682 -1.83288 0
M  V30 3415 H 332.898 4.15527 -0.218224 0
M  V30 3416 H 331.774 5.48677 0.156585 0
M  V30 3417 H 332.035 4.21358 1.33826 0
M  V30 3418 N 331.094 0.475555 1.50254 0
M  V30 3419 C 332.34 -0.0780073 2.0265 0
M  V30 3420 C 332.673 -1.38968 1.35652 0
M  V30 3421 O 331.948 -1.8839 0.483691 0
M  V30 3422 C 332.231 -0.257161 3.59181 0
M  V30 3423 C 332.084 1.07585 4.36744 0
M  V30 3424 C 333.403 -1.00965 4.28362 0
M  V30 3425 H 330.522 -0.0268758 0.73651 0
M  V30 3426 H 333.164 0.622015 1.7953 0
M  V30 3427 H 331.314 -0.853412 3.79011 0
M  V30 3428 H 332.986 1.70902 4.28474 0
M  V30 3429 H 331.229 1.6714 4.00308 0
M  V30 3430 H 331.9 0.904088 5.44546 0
M  V30 3431 H 334.376 -0.504214 4.13034 0
M  V30 3432 H 333.252 -1.10381 5.37687 0
M  V30 3433 H 333.513 -2.04731 3.91839 0
M  V30 3434 N 332.573 -1.56217 0.208337 0
M  V30 3435 C 333.819 -1.98998 -0.42086 0
M  V30 3436 C 334.174 -1.09331 -1.58317 0
M  V30 3437 O 333.467 -0.140466 -1.91084 0
M  V30 3438 C 333.661 -3.45441 -0.916797 0
M  V30 3439 C 333.49 -4.49273 0.195925 0
M  V30 3440 C 332.26 -5.00998 0.657956 0
M  V30 3441 C 334.458 -5.04294 1.00956 0
M  V30 3442 N 332.44 -5.88514 1.74712 0
M  V30 3443 C 333.811 -5.88607 1.94785 0
M  V30 3444 C 335.866 -4.86692 1.05049 0
M  V30 3445 C 334.569 -6.572 2.9237 0
M  V30 3446 C 336.595 -5.56034 2.01446 0
M  V30 3447 C 335.957 -6.40105 2.94016 0
M  V30 3448 H 332.056 -0.772574 -0.121048 0
M  V30 3449 H 334.64 -1.92101 0.317075 0
M  V30 3450 H 332.811 -3.52812 -1.62413 0
M  V30 3451 H 334.543 -3.75164 -1.51771 0
M  V30 3452 H 331.298 -4.72945 0.248912 0
M  V30 3453 H 331.722 -6.36975 2.2933 0
M  V30 3454 H 336.364 -4.21359 0.348759 0
M  V30 3455 H 334.082 -7.21723 3.63512 0
M  V30 3456 H 337.668 -5.44385 2.0527 0
M  V30 3457 H 336.548 -6.92816 3.6739 0
M  V30 3458 N 334.051 0.0651679 -1.57465 0
M  V30 3459 C 334.981 1.07693 -2.07182 0
M  V30 3460 C 335.962 1.39962 -0.966673 0
M  V30 3461 O 337.147 1.49475 -1.2398 0
M  V30 3462 C 334.277 2.3885 -2.52127 0
M  V30 3463 C 333.231 2.20917 -3.66579 0
M  V30 3464 C 332.557 3.57515 -3.97601 0
M  V30 3465 C 333.857 1.62493 -4.9638 0
M  V30 3466 H 335.551 0.663199 -2.91962 0
M  V30 3467 H 333.097 0.317569 -1.40455 0
M  V30 3468 H 335.05 3.09928 -2.85522 0
M  V30 3469 H 333.774 2.82215 -1.64384 0
M  V30 3470 H 332.433 1.52279 -3.33477 0
M  V30 3471 H 332.081 3.98463 -3.06979 0
M  V30 3472 H 331.781 3.46353 -4.74672 0
M  V30 3473 H 333.305 4.30013 -4.33499 0
M  V30 3474 H 334.719 2.23445 -5.27963 0
M  V30 3475 H 333.116 1.62009 -5.77818 0
M  V30 3476 H 334.186 0.587041 -4.81333 0
M  V30 3477 N 335.529 1.53961 0.336706 0
M  V30 3478 C 336.461 1.78751 1.4346 0
M  V30 3479 C 337.474 0.669019 1.48418 0
M  V30 3480 O 338.663 0.945884 1.51378 0
M  V30 3481 C 335.763 1.87844 2.82078 0
M  V30 3482 C 334.936 3.17854 3.00479 0
M  V30 3483 C 333.995 3.17816 4.19379 0
M  V30 3484 O 333.021 3.91511 4.13168 0
M  V30 3485 N 334.223 2.40669 5.2826 0
M  V30 3486 H 336.988 2.73493 1.22563 0
M  V30 3487 H 334.549 1.53096 0.526625 0
M  V30 3488 H 336.541 1.85261 3.59806 0
M  V30 3489 H 335.111 1.00257 2.96086 0
M  V30 3490 H 334.331 3.33504 2.10163 0
M  V30 3491 H 335.619 4.03718 3.0966 0
M  V30 3492 H 335.017 1.8036 5.36178 0
M  V30 3493 H 333.574 2.43877 6.04456 0
M  V30 3494 N 337.007 -0.598083 1.45811 0
M  V30 3495 C 338.253 -1.35882 1.50545 0
M  V30 3496 C 338.586 -1.93616 0.150445 0
M  V30 3497 O 337.861 -1.75604 -0.83628 0
M  V30 3498 C 338.144 -2.49966 2.59208 0
M  V30 3499 C 337.997 -1.97367 4.04186 0
M  V30 3500 C 339.316 -3.52068 2.64076 0
M  V30 3501 H 336.435 -0.492717 0.548087 0
M  V30 3502 H 339.077 -0.673319 1.77669 0
M  V30 3503 H 337.227 -3.08443 2.3621 0
M  V30 3504 H 338.899 -1.43466 4.38423 0
M  V30 3505 H 337.142 -1.283 4.14393 0
M  V30 3506 H 337.813 -2.79649 4.75921 0
M  V30 3507 H 340.289 -3.03448 2.84708 0
M  V30 3508 H 339.165 -4.2937 3.41954 0
M  V30 3509 H 339.426 -4.08304 1.69531 0
M  V30 3510 N 338.485 -1.33259 -0.841409 0
M  V30 3511 C 339.896 -1.22066 -1.41269 0
M  V30 3512 C 340.247 0.161479 -1.95534 0
M  V30 3513 O 339.372 1.06094 -1.88608 0
M  V30 3514 C 339.967 -2.20996 -2.568 0
M  V30 3515 C 338.526 -2.13649 -3.09888 0
M  V30 3516 C 337.673 -2.08623 -1.82679 0
M  V30 3517 H 340.624 -1.44895 -0.647395 0
M  V30 3518 H 340.645 -1.81621 -3.34356 0
M  V30 3519 H 340.157 -3.2158 -2.17274 0
M  V30 3520 H 338.258 -1.16359 -3.53965 0
M  V30 3521 H 338.371 -3.04079 -3.70234 0
M  V30 3522 H 336.735 -1.54061 -2.02824 0
M  V30 3523 H 337.518 -3.1101 -1.45353 0
M  V30 3524 N 339.963 1.05934 -1.16686 0
M  V30 3525 C 341.21 1.788 -0.950622 0
M  V30 3526 C 341.538 1.87384 0.521305 0
M  V30 3527 O 340.793 1.36438 1.40297 0
M  V30 3528 C 341.092 3.23105 -1.52767 0
M  V30 3529 C 340.758 3.34594 -3.02254 0
M  V30 3530 C 339.42 3.37437 -3.43059 0
M  V30 3531 C 341.772 3.36219 -3.98254 0
M  V30 3532 C 339.1 3.39525 -4.78477 0
M  V30 3533 C 341.452 3.39845 -5.33562 0
M  V30 3534 C 340.116 3.40971 -5.73842 0
M  V30 3535 H 339.386 0.654275 -0.347857 0
M  V30 3536 H 342.033 1.24555 -1.45459 0
M  V30 3537 H 340.338 3.80227 -0.94524 0
M  V30 3538 H 342.035 3.7809 -1.336 0
M  V30 3539 H 338.625 3.3309 -2.6972 0
M  V30 3540 H 342.809 3.33231 -3.67792 0
M  V30 3541 H 338.065 3.38703 -5.09009 0
M  V30 3542 H 342.239 3.4005 -6.07733 0
M  V30 3543 H 339.866 3.42342 -6.78753 0
M  V30 3544 N 341.441 0.965919 1.2453 0
M  V30 3545 C 342.666 0.643971 1.97149 0
M  V30 3546 C 343.091 -0.779487 1.71189 0
M  V30 3547 O 342.449 -1.5288 0.974553 0
M  V30 3548 C 342.497 0.922557 3.48599 0
M  V30 3549 O 341.601 0.00707672 4.12399 0
M  V30 3550 H 340.942 0.243647 0.617683 0
M  V30 3551 H 343.472 1.29558 1.58353 0
M  V30 3552 H 343.482 0.853373 3.98976 0
M  V30 3553 H 342.157 1.95996 3.66822 0
M  V30 3554 H 340.734 0.12943 3.72675 0
M  V30 3555 N 342.919 -1.39368 0.735821 0
M  V30 3556 C 343.882 -2.2896 0.104874 0
M  V30 3557 C 344.882 -1.46347 -0.666274 0
M  V30 3558 O 346.072 -1.67014 -0.49517 0
M  V30 3559 C 343.204 -3.29857 -0.860656 0
M  V30 3560 H 344.397 -2.86259 0.894205 0
M  V30 3561 H 341.95 -1.48029 0.501704 0
M  V30 3562 H 342.685 -2.77615 -1.67631 0
M  V30 3563 H 342.47 -3.9087 -0.310327 0
M  V30 3564 H 343.96 -3.96893 -1.29867 0
M  V30 3565 N 344.397 -0.483516 -1.5 0
M  V30 3566 C 345.327 0.293829 -2.31644 0
M  V30 3567 C 346.308 0.978864 -1.39112 0
M  V30 3568 O 347.493 0.973644 -1.68029 0
M  V30 3569 C 344.623 1.36897 -3.19181 0
M  V30 3570 C 343.577 0.804833 -4.20365 0
M  V30 3571 C 342.903 1.9792 -4.96721 0
M  V30 3572 C 344.203 -0.192313 -5.21946 0
M  V30 3573 H 345.897 -0.387616 -2.9688 0
M  V30 3574 H 343.443 -0.187856 -1.42769 0
M  V30 3575 H 345.396 1.92037 -3.751 0
M  V30 3576 H 344.12 2.07936 -2.51853 0
M  V30 3577 H 342.779 0.275319 -3.65565 0
M  V30 3578 H 342.427 2.67686 -4.25856 0
M  V30 3579 H 342.127 1.60789 -5.65173 0
M  V30 3580 H 343.651 2.53526 -5.55479 0
M  V30 3581 H 345.065 0.270333 -5.72662 0
M  V30 3582 H 343.462 -0.478543 -5.98189 0
M  V30 3583 H 344.532 -1.11409 -4.71928 0
M  V30 3584 N 345.875 1.56104 -0.216619 0
M  V30 3585 C 347.286 1.844 0.292128 0
M  V30 3586 C 347.637 1.13788 1.59833 0
M  V30 3587 O 346.762 0.405888 2.12559 0
M  V30 3588 C 347.357 3.3452 0.53681 0
M  V30 3589 C 345.916 3.63151 0.989876 0
M  V30 3590 C 345.063 2.77255 0.0502302 0
M  V30 3591 H 348.014 1.52481 -0.439926 0
M  V30 3592 H 348.035 3.54459 1.38345 0
M  V30 3593 H 347.547 3.85885 -0.414031 0
M  V30 3594 H 345.648 3.17238 1.95425 0
M  V30 3595 H 345.761 4.71177 0.867698 0
M  V30 3596 H 344.125 2.48555 0.556117 0
M  V30 3597 H 344.908 3.31416 -0.89544 0
M  V30 3598 N 347.353 -0.0568162 1.57498 0
M  V30 3599 C 348.601 -0.751617 1.87604 0
M  V30 3600 C 348.922 -1.77351 0.81066 0
M  V30 3601 O 348.192 -1.95254 -0.159018 0
M  V30 3602 H 346.772 -0.280583 0.692302 0
M  V30 3603 H 349.434 -0.0293483 1.94878 0
M  V30 3604 H 348.53 -1.25852 2.856 0
M  V30 3605 N 348.832 -1.54138 -0.328536 0
M  V30 3606 C 350.109 -1.62749 -1.08499 0
M  V30 3607 C 350.489 -0.458198 -2.06067 0
M  V30 3608 O 349.837 0.548046 -2.2183 0
M  V30 3609 C 350.047 -2.99519 -1.79135 0
M  V30 3610 C 351.395 -3.55394 -2.32337 0
M  V30 3611 O 352.419 -3.01792 -1.89209 0
M  V30 3612 O 351.278 -4.49186 -3.11279 0
M  V30 3613 H 348.372 -0.65886 -0.499832 0
M  V30 3614 H 350.918 -1.66484 -0.328826 0
M  V30 3615 H 349.69 -3.76061 -1.08139 0
M  V30 3616 H 349.313 -2.99441 -2.61574 0
M  V30 3617 N 350.31 0.590341 -1.46126 0
M  V30 3618 C 351.257 1.69994 -1.56111 0
M  V30 3619 C 352.227 1.61065 -0.405867 0
M  V30 3620 O 353.412 1.8039 -0.621613 0
M  V30 3621 C 350.552 3.08326 -1.55013 0
M  V30 3622 C 349.665 3.27936 -2.81215 0
M  V30 3623 C 348.8 4.56473 -2.71673 0
M  V30 3624 C 347.839 4.694 -3.92849 0
M  V30 3625 N 346.976 5.89254 -3.81738 0
M  V30 3626 H 351.816 1.60797 -2.50895 0
M  V30 3627 H 349.353 0.783799 -1.24479 0
M  V30 3628 H 351.311 3.88383 -1.52362 0
M  V30 3629 H 349.941 3.16439 -0.637667 0
M  V30 3630 H 348.993 2.41536 -2.93879 0
M  V30 3631 H 350.305 3.33357 -3.71045 0
M  V30 3632 H 349.459 5.44748 -2.67085 0
M  V30 3633 H 348.198 4.53477 -1.7947 0
M  V30 3634 H 347.203 3.79544 -3.97777 0
M  V30 3635 H 348.428 4.7418 -4.86138 0
M  V30 3636 H 346.374 5.87271 -2.92317 0
M  V30 3637 H 346.291 5.95911 -4.65217 0
M  V30 3638 H 347.559 6.79981 -3.81112 0
M  V30 3639 N 351.788 1.33704 0.83433 0
M  V30 3640 C 352.736 1.24323 1.96587 0
M  V30 3641 C 353.73 0.143659 1.6879 0
M  V30 3642 O 354.936 0.30791 1.77347 0
M  V30 3643 H 351.311 0.385925 0.645419 0
M  V30 3644 H 353.282 2.19978 2.01624 0
M  V30 3645 C 352.031 1.00394 3.32891 0
M  V30 3646 H 351.354 1.84231 3.54822 0
M  V30 3647 H 352.794 0.97862 4.12552 0
M  V30 3648 C 351.253 -0.293047 3.35623 0
M  V30 3649 O 351.783 -1.29823 3.80143 0
M  V30 3650 N 349.989 -0.322174 2.88809 0
M  V30 3651 H 349.536 0.496379 2.52772 0
M  V30 3652 H 349.494 -1.18977 2.91019 0
M  V30 3653 N 353.266 -1.05314 1.17247 0
M  V30 3654 C 354.229 -2.112 0.890357 0
M  V30 3655 C 355.229 -1.60359 -0.118943 0
M  V30 3656 O 356.419 -1.73833 0.113086 0
M  V30 3657 C 353.551 -3.39266 0.333422 0
M  V30 3658 H 354.744 -2.37659 1.82916 0
M  V30 3659 H 352.297 -1.21538 0.982758 0
M  V30 3660 H 353.032 -3.18462 -0.612587 0
M  V30 3661 H 352.817 -3.77477 1.06082 0
M  V30 3662 H 354.307 -4.17315 0.154322 0
M  V30 3663 N 354.744 -0.972509 -1.24016 0
M  V30 3664 C 356.021 -0.553733 -1.87598 0
M  V30 3665 C 356.401 0.969158 -1.87538 0
M  V30 3666 O 355.749 1.84255 -1.35139 0
M  V30 3667 C 355.959 -1.15076 -3.29482 0
M  V30 3668 C 357.307 -1.23862 -4.06132 0
M  V30 3669 O 358.331 -1.10363 -3.38672 0
M  V30 3670 O 357.19 -1.45252 -5.26844 0
M  V30 3671 H 354.284 -0.185331 -0.805966 0
M  V30 3672 H 356.83 -1.06709 -1.31952 0
M  V30 3673 H 355.602 -2.19333 -3.2405 0
M  V30 3674 H 355.225 -0.621746 -3.92709 0
M  V30 3675 N 356.222 1.38976 -0.743202 0
M  V30 3676 C 357.45 2.04636 -0.30525 0
M  V30 3677 C 357.865 1.56044 1.06281 0
M  V30 3678 O 357.222 0.728921 1.67311 0
M  V30 3679 C 357.273 3.60193 -0.307177 0
M  V30 3680 O 356.994 4.06998 -1.62124 0
M  V30 3681 C 358.495 4.4306 0.145928 0
M  V30 3682 H 355.715 0.65788 -0.132041 0
M  V30 3683 H 358.259 1.77866 -1.00915 0
M  V30 3684 H 356.414 3.85835 0.347898 0
M  V30 3685 H 356.828 5.01371 -1.54036 0
M  V30 3686 H 358.302 5.51921 0.0934183 0
M  V30 3687 H 358.779 4.22706 1.19231 0
M  V30 3688 H 359.385 4.22584 -0.479886 0
M  V30 3689 N 357.7 0.491464 1.49741 0
M  V30 3690 C 358.647 -0.292027 2.28945 0
M  V30 3691 C 359.617 -0.968973 1.34908 0
M  V30 3692 O 360.802 -0.97748 1.6386 0
M  V30 3693 C 357.942 -1.35617 3.17336 0
M  V30 3694 C 357.055 -0.691957 4.26422 0
M  V30 3695 C 356.19 -1.73572 5.02042 0
M  V30 3696 C 355.229 -1.05286 6.02977 0
M  V30 3697 N 354.366 -2.0404 6.71798 0
M  V30 3698 H 359.206 0.389654 2.95442 0
M  V30 3699 H 356.743 0.204003 1.45679 0
M  V30 3700 H 358.701 -1.98502 3.66951 0
M  V30 3701 H 357.331 -2.00674 2.52844 0
M  V30 3702 H 356.383 0.0499523 3.80367 0
M  V30 3703 H 357.695 -0.153946 4.98562 0
M  V30 3704 H 356.849 -2.43987 5.55478 0
M  V30 3705 H 355.588 -2.30757 4.29654 0
M  V30 3706 H 354.593 -0.334446 5.48782 0
M  V30 3707 H 355.818 -0.487636 6.77347 0
M  V30 3708 H 353.764 -2.60205 6.02187 0
M  V30 3709 H 353.681 -1.55279 7.39881 0
M  V30 3710 H 354.949 -2.73772 7.29842 0
M  V30 3711 N 359.178 -1.55987 0.224894 0
M  V30 3712 C 360.108 -2.23426 -0.678457 0
M  V30 3713 C 361.089 -1.20709 -1.19847 0
M  V30 3714 O 362.274 -1.49304 -1.24186 0
M  V30 3715 C 359.404 -2.91676 -1.88527 0
M  V30 3716 C 358.358 -4.00893 -1.49896 0
M  V30 3717 C 357.684 -4.56455 -2.78483 0
M  V30 3718 C 358.984 -5.17769 -0.686461 0
M  V30 3719 H 360.678 -2.99175 -0.116173 0
M  V30 3720 H 358.224 -1.43897 -0.054436 0
M  V30 3721 H 360.177 -3.37547 -2.5227 0
M  V30 3722 H 358.901 -2.1338 -2.47258 0
M  V30 3723 H 357.56 -3.55758 -0.884985 0
M  V30 3724 H 357.208 -3.74886 -3.35365 0
M  V30 3725 H 356.908 -5.30169 -2.53368 0
M  V30 3726 H 358.432 -5.05047 -3.43162 0
M  V30 3727 H 359.846 -5.60001 -1.22767 0
M  V30 3728 H 358.243 -5.97735 -0.532259 0
M  V30 3729 H 359.313 -4.83932 0.306196 0
M  V30 3730 N 360.656 0.0484629 -1.57525 0
M  V30 3731 C 362.067 0.597486 -1.76881 0
M  V30 3732 C 362.418 1.76664 -0.853475 0
M  V30 3733 O 361.543 2.16357 -0.0433656 0
M  V30 3734 C 362.138 1.09066 -3.20765 0
M  V30 3735 C 360.697 1.58535 -3.41385 0
M  V30 3736 C 359.844 0.514868 -2.72478 0
M  V30 3737 H 362.795 -0.177758 -1.57701 0
M  V30 3738 H 362.816 1.95875 -3.2621 0
M  V30 3739 H 362.328 0.239521 -3.8736 0
M  V30 3740 H 360.429 2.45898 -2.79937 0
M  V30 3741 H 360.542 1.64622 -4.49929 0
M  V30 3742 H 358.906 0.965407 -2.35695 0
M  V30 3743 H 359.689 -0.32648 -3.41744 0
M  V30 3744 N 362.134 1.5431 0.320358 0
M  V30 3745 C 363.082 1.84647 1.4145 0
M  V30 3746 C 364.076 0.718624 1.53402 0
M  V30 3747 O 365.282 0.902335 1.5575 0
M  V30 3748 H 361.657 0.585349 0.472091 0
M  V30 3749 H 363.628 2.7614 1.13089 0
M  V30 3750 C 362.377 2.09341 2.77617 0
M  V30 3751 H 361.7 2.9559 2.69196 0
M  V30 3752 H 363.14 2.3452 3.53237 0
M  V30 3753 C 361.599 0.885939 3.25043 0
M  V30 3754 O 362.129 0.0967891 4.01583 0
M  V30 3755 N 360.335 0.696682 2.82125 0
M  V30 3756 H 359.882 1.34006 2.2 0
M  V30 3757 H 359.84 -0.109712 3.14209 0
M  V30 3758 N 363.613 -0.582584 1.46437 0
M  V30 3759 C 364.861 -1.33814 1.51453 0
M  V30 3760 C 365.182 -1.94277 0.167792 0
M  V30 3761 O 364.452 -1.78566 -0.805677 0
M  V30 3762 H 363.032 -0.496838 0.557818 0
M  V30 3763 H 365.694 -0.682281 1.82568 0
M  V30 3764 H 364.79 -2.14479 2.26728 0
M  V30 3765 N 365.091 -1.34144 -0.827227 0
M  V30 3766 C 366.054 -1.25264 -1.91942 0
M  V30 3767 C 367.054 -0.168866 -1.59911 0
M  V30 3768 O 368.244 -0.421198 -1.69031 0
M  V30 3769 C 365.376 -0.932952 -3.27885 0
M  V30 3770 H 366.569 -2.22357 -2.0124 0
M  V30 3771 H 364.122 -1.1837 -1.0207 0
M  V30 3772 H 364.857 0.0349917 -3.24281 0
M  V30 3773 H 364.642 -1.71682 -3.52516 0
M  V30 3774 H 366.132 -0.895874 -4.07877 0
M  V30 3775 N 366.569 1.04691 -1.17803 0
M  V30 3776 C 367.517 2.14665 -0.895635 0
M  V30 3777 C 368.511 1.68806 0.141679 0
M  V30 3778 O 369.717 1.79999 -0.00587914 0
M  V30 3779 H 366.092 0.701038 -0.272121 0
M  V30 3780 H 368.063 2.35685 -1.83017 0
M  V30 3781 C 366.812 3.45019 -0.430962 0
M  V30 3782 H 366.135 3.8071 -1.22064 0
M  V30 3783 H 367.575 4.23125 -0.272301 0
M  V30 3784 C 366.034 3.25943 0.852207 0
M  V30 3785 O 366.564 3.5296 1.91786 0
M  V30 3786 N 364.77 2.79304 0.802346 0
M  V30 3787 H 364.317 2.57518 -0.0650788 0
M  V30 3788 H 364.275 2.66921 1.66134 0
M  V30 3789 N 368.047 0.979072 1.23499 0
M  V30 3790 C 369.277 0.664237 1.95631 0
M  V30 3791 C 369.685 -0.772653 1.72704 0
M  V30 3792 O 369.028 -1.53141 1.01457 0
M  V30 3793 C 369.09 0.873115 3.48736 0
M  V30 3794 C 368.754 2.29182 3.95379 0
M  V30 3795 C 369.751 3.2704 4.04155 0
M  V30 3796 C 367.436 2.62256 4.28401 0
M  V30 3797 C 369.43 4.56052 4.45304 0
M  V30 3798 C 367.117 3.91491 4.69231 0
M  V30 3799 C 368.115 4.88201 4.77649 0
M  V30 3800 O 367.803 6.15129 5.17563 0
M  V30 3801 H 367.535 0.245915 0.629684 0
M  V30 3802 H 370.089 1.3127 1.57979 0
M  V30 3803 H 368.319 0.167476 3.86337 0
M  V30 3804 H 370.008 0.555642 4.02079 0
M  V30 3805 H 370.774 3.02819 3.78848 0
M  V30 3806 H 366.653 1.87692 4.21061 0
M  V30 3807 H 370.197 5.31538 4.51789 0
M  V30 3808 H 366.094 4.15508 4.93987 0
M  V30 3809 H 366.862 6.18862 5.35679 0
M  V30 3810 N 369.525 -1.3858 0.750561 0
M  V30 3811 C 370.773 -1.99789 0.30477 0
M  V30 3812 C 371.094 -1.59874 -1.11649 0
M  V30 3813 O 370.364 -0.85417 -1.76297 0
M  V30 3814 H 368.944 -0.738902 0.109694 0
M  V30 3815 H 371.606 -1.69391 0.963983 0
M  V30 3816 H 370.702 -3.09952 0.365499 0
M  V30 3817 N 371.003 -0.499398 -1.49478 0
M  V30 3818 C 372.25 0.0456899 -2.02448 0
M  V30 3819 C 372.578 1.37142 -1.37921 0
M  V30 3820 O 371.833 1.89111 -0.503544 0
M  V30 3821 C 372.132 0.248424 -3.56536 0
M  V30 3822 C 371.798 -0.999107 -4.39692 0
M  V30 3823 C 370.46 -1.34108 -4.62135 0
M  V30 3824 C 372.812 -1.82842 -4.88076 0
M  V30 3825 C 370.14 -2.51191 -5.30208 0
M  V30 3826 C 372.492 -2.99076 -5.57437 0
M  V30 3827 C 371.156 -3.33655 -5.78127 0
M  V30 3828 H 370.426 0.0167191 -0.740811 0
M  V30 3829 H 373.073 -0.65923 -1.79795 0
M  V30 3830 H 371.378 1.03586 -3.77859 0
M  V30 3831 H 373.075 0.684605 -3.95113 0
M  V30 3832 H 369.665 -0.722729 -4.22463 0
M  V30 3833 H 373.849 -1.57737 -4.70566 0
M  V30 3834 H 369.105 -2.78221 -5.44429 0
M  V30 3835 H 373.279 -3.63664 -5.93904 0
M  V30 3836 H 370.906 -4.24483 -6.30649 0
M  V30 3837 N 372.481 1.55866 -0.233164 0
M  V30 3838 C 373.892 1.847 0.272554 0
M  V30 3839 C 374.243 1.15477 1.58617 0
M  V30 3840 O 373.368 0.42841 2.12117 0
M  V30 3841 C 373.963 3.35071 0.501299 0
M  V30 3842 C 372.522 3.6418 0.951304 0
M  V30 3843 C 371.669 2.77292 0.0208209 0
M  V30 3844 H 374.62 1.52005 -0.456074 0
M  V30 3845 H 374.641 3.55906 1.34577 0
M  V30 3846 H 374.153 3.85424 -0.454936 0
M  V30 3847 H 372.254 3.19293 1.92049 0
M  V30 3848 H 372.367 4.72071 0.817675 0
M  V30 3849 H 370.731 2.49131 0.529723 0
M  V30 3850 H 371.514 3.30448 -0.93054 0
M  V30 3851 N 373.959 -0.0401083 1.57549 0
M  V30 3852 C 375.205 -0.734211 1.89043 0
M  V30 3853 C 375.538 -1.75591 0.829535 0
M  V30 3854 O 374.813 -1.93868 -0.156706 0
M  V30 3855 C 375.096 -1.41374 3.31188 0
M  V30 3856 C 374.949 -0.406299 4.47961 0
M  V30 3857 C 376.268 -2.35061 3.72068 0
M  V30 3858 H 373.387 -0.265447 0.687537 0
M  V30 3859 H 376.029 0.00294087 1.9 0
M  V30 3860 H 374.179 -2.04206 3.30503 0
M  V30 3861 H 375.851 0.219255 4.60779 0
M  V30 3862 H 374.094 0.275485 4.32924 0
M  V30 3863 H 374.765 -0.920022 5.44279 0
M  V30 3864 H 377.241 -1.82282 3.74049 0
M  V30 3865 H 376.117 -2.79593 4.72355 0
M  V30 3866 H 376.378 -3.21258 3.0372 0
M  V30 3867 N 375.437 -1.54477 -0.31217 0
M  V30 3868 C 376.662 -1.77526 -1.07235 0
M  V30 3869 C 377.087 -0.527775 -1.80544 0
M  V30 3870 O 376.445 0.52121 -1.73646 0
M  V30 3871 C 376.493 -2.97535 -2.03728 0
M  V30 3872 O 375.597 -2.69878 -3.11833 0
M  V30 3873 H 374.938 -0.58792 -0.30862 0
M  V30 3874 H 377.468 -2.01532 -0.352993 0
M  V30 3875 H 377.478 -3.25198 -2.46395 0
M  V30 3876 H 376.153 -3.87996 -1.49774 0
M  V30 3877 H 374.73 -2.53199 -2.7376 0
M  V30 3878 N 376.915 0.57481 -1.46744 0
M  V30 3879 C 378.143 1.35856 -1.56047 0
M  V30 3880 C 378.558 1.87691 -0.204365 0
M  V30 3881 O 377.915 1.64049 0.79963 0
M  V30 3882 C 377.966 2.54066 -2.57163 0
M  V30 3883 O 377.687 2.04377 -3.87507 0
M  V30 3884 C 379.188 3.46514 -2.76483 0
M  V30 3885 H 376.408 0.414754 -0.527466 0
M  V30 3886 H 378.952 0.698035 -1.92218 0
M  V30 3887 H 377.107 3.16092 -2.23974 0
M  V30 3888 H 377.521 2.81419 -4.4261 0
M  V30 3889 H 378.995 4.25919 -3.51137 0
M  V30 3890 H 379.472 3.98951 -1.83671 0
M  V30 3891 H 380.078 2.90318 -3.10799 0
M  V30 3892 N 378.394 1.34581 0.820102 0
M  V30 3893 C 379.327 1.20735 1.93644 0
M  V30 3894 C 380.305 0.0983343 1.62302 0
M  V30 3895 O 381.489 0.263997 1.86642 0
M  V30 3896 C 378.616 0.856037 3.27704 0
M  V30 3897 C 377.662 1.97521 3.78005 0
M  V30 3898 S 378.495 3.58906 3.97425 0
M  V30 3899 C 379.651 3.25822 5.34407 0
M  V30 3900 H 379.884 2.15231 2.05093 0
M  V30 3901 H 377.417 1.1964 0.97599 0
M  V30 3902 H 379.375 0.660133 4.05157 0
M  V30 3903 H 378.036 -0.0706253 3.14021 0
M  V30 3904 H 377.229 1.68321 4.75062 0
M  V30 3905 H 376.831 2.12875 3.07507 0
M  V30 3906 H 379.123 2.77812 6.17922 0
M  V30 3907 H 380.066 4.22029 5.68592 0
M  V30 3908 H 380.474 2.61932 5.00052 0
M  V30 3909 N 379.872 -1.04064 1.18357 0
M  V30 3910 C 380.822 -2.10393 0.878561 0
M  V30 3911 C 381.806 -1.60183 -0.151713 0
M  V30 3912 O 382.998 -1.76923 0.0523303 0
M  V30 3913 C 380.127 -3.4089 0.406096 0
M  V30 3914 C 379.213 -3.97866 1.46844 0
M  V30 3915 N 379.604 -4.28657 2.68489 0
M  V30 3916 C 377.902 -4.2574 1.32896 0
M  V30 3917 C 378.603 -4.74253 3.36836 0
M  V30 3918 N 377.579 -4.75068 2.64219 0
M  V30 3919 H 381.381 -2.32076 1.80327 0
M  V30 3920 H 378.895 -1.21818 1.07397 0
M  V30 3921 H 380.892 -4.16557 0.169088 0
M  V30 3922 H 379.552 -3.20633 -0.512275 0
M  V30 3923 H 380.563 -4.18304 3.05356 0
M  V30 3924 H 377.24 -4.1481 0.473134 0
M  V30 3925 H 378.63 -5.07096 4.40798 0
M  V30 3926 N 381.35 -0.985608 -1.22978 0
M  V30 3927 C 382.599 -0.652881 -1.90841 0
M  V30 3928 C 382.912 0.817842 -1.77681 0
M  V30 3929 O 384.118 1.26185 -2.40395 0
M  V30 3930 C 382.574 -1.11717 -3.42122 0
M  V30 3931 C 382.182 -2.6126 -3.63933 0
M  V30 3932 C 383.926 -0.85843 -4.1573 0
M  V30 3933 C 381.833 -3.0133 -5.08876 0
M  V30 3934 H 380.763 -0.240491 -0.714619 0
M  V30 3935 H 383.414 -1.1942 -1.39324 0
M  V30 3936 H 381.796 -0.504027 -3.92779 0
M  V30 3937 H 382.97 -3.27858 -3.23799 0
M  V30 3938 H 381.285 -2.84937 -3.03644 0
M  V30 3939 H 383.882 -1.13359 -5.22546 0
M  V30 3940 H 384.225 0.205461 -4.15793 0
M  V30 3941 H 384.758 -1.43341 -3.71077 0
M  V30 3942 H 381.497 -4.06864 -5.13947 0
M  V30 3943 H 381.017 -2.3943 -5.49939 0
M  V30 3944 H 382.696 -2.92224 -5.77247 0
M  V30 3945 N 382.828 1.3818 -0.7579 0
M  V30 3946 C 384.074 2.00316 -0.316453 0
M  V30 3947 C 384.407 1.60026 1.10025 0
M  V30 3948 O 383.682 0.839835 1.75434 0
M  V30 3949 C 383.965 3.57349 -0.444245 0
M  V30 3950 C 383.818 4.07591 -1.90236 0
M  V30 3951 C 385.137 4.3981 0.1598 0
M  V30 3952 H 382.256 0.727741 -0.116459 0
M  V30 3953 H 384.898 1.6406 -0.958352 0
M  V30 3954 H 383.048 3.88365 0.102233 0
M  V30 3955 H 384.72 3.87199 -2.50748 0
M  V30 3956 H 382.963 3.60297 -2.41595 0
M  V30 3957 H 383.634 5.16677 -1.94291 0
M  V30 3958 H 386.11 4.14971 -0.306314 0
M  V30 3959 H 384.986 5.48885 0.0401675 0
M  V30 3960 H 385.247 4.24102 1.24859 0
M  V30 3961 N 384.306 0.507319 1.49211 0
M  V30 3962 C 385.269 -0.256763 2.27757 0
M  V30 3963 C 386.269 -0.888287 1.34038 0
M  V30 3964 O 387.459 -0.751841 1.5714 0
M  V30 3965 C 384.591 -1.36905 3.12202 0
M  V30 3966 H 385.784 0.432557 2.96764 0
M  V30 3967 H 383.337 0.262488 1.5408 0
M  V30 3968 H 384.072 -2.09233 2.47775 0
M  V30 3969 H 383.857 -0.921599 3.81115 0
M  V30 3970 H 385.347 -1.9071 3.7151 0
M  V30 3971 N 385.784 -1.5574 0.241426 0
M  V30 3972 C 386.732 -2.22538 -0.676718 0
M  V30 3973 C 387.726 -1.21117 -1.18436 0
M  V30 3974 O 388.932 -1.39144 -1.14188 0
M  V30 3975 H 385.307 -0.713776 -0.236701 0
M  V30 3976 H 387.278 -2.98264 -0.0901187 0
M  V30 3977 C 386.027 -2.93439 -1.86518 0
M  V30 3978 H 385.35 -3.7125 -1.4837 0
M  V30 3979 H 386.79 -3.43549 -2.48495 0
M  V30 3980 C 385.249 -1.97008 -2.73294 0
M  V30 3981 O 385.779 -1.49965 -3.72657 0
M  V30 3982 N 383.985 -1.64227 -2.39745 0
M  V30 3983 H 383.532 -2.02677 -1.58996 0
M  V30 3984 H 383.49 -0.999708 -2.98083 0
M  V30 3985 N 387.262 0.0317525 -1.57568 0
M  V30 3986 C 388.209 1.0332 -2.06382 0
M  V30 3987 C 389.179 1.36082 -0.952414 0
M  V30 3988 O 390.364 1.46466 -1.2228 0
M  V30 3989 C 387.504 2.32989 -2.54578 0
M  V30 3990 C 386.617 2.0641 -3.79498 0
M  V30 3991 C 385.752 3.2993 -4.16317 0
M  V30 3992 C 384.791 2.98893 -5.34162 0
M  V30 3993 N 383.928 4.14857 -5.66426 0
M  V30 3994 H 388.768 0.609982 -2.9169 0
M  V30 3995 H 386.305 0.289573 -1.44222 0
M  V30 3996 H 388.263 3.0875 -2.80587 0
M  V30 3997 H 386.893 2.73039 -1.7219 0
M  V30 3998 H 385.945 1.21158 -3.6059 0
M  V30 3999 H 387.257 1.79513 -4.65378 0
M  V30 4000 H 386.411 4.1406 -4.4344 0
M  V30 4001 H 385.15 3.59938 -3.29083 0
M  V30 4002 H 384.155 2.13164 -5.06795 0
M  V30 4003 H 385.38 2.70165 -6.23047 0
M  V30 4004 H 383.326 4.44821 -4.82151 0
M  V30 4005 H 383.243 3.91374 -6.4681 0
M  V30 4006 H 384.511 4.99868 -5.98124 0
M  V30 4007 N 388.74 1.54641 0.303973 0
M  V30 4008 C 389.703 1.84646 1.35789 0
M  V30 4009 C 390.703 0.7192 1.4382 0
M  V30 4010 O 391.893 0.987491 1.43507 0
M  V30 4011 C 389.025 2.02407 2.74307 0
M  V30 4012 H 390.218 2.78829 1.10429 0
M  V30 4013 H 387.771 1.46658 0.540487 0
M  V30 4014 H 388.506 1.10502 3.04893 0
M  V30 4015 H 388.291 2.84453 2.69868 0
M  V30 4016 H 389.781 2.27002 3.50514 0
M  V30 4017 N 390.218 -0.567019 1.47046 0
M  V30 4018 C 391.464 -1.32434 1.54379 0
M  V30 4019 C 391.819 -1.91365 0.199276 0
M  V30 4020 O 391.112 -1.74378 -0.793915 0
M  V30 4021 C 391.306 -2.4623 2.59047 0
M  V30 4022 C 391.135 -1.98448 4.03545 0
M  V30 4023 C 389.905 -1.82741 4.71098 0
M  V30 4024 C 392.103 -1.53477 4.90866 0
M  V30 4025 N 390.085 -1.29196 6.00151 0
M  V30 4026 C 391.456 -1.1163 6.09868 0
M  V30 4027 C 393.511 -1.41438 4.77388 0
M  V30 4028 C 392.214 -0.589425 7.16881 0
M  V30 4029 C 394.24 -0.901528 5.84488 0
M  V30 4030 C 393.602 -0.492932 7.02673 0
M  V30 4031 H 389.701 -0.477005 0.61967 0
M  V30 4032 H 392.285 -0.643856 1.83746 0
M  V30 4033 H 390.456 -3.11821 2.31564 0
M  V30 4034 H 392.188 -3.13213 2.56281 0
M  V30 4035 H 388.943 -2.05162 4.26855 0
M  V30 4036 H 389.367 -1.0454 6.6888 0
M  V30 4037 H 394.009 -1.71643 3.86392 0
M  V30 4038 H 391.727 -0.274994 8.07632 0
M  V30 4039 H 395.313 -0.812071 5.76105 0
M  V30 4040 H 394.193 -0.102227 7.84133 0
M  V30 4041 N 391.696 -1.35014 -0.812953 0
M  V30 4042 C 392.659 -1.27292 -1.90602 0
M  V30 4043 C 393.659 -0.185817 -1.59723 0
M  V30 4044 O 394.849 -0.439102 -1.68575 0
M  V30 4045 C 391.981 -0.967676 -3.26877 0
M  V30 4046 H 393.174 -2.24479 -1.9887 0
M  V30 4047 H 390.727 -1.19446 -1.00808 0
M  V30 4048 H 391.462 0.0005954 -3.243 0
M  V30 4049 H 391.247 -1.75412 -3.50675 0
M  V30 4050 H 392.737 -0.939085 -4.06904 0
M  V30 4051 N 393.175 1.03435 -1.18907 0
M  V30 4052 C 394.085 2.15075 -0.937015 0
M  V30 4053 C 395.101 1.73706 0.101085 0
M  V30 4054 O 396.277 2.01232 -0.0822948 0
M  V30 4055 C 393.342 3.43458 -0.473057 0
M  V30 4056 C 392.403 3.99172 -1.57989 0
M  V30 4057 C 391.636 5.21427 -1.13797 0
M  V30 4058 O 391.859 5.704 0.000725941 0
M  V30 4059 O 390.793 5.69837 -1.9383 0
M  V30 4060 H 394.619 2.39198 -1.87131 0
M  V30 4061 H 392.204 1.13506 -0.971427 0
M  V30 4062 H 394.086 4.20811 -0.222702 0
M  V30 4063 H 392.761 3.20793 0.432869 0
M  V30 4064 H 391.668 3.23178 -1.88433 0
M  V30 4065 H 393.001 4.2619 -2.46217 0
M  V30 4066 N 394.653 0.992116 1.22453 0
M  V30 4067 C 395.6 0.541731 2.24352 0
M  V30 4068 C 396.57 -0.425519 1.60557 0
M  V30 4069 O 397.755 -0.330453 1.87917 0
M  V30 4070 C 394.895 -0.138248 3.44823 0
M  V30 4071 C 394.008 0.870649 4.23136 0
M  V30 4072 C 393.143 0.164269 5.30946 0
M  V30 4073 C 392.182 1.16159 6.00977 0
M  V30 4074 N 391.319 0.483568 7.00433 0
M  V30 4075 H 396.159 1.41541 2.62241 0
M  V30 4076 H 393.696 0.709013 1.28885 0
M  V30 4077 H 395.654 -0.5494 4.13567 0
M  V30 4078 H 394.284 -0.975721 3.077 0
M  V30 4079 H 393.336 1.40013 3.53696 0
M  V30 4080 H 394.648 1.63014 4.7141 0
M  V30 4081 H 393.802 -0.303653 6.0594 0
M  V30 4082 H 392.541 -0.627733 4.83643 0
M  V30 4083 H 391.546 1.64015 5.24766 0
M  V30 4084 H 392.771 1.95445 6.50368 0
M  V30 4085 H 390.717 -0.289012 6.55363 0
M  V30 4086 H 390.634 1.18152 7.4671 0
M  V30 4087 H 391.902 0.0384219 7.79491 0
M  V30 4088 N 396.131 -1.37776 0.765217 0
M  V30 4089 C 397.079 -2.32209 0.134798 0
M  V30 4090 C 398.073 -1.54607 -0.692315 0
M  V30 4091 O 399.279 -1.70052 -0.590109 0
M  V30 4092 H 395.654 -0.751591 0.0248005 0
M  V30 4093 H 397.625 -2.8297 0.947119 0
M  V30 4094 C 396.374 -3.39841 -0.735063 0
M  V30 4095 H 395.697 -3.99654 -0.107991 0
M  V30 4096 H 397.137 -4.08296 -1.14326 0
M  V30 4097 C 395.596 -2.79378 -1.88281 0
M  V30 4098 O 396.126 -2.69608 -2.97783 0
M  V30 4099 N 394.332 -2.37016 -1.68142 0
M  V30 4100 H 393.879 -2.45162 -0.790772 0
M  V30 4101 H 393.837 -1.96905 -2.45104 0
M  V30 4102 N 397.609 -0.515225 -1.4894 0
M  V30 4103 C 399.02 -0.0710067 -1.86565 0
M  V30 4104 C 399.371 1.34733 -1.42623 0
M  V30 4105 O 398.496 2.00653 -0.810379 0
M  V30 4106 C 399.091 -0.122083 -3.3858 0
M  V30 4107 C 397.65 0.266863 -3.75453 0
M  V30 4108 C 396.797 -0.488376 -2.72966 0
M  V30 4109 H 399.748 -0.727266 -1.41055 0
M  V30 4110 H 399.769 0.669818 -3.74558 0
M  V30 4111 H 399.281 -1.15448 -3.70531 0
M  V30 4112 H 397.382 1.30196 -3.49113 0
M  V30 4113 H 397.495 -0.0624811 -4.79059 0
M  V30 4114 H 395.859 0.0635622 -2.54621 0
M  V30 4115 H 396.642 -1.52113 -3.07761 0
M  V30 4116 N 399.087 1.5561 -0.249682 0
M  V30 4117 C 400.05 2.20217 0.635394 0
M  V30 4118 C 401.05 1.17227 1.10066 0
M  V30 4119 O 402.24 1.42292 1.00492 0
M  V30 4120 C 399.372 2.84794 1.87363 0
M  V30 4121 H 400.565 2.99814 0.0716752 0
M  V30 4122 H 398.118 1.563 -0.000153234 0
M  V30 4123 H 398.853 2.09142 2.47851 0
M  V30 4124 H 398.638 3.60241 1.5482 0
M  V30 4125 H 400.128 3.3423 2.5036 0
M  V30 4126 N 400.565 -0.0233959 1.57583 0
M  V30 4127 C 401.528 -1.00693 2.05897 0
M  V30 4128 C 402.528 -1.28693 0.964092 0
M  V30 4129 O 403.718 -1.23602 1.22753 0
M  V30 4130 C 400.85 -2.33825 2.4807 0
M  V30 4131 H 402.043 -0.589476 2.9405 0
M  V30 4132 H 399.596 -0.270354 1.53944 0
M  V30 4133 H 400.331 -2.80307 1.6309 0
M  V30 4134 H 400.116 -2.1483 3.2801 0
M  V30 4135 H 401.606 -3.04426 2.85857 0
M  V30 4136 N 402.043 -1.548 -0.295768 0
M  V30 4137 C 403.006 -1.85363 -1.34808 0
M  V30 4138 C 404.006 -0.726817 -1.43436 0
M  V30 4139 O 405.196 -0.995088 -1.42981 0
M  V30 4140 C 402.328 -2.03859 -2.73229 0
M  V30 4141 H 403.521 -2.7941 -1.08949 0
M  V30 4142 H 401.074 -1.46942 -0.532702 0
M  V30 4143 H 401.809 -1.12117 -3.04303 0
M  V30 4144 H 401.594 -2.8588 -2.68356 0
M  V30 4145 H 403.084 -2.28857 -3.49305 0
M  V30 4146 N 403.521 0.559213 -1.47345 0
M  V30 4147 C 404.468 1.66645 -1.59682 0
M  V30 4148 C 405.438 1.60168 -0.43994 0
M  V30 4149 O 406.623 1.79031 -0.659736 0
M  V30 4150 C 403.763 3.04969 -1.61518 0
M  V30 4151 C 402.876 3.21897 -2.88108 0
M  V30 4152 C 402.011 4.50608 -2.81294 0
M  V30 4153 C 401.05 4.60961 -4.02717 0
M  V30 4154 N 400.187 5.81024 -3.94151 0
M  V30 4155 H 405.027 1.55439 -2.54249 0
M  V30 4156 H 402.564 0.757219 -1.26113 0
M  V30 4157 H 404.522 3.85064 -1.60566 0
M  V30 4158 H 403.152 3.15015 -0.704645 0
M  V30 4159 H 402.204 2.35248 -2.98936 0
M  V30 4160 H 403.516 3.25412 -3.78032 0
M  V30 4161 H 402.67 5.3896 -2.7858 0
M  V30 4162 H 401.409 4.49568 -1.89049 0
M  V30 4163 H 400.414 3.71021 -4.05738 0
M  V30 4164 H 401.639 4.63761 -4.96087 0
M  V30 4165 H 399.585 5.80938 -3.04708 0
M  V30 4166 H 399.502 5.85909 -4.77752 0
M  V30 4167 H 400.77 6.71744 -3.9545 0
M  V30 4168 N 404.999 1.35443 0.805782 0
M  V30 4169 C 405.929 1.31095 1.93226 0
M  V30 4170 C 406.91 0.185244 1.69088 0
M  V30 4171 O 408.095 0.380332 1.90439 0
M  V30 4172 C 405.225 1.08299 3.29983 0
M  V30 4173 C 404.179 2.17519 3.68605 0
M  V30 4174 C 403.505 1.79887 5.03532 0
M  V30 4175 C 404.805 3.5949 3.78898 0
M  V30 4176 H 406.499 2.25352 1.97122 0
M  V30 4177 H 404.045 1.0848 0.946996 0
M  V30 4178 H 405.998 1.03897 4.08391 0
M  V30 4179 H 404.722 0.104885 3.26432 0
M  V30 4180 H 403.381 2.2102 2.92482 0
M  V30 4181 H 403.029 0.80693 4.96485 0
M  V30 4182 H 402.729 2.53001 5.30344 0
M  V30 4183 H 404.253 1.77011 5.84379 0
M  V30 4184 H 405.667 3.58307 4.47536 0
M  V30 4185 H 404.064 4.31371 4.1718 0
M  V30 4186 H 405.134 3.95584 2.80431 0
M  V30 4187 N 406.477 -1.02803 1.19454 0
M  V30 4188 C 407.724 -1.76217 0.997693 0
M  V30 4189 C 408.052 -1.887 -0.47144 0
M  V30 4190 O 407.307 -1.4011 -1.3663 0
M  V30 4191 C 407.606 -3.18941 1.6128 0
M  V30 4192 C 407.272 -3.26463 3.11019 0
M  V30 4193 C 405.934 -3.28223 3.51885 0
M  V30 4194 C 408.286 -3.25542 4.07028 0
M  V30 4195 C 405.614 -3.26719 4.8731 0
M  V30 4196 C 407.966 -3.25579 5.42385 0
M  V30 4197 C 406.63 -3.25637 5.82681 0
M  V30 4198 H 405.9 -0.644823 0.365082 0
M  V30 4199 H 408.547 -1.20655 1.4871 0
M  V30 4200 H 406.852 -3.77587 1.04572 0
M  V30 4201 H 408.549 -3.74415 1.43577 0
M  V30 4202 H 405.139 -3.25822 2.78457 0
M  V30 4203 H 409.323 -3.23362 3.76498 0
M  V30 4204 H 404.579 -3.25089 5.1781 0
M  V30 4205 H 408.753 -3.23817 6.16535 0
M  V30 4206 H 406.38 -3.24226 6.87591 0
M  V30 4207 N 407.956 -0.998596 -1.21925 0
M  V30 4208 C 408.919 -0.558679 -2.22287 0
M  V30 4209 C 409.919 0.361525 -1.56683 0
M  V30 4210 O 411.109 0.152695 -1.73529 0
M  V30 4211 C 408.241 0.18661 -3.40389 0
M  V30 4212 H 409.434 -1.4463 -2.62721 0
M  V30 4213 H 406.987 -0.786413 -1.35075 0
M  V30 4214 H 407.722 1.08996 -3.05435 0
M  V30 4215 H 407.507 -0.474188 -3.89222 0
M  V30 4216 H 408.997 0.482367 -4.14805 0
M  V30 4217 N 409.434 1.37368 -0.772513 0
M  V30 4218 C 410.683 1.98918 -0.333861 0
M  V30 4219 C 410.996 1.62017 1.09589 0
M  V30 4220 O 412.202 2.16676 1.63596 0
M  V30 4221 C 410.658 3.55735 -0.545971 0
M  V30 4222 C 410.266 4.01573 -1.98603 0
M  V30 4223 C 412.01 4.24156 -0.170979 0
M  V30 4224 C 409.917 5.51102 -2.1457 0
M  V30 4225 H 408.847 0.744214 -0.121085 0
M  V30 4226 H 411.498 1.56888 -0.95175 0
M  V30 4227 H 409.88 3.95748 0.141387 0
M  V30 4228 H 411.054 3.72803 -2.7084 0
M  V30 4229 H 409.369 3.45937 -2.31769 0
M  V30 4230 H 411.966 5.34024 -0.26878 0
M  V30 4231 H 412.309 4.06917 0.878855 0
M  V30 4232 H 412.842 3.89447 -0.810914 0
M  V30 4233 H 409.581 5.73268 -3.17875 0
M  V30 4234 H 409.101 5.81554 -1.46817 0
M  V30 4235 H 410.78 6.17083 -1.94468 0
M  V30 4236 N 410.912 0.523116 1.48665 0
M  V30 4237 C 411.845 -0.290518 2.26343 0
M  V30 4238 C 412.823 -0.950913 1.31895 0
M  V30 4239 O 414.007 -0.976662 1.61225 0
M  V30 4240 C 411.134 -1.41088 3.07915 0
M  V30 4241 C 410.18 -0.862597 4.17686 0
M  V30 4242 S 411.013 0.264135 5.34848 0
M  V30 4243 C 412.169 -0.858864 6.19979 0
M  V30 4244 H 412.402 0.368726 2.95005 0
M  V30 4245 H 409.935 0.30878 1.51281 0
M  V30 4246 H 411.893 -2.0527 3.55492 0
M  V30 4247 H 410.554 -2.04182 2.38681 0
M  V30 4248 H 409.747 -1.70287 4.74361 0
M  V30 4249 H 409.349 -0.297595 3.72814 0
M  V30 4250 H 411.641 -1.7591 6.54264 0
M  V30 4251 H 412.584 -0.330244 7.07329 0
M  V30 4252 H 412.992 -1.13617 5.52948 0
M  V30 4253 N 412.39 -1.55475 0.257931 0
M  V30 4254 C 413.322 -2.19192 -0.669881 0
M  V30 4255 C 414.335 -1.17148 -1.1305 0
M  V30 4256 O 415.524 -1.43959 -1.05537 0
M  V30 4257 C 412.624 -2.79016 -1.92363 0
M  V30 4258 C 411.797 -4.06586 -1.61265 0
M  V30 4259 C 410.856 -4.50622 -2.7171 0
M  V30 4260 O 409.882 -5.16765 -2.38627 0
M  V30 4261 N 411.084 -4.19325 -4.01431 0
M  V30 4262 H 413.849 -2.99441 -0.124635 0
M  V30 4263 H 411.41 -1.6171 0.0783311 0
M  V30 4264 H 413.402 -3.05427 -2.65511 0
M  V30 4265 H 411.972 -2.0286 -2.37837 0
M  V30 4266 H 411.192 -3.87646 -0.715811 0
M  V30 4267 H 412.48 -4.89737 -1.37967 0
M  V30 4268 H 411.878 -3.66247 -4.31138 0
M  V30 4269 H 410.435 -4.50547 -4.7101 0
M  V30 4270 N 413.868 0.0150385 -1.57593 0
M  V30 4271 C 414.798 1.01047 -2.10503 0
M  V30 4272 C 415.779 1.36816 -1.01071 0
M  V30 4273 O 416.964 1.45455 -1.28672 0
M  V30 4274 C 414.094 2.30708 -2.59598 0
M  V30 4275 C 413.048 2.09142 -3.73421 0
M  V30 4276 C 412.374 3.44685 -4.08774 0
M  V30 4277 C 413.674 1.46619 -5.01298 0
M  V30 4278 H 415.368 0.569978 -2.93925 0
M  V30 4279 H 412.914 0.272724 -1.41394 0
M  V30 4280 H 414.867 3.00687 -2.95238 0
M  V30 4281 H 413.591 2.76843 -1.73279 0
M  V30 4282 H 412.25 1.41592 -3.38153 0
M  V30 4283 H 411.898 3.88495 -3.195 0
M  V30 4284 H 411.598 3.31077 -4.8545 0
M  V30 4285 H 413.122 4.16004 -4.4696 0
M  V30 4286 H 414.536 2.06535 -5.34805 0
M  V30 4287 H 412.933 1.43544 -5.82679 0
M  V30 4288 H 414.003 0.433611 -4.82957 0
M  V30 4289 N 415.346 1.54954 0.287554 0
M  V30 4290 C 416.757 1.65732 0.859634 0
M  V30 4291 C 417.108 0.574767 1.87592 0
M  V30 4292 O 416.233 -0.286299 2.14498 0
M  V30 4293 C 416.828 3.00438 1.56597 0
M  V30 4294 C 415.387 3.13292 2.08627 0
M  V30 4295 C 414.534 2.61473 0.923416 0
M  V30 4296 H 417.485 1.5857 0.0642338 0
M  V30 4297 H 417.506 2.92613 2.43224 0
M  V30 4298 H 417.018 3.79207 0.826053 0
M  V30 4299 H 415.119 2.39268 2.85625 0
M  V30 4300 H 415.232 4.19647 2.31157 0
M  V30 4301 H 413.596 2.18264 1.31275 0
M  V30 4302 H 414.379 3.42733 0.197241 0
M  V30 4303 N 416.824 -0.551391 1.4764 0
M  V30 4304 C 418.07 -1.31024 1.54792 0
M  V30 4305 C 418.403 -1.9304 0.211967 0
M  V30 4306 O 417.678 -1.78175 -0.77999 0
M  V30 4307 C 417.961 -2.41593 2.67029 0
M  V30 4308 C 417.814 -1.84408 4.10261 0
M  V30 4309 C 419.133 -3.43488 2.75143 0
M  V30 4310 H 416.252 -0.475031 0.563485 0
M  V30 4311 H 418.894 -0.616454 1.79722 0
M  V30 4312 H 417.044 -3.00772 2.45904 0
M  V30 4313 H 418.716 -1.29445 4.42766 0
M  V30 4314 H 416.959 -1.15051 4.18265 0
M  V30 4315 H 417.63 -2.64367 4.84576 0
M  V30 4316 H 420.106 -2.94236 2.94218 0
M  V30 4317 H 418.982 -4.18274 3.55441 0
M  V30 4318 H 419.243 -4.02703 1.82435 0
M  V30 4319 N 418.302 -1.35869 -0.798587 0
M  V30 4320 C 419.265 -1.29307 -1.89242 0
M  V30 4321 C 420.265 -0.202747 -1.59517 0
M  V30 4322 O 421.455 -0.456957 -1.681 0
M  V30 4323 C 418.587 -1.00229 -3.25833 0
M  V30 4324 H 419.78 -2.26576 -1.96478 0
M  V30 4325 H 417.333 -1.20509 -0.995358 0
M  V30 4326 H 418.068 -0.033801 -3.24282 0
M  V30 4327 H 417.853 -1.79121 -3.48795 0
M  V30 4328 H 419.343 -0.98219 -4.05885 0
M  V30 4329 N 419.78 1.02168 -1.19998 0
M  V30 4330 C 421.057 1.72816 -0.916191 0
M  V30 4331 C 421.437 2.03081 0.576325 0
M  V30 4332 O 420.785 1.69122 1.53656 0
M  V30 4333 C 420.995 2.9997 -1.78378 0
M  V30 4334 C 422.343 3.73336 -2.02251 0
M  V30 4335 O 423.367 3.09914 -1.75589 0
M  V30 4336 O 422.226 4.87371 -2.47249 0
M  V30 4337 H 419.32 0.752924 -0.342103 0
M  V30 4338 H 421.866 1.08062 -1.30846 0
M  V30 4339 H 420.638 2.73888 -2.79466 0
M  V30 4340 H 420.261 3.72464 -1.39126 0
M  V30 4341 N 421.258 1.00505 1.21394 0
M  V30 4342 C 422.507 0.683159 1.89778 0
M  V30 4343 C 422.82 -0.789471 1.7896 0
M  V30 4344 O 424.026 -1.22344 2.42372 0
M  V30 4345 C 422.482 1.17146 3.40301 0
M  V30 4346 C 422.09 2.67017 3.5973 0
M  V30 4347 C 423.834 0.924461 4.14311 0
M  V30 4348 C 421.741 3.09387 5.04017 0
M  V30 4349 H 420.671 0.25183 0.710702 0
M  V30 4350 H 423.322 1.21622 1.37406 0
M  V30 4351 H 421.704 0.566451 3.91928 0
M  V30 4352 H 422.878 3.32968 3.18542 0
M  V30 4353 H 421.193 2.89732 2.99073 0
M  V30 4354 H 423.79 1.21658 5.20676 0
M  V30 4355 H 424.133 -0.139286 4.16067 0
M  V30 4356 H 424.666 1.49226 3.6875 0
M  V30 4357 H 421.405 4.14989 5.07409 0
M  V30 4358 H 420.925 2.48149 5.46061 0
M  V30 4359 H 422.604 3.01371 5.72525 0
M  V30 4360 N 422.737 -1.36956 0.779787 0
M  V30 4361 C 423.685 -2.32053 0.15942 0
M  V30 4362 C 424.679 -1.55333 -0.675878 0
M  V30 4363 O 425.885 -1.70668 -0.57204 0
M  V30 4364 H 422.26 -0.751286 0.0327707 0
M  V30 4365 H 424.231 -2.8195 0.977078 0
M  V30 4366 C 422.98 -3.40602 -0.698977 0
M  V30 4367 H 422.303 -3.99746 -0.0655966 0
M  V30 4368 H 423.743 -4.09486 -1.09989 0
M  V30 4369 C 422.202 -2.81359 -1.85307 0
M  V30 4370 O 422.732 -2.72751 -2.94906 0
M  V30 4371 N 420.938 -2.38786 -1.65619 0
M  V30 4372 H 420.485 -2.45987 -0.764725 0
M  V30 4373 H 420.443 -1.99493 -2.43002 0
M  V30 4374 N 424.215 -0.530993 -1.48385 0
M  V30 4375 C 425.178 0.220497 -2.28137 0
M  V30 4376 C 426.178 0.866851 -1.35434 0
M  V30 4377 O 427.368 0.726746 -1.58316 0
M  V30 4378 C 424.5 1.31921 -3.1434 0
M  V30 4379 H 425.693 -0.479714 -2.96038 0
M  V30 4380 H 423.246 -0.286968 -1.53643 0
M  V30 4381 H 423.981 2.05264 -2.51072 0
M  V30 4382 H 423.766 0.86085 -3.82533 0
M  V30 4383 H 425.256 1.84776 -3.74497 0
M  V30 4384 N 425.693 1.55336 -0.266172 0
M  V30 4385 C 426.625 2.19544 0.658247 0
M  V30 4386 C 427.638 1.17746 1.12427 0
M  V30 4387 O 428.827 1.44517 1.04772 0
M  V30 4388 C 425.927 2.80032 1.9088 0
M  V30 4389 C 425.1 4.07436 1.59106 0
M  V30 4390 C 424.159 4.52056 2.69317 0
M  V30 4391 O 423.185 5.18023 2.35883 0
M  V30 4392 N 424.387 4.21448 3.99201 0
M  V30 4393 H 427.152 2.99503 0.108754 0
M  V30 4394 H 424.713 1.61667 -0.0869059 0
M  V30 4395 H 426.705 3.06831 2.63888 0
M  V30 4396 H 425.275 2.04119 2.36758 0
M  V30 4397 H 424.495 3.88021 0.695243 0
M  V30 4398 H 425.783 4.90462 1.35367 0
M  V30 4399 H 425.181 3.68528 4.29189 0
M  V30 4400 H 423.738 4.53039 4.68614 0
M  V30 4401 N 427.171 -0.0066808 1.57599 0
M  V30 4402 C 428.119 -1.01851 2.09115 0
M  V30 4403 C 429.113 -1.36021 1.00969 0
M  V30 4404 O 430.319 -1.34663 1.19439 0
M  V30 4405 H 426.694 -0.346083 0.667631 0
M  V30 4406 H 428.665 -0.558394 2.93129 0
M  V30 4407 C 427.414 -2.30374 2.60429 0
M  V30 4408 H 426.737 -2.04947 3.43273 0
M  V30 4409 H 428.177 -2.99466 3.00161 0
M  V30 4410 C 426.636 -3.00893 1.51542 0
M  V30 4411 O 427.166 -3.91614 0.894484 0
M  V30 4412 N 425.372 -2.62603 1.2445 0
M  V30 4413 H 424.919 -1.88911 1.75129 0
M  V30 4414 H 424.877 -3.10101 0.518137 0
M  V30 4415 N 428.649 -1.55105 -0.279332 0
M  V30 4416 C 429.612 -1.86783 -1.32834 0
M  V30 4417 C 430.612 -0.74199 -1.42657 0
M  V30 4418 O 431.802 -1.0102 -1.41918 0
M  V30 4419 C 428.934 -2.06746 -2.71052 0
M  V30 4420 H 430.127 -2.8055 -1.05979 0
M  V30 4421 H 427.68 -1.47499 -0.517087 0
M  V30 4422 H 428.415 -1.15339 -3.03097 0
M  V30 4423 H 428.2 -2.88711 -2.65309 0
M  V30 4424 H 429.69 -2.32549 -3.46858 0
M  V30 4425 N 430.127 0.543554 -1.4793 0
M  V30 4426 C 431.376 1.29649 -1.54512 0
M  V30 4427 C 431.689 1.94382 -0.217973 0
M  V30 4428 O 432.895 2.71017 -0.161908 0
M  V30 4429 C 431.351 2.35175 -2.72435 0
M  V30 4430 C 430.959 1.76572 -4.11736 0
M  V30 4431 C 432.703 3.11564 -2.8832 0
M  V30 4432 C 430.61 2.79958 -5.20939 0
M  V30 4433 H 429.54 0.487541 -0.57517 0
M  V30 4434 H 432.191 0.575708 -1.74235 0
M  V30 4435 H 430.573 3.10229 -2.46118 0
M  V30 4436 H 431.747 1.07799 -4.48013 0
M  V30 4437 H 430.062 1.12722 -4.00852 0
M  V30 4438 H 432.659 3.88794 -3.67074 0
M  V30 4439 H 433.002 3.66594 -1.97268 0
M  V30 4440 H 433.535 2.43623 -3.14472 0
M  V30 4441 H 430.274 2.29766 -6.13912 0
M  V30 4442 H 429.794 3.47101 -4.89164 0
M  V30 4443 H 431.473 3.43198 -5.48474 0
M  V30 4444 N 431.605 1.3629 0.791371 0
M  V30 4445 C 432.538 1.24816 1.9104 0
M  V30 4446 C 433.516 0.132739 1.62057 0
M  V30 4447 O 434.7 0.303527 1.8604 0
M  V30 4448 C 431.827 0.925355 3.25814 0
M  V30 4449 C 430.873 2.05495 3.7373 0
M  V30 4450 S 431.706 3.67255 3.89723 0
M  V30 4451 C 432.862 3.37084 5.27376 0
M  V30 4452 H 433.095 2.19533 2.00481 0
M  V30 4453 H 430.628 1.21684 0.950393 0
M  V30 4454 H 432.586 0.745924 4.03666 0
M  V30 4455 H 431.247 -0.00400098 3.141 0
M  V30 4456 H 430.44 1.7836 4.71385 0
M  V30 4457 H 430.042 2.1935 3.02922 0
M  V30 4458 H 432.334 2.90856 6.1189 0
M  V30 4459 H 433.277 4.33995 5.59512 0
M  V30 4460 H 433.685 2.7248 4.94383 0
M  V30 4461 N 433.083 -1.0153 1.20538 0
M  V30 4462 C 434.033 -2.08482 0.922991 0
M  V30 4463 C 435.017 -1.60469 -0.117702 0
M  V30 4464 O 436.209 -1.76772 0.0898465 0
M  V30 4465 C 433.338 -3.39952 0.478312 0
M  V30 4466 C 432.424 -3.94662 1.5525 0
M  V30 4467 N 432.815 -4.22866 2.77521 0
M  V30 4468 C 431.113 -4.22825 1.41897 0
M  V30 4469 C 431.814 -4.67002 3.4682 0
M  V30 4470 N 430.79 -4.69356 2.74237 0
M  V30 4471 H 434.592 -2.28199 1.85209 0
M  V30 4472 H 432.106 -1.19512 1.09957 0
M  V30 4473 H 434.103 -4.16105 0.257408 0
M  V30 4474 H 432.763 -3.21648 -0.444148 0
M  V30 4475 H 433.774 -4.11732 3.1416 0
M  V30 4476 H 430.451 -4.13714 0.561015 0
M  V30 4477 H 431.841 -4.97632 4.51455 0
M  V30 4478 N 434.561 -1.01147 -1.20859 0
M  V30 4479 C 435.838 -0.613136 -1.85742 0
M  V30 4480 C 436.218 0.909004 -1.90526 0
M  V30 4481 O 435.566 1.79862 -1.40932 0
M  V30 4482 C 435.776 -1.255 -3.25654 0
M  V30 4483 C 437.124 -1.3672 -4.01986 0
M  V30 4484 O 438.148 -1.21082 -3.34989 0
M  V30 4485 O 437.007 -1.6194 -5.21956 0
M  V30 4486 H 434.101 -0.210878 -0.799662 0
M  V30 4487 H 436.647 -1.10853 -1.2849 0
M  V30 4488 H 435.419 -2.29532 -3.16908 0
M  V30 4489 H 435.042 -0.746369 -3.90532 0
M  V30 4490 N 436.039 1.36541 -0.78704 0
M  V30 4491 C 437.287 1.98911 -0.357633 0
M  V30 4492 C 437.608 1.62778 1.07371 0
M  V30 4493 O 436.878 0.900612 1.73971 0
M  V30 4494 H 435.458 0.735734 -0.129246 0
M  V30 4495 H 438.12 1.66776 -1.00855 0
M  V30 4496 H 437.216 3.08874 -0.447549 0
M  V30 4497 N 437.518 0.538854 1.48102 0
M  V30 4498 C 438.465 -0.219042 2.29758 0
M  V30 4499 C 439.435 -0.925562 1.37922 0
M  V30 4500 O 440.62 -0.924855 1.66886 0
M  V30 4501 C 437.76 -1.25452 3.2149 0
M  V30 4502 C 436.873 -0.555943 4.28408 0
M  V30 4503 C 436.008 -1.57512 5.0731 0
M  V30 4504 C 435.047 -0.860498 6.06021 0
M  V30 4505 N 434.184 -1.82564 6.77949 0
M  V30 4506 H 439.024 0.483449 2.94052 0
M  V30 4507 H 436.561 0.250247 1.44956 0
M  V30 4508 H 438.519 -1.86727 3.7308 0
M  V30 4509 H 437.149 -1.92528 2.591 0
M  V30 4510 H 436.201 0.170938 3.80016 0
M  V30 4511 H 437.513 0.00474616 4.988 0
M  V30 4512 H 436.667 -2.26191 5.62959 0
M  V30 4513 H 435.406 -2.16972 4.36778 0
M  V30 4514 H 434.411 -0.159686 5.49568 0
M  V30 4515 H 435.636 -0.271897 6.78555 0
M  V30 4516 H 433.582 -2.40915 6.10161 0
M  V30 4517 H 433.499 -1.31662 7.44447 0
M  V30 4518 H 434.767 -2.50414 7.38182 0
M  V30 4519 N 438.996 -1.55193 0.274407 0
M  V30 4520 C 439.959 -2.212 -0.600279 0
M  V30 4521 C 440.959 -1.18963 -1.08187 0
M  V30 4522 O 442.149 -1.43873 -0.982158 0
M  V30 4523 C 439.281 -2.87739 -1.82809 0
M  V30 4524 H 440.474 -2.9989 -0.0239682 0
M  V30 4525 H 438.027 -1.5628 0.0250192 0
M  V30 4526 H 438.762 -2.13058 -2.44493 0
M  V30 4527 H 438.547 -3.62658 -1.49069 0
M  V30 4528 H 440.037 -3.38171 -2.45011 0
M  V30 4529 N 440.474 -0.00167713 -1.576 0
M  V30 4530 C 441.699 0.69739 -1.95323 0
M  V30 4531 C 442.124 1.6642 -0.876706 0
M  V30 4532 O 441.482 1.80548 0.165007 0
M  V30 4533 C 441.53 1.40403 -3.32144 0
M  V30 4534 O 440.634 2.5185 -3.26566 0
M  V30 4535 H 439.975 0.185373 -0.637599 0
M  V30 4536 H 442.505 -0.0553665 -2.04525 0
M  V30 4537 H 442.515 1.76707 -3.67748 0
M  V30 4538 H 441.19 0.695167 -4.10049 0
M  V30 4539 H 439.767 2.17861 -3.0264 0
M  V30 4540 N 441.952 1.55251 0.271103 0
M  V30 4541 C 442.862 1.9136 1.35714 0
M  V30 4542 C 443.878 0.811075 1.5394 0
M  V30 4543 O 445.054 1.11031 1.6803 0
M  V30 4544 C 442.119 2.1798 2.69603 0
M  V30 4545 C 441.18 3.4153 2.60107 0
M  V30 4546 C 440.413 3.66871 3.8761 0
M  V30 4547 O 440.636 2.94689 4.8838 0
M  V30 4548 O 439.57 4.60405 3.87699 0
M  V30 4549 H 443.396 2.83815 1.08088 0
M  V30 4550 H 440.981 1.41821 0.469792 0
M  V30 4551 H 442.863 2.36518 3.48765 0
M  V30 4552 H 441.538 1.28708 2.97012 0
M  V30 4553 H 440.445 3.28325 1.79314 0
M  V30 4554 H 441.778 4.31027 2.37647 0
M  V30 4555 N 443.43 -0.535701 1.48216 0
M  V30 4556 C 444.678 -1.28928 1.55634 0
M  V30 4557 C 444.999 -1.93645 0.229514 0
M  V30 4558 O 444.269 -1.81038 -0.74846 0
M  V30 4559 H 442.849 -0.47884 0.573342 0
M  V30 4560 H 445.511 -0.623853 1.84646 0
M  V30 4561 H 444.607 -2.07157 2.33436 0
M  V30 4562 N 444.908 -1.36708 -0.784132 0
M  V30 4563 C 446.185 -1.21776 -1.53069 0
M  V30 4564 C 446.565 0.193876 -2.10208 0
M  V30 4565 O 445.913 1.20012 -1.94446 0
M  V30 4566 C 446.123 -2.30395 -2.62143 0
M  V30 4567 C 447.471 -2.67325 -3.29882 0
M  V30 4568 O 448.495 -2.29478 -2.7243 0
M  V30 4569 O 447.354 -3.32485 -4.33724 0
M  V30 4570 H 444.448 -0.474459 -0.677361 0
M  V30 4571 H 446.994 -1.48454 -0.82216 0
M  V30 4572 H 445.766 -3.2498 -2.17953 0
M  V30 4573 H 445.389 -2.05112 -3.40609 0
M  V30 4574 N 446.386 1.0089 -1.21074 0
M  V30 4575 C 447.635 1.74019 -1.01981 0
M  V30 4576 C 447.948 1.90408 0.447665 0
M  V30 4577 O 449.154 2.60707 0.757906 0
M  V30 4578 C 447.61 3.13026 -1.77603 0
M  V30 4579 C 447.218 3.04623 -3.28495 0
M  V30 4580 C 448.962 3.90312 -1.66904 0
M  V30 4581 C 446.869 4.38685 -3.96623 0
M  V30 4582 H 445.799 0.652422 -0.377971 0
M  V30 4583 H 448.45 1.12755 -1.44771 0
M  V30 4584 H 446.832 3.74878 -1.27604 0
M  V30 4585 H 448.006 2.52032 -3.85767 0
M  V30 4586 H 446.321 2.40827 -3.39693 0
M  V30 4587 H 448.918 4.8951 -2.15138 0
M  V30 4588 H 449.261 4.11558 -0.62658 0
M  V30 4589 H 449.794 3.35104 -2.14359 0
M  V30 4590 H 446.533 4.22641 -5.01054 0
M  V30 4591 H 446.053 4.91252 -3.4414 0
M  V30 4592 H 447.732 5.075 -4.01314 0
M  V30 4593 N 447.864 1.01787 1.20321 0
M  V30 4594 C 448.796 0.547357 2.22568 0
M  V30 4595 C 449.809 -0.370922 1.58518 0
M  V30 4596 O 450.998 -0.169067 1.77698 0
M  V30 4597 C 448.098 -0.223031 3.38165 0
M  V30 4598 C 447.271 0.697472 4.31803 0
M  V30 4599 C 446.33 -0.025562 5.26194 0
M  V30 4600 O 445.356 0.597367 5.66057 0
M  V30 4601 N 446.558 -1.29999 5.65757 0
M  V30 4602 H 449.323 1.42668 2.63564 0
M  V30 4603 H 446.884 0.895552 1.34876 0
M  V30 4604 H 448.876 -0.716002 3.98316 0
M  V30 4605 H 447.446 -1.00366 2.9605 0
M  V30 4606 H 446.666 1.37073 3.69601 0
M  V30 4607 H 447.954 1.32347 4.91286 0
M  V30 4608 H 447.352 -1.827 5.35385 0
M  V30 4609 H 445.909 -1.73766 6.28211 0
M  V30 4610 N 449.342 -1.36122 0.79427 0
M  V30 4611 C 450.59 -1.98718 0.368177 0
M  V30 4612 C 450.911 -1.63345 -1.06506 0
M  V30 4613 O 450.181 -0.909825 -1.73491 0
M  V30 4614 H 448.761 -0.735038 0.133146 0
M  V30 4615 H 451.423 -1.66239 1.01739 0
M  V30 4616 H 450.519 -3.08633 0.463923 0
M  V30 4617 N 450.82 -0.546701 -1.47814 0
M  V30 4618 C 451.77 0.227042 -2.26867 0
M  V30 4619 C 452.754 0.894844 -1.33721 0
M  V30 4620 O 453.946 0.794887 -1.58147 0
M  V30 4621 C 451.075 1.26299 -3.19223 0
M  V30 4622 C 450.161 0.59913 -4.19847 0
M  V30 4623 N 450.552 -0.324777 -5.04756 0
M  V30 4624 C 448.85 0.854331 -4.37741 0
M  V30 4625 C 449.551 -0.709386 -5.77358 0
M  V30 4626 N 448.527 -0.0666153 -5.43559 0
M  V30 4627 H 452.329 -0.483476 -2.89896 0
M  V30 4628 H 449.843 -0.365893 -1.58224 0
M  V30 4629 H 451.84 1.83116 -3.74532 0
M  V30 4630 H 450.5 1.97471 -2.57751 0
M  V30 4631 H 451.511 -0.698351 -5.1317 0
M  V30 4632 H 448.188 1.55536 -3.87447 0
M  V30 4633 H 449.578 -1.46796 -6.55668 0
M  V30 4634 N 452.299 1.55045 -0.282633 0
M  V30 4635 C 453.545 2.00056 0.332481 0
M  V30 4636 C 453.878 1.1708 1.54939 0
M  V30 4637 O 453.153 0.2427 1.9298 0
M  V30 4638 C 453.436 3.53086 0.70725 0
M  V30 4639 C 453.289 4.46813 -0.517521 0
M  V30 4640 C 454.608 4.12245 1.54084 0
M  V30 4641 H 451.727 0.727268 0.119373 0
M  V30 4642 H 454.369 1.85932 -0.391076 0
M  V30 4643 H 452.519 3.65253 1.32372 0
M  V30 4644 H 454.191 4.46579 -1.15607 0
M  V30 4645 H 452.434 4.18163 -1.1542 0
M  V30 4646 H 453.105 5.51595 -0.211426 0
M  V30 4647 H 455.581 4.03401 1.02013 0
M  V30 4648 H 454.457 5.19515 1.77186 0
M  V30 4649 H 454.718 3.62951 2.52427 0
M  V30 4650 N 453.777 0.010035 1.57597 0
M  V30 4651 C 455.054 -0.710296 1.82248 0
M  V30 4652 C 455.434 -1.91426 0.889911 0
M  V30 4653 O 454.782 -2.28424 -0.0590292 0
M  V30 4654 C 454.992 -1.10655 3.30993 0
M  V30 4655 C 456.34 -1.50621 3.96987 0
M  V30 4656 O 457.364 -1.20007 3.35375 0
M  V30 4657 O 456.223 -2.07587 5.05539 0
M  V30 4658 H 453.317 -0.34673 0.750804 0
M  V30 4659 H 455.863 0.0362578 1.69661 0
M  V30 4660 H 454.635 -0.248826 3.90508 0
M  V30 4661 H 454.258 -1.91189 3.48615 0
M  V30 4662 N 455.255 -1.55392 -0.262866 0
M  V30 4663 C 456.503 -1.76127 -0.991147 0
M  V30 4664 C 456.824 -0.571083 -1.8645 0
M  V30 4665 O 456.094 0.413698 -1.91482 0
M  V30 4666 H 454.674 -0.649528 -0.368948 0
M  V30 4667 H 457.336 -1.9281 -0.284655 0
M  V30 4668 H 456.432 -2.6663 -1.62219 0
M  V30 4669 N 456.733 0.527833 -1.48498 0
M  V30 4670 C 457.979 1.28295 -1.57836 0
M  V30 4671 C 458.334 1.9077 -0.249943 0
M  V30 4672 O 457.627 1.76421 0.747402 0
M  V30 4673 C 457.821 2.39275 -2.65485 0
M  V30 4674 C 457.65 1.87679 -4.08664 0
M  V30 4675 C 456.42 1.70187 -4.75778 0
M  V30 4676 C 458.618 1.40409 -4.94762 0
M  V30 4677 N 456.6 1.13238 -6.03366 0
M  V30 4678 C 457.971 0.954216 -6.12613 0
M  V30 4679 C 460.026 1.28732 -4.8097 0
M  V30 4680 C 458.729 0.39915 -7.18192 0
M  V30 4681 C 460.755 0.746244 -5.86673 0
M  V30 4682 C 460.117 0.306457 -7.03733 0
M  V30 4683 H 456.216 0.460408 -0.632099 0
M  V30 4684 H 458.8 0.594913 -1.85388 0
M  V30 4685 H 456.971 3.05572 -2.3975 0
M  V30 4686 H 458.703 3.06308 -2.64495 0
M  V30 4687 H 455.458 1.93772 -4.32145 0
M  V30 4688 H 455.882 0.867687 -6.71417 0
M  V30 4689 H 460.524 1.61338 -3.90807 0
M  V30 4690 H 458.242 0.0607678 -8.08077 0
M  V30 4691 H 461.828 0.659041 -5.78055 0
M  V30 4692 H 460.708 -0.105708 -7.84129 0
M  V30 4693 N 458.211 1.37122 0.776871 0
M  V30 4694 C 459.46 1.31373 1.53049 0
M  V30 4695 C 459.773 -0.101016 1.95339 0
M  V30 4696 O 460.979 -0.280953 2.70042 0
M  V30 4697 C 459.435 2.30567 2.76346 0
M  V30 4698 C 459.043 3.77543 2.41175 0
M  V30 4699 C 460.787 2.33818 3.54301 0
M  V30 4700 C 458.694 4.68481 3.60943 0
M  V30 4701 H 457.624 0.488234 0.574581 0
M  V30 4702 H 460.275 1.62554 0.851372 0
M  V30 4703 H 458.657 1.92396 3.46121 0
M  V30 4704 H 459.831 4.24521 1.79216 0
M  V30 4705 H 458.146 3.77187 1.76405 0
M  V30 4706 H 460.743 2.98965 4.4331 0
M  V30 4707 H 461.086 1.3503 3.93793 0
M  V30 4708 H 461.619 2.7067 2.91518 0
M  V30 4709 H 458.358 5.68378 3.26537 0
M  V30 4710 H 457.878 4.2621 4.22025 0
M  V30 4711 H 459.557 4.85366 4.27819 0
M  V30 4712 N 459.689 -1.00246 1.21608 0
M  V30 4713 C 460.636 -2.09073 0.977613 0
M  V30 4714 C 461.606 -1.65815 -0.097297 0
M  V30 4715 O 462.791 -1.90734 0.0503445 0
M  V30 4716 C 459.931 -3.40671 0.551133 0
M  V30 4717 C 459.044 -3.97326 1.69576 0
M  V30 4718 C 458.179 -5.17043 1.2182 0
M  V30 4719 C 457.218 -5.65813 2.335 0
M  V30 4720 N 456.355 -6.76778 1.86859 0
M  V30 4721 H 461.195 -2.28806 1.90924 0
M  V30 4722 H 458.732 -1.12186 0.951452 0
M  V30 4723 H 460.69 -4.16225 0.285097 0
M  V30 4724 H 459.32 -3.20967 -0.343489 0
M  V30 4725 H 458.372 -3.18734 2.07637 0
M  V30 4726 H 459.684 -4.29511 2.53617 0
M  V30 4727 H 458.838 -5.99852 0.908975 0
M  V30 4728 H 457.577 -4.86458 0.347869 0
M  V30 4729 H 456.582 -4.81599 2.65222 0
M  V30 4730 H 457.807 -5.98427 3.21033 0
M  V30 4731 H 455.753 -6.47994 1.02174 0
M  V30 4732 H 455.67 -7.08231 2.64471 0
M  V30 4733 H 456.938 -7.63116 1.58978 0
M  V30 4734 N 461.167 -1.02423 -1.1978 0
M  V30 4735 C 462.13 -0.605703 -2.21052 0
M  V30 4736 C 463.13 0.328209 -1.57415 0
M  V30 4737 O 464.32 0.115853 -1.73814 0
M  V30 4738 C 461.452 0.114366 -3.40708 0
M  V30 4739 H 462.645 -1.5017 -2.59594 0
M  V30 4740 H 460.198 -0.814888 -1.33376 0
M  V30 4741 H 460.933 1.02492 -3.07678 0
M  V30 4742 H 460.718 -0.556641 -3.88129 0
M  V30 4743 H 462.208 0.394272 -4.15735 0
M  V30 4744 N 462.645 1.35699 -0.801477 0
M  V30 4745 C 463.595 2.2728 -0.181073 0
M  V30 4746 C 464.579 1.47533 0.642098 0
M  V30 4747 O 465.771 1.69785 0.500193 0
M  V30 4748 C 462.9 3.36626 0.673612 0
M  V30 4749 C 461.986 4.23802 -0.159008 0
M  V30 4750 N 462.377 4.90879 -1.2195 0
M  V30 4751 C 460.675 4.45959 0.0602005 0
M  V30 4752 C 461.376 5.5546 -1.72738 0
M  V30 4753 N 460.352 5.33663 -1.03465 0
M  V30 4754 H 464.154 2.76632 -0.992582 0
M  V30 4755 H 461.668 1.49166 -0.642127 0
M  V30 4756 H 463.665 4.01179 1.13408 0
M  V30 4757 H 462.325 2.88828 1.48353 0
M  V30 4758 H 463.336 4.92497 -1.60209 0
M  V30 4759 H 460.013 4.08969 0.839664 0
M  V30 4760 H 461.403 6.18991 -2.61342 0
M  V30 4761 N 464.123 0.554532 1.47522 0
M  V30 4762 C 465.055 -0.232106 2.28022 0
M  V30 4763 C 466.068 -0.881865 1.36847 0
M  V30 4764 O 467.257 -0.756168 1.61692 0
M  V30 4765 C 464.357 -1.34604 3.11022 0
M  V30 4766 C 463.53 -0.793582 4.30141 0
M  V30 4767 C 462.589 -1.79168 4.94758 0
M  V30 4768 O 461.615 -1.33886 5.5323 0
M  V30 4769 N 462.817 -3.12495 4.89211 0
M  V30 4770 H 465.582 0.458407 2.96173 0
M  V30 4771 H 463.143 0.390433 1.57122 0
M  V30 4772 H 465.135 -2.01243 3.51118 0
M  V30 4773 H 463.705 -1.93983 2.45131 0
M  V30 4774 H 462.925 0.0495025 3.94169 0
M  V30 4775 H 464.213 -0.403776 5.07195 0
M  V30 4776 H 463.611 -3.51931 4.42901 0
M  V30 4777 H 462.168 -3.74698 5.33333 0
M  V30 4778 N 465.601 -1.54893 0.290851 0
M  V30 4779 C 466.533 -2.20564 -0.623236 0
M  V30 4780 C 467.546 -1.19519 -1.1054 0
M  V30 4781 O 468.735 -1.46165 -1.02459 0
M  V30 4782 C 465.835 -2.83033 -1.86401 0
M  V30 4783 C 465.008 -4.09916 -1.52604 0
M  V30 4784 C 464.067 -4.56284 -2.62091 0
M  V30 4785 O 463.093 -5.2171 -2.27612 0
M  V30 4786 N 464.295 -4.27746 -3.92446 0
M  V30 4787 H 467.06 -2.99638 -0.0610915 0
M  V30 4788 H 464.621 -1.61508 0.112615 0
M  V30 4789 H 466.613 -3.1099 -2.58973 0
M  V30 4790 H 465.183 -2.0786 -2.33481 0
M  V30 4791 H 464.403 -3.89078 -0.633424 0
M  V30 4792 H 465.691 -4.92554 -1.27547 0
M  V30 4793 H 465.089 -3.7531 -4.23272 0
M  V30 4794 H 463.646 -4.60437 -4.61347 0
M  V30 4795 N 467.08 -0.0183926 -1.57589 0
M  V30 4796 C 468.012 0.995557 -2.06449 0
M  V30 4797 C 469.025 1.29556 -0.985849 0
M  V30 4798 O 470.214 1.2621 -1.26227 0
M  V30 4799 C 467.314 2.32572 -2.46502 0
M  V30 4800 C 466.487 2.21245 -3.77319 0
M  V30 4801 C 465.546 3.37104 -4.04039 0
M  V30 4802 O 464.572 3.14468 -4.74445 0
M  V30 4803 N 465.774 4.60553 -3.53372 0
M  V30 4804 H 468.539 0.578746 -2.94059 0
M  V30 4805 H 466.1 0.168603 -1.6102 0
M  V30 4806 H 468.092 3.08887 -2.61478 0
M  V30 4807 H 466.662 2.65931 -1.64315 0
M  V30 4808 H 465.882 1.29723 -3.72244 0
M  V30 4809 H 467.17 2.10868 -4.63047 0
M  V30 4810 H 466.568 4.81839 -2.96391 0
M  V30 4811 H 465.125 5.34072 -3.73644 0
M  V30 4812 N 468.558 1.5553 0.254621 0
M  V30 4813 C 469.805 1.77 0.983736 0
M  V30 4814 C 470.133 0.58133 1.85609 0
M  V30 4815 O 469.388 -0.435621 1.9079 0
M  V30 4816 C 469.687 3.03891 1.88109 0
M  V30 4817 C 469.353 4.35597 1.16472 0
M  V30 4818 C 468.015 4.7139 0.966714 0
M  V30 4819 C 470.367 5.1705 0.656387 0
M  V30 4820 C 467.695 5.86176 0.247942 0
M  V30 4821 C 470.047 6.32581 -0.0488807 0
M  V30 4822 C 468.711 6.67 -0.258438 0
M  V30 4823 H 467.981 0.647688 0.359974 0
M  V30 4824 H 470.628 1.89802 0.254463 0
M  V30 4825 H 468.933 2.86068 2.67717 0
M  V30 4826 H 470.63 3.17701 2.44677 0
M  V30 4827 H 467.22 4.07475 1.32899 0
M  V30 4828 H 471.404 4.8986 0.796933 0
M  V30 4829 H 466.66 6.11354 0.075035 0
M  V30 4830 H 470.834 6.94942 -0.450444 0
M  V30 4831 H 468.461 7.55793 -0.817358 0
M  V30 4832 N 470.036 -0.519951 1.48776 0
M  V30 4833 C 471.313 -1.28123 1.47797 0
M  V30 4834 C 471.693 -2.10196 0.195157 0
M  V30 4835 O 471.041 -2.13167 -0.822925 0
M  V30 4836 C 471.251 -2.15413 2.74587 0
M  V30 4837 C 472.599 -2.75225 3.23321 0
M  V30 4838 O 473.623 -2.25694 2.75574 0
M  V30 4839 O 472.482 -3.65346 4.06429 0
M  V30 4840 H 469.576 -0.578793 0.590701 0
M  V30 4841 H 472.122 -0.535779 1.6102 0
M  V30 4842 H 470.894 -1.54617 3.59457 0
M  V30 4843 H 470.517 -2.97186 2.64132 0
M  V30 4844 N 471.514 -1.37532 -0.769588 0
M  V30 4845 C 472.762 -1.32597 -1.5252 0
M  V30 4846 C 473.083 0.0884294 -1.94799 0
M  V30 4847 O 472.353 1.03289 -1.66458 0
M  V30 4848 H 470.933 -0.487846 -0.565699 0
M  V30 4849 H 473.595 -1.72044 -0.915806 0
M  V30 4850 H 472.691 -1.96643 -2.42359 0
M  V30 4851 N 472.992 0.995999 -1.22138 0
M  V30 4852 C 474.238 1.7386 -1.05567 0
M  V30 4853 C 474.593 1.8808 0.405418 0
M  V30 4854 O 473.886 1.41062 1.29661 0
M  V30 4855 C 474.08 3.14553 -1.6968 0
M  V30 4856 C 473.909 3.14053 -3.21871 0
M  V30 4857 C 472.679 3.20121 -3.90961 0
M  V30 4858 C 474.877 2.98451 -4.18845 0
M  V30 4859 N 472.859 3.09342 -5.30265 0
M  V30 4860 C 474.23 2.95667 -5.4496 0
M  V30 4861 C 476.285 2.8282 -4.09777 0
M  V30 4862 C 474.988 2.78852 -6.63049 0
M  V30 4863 C 477.014 2.67364 -5.27513 0
M  V30 4864 C 476.376 2.65264 -6.52544 0
M  V30 4865 H 472.475 0.645989 -0.440706 0
M  V30 4866 H 475.059 1.1831 -1.54631 0
M  V30 4867 H 473.23 3.68353 -1.2317 0
M  V30 4868 H 474.962 3.77358 -1.4623 0
M  V30 4869 H 471.717 3.27679 -3.4194 0
M  V30 4870 H 472.141 3.0727 -6.03253 0
M  V30 4871 H 476.783 2.83243 -3.139 0
M  V30 4872 H 474.501 2.77175 -7.59078 0
M  V30 4873 H 478.087 2.56256 -5.22326 0
M  V30 4874 H 476.967 2.5345 -7.42114 0
M  V30 4875 N 474.47 1.03057 1.19235 0
M  V30 4876 C 475.716 0.729098 1.89241 0
M  V30 4877 C 476.049 -0.740573 1.79525 0
M  V30 4878 O 475.324 -1.53946 1.18874 0
M  V30 4879 C 475.607 1.18304 3.40112 0
M  V30 4880 C 475.46 2.71406 3.5869 0
M  V30 4881 C 476.779 0.765161 4.33397 0
M  V30 4882 H 473.898 0.266338 0.687192 0
M  V30 4883 H 476.54 1.28079 1.40341 0
M  V30 4884 H 474.69 0.713672 3.81889 0
M  V30 4885 H 476.362 3.26303 3.26074 0
M  V30 4886 H 474.605 3.11717 3.01687 0
M  V30 4887 H 475.276 2.98225 4.64506 0
M  V30 4888 H 477.752 1.16889 3.99345 0
M  V30 4889 H 476.628 1.11065 5.37546 0
M  V30 4890 H 476.889 -0.332372 4.40849 0
M  V30 4891 N 475.948 -1.35272 0.808662 0
M  V30 4892 C 476.896 -2.31663 0.208606 0
M  V30 4893 C 477.89 -1.56731 -0.642778 0
M  V30 4894 O 479.096 -1.71843 -0.53571 0
M  V30 4895 H 475.471 -0.750421 0.0486993 0
M  V30 4896 H 477.442 -2.79814 1.03666 0
M  V30 4897 C 476.191 -3.42008 -0.626573 0
M  V30 4898 H 475.514 -3.99795 0.0192103 0
M  V30 4899 H 476.954 -4.11727 -1.01278 0
M  V30 4900 C 475.413 -2.85226 -1.79298 0
M  V30 4901 O 475.943 -2.78945 -2.89055 0
M  V30 4902 N 474.149 -2.42245 -1.60516 0
M  V30 4903 H 473.696 -2.47554 -0.712375 0
M  V30 4904 H 473.654 -2.04603 -2.38715 0
M  V30 4905 N 477.426 -0.562348 -1.47226 0
M  V30 4906 C 478.336 0.185466 -2.33866 0
M  V30 4907 C 479.352 0.906713 -1.48508 0
M  V30 4908 O 480.528 0.874458 -1.81425 0
M  V30 4909 C 477.593 1.19904 -3.25306 0
M  V30 4910 C 476.654 0.484669 -4.26555 0
M  V30 4911 C 475.887 1.44996 -5.13626 0
M  V30 4912 O 476.11 2.68515 -5.03245 0
M  V30 4913 O 475.044 0.971642 -5.94006 0
M  V30 4914 H 478.87 -0.525361 -2.99121 0
M  V30 4915 H 476.455 -0.322916 -1.45868 0
M  V30 4916 H 478.337 1.78399 -3.81774 0
M  V30 4917 H 477.012 1.8917 -2.62672 0
M  V30 4918 H 475.919 -0.141605 -3.73832 0
M  V30 4919 H 477.252 -0.166634 -4.91918 0
M  V30 4920 N 478.904 1.54736 -0.299062 0
M  V30 4921 C 479.867 2.22127 0.565012 0
M  V30 4922 C 480.867 1.20669 1.06281 0
M  V30 4923 O 482.057 1.45417 0.959145 0
M  V30 4924 C 479.189 2.90611 1.78208 0
M  V30 4925 H 480.382 2.99891 -0.0237448 0
M  V30 4926 H 477.935 1.5622 -0.0498788 0
M  V30 4927 H 478.67 2.16921 2.41072 0
M  V30 4928 H 478.455 3.64984 1.43281 0
M  V30 4929 H 479.945 3.42026 2.396 0
M  V30 4930 N 480.382 0.0267497 1.57577 0
M  V30 4931 C 481.312 -0.954308 2.13108 0
M  V30 4932 C 482.293 -1.34088 1.04663 0
M  V30 4933 O 483.478 -1.41992 1.32484 0
M  V30 4934 C 480.608 -2.23744 2.65624 0
M  V30 4935 C 479.562 -1.99168 3.78835 0
M  V30 4936 C 478.888 -3.33726 4.17769 0
M  V30 4937 C 480.188 -1.33277 5.0501 0
M  V30 4938 H 481.882 -0.491848 2.95332 0
M  V30 4939 H 479.428 -0.23514 1.42067 0
M  V30 4940 H 481.381 -2.92754 3.03106 0
M  V30 4941 H 480.105 -2.72151 1.80558 0
M  V30 4942 H 478.764 -1.32577 3.41788 0
M  V30 4943 H 478.412 -3.79888 3.29688 0
M  V30 4944 H 478.112 -3.18089 4.94058 0
M  V30 4945 H 479.636 -4.04008 4.57832 0
M  V30 4946 H 481.05 -1.92283 5.40093 0
M  V30 4947 H 479.447 -1.28045 5.8628 0
M  V30 4948 H 480.517 -0.305411 4.83937 0
M  V30 4949 N 481.861 -1.55662 -0.24637 0
M  V30 4950 C 482.824 -1.89558 -1.28842 0
M  V30 4951 C 483.824 -0.772082 -1.41052 0
M  V30 4952 O 485.014 -1.04007 -1.39743 0
M  V30 4953 C 482.146 -2.12449 -2.66605 0
M  V30 4954 H 483.339 -2.82735 -1.00004 0
M  V30 4955 H 480.892 -1.48562 -0.485684 0
M  V30 4956 H 481.627 -1.21742 -3.00582 0
M  V30 4957 H 481.412 -2.94273 -2.59125 0
M  V30 4958 H 482.902 -2.39854 -3.41847 0
M  V30 4959 N 483.339 0.512053 -1.4905 0
M  V30 4960 C 484.302 1.59704 -1.64399 0
M  V30 4961 C 485.302 1.52285 -0.516317 0
M  V30 4962 O 486.492 1.55635 -0.782527 0
M  V30 4963 C 483.624 2.9935 -1.63102 0
M  V30 4964 H 484.817 1.47428 -2.61161 0
M  V30 4965 H 482.37 0.735469 -1.37915 0
M  V30 4966 H 483.105 3.17116 -0.678836 0
M  V30 4967 H 482.89 3.06144 -2.44986 0
M  V30 4968 H 484.38 3.782 -1.77072 0
M  V30 4969 N 484.817 1.37938 0.762283 0
M  V30 4970 C 485.749 1.30349 1.88525 0
M  V30 4971 C 486.762 0.217402 1.61342 0
M  V30 4972 O 487.951 0.474291 1.72084 0
M  V30 4973 C 485.051 0.994844 3.23969 0
M  V30 4974 C 484.224 2.18829 3.78725 0
M  V30 4975 C 483.283 1.84844 4.92665 0
M  V30 4976 O 482.309 2.57244 5.07754 0
M  V30 4977 N 483.511 0.798201 5.74986 0
M  V30 4978 H 486.276 2.27114 1.95549 0
M  V30 4979 H 483.837 1.31686 0.941825 0
M  V30 4980 H 485.829 0.748168 3.97724 0
M  V30 4981 H 484.399 0.115446 3.12387 0
M  V30 4982 H 483.619 2.59615 2.96637 0
M  V30 4983 H 484.907 2.98497 4.1204 0
M  V30 4984 H 484.305 0.197611 5.65355 0
M  V30 4985 H 482.862 0.611396 6.48926 0
M  V30 4986 N 486.295 -0.989507 1.22664 0
M  V30 4987 C 487.242 -2.08024 0.999733 0
M  V30 4988 C 488.212 -1.65909 -0.0797047 0
M  V30 4989 O 489.397 -1.90669 0.0705715 0
M  V30 4990 C 486.537 -3.40067 0.587234 0
M  V30 4991 C 485.65 -3.95505 1.73781 0
M  V30 4992 C 484.785 -5.15722 1.27297 0
M  V30 4993 C 483.824 -5.63305 2.39488 0
M  V30 4994 N 482.961 -6.74758 1.94026 0
M  V30 4995 H 487.801 -2.26768 1.9334 0
M  V30 4996 H 485.338 -1.11171 0.963297 0
M  V30 4997 H 487.296 -4.15899 0.329227 0
M  V30 4998 H 485.926 -3.21314 -0.309426 0
M  V30 4999 H 484.978 -3.16513 2.11006 0
M  V30 5000 H 486.29 -4.26797 2.58158 0
M  V30 5001 H 485.444 -5.98854 0.972546 0
M  V30 5002 H 484.183 -4.86061 0.399445 0
M  V30 5003 H 483.188 -4.78759 2.70315 0
M  V30 5004 H 484.413 -5.94988 3.27362 0
M  V30 5005 H 482.359 -6.46874 1.09041 0
M  V30 5006 H 482.276 -7.05386 2.71968 0
M  V30 5007 H 483.544 -7.61387 1.67062 0
M  V30 5008 O 487.812 -1.16279 -1.12078 0
M  V30 5009 H 488.503 -0.894109 -1.7183 0
M  V30 END ATOM
M  V30 BEGIN BOND
M  V30 END BOND
M  V30 END CTAB
M  END
$$$$
