drugbank_target|Q93EK7 LgtC (DB02976)
 OpenBabel12092120263D

  0  0  0     0  0            999 V3000
M  V30 BEGIN CTAB
M  V30 COUNTS 4976 5041 0 0 0
M  V30 BEGIN ATOM
M  V30 1 H -0.908 1.98254 -0.117106 0
M  V30 2 N 0 1.576 0 0
M  V30 3 C 0.933 2.03868 1.02534 0
M  V30 4 C 1.911 0.928543 1.3348 0
M  V30 5 O 3.095 1.19667 1.45644 0
M  V30 6 C 0.222 2.43627 2.35294 0
M  V30 7 C -0.732 3.65373 2.2001 0
M  V30 8 S 0.101 5.13292 1.52614 0
M  V30 9 C 1.257 5.56322 2.86805 0
M  V30 10 H 1.49 2.90518 0.631377 0
M  V30 11 H -0.977 1.52953 0.210867 0
M  V30 12 H 0.981 2.67203 3.11629 0
M  V30 13 H -0.358 1.57376 2.7183 0
M  V30 14 H -1.165 3.90944 3.18086 0
M  V30 15 H -1.563 3.418 1.51819 0
M  V30 16 H 0.729 5.58782 3.83104 0
M  V30 17 H 1.672 6.56266 2.65933 0
M  V30 18 H 2.08 4.83886 2.90714 0
M  V30 19 N 1.4781 -0.272755 1.55222 0
M  V30 20 C 2.7551 -1.02562 1.66555 0
M  V30 21 C 3.1351 -2.04282 0.532189 0
M  V30 22 O 2.4831 -2.23662 -0.467717 0
M  V30 23 C 2.6931 -1.6822 3.05782 0
M  V30 24 C 4.0411 -2.19373 3.63539 0
M  V30 25 O 5.0651 -1.78206 3.08417 0
M  V30 26 O 3.9241 -2.94883 4.60115 0
M  V30 27 H 1.0181 -0.475755 0.676451 0
M  V30 28 H 3.5641 -0.268593 1.67561 0
M  V30 29 H 2.3361 -0.945112 3.79715 0
M  V30 30 H 1.9591 -2.50609 3.08676 0
M  V30 31 N 2.9562 -1.48159 -0.537278 0
M  V30 32 C 4.2052 -1.5506 -1.28993 0
M  V30 33 C 4.5182 -0.226211 -1.94288 0
M  V30 34 O 5.7242 -0.173395 -2.70946 0
M  V30 35 C 4.1802 -2.73429 -2.34018 0
M  V30 36 C 3.7882 -4.1248 -1.74825 0
M  V30 37 C 5.5322 -2.89638 -3.10339 0
M  V30 38 C 3.4392 -5.22121 -2.77747 0
M  V30 39 H 2.3692 -0.577231 -0.485098 0
M  V30 40 H 5.0202 -1.74478 -0.568317 0
M  V30 41 H 3.4022 -2.47431 -3.09182 0
M  V30 42 H 4.5762 -4.48466 -1.05899 0
M  V30 43 H 2.8912 -4.01327 -1.11022 0
M  V30 44 H 5.4882 -3.68718 -3.87235 0
M  V30 45 H 5.8312 -1.9882 -3.65754 0
M  V30 46 H 6.3642 -3.15502 -2.42288 0
M  V30 47 H 3.1032 -6.1488 -2.27161 0
M  V30 48 H 2.6232 -4.90631 -3.45024 0
M  V30 49 H 4.3022 -5.49924 -3.4087 0
M  V30 50 N 4.4343 0.785586 -1.36625 0
M  V30 51 C 5.6803 1.54591 -1.31261 0
M  V30 52 C 6.0133 1.93906 0.106823 0
M  V30 53 O 5.2883 1.63007 1.06108 0
M  V30 54 C 5.5713 2.82038 -2.23889 0
M  V30 55 C 5.4243 2.49066 -3.74548 0
M  V30 56 C 6.7433 3.83887 -2.15217 0
M  V30 57 H 3.8623 0.560846 -0.478143 0
M  V30 58 H 6.5043 0.902278 -1.67209 0
M  V30 59 H 4.6543 3.36961 -1.93363 0
M  V30 60 H 6.3263 2.00164 -4.15611 0
M  V30 61 H 4.5693 1.81954 -3.93796 0
M  V30 62 H 5.2403 3.40109 -4.34776 0
M  V30 63 H 7.7163 3.38421 -2.42096 0
M  V30 64 H 6.5923 4.70806 -2.82193 0
M  V30 65 H 6.8533 4.27131 -1.14068 0
M  V30 66 N 5.9124 1.20967 1.01018 0
M  V30 67 C 7.1594 1.02374 1.74716 0
M  V30 68 C 7.4874 -0.443375 1.89379 0
M  V30 69 O 6.7424 -1.34535 1.42123 0
M  V30 70 C 7.0414 1.65997 3.16512 0
M  V30 71 C 6.7074 3.15831 3.2181 0
M  V30 72 C 5.3694 3.56719 3.22963 0
M  V30 73 C 7.7214 4.11816 3.19464 0
M  V30 74 C 5.0494 4.92107 3.19449 0
M  V30 75 C 7.4014 5.47158 3.17491 0
M  V30 76 C 6.0654 5.87451 3.16951 0
M  V30 77 H 5.3354 0.374614 0.639332 0
M  V30 78 H 7.9824 1.50485 1.18434 0
M  V30 79 H 6.2874 1.10166 3.75993 0
M  V30 80 H 7.9844 1.49119 3.72242 0
M  V30 81 H 4.5744 2.83263 3.21652 0
M  V30 82 H 8.7584 3.81257 3.17737 0
M  V30 83 H 4.0144 5.22579 3.17366 0
M  V30 84 H 8.1884 6.21274 3.14629 0
M  V30 85 H 5.8154 6.92329 3.13983 0
M  V30 86 N 7.3905 -1.2043 1.01659 0
M  V30 87 C 8.3535 -2.21433 0.591616 0
M  V30 88 C 9.3535 -1.57203 -0.338226 0
M  V30 89 O 10.5435 -1.73737 -0.126918 0
M  V30 90 C 7.6755 -3.40628 -0.136058 0
M  V30 91 H 8.8685 -2.60545 1.48514 0
M  V30 92 H 6.4215 -1.33893 0.806379 0
M  V30 93 H 7.1565 -3.07019 -1.04449 0
M  V30 94 H 6.9415 -3.88475 0.531917 0
M  V30 95 H 8.4315 -4.15475 -0.420735 0
M  V30 96 N 8.8686 -0.792821 -1.36206 0
M  V30 97 C 9.8316 -0.199459 -2.2833 0
M  V30 98 C 10.8316 0.605189 -1.48977 0
M  V30 99 O 12.0216 0.425685 -1.68919 0
M  V30 100 C 9.1536 0.723523 -3.33134 0
M  V30 101 H 10.3466 -1.01181 -2.82316 0
M  V30 102 H 7.8996 -0.562485 -1.45828 0
M  V30 103 H 8.6346 1.56008 -2.84309 0
M  V30 104 H 8.4196 0.148436 -3.91819 0
M  V30 105 H 9.9096 1.13344 -4.01924 0
M  V30 106 N 10.3467 1.47872 -0.545128 0
M  V30 107 C 11.6237 1.9554 0.0485222 0
M  V30 108 C 12.0037 1.4876 1.49779 0
M  V30 109 O 11.3517 0.720925 2.16829 0
M  V30 110 C 11.5617 3.48898 -0.084417 0
M  V30 111 C 12.9097 4.24547 0.0671239 0
M  V30 112 O 13.9337 3.56198 -0.0113649 0
M  V30 113 O 12.7927 5.45999 0.233882 0
M  V30 114 H 9.8867 0.823957 0.0708773 0
M  V30 115 H 12.4327 1.58327 -0.610798 0
M  V30 116 H 11.2047 3.75714 -1.09337 0
M  V30 117 H 10.8277 3.92845 0.613066 0
M  V30 118 N 11.8248 0.280983 1.55075 0
M  V30 119 C 13.1018 -0.386207 1.91749 0
M  V30 120 C 13.4818 -1.73264 1.20594 0
M  V30 121 O 12.8298 -2.26034 0.334784 0
M  V30 122 C 13.0398 -0.520687 3.45094 0
M  V30 123 C 14.3878 -0.800865 4.16979 0
M  V30 124 O 15.4118 -0.605271 3.5102 0
M  V30 125 O 14.2708 -1.1753 5.33712 0
M  V30 126 H 11.3648 -0.212408 0.799257 0
M  V30 127 H 13.9108 0.327568 1.66509 0
M  V30 128 H 12.6828 0.426633 3.88967 0
M  V30 129 H 12.3058 -1.2837 3.76307 0
M  V30 130 N 13.3029 -1.57598 0.00835791 0
M  V30 131 C 14.2509 -2.10078 -0.998508 0
M  V30 132 C 15.2449 -1.02262 -1.35051 0
M  V30 133 O 16.4509 -1.20719 -1.33518 0
M  V30 134 H 12.8259 -0.670903 -0.339696 0
M  V30 135 H 14.7969 -2.93648 -0.530398 0
M  V30 136 C 13.5459 -2.62615 -2.27879 0
M  V30 137 H 12.8689 -3.45213 -2.01662 0
M  V30 138 H 14.3089 -3.03004 -2.96588 0
M  V30 139 C 12.7679 -1.54407 -2.99433 0
M  V30 140 O 13.2979 -0.931812 -3.90743 0
M  V30 141 N 11.5039 -1.2695 -2.61404 0
M  V30 142 H 11.0509 -1.76924 -1.87232 0
M  V30 143 H 11.0089 -0.547704 -3.09593 0
M  V30 144 N 14.781 0.264519 -1.55364 0
M  V30 145 C 16.011 1.01153 -1.80143 0
M  V30 146 C 16.419 1.80115 -0.579253 0
M  V30 147 O 15.762 1.77813 0.46132 0
M  V30 148 C 15.824 2.01098 -2.97993 0
M  V30 149 C 15.488 1.40995 -4.34706 0
M  V30 150 C 16.485 0.821316 -5.13372 0
M  V30 151 C 14.17 1.43461 -4.81378 0
M  V30 152 C 16.164 0.265339 -6.36847 0
M  V30 153 C 13.851 0.874771 -6.04807 0
M  V30 154 C 14.849 0.291146 -6.82379 0
M  V30 155 O 14.537 -0.260093 -8.03479 0
M  V30 156 H 14.269 0.304125 -0.603725 0
M  V30 157 H 16.823 0.298089 -2.03225 0
M  V30 158 H 15.053 2.76224 -2.70623 0
M  V30 159 H 16.742 2.61997 -3.1002 0
M  V30 160 H 17.508 0.794903 -4.78442 0
M  V30 161 H 13.387 1.87826 -4.21002 0
M  V30 162 H 16.931 -0.190837 -6.97339 0
M  V30 163 H 12.828 0.898452 -6.39217 0
M  V30 164 H 13.596 -0.150265 -8.18362 0
M  V30 165 N 16.2591 1.48442 0.529413 0
M  V30 166 C 17.2221 1.62524 1.61612 0
M  V30 167 C 18.2221 0.498509 1.52877 0
M  V30 168 O 19.4121 0.76431 1.56537 0
M  V30 169 C 16.5441 1.59597 3.01233 0
M  V30 170 H 17.7371 2.59423 1.50465 0
M  V30 171 H 15.2901 1.37047 0.751514 0
M  V30 172 H 16.0251 0.641781 3.17886 0
M  V30 173 H 15.8101 2.41397 3.08982 0
M  V30 174 H 17.3001 1.72646 3.80241 0
M  V30 175 N 17.7372 -0.778329 1.37039 0
M  V30 176 C 18.7002 -1.87301 1.32102 0
M  V30 177 C 19.7002 -1.59198 0.226405 0
M  V30 178 O 20.8902 -1.67403 0.481861 0
M  V30 179 C 18.0222 -3.24309 1.05055 0
M  V30 180 H 19.2152 -1.93093 2.29467 0
M  V30 181 H 16.7682 -0.977358 1.21973 0
M  V30 182 H 17.5032 -3.24196 0.0819373 0
M  V30 183 H 17.2882 -3.46098 1.84279 0
M  V30 184 H 18.7782 -4.04382 1.04234 0
M  V30 185 N 19.2153 -1.21501 -1.00376 0
M  V30 186 C 20.4453 -1.05746 -1.77486 0
M  V30 187 C 20.8533 0.395655 -1.85017 0
M  V30 188 O 20.1963 1.28626 -1.31152 0
M  V30 189 C 20.2583 -1.58092 -3.22873 0
M  V30 190 C 19.9223 -3.06568 -3.38917 0
M  V30 191 C 20.9193 -4.04106 -3.271 0
M  V30 192 C 18.6043 -3.45799 -3.64319 0
M  V30 193 C 20.5983 -5.38862 -3.40451 0
M  V30 194 C 18.2853 -4.80707 -3.77311 0
M  V30 195 C 19.2833 -5.77047 -3.65384 0
M  V30 196 O 18.9713 -7.09507 -3.77961 0
M  V30 197 H 18.7033 -0.371778 -0.564586 0
M  V30 198 H 21.2573 -1.61319 -1.27143 0
M  V30 199 H 19.4873 -0.969163 -3.74358 0
M  V30 200 H 21.1763 -1.38162 -3.81662 0
M  V30 201 H 21.9423 -3.75141 -3.07399 0
M  V30 202 H 17.8213 -2.71344 -3.72684 0
M  V30 203 H 21.3653 -6.14041 -3.31058 0
M  V30 204 H 17.2623 -5.09357 -3.96517 0
M  V30 205 H 18.0303 -7.16935 -3.94901 0
M  V30 206 N 20.6934 1.19889 -1.02296 0
M  V30 207 C 21.6234 2.25141 -0.619174 0
M  V30 208 C 22.6044 1.66051 0.368915 0
M  V30 209 O 23.7894 1.92546 0.252941 0
M  V30 210 C 20.9194 3.4728 0.0368783 0
M  V30 211 C 19.8734 4.19005 -0.872865 0
M  V30 212 C 19.1994 5.34637 -0.0822402 0
M  V30 213 C 20.4994 4.74452 -2.18387 0
M  V30 214 H 22.1934 2.59171 -1.49903 0
M  V30 215 H 19.7394 1.24579 -0.722222 0
M  V30 216 H 21.6924 4.20098 0.330958 0
M  V30 217 H 20.4164 3.12433 0.95149 0
M  V30 218 H 19.0754 3.48061 -1.15105 0
M  V30 219 H 18.7234 4.96034 0.83422 0
M  V30 220 H 18.4234 5.83557 -0.688149 0
M  V30 221 H 19.9474 6.10255 0.205238 0
M  V30 222 H 21.3614 5.39055 -1.95172 0
M  V30 223 H 19.7584 5.33834 -2.74119 0
M  V30 224 H 20.8284 3.92844 -2.84257 0
M  V30 225 N 22.1715 0.800033 1.35784 0
M  V30 226 C 23.4115 0.382891 2.00782 0
M  V30 227 C 23.7755 -1.02891 1.62103 0
M  V30 228 O 24.9765 -1.54771 2.19771 0
M  V30 229 C 23.2475 0.553299 3.53091 0
M  V30 230 S 24.8065 0.225608 4.3822 0
M  V30 231 H 21.6245 0.145737 0.695904 0
M  V30 232 H 24.2265 1.04085 1.65489 0
M  V30 233 H 22.9305 1.58091 3.78729 0
M  V30 234 H 22.4615 -0.120214 3.93216 0
M  V30 235 H 24.4765 -0.969074 4.86645 0
M  V30 236 N 23.6496 -1.47581 0.552962 0
M  V30 237 C 24.8956 -2.02782 0.0273648 0
M  V30 238 C 25.2286 -1.42687 -1.31734 0
M  V30 239 O 24.5036 -0.580897 -1.85623 0
M  V30 240 C 24.7866 -3.60031 -0.0702371 0
M  V30 241 C 24.6396 -4.30566 1.30126 0
M  V30 242 C 25.9586 -4.33028 -0.785771 0
M  V30 243 H 23.0776 -0.736912 0.0114185 0
M  V30 244 H 25.7196 -1.76056 0.714432 0
M  V30 245 H 23.8696 -3.82932 -0.655382 0
M  V30 246 H 25.5416 -4.19018 1.92929 0
M  V30 247 H 23.7846 -3.91086 1.87709 0
M  V30 248 H 24.4556 -5.39114 1.18573 0
M  V30 249 H 26.9316 -4.15095 -0.288982 0
M  V30 250 H 25.8076 -5.42695 -0.823013 0
M  V30 251 H 26.0686 -4.01945 -1.841 0
M  V30 252 N 25.1277 -0.289203 -1.54924 0
M  V30 253 C 26.0907 0.579144 -2.21762 0
M  V30 254 C 27.0907 1.07047 -1.1999 0
M  V30 255 O 28.2807 0.968384 -1.44803 0
M  V30 256 C 25.4127 1.80055 -2.8947 0
M  V30 257 H 26.6057 -0.00464908 -2.999 0
M  V30 258 H 24.1587 -0.0399306 -1.56249 0
M  V30 259 H 24.8937 2.42449 -2.15381 0
M  V30 260 H 24.6787 1.45602 -3.64064 0
M  V30 261 H 26.1687 2.41773 -3.40493 0
M  V30 262 N 26.6058 1.57591 -0.0167156 0
M  V30 263 C 27.5688 2.08393 0.954204 0
M  V30 264 C 28.5688 0.996531 1.26198 0
M  V30 265 O 29.7588 1.25858 1.20438 0
M  V30 266 C 26.8908 2.5394 2.27436 0
M  V30 267 H 28.0838 2.95455 0.514451 0
M  V30 268 H 25.6368 1.54582 0.231089 0
M  V30 269 H 26.3718 1.70171 2.76066 0
M  V30 270 H 26.1568 3.33371 2.06412 0
M  V30 271 H 27.6468 2.93512 2.97053 0
M  V30 272 N 28.0839 -0.256276 1.55502 0
M  V30 273 C 29.0309 -1.31714 1.89526 0
M  V30 274 C 30.0009 -1.4828 0.748479 0
M  V30 275 O 31.1859 -1.62416 1.00128 0
M  V30 276 C 28.3259 -2.66933 2.18725 0
M  V30 277 C 27.4389 -2.58452 3.4616 0
M  V30 278 C 26.5739 -3.85961 3.64976 0
M  V30 279 C 25.6129 -3.72059 4.86044 0
M  V30 280 N 24.7499 -4.9144 5.01429 0
M  V30 281 H 29.5899 -1.01998 2.80001 0
M  V30 282 H 27.1269 -0.492413 1.38613 0
M  V30 283 H 29.0849 -3.4563 2.33657 0
M  V30 284 H 27.7149 -2.94816 1.31466 0
M  V30 285 H 26.7669 -1.71374 3.3961 0
M  V30 286 H 28.0789 -2.44085 4.34999 0
M  V30 287 H 27.2329 -4.73101 3.79816 0
M  V30 288 H 25.9719 -4.03215 2.74353 0
M  V30 289 H 24.9769 -2.83302 4.7119 0
M  V30 290 H 26.2019 -3.56309 5.78118 0
M  V30 291 H 24.1479 -5.09072 4.13741 0
M  V30 292 H 24.0649 -4.79668 5.84341 0
M  V30 293 H 25.3329 -5.80104 5.20672 0
M  V30 294 N 29.562 -1.4872 -0.521534 0
M  V30 295 C 30.787 -1.61101 -1.30618 0
M  V30 296 C 31.212 -0.274611 -1.86085 0
M  V30 297 O 30.57 0.754937 -1.64834 0
M  V30 298 C 30.618 -2.66709 -2.4269 0
M  V30 299 O 29.722 -2.24456 -3.45967 0
M  V30 300 H 29.063 -0.539921 -0.386499 0
M  V30 301 H 31.593 -1.94767 -0.626645 0
M  V30 302 H 31.603 -2.88245 -2.88754 0
M  V30 303 H 30.278 -3.63727 -2.01682 0
M  V30 304 H 28.855 -2.13168 -3.05964 0
M  V30 305 N 31.0401 0.771051 -1.3745 0
M  V30 306 C 32.2861 1.5319 -1.32894 0
M  V30 307 C 32.6191 1.94008 0.0862511 0
M  V30 308 O 31.8941 1.64124 1.04373 0
M  V30 309 C 32.1771 2.79648 -2.26868 0
M  V30 310 C 32.0301 2.45079 -3.77169 0
M  V30 311 C 33.3491 3.81583 -2.19277 0
M  V30 312 H 30.4681 0.555744 -0.484064 0
M  V30 313 H 33.1101 0.884492 -1.68157 0
M  V30 314 H 31.2601 3.34891 -1.96926 0
M  V30 315 H 32.9321 1.95745 -4.1771 0
M  V30 316 H 31.1751 1.77767 -3.95704 0
M  V30 317 H 31.8461 3.35478 -4.38359 0
M  V30 318 H 34.3221 3.35835 -2.45671 0
M  V30 319 H 33.1981 4.67787 -2.87171 0
M  V30 320 H 33.4591 4.25897 -1.18592 0
M  V30 321 N 32.5182 1.22032 0.997298 0
M  V30 322 C 33.4282 1.00271 2.12092 0
M  V30 323 C 34.4442 -0.047621 1.73935 0
M  V30 324 O 35.6202 0.144136 2.00884 0
M  V30 325 C 32.6852 0.578449 3.4184 0
M  V30 326 C 31.7462 1.70189 3.94125 0
M  V30 327 C 30.9792 1.29778 5.17681 0
M  V30 328 O 31.2022 0.174676 5.70132 0
M  V30 329 O 30.1362 2.11261 5.63607 0
M  V30 330 H 33.9622 1.94398 2.3333 0
M  V30 331 H 31.5472 1.00587 1.10465 0
M  V30 332 H 33.4292 0.351998 4.19927 0
M  V30 333 H 32.1042 -0.334019 3.21972 0
M  V30 334 H 31.0112 1.98282 3.1723 0
M  V30 335 H 32.3442 2.59206 4.18417 0
M  V30 336 N 33.9963 -1.19345 1.0293 0
M  V30 337 C 34.9593 -2.20793 0.615069 0
M  V30 338 C 35.9593 -1.57553 -0.321533 0
M  V30 339 O 37.1493 -1.73862 -0.108483 0
M  V30 340 C 34.2813 -3.40754 -0.0999222 0
M  V30 341 H 35.4743 -2.58955 1.51269 0
M  V30 342 H 33.0273 -1.3303 0.820534 0
M  V30 343 H 33.7623 -3.0811 -1.01187 0
M  V30 344 H 33.5473 -3.87889 0.57309 0
M  V30 345 H 35.0373 -4.15898 -0.376645 0
M  V30 346 N 35.4744 -0.807222 -1.35358 0
M  V30 347 C 36.4374 -0.223665 -2.28106 0
M  V30 348 C 37.4374 0.589354 -1.4961 0
M  V30 349 O 38.6274 0.407745 -1.69361 0
M  V30 350 C 35.7594 0.688149 -3.33882 0
M  V30 351 H 36.9524 -1.04169 -2.81227 0
M  V30 352 H 34.5054 -0.577921 -1.45223 0
M  V30 353 H 35.2404 1.52984 -2.85948 0
M  V30 354 H 35.0254 0.10687 -3.91954 0
M  V30 355 H 36.5154 1.09075 -4.03104 0
M  V30 356 N 36.9525 1.47285 -0.560781 0
M  V30 357 C 37.9025 2.27073 0.205384 0
M  V30 358 C 38.8865 1.34569 0.882044 0
M  V30 359 O 40.0785 1.58899 0.77976 0
M  V30 360 C 37.2075 3.20414 1.23247 0
M  V30 361 C 36.2935 4.20399 0.559041 0
M  V30 362 N 36.6845 5.04423 -0.372927 0
M  V30 363 C 34.9825 4.38536 0.812522 0
M  V30 364 C 35.6835 5.76655 -0.764446 0
M  V30 365 N 34.6595 5.43471 -0.11848 0
M  V30 366 H 38.4615 2.89422 -0.511117 0
M  V30 367 H 35.9755 1.57868 -0.380975 0
M  V30 368 H 37.9725 3.76262 1.79534 0
M  V30 369 H 36.6325 2.59623 1.95002 0
M  V30 370 H 37.6435 5.1248 -0.747287 0
M  V30 371 H 34.3205 3.88913 1.51832 0
M  V30 372 H 35.7105 6.54238 -1.53045 0
M  V30 373 N 38.4306 0.297415 1.54768 0
M  V30 374 C 39.8416 -0.195947 1.85669 0
M  V30 375 C 40.1926 -1.53707 1.21937 0
M  V30 376 O 39.3176 -2.10164 0.515754 0
M  V30 377 C 39.9126 -0.362318 3.36857 0
M  V30 378 C 38.4716 -0.799901 3.67802 0
M  V30 379 C 37.6186 0.0938578 2.77141 0
M  V30 380 H 40.5696 0.518538 1.4999 0
M  V30 381 H 40.5906 -1.19745 3.61167 0
M  V30 382 H 40.1026 0.613921 3.83214 0
M  V30 383 H 38.2036 -1.78682 3.26961 0
M  V30 384 H 38.3166 -0.621773 4.75048 0
M  V30 385 H 36.6806 -0.426254 2.51108 0
M  V30 386 H 37.4636 1.06639 3.26318 0
M  V30 387 N 39.9087 -1.5758 0.0250728 0
M  V30 388 C 41.1857 -1.82917 -0.692873 0
M  V30 389 C 41.5657 -0.908137 -1.90568 0
M  V30 390 O 40.9137 0.0372298 -2.2847 0
M  V30 391 C 41.1237 -3.32034 -1.07492 0
M  V30 392 C 42.4717 -3.98406 -1.46826 0
M  V30 393 O 43.4957 -3.36505 -1.16801 0
M  V30 394 O 42.3547 -5.07497 -2.02754 0
M  V30 395 H 39.4487 -0.754079 -0.33955 0
M  V30 396 H 41.9947 -1.69619 0.0524456 0
M  V30 397 H 40.7667 -3.90728 -0.211552 0
M  V30 398 H 40.3897 -3.50424 -1.87854 0
M  V30 399 N 41.3868 0.248026 -1.55636 0
M  V30 400 C 42.6148 0.993808 -1.81469 0
M  V30 401 C 43.0298 1.78991 -0.60064 0
M  V30 402 O 42.3868 1.77345 0.430682 0
M  V30 403 C 42.4378 1.93258 -3.05506 0
M  V30 404 O 42.1588 1.16869 -4.22224 0
M  V30 405 C 43.6598 2.79444 -3.4413 0
M  V30 406 H 40.8798 0.292486 -0.603898 0
M  V30 407 H 43.4238 0.271253 -2.02693 0
M  V30 408 H 41.5788 2.60943 -2.86335 0
M  V30 409 H 41.9928 1.80359 -4.92515 0
M  V30 410 H 43.4668 3.41066 -4.34026 0
M  V30 411 H 43.9438 3.50499 -2.64665 0
M  V30 412 H 44.5498 2.17214 -3.65648 0
M  V30 413 N 42.8649 1.48995 0.513639 0
M  V30 414 C 43.7749 1.67443 1.64317 0
M  V30 415 C 44.7909 0.556947 1.64846 0
M  V30 416 O 45.9669 0.830082 1.83498 0
M  V30 417 C 43.0319 1.72515 3.00732 0
M  V30 418 C 42.0929 2.96009 3.1093 0
M  V30 419 C 41.3259 3.00829 4.40837 0
M  V30 420 O 41.5489 2.13594 5.28898 0
M  V30 421 O 40.4829 3.93168 4.55744 0
M  V30 422 H 44.3089 2.63106 1.51687 0
M  V30 423 H 41.8939 1.32588 0.688543 0
M  V30 424 H 43.7759 1.78277 3.81831 0
M  V30 425 H 42.4509 0.800278 3.13651 0
M  V30 426 H 41.3579 2.9577 2.29065 0
M  V30 427 H 42.6909 3.87934 3.02933 0
M  V30 428 N 44.343 -0.763751 1.37857 0
M  V30 429 C 45.592 -1.51789 1.32827 0
M  V30 430 C 45.905 -1.95426 -0.0823719 0
M  V30 431 O 47.111 -2.70298 -0.255172 0
M  V30 432 C 45.567 -2.74133 2.33193 0
M  V30 433 C 45.175 -2.37562 3.79827 0
M  V30 434 C 46.919 -3.52054 2.37188 0
M  V30 435 C 44.826 -3.56456 4.71904 0
M  V30 436 H 43.756 -0.569896 0.493695 0
M  V30 437 H 46.407 -0.835822 1.63359 0
M  V30 438 H 44.789 -3.4427 1.9569 0
M  V30 439 H 45.963 -1.75157 4.26212 0
M  V30 440 H 44.278 -1.72798 3.78853 0
M  V30 441 H 46.875 -4.40437 3.03182 0
M  V30 442 H 47.218 -3.92486 1.38782 0
M  V30 443 H 47.751 -2.88921 2.7344 0
M  V30 444 H 44.49 -3.21099 5.71468 0
M  V30 445 H 44.01 -4.17938 4.30218 0
M  V30 446 H 45.689 -4.23168 4.89426 0
M  V30 447 N 45.8211 -1.22559 -0.990812 0
M  V30 448 C 47.2371 -0.985996 -1.255 0
M  V30 449 C 47.4371 0.319173 -1.98956 0
M  V30 450 O 46.4931 1.04127 -2.3003 0
M  V30 451 C 47.8061 -2.18607 -2.06474 0
M  V30 452 C 49.3541 -2.22985 -2.19651 0
M  V30 453 C 49.8291 -3.4255 -3.04012 0
M  V30 454 N 51.3201 -3.42725 -3.11599 0
M  V30 455 C 52.0551 -4.31892 -3.7717 0
M  V30 456 N 51.5511 -5.31279 -4.44651 0
M  V30 457 N 53.3441 -4.19662 -3.73952 0
M  V30 458 H 45.4951 -2.06469 -0.49841 0
M  V30 459 H 47.7581 -0.904853 -0.282747 0
M  V30 460 H 47.4641 -3.13267 -1.59865 0
M  V30 461 H 47.3381 -2.18838 -3.07229 0
M  V30 462 H 49.7251 -1.28871 -2.65474 0
M  V30 463 H 49.8061 -2.26791 -1.18319 0
M  V30 464 H 49.4501 -4.36965 -2.58889 0
M  V30 465 H 49.3801 -3.35984 -4.0549 0
M  V30 466 H 51.8711 -2.70807 -2.63575 0
M  V30 467 H 52.1841 -5.95593 -4.92431 0
M  V30 468 H 50.5291 -5.3519 -4.43392 0
M  V30 469 H 53.7201 -3.41268 -3.20396 0
M  V30 470 H 53.8931 -4.89358 -4.24774 0
M  V30 471 N 47.2992 1.18797 -1.03562 0
M  V30 472 C 48.5462 1.8865 -0.736023 0
M  V30 473 C 48.8742 1.80041 0.735889 0
M  V30 474 O 48.1292 1.19179 1.55225 0
M  V30 475 C 48.4282 3.38692 -1.14117 0
M  V30 476 C 48.0942 3.67504 -2.6125 0
M  V30 477 C 46.7562 3.75078 -3.01447 0
M  V30 478 C 49.1082 3.80293 -3.56408 0
M  V30 479 C 46.4362 3.92915 -4.35701 0
M  V30 480 C 48.7882 3.99645 -4.90374 0
M  V30 481 C 47.4522 4.05453 -5.30249 0
M  V30 482 H 46.7222 0.690321 -0.26933 0
M  V30 483 H 49.3692 1.40641 -1.29971 0
M  V30 484 H 47.6742 3.88645 -0.496202 0
M  V30 485 H 49.3712 3.91072 -0.886789 0
M  V30 486 H 45.9612 3.62223 -2.29113 0
M  V30 487 H 50.1452 3.73779 -3.26501 0
M  V30 488 H 45.4012 3.95653 -4.66121 0
M  V30 489 H 49.5752 4.08482 -5.64017 0
M  V30 490 H 47.2022 4.19027 -6.34288 0
M  V30 491 N 48.7773 0.814389 1.34928 0
M  V30 492 C 49.7273 0.202752 2.27097 0
M  V30 493 C 50.7113 -0.62799 1.48139 0
M  V30 494 O 51.9033 -0.483969 1.70255 0
M  V30 495 C 49.0323 -0.64146 3.37254 0
M  V30 496 C 48.1183 0.19944 4.23631 0
M  V30 497 N 48.5093 1.26628 4.89693 0
M  V30 498 C 46.8073 -0.0176433 4.45997 0
M  V30 499 C 47.5083 1.78031 5.53787 0
M  V30 500 N 46.4843 1.08553 5.32651 0
M  V30 501 H 50.2863 1.01893 2.75672 0
M  V30 502 H 47.8003 0.656332 1.48546 0
M  V30 503 H 49.7973 -1.09575 4.02243 0
M  V30 504 H 48.4573 -1.4559 2.9023 0
M  V30 505 H 49.4683 1.64901 4.90946 0
M  V30 506 H 46.1453 -0.800601 4.09752 0
M  V30 507 H 47.5353 2.67236 6.16469 0
M  V30 508 N 50.2554 -1.46986 0.568584 0
M  V30 509 C 51.5014 -2.02741 0.0488709 0
M  V30 510 C 51.8344 -1.44077 -1.30214 0
M  V30 511 O 51.1094 -0.600552 -1.84996 0
M  V30 512 C 51.3924 -3.60086 -0.032047 0
M  V30 513 C 51.2454 -4.29162 1.34686 0
M  V30 514 C 52.5644 -4.33838 -0.739798 0
M  V30 515 H 49.6834 -0.736749 0.0192338 0
M  V30 516 H 52.3254 -1.75289 0.733065 0
M  V30 517 H 50.4754 -3.83606 -0.61473 0
M  V30 518 H 52.1474 -4.16948 1.97362 0
M  V30 519 H 50.3904 -3.89073 1.91846 0
M  V30 520 H 51.0614 -5.37826 1.24285 0
M  V30 521 H 53.5374 -4.15378 -0.244939 0
M  V30 522 H 52.4134 -5.43537 -0.765406 0
M  V30 523 H 52.6744 -4.03875 -1.79827 0
M  V30 524 N 51.7335 -0.305618 -1.54608 0
M  V30 525 C 52.6635 0.561482 -2.26649 0
M  V30 526 C 53.6445 1.13415 -1.26772 0
M  V30 527 O 54.8295 1.16262 -1.55553 0
M  V30 528 C 51.9595 1.73122 -3.01075 0
M  V30 529 C 50.9135 1.2887 -4.08138 0
M  V30 530 C 50.2395 2.54396 -4.70305 0
M  V30 531 C 51.5395 0.416578 -5.20636 0
M  V30 532 H 53.2335 -0.0393902 -2.99374 0
M  V30 533 H 50.7795 -0.020385 -1.43986 0
M  V30 534 H 52.7325 2.34396 -3.50195 0
M  V30 535 H 51.4565 2.3584 -2.25936 0
M  V30 536 H 50.1155 0.698991 -3.59875 0
M  V30 537 H 49.7635 3.15439 -3.918 0
M  V30 538 H 49.4635 2.25486 -5.42614 0
M  V30 539 H 50.9875 3.16464 -5.2219 0
M  V30 540 H 52.4015 0.935116 -5.65622 0
M  V30 541 H 50.7985 0.221046 -5.99693 0
M  V30 542 H 51.8685 -0.557162 -4.81688 0
M  V30 543 N 53.2116 1.57565 -0.0334293 0
M  V30 544 C 54.4886 1.83282 0.683163 0
M  V30 545 C 54.8686 0.91823 1.90084 0
M  V30 546 O 54.2166 -0.025113 2.28486 0
M  V30 547 C 54.4266 3.32599 1.0573 0
M  V30 548 C 55.7746 3.99179 1.44711 0
M  V30 549 O 56.7986 3.3712 1.15015 0
M  V30 550 O 55.6576 5.08565 2.0006 0
M  V30 551 H 52.7516 0.755869 0.335546 0
M  V30 552 H 55.2976 1.69589 -0.0614402 0
M  V30 553 H 54.0696 3.90834 0.190828 0
M  V30 554 H 53.6926 3.51415 1.85993 0
M  V30 555 N 54.6897 -0.239769 1.55765 0
M  V30 556 C 55.6527 -1.28038 1.90103 0
M  V30 557 C 56.6527 -1.40723 0.778055 0
M  V30 558 O 57.8427 -1.39301 1.04599 0
M  V30 559 C 54.9747 -2.65702 2.13577 0
M  V30 560 H 56.1677 -0.988048 2.83157 0
M  V30 561 H 53.7207 -0.479382 1.48767 0
M  V30 562 H 54.4557 -3.00063 1.23015 0
M  V30 563 H 54.2407 -2.57875 2.95369 0
M  V30 564 H 55.7307 -3.40828 2.41301 0
M  V30 565 N 56.1678 -1.49265 -0.50573 0
M  V30 566 C 57.4158 -1.582 -1.25766 0
M  V30 567 C 57.7368 -0.268482 -1.93143 0
M  V30 568 O 57.0068 0.711833 -1.8251 0
M  V30 569 H 55.5868 -0.582873 -0.467191 0
M  V30 570 H 58.2488 -1.85865 -0.586525 0
M  V30 571 H 57.3448 -2.37563 -2.02412 0
M  V30 572 N 57.6459 0.756429 -1.3826 0
M  V30 573 C 58.8949 1.51082 -1.3363 0
M  V30 574 C 59.2079 1.95467 0.0720068 0
M  V30 575 O 60.4139 2.7043 0.240834 0
M  V30 576 C 58.8699 2.72893 -2.34644 0
M  V30 577 C 58.4779 2.35544 -3.81081 0
M  V30 578 C 60.2219 3.50791 -2.39052 0
M  V30 579 C 58.1289 3.53948 -4.73787 0
M  V30 580 H 57.0589 0.56727 -0.49671 0
M  V30 581 H 59.7099 0.827147 -1.638 0
M  V30 582 H 58.0919 3.43227 -1.97513 0
M  V30 583 H 59.2659 1.72894 -4.27135 0
M  V30 584 H 57.5809 1.70786 -3.79764 0
M  V30 585 H 60.1779 4.38823 -3.05513 0
M  V30 586 H 60.5209 3.91745 -1.40861 0
M  V30 587 H 61.0539 2.87467 -2.74968 0
M  V30 588 H 57.7929 3.18064 -5.73163 0
M  V30 589 H 57.3129 4.15651 -4.32428 0
M  V30 590 H 58.9919 4.20566 -4.91663 0
M  V30 591 N 59.124 1.23083 0.984299 0
M  V30 592 C 60.349 1.088 1.76571 0
M  V30 593 C 60.774 -0.356657 1.84688 0
M  V30 594 O 60.132 -1.25788 1.30565 0
M  V30 595 C 60.18 1.71371 3.17277 0
M  V30 596 O 59.284 0.973213 4.00752 0
M  V30 597 H 58.625 0.381599 0.543395 0
M  V30 598 H 61.155 1.63057 1.23587 0
M  V30 599 H 61.165 1.76449 3.67872 0
M  V30 600 H 59.84 2.76493 3.10684 0
M  V30 601 H 58.417 0.999078 3.59267 0
M  V30 602 N 60.6021 -1.18246 1.0419 0
M  V30 603 C 61.5121 -2.25574 0.644476 0
M  V30 604 C 62.5281 -1.70845 -0.329826 0
M  V30 605 O 63.7041 -2.00554 -0.184443 0
M  V30 606 C 60.7691 -3.46697 0.014877 0
M  V30 607 C 59.8301 -4.16554 1.03834 0
M  V30 608 C 59.0631 -5.31894 0.438692 0
M  V30 609 O 59.2861 -5.65385 -0.754752 0
M  V30 610 O 58.2201 -5.90459 1.168 0
M  V30 611 H 62.0461 -2.61836 1.53869 0
M  V30 612 H 59.6311 -1.25352 0.812854 0
M  V30 613 H 61.5131 -4.20062 -0.335538 0
M  V30 614 H 60.1881 -3.12255 -0.853138 0
M  V30 615 H 59.0951 -3.45251 1.44057 0
M  V30 616 H 60.4281 -4.54998 1.87716 0
M  V30 617 N 62.0802 -0.821533 -1.34494 0
M  V30 618 C 63.0432 -0.247847 -2.27856 0
M  V30 619 C 64.0432 0.573453 -1.50227 0
M  V30 620 O 65.2332 0.389759 -1.69784 0
M  V30 621 C 62.3652 0.652698 -3.34593 0
M  V30 622 H 63.5582 -1.07146 -2.80107 0
M  V30 623 H 61.1112 -0.593291 -1.44602 0
M  V30 624 H 61.8462 1.49943 -2.87555 0
M  V30 625 H 61.6312 0.065292 -3.92046 0
M  V30 626 H 63.1212 1.04793 -4.04238 0
M  V30 627 N 63.5583 1.46682 -0.576371 0
M  V30 628 C 64.5063 2.31953 0.17335 0
M  V30 629 C 65.5003 1.44098 0.89062 0
M  V30 630 O 66.7063 1.60759 0.809728 0
M  V30 631 H 63.0813 0.748273 0.0747727 0
M  V30 632 H 65.0523 2.93007 -0.564738 0
M  V30 633 C 63.8013 3.27142 1.17786 0
M  V30 634 H 63.1243 3.94719 0.635361 0
M  V30 635 H 64.5643 3.896 1.67296 0
M  V30 636 C 63.0233 2.52036 2.23561 0
M  V30 637 O 63.5533 2.27877 3.3081 0
M  V30 638 N 61.7593 2.12709 1.97998 0
M  V30 639 H 61.3063 2.32557 1.10792 0
M  V30 640 H 61.2643 1.62776 2.68982 0
M  V30 641 N 65.0364 0.313813 1.54444 0
M  V30 642 C 66.4524 -0.0391619 1.59552 0
M  V30 643 C 66.6524 -1.51322 1.33056 0
M  V30 644 O 65.7084 -2.26782 1.11022 0
M  V30 645 C 67.0214 0.370302 2.98411 0
M  V30 646 C 68.5694 0.320139 3.11358 0
M  V30 647 C 69.0444 0.704617 4.52547 0
M  V30 648 N 70.5354 0.657645 4.58508 0
M  V30 649 C 71.2704 0.927453 5.6585 0
M  V30 650 N 70.7664 1.26389 6.81174 0
M  V30 651 N 72.5594 0.853662 5.5558 0
M  V30 652 H 64.7104 1.27433 1.69925 0
M  V30 653 H 66.9734 0.517511 0.794284 0
M  V30 654 H 66.6794 1.39694 3.22767 0
M  V30 655 H 66.5534 -0.269619 3.76235 0
M  V30 656 H 68.9404 -0.697275 2.86744 0
M  V30 657 H 69.0214 0.99486 2.35661 0
M  V30 658 H 68.6654 1.7199 4.77893 0
M  V30 659 H 68.5954 0.00768843 5.26599 0
M  V30 660 H 71.0864 0.409067 3.75679 0
M  V30 661 H 71.3994 1.4554 7.58972 0
M  V30 662 H 69.7444 1.30206 6.82694 0
M  V30 663 H 72.9354 0.590383 4.64362 0
M  V30 664 H 73.1084 1.0673 6.3915 0
M  V30 665 N 66.5145 -1.57545 0.0417849 0
M  V30 666 C 67.4775 -2.09885 -0.92093 0
M  V30 667 C 68.4775 -1.01648 -1.24596 0
M  V30 668 O 69.6675 -1.27759 -1.1842 0
M  V30 669 C 66.7995 -2.57527 -2.23367 0
M  V30 670 H 67.9925 -2.96236 -0.467382 0
M  V30 671 H 65.5455 -1.5493 -0.206467 0
M  V30 672 H 66.2805 -1.74542 -2.73323 0
M  V30 673 H 66.0655 -3.36613 -2.01083 0
M  V30 674 H 67.5555 -2.98201 -2.92346 0
M  V30 675 N 67.9926 0.231505 -1.5589 0
M  V30 676 C 68.9556 1.27028 -1.90779 0
M  V30 677 C 69.9556 1.40308 -0.785507 0
M  V30 678 O 71.1456 1.38744 -1.05336 0
M  V30 679 C 68.2776 2.64566 -2.14983 0
M  V30 680 H 69.4706 0.973017 -2.83677 0
M  V30 681 H 67.0236 0.471486 -1.49019 0
M  V30 682 H 67.7586 2.99406 -1.24604 0
M  V30 683 H 67.5436 2.56305 -2.96732 0
M  V30 684 H 69.0336 3.39543 -2.43105 0
M  V30 685 N 69.4707 1.49531 0.497807 0
M  V30 686 C 70.7167 1.59415 1.25358 0
M  V30 687 C 71.0497 0.281422 1.9215 0
M  V30 688 O 70.3247 -0.715249 1.80871 0
M  V30 689 C 70.6077 2.75566 2.3181 0
M  V30 690 C 70.4607 4.16642 1.69498 0
M  V30 691 C 71.7797 2.87347 3.33346 0
M  V30 692 H 68.8987 0.580244 0.454408 0
M  V30 693 H 71.5407 1.81827 0.551262 0
M  V30 694 H 69.6907 2.56587 2.91711 0
M  V30 695 H 71.3627 4.47145 1.13399 0
M  V30 696 H 69.6057 4.22141 0.998978 0
M  V30 697 H 70.2767 4.93792 2.46725 0
M  V30 698 H 72.7527 3.04634 2.83438 0
M  V30 699 H 71.6287 3.70289 4.05188 0
M  V30 700 H 71.8897 1.96834 3.95865 0
M  V30 701 N 70.9488 -0.749086 1.3866 0
M  V30 702 C 71.9118 -1.84457 1.36045 0
M  V30 703 C 72.9118 -1.58682 0.260122 0
M  V30 704 O 74.1018 -1.66343 0.517261 0
M  V30 705 C 71.2338 -3.22008 1.11911 0
M  V30 706 H 72.4268 -1.88182 2.33512 0
M  V30 707 H 69.9798 -0.951266 1.24019 0
M  V30 708 H 70.7148 -3.2395 0.150686 0
M  V30 709 H 70.4998 -3.42111 1.91579 0
M  V30 710 H 71.9898 -4.0208 1.12788 0
M  V30 711 N 72.4269 -1.23603 -0.977757 0
M  V30 712 C 73.3899 -1.02069 -2.05218 0
M  V30 713 C 74.3899 0.0184305 -1.60789 0
M  V30 714 O 75.5799 -0.221569 -1.72785 0
M  V30 715 C 72.7119 -0.544926 -3.36517 0
M  V30 716 H 73.9049 -1.9742 -2.25755 0
M  V30 717 H 71.4579 -1.05684 -1.15155 0
M  V30 718 H 72.1929 0.412241 -3.21669 0
M  V30 719 H 71.9779 -1.2948 -3.70105 0
M  V30 720 H 73.4679 -0.414985 -4.15533 0
M  V30 721 N 73.905 1.17692 -1.04816 0
M  V30 722 C 74.853 2.23632 -0.63966 0
M  V30 723 C 75.847 1.6601 0.337219 0
M  V30 724 O 77.053 1.78844 0.203693 0
M  V30 725 H 73.428 0.727949 -0.188665 0
M  V30 726 H 75.399 2.55387 -1.54337 0
M  V30 727 C 74.148 3.4769 -0.0264051 0
M  V30 728 H 73.471 3.92331 -0.769164 0
M  V30 729 H 74.911 4.23418 0.222098 0
M  V30 730 C 73.37 3.13807 1.22584 0
M  V30 731 O 73.9 3.28236 2.31569 0
M  V30 732 N 72.106 2.68065 1.12202 0
M  V30 733 H 71.653 2.56525 0.235133 0
M  V30 734 H 71.611 2.45767 1.96076 0
M  V30 735 N 75.3831 0.828654 1.34056 0
M  V30 736 C 76.3131 0.269443 2.3194 0
M  V30 737 C 77.2941 -0.617247 1.58506 0
M  V30 738 O 78.4791 -0.542931 1.86456 0
M  V30 739 C 75.6091 -0.564793 3.42677 0
M  V30 740 C 74.5631 0.225241 4.27407 0
M  V30 741 C 73.8891 -0.7321 5.29664 0
M  V30 742 C 75.1891 1.43663 5.02154 0
M  V30 743 H 76.8831 1.08728 2.7896 0
M  V30 744 H 74.4291 0.524283 1.34117 0
M  V30 745 H 76.3821 -0.966233 4.10173 0
M  V30 746 H 75.1061 -1.41574 2.9432 0
M  V30 747 H 73.7651 0.608117 3.61521 0
M  V30 748 H 73.4131 -1.57916 4.77568 0
M  V30 749 H 73.1131 -0.20767 5.87233 0
M  V30 750 H 74.6371 -1.13128 6.00029 0
M  V30 751 H 76.0511 1.1089 5.62473 0
M  V30 752 H 74.4481 1.89711 5.69324 0
M  V30 753 H 75.5181 2.21181 4.31517 0
M  V30 754 N 76.8612 -1.46375 0.584142 0
M  V30 755 C 78.2772 -1.57694 0.245929 0
M  V30 756 C 78.4772 -1.57903 -1.25175 0
M  V30 757 O 77.5332 -1.49676 -2.03355 0
M  V30 758 C 78.8462 -2.87028 0.896402 0
M  V30 759 C 80.3942 -3.00662 0.870127 0
M  V30 760 C 80.8692 -4.32734 1.50017 0
M  V30 761 N 82.3602 -4.39436 1.46458 0
M  V30 762 C 83.0952 -5.40248 1.92144 0
M  V30 763 N 82.5912 -6.47726 2.4581 0
M  V30 764 N 84.3842 -5.31459 1.83052 0
M  V30 765 H 76.5352 -1.44483 1.55687 0
M  V30 766 H 78.7982 -0.689291 0.650831 0
M  V30 767 H 78.5042 -2.9269 1.95002 0
M  V30 768 H 78.3782 -3.75014 0.405486 0
M  V30 769 H 80.7652 -2.94581 -0.174871 0
M  V30 770 H 80.8462 -2.14148 1.39908 0
M  V30 771 H 80.4902 -4.39573 2.54437 0
M  V30 772 H 80.4202 -5.18025 0.946432 0
M  V30 773 H 82.9112 -3.62367 1.07231 0
M  V30 774 H 83.2242 -7.20863 2.78525 0
M  V30 775 H 81.5692 -6.48542 2.49836 0
M  V30 776 H 84.7602 -4.46396 1.40883 0
M  V30 777 H 84.9332 -6.09881 2.18973 0
M  V30 778 N 78.3393 -0.321999 -1.54275 0
M  V30 779 C 79.5873 0.280489 -2.00144 0
M  V30 780 C 79.9083 1.52777 -1.21178 0
M  V30 781 O 79.1783 1.9338 -0.313187 0
M  V30 782 H 77.7583 0.106632 -0.73935 0
M  V30 783 H 80.4203 -0.438184 -1.8991 0
M  V30 784 H 79.5163 0.537972 -3.07428 0
M  V30 785 N 79.8174 1.5752 -0.0501392 0
M  V30 786 C 81.0654 1.9227 0.622642 0
M  V30 787 C 81.3864 0.929083 1.71444 0
M  V30 788 O 80.6564 -0.0262186 1.95882 0
M  V30 789 H 79.2364 0.709739 0.232981 0
M  V30 790 H 81.8984 1.94628 -0.102898 0
M  V30 791 H 80.9944 2.93479 1.06191 0
M  V30 792 N 81.2955 -0.223234 1.56011 0
M  V30 793 C 82.5435 -0.946003 1.78592 0
M  V30 794 C 82.8645 -1.84936 0.618349 0
M  V30 795 O 82.1345 -1.92473 -0.364833 0
M  V30 796 H 80.7145 -0.352298 0.658707 0
M  V30 797 H 83.3765 -0.235494 1.93472 0
M  V30 798 H 82.4725 -1.55381 2.70672 0
M  V30 799 N 82.7736 -1.49793 -0.48987 0
M  V30 800 C 84.0216 -1.59525 -1.24081 0
M  V30 801 C 84.3426 -0.288953 -1.92847 0
M  V30 802 O 83.6126 0.692436 -1.83254 0
M  V30 803 H 82.1926 -0.587796 -0.460983 0
M  V30 804 H 84.8546 -1.86477 -0.566778 0
M  V30 805 H 83.9506 -2.39696 -1.99881 0
M  V30 806 N 84.2517 0.741722 -1.39055 0
M  V30 807 C 85.1997 1.87702 -1.3737 0
M  V30 808 C 86.1937 1.67427 -0.257812 0
M  V30 809 O 87.3997 1.7485 -0.427489 0
M  V30 810 H 83.7747 0.617757 -0.428812 0
M  V30 811 H 85.7457 1.86239 -2.33147 0
M  V30 812 C 84.4947 3.25315 -1.22741 0
M  V30 813 H 83.8177 3.41509 -2.07873 0
M  V30 814 H 85.2577 4.04964 -1.25618 0
M  V30 815 C 83.7167 3.36838 0.0647316 0
M  V30 816 O 84.2467 3.88073 1.03741 0
M  V30 817 N 82.4527 2.90329 0.125544 0
M  V30 818 H 81.9997 2.48823 -0.666682 0
M  V30 819 H 81.9577 2.98418 0.989639 0
M  V30 820 N 85.7298 1.2412 0.971189 0
M  V30 821 C 86.9788 1.07284 1.70801 0
M  V30 822 C 87.2918 -0.388902 1.91695 0
M  V30 823 O 88.4978 -0.677379 2.62914 0
M  V30 824 C 86.9538 1.87145 3.07416 0
M  V30 825 C 86.5618 3.37707 2.94377 0
M  V30 826 C 88.3058 1.78828 3.84995 0
M  V30 827 C 86.2128 4.09925 4.26281 0
M  V30 828 H 85.1428 0.397854 0.64049 0
M  V30 829 H 87.7938 1.4817 1.0825 0
M  V30 830 H 86.1758 1.39071 3.70777 0
M  V30 831 H 87.3498 3.93335 2.4005 0
M  V30 832 H 85.6648 3.46938 2.30267 0
M  V30 833 H 88.2618 2.30089 4.82662 0
M  V30 834 H 88.6048 0.75284 4.09436 0
M  V30 835 H 89.1378 2.24563 3.28354 0
M  V30 836 H 85.8768 5.13813 4.07033 0
M  V30 837 H 85.3968 3.59083 4.80437 0
M  V30 838 H 87.0758 4.1673 4.94919 0
M  V30 839 N 87.2079 -1.17134 1.05439 0
M  V30 840 C 88.6239 -1.39454 0.776201 0
M  V30 841 C 88.8239 -1.91454 -0.628307 0
M  V30 842 O 87.8799 -2.10777 -1.39031 0
M  V30 843 C 89.1929 -2.38305 1.83388 0
M  V30 844 C 90.7409 -2.52006 1.85639 0
M  V30 845 C 91.2159 -3.54133 2.90437 0
M  V30 846 N 92.7069 -3.61653 2.89415 0
M  V30 847 C 93.4419 -4.4044 3.67152 0
M  V30 848 N 92.9379 -5.22721 4.54681 0
M  V30 849 N 94.7309 -4.35337 3.55581 0
M  V30 850 H 86.8819 -0.817134 1.96053 0
M  V30 851 H 89.1449 -0.421626 0.849079 0
M  V30 852 H 88.8509 -2.07173 2.84204 0
M  V30 853 H 88.7249 -3.37841 1.67761 0
M  V30 854 H 91.1119 -2.82447 0.85486 0
M  V30 855 H 91.1929 -1.52537 2.05344 0
M  V30 856 H 90.8369 -3.24431 3.90777 0
M  V30 857 H 90.7669 -4.53313 2.67983 0
M  V30 858 H 93.2579 -3.02909 2.25952 0
M  V30 859 H 93.5709 -5.80027 5.10674 0
M  V30 860 H 91.9159 -5.22093 4.58741 0
M  V30 861 H 95.1069 -3.70112 2.86592 0
M  V30 862 H 95.2799 -4.96494 4.1641 0
M  V30 863 N 88.686 -0.835752 -1.33615 0
M  V30 864 C 89.933 -0.429959 -1.97883 0
M  V30 865 C 90.261 1.01006 -1.66217 0
M  V30 866 O 89.516 1.72047 -0.93265 0
M  V30 867 C 89.815 -0.593925 -3.52431 0
M  V30 868 C 89.481 -2.00158 -4.04039 0
M  V30 869 C 88.143 -2.38662 -4.17844 0
M  V30 870 C 90.495 -2.92117 -4.31644 0
M  V30 871 C 87.823 -3.68435 -4.56588 0
M  V30 872 C 90.175 -4.21368 -4.71838 0
M  V30 873 C 88.839 -4.59833 -4.83849 0
M  V30 874 H 88.109 -0.157333 -0.724104 0
M  V30 875 H 90.756 -1.06217 -1.59343 0
M  V30 876 H 89.061 0.121619 -3.91611 0
M  V30 877 H 90.758 -0.260282 -4.00154 0
M  V30 878 H 87.348 -1.69252 -3.93766 0
M  V30 879 H 91.532 -2.63608 -4.20505 0
M  V30 880 H 86.788 -3.98046 -4.64079 0
M  V30 881 H 90.962 -4.92703 -4.92155 0
M  V30 882 H 88.589 -5.60438 -5.13627 0
M  V30 883 N 90.1641 1.46063 -0.591896 0
M  V30 884 C 91.4131 2.01547 -0.0786637 0
M  V30 885 C 91.7261 1.46796 1.29268 0
M  V30 886 O 92.9321 1.94157 1.89777 0
M  V30 887 C 91.3881 3.59787 -0.0900024 0
M  V30 888 C 90.9961 4.23534 -1.46023 0
M  V30 889 C 92.7401 4.22895 0.368806 0
M  V30 890 C 90.6471 5.73881 -1.4288 0
M  V30 891 H 89.5771 0.753564 -0.0256388 0
M  V30 892 H 92.2281 1.677 -0.744905 0
M  V30 893 H 90.6101 3.90752 0.642586 0
M  V30 894 H 91.7841 4.04167 -2.21328 0
M  V30 895 H 90.0991 3.72558 -1.85982 0
M  V30 896 H 92.6961 5.33116 0.411258 0
M  V30 897 H 93.0391 3.9247 1.38827 0
M  V30 898 H 93.5721 3.9659 -0.31001 0
M  V30 899 H 90.3111 6.0898 -2.42536 0
M  V30 900 H 89.8311 5.95486 -0.718095 0
M  V30 901 H 91.5101 6.36776 -1.14565 0
M  V30 902 N 91.6422 0.330177 1.54103 0
M  V30 903 C 92.9192 -0.325007 1.92881 0
M  V30 904 C 93.2992 -1.6934 1.26045 0
M  V30 905 O 92.6472 -2.24855 0.406526 0
M  V30 906 C 92.8572 -0.410634 3.46576 0
M  V30 907 C 94.2052 -0.667801 4.19316 0
M  V30 908 O 95.2292 -0.49329 3.52768 0
M  V30 909 O 94.0882 -1.00491 5.37181 0
M  V30 910 H 91.1822 -0.186873 0.80561 0
M  V30 911 H 93.7282 0.380376 1.65382 0
M  V30 912 H 92.5002 0.550164 3.87413 0
M  V30 913 H 92.1232 -1.16333 3.802 0
M  V30 914 N 93.1203 -1.57491 0.0584922 0
M  V30 915 C 94.3663 -1.93264 -0.614558 0
M  V30 916 C 94.6993 -0.937717 -1.7006 0
M  V30 917 O 93.9743 0.0351652 -1.94468 0
M  V30 918 C 94.2573 -3.3938 -1.20386 0
M  V30 919 C 94.1103 -4.49625 -0.125375 0
M  V30 920 C 95.4293 -3.86039 -2.11334 0
M  V30 921 H 92.5483 -0.702791 -0.221933 0
M  V30 922 H 95.1903 -1.8961 0.12175 0
M  V30 923 H 93.3403 -3.42626 -1.83139 0
M  V30 924 H 95.0123 -4.58506 0.506971 0
M  V30 925 H 93.2553 -4.30354 0.545672 0
M  V30 926 H 93.9263 -5.48967 -0.577861 0
M  V30 927 H 96.4023 -3.84716 -1.58534 0
M  V30 928 H 95.2783 -4.88914 -2.49507 0
M  V30 929 H 95.5393 -3.23215 -3.01636 0
M  V30 930 N 94.5984 0.214957 -1.56127 0
M  V30 931 C 95.5464 1.28601 -1.93816 0
M  V30 932 C 96.5404 1.48175 -0.821016 0
M  V30 933 O 97.7464 1.49271 -1.0059 0
M  V30 934 H 94.1214 0.431302 -0.616022 0
M  V30 935 H 96.0924 0.940991 -2.83175 0
M  V30 936 C 94.8414 2.62779 -2.27689 0
M  V30 937 H 94.1644 2.48527 -3.13168 0
M  V30 938 H 95.6044 3.36517 -2.57939 0
M  V30 939 C 94.0634 3.18285 -1.10436 0
M  V30 940 O 94.5934 4.00002 -0.368945 0
M  V30 941 N 92.7994 2.7675 -0.886433 0
M  V30 942 H 92.3464 2.10404 -1.48619 0
M  V30 943 H 92.3044 3.14229 -0.103656 0
M  V30 944 N 96.0765 1.50051 0.48192 0
M  V30 945 C 97.4875 1.5348 1.06305 0
M  V30 946 C 97.8385 0.331997 1.93371 0
M  V30 947 O 96.9635 -0.556256 2.09129 0
M  V30 948 C 97.5585 2.7813 1.93466 0
M  V30 949 C 96.1175 2.84275 2.46707 0
M  V30 950 C 95.2645 2.47637 1.24785 0
M  V30 951 H 98.2155 1.56472 0.264995 0
M  V30 952 H 98.2365 2.59372 2.78399 0
M  V30 953 H 97.7485 3.65654 1.30072 0
M  V30 954 H 95.8495 2.01077 3.13686 0
M  V30 955 H 95.9625 3.8691 2.82555 0
M  V30 956 H 94.3265 1.99835 1.57918 0
M  V30 957 H 95.1095 3.37457 0.630694 0
M  V30 958 N 97.5546 -0.734337 1.39446 0
M  V30 959 C 98.4646 -1.87879 1.40495 0
M  V30 960 C 99.4806 -1.714 0.299672 0
M  V30 961 O 100.657 -1.93991 0.541249 0
M  V30 962 C 97.7216 -3.23477 1.24754 0
M  V30 963 C 96.7826 -3.52344 2.45259 0
M  V30 964 C 96.0156 -4.81473 2.30259 0
M  V30 965 O 96.2386 -5.55237 1.30643 0
M  V30 966 O 95.1726 -5.10254 3.19256 0
M  V30 967 H 98.9986 -1.89949 2.36966 0
M  V30 968 H 96.5836 -0.882243 1.20569 0
M  V30 969 H 98.4656 -4.04509 1.18111 0
M  V30 970 H 97.1406 -3.22176 0.313781 0
M  V30 971 H 96.0476 -2.71396 2.57478 0
M  V30 972 H 97.3806 -3.58426 3.37331 0
M  V30 973 N 99.0327 -1.24633 -0.964593 0
M  V30 974 C 100.31 -0.995809 -1.68354 0
M  V30 975 C 100.69 0.480964 -2.05548 0
M  V30 976 O 100.038 1.45599 -1.76105 0
M  V30 977 C 100.248 -1.92177 -2.91323 0
M  V30 978 C 101.596 -2.19446 -3.63495 0
M  V30 979 O 102.62 -1.89855 -3.01386 0
M  V30 980 O 101.479 -2.69714 -4.75307 0
M  V30 981 H 98.5727 -0.376854 -0.736146 0
M  V30 982 H 101.119 -1.35745 -1.0184 0
M  V30 983 H 99.8907 -2.91938 -2.60553 0
M  V30 984 H 99.5137 -1.56349 -3.65569 0
M  V30 985 N 100.511 1.16574 -1.06058 0
M  V30 986 C 101.758 1.87047 -0.775873 0
M  V30 987 C 102.086 1.81562 0.697534 0
M  V30 988 O 101.341 1.22445 1.52662 0
M  V30 989 C 101.64 3.36195 -1.21275 0
M  V30 990 C 101.306 3.6188 -2.68986 0
M  V30 991 C 99.9678 3.68599 -3.09335 0
M  V30 992 C 102.32 3.72648 -3.64394 0
M  V30 993 C 99.6478 3.83584 -4.43937 0
M  V30 994 C 102 3.89154 -4.98741 0
M  V30 995 C 100.664 3.94114 -5.3873 0
M  V30 996 H 99.9338 0.684452 -0.283912 0
M  V30 997 H 102.581 1.37853 -1.32925 0
M  V30 998 H 100.886 3.87505 -0.578528 0
M  V30 999 H 102.583 3.89103 -0.969542 0
M  V30 1000 H 99.1728 3.57281 -2.36744 0
M  V30 1001 H 103.357 3.66769 -3.34356 0
M  V30 1002 H 98.6128 3.85677 -4.74409 0
M  V30 1003 H 102.787 3.96427 -5.72554 0
M  V30 1004 H 100.414 4.05478 -6.43033 0
M  V30 1005 N 101.989 0.842826 1.3317 0
M  V30 1006 C 102.952 0.284065 2.27433 0
M  V30 1007 C 103.952 -0.54948 1.5112 0
M  V30 1008 O 105.142 -0.362699 1.70382 0
M  V30 1009 C 102.274 -0.599384 3.35589 0
M  V30 1010 H 103.467 1.11589 2.78366 0
M  V30 1011 H 101.02 0.616221 1.4364 0
M  V30 1012 H 101.755 -1.45349 2.89904 0
M  V30 1013 H 101.54 -0.00291266 3.921 0
M  V30 1014 H 103.03 -0.983488 4.05854 0
M  V30 1015 N 103.467 -1.45747 0.599634 0
M  V30 1016 C 104.715 -2.01893 0.0915472 0
M  V30 1017 C 105.036 -1.47155 -1.27946 0
M  V30 1018 O 104.306 -0.66273 -1.84349 0
M  V30 1019 H 102.886 -0.746363 0.0308524 0
M  V30 1020 H 105.548 -1.78645 0.779237 0
M  V30 1021 H 104.644 -3.1208 0.0353086 0
M  V30 1022 N 104.945 -0.338344 -1.53925 0
M  V30 1023 C 106.192 0.259758 -2.00827 0
M  V30 1024 C 106.52 1.50973 -1.22628 0
M  V30 1025 O 105.775 1.93379 -0.300509 0
M  V30 1026 C 106.074 0.62448 -3.51902 0
M  V30 1027 C 105.74 -0.528006 -4.47798 0
M  V30 1028 C 104.402 -0.844298 -4.73735 0
M  V30 1029 C 106.754 -1.30143 -5.0469 0
M  V30 1030 C 104.082 -1.93648 -5.53821 0
M  V30 1031 C 106.434 -2.38382 -5.85967 0
M  V30 1032 C 105.098 -2.70576 -6.10201 0
M  V30 1033 H 104.368 0.0950523 -0.734878 0
M  V30 1034 H 107.015 -0.465182 -1.85764 0
M  V30 1035 H 105.32 1.43006 -3.64769 0
M  V30 1036 H 107.017 1.09905 -3.85645 0
M  V30 1037 H 103.607 -0.271421 -4.2774 0
M  V30 1038 H 107.791 -1.07033 -4.84621 0
M  V30 1039 H 103.047 -2.19021 -5.70824 0
M  V30 1040 H 107.221 -2.98746 -6.29066 0
M  V30 1041 H 104.848 -3.55333 -6.72044 0
M  V30 1042 N 106.423 1.57458 -0.0668435 0
M  V30 1043 C 107.834 1.80776 0.466558 0
M  V30 1044 C 108.185 0.980361 1.69951 0
M  V30 1045 O 107.31 0.201441 2.1546 0
M  V30 1046 C 107.905 3.27881 0.85321 0
M  V30 1047 C 106.464 3.52062 1.3315 0
M  V30 1048 C 105.611 2.75513 0.314264 0
M  V30 1049 H 108.562 1.5598 -0.292588 0
M  V30 1050 H 108.583 3.39659 1.715 0
M  V30 1051 H 108.095 3.88075 -0.0443439 0
M  V30 1052 H 106.196 2.97167 2.24772 0
M  V30 1053 H 106.309 4.60762 1.31285 0
M  V30 1054 H 104.673 2.42123 0.790492 0
M  V30 1055 H 105.456 3.38442 -0.575477 0
M  V30 1056 N 107.901 -0.206675 1.56239 0
M  V30 1057 C 108.831 -1.25909 1.96645 0
M  V30 1058 C 109.812 -1.48097 0.836734 0
M  V30 1059 O 110.997 -1.6003 1.10019 0
M  V30 1060 C 108.127 -2.6058 2.29599 0
M  V30 1061 C 107.081 -2.53024 3.452 0
M  V30 1062 C 106.407 -3.91861 3.63798 0
M  V30 1063 C 107.707 -2.06524 4.79734 0
M  V30 1064 H 109.401 -0.923369 2.84806 0
M  V30 1065 H 106.947 -0.442735 1.37025 0
M  V30 1066 H 108.9 -3.34375 2.56459 0
M  V30 1067 H 107.624 -2.95869 1.38307 0
M  V30 1068 H 106.283 -1.81684 3.18412 0
M  V30 1069 H 105.931 -4.24483 2.69857 0
M  V30 1070 H 105.631 -3.87683 4.4156 0
M  V30 1071 H 107.155 -4.67296 3.93022 0
M  V30 1072 H 108.569 -2.70072 5.05702 0
M  V30 1073 H 106.966 -2.13374 5.60885 0
M  V30 1074 H 108.036 -1.01802 4.74093 0
M  V30 1075 N 109.379 -1.50304 -0.473955 0
M  V30 1076 C 110.327 -1.69482 -1.59307 0
M  V30 1077 C 111.321 -0.560669 -1.59853 0
M  V30 1078 O 112.527 -0.741087 -1.64036 0
M  V30 1079 H 108.902 -0.534892 -0.528578 0
M  V30 1080 H 110.873 -2.63364 -1.40293 0
M  V30 1081 C 109.622 -1.80354 -2.97267 0
M  V30 1082 H 108.945 -2.67012 -2.97564 0
M  V30 1083 H 110.385 -1.97798 -3.75036 0
M  V30 1084 C 108.844 -0.55448 -3.32306 0
M  V30 1085 O 109.374 0.307661 -4.0052 0
M  V30 1086 N 107.58 -0.409354 -2.87702 0
M  V30 1087 H 107.127 -1.11196 -2.32364 0
M  V30 1088 H 107.085 0.425223 -3.11511 0
M  V30 1089 N 110.857 0.726932 -1.39834 0
M  V30 1090 C 112.106 1.48214 -1.36805 0
M  V30 1091 C 112.419 1.95576 0.0305291 0
M  V30 1092 O 113.625 2.7088 0.183417 0
M  V30 1093 C 112.081 2.67854 -2.40379 0
M  V30 1094 C 111.689 2.27408 -3.85992 0
M  V30 1095 C 113.433 3.45641 -2.46439 0
M  V30 1096 C 111.34 3.43819 -4.81189 0
M  V30 1097 H 110.27 0.556606 -0.508631 0
M  V30 1098 H 112.921 0.792216 -1.65518 0
M  V30 1099 H 111.303 3.3896 -2.04749 0
M  V30 1100 H 112.477 1.63795 -4.30706 0
M  V30 1101 H 110.792 1.62692 -3.83302 0
M  V30 1102 H 113.389 4.32244 -3.14753 0
M  V30 1103 H 113.732 3.88669 -1.49139 0
M  V30 1104 H 114.265 2.8157 -2.81004 0
M  V30 1105 H 111.004 3.05834 -5.79781 0
M  V30 1106 H 110.524 4.06385 -4.41148 0
M  V30 1107 H 112.203 4.10043 -5.00474 0
M  V30 1108 N 112.336 1.25143 0.95797 0
M  V30 1109 C 113.752 1.01892 1.22842 0
M  V30 1110 C 113.952 -0.266311 1.99732 0
M  V30 1111 O 113.008 -0.979913 2.3271 0
M  V30 1112 C 114.321 2.24004 2.00606 0
M  V30 1113 C 115.869 2.28731 2.13662 0
M  V30 1114 C 116.344 3.5049 2.94823 0
M  V30 1115 N 117.835 3.50866 3.02403 0
M  V30 1116 C 118.57 4.4174 3.65586 0
M  V30 1117 N 118.066 5.42882 4.30408 0
M  V30 1118 N 119.859 4.29429 3.62694 0
M  V30 1119 H 112.01 2.07718 0.443493 0
M  V30 1120 H 114.273 0.912031 0.258657 0
M  V30 1121 H 113.979 3.17395 1.51503 0
M  V30 1122 H 113.853 2.26907 3.01319 0
M  V30 1123 H 116.24 1.35865 2.61963 0
M  V30 1124 H 116.321 2.29848 1.12265 0
M  V30 1125 H 115.965 4.43676 2.47213 0
M  V30 1126 H 115.895 3.46617 3.96439 0
M  V30 1127 H 118.386 2.777 2.56302 0
M  V30 1128 H 118.699 6.0844 4.76467 0
M  V30 1129 H 117.044 5.46758 4.29047 0
M  V30 1130 H 120.235 3.49643 3.11236 0
M  V30 1131 H 120.408 5.00448 4.1165 0
M  V30 1132 N 113.814 -1.1601 1.06675 0
M  V30 1133 C 114.764 -2.18512 0.650888 0
M  V30 1134 C 115.748 -1.57677 -0.320441 0
M  V30 1135 O 116.94 -1.76482 -0.135266 0
M  V30 1136 C 114.069 -3.43273 0.0429255 0
M  V30 1137 C 113.155 -4.11176 1.03898 0
M  V30 1138 N 113.546 -4.54672 2.216 0
M  V30 1139 C 111.844 -4.37417 0.870779 0
M  V30 1140 C 112.545 -5.07248 2.84736 0
M  V30 1141 N 111.521 -5.0037 2.12441 0
M  V30 1142 H 115.323 -2.49863 1.54745 0
M  V30 1143 H 112.837 -1.32503 0.938975 0
M  V30 1144 H 114.834 -4.16006 -0.272857 0
M  V30 1145 H 113.494 -3.13408 -0.84884 0
M  V30 1146 H 114.505 -4.4828 2.59356 0
M  V30 1147 H 111.182 -4.17488 0.0313293 0
M  V30 1148 H 112.572 -5.50912 3.84636 0
M  V30 1149 N 115.292 -0.849877 -1.32721 0
M  V30 1150 C 116.541 -0.447175 -1.96681 0
M  V30 1151 C 116.854 1.00135 -1.68025 0
M  V30 1152 O 118.06 1.50926 -2.25685 0
M  V30 1153 C 116.516 -0.7487 -3.52026 0
M  V30 1154 C 116.124 -2.21264 -3.89546 0
M  V30 1155 C 117.868 -0.413487 -4.22481 0
M  V30 1156 C 115.775 -2.45763 -5.37917 0
M  V30 1157 H 114.705 -0.163486 -0.736063 0
M  V30 1158 H 117.356 -1.03999 -1.51183 0
M  V30 1159 H 115.738 -0.0853727 -3.95908 0
M  V30 1160 H 116.912 -2.91736 -3.56689 0
M  V30 1161 H 115.227 -2.5119 -3.32103 0
M  V30 1162 H 117.824 -0.574017 -5.3161 0
M  V30 1163 H 118.167 0.644492 -4.11281 0
M  V30 1164 H 118.7 -1.03251 -3.84167 0
M  V30 1165 H 115.439 -3.50168 -5.54132 0
M  V30 1166 H 114.959 -1.79864 -5.72197 0
M  V30 1167 H 116.638 -2.29471 -6.0494 0
M  V30 1168 N 116.77 1.45427 -0.607355 0
M  V30 1169 C 117.995 2.07124 -0.107006 0
M  V30 1170 C 118.42 1.44906 1.19933 0
M  V30 1171 O 117.778 0.541687 1.73019 0
M  V30 1172 C 117.826 3.60595 0.0194119 0
M  V30 1173 O 116.93 3.98285 1.0697 0
M  V30 1174 H 116.271 0.659868 -0.0739597 0
M  V30 1175 H 118.801 1.86683 -0.837297 0
M  V30 1176 H 118.811 4.07419 0.2177 0
M  V30 1177 H 117.486 4.05266 -0.934453 0
M  V30 1178 H 116.063 3.63133 0.847889 0
M  V30 1179 N 118.248 0.346503 1.53744 0
M  V30 1180 C 119.497 -0.250122 2.00143 0
M  V30 1181 C 119.81 -1.51418 1.23822 0
M  V30 1182 O 121.016 -2.18823 1.60713 0
M  V30 1183 C 119.472 -0.496252 3.56462 0
M  V30 1184 C 119.08 0.752077 4.41642 0
M  V30 1185 C 120.824 -1.05157 4.11269 0
M  V30 1186 C 118.731 0.476583 5.89477 0
M  V30 1187 H 117.661 -0.0972409 0.747703 0
M  V30 1188 H 120.312 0.46229 1.77581 0
M  V30 1189 H 118.694 -1.26944 3.75102 0
M  V30 1190 H 119.868 1.5266 4.34778 0
M  V30 1191 H 118.183 1.22925 3.97842 0
M  V30 1192 H 120.78 -1.27269 5.19333 0
M  V30 1193 H 121.123 -2.00799 3.64672 0
M  V30 1194 H 121.656 -0.339019 3.96353 0
M  V30 1195 H 118.395 1.4028 6.40314 0
M  V30 1196 H 117.915 -0.259794 5.99237 0
M  V30 1197 H 119.594 0.0949315 6.4693 0
M  V30 1198 N 119.726 -1.57421 0.075193 0
M  V30 1199 C 120.954 -1.97946 -0.602076 0
M  V30 1200 C 121.369 -0.953674 -1.62943 0
M  V30 1201 O 120.726 0.0592551 -1.82404 0
M  V30 1202 C 120.777 -3.38546 -1.26762 0
M  V30 1203 O 120.498 -4.37195 -0.281376 0
M  V30 1204 C 121.999 -3.93966 -2.03239 0
M  V30 1205 H 119.219 -0.650918 -0.162931 0
M  V30 1206 H 121.763 -2.03959 0.148601 0
M  V30 1207 H 119.918 -3.33609 -1.96936 0
M  V30 1208 H 120.332 -5.18975 -0.759267 0
M  V30 1209 H 121.806 -4.94555 -2.45193 0
M  V30 1210 H 122.283 -3.30693 -2.8903 0
M  V30 1211 H 122.889 -4.02315 -1.37924 0
M  V30 1212 N 121.204 0.198386 -1.56346 0
M  V30 1213 C 122.432 0.935572 -1.84539 0
M  V30 1214 C 122.847 1.76989 -0.657281 0
M  V30 1215 O 122.204 1.78626 0.374043 0
M  V30 1216 C 122.255 1.8344 -3.11499 0
M  V30 1217 O 121.976 1.03377 -4.25728 0
M  V30 1218 C 123.477 2.68355 -3.52846 0
M  V30 1219 H 120.697 0.273126 -0.612897 0
M  V30 1220 H 123.241 0.20663 -2.03453 0
M  V30 1221 H 121.396 2.51701 -2.94492 0
M  V30 1222 H 121.81 1.64599 -4.98003 0
M  V30 1223 H 123.284 3.27085 -4.44657 0
M  V30 1224 H 123.761 3.41901 -2.75681 0
M  V30 1225 H 124.367 2.05471 -3.72373 0
M  V30 1226 N 122.682 1.50554 0.465978 0
M  V30 1227 C 123.912 1.65323 1.23903 0
M  V30 1228 C 124.32 0.338051 1.86155 0
M  V30 1229 O 123.663 -0.690518 1.70228 0
M  V30 1230 C 123.725 2.69048 2.3844 0
M  V30 1231 C 123.389 4.12462 1.96784 0
M  V30 1232 C 124.386 4.98168 1.48745 0
M  V30 1233 C 122.071 4.58407 2.05349 0
M  V30 1234 C 124.065 6.27868 1.0982 0
M  V30 1235 C 121.752 5.88112 1.66035 0
M  V30 1236 C 122.75 6.72668 1.18349 0
M  V30 1237 O 122.438 7.99951 0.795825 0
M  V30 1238 H 122.17 0.558629 0.38067 0
M  V30 1239 H 124.724 1.97561 0.562022 0
M  V30 1240 H 122.954 2.32062 3.09328 0
M  V30 1241 H 124.643 2.72985 3.0039 0
M  V30 1242 H 125.409 4.63885 1.41546 0
M  V30 1243 H 121.288 3.92735 2.41414 0
M  V30 1244 H 124.832 6.93819 0.725293 0
M  V30 1245 H 120.729 6.21914 1.72895 0
M  V30 1246 H 121.497 8.13265 0.924222 0
M  V30 1247 N 124.16 -0.719506 1.40217 0
M  V30 1248 C 125.123 -1.8153 1.39927 0
M  V30 1249 C 126.123 -1.58095 0.293723 0
M  V30 1250 O 127.313 -1.65209 0.552429 0
M  V30 1251 C 124.445 -3.19561 1.18716 0
M  V30 1252 H 125.638 -1.83186 2.37451 0
M  V30 1253 H 123.191 -0.924746 1.26008 0
M  V30 1254 H 123.926 -3.23557 0.219366 0
M  V30 1255 H 123.711 -3.3797 1.98793 0
M  V30 1256 H 125.201 -3.99598 1.21291 0
M  V30 1257 N 125.638 -1.25649 -0.95132 0
M  V30 1258 C 127.054 -1.02542 -1.223 0
M  V30 1259 C 127.254 0.255715 -1.99871 0
M  V30 1260 O 126.31 0.967558 -2.33226 0
M  V30 1261 C 127.623 -2.25065 -1.99415 0
M  V30 1262 C 129.171 -2.29861 -2.12446 0
M  V30 1263 C 129.646 -3.52048 -2.92961 0
M  V30 1264 N 131.137 -3.52465 -3.00538 0
M  V30 1265 C 131.872 -4.43672 -3.63239 0
M  V30 1266 N 131.368 -5.45157 -4.27523 0
M  V30 1267 N 133.161 -4.31346 -3.60412 0
M  V30 1268 H 125.312 -2.07951 -0.432471 0
M  V30 1269 H 127.575 -0.91339 -0.253816 0
M  V30 1270 H 127.281 -3.18194 -1.49817 0
M  V30 1271 H 127.155 -2.28502 -3.00111 0
M  V30 1272 H 129.542 -1.37252 -2.61239 0
M  V30 1273 H 129.623 -2.3044 -1.11044 0
M  V30 1274 H 129.267 -4.44981 -2.44856 0
M  V30 1275 H 129.197 -3.48715 -3.94596 0
M  V30 1276 H 131.688 -2.79056 -2.54826 0
M  V30 1277 H 132.001 -6.10958 -4.73234 0
M  V30 1278 H 130.346 -5.49025 -4.26141 0
M  V30 1279 H 133.537 -3.51288 -3.09377 0
M  V30 1280 H 133.71 -5.02624 -4.0899 0
M  V30 1281 N 127.117 1.15442 -1.07289 0
M  V30 1282 C 128.047 2.22312 -0.714107 0
M  V30 1283 C 129.028 1.67467 0.298155 0
M  V30 1284 O 130.213 1.93445 0.171048 0
M  V30 1285 C 127.343 3.47124 -0.110448 0
M  V30 1286 C 126.297 4.14926 -1.04979 0
M  V30 1287 C 125.623 5.33807 -0.308924 0
M  V30 1288 C 126.923 4.64762 -2.38314 0
M  V30 1289 H 128.617 2.5258 -1.6076 0
M  V30 1290 H 126.163 1.21404 -0.77441 0
M  V30 1291 H 128.116 4.21124 0.152482 0
M  V30 1292 H 126.84 3.16187 0.81812 0
M  V30 1293 H 125.499 3.42866 -1.29764 0
M  V30 1294 H 125.147 4.99126 0.623084 0
M  V30 1295 H 124.847 5.80113 -0.935036 0
M  V30 1296 H 126.371 6.10576 -0.0537771 0
M  V30 1297 H 127.785 5.30292 -2.1786 0
M  V30 1298 H 126.182 5.21728 -2.96514 0
M  V30 1299 H 127.252 3.80434 -3.00663 0
M  V30 1300 N 128.595 0.856903 1.32268 0
M  V30 1301 C 129.542 0.301172 2.28827 0
M  V30 1302 C 130.512 -0.593104 1.5515 0
M  V30 1303 O 131.697 -0.527537 1.83362 0
M  V30 1304 C 128.837 -0.502523 3.41422 0
M  V30 1305 C 127.95 0.417797 4.29975 0
M  V30 1306 C 127.085 -0.398749 5.29701 0
M  V30 1307 C 126.124 0.518827 6.09897 0
M  V30 1308 N 125.261 -0.260674 7.01616 0
M  V30 1309 H 130.101 1.12983 2.75751 0
M  V30 1310 H 127.638 0.568582 1.35667 0
M  V30 1311 H 129.596 -0.984141 4.05426 0
M  V30 1312 H 128.226 -1.29599 2.95642 0
M  V30 1313 H 127.278 1.01781 3.66531 0
M  V30 1314 H 128.59 1.12191 4.86019 0
M  V30 1315 H 127.744 -0.943435 5.9932 0
M  V30 1316 H 126.483 -1.13622 4.7428 0
M  V30 1317 H 125.488 1.07538 5.39181 0
M  V30 1318 H 126.713 1.25495 6.67404 0
M  V30 1319 H 124.659 -0.981198 6.4862 0
M  V30 1320 H 124.576 0.384364 7.55022 0
M  V30 1321 H 125.844 -0.787014 7.75517 0
M  V30 1322 N 130.073 -1.45103 0.615059 0
M  V30 1323 C 131.003 -2.33339 -0.0865619 0
M  V30 1324 C 131.984 -1.4727 -0.851209 0
M  V30 1325 O 133.169 -1.76026 -0.820281 0
M  V30 1326 C 130.299 -3.30095 -1.07956 0
M  V30 1327 C 129.253 -4.25858 -0.427628 0
M  V30 1328 C 128.579 -5.12361 -1.5294 0
M  V30 1329 C 129.879 -5.18165 0.655944 0
M  V30 1330 H 131.573 -2.92254 0.650224 0
M  V30 1331 H 129.119 -1.40532 0.314138 0
M  V30 1332 H 131.072 -3.90698 -1.57901 0
M  V30 1333 H 129.796 -2.69355 -1.84703 0
M  V30 1334 H 128.455 -3.66564 0.0510292 0
M  V30 1335 H 128.103 -4.47984 -2.28734 0
M  V30 1336 H 127.803 -5.77238 -1.09865 0
M  V30 1337 H 129.327 -5.75833 -2.03098 0
M  V30 1338 H 130.741 -5.72796 0.240257 0
M  V30 1339 H 129.138 -5.91559 1.00888 0
M  V30 1340 H 130.208 -4.60144 1.52957 0
M  V30 1341 N 131.551 -0.354651 -1.53558 0
M  V30 1342 C 132.799 0.237972 -2.00694 0
M  V30 1343 C 133.12 1.50173 -1.24391 0
M  V30 1344 O 132.39 1.92673 -0.354135 0
M  V30 1345 H 130.97 0.0909256 -0.741446 0
M  V30 1346 H 133.632 -0.478368 -1.88938 0
M  V30 1347 H 132.728 0.47264 -3.085 0
M  V30 1348 N 133.029 1.57378 -0.0835403 0
M  V30 1349 C 133.939 2.16897 0.894021 0
M  V30 1350 C 134.955 1.13528 1.31861 0
M  V30 1351 O 136.131 1.45848 1.3889 0
M  V30 1352 C 133.196 2.72831 2.13925 0
M  V30 1353 C 132.257 3.91115 1.76997 0
M  V30 1354 C 131.49 4.44371 2.95584 0
M  V30 1355 O 131.713 3.96596 4.09961 0
M  V30 1356 O 130.647 5.35549 2.74719 0
M  V30 1357 H 134.473 3.00814 0.417679 0
M  V30 1358 H 132.058 1.48741 0.140181 0
M  V30 1359 H 133.94 3.0863 2.86924 0
M  V30 1360 H 132.615 1.91967 2.60635 0
M  V30 1361 H 131.522 3.60148 1.01214 0
M  V30 1362 H 132.855 4.73307 1.3506 0
M  V30 1363 N 134.507 -0.190092 1.56449 0
M  V30 1364 C 135.737 -0.92443 1.84764 0
M  V30 1365 C 136.145 -1.77146 0.664529 0
M  V30 1366 O 135.488 -1.79812 -0.375957 0
M  V30 1367 C 135.55 -1.86651 3.07248 0
M  V30 1368 C 135.214 -1.20094 4.40938 0
M  V30 1369 C 136.211 -0.575445 5.16706 0
M  V30 1370 C 133.896 -1.2033 4.87674 0
M  V30 1371 C 135.89 0.0388111 6.37388 0
M  V30 1372 C 133.577 -0.585214 6.08291 0
M  V30 1373 C 134.575 0.0347578 6.82991 0
M  V30 1374 O 134.263 0.643147 8.01323 0
M  V30 1375 H 133.995 -0.274974 0.617548 0
M  V30 1376 H 136.549 -0.200788 2.04416 0
M  V30 1377 H 134.779 -2.62998 2.83494 0
M  V30 1378 H 136.468 -2.46907 3.22167 0
M  V30 1379 H 137.234 -0.565728 4.81689 0
M  V30 1380 H 133.113 -1.67526 4.29484 0
M  V30 1381 H 136.657 0.523329 6.95634 0
M  V30 1382 H 132.554 -0.592451 6.42775 0
M  V30 1383 H 133.322 0.540545 8.16713 0
M  V30 1384 N 135.985 -1.50799 -0.457987 0
M  V30 1385 C 137.234 -1.6168 -1.20593 0
M  V30 1386 C 137.547 -0.32888 -1.92815 0
M  V30 1387 O 138.753 -0.316773 -2.69646 0
M  V30 1388 C 137.209 -2.8545 -2.19195 0
M  V30 1389 C 136.817 -4.21168 -1.52715 0
M  V30 1390 C 138.561 -3.05681 -2.94549 0
M  V30 1391 C 136.468 -5.3611 -2.4968 0
M  V30 1392 H 135.398 -0.602134 -0.453818 0
M  V30 1393 H 138.049 -1.77245 -0.475031 0
M  V30 1394 H 136.431 -2.63472 -2.95632 0
M  V30 1395 H 137.605 -4.53449 -0.819775 0
M  V30 1396 H 135.92 -4.06648 -0.895922 0
M  V30 1397 H 138.517 -3.88727 -3.67145 0
M  V30 1398 H 138.86 -2.17929 -3.54701 0
M  V30 1399 H 139.393 -3.27901 -2.25223 0
M  V30 1400 H 136.132 -6.26057 -1.94249 0
M  V30 1401 H 135.652 -5.0823 -3.18532 0
M  V30 1402 H 137.331 -5.6722 -3.11241 0
M  V30 1403 N 137.463 0.71206 -1.40597 0
M  V30 1404 C 138.426 1.80785 -1.40888 0
M  V30 1405 C 139.426 1.57937 -0.302103 0
M  V30 1406 O 140.616 1.64913 -0.561182 0
M  V30 1407 C 137.748 3.18927 -1.20409 0
M  V30 1408 H 138.941 1.81924 -2.38419 0
M  V30 1409 H 136.494 0.91805 -1.26497 0
M  V30 1410 H 137.229 3.23436 -0.236522 0
M  V30 1411 H 137.014 3.36911 -2.00582 0
M  V30 1412 H 138.504 3.98949 -1.23408 0
M  V30 1413 N 138.941 1.26152 0.944643 0
M  V30 1414 C 140.218 1.02247 1.66748 0
M  V30 1415 C 140.598 -0.448202 2.06287 0
M  V30 1416 O 139.946 -1.42779 1.78399 0
M  V30 1417 C 140.156 1.96788 2.88228 0
M  V30 1418 C 141.504 2.25201 3.59958 0
M  V30 1419 O 142.528 1.94626 2.98327 0
M  V30 1420 O 141.387 2.77242 4.70956 0
M  V30 1421 H 138.481 0.388517 0.730057 0
M  V30 1422 H 141.027 1.37348 0.99668 0
M  V30 1423 H 139.799 2.96047 2.55875 0
M  V30 1424 H 139.422 1.62145 3.63035 0
M  V30 1425 N 140.419 -1.14872 1.07899 0
M  V30 1426 C 141.659 -1.8745 0.814965 0
M  V30 1427 C 142.023 -1.80758 -0.64733 0
M  V30 1428 O 143.224 -2.48422 -1.02664 0
M  V30 1429 C 141.495 -3.32286 1.31607 0
M  V30 1430 S 143.054 -4.22537 1.18357 0
M  V30 1431 H 139.872 -0.646833 0.295174 0
M  V30 1432 H 142.474 -1.38555 1.37923 0
M  V30 1433 H 141.178 -3.34703 2.37491 0
M  V30 1434 H 140.709 -3.86238 0.747261 0
M  V30 1435 H 142.724 -4.96044 0.124586 0
M  V30 1436 N 141.898 -0.863906 -1.31812 0
M  V30 1437 C 143.175 -0.39275 -1.91616 0
M  V30 1438 C 143.555 1.12461 -1.7865 0
M  V30 1439 O 142.903 1.95045 -1.19037 0
M  V30 1440 C 143.113 -0.867385 -3.38049 0
M  V30 1441 C 144.461 -0.889966 -4.15168 0
M  V30 1442 O 145.485 -0.812635 -3.46806 0
M  V30 1443 O 144.344 -1.00079 -5.37258 0
M  V30 1444 H 141.438 -0.116358 -0.818773 0
M  V30 1445 H 143.984 -0.951418 -1.40521 0
M  V30 1446 H 142.756 -1.91081 -3.41473 0
M  V30 1447 H 142.379 -0.286687 -3.96565 0
M  V30 1448 N 143.376 1.44774 -0.622745 0
M  V30 1449 C 144.323 2.30635 0.0871679 0
M  V30 1450 C 145.293 1.42994 0.845097 0
M  V30 1451 O 146.478 1.71907 0.827812 0
M  V30 1452 C 143.618 3.28144 1.06844 0
M  V30 1453 C 142.731 4.30888 0.309809 0
M  V30 1454 C 141.866 5.15494 1.28215 0
M  V30 1455 C 140.905 6.09953 0.512198 0
M  V30 1456 N 140.042 6.87287 1.43458 0
M  V30 1457 H 144.882 2.90803 -0.650974 0
M  V30 1458 H 142.419 1.43286 -0.33281 0
M  V30 1459 H 144.377 3.83157 1.65066 0
M  V30 1460 H 143.007 2.69695 1.77382 0
M  V30 1461 H 142.059 3.78414 -0.388181 0
M  V30 1462 H 143.371 4.97955 -0.290254 0
M  V30 1463 H 142.525 5.74983 1.93596 0
M  V30 1464 H 141.264 4.48481 1.91614 0
M  V30 1465 H 140.269 5.49581 -0.155151 0
M  V30 1466 H 141.494 6.78999 -0.116958 0
M  V30 1467 H 139.44 6.2295 2.05594 0
M  V30 1468 H 139.357 7.50763 0.888335 0
M  V30 1469 H 140.625 7.51306 2.07749 0
M  V30 1470 N 144.854 0.36279 1.53368 0
M  V30 1471 C 146.1 -0.228113 2.01513 0
M  V30 1472 C 146.433 -1.48648 1.2497 0
M  V30 1473 O 145.708 -1.91459 0.342616 0
M  V30 1474 C 145.991 -0.522884 3.56284 0
M  V30 1475 C 145.844 0.74892 4.43521 0
M  V30 1476 C 147.163 -1.32461 4.19693 0
M  V30 1477 H 144.282 -0.0814343 0.732487 0
M  V30 1478 H 146.924 0.48713 1.83649 0
M  V30 1479 H 145.074 -1.1322 3.71636 0
M  V30 1480 H 146.746 1.38648 4.39971 0
M  V30 1481 H 144.989 1.36986 4.11603 0
M  V30 1482 H 145.66 0.497667 5.49752 0
M  V30 1483 H 148.136 -0.809203 4.08156 0
M  V30 1484 H 147.012 -1.49961 5.28018 0
M  V30 1485 H 147.273 -2.33232 3.75573 0
M  V30 1486 N 146.332 -1.57332 0.0918853 0
M  V30 1487 C 147.262 -2.16872 -0.865371 0
M  V30 1488 C 148.243 -1.10118 -1.29646 0
M  V30 1489 O 149.428 -1.38242 -1.36392 0
M  V30 1490 C 146.558 -2.74649 -2.12569 0
M  V30 1491 C 145.512 -3.86747 -1.83333 0
M  V30 1492 C 144.838 -4.31212 -3.16166 0
M  V30 1493 C 146.138 -5.10089 -1.1228 0
M  V30 1494 H 147.832 -2.97114 -0.369307 0
M  V30 1495 H 145.378 -1.42918 -0.176194 0
M  V30 1496 H 147.331 -3.14952 -2.7997 0
M  V30 1497 H 146.055 -1.91657 -2.64452 0
M  V30 1498 H 144.714 -3.46978 -1.18331 0
M  V30 1499 H 144.362 -3.45115 -3.6593 0
M  V30 1500 H 144.062 -5.06788 -2.97388 0
M  V30 1501 H 145.586 -4.74146 -3.84731 0
M  V30 1502 H 147 -5.47582 -1.69785 0
M  V30 1503 H 145.397 -5.91073 -1.03693 0
M  V30 1504 H 146.467 -4.84786 -0.105041 0
M  V30 1505 N 147.81 0.181792 -1.56548 0
M  V30 1506 C 149.04 0.914618 -1.85252 0
M  V30 1507 C 149.448 1.76791 -0.673914 0
M  V30 1508 O 148.791 1.80009 0.366416 0
M  V30 1509 C 148.853 1.85019 -3.08234 0
M  V30 1510 C 148.517 1.17754 -4.41569 0
M  V30 1511 C 149.514 0.548035 -5.17003 0
M  V30 1512 C 147.199 1.17742 -4.88305 0
M  V30 1513 C 149.193 -0.0726128 -6.37359 0
M  V30 1514 C 146.88 0.552946 -6.08593 0
M  V30 1515 C 147.878 -0.070978 -6.82963 0
M  V30 1516 O 147.566 -0.685635 -8.00971 0
M  V30 1517 H 147.298 0.271695 -0.618998 0
M  V30 1518 H 149.852 0.189944 -2.0452 0
M  V30 1519 H 148.082 2.61491 -2.84885 0
M  V30 1520 H 149.771 2.45195 -3.23472 0
M  V30 1521 H 150.537 0.540174 -4.81982 0
M  V30 1522 H 146.416 1.65246 -4.30366 0
M  V30 1523 H 149.96 -0.560213 -6.95347 0
M  V30 1524 H 145.857 0.558354 -6.43081 0
M  V30 1525 H 146.625 -0.58385 -8.16415 0
M  V30 1526 N 149.288 1.51039 0.449983 0
M  V30 1527 C 150.218 1.74379 1.55288 0
M  V30 1528 C 151.199 0.593236 1.5942 0
M  V30 1529 O 152.384 0.834625 1.7535 0
M  V30 1530 C 149.514 1.85728 2.93466 0
M  V30 1531 C 148.468 3.01078 3.04197 0
M  V30 1532 C 147.794 2.97595 4.44231 0
M  V30 1533 C 149.094 4.41254 2.7945 0
M  V30 1534 H 150.788 2.66725 1.36008 0
M  V30 1535 H 148.334 1.2835 0.652864 0
M  V30 1536 H 150.287 2.0064 3.70569 0
M  V30 1537 H 149.011 0.900207 3.13949 0
M  V30 1538 H 147.67 2.85851 2.29531 0
M  V30 1539 H 147.318 1.99691 4.61663 0
M  V30 1540 H 147.018 3.75046 4.52343 0
M  V30 1541 H 148.542 3.14583 5.23326 0
M  V30 1542 H 149.956 4.56897 3.46292 0
M  V30 1543 H 148.353 5.20315 2.98985 0
M  V30 1544 H 149.423 4.52164 1.75144 0
M  V30 1545 N 150.766 -0.704594 1.40972 0
M  V30 1546 C 152.043 -1.45847 1.30338 0
M  V30 1547 C 152.423 -2.10973 -0.0732344 0
M  V30 1548 O 151.771 -2.00997 -1.08685 0
M  V30 1549 C 151.981 -2.48525 2.45023 0
M  V30 1550 C 153.329 -3.1404 2.8577 0
M  V30 1551 O 154.353 -2.58848 2.44696 0
M  V30 1552 O 153.212 -4.13981 3.56766 0
M  V30 1553 H 150.306 -0.649092 0.512454 0
M  V30 1554 H 152.852 -0.735836 1.52917 0
M  V30 1555 H 151.624 -1.98994 3.36923 0
M  V30 1556 H 151.247 -3.2831 2.24272 0
M  V30 1557 N 152.244 -1.26651 -0.937939 0
M  V30 1558 C 153.493 -1.11775 -1.67897 0
M  V30 1559 C 153.806 0.33794 -1.92659 0
M  V30 1560 O 155.012 0.607434 -2.64618 0
M  V30 1561 C 153.468 -1.9523 -3.02346 0
M  V30 1562 C 153.076 -3.45393 -2.8532 0
M  V30 1563 C 154.82 -1.88972 -3.80118 0
M  V30 1564 C 152.727 -4.21083 -4.15263 0
M  V30 1565 H 151.657 -0.414696 -0.629717 0
M  V30 1566 H 154.308 -1.50988 -1.04283 0
M  V30 1567 H 152.69 -1.48853 -3.66959 0
M  V30 1568 H 153.864 -3.99561 -2.29537 0
M  V30 1569 H 152.179 -3.52921 -2.20988 0
M  V30 1570 H 154.776 -2.42805 -4.76392 0
M  V30 1571 H 155.119 -0.86113 -4.07296 0
M  V30 1572 H 155.652 -2.33189 -3.22285 0
M  V30 1573 H 152.391 -5.24425 -3.93267 0
M  V30 1574 H 151.911 -3.71695 -4.70747 0
M  V30 1575 H 153.59 -4.29706 -4.83696 0
M  V30 1576 N 153.722 1.14298 -1.08507 0
M  V30 1577 C 154.999 1.81544 -0.728088 0
M  V30 1578 C 155.379 1.95838 0.78808 0
M  V30 1579 O 154.727 1.51904 1.70697 0
M  V30 1580 C 154.937 3.17169 -1.45619 0
M  V30 1581 C 156.285 3.9265 -1.61591 0
M  V30 1582 O 157.309 3.26762 -1.41793 0
M  V30 1583 O 156.168 5.10807 -1.94263 0
M  V30 1584 H 153.262 0.78491 -0.260471 0
M  V30 1585 H 155.808 1.21307 -1.18671 0
M  V30 1586 H 154.58 3.01934 -2.489 0
M  V30 1587 H 154.203 3.851 -0.989124 0
M  V30 1588 N 155.201 0.870884 1.31352 0
M  V30 1589 C 156.447 0.482987 1.96965 0
M  V30 1590 C 156.78 -0.962462 1.68672 0
M  V30 1591 O 156.055 -1.6779 0.98371 0
M  V30 1592 C 156.338 0.741752 3.52378 0
M  V30 1593 C 156.191 2.2368 3.9024 0
M  V30 1594 C 157.51 0.208838 4.39604 0
M  V30 1595 H 154.629 0.176955 0.715441 0
M  V30 1596 H 157.271 1.09229 1.55464 0
M  V30 1597 H 155.421 0.223149 3.87859 0
M  V30 1598 H 157.093 2.82273 3.64856 0
M  V30 1599 H 155.336 2.70901 3.38814 0
M  V30 1600 H 156.007 2.3685 4.98604 0
M  V30 1601 H 158.483 0.652529 4.10952 0
M  V30 1602 H 157.359 0.419336 5.47296 0
M  V30 1603 H 157.62 -0.889275 4.33064 0
M  V30 1604 N 156.679 -1.44442 0.630414 0
M  V30 1605 C 157.609 -2.33418 -0.0618083 0
M  V30 1606 C 158.59 -1.48165 -0.835541 0
M  V30 1607 O 159.775 -1.76886 -0.801564 0
M  V30 1608 C 156.905 -3.31222 -1.04449 0
M  V30 1609 C 155.859 -4.26288 -0.382436 0
M  V30 1610 C 155.185 -5.13954 -1.47497 0
M  V30 1611 C 156.485 -5.1744 0.710865 0
M  V30 1612 H 158.179 -2.91548 0.681184 0
M  V30 1613 H 155.725 -1.40191 0.329026 0
M  V30 1614 H 157.678 -3.92351 -1.53748 0
M  V30 1615 H 156.402 -2.71299 -1.81836 0
M  V30 1616 H 155.061 -3.6649 0.0899054 0
M  V30 1617 H 154.709 -4.50385 -2.2397 0
M  V30 1618 H 154.409 -5.7837 -1.03737 0
M  V30 1619 H 155.933 -5.77955 -1.96979 0
M  V30 1620 H 157.347 -5.72509 0.300996 0
M  V30 1621 H 155.744 -5.90455 1.07156 0
M  V30 1622 H 156.814 -4.58496 1.57829 0
M  V30 1623 N 158.157 -0.370918 -1.53173 0
M  V30 1624 C 159.403 0.217423 -2.01631 0
M  V30 1625 C 159.736 1.47983 -1.25756 0
M  V30 1626 O 159.011 1.91274 -0.352764 0
M  V30 1627 C 159.294 0.503982 -3.56556 0
M  V30 1628 C 159.147 -0.77243 -4.43118 0
M  V30 1629 C 160.466 1.30234 -4.20389 0
M  V30 1630 H 157.585 0.0775486 -0.732909 0
M  V30 1631 H 160.227 -0.496863 -1.83388 0
M  V30 1632 H 158.377 1.11248 -3.72231 0
M  V30 1633 H 160.049 -1.4098 -4.39229 0
M  V30 1634 H 158.292 -1.39167 -4.10871 0
M  V30 1635 H 158.963 -0.526815 -5.4948 0
M  V30 1636 H 161.439 0.787546 -4.08579 0
M  V30 1637 H 160.315 1.47158 -5.28806 0
M  V30 1638 H 160.576 2.31237 -3.76805 0
M  V30 1639 N 159.635 1.57281 -0.100228 0
M  V30 1640 C 161.051 1.57527 0.256416 0
M  V30 1641 C 161.251 1.11173 1.68056 0
M  V30 1642 O 160.307 0.79053 2.39806 0
M  V30 1643 C 161.62 3.00673 0.0401747 0
M  V30 1644 C 163.168 3.12815 0.107528 0
M  V30 1645 C 163.643 4.57929 -0.0807834 0
M  V30 1646 N 165.134 4.63193 -0.0261207 0
M  V30 1647 C 165.869 5.73212 -0.146999 0
M  V30 1648 N 165.365 6.92047 -0.322999 0
M  V30 1649 N 167.158 5.62031 -0.0879044 0
M  V30 1650 H 159.309 1.85718 -1.03065 0
M  V30 1651 H 161.572 0.857446 -0.404339 0
M  V30 1652 H 161.278 3.38804 -0.943649 0
M  V30 1653 H 161.152 3.69042 0.780262 0
M  V30 1654 H 163.539 2.74554 1.08186 0
M  V30 1655 H 163.62 2.47028 -0.664134 0
M  V30 1656 H 163.264 4.96886 -1.05201 0
M  V30 1657 H 163.194 5.21783 0.710635 0
M  V30 1658 H 165.685 3.77748 0.107161 0
M  V30 1659 H 165.998 7.7173 -0.406608 0
M  V30 1660 H 164.343 6.94074 -0.358733 0
M  V30 1661 H 167.534 4.68075 0.048498 0
M  V30 1662 H 167.707 6.47734 -0.185557 0
M  V30 1663 N 161.113 -0.173488 1.56642 0
M  V30 1664 C 162.39 -0.917617 1.7274 0
M  V30 1665 C 162.77 -2.00484 0.661027 0
M  V30 1666 O 162.118 -2.26184 -0.32453 0
M  V30 1667 C 162.328 -1.48433 3.15862 0
M  V30 1668 C 163.676 -1.95809 3.76754 0
M  V30 1669 O 164.7 -1.58231 3.19126 0
M  V30 1670 O 163.559 -2.65024 4.77938 0
M  V30 1671 H 160.653 -0.431772 0.705338 0
M  V30 1672 H 163.199 -0.161487 1.6893 0
M  V30 1673 H 161.971 -0.701715 3.84957 0
M  V30 1674 H 161.594 -2.30471 3.23989 0
M  V30 1675 N 162.591 -1.51276 -0.441967 0
M  V30 1676 C 163.816 -1.67799 -1.21895 0
M  V30 1677 C 164.241 -0.372864 -1.84367 0
M  V30 1678 O 163.599 0.666501 -1.68604 0
M  V30 1679 C 163.647 -2.79199 -2.28211 0
M  V30 1680 O 162.751 -2.42479 -3.33583 0
M  V30 1681 H 162.092 -0.559649 -0.357336 0
M  V30 1682 H 164.622 -1.97815 -0.522522 0
M  V30 1683 H 164.632 -3.03146 -2.73069 0
M  V30 1684 H 163.307 -3.73906 -1.82118 0
M  V30 1685 H 161.884 -2.29087 -2.94234 0
M  V30 1686 N 164.069 0.697108 -1.41344 0
M  V30 1687 C 164.999 1.82353 -1.45841 0
M  V30 1688 C 165.98 1.67115 -0.317247 0
M  V30 1689 O 167.165 1.86871 -0.528474 0
M  V30 1690 C 164.295 3.20476 -1.33838 0
M  V30 1691 C 163.249 3.50415 -2.4575 0
M  V30 1692 C 162.575 4.87878 -2.18813 0
M  V30 1693 C 163.875 3.49546 -3.88091 0
M  V30 1694 H 165.569 1.78846 -2.40113 0
M  V30 1695 H 163.115 0.859028 -1.15571 0
M  V30 1696 H 165.068 3.98988 -1.35596 0
M  V30 1697 H 163.792 3.24604 -0.360498 0
M  V30 1698 H 162.451 2.74253 -2.43271 0
M  V30 1699 H 162.099 4.8863 -1.19371 0
M  V30 1700 H 161.799 5.08875 -2.93803 0
M  V30 1701 H 163.323 5.68702 -2.22284 0
M  V30 1702 H 164.737 4.18066 -3.92293 0
M  V30 1703 H 163.134 3.82075 -4.62751 0
M  V30 1704 H 164.204 2.48552 -4.16353 0
M  V30 1705 N 165.547 1.27147 0.931209 0
M  V30 1706 C 166.775 1.16082 1.71267 0
M  V30 1707 C 167.19 -0.282772 1.8667 0
M  V30 1708 O 166.547 -1.19283 1.38122 0
M  V30 1709 C 166.598 1.8358 3.11417 0
M  V30 1710 O 166.319 3.22299 2.96741 0
M  V30 1711 C 167.82 1.78597 4.05732 0
M  V30 1712 H 165.04 0.403758 0.535929 0
M  V30 1713 H 167.584 1.67953 1.16671 0
M  V30 1714 H 165.739 1.35623 3.62885 0
M  V30 1715 H 166.153 3.55851 3.85319 0
M  V30 1716 H 167.627 2.30444 5.01597 0
M  V30 1717 H 168.104 0.754564 4.3267 0
M  V30 1718 H 168.71 2.26152 3.60188 0
M  V30 1719 N 167.025 -1.13721 1.09112 0
M  V30 1720 C 168.436 -1.6648 0.845068 0
M  V30 1721 C 168.787 -1.85911 -0.62701 0
M  V30 1722 O 167.912 -1.57556 -1.48341 0
M  V30 1723 C 168.507 -3.02413 1.52748 0
M  V30 1724 C 167.066 -3.52176 1.32849 0
M  V30 1725 C 166.213 -2.27492 1.58564 0
M  V30 1726 H 169.164 -0.976872 1.25072 0
M  V30 1727 H 169.185 -3.68223 0.958752 0
M  V30 1728 H 168.697 -2.88238 2.59885 0
M  V30 1729 H 166.798 -3.7156 0.278137 0
M  V30 1730 H 166.911 -4.32499 2.0611 0
M  V30 1731 H 165.275 -2.33923 1.00758 0
M  V30 1732 H 166.058 -2.15886 2.66924 0
M  V30 1733 N 168.503 -0.877838 -1.30888 0
M  V30 1734 C 169.433 -0.35534 -2.3078 0
M  V30 1735 C 170.414 0.557994 -1.60687 0
M  V30 1736 O 171.599 0.473355 -1.88343 0
M  V30 1737 C 168.729 0.437221 -3.44537 0
M  V30 1738 C 167.683 -0.383715 -4.26276 0
M  V30 1739 C 167.009 0.535014 -5.32017 0
M  V30 1740 C 168.309 -1.62201 -4.96476 0
M  V30 1741 H 170.003 -1.19007 -2.74732 0
M  V30 1742 H 167.549 -0.573698 -1.32078 0
M  V30 1743 H 169.502 0.813334 -4.13477 0
M  V30 1744 H 168.226 1.30553 -2.99372 0
M  V30 1745 H 166.885 -0.741874 -3.59015 0
M  V30 1746 H 166.533 1.40083 -4.831 0
M  V30 1747 H 166.233 -0.0104211 -5.87599 0
M  V30 1748 H 167.757 0.907799 -6.03814 0
M  V30 1749 H 169.171 -1.31689 -5.5797 0
M  V30 1750 H 167.568 -2.10711 -5.61891 0
M  V30 1751 H 168.638 -2.37044 -4.23011 0
M  V30 1752 N 169.982 1.44106 -0.638065 0
M  V30 1753 C 171.228 2.02815 -0.15409 0
M  V30 1754 C 171.583 1.49342 1.21304 0
M  V30 1755 O 170.876 0.670699 1.79478 0
M  V30 1756 C 171.07 3.5729 -0.0887327 0
M  V30 1757 C 170.899 4.2575 -1.44799 0
M  V30 1758 C 169.669 4.62443 -2.03653 0
M  V30 1759 C 171.867 4.55746 -2.38327 0
M  V30 1760 N 169.849 5.15903 -3.32741 0
M  V30 1761 C 171.22 5.10364 -3.52036 0
M  V30 1762 C 173.275 4.37703 -2.3732 0
M  V30 1763 C 171.978 5.48837 -4.64941 0
M  V30 1764 C 174.004 4.77229 -3.49294 0
M  V30 1765 C 173.366 5.31966 -4.61726 0
M  V30 1766 H 169.465 0.775519 -0.100466 0
M  V30 1767 H 172.049 1.755 -0.843071 0
M  V30 1768 H 170.22 3.84201 0.569548 0
M  V30 1769 H 171.952 4.02671 0.404711 0
M  V30 1770 H 168.707 4.46987 -1.56523 0
M  V30 1771 H 169.131 5.47102 -3.98758 0
M  V30 1772 H 173.773 3.94671 -1.51641 0
M  V30 1773 H 171.491 5.9082 -5.51323 0
M  V30 1774 H 175.077 4.64976 -3.49698 0
M  V30 1775 H 173.957 5.61986 -5.46939 0
M  V30 1776 N 171.46 0.379036 1.52974 0
M  V30 1777 C 172.737 -0.263479 1.93817 0
M  V30 1778 C 173.117 -1.65244 1.31368 0
M  V30 1779 O 172.465 -2.23448 0.477856 0
M  V30 1780 C 172.675 -0.300166 3.47707 0
M  V30 1781 C 174.023 -0.534061 4.21228 0
M  V30 1782 O 175.047 -0.38081 3.54159 0
M  V30 1783 O 173.906 -0.833501 5.40106 0
M  V30 1784 H 171 -0.161149 0.811147 0
M  V30 1785 H 173.546 0.432798 1.64088 0
M  V30 1786 H 172.318 0.673138 3.85467 0
M  V30 1787 H 171.941 -1.04179 3.83709 0
M  V30 1788 N 172.938 -1.57226 0.108567 0
M  V30 1789 C 174.166 -1.99179 -0.559954 0
M  V30 1790 C 174.581 -0.988022 -1.60884 0
M  V30 1791 O 173.938 0.0205512 -1.82488 0
M  V30 1792 C 173.989 -3.41159 -1.19552 0
M  V30 1793 O 173.71 -4.37694 -0.188577 0
M  V30 1794 C 175.211 -3.98188 -1.94837 0
M  V30 1795 H 172.431 -0.654228 -0.149088 0
M  V30 1796 H 174.975 -2.03598 0.19183 0
M  V30 1797 H 173.13 -3.37711 -1.89815 0
M  V30 1798 H 173.544 -5.20469 -0.649014 0
M  V30 1799 H 175.018 -4.99644 -2.34648 0
M  V30 1800 H 175.495 -3.3675 -2.81951 0
M  V30 1801 H 176.101 -4.0515 -1.2936 0
M  V30 1802 N 174.416 0.165178 -1.56732 0
M  V30 1803 C 175.693 0.908443 -1.73224 0
M  V30 1804 C 176.073 2.0013 -0.67165 0
M  V30 1805 O 175.421 2.26353 0.31253 0
M  V30 1806 C 175.631 1.46756 -3.16644 0
M  V30 1807 C 176.979 1.93809 -3.77787 0
M  V30 1808 O 178.003 1.56537 -3.1996 0
M  V30 1809 O 176.862 2.62486 -4.79336 0
M  V30 1810 H 173.956 0.428025 -0.707618 0
M  V30 1811 H 176.502 0.152526 -1.69013 0
M  V30 1812 H 175.274 0.68129 -3.85323 0
M  V30 1813 H 174.897 2.28749 -3.25207 0
M  V30 1814 N 175.894 1.51508 0.433938 0
M  V30 1815 C 176.824 1.76016 1.53429 0
M  V30 1816 C 177.805 0.610112 1.58782 0
M  V30 1817 O 178.99 0.853177 1.74455 0
M  V30 1818 C 176.12 1.88831 2.9148 0
M  V30 1819 C 175.074 3.04288 3.00987 0
M  V30 1820 C 174.4 3.0229 4.4105 0
M  V30 1821 C 175.7 4.44193 2.74754 0
M  V30 1822 H 177.394 2.68152 1.33171 0
M  V30 1823 H 174.94 1.29035 0.639214 0
M  V30 1824 H 176.893 2.04559 3.6842 0
M  V30 1825 H 175.617 0.933455 3.12976 0
M  V30 1826 H 174.276 2.8827 2.26486 0
M  V30 1827 H 173.924 2.04576 4.59519 0
M  V30 1828 H 173.624 3.79822 4.4834 0
M  V30 1829 H 175.148 3.20116 5.1996 0
M  V30 1830 H 176.562 4.60544 3.41426 0
M  V30 1831 H 174.959 5.23457 2.9345 0
M  V30 1832 H 176.029 4.53996 1.70339 0
M  V30 1833 N 177.372 -0.689602 1.41712 0
M  V30 1834 C 178.62 -1.4468 1.4111 0
M  V30 1835 C 178.941 -1.94986 0.0232196 0
M  V30 1836 O 178.211 -1.72097 -0.935913 0
M  V30 1837 H 176.791 -0.536847 0.519427 0
M  V30 1838 H 179.453 -0.815825 1.77004 0
M  V30 1839 H 178.549 -2.30706 2.10193 0
M  V30 1840 N 178.85 -1.27639 -0.924453 0
M  V30 1841 C 180.127 -1.04887 -1.651 0
M  V30 1842 C 180.507 0.415327 -2.06974 0
M  V30 1843 O 179.855 1.39923 -1.80648 0
M  V30 1844 C 180.065 -2.01348 -2.85061 0
M  V30 1845 C 181.413 -2.30899 -3.56329 0
M  V30 1846 O 182.437 -1.99348 -2.95193 0
M  V30 1847 O 181.296 -2.84699 -4.66485 0
M  V30 1848 H 178.39 -0.400083 -0.723784 0
M  V30 1849 H 180.936 -1.38916 -0.974703 0
M  V30 1850 H 179.708 -3.0008 -2.51133 0
M  V30 1851 H 179.331 -1.679 -3.6041 0
M  V30 1852 N 180.328 1.1314 -1.09713 0
M  V30 1853 C 181.276 2.20717 -0.733934 0
M  V30 1854 C 182.27 1.6729 0.266506 0
M  V30 1855 O 183.476 1.79547 0.127656 0
M  V30 1856 H 179.851 0.719292 -0.21937 0
M  V30 1857 H 181.822 2.48611 -1.6503 0
M  V30 1858 C 180.571 3.47265 -0.173849 0
M  V30 1859 H 179.894 3.88716 -0.934873 0
M  V30 1860 H 181.334 4.23979 0.0423126 0
M  V30 1861 C 179.793 3.18724 1.09164 0
M  V30 1862 O 180.323 3.37762 2.17439 0
M  V30 1863 N 178.529 2.72583 1.00732 0
M  V30 1864 H 178.076 2.57291 0.126121 0
M  V30 1865 H 178.034 2.53862 1.85476 0
M  V30 1866 N 181.806 0.884767 1.30421 0
M  V30 1867 C 183.052 0.513218 1.96819 0
M  V30 1868 C 183.407 -0.927347 1.68577 0
M  V30 1869 O 182.7 -1.64644 0.979941 0
M  V30 1870 C 182.894 0.724318 3.49983 0
M  V30 1871 C 182.723 2.18385 3.93113 0
M  V30 1872 C 181.493 2.82839 4.18725 0
M  V30 1873 C 183.691 3.15763 4.05953 0
M  V30 1874 N 181.673 4.1939 4.48314 0
M  V30 1875 C 183.044 4.37387 4.39423 0
M  V30 1876 C 185.099 3.11555 3.88379 0
M  V30 1877 C 183.802 5.55343 4.5715 0
M  V30 1878 C 185.828 4.28782 4.07308 0
M  V30 1879 C 185.19 5.49172 4.41123 0
M  V30 1880 H 181.289 0.237123 0.745182 0
M  V30 1881 H 183.873 1.14246 1.57658 0
M  V30 1882 H 182.044 0.124565 3.882 0
M  V30 1883 H 183.776 0.31969 4.03435 0
M  V30 1884 H 180.531 2.33708 4.11919 0
M  V30 1885 H 180.955 4.89911 4.67243 0
M  V30 1886 H 185.597 2.19576 3.61312 0
M  V30 1887 H 183.315 6.47826 4.8306 0
M  V30 1888 H 186.901 4.26995 3.95179 0
M  V30 1889 H 185.781 6.38371 4.55469 0
M  V30 1890 N 183.284 -1.43765 0.645699 0
M  V30 1891 C 184.214 -2.33471 -0.0370477 0
M  V30 1892 C 185.195 -1.49042 -0.819779 0
M  V30 1893 O 186.38 -1.77726 -0.782758 0
M  V30 1894 C 183.51 -3.32311 -1.0093 0
M  V30 1895 C 182.464 -4.2667 -0.337201 0
M  V30 1896 C 181.79 -5.1549 -1.42037 0
M  V30 1897 C 183.09 -5.16657 0.765706 0
M  V30 1898 H 184.784 -2.90809 0.712069 0
M  V30 1899 H 182.33 -1.39834 0.343876 0
M  V30 1900 H 184.283 -3.9396 -1.49578 0
M  V30 1901 H 183.007 -2.73213 -1.78948 0
M  V30 1902 H 181.666 -3.66374 0.128771 0
M  V30 1903 H 181.314 -4.52735 -2.1918 0
M  V30 1904 H 181.014 -5.79438 -0.975966 0
M  V30 1905 H 182.538 -5.80012 -1.90838 0
M  V30 1906 H 183.952 -5.72158 0.361702 0
M  V30 1907 H 182.349 -5.89286 1.13413 0
M  V30 1908 H 183.419 -4.56796 1.62683 0
M  V30 1909 N 184.763 -0.387143 -1.52771 0
M  V30 1910 C 186.011 0.195349 -2.01154 0
M  V30 1911 C 186.332 1.475 -1.27549 0
M  V30 1912 O 185.602 1.91878 -0.394924 0
M  V30 1913 H 184.182 0.075178 -0.743207 0
M  V30 1914 H 186.844 -0.518337 -1.87881 0
M  V30 1915 H 185.94 0.407096 -3.09434 0
M  V30 1916 N 186.241 1.57166 -0.116904 0
M  V30 1917 C 187.204 2.14039 0.819742 0
M  V30 1918 C 188.204 1.07477 1.19605 0
M  V30 1919 O 189.394 1.33263 1.1219 0
M  V30 1920 C 186.526 2.67891 2.10826 0
M  V30 1921 H 187.719 2.98128 0.325511 0
M  V30 1922 H 185.272 1.55739 0.132312 0
M  V30 1923 H 186.007 1.87384 2.64685 0
M  V30 1924 H 185.792 3.45823 1.84793 0
M  V30 1925 H 187.282 3.11809 2.77785 0
M  V30 1926 N 187.719 -0.156864 1.56817 0
M  V30 1927 C 188.959 -0.877453 1.84608 0
M  V30 1928 C 189.323 -1.78791 0.699845 0
M  V30 1929 O 190.524 -2.5472 0.858553 0
M  V30 1930 C 188.795 -1.63992 3.17555 0
M  V30 1931 S 190.354 -2.40729 3.66872 0
M  V30 1932 H 187.172 -0.293612 0.647544 0
M  V30 1933 H 189.774 -0.138099 1.95012 0
M  V30 1934 H 188.478 -0.962363 3.98957 0
M  V30 1935 H 188.009 -2.42038 3.10131 0
M  V30 1936 H 190.024 -3.65725 3.3535 0
M  V30 1937 N 189.197 -1.51736 -0.425897 0
M  V30 1938 C 190.446 -1.64201 -1.17136 0
M  V30 1939 C 190.759 -0.369705 -1.92074 0
M  V30 1940 O 191.965 -0.373898 -2.68913 0
M  V30 1941 C 190.421 -2.90035 -2.13091 0
M  V30 1942 C 190.029 -4.24312 -1.43747 0
M  V30 1943 C 191.773 -3.1186 -2.87999 0
M  V30 1944 C 189.68 -5.41285 -2.38253 0
M  V30 1945 H 188.61 -0.611624 -0.440944 0
M  V30 1946 H 191.261 -1.78212 -0.437328 0
M  V30 1947 H 189.643 -2.69684 -2.89977 0
M  V30 1948 H 190.817 -4.55086 -0.723408 0
M  V30 1949 H 189.132 -4.08456 -0.809465 0
M  V30 1950 H 191.729 -3.96427 -3.58817 0
M  V30 1951 H 192.072 -2.25403 -3.49999 0
M  V30 1952 H 192.605 -3.32605 -2.18217 0
M  V30 1953 H 189.344 -6.30037 -1.80925 0
M  V30 1954 H 188.864 -5.14872 -3.0768 0
M  V30 1955 H 190.543 -5.73694 -2.99139 0
M  V30 1956 N 190.675 0.682077 -1.42076 0
M  V30 1957 C 191.952 1.43755 -1.32642 0
M  V30 1958 C 192.332 2.11063 0.0396611 0
M  V30 1959 O 191.68 2.02701 1.05474 0
M  V30 1960 C 191.89 2.44596 -2.48946 0
M  V30 1961 C 193.238 3.09454 -2.9073 0
M  V30 1962 O 194.262 2.54922 -2.48783 0
M  V30 1963 O 193.121 4.08253 -3.63307 0
M  V30 1964 H 190.215 0.640857 -0.522715 0
M  V30 1965 H 192.761 0.711415 -1.54068 0
M  V30 1966 H 191.533 1.93609 -3.40046 0
M  V30 1967 H 191.156 3.24701 -2.29467 0
M  V30 1968 N 192.153 1.28127 0.917671 0
M  V30 1969 C 193.083 1.14248 2.03641 0
M  V30 1970 C 194.064 0.0412748 1.7005 0
M  V30 1971 O 195.249 0.217566 1.92977 0
M  V30 1972 C 192.379 0.799431 3.37974 0
M  V30 1973 C 191.333 1.85497 3.85713 0
M  V30 1974 C 190.659 1.36565 5.16966 0
M  V30 1975 C 191.959 3.26085 4.08002 0
M  V30 1976 H 193.653 2.07835 2.15511 0
M  V30 1977 H 191.199 1.00064 1.03553 0
M  V30 1978 H 193.152 0.689114 4.15727 0
M  V30 1979 H 191.876 -0.172145 3.26146 0
M  V30 1980 H 190.535 1.95437 3.10161 0
M  V30 1981 H 190.183 0.383253 5.01538 0
M  V30 1982 H 189.883 2.07143 5.49878 0
M  V30 1983 H 191.407 1.26848 5.97279 0
M  V30 1984 H 192.821 3.19089 4.76293 0
M  V30 1985 H 191.218 3.94462 4.52238 0
M  V30 1986 H 192.288 3.70394 3.12948 0
M  V30 1987 N 193.631 -1.12557 1.10312 0
M  V30 1988 C 194.878 -1.84038 0.844759 0
M  V30 1989 C 195.206 -1.84026 -0.629668 0
M  V30 1990 O 194.461 -1.28026 -1.48013 0
M  V30 1991 C 194.76 -3.31462 1.33669 0
M  V30 1992 C 194.426 -3.51647 2.82232 0
M  V30 1993 C 193.088 -3.56864 3.22802 0
M  V30 1994 C 195.44 -3.58867 3.77974 0
M  V30 1995 C 192.768 -3.66844 4.57867 0
M  V30 1996 C 195.12 -3.70375 5.1284 0
M  V30 1997 C 193.784 -3.73848 5.52986 0
M  V30 1998 H 193.054 -0.673444 0.309119 0
M  V30 1999 H 195.701 -1.32824 1.37949 0
M  V30 2000 H 194.006 -3.85091 0.721949 0
M  V30 2001 H 195.703 -3.85236 1.11329 0
M  V30 2002 H 192.293 -3.48249 2.49842 0
M  V30 2003 H 196.477 -3.54107 3.47738 0
M  V30 2004 H 191.733 -3.67804 4.88396 0
M  V30 2005 H 195.907 -3.74904 5.86873 0
M  V30 2006 H 193.534 -3.81333 6.57639 0
M  V30 2007 N 195.109 -0.891671 -1.2995 0
M  V30 2008 C 196.355 -0.514261 -1.96171 0
M  V30 2009 C 196.688 0.935506 -1.70182 0
M  V30 2010 O 195.963 1.66204 -1.01028 0
M  V30 2011 C 196.246 -0.797719 -3.51153 0
M  V30 2012 C 196.099 -2.2986 -3.86632 0
M  V30 2013 C 197.418 -0.278749 -4.39216 0
M  V30 2014 H 194.537 -0.188314 -0.712535 0
M  V30 2015 H 197.179 -1.11689 -1.53706 0
M  V30 2016 H 195.329 -0.284826 -3.87455 0
M  V30 2017 H 197.001 -2.88042 -3.60319 0
M  V30 2018 H 195.244 -2.76257 -3.34462 0
M  V30 2019 H 195.915 -2.44753 -4.94773 0
M  V30 2020 H 198.391 -0.717825 -4.09862 0
M  V30 2021 H 197.267 -0.506353 -5.46559 0
M  V30 2022 H 197.528 0.820266 -4.34424 0
M  V30 2023 N 196.587 1.43421 -0.653314 0
M  V30 2024 C 197.497 2.34568 0.0388565 0
M  V30 2025 C 198.513 1.53888 0.81207 0
M  V30 2026 O 199.689 1.86539 0.759294 0
M  V30 2027 C 196.754 3.32167 0.993269 0
M  V30 2028 C 195.815 4.28751 0.216977 0
M  V30 2029 C 195.048 5.21688 1.12593 0
M  V30 2030 O 195.271 5.19052 2.36519 0
M  V30 2031 O 194.205 5.98919 0.598284 0
M  V30 2032 H 198.031 2.95251 -0.711386 0
M  V30 2033 H 195.616 1.43564 -0.413502 0
M  V30 2034 H 197.498 3.92183 1.54176 0
M  V30 2035 H 196.173 2.73987 1.72374 0
M  V30 2036 H 195.08 3.72215 -0.375101 0
M  V30 2037 H 196.413 4.89913 -0.473924 0
M  V30 2038 N 198.065 0.39524 1.52563 0
M  V30 2039 C 199.481 0.0454682 1.59535 0
M  V30 2040 C 199.681 -1.44056 1.4089 0
M  V30 2041 O 198.737 -2.20579 1.22888 0
M  V30 2042 C 200.05 0.527963 2.96029 0
M  V30 2043 C 201.598 0.484733 3.09224 0
M  V30 2044 C 202.073 0.943512 4.48176 0
M  V30 2045 N 203.564 0.899765 4.54377 0
M  V30 2046 C 204.299 1.22609 5.60138 0
M  V30 2047 N 203.795 1.62319 6.73516 0
M  V30 2048 N 205.588 1.14696 5.50274 0
M  V30 2049 H 197.739 1.36261 1.62931 0
M  V30 2050 H 200.002 0.558887 0.765735 0
M  V30 2051 H 199.708 1.56607 3.14908 0
M  V30 2052 H 199.582 -0.0698056 3.77135 0
M  V30 2053 H 201.969 -0.544298 2.90037 0
M  V30 2054 H 202.05 1.11838 2.30056 0
M  V30 2055 H 201.694 1.9708 4.68104 0
M  V30 2056 H 201.624 0.286817 5.25818 0
M  V30 2057 H 204.115 0.607632 3.72983 0
M  V30 2058 H 204.428 1.85567 7.5019 0
M  V30 2059 H 202.773 1.66211 6.74833 0
M  V30 2060 H 205.964 0.835701 4.6058 0
M  V30 2061 H 206.137 1.40459 6.32594 0
M  V30 2062 N 199.544 -1.57102 0.125237 0
M  V30 2063 C 200.476 -2.12726 -0.853237 0
M  V30 2064 C 201.489 -1.07145 -1.22571 0
M  V30 2065 O 202.678 -1.34497 -1.17358 0
M  V30 2066 C 199.778 -2.61709 -2.15317 0
M  V30 2067 C 198.951 -3.91456 -1.95143 0
M  V30 2068 C 198.01 -4.25973 -3.08923 0
M  V30 2069 O 197.036 -4.94682 -2.81564 0
M  V30 2070 N 198.238 -3.83795 -4.35524 0
M  V30 2071 H 201.003 -2.97307 -0.377964 0
M  V30 2072 H 198.564 -1.61792 -0.0590011 0
M  V30 2073 H 200.556 -2.81826 -2.90441 0
M  V30 2074 H 199.126 -1.81974 -2.54174 0
M  V30 2075 H 198.346 -3.80185 -1.04177 0
M  V30 2076 H 199.634 -4.76283 -1.78976 0
M  V30 2077 H 199.032 -3.2839 -4.60626 0
M  V30 2078 H 197.589 -4.09008 -5.07499 0
M  V30 2079 N 201.022 0.148545 -1.56898 0
M  V30 2080 C 201.932 1.20293 -2.01412 0
M  V30 2081 C 202.948 1.47107 -0.929273 0
M  V30 2082 O 204.124 1.58807 -1.23863 0
M  V30 2083 C 201.189 2.51682 -2.38447 0
M  V30 2084 C 200.25 2.32529 -3.60872 0
M  V30 2085 C 199.483 3.57653 -3.96132 0
M  V30 2086 O 199.706 4.63771 -3.32073 0
M  V30 2087 O 198.64 3.50408 -4.89385 0
M  V30 2088 H 202.466 0.855025 -2.91416 0
M  V30 2089 H 200.051 0.357151 -1.45068 0
M  V30 2090 H 201.933 3.29147 -2.63135 0
M  V30 2091 H 200.608 2.86006 -1.51599 0
M  V30 2092 H 199.515 1.53019 -3.41373 0
M  V30 2093 H 200.848 2.03121 -4.48333 0
M  V30 2094 N 202.5 1.5196 0.417844 0
M  V30 2095 C 203.748 1.65263 1.16329 0
M  V30 2096 C 204.069 0.380634 1.91249 0
M  V30 2097 O 203.339 -0.604214 1.86349 0
M  V30 2098 H 201.919 0.60912 0.432414 0
M  V30 2099 H 204.581 1.88969 0.477162 0
M  V30 2100 H 203.677 2.4896 1.88217 0
M  V30 2101 N 203.978 -0.674533 1.42435 0
M  V30 2102 C 205.208 -1.46071 1.46105 0
M  V30 2103 C 205.616 -1.89067 0.0709605 0
M  V30 2104 O 204.959 -1.58731 -0.924677 0
M  V30 2105 C 205.021 -2.74145 2.32561 0
M  V30 2106 C 204.685 -2.53224 3.8043 0
M  V30 2107 C 205.682 -2.17809 4.72075 0
M  V30 2108 C 203.367 -2.6821 4.24698 0
M  V30 2109 C 205.361 -1.97648 6.05982 0
M  V30 2110 C 203.048 -2.47665 5.58664 0
M  V30 2111 C 204.046 -2.12437 6.49122 0
M  V30 2112 O 203.734 -1.9209 7.80613 0
M  V30 2113 H 203.466 -0.455959 0.499076 0
M  V30 2114 H 206.02 -0.836193 1.87609 0
M  V30 2115 H 204.25 -3.3908 1.85908 0
M  V30 2116 H 205.939 -3.36028 2.27683 0
M  V30 2117 H 206.705 -2.05826 4.39159 0
M  V30 2118 H 202.584 -2.94609 3.54579 0
M  V30 2119 H 206.128 -1.70075 6.7655 0
M  V30 2120 H 202.025 -2.59244 5.91154 0
M  V30 2121 H 202.793 -2.06686 7.91974 0
M  V30 2122 N 205.456 -1.28612 -0.910864 0
M  V30 2123 C 206.403 -1.12786 -2.01365 0
M  V30 2124 C 207.373 -0.024201 -1.66082 0
M  V30 2125 O 208.558 -0.189667 -1.89855 0
M  V30 2126 C 205.698 -0.798743 -3.35729 0
M  V30 2127 C 204.811 -1.98173 -3.83864 0
M  V30 2128 C 203.946 -1.59298 -5.06752 0
M  V30 2129 C 202.985 -2.74245 -5.47226 0
M  V30 2130 N 202.122 -2.35842 -6.61304 0
M  V30 2131 H 206.962 -2.07142 -2.14234 0
M  V30 2132 H 204.499 -1.03093 -1.0493 0
M  V30 2133 H 206.457 -0.588662 -4.13026 0
M  V30 2134 H 205.087 0.10789 -3.2262 0
M  V30 2135 H 204.139 -2.30386 -3.02699 0
M  V30 2136 H 205.451 -2.84343 -4.09818 0
M  V30 2137 H 204.605 -1.34513 -5.916 0
M  V30 2138 H 203.344 -0.702618 -4.82612 0
M  V30 2139 H 202.349 -2.99725 -4.60918 0
M  V30 2140 H 203.574 -3.63928 -5.73353 0
M  V30 2141 H 201.52 -1.49279 -6.38789 0
M  V30 2142 H 201.437 -3.15546 -6.86998 0
M  V30 2143 H 202.705 -2.14348 -7.4945 0
M  V30 2144 N 206.934 1.1197 -1.10907 0
M  V30 2145 C 207.866 2.17592 -0.720175 0
M  V30 2146 C 208.879 1.60938 0.245495 0
M  V30 2147 O 210.068 1.78476 0.0292245 0
M  V30 2148 C 207.168 3.38873 -0.0427917 0
M  V30 2149 C 206.341 4.25006 -1.03388 0
M  V30 2150 C 205.4 5.24774 -0.387075 0
M  V30 2151 O 204.426 5.59631 -1.03934 0
M  V30 2152 N 205.628 5.74208 0.852407 0
M  V30 2153 H 208.393 2.51567 -1.62893 0
M  V30 2154 H 205.954 1.27439 -0.998543 0
M  V30 2155 H 207.946 4.02703 0.401501 0
M  V30 2156 H 206.516 3.03007 0.768456 0
M  V30 2157 H 205.736 3.57716 -1.65629 0
M  V30 2158 H 207.024 4.79397 -1.70458 0
M  V30 2159 H 206.422 5.48062 1.40161 0
M  V30 2160 H 204.979 6.39901 1.23977 0
M  V30 2161 N 208.412 0.89855 1.29475 0
M  V30 2162 C 209.359 0.373819 2.27753 0
M  V30 2163 C 210.329 -0.543444 1.56958 0
M  V30 2164 O 211.514 -0.468934 1.84948 0
M  V30 2165 C 208.654 -0.393648 3.42848 0
M  V30 2166 C 207.767 0.554379 4.28428 0
M  V30 2167 C 206.902 -0.230026 5.30702 0
M  V30 2168 C 205.941 0.712599 6.07938 0
M  V30 2169 N 205.078 -0.0373283 7.0209 0
M  V30 2170 H 209.918 1.21699 2.72017 0
M  V30 2171 H 207.455 0.611456 1.33789 0
M  V30 2172 H 209.413 -0.85466 4.08352 0
M  V30 2173 H 208.043 -1.20128 2.99615 0
M  V30 2174 H 207.095 1.13391 3.63107 0
M  V30 2175 H 208.407 1.27597 4.82204 0
M  V30 2176 H 207.561 -0.752288 6.02018 0
M  V30 2177 H 206.3 -0.984758 4.77654 0
M  V30 2178 H 205.305 1.24637 5.35486 0
M  V30 2179 H 206.53 1.46664 6.63074 0
M  V30 2180 H 204.476 -0.774348 6.51414 0
M  V30 2181 H 204.393 0.624374 7.53417 0
M  V30 2182 H 205.661 -0.539891 7.77628 0
M  V30 2183 N 209.89 -1.43072 0.660911 0
M  V30 2184 C 211.139 -2.00942 0.174735 0
M  V30 2185 C 211.452 -1.52797 -1.22117 0
M  V30 2186 O 212.658 -2.02991 -1.80297 0
M  V30 2187 C 211.114 -3.58948 0.261559 0
M  V30 2188 C 210.722 -4.16085 1.66064 0
M  V30 2189 C 212.466 -4.24173 -0.166617 0
M  V30 2190 C 210.373 -5.6641 1.70098 0
M  V30 2191 H 209.303 -0.751483 0.0615631 0
M  V30 2192 H 211.954 -1.63955 0.824069 0
M  V30 2193 H 210.336 -3.93372 -0.455421 0
M  V30 2194 H 211.51 -3.93147 2.40359 0
M  V30 2195 H 209.825 -3.6326 2.03546 0
M  V30 2196 H 212.422 -5.34471 -0.156433 0
M  V30 2197 H 212.765 -3.98647 -1.19943 0
M  V30 2198 H 213.298 -3.94659 0.498875 0
M  V30 2199 H 210.037 -5.96715 2.71315 0
M  V30 2200 H 209.557 -5.91382 1.00139 0
M  V30 2201 H 211.236 -6.30585 1.44816 0
M  V30 2202 N 211.368 -0.403325 -1.52352 0
M  V30 2203 C 212.616 0.174003 -2.0135 0
M  V30 2204 C 212.937 1.46139 -1.29106 0
M  V30 2205 O 212.207 1.91448 -0.415253 0
M  V30 2206 H 210.787 0.0672911 -0.743963 0
M  V30 2207 H 213.449 -0.538235 -1.87321 0
M  V30 2208 H 212.545 0.374254 -3.09848 0
M  V30 2209 N 212.846 1.57033 -0.133567 0
M  V30 2210 C 213.779 2.11824 0.848872 0
M  V30 2211 C 214.757 1.03833 1.2513 0
M  V30 2212 O 215.941 1.31579 1.34978 0
M  V30 2213 C 213.068 2.62692 2.138 0
M  V30 2214 C 212.114 3.82705 1.88253 0
M  V30 2215 S 212.947 5.2438 1.08563 0
M  V30 2216 C 214.103 5.78627 2.38624 0
M  V30 2217 H 214.336 2.94824 0.38289 0
M  V30 2218 H 211.869 1.5419 0.0804796 0
M  V30 2219 H 213.827 2.92652 2.87863 0
M  V30 2220 H 212.488 1.79847 2.57515 0
M  V30 2221 H 211.681 4.16496 2.83809 0
M  V30 2222 H 211.283 3.53437 1.22305 0
M  V30 2223 H 213.575 5.8924 3.34369 0
M  V30 2224 H 214.518 6.76443 2.09358 0
M  V30 2225 H 214.926 5.06783 2.48658 0
M  V30 2226 N 214.325 -0.140222 1.56975 0
M  V30 2227 C 215.288 -1.15689 1.97861 0
M  V30 2228 C 216.288 -1.3549 0.865974 0
M  V30 2229 O 217.478 -1.32367 1.13246 0
M  V30 2230 C 214.61 -2.51582 2.30042 0
M  V30 2231 H 215.803 -0.805971 2.88867 0
M  V30 2232 H 213.356 -0.383801 1.51515 0
M  V30 2233 H 214.091 -2.91632 1.41849 0
M  V30 2234 H 213.876 -2.38569 3.11171 0
M  V30 2235 H 215.366 -3.24792 2.62488 0
M  V30 2236 N 215.803 -1.52179 -0.40978 0
M  V30 2237 C 217.08 -1.56769 -1.16974 0
M  V30 2238 C 217.46 -0.348322 -2.08206 0
M  V30 2239 O 216.808 0.664862 -2.18613 0
M  V30 2240 C 217.018 -2.89603 -1.9476 0
M  V30 2241 C 218.366 -3.42579 -2.50849 0
M  V30 2242 O 219.39 -2.91338 -2.04941 0
M  V30 2243 O 218.249 -4.32054 -3.34652 0
M  V30 2244 H 215.343 -0.631439 -0.534054 0
M  V30 2245 H 217.889 -1.64507 -0.416613 0
M  V30 2246 H 216.661 -3.698 -1.27921 0
M  V30 2247 H 216.284 -2.85155 -2.77079 0
M  V30 2248 N 217.281 0.66697 -1.42791 0
M  V30 2249 C 218.529 1.42417 -1.43394 0
M  V30 2250 C 218.85 1.94925 -0.0542373 0
M  V30 2251 O 218.12 1.73564 0.908415 0
M  V30 2252 H 216.7 0.528515 -0.527902 0
M  V30 2253 H 219.362 0.787562 -1.78279 0
M  V30 2254 H 218.458 2.27333 -2.13837 0
M  V30 2255 N 218.759 1.29093 0.90403 0
M  V30 2256 C 219.669 1.15727 2.0407 0
M  V30 2257 C 220.685 0.0815308 1.73809 0
M  V30 2258 O 221.861 0.292749 1.99261 0
M  V30 2259 C 218.926 0.830424 3.36608 0
M  V30 2260 C 217.987 1.98955 3.80415 0
M  V30 2261 C 217.22 1.6782 5.06628 0
M  V30 2262 O 217.443 0.597105 5.67266 0
M  V30 2263 O 216.377 2.52486 5.46383 0
M  V30 2264 H 220.203 2.11171 2.18267 0
M  V30 2265 H 217.788 1.08504 1.027 0
M  V30 2266 H 219.67 0.662521 4.16159 0
M  V30 2267 H 218.345 -0.0942678 3.23563 0
M  V30 2268 H 217.252 2.21267 3.01648 0
M  V30 2269 H 218.585 2.89529 3.98037 0
M  V30 2270 N 220.237 -1.11381 1.11499 0
M  V30 2271 C 221.467 -1.86663 0.885464 0
M  V30 2272 C 221.875 -1.80464 -0.568281 0
M  V30 2273 O 221.218 -1.18445 -1.40415 0
M  V30 2274 C 221.28 -3.36337 1.26956 0
M  V30 2275 C 220.944 -3.66304 2.73259 0
M  V30 2276 C 221.941 -3.63733 3.71476 0
M  V30 2277 C 219.626 -3.9529 3.09921 0
M  V30 2278 C 221.62 -3.89725 5.04374 0
M  V30 2279 C 219.307 -4.20941 4.43004 0
M  V30 2280 C 220.305 -4.18147 5.40039 0
M  V30 2281 O 219.993 -4.43153 6.70724 0
M  V30 2282 H 219.725 -0.597114 0.316908 0
M  V30 2283 H 222.279 -1.41782 1.48617 0
M  V30 2284 H 220.509 -3.81826 0.611999 0
M  V30 2285 H 222.198 -3.92986 1.01573 0
M  V30 2286 H 222.964 -3.41389 3.44498 0
M  V30 2287 H 218.843 -3.966 2.35009 0
M  V30 2288 H 222.387 -3.8746 5.80104 0
M  V30 2289 H 218.284 -4.42761 4.69716 0
M  V30 2290 H 219.052 -4.60717 6.76522 0
M  V30 2291 N 221.715 -0.905404 -1.28997 0
M  V30 2292 C 222.945 -0.549049 -1.99171 0
M  V30 2293 C 223.353 0.87203 -1.67906 0
M  V30 2294 O 222.696 1.58796 -0.923561 0
M  V30 2295 C 222.758 -0.668306 -3.53234 0
M  V30 2296 C 222.422 -2.0574 -4.08069 0
M  V30 2297 C 223.419 -3.0292 -4.22534 0
M  V30 2298 C 221.104 -2.36833 -4.42962 0
M  V30 2299 C 223.098 -4.29314 -4.71135 0
M  V30 2300 C 220.785 -3.63467 -4.91258 0
M  V30 2301 C 221.783 -4.59522 -5.053 0
M  V30 2302 O 221.471 -5.83907 -5.52546 0
M  V30 2303 H 221.203 -0.208784 -0.64295 0
M  V30 2304 H 223.757 -1.21836 -1.65363 0
M  V30 2305 H 221.987 0.0580547 -3.86656 0
M  V30 2306 H 223.676 -0.320273 -4.04634 0
M  V30 2307 H 224.442 -2.80216 -3.95859 0
M  V30 2308 H 220.321 -1.62824 -4.31288 0
M  V30 2309 H 223.865 -5.04293 -4.8201 0
M  V30 2310 H 219.762 -3.86 -5.17372 0
M  V30 2311 H 220.53 -5.86578 -5.70849 0
M  V30 2312 N 223.193 1.4272 -0.668489 0
M  V30 2313 C 224.44 2.01624 -0.18814 0
M  V30 2314 C 224.768 1.5282 1.20317 0
M  V30 2315 O 224.023 0.718323 1.8204 0
M  V30 2316 C 224.322 3.57021 -0.164499 0
M  V30 2317 C 223.988 4.25232 -1.49962 0
M  V30 2318 C 222.65 4.4358 -1.8652 0
M  V30 2319 C 225.002 4.63727 -2.37921 0
M  V30 2320 C 222.33 4.97694 -3.10674 0
M  V30 2321 C 224.682 5.19218 -3.6138 0
M  V30 2322 C 223.346 5.3578 -3.98115 0
M  V30 2323 H 222.616 0.737795 -0.0688454 0
M  V30 2324 H 225.263 1.70991 -0.862225 0
M  V30 2325 H 223.568 3.87285 0.593079 0
M  V30 2326 H 225.265 4.00372 0.224271 0
M  V30 2327 H 221.855 4.11306 -1.20522 0
M  V30 2328 H 226.039 4.4923 -2.10964 0
M  V30 2329 H 221.295 5.08702 -3.39164 0
M  V30 2330 H 225.469 5.4799 -4.29743 0
M  V30 2331 H 223.096 5.77475 -4.94395 0
M  V30 2332 N 224.671 0.411399 1.52136 0
M  V30 2333 C 225.619 -0.427633 2.28635 0
M  V30 2334 C 226.613 -1.04383 1.33419 0
M  V30 2335 O 227.819 -0.981772 1.50868 0
M  V30 2336 H 224.194 -0.156689 0.735495 0
M  V30 2337 H 226.165 0.238761 2.97443 0
M  V30 2338 C 224.914 -1.53082 3.12188 0
M  V30 2339 H 224.237 -1.06601 3.85326 0
M  V30 2340 H 225.677 -2.09167 3.68816 0
M  V30 2341 C 224.136 -2.49946 2.25895 0
M  V30 2342 O 224.666 -3.53884 1.90076 0
M  V30 2343 N 222.872 -2.2021 1.8962 0
M  V30 2344 H 222.419 -1.35719 2.18948 0
M  V30 2345 H 222.377 -2.85266 1.32176 0
M  V30 2346 N 226.149 -1.5696 0.141893 0
M  V30 2347 C 227.112 -2.15316 -0.785587 0
M  V30 2348 C 228.112 -1.09366 -1.1788 0
M  V30 2349 O 229.302 -1.35031 -1.10056 0
M  V30 2350 C 226.434 -2.71211 -2.06537 0
M  V30 2351 H 227.627 -2.98608 -0.278041 0
M  V30 2352 H 225.18 -1.5593 -0.107519 0
M  V30 2353 H 225.915 -1.91571 -2.6167 0
M  V30 2354 H 225.7 -3.4872 -1.79268 0
M  V30 2355 H 227.19 -3.16189 -2.72789 0
M  V30 2356 N 227.627 0.131896 -1.57047 0
M  V30 2357 C 228.875 0.840269 -1.83804 0
M  V30 2358 C 229.196 1.81017 -0.72512 0
M  V30 2359 O 228.466 1.94272 0.251995 0
M  V30 2360 H 227.046 0.313294 -0.678127 0
M  V30 2361 H 229.708 0.122294 -1.94516 0
M  V30 2362 H 228.804 1.39335 -2.79271 0
M  V30 2363 N 229.106 1.52395 0.401703 0
M  V30 2364 C 230.352 1.67065 1.14966 0
M  V30 2365 C 230.685 0.403052 1.89971 0
M  V30 2366 O 229.96 -0.598774 1.85054 0
M  V30 2367 C 230.243 2.8975 2.13815 0
M  V30 2368 C 230.096 4.26578 1.42658 0
M  V30 2369 C 231.415 3.07965 3.14397 0
M  V30 2370 H 228.534 0.607968 0.416587 0
M  V30 2371 H 231.176 1.84965 0.434511 0
M  V30 2372 H 229.326 2.74619 2.74803 0
M  V30 2373 H 230.998 4.53451 0.847329 0
M  V30 2374 H 229.241 4.27639 0.72849 0
M  V30 2375 H 229.912 5.08483 2.14823 0
M  V30 2376 H 232.388 3.22043 2.63491 0
M  V30 2377 H 231.264 3.95308 3.80819 0
M  V30 2378 H 231.525 2.21611 3.82545 0
M  V30 2379 N 230.584 -0.659388 1.43143 0
M  V30 2380 C 231.514 -1.78422 1.50625 0
M  V30 2381 C 232.495 -1.66216 0.361443 0
M  V30 2382 O 233.68 -1.85404 0.577834 0
M  V30 2383 C 230.81 -3.16815 1.42287 0
M  V30 2384 C 229.764 -3.43777 2.54954 0
M  V30 2385 C 229.09 -4.81905 2.31671 0
M  V30 2386 C 230.39 -3.39134 3.97222 0
M  V30 2387 H 232.084 -1.72417 2.44771 0
M  V30 2388 H 229.63 -0.828084 1.17808 0
M  V30 2389 H 231.583 -3.95253 1.46127 0
M  V30 2390 H 230.307 -3.23534 0.446435 0
M  V30 2391 H 228.966 -2.67707 2.50457 0
M  V30 2392 H 228.614 -4.85294 1.32284 0
M  V30 2393 H 228.314 -5.00906 3.07192 0
M  V30 2394 H 229.838 -5.62609 2.37284 0
M  V30 2395 H 231.252 -4.07518 4.03239 0
M  V30 2396 H 229.649 -3.69671 4.72719 0
M  V30 2397 H 230.719 -2.37426 4.22797 0
M  V30 2398 N 232.062 -1.29571 -0.897171 0
M  V30 2399 C 232.992 -1.17473 -2.01798 0
M  V30 2400 C 233.973 -0.068323 -1.69963 0
M  V30 2401 O 235.158 -0.248239 -1.92607 0
M  V30 2402 C 232.288 -0.853099 -3.36659 0
M  V30 2403 C 231.242 -1.9161 -3.82713 0
M  V30 2404 C 230.568 -1.44773 -5.14728 0
M  V30 2405 C 231.868 -3.32535 -4.02763 0
M  V30 2406 H 233.562 -2.11237 -2.12177 0
M  V30 2407 H 231.108 -1.01699 -1.01948 0
M  V30 2408 H 233.061 -0.755165 -4.14578 0
M  V30 2409 H 231.785 0.120236 -3.26379 0
M  V30 2410 H 230.444 -2.00346 -3.07013 0
M  V30 2411 H 230.092 -0.462995 -5.00865 0
M  V30 2412 H 229.792 -2.15865 -5.46513 0
M  V30 2413 H 231.316 -1.36334 -5.95185 0
M  V30 2414 H 232.73 -3.26626 -4.71156 0
M  V30 2415 H 231.127 -4.01607 -4.45905 0
M  V30 2416 H 232.197 -3.75326 -3.07016 0
M  V30 2417 N 233.54 1.10788 -1.12088 0
M  V30 2418 C 234.789 1.82036 -0.868659 0
M  V30 2419 C 235.102 1.85929 0.607426 0
M  V30 2420 O 236.308 2.53346 0.97613 0
M  V30 2421 C 234.764 3.26951 -1.50435 0
M  V30 2422 C 234.372 3.31367 -3.01496 0
M  V30 2423 C 236.116 4.03053 -1.33225 0
M  V30 2424 C 234.023 4.7072 -3.58017 0
M  V30 2425 H 232.953 0.682108 -0.321318 0
M  V30 2426 H 235.604 1.24618 -1.34694 0
M  V30 2427 H 233.986 3.84343 -0.953735 0
M  V30 2428 H 235.16 2.83819 -3.6302 0
M  V30 2429 H 233.475 2.6875 -3.18061 0
M  V30 2430 H 236.072 5.05981 -1.72878 0
M  V30 2431 H 236.415 4.15387 -0.275529 0
M  V30 2432 H 236.948 3.52066 -1.85188 0
M  V30 2433 H 233.687 4.63585 -4.63432 0
M  V30 2434 H 233.207 5.1865 -3.01268 0
M  V30 2435 H 234.886 5.39685 -3.56859 0
M  V30 2436 N 235.018 0.912232 1.28515 0
M  V30 2437 C 235.966 0.389597 2.29314 0
M  V30 2438 C 236.96 -0.517915 1.61289 0
M  V30 2439 O 238.166 -0.399328 1.75515 0
M  V30 2440 H 234.541 0.107386 0.744293 0
M  V30 2441 H 236.512 1.25286 2.70825 0
M  V30 2442 C 235.261 -0.356496 3.45868 0
M  V30 2443 H 234.584 0.332608 3.98414 0
M  V30 2444 H 236.024 -0.686851 4.184 0
M  V30 2445 C 234.483 -1.56383 2.98406 0
M  V30 2446 O 235.013 -2.66294 3.00749 0
M  V30 2447 N 233.219 -1.41029 2.54085 0
M  V30 2448 H 232.766 -0.516089 2.52377 0
M  V30 2449 H 232.724 -2.21939 2.22689 0
M  V30 2450 N 236.496 -1.42363 0.676048 0
M  V30 2451 C 237.426 -2.33497 0.0124832 0
M  V30 2452 C 238.407 -1.50748 -0.787981 0
M  V30 2453 O 239.592 -1.79346 -0.744884 0
M  V30 2454 C 236.722 -3.34377 -0.938582 0
M  V30 2455 C 235.676 -4.27289 -0.246622 0
M  V30 2456 C 235.002 -5.18386 -1.31071 0
M  V30 2457 C 236.302 -5.14916 0.875125 0
M  V30 2458 H 237.996 -2.89233 0.773593 0
M  V30 2459 H 235.542 -1.39073 0.37346 0
M  V30 2460 H 237.495 -3.97044 -1.41188 0
M  V30 2461 H 236.219 -2.76947 -1.73113 0
M  V30 2462 H 234.878 -3.66018 0.206456 0
M  V30 2463 H 234.526 -4.57282 -2.09528 0
M  V30 2464 H 234.226 -5.81378 -0.852839 0
M  V30 2465 H 235.75 -5.83929 -1.78492 0
M  V30 2466 H 237.164 -5.71262 0.482983 0
M  V30 2467 H 235.561 -5.86747 1.25887 0
M  V30 2468 H 236.631 -4.53242 1.72335 0
M  V30 2469 N 237.974 -0.419461 -1.51915 0
M  V30 2470 C 238.921 0.400927 -2.27291 0
M  V30 2471 C 239.891 1.03224 -1.30131 0
M  V30 2472 O 241.076 1.05455 -1.59009 0
M  V30 2473 C 238.216 1.50603 -3.10504 0
M  V30 2474 C 237.329 0.89462 -4.22635 0
M  V30 2475 C 236.464 1.97328 -4.93189 0
M  V30 2476 C 235.503 1.33935 -5.97267 0
M  V30 2477 N 234.64 2.3586 -6.61298 0
M  V30 2478 H 239.48 -0.248251 -2.96964 0
M  V30 2479 H 237.017 -0.134266 -1.46486 0
M  V30 2480 H 238.975 2.15783 -3.57062 0
M  V30 2481 H 237.605 2.12509 -2.42981 0
M  V30 2482 H 236.657 0.131583 -3.80172 0
M  V30 2483 H 237.969 0.391641 -4.9726 0
M  V30 2484 H 237.123 2.70211 -5.43204 0
M  V30 2485 H 235.862 2.50994 -4.18155 0
M  V30 2486 H 234.867 0.595896 -5.46561 0
M  V30 2487 H 236.092 0.810252 -6.74249 0
M  V30 2488 H 234.038 2.88639 -5.89087 0
M  V30 2489 H 233.955 1.90403 -7.3163 0
M  V30 2490 H 235.223 3.08282 -7.15949 0
M  V30 2491 N 239.452 1.56882 -0.150215 0
M  V30 2492 C 240.399 2.16922 0.788244 0
M  V30 2493 C 241.369 1.10303 1.24187 0
M  V30 2494 O 242.554 1.38359 1.31383 0
M  V30 2495 C 239.694 2.79754 2.02068 0
M  V30 2496 C 238.807 4.00775 1.61257 0
M  V30 2497 C 237.942 4.51595 2.79705 0
M  V30 2498 C 236.981 5.65074 2.35282 0
M  V30 2499 N 236.118 6.10499 3.4675 0
M  V30 2500 H 240.958 2.96779 0.269444 0
M  V30 2501 H 238.495 1.46599 0.12128 0
M  V30 2502 H 240.453 3.14329 2.74323 0
M  V30 2503 H 239.083 2.02536 2.51354 0
M  V30 2504 H 238.135 3.72158 0.787553 0
M  V30 2505 H 239.447 4.82978 1.24633 0
M  V30 2506 H 238.601 4.88242 3.60145 0
M  V30 2507 H 237.34 3.68406 3.19576 0
M  V30 2508 H 236.345 5.28 1.53283 0
M  V30 2509 H 237.57 6.50052 1.96493 0
M  V30 2510 H 235.516 5.30243 3.86236 0
M  V30 2511 H 235.433 6.87637 3.14152 0
M  V30 2512 H 236.701 6.51791 4.27537 0
M  V30 2513 N 240.93 -0.123565 1.57115 0
M  V30 2514 C 242.176 -0.828428 1.85765 0
M  V30 2515 C 242.531 -1.77709 0.737371 0
M  V30 2516 O 241.824 -1.89787 -0.262978 0
M  V30 2517 C 242.018 -1.62016 3.18568 0
M  V30 2518 C 241.847 -0.749663 4.43407 0
M  V30 2519 C 240.617 -0.406251 5.03664 0
M  V30 2520 C 242.815 -0.0693505 5.14253 0
M  V30 2521 N 240.797 0.475389 6.12057 0
M  V30 2522 C 242.168 0.671474 6.16353 0
M  V30 2523 C 244.223 0.00754393 4.97899 0
M  V30 2524 C 242.926 1.48197 7.03868 0
M  V30 2525 C 244.952 0.804845 5.85898 0
M  V30 2526 C 244.314 1.53388 6.87497 0
M  V30 2527 H 240.413 -0.280219 0.73007 0
M  V30 2528 H 242.997 -0.0924183 1.94481 0
M  V30 2529 H 241.168 -2.32724 3.10957 0
M  V30 2530 H 242.9 -2.27 3.35042 0
M  V30 2531 H 239.655 -0.747446 4.67665 0
M  V30 2532 H 240.079 0.907924 6.70884 0
M  V30 2533 H 244.721 -0.541741 4.19315 0
M  V30 2534 H 242.439 2.04242 7.81864 0
M  V30 2535 H 246.025 0.866642 5.75309 0
M  V30 2536 H 244.905 2.1409 7.5441 0
M  V30 2537 N 242.408 -1.52605 -0.393616 0
M  V30 2538 C 243.824 -1.41753 -0.733357 0
M  V30 2539 C 244.024 -0.534293 -1.94287 0
M  V30 2540 O 243.08 -0.0059787 -2.52499 0
M  V30 2541 C 244.393 -2.84531 -0.972772 0
M  V30 2542 C 245.941 -2.93978 -1.07453 0
M  V30 2543 C 246.416 -4.37756 -1.3466 0
M  V30 2544 N 247.907 -4.4106 -1.41492 0
M  V30 2545 C 248.642 -5.49387 -1.642 0
M  V30 2546 N 248.138 -6.67806 -1.8441 0
M  V30 2547 N 249.931 -5.36923 -1.66342 0
M  V30 2548 H 242.082 -2.08555 0.402328 0
M  V30 2549 H 244.345 -0.940654 0.117789 0
M  V30 2550 H 244.051 -3.51353 -0.156204 0
M  V30 2551 H 243.925 -3.26508 -1.88871 0
M  V30 2552 H 246.312 -2.27326 -1.88167 0
M  V30 2553 H 246.393 -2.55435 -0.136605 0
M  V30 2554 H 246.037 -5.04972 -0.544581 0
M  V30 2555 H 245.967 -4.73848 -2.2973 0
M  V30 2556 H 248.458 -3.55705 -1.27601 0
M  V30 2557 H 248.771 -7.46141 -2.01231 0
M  V30 2558 H 247.116 -6.70843 -1.81644 0
M  V30 2559 H 250.307 -4.43381 -1.50102 0
M  V30 2560 H 250.48 -6.21416 -1.837 0
M  V30 2561 N 243.887 0.651787 -1.4349 0
M  V30 2562 C 245.303 0.96762 -1.26922 0
M  V30 2563 C 245.503 2.00602 -0.189982 0
M  V30 2564 O 244.559 2.48793 0.431107 0
M  V30 2565 C 245.872 1.45052 -2.63401 0
M  V30 2566 C 247.42 1.5671 -2.70945 0
M  V30 2567 C 247.895 2.0839 -4.07845 0
M  V30 2568 N 249.386 2.1569 -4.09917 0
M  V30 2569 C 250.121 2.56804 -5.12679 0
M  V30 2570 N 249.617 2.97203 -6.25813 0
M  V30 2571 N 251.41 2.56756 -5.00033 0
M  V30 2572 H 243.561 -0.0353158 -2.12371 0
M  V30 2573 H 245.824 0.0467858 -0.946845 0
M  V30 2574 H 245.53 0.761926 -3.43348 0
M  V30 2575 H 245.404 2.42529 -2.88894 0
M  V30 2576 H 247.791 2.2467 -1.9133 0
M  V30 2577 H 247.872 0.57662 -2.49216 0
M  V30 2578 H 247.516 1.41031 -4.87927 0
M  V30 2579 H 247.446 3.08271 -4.26938 0
M  V30 2580 H 249.937 1.87237 -3.28254 0
M  V30 2581 H 250.25 3.27328 -7.00055 0
M  V30 2582 H 248.595 2.95004 -6.29283 0
M  V30 2583 H 251.786 2.24572 -4.10713 0
M  V30 2584 H 251.959 2.88475 -5.80247 0
M  V30 2585 N 245.365 1.30045 0.890287 0
M  V30 2586 C 246.315 1.12592 1.9826 0
M  V30 2587 C 247.299 0.0426021 1.60844 0
M  V30 2588 O 248.491 0.265346 1.75 0
M  V30 2589 C 245.62 0.814301 3.33503 0
M  V30 2590 C 244.706 1.93761 3.7725 0
M  V30 2591 N 245.097 3.18232 3.93143 0
M  V30 2592 C 243.395 1.83277 4.06602 0
M  V30 2593 C 244.096 3.9158 4.30163 0
M  V30 2594 N 243.072 3.19591 4.3973 0
M  V30 2595 H 246.874 2.07003 2.08631 0
M  V30 2596 H 244.388 1.21307 1.07974 0
M  V30 2597 H 246.385 0.67029 4.11476 0
M  V30 2598 H 245.045 -0.121797 3.24471 0
M  V30 2599 H 246.056 3.53581 3.78419 0
M  V30 2600 H 242.733 0.97001 4.06075 0
M  V30 2601 H 244.123 4.98744 4.50226 0
M  V30 2602 N 246.843 -1.10192 1.12674 0
M  V30 2603 C 248.12 -1.78717 0.794965 0
M  V30 2604 C 248.5 -1.98628 -0.714853 0
M  V30 2605 O 247.848 -1.58135 -1.64941 0
M  V30 2606 C 248.058 -3.11546 1.5729 0
M  V30 2607 C 249.406 -3.86382 1.76052 0
M  V30 2608 O 250.43 -3.21274 1.53823 0
M  V30 2609 O 249.289 -5.03246 2.13087 0
M  V30 2610 H 246.383 -0.774702 0.289423 0
M  V30 2611 H 248.929 -1.16819 1.23091 0
M  V30 2612 H 247.701 -2.92489 2.59935 0
M  V30 2613 H 247.324 -3.81164 1.13137 0
M  V30 2614 N 248.321 -0.919034 -1.28029 0
M  V30 2615 C 249.57 -0.550802 -1.94034 0
M  V30 2616 C 249.883 0.910877 -1.73096 0
M  V30 2617 O 251.089 1.3875 -2.33368 0
M  V30 2618 C 249.545 -0.934249 -3.47563 0
M  V30 2619 C 249.153 -2.41602 -3.7727 0
M  V30 2620 C 250.897 -0.636854 -4.19696 0
M  V30 2621 C 248.804 -2.73932 -5.24133 0
M  V30 2622 H 247.734 -0.202273 -0.726362 0
M  V30 2623 H 250.385 -1.11867 -1.45458 0
M  V30 2624 H 248.767 -0.295115 -3.94899 0
M  V30 2625 H 249.941 -3.10233 -3.40723 0
M  V30 2626 H 248.256 -2.68441 -3.18321 0
M  V30 2627 H 250.853 -0.855005 -5.2782 0
M  V30 2628 H 251.196 0.425575 -4.14119 0
M  V30 2629 H 251.729 -1.23469 -3.78154 0
M  V30 2630 H 248.468 -3.79049 -5.34792 0
M  V30 2631 H 247.988 -2.09942 -5.61858 0
M  V30 2632 H 249.667 -2.61215 -5.91925 0
M  V30 2633 N 249.799 1.42003 -0.683588 0
M  V30 2634 C 251.046 2.01413 -0.209514 0
M  V30 2635 C 251.374 1.54088 1.1869 0
M  V30 2636 O 250.629 0.737591 1.81268 0
M  V30 2637 C 250.928 3.56827 -0.202357 0
M  V30 2638 C 250.594 4.23617 -1.54464 0
M  V30 2639 C 249.256 4.41577 -1.91215 0
M  V30 2640 C 251.608 4.61178 -2.42826 0
M  V30 2641 C 248.936 4.9437 -3.15935 0
M  V30 2642 C 251.288 5.15355 -3.66867 0
M  V30 2643 C 249.952 5.31528 -4.03776 0
M  V30 2644 H 249.222 0.737023 -0.0766668 0
M  V30 2645 H 251.869 1.70067 -0.880312 0
M  V30 2646 H 250.174 3.87892 0.551969 0
M  V30 2647 H 251.871 4.00588 0.181793 0
M  V30 2648 H 248.461 4.10004 -1.24877 0
M  V30 2649 H 252.645 4.46968 -2.15717 0
M  V30 2650 H 247.901 5.05076 -3.44541 0
M  V30 2651 H 252.075 5.43402 -4.35531 0
M  V30 2652 H 249.702 5.72199 -5.00492 0
M  V30 2653 N 251.277 0.427512 1.51691 0
M  V30 2654 C 252.224 -0.388867 2.275 0
M  V30 2655 C 253.194 -1.02532 1.30677 0
M  V30 2656 O 254.379 -1.0461 1.59566 0
M  V30 2657 C 251.519 -1.48954 3.11298 0
M  V30 2658 C 250.632 -0.872194 4.23104 0
M  V30 2659 C 249.767 -1.94709 4.94228 0
M  V30 2660 C 248.806 -1.30766 5.97969 0
M  V30 2661 N 247.943 -2.32349 6.62539 0
M  V30 2662 H 252.783 0.263997 2.96828 0
M  V30 2663 H 250.32 0.142033 1.46413 0
M  V30 2664 H 252.278 -2.13887 3.58201 0
M  V30 2665 H 250.908 -2.11217 2.44105 0
M  V30 2666 H 249.96 -0.111419 3.80237 0
M  V30 2667 H 251.272 -0.365264 4.97461 0
M  V30 2668 H 250.426 -2.67327 5.44629 0
M  V30 2669 H 249.165 -2.48773 4.1948 0
M  V30 2670 H 248.17 -0.566902 5.4687 0
M  V30 2671 H 249.395 -0.774483 6.74669 0
M  V30 2672 H 247.341 -2.85511 5.90609 0
M  V30 2673 H 247.258 -1.8652 7.3263 0
M  V30 2674 H 248.526 -3.04481 7.17574 0
M  V30 2675 N 252.755 -1.56801 0.158532 0
M  V30 2676 C 253.688 -2.13148 -0.815065 0
M  V30 2677 C 254.666 -1.0581 -1.23462 0
M  V30 2678 O 255.85 -1.3371 -1.32868 0
M  V30 2679 C 252.977 -2.6606 -2.09594 0
M  V30 2680 C 252.023 -3.85651 -1.82141 0
M  V30 2681 S 252.856 -5.26041 -1.00207 0
M  V30 2682 C 254.012 -5.8235 -2.29389 0
M  V30 2683 H 254.245 -2.95396 -0.335937 0
M  V30 2684 H 251.778 -1.54299 -0.0559391 0
M  V30 2685 H 253.736 -2.97195 -2.8317 0
M  V30 2686 H 252.397 -1.83921 -2.54621 0
M  V30 2687 H 251.59 -4.20958 -2.77147 0
M  V30 2688 H 251.192 -3.55338 -1.16667 0
M  V30 2689 H 253.484 -5.94485 -3.24952 0
M  V30 2690 H 254.427 -6.79688 -1.9857 0
M  V30 2691 H 254.835 -5.10675 -2.40564 0
M  V30 2692 N 254.233 0.115231 -1.57178 0
M  V30 2693 C 255.458 0.840354 -1.89612 0
M  V30 2694 C 255.883 1.72464 -0.750845 0
M  V30 2695 O 255.241 1.78826 0.298478 0
M  V30 2696 C 255.289 1.64654 -3.20814 0
M  V30 2697 O 254.393 2.7538 -3.06985 0
M  V30 2698 H 253.734 0.232158 -0.622092 0
M  V30 2699 H 256.264 0.0964977 -2.04372 0
M  V30 2700 H 256.274 2.03499 -3.53627 0
M  V30 2701 H 254.949 0.997416 -4.03763 0
M  V30 2702 H 253.526 2.3971 -2.85646 0
M  V30 2703 N 255.711 1.52812 0.385517 0
M  V30 2704 C 256.951 1.69716 1.13911 0
M  V30 2705 C 257.315 0.42962 1.87132 0
M  V30 2706 O 258.516 0.475071 2.64569 0
M  V30 2707 C 256.787 2.90021 2.0886 0
M  V30 2708 S 258.346 3.27531 2.92009 0
M  V30 2709 H 255.164 0.59739 0.385547 0
M  V30 2710 H 257.766 1.90868 0.423061 0
M  V30 2711 H 256.47 3.80493 1.53797 0
M  V30 2712 H 256.001 2.71213 2.84969 0
M  V30 2713 H 258.016 2.77989 4.11019 0
M  V30 2714 N 257.189 -0.644168 1.43834 0
M  V30 2715 C 258.099 -1.78563 1.52159 0
M  V30 2716 C 259.115 -1.69147 0.408069 0
M  V30 2717 O 260.291 -1.90156 0.663524 0
M  V30 2718 C 257.356 -3.14888 1.45073 0
M  V30 2719 C 256.417 -3.36034 2.6717 0
M  V30 2720 C 255.65 -4.65855 2.60413 0
M  V30 2721 O 255.873 -5.45805 1.65689 0
M  V30 2722 O 254.807 -4.88918 3.5106 0
M  V30 2723 H 258.633 -1.74494 2.48567 0
M  V30 2724 H 256.218 -0.80378 1.25935 0
M  V30 2725 H 258.1 -3.96179 1.43597 0
M  V30 2726 H 256.775 -3.19528 0.518037 0
M  V30 2727 H 255.682 -2.54472 2.74217 0
M  V30 2728 H 257.015 -3.36247 3.59442 0
M  V30 2729 N 258.668 -1.30515 -0.883378 0
M  V30 2730 C 259.914 -1.20617 -1.63778 0
M  V30 2731 C 260.269 0.236469 -1.90941 0
M  V30 2732 O 259.562 1.16596 -1.52039 0
M  V30 2733 C 259.756 -1.96994 -2.98209 0
M  V30 2734 C 259.585 -3.48537 -2.84169 0
M  V30 2735 C 258.355 -4.17893 -2.84067 0
M  V30 2736 C 260.553 -4.43738 -2.60001 0
M  V30 2737 N 258.535 -5.55685 -2.60936 0
M  V30 2738 C 259.906 -5.69105 -2.46007 0
M  V30 2739 C 261.961 -4.33316 -2.45239 0
M  V30 2740 C 260.664 -6.8523 -2.18752 0
M  V30 2741 C 262.69 -5.4921 -2.19369 0
M  V30 2742 C 262.052 -6.73558 -2.06153 0
M  V30 2743 H 258.151 -0.496434 -0.604216 0
M  V30 2744 H 260.735 -1.64544 -1.04083 0
M  V30 2745 H 258.906 -1.55455 -3.55933 0
M  V30 2746 H 260.638 -1.79225 -3.62851 0
M  V30 2747 H 257.393 -3.69739 -2.95956 0
M  V30 2748 H 257.817 -6.28199 -2.52378 0
M  V30 2749 H 262.459 -3.37856 -2.54191 0
M  V30 2750 H 260.177 -7.80729 -2.08537 0
M  V30 2751 H 263.763 -5.43054 -2.08766 0
M  V30 2752 H 262.643 -7.61721 -1.86416 0
M  V30 2753 N 260.146 1.09593 -1.13257 0
M  V30 2754 C 261.392 1.82003 -0.89458 0
M  V30 2755 C 261.725 1.85402 0.577906 0
M  V30 2756 O 261 1.32099 1.42759 0
M  V30 2757 C 261.283 3.28237 -1.48096 0
M  V30 2758 C 261.136 3.3312 -3.02244 0
M  V30 2759 C 262.455 4.24871 -1.14774 0
M  V30 2760 H 259.574 0.66077 -0.326424 0
M  V30 2761 H 262.216 1.28389 -1.40058 0
M  V30 2762 H 260.366 3.74024 -1.05062 0
M  V30 2763 H 262.038 2.95748 -3.54021 0
M  V30 2764 H 260.281 2.72756 -3.37323 0
M  V30 2765 H 260.952 4.3613 -3.38371 0
M  V30 2766 H 263.428 3.87361 -1.51957 0
M  V30 2767 H 262.304 5.25532 -1.58452 0
M  V30 2768 H 262.565 4.42058 -0.0611849 0
M  V30 2769 N 261.624 0.925811 1.2754 0
M  V30 2770 C 262.534 0.428993 2.30644 0
M  V30 2771 C 263.55 -0.489387 1.66976 0
M  V30 2772 O 264.726 -0.372653 1.97922 0
M  V30 2773 C 261.791 -0.311967 3.45294 0
M  V30 2774 C 260.852 0.641098 4.24486 0
M  V30 2775 C 260.085 -0.0645955 5.33661 0
M  V30 2776 O 260.308 -1.28429 5.55754 0
M  V30 2777 O 259.242 0.606265 5.98839 0
M  V30 2778 H 263.068 1.28504 2.75173 0
M  V30 2779 H 260.653 0.691086 1.32455 0
M  V30 2780 H 262.535 -0.729972 4.15029 0
M  V30 2781 H 261.21 -1.14365 3.02824 0
M  V30 2782 H 260.117 1.10874 3.57292 0
M  V30 2783 H 261.45 1.43995 4.70666 0
M  V30 2784 N 263.102 -1.41638 0.69111 0
M  V30 2785 C 264.034 -2.29194 -0.0161523 0
M  V30 2786 C 265.047 -1.44549 -0.748955 0
M  V30 2787 O 266.236 -1.681 -0.6004 0
M  V30 2788 C 263.336 -3.22325 -1.0469 0
M  V30 2789 C 262.509 -4.35706 -0.384621 0
M  V30 2790 C 261.568 -5.09443 -1.31737 0
M  V30 2791 O 260.594 -5.63386 -0.811451 0
M  V30 2792 N 261.796 -5.16487 -2.64993 0
M  V30 2793 H 264.561 -2.90534 0.735523 0
M  V30 2794 H 262.122 -1.52742 0.53679 0
M  V30 2795 H 264.114 -3.68522 -1.67252 0
M  V30 2796 H 262.684 -2.62323 -1.70015 0
M  V30 2797 H 261.904 -3.91948 0.420804 0
M  V30 2798 H 263.192 -5.08743 0.0760765 0
M  V30 2799 H 262.59 -4.741 -3.08619 0
M  V30 2800 H 261.147 -5.66276 -3.22761 0
M  V30 2801 N 264.58 -0.43555 -1.51462 0
M  V30 2802 C 265.81 0.130053 -2.0619 0
M  V30 2803 C 266.218 1.37164 -1.30317 0
M  V30 2804 O 265.561 1.80225 -0.355598 0
M  V30 2805 C 265.623 0.519418 -3.55728 0
M  V30 2806 C 265.287 -0.615119 -4.52841 0
M  V30 2807 C 266.284 -1.48671 -4.9819 0
M  V30 2808 C 263.969 -0.795341 -4.95963 0
M  V30 2809 C 265.963 -2.52324 -5.8533 0
M  V30 2810 C 263.65 -1.83514 -5.82894 0
M  V30 2811 C 264.648 -2.69748 -6.27475 0
M  V30 2812 O 264.336 -3.71944 -7.1268 0
M  V30 2813 H 264.068 0.0121612 -0.675891 0
M  V30 2814 H 266.622 -0.6129 -1.96043 0
M  V30 2815 H 264.852 1.31505 -3.63653 0
M  V30 2816 H 266.541 1.01597 -3.92979 0
M  V30 2817 H 267.307 -1.359 -4.65571 0
M  V30 2818 H 263.186 -0.133713 -4.60806 0
M  V30 2819 H 266.73 -3.19665 -6.20048 0
M  V30 2820 H 262.627 -1.96306 -6.14926 0
M  V30 2821 H 263.395 -3.68503 -7.30854 0
M  V30 2822 N 266.058 1.56714 -0.166846 0
M  V30 2823 C 267.005 2.17746 0.765193 0
M  V30 2824 C 267.975 1.11614 1.23011 0
M  V30 2825 O 269.16 1.39745 1.29908 0
M  V30 2826 C 266.3 2.81882 1.9909 0
M  V30 2827 C 265.413 4.02462 1.56997 0
M  V30 2828 C 264.548 4.54537 2.749 0
M  V30 2829 C 263.587 5.67538 2.29275 0
M  V30 2830 N 262.724 6.14142 3.40255 0
M  V30 2831 H 267.564 2.97048 0.237952 0
M  V30 2832 H 265.101 1.4672 0.105725 0
M  V30 2833 H 267.059 3.17221 2.70974 0
M  V30 2834 H 265.689 2.05191 2.49192 0
M  V30 2835 H 264.741 3.72973 0.748037 0
M  V30 2836 H 266.053 4.84273 1.19503 0
M  V30 2837 H 265.207 4.92035 3.54946 0
M  V30 2838 H 263.946 3.71774 3.1565 0
M  V30 2839 H 262.951 5.29597 1.47674 0
M  V30 2840 H 264.176 6.52099 1.89588 0
M  V30 2841 H 262.122 5.3431 3.8059 0
M  V30 2842 H 262.039 6.9093 3.06841 0
M  V30 2843 H 263.307 6.56289 4.206 0
M  V30 2844 N 267.536 -0.106894 1.57237 0
M  V30 2845 C 268.813 -0.843526 1.76477 0
M  V30 2846 C 269.193 -1.97499 0.745464 0
M  V30 2847 O 268.541 -2.27357 -0.228306 0
M  V30 2848 C 268.751 -1.34903 3.21873 0
M  V30 2849 C 270.099 -1.79654 3.8472 0
M  V30 2850 O 271.123 -1.44554 3.2555 0
M  V30 2851 O 269.982 -2.44515 4.88748 0
M  V30 2852 H 267.076 -0.401468 0.723016 0
M  V30 2853 H 269.622 -0.0896927 1.69463 0
M  V30 2854 H 268.394 -0.53781 3.87586 0
M  V30 2855 H 268.017 -2.16522 3.33473 0
M  V30 2856 N 269.014 -1.53014 -0.377408 0
M  V30 2857 C 270.26 -1.68872 -1.12294 0
M  V30 2858 C 270.593 -0.433224 -1.89306 0
M  V30 2859 O 269.868 0.569258 -1.85983 0
M  V30 2860 C 270.151 -2.93115 -2.09179 0
M  V30 2861 C 270.004 -4.28794 -1.35853 0
M  V30 2862 C 271.323 -3.12928 -3.09458 0
M  V30 2863 H 268.442 -0.614518 -0.406862 0
M  V30 2864 H 271.084 -1.85633 -0.40503 0
M  V30 2865 H 269.234 -2.78956 -2.70399 0
M  V30 2866 H 270.906 -4.54742 -0.775082 0
M  V30 2867 H 269.149 -4.28744 -0.660364 0
M  V30 2868 H 269.82 -5.11837 -2.06706 0
M  V30 2869 H 272.296 -3.26194 -2.58334 0
M  V30 2870 H 271.172 -4.01316 -3.74482 0
M  V30 2871 H 271.433 -2.27669 -3.78971 0
M  V30 2872 N 270.492 0.636531 -1.44174 0
M  V30 2873 C 271.425 1.76139 -1.45087 0
M  V30 2874 C 272.403 1.59611 -0.310326 0
M  V30 2875 O 273.587 1.81568 -0.506477 0
M  V30 2876 C 270.714 3.13648 -1.27839 0
M  V30 2877 C 269.76 3.48838 -2.45386 0
M  V30 2878 S 270.593 3.46927 -4.07924 0
M  V30 2879 C 271.749 4.87064 -3.9309 0
M  V30 2880 H 271.982 1.75096 -2.40268 0
M  V30 2881 H 269.515 0.810666 -1.31406 0
M  V30 2882 H 271.473 3.93002 -1.18575 0
M  V30 2883 H 270.134 3.12235 -0.341787 0
M  V30 2884 H 269.327 4.48886 -2.29167 0
M  V30 2885 H 268.929 2.76935 -2.51362 0
M  V30 2886 H 271.221 5.76153 -3.56446 0
M  V30 2887 H 272.164 5.08337 -4.92949 0
M  V30 2888 H 272.572 4.61384 -3.25246 0
M  V30 2889 N 271.97 1.30982 0.876444 0
M  V30 2890 C 272.902 1.13902 1.98894 0
M  V30 2891 C 273.915 0.0798815 1.62604 0
M  V30 2892 O 275.104 0.326743 1.75484 0
M  V30 2893 C 272.204 0.716699 3.31235 0
M  V30 2894 C 271.377 1.85945 3.95908 0
M  V30 2895 C 270.436 1.42426 5.06558 0
M  V30 2896 O 269.462 2.13287 5.27729 0
M  V30 2897 N 270.664 0.308025 5.79682 0
M  V30 2898 H 273.429 2.09724 2.14094 0
M  V30 2899 H 270.99 1.2323 1.05004 0
M  V30 2900 H 272.982 0.408403 4.02634 0
M  V30 2901 H 271.552 -0.149719 3.12241 0
M  V30 2902 H 270.772 2.33541 3.17573 0
M  V30 2903 H 272.06 2.62503 4.35855 0
M  V30 2904 H 271.458 -0.282241 5.64995 0
M  V30 2905 H 270.015 0.0592282 6.51773 0
M  V30 2906 N 273.449 -1.08991 1.13837 0
M  V30 2907 C 274.679 -1.84743 0.924859 0
M  V30 2908 C 275.087 -1.81629 -0.529874 0
M  V30 2909 O 274.43 -1.21397 -1.37872 0
M  V30 2910 C 274.492 -3.33568 1.34061 0
M  V30 2911 C 274.156 -3.60425 2.80968 0
M  V30 2912 C 275.153 -3.55771 3.79108 0
M  V30 2913 C 272.838 -3.88627 3.18236 0
M  V30 2914 C 274.832 -3.78939 5.12527 0
M  V30 2915 C 272.519 -4.11449 4.51833 0
M  V30 2916 C 273.517 -4.06598 5.48787 0
M  V30 2917 O 273.205 -4.28826 6.79973 0
M  V30 2918 H 272.937 -0.590258 0.329502 0
M  V30 2919 H 275.491 -1.38598 1.51591 0
M  V30 2920 H 273.721 -3.80442 0.692853 0
M  V30 2921 H 275.41 -3.90743 1.09886 0
M  V30 2922 H 276.176 -3.34005 3.51661 0
M  V30 2923 H 272.055 -3.91526 2.43369 0
M  V30 2924 H 275.599 -3.75068 5.88192 0
M  V30 2925 H 271.496 -4.32698 4.79002 0
M  V30 2926 H 272.264 -4.46264 6.86142 0
M  V30 2927 N 274.927 -0.932562 -1.27047 0
M  V30 2928 C 275.859 -0.392734 -2.2581 0
M  V30 2929 C 276.872 0.479241 -1.55586 0
M  V30 2930 O 278.061 0.291078 -1.76111 0
M  V30 2931 C 275.161 0.455456 -3.35826 0
M  V30 2932 C 274.334 -0.398355 -4.35582 0
M  V30 2933 C 273.393 0.387985 -5.24768 0
M  V30 2934 O 272.419 -0.206003 -5.68827 0
M  V30 2935 N 273.621 1.68664 -5.55457 0
M  V30 2936 H 276.386 -1.24173 -2.72766 0
M  V30 2937 H 273.947 -0.800511 -1.40725 0
M  V30 2938 H 275.939 0.988692 -3.92437 0
M  V30 2939 H 274.509 1.20522 -2.88432 0
M  V30 2940 H 273.729 -1.11286 -3.78165 0
M  V30 2941 H 275.017 -0.981889 -4.99236 0
M  V30 2942 H 274.415 2.19147 -5.21528 0
M  V30 2943 H 272.972 2.1663 -6.14748 0
M  V30 2944 N 276.405 1.4127 -0.698611 0
M  V30 2945 C 277.682 1.94955 -0.158762 0
M  V30 2946 C 278.062 1.63781 1.33188 0
M  V30 2947 O 277.41 0.946423 2.07979 0
M  V30 2948 C 277.62 3.46044 -0.453309 0
M  V30 2949 C 278.968 4.22872 -0.382707 0
M  V30 2950 O 279.992 3.54076 -0.388396 0
M  V30 2951 O 278.851 5.45407 -0.345463 0
M  V30 2952 H 275.945 0.82683 -0.0167505 0
M  V30 2953 H 278.491 1.50971 -0.77498 0
M  V30 2954 H 277.263 3.62028 -1.48498 0
M  V30 2955 H 276.886 3.97128 0.19373 0
M  V30 2956 N 277.883 0.443576 1.51229 0
M  V30 2957 C 278.815 -0.400608 2.25672 0
M  V30 2958 C 279.828 -0.980945 1.29928 0
M  V30 2959 O 281.017 -0.874024 1.55638 0
M  V30 2960 C 278.117 -1.57304 3.00181 0
M  V30 2961 C 277.29 -1.11046 4.23069 0
M  V30 2962 C 276.349 -2.15374 4.80105 0
M  V30 2963 O 275.375 -1.74554 5.41774 0
M  V30 2964 N 276.577 -3.47922 4.64683 0
M  V30 2965 H 279.342 0.23745 2.98758 0
M  V30 2966 H 276.903 0.272809 1.59585 0
M  V30 2967 H 278.895 -2.26733 3.35223 0
M  V30 2968 H 277.465 -2.11632 2.30066 0
M  V30 2969 H 276.685 -0.243019 3.9345 0
M  V30 2970 H 277.973 -0.778888 5.02803 0
M  V30 2971 H 277.371 -3.83815 4.15575 0
M  V30 2972 H 275.928 -4.13228 5.0407 0
M  V30 2973 N 279.361 -1.56624 0.175154 0
M  V30 2974 C 280.638 -1.88688 -0.515373 0
M  V30 2975 C 281.018 -1.08564 -1.81044 0
M  V30 2976 O 280.366 -0.180703 -2.27784 0
M  V30 2977 C 280.576 -3.40768 -0.753552 0
M  V30 2978 C 281.924 -4.10587 -1.08184 0
M  V30 2979 O 282.948 -3.46106 -0.841961 0
M  V30 2980 O 281.807 -5.24512 -1.53459 0
M  V30 2981 H 278.901 -0.78301 -0.26613 0
M  V30 2982 H 281.447 -1.68347 0.213877 0
M  V30 2983 H 280.219 -3.90965 0.161829 0
M  V30 2984 H 279.842 -3.66733 -1.53598 0
M  V30 2985 N 280.839 0.0985539 -1.57292 0
M  V30 2986 C 282.088 0.801358 -1.85098 0
M  V30 2987 C 282.401 1.80066 -0.763902 0
M  V30 2988 O 283.607 2.55112 -0.928981 0
M  V30 2989 C 282.063 1.47599 -3.28242 0
M  V30 2990 C 281.671 0.516624 -4.45011 0
M  V30 2991 C 283.415 2.16272 -3.65276 0
M  V30 2992 C 281.322 1.19564 -5.79188 0
M  V30 2993 H 280.252 0.303022 -0.69043 0
M  V30 2994 H 282.903 0.0542623 -1.8342 0
M  V30 2995 H 281.285 2.27042 -3.2445 0
M  V30 2996 H 282.459 -0.246065 -4.60143 0
M  V30 2997 H 280.774 -0.064227 -4.1635 0
M  V30 2998 H 283.371 2.67802 -4.62803 0
M  V30 2999 H 283.714 2.95009 -2.93727 0
M  V30 3000 H 284.247 1.43693 -3.70941 0
M  V30 3001 H 280.986 0.449157 -6.53959 0
M  V30 3002 H 280.506 1.92984 -5.67906 0
M  V30 3003 H 282.185 1.7231 -6.23633 0
M  V30 3004 N 282.317 1.53212 0.369288 0
M  V30 3005 C 283.247 1.82365 1.45826 0
M  V30 3006 C 284.228 0.676907 1.56051 0
M  V30 3007 O 285.413 0.926401 1.70679 0
M  V30 3008 C 282.543 2.01023 2.83208 0
M  V30 3009 C 281.497 3.1678 2.8781 0
M  V30 3010 C 280.823 3.20724 4.27832 0
M  V30 3011 C 282.123 4.55447 2.55667 0
M  V30 3012 H 283.817 2.73559 1.21678 0
M  V30 3013 H 281.363 1.3163 0.583911 0
M  V30 3014 H 283.316 2.20001 3.59413 0
M  V30 3015 H 282.04 1.06536 3.08736 0
M  V30 3016 H 280.699 2.97616 2.14056 0
M  V30 3017 H 280.347 2.23882 4.50429 0
M  V30 3018 H 280.047 3.98496 4.31827 0
M  V30 3019 H 281.571 3.41881 5.05915 0
M  V30 3020 H 282.985 4.74611 3.21586 0
M  V30 3021 H 281.382 5.35432 2.70984 0
M  V30 3022 H 282.452 4.60812 1.5093 0
M  V30 3023 N 283.795 -0.628877 1.44509 0
M  V30 3024 C 284.743 -1.76193 1.51852 0
M  V30 3025 C 285.737 -1.64849 0.390042 0
M  V30 3026 O 286.943 -1.709 0.565082 0
M  V30 3027 H 283.318 -0.581728 0.476547 0
M  V30 3028 H 285.289 -1.67123 2.47209 0
M  V30 3029 C 284.038 -3.14533 1.48204 0
M  V30 3030 H 283.361 -3.23911 2.34354 0
M  V30 3031 H 284.801 -3.93701 1.57402 0
M  V30 3032 C 283.26 -3.36287 0.203142 0
M  V30 3033 O 283.79 -3.9509 -0.725745 0
M  V30 3034 N 281.996 -2.90408 0.105563 0
M  V30 3035 H 281.543 -2.42739 0.862301 0
M  V30 3036 H 281.501 -3.05339 -0.749371 0
M  V30 3037 N 285.273 -1.31445 -0.869486 0
M  V30 3038 C 286.521 -1.20918 -1.61936 0
M  V30 3039 C 286.842 0.232683 -1.93607 0
M  V30 3040 O 286.112 1.15352 -1.58338 0
M  V30 3041 H 284.692 -0.44454 -0.600328 0
M  V30 3042 H 287.354 -1.64776 -1.0409 0
M  V30 3043 H 286.45 -1.78124 -2.56278 0
M  V30 3044 N 286.751 1.08385 -1.14413 0
M  V30 3045 C 287.681 2.17321 -0.854044 0
M  V30 3046 C 288.662 1.69024 0.191049 0
M  V30 3047 O 289.847 1.94141 0.0476779 0
M  V30 3048 C 286.977 3.45719 -0.330983 0
M  V30 3049 C 285.931 4.07409 -1.31155 0
M  V30 3050 C 285.257 5.30762 -0.64778 0
M  V30 3051 C 286.557 4.48665 -2.67388 0
M  V30 3052 H 288.251 2.41845 -1.76498 0
M  V30 3053 H 285.797 1.16233 -0.850051 0
M  V30 3054 H 287.75 4.21241 -0.115645 0
M  V30 3055 H 286.474 3.2075 0.615381 0
M  V30 3056 H 285.133 3.33919 -1.51306 0
M  V30 3057 H 284.781 5.02078 0.304398 0
M  V30 3058 H 284.481 5.72992 -1.30207 0
M  V30 3059 H 286.005 6.08998 -0.441972 0
M  V30 3060 H 287.419 5.15364 -2.51143 0
M  V30 3061 H 285.816 5.01814 -3.29093 0
M  V30 3062 H 286.886 3.60543 -3.24248 0
M  V30 3063 N 288.23 0.939286 1.26551 0
M  V30 3064 C 289.477 0.585847 1.9384 0
M  V30 3065 C 289.805 -0.874784 1.73718 0
M  V30 3066 O 289.06 -1.64092 1.06642 0
M  V30 3067 C 289.359 0.872106 3.46596 0
M  V30 3068 C 289.025 2.31632 3.86856 0
M  V30 3069 C 287.687 2.71111 3.97558 0
M  V30 3070 C 290.039 3.25494 4.07066 0
M  V30 3071 C 287.367 4.03553 4.25866 0
M  V30 3072 C 289.719 4.57531 4.36862 0
M  V30 3073 C 288.383 4.96828 4.45778 0
M  V30 3074 H 287.653 0.214377 0.709312 0
M  V30 3075 H 290.3 1.18544 1.50398 0
M  V30 3076 H 288.605 0.18996 3.91339 0
M  V30 3077 H 290.302 0.577442 3.96821 0
M  V30 3078 H 286.892 2.00008 3.79071 0
M  V30 3079 H 291.076 2.9619 3.98227 0
M  V30 3080 H 286.332 4.33665 4.30981 0
M  V30 3081 H 290.506 5.30254 4.51446 0
M  V30 3082 H 288.133 5.99482 4.67468 0
M  V30 3083 N 289.708 -1.40897 0.706093 0
M  V30 3084 C 290.655 -2.30751 0.0474474 0
M  V30 3085 C 291.625 -1.47678 -0.76029 0
M  V30 3086 O 292.81 -1.76441 -0.726177 0
M  V30 3087 C 289.95 -3.33815 -0.875309 0
M  V30 3088 C 289.063 -4.31961 -0.0580623 0
M  V30 3089 C 288.198 -5.22093 -0.979425 0
M  V30 3090 C 287.237 -6.11902 -0.155706 0
M  V30 3091 N 286.374 -6.94482 -1.03144 0
M  V30 3092 H 291.214 -2.86513 0.819413 0
M  V30 3093 H 288.751 -1.41102 0.415783 0
M  V30 3094 H 290.709 -3.92129 -1.42446 0
M  V30 3095 H 289.339 -2.79579 -1.61356 0
M  V30 3096 H 288.391 -3.75507 0.608147 0
M  V30 3097 H 289.703 -4.95415 0.580082 0
M  V30 3098 H 288.857 -5.85292 -1.59744 0
M  V30 3099 H 287.596 -4.5889 -1.65141 0
M  V30 3100 H 286.601 -5.47742 0.475309 0
M  V30 3101 H 287.826 -6.77162 0.512635 0
M  V30 3102 H 285.772 -6.33877 -1.68924 0
M  V30 3103 H 285.689 -7.54665 -0.449108 0
M  V30 3104 H 286.957 -7.6214 -1.63593 0
M  V30 3105 N 291.186 -0.45159 -1.50991 0
M  V30 3106 C 292.434 0.109857 -2.01801 0
M  V30 3107 C 292.755 1.41958 -1.3369 0
M  V30 3108 O 292.025 1.9003 -0.475951 0
M  V30 3109 H 290.605 0.0435884 -0.745727 0
M  V30 3110 H 293.267 -0.597557 -1.85514 0
M  V30 3111 H 292.363 0.275489 -3.10882 0
M  V30 3112 N 292.664 1.56529 -0.183458 0
M  V30 3113 C 293.912 1.96855 0.457452 0
M  V30 3114 C 294.233 1.07104 1.62953 0
M  V30 3115 O 293.503 0.139887 1.954 0
M  V30 3116 H 292.083 0.72693 0.171992 0
M  V30 3117 H 294.745 1.93056 -0.267476 0
M  V30 3118 H 293.841 3.01423 0.809368 0
M  V30 3119 N 294.142 -0.090211 1.57342 0
M  V30 3120 C 295.388 -0.793982 1.86611 0
M  V30 3121 C 295.721 -1.78142 0.773252 0
M  V30 3122 O 294.996 -1.93271 -0.218304 0
M  V30 3123 C 295.279 -1.51839 3.26523 0
M  V30 3124 C 295.132 -0.548609 4.46442 0
M  V30 3125 C 296.451 -2.46779 3.64401 0
M  V30 3126 H 293.57 -0.287186 0.678744 0
M  V30 3127 H 296.212 -0.0575076 1.89913 0
M  V30 3128 H 294.362 -2.14617 3.23839 0
M  V30 3129 H 296.034 0.0725513 4.61243 0
M  V30 3130 H 294.277 0.137614 4.33582 0
M  V30 3131 H 294.948 -1.09271 5.41076 0
M  V30 3132 H 297.424 -1.94089 3.68061 0
M  V30 3133 H 296.3 -2.94479 4.63221 0
M  V30 3134 H 296.561 -3.30758 2.93346 0
M  V30 3135 N 295.62 -1.53406 -0.361157 0
M  V30 3136 C 296.86 -1.71507 -1.11197 0
M  V30 3137 C 297.224 -0.459337 -1.86425 0
M  V30 3138 O 298.425 -0.517102 -2.63779 0
M  V30 3139 C 296.696 -2.93307 -2.0422 0
M  V30 3140 S 298.255 -3.32135 -2.86761 0
M  V30 3141 H 295.073 -0.603448 -0.375995 0
M  V30 3142 H 297.675 -1.91516 -0.392642 0
M  V30 3143 H 296.379 -3.82891 -1.47724 0
M  V30 3144 H 295.91 -2.75712 -2.80618 0
M  V30 3145 H 297.925 -2.84493 -4.06544 0
M  V30 3146 N 297.098 0.621204 -1.44841 0
M  V30 3147 C 298.328 1.40548 -1.51426 0
M  V30 3148 C 298.736 1.88673 -0.141083 0
M  V30 3149 O 298.079 1.62053 0.865128 0
M  V30 3150 C 298.141 2.65325 -2.42576 0
M  V30 3151 C 297.805 2.3893 -3.89566 0
M  V30 3152 C 298.802 2.00138 -4.79834 0
M  V30 3153 C 296.487 2.52263 -4.3436 0
M  V30 3154 C 298.481 1.75021 -6.129 0
M  V30 3155 C 296.168 2.2676 -5.67471 0
M  V30 3156 C 297.166 1.88199 -6.56559 0
M  V30 3157 O 296.854 1.62986 -7.87204 0
M  V30 3158 H 296.586 0.437122 -0.515655 0
M  V30 3159 H 299.14 0.765987 -1.90583 0
M  V30 3160 H 297.37 3.31947 -1.98364 0
M  V30 3161 H 299.059 3.27347 -2.39998 0
M  V30 3162 H 299.825 1.89386 -4.46495 0
M  V30 3163 H 295.704 2.81246 -3.65269 0
M  V30 3164 H 299.248 1.44848 -6.82396 0
M  V30 3165 H 295.145 2.37125 -6.00368 0
M  V30 3166 H 295.913 1.7715 -7.991 0
M  V30 3167 N 298.576 1.31904 0.862503 0
M  V30 3168 C 299.539 1.20131 1.95195 0
M  V30 3169 C 300.539 0.126409 1.60302 0
M  V30 3170 O 301.729 0.376234 1.70089 0
M  V30 3171 C 298.861 0.845691 3.30244 0
M  V30 3172 H 300.054 2.16943 2.07064 0
M  V30 3173 H 297.607 1.15622 1.05172 0
M  V30 3174 H 298.342 -0.120957 3.24074 0
M  V30 3175 H 298.127 1.62276 3.56944 0
M  V30 3176 H 299.617 0.787418 4.10109 0
M  V30 3177 N 300.054 -1.07777 1.14986 0
M  V30 3178 C 301.002 -2.16964 0.838406 0
M  V30 3179 C 301.996 -1.68372 -0.186386 0
M  V30 3180 O 303.202 -1.79951 -0.0418465 0
M  V30 3181 H 299.577 -0.708006 0.253439 0
M  V30 3182 H 301.548 -2.40454 1.76704 0
M  V30 3183 C 300.297 -3.4604 0.339335 0
M  V30 3184 H 299.62 -3.83813 1.11927 0
M  V30 3185 H 301.06 -4.23698 0.160021 0
M  V30 3186 C 299.519 -3.23569 -0.938325 0
M  V30 3187 O 300.049 -3.47752 -2.01077 0
M  V30 3188 N 298.255 -2.77079 -0.876117 0
M  V30 3189 H 297.802 -2.576 -0.00322037 0
M  V30 3190 H 297.76 -2.62422 -1.73153 0
M  V30 3191 N 301.532 -0.945985 -1.26051 0
M  V30 3192 C 302.757 -0.612525 -1.98149 0
M  V30 3193 C 303.182 0.806623 -1.69927 0
M  V30 3194 O 302.54 1.54411 -0.950108 0
M  V30 3195 C 302.588 -0.866981 -3.50023 0
M  V30 3196 O 301.692 0.0585333 -4.12358 0
M  V30 3197 H 301.033 -0.23379 -0.621481 0
M  V30 3198 H 303.563 -1.27023 -1.60395 0
M  V30 3199 H 303.573 -0.789792 -4.00283 0
M  V30 3200 H 302.248 -1.90135 -3.69894 0
M  V30 3201 H 300.825 -0.0701241 -3.72834 0
M  V30 3202 N 303.011 1.40521 -0.713556 0
M  V30 3203 C 304.427 1.54839 -0.386907 0
M  V30 3204 C 304.627 1.68532 1.1045 0
M  V30 3205 O 303.683 1.67377 1.89053 0
M  V30 3206 C 304.996 2.77792 -1.15118 0
M  V30 3207 C 306.544 2.91607 -1.13729 0
M  V30 3208 C 307.019 4.1747 -1.88368 0
M  V30 3209 N 308.51 4.24466 -1.85427 0
M  V30 3210 C 309.245 5.20755 -2.40004 0
M  V30 3211 N 308.741 6.22965 -3.03129 0
M  V30 3212 N 310.534 5.1282 -2.30158 0
M  V30 3213 H 302.685 1.29879 -1.68063 0
M  V30 3214 H 304.948 0.627896 -0.710247 0
M  V30 3215 H 304.654 2.73944 -2.20561 0
M  V30 3216 H 304.528 3.6984 -0.741477 0
M  V30 3217 H 306.915 2.94959 -0.0910608 0
M  V30 3218 H 306.996 2.00682 -1.5862 0
M  V30 3219 H 306.64 4.1488 -2.9298 0
M  V30 3220 H 306.57 5.074 -1.40898 0
M  V30 3221 H 309.061 3.51241 -1.3942 0
M  V30 3222 H 309.374 6.92859 -3.42295 0
M  V30 3223 H 307.719 6.23415 -3.07212 0
M  V30 3224 H 310.91 4.31899 -1.80501 0
M  V30 3225 H 311.083 5.87689 -2.72993 0
M  V30 3226 N 304.489 0.459591 1.5075 0
M  V30 3227 C 305.736 -0.0993495 2.02256 0
M  V30 3228 C 306.064 -1.40751 1.34237 0
M  V30 3229 O 305.319 -1.90379 0.453228 0
M  V30 3230 C 305.618 -0.342866 3.55752 0
M  V30 3231 C 305.284 0.88218 4.42186 0
M  V30 3232 C 303.946 1.21808 4.65528 0
M  V30 3233 C 306.298 1.69837 4.92752 0
M  V30 3234 C 303.626 2.37045 5.36681 0
M  V30 3235 C 305.978 2.84192 5.65171 0
M  V30 3236 C 304.642 3.1821 5.8677 0
M  V30 3237 H 303.912 -0.0363545 0.740108 0
M  V30 3238 H 306.559 0.611329 1.8148 0
M  V30 3239 H 304.864 -1.13567 3.7498 0
M  V30 3240 H 306.561 -0.789121 3.93159 0
M  V30 3241 H 303.151 0.610467 4.2423 0
M  V30 3242 H 307.335 1.45205 4.74583 0
M  V30 3243 H 302.591 2.63689 5.51614 0
M  V30 3244 H 306.765 3.4779 6.03337 0
M  V30 3245 H 304.392 4.07613 6.41682 0
M  V30 3246 N 305.967 -1.56429 0.191757 0
M  V30 3247 C 306.915 -2.20273 -0.747174 0
M  V30 3248 C 307.909 -1.17288 -1.22229 0
M  V30 3249 O 309.115 -1.35441 -1.18557 0
M  V30 3250 H 305.49 -0.705885 -0.259289 0
M  V30 3251 H 307.461 -2.97826 -0.184963 0
M  V30 3252 C 306.21 -2.87356 -1.95759 0
M  V30 3253 H 305.533 -3.66341 -1.60106 0
M  V30 3254 H 306.973 -3.3547 -2.59299 0
M  V30 3255 C 305.432 -1.88213 -2.79423 0
M  V30 3256 O 305.962 -1.38033 -3.7724 0
M  V30 3257 N 304.168 -1.56516 -2.44849 0
M  V30 3258 H 303.715 -1.97516 -1.65364 0
M  V30 3259 H 303.673 -0.904369 -3.01112 0
M  V30 3260 N 307.445 0.0818655 -1.57387 0
M  V30 3261 C 308.692 0.782914 -1.86753 0
M  V30 3262 C 309.02 1.78082 -0.782118 0
M  V30 3263 O 308.275 1.94426 0.22295 0
M  V30 3264 C 308.574 1.53513 -3.22752 0
M  V30 3265 C 308.24 0.678134 -4.45771 0
M  V30 3266 C 306.902 0.441929 -4.79166 0
M  V30 3267 C 309.254 0.0832243 -5.21134 0
M  V30 3268 C 306.582 -0.398833 -5.85343 0
M  V30 3269 C 308.934 -0.744935 -6.28199 0
M  V30 3270 C 307.598 -0.991107 -6.60101 0
M  V30 3271 H 306.868 0.286489 -0.683378 0
M  V30 3272 H 309.515 0.0439808 -1.91449 0
M  V30 3273 H 307.82 2.34599 -3.138 0
M  V30 3274 H 309.517 2.08218 -3.42705 0
M  V30 3275 H 306.107 0.872357 -4.19628 0
M  V30 3276 H 310.291 0.252847 -4.95655 0
M  V30 3277 H 305.547 -0.598405 -6.08465 0
M  V30 3278 H 309.721 -1.21271 -6.8576 0
M  V30 3279 H 307.348 -1.64437 -7.42202 0
M  V30 3280 N 308.923 1.53595 0.353017 0
M  V30 3281 C 309.856 1.7572 1.45594 0
M  V30 3282 C 310.834 0.605961 1.50887 0
M  V30 3283 O 312.018 0.840023 1.68748 0
M  V30 3284 C 309.145 1.84732 2.83887 0
M  V30 3285 C 308.191 3.06808 2.96262 0
M  V30 3286 S 309.024 4.66065 2.63711 0
M  V30 3287 C 310.18 4.77943 4.04131 0
M  V30 3288 H 310.413 2.68994 1.26608 0
M  V30 3289 H 307.946 1.44343 0.548117 0
M  V30 3290 H 309.904 1.9061 3.63563 0
M  V30 3291 H 308.565 0.92488 3.00175 0
M  V30 3292 H 307.758 3.09761 3.97573 0
M  V30 3293 H 307.36 2.99108 2.24523 0
M  V30 3294 H 309.652 4.5877 4.98534 0
M  V30 3295 H 310.595 5.80022 4.06177 0
M  V30 3296 H 311.003 4.06472 3.91715 0
M  V30 3297 N 310.401 -0.613514 1.45168 0
M  V30 3298 C 311.812 -1.19539 1.43413 0
M  V30 3299 C 312.163 -1.95558 0.158632 0
M  V30 3300 O 311.288 -2.0335 -0.740119 0
M  V30 3301 C 311.883 -2.17445 2.59813 0
M  V30 3302 C 310.442 -2.71022 2.61197 0
M  V30 3303 C 309.589 -1.46323 2.35552 0
M  V30 3304 H 312.54 -0.403163 1.53494 0
M  V30 3305 H 312.561 -3.00373 2.33574 0
M  V30 3306 H 312.073 -1.62089 3.52631 0
M  V30 3307 H 310.174 -3.30332 1.7237 0
M  V30 3308 H 310.287 -3.15859 3.60236 0
M  V30 3309 H 308.651 -1.75072 1.84992 0
M  V30 3310 H 309.434 -0.92844 3.30507 0
M  V30 3311 N 311.879 -1.3236 -0.855495 0
M  V30 3312 C 313.107 -1.2587 -1.64208 0
M  V30 3313 C 313.522 0.173457 -1.88002 0
M  V30 3314 O 312.879 1.11027 -1.44842 0
M  V30 3315 C 312.93 -2.01424 -3.00184 0
M  V30 3316 O 312.651 -3.39051 -2.77445 0
M  V30 3317 C 314.152 -2.01948 -3.94629 0
M  V30 3318 H 311.372 -0.434318 -0.511477 0
M  V30 3319 H 313.916 -1.74469 -1.0668 0
M  V30 3320 H 312.071 -1.56549 -3.5436 0
M  V30 3321 H 312.485 -3.77711 -3.63916 0
M  V30 3322 H 313.959 -2.59297 -4.87308 0
M  V30 3323 H 314.436 -1.00554 -4.27534 0
M  V30 3324 H 315.042 -2.46767 -3.4639 0
M  V30 3325 N 313.357 1.07166 -1.15556 0
M  V30 3326 C 314.305 2.16517 -0.8499 0
M  V30 3327 C 315.299 1.68468 0.177454 0
M  V30 3328 O 316.505 1.79971 0.0323026 0
M  V30 3329 H 312.88 0.706652 -0.25719 0
M  V30 3330 H 314.851 2.39514 -1.77976 0
M  V30 3331 C 313.6 3.45855 -0.357682 0
M  V30 3332 H 312.923 3.83214 -1.13961 0
M  V30 3333 H 314.363 4.23607 -0.182489 0
M  V30 3334 C 312.822 3.24062 0.921152 0
M  V30 3335 O 313.352 3.48813 1.9923 0
M  V30 3336 N 311.558 2.77539 0.86141 0
M  V30 3337 H 311.105 2.57598 -0.0104408 0
M  V30 3338 H 311.063 2.63337 1.71758 0
M  V30 3339 N 314.835 0.952656 1.25548 0
M  V30 3340 C 316.065 0.622592 1.96996 0
M  V30 3341 C 316.473 -0.809112 1.71026 0
M  V30 3342 O 315.816 -1.55258 0.981861 0
M  V30 3343 C 315.878 0.798946 3.5051 0
M  V30 3344 C 315.542 2.20744 4.00151 0
M  V30 3345 C 316.539 3.18394 4.11001 0
M  V30 3346 C 314.224 2.5311 4.33867 0
M  V30 3347 C 316.218 4.46504 4.54877 0
M  V30 3348 C 313.905 3.8145 4.7743 0
M  V30 3349 C 314.903 4.77959 4.87897 0
M  V30 3350 O 314.591 6.04012 5.30494 0
M  V30 3351 H 314.323 0.232503 0.634758 0
M  V30 3352 H 316.877 1.2789 1.60728 0
M  V30 3353 H 315.107 0.0854903 3.86605 0
M  V30 3354 H 316.796 0.47023 4.03167 0
M  V30 3355 H 317.562 2.94715 3.85186 0
M  V30 3356 H 313.441 1.78719 4.24948 0
M  V30 3357 H 316.985 5.21835 4.62962 0
M  V30 3358 H 312.882 4.04936 5.0269 0
M  V30 3359 H 313.65 6.0736 5.48685 0
M  V30 3360 N 316.313 -1.40141 0.720998 0
M  V30 3361 C 317.276 -2.29058 0.0805834 0
M  V30 3362 C 318.276 -1.45632 -0.681758 0
M  V30 3363 O 319.466 -1.6648 -0.512856 0
M  V30 3364 C 316.598 -3.28925 -0.895593 0
M  V30 3365 H 317.791 -2.87191 0.863793 0
M  V30 3366 H 315.344 -1.48553 0.485975 0
M  V30 3367 H 316.079 -2.75822 -1.70566 0
M  V30 3368 H 315.864 -3.90519 -0.351766 0
M  V30 3369 H 317.354 -3.95494 -1.34069 0
M  V30 3370 N 317.792 -0.46758 -1.50504 0
M  V30 3371 C 319.039 0.0886219 -2.02306 0
M  V30 3372 C 319.367 1.40037 -1.34981 0
M  V30 3373 O 318.622 1.90136 -0.463318 0
M  V30 3374 C 318.921 0.323995 -3.55928 0
M  V30 3375 C 318.587 -0.905618 -4.41712 0
M  V30 3376 C 317.249 -1.24275 -4.64875 0
M  V30 3377 C 319.601 -1.72448 -4.91845 0
M  V30 3378 C 316.929 -2.39888 -5.35417 0
M  V30 3379 C 319.281 -2.87185 -5.63656 0
M  V30 3380 C 317.945 -3.21317 -5.85074 0
M  V30 3381 H 317.215 0.0324291 -0.74029 0
M  V30 3382 H 319.862 -0.620945 -1.81153 0
M  V30 3383 H 318.167 1.11577 -3.75577 0
M  V30 3384 H 319.864 0.76826 -3.93572 0
M  V30 3385 H 316.454 -0.632956 -4.239 0
M  V30 3386 H 320.638 -1.4772 -4.73806 0
M  V30 3387 H 315.894 -2.66611 -5.50208 0
M  V30 3388 H 320.068 -3.50985 -6.01484 0
M  V30 3389 H 317.695 -4.1101 -6.39511 0
M  V30 3390 N 319.27 1.56325 -0.20005 0
M  V30 3391 C 320.203 2.15234 0.758267 0
M  V30 3392 C 321.181 1.09046 1.20614 0
M  V30 3393 O 322.365 1.37186 1.29276 0
M  V30 3394 C 319.492 2.71524 2.02466 0
M  V30 3395 C 318.538 3.90345 1.71852 0
M  V30 3396 S 319.371 5.28513 0.862249 0
M  V30 3397 C 320.527 5.88227 2.13868 0
M  V30 3398 H 320.76 2.96183 0.2575 0
M  V30 3399 H 318.293 1.54393 0.0150099 0
M  V30 3400 H 320.251 3.04598 2.75191 0
M  V30 3401 H 318.912 1.90607 2.49655 0
M  V30 3402 H 318.105 4.28158 2.65888 0
M  V30 3403 H 317.707 3.58306 1.07205 0
M  V30 3404 H 319.999 6.02891 3.09076 0
M  V30 3405 H 320.942 6.84714 1.80479 0
M  V30 3406 H 321.35 5.16874 2.2694 0
M  V30 3407 N 320.748 -0.0735177 1.57428 0
M  V30 3408 C 321.711 -1.07192 2.02589 0
M  V30 3409 C 322.711 -1.31695 0.922661 0
M  V30 3410 O 323.901 -1.27445 1.18758 0
M  V30 3411 C 321.033 -2.41599 2.40506 0
M  V30 3412 H 322.226 -0.682727 2.92025 0
M  V30 3413 H 319.779 -0.319193 1.53006 0
M  V30 3414 H 320.514 -2.85354 1.5409 0
M  V30 3415 H 320.299 -2.25156 3.21009 0
M  V30 3416 H 321.789 -3.13367 2.76027 0
M  V30 3417 N 322.226 -1.5378 -0.344866 0
M  V30 3418 C 323.174 -1.82373 -1.4437 0
M  V30 3419 C 324.168 -0.694128 -1.54526 0
M  V30 3420 O 325.374 -0.877442 -1.57165 0
M  V30 3421 H 321.749 -0.577765 -0.481344 0
M  V30 3422 H 323.72 -2.74306 -1.17468 0
M  V30 3423 C 322.469 -2.04898 -2.80913 0
M  V30 3424 H 321.792 -2.9127 -2.73865 0
M  V30 3425 H 323.232 -2.28871 -3.56923 0
M  V30 3426 C 321.691 -0.834116 -3.26411 0
M  V30 3427 O 322.221 -0.0328885 -4.01687 0
M  V30 3428 N 320.427 -0.65171 -2.83198 0
M  V30 3429 H 319.974 -1.30489 -2.22104 0
M  V30 3430 H 319.932 0.159686 -3.13994 0
M  V30 3431 N 323.704 0.605807 -1.45491 0
M  V30 3432 C 325.12 0.926751 -1.29936 0
M  V30 3433 C 325.32 1.99896 -0.253706 0
M  V30 3434 O 324.376 2.50038 0.351737 0
M  V30 3435 C 325.689 1.36599 -2.67883 0
M  V30 3436 C 327.237 1.4801 -2.75793 0
M  V30 3437 C 327.712 1.95309 -4.14268 0
M  V30 3438 N 329.203 2.0254 -4.16571 0
M  V30 3439 C 329.938 2.40363 -5.20589 0
M  V30 3440 N 329.434 2.77143 -6.34952 0
M  V30 3441 N 331.227 2.40718 -5.07948 0
M  V30 3442 H 323.378 -0.102862 -2.12151 0
M  V30 3443 H 325.641 0.016639 -0.947854 0
M  V30 3444 H 325.347 0.652306 -3.45598 0
M  V30 3445 H 325.221 2.33215 -2.96463 0
M  V30 3446 H 327.608 2.1847 -1.98381 0
M  V30 3447 H 327.689 0.497041 -2.50925 0
M  V30 3448 H 327.333 1.25436 -4.92167 0
M  V30 3449 H 327.263 2.94532 -4.3653 0
M  V30 3450 H 329.754 1.76699 -3.34045 0
M  V30 3451 H 330.067 3.0489 -7.10114 0
M  V30 3452 H 328.412 2.74834 -6.3835 0
M  V30 3453 H 331.603 2.11392 -4.1765 0
M  V30 3454 H 331.776 2.69869 -5.89131 0
M  V30 3455 N 325.182 1.32811 0.848464 0
M  V30 3456 C 326.429 1.23724 1.60308 0
M  V30 3457 C 326.757 -0.1994 1.93475 0
M  V30 3458 O 326.012 -1.15406 1.5805 0
M  V30 3459 C 326.311 2.04831 2.92881 0
M  V30 3460 C 325.977 3.54125 2.79117 0
M  V30 3461 C 324.639 3.94829 2.7507 0
M  V30 3462 C 326.991 4.49036 2.64606 0
M  V30 3463 C 324.319 5.28675 2.544 0
M  V30 3464 C 326.671 5.83033 2.4547 0
M  V30 3465 C 325.335 6.22931 2.39819 0
M  V30 3466 H 324.605 0.452737 0.586609 0
M  V30 3467 H 327.252 1.64301 0.983743 0
M  V30 3468 H 325.557 1.57001 3.58968 0
M  V30 3469 H 327.254 1.95164 3.50303 0
M  V30 3470 H 323.844 3.21801 2.83094 0
M  V30 3471 H 328.028 4.18505 2.66772 0
M  V30 3472 H 323.284 5.58637 2.48465 0
M  V30 3473 H 327.458 6.56186 2.33222 0
M  V30 3474 H 325.085 7.26584 2.23562 0
M  V30 3475 N 326.66 -1.06551 1.16123 0
M  V30 3476 C 327.623 -2.12132 0.867906 0
M  V30 3477 C 328.623 -1.60224 -0.135944 0
M  V30 3478 O 329.813 -1.73943 0.0946422 0
M  V30 3479 C 326.945 -3.396 0.297419 0
M  V30 3480 H 328.138 -2.39586 1.80385 0
M  V30 3481 H 325.691 -1.22574 0.969812 0
M  V30 3482 H 326.426 -3.17794 -0.64633 0
M  V30 3483 H 326.211 -3.78581 1.02073 0
M  V30 3484 H 327.701 -4.17455 0.110052 0
M  V30 3485 N 328.138 -0.959301 -1.25041 0
M  V30 3486 C 329.363 -0.633507 -1.97488 0
M  V30 3487 C 329.788 0.788555 -1.70773 0
M  V30 3488 O 329.146 1.53394 -0.966431 0
M  V30 3489 C 329.194 -0.904057 -3.49083 0
M  V30 3490 O 328.298 0.0147939 -4.12397 0
M  V30 3491 H 327.639 -0.240368 -0.618966 0
M  V30 3492 H 330.169 -1.28717 -1.59038 0
M  V30 3493 H 330.179 -0.832203 -3.99423 0
M  V30 3494 H 328.854 -1.94048 -3.67856 0
M  V30 3495 H 327.431 -0.109664 -3.72739 0
M  V30 3496 N 329.616 1.39756 -0.72842 0
M  V30 3497 C 331.032 1.5442 -0.403308 0
M  V30 3498 C 331.232 1.69694 1.08656 0
M  V30 3499 O 330.288 1.69373 1.87267 0
M  V30 3500 C 331.601 2.76555 -1.18058 0
M  V30 3501 C 333.149 2.90384 -1.16815 0
M  V30 3502 C 333.624 4.15449 -1.92785 0
M  V30 3503 N 335.115 4.22475 -1.89918 0
M  V30 3504 C 335.85 5.1818 -2.45514 0
M  V30 3505 N 335.346 6.19714 -3.09719 0
M  V30 3506 N 337.139 5.1035 -2.35584 0
M  V30 3507 H 329.29 1.28089 -1.69431 0
M  V30 3508 H 331.553 0.620327 -0.716867 0
M  V30 3509 H 331.259 2.7159 -2.23455 0
M  V30 3510 H 331.133 3.69033 -0.780662 0
M  V30 3511 H 333.52 2.94846 -0.12234 0
M  V30 3512 H 333.601 1.98988 -1.6074 0
M  V30 3513 H 333.245 4.11749 -2.97364 0
M  V30 3514 H 333.175 5.05877 -1.46272 0
M  V30 3515 H 335.666 3.49743 -1.43138 0
M  V30 3516 H 335.979 6.8919 -3.49625 0
M  V30 3517 H 334.324 6.20121 -3.13807 0
M  V30 3518 H 337.515 4.2996 -1.85072 0
M  V30 3519 H 337.688 5.84761 -2.79211 0
M  V30 3520 N 331.094 0.475555 1.50254 0
M  V30 3521 C 332.044 -0.335025 2.25525 0
M  V30 3522 C 333.028 -0.957625 1.29299 0
M  V30 3523 O 334.22 -0.869436 1.54175 0
M  V30 3524 C 331.349 -1.41385 3.12834 0
M  V30 3525 C 330.435 -0.798762 4.1651 0
M  V30 3526 N 330.826 0.0835815 5.05731 0
M  V30 3527 C 329.124 -1.06221 4.33166 0
M  V30 3528 C 329.825 0.433113 5.80085 0
M  V30 3529 N 328.801 -0.1928 5.43258 0
M  V30 3530 H 332.603 0.344612 2.91873 0
M  V30 3531 H 330.117 0.289986 1.5979 0
M  V30 3532 H 332.114 -2.00777 3.65368 0
M  V30 3533 H 330.774 -2.09543 2.48036 0
M  V30 3534 H 331.785 0.452715 5.15918 0
M  V30 3535 H 328.462 -1.73844 3.79585 0
M  V30 3536 H 329.852 1.15346 6.61925 0
M  V30 3537 N 332.573 -1.56217 0.208337 0
M  V30 3538 C 333.801 -2.02337 -0.43215 0
M  V30 3539 C 334.216 -1.08834 -1.54275 0
M  V30 3540 O 333.573 -0.0955462 -1.8225 0
M  V30 3541 C 333.624 -3.48072 -0.976138 0
M  V30 3542 O 333.345 -4.38007 0.0901621 0
M  V30 3543 C 334.846 -4.09773 -1.69119 0
M  V30 3544 H 332.066 -0.662385 -0.10718 0
M  V30 3545 H 334.61 -2.01966 0.320923 0
M  V30 3546 H 332.765 -3.49099 -1.67954 0
M  V30 3547 H 333.179 -5.23543 -0.316701 0
M  V30 3548 H 334.653 -5.13556 -2.02397 0
M  V30 3549 H 335.13 -3.53999 -2.59964 0
M  V30 3550 H 335.736 -4.12556 -1.03332 0
M  V30 3551 N 334.051 0.0651679 -1.57465 0
M  V30 3552 C 335.328 0.79644 -1.78651 0
M  V30 3553 C 335.708 1.95454 -0.797566 0
M  V30 3554 O 335.056 2.27882 0.167946 0
M  V30 3555 C 335.266 1.26322 -3.25337 0
M  V30 3556 C 336.614 1.6939 -3.89348 0
M  V30 3557 O 337.638 1.35872 -3.29268 0
M  V30 3558 O 336.497 2.31471 -4.95059 0
M  V30 3559 H 333.591 0.382157 -0.733407 0
M  V30 3560 H 336.137 0.0447311 -1.69641 0
M  V30 3561 H 334.909 0.434859 -3.88876 0
M  V30 3562 H 334.532 2.07604 -3.39096 0
M  V30 3563 N 335.529 1.53961 0.336706 0
M  V30 3564 C 336.94 1.62914 0.911925 0
M  V30 3565 C 337.291 0.514795 1.89326 0
M  V30 3566 O 336.416 -0.354395 2.13478 0
M  V30 3567 C 337.011 2.95304 1.66076 0
M  V30 3568 C 335.57 3.06496 2.18489 0
M  V30 3569 C 334.717 2.58403 1.00613 0
M  V30 3570 H 337.668 1.58285 0.114649 0
M  V30 3571 H 337.689 2.84727 2.5241 0
M  V30 3572 H 337.201 3.76387 0.946276 0
M  V30 3573 H 335.302 2.3006 2.93092 0
M  V30 3574 H 335.415 4.1208 2.44391 0
M  V30 3575 H 333.779 2.13977 1.38152 0
M  V30 3576 H 334.562 3.41932 0.306179 0
M  V30 3577 N 337.007 -0.598083 1.45811 0
M  V30 3578 C 337.937 -1.71873 1.58057 0
M  V30 3579 C 338.918 -1.64533 0.431615 0
M  V30 3580 O 340.103 -1.82787 0.65595 0
M  V30 3581 C 337.233 -3.10495 1.55597 0
M  V30 3582 C 336.187 -3.32654 2.69305 0
M  V30 3583 C 335.513 -4.71646 2.51902 0
M  V30 3584 C 336.813 -3.21981 4.11248 0
M  V30 3585 H 338.507 -1.61881 2.51863 0
M  V30 3586 H 336.053 -0.777372 1.21214 0
M  V30 3587 H 338.006 -3.88699 1.6276 0
M  V30 3588 H 336.73 -3.2135 0.583255 0
M  V30 3589 H 335.389 -2.56843 2.61586 0
M  V30 3590 H 335.037 -4.79246 1.52748 0
M  V30 3591 H 334.737 -4.87426 3.2816 0
M  V30 3592 H 336.261 -5.52038 2.60933 0
M  V30 3593 H 337.675 -3.90049 4.20161 0
M  V30 3594 H 336.072 -3.49289 4.87972 0
M  V30 3595 H 337.142 -2.1928 4.32486 0
M  V30 3596 N 338.485 -1.33259 -0.841409 0
M  V30 3597 C 339.715 -1.2742 -1.62628 0
M  V30 3598 C 340.123 0.157604 -1.88542 0
M  V30 3599 O 339.466 1.10938 -1.46419 0
M  V30 3600 C 339.528 -1.97797 -3.00194 0
M  V30 3601 C 339.192 -3.47109 -2.97261 0
M  V30 3602 C 340.189 -4.42358 -2.73159 0
M  V30 3603 C 337.874 -3.89247 -3.17478 0
M  V30 3604 C 339.868 -5.77718 -2.69296 0
M  V30 3605 C 337.555 -5.24713 -3.13241 0
M  V30 3606 C 338.553 -6.1876 -2.89181 0
M  V30 3607 O 338.241 -7.51745 -2.84843 0
M  V30 3608 H 337.973 -0.440436 -0.512827 0
M  V30 3609 H 340.527 -1.76153 -1.05638 0
M  V30 3610 H 338.757 -1.43652 -3.59028 0
M  V30 3611 H 340.446 -1.8549 -3.61038 0
M  V30 3612 H 341.212 -4.11127 -2.57294 0
M  V30 3613 H 337.091 -3.16456 -3.35226 0
M  V30 3614 H 340.635 -6.51097 -2.50436 0
M  V30 3615 H 336.532 -5.55569 -3.28654 0
M  V30 3616 H 337.3 -7.61262 -3.00702 0
M  V30 3617 N 339.963 1.05934 -1.16686 0
M  V30 3618 C 341.379 1.30938 -0.912542 0
M  V30 3619 C 341.579 1.96803 0.432533 0
M  V30 3620 O 340.635 2.23693 1.17123 0
M  V30 3621 C 341.948 2.18649 -2.06429 0
M  V30 3622 C 343.496 2.32055 -2.10047 0
M  V30 3623 C 343.971 3.23122 -3.24586 0
M  V30 3624 N 345.462 3.30706 -3.24327 0
M  V30 3625 C 346.197 4.01273 -4.09594 0
M  V30 3626 N 345.693 4.74332 -5.04956 0
M  V30 3627 N 347.486 3.97361 -3.97569 0
M  V30 3628 H 339.637 0.615777 -2.03278 0
M  V30 3629 H 341.9 0.334077 -0.887185 0
M  V30 3630 H 341.606 1.77534 -3.03603 0
M  V30 3631 H 341.48 3.19252 -2.00894 0
M  V30 3632 H 343.867 2.72415 -1.13464 0
M  V30 3633 H 343.948 1.31107 -2.19647 0
M  V30 3634 H 343.592 2.83477 -4.2143 0
M  V30 3635 H 343.522 4.24057 -3.12223 0
M  V30 3636 H 346.013 2.78644 -2.55276 0
M  V30 3637 H 346.326 5.25716 -5.6643 0
M  V30 3638 H 344.671 4.733 -5.08933 0
M  V30 3639 H 347.862 3.39405 -3.22369 0
M  V30 3640 H 348.035 4.52089 -4.64241 0
M  V30 3641 N 341.441 0.965919 1.2453 0
M  V30 3642 C 342.718 0.543777 1.87889 0
M  V30 3643 C 343.098 -0.97909 1.87021 0
M  V30 3644 O 342.446 -1.84969 1.3416 0
M  V30 3645 C 342.656 1.13327 3.30088 0
M  V30 3646 C 344.004 1.21707 4.06783 0
M  V30 3647 O 345.028 1.08566 3.39252 0
M  V30 3648 O 343.887 1.42456 5.27606 0
M  V30 3649 H 340.981 0.181054 0.806938 0
M  V30 3650 H 343.527 1.06007 1.32516 0
M  V30 3651 H 342.299 2.17612 3.25209 0
M  V30 3652 H 341.922 0.600911 3.93033 0
M  V30 3653 N 342.919 -1.39368 0.735821 0
M  V30 3654 C 344.335 -1.54204 0.411492 0
M  V30 3655 C 344.535 -1.70268 -1.07755 0
M  V30 3656 O 343.591 -1.70364 -1.86366 0
M  V30 3657 C 344.904 -2.75925 1.19523 0
M  V30 3658 C 346.452 -2.89761 1.18354 0
M  V30 3659 C 346.927 -4.14421 1.94986 0
M  V30 3660 N 348.418 -4.21462 1.92156 0
M  V30 3661 C 349.153 -5.16871 2.48258 0
M  V30 3662 N 348.649 -6.18063 3.13001 0
M  V30 3663 N 350.442 -5.09093 2.38287 0
M  V30 3664 H 342.593 -1.27189 1.70108 0
M  V30 3665 H 344.856 -0.616517 0.720147 0
M  V30 3666 H 344.562 -2.70401 2.24892 0
M  V30 3667 H 344.436 -3.68614 0.800222 0
M  V30 3668 H 346.823 -2.94777 0.137975 0
M  V30 3669 H 346.904 -1.98133 1.61793 0
M  V30 3670 H 346.548 -4.10166 2.99543 0
M  V30 3671 H 346.478 -5.05095 1.48953 0
M  V30 3672 H 348.969 -3.48979 1.44991 0
M  V30 3673 H 349.282 -6.87326 3.53275 0
M  V30 3674 H 347.627 -6.18448 3.17091 0
M  V30 3675 H 350.818 -4.28973 1.8735 0
M  V30 3676 H 350.991 -5.83272 2.82308 0
M  V30 3677 N 344.397 -0.483516 -1.5 0
M  V30 3678 C 345.625 0.0644831 -2.06799 0
M  V30 3679 C 346.04 1.32399 -1.34596 0
M  V30 3680 O 345.397 1.77626 -0.418946 0
M  V30 3681 C 345.448 0.339927 -3.59898 0
M  V30 3682 O 345.169 -0.869635 -4.29382 0
M  V30 3683 C 346.67 0.933515 -4.33359 0
M  V30 3684 H 343.89 -0.0126333 -0.670881 0
M  V30 3685 H 346.434 -0.675864 -1.93009 0
M  V30 3686 H 344.589 1.03022 -3.7345 0
M  V30 3687 H 345.003 -0.62179 -5.20801 0
M  V30 3688 H 346.477 1.07593 -5.41413 0
M  V30 3689 H 346.954 1.92685 -3.94676 0
M  V30 3690 H 347.56 0.281221 -4.24369 0
M  V30 3691 N 345.875 1.56104 -0.216619 0
M  V30 3692 C 346.823 2.21434 0.712036 0
M  V30 3693 C 347.817 1.19218 1.20348 0
M  V30 3694 O 349.023 1.3731 1.16387 0
M  V30 3695 H 345.398 0.70992 0.248026 0
M  V30 3696 H 347.369 2.98083 0.137558 0
M  V30 3697 C 346.118 2.90434 1.91163 0
M  V30 3698 H 345.441 3.68842 1.54258 0
M  V30 3699 H 346.881 3.39552 2.5393 0
M  V30 3700 C 345.34 1.92635 2.76394 0
M  V30 3701 O 345.87 1.44017 3.74996 0
M  V30 3702 N 344.076 1.60392 2.42328 0
M  V30 3703 H 343.623 2.00122 1.622 0
M  V30 3704 H 343.581 0.952159 2.99635 0
M  V30 3705 N 347.353 -0.0568162 1.57498 0
M  V30 3706 C 348.581 -0.765626 1.92213 0
M  V30 3707 C 348.996 -1.70353 0.813961 0
M  V30 3708 O 348.353 -1.81268 -0.211701 0
M  V30 3709 C 348.404 -1.5465 3.2675 0
M  V30 3710 O 348.125 -0.646278 4.33307 0
M  V30 3711 C 349.626 -2.35497 3.75574 0
M  V30 3712 H 346.846 -0.216835 0.634999 0
M  V30 3713 H 349.39 -0.0226146 2.04487 0
M  V30 3714 H 347.545 -2.24165 3.15957 0
M  V30 3715 H 347.959 -1.19093 5.108 0
M  V30 3716 H 349.433 -2.85722 4.72299 0
M  V30 3717 H 349.91 -3.15692 3.05344 0
M  V30 3718 H 350.516 -1.7111 3.8936 0
M  V30 3719 N 348.832 -1.54138 -0.328536 0
M  V30 3720 C 350.078 -1.7236 -1.06865 0
M  V30 3721 C 350.411 -0.493231 -1.87832 0
M  V30 3722 O 349.686 0.5098 -1.877 0
M  V30 3723 C 349.969 -2.99621 -1.99747 0
M  V30 3724 C 349.822 -4.32899 -1.22143 0
M  V30 3725 C 351.141 -3.22615 -2.99345 0
M  V30 3726 H 348.26 -0.627151 -0.387105 0
M  V30 3727 H 350.902 -1.86827 -0.345767 0
M  V30 3728 H 349.052 -2.87418 -2.61387 0
M  V30 3729 H 350.724 -4.56978 -0.630017 0
M  V30 3730 H 348.967 -4.30628 -0.523628 0
M  V30 3731 H 349.638 -5.18154 -1.90318 0
M  V30 3732 H 352.114 -3.34248 -2.47826 0
M  V30 3733 H 350.99 -4.13027 -3.61524 0
M  V30 3734 H 351.251 -2.3961 -3.71536 0
M  V30 3735 N 350.31 0.590341 -1.46126 0
M  V30 3736 C 351.243 1.71434 -1.50617 0
M  V30 3737 C 352.221 1.58543 -0.360948 0
M  V30 3738 O 353.405 1.79865 -0.563985 0
M  V30 3739 C 350.532 3.09422 -1.37753 0
M  V30 3740 C 349.578 3.40854 -2.5636 0
M  V30 3741 S 350.411 3.33773 -4.18755 0
M  V30 3742 C 351.567 4.74312 -4.08386 0
M  V30 3743 H 351.8 1.67364 -2.45717 0
M  V30 3744 H 349.333 0.76845 -1.33919 0
M  V30 3745 H 351.291 3.8903 -1.31018 0
M  V30 3746 H 349.952 3.10989 -0.440949 0
M  V30 3747 H 349.145 4.41368 -2.43332 0
M  V30 3748 H 348.747 2.68798 -2.60046 0
M  V30 3749 H 351.039 5.64522 -3.74595 0
M  V30 3750 H 351.982 4.92397 -5.08872 0
M  V30 3751 H 352.39 4.50803 -3.3976 0
M  V30 3752 N 351.788 1.33704 0.83433 0
M  V30 3753 C 353.199 1.22813 1.4062 0
M  V30 3754 C 353.55 -0.151107 1.95617 0
M  V30 3755 O 352.675 -1.05092 1.89168 0
M  V30 3756 C 353.27 2.22355 2.55624 0
M  V30 3757 C 351.829 2.1529 3.08751 0
M  V30 3758 C 350.976 2.09589 1.8157 0
M  V30 3759 H 353.927 1.45236 0.639702 0
M  V30 3760 H 353.948 1.83391 3.33389 0
M  V30 3761 H 353.46 3.22728 2.15566 0
M  V30 3762 H 351.561 1.18235 3.53343 0
M  V30 3763 H 351.674 3.06038 3.68616 0
M  V30 3764 H 350.038 1.55134 2.02004 0
M  V30 3765 H 350.821 3.11777 1.43701 0
M  V30 3766 N 353.266 -1.05314 1.17247 0
M  V30 3767 C 354.512 -1.78557 0.961513 0
M  V30 3768 C 354.845 -1.87419 -0.508697 0
M  V30 3769 O 354.12 -1.37307 -1.37757 0
M  V30 3770 C 354.403 -3.22514 1.60176 0
M  V30 3771 C 354.256 -3.21673 3.14399 0
M  V30 3772 C 355.575 -4.20318 1.30463 0
M  V30 3773 H 352.694 -0.6482 0.350723 0
M  V30 3774 H 355.336 -1.23102 1.44727 0
M  V30 3775 H 353.486 -3.69867 1.18871 0
M  V30 3776 H 355.158 -2.82405 3.64753 0
M  V30 3777 H 353.401 -2.60048 3.47214 0
M  V30 3778 H 354.072 -4.23271 3.54324 0
M  V30 3779 H 356.548 -3.81454 1.66229 0
M  V30 3780 H 355.424 -5.19289 1.77848 0
M  V30 3781 H 355.685 -4.41526 0.22521 0
M  V30 3782 N 354.744 -0.972509 -1.24016 0
M  V30 3783 C 355.707 -0.511403 -2.23422 0
M  V30 3784 C 356.707 0.394679 -1.55881 0
M  V30 3785 O 357.897 0.189469 -1.73167 0
M  V30 3786 C 355.029 0.258769 -3.39916 0
M  V30 3787 H 356.222 -1.39024 -2.6573 0
M  V30 3788 H 353.775 -0.757585 -1.36713 0
M  V30 3789 H 354.51 1.1545 -3.03054 0
M  V30 3790 H 354.295 -0.391522 -3.9014 0
M  V30 3791 H 355.785 0.570244 -4.13688 0
M  V30 3792 N 356.222 1.38976 -0.743202 0
M  V30 3793 C 357.468 2.0064 -0.295189 0
M  V30 3794 C 357.801 1.5885 1.11716 0
M  V30 3795 O 357.076 0.821181 1.76315 0
M  V30 3796 C 357.359 3.578 -0.406318 0
M  V30 3797 C 357.212 4.09586 -1.85903 0
M  V30 3798 C 358.531 4.39616 0.206439 0
M  V30 3799 H 355.65 0.728935 -0.108733 0
M  V30 3800 H 358.292 1.65067 -0.940897 0
M  V30 3801 H 356.442 3.88235 0.143419 0
M  V30 3802 H 358.114 3.89837 -2.46627 0
M  V30 3803 H 356.357 3.6284 -2.3776 0
M  V30 3804 H 357.028 5.18708 -1.888 0
M  V30 3805 H 359.504 4.15273 -0.262283 0
M  V30 3806 H 358.38 5.48812 0.0983819 0
M  V30 3807 H 358.641 4.22754 1.2935 0
M  V30 3808 N 357.7 0.491464 1.49741 0
M  V30 3809 C 358.925 -0.0557177 2.07325 0
M  V30 3810 C 359.35 -1.30925 1.35056 0
M  V30 3811 O 358.708 -1.76733 0.404365 0
M  V30 3812 C 358.756 -0.302074 3.59333 0
M  V30 3813 O 357.86 -1.37868 3.88672 0
M  V30 3814 H 357.201 0.0219956 0.663636 0
M  V30 3815 H 359.731 0.688352 1.92673 0
M  V30 3816 H 359.741 -0.536464 4.04458 0
M  V30 3817 H 358.416 0.61383 4.11345 0
M  V30 3818 H 356.993 -1.12999 3.55367 0
M  V30 3819 N 359.178 -1.55987 0.224894 0
M  V30 3820 C 360.128 -2.17076 -0.697296 0
M  V30 3821 C 361.112 -1.12006 -1.15514 0
M  V30 3822 O 362.304 -1.37985 -1.10857 0
M  V30 3823 C 359.433 -2.85679 -1.90374 0
M  V30 3824 C 358.519 -3.97977 -1.46543 0
M  V30 3825 N 358.91 -5.00359 -0.739909 0
M  V30 3826 C 357.208 -4.10128 -1.75245 0
M  V30 3827 C 357.909 -5.79407 -0.515939 0
M  V30 3828 N 356.885 -5.32892 -1.07364 0
M  V30 3829 H 360.687 -2.93592 -0.134594 0
M  V30 3830 H 358.201 -1.62379 0.0262885 0
M  V30 3831 H 360.198 -3.27857 -2.57518 0
M  V30 3832 H 358.858 -2.1066 -2.47088 0
M  V30 3833 H 359.869 -5.16412 -0.392253 0
M  V30 3834 H 356.546 -3.46263 -2.33255 0
M  V30 3835 H 357.936 -6.71872 0.0617349 0
M  V30 3836 N 360.656 0.0484629 -1.57525 0
M  V30 3837 C 361.886 0.754326 -1.92337 0
M  V30 3838 C 362.294 1.70443 -0.82132 0
M  V30 3839 O 361.637 1.82466 0.21254 0
M  V30 3840 C 361.699 1.58231 -3.22805 0
M  V30 3841 C 361.363 0.799074 -4.4996 0
M  V30 3842 C 362.36 0.1079 -5.19788 0
M  V30 3843 C 360.045 0.759345 -4.96527 0
M  V30 3844 C 362.039 -0.612516 -6.3445 0
M  V30 3845 C 359.726 0.0351713 -6.1109 0
M  V30 3846 C 360.724 -0.649537 -6.79904 0
M  V30 3847 O 360.412 -1.36199 -7.92278 0
M  V30 3848 H 360.144 0.218257 -0.639797 0
M  V30 3849 H 362.698 0.0159295 -2.05394 0
M  V30 3850 H 360.928 2.36406 -3.06021 0
M  V30 3851 H 362.617 2.16898 -3.43089 0
M  V30 3852 H 363.383 0.129748 -4.84826 0
M  V30 3853 H 359.262 1.28177 -4.42822 0
M  V30 3854 H 362.806 -1.14751 -6.88097 0
M  V30 3855 H 358.703 0.0113314 -6.45499 0
M  V30 3856 H 359.471 -1.27366 -8.0853 0
M  V30 3857 N 362.134 1.5431 0.320358 0
M  V30 3858 C 363.374 1.74395 1.0661 0
M  V30 3859 C 363.738 0.508602 1.85141 0
M  V30 3860 O 364.939 0.586856 2.62316 0
M  V30 3861 C 363.21 2.98619 1.96371 0
M  V30 3862 S 364.769 3.39621 2.77854 0
M  V30 3863 H 361.587 0.613204 0.359863 0
M  V30 3864 H 364.189 1.9249 0.341727 0
M  V30 3865 H 362.893 3.86673 1.3752 0
M  V30 3866 H 362.424 2.83055 2.73209 0
M  V30 3867 H 364.439 2.95172 3.98858 0
M  V30 3868 N 363.613 -0.582584 1.46437 0
M  V30 3869 C 364.861 -1.33814 1.51453 0
M  V30 3870 C 365.182 -1.94277 0.167792 0
M  V30 3871 O 364.452 -1.78566 -0.805677 0
M  V30 3872 H 363.032 -0.496838 0.557818 0
M  V30 3873 H 365.694 -0.682281 1.82568 0
M  V30 3874 H 364.79 -2.14479 2.26728 0
M  V30 3875 N 365.091 -1.34144 -0.827227 0
M  V30 3876 C 366.502 -1.23557 -1.39966 0
M  V30 3877 C 366.853 0.140731 -1.95695 0
M  V30 3878 O 365.978 1.04087 -1.89723 0
M  V30 3879 C 366.573 -2.23708 -2.54441 0
M  V30 3880 C 365.132 -2.16924 -3.07605 0
M  V30 3881 C 364.279 -2.10549 -1.80456 0
M  V30 3882 H 367.23 -1.45573 -0.631991 0
M  V30 3883 H 367.251 -1.85157 -3.32411 0
M  V30 3884 H 366.763 -3.23866 -2.13851 0
M  V30 3885 H 364.864 -1.20107 -3.52711 0
M  V30 3886 H 364.977 -3.07988 -3.66988 0
M  V30 3887 H 363.341 -1.56203 -2.01178 0
M  V30 3888 H 364.124 -3.12535 -1.42046 0
M  V30 3889 N 366.569 1.04691 -1.17803 0
M  V30 3890 C 367.532 2.10724 -0.901545 0
M  V30 3891 C 368.532 1.6042 0.110437 0
M  V30 3892 O 369.722 1.7377 -0.122303 0
M  V30 3893 C 366.854 3.39084 -0.351409 0
M  V30 3894 H 368.047 2.36686 -1.84174 0
M  V30 3895 H 365.6 1.21015 -0.98919 0
M  V30 3896 H 366.335 3.18782 0.59569 0
M  V30 3897 H 366.12 3.76909 -1.08083 0
M  V30 3898 H 367.61 4.17227 -0.176451 0
M  V30 3899 N 368.047 0.979072 1.23499 0
M  V30 3900 C 368.994 0.517904 2.24914 0
M  V30 3901 C 369.964 -0.442525 1.60097 0
M  V30 3902 O 371.149 -0.350365 1.87556 0
M  V30 3903 C 368.289 -0.174813 3.44657 0
M  V30 3904 C 367.402 0.825721 4.24035 0
M  V30 3905 C 366.537 0.107946 5.3109 0
M  V30 3906 C 365.576 1.09778 6.02175 0
M  V30 3907 N 364.713 0.40925 7.00906 0
M  V30 3908 H 369.553 1.38751 2.63727 0
M  V30 3909 H 367.09 0.695303 1.2963 0
M  V30 3910 H 369.048 -0.593233 4.12961 0
M  V30 3911 H 367.678 -1.0083 3.06648 0
M  V30 3912 H 366.73 1.36253 3.55161 0
M  V30 3913 H 368.042 1.58005 4.73113 0
M  V30 3914 H 367.196 -0.367904 6.05583 0
M  V30 3915 H 365.935 -0.678994 4.8295 0
M  V30 3916 H 364.94 1.5844 5.26476 0
M  V30 3917 H 366.165 1.88536 6.52404 0
M  V30 3918 H 364.111 -0.358506 6.5502 0
M  V30 3919 H 364.028 1.10226 7.47921 0
M  V30 3920 H 365.296 -0.0442557 7.79487 0
M  V30 3921 N 369.525 -1.3858 0.750561 0
M  V30 3922 C 370.936 -1.82927 0.373438 0
M  V30 3923 C 371.287 -1.62634 -1.09748 0
M  V30 3924 O 370.412 -1.12588 -1.84805 0
M  V30 3925 C 371.007 -3.32088 0.671029 0
M  V30 3926 C 369.566 -3.74795 0.34722 0
M  V30 3927 C 368.713 -2.61391 0.92575 0
M  V30 3928 H 371.664 -1.27351 0.946958 0
M  V30 3929 H 371.685 -3.80465 -0.0518269 0
M  V30 3930 H 371.197 -3.46826 1.74164 0
M  V30 3931 H 369.298 -3.65638 -0.716933 0
M  V30 3932 H 369.411 -4.71667 0.840656 0
M  V30 3933 H 367.775 -2.52265 0.351327 0
M  V30 3934 H 368.558 -2.78929 2.00133 0
M  V30 3935 N 371.003 -0.499398 -1.49478 0
M  V30 3936 C 372.249 0.0377587 -2.03365 0
M  V30 3937 C 372.604 1.3484 -1.37244 0
M  V30 3938 O 371.897 1.85 -0.498547 0
M  V30 3939 C 372.091 0.248424 -3.56536 0
M  V30 3940 C 371.92 -1.04025 -4.37503 0
M  V30 3941 C 370.69 -1.59159 -4.79579 0
M  V30 3942 C 372.888 -1.9431 -4.76181 0
M  V30 3943 N 370.87 -2.82634 -5.44969 0
M  V30 3944 C 372.241 -3.02364 -5.41272 0
M  V30 3945 C 374.296 -1.95008 -4.58123 0
M  V30 3946 C 372.999 -4.1114 -5.90217 0
M  V30 3947 C 375.025 -3.02758 -5.08027 0
M  V30 3948 C 374.387 -4.09531 -5.73118 0
M  V30 3949 H 370.486 -0.026923 -0.781536 0
M  V30 3950 H 373.07 -0.673901 -1.82665 0
M  V30 3951 H 371.241 0.929139 -3.77123 0
M  V30 3952 H 372.973 0.782445 -3.97064 0
M  V30 3953 H 369.728 -1.13696 -4.5975 0
M  V30 3954 H 370.152 -3.45416 -5.82252 0
M  V30 3955 H 374.794 -1.13766 -4.07207 0
M  V30 3956 H 372.512 -4.93181 -6.40155 0
M  V30 3957 H 376.098 -3.04315 -4.95866 0
M  V30 3958 H 374.978 -4.91534 -6.11035 0
M  V30 3959 N 372.481 1.55866 -0.233164 0
M  V30 3960 C 373.431 2.17442 0.685774 0
M  V30 3961 C 374.415 1.12617 1.14918 0
M  V30 3962 O 375.607 1.3857 1.10124 0
M  V30 3963 C 372.736 2.86685 1.88856 0
M  V30 3964 C 371.822 3.98749 1.4443 0
M  V30 3965 N 372.213 5.00744 0.713364 0
M  V30 3966 C 370.511 4.11052 1.73068 0
M  V30 3967 C 371.212 5.79673 0.485205 0
M  V30 3968 N 370.188 5.33454 1.04536 0
M  V30 3969 H 373.99 2.93659 0.119022 0
M  V30 3970 H 371.504 1.62362 -0.0348995 0
M  V30 3971 H 373.501 3.29218 2.55776 0
M  V30 3972 H 372.161 2.11967 2.45967 0
M  V30 3973 H 373.172 5.16613 0.364861 0
M  V30 3974 H 369.849 3.47495 2.31416 0
M  V30 3975 H 371.239 6.71829 -0.097365 0
M  V30 3976 N 373.959 -0.0401083 1.57549 0
M  V30 3977 C 375.375 -0.395556 1.54621 0
M  V30 3978 C 375.575 -1.77281 0.957799 0
M  V30 3979 O 374.631 -2.45888 0.574031 0
M  V30 3980 C 375.944 -0.307535 2.99123 0
M  V30 3981 C 377.492 -0.385425 3.10618 0
M  V30 3982 C 377.967 -0.326973 4.56831 0
M  V30 3983 N 379.458 -0.386102 4.61588 0
M  V30 3984 C 380.193 -0.363591 5.72246 0
M  V30 3985 N 379.689 -0.29402 6.92176 0
M  V30 3986 N 381.482 -0.412503 5.60584 0
M  V30 3987 H 373.633 0.861325 1.94152 0
M  V30 3988 H 375.896 0.326445 0.890021 0
M  V30 3989 H 375.602 0.638461 3.45856 0
M  V30 3990 H 375.476 -1.10552 3.60636 0
M  V30 3991 H 377.863 -1.32185 2.63839 0
M  V30 3992 H 377.944 0.44171 2.51957 0
M  V30 3993 H 377.588 0.605738 5.04275 0
M  V30 3994 H 377.518 -1.17207 5.13391 0
M  V30 3995 H 380.009 -0.442832 3.75296 0
M  V30 3996 H 380.322 -0.28164 7.72287 0
M  V30 3997 H 378.667 -0.260232 6.94513 0
M  V30 3998 H 381.858 -0.464769 4.65787 0
M  V30 3999 H 382.031 -0.391492 6.46816 0
M  V30 4000 N 375.437 -1.54477 -0.31217 0
M  V30 4001 C 376.714 -1.63891 -1.06767 0
M  V30 4002 C 377.094 -0.480028 -2.0557 0
M  V30 4003 O 376.442 0.524487 -2.22399 0
M  V30 4004 C 376.652 -3.01402 -1.75948 0
M  V30 4005 C 378 -3.57838 -2.28554 0
M  V30 4006 O 379.024 -3.03782 -1.85998 0
M  V30 4007 O 377.883 -4.52462 -3.06497 0
M  V30 4008 H 374.977 -0.664125 -0.492816 0
M  V30 4009 H 377.523 -1.66823 -0.311149 0
M  V30 4010 H 376.295 -3.77187 -1.04144 0
M  V30 4011 H 375.918 -3.02199 -2.58383 0
M  V30 4012 N 376.915 0.57481 -1.46744 0
M  V30 4013 C 378.155 1.34369 -1.54027 0
M  V30 4014 C 378.519 1.91051 -0.190642 0
M  V30 4015 O 379.72 2.68444 -0.138255 0
M  V30 4016 C 377.991 2.43706 -2.61423 0
M  V30 4017 S 379.55 3.30915 -2.88167 0
M  V30 4018 H 376.368 0.45768 -0.544105 0
M  V30 4019 H 378.97 0.659959 -1.84024 0
M  V30 4020 H 377.674 2.0047 -3.58106 0
M  V30 4021 H 377.205 3.16842 -2.33184 0
M  V30 4022 H 379.22 4.42742 -2.24039 0
M  V30 4023 N 378.394 1.34581 0.820102 0
M  V30 4024 C 379.622 1.3018 1.60813 0
M  V30 4025 C 380.037 -0.123551 1.88395 0
M  V30 4026 O 379.394 -1.07148 1.47735 0
M  V30 4027 C 379.445 2.09312 2.94739 0
M  V30 4028 O 379.166 3.46288 2.68358 0
M  V30 4029 C 380.667 2.1234 3.89136 0
M  V30 4030 H 377.887 0.447726 0.499782 0
M  V30 4031 H 380.431 1.77237 1.02017 0
M  V30 4032 H 378.586 1.65889 3.50085 0
M  V30 4033 H 379 3.87227 3.53774 0
M  V30 4034 H 380.474 2.72126 4.80262 0
M  V30 4035 H 380.951 1.11854 4.24718 0
M  V30 4036 H 381.557 2.55864 3.39726 0
M  V30 4037 N 379.872 -1.04064 1.18357 0
M  V30 4038 C 380.835 -2.10243 0.912707 0
M  V30 4039 C 381.835 -1.60477 -0.101928 0
M  V30 4040 O 383.025 -1.73703 0.131517 0
M  V30 4041 C 380.157 -3.38893 0.369387 0
M  V30 4042 H 381.35 -2.35706 1.85426 0
M  V30 4043 H 378.903 -1.20489 0.995594 0
M  V30 4044 H 379.638 -3.19094 -0.578776 0
M  V30 4045 H 379.423 -3.76331 1.1008 0
M  V30 4046 H 380.913 -4.17128 0.198575 0
M  V30 4047 N 381.35 -0.985608 -1.22978 0
M  V30 4048 C 382.596 -0.667998 -1.92118 0
M  V30 4049 C 382.951 0.790454 -1.75413 0
M  V30 4050 O 382.244 1.56336 -1.10768 0
M  V30 4051 C 382.438 -1.00014 -3.43121 0
M  V30 4052 C 382.267 -2.48933 -3.74516 0
M  V30 4053 C 381.037 -3.15218 -3.94925 0
M  V30 4054 C 383.235 -3.47024 -3.79577 0
M  V30 4055 N 381.217 -4.53689 -4.13569 0
M  V30 4056 C 382.588 -4.70923 -4.03276 0
M  V30 4057 C 384.643 -3.41432 -3.62393 0
M  V30 4058 C 383.346 -5.89914 -4.11574 0
M  V30 4059 C 385.372 -4.59793 -3.71947 0
M  V30 4060 C 384.734 -5.82489 -3.96088 0
M  V30 4061 H 380.833 -0.295589 -0.723983 0
M  V30 4062 H 383.417 -1.26413 -1.4808 0
M  V30 4063 H 381.588 -0.432655 -3.85983 0
M  V30 4064 H 383.32 -0.63927 -3.99619 0
M  V30 4065 H 380.075 -2.65702 -3.92045 0
M  V30 4066 H 380.499 -5.25492 -4.26834 0
M  V30 4067 H 385.141 -2.47594 -3.4272 0
M  V30 4068 H 382.859 -6.84164 -4.30053 0
M  V30 4069 H 386.445 -4.57048 -3.59998 0
M  V30 4070 H 385.325 -6.72546 -4.033 0
M  V30 4071 N 382.828 1.3818 -0.7579 0
M  V30 4072 C 384.076 1.99624 -0.315361 0
M  V30 4073 C 384.397 1.60464 1.10799 0
M  V30 4074 O 383.667 0.863507 1.75842 0
M  V30 4075 H 382.247 0.73831 -0.113611 0
M  V30 4076 H 384.909 1.68878 -0.972952 0
M  V30 4077 H 384.005 3.09754 -0.381931 0
M  V30 4078 N 384.306 0.507319 1.49211 0
M  V30 4079 C 385.269 -0.256763 2.27757 0
M  V30 4080 C 386.269 -0.888287 1.34038 0
M  V30 4081 O 387.459 -0.751841 1.5714 0
M  V30 4082 C 384.591 -1.36905 3.12202 0
M  V30 4083 H 385.784 0.432557 2.96764 0
M  V30 4084 H 383.337 0.262488 1.5408 0
M  V30 4085 H 384.072 -2.09233 2.47775 0
M  V30 4086 H 383.857 -0.921599 3.81115 0
M  V30 4087 H 385.347 -1.9071 3.7151 0
M  V30 4088 N 385.784 -1.5574 0.241426 0
M  V30 4089 C 386.694 -2.2479 -0.671305 0
M  V30 4090 C 387.71 -1.26217 -1.19772 0
M  V30 4091 O 388.886 -1.59079 -1.23514 0
M  V30 4092 C 385.951 -2.92966 -1.85396 0
M  V30 4093 C 385.012 -4.06935 -1.36756 0
M  V30 4094 C 384.245 -4.71851 -2.49384 0
M  V30 4095 O 384.468 -4.35823 -3.67987 0
M  V30 4096 O 383.402 -5.60467 -2.19454 0
M  V30 4097 H 387.228 -3.0349 -0.112966 0
M  V30 4098 H 384.813 -1.49397 0.0101513 0
M  V30 4099 H 386.695 -3.35927 -2.54423 0
M  V30 4100 H 385.37 -2.17211 -2.40002 0
M  V30 4101 H 384.277 -3.68503 -0.644726 0
M  V30 4102 H 385.61 -4.84492 -0.867647 0
M  V30 4103 N 387.262 0.0317525 -1.57568 0
M  V30 4104 C 388.678 0.38735 -1.54828 0
M  V30 4105 C 388.878 1.7677 -0.967187 0
M  V30 4106 O 387.934 2.45581 -0.587063 0
M  V30 4107 C 389.247 0.291667 -2.99282 0
M  V30 4108 C 390.795 0.368946 -3.10818 0
M  V30 4109 C 391.27 0.302741 -4.56998 0
M  V30 4110 N 392.761 0.361617 -4.61786 0
M  V30 4111 C 393.496 0.333238 -5.72431 0
M  V30 4112 N 392.992 0.257308 -6.92322 0
M  V30 4113 N 394.785 0.382769 -5.60795 0
M  V30 4114 H 386.936 -0.871609 -1.93692 0
M  V30 4115 H 389.199 -0.331161 -0.888277 0
M  V30 4116 H 388.905 -0.656794 -3.45513 0
M  V30 4117 H 388.779 1.08638 -3.61217 0
M  V30 4118 H 391.166 1.30784 -2.64536 0
M  V30 4119 H 391.247 -0.455066 -2.5172 0
M  V30 4120 H 390.891 -0.632473 -5.03947 0
M  V30 4121 H 390.821 1.14482 -5.14005 0
M  V30 4122 H 393.312 0.422923 -3.75526 0
M  V30 4123 H 393.625 0.24068 -7.72425 0
M  V30 4124 H 391.97 0.223396 -6.94641 0
M  V30 4125 H 395.161 0.44006 -4.66027 0
M  V30 4126 H 395.334 0.357184 -6.47015 0
M  V30 4127 N 388.74 1.54641 0.303973 0
M  V30 4128 C 389.987 1.7378 1.03955 0
M  V30 4129 C 390.315 0.521986 1.87365 0
M  V30 4130 O 389.57 -0.496099 1.89308 0
M  V30 4131 C 389.869 2.97753 1.97681 0
M  V30 4132 C 389.535 4.31671 1.30271 0
M  V30 4133 C 388.197 4.68075 1.11619 0
M  V30 4134 C 390.549 5.147 0.82055 0
M  V30 4135 C 387.877 5.8509 0.434304 0
M  V30 4136 C 390.229 6.32416 0.152395 0
M  V30 4137 C 388.893 6.67484 -0.0461067 0
M  V30 4138 H 388.163 0.635908 0.380398 0
M  V30 4139 H 390.81 1.88896 0.314718 0
M  V30 4140 H 389.115 2.77406 2.76682 0
M  V30 4141 H 390.812 3.09756 2.54661 0
M  V30 4142 H 387.402 4.03041 1.45795 0
M  V30 4143 H 391.586 4.87077 0.952374 0
M  V30 4144 H 386.842 6.10806 0.269495 0
M  V30 4145 H 391.016 6.96023 -0.229126 0
M  V30 4146 H 388.643 7.58011 -0.576494 0
M  V30 4147 N 390.218 -0.567019 1.47046 0
M  V30 4148 C 391.446 -1.35027 1.56765 0
M  V30 4149 C 391.861 -1.8758 0.214316 0
M  V30 4150 O 391.218 -1.64471 -0.790919 0
M  V30 4151 C 391.269 -2.52698 2.58507 0
M  V30 4152 O 390.99 -2.0232 3.88585 0
M  V30 4153 C 392.491 -3.45043 2.78316 0
M  V30 4154 H 389.711 -0.41195 0.529658 0
M  V30 4155 H 392.255 -0.687832 1.92585 0
M  V30 4156 H 390.41 -3.149 2.25648 0
M  V30 4157 H 390.824 -2.79068 4.44096 0
M  V30 4158 H 392.298 -4.2405 3.53391 0
M  V30 4159 H 392.775 -3.97971 1.85784 0
M  V30 4160 H 393.381 -2.88665 3.12334 0
M  V30 4161 N 391.696 -1.35014 -0.812953 0
M  V30 4162 C 392.606 -1.2951 -1.95613 0
M  V30 4163 C 393.622 -0.20107 -1.72834 0
M  V30 4164 O 394.798 -0.42932 -1.96771 0
M  V30 4165 C 391.863 -1.06033 -3.30088 0
M  V30 4166 C 390.924 -2.24688 -3.65805 0
M  V30 4167 C 390.157 -2.02322 -4.93864 0
M  V30 4168 O 390.38 -0.986464 -5.61805 0
M  V30 4169 O 389.314 -2.89525 -5.27692 0
M  V30 4170 H 393.14 -2.25705 -2.03202 0
M  V30 4171 H 390.725 -1.15321 -0.949811 0
M  V30 4172 H 392.607 -0.94763 -4.10607 0
M  V30 4173 H 391.282 -0.128852 -3.23443 0
M  V30 4174 H 390.189 -2.41521 -2.85689 0
M  V30 4175 H 391.522 -3.16261 -3.77147 0
M  V30 4176 N 393.175 1.03435 -1.18907 0
M  V30 4177 C 394.105 2.13503 -0.945448 0
M  V30 4178 C 395.086 1.69682 0.119189 0
M  V30 4179 O 396.271 1.94169 -0.034707 0
M  V30 4180 C 393.401 3.44004 -0.477316 0
M  V30 4181 C 392.355 4.0148 -1.48316 0
M  V30 4182 C 391.681 5.27537 -0.872311 0
M  V30 4183 C 392.981 4.36921 -2.86177 0
M  V30 4184 H 394.675 2.34141 -1.86597 0
M  V30 4185 H 392.221 1.12523 -0.898584 0
M  V30 4186 H 394.174 4.20372 -0.294204 0
M  V30 4187 H 392.898 3.23072 0.478786 0
M  V30 4188 H 391.557 3.27201 -1.65332 0
M  V30 4189 H 391.205 5.02917 0.0911752 0
M  V30 4190 H 390.905 5.66954 -1.54393 0
M  V30 4191 H 392.429 6.06576 -0.699871 0
M  V30 4192 H 393.843 5.04248 -2.72776 0
M  V30 4193 H 392.24 4.87405 -3.50081 0
M  V30 4194 H 393.31 3.46466 -3.39248 0
M  V30 4195 N 394.653 0.992116 1.22453 0
M  V30 4196 C 395.616 0.546883 2.2258 0
M  V30 4197 C 396.616 -0.369829 1.56489 0
M  V30 4198 O 397.806 -0.161896 1.73446 0
M  V30 4199 C 394.938 -0.204659 3.40285 0
M  V30 4200 H 396.131 1.43234 2.63484 0
M  V30 4201 H 393.684 0.779239 1.3549 0
M  V30 4202 H 394.419 -1.10614 3.04853 0
M  V30 4203 H 394.204 0.45354 3.89468 0
M  V30 4204 H 395.694 -0.504358 4.14543 0
M  V30 4205 N 396.131 -1.37776 0.765217 0
M  V30 4206 C 397.379 -1.99454 0.325943 0
M  V30 4207 C 397.7 -1.61049 -1.09947 0
M  V30 4208 O 396.97 -0.872821 -1.75381 0
M  V30 4209 H 395.55 -0.737697 0.117525 0
M  V30 4210 H 398.212 -1.68359 0.981895 0
M  V30 4211 H 397.308 -3.09547 0.398353 0
M  V30 4212 N 397.609 -0.515225 -1.4894 0
M  V30 4213 C 398.834 0.022727 -2.07388 0
M  V30 4214 C 399.259 1.2876 -1.37122 0
M  V30 4215 O 398.617 1.76067 -0.432431 0
M  V30 4216 C 398.665 0.244869 -3.59768 0
M  V30 4217 O 397.769 1.31667 -3.90817 0
M  V30 4218 H 397.11 -0.0325506 -0.663202 0
M  V30 4219 H 399.64 -0.718918 -1.91553 0
M  V30 4220 H 399.65 0.47205 -4.0526 0
M  V30 4221 H 398.325 -0.679194 -4.10317 0
M  V30 4222 H 396.902 1.07331 -3.5712 0
M  V30 4223 N 399.087 1.5561 -0.249682 0
M  V30 4224 C 400.017 2.24477 0.642826 0
M  V30 4225 C 400.998 1.22601 1.17911 0
M  V30 4226 O 402.183 1.5126 1.21795 0
M  V30 4227 C 399.313 2.94638 1.83863 0
M  V30 4228 C 398.267 4.03227 1.435 0
M  V30 4229 C 397.593 4.60828 2.71186 0
M  V30 4230 C 398.893 5.18796 0.604002 0
M  V30 4231 H 400.587 2.99321 0.0685625 0
M  V30 4232 H 398.133 1.43965 0.0315363 0
M  V30 4233 H 400.086 3.41517 2.46868 0
M  V30 4234 H 398.81 2.17287 2.43832 0
M  V30 4235 H 397.469 3.57121 0.828275 0
M  V30 4236 H 397.117 3.80174 3.29358 0
M  V30 4237 H 396.817 5.34132 2.44901 0
M  V30 4238 H 398.341 5.10442 3.35084 0
M  V30 4239 H 399.755 5.61883 1.13842 0
M  V30 4240 H 398.152 5.98506 0.437097 0
M  V30 4241 H 399.222 4.83384 -0.383147 0
M  V30 4242 N 400.565 -0.0233959 1.57583 0
M  V30 4243 C 401.793 -0.724682 1.93794 0
M  V30 4244 C 402.208 -1.68588 0.849912 0
M  V30 4245 O 401.565 -1.81676 -0.173204 0
M  V30 4246 C 401.616 -1.47684 3.29957 0
M  V30 4247 O 401.337 -0.554222 4.3458 0
M  V30 4248 C 402.838 -2.27477 3.80485 0
M  V30 4249 H 400.058 -0.203317 0.639455 0
M  V30 4250 H 402.602 0.0207653 2.04489 0
M  V30 4251 H 400.757 -2.17412 3.20641 0
M  V30 4252 H 401.171 -1.08232 5.13212 0
M  V30 4253 H 402.645 -2.7564 4.78254 0
M  V30 4254 H 403.122 -3.09144 3.11972 0
M  V30 4255 H 403.728 -1.62813 3.92902 0
M  V30 4256 N 402.043 -1.548 -0.295768 0
M  V30 4257 C 403.271 -1.78327 -1.04914 0
M  V30 4258 C 403.686 -0.545316 -1.80753 0
M  V30 4259 O 403.043 0.485013 -1.75937 0
M  V30 4260 C 403.094 -2.99418 -2.02561 0
M  V30 4261 O 402.815 -4.18431 -1.29798 0
M  V30 4262 C 404.316 -3.35375 -2.89895 0
M  V30 4263 H 401.536 -0.594618 -0.310918 0
M  V30 4264 H 404.08 -2.01763 -0.333454 0
M  V30 4265 H 402.235 -2.78175 -2.69624 0
M  V30 4266 H 402.649 -4.86736 -1.95419 0
M  V30 4267 H 404.123 -4.23332 -3.54251 0
M  V30 4268 H 404.6 -2.53761 -3.58472 0
M  V30 4269 H 405.206 -3.58796 -2.28355 0
M  V30 4270 N 403.521 0.559213 -1.47345 0
M  V30 4271 C 404.767 1.31843 -1.54095 0
M  V30 4272 C 405.1 1.93149 -0.201726 0
M  V30 4273 O 404.375 1.77759 0.789428 0
M  V30 4274 C 404.658 2.43006 -2.65744 0
M  V30 4275 C 404.511 1.86581 -4.09277 0
M  V30 4276 C 405.83 3.44943 -2.73318 0
M  V30 4277 H 402.949 0.478012 -0.560957 0
M  V30 4278 H 405.591 0.625977 -1.79392 0
M  V30 4279 H 403.741 3.02072 -2.44305 0
M  V30 4280 H 405.413 1.31792 -4.42073 0
M  V30 4281 H 403.656 1.17268 -4.17649 0
M  V30 4282 H 404.327 2.66933 -4.83168 0
M  V30 4283 H 406.803 2.95793 -2.92653 0
M  V30 4284 H 405.679 4.20153 -3.53218 0
M  V30 4285 H 405.94 4.03665 -1.80296 0
M  V30 4286 N 404.999 1.35443 0.805782 0
M  V30 4287 C 406.41 1.25768 1.37983 0
M  V30 4288 C 406.761 -0.10958 1.95894 0
M  V30 4289 O 405.886 -1.01056 1.91355 0
M  V30 4290 C 406.481 2.27727 2.5085 0
M  V30 4291 C 405.04 2.2179 3.04115 0
M  V30 4292 C 404.187 2.13393 1.77084 0
M  V30 4293 H 407.138 1.4656 0.608752 0
M  V30 4294 H 407.159 1.90422 3.29424 0
M  V30 4295 H 406.671 3.27227 2.08671 0
M  V30 4296 H 404.772 1.25703 3.50756 0
M  V30 4297 H 404.885 3.13788 3.62042 0
M  V30 4298 H 403.249 1.59384 1.98668 0
M  V30 4299 H 404.032 3.14755 1.37056 0
M  V30 4300 N 406.477 -1.02803 1.19454 0
M  V30 4301 C 407.387 -2.14575 0.948408 0
M  V30 4302 C 408.403 -1.73757 -0.091871 0
M  V30 4303 O 409.579 -2.01185 0.0929654 0
M  V30 4304 C 406.644 -3.43202 0.491265 0
M  V30 4305 C 405.705 -3.98328 1.60103 0
M  V30 4306 C 404.938 -5.20816 1.16561 0
M  V30 4307 O 405.161 -5.70392 0.0295238 0
M  V30 4308 O 404.095 -5.68801 1.96849 0
M  V30 4309 H 407.921 -2.38202 1.88397 0
M  V30 4310 H 405.506 -1.12989 0.977433 0
M  V30 4311 H 407.388 -4.20687 0.245015 0
M  V30 4312 H 406.063 -3.21018 -0.415851 0
M  V30 4313 H 404.97 -3.22174 1.90144 0
M  V30 4314 H 406.303 -4.24879 2.48473 0
M  V30 4315 N 407.956 -0.998596 -1.21925 0
M  V30 4316 C 408.866 -0.562736 -2.27751 0
M  V30 4317 C 409.882 0.391203 -1.69545 0
M  V30 4318 O 411.058 0.256625 -1.99758 0
M  V30 4319 C 408.123 0.11012 -3.46525 0
M  V30 4320 C 407.184 -0.887495 -4.20026 0
M  V30 4321 C 406.417 -0.246654 -5.3313 0
M  V30 4322 O 406.64 0.958088 -5.62296 0
M  V30 4323 O 405.574 -0.954374 -5.94286 0
M  V30 4324 H 409.4 -1.44329 -2.67213 0
M  V30 4325 H 406.985 -0.767135 -1.28201 0
M  V30 4326 H 408.867 0.486756 -4.18579 0
M  V30 4327 H 407.542 0.965154 -3.08976 0
M  V30 4328 H 406.449 -1.31517 -3.5022 0
M  V30 4329 H 407.782 -1.71191 -4.6147 0
M  V30 4330 N 409.434 1.37368 -0.772513 0
M  V30 4331 C 410.68 2.00423 -0.3467 0
M  V30 4332 C 411.035 1.60224 1.06518 0
M  V30 4333 O 410.328 0.838712 1.72268 0
M  V30 4334 C 410.522 3.54817 -0.428876 0
M  V30 4335 C 410.351 4.10011 -1.84719 0
M  V30 4336 C 409.121 4.40927 -2.46803 0
M  V30 4337 C 411.319 4.30955 -2.80681 0
M  V30 4338 N 409.301 4.8184 -3.80399 0
M  V30 4339 C 410.672 4.74486 -3.99078 0
M  V30 4340 C 412.727 4.1309 -2.77958 0
M  V30 4341 C 411.43 5.02023 -5.15136 0
M  V30 4342 C 413.456 4.41764 -3.9319 0
M  V30 4343 C 412.818 4.85535 -5.10328 0
M  V30 4344 H 408.917 0.762413 -0.173927 0
M  V30 4345 H 411.501 1.66666 -1.00651 0
M  V30 4346 H 409.672 3.87881 0.200757 0
M  V30 4347 H 411.404 4.04696 0.0190668 0
M  V30 4348 H 408.159 4.30033 -1.98415 0
M  V30 4349 H 408.583 5.06604 -4.49089 0
M  V30 4350 H 413.225 3.7842 -1.88568 0
M  V30 4351 H 410.943 5.35582 -6.05126 0
M  V30 4352 H 414.529 4.29528 -3.92425 0
M  V30 4353 H 413.409 5.07296 -5.98013 0
M  V30 4354 N 410.912 0.523116 1.48665 0
M  V30 4355 C 412.328 0.180511 1.58576 0
M  V30 4356 C 412.528 -1.31597 1.52592 0
M  V30 4357 O 411.584 -2.0937 1.4114 0
M  V30 4358 C 412.897 0.776949 2.90489 0
M  V30 4359 C 414.445 0.745058 3.04003 0
M  V30 4360 C 414.92 1.31995 4.38567 0
M  V30 4361 N 416.411 1.28162 4.45117 0
M  V30 4362 C 417.146 1.6964 5.47731 0
M  V30 4363 N 416.642 2.18816 6.57337 0
M  V30 4364 N 418.435 1.6092 5.38573 0
M  V30 4365 H 410.586 1.4958 1.50797 0
M  V30 4366 H 412.849 0.621772 0.715614 0
M  V30 4367 H 412.555 1.82732 3.00503 0
M  V30 4368 H 412.429 0.25007 3.7637 0
M  V30 4369 H 414.816 -0.296532 2.93606 0
M  V30 4370 H 414.897 1.30933 2.1975 0
M  V30 4371 H 414.541 2.36043 4.49718 0
M  V30 4372 H 414.471 0.731418 5.21496 0
M  V30 4373 H 416.962 0.92155 3.66491 0
M  V30 4374 H 417.275 2.48478 7.31764 0
M  V30 4375 H 415.62 2.22805 6.58318 0
M  V30 4376 H 418.811 1.22304 4.5184 0
M  V30 4377 H 418.984 1.93567 6.18414 0
M  V30 4378 N 412.39 -1.55475 0.257931 0
M  V30 4379 C 413.638 -1.98813 -0.363009 0
M  V30 4380 C 413.959 -1.14757 -1.57657 0
M  V30 4381 O 413.229 -0.232956 -1.9451 0
M  V30 4382 H 411.809 -0.734308 -0.137113 0
M  V30 4383 H 414.471 -1.9156 0.359281 0
M  V30 4384 H 413.567 -3.04941 -0.664634 0
M  V30 4385 N 413.868 0.0150385 -1.57593 0
M  V30 4386 C 414.815 1.01126 -2.07466 0
M  V30 4387 C 415.785 1.35064 -0.966794 0
M  V30 4388 O 416.97 1.4516 -1.23827 0
M  V30 4389 C 414.11 2.30276 -2.57035 0
M  V30 4390 C 413.223 2.02373 -3.81666 0
M  V30 4391 C 412.358 3.25496 -4.19793 0
M  V30 4392 C 411.397 2.93211 -5.37303 0
M  V30 4393 N 410.534 4.08826 -5.70794 0
M  V30 4394 H 415.374 0.57901 -2.92321 0
M  V30 4395 H 412.911 0.27426 -1.44521 0
M  V30 4396 H 414.869 3.05757 -2.83846 0
M  V30 4397 H 413.499 2.71197 -1.75077 0
M  V30 4398 H 412.551 1.17327 -3.61854 0
M  V30 4399 H 413.863 1.74567 -4.67256 0
M  V30 4400 H 413.017 4.09333 -4.47807 0
M  V30 4401 H 411.756 3.56428 -3.32882 0
M  V30 4402 H 410.761 2.07777 -5.09027 0
M  V30 4403 H 411.986 2.63542 -6.25877 0
M  V30 4404 H 409.932 4.39682 -4.86842 0
M  V30 4405 H 409.849 3.84491 -6.50924 0
M  V30 4406 H 411.117 4.93496 -6.03392 0
M  V30 4407 N 415.346 1.54954 0.287554 0
M  V30 4408 C 416.276 1.89839 1.35954 0
M  V30 4409 C 417.257 0.758675 1.52244 0
M  V30 4410 O 418.442 1.01557 1.65529 0
M  V30 4411 C 415.572 2.15753 2.72154 0
M  V30 4412 C 414.526 3.3159 2.70614 0
M  V30 4413 C 413.852 3.42952 4.10229 0
M  V30 4414 C 415.152 4.68359 2.31165 0
M  V30 4415 H 416.846 2.79625 1.07007 0
M  V30 4416 H 414.392 1.3454 0.513316 0
M  V30 4417 H 416.345 2.38743 3.47246 0
M  V30 4418 H 415.069 1.22752 3.02654 0
M  V30 4419 H 413.728 3.08545 1.97979 0
M  V30 4420 H 413.376 2.47443 4.37928 0
M  V30 4421 H 413.076 4.20826 4.10097 0
M  V30 4422 H 414.6 3.68218 4.87081 0
M  V30 4423 H 416.014 4.9099 2.95976 0
M  V30 4424 H 414.411 5.49044 2.42221 0
M  V30 4425 H 415.481 4.68165 1.26291 0
M  V30 4426 N 416.824 -0.551391 1.4764 0
M  V30 4427 C 417.787 -1.64007 1.60107 0
M  V30 4428 C 418.787 -1.53601 0.47576 0
M  V30 4429 O 419.977 -1.57655 0.740988 0
M  V30 4430 C 417.109 -3.03569 1.55108 0
M  V30 4431 H 418.302 -1.543 2.57161 0
M  V30 4432 H 415.855 -0.771776 1.35917 0
M  V30 4433 H 416.59 -3.18804 0.594519 0
M  V30 4434 H 416.375 -3.12532 2.36783 0
M  V30 4435 H 417.865 -3.82762 1.66982 0
M  V30 4436 N 418.302 -1.35869 -0.798587 0
M  V30 4437 C 419.548 -1.2978 -1.55836 0
M  V30 4438 C 419.881 0.125322 -1.93795 0
M  V30 4439 O 419.156 1.07658 -1.61987 0
M  V30 4440 C 419.439 -2.21188 -2.84162 0
M  V30 4441 C 419.292 -3.72155 -2.52628 0
M  V30 4442 C 420.611 -2.11545 -3.85923 0
M  V30 4443 H 417.73 -0.472769 -0.565383 0
M  V30 4444 H 420.372 -1.66341 -0.918192 0
M  V30 4445 H 418.522 -1.90139 -3.38791 0
M  V30 4446 H 420.194 -4.13682 -2.04121 0
M  V30 4447 H 418.437 -3.92042 -1.85704 0
M  V30 4448 H 419.108 -4.31511 -3.44242 0
M  V30 4449 H 421.584 -2.38855 -3.40716 0
M  V30 4450 H 420.46 -2.77688 -4.73477 0
M  V30 4451 H 420.721 -1.09987 -4.282 0
M  V30 4452 N 419.78 1.02168 -1.19998 0
M  V30 4453 C 421.191 1.57135 -1.00825 0
M  V30 4454 C 421.542 1.91276 0.436818 0
M  V30 4455 O 420.667 1.71679 1.3174 0
M  V30 4456 C 421.262 2.85514 -1.82393 0
M  V30 4457 C 419.821 3.37027 -1.67601 0
M  V30 4458 C 418.968 2.10388 -1.80644 0
M  V30 4459 H 421.919 0.846106 -1.34264 0
M  V30 4460 H 421.94 3.56711 -1.32429 0
M  V30 4461 H 421.452 2.60634 -2.87561 0
M  V30 4462 H 419.553 3.66878 -0.650485 0
M  V30 4463 H 419.666 4.09572 -2.4857 0
M  V30 4464 H 418.03 2.22601 -1.23778 0
M  V30 4465 H 418.813 1.8794 -2.87286 0
M  V30 4466 N 421.258 1.00505 1.21394 0
M  V30 4467 C 422.208 0.536503 2.21598 0
M  V30 4468 C 423.192 -0.401914 1.55799 0
M  V30 4469 O 424.384 -0.226757 1.75541 0
M  V30 4470 C 421.513 -0.135446 3.43033 0
M  V30 4471 C 420.599 0.823992 4.16018 0
M  V30 4472 N 420.99 1.97683 4.6557 0
M  V30 4473 C 419.288 0.642387 4.4135 0
M  V30 4474 C 419.989 2.58003 5.21354 0
M  V30 4475 N 418.965 1.86162 5.1073 0
M  V30 4476 H 422.767 1.41557 2.57563 0
M  V30 4477 H 420.281 0.868878 1.37202 0
M  V30 4478 H 422.278 -0.488584 4.14027 0
M  V30 4479 H 420.938 -1.01049 3.08576 0
M  V30 4480 H 421.949 2.3572 4.61147 0
M  V30 4481 H 418.626 -0.185578 4.17087 0
M  V30 4482 H 420.016 3.555 5.70149 0
M  V30 4483 N 422.737 -1.36956 0.779787 0
M  V30 4484 C 424.153 -1.52817 0.460342 0
M  V30 4485 C 424.353 -1.7361 -1.02283 0
M  V30 4486 O 423.409 -1.76207 -1.80852 0
M  V30 4487 C 424.722 -2.71983 1.28241 0
M  V30 4488 C 426.27 -2.85849 1.27512 0
M  V30 4489 C 426.745 -4.08008 2.08072 0
M  V30 4490 N 428.236 -4.15135 2.05467 0
M  V30 4491 C 428.971 -5.08711 2.64577 0
M  V30 4492 N 428.467 -6.07792 3.32506 0
M  V30 4493 N 430.26 -5.01254 2.54363 0
M  V30 4494 H 422.411 -1.21713 1.74068 0
M  V30 4495 H 424.674 -0.593294 0.739396 0
M  V30 4496 H 424.38 -2.63109 2.33381 0
M  V30 4497 H 424.254 -3.65882 0.917088 0
M  V30 4498 H 426.641 -2.94189 0.231686 0
M  V30 4499 H 426.722 -1.92886 1.68014 0
M  V30 4500 H 426.366 -4.00429 3.12441 0
M  V30 4501 H 426.296 -5.001 1.64947 0
M  V30 4502 H 428.787 -3.44189 1.5602 0
M  V30 4503 H 429.1 -6.75739 3.74963 0
M  V30 4504 H 427.445 -6.08047 3.36606 0
M  V30 4505 H 430.636 -4.22795 2.00902 0
M  V30 4506 H 430.809 -5.73995 3.00722 0
M  V30 4507 N 424.215 -0.530993 -1.48385 0
M  V30 4508 C 425.148 0.278511 -2.26494 0
M  V30 4509 C 426.126 0.943905 -1.32398 0
M  V30 4510 O 427.31 0.968098 -1.61741 0
M  V30 4511 C 424.437 1.39453 -3.08659 0
M  V30 4512 C 423.483 0.840434 -4.18137 0
M  V30 4513 S 424.316 -0.292496 -5.34701 0
M  V30 4514 C 425.472 0.825973 -6.20426 0
M  V30 4515 H 425.705 -0.384365 -2.94805 0
M  V30 4516 H 423.238 -0.316799 -1.51115 0
M  V30 4517 H 425.196 2.03382 -3.56575 0
M  V30 4518 H 423.857 2.02913 -2.3976 0
M  V30 4519 H 423.05 1.67769 -4.75257 0
M  V30 4520 H 422.652 0.277819 -3.72967 0
M  V30 4521 H 424.944 1.72438 -6.55188 0
M  V30 4522 H 425.887 0.292728 -7.07495 0
M  V30 4523 H 426.295 1.10683 -5.53543 0
M  V30 4524 N 425.693 1.55336 -0.266172 0
M  V30 4525 C 426.94 1.99397 0.353158 0
M  V30 4526 C 427.268 1.15451 1.56529 0
M  V30 4527 O 426.523 0.209974 1.9457 0
M  V30 4528 C 426.822 3.48606 0.787957 0
M  V30 4529 C 426.488 4.49773 -0.318541 0
M  V30 4530 C 425.15 4.77158 -0.62239 0
M  V30 4531 C 427.502 5.10212 -1.06459 0
M  V30 4532 C 424.83 5.62251 -1.67602 0
M  V30 4533 C 427.182 5.96449 -2.10788 0
M  V30 4534 C 425.846 6.22158 -2.41817 0
M  V30 4535 H 425.116 0.729644 0.12923 0
M  V30 4536 H 427.763 1.87732 -0.37802 0
M  V30 4537 H 426.068 3.57701 1.59866 0
M  V30 4538 H 427.765 3.80098 1.27775 0
M  V30 4539 H 424.355 4.2854 -0.0715925 0
M  V30 4540 H 428.539 4.89086 -0.843098 0
M  V30 4541 H 423.795 5.80419 -1.92155 0
M  V30 4542 H 427.969 6.42317 -2.69076 0
M  V30 4543 H 425.596 6.87888 -3.23596 0
M  V30 4544 N 427.171 -0.0066808 1.57599 0
M  V30 4545 C 428.396 -0.707738 1.94951 0
M  V30 4546 C 428.821 -1.66882 0.867868 0
M  V30 4547 O 428.179 -1.80457 -0.17458 0
M  V30 4548 C 428.227 -1.42162 3.31394 0
M  V30 4549 O 427.331 -2.53578 3.25226 0
M  V30 4550 H 426.672 -0.188752 0.636607 0
M  V30 4551 H 429.202 0.0445193 2.04552 0
M  V30 4552 H 429.212 -1.78655 3.66806 0
M  V30 4553 H 427.887 -0.716903 4.09675 0
M  V30 4554 H 426.464 -2.19463 3.01481 0
M  V30 4555 N 428.649 -1.55105 -0.279332 0
M  V30 4556 C 429.877 -1.7943 -1.03017 0
M  V30 4557 C 430.292 -0.564456 -1.80165 0
M  V30 4558 O 429.649 0.466326 -1.76442 0
M  V30 4559 C 429.7 -3.0155 -1.99374 0
M  V30 4560 O 429.421 -4.19784 -1.25352 0
M  V30 4561 C 430.922 -3.3843 -2.86321 0
M  V30 4562 H 428.142 -0.597882 -0.304594 0
M  V30 4563 H 430.686 -2.02105 -0.312035 0
M  V30 4564 H 428.841 -2.81019 -2.66659 0
M  V30 4565 H 429.255 -4.88781 -1.90246 0
M  V30 4566 H 430.729 -4.27066 -3.49741 0
M  V30 4567 H 431.206 -2.57549 -3.5576 0
M  V30 4568 H 431.812 -3.61197 -2.24536 0
M  V30 4569 N 430.127 0.543554 -1.4793 0
M  V30 4570 C 431.074 1.64942 -1.6144 0
M  V30 4571 C 432.044 1.59692 -0.456903 0
M  V30 4572 O 433.229 1.78321 -0.678688 0
M  V30 4573 C 430.369 3.03238 -1.64744 0
M  V30 4574 C 429.482 3.18823 -2.91506 0
M  V30 4575 C 428.617 4.47599 -2.86057 0
M  V30 4576 C 427.656 4.56664 -4.07584 0
M  V30 4577 N 426.793 5.76811 -4.00292 0
M  V30 4578 H 431.633 1.52733 -2.55884 0
M  V30 4579 H 429.17 0.7438 -1.2691 0
M  V30 4580 H 431.128 3.83339 -1.64641 0
M  V30 4581 H 429.758 3.1425 -0.738017 0
M  V30 4582 H 428.81 2.32064 -3.01414 0
M  V30 4583 H 430.122 3.21384 -3.81463 0
M  V30 4584 H 429.276 5.35975 -2.84281 0
M  V30 4585 H 428.015 4.47538 -1.93807 0
M  V30 4586 H 427.02 3.66697 -4.09651 0
M  V30 4587 H 428.245 4.58474 -5.00978 0
M  V30 4588 H 426.191 5.77673 -3.10853 0
M  V30 4589 H 426.108 5.80808 -4.8394 0
M  V30 4590 H 427.376 6.67512 -4.02553 0
M  V30 4591 N 431.605 1.3629 0.791371 0
M  V30 4592 C 433.021 1.16661 1.08914 0
M  V30 4593 C 433.221 -0.0106266 2.01497 0
M  V30 4594 O 432.277 -0.676596 2.43266 0
M  V30 4595 C 433.59 2.47656 1.70549 0
M  V30 4596 C 435.138 2.54002 1.82899 0
M  V30 4597 C 435.613 3.85078 2.47949 0
M  V30 4598 N 437.104 3.86413 2.5542 0
M  V30 4599 C 437.839 4.84572 3.06557 0
M  V30 4600 N 437.335 5.93124 3.58016 0
M  V30 4601 N 439.128 4.71994 3.05251 0
M  V30 4602 H 431.279 2.11668 0.176238 0
M  V30 4603 H 433.542 0.937486 0.140796 0
M  V30 4604 H 433.248 3.34059 1.09989 0
M  V30 4605 H 433.122 2.63319 2.70079 0
M  V30 4606 H 435.509 1.68018 2.42598 0
M  V30 4607 H 435.59 2.42239 0.821808 0
M  V30 4608 H 435.234 4.71467 1.88895 0
M  V30 4609 H 435.164 3.94135 3.49235 0
M  V30 4610 H 437.655 3.07988 2.18979 0
M  V30 4611 H 437.968 6.63999 3.95381 0
M  V30 4612 H 436.313 5.96796 3.56173 0
M  V30 4613 H 439.504 3.86321 2.64336 0
M  V30 4614 H 439.677 5.48653 3.44796 0
M  V30 4615 N 433.083 -1.0153 1.20538 0
M  V30 4616 C 434.016 -2.09759 0.898695 0
M  V30 4617 C 434.994 -1.61909 -0.149733 0
M  V30 4618 O 436.178 -1.88486 -0.0230293 0
M  V30 4619 C 433.305 -3.36913 0.347512 0
M  V30 4620 C 432.351 -4.03655 1.37713 0
M  V30 4621 S 433.184 -4.47402 2.94265 0
M  V30 4622 C 434.34 -5.77756 2.40726 0
M  V30 4623 H 434.573 -2.3545 1.81523 0
M  V30 4624 H 432.106 -1.14665 1.03399 0
M  V30 4625 H 434.064 -4.10484 0.0360518 0
M  V30 4626 H 432.725 -3.09291 -0.547546 0
M  V30 4627 H 431.918 -4.9514 0.940872 0
M  V30 4628 H 431.52 -3.36313 1.63614 0
M  V30 4629 H 433.812 -6.52994 1.80569 0
M  V30 4630 H 434.755 -6.2618 3.30612 0
M  V30 4631 H 435.163 -5.34081 1.82806 0
M  V30 4632 N 434.561 -1.01147 -1.20859 0
M  V30 4633 C 435.491 -0.597663 -2.25722 0
M  V30 4634 C 436.472 0.384744 -1.65692 0
M  V30 4635 O 437.657 0.271303 -1.92296 0
M  V30 4636 C 434.787 0.0700149 -3.47229 0
M  V30 4637 C 433.741 -0.832843 -4.19819 0
M  V30 4638 C 433.067 -0.0312202 -5.34691 0
M  V30 4639 C 434.367 -2.1385 -4.76514 0
M  V30 4640 H 436.061 -1.47423 -2.60589 0
M  V30 4641 H 433.607 -0.710301 -1.25263 0
M  V30 4642 H 435.56 0.37103 -4.19763 0
M  V30 4643 H 434.284 0.981259 -3.11511 0
M  V30 4644 H 432.943 -1.11778 -3.49144 0
M  V30 4645 H 432.591 0.881515 -4.95215 0
M  V30 4646 H 432.291 -0.632434 -5.84187 0
M  V30 4647 H 433.815 0.26346 -6.10031 0
M  V30 4648 H 435.229 -1.9002 -5.40893 0
M  V30 4649 H 433.626 -2.69012 -5.36426 0
M  V30 4650 H 434.696 -2.80495 -3.95538 0
M  V30 4651 N 436.039 1.36541 -0.78704 0
M  V30 4652 C 436.971 2.28761 -0.141773 0
M  V30 4653 C 437.984 1.49365 0.647599 0
M  V30 4654 O 439.173 1.71836 0.483173 0
M  V30 4655 C 436.273 3.28771 0.822368 0
M  V30 4656 C 435.446 4.3732 0.0835594 0
M  V30 4657 C 434.505 5.17307 0.963296 0
M  V30 4658 O 433.531 5.67638 0.421419 0
M  V30 4659 N 434.733 5.33515 2.28784 0
M  V30 4660 H 437.498 2.84777 -0.933919 0
M  V30 4661 H 435.059 1.48682 -0.640735 0
M  V30 4662 H 437.051 3.79169 1.41468 0
M  V30 4663 H 435.621 2.73412 1.5154 0
M  V30 4664 H 434.841 3.88118 -0.689809 0
M  V30 4665 H 436.129 5.0701 -0.426358 0
M  V30 4666 H 435.527 4.94234 2.75226 0
M  V30 4667 H 434.084 5.87165 2.82985 0
M  V30 4668 N 437.518 0.538854 1.48102 0
M  V30 4669 C 438.934 0.19732 1.58376 0
M  V30 4670 C 439.134 -1.29971 1.5398 0
M  V30 4671 O 438.19 -2.07861 1.43352 0
M  V30 4672 C 439.503 0.807716 2.89649 0
M  V30 4673 C 441.051 0.77726 3.03196 0
M  V30 4674 C 441.526 1.36639 4.37143 0
M  V30 4675 N 443.017 1.32875 4.43732 0
M  V30 4676 C 443.752 1.7544 5.45901 0
M  V30 4677 N 443.248 2.25776 6.54979 0
M  V30 4678 N 445.041 1.66623 5.36836 0
M  V30 4679 H 437.192 1.5117 1.49202 0
M  V30 4680 H 439.455 0.629327 0.708979 0
M  V30 4681 H 439.161 1.85909 2.98548 0
M  V30 4682 H 439.035 0.289975 3.76084 0
M  V30 4683 H 441.422 -0.265374 2.93904 0
M  V30 4684 H 441.503 1.33256 2.18349 0
M  V30 4685 H 441.147 2.408 4.47189 0
M  V30 4686 H 441.077 0.786689 5.20691 0
M  V30 4687 H 443.568 0.96037 3.65493 0
M  V30 4688 H 443.881 2.56226 7.29087 0
M  V30 4689 H 442.226 2.29775 6.55918 0
M  V30 4690 H 445.417 1.27089 4.50517 0
M  V30 4691 H 445.59 2.00115 6.16326 0
M  V30 4692 N 438.996 -1.55193 0.274407 0
M  V30 4693 C 440.242 -2.00604 -0.33608 0
M  V30 4694 C 440.597 -1.15948 -1.53538 0
M  V30 4695 O 439.89 -0.221385 -1.90317 0
M  V30 4696 C 440.084 -3.49019 -0.769458 0
M  V30 4697 C 439.913 -4.48038 0.386301 0
M  V30 4698 C 438.683 -4.97757 0.869854 0
M  V30 4699 C 440.881 -4.99558 1.22254 0
M  V30 4700 N 438.863 -5.80575 1.99515 0
M  V30 4701 C 440.234 -5.79816 2.19575 0
M  V30 4702 C 442.289 -4.81799 1.25597 0
M  V30 4703 C 440.992 -6.44208 3.19981 0
M  V30 4704 C 443.018 -5.46989 2.24848 0
M  V30 4705 C 442.38 -6.27058 3.20901 0
M  V30 4706 H 438.479 -0.777013 -0.088172 0
M  V30 4707 H 441.063 -1.90583 0.398266 0
M  V30 4708 H 439.234 -3.59383 -1.47303 0
M  V30 4709 H 440.966 -3.81263 -1.35722 0
M  V30 4710 H 437.721 -4.71464 0.449281 0
M  V30 4711 H 438.145 -6.26675 2.5614 0
M  V30 4712 H 442.787 -4.19501 0.527158 0
M  V30 4713 H 440.505 -7.05656 3.93796 0
M  V30 4714 H 444.091 -5.35189 2.28174 0
M  V30 4715 H 442.971 -6.7661 3.96445 0
M  V30 4716 N 440.474 -0.00167713 -1.576 0
M  V30 4717 C 441.89 0.354422 -1.55615 0
M  V30 4718 C 442.09 1.74679 -1.00447 0
M  V30 4719 O 441.146 2.4428 -0.639022 0
M  V30 4720 C 442.459 0.22812 -2.99833 0
M  V30 4721 C 444.007 0.302934 -3.11531 0
M  V30 4722 C 444.482 0.205737 -4.57538 0
M  V30 4723 N 445.973 0.263584 -4.62449 0
M  V30 4724 C 446.708 0.211742 -5.73009 0
M  V30 4725 N 446.204 0.110399 -6.92712 0
M  V30 4726 N 447.997 0.263729 -5.61481 0
M  V30 4727 H 440.148 -0.912498 -1.918 0
M  V30 4728 H 442.411 -0.349928 -0.881053 0
M  V30 4729 H 442.117 -0.729934 -3.44042 0
M  V30 4730 H 441.991 1.00951 -3.6344 0
M  V30 4731 H 444.378 1.25143 -2.67251 0
M  V30 4732 H 444.459 -0.508357 -2.50698 0
M  V30 4733 H 444.103 -0.739225 -5.02492 0
M  V30 4734 H 444.033 1.03554 -5.16318 0
M  V30 4735 H 446.524 0.343173 -3.76339 0
M  V30 4736 H 446.837 0.0767828 -7.72762 0
M  V30 4737 H 445.182 0.0760025 -6.94958 0
M  V30 4738 H 448.373 0.34111 -4.66855 0
M  V30 4739 H 448.546 0.219862 -6.47627 0
M  V30 4740 N 441.952 1.55251 0.271103 0
M  V30 4741 C 443.368 1.47133 0.618393 0
M  V30 4742 C 443.568 0.686994 1.89427 0
M  V30 4743 O 442.624 0.206609 2.51653 0
M  V30 4744 C 443.937 2.91361 0.743593 0
M  V30 4745 C 445.485 3.01587 0.837522 0
M  V30 4746 C 445.96 4.47073 0.994483 0
M  V30 4747 N 447.451 4.50909 1.05996 0
M  V30 4748 C 448.186 5.60698 1.20024 0
M  V30 4749 N 447.682 6.80348 1.30759 0
M  V30 4750 N 449.475 5.48444 1.23149 0
M  V30 4751 H 441.626 2.04698 -0.566784 0
M  V30 4752 H 443.889 0.928319 -0.192165 0
M  V30 4753 H 443.595 3.51483 -0.123493 0
M  V30 4754 H 443.469 3.40484 1.62328 0
M  V30 4755 H 445.856 2.4156 1.69507 0
M  V30 4756 H 445.937 2.55713 -0.0668086 0
M  V30 4757 H 445.581 5.07703 0.141582 0
M  V30 4758 H 445.511 4.90605 1.91349 0
M  V30 4759 H 448.002 3.6472 0.989316 0
M  V30 4760 H 448.315 7.59772 1.41303 0
M  V30 4761 H 446.66 6.83156 1.27761 0
M  V30 4762 H 449.851 4.53907 1.14394 0
M  V30 4763 H 450.024 6.34049 1.33738 0
M  V30 4764 N 443.43 -0.535701 1.48216 0
M  V30 4765 C 444.377 -1.64083 1.62312 0
M  V30 4766 C 445.347 -1.59448 0.465365 0
M  V30 4767 O 446.532 -1.77959 0.688135 0
M  V30 4768 C 443.672 -3.0236 1.66349 0
M  V30 4769 C 442.785 -3.17273 2.93193 0
M  V30 4770 C 441.92 -4.46075 2.88427 0
M  V30 4771 C 440.959 -4.54496 4.1 0
M  V30 4772 N 440.096 -5.7468 4.03345 0
M  V30 4773 H 444.936 -1.51374 2.5669 0
M  V30 4774 H 442.473 -0.737059 1.27302 0
M  V30 4775 H 444.431 -3.82461 1.66672 0
M  V30 4776 H 443.061 -3.13854 0.754672 0
M  V30 4777 H 442.113 -2.30462 3.02641 0
M  V30 4778 H 443.425 -3.19357 3.83162 0
M  V30 4779 H 442.579 -5.3446 2.87119 0
M  V30 4780 H 441.318 -4.46504 1.96177 0
M  V30 4781 H 440.323 -3.64519 4.11589 0
M  V30 4782 H 441.548 -4.5581 5.03402 0
M  V30 4783 H 439.494 -5.76017 3.13912 0
M  V30 4784 H 439.411 -5.78234 4.87013 0
M  V30 4785 H 440.679 -6.65367 4.06087 0
M  V30 4786 N 444.908 -1.36708 -0.784132 0
M  V30 4787 C 445.838 -1.34153 -1.91116 0
M  V30 4788 C 446.819 -0.212121 -1.68772 0
M  V30 4789 O 448.004 -0.410581 -1.8981 0
M  V30 4790 C 445.134 -1.13535 -3.28218 0
M  V30 4791 C 444.088 -2.23356 -3.65097 0
M  V30 4792 C 443.414 -1.87875 -5.00607 0
M  V30 4793 C 444.714 -3.65473 -3.73131 0
M  V30 4794 H 446.408 -2.28459 -1.93512 0
M  V30 4795 H 443.954 -1.09973 -0.929618 0
M  V30 4796 H 445.907 -1.10381 -4.06687 0
M  V30 4797 H 444.631 -0.156804 -3.26223 0
M  V30 4798 H 443.29 -2.25645 -2.88929 0
M  V30 4799 H 442.938 -0.885814 -4.95139 0
M  V30 4800 H 442.638 -2.61406 -5.26252 0
M  V30 4801 H 444.162 -1.86286 -5.81489 0
M  V30 4802 H 445.576 -3.65382 -4.41779 0
M  V30 4803 H 443.973 -4.37953 -4.10265 0
M  V30 4804 H 445.043 -3.99995 -2.74102 0
M  V30 4805 N 446.386 1.0089 -1.21074 0
M  V30 4806 C 447.611 1.78727 -1.05221 0
M  V30 4807 C 448.036 1.83932 0.393795 0
M  V30 4808 O 447.394 1.28004 1.28393 0
M  V30 4809 C 447.442 3.20665 -1.64944 0
M  V30 4810 O 446.546 4.02632 -0.892273 0
M  V30 4811 H 445.887 0.550973 -0.370574 0
M  V30 4812 H 448.417 1.26847 -1.60534 0
M  V30 4813 H 448.427 3.71352 -1.69002 0
M  V30 4814 H 447.102 3.16191 -2.70177 0
M  V30 4815 H 445.679 3.61207 -0.926492 0
M  V30 4816 N 447.864 1.01787 1.20321 0
M  V30 4817 C 448.827 0.593972 2.2137 0
M  V30 4818 C 449.827 -0.336553 1.57239 0
M  V30 4819 O 451.017 -0.125069 1.7375 0
M  V30 4820 C 448.149 -0.132433 3.40643 0
M  V30 4821 H 449.342 1.48791 2.60387 0
M  V30 4822 H 446.895 0.807803 1.33807 0
M  V30 4823 H 447.63 -1.04123 3.0713 0
M  V30 4824 H 447.415 0.53605 3.88418 0
M  V30 4825 H 448.905 -0.416314 4.1552 0
M  V30 4826 N 449.342 -1.36122 0.79427 0
M  V30 4827 C 450.758 -1.5232 0.476525 0
M  V30 4828 C 450.958 -1.74685 -1.00436 0
M  V30 4829 O 450.014 -1.78115 -1.78973 0
M  V30 4830 C 451.327 -2.70607 1.31119 0
M  V30 4831 C 452.875 -2.8448 1.30537 0
M  V30 4832 C 453.35 -4.05778 2.12387 0
M  V30 4833 N 454.841 -4.12933 2.09859 0
M  V30 4834 C 455.576 -5.05876 2.69957 0
M  V30 4835 N 455.072 -6.04232 3.38934 0
M  V30 4836 N 456.865 -4.98528 2.59665 0
M  V30 4837 H 449.016 -1.1986 1.75349 0
M  V30 4838 H 451.279 -0.585418 0.745647 0
M  V30 4839 H 450.985 -2.60619 2.36158 0
M  V30 4840 H 450.859 -3.64888 0.955843 0
M  V30 4841 H 453.246 -2.93927 0.262876 0
M  V30 4842 H 453.327 -1.91093 1.70051 0
M  V30 4843 H 452.971 -3.97092 3.1667 0
M  V30 4844 H 452.901 -4.98323 1.70242 0
M  V30 4845 H 455.392 -3.42515 1.59662 0
M  V30 4846 H 455.705 -6.71724 3.82109 0
M  V30 4847 H 454.05 -6.04443 3.43036 0
M  V30 4848 H 457.241 -4.20641 2.05375 0
M  V30 4849 H 457.414 -5.70773 3.06793 0
M  V30 4850 N 450.82 -0.546701 -1.47814 0
M  V30 4851 C 452.067 -0.0187407 -2.02491 0
M  V30 4852 C 452.395 1.32685 -1.42215 0
M  V30 4853 O 451.65 1.87413 -0.563454 0
M  V30 4854 C 451.949 0.134869 -3.57145 0
M  V30 4855 C 451.615 -1.13849 -4.3629 0
M  V30 4856 C 450.277 -1.48743 -4.57634 0
M  V30 4857 C 452.629 -1.98277 -4.82012 0
M  V30 4858 C 449.957 -2.67932 -5.21948 0
M  V30 4859 C 452.309 -3.16659 -5.4764 0
M  V30 4860 C 450.973 -3.51879 -5.67219 0
M  V30 4861 H 450.243 -0.0068577 -0.740968 0
M  V30 4862 H 452.89 -0.716097 -1.77607 0
M  V30 4863 H 451.195 0.915118 -3.80963 0
M  V30 4864 H 452.892 0.558556 -3.97091 0
M  V30 4865 H 449.482 -0.856767 -4.19949 0
M  V30 4866 H 453.666 -1.72628 -4.6531 0
M  V30 4867 H 448.922 -2.95401 -5.35302 0
M  V30 4868 H 453.096 -3.82374 -5.82033 0
M  V30 4869 H 450.723 -4.44331 -6.16825 0
M  V30 4870 N 452.299 1.55045 -0.282633 0
M  V30 4871 C 453.229 2.2579 0.595066 0
M  V30 4872 C 454.21 1.25074 1.15284 0
M  V30 4873 O 455.395 1.5381 1.18559 0
M  V30 4874 C 452.525 2.98472 1.77572 0
M  V30 4875 C 451.479 4.0618 1.34914 0
M  V30 4876 C 450.805 4.66477 2.6135 0
M  V30 4877 C 452.105 5.1996 0.493821 0
M  V30 4878 H 453.799 2.994 0.00505653 0
M  V30 4879 H 451.345 1.44 0.000992001 0
M  V30 4880 H 453.298 3.46677 2.39568 0
M  V30 4881 H 452.022 2.2241 2.39168 0
M  V30 4882 H 450.681 3.58797 0.752338 0
M  V30 4883 H 450.329 3.87074 3.2122 0
M  V30 4884 H 450.029 5.39207 2.33516 0
M  V30 4885 H 451.553 5.17435 3.24181 0
M  V30 4886 H 452.967 5.64172 1.01898 0
M  V30 4887 H 451.364 5.99299 0.310047 0
M  V30 4888 H 452.434 4.82462 -0.485593 0
M  V30 4889 N 453.777 0.010035 1.57597 0
M  V30 4890 C 455.193 -0.346164 1.55801 0
M  V30 4891 C 455.393 -1.74144 1.01371 0
M  V30 4892 O 454.449 -2.43938 0.651968 0
M  V30 4893 C 455.762 -0.212216 2.9995 0
M  V30 4894 C 457.31 -0.286409 3.11687 0
M  V30 4895 C 457.785 -0.18147 4.5764 0
M  V30 4896 N 459.276 -0.239056 4.62583 0
M  V30 4897 C 460.011 -0.181351 5.73113 0
M  V30 4898 N 459.507 -0.073661 6.92761 0
M  V30 4899 N 461.3 -0.233949 5.61613 0
M  V30 4900 H 453.451 0.922657 1.91313 0
M  V30 4901 H 455.714 0.354595 0.879185 0
M  V30 4902 H 455.42 0.748169 3.4365 0
M  V30 4903 H 455.294 -0.990224 3.6397 0
M  V30 4904 H 457.681 -1.23724 2.67911 0
M  V30 4905 H 457.762 0.521645 2.50425 0
M  V30 4906 H 457.406 0.765863 5.02093 0
M  V30 4907 H 457.336 -1.00814 5.1686 0
M  V30 4908 H 459.827 -0.32321 3.76515 0
M  V30 4909 H 460.14 -0.0358003 7.72792 0
M  V30 4910 H 458.485 -0.0391461 6.94989 0
M  V30 4911 H 461.676 -0.316347 4.6703 0
M  V30 4912 H 461.849 -0.185514 6.47734 0
M  V30 4913 N 455.255 -1.55392 -0.262866 0
M  V30 4914 C 456.202 -1.88966 -1.32516 0
M  V30 4915 C 457.172 -0.742187 -1.48596 0
M  V30 4916 O 458.357 -0.99439 -1.62839 0
M  V30 4917 C 455.497 -2.17592 -2.67858 0
M  V30 4918 C 454.61 -3.45061 -2.59917 0
M  V30 4919 C 453.745 -3.63336 -3.87505 0
M  V30 4920 C 452.784 -4.84462 -3.74116 0
M  V30 4921 N 451.921 -4.99342 -4.93561 0
M  V30 4922 H 456.761 -2.79566 -1.03184 0
M  V30 4923 H 454.298 -1.38404 -0.498285 0
M  V30 4924 H 456.256 -2.3219 -3.46617 0
M  V30 4925 H 454.886 -1.30215 -2.95371 0
M  V30 4926 H 453.938 -3.38881 -1.72812 0
M  V30 4927 H 455.25 -4.3396 -2.45926 0
M  V30 4928 H 454.404 -3.77807 -4.74707 0
M  V30 4929 H 453.143 -2.72641 -4.04374 0
M  V30 4930 H 452.148 -4.69985 -2.85297 0
M  V30 4931 H 453.373 -5.76603 -3.58757 0
M  V30 4932 H 451.319 -4.1158 -5.10821 0
M  V30 4933 H 451.236 -5.82303 -4.82141 0
M  V30 4934 H 452.504 -5.18208 -5.82306 0
M  V30 4935 N 456.733 0.527833 -1.48498 0
M  V30 4936 C 457.982 1.28003 -1.55878 0
M  V30 4937 C 458.295 1.9414 -0.238577 0
M  V30 4938 O 459.501 2.7083 -0.190643 0
M  V30 4939 C 457.957 2.32272 -2.74914 0
M  V30 4940 C 457.565 1.72196 -4.13585 0
M  V30 4941 C 459.309 3.08488 -2.91608 0
M  V30 4942 C 457.216 2.74417 -5.23879 0
M  V30 4943 H 456.146 0.481413 -0.580308 0
M  V30 4944 H 458.797 0.557195 -1.74836 0
M  V30 4945 H 457.179 3.07601 -2.49395 0
M  V30 4946 H 458.353 1.03041 -4.49132 0
M  V30 4947 H 456.668 1.08464 -4.02025 0
M  V30 4948 H 459.265 3.84879 -3.71177 0
M  V30 4949 H 459.608 3.64481 -2.01145 0
M  V30 4950 H 460.141 2.40274 -3.17038 0
M  V30 4951 H 456.88 2.23242 -6.16314 0
M  V30 4952 H 456.4 3.41893 -4.92818 0
M  V30 4953 H 458.079 3.37362 -5.52083 0
M  V30 4954 N 458.211 1.37122 0.776871 0
M  V30 4955 C 459.441 1.35034 1.56363 0
M  V30 4956 C 459.849 -0.0674681 1.8908 0
M  V30 4957 O 459.192 -1.03826 1.51545 0
M  V30 4958 C 459.254 2.11894 2.90415 0
M  V30 4959 C 458.918 3.60897 2.80362 0
M  V30 4960 C 459.915 4.54887 2.51742 0
M  V30 4961 C 457.6 4.03951 2.98545 0
M  V30 4962 C 459.594 5.89909 2.41426 0
M  V30 4963 C 457.281 5.3906 2.87849 0
M  V30 4964 C 458.279 6.31852 2.5933 0
M  V30 4965 O 457.967 7.64479 2.48651 0
M  V30 4966 H 457.699 0.464402 0.49123 0
M  V30 4967 H 460.253 1.80992 0.971127 0
M  V30 4968 H 458.483 1.60618 3.51765 0
M  V30 4969 H 460.172 2.02505 3.51776 0
M  V30 4970 H 460.938 4.22934 2.37385 0
M  V30 4971 H 456.817 3.3209 3.19746 0
M  V30 4972 H 460.361 6.62304 2.19086 0
M  V30 4973 H 456.258 5.70617 3.01773 0
M  V30 4974 H 457.026 7.74742 2.64039 0
M  V30 4975 O 459.728 -0.91678 1.32956 0
M  V30 4976 H 460.419 -1.55003 1.16162 0
M  V30 END ATOM
M  V30 BEGIN BOND
M  V30 END BOND
M  V30 END CTAB
M  END
$$$$
