drugbank_target|P48051 G protein-activated inward rectifier potassium channel 2 (DB00898; DB01159; DB08954; DB11633)
 OpenBabel12092119453D

  0  0  0     0  0            999 V3000
M  V30 BEGIN CTAB
M  V30 COUNTS 6793 6865 0 0 0
M  V30 BEGIN ATOM
M  V30 1 H -0.908 1.98254 -0.117106 0
M  V30 2 N 0 1.576 0 0
M  V30 3 C 0.933 2.03868 1.02534 0
M  V30 4 C 1.911 0.928543 1.3348 0
M  V30 5 O 3.095 1.19667 1.45644 0
M  V30 6 C 0.222 2.43627 2.35294 0
M  V30 7 C -0.732 3.65373 2.2001 0
M  V30 8 S 0.101 5.13292 1.52614 0
M  V30 9 C 1.257 5.56322 2.86805 0
M  V30 10 H 1.49 2.90518 0.631377 0
M  V30 11 H -0.977 1.52953 0.210867 0
M  V30 12 H 0.981 2.67203 3.11629 0
M  V30 13 H -0.358 1.57376 2.7183 0
M  V30 14 H -1.165 3.90944 3.18086 0
M  V30 15 H -1.563 3.418 1.51819 0
M  V30 16 H 0.729 5.58782 3.83104 0
M  V30 17 H 1.672 6.56266 2.65933 0
M  V30 18 H 2.08 4.83886 2.90714 0
M  V30 19 N 1.4781 -0.272755 1.55222 0
M  V30 20 C 2.4411 -1.32041 1.87344 0
M  V30 21 C 3.4411 -1.42342 0.74803 0
M  V30 22 O 4.6311 -1.41488 1.0162 0
M  V30 23 C 1.7631 -2.70173 2.07893 0
M  V30 24 H 2.9561 -1.04789 2.80997 0
M  V30 25 H 0.5091 -0.51083 1.47717 0
M  V30 26 H 1.2441 -3.02605 1.16622 0
M  V30 27 H 1.0291 -2.64082 2.89833 0
M  V30 28 H 2.5191 -3.45869 2.34017 0
M  V30 29 N 2.9562 -1.48159 -0.537278 0
M  V30 30 C 3.9032 -1.62138 -1.64256 0
M  V30 31 C 4.8732 -0.463668 -1.59497 0
M  V30 32 O 6.0582 -0.686241 -1.78032 0
M  V30 33 C 3.1982 -1.66028 -3.02537 0
M  V30 34 C 2.3112 -2.92855 -3.17585 0
M  V30 35 C 1.4462 -2.87952 -4.46382 0
M  V30 36 C 0.4852 -4.09516 -4.54932 0
M  V30 37 N -0.3778 -4.02733 -5.75109 0
M  V30 38 H 4.4622 -2.56529 -1.51647 0
M  V30 39 H 1.9992 -1.27224 -0.738414 0
M  V30 40 H 3.9572 -1.66265 -3.82638 0
M  V30 41 H 2.5872 -0.751331 -3.13934 0
M  V30 42 H 1.6392 -3.02395 -2.30784 0
M  V30 43 H 2.9512 -3.82822 -3.19764 0
M  V30 44 H 2.1052 -2.8655 -5.34765 0
M  V30 45 H 0.8442 -1.95702 -4.46712 0
M  V30 46 H -0.1508 -4.11201 -3.64957 0
M  V30 47 H 1.0742 -5.02917 -4.56346 0
M  V30 48 H -0.9798 -3.13299 -5.76351 0
M  V30 49 H -1.0628 -4.86397 -5.78752 0
M  V30 50 H 0.2052 -4.05379 -6.65799 0
M  V30 51 N 4.4343 0.785586 -1.36625 0
M  V30 52 C 5.3643 1.91259 -1.33949 0
M  V30 53 C 6.3453 1.68795 -0.210325 0
M  V30 54 O 7.5303 1.89854 -0.408561 0
M  V30 55 C 4.6603 3.28339 -1.13186 0
M  V30 56 C 3.6143 3.65335 -2.22967 0
M  V30 57 C 2.9403 5.00806 -1.87342 0
M  V30 58 C 4.2403 3.7352 -3.65075 0
M  V30 59 H 5.9343 1.93755 -2.28253 0
M  V30 60 H 3.4803 0.930788 -1.09874 0
M  V30 61 H 5.4333 4.06804 -1.09948 0
M  V30 62 H 4.1573 3.2624 -0.153332 0
M  V30 63 H 2.8163 2.89169 -2.25337 0
M  V30 64 H 2.4643 4.95233 -0.880545 0
M  V30 65 H 2.1643 5.26529 -2.60846 0
M  V30 66 H 3.6883 5.81687 -1.85667 0
M  V30 67 H 5.1023 4.42168 -3.64911 0
M  V30 68 H 3.4993 4.10731 -4.37516 0
M  V30 69 H 4.5693 2.74527 -3.99703 0
M  V30 70 N 5.9124 1.20967 1.01018 0
M  V30 71 C 7.1404 1.04956 1.78303 0
M  V30 72 C 7.5554 -0.400915 1.84494 0
M  V30 73 O 6.9124 -1.27826 1.30257 0
M  V30 74 C 6.9634 1.63403 3.22462 0
M  V30 75 O 6.6844 3.02775 3.16637 0
M  V30 76 C 8.1854 1.52432 4.16268 0
M  V30 77 H 5.4054 0.368858 0.560522 0
M  V30 78 H 7.9494 1.60193 1.27116 0
M  V30 79 H 6.1044 1.1227 3.70775 0
M  V30 80 H 6.5184 3.30626 4.07169 0
M  V30 81 H 7.9924 1.98078 5.15237 0
M  V30 82 H 8.4694 0.477875 4.36592 0
M  V30 83 H 9.0754 2.02787 3.73841 0
M  V30 84 N 7.3905 -1.2043 1.01659 0
M  V30 85 C 8.3005 -2.2689 0.596484 0
M  V30 86 C 9.3165 -1.70107 -0.36599 0
M  V30 87 O 10.4925 -2.00117 -0.226942 0
M  V30 88 C 7.5575 -3.4665 -0.0586659 0
M  V30 89 C 6.6185 -4.18662 0.949751 0
M  V30 90 C 5.8515 -5.32705 0.32577 0
M  V30 91 O 6.0745 -5.63656 -0.874509 0
M  V30 92 O 5.0085 -5.92803 1.04249 0
M  V30 93 H 8.8345 -2.65041 1.4828 0
M  V30 94 H 6.4195 -1.27048 0.786082 0
M  V30 95 H 8.3015 -4.19256 -0.424564 0
M  V30 96 H 6.9765 -3.10375 -0.91918 0
M  V30 97 H 5.8835 -3.48229 1.36702 0
M  V30 98 H 7.2165 -4.58878 1.78023 0
M  V30 99 N 8.8686 -0.792821 -1.36206 0
M  V30 100 C 10.0936 -0.377701 -2.03932 0
M  V30 101 C 10.5186 0.998947 -1.59382 0
M  V30 102 O 9.8766 1.64421 -0.763903 0
M  V30 103 C 9.9246 -0.453635 -3.57735 0
M  V30 104 O 9.0286 0.538151 -4.08874 0
M  V30 105 H 8.3696 -0.159855 -0.644471 0
M  V30 106 H 10.8996 -1.07488 -1.7409 0
M  V30 107 H 10.9096 -0.318464 -4.06755 0
M  V30 108 H 9.5846 -1.45784 -3.89512 0
M  V30 109 H 8.1616 0.364359 -3.71116 0
M  V30 110 N 10.3467 1.47872 -0.545128 0
M  V30 111 C 11.2797 2.2675 0.256885 0
M  V30 112 C 12.2577 1.33293 0.931228 0
M  V30 113 O 13.4417 1.62657 0.95262 0
M  V30 114 C 10.5687 3.09976 1.36501 0
M  V30 115 C 9.6147 4.1892 0.800496 0
M  V30 116 S 10.4477 5.34397 -0.343505 0
M  V30 117 C 11.6037 6.21186 0.766733 0
M  V30 118 H 11.8367 2.94425 -0.412479 0
M  V30 119 H 9.3697 1.50806 -0.331204 0
M  V30 120 H 11.3277 3.585 1.9997 0
M  V30 121 H 9.9887 2.41686 2.00616 0
M  V30 122 H 9.1817 4.76836 1.63227 0
M  V30 123 H 8.7837 3.73215 0.242217 0
M  V30 124 H 11.0757 6.56804 1.66178 0
M  V30 125 H 12.0187 7.07742 0.225204 0
M  V30 126 H 12.4267 5.54574 1.05396 0
M  V30 127 N 11.8248 0.280983 1.55075 0
M  V30 128 C 13.0528 -0.337293 2.04132 0
M  V30 129 C 13.4678 -1.4903 1.15912 0
M  V30 130 O 12.8248 -1.81606 0.180459 0
M  V30 131 C 12.8758 -0.812706 3.52246 0
M  V30 132 O 12.5968 0.294387 4.3711 0
M  V30 133 C 14.0978 -1.4982 4.17216 0
M  V30 134 H 11.3178 -0.0761638 0.666663 0
M  V30 135 H 13.8618 0.414787 2.00249 0
M  V30 136 H 12.0168 -1.51486 3.56554 0
M  V30 137 H 12.4308 -0.0721325 5.2445 0
M  V30 138 H 13.9048 -1.7822 5.22438 0
M  V30 139 H 14.3818 -2.43168 3.65741 0
M  V30 140 H 14.9878 -0.839742 4.16927 0
M  V30 141 N 13.3029 -1.57598 0.00835791 0
M  V30 142 C 14.2509 -2.10078 -0.998508 0
M  V30 143 C 15.2449 -1.02262 -1.35051 0
M  V30 144 O 16.4509 -1.20719 -1.33518 0
M  V30 145 H 12.8259 -0.670903 -0.339696 0
M  V30 146 H 14.7969 -2.93648 -0.530398 0
M  V30 147 C 13.5459 -2.62615 -2.27879 0
M  V30 148 H 12.8689 -3.45213 -2.01662 0
M  V30 149 H 14.3089 -3.03004 -2.96588 0
M  V30 150 C 12.7679 -1.54407 -2.99433 0
M  V30 151 O 13.2979 -0.931812 -3.90743 0
M  V30 152 N 11.5039 -1.2695 -2.61404 0
M  V30 153 H 11.0509 -1.76924 -1.87232 0
M  V30 154 H 11.0089 -0.547704 -3.09593 0
M  V30 155 N 14.781 0.264519 -1.55364 0
M  V30 156 C 16.027 0.99646 -1.76631 0
M  V30 157 C 16.36 1.85632 -0.570478 0
M  V30 158 O 15.635 1.89647 0.43175 0
M  V30 159 C 15.918 1.87187 -3.07625 0
M  V30 160 C 15.771 1.04138 -4.37579 0
M  V30 161 C 17.09 2.85749 -3.34717 0
M  V30 162 H 14.209 0.360841 -0.642622 0
M  V30 163 H 16.851 0.268218 -1.88097 0
M  V30 164 H 15.001 2.49279 -2.9798 0
M  V30 165 H 16.673 0.440517 -4.59192 0
M  V30 166 H 14.916 0.345115 -4.32425 0
M  V30 167 H 15.587 1.68729 -5.2558 0
M  V30 168 H 18.063 2.33793 -3.4421 0
M  V30 169 H 16.939 3.44136 -4.27623 0
M  V30 170 H 17.2 3.61311 -2.54768 0
M  V30 171 N 16.2591 1.48442 0.529413 0
M  V30 172 C 17.1891 1.65902 1.64313 0
M  V30 173 C 18.1701 0.507897 1.6234 0
M  V30 174 O 19.3551 0.740503 1.79528 0
M  V30 175 C 16.4851 1.69911 3.02898 0
M  V30 176 C 15.4391 2.8453 3.19729 0
M  V30 177 C 14.7651 2.73629 4.59381 0
M  V30 178 C 16.0651 4.25821 3.02447 0
M  V30 179 H 17.7591 2.5914 1.49955 0
M  V30 180 H 15.3051 1.24709 0.719982 0
M  V30 181 H 17.2581 1.80715 3.80684 0
M  V30 182 H 15.9821 0.732524 3.18279 0
M  V30 183 H 14.6411 2.73283 2.44361 0
M  V30 184 H 14.2891 1.74938 4.71599 0
M  V30 185 H 13.9891 3.50541 4.71588 0
M  V30 186 H 15.5131 2.86401 5.39265 0
M  V30 187 H 16.9271 4.37898 3.70024 0
M  V30 188 H 15.3241 5.03735 3.26146 0
M  V30 189 H 16.3941 4.42244 1.98867 0
M  V30 190 N 17.7372 -0.778329 1.37039 0
M  V30 191 C 18.6472 -1.92253 1.34446 0
M  V30 192 C 19.6632 -1.72267 0.244991 0
M  V30 193 O 20.8392 -1.95615 0.479258 0
M  V30 194 C 17.9042 -3.27282 1.144 0
M  V30 195 C 16.9652 -3.59969 2.33925 0
M  V30 196 C 16.1982 -4.88555 2.14825 0
M  V30 197 O 16.4212 -5.59113 1.12912 0
M  V30 198 O 15.3552 -5.20153 3.02861 0
M  V30 199 H 19.1812 -1.97392 2.30803 0
M  V30 200 H 16.7662 -0.920154 1.17701 0
M  V30 201 H 18.6482 -4.08062 1.05182 0
M  V30 202 H 17.3232 -3.23011 0.211124 0
M  V30 203 H 16.2302 -2.7945 2.48714 0
M  V30 204 H 17.5632 -3.68976 3.25757 0
M  V30 205 N 19.2153 -1.21501 -1.00376 0
M  V30 206 C 20.4633 -1.03095 -1.73827 0
M  V30 207 C 20.7843 0.436341 -1.90055 0
M  V30 208 O 20.0543 1.31466 -1.45236 0
M  V30 209 H 18.6343 -0.378487 -0.644016 0
M  V30 210 H 21.2963 -1.52831 -1.20949 0
M  V30 211 H 20.3923 -1.49991 -2.73695 0
M  V30 212 N 20.6934 1.19889 -1.02296 0
M  V30 213 C 21.9704 1.85148 -0.630832 0
M  V30 214 C 22.3504 1.91385 0.890782 0
M  V30 215 O 21.6984 1.42642 1.78509 0
M  V30 216 C 21.9084 3.24442 -1.28602 0
M  V30 217 C 23.2564 4.00663 -1.4055 0
M  V30 218 O 24.2804 3.33818 -1.24273 0
M  V30 219 O 23.1394 5.20387 -1.66913 0
M  V30 220 H 20.2334 0.797613 -0.218499 0
M  V30 221 H 22.7794 1.27427 -1.12074 0
M  V30 222 H 21.5514 3.14704 -2.32545 0
M  V30 223 H 21.1744 3.89802 -0.7836 0
M  V30 224 N 22.1715 0.800033 1.35784 0
M  V30 225 C 23.3965 0.388511 2.03729 0
M  V30 226 C 23.8215 -0.990481 1.5991 0
M  V30 227 O 23.1795 -1.64013 0.772612 0
M  V30 228 C 23.2275 0.4726 3.5749 0
M  V30 229 O 22.3315 -0.51646 4.09153 0
M  V30 230 H 21.6725 0.163271 0.643614 0
M  V30 231 H 24.2025 1.0841 1.73518 0
M  V30 232 H 24.2125 0.34003 4.06581 0
M  V30 233 H 22.8875 1.47848 3.88734 0
M  V30 234 H 21.4645 -0.344673 3.71304 0
M  V30 235 N 23.6496 -1.47581 0.552962 0
M  V30 236 C 24.5826 -2.26883 -0.244857 0
M  V30 237 C 25.5606 -1.33784 -0.924147 0
M  V30 238 O 26.7446 -1.6316 -0.943981 0
M  V30 239 C 23.8716 -3.10695 -1.34856 0
M  V30 240 C 22.9176 -4.19339 -0.778268 0
M  V30 241 S 23.7506 -5.34207 0.37184 0
M  V30 242 C 24.9066 -6.21584 -0.733779 0
M  V30 243 H 25.1396 -2.94202 0.428087 0
M  V30 244 H 22.6726 -1.50628 0.339197 0
M  V30 245 H 24.6306 -3.59555 -1.98066 0
M  V30 246 H 23.2916 -2.42746 -1.99332 0
M  V30 247 H 22.4846 -4.77695 -1.60696 0
M  V30 248 H 22.0866 -3.73338 -0.222422 0
M  V30 249 H 24.3786 -6.57676 -1.62692 0
M  V30 250 H 25.3216 -7.07851 -0.187668 0
M  V30 251 H 25.7296 -5.55125 -1.02454 0
M  V30 252 N 25.1277 -0.289203 -1.54924 0
M  V30 253 C 26.4047 0.376032 -1.91951 0
M  V30 254 C 26.7847 1.72622 -1.21511 0
M  V30 255 O 26.1327 2.25853 -0.346767 0
M  V30 256 C 26.3427 0.502378 -3.45365 0
M  V30 257 C 27.6907 0.778741 -4.17398 0
M  V30 258 O 28.7147 0.586647 -3.51336 0
M  V30 259 O 27.5737 1.14698 -5.34328 0
M  V30 260 H 24.6677 0.208167 -0.800372 0
M  V30 261 H 27.2137 -0.336394 -1.66332 0
M  V30 262 H 25.9857 -0.447255 -3.88736 0
M  V30 263 H 25.6087 1.26373 -3.76982 0
M  V30 264 N 26.6058 1.57591 -0.0167156 0
M  V30 265 C 27.5378 2.06343 0.997753 0
M  V30 266 C 28.5508 0.984469 1.29661 0
M  V30 267 O 29.7398 1.26093 1.26344 0
M  V30 268 C 26.8398 2.46255 2.32834 0
M  V30 269 C 26.0128 3.77083 2.21646 0
M  V30 270 C 25.0718 4.0368 3.37534 0
M  V30 271 O 24.0978 4.7411 3.14973 0
M  V30 272 N 25.2998 3.52881 4.60929 0
M  V30 273 H 28.0648 2.93997 0.581875 0
M  V30 274 H 25.6258 1.61002 0.170316 0
M  V30 275 H 27.6178 2.61149 3.09166 0
M  V30 276 H 26.1878 1.64032 2.66106 0
M  V30 277 H 25.4078 3.72106 1.30119 0
M  V30 278 H 26.6958 4.62822 2.11361 0
M  V30 279 H 26.0938 2.95878 4.82154 0
M  V30 280 H 24.6508 3.73076 5.34469 0
M  V30 281 N 28.0839 -0.256276 1.55502 0
M  V30 282 C 29.3609 -1.00789 1.67633 0
M  V30 283 C 29.7409 -2.03706 0.553826 0
M  V30 284 O 29.0889 -2.24145 -0.443969 0
M  V30 285 C 29.2989 -1.64968 3.07549 0
M  V30 286 C 30.6469 -2.15505 3.65845 0
M  V30 287 O 31.6709 -1.74925 3.1029 0
M  V30 288 O 30.5299 -2.89986 4.63217 0
M  V30 289 H 27.6239 -0.468553 0.681459 0
M  V30 290 H 30.1699 -0.250806 1.67836 0
M  V30 291 H 28.9419 -0.904785 3.80696 0
M  V30 292 H 28.5649 -2.47321 3.11317 0
M  V30 293 N 29.562 -1.4872 -0.521534 0
M  V30 294 C 30.808 -1.574 -1.27879 0
M  V30 295 C 31.141 -0.250817 -1.92573 0
M  V30 296 O 30.416 0.743934 -1.79711 0
M  V30 297 C 30.699 -2.71843 -2.36164 0
M  V30 298 C 30.552 -4.13893 -1.76105 0
M  V30 299 C 31.871 -2.82008 -3.37875 0
M  V30 300 H 28.99 -0.572941 -0.463581 0
M  V30 301 H 31.632 -1.80927 -0.580119 0
M  V30 302 H 29.782 -2.51914 -2.95756 0
M  V30 303 H 31.454 -4.45284 -1.20499 0
M  V30 304 H 29.697 -4.20498 -1.06601 0
M  V30 305 H 30.368 -4.89804 -2.5455 0
M  V30 306 H 32.844 -3.00086 -2.88249 0
M  V30 307 H 31.72 -3.63796 -4.11028 0
M  V30 308 H 31.981 -1.90511 -3.98946 0
M  V30 309 N 31.0401 0.771051 -1.3745 0
M  V30 310 C 31.9501 1.91538 -1.35464 0
M  V30 311 C 32.9661 1.72134 -0.254123 0
M  V30 312 O 34.1421 1.95358 -0.489626 0
M  V30 313 C 31.2071 3.26671 -1.16134 0
M  V30 314 C 30.2681 3.58723 -2.35831 0
M  V30 315 C 29.5011 4.87409 -2.17413 0
M  V30 316 O 29.7241 5.58506 -1.15876 0
M  V30 317 O 28.6581 5.18539 -3.05615 0
M  V30 318 H 32.4841 1.96165 -2.31847 0
M  V30 319 H 30.0691 0.9139 -1.18187 0
M  V30 320 H 31.9511 4.07499 -1.07345 0
M  V30 321 H 30.6261 3.22894 -0.228251 0
M  V30 322 H 29.5331 2.78127 -2.50192 0
M  V30 323 H 30.8661 3.67243 -3.27709 0
M  V30 324 N 32.5182 1.22032 0.997298 0
M  V30 325 C 33.7432 1.06921 1.77715 0
M  V30 326 C 34.1682 -0.376226 1.84299 0
M  V30 327 O 33.5262 -1.27165 1.29223 0
M  V30 328 C 33.5742 1.67996 3.19076 0
M  V30 329 O 32.6782 0.930653 4.01762 0
M  V30 330 H 32.0192 0.375814 0.547412 0
M  V30 331 H 34.5492 1.61737 1.25309 0
M  V30 332 H 34.5592 1.72538 3.69723 0
M  V30 333 H 33.2342 2.73182 3.13599 0
M  V30 334 H 31.8112 0.960917 3.60307 0
M  V30 335 N 33.9963 -1.19345 1.0293 0
M  V30 336 C 35.4073 -1.70725 0.755633 0
M  V30 337 C 35.7583 -1.82326 -0.724676 0
M  V30 338 O 34.8833 -1.49471 -1.56484 0
M  V30 339 C 35.4783 -3.10084 1.36503 0
M  V30 340 C 34.0373 -3.58723 1.13994 0
M  V30 341 C 33.1843 -2.35577 1.46283 0
M  V30 342 H 36.1353 -1.0418 1.19718 0
M  V30 343 H 36.1563 -3.72787 0.762217 0
M  V30 344 H 35.6683 -3.01609 2.44241 0
M  V30 345 H 33.7693 -3.72512 0.0807901 0
M  V30 346 H 33.8823 -4.42816 1.82894 0
M  V30 347 H 32.2463 -2.38935 0.88217 0
M  V30 348 H 33.0293 -2.29731 2.55105 0
M  V30 349 N 35.4744 -0.807222 -1.35358 0
M  V30 350 C 36.7204 -0.388463 -1.99045 0
M  V30 351 C 37.0534 1.04184 -1.63888 0
M  V30 352 O 36.3284 1.72292 -0.902535 0
M  V30 353 C 36.6114 -0.572783 -3.55515 0
M  V30 354 C 36.4644 -2.04807 -4.00468 0
M  V30 355 C 37.7834 0.00114064 -4.401 0
M  V30 356 H 34.9024 -0.142619 -0.723069 0
M  V30 357 H 37.5444 -1.01687 -1.60498 0
M  V30 358 H 35.6944 -0.0378425 -3.88482 0
M  V30 359 H 37.3664 -2.64544 -3.77908 0
M  V30 360 H 35.6094 -2.54427 -3.51353 0
M  V30 361 H 36.2804 -2.12792 -5.09337 0
M  V30 362 H 38.7564 -0.455716 -4.13597 0
M  V30 363 H 37.6324 -0.157737 -5.48673 0
M  V30 364 H 37.8934 1.09488 -4.28328 0
M  V30 365 N 36.9525 1.47285 -0.560781 0
M  V30 366 C 37.9155 2.28535 0.174488 0
M  V30 367 C 38.9155 1.37153 0.839388 0
M  V30 368 O 40.1055 1.59748 0.694702 0
M  V30 369 C 37.2375 3.16934 1.25561 0
M  V30 370 H 38.4305 2.95012 -0.539262 0
M  V30 371 H 35.9835 1.53034 -0.317865 0
M  V30 372 H 36.7185 2.55157 2.00164 0
M  V30 373 H 36.5035 3.8419 0.783604 0
M  V30 374 H 37.9935 3.78143 1.77193 0
M  V30 375 N 38.4306 0.297415 1.54768 0
M  V30 376 C 39.6796 -0.313669 1.99246 0
M  V30 377 C 39.9926 -1.55281 1.18942 0
M  V30 378 O 41.1986 -2.23825 1.5367 0
M  V30 379 C 39.6546 -0.609407 3.54703 0
M  V30 380 C 39.2626 0.611192 4.43811 0
M  V30 381 C 41.0066 -1.18188 4.07715 0
M  V30 382 C 38.9136 0.288805 5.90694 0
M  V30 383 H 37.8436 -0.120979 0.744231 0
M  V30 384 H 40.4946 0.40556 1.78962 0
M  V30 385 H 38.8766 -1.38813 3.70873 0
M  V30 386 H 40.0506 1.3875 4.39414 0
M  V30 387 H 38.3656 1.10205 4.01552 0
M  V30 388 H 40.9626 -1.43727 5.15021 0
M  V30 389 H 41.3056 -2.12299 3.58099 0
M  V30 390 H 41.8386 -0.464944 3.95074 0
M  V30 391 H 38.5776 1.19838 6.44453 0
M  V30 392 H 38.0976 -0.450305 5.98107 0
M  V30 393 H 39.7766 -0.110933 6.46905 0
M  V30 394 N 39.9087 -1.5758 0.0250728 0
M  V30 395 C 40.8587 -2.06468 -0.967201 0
M  V30 396 C 41.8427 -0.964376 -1.28797 0
M  V30 397 O 43.0347 -1.22797 -1.27475 0
M  V30 398 C 40.1637 -2.59203 -2.25097 0
M  V30 399 C 39.2497 -3.76157 -1.95874 0
M  V30 400 N 39.6407 -4.86919 -1.36905 0
M  V30 401 C 37.9387 -3.84566 -2.25887 0
M  V30 402 C 38.6397 -5.68172 -1.24724 0
M  V30 403 N 37.6157 -5.14953 -1.74138 0
M  V30 404 H 41.4177 -2.89508 -0.506176 0
M  V30 405 H 38.9317 -1.61399 -0.18004 0
M  V30 406 H 40.9287 -2.92517 -2.97052 0
M  V30 407 H 39.5887 -1.77592 -2.71829 0
M  V30 408 H 40.5997 -5.07256 -1.04459 0
M  V30 409 H 37.2767 -3.13854 -2.75321 0
M  V30 410 H 38.6667 -6.67221 -0.791605 0
M  V30 411 N 41.3868 0.248026 -1.55636 0
M  V30 412 C 42.3188 1.32993 -1.8667 0
M  V30 413 C 43.3318 1.44345 -0.752877 0
M  V30 414 O 44.5208 1.45715 -1.03098 0
M  V30 415 C 41.6208 2.70863 -2.03682 0
M  V30 416 C 40.7938 2.81792 -3.34532 0
M  V30 417 C 39.8528 4.005 -3.41301 0
M  V30 418 O 38.8788 3.9008 -4.14519 0
M  V30 419 N 40.0808 5.13618 -2.70512 0
M  V30 420 H 42.8458 1.06707 -2.8006 0
M  V30 421 H 40.4068 0.438129 -1.55859 0
M  V30 422 H 42.3988 3.48612 -2.05553 0
M  V30 423 H 40.9688 2.89862 -1.17041 0
M  V30 424 H 40.1888 1.90729 -3.44987 0
M  V30 425 H 41.4768 2.86043 -4.20781 0
M  V30 426 H 40.8748 5.24975 -2.10755 0
M  V30 427 H 39.4318 5.89505 -2.78077 0
M  V30 428 N 42.8649 1.48995 0.513639 0
M  V30 429 C 44.2759 1.5119 1.09537 0
M  V30 430 C 44.6269 0.290906 1.94031 0
M  V30 431 O 43.7519 -0.60049 2.07902 0
M  V30 432 C 44.3469 2.73964 1.99322 0
M  V30 433 C 42.9059 2.78978 2.52682 0
M  V30 434 C 42.0529 2.44934 1.30009 0
M  V30 435 H 45.0039 1.55875 0.298125 0
M  V30 436 H 45.0249 2.53409 2.83838 0
M  V30 437 H 44.5369 3.62813 1.37799 0
M  V30 438 H 42.6379 1.94378 3.1788 0
M  V30 439 H 42.7509 3.8083 2.90698 0
M  V30 440 H 41.1149 1.9644 1.62122 0
M  V30 441 H 41.8979 3.36043 0.702131 0
M  V30 442 N 44.343 -0.763751 1.37857 0
M  V30 443 C 45.29 -1.87726 1.34267 0
M  V30 444 C 46.26 -1.64807 0.206879 0
M  V30 445 O 47.445 -1.86613 0.397508 0
M  V30 446 C 44.585 -3.24896 1.16346 0
M  V30 447 C 43.698 -3.59716 2.39225 0
M  V30 448 C 42.833 -4.86137 2.14114 0
M  V30 449 C 41.872 -5.13711 3.32817 0
M  V30 450 N 41.009 -6.31323 3.07206 0
M  V30 451 H 45.849 -1.90129 2.29466 0
M  V30 452 H 43.386 -0.929433 1.14017 0
M  V30 453 H 45.344 -4.04036 1.03975 0
M  V30 454 H 43.974 -3.21847 0.247909 0
M  V30 455 H 43.026 -2.75498 2.62307 0
M  V30 456 H 44.338 -3.76027 3.27728 0
M  V30 457 H 43.492 -5.73198 1.9882 0
M  V30 458 H 42.231 -4.71945 1.22961 0
M  V30 459 H 41.236 -4.25123 3.48641 0
M  V30 460 H 42.461 -5.29807 4.24832 0
M  V30 461 H 40.407 -6.18474 2.1869 0
M  V30 462 H 40.324 -6.48087 3.89254 0
M  V30 463 H 41.592 -7.213 2.95546 0
M  V30 464 N 45.8211 -1.22559 -0.990812 0
M  V30 465 C 46.7511 -1.0218 -2.09956 0
M  V30 466 C 47.7321 0.0579394 -1.70001 0
M  V30 467 O 48.9171 -0.104684 -1.93918 0
M  V30 468 C 46.0471 -0.601023 -3.4206 0
M  V30 469 C 45.0011 -1.62694 -3.95872 0
M  V30 470 C 44.3271 -1.06193 -5.24049 0
M  V30 471 C 45.6271 -3.01743 -4.2632 0
M  V30 472 H 47.3211 -1.94916 -2.27262 0
M  V30 473 H 44.8671 -0.938566 -1.09211 0
M  V30 474 H 46.8201 -0.445561 -4.19038 0
M  V30 475 H 45.5441 0.362005 -3.24588 0
M  V30 476 H 44.2031 -1.77021 -3.21028 0
M  V30 477 H 43.8511 -0.0901903 -5.02919 0
M  V30 478 H 43.5511 -1.74732 -5.61019 0
M  V30 479 H 45.0751 -0.918092 -6.03658 0
M  V30 480 H 46.4891 -2.90777 -4.94087 0
M  V30 481 H 44.8861 -3.67425 -4.74467 0
M  V30 482 H 45.9561 -3.51518 -3.34011 0
M  V30 483 N 47.2992 1.18797 -1.03562 0
M  V30 484 C 48.7102 1.70322 -0.764676 0
M  V30 485 C 49.0612 1.82708 0.714996 0
M  V30 486 O 48.1862 1.50299 1.55689 0
M  V30 487 C 48.7812 3.09356 -1.38145 0
M  V30 488 C 47.3402 3.58114 -1.15895 0
M  V30 489 C 46.4872 2.34798 -1.4753 0
M  V30 490 H 49.4382 1.03543 -1.20268 0
M  V30 491 H 49.4592 3.72378 -0.781977 0
M  V30 492 H 48.9712 3.00309 -2.45837 0
M  V30 493 H 47.0722 3.72464 -0.100544 0
M  V30 494 H 47.1852 4.4184 -1.8524 0
M  V30 495 H 45.5492 2.38464 -0.894829 0
M  V30 496 H 46.3322 2.28375 -2.56319 0
M  V30 497 N 48.7773 0.814389 1.34928 0
M  V30 498 C 49.7243 0.22822 2.29669 0
M  V30 499 C 50.6943 -0.642164 1.53184 0
M  V30 500 O 51.8793 -0.585605 1.81591 0
M  V30 501 C 49.0193 -0.61089 3.3965 0
M  V30 502 C 48.1323 0.280792 4.31086 0
M  V30 503 C 47.2673 -0.567067 5.28165 0
M  V30 504 C 46.3063 0.324531 6.11239 0
M  V30 505 N 45.4433 -0.483756 7.00431 0
M  V30 506 H 50.2833 1.04153 2.79206 0
M  V30 507 H 47.8203 0.525133 1.37407 0
M  V30 508 H 49.7783 -1.11263 4.0209 0
M  V30 509 H 48.4083 -1.38939 2.91369 0
M  V30 510 H 47.4603 0.900688 3.69583 0
M  V30 511 H 48.7723 0.966723 4.89342 0
M  V30 512 H 47.9263 -1.13363 5.96015 0
M  V30 513 H 46.6653 -1.28654 4.70425 0
M  V30 514 H 45.6703 0.903298 5.42329 0
M  V30 515 H 46.8953 1.04198 6.71059 0
M  V30 516 H 44.8413 -1.18706 6.45171 0
M  V30 517 H 44.7583 0.143965 7.55863 0
M  V30 518 H 46.0263 -1.03334 7.7262 0
M  V30 519 N 50.2554 -1.46986 0.568584 0
M  V30 520 C 51.1874 -2.28233 -0.210337 0
M  V30 521 C 52.2004 -1.37682 -0.868767 0
M  V30 522 O 53.3894 -1.62406 -0.740705 0
M  V30 523 C 50.4894 -3.12293 -1.3163 0
M  V30 524 C 49.6624 -4.30878 -0.7525 0
M  V30 525 C 48.7214 -4.96445 -1.74439 0
M  V30 526 O 47.7474 -5.54482 -1.286 0
M  V30 527 N 48.9494 -4.92171 -3.07812 0
M  V30 528 H 51.7144 -2.95723 0.486648 0
M  V30 529 H 49.2754 -1.56742 0.405409 0
M  V30 530 H 51.2674 -3.53022 -1.97883 0
M  V30 531 H 49.8374 -2.46971 -1.91636 0
M  V30 532 H 49.0574 -3.94104 0.0871128 0
M  V30 533 H 50.3454 -5.07558 -0.35536 0
M  V30 534 H 49.7434 -4.46239 -3.47688 0
M  V30 535 H 48.3004 -5.36884 -3.69592 0
M  V30 536 N 51.7335 -0.305618 -1.54608 0
M  V30 537 C 52.6965 0.555591 -2.22364 0
M  V30 538 C 53.6965 1.05768 -1.21119 0
M  V30 539 O 54.8865 0.952972 -1.45822 0
M  V30 540 C 52.0185 1.76974 -2.91364 0
M  V30 541 H 53.2115 -0.0364572 -2.99878 0
M  V30 542 H 50.7645 -0.0565007 -1.56198 0
M  V30 543 H 51.4995 2.40151 -2.17941 0
M  V30 544 H 51.2845 1.41732 -3.65588 0
M  V30 545 H 52.7745 2.38148 -3.43038 0
M  V30 546 N 53.2116 1.57565 -0.0334293 0
M  V30 547 C 54.6276 1.56297 0.322997 0
M  V30 548 C 54.8276 1.03945 1.7262 0
M  V30 549 O 53.8836 0.688109 2.42943 0
M  V30 550 C 55.1966 3.00232 0.167664 0
M  V30 551 C 56.7446 3.12078 0.240107 0
M  V30 552 C 57.2196 4.57859 0.113513 0
M  V30 553 N 58.7106 4.62887 0.170359 0
M  V30 554 C 59.4456 5.73319 0.0962517 0
M  V30 555 N 58.9416 6.92794 -0.0291881 0
M  V30 556 N 60.7346 5.61898 0.150551 0
M  V30 557 H 52.8856 1.89923 -0.950956 0
M  V30 558 H 55.1486 0.873824 -0.367608 0
M  V30 559 H 54.8546 3.42501 -0.799102 0
M  V30 560 H 54.7286 3.654 0.936083 0
M  V30 561 H 57.1156 2.69718 1.19733 0
M  V30 562 H 57.1966 2.49623 -0.558763 0
M  V30 563 H 56.8406 5.009 -0.840314 0
M  V30 564 H 56.7706 5.18299 0.931302 0
M  V30 565 H 59.2616 3.76954 0.26728 0
M  V30 566 H 59.5746 7.7276 -0.0789252 0
M  V30 567 H 57.9196 6.94971 -0.0640299 0
M  V30 568 H 61.1106 4.67448 0.246981 0
M  V30 569 H 61.2836 6.47938 0.0893365 0
M  V30 570 N 54.6897 -0.239769 1.55765 0
M  V30 571 C 55.9667 -0.990056 1.68693 0
M  V30 572 C 56.3467 -2.03107 0.5754 0
M  V30 573 O 55.6947 -2.24604 -0.42017 0
M  V30 574 C 55.9047 -1.61696 3.09282 0
M  V30 575 C 57.2527 -2.11613 3.6811 0
M  V30 576 O 58.2767 -1.71624 3.12127 0
M  V30 577 O 57.1357 -2.85057 4.66267 0
M  V30 578 H 54.2297 -0.461299 0.686391 0
M  V30 579 H 56.7757 -0.232991 1.68093 0
M  V30 580 H 55.5477 -0.864357 3.81634 0
M  V30 581 H 55.1707 -2.44005 3.13923 0
M  V30 582 N 56.1678 -1.49265 -0.50573 0
M  V30 583 C 57.4448 -1.49012 -1.26707 0
M  V30 584 C 57.8248 -0.215205 -2.1 0
M  V30 585 O 57.1728 0.802547 -2.13943 0
M  V30 586 C 57.3828 -2.7663 -2.12783 0
M  V30 587 C 58.7308 -3.25932 -2.72127 0
M  V30 588 O 59.7548 -2.77715 -2.23054 0
M  V30 589 O 58.6138 -4.09897 -3.61451 0
M  V30 590 H 55.7078 -0.596197 -0.57313 0
M  V30 591 H 58.2538 -1.61524 -0.52039 0
M  V30 592 H 57.0258 -3.60916 -1.5118 0
M  V30 593 H 56.6488 -2.66956 -2.94653 0
M  V30 594 N 57.6459 0.756429 -1.3826 0
M  V30 595 C 58.5759 1.88374 -1.37976 0
M  V30 596 C 59.5569 1.68311 -0.246082 0
M  V30 597 O 60.7419 1.88944 -0.44874 0
M  V30 598 C 57.8719 3.25864 -1.20125 0
M  V30 599 C 56.8259 3.60523 -2.30666 0
M  V30 600 C 56.1519 4.9672 -1.97923 0
M  V30 601 C 57.4519 3.65692 -3.72916 0
M  V30 602 H 59.1459 1.88869 -2.32312 0
M  V30 603 H 56.6919 0.907272 -1.11824 0
M  V30 604 H 58.6449 4.0438 -1.18552 0
M  V30 605 H 57.3689 3.25841 -0.222498 0
M  V30 606 H 56.0279 2.84324 -2.3142 0
M  V30 607 H 55.6759 4.93253 -0.985393 0
M  V30 608 H 55.3759 5.20878 -2.71955 0
M  V30 609 H 56.8999 5.77618 -1.97964 0
M  V30 610 H 58.3139 4.34328 -3.74208 0
M  V30 611 H 56.7109 4.01358 -4.4613 0
M  V30 612 H 57.7809 2.65987 -4.05436 0
M  V30 613 N 59.124 1.23083 0.984299 0
M  V30 614 C 60.535 1.05609 1.5396 0
M  V30 615 C 60.886 -0.377793 1.92528 0
M  V30 616 O 60.011 -1.26398 1.75649 0
M  V30 617 C 60.606 1.91087 2.7977 0
M  V30 618 C 59.165 1.77885 3.31713 0
M  V30 619 C 58.312 1.87028 2.04733 0
M  V30 620 H 61.263 1.36802 0.804419 0
M  V30 621 H 61.284 1.43336 3.5247 0
M  V30 622 H 60.796 2.9544 2.51668 0
M  V30 623 H 58.897 0.762995 3.64704 0
M  V30 624 H 59.01 2.61047 4.01735 0
M  V30 625 H 57.374 1.30565 2.18689 0
M  V30 626 H 58.157 2.92929 1.79017 0
M  V30 627 N 60.6021 -1.18246 1.0419 0
M  V30 628 C 62.0181 -1.40269 0.761366 0
M  V30 629 C 62.2181 -1.90777 -0.648578 0
M  V30 630 O 61.2741 -2.0929 -1.41258 0
M  V30 631 C 62.5871 -2.40237 1.8085 0
M  V30 632 C 64.1351 -2.53961 1.82955 0
M  V30 633 C 64.6101 -3.57194 2.86664 0
M  V30 634 N 66.1011 -3.64702 2.85563 0
M  V30 635 C 66.8361 -4.44309 3.6246 0
M  V30 636 N 66.3321 -5.27514 4.49111 0
M  V30 637 N 68.1251 -4.39084 3.50944 0
M  V30 638 H 60.2761 -0.837882 1.95175 0
M  V30 639 H 62.5391 -0.430608 0.84456 0
M  V30 640 H 62.2451 -2.10176 2.81991 0
M  V30 641 H 62.1191 -3.39601 1.64168 0
M  V30 642 H 64.5061 -2.83338 0.824855 0
M  V30 643 H 64.5871 -1.54706 2.03715 0
M  V30 644 H 64.2311 -3.28558 3.87314 0
M  V30 645 H 64.1611 -4.5613 2.6316 0
M  V30 646 H 66.6521 -3.05289 2.22727 0
M  V30 647 H 66.9651 -5.85411 5.04493 0
M  V30 648 H 65.3101 -5.2693 4.53178 0
M  V30 649 H 68.5011 -3.7313 2.82651 0
M  V30 650 H 68.6741 -5.00883 4.11121 0
M  V30 651 N 62.0802 -0.821533 -1.34494 0
M  V30 652 C 63.0302 -0.214793 -2.26986 0
M  V30 653 C 64.0142 0.620125 -1.4847 0
M  V30 654 O 65.2062 0.474933 -1.70509 0
M  V30 655 C 62.3352 0.623566 -3.37589 0
M  V30 656 C 61.4212 -0.221904 -4.23519 0
M  V30 657 N 61.8122 -1.29223 -4.89014 0
M  V30 658 C 60.1102 -0.00600922 -4.46 0
M  V30 659 C 60.8112 -1.80965 -5.52835 0
M  V30 660 N 59.7872 -1.11376 -5.32068 0
M  V30 661 H 63.5892 -1.03354 -2.75128 0
M  V30 662 H 61.1032 -0.6642 -1.48196 0
M  V30 663 H 63.1002 1.0744 -4.02818 0
M  V30 664 H 61.7602 1.44049 -2.90998 0
M  V30 665 H 62.7712 -1.67502 -4.90065 0
M  V30 666 H 59.4482 0.77886 -4.10171 0
M  V30 667 H 60.8382 -2.70502 -6.15043 0
M  V30 668 N 63.5583 1.46682 -0.576371 0
M  V30 669 C 64.8073 2.01619 -0.0572825 0
M  V30 670 C 65.1203 1.45417 1.30818 0
M  V30 671 O 66.3263 1.92133 1.91825 0
M  V30 672 C 64.7823 3.59863 -0.0518371 0
M  V30 673 C 64.3903 4.25059 -1.41523 0
M  V30 674 C 66.1343 4.2248 0.413639 0
M  V30 675 C 64.0413 5.75364 -1.36785 0
M  V30 676 H 62.9713 0.753794 -0.0176448 0
M  V30 677 H 65.6223 1.68481 -0.727076 0
M  V30 678 H 64.0043 3.90048 0.683994 0
M  V30 679 H 65.1783 4.06491 -2.17029 0
M  V30 680 H 63.4933 3.7451 -1.8202 0
M  V30 681 H 66.0903 5.3265 0.467779 0
M  V30 682 H 66.4333 3.90976 1.42982 0
M  V30 683 H 66.9663 3.96897 -0.267929 0
M  V30 684 H 63.7053 6.11518 -2.36063 0
M  V30 685 H 63.2253 5.96214 -0.654895 0
M  V30 686 H 64.9043 6.37955 -1.07805 0
M  V30 687 N 65.0364 0.313813 1.54444 0
M  V30 688 C 66.2614 -0.296681 2.05267 0
M  V30 689 C 66.6864 -1.45757 1.18897 0
M  V30 690 O 66.0444 -1.80239 0.195886 0
M  V30 691 C 66.0924 -0.71831 3.53373 0
M  V30 692 O 65.1964 -1.82175 3.69981 0
M  V30 693 H 64.5374 -0.0554061 0.661684 0
M  V30 694 H 67.0674 0.459387 1.99376 0
M  V30 695 H 67.0774 -1.00364 3.95463 0
M  V30 696 H 65.7524 0.130821 4.15694 0
M  V30 697 H 64.3294 -1.53598 3.39797 0
M  V30 698 N 66.5145 -1.57545 0.0417849 0
M  V30 699 C 67.9305 -1.56467 -0.314704 0
M  V30 700 C 68.1305 -1.04859 -1.72066 0
M  V30 701 O 67.1865 -0.700983 -2.42575 0
M  V30 702 C 68.4995 -3.00317 -0.15174 0
M  V30 703 C 70.0475 -3.12201 -0.223553 0
M  V30 704 C 70.5225 -4.57913 -0.0892295 0
M  V30 705 N 72.0135 -4.6297 -0.145808 0
M  V30 706 C 72.7485 -5.73362 -0.0658459 0
M  V30 707 N 72.2445 -6.92769 0.0659282 0
M  V30 708 N 74.0375 -5.6197 -0.12075 0
M  V30 709 H 66.1885 -1.89416 0.961014 0
M  V30 710 H 68.4515 -0.871862 0.372237 0
M  V30 711 H 68.1575 -3.42073 0.817254 0
M  V30 712 H 68.0315 -3.65892 -0.916692 0
M  V30 713 H 70.4185 -2.70349 -1.18301 0
M  V30 714 H 70.4995 -2.49323 0.571994 0
M  V30 715 H 70.1435 -5.00448 0.866867 0
M  V30 716 H 70.0735 -5.18786 -0.903802 0
M  V30 717 H 72.5645 -3.7709 -0.247286 0
M  V30 718 H 72.8775 -7.72707 0.119905 0
M  V30 719 H 71.2225 -6.94927 0.100885 0
M  V30 720 H 74.4135 -4.67572 -0.222187 0
M  V30 721 H 74.5865 -6.47977 -0.0549735 0
M  V30 722 N 67.9926 0.231505 -1.5589 0
M  V30 723 C 69.2696 0.981096 -1.69215 0
M  V30 724 C 69.6496 2.02799 -0.586164 0
M  V30 725 O 68.9976 2.24823 0.408253 0
M  V30 726 C 69.2076 1.60054 -3.10135 0
M  V30 727 C 70.5556 2.09658 -3.69227 0
M  V30 728 O 71.5796 1.69967 -3.13033 0
M  V30 729 O 70.4386 2.8258 -4.67772 0
M  V30 730 H 67.5326 0.457653 -0.688827 0
M  V30 731 H 70.0786 0.224073 -1.68214 0
M  V30 732 H 68.8506 0.844105 -3.82087 0
M  V30 733 H 68.4736 2.42336 -3.15212 0
M  V30 734 N 69.4707 1.49531 0.497807 0
M  V30 735 C 70.8867 1.36365 0.829266 0
M  V30 736 C 71.0867 0.399184 1.97506 0
M  V30 737 O 70.1427 -0.167977 2.51941 0
M  V30 738 C 71.4557 2.77153 1.16647 0
M  V30 739 C 73.0037 2.85877 1.27449 0
M  V30 740 C 73.4787 4.2744 1.64497 0
M  V30 741 N 74.9697 4.30265 1.7154 0
M  V30 742 C 75.7047 5.3677 2.01656 0
M  V30 743 N 75.2007 6.53516 2.29976 0
M  V30 744 N 76.9937 5.24189 2.02934 0
M  V30 745 H 69.1447 2.10831 -0.257703 0
M  V30 746 H 71.4077 0.946534 -0.0527091 0
M  V30 747 H 71.1137 3.49442 0.397872 0
M  V30 748 H 70.9877 3.12722 2.10915 0
M  V30 749 H 73.3747 2.13824 2.0338 0
M  V30 750 H 73.4557 2.53887 0.312244 0
M  V30 751 H 73.0997 5.00021 0.891151 0
M  V30 752 H 73.0297 4.56896 2.61827 0
M  V30 753 H 75.5207 3.4607 1.51802 0
M  V30 754 H 75.8337 7.30506 2.52153 0
M  V30 755 H 74.1787 6.56737 2.27425 0
M  V30 756 H 77.3697 4.31988 1.80289 0
M  V30 757 H 77.5427 6.07286 2.26071 0
M  V30 758 N 70.9488 -0.749086 1.3866 0
M  V30 759 C 72.1768 -1.53834 1.38358 0
M  V30 760 C 72.5918 -1.88783 -0.0255219 0
M  V30 761 O 71.9488 -1.53101 -0.993292 0
M  V30 762 C 71.9998 -2.83468 2.2434 0
M  V30 763 O 71.7208 -2.50008 3.5976 0
M  V30 764 C 73.2218 -3.7758 2.32267 0
M  V30 765 H 70.4418 -0.47585 0.473083 0
M  V30 766 H 72.9858 -0.926726 1.82297 0
M  V30 767 H 71.1408 -3.40995 1.83851 0
M  V30 768 H 71.5548 -3.33182 4.05081 0
M  V30 769 H 73.0288 -4.65478 2.96706 0
M  V30 770 H 73.5058 -4.18334 1.33765 0
M  V30 771 H 74.1118 -3.25976 2.73166 0
M  V30 772 N 72.4269 -1.23603 -0.977757 0
M  V30 773 C 73.3739 -1.01954 -2.07061 0
M  V30 774 C 74.3439 0.0638697 -1.65977 0
M  V30 775 O 75.5289 -0.0887624 -1.90593 0
M  V30 776 C 72.6689 -0.619658 -3.39491 0
M  V30 777 C 71.7819 -1.77547 -3.93829 0
M  V30 778 C 70.9169 -1.32212 -5.14484 0
M  V30 779 C 69.9559 -2.44852 -5.60994 0
M  V30 780 N 69.0929 -2.00456 -6.72876 0
M  V30 781 H 73.9329 -1.95495 -2.24913 0
M  V30 782 H 71.4699 -0.973861 -1.10247 0
M  V30 783 H 73.4279 -0.368898 -4.15566 0
M  V30 784 H 72.0579 0.278752 -3.21594 0
M  V30 785 H 71.1099 -2.14016 -3.14486 0
M  V30 786 H 72.4219 -2.62219 -4.24314 0
M  V30 787 H 71.5759 -1.02965 -5.97899 0
M  V30 788 H 70.3149 -0.445808 -4.85658 0
M  V30 789 H 69.3199 -2.74871 -4.76157 0
M  V30 790 H 70.5449 -3.33024 -5.91837 0
M  V30 791 H 68.4909 -1.15208 -6.45804 0
M  V30 792 H 68.4079 -2.78687 -7.02759 0
M  V30 793 H 69.6759 -1.7432 -7.59758 0
M  V30 794 N 73.905 1.17692 -1.04816 0
M  V30 795 C 75.321 1.39863 -0.768794 0
M  V30 796 C 75.521 1.91118 0.638451 0
M  V30 797 O 74.577 2.10036 1.40146 0
M  V30 798 C 75.89 2.39274 -1.82122 0
M  V30 799 C 77.438 2.52987 -1.843 0
M  V30 800 C 77.913 3.55669 -2.88555 0
M  V30 801 N 79.404 3.63183 -2.87493 0
M  V30 802 C 80.139 4.42381 -3.64811 0
M  V30 803 N 79.635 5.25125 -4.51903 0
M  V30 804 N 81.428 4.37217 -3.53267 0
M  V30 805 H 73.579 0.82752 -1.95617 0
M  V30 806 H 75.842 0.426123 -0.846831 0
M  V30 807 H 75.548 2.08678 -2.83102 0
M  V30 808 H 75.422 3.38725 -1.65967 0
M  V30 809 H 77.809 2.82896 -0.839869 0
M  V30 810 H 77.89 1.53623 -2.04532 0
M  V30 811 H 77.534 3.26499 -3.89051 0
M  V30 812 H 77.464 4.54728 -2.65575 0
M  V30 813 H 79.955 3.04103 -2.24343 0
M  V30 814 H 80.268 5.82728 -5.07591 0
M  V30 815 H 78.613 5.24519 -4.55966 0
M  V30 816 H 81.804 3.71626 -2.84625 0
M  V30 817 H 81.977 4.98696 -4.13771 0
M  V30 818 N 75.3831 0.828654 1.34056 0
M  V30 819 C 76.3301 0.252567 2.29414 0
M  V30 820 C 77.3001 -0.62588 1.53857 0
M  V30 821 O 78.4851 -0.566312 1.82202 0
M  V30 822 C 75.6251 -0.574831 3.40279 0
M  V30 823 C 74.7381 0.326499 4.30764 0
M  V30 824 C 73.8731 -0.511016 5.28736 0
M  V30 825 C 72.9121 0.389342 6.1086 0
M  V30 826 N 72.0491 -0.409439 7.00905 0
M  V30 827 H 76.8891 1.07108 2.78086 0
M  V30 828 H 74.4261 0.539677 1.36843 0
M  V30 829 H 76.3841 -1.06992 4.03248 0
M  V30 830 H 75.0141 -1.35841 2.92826 0
M  V30 831 H 74.0661 0.939837 3.68607 0
M  V30 832 H 75.3781 1.01857 4.88289 0
M  V30 833 H 74.5321 -1.07035 5.97184 0
M  V30 834 H 73.2711 -1.23657 4.71763 0
M  V30 835 H 72.2761 0.960769 5.4134 0
M  V30 836 H 73.5011 1.1131 6.69916 0
M  V30 837 H 71.4471 -1.11856 6.46393 0
M  V30 838 H 71.3641 0.224126 7.55668 0
M  V30 839 H 72.6321 -0.951336 7.73673 0
M  V30 840 N 76.8612 -1.46375 0.584142 0
M  V30 841 C 78.1102 -2.01585 0.0679741 0
M  V30 842 C 78.4232 -1.46109 -1.30045 0
M  V30 843 O 79.6292 -1.93148 -1.90804 0
M  V30 844 C 78.0852 -3.5983 0.0709207 0
M  V30 845 C 77.6932 -4.24303 1.43775 0
M  V30 846 C 79.4372 -4.22693 -0.391228 0
M  V30 847 C 77.3442 -5.74631 1.39834 0
M  V30 848 H 76.2742 -0.753689 0.0216421 0
M  V30 849 H 78.9252 -1.68093 0.736001 0
M  V30 850 H 77.3072 -3.90405 -0.663299 0
M  V30 851 H 78.4812 -4.05335 2.19181 0
M  V30 852 H 76.7962 -3.73539 1.84004 0
M  V30 853 H 79.3932 -5.3289 -0.439524 0
M  V30 854 H 79.7362 -3.91728 -1.40906 0
M  V30 855 H 80.2692 -3.96749 0.288974 0
M  V30 856 H 77.0082 -6.10258 2.39303 0
M  V30 857 H 76.5282 -5.95858 0.686505 0
M  V30 858 H 78.2072 -6.37375 1.11187 0
M  V30 859 N 78.3393 -0.321999 -1.54275 0
M  V30 860 C 79.2713 0.578671 -2.21775 0
M  V30 861 C 80.2843 1.08109 -1.21722 0
M  V30 862 O 81.4733 0.994938 -1.482 0
M  V30 863 C 78.5733 1.80661 -2.86731 0
M  V30 864 C 77.7463 1.44314 -4.12907 0
M  V30 865 C 76.8053 2.52845 -4.61472 0
M  V30 866 O 75.8313 2.17054 -5.2619 0
M  V30 867 N 77.0333 3.83748 -4.35566 0
M  V30 868 H 79.7983 0.000709447 -2.997 0
M  V30 869 H 77.3593 -0.145132 -1.61248 0
M  V30 870 H 79.3513 2.52655 -3.16145 0
M  V30 871 H 77.9213 2.29245 -2.12521 0
M  V30 872 H 77.1413 0.554906 -3.90275 0
M  V30 873 H 78.4293 1.17598 -4.95023 0
M  V30 874 H 77.8273 4.15625 -3.83761 0
M  V30 875 H 76.3843 4.51977 -4.69638 0
M  V30 876 N 79.8174 1.5752 -0.0501392 0
M  V30 877 C 81.2334 1.56631 0.306402 0
M  V30 878 C 81.4334 1.0577 1.71508 0
M  V30 879 O 80.4894 0.713837 2.422 0
M  V30 880 C 81.8024 3.00393 0.135811 0
M  V30 881 C 83.3504 3.12315 0.206993 0
M  V30 882 C 83.8254 4.57954 0.064944 0
M  V30 883 N 85.3164 4.63041 0.121254 0
M  V30 884 C 86.0514 5.73389 0.0354381 0
M  V30 885 N 85.5474 6.92724 -0.102666 0
M  V30 886 N 87.3404 5.62026 0.090946 0
M  V30 887 H 79.4914 1.88903 -0.971046 0
M  V30 888 H 81.7544 0.869876 -0.376855 0
M  V30 889 H 81.4604 3.41635 -0.835384 0
M  V30 890 H 81.3344 3.66373 0.897275 0
M  V30 891 H 83.7214 2.70973 1.16866 0
M  V30 892 H 83.8024 2.49016 -0.585208 0
M  V30 893 H 83.4464 4.99981 -0.893394 0
M  V30 894 H 83.3764 5.19258 0.876277 0
M  V30 895 H 85.8674 3.77216 0.227284 0
M  V30 896 H 86.1804 7.72633 -0.160882 0
M  V30 897 H 84.5254 6.94864 -0.137737 0
M  V30 898 H 87.7164 4.67684 0.197388 0
M  V30 899 H 87.8894 6.47997 0.0206089 0
M  V30 900 N 81.2955 -0.223234 1.56011 0
M  V30 901 C 82.5255 -0.963413 1.82762 0
M  V30 902 C 82.9335 -1.78516 0.626804 0
M  V30 903 O 82.2765 -1.78974 -0.414014 0
M  V30 904 C 82.3385 -1.93126 3.0322 0
M  V30 905 C 82.0025 -1.2942 4.38291 0
M  V30 906 C 82.9995 -0.684916 5.15369 0
M  V30 907 C 80.6845 -1.30647 4.85012 0
M  V30 908 C 82.6785 -0.0963971 6.37327 0
M  V30 909 C 80.3655 -0.71411 6.06913 0
M  V30 910 C 81.3635 -0.110123 6.82911 0
M  V30 911 O 81.0515 0.47303 8.02507 0
M  V30 912 H 80.7835 -0.288011 0.611576 0
M  V30 913 H 83.3375 -0.244103 2.03944 0
M  V30 914 H 81.5675 -2.68952 2.77852 0
M  V30 915 H 83.2565 -2.53685 3.16857 0
M  V30 916 H 84.0225 -0.667774 4.80381 0
M  V30 917 H 79.9015 -1.76598 4.25833 0
M  V30 918 H 83.4455 0.375657 6.96588 0
M  V30 919 H 79.3425 -0.728659 6.41374 0
M  V30 920 H 80.1105 0.367186 8.17676 0
M  V30 921 N 82.7736 -1.49793 -0.48987 0
M  V30 922 C 84.0196 -1.60078 -1.24511 0
M  V30 923 C 84.3526 -0.291608 -1.91998 0
M  V30 924 O 83.6276 0.705647 -1.81248 0
M  V30 925 C 83.9106 -2.76791 -2.30345 0
M  V30 926 C 83.7636 -4.17535 -1.67286 0
M  V30 927 C 85.0826 -2.89111 -3.31817 0
M  V30 928 H 82.2016 -0.582645 -0.451324 0
M  V30 929 H 84.8436 -1.82117 -0.541612 0
M  V30 930 H 82.9936 -2.5813 -2.90346 0
M  V30 931 H 84.6656 -4.4774 -1.11026 0
M  V30 932 H 82.9086 -4.22665 -0.976577 0
M  V30 933 H 83.5796 -4.95094 -2.44103 0
M  V30 934 H 86.0556 -3.06133 -2.81819 0
M  V30 935 H 84.9316 -3.72433 -4.03219 0
M  V30 936 H 85.1926 -1.9893 -3.94815 0
M  V30 937 N 84.2517 0.741722 -1.39055 0
M  V30 938 C 85.6677 1.04638 -1.20512 0
M  V30 939 C 85.8677 2.01405 -0.0620218 0
M  V30 940 O 84.9237 2.45547 0.588457 0
M  V30 941 C 86.2367 1.6151 -2.53643 0
M  V30 942 C 87.7847 1.73623 -2.6043 0
M  V30 943 C 88.2597 2.33906 -3.93767 0
M  V30 944 N 89.7507 2.41323 -3.9537 0
M  V30 945 C 90.4857 2.88888 -4.95309 0
M  V30 946 N 89.9817 3.36401 -6.05645 0
M  V30 947 N 91.7747 2.88037 -4.82692 0
M  V30 948 H 83.9257 0.0998155 -2.12165 0
M  V30 949 H 86.1887 0.106907 -0.941953 0
M  V30 950 H 85.8947 0.978739 -3.37807 0
M  V30 951 H 85.7687 2.60411 -2.72885 0
M  V30 952 H 88.1557 2.36384 -1.76655 0
M  V30 953 H 88.2367 0.733945 -2.45045 0
M  V30 954 H 87.8807 1.71776 -4.7797 0
M  V30 955 H 87.8107 3.34799 -4.06469 0
M  V30 956 H 90.3017 2.07734 -3.15682 0
M  V30 957 H 90.6147 3.71186 -6.77821 0
M  V30 958 H 88.9597 3.34427 -6.09248 0
M  V30 959 H 92.1507 2.50237 -3.95599 0
M  V30 960 H 92.3237 3.24792 -5.60726 0
M  V30 961 N 85.7298 1.2412 0.971189 0
M  V30 962 C 86.6768 1.0305 2.06517 0
M  V30 963 C 87.6468 -0.0550666 1.66009 0
M  V30 964 O 88.8318 0.0988688 1.90544 0
M  V30 965 C 85.9718 0.637653 3.39158 0
M  V30 966 C 85.0848 1.79633 3.92882 0
M  V30 967 C 84.2198 1.34939 5.13775 0
M  V30 968 C 83.2588 2.47823 5.59687 0
M  V30 969 N 82.3958 2.04022 6.71803 0
M  V30 970 H 87.2358 1.96685 2.23873 0
M  V30 971 H 84.7728 0.979694 1.09729 0
M  V30 972 H 86.7308 0.390931 4.15364 0
M  V30 973 H 85.3608 -0.261693 3.21737 0
M  V30 974 H 84.4128 2.15681 3.13346 0
M  V30 975 H 85.7248 2.64466 4.22918 0
M  V30 976 H 84.8788 1.06134 5.97345 0
M  V30 977 H 83.6178 0.471557 4.85415 0
M  V30 978 H 82.6228 2.77392 4.74693 0
M  V30 979 H 83.8478 3.36158 5.90063 0
M  V30 980 H 81.7938 1.18632 6.45184 0
M  V30 981 H 81.7108 2.82409 7.01271 0
M  V30 982 H 82.9788 1.78347 7.58823 0
M  V30 983 N 87.2079 -1.17134 1.05439 0
M  V30 984 C 88.4849 -1.83411 0.679699 0
M  V30 985 C 88.8649 -1.9368 -0.839726 0
M  V30 986 O 88.2129 -1.47325 -1.74664 0
M  V30 987 C 88.4229 -3.20918 1.37159 0
M  V30 988 C 89.7709 -3.96796 1.51123 0
M  V30 989 O 90.7949 -3.30406 1.3308 0
M  V30 990 O 89.6539 -5.15778 1.80651 0
M  V30 991 H 86.7479 -0.79154 0.239569 0
M  V30 992 H 89.2939 -1.24411 1.15413 0
M  V30 993 H 88.0659 -3.08428 2.40807 0
M  V30 994 H 87.6889 -3.87587 0.886674 0
M  V30 995 N 88.686 -0.835752 -1.33615 0
M  V30 996 C 89.934 -0.429109 -1.97492 0
M  V30 997 C 90.255 1.01433 -1.66543 0
M  V30 998 O 89.525 1.70611 -0.962744 0
M  V30 999 H 88.105 -0.155686 -0.730596 0
M  V30 1000 H 90.767 -1.06802 -1.63031 0
M  V30 1001 H 89.863 -0.55861 -3.0706 0
M  V30 1002 N 90.1641 1.46063 -0.591896 0
M  V30 1003 C 91.1111 2.30399 0.136069 0
M  V30 1004 C 92.0811 1.41169 0.875238 0
M  V30 1005 O 93.2661 1.70112 0.86409 0
M  V30 1006 C 90.4061 3.25804 1.13781 0
M  V30 1007 C 89.5191 4.30134 0.401137 0
M  V30 1008 C 88.6541 5.12659 1.39121 0
M  V30 1009 C 87.6931 6.0873 0.641462 0
M  V30 1010 N 86.8301 6.8409 1.58004 0
M  V30 1011 H 91.6701 2.92118 -0.589144 0
M  V30 1012 H 89.2071 1.43959 -0.302342 0
M  V30 1013 H 91.1651 3.79569 1.73156 0
M  V30 1014 H 89.7951 2.65872 1.83062 0
M  V30 1015 H 88.8471 3.79152 -0.307826 0
M  V30 1016 H 90.1591 4.98458 -0.184565 0
M  V30 1017 H 89.3131 5.70747 2.05749 0
M  V30 1018 H 88.0521 4.44316 2.01084 0
M  V30 1019 H 87.0571 5.49786 -0.0385419 0
M  V30 1020 H 88.2821 6.79095 0.0270945 0
M  V30 1021 H 86.2281 6.18449 2.18761 0
M  V30 1022 H 86.1451 7.48709 1.04738 0
M  V30 1023 H 87.4131 7.4673 2.23639 0
M  V30 1024 N 91.6422 0.330177 1.54103 0
M  V30 1025 C 92.8822 -0.270916 2.02597 0
M  V30 1026 C 93.2462 -1.48826 1.21304 0
M  V30 1027 O 94.4472 -2.16266 1.59633 0
M  V30 1028 C 92.7182 -0.590328 3.52491 0
M  V30 1029 S 94.2772 -1.17014 4.2291 0
M  V30 1030 H 91.0952 -0.0815379 0.706309 0
M  V30 1031 H 93.6972 0.464835 1.89893 0
M  V30 1032 H 92.4012 0.303691 4.09275 0
M  V30 1033 H 91.9322 -1.3561 3.69288 0
M  V30 1034 H 93.9472 -2.45662 4.3112 0
M  V30 1035 N 93.1203 -1.57491 0.0584922 0
M  V30 1036 C 94.0683 -2.13148 -0.931168 0
M  V30 1037 C 95.0623 -1.06507 -1.31729 0
M  V30 1038 O 96.2683 -1.24906 -1.29609 0
M  V30 1039 H 92.6433 -0.68137 -0.31818 0
M  V30 1040 H 94.6143 -2.95187 -0.436707 0
M  V30 1041 C 93.3633 -2.69732 -2.19408 0
M  V30 1042 H 92.6863 -3.51454 -1.90578 0
M  V30 1043 H 94.1263 -3.12287 -2.86798 0
M  V30 1044 C 92.5853 -1.63855 -2.94369 0
M  V30 1045 O 93.1153 -1.05565 -3.87581 0
M  V30 1046 N 91.3213 -1.35202 -2.57233 0
M  V30 1047 H 90.8683 -1.82791 -1.81508 0
M  V30 1048 H 90.8263 -0.645922 -3.07693 0
M  V30 1049 N 94.5984 0.214957 -1.56127 0
M  V30 1050 C 95.8444 0.939762 -1.79712 0
M  V30 1051 C 96.1774 1.83723 -0.629247 0
M  V30 1052 O 95.4524 1.90925 0.371197 0
M  V30 1053 C 95.7354 1.77306 -3.13424 0
M  V30 1054 C 95.5884 0.90164 -4.40671 0
M  V30 1055 C 96.9074 2.74956 -3.43638 0
M  V30 1056 H 94.0264 0.340214 -0.653776 0
M  V30 1057 H 96.6684 0.20824 -1.88855 0
M  V30 1058 H 94.8184 2.39673 -3.0576 0
M  V30 1059 H 96.4904 0.294206 -4.60361 0
M  V30 1060 H 94.7334 0.207368 -4.33304 0
M  V30 1061 H 95.4044 1.51923 -5.30682 0
M  V30 1062 H 97.8804 2.22724 -3.51473 0
M  V30 1063 H 96.7564 3.30358 -4.38355 0
M  V30 1064 H 97.0174 3.53023 -2.66134 0
M  V30 1065 N 96.0765 1.50051 0.48192 0
M  V30 1066 C 97.0265 1.64512 1.5786 0
M  V30 1067 C 98.0105 0.500073 1.52932 0
M  V30 1068 O 99.2025 0.753964 1.60139 0
M  V30 1069 C 96.3315 1.73263 2.9637 0
M  V30 1070 C 95.4175 2.93409 3.06222 0
M  V30 1071 N 95.8085 4.17236 2.85915 0
M  V30 1072 C 94.1065 2.91742 3.37346 0
M  V30 1073 C 94.8075 4.981 3.00451 0
M  V30 1074 N 93.7835 4.3184 3.30174 0
M  V30 1075 H 97.5855 2.57955 1.40842 0
M  V30 1076 H 95.0995 1.47086 0.688439 0
M  V30 1077 H 97.0965 1.81724 3.75209 0
M  V30 1078 H 95.7565 0.809711 3.14442 0
M  V30 1079 H 96.7675 4.46909 2.6171 0
M  V30 1080 H 93.4445 2.08907 3.61475 0
M  V30 1081 H 94.8345 6.06532 2.89082 0
M  V30 1082 N 97.5546 -0.734337 1.39446 0
M  V30 1083 C 98.5046 -1.83949 1.34709 0
M  V30 1084 C 99.4886 -1.59279 0.227851 0
M  V30 1085 O 100.681 -1.70771 0.465438 0
M  V30 1086 C 97.8096 -3.21884 1.19356 0
M  V30 1087 C 96.8956 -3.52381 2.35984 0
M  V30 1088 N 97.2866 -3.53811 3.61457 0
M  V30 1089 C 95.5846 -3.82747 2.28956 0
M  V30 1090 C 96.2856 -3.82122 4.38586 0
M  V30 1091 N 95.2616 -3.9993 3.68181 0
M  V30 1092 H 99.0636 -1.83361 2.29687 0
M  V30 1093 H 96.5776 -0.932609 1.32952 0
M  V30 1094 H 98.5746 -4.00998 1.14046 0
M  V30 1095 H 97.2346 -3.23711 0.253295 0
M  V30 1096 H 98.2456 -3.35107 3.94872 0
M  V30 1097 H 94.9226 -3.92175 1.43194 0
M  V30 1098 H 96.3126 -3.89691 5.47349 0
M  V30 1099 N 99.0327 -1.24633 -0.964593 0
M  V30 1100 C 100.281 -1.08573 -1.70459 0
M  V30 1101 C 100.602 0.375655 -1.91347 0
M  V30 1102 O 99.8717 1.26779 -1.49345 0
M  V30 1103 H 98.4517 -0.398784 -0.631649 0
M  V30 1104 H 101.114 -1.56601 -1.16026 0
M  V30 1105 H 100.21 -1.58623 -2.68785 0
M  V30 1106 N 100.511 1.16574 -1.06058 0
M  V30 1107 C 101.459 2.22941 -0.663343 0
M  V30 1108 C 102.453 1.66358 0.319593 0
M  V30 1109 O 103.659 1.7905 0.184713 0
M  V30 1110 H 100.034 0.725907 -0.196376 0
M  V30 1111 H 102.005 2.53736 -1.57037 0
M  V30 1112 C 100.754 3.47642 -0.0632808 0
M  V30 1113 H 100.077 3.91493 -0.810733 0
M  V30 1114 H 101.517 4.2363 0.177177 0
M  V30 1115 C 99.9758 3.1509 1.19248 0
M  V30 1116 O 100.506 3.30673 2.28075 0
M  V30 1117 N 98.7118 2.6924 1.09353 0
M  V30 1118 H 98.2588 2.5676 0.207912 0
M  V30 1119 H 98.2168 2.47833 1.93458 0
M  V30 1120 N 101.989 0.842826 1.3317 0
M  V30 1121 C 103.235 0.441099 1.97945 0
M  V30 1122 C 103.568 -0.998024 1.66593 0
M  V30 1123 O 102.843 -1.69839 0.947898 0
M  V30 1124 C 103.126 0.666841 3.53872 0
M  V30 1125 C 102.979 2.15352 3.94897 0
M  V30 1126 C 104.298 0.115544 4.39948 0
M  V30 1127 H 101.417 0.161739 0.719034 0
M  V30 1128 H 104.059 1.05907 1.57746 0
M  V30 1129 H 102.209 0.140828 3.88245 0
M  V30 1130 H 103.881 2.7447 3.70761 0
M  V30 1131 H 102.124 2.63653 3.44484 0
M  V30 1132 H 102.795 2.26221 5.03516 0
M  V30 1133 H 105.271 0.565213 4.12243 0
M  V30 1134 H 104.147 0.303152 5.48062 0
M  V30 1135 H 104.408 -0.980935 4.3108 0
M  V30 1136 N 103.467 -1.45747 0.599634 0
M  V30 1137 C 104.883 -1.57424 0.26264 0
M  V30 1138 C 105.083 -1.59222 -1.23493 0
M  V30 1139 O 104.139 -1.51825 -2.01756 0
M  V30 1140 C 105.452 -2.86061 0.926795 0
M  V30 1141 C 107 -2.99722 0.901967 0
M  V30 1142 C 107.475 -4.31119 1.54598 0
M  V30 1143 N 108.966 -4.37858 1.5111 0
M  V30 1144 C 109.701 -5.3818 1.97863 0
M  V30 1145 N 109.197 -6.45083 2.52666 0
M  V30 1146 N 110.99 -5.29487 1.88679 0
M  V30 1147 H 103.141 -1.42823 1.57211 0
M  V30 1148 H 105.404 -0.68235 0.658105 0
M  V30 1149 H 105.11 -2.90605 1.98095 0
M  V30 1150 H 104.984 -3.74563 0.445238 0
M  V30 1151 H 107.371 -2.9475 -0.143617 0
M  V30 1152 H 107.452 -2.12652 1.42171 0
M  V30 1153 H 107.096 -4.36849 2.59085 0
M  V30 1154 H 107.026 -5.16992 1.00132 0
M  V30 1155 H 109.517 -3.61209 1.11068 0
M  V30 1156 H 109.83 -7.17869 2.86155 0
M  V30 1157 H 108.175 -6.45856 2.56701 0
M  V30 1158 H 111.366 -4.44877 1.4561 0
M  V30 1159 H 111.539 -6.07524 2.25429 0
M  V30 1160 N 104.945 -0.338344 -1.53925 0
M  V30 1161 C 105.855 0.529421 -2.28548 0
M  V30 1162 C 106.871 1.11645 -1.3346 0
M  V30 1163 O 108.047 1.13325 -1.66492 0
M  V30 1164 C 105.112 1.66713 -3.03987 0
M  V30 1165 C 104.173 1.11041 -4.14691 0
M  V30 1166 C 103.406 2.19389 -4.86522 0
M  V30 1167 O 103.629 3.40013 -4.57982 0
M  V30 1168 O 102.563 1.83976 -5.73094 0
M  V30 1169 H 106.389 -0.0770399 -3.03602 0
M  V30 1170 H 103.974 -0.103555 -1.49041 0
M  V30 1171 H 105.856 2.32918 -3.5118 0
M  V30 1172 H 104.531 2.25949 -2.31794 0
M  V30 1173 H 103.438 0.413024 -3.71813 0
M  V30 1174 H 104.771 0.562975 -4.8897 0
M  V30 1175 N 106.423 1.57458 -0.0668435 0
M  V30 1176 C 107.651 1.97624 0.612565 0
M  V30 1177 C 108.066 0.94502 1.63447 0
M  V30 1178 O 107.423 -0.0689276 1.8237 0
M  V30 1179 C 107.474 3.37869 1.28555 0
M  V30 1180 O 107.195 4.3704 0.304557 0
M  V30 1181 C 108.696 3.92882 2.05325 0
M  V30 1182 H 105.916 0.650045 0.166381 0
M  V30 1183 H 108.46 2.04035 -0.137782 0
M  V30 1184 H 106.615 3.3256 1.98702 0
M  V30 1185 H 107.029 5.18565 0.786779 0
M  V30 1186 H 108.503 4.93247 2.47812 0
M  V30 1187 H 108.98 3.29156 2.9078 0
M  V30 1188 H 109.586 4.01577 1.40056 0
M  V30 1189 N 107.901 -0.206675 1.56239 0
M  V30 1190 C 109.131 -0.943975 1.83773 0
M  V30 1191 C 109.539 -1.77841 0.645703 0
M  V30 1192 O 108.882 -1.79403 -0.395008 0
M  V30 1193 C 108.944 -1.899 3.05251 0
M  V30 1194 C 108.608 -1.24764 4.39639 0
M  V30 1195 C 109.605 -0.630216 5.16066 0
M  V30 1196 C 107.29 -1.25496 4.8637 0
M  V30 1197 C 109.284 -0.0287946 6.37393 0
M  V30 1198 C 106.971 -0.649698 6.07637 0
M  V30 1199 C 107.969 -0.0376845 6.8299 0
M  V30 1200 O 107.657 0.55812 8.0196 0
M  V30 1201 H 107.389 -0.281508 0.614597 0
M  V30 1202 H 109.943 -0.222458 2.04192 0
M  V30 1203 H 108.173 -2.6599 2.80689 0
M  V30 1204 H 109.862 -2.5031 3.1953 0
M  V30 1205 H 110.628 -0.616785 4.81062 0
M  V30 1206 H 106.507 -1.72072 4.27683 0
M  V30 1207 H 110.051 0.449518 6.9615 0
M  V30 1208 H 105.948 -0.660592 6.42111 0
M  V30 1209 H 106.716 0.453891 8.17241 0
M  V30 1210 N 109.379 -1.50304 -0.473955 0
M  V30 1211 C 110.795 -1.37667 -0.807466 0
M  V30 1212 C 110.995 -0.430555 -1.96846 0
M  V30 1213 O 110.051 0.127874 -2.52176 0
M  V30 1214 C 111.364 -2.78974 -1.12223 0
M  V30 1215 C 112.912 -2.87868 -1.22885 0
M  V30 1216 C 113.387 -4.30003 -1.57676 0
M  V30 1217 N 114.878 -4.3294 -1.64673 0
M  V30 1218 C 115.613 -5.3991 -1.93091 0
M  V30 1219 N 115.109 -6.57092 -2.1955 0
M  V30 1220 N 116.902 -5.27351 -1.94569 0
M  V30 1221 H 109.053 -2.10394 0.291212 0
M  V30 1222 H 111.316 -0.945575 0.0677609 0
M  V30 1223 H 111.022 -3.50031 -0.342229 0
M  V30 1224 H 110.896 -3.16038 -2.05913 0
M  V30 1225 H 113.283 -2.17032 -1.99953 0
M  V30 1226 H 113.364 -2.54352 -0.271814 0
M  V30 1227 H 113.008 -5.01375 -0.81149 0
M  V30 1228 H 112.938 -4.61004 -2.54525 0
M  V30 1229 H 115.429 -3.48441 -1.46277 0
M  V30 1230 H 115.742 -7.34425 -2.405 0
M  V30 1231 H 114.087 -6.60272 -2.16948 0
M  V30 1232 H 117.278 -4.34801 -1.73394 0
M  V30 1233 H 117.451 -6.10805 -2.16381 0
M  V30 1234 N 110.857 0.726932 -1.39834 0
M  V30 1235 C 112.087 1.51393 -1.40583 0
M  V30 1236 C 112.495 1.892 -0.000740625 0
M  V30 1237 O 111.838 1.55189 0.982951 0
M  V30 1238 C 111.9 2.82588 -2.22226 0
M  V30 1239 C 111.564 2.67169 -3.70769 0
M  V30 1240 C 112.561 2.3518 -4.63666 0
M  V30 1241 C 110.246 2.83788 -4.14451 0
M  V30 1242 C 112.24 2.20002 -5.98229 0
M  V30 1243 C 109.927 2.68229 -5.49087 0
M  V30 1244 C 110.925 2.36382 -6.4079 0
M  V30 1245 O 110.613 2.2093 -7.72946 0
M  V30 1246 H 110.345 0.474168 -0.48181 0
M  V30 1247 H 112.899 0.905247 -1.84376 0
M  V30 1248 H 111.129 3.45746 -1.73195 0
M  V30 1249 H 112.818 3.44247 -2.15055 0
M  V30 1250 H 113.584 2.21984 -4.31217 0
M  V30 1251 H 109.463 3.07566 -3.43401 0
M  V30 1252 H 113.007 1.95067 -6.69772 0
M  V30 1253 H 108.904 2.81006 -5.81125 0
M  V30 1254 H 109.672 2.35937 -7.83757 0
M  V30 1255 N 112.336 1.25143 0.95797 0
M  V30 1256 C 113.266 1.07711 2.07173 0
M  V30 1257 C 114.247 -0.0128462 1.70095 0
M  V30 1258 O 115.432 0.156061 1.93572 0
M  V30 1259 C 112.562 0.691503 3.40346 0
M  V30 1260 C 111.516 1.73132 3.9142 0
M  V30 1261 C 110.842 1.20049 5.21049 0
M  V30 1262 C 112.142 3.1294 4.1817 0
M  V30 1263 H 113.836 2.00873 2.22014 0
M  V30 1264 H 111.382 0.967191 1.06684 0
M  V30 1265 H 113.335 0.556505 4.17709 0
M  V30 1266 H 112.059 -0.275819 3.25433 0
M  V30 1267 H 110.718 1.8547 3.16222 0
M  V30 1268 H 110.366 0.223499 5.02503 0
M  V30 1269 H 110.066 1.89545 5.56189 0
M  V30 1270 H 111.59 1.07782 6.01012 0
M  V30 1271 H 113.004 3.03775 4.86203 0
M  V30 1272 H 111.401 3.79875 4.64559 0
M  V30 1273 H 112.471 3.6025 3.24573 0
M  V30 1274 N 113.814 -1.1601 1.06675 0
M  V30 1275 C 115.042 -1.90527 0.806667 0
M  V30 1276 C 115.457 -1.77643 -0.639396 0
M  V30 1277 O 114.814 -1.12369 -1.43803 0
M  V30 1278 C 114.865 -3.41106 1.19705 0
M  V30 1279 O 114.586 -3.53608 2.58636 0
M  V30 1280 C 116.087 -4.32663 0.965266 0
M  V30 1281 H 113.307 -0.604053 0.292166 0
M  V30 1282 H 115.851 -1.47026 1.4214 0
M  V30 1283 H 114.006 -3.82296 0.626774 0
M  V30 1284 H 114.42 -4.47011 2.74375 0
M  V30 1285 H 115.894 -5.36763 1.288 0
M  V30 1286 H 116.371 -4.39089 -0.0987936 0
M  V30 1287 H 116.977 -3.97206 1.52011 0
M  V30 1288 N 115.292 -0.849877 -1.32721 0
M  V30 1289 C 116.569 -0.372405 -1.92022 0
M  V30 1290 C 116.949 1.1435 -1.77447 0
M  V30 1291 O 116.297 1.96296 -1.16962 0
M  V30 1292 C 116.507 -0.831482 -3.3895 0
M  V30 1293 C 117.855 -0.845882 -4.16089 0
M  V30 1294 O 118.879 -0.775806 -3.47649 0
M  V30 1295 O 117.738 -0.943753 -5.38289 0
M  V30 1296 H 114.832 -0.107667 -0.819961 0
M  V30 1297 H 117.378 -0.93646 -1.41522 0
M  V30 1298 H 116.15 -1.87448 -3.4348 0
M  V30 1299 H 115.773 -0.24461 -3.96847 0
M  V30 1300 N 116.77 1.45427 -0.607355 0
M  V30 1301 C 118.019 2.01452 -0.100036 0
M  V30 1302 C 118.332 1.48159 1.27704 0
M  V30 1303 O 119.538 1.96159 1.87707 0
M  V30 1304 C 117.994 3.59672 -0.128158 0
M  V30 1305 C 117.602 4.21962 -1.50507 0
M  V30 1306 C 119.346 4.23262 0.323932 0
M  V30 1307 C 117.253 5.72333 -1.48959 0
M  V30 1308 H 116.183 0.75325 -0.0336299 0
M  V30 1309 H 118.834 1.66901 -0.76265 0
M  V30 1310 H 117.216 3.91411 0.601105 0
M  V30 1311 H 118.39 4.01796 -2.25602 0
M  V30 1312 H 116.705 3.70565 -1.89923 0
M  V30 1313 H 119.302 5.33522 0.354691 0
M  V30 1314 H 119.645 3.93921 1.34656 0
M  V30 1315 H 120.178 3.96239 -0.352056 0
M  V30 1316 H 116.917 6.06373 -2.48981 0
M  V30 1317 H 116.437 5.94691 -0.781214 0
M  V30 1318 H 118.116 6.35525 -1.21313 0
M  V30 1319 N 118.248 0.346503 1.53744 0
M  V30 1320 C 119.495 -0.249104 2.00962 0
M  V30 1321 C 119.823 -1.5032 1.23426 0
M  V30 1322 O 119.078 -1.93217 0.310761 0
M  V30 1323 C 119.377 -0.605809 3.52228 0
M  V30 1324 C 119.043 0.551747 4.47512 0
M  V30 1325 C 117.705 0.86941 4.73281 0
M  V30 1326 C 120.057 1.32818 5.03993 0
M  V30 1327 C 117.385 1.96582 5.52786 0
M  V30 1328 C 119.737 2.41486 5.84694 0
M  V30 1329 C 118.401 2.73808 6.08757 0
M  V30 1330 H 117.671 -0.0911538 0.735372 0
M  V30 1331 H 120.318 0.475027 1.85515 0
M  V30 1332 H 118.623 -1.4107 3.65522 0
M  V30 1333 H 120.32 -1.07858 3.86222 0
M  V30 1334 H 116.91 0.294102 4.2759 0
M  V30 1335 H 121.094 1.09602 4.84047 0
M  V30 1336 H 116.35 2.22045 5.69654 0
M  V30 1337 H 120.524 3.02078 6.27473 0
M  V30 1338 H 118.151 3.58892 6.7015 0
M  V30 1339 N 119.726 -1.57421 0.075193 0
M  V30 1340 C 120.954 -1.97946 -0.602076 0
M  V30 1341 C 121.369 -0.953674 -1.62943 0
M  V30 1342 O 120.726 0.0592551 -1.82404 0
M  V30 1343 C 120.777 -3.38546 -1.26762 0
M  V30 1344 O 120.498 -4.37195 -0.281376 0
M  V30 1345 C 121.999 -3.93966 -2.03239 0
M  V30 1346 H 119.219 -0.650918 -0.162931 0
M  V30 1347 H 121.763 -2.03959 0.148601 0
M  V30 1348 H 119.918 -3.33609 -1.96936 0
M  V30 1349 H 120.332 -5.18975 -0.759267 0
M  V30 1350 H 121.806 -4.94555 -2.45193 0
M  V30 1351 H 122.283 -3.30693 -2.8903 0
M  V30 1352 H 122.889 -4.02315 -1.37924 0
M  V30 1353 N 121.204 0.198386 -1.56346 0
M  V30 1354 C 122.432 0.935572 -1.84539 0
M  V30 1355 C 122.847 1.76989 -0.657281 0
M  V30 1356 O 122.204 1.78626 0.374043 0
M  V30 1357 C 122.255 1.8344 -3.11499 0
M  V30 1358 O 121.976 1.03377 -4.25728 0
M  V30 1359 C 123.477 2.68355 -3.52846 0
M  V30 1360 H 120.697 0.273126 -0.612897 0
M  V30 1361 H 123.241 0.20663 -2.03453 0
M  V30 1362 H 121.396 2.51701 -2.94492 0
M  V30 1363 H 121.81 1.64599 -4.98003 0
M  V30 1364 H 123.284 3.27085 -4.44657 0
M  V30 1365 H 123.761 3.41901 -2.75681 0
M  V30 1366 H 124.367 2.05471 -3.72373 0
M  V30 1367 N 122.682 1.50554 0.465978 0
M  V30 1368 C 123.612 1.72722 1.57128 0
M  V30 1369 C 124.593 0.576294 1.6004 0
M  V30 1370 O 125.778 0.81598 1.76225 0
M  V30 1371 C 122.908 1.82605 2.95419 0
M  V30 1372 C 121.862 2.97835 3.07373 0
M  V30 1373 C 121.188 2.92867 4.47363 0
M  V30 1374 C 122.488 4.38265 2.84114 0
M  V30 1375 H 124.182 2.65267 1.38829 0
M  V30 1376 H 121.728 1.2765 0.666441 0
M  V30 1377 H 123.681 1.96698 3.72677 0
M  V30 1378 H 122.405 0.866858 3.14886 0
M  V30 1379 H 121.064 2.83401 2.3255 0
M  V30 1380 H 120.712 1.94783 4.63755 0
M  V30 1381 H 120.412 3.70227 4.56296 0
M  V30 1382 H 121.936 3.09015 5.26633 0
M  V30 1383 H 123.35 4.53198 3.51118 0
M  V30 1384 H 121.747 5.17115 3.04487 0
M  V30 1385 H 122.817 4.50281 1.7993 0
M  V30 1386 N 124.16 -0.719506 1.40217 0
M  V30 1387 C 125.406 -1.48152 1.38488 0
M  V30 1388 C 125.739 -1.94195 -0.0141867 0
M  V30 1389 O 125.014 -1.67884 -0.982096 0
M  V30 1390 C 125.297 -2.71035 2.37091 0
M  V30 1391 C 125.15 -2.30912 3.86005 0
M  V30 1392 C 126.469 -3.73182 2.33288 0
M  V30 1393 H 123.588 -0.537395 0.504357 0
M  V30 1394 H 126.23 -0.821472 1.71324 0
M  V30 1395 H 124.38 -3.27352 2.0922 0
M  V30 1396 H 126.052 -1.80107 4.24687 0
M  V30 1397 H 124.295 -1.62958 4.02029 0
M  V30 1398 H 124.966 -3.18978 4.50508 0
M  V30 1399 H 127.442 -3.26485 2.57966 0
M  V30 1400 H 126.318 -4.56806 3.04334 0
M  V30 1401 H 126.579 -4.21202 1.34317 0
M  V30 1402 N 125.638 -1.25649 -0.95132 0
M  V30 1403 C 126.915 -1.01361 -1.67288 0
M  V30 1404 C 127.295 0.459135 -2.06046 0
M  V30 1405 O 126.643 1.43723 -1.7764 0
M  V30 1406 C 126.853 -1.95256 -2.89268 0
M  V30 1407 C 128.201 -2.23289 -3.61147 0
M  V30 1408 O 129.225 -1.93041 -2.99355 0
M  V30 1409 O 128.084 -2.74741 -4.72419 0
M  V30 1410 H 125.178 -0.38464 -0.732107 0
M  V30 1411 H 127.724 -1.36817 -1.00395 0
M  V30 1412 H 126.496 -2.94685 -2.57442 0
M  V30 1413 H 126.119 -1.60218 -3.6389 0
M  V30 1414 N 127.117 1.15442 -1.07289 0
M  V30 1415 C 128.047 2.22312 -0.714107 0
M  V30 1416 C 129.028 1.67467 0.298155 0
M  V30 1417 O 130.213 1.93445 0.171048 0
M  V30 1418 C 127.343 3.47124 -0.110448 0
M  V30 1419 C 126.297 4.14926 -1.04979 0
M  V30 1420 C 125.623 5.33807 -0.308924 0
M  V30 1421 C 126.923 4.64762 -2.38314 0
M  V30 1422 H 128.617 2.5258 -1.6076 0
M  V30 1423 H 126.163 1.21404 -0.77441 0
M  V30 1424 H 128.116 4.21124 0.152482 0
M  V30 1425 H 126.84 3.16187 0.81812 0
M  V30 1426 H 125.499 3.42866 -1.29764 0
M  V30 1427 H 125.147 4.99126 0.623084 0
M  V30 1428 H 124.847 5.80113 -0.935036 0
M  V30 1429 H 126.371 6.10576 -0.0537771 0
M  V30 1430 H 127.785 5.30292 -2.1786 0
M  V30 1431 H 126.182 5.21728 -2.96514 0
M  V30 1432 H 127.252 3.80434 -3.00663 0
M  V30 1433 N 128.595 0.856903 1.32268 0
M  V30 1434 C 129.542 0.301172 2.28827 0
M  V30 1435 C 130.512 -0.593104 1.5515 0
M  V30 1436 O 131.697 -0.527537 1.83362 0
M  V30 1437 C 128.837 -0.502523 3.41422 0
M  V30 1438 C 127.95 0.417797 4.29975 0
M  V30 1439 C 127.085 -0.398749 5.29701 0
M  V30 1440 C 126.124 0.518827 6.09897 0
M  V30 1441 N 125.261 -0.260674 7.01616 0
M  V30 1442 H 130.101 1.12983 2.75751 0
M  V30 1443 H 127.638 0.568582 1.35667 0
M  V30 1444 H 129.596 -0.984141 4.05426 0
M  V30 1445 H 128.226 -1.29599 2.95642 0
M  V30 1446 H 127.278 1.01781 3.66531 0
M  V30 1447 H 128.59 1.12191 4.86019 0
M  V30 1448 H 127.744 -0.943435 5.9932 0
M  V30 1449 H 126.483 -1.13622 4.7428 0
M  V30 1450 H 125.488 1.07538 5.39181 0
M  V30 1451 H 126.713 1.25495 6.67404 0
M  V30 1452 H 124.659 -0.981198 6.4862 0
M  V30 1453 H 124.576 0.384364 7.55022 0
M  V30 1454 H 125.844 -0.787014 7.75517 0
M  V30 1455 N 130.073 -1.45103 0.615059 0
M  V30 1456 C 131.319 -2.03035 0.121804 0
M  V30 1457 C 131.674 -1.47393 -1.23665 0
M  V30 1458 O 130.967 -0.642061 -1.80522 0
M  V30 1459 C 131.161 -3.57386 0.0318797 0
M  V30 1460 C 130.99 -4.28 1.38007 0
M  V30 1461 C 129.76 -4.65624 1.9627 0
M  V30 1462 C 131.958 -4.5948 2.31047 0
M  V30 1463 N 129.94 -5.21132 3.24492 0
M  V30 1464 C 131.311 -5.159 3.43872 0
M  V30 1465 C 133.366 -4.41423 2.30326 0
M  V30 1466 C 132.069 -5.56165 4.5615 0
M  V30 1467 C 134.095 -4.82726 3.41658 0
M  V30 1468 C 133.457 -5.39245 4.53205 0
M  V30 1469 H 129.556 -0.77702 0.0881159 0
M  V30 1470 H 132.14 -1.76819 0.815044 0
M  V30 1471 H 130.311 -3.83247 -0.630599 0
M  V30 1472 H 132.043 -4.01976 -0.468721 0
M  V30 1473 H 128.798 -4.49421 1.49392 0
M  V30 1474 H 129.222 -5.53377 3.90004 0
M  V30 1475 H 133.864 -3.97033 1.45343 0
M  V30 1476 H 131.582 -5.99517 5.41854 0
M  V30 1477 H 135.168 -4.7048 3.42257 0
M  V30 1478 H 134.048 -5.70616 5.37929 0
M  V30 1479 N 131.551 -0.354651 -1.53558 0
M  V30 1480 C 132.967 -0.00315426 -1.596 0
M  V30 1481 C 133.167 1.47741 -1.37021 0
M  V30 1482 O 132.223 2.23759 -1.16996 0
M  V30 1483 C 133.536 -0.44929 -2.97325 0
M  V30 1484 C 135.084 -0.402578 -3.104 0
M  V30 1485 C 135.559 -0.824355 -4.5052 0
M  V30 1486 N 137.05 -0.778979 -4.56603 0
M  V30 1487 C 137.785 -1.07715 -5.63192 0
M  V30 1488 N 137.281 -1.44405 -6.77583 0
M  V30 1489 N 139.074 -1.00066 -5.53121 0
M  V30 1490 H 131.225 -1.31893 -1.66487 0
M  V30 1491 H 133.488 -0.538388 -0.780284 0
M  V30 1492 H 133.194 -1.48202 -3.1895 0
M  V30 1493 H 133.068 0.169772 -3.76818 0
M  V30 1494 H 135.455 0.621004 -2.88492 0
M  V30 1495 H 135.536 -1.05699 -2.32941 0
M  V30 1496 H 135.18 -1.846 -4.73165 0
M  V30 1497 H 135.11 -0.147304 -5.26394 0
M  V30 1498 H 137.601 -0.508528 -3.74463 0
M  V30 1499 H 137.914 -1.65612 -7.54846 0
M  V30 1500 H 136.259 -1.4826 -6.79002 0
M  V30 1501 H 139.45 -0.713293 -4.62633 0
M  V30 1502 H 139.623 -1.23638 -6.36096 0
M  V30 1503 N 133.029 1.57378 -0.0835403 0
M  V30 1504 C 134.276 1.9393 0.58287 0
M  V30 1505 C 134.604 0.964455 1.68904 0
M  V30 1506 O 133.859 -0.0179474 1.95692 0
M  V30 1507 C 134.158 3.37063 1.1884 0
M  V30 1508 C 133.824 4.50424 0.207194 0
M  V30 1509 C 132.486 4.81159 -0.0627115 0
M  V30 1510 C 134.838 5.19136 -0.463426 0
M  V30 1511 C 132.166 5.77939 -1.01012 0
M  V30 1512 C 134.518 6.16931 -1.39924 0
M  V30 1513 C 133.182 6.46078 -1.67749 0
M  V30 1514 H 132.452 0.70964 0.213287 0
M  V30 1515 H 135.099 1.90856 -0.156916 0
M  V30 1516 H 133.404 3.3666 2.00418 0
M  V30 1517 H 135.101 3.6264 1.71153 0
M  V30 1518 H 131.691 4.2646 0.427747 0
M  V30 1519 H 135.875 4.95576 -0.268034 0
M  V30 1520 H 131.131 5.98842 -1.23283 0
M  V30 1521 H 135.305 6.69273 -1.92476 0
M  V30 1522 H 132.932 7.2088 -2.41321 0
M  V30 1523 N 134.507 -0.190092 1.56449 0
M  V30 1524 C 135.455 -1.25501 1.95837 0
M  V30 1525 C 136.449 -1.4685 0.844485 0
M  V30 1526 O 137.655 -1.47651 1.02952 0
M  V30 1527 H 134.03 -0.421447 0.622805 0
M  V30 1528 H 136.001 -0.895821 2.84636 0
M  V30 1529 C 134.75 -2.59124 2.31841 0
M  V30 1530 H 134.073 -2.43514 3.17082 0
M  V30 1531 H 135.513 -3.32371 2.6326 0
M  V30 1532 C 133.972 -3.16488 1.15486 0
M  V30 1533 O 134.502 -3.99365 0.432535 0
M  V30 1534 N 132.708 -2.75305 0.930349 0
M  V30 1535 H 132.255 -2.08013 1.51948 0
M  V30 1536 H 132.213 -3.14024 0.153634 0
M  V30 1537 N 135.985 -1.50799 -0.457987 0
M  V30 1538 C 136.915 -1.73553 -1.5621 0
M  V30 1539 C 137.896 -0.584774 -1.59732 0
M  V30 1540 O 139.081 -0.825314 -1.7579 0
M  V30 1541 C 136.211 -1.84169 -2.94447 0
M  V30 1542 C 135.165 -2.99461 -3.0579 0
M  V30 1543 C 134.491 -2.95235 -4.45803 0
M  V30 1544 C 135.791 -4.39766 -2.81786 0
M  V30 1545 H 137.485 -2.66 -1.37421 0
M  V30 1546 H 135.031 -1.28002 -0.659662 0
M  V30 1547 H 136.984 -1.98672 -3.71628 0
M  V30 1548 H 135.708 -0.883545 -3.14422 0
M  V30 1549 H 134.367 -2.8463 -2.31044 0
M  V30 1550 H 134.015 -1.97239 -4.62715 0
M  V30 1551 H 133.715 -3.72642 -4.54326 0
M  V30 1552 H 135.239 -3.11803 -5.24987 0
M  V30 1553 H 136.653 -4.55054 -3.4871 0
M  V30 1554 H 135.05 -5.18722 -3.0174 0
M  V30 1555 H 136.12 -4.51229 -1.7754 0
M  V30 1556 N 137.463 0.71206 -1.40597 0
M  V30 1557 C 138.393 1.83889 -1.43899 0
M  V30 1558 C 139.374 1.67442 -0.299504 0
M  V30 1559 O 140.559 1.87421 -0.508624 0
M  V30 1560 C 137.689 3.21877 -1.30431 0
M  V30 1561 C 136.643 3.53002 -2.42019 0
M  V30 1562 C 135.969 4.90172 -2.13626 0
M  V30 1563 C 137.269 3.53643 -3.84362 0
M  V30 1564 H 138.963 1.81383 -2.38203 0
M  V30 1565 H 136.509 0.871237 -1.14654 0
M  V30 1566 H 138.462 4.00404 -1.31357 0
M  V30 1567 H 137.186 3.24968 -0.326049 0
M  V30 1568 H 135.845 2.76818 -2.40349 0
M  V30 1569 H 135.493 4.89869 -1.14182 0
M  V30 1570 H 135.193 5.11962 -2.88389 0
M  V30 1571 H 136.717 5.71028 -2.1624 0
M  V30 1572 H 138.131 4.22203 -3.87837 0
M  V30 1573 H 136.528 3.86961 -4.58673 0
M  V30 1574 H 137.598 2.52954 -4.13693 0
M  V30 1575 N 138.941 1.26152 0.944643 0
M  V30 1576 C 140.19 1.10883 1.68487 0
M  V30 1577 C 140.503 -0.348153 1.92477 0
M  V30 1578 O 141.709 -0.621459 2.64292 0
M  V30 1579 C 140.165 1.93624 3.03377 0
M  V30 1580 C 139.773 3.43875 2.87148 0
M  V30 1581 C 141.517 1.86954 3.81115 0
M  V30 1582 C 139.424 4.18875 4.1749 0
M  V30 1583 H 138.354 0.41135 0.631907 0
M  V30 1584 H 141.005 1.50433 1.05082 0
M  V30 1585 H 139.387 1.46904 3.67743 0
M  V30 1586 H 140.561 3.98338 2.31653 0
M  V30 1587 H 138.876 3.51744 2.22856 0
M  V30 1588 H 141.473 2.40275 4.77673 0
M  V30 1589 H 141.816 0.839518 4.07747 0
M  V30 1590 H 142.349 2.31477 3.23517 0
M  V30 1591 H 139.088 5.22332 3.96043 0
M  V30 1592 H 138.608 3.69193 4.72712 0
M  V30 1593 H 140.287 4.27134 4.85968 0
M  V30 1594 N 140.419 -1.14872 1.07899 0
M  V30 1595 C 141.666 -1.85789 0.805532 0
M  V30 1596 C 141.994 -1.82649 -0.668561 0
M  V30 1597 O 141.249 -1.24858 -1.50695 0
M  V30 1598 C 141.548 -3.34223 1.26609 0
M  V30 1599 C 141.214 -3.57555 2.74709 0
M  V30 1600 C 139.876 -3.63631 3.1516 0
M  V30 1601 C 142.228 -3.66803 3.70277 0
M  V30 1602 C 139.556 -3.76473 4.49983 0
M  V30 1603 C 141.908 -3.8117 5.04869 0
M  V30 1604 C 140.572 -3.85494 5.44932 0
M  V30 1605 H 139.842 -0.679849 0.294765 0
M  V30 1606 H 142.489 -1.3572 1.35101 0
M  V30 1607 H 140.794 -3.86536 0.640103 0
M  V30 1608 H 142.491 -3.87511 1.03132 0
M  V30 1609 H 139.081 -3.5347 2.42398 0
M  V30 1610 H 143.265 -3.61404 3.40149 0
M  V30 1611 H 138.521 -3.7808 4.80484 0
M  V30 1612 H 142.695 -3.87268 5.78789 0
M  V30 1613 H 140.322 -3.95197 6.49403 0
M  V30 1614 N 141.898 -0.863906 -1.31812 0
M  V30 1615 C 143.144 -0.472535 -1.97218 0
M  V30 1616 C 143.477 0.971394 -1.68159 0
M  V30 1617 O 142.752 1.68309 -0.974798 0
M  V30 1618 C 143.035 -0.723054 -3.52766 0
M  V30 1619 C 142.888 -2.21608 -3.91421 0
M  V30 1620 C 144.207 -0.185522 -4.39709 0
M  V30 1621 H 141.326 -0.173158 -0.71637 0
M  V30 1622 H 143.968 -1.08403 -1.56041 0
M  V30 1623 H 142.118 -0.202577 -3.87971 0
M  V30 1624 H 143.79 -2.80334 -3.66347 0
M  V30 1625 H 142.033 -2.691 -3.40246 0
M  V30 1626 H 142.704 -2.34203 -4.99853 0
M  V30 1627 H 145.18 -0.630726 -4.11292 0
M  V30 1628 H 144.056 -0.390306 -5.47511 0
M  V30 1629 H 144.317 0.912229 -4.32586 0
M  V30 1630 N 143.376 1.44774 -0.622745 0
M  V30 1631 C 144.309 2.27792 0.136329 0
M  V30 1632 C 145.287 1.38041 0.859264 0
M  V30 1633 O 146.471 1.67478 0.86506 0
M  V30 1634 C 143.598 3.16776 1.19878 0
M  V30 1635 C 142.644 4.22575 0.57731 0
M  V30 1636 S 143.477 5.31825 -0.626294 0
M  V30 1637 C 144.633 6.24377 0.436378 0
M  V30 1638 H 144.866 2.91824 -0.567967 0
M  V30 1639 H 142.399 1.48838 -0.410677 0
M  V30 1640 H 144.357 3.68596 1.80686 0
M  V30 1641 H 143.018 2.5198 1.87523 0
M  V30 1642 H 142.211 4.84818 1.37721 0
M  V30 1643 H 141.813 3.73974 0.0440439 0
M  V30 1644 H 144.105 6.64689 1.31128 0
M  V30 1645 H 145.048 7.07941 -0.150271 0
M  V30 1646 H 145.456 5.59381 0.758513 0
M  V30 1647 N 144.854 0.36279 1.53368 0
M  V30 1648 C 146.1 -0.228113 2.01513 0
M  V30 1649 C 146.433 -1.48648 1.2497 0
M  V30 1650 O 145.708 -1.91459 0.342616 0
M  V30 1651 C 145.991 -0.522884 3.56284 0
M  V30 1652 C 145.844 0.74892 4.43521 0
M  V30 1653 C 147.163 -1.32461 4.19693 0
M  V30 1654 H 144.282 -0.0814343 0.732487 0
M  V30 1655 H 146.924 0.48713 1.83649 0
M  V30 1656 H 145.074 -1.1322 3.71636 0
M  V30 1657 H 146.746 1.38648 4.39971 0
M  V30 1658 H 144.989 1.36986 4.11603 0
M  V30 1659 H 145.66 0.497667 5.49752 0
M  V30 1660 H 148.136 -0.809203 4.08156 0
M  V30 1661 H 147.012 -1.49961 5.28018 0
M  V30 1662 H 147.273 -2.33232 3.75573 0
M  V30 1663 N 146.332 -1.57332 0.0918853 0
M  V30 1664 C 147.562 -1.98286 -0.580205 0
M  V30 1665 C 147.97 -0.969713 -1.6246 0
M  V30 1666 O 147.313 0.0493501 -1.83634 0
M  V30 1667 C 147.375 -3.35603 -1.28882 0
M  V30 1668 C 147.039 -4.55285 -0.395559 0
M  V30 1669 C 148.036 -5.18687 0.355002 0
M  V30 1670 C 145.721 -5.01314 -0.314556 0
M  V30 1671 C 147.715 -6.26484 1.17458 0
M  V30 1672 C 145.402 -6.08979 0.508677 0
M  V30 1673 C 146.4 -6.71429 1.2519 0
M  V30 1674 O 146.088 -7.77018 2.06151 0
M  V30 1675 H 145.82 -0.656678 -0.160466 0
M  V30 1676 H 148.374 -2.04721 0.16688 0
M  V30 1677 H 146.604 -3.25842 -2.08241 0
M  V30 1678 H 148.293 -3.61026 -1.85512 0
M  V30 1679 H 149.059 -4.84058 0.302134 0
M  V30 1680 H 144.938 -4.5247 -0.882697 0
M  V30 1681 H 148.482 -6.75159 1.75518 0
M  V30 1682 H 144.379 -6.4304 0.563037 0
M  V30 1683 H 145.147 -7.93991 1.98799 0
M  V30 1684 N 147.81 0.181792 -1.56548 0
M  V30 1685 C 149.038 0.915947 -1.85521 0
M  V30 1686 C 149.453 1.76282 -0.676016 0
M  V30 1687 O 148.81 1.79012 0.355077 0
M  V30 1688 C 148.861 1.80126 -3.13427 0
M  V30 1689 O 148.582 0.988562 -4.26801 0
M  V30 1690 C 150.083 2.64597 -3.55673 0
M  V30 1691 H 147.303 0.26661 -0.61576 0
M  V30 1692 H 149.847 0.185039 -2.03661 0
M  V30 1693 H 148.002 2.48563 -2.97145 0
M  V30 1694 H 148.416 1.59308 -4.99721 0
M  V30 1695 H 149.89 3.2235 -4.48101 0
M  V30 1696 H 150.367 3.38958 -2.79292 0
M  V30 1697 H 150.973 2.0151 -3.74532 0
M  V30 1698 N 149.288 1.51039 0.449983 0
M  V30 1699 C 150.534 1.63322 1.20223 0
M  V30 1700 C 150.867 0.34241 1.91158 0
M  V30 1701 O 150.142 -0.657344 1.83055 0
M  V30 1702 C 150.425 2.82801 2.22925 0
M  V30 1703 C 150.278 4.21823 1.56157 0
M  V30 1704 C 151.597 2.97807 3.24035 0
M  V30 1705 H 148.716 0.594407 0.435718 0
M  V30 1706 H 151.358 1.83489 0.493136 0
M  V30 1707 H 149.508 2.65738 2.834 0
M  V30 1708 H 151.18 4.50526 0.991162 0
M  V30 1709 H 149.423 4.25105 0.864172 0
M  V30 1710 H 150.094 5.01391 2.30891 0
M  V30 1711 H 152.57 3.13497 2.73603 0
M  V30 1712 H 151.446 3.82992 3.93202 0
M  V30 1713 H 151.707 2.09328 3.89402 0
M  V30 1714 N 150.766 -0.704594 1.40972 0
M  V30 1715 C 151.994 -1.49354 1.43182 0
M  V30 1716 C 152.409 -1.88768 0.0345508 0
M  V30 1717 O 151.766 -1.56184 -0.944081 0
M  V30 1718 C 151.817 -2.76187 2.33244 0
M  V30 1719 O 151.538 -2.38436 3.67532 0
M  V30 1720 C 153.039 -3.7 2.44162 0
M  V30 1721 H 150.259 -0.460559 0.487982 0
M  V30 1722 H 152.803 -0.868261 1.85153 0
M  V30 1723 H 150.958 -3.34974 1.94606 0
M  V30 1724 H 151.372 -3.20126 4.15475 0
M  V30 1725 H 152.846 -4.55803 3.11364 0
M  V30 1726 H 153.323 -4.13867 1.47006 0
M  V30 1727 H 153.929 -3.17121 2.83398 0
M  V30 1728 N 152.244 -1.26651 -0.937939 0
M  V30 1729 C 153.49 -1.13562 -1.68746 0
M  V30 1730 C 153.845 0.317241 -1.89767 0
M  V30 1731 O 153.138 1.22939 -1.46957 0
M  V30 1732 C 153.332 -1.84168 -3.06295 0
M  V30 1733 C 153.161 -3.36171 -2.98696 0
M  V30 1734 C 151.931 -4.05468 -3.01535 0
M  V30 1735 C 154.129 -4.32312 -2.78588 0
M  V30 1736 N 152.111 -5.44118 -2.84269 0
M  V30 1737 C 153.482 -5.58159 -2.69924 0
M  V30 1738 C 155.537 -4.22524 -2.63396 0
M  V30 1739 C 154.24 -6.75335 -2.47618 0
M  V30 1740 C 156.266 -5.39411 -2.42466 0
M  V30 1741 C 155.628 -6.64208 -2.34536 0
M  V30 1742 H 151.727 -0.470361 -0.624728 0
M  V30 1743 H 154.311 -1.59982 -1.10968 0
M  V30 1744 H 152.482 -1.40219 -3.62206 0
M  V30 1745 H 154.214 -1.63674 -3.70126 0
M  V30 1746 H 150.969 -3.56854 -3.11372 0
M  V30 1747 H 151.393 -6.1693 -2.78795 0
M  V30 1748 H 156.035 -3.26771 -2.68292 0
M  V30 1749 H 153.753 -7.71182 -2.41463 0
M  V30 1750 H 157.339 -5.33711 -2.31611 0
M  V30 1751 H 156.219 -7.53129 -2.18555 0
M  V30 1752 N 153.722 1.14298 -1.08507 0
M  V30 1753 C 154.652 2.21542 -0.737646 0
M  V30 1754 C 155.633 1.67773 0.280377 0
M  V30 1755 O 156.818 1.93616 0.150521 0
M  V30 1756 C 153.948 3.46988 -0.147259 0
M  V30 1757 C 152.902 4.13789 -1.09374 0
M  V30 1758 C 152.228 5.33449 -0.365524 0
M  V30 1759 C 153.528 4.62208 -2.4323 0
M  V30 1760 H 155.222 2.5086 -1.6343 0
M  V30 1761 H 152.768 1.20576 -0.787243 0
M  V30 1762 H 154.721 4.21262 0.107808 0
M  V30 1763 H 153.445 3.17037 0.784538 0
M  V30 1764 H 152.104 3.4147 -1.33393 0
M  V30 1765 H 151.752 4.99759 0.57011 0
M  V30 1766 H 151.452 5.79088 -0.996512 0
M  V30 1767 H 152.976 6.10485 -0.118534 0
M  V30 1768 H 154.39 5.27952 -2.23472 0
M  V30 1769 H 152.787 5.18553 -3.02031 0
M  V30 1770 H 153.857 3.77224 -3.04681 0
M  V30 1771 N 155.201 0.870884 1.31352 0
M  V30 1772 C 156.448 0.482273 1.96673 0
M  V30 1773 C 156.776 -0.965638 1.68836 0
M  V30 1774 O 156.031 -1.69514 0.977937 0
M  V30 1775 C 156.33 0.687157 3.50732 0
M  V30 1776 C 155.996 2.108 3.9859 0
M  V30 1777 C 154.658 2.49656 4.1137 0
M  V30 1778 C 157.01 3.03459 4.23748 0
M  V30 1779 C 154.338 3.80412 4.46659 0
M  V30 1780 C 156.69 4.3373 4.60501 0
M  V30 1781 C 155.354 4.725 4.71487 0
M  V30 1782 H 154.624 0.176476 0.719679 0
M  V30 1783 H 157.271 1.10405 1.56471 0
M  V30 1784 H 155.576 -0.0177476 3.91796 0
M  V30 1785 H 157.273 0.366284 3.99324 0
M  V30 1786 H 153.863 1.79633 3.8914 0
M  V30 1787 H 158.047 2.74665 4.13368 0
M  V30 1788 H 153.303 4.1021 4.53362 0
M  V30 1789 H 157.477 5.05578 4.78919 0
M  V30 1790 H 155.104 5.73859 4.98588 0
M  V30 1791 N 156.679 -1.44442 0.630414 0
M  V30 1792 C 157.926 -2.02052 0.134617 0
M  V30 1793 C 158.254 -1.49576 -1.24327 0
M  V30 1794 O 157.509 -0.669806 -1.83881 0
M  V30 1795 C 157.808 -3.57332 0.0697835 0
M  V30 1796 C 157.474 -4.29058 1.38635 0
M  V30 1797 C 156.136 -4.4837 1.74694 0
M  V30 1798 C 158.488 -4.69872 2.25543 0
M  V30 1799 C 155.816 -5.05756 2.97369 0
M  V30 1800 C 158.168 -5.28616 3.47487 0
M  V30 1801 C 156.832 -5.46147 3.8377 0
M  V30 1802 H 156.102 -0.739361 0.0492598 0
M  V30 1803 H 158.749 -1.73217 0.816586 0
M  V30 1804 H 157.054 -3.85577 -0.695553 0
M  V30 1805 H 158.751 -3.99637 -0.330344 0
M  V30 1806 H 155.341 -4.14357 1.09574 0
M  V30 1807 H 159.525 -4.54666 1.98979 0
M  V30 1808 H 154.781 -5.17515 3.25558 0
M  V30 1809 H 158.955 -5.59192 4.15063 0
M  V30 1810 H 156.582 -5.9038 4.7891 0
M  V30 1811 N 158.157 -0.370918 -1.53173 0
M  V30 1812 C 159.405 0.216673 -2.00935 0
M  V30 1813 C 159.726 1.48845 -1.25977 0
M  V30 1814 O 158.996 1.92286 -0.374551 0
M  V30 1815 H 157.576 0.0830565 -0.742368 0
M  V30 1816 H 160.238 -0.49838 -1.8842 0
M  V30 1817 H 159.334 0.439893 -3.08984 0
M  V30 1818 N 159.635 1.57281 -0.100228 0
M  V30 1819 C 160.568 2.09976 0.893612 0
M  V30 1820 C 161.546 1.01155 1.27304 0
M  V30 1821 O 162.73 1.28687 1.37739 0
M  V30 1822 C 159.857 2.58098 2.19324 0
M  V30 1823 C 158.903 3.78626 1.96328 0
M  V30 1824 S 159.736 5.21959 1.19662 0
M  V30 1825 C 160.892 5.73435 2.50844 0
M  V30 1826 H 161.125 2.93946 0.44534 0
M  V30 1827 H 158.658 1.53985 0.113167 0
M  V30 1828 H 160.616 2.8648 2.94005 0
M  V30 1829 H 159.277 1.74344 2.61272 0
M  V30 1830 H 158.47 4.10382 2.92579 0
M  V30 1831 H 158.072 3.50763 1.29775 0
M  V30 1832 H 160.364 5.82015 3.46792 0
M  V30 1833 H 161.307 6.7185 2.23659 0
M  V30 1834 H 161.715 5.01395 2.59352 0
M  V30 1835 N 161.113 -0.173488 1.56642 0
M  V30 1836 C 162.362 -0.888758 1.81063 0
M  V30 1837 C 162.675 -1.83506 0.67712 0
M  V30 1838 O 163.881 -2.59254 0.806206 0
M  V30 1839 C 162.337 -1.63091 3.20826 0
M  V30 1840 C 161.945 -0.728357 4.4204 0
M  V30 1841 C 163.689 -2.33454 3.54541 0
M  V30 1842 C 161.596 -1.47062 5.72823 0
M  V30 1843 H 160.526 -0.335618 0.675186 0
M  V30 1844 H 163.177 -0.141712 1.82952 0
M  V30 1845 H 161.559 -2.42263 3.13248 0
M  V30 1846 H 162.733 0.0262449 4.60793 0
M  V30 1847 H 161.048 -0.134492 4.16183 0
M  V30 1848 H 163.645 -2.89578 4.49498 0
M  V30 1849 H 163.988 -3.08687 2.79317 0
M  V30 1850 H 164.521 -1.61227 3.63663 0
M  V30 1851 H 161.26 -0.760658 6.51072 0
M  V30 1852 H 160.78 -2.1986 5.58052 0
M  V30 1853 H 162.459 -2.01868 6.14702 0
M  V30 1854 N 162.591 -1.51276 -0.441967 0
M  V30 1855 C 163.837 -1.6492 -1.1905 0
M  V30 1856 C 164.192 -0.358731 -1.89026 0
M  V30 1857 O 163.485 0.645193 -1.8041 0
M  V30 1858 C 163.679 -2.78746 -2.23686 0
M  V30 1859 C 163.508 -4.18737 -1.63979 0
M  V30 1860 C 162.278 -4.84739 -1.42674 0
M  V30 1861 C 164.476 -5.01988 -1.11858 0
M  V30 1862 N 162.458 -6.08858 -0.785159 0
M  V30 1863 C 163.829 -6.17071 -0.601989 0
M  V30 1864 C 165.884 -4.87551 -1.0099 0
M  V30 1865 C 164.587 -7.19299 0.0126012 0
M  V30 1866 C 166.613 -5.89983 -0.409206 0
M  V30 1867 C 165.975 -7.04333 0.0968651 0
M  V30 1868 H 162.074 -0.657416 -0.423471 0
M  V30 1869 H 164.658 -1.8849 -0.48782 0
M  V30 1870 H 162.829 -2.56848 -2.91348 0
M  V30 1871 H 164.561 -2.81595 -2.90666 0
M  V30 1872 H 161.316 -4.42528 -1.68719 0
M  V30 1873 H 161.74 -6.75282 -0.481942 0
M  V30 1874 H 166.382 -3.99401 -1.38703 0
M  V30 1875 H 164.1 -8.071 0.401879 0
M  V30 1876 H 167.686 -5.8088 -0.327079 0
M  V30 1877 H 166.566 -7.82238 0.554373 0
M  V30 1878 N 164.069 0.697108 -1.41344 0
M  V30 1879 C 165.315 1.45796 -1.41828 0
M  V30 1880 C 165.67 1.92382 -0.0261743 0
M  V30 1881 O 164.963 1.66522 0.947688 0
M  V30 1882 C 165.157 2.68553 -2.35826 0
M  V30 1883 C 164.986 2.33975 -3.84039 0
M  V30 1884 C 163.756 2.24414 -4.52732 0
M  V30 1885 C 165.954 1.97048 -4.75054 0
M  V30 1886 N 163.936 1.82705 -5.86082 0
M  V30 1887 C 165.307 1.66086 -5.9734 0
M  V30 1888 C 167.362 1.83845 -4.62715 0
M  V30 1889 C 166.065 1.23246 -7.08663 0
M  V30 1890 C 168.091 1.4241 -5.73998 0
M  V30 1891 C 167.453 1.12357 -6.95381 0
M  V30 1892 H 163.552 0.530859 -0.574206 0
M  V30 1893 H 166.136 0.806674 -1.77203 0
M  V30 1894 H 164.307 3.31404 -2.02549 0
M  V30 1895 H 166.039 3.35015 -2.2704 0
M  V30 1896 H 162.794 2.4276 -4.0665 0
M  V30 1897 H 163.218 1.64337 -6.56751 0
M  V30 1898 H 167.86 2.05734 -3.69369 0
M  V30 1899 H 165.578 1.00102 -8.01876 0
M  V30 1900 H 169.164 1.32746 -5.66454 0
M  V30 1901 H 168.044 0.807795 -7.80028 0
M  V30 1902 N 165.547 1.27147 0.931209 0
M  V30 1903 C 166.477 1.12081 2.04842 0
M  V30 1904 C 167.458 0.0232364 1.70084 0
M  V30 1905 O 168.643 0.197085 1.93197 0
M  V30 1906 C 165.773 0.76354 3.38803 0
M  V30 1907 C 164.727 1.81396 3.87659 0
M  V30 1908 C 164.053 1.31075 5.18385 0
M  V30 1909 C 165.353 3.21739 4.11438 0
M  V30 1910 H 167.047 2.05537 2.17703 0
M  V30 1911 H 164.593 0.989603 1.04608 0
M  V30 1912 H 166.546 0.644982 4.16435 0
M  V30 1913 H 165.27 -0.206727 3.25945 0
M  V30 1914 H 163.929 1.92136 3.12217 0
M  V30 1915 H 163.577 0.330037 5.01916 0
M  V30 1916 H 163.277 2.013 5.52044 0
M  V30 1917 H 164.801 1.20506 5.98591 0
M  V30 1918 H 166.215 3.14019 4.79651 0
M  V30 1919 H 164.612 3.89644 4.56397 0
M  V30 1920 H 165.682 3.67054 3.16859 0
M  V30 1921 N 167.025 -1.13721 1.09112 0
M  V30 1922 C 168.274 -1.84275 0.82009 0
M  V30 1923 C 168.587 -1.84253 -0.656509 0
M  V30 1924 O 169.793 -2.50668 -1.04296 0
M  V30 1925 C 168.249 -3.30825 1.41714 0
M  V30 1926 C 167.857 -3.39244 2.92605 0
M  V30 1927 C 169.601 -4.06443 1.22492 0
M  V30 1928 C 167.508 -4.80047 3.45411 0
M  V30 1929 H 166.438 -0.690387 0.30312 0
M  V30 1930 H 169.089 -1.28146 1.31343 0
M  V30 1931 H 167.471 -3.86737 0.851498 0
M  V30 1932 H 168.645 -2.93344 3.55367 0
M  V30 1933 H 166.96 -2.77088 3.10823 0
M  V30 1934 H 169.557 -5.10387 1.59402 0
M  V30 1935 H 169.9 -4.15972 0.165299 0
M  V30 1936 H 170.433 -3.56852 1.75788 0
M  V30 1937 H 167.172 -4.75709 4.50978 0
M  V30 1938 H 166.692 -5.26455 2.87411 0
M  V30 1939 H 168.371 -5.48957 3.42425 0
M  V30 1940 N 168.503 -0.877838 -1.30888 0
M  V30 1941 C 169.466 -0.344265 -2.266 0
M  V30 1942 C 170.466 0.50922 -1.52524 0
M  V30 1943 O 171.656 0.317398 -1.71284 0
M  V30 1944 C 168.788 0.510198 -3.37061 0
M  V30 1945 H 169.981 -1.1893 -2.7531 0
M  V30 1946 H 167.534 -0.654088 -1.41956 0
M  V30 1947 H 168.269 1.37612 -2.93655 0
M  V30 1948 H 168.054 -0.101047 -3.9197 0
M  V30 1949 H 169.544 0.875537 -4.08319 0
M  V30 1950 N 169.982 1.44106 -0.638065 0
M  V30 1951 C 171.212 2.06037 -0.152394 0
M  V30 1952 C 171.62 1.47808 1.18108 0
M  V30 1953 O 170.963 0.598092 1.73691 0
M  V30 1954 C 171.025 3.59488 0.0293714 0
M  V30 1955 C 170.689 4.4022 -1.22702 0
M  V30 1956 C 171.686 4.73256 -2.15232 0
M  V30 1957 C 169.371 4.8048 -1.46437 0
M  V30 1958 C 171.365 5.45444 -3.29802 0
M  V30 1959 C 169.052 5.52417 -2.61303 0
M  V30 1960 C 170.05 5.84819 -3.52811 0
M  V30 1961 O 169.738 6.55289 -4.65673 0
M  V30 1962 H 169.47 0.671233 -0.0801401 0
M  V30 1963 H 172.024 1.85851 -0.874563 0
M  V30 1964 H 170.254 3.78191 0.806758 0
M  V30 1965 H 171.943 4.03164 0.470475 0
M  V30 1966 H 172.709 4.42684 -1.98131 0
M  V30 1967 H 168.588 4.54676 -0.760977 0
M  V30 1968 H 172.132 5.70653 -4.01249 0
M  V30 1969 H 168.029 5.82404 -2.78344 0
M  V30 1970 H 168.797 6.73762 -4.64744 0
M  V30 1971 N 171.46 0.379036 1.52974 0
M  V30 1972 C 172.709 -0.207612 2.00629 0
M  V30 1973 C 173.022 -1.48758 1.27006 0
M  V30 1974 O 174.228 -2.15365 1.65318 0
M  V30 1975 C 172.684 -0.42053 3.57435 0
M  V30 1976 C 172.292 0.845587 4.39948 0
M  V30 1977 C 174.036 -0.964102 4.13407 0
M  V30 1978 C 171.943 0.601513 5.88333 0
M  V30 1979 H 170.873 -0.0813591 0.749598 0
M  V30 1980 H 173.524 0.499853 1.76561 0
M  V30 1981 H 171.906 -1.18959 3.7771 0
M  V30 1982 H 173.08 1.61848 4.31442 0
M  V30 1983 H 171.395 1.31336 3.95145 0
M  V30 1984 H 173.992 -1.16225 5.21916 0
M  V30 1985 H 174.335 -1.93019 3.68849 0
M  V30 1986 H 174.868 -0.25487 3.96983 0
M  V30 1987 H 171.607 1.53831 6.37194 0
M  V30 1988 H 171.127 -0.132628 5.99653 0
M  V30 1989 H 172.806 0.232134 6.46583 0
M  V30 1990 N 172.938 -1.57226 0.108567 0
M  V30 1991 C 174.354 -1.5766 -0.248058 0
M  V30 1992 C 174.554 -1.12063 -1.67464 0
M  V30 1993 O 173.61 -0.803236 -2.39383 0
M  V30 1994 C 174.923 -3.0069 -0.0242287 0
M  V30 1995 C 176.471 -3.12868 -0.0909372 0
M  V30 1996 C 176.946 -4.57879 0.105067 0
M  V30 1997 N 178.437 -4.63172 0.0506846 0
M  V30 1998 C 179.172 -5.73126 0.177396 0
M  V30 1999 N 178.668 -6.91866 0.359696 0
M  V30 2000 N 180.461 -5.61977 0.117709 0
M  V30 2001 H 172.612 -1.85169 1.04049 0
M  V30 2002 H 174.875 -0.85529 0.40888 0
M  V30 2003 H 174.581 -3.38299 0.961604 0
M  V30 2004 H 174.455 -3.6945 -0.76068 0
M  V30 2005 H 176.842 -2.75124 -1.06729 0
M  V30 2006 H 176.923 -2.46672 0.677225 0
M  V30 2007 H 176.567 -4.96321 1.07834 0
M  V30 2008 H 176.497 -5.22153 -0.682954 0
M  V30 2009 H 178.988 -3.778 -0.0871266 0
M  V30 2010 H 179.301 -7.71503 0.447529 0
M  V30 2011 H 177.646 -6.93874 0.395536 0
M  V30 2012 H 180.837 -4.68094 -0.0236741 0
M  V30 2013 H 181.01 -6.47627 0.219905 0
M  V30 2014 N 174.416 0.165178 -1.56732 0
M  V30 2015 C 175.664 0.879068 -1.8198 0
M  V30 2016 C 175.985 1.82514 -0.686561 0
M  V30 2017 O 175.255 1.93694 0.293146 0
M  V30 2018 H 173.835 0.327608 -0.671329 0
M  V30 2019 H 176.497 0.163526 -1.94213 0
M  V30 2020 H 175.593 1.45228 -2.76252 0
M  V30 2021 N 175.894 1.51508 0.433938 0
M  V30 2022 C 177.171 1.54888 1.19453 0
M  V30 2023 C 177.551 0.315154 2.08734 0
M  V30 2024 O 176.899 -0.699558 2.17528 0
M  V30 2025 C 177.109 2.86467 1.99342 0
M  V30 2026 C 178.457 3.38545 2.56267 0
M  V30 2027 O 179.481 2.88041 2.0955 0
M  V30 2028 O 178.34 4.26675 3.41483 0
M  V30 2029 H 175.434 0.622863 0.544032 0
M  V30 2030 H 177.98 1.63823 0.442732 0
M  V30 2031 H 176.752 3.67718 1.33788 0
M  V30 2032 H 176.375 2.8071 2.8158 0
M  V30 2033 N 177.372 -0.689602 1.41712 0
M  V30 2034 C 178.305 -1.81403 1.3845 0
M  V30 2035 C 179.283 -1.60653 0.250874 0
M  V30 2036 O 180.467 -1.83323 0.43874 0
M  V30 2037 C 177.594 -3.18176 1.1611 0
M  V30 2038 C 176.64 -3.57705 2.3227 0
M  V30 2039 S 177.473 -3.61827 3.94767 0
M  V30 2040 C 178.629 -5.01318 3.74742 0
M  V30 2041 H 178.862 -1.83893 2.33603 0
M  V30 2042 H 176.395 -0.858878 1.28307 0
M  V30 2043 H 178.353 -3.97132 1.03907 0
M  V30 2044 H 177.014 -3.13288 0.225668 0
M  V30 2045 H 176.207 -4.57082 2.12349 0
M  V30 2046 H 175.809 -2.86073 2.40911 0
M  V30 2047 H 178.101 -5.88986 3.34817 0
M  V30 2048 H 179.044 -5.26283 4.73743 0
M  V30 2049 H 179.452 -4.73138 3.07898 0
M  V30 2050 N 178.85 -1.27639 -0.924453 0
M  V30 2051 C 180.127 -1.04887 -1.651 0
M  V30 2052 C 180.507 0.415327 -2.06974 0
M  V30 2053 O 179.855 1.39923 -1.80648 0
M  V30 2054 C 180.065 -2.01348 -2.85061 0
M  V30 2055 C 181.413 -2.30899 -3.56329 0
M  V30 2056 O 182.437 -1.99348 -2.95193 0
M  V30 2057 O 181.296 -2.84699 -4.66485 0
M  V30 2058 H 178.39 -0.400083 -0.723784 0
M  V30 2059 H 180.936 -1.38916 -0.974703 0
M  V30 2060 H 179.708 -3.0008 -2.51133 0
M  V30 2061 H 179.331 -1.679 -3.6041 0
M  V30 2062 N 180.328 1.1314 -1.09713 0
M  V30 2063 C 181.278 2.16709 -0.708593 0
M  V30 2064 C 182.262 1.58471 0.278523 0
M  V30 2065 O 183.454 1.76779 0.088427 0
M  V30 2066 C 180.583 3.43039 -0.133923 0
M  V30 2067 C 179.669 4.08277 -1.14763 0
M  V30 2068 N 180.06 4.48637 -2.33577 0
M  V30 2069 C 178.358 4.34954 -0.986446 0
M  V30 2070 C 179.059 4.9952 -2.98085 0
M  V30 2071 N 178.035 4.94561 -2.25632 0
M  V30 2072 H 181.837 2.45672 -1.61315 0
M  V30 2073 H 179.351 1.29967 -0.973775 0
M  V30 2074 H 181.348 4.16583 0.162465 0
M  V30 2075 H 180.008 3.15549 0.765447 0
M  V30 2076 H 181.019 4.41246 -2.7115 0
M  V30 2077 H 177.696 4.17258 -0.142008 0
M  V30 2078 H 179.086 5.40521 -3.99108 0
M  V30 2079 N 181.806 0.884767 1.30421 0
M  V30 2080 C 183.055 0.499164 1.95426 0
M  V30 2081 C 183.368 -0.95645 1.70621 0
M  V30 2082 O 184.574 -1.44889 2.29607 0
M  V30 2083 C 183.03 0.84177 3.49917 0
M  V30 2084 C 182.638 2.31514 3.83543 0
M  V30 2085 C 184.382 0.525355 4.21237 0
M  V30 2086 C 182.289 2.59939 5.31212 0
M  V30 2087 H 181.219 0.182944 0.73147 0
M  V30 2088 H 183.87 1.07971 1.48373 0
M  V30 2089 H 182.252 0.190311 3.95542 0
M  V30 2090 H 183.426 3.0109 3.48829 0
M  V30 2091 H 181.741 2.59907 3.25326 0
M  V30 2092 H 184.338 0.714762 5.29901 0
M  V30 2093 H 184.681 -0.535222 4.12845 0
M  V30 2094 H 185.214 1.134 3.81294 0
M  V30 2095 H 181.953 3.64736 5.44654 0
M  V30 2096 H 181.473 1.94972 5.67227 0
M  V30 2097 H 183.152 2.45429 5.98643 0
M  V30 2098 N 183.284 -1.43765 0.645699 0
M  V30 2099 C 184.194 -2.34544 -0.0512957 0
M  V30 2100 C 185.21 -1.53455 -0.82022 0
M  V30 2101 O 186.386 -1.86133 -0.769176 0
M  V30 2102 C 183.451 -3.31636 -1.01087 0
M  V30 2103 C 182.512 -4.2863 -0.239712 0
M  V30 2104 C 181.745 -5.21084 -1.15358 0
M  V30 2105 O 181.968 -5.1779 -2.39269 0
M  V30 2106 O 180.902 -5.98593 -0.630038 0
M  V30 2107 H 184.728 -2.95624 0.695718 0
M  V30 2108 H 182.313 -1.43781 0.405882 0
M  V30 2109 H 184.195 -3.9136 -1.56254 0
M  V30 2110 H 182.87 -2.73069 -1.73824 0
M  V30 2111 H 181.777 -3.72408 0.355356 0
M  V30 2112 H 183.11 -4.90157 0.447936 0
M  V30 2113 N 184.763 -0.387143 -1.52771 0
M  V30 2114 C 186.04 0.253197 -1.93954 0
M  V30 2115 C 186.42 1.64545 -1.32243 0
M  V30 2116 O 185.768 2.23191 -0.489699 0
M  V30 2117 C 185.978 0.281722 -3.47861 0
M  V30 2118 C 187.326 0.511715 -4.21505 0
M  V30 2119 O 188.35 0.362023 -3.54356 0
M  V30 2120 O 187.209 0.804847 -5.40541 0
M  V30 2121 H 184.303 0.156845 -0.811991 0
M  V30 2122 H 186.849 -0.441494 -1.63856 0
M  V30 2123 H 185.621 -0.693571 -3.85104 0
M  V30 2124 H 185.244 1.02142 -3.84256 0
M  V30 2125 N 186.241 1.57166 -0.116904 0
M  V30 2126 C 187.652 1.82169 0.408809 0
M  V30 2127 C 188.003 1.03393 1.66746 0
M  V30 2128 O 187.128 0.269886 2.1471 0
M  V30 2129 C 187.723 3.30429 0.748466 0
M  V30 2130 C 186.282 3.5612 1.21882 0
M  V30 2131 C 185.429 2.76374 0.226452 0
M  V30 2132 H 188.38 1.5497 -0.342063 0
M  V30 2133 H 188.401 3.44943 1.60607 0
M  V30 2134 H 187.913 3.87737 -0.167784 0
M  V30 2135 H 186.014 3.04168 2.15204 0
M  V30 2136 H 186.127 4.64705 1.16559 0
M  V30 2137 H 184.491 2.44515 0.713063 0
M  V30 2138 H 185.274 3.3644 -0.682859 0
M  V30 2139 N 187.719 -0.156864 1.56817 0
M  V30 2140 C 188.944 -0.890331 1.87318 0
M  V30 2141 C 189.369 -1.74394 0.704855 0
M  V30 2142 O 188.727 -1.77972 -0.345786 0
M  V30 2143 C 188.775 -1.73102 3.16336 0
M  V30 2144 O 187.879 -2.83422 2.99576 0
M  V30 2145 H 187.22 -0.24857 0.615718 0
M  V30 2146 H 189.75 -0.150649 2.04045 0
M  V30 2147 H 189.76 -2.12803 3.48107 0
M  V30 2148 H 188.435 -1.10412 4.00976 0
M  V30 2149 H 187.012 -2.47199 2.7919 0
M  V30 2150 N 189.197 -1.51736 -0.425897 0
M  V30 2151 C 190.443 -1.66174 -1.17294 0
M  V30 2152 C 190.798 -0.37876 -1.88635 0
M  V30 2153 O 190.091 0.626021 -1.81084 0
M  V30 2154 C 190.285 -2.81103 -2.20717 0
M  V30 2155 C 190.114 -4.20453 -1.59529 0
M  V30 2156 C 188.884 -4.86225 -1.37525 0
M  V30 2157 C 191.082 -5.03146 -1.06528 0
M  V30 2158 N 189.064 -6.09657 -0.720537 0
M  V30 2159 C 190.435 -6.17674 -0.536506 0
M  V30 2160 C 192.49 -4.88594 -0.958127 0
M  V30 2161 C 191.193 -7.19245 0.0888917 0
M  V30 2162 C 193.219 -5.90383 -0.346608 0
M  V30 2163 C 192.581 -7.04191 0.171564 0
M  V30 2164 H 188.68 -0.661871 -0.416475 0
M  V30 2165 H 191.264 -1.88997 -0.467801 0
M  V30 2166 H 189.435 -2.59924 -2.88607 0
M  V30 2167 H 191.167 -2.84662 -2.87663 0
M  V30 2168 H 187.922 -4.44293 -1.64015 0
M  V30 2169 H 188.346 -6.75756 -0.410292 0
M  V30 2170 H 192.988 -4.0085 -1.34459 0
M  V30 2171 H 190.706 -8.06628 0.48746 0
M  V30 2172 H 194.292 -5.81194 -0.265451 0
M  V30 2173 H 193.172 -7.81606 0.637309 0
M  V30 2174 N 190.675 0.682077 -1.42076 0
M  V30 2175 C 191.903 1.47057 -1.4554 0
M  V30 2176 C 192.318 1.8869 -0.0645779 0
M  V30 2177 O 191.675 1.57666 0.919115 0
M  V30 2178 C 191.726 2.72442 -2.37609 0
M  V30 2179 O 191.447 2.32559 -3.71279 0
M  V30 2180 C 192.948 3.66069 -2.50017 0
M  V30 2181 H 190.168 0.452737 -0.495248 0
M  V30 2182 H 192.712 0.838695 -1.8651 0
M  V30 2183 H 190.867 3.31835 -1.9991 0
M  V30 2184 H 191.281 3.13475 -4.20516 0
M  V30 2185 H 192.755 4.50792 -3.18576 0
M  V30 2186 H 193.232 4.11476 -1.53572 0
M  V30 2187 H 193.838 3.12572 -2.88407 0
M  V30 2188 N 192.153 1.28127 0.917671 0
M  V30 2189 C 193.564 1.13622 1.48145 0
M  V30 2190 C 193.915 -0.275207 1.9426 0
M  V30 2191 O 193.04 -1.1691 1.82102 0
M  V30 2192 C 193.635 2.05648 2.69248 0
M  V30 2193 C 192.194 1.95219 3.21818 0
M  V30 2194 C 191.341 1.97618 1.94532 0
M  V30 2195 H 194.292 1.40874 0.730772 0
M  V30 2196 H 194.313 1.61818 3.44377 0
M  V30 2197 H 193.825 3.08365 2.35653 0
M  V30 2198 H 191.926 0.955244 3.60147 0
M  V30 2199 H 192.039 2.81976 3.87333 0
M  V30 2200 H 190.403 1.41973 2.11461 0
M  V30 2201 H 191.186 3.02007 1.63238 0
M  V30 2202 N 193.631 -1.12557 1.10312 0
M  V30 2203 C 194.871 -1.8568 0.854543 0
M  V30 2204 C 195.235 -1.82091 -0.608843 0
M  V30 2205 O 196.436 -2.50544 -0.973717 0
M  V30 2206 C 194.707 -3.2942 1.38626 0
M  V30 2207 S 196.266 -4.19931 1.27293 0
M  V30 2208 H 193.084 -0.640427 0.308827 0
M  V30 2209 H 195.686 -1.35599 1.40831 0
M  V30 2210 H 194.39 -3.2959 2.44537 0
M  V30 2211 H 193.921 -3.84566 0.82902 0
M  V30 2212 H 195.936 -4.95668 0.229776 0
M  V30 2213 N 195.109 -0.891671 -1.2995 0
M  V30 2214 C 196.355 -0.514261 -1.96171 0
M  V30 2215 C 196.688 0.935506 -1.70182 0
M  V30 2216 O 195.963 1.66204 -1.01028 0
M  V30 2217 C 196.246 -0.797719 -3.51153 0
M  V30 2218 C 196.099 -2.2986 -3.86632 0
M  V30 2219 C 197.418 -0.278749 -4.39216 0
M  V30 2220 H 194.537 -0.188314 -0.712535 0
M  V30 2221 H 197.179 -1.11689 -1.53706 0
M  V30 2222 H 195.329 -0.284826 -3.87455 0
M  V30 2223 H 197.001 -2.88042 -3.60319 0
M  V30 2224 H 195.244 -2.76257 -3.34462 0
M  V30 2225 H 195.915 -2.44753 -4.94773 0
M  V30 2226 H 198.391 -0.717825 -4.09862 0
M  V30 2227 H 197.267 -0.506353 -5.46559 0
M  V30 2228 H 197.528 0.820266 -4.34424 0
M  V30 2229 N 196.587 1.43421 -0.653314 0
M  V30 2230 C 197.815 2.06163 -0.174491 0
M  V30 2231 C 198.23 1.48969 1.1599 0
M  V30 2232 O 197.587 0.621042 1.71608 0
M  V30 2233 C 197.638 3.61417 -0.0774865 0
M  V30 2234 O 197.359 4.16485 -1.35912 0
M  V30 2235 C 198.86 4.41235 0.427402 0
M  V30 2236 H 196.08 0.664946 -0.0899353 0
M  V30 2237 H 198.624 1.83924 -0.893988 0
M  V30 2238 H 196.779 3.82841 0.59257 0
M  V30 2239 H 197.193 5.10153 -1.21839 0
M  V30 2240 H 198.667 5.5021 0.44423 0
M  V30 2241 H 199.144 4.14268 1.45873 0
M  V30 2242 H 199.75 4.2478 -0.210167 0
M  V30 2243 N 198.065 0.39524 1.52563 0
M  V30 2244 C 199.013 -0.451859 2.28169 0
M  V30 2245 C 200.007 -1.05792 1.32304 0
M  V30 2246 O 201.213 -0.997718 1.49818 0
M  V30 2247 H 197.588 -0.164481 0.733792 0
M  V30 2248 H 199.559 0.207199 2.9768 0
M  V30 2249 C 198.308 -1.56385 3.10546 0
M  V30 2250 H 197.631 -1.10682 3.84174 0
M  V30 2251 H 199.071 -2.13067 3.66577 0
M  V30 2252 C 197.53 -2.52328 2.23231 0
M  V30 2253 O 198.06 -3.5588 1.86312 0
M  V30 2254 N 196.266 -2.22209 1.87274 0
M  V30 2255 H 195.813 -1.38033 2.17496 0
M  V30 2256 H 195.771 -2.86652 1.29143 0
M  V30 2257 N 199.544 -1.57102 0.125237 0
M  V30 2258 C 200.474 -2.18659 -0.819174 0
M  V30 2259 C 201.455 -1.12843 -1.27281 0
M  V30 2260 O 202.64 -1.41104 -1.33429 0
M  V30 2261 C 199.77 -2.79096 -2.06695 0
M  V30 2262 C 198.724 -3.90548 -1.75088 0
M  V30 2263 C 198.05 -4.37821 -3.06948 0
M  V30 2264 C 199.35 -5.12356 -1.01435 0
M  V30 2265 H 201.044 -2.9783 -0.306202 0
M  V30 2266 H 198.59 -1.4326 -0.145839 0
M  V30 2267 H 200.543 -3.2082 -2.73226 0
M  V30 2268 H 199.267 -1.97223 -2.60328 0
M  V30 2269 H 197.926 -3.49409 -1.10944 0
M  V30 2270 H 197.574 -3.52799 -3.58527 0
M  V30 2271 H 197.274 -5.12982 -2.86571 0
M  V30 2272 H 198.798 -4.822 -3.74587 0
M  V30 2273 H 200.212 -5.5106 -1.58132 0
M  V30 2274 H 198.609 -5.9314 -0.911319 0
M  V30 2275 H 199.679 -4.849 -0.00218681 0
M  V30 2276 N 201.022 0.148545 -1.56898 0
M  V30 2277 C 201.97 1.20265 -1.99096 0
M  V30 2278 C 202.964 1.44559 -0.883123 0
M  V30 2279 O 204.17 1.4487 -1.0683 0
M  V30 2280 H 200.545 0.404786 -0.63376 0
M  V30 2281 H 202.516 0.82004 -2.86911 0
M  V30 2282 C 201.265 2.52886 -2.3863 0
M  V30 2283 H 200.588 2.35021 -3.23427 0
M  V30 2284 H 202.028 3.25274 -2.7198 0
M  V30 2285 C 200.487 3.13315 -1.23837 0
M  V30 2286 O 201.017 3.98077 -0.538268 0
M  V30 2287 N 199.223 2.72742 -1.00301 0
M  V30 2288 H 198.77 2.03912 -1.5741 0
M  V30 2289 H 198.728 3.13507 -0.236838 0
M  V30 2290 N 202.5 1.5196 0.417844 0
M  V30 2291 C 203.748 1.65263 1.16329 0
M  V30 2292 C 204.069 0.380634 1.91249 0
M  V30 2293 O 203.339 -0.604214 1.86349 0
M  V30 2294 H 201.919 0.60912 0.432414 0
M  V30 2295 H 204.581 1.88969 0.477162 0
M  V30 2296 H 203.677 2.4896 1.88217 0
M  V30 2297 N 203.978 -0.674533 1.42435 0
M  V30 2298 C 205.225 -1.43459 1.42919 0
M  V30 2299 C 205.553 -1.94446 0.0457312 0
M  V30 2300 O 204.808 -1.7132 -0.94593 0
M  V30 2301 C 205.107 -2.64767 2.40069 0
M  V30 2302 C 204.773 -2.3232 3.86443 0
M  V30 2303 C 203.435 -2.23182 4.26314 0
M  V30 2304 C 205.787 -2.05977 4.78773 0
M  V30 2305 C 203.115 -1.85827 5.56494 0
M  V30 2306 C 205.467 -1.70125 6.09295 0
M  V30 2307 C 204.131 -1.59498 6.48164 0
M  V30 2308 H 203.401 -0.524952 0.522978 0
M  V30 2309 H 206.048 -0.769097 1.75377 0
M  V30 2310 H 204.353 -3.36349 2.00939 0
M  V30 2311 H 206.05 -3.22949 2.37707 0
M  V30 2312 H 202.64 -2.40334 3.54877 0
M  V30 2313 H 206.824 -2.11969 4.48757 0
M  V30 2314 H 202.08 -1.76168 5.8547 0
M  V30 2315 H 206.254 -1.48767 6.80324 0
M  V30 2316 H 203.881 -1.30322 7.48946 0
M  V30 2317 N 205.456 -1.28612 -0.910864 0
M  V30 2318 C 206.702 -1.16106 -1.66274 0
M  V30 2319 C 207.035 0.289113 -1.92036 0
M  V30 2320 O 206.31 1.21 -1.52281 0
M  V30 2321 C 206.593 -1.96309 -3.01885 0
M  V30 2322 C 206.446 -3.49405 -2.8326 0
M  V30 2323 C 207.765 -1.78076 -4.02463 0
M  V30 2324 H 204.884 -0.423152 -0.603417 0
M  V30 2325 H 207.526 -1.57961 -1.05586 0
M  V30 2326 H 205.676 -1.60742 -3.53687 0
M  V30 2327 H 207.348 -3.94894 -2.38446 0
M  V30 2328 H 205.591 -3.74893 -2.18261 0
M  V30 2329 H 206.262 -4.00784 -3.79574 0
M  V30 2330 H 208.738 -2.0912 -3.59733 0
M  V30 2331 H 207.614 -2.36561 -4.95308 0
M  V30 2332 H 207.875 -0.733008 -4.35981 0
M  V30 2333 N 206.934 1.1197 -1.10907 0
M  V30 2334 C 208.159 1.87942 -0.877064 0
M  V30 2335 C 208.584 1.79341 0.567314 0
M  V30 2336 O 207.942 1.15184 1.40009 0
M  V30 2337 C 207.99 3.34926 -1.33629 0
M  V30 2338 O 207.094 4.09303 -0.504447 0
M  V30 2339 H 206.435 0.583785 -0.316371 0
M  V30 2340 H 208.965 1.4157 -1.47712 0
M  V30 2341 H 208.975 3.8577 -1.32837 0
M  V30 2342 H 207.65 3.40504 -2.3881 0
M  V30 2343 H 206.227 3.68393 -0.577993 0
M  V30 2344 N 208.412 0.89855 1.29475 0
M  V30 2345 C 209.375 0.380272 2.26023 0
M  V30 2346 C 210.375 -0.484891 1.53315 0
M  V30 2347 O 211.565 -0.290108 1.71767 0
M  V30 2348 C 208.697 -0.45651 3.3783 0
M  V30 2349 H 209.89 1.23295 2.73383 0
M  V30 2350 H 207.443 0.676589 1.40897 0
M  V30 2351 H 208.178 -1.32922 2.95808 0
M  V30 2352 H 207.963 0.163393 3.91759 0
M  V30 2353 H 209.453 -0.810466 4.0966 0
M  V30 2354 N 209.89 -1.43072 0.660911 0
M  V30 2355 C 211.137 -2.01721 0.177445 0
M  V30 2356 C 211.465 -1.5218 -1.21126 0
M  V30 2357 O 210.72 -0.708659 -1.82419 0
M  V30 2358 C 211.019 -3.57103 0.145563 0
M  V30 2359 C 210.685 -4.26021 1.47705 0
M  V30 2360 C 209.347 -4.44563 1.84165 0
M  V30 2361 C 211.699 -4.64983 2.35458 0
M  V30 2362 C 209.027 -4.99334 3.0803 0
M  V30 2363 C 211.379 -5.21127 3.58622 0
M  V30 2364 C 210.043 -5.37884 3.95268 0
M  V30 2365 H 209.313 -0.73815 0.0649317 0
M  V30 2366 H 211.96 -1.71446 0.853144 0
M  V30 2367 H 210.265 -3.86965 -0.61361 0
M  V30 2368 H 211.962 -4.00248 -0.2455 0
M  V30 2369 H 208.552 -4.11939 1.18339 0
M  V30 2370 H 212.736 -4.50343 2.08579 0
M  V30 2371 H 207.992 -5.10493 3.36462 0
M  V30 2372 H 212.166 -5.50262 4.26831 0
M  V30 2373 H 209.793 -5.80089 4.91325 0
M  V30 2374 N 211.368 -0.403325 -1.52352 0
M  V30 2375 C 212.298 0.416205 -2.29761 0
M  V30 2376 C 213.279 1.05123 -1.33728 0
M  V30 2377 O 214.464 1.06134 -1.62632 0
M  V30 2378 C 211.594 1.53624 -3.11475 0
M  V30 2379 C 210.548 1.02653 -4.15507 0
M  V30 2380 C 209.874 2.23971 -4.85532 0
M  V30 2381 C 211.174 0.08463 -5.22231 0
M  V30 2382 H 212.868 -0.229701 -2.98518 0
M  V30 2383 H 210.414 -0.111913 -1.43564 0
M  V30 2384 H 212.367 2.1165 -3.64393 0
M  V30 2385 H 211.091 2.20994 -2.40477 0
M  V30 2386 H 209.75 0.46871 -3.63591 0
M  V30 2387 H 209.398 2.89883 -4.11068 0
M  V30 2388 H 209.098 1.90521 -5.55856 0
M  V30 2389 H 210.622 2.82614 -5.41259 0
M  V30 2390 H 212.036 0.573509 -5.70424 0
M  V30 2391 H 210.433 -0.160783 -5.99885 0
M  V30 2392 H 211.503 -0.86237 -4.7717 0
M  V30 2393 N 212.846 1.57033 -0.133567 0
M  V30 2394 C 214.093 1.95686 0.520877 0
M  V30 2395 C 214.421 1.0177 1.6575 0
M  V30 2396 O 213.676 0.0443195 1.9565 0
M  V30 2397 C 213.975 3.40674 1.08057 0
M  V30 2398 C 213.641 4.50855 0.0637899 0
M  V30 2399 C 212.303 4.80716 -0.215757 0
M  V30 2400 C 214.655 5.17398 -0.62835 0
M  V30 2401 C 211.983 5.74433 -1.19348 0
M  V30 2402 C 214.335 6.12167 -1.5948 0
M  V30 2403 C 212.999 6.40414 -1.88218 0
M  V30 2404 H 212.269 0.716067 0.190602 0
M  V30 2405 H 214.916 1.9026 -0.217556 0
M  V30 2406 H 213.221 3.42865 1.89606 0
M  V30 2407 H 214.918 3.67902 1.59529 0
M  V30 2408 H 211.508 4.27605 0.291855 0
M  V30 2409 H 215.692 4.94472 -0.425562 0
M  V30 2410 H 210.948 5.94616 -1.42272 0
M  V30 2411 H 215.122 6.6281 -2.13671 0
M  V30 2412 H 212.749 7.12838 -2.64133 0
M  V30 2413 N 214.325 -0.140222 1.56975 0
M  V30 2414 C 215.55 -0.870414 1.88251 0
M  V30 2415 C 215.975 -1.73637 0.723312 0
M  V30 2416 O 215.333 -1.78329 -0.32689 0
M  V30 2417 C 215.381 -1.69737 3.18154 0
M  V30 2418 O 214.485 -2.80229 3.02565 0
M  V30 2419 H 213.826 -0.242025 0.61832 0
M  V30 2420 H 216.356 -0.128999 2.04193 0
M  V30 2421 H 216.366 -2.09099 3.50345 0
M  V30 2422 H 215.041 -1.06152 4.02125 0
M  V30 2423 H 213.618 -2.44224 2.81796 0
M  V30 2424 N 215.803 -1.52179 -0.40978 0
M  V30 2425 C 217.052 -1.65434 -1.15388 0
M  V30 2426 C 217.365 -0.390056 -1.91671 0
M  V30 2427 O 218.571 -0.402399 -2.68501 0
M  V30 2428 C 217.027 -2.92279 -2.10003 0
M  V30 2429 C 216.635 -4.25813 -1.39239 0
M  V30 2430 C 218.379 -3.14897 -2.84675 0
M  V30 2431 C 216.286 -5.43782 -2.32498 0
M  V30 2432 H 215.216 -0.616267 -0.434432 0
M  V30 2433 H 217.867 -1.78666 -0.418401 0
M  V30 2434 H 216.249 -2.72744 -2.871 0
M  V30 2435 H 217.423 -4.55828 -0.675099 0
M  V30 2436 H 215.738 -4.09292 -0.766097 0
M  V30 2437 H 218.335 -4.0021 -3.54593 0
M  V30 2438 H 218.678 -2.29103 -3.47588 0
M  V30 2439 H 219.211 -3.34901 -2.14677 0
M  V30 2440 H 215.95 -6.3192 -1.74233 0
M  V30 2441 H 215.47 -5.18106 -3.02201 0
M  V30 2442 H 217.149 -5.76834 -2.93038 0
M  V30 2443 N 217.281 0.66697 -1.42791 0
M  V30 2444 C 218.191 1.80962 -1.49299 0
M  V30 2445 C 219.207 1.69775 -0.381108 0
M  V30 2446 O 220.383 1.91188 -0.633188 0
M  V30 2447 C 217.448 3.17156 -1.40045 0
M  V30 2448 C 216.509 3.40242 -2.6179 0
M  V30 2449 C 215.742 4.69939 -2.52969 0
M  V30 2450 O 215.965 5.48372 -1.56985 0
M  V30 2451 O 214.899 4.94441 -3.43237 0
M  V30 2452 H 218.725 1.78427 -2.45759 0
M  V30 2453 H 216.31 0.823713 -1.24641 0
M  V30 2454 H 218.192 3.98413 -1.37276 0
M  V30 2455 H 216.867 3.20312 -0.467138 0
M  V30 2456 H 215.774 2.58802 -2.70134 0
M  V30 2457 H 217.107 3.41923 -3.54047 0
M  V30 2458 N 218.759 1.29093 0.90403 0
M  V30 2459 C 219.987 1.19689 1.68766 0
M  V30 2460 C 220.402 -0.243113 1.87228 0
M  V30 2461 O 219.759 -1.16326 1.40621 0
M  V30 2462 C 219.81 1.90144 3.07453 0
M  V30 2463 O 219.531 3.2852 2.89838 0
M  V30 2464 C 221.032 1.87162 4.01852 0
M  V30 2465 H 218.252 0.415035 0.527244 0
M  V30 2466 H 220.796 1.7039 1.13082 0
M  V30 2467 H 218.951 1.43289 3.59926 0
M  V30 2468 H 219.365 3.63944 3.77684 0
M  V30 2469 H 220.839 2.41032 4.96596 0
M  V30 2470 H 221.316 0.84617 4.30972 0
M  V30 2471 H 221.922 2.33741 3.5531 0
M  V30 2472 N 220.237 -1.11381 1.11499 0
M  V30 2473 C 221.147 -2.21019 0.786628 0
M  V30 2474 C 222.163 -1.72597 -0.220507 0
M  V30 2475 O 223.339 -2.01321 -0.0565251 0
M  V30 2476 C 220.404 -3.459 0.235333 0
M  V30 2477 C 219.465 -4.09107 1.30115 0
M  V30 2478 C 218.698 -5.28027 0.776068 0
M  V30 2479 O 218.921 -5.6904 -0.393661 0
M  V30 2480 O 217.855 -5.81835 1.54114 0
M  V30 2481 H 221.681 -2.51521 1.70209 0
M  V30 2482 H 219.266 -1.19928 0.890928 0
M  V30 2483 H 221.148 -4.21346 -0.067715 0
M  V30 2484 H 219.823 -3.17049 -0.652828 0
M  V30 2485 H 218.73 -3.35391 1.65722 0
M  V30 2486 H 220.063 -4.42139 2.16273 0
M  V30 2487 N 221.715 -0.905404 -1.28997 0
M  V30 2488 C 222.943 -0.549846 -1.9946 0
M  V30 2489 C 223.358 0.866834 -1.67724 0
M  V30 2490 O 222.715 1.57298 -0.925404 0
M  V30 2491 C 222.766 -0.739387 -3.53858 0
M  V30 2492 O 222.487 -2.10031 -3.84472 0
M  V30 2493 C 223.988 -0.389541 -4.41585 0
M  V30 2494 H 221.208 -0.210429 -0.637151 0
M  V30 2495 H 223.752 -1.21632 -1.64396 0
M  V30 2496 H 221.907 -0.120023 -3.87214 0
M  V30 2497 H 222.321 -2.13385 -4.79132 0
M  V30 2498 H 223.795 -0.572972 -5.49018 0
M  V30 2499 H 224.272 0.673756 -4.34001 0
M  V30 2500 H 224.878 -0.986089 -4.1371 0
M  V30 2501 N 223.193 1.4272 -0.668489 0
M  V30 2502 C 224.421 2.05966 -0.196348 0
M  V30 2503 C 224.836 1.50191 1.14403 0
M  V30 2504 O 224.193 0.639208 1.7094 0
M  V30 2505 C 224.244 3.61314 -0.115815 0
M  V30 2506 O 223.965 4.1502 -1.40322 0
M  V30 2507 C 225.466 4.41663 0.380579 0
M  V30 2508 H 222.686 0.663954 -0.0969829 0
M  V30 2509 H 225.23 1.82966 -0.913446 0
M  V30 2510 H 223.385 3.83448 0.551931 0
M  V30 2511 H 223.799 5.08832 -1.27243 0
M  V30 2512 H 225.273 5.5065 0.385848 0
M  V30 2513 H 225.75 4.15792 1.41471 0
M  V30 2514 H 226.356 4.24534 -0.255209 0
M  V30 2515 N 224.671 0.411399 1.52136 0
M  V30 2516 C 225.92 -0.165009 2.01024 0
M  V30 2517 C 226.233 -1.4603 1.30133 0
M  V30 2518 O 227.439 -2.1181 1.69849 0
M  V30 2519 C 225.895 -0.344618 3.58246 0
M  V30 2520 C 225.503 0.938716 4.38055 0
M  V30 2521 C 227.247 -0.876195 4.15359 0
M  V30 2522 C 225.154 0.726172 5.86925 0
M  V30 2523 H 224.084 -0.0654407 0.751155 0
M  V30 2524 H 226.735 0.537192 1.75461 0
M  V30 2525 H 225.117 -1.10921 3.80148 0
M  V30 2526 H 226.291 1.70963 4.27912 0
M  V30 2527 H 224.606 1.39688 3.92271 0
M  V30 2528 H 227.203 -1.05128 5.24263 0
M  V30 2529 H 227.546 -1.85152 3.7286 0
M  V30 2530 H 228.079 -0.170607 3.97434 0
M  V30 2531 H 224.818 1.67312 6.33788 0
M  V30 2532 H 224.338 -0.00540283 5.998 0
M  V30 2533 H 226.017 0.369231 6.45946 0
M  V30 2534 N 226.149 -1.5696 0.141893 0
M  V30 2535 C 227.397 -1.95573 -0.509484 0
M  V30 2536 C 227.718 -1.02746 -1.65736 0
M  V30 2537 O 226.988 -0.0880311 -1.95702 0
M  V30 2538 H 225.568 -0.722115 -0.191205 0
M  V30 2539 H 228.23 -1.93697 0.216196 0
M  V30 2540 H 227.326 -2.99171 -0.889 0
M  V30 2541 N 227.627 0.131896 -1.57047 0
M  V30 2542 C 228.857 0.855219 -1.88068 0
M  V30 2543 C 229.265 1.74557 -0.729817 0
M  V30 2544 O 228.608 1.81083 0.308962 0
M  V30 2545 C 228.67 1.75119 -3.13964 0
M  V30 2546 C 228.334 1.03646 -4.45091 0
M  V30 2547 C 229.331 0.383276 -5.18485 0
M  V30 2548 C 227.016 1.02148 -4.91804 0
M  V30 2549 C 229.01 -0.275347 -6.36805 0
M  V30 2550 C 226.697 0.359047 -6.10044 0
M  V30 2551 C 227.695 -0.288222 -6.82392 0
M  V30 2552 O 227.383 -0.94011 -7.98384 0
M  V30 2553 H 227.115 0.251864 -0.627328 0
M  V30 2554 H 229.669 0.124782 -2.05021 0
M  V30 2555 H 227.899 2.52295 -2.9306 0
M  V30 2556 H 229.588 2.3478 -3.31109 0
M  V30 2557 H 230.354 0.386562 -4.83457 0
M  V30 2558 H 226.233 1.5147 -4.35405 0
M  V30 2559 H 229.777 -0.781148 -6.93213 0
M  V30 2560 H 225.674 0.35348 -6.44531 0
M  V30 2561 H 226.442 -0.84329 -8.14144 0
M  V30 2562 N 229.106 1.52395 0.401703 0
M  V30 2563 C 230.354 1.66488 1.14569 0
M  V30 2564 C 230.675 0.400897 1.90835 0
M  V30 2565 O 229.945 -0.584415 1.8698 0
M  V30 2566 H 228.525 0.613672 0.425929 0
M  V30 2567 H 231.187 1.89464 0.457093 0
M  V30 2568 H 230.283 2.50942 1.85566 0
M  V30 2569 N 230.584 -0.659388 1.43143 0
M  V30 2570 C 231.814 -1.44513 1.47646 0
M  V30 2571 C 232.222 -1.88981 0.0910095 0
M  V30 2572 O 231.565 -1.59702 -0.907789 0
M  V30 2573 C 231.627 -2.71663 2.35456 0
M  V30 2574 C 231.291 -2.49175 3.83094 0
M  V30 2575 C 232.288 -2.1279 4.74359 0
M  V30 2576 C 229.973 -2.63691 4.27519 0
M  V30 2577 C 231.967 -1.9121 6.08044 0
M  V30 2578 C 229.654 -2.41726 5.61259 0
M  V30 2579 C 230.652 -2.0554 6.51339 0
M  V30 2580 O 230.34 -1.838 7.82606 0
M  V30 2581 H 230.072 -0.45064 0.503884 0
M  V30 2582 H 232.626 -0.816248 1.88485 0
M  V30 2583 H 230.856 -3.37089 1.89493 0
M  V30 2584 H 232.545 -3.33595 2.31235 0
M  V30 2585 H 233.311 -2.01157 4.41317 0
M  V30 2586 H 229.19 -2.90832 3.57684 0
M  V30 2587 H 232.734 -1.62889 6.78316 0
M  V30 2588 H 228.631 -2.52959 5.9387 0
M  V30 2589 H 229.399 -1.98275 7.94122 0
M  V30 2590 N 232.062 -1.29571 -0.897171 0
M  V30 2591 C 233.478 -1.07637 -1.17841 0
M  V30 2592 C 233.678 0.170713 -2.00776 0
M  V30 2593 O 232.734 0.867768 -2.3712 0
M  V30 2594 C 234.047 -2.3332 -1.8969 0
M  V30 2595 C 235.595 -2.38664 -2.02505 0
M  V30 2596 C 236.07 -3.64157 -2.77765 0
M  V30 2597 N 237.561 -3.64894 -2.85318 0
M  V30 2598 C 238.296 -4.58679 -3.44094 0
M  V30 2599 N 237.792 -5.62799 -4.04017 0
M  V30 2600 N 239.585 -4.46245 -3.41793 0
M  V30 2601 H 231.736 -2.09598 -0.343883 0
M  V30 2602 H 233.999 -0.923333 -0.214848 0
M  V30 2603 H 233.705 -3.24262 -1.36187 0
M  V30 2604 H 233.579 -2.41025 -2.9015 0
M  V30 2605 H 235.966 -1.48208 -2.55183 0
M  V30 2606 H 236.047 -2.34943 -1.01171 0
M  V30 2607 H 235.691 -4.54965 -2.25763 0
M  V30 2608 H 235.621 -3.65137 -3.7945 0
M  V30 2609 H 238.112 -2.89613 -2.42761 0
M  V30 2610 H 238.425 -6.3048 -4.46895 0
M  V30 2611 H 236.77 -5.66605 -4.02472 0
M  V30 2612 H 239.961 -3.64094 -2.94199 0
M  V30 2613 H 240.134 -5.19518 -3.87304 0
M  V30 2614 N 233.54 1.10788 -1.12088 0
M  V30 2615 C 234.786 1.82942 -0.875226 0
M  V30 2616 C 235.119 1.84779 0.597538 0
M  V30 2617 O 234.394 1.30578 1.44152 0
M  V30 2618 C 234.677 3.29789 -1.44606 0
M  V30 2619 C 234.53 3.36307 -2.98693 0
M  V30 2620 C 235.849 4.26064 -1.10261 0
M  V30 2621 H 232.968 0.664195 -0.319397 0
M  V30 2622 H 235.61 1.29867 -1.38689 0
M  V30 2623 H 233.76 3.75118 -1.01089 0
M  V30 2624 H 235.432 2.99487 -3.50864 0
M  V30 2625 H 233.675 2.76318 -3.34411 0
M  V30 2626 H 234.346 4.39694 -3.33726 0
M  V30 2627 H 236.822 3.88951 -1.4784 0
M  V30 2628 H 235.698 5.27183 -1.52869 0
M  V30 2629 H 235.959 4.42098 -0.0142953 0
M  V30 2630 N 235.018 0.912232 1.28515 0
M  V30 2631 C 236.267 0.540504 1.94323 0
M  V30 2632 C 236.58 -0.920044 1.72611 0
M  V30 2633 O 237.786 -1.39986 2.32629 0
M  V30 2634 C 236.242 0.915803 3.48053 0
M  V30 2635 C 235.85 2.39598 3.78546 0
M  V30 2636 C 237.594 0.614588 4.20027 0
M  V30 2637 C 235.501 2.71148 5.25578 0
M  V30 2638 H 234.431 0.198418 0.727424 0
M  V30 2639 H 237.082 1.11094 1.46049 0
M  V30 2640 H 235.464 0.274168 3.9505 0
M  V30 2641 H 236.638 3.08422 3.42364 0
M  V30 2642 H 234.953 2.66749 3.1974 0
M  V30 2643 H 237.55 0.827002 5.28266 0
M  V30 2644 H 237.893 -0.447531 4.13887 0
M  V30 2645 H 238.426 1.21462 3.78803 0
M  V30 2646 H 235.165 3.76207 5.36794 0
M  V30 2647 H 234.685 2.0696 5.62963 0
M  V30 2648 H 236.364 2.58072 5.93302 0
M  V30 2649 N 236.496 -1.42363 0.676048 0
M  V30 2650 C 237.724 -2.05859 0.207268 0
M  V30 2651 C 238.139 -1.50796 -1.13605 0
M  V30 2652 O 237.496 -0.648265 -1.70598 0
M  V30 2653 C 237.547 -3.61248 0.134975 0
M  V30 2654 O 237.268 -4.1427 1.42521 0
M  V30 2655 C 238.769 -4.41859 -0.357151 0
M  V30 2656 H 235.989 -0.663431 0.100503 0
M  V30 2657 H 238.533 -1.82479 0.923136 0
M  V30 2658 H 236.688 -3.83735 -0.531588 0
M  V30 2659 H 237.102 -5.0815 1.29939 0
M  V30 2660 H 238.576 -5.50847 -0.356641 0
M  V30 2661 H 239.053 -4.16536 -1.39264 0
M  V30 2662 H 239.659 -4.24392 0.27772 0
M  V30 2663 N 237.974 -0.419461 -1.51915 0
M  V30 2664 C 239.251 0.211999 -1.94448 0
M  V30 2665 C 239.631 1.61703 -1.35703 0
M  V30 2666 O 238.979 2.22102 -0.536931 0
M  V30 2667 C 239.189 0.207872 -3.4838 0
M  V30 2668 C 240.537 0.422192 -4.22496 0
M  V30 2669 O 241.561 0.286778 -3.55044 0
M  V30 2670 O 240.42 0.690009 -5.42126 0
M  V30 2671 H 237.514 0.139586 -0.815135 0
M  V30 2672 H 240.06 -0.476151 -1.62883 0
M  V30 2673 H 238.832 -0.775102 -3.83546 0
M  V30 2674 H 238.455 0.939688 -3.86336 0
M  V30 2675 N 239.452 1.56882 -0.150215 0
M  V30 2676 C 240.399 2.16922 0.788244 0
M  V30 2677 C 241.369 1.10303 1.24187 0
M  V30 2678 O 242.554 1.38359 1.31383 0
M  V30 2679 C 239.694 2.79754 2.02068 0
M  V30 2680 C 238.807 4.00775 1.61257 0
M  V30 2681 C 237.942 4.51595 2.79705 0
M  V30 2682 C 236.981 5.65074 2.35282 0
M  V30 2683 N 236.118 6.10499 3.4675 0
M  V30 2684 H 240.958 2.96779 0.269444 0
M  V30 2685 H 238.495 1.46599 0.12128 0
M  V30 2686 H 240.453 3.14329 2.74323 0
M  V30 2687 H 239.083 2.02536 2.51354 0
M  V30 2688 H 238.135 3.72158 0.787553 0
M  V30 2689 H 239.447 4.82978 1.24633 0
M  V30 2690 H 238.601 4.88242 3.60145 0
M  V30 2691 H 237.34 3.68406 3.19576 0
M  V30 2692 H 236.345 5.28 1.53283 0
M  V30 2693 H 237.57 6.50052 1.96493 0
M  V30 2694 H 235.516 5.30243 3.86236 0
M  V30 2695 H 235.433 6.87637 3.14152 0
M  V30 2696 H 236.701 6.51791 4.27537 0
M  V30 2697 N 240.93 -0.123565 1.57115 0
M  V30 2698 C 242.17 -0.838097 1.86428 0
M  V30 2699 C 242.534 -1.77266 0.737611 0
M  V30 2700 O 243.735 -2.52842 0.912389 0
M  V30 2701 C 242.006 -1.57219 3.20962 0
M  V30 2702 S 243.565 -2.32893 3.71896 0
M  V30 2703 H 240.383 -0.279811 0.653626 0
M  V30 2704 H 242.985 -0.0967034 1.95261 0
M  V30 2705 H 241.689 -0.877522 4.00909 0
M  V30 2706 H 241.22 -2.35405 3.15195 0
M  V30 2707 H 243.235 -3.5853 3.43032 0
M  V30 2708 N 242.408 -1.52605 -0.393616 0
M  V30 2709 C 243.819 -1.59417 -0.971761 0
M  V30 2710 C 244.17 -0.444173 -1.91106 0
M  V30 2711 O 243.295 0.433382 -2.12016 0
M  V30 2712 C 243.89 -2.88936 -1.76921 0
M  V30 2713 C 242.449 -2.98175 -2.29714 0
M  V30 2714 C 241.596 -2.54491 -1.10135 0
M  V30 2715 H 244.547 -1.57751 -0.173317 0
M  V30 2716 H 244.568 -2.75163 -2.62804 0
M  V30 2717 H 244.08 -3.72616 -1.08532 0
M  V30 2718 H 242.181 -2.19024 -3.01429 0
M  V30 2719 H 242.294 -4.02726 -2.59517 0
M  V30 2720 H 240.658 -2.08702 -1.45999 0
M  V30 2721 H 241.441 -3.4056 -0.432874 0
M  V30 2722 N 243.887 0.651787 -1.4349 0
M  V30 2723 C 244.797 1.79368 -1.5121 0
M  V30 2724 C 245.813 1.69361 -0.399093 0
M  V30 2725 O 246.989 1.90505 -0.653431 0
M  V30 2726 C 244.054 3.15653 -1.43401 0
M  V30 2727 C 243.115 3.37446 -2.65384 0
M  V30 2728 C 242.348 4.67229 -2.57939 0
M  V30 2729 O 242.571 5.46676 -1.62792 0
M  V30 2730 O 241.505 4.90773 -3.48462 0
M  V30 2731 H 245.331 1.7581 -2.47638 0
M  V30 2732 H 242.916 0.810447 -1.25507 0
M  V30 2733 H 244.798 3.96935 -1.41494 0
M  V30 2734 H 243.473 3.19798 -0.501085 0
M  V30 2735 H 242.38 2.55923 -2.72863 0
M  V30 2736 H 243.713 3.38148 -3.57654 0
M  V30 2737 N 245.365 1.30045 0.890287 0
M  V30 2738 C 246.613 1.18327 1.63839 0
M  V30 2739 C 246.934 -0.263455 1.93212 0
M  V30 2740 O 246.204 -1.17856 1.56482 0
M  V30 2741 H 244.784 0.434933 0.607324 0
M  V30 2742 H 247.446 1.631 1.06698 0
M  V30 2743 H 246.542 1.74024 2.59079 0
M  V30 2744 N 246.843 -1.10192 1.12674 0
M  V30 2745 C 248.092 -1.81573 0.8783 0
M  V30 2746 C 248.405 -1.86249 -0.597557 0
M  V30 2747 O 249.611 -2.5386 -0.962681 0
M  V30 2748 C 248.067 -3.26149 1.52167 0
M  V30 2749 C 247.675 -3.29763 3.03249 0
M  V30 2750 C 249.419 -4.0234 1.3536 0
M  V30 2751 C 247.326 -4.68815 3.60508 0
M  V30 2752 H 246.256 -0.680394 0.324931 0
M  V30 2753 H 248.907 -1.23902 1.35353 0
M  V30 2754 H 247.289 -3.83832 0.974104 0
M  V30 2755 H 248.463 -2.8189 3.6452 0
M  V30 2756 H 246.778 -2.67059 3.19481 0
M  V30 2757 H 249.375 -5.05058 1.75559 0
M  V30 2758 H 249.718 -4.15235 0.297554 0
M  V30 2759 H 250.251 -3.51079 1.87052 0
M  V30 2760 H 246.99 -4.61121 4.65884 0
M  V30 2761 H 246.51 -5.17045 3.04014 0
M  V30 2762 H 248.189 -5.37785 3.59717 0
M  V30 2763 N 248.321 -0.919034 -1.28029 0
M  V30 2764 C 249.57 -0.550802 -1.94034 0
M  V30 2765 C 249.883 0.910877 -1.73096 0
M  V30 2766 O 251.089 1.3875 -2.33368 0
M  V30 2767 C 249.545 -0.934249 -3.47563 0
M  V30 2768 C 249.153 -2.41602 -3.7727 0
M  V30 2769 C 250.897 -0.636854 -4.19696 0
M  V30 2770 C 248.804 -2.73932 -5.24133 0
M  V30 2771 H 247.734 -0.202273 -0.726362 0
M  V30 2772 H 250.385 -1.11867 -1.45458 0
M  V30 2773 H 248.767 -0.295115 -3.94899 0
M  V30 2774 H 249.941 -3.10233 -3.40723 0
M  V30 2775 H 248.256 -2.68441 -3.18321 0
M  V30 2776 H 250.853 -0.855005 -5.2782 0
M  V30 2777 H 251.196 0.425575 -4.14119 0
M  V30 2778 H 251.729 -1.23469 -3.78154 0
M  V30 2779 H 248.468 -3.79049 -5.34792 0
M  V30 2780 H 247.988 -2.09942 -5.61858 0
M  V30 2781 H 249.667 -2.61215 -5.91925 0
M  V30 2782 N 249.799 1.42003 -0.683588 0
M  V30 2783 C 250.729 2.33487 -0.024866 0
M  V30 2784 C 251.71 1.51163 0.779975 0
M  V30 2785 O 252.895 1.79739 0.735362 0
M  V30 2786 C 250.025 3.3487 0.920836 0
M  V30 2787 C 248.979 4.27414 0.223958 0
M  V30 2788 C 248.305 5.19074 1.2832 0
M  V30 2789 C 249.605 5.14445 -0.90242 0
M  V30 2790 H 251.299 2.88819 -0.788921 0
M  V30 2791 H 248.845 1.38873 -0.38083 0
M  V30 2792 H 250.798 3.97787 1.39081 0
M  V30 2793 H 249.522 2.77861 1.71642 0
M  V30 2794 H 248.181 3.65904 -0.225864 0
M  V30 2795 H 247.829 4.58387 2.071 0
M  V30 2796 H 247.529 5.81822 0.821995 0
M  V30 2797 H 249.053 5.84867 1.75392 0
M  V30 2798 H 250.467 5.70998 -0.513272 0
M  V30 2799 H 248.864 5.86072 -1.28997 0
M  V30 2800 H 249.934 4.52322 -1.74737 0
M  V30 2801 N 251.277 0.427512 1.51691 0
M  V30 2802 C 252.207 -0.3796 2.30394 0
M  V30 2803 C 253.188 -1.02982 1.35384 0
M  V30 2804 O 254.373 -1.03534 1.643 0
M  V30 2805 C 251.503 -1.48649 3.1388 0
M  V30 2806 C 250.457 -0.960294 4.17088 0
M  V30 2807 C 249.783 -2.16219 4.89033 0
M  V30 2808 C 251.083 -0.00153679 5.223 0
M  V30 2809 H 252.777 0.277164 2.98114 0
M  V30 2810 H 250.323 0.134739 1.43368 0
M  V30 2811 H 252.276 -2.05826 3.67714 0
M  V30 2812 H 251 -2.1714 2.43962 0
M  V30 2813 H 249.659 -0.410806 3.64291 0
M  V30 2814 H 249.307 -2.83307 4.15628 0
M  V30 2815 H 249.007 -1.81654 5.58816 0
M  V30 2816 H 250.531 -2.73968 5.45687 0
M  V30 2817 H 251.945 -0.482687 5.71264 0
M  V30 2818 H 250.342 0.256199 5.99553 0
M  V30 2819 H 251.412 0.938174 4.75738 0
M  V30 2820 N 252.755 -1.56801 0.158532 0
M  V30 2821 C 253.685 -2.20347 -0.772609 0
M  V30 2822 C 254.666 -1.15518 -1.24859 0
M  V30 2823 O 255.851 -1.43902 -1.30406 0
M  V30 2824 C 252.981 -2.83417 -2.00729 0
M  V30 2825 C 251.935 -3.94174 -1.66765 0
M  V30 2826 C 251.261 -4.44233 -2.97592 0
M  V30 2827 C 252.561 -5.14392 -0.905447 0
M  V30 2828 H 254.255 -2.98413 -0.242959 0
M  V30 2829 H 251.801 -1.43537 -0.115419 0
M  V30 2830 H 253.754 -3.26543 -2.6636 0
M  V30 2831 H 252.478 -2.02701 -2.56086 0
M  V30 2832 H 251.137 -3.51684 -1.03508 0
M  V30 2833 H 250.785 -3.60325 -3.50963 0
M  V30 2834 H 250.485 -5.18945 -2.75626 0
M  V30 2835 H 252.009 -4.90037 -3.64274 0
M  V30 2836 H 253.423 -5.5429 -1.46408 0
M  V30 2837 H 251.82 -5.9494 -0.7853 0
M  V30 2838 H 252.89 -4.84795 0.100668 0
M  V30 2839 N 254.233 0.115231 -1.57178 0
M  V30 2840 C 255.482 0.820945 -1.84237 0
M  V30 2841 C 255.795 1.80866 -0.744761 0
M  V30 2842 O 257.001 2.56083 -0.901871 0
M  V30 2843 C 255.457 1.51072 -3.26658 0
M  V30 2844 C 255.065 0.563795 -4.44438 0
M  V30 2845 C 256.809 2.20134 -3.62962 0
M  V30 2846 C 254.716 1.25701 -5.77887 0
M  V30 2847 H 253.646 0.310328 -0.687177 0
M  V30 2848 H 256.297 0.0737134 -1.83352 0
M  V30 2849 H 254.679 2.30471 -3.22024 0
M  V30 2850 H 255.853 -0.197247 -4.60378 0
M  V30 2851 H 254.168 -0.0200638 -4.16395 0
M  V30 2852 H 256.765 2.72696 -4.59936 0
M  V30 2853 H 257.108 2.98107 -2.90582 0
M  V30 2854 H 257.641 1.47619 -3.69396 0
M  V30 2855 H 254.38 0.518493 -6.53446 0
M  V30 2856 H 253.9 1.98997 -5.65827 0
M  V30 2857 H 255.579 1.78915 -6.2177 0
M  V30 2858 N 255.711 1.52812 0.385517 0
M  V30 2859 C 256.643 1.74096 1.49074 0
M  V30 2860 C 257.656 0.621462 1.50472 0
M  V30 2861 O 258.845 0.897245 1.54311 0
M  V30 2862 C 255.945 1.78774 2.87911 0
M  V30 2863 C 255.118 3.08134 3.10439 0
M  V30 2864 C 254.177 3.04313 4.29278 0
M  V30 2865 O 253.203 3.78168 4.25415 0
M  V30 2866 N 254.405 2.23741 5.35649 0
M  V30 2867 H 257.17 2.69455 1.31202 0
M  V30 2868 H 254.731 1.51343 0.575065 0
M  V30 2869 H 256.723 1.73721 3.65518 0
M  V30 2870 H 255.293 0.907869 2.99126 0
M  V30 2871 H 254.513 3.26649 2.20667 0
M  V30 2872 H 255.801 3.93662 3.22347 0
M  V30 2873 H 255.199 1.63211 5.41645 0
M  V30 2874 H 253.756 2.24524 6.11909 0
M  V30 2875 N 257.189 -0.644168 1.43834 0
M  V30 2876 C 258.414 -1.43642 1.49605 0
M  V30 2877 C 258.839 -1.8773 0.117913 0
M  V30 2878 O 258.197 -1.57938 -0.890239 0
M  V30 2879 C 258.245 -2.6416 2.45463 0
M  V30 2880 O 257.349 -3.63538 1.94714 0
M  V30 2881 H 256.69 -0.430329 0.50568 0
M  V30 2882 H 259.22 -0.787448 1.8884 0
M  V30 2883 H 259.23 -3.11864 2.63068 0
M  V30 2884 H 257.905 -2.31414 3.45572 0
M  V30 2885 H 256.482 -3.2273 1.86814 0
M  V30 2886 N 258.668 -1.30515 -0.883378 0
M  V30 2887 C 259.914 -1.19607 -1.63774 0
M  V30 2888 C 260.247 0.248314 -1.92606 0
M  V30 2889 O 259.522 1.17742 -1.54813 0
M  V30 2890 C 259.805 -2.02669 -2.97653 0
M  V30 2891 C 259.658 -3.55335 -2.75784 0
M  V30 2892 C 260.977 -1.86573 -3.98596 0
M  V30 2893 H 258.096 -0.435856 -0.594305 0
M  V30 2894 H 260.738 -1.60165 -1.02212 0
M  V30 2895 H 258.888 -1.68208 -3.50197 0
M  V30 2896 H 260.56 -3.99863 -2.30016 0
M  V30 2897 H 258.803 -3.79438 -2.1026 0
M  V30 2898 H 259.474 -4.08745 -3.70988 0
M  V30 2899 H 261.95 -2.16703 -3.55217 0
M  V30 2900 H 260.826 -2.47014 -4.90179 0
M  V30 2901 H 261.087 -0.825321 -4.34328 0
M  V30 2902 N 260.146 1.09593 -1.13257 0
M  V30 2903 C 261.076 2.18214 -0.830946 0
M  V30 2904 C 262.057 1.68812 0.208966 0
M  V30 2905 O 263.242 1.9408 0.0682666 0
M  V30 2906 C 260.372 3.46051 -0.294296 0
M  V30 2907 C 259.326 4.08778 -1.26826 0
M  V30 2908 C 258.652 5.31419 -0.591449 0
M  V30 2909 C 259.952 4.51476 -2.62615 0
M  V30 2910 H 261.646 2.43703 -1.73923 0
M  V30 2911 H 259.192 1.17128 -0.837675 0
M  V30 2912 H 261.145 4.2134 -0.0709606 0
M  V30 2913 H 259.869 3.20079 0.649366 0
M  V30 2914 H 258.528 3.35505 -1.47756 0
M  V30 2915 H 258.176 5.01727 0.357633 0
M  V30 2916 H 257.876 5.74341 -1.24123 0
M  V30 2917 H 259.4 6.09433 -0.377355 0
M  V30 2918 H 260.814 5.17999 -2.45663 0
M  V30 2919 H 259.211 5.05277 -3.23752 0
M  V30 2920 H 260.281 3.63962 -3.20406 0
M  V30 2921 N 261.624 0.925811 1.2754 0
M  V30 2922 C 262.872 0.564138 1.94067 0
M  V30 2923 C 263.193 -0.897188 1.73134 0
M  V30 2924 O 262.463 -1.63573 1.07799 0
M  V30 2925 H 261.043 0.205645 0.718136 0
M  V30 2926 H 263.705 1.1778 1.55287 0
M  V30 2927 H 262.801 0.76881 3.02483 0
M  V30 2928 N 263.102 -1.41638 0.69111 0
M  V30 2929 C 264.327 -2.06148 0.227583 0
M  V30 2930 C 264.752 -1.51652 -1.11281 0
M  V30 2931 O 264.11 -0.64164 -1.69566 0
M  V30 2932 C 264.158 -3.60095 0.190858 0
M  V30 2933 O 263.262 -4.03845 -0.835664 0
M  V30 2934 H 262.603 -0.654434 0.112306 0
M  V30 2935 H 265.133 -1.81484 0.944714 0
M  V30 2936 H 265.143 -4.07995 0.020207 0
M  V30 2937 H 263.818 -3.99129 1.16915 0
M  V30 2938 H 262.395 -3.67458 -0.63473 0
M  V30 2939 N 264.58 -0.43555 -1.51462 0
M  V30 2940 C 265.829 0.133007 -2.01261 0
M  V30 2941 C 266.142 1.43942 -1.32439 0
M  V30 2942 O 267.348 2.09081 -1.73198 0
M  V30 2943 C 265.804 0.287581 -3.58749 0
M  V30 2944 C 265.412 -1.00829 -4.36506 0
M  V30 2945 C 267.156 0.810004 -4.167 0
M  V30 2946 C 265.063 -0.819454 -5.85695 0
M  V30 2947 H 263.993 0.0534822 -0.752101 0
M  V30 2948 H 266.644 -0.565038 -1.74584 0
M  V30 2949 H 265.026 1.04859 -3.81865 0
M  V30 2950 H 266.2 -1.77749 -4.25138 0
M  V30 2951 H 264.515 -1.45911 -3.89999 0
M  V30 2952 H 267.112 0.967743 -5.2587 0
M  V30 2953 H 267.455 1.79196 -3.75758 0
M  V30 2954 H 267.988 0.107357 -3.97655 0
M  V30 2955 H 264.727 -1.77374 -6.31046 0
M  V30 2956 H 264.247 -0.0900208 -5.99732 0
M  V30 2957 H 265.926 -0.471949 -6.45276 0
M  V30 2958 N 266.058 1.56714 -0.166846 0
M  V30 2959 C 267.304 1.97039 0.479962 0
M  V30 2960 C 267.637 1.05264 1.63197 0
M  V30 2961 O 266.912 0.0988833 1.94248 0
M  V30 2962 C 267.195 3.46867 0.967212 0
M  V30 2963 C 267.048 4.49421 -0.18466 0
M  V30 2964 C 268.367 3.9968 1.84238 0
M  V30 2965 H 265.486 0.71641 0.172992 0
M  V30 2966 H 268.128 1.8832 -0.252079 0
M  V30 2967 H 266.278 3.54428 1.59101 0
M  V30 2968 H 267.95 4.53924 -0.821621 0
M  V30 2969 H 266.193 4.25573 -0.840837 0
M  V30 2970 H 266.864 5.51644 0.198317 0
M  V30 2971 H 269.34 3.94723 1.31655 0
M  V30 2972 H 268.216 5.04941 2.15234 0
M  V30 2973 H 268.477 3.43226 2.78654 0
M  V30 2974 N 267.536 -0.106894 1.57237 0
M  V30 2975 C 268.484 -1.14944 2.02215 0
M  V30 2976 C 269.478 -1.42167 0.92114 0
M  V30 2977 O 270.684 -1.41987 1.10634 0
M  V30 2978 H 267.059 -0.387841 0.64427 0
M  V30 2979 H 269.03 -0.743683 2.88984 0
M  V30 2980 C 267.779 -2.4647 2.4525 0
M  V30 2981 H 267.102 -2.26363 3.29545 0
M  V30 2982 H 268.542 -3.17948 2.80508 0
M  V30 2983 C 267.001 -3.09921 1.321 0
M  V30 2984 O 267.531 -3.9651 0.643622 0
M  V30 2985 N 265.737 -2.69986 1.07497 0
M  V30 2986 H 265.284 -1.99667 1.62761 0
M  V30 2987 H 265.242 -3.12769 0.319876 0
M  V30 2988 N 269.014 -1.53014 -0.377408 0
M  V30 2989 C 269.977 -1.77957 -1.44444 0
M  V30 2990 C 270.977 -0.649763 -1.47087 0
M  V30 2991 O 272.167 -0.917897 -1.48055 0
M  V30 2992 C 269.299 -1.89089 -2.83651 0
M  V30 2993 H 270.492 -2.73243 -1.23606 0
M  V30 2994 H 268.045 -1.43912 -0.609844 0
M  V30 2995 H 268.78 -0.958293 -3.09818 0
M  V30 2996 H 268.565 -2.71254 -2.83132 0
M  V30 2997 H 270.055 -2.1002 -3.60945 0
M  V30 2998 N 270.492 0.636531 -1.44174 0
M  V30 2999 C 271.739 1.39619 -1.46672 0
M  V30 3000 C 272.067 1.94257 -0.0972691 0
M  V30 3001 O 271.322 1.73768 0.900175 0
M  V30 3002 C 271.621 2.58309 -2.47005 0
M  V30 3003 C 271.287 2.21992 -3.92467 0
M  V30 3004 C 269.949 2.118 -4.32081 0
M  V30 3005 C 272.301 1.9321 -4.84065 0
M  V30 3006 C 269.629 1.71007 -5.61225 0
M  V30 3007 C 271.981 1.53911 -6.13591 0
M  V30 3008 C 270.645 1.42257 -6.52165 0
M  V30 3009 H 269.915 0.510902 -0.536712 0
M  V30 3010 H 272.562 0.722328 -1.77355 0
M  V30 3011 H 270.867 3.30903 -2.09786 0
M  V30 3012 H 272.564 3.16533 -2.46186 0
M  V30 3013 H 269.154 2.30841 -3.61124 0
M  V30 3014 H 273.338 1.99997 -4.54219 0
M  V30 3015 H 268.594 1.60583 -5.89935 0
M  V30 3016 H 272.768 1.30677 -6.8403 0
M  V30 3017 H 270.395 1.10419 -7.52138 0
M  V30 3018 N 271.97 1.30982 0.876444 0
M  V30 3019 C 272.903 1.12414 1.98591 0
M  V30 3020 C 273.881 0.0294078 1.62573 0
M  V30 3021 O 275.065 0.184598 1.87594 0
M  V30 3022 C 272.192 0.716276 3.3104 0
M  V30 3023 C 271.238 1.81311 3.86042 0
M  V30 3024 S 272.071 3.41727 4.1229 0
M  V30 3025 C 273.227 3.02863 5.47745 0
M  V30 3026 H 273.46 2.06338 2.14037 0
M  V30 3027 H 270.993 1.15393 1.02586 0
M  V30 3028 H 272.951 0.487697 4.07593 0
M  V30 3029 H 271.612 -0.203749 3.13438 0
M  V30 3030 H 270.805 1.48021 4.81774 0
M  V30 3031 H 270.407 1.99641 3.16259 0
M  V30 3032 H 272.699 2.51353 6.29148 0
M  V30 3033 H 273.642 3.97533 5.8598 0
M  V30 3034 H 274.05 2.40487 5.10711 0
M  V30 3035 N 273.449 -1.08991 1.13837 0
M  V30 3036 C 274.695 -1.81526 0.90422 0
M  V30 3037 C 275.028 -1.85706 -0.568066 0
M  V30 3038 O 274.303 -1.32855 -1.42056 0
M  V30 3039 C 274.586 -3.27447 1.49835 0
M  V30 3040 C 274.439 -3.31512 3.04006 0
M  V30 3041 C 275.758 -4.24256 1.17025 0
M  V30 3042 H 272.877 -0.659029 0.329923 0
M  V30 3043 H 275.519 -1.27644 1.40737 0
M  V30 3044 H 273.669 -3.73462 1.07044 0
M  V30 3045 H 275.341 -2.93867 3.55584 0
M  V30 3046 H 273.584 -2.70963 3.38765 0
M  V30 3047 H 274.255 -4.34329 3.40679 0
M  V30 3048 H 276.731 -3.86549 1.54009 0
M  V30 3049 H 275.607 -5.24684 1.61237 0
M  V30 3050 H 275.868 -4.42019 0.0846274 0
M  V30 3051 N 274.927 -0.932562 -1.27047 0
M  V30 3052 C 276.175 -0.574422 -1.93765 0
M  V30 3053 C 276.496 0.887993 -1.73608 0
M  V30 3054 O 275.766 1.62999 -1.08665 0
M  V30 3055 H 274.346 -0.209451 -0.717035 0
M  V30 3056 H 277.008 -1.18601 -1.5466 0
M  V30 3057 H 276.104 -0.784841 -3.02071 0
M  V30 3058 N 276.405 1.4127 -0.698611 0
M  V30 3059 C 277.645 2.03044 -0.235062 0
M  V30 3060 C 278.009 1.54146 1.14468 0
M  V30 3061 O 279.21 2.07867 1.70425 0
M  V30 3062 C 277.481 3.56192 -0.293651 0
M  V30 3063 S 279.04 4.38696 0.0954053 0
M  V30 3064 H 275.858 0.704697 -0.0944648 0
M  V30 3065 H 278.46 1.72656 -0.917064 0
M  V30 3066 H 277.164 3.89274 -1.29977 0
M  V30 3067 H 276.695 3.91285 0.407397 0
M  V30 3068 H 278.71 4.78257 1.3223 0
M  V30 3069 N 277.883 0.443576 1.51229 0
M  V30 3070 C 278.816 -0.410089 2.24485 0
M  V30 3071 C 279.794 -1.01949 1.26669 0
M  V30 3072 O 280.978 -1.06075 1.55821 0
M  V30 3073 C 278.105 -1.57211 3.00004 0
M  V30 3074 C 277.151 -1.08279 4.12526 0
M  V30 3075 S 277.984 -0.0197476 5.35496 0
M  V30 3076 C 279.14 -1.18629 6.14555 0
M  V30 3077 H 279.373 0.211832 2.96544 0
M  V30 3078 H 276.906 0.228156 1.52705 0
M  V30 3079 H 278.864 -2.23825 3.44111 0
M  V30 3080 H 277.525 -2.16547 2.27522 0
M  V30 3081 H 276.718 -1.95193 4.64667 0
M  V30 3082 H 276.32 -0.494797 3.70713 0
M  V30 3083 H 278.612 -2.10344 6.4402 0
M  V30 3084 H 279.555 -0.70472 7.04584 0
M  V30 3085 H 279.963 -1.42768 5.46148 0
M  V30 3086 N 279.361 -1.56624 0.175154 0
M  V30 3087 C 280.608 -1.96999 -0.468811 0
M  V30 3088 C 280.936 -1.06129 -1.62994 0
M  V30 3089 O 280.191 -0.0961771 -1.95464 0
M  V30 3090 C 280.49 -3.43419 -0.989864 0
M  V30 3091 C 280.156 -4.50866 0.0557687 0
M  V30 3092 C 278.818 -4.79975 0.343134 0
M  V30 3093 C 281.17 -5.15551 0.765308 0
M  V30 3094 C 278.498 -5.71066 1.34536 0
M  V30 3095 C 280.85 -6.07724 1.75654 0
M  V30 3096 C 279.514 -6.35199 2.05132 0
M  V30 3097 H 278.784 -0.720869 -0.17155 0
M  V30 3098 H 281.431 -1.89616 0.267924 0
M  V30 3099 H 279.736 -3.47772 -1.80449 0
M  V30 3100 H 281.433 -3.72002 -1.49719 0
M  V30 3101 H 278.023 -4.28229 -0.178381 0
M  V30 3102 H 282.207 -4.9317 0.556513 0
M  V30 3103 H 277.463 -5.90635 1.57988 0
M  V30 3104 H 281.637 -6.56912 2.31169 0
M  V30 3105 H 279.264 -7.05584 2.8294 0
M  V30 3106 N 280.839 0.0985539 -1.57292 0
M  V30 3107 C 282.085 0.803867 -1.86188 0
M  V30 3108 C 282.418 1.78549 -0.763794 0
M  V30 3109 O 281.693 1.93153 0.22855 0
M  V30 3110 C 281.976 1.53568 -3.25713 0
M  V30 3111 C 281.829 0.572277 -4.46145 0
M  V30 3112 C 283.148 2.48708 -3.63087 0
M  V30 3113 H 280.267 0.290781 -0.677211 0
M  V30 3114 H 282.909 0.0675783 -1.8988 0
M  V30 3115 H 281.059 2.16332 -3.22696 0
M  V30 3116 H 282.731 -0.0480894 -4.61275 0
M  V30 3117 H 280.974 -0.114618 -4.33649 0
M  V30 3118 H 281.645 1.12139 -5.40489 0
M  V30 3119 H 284.121 1.96039 -3.67026 0
M  V30 3120 H 282.997 2.96932 -4.61652 0
M  V30 3121 H 283.258 3.32309 -2.91588 0
M  V30 3122 N 282.317 1.53212 0.369288 0
M  V30 3123 C 283.264 1.79388 1.45219 0
M  V30 3124 C 284.234 0.638059 1.53356 0
M  V30 3125 O 285.419 0.879852 1.69302 0
M  V30 3126 C 282.559 1.98623 2.82211 0
M  V30 3127 C 281.672 3.26337 2.8307 0
M  V30 3128 C 280.807 3.35779 4.11614 0
M  V30 3129 C 279.846 4.5754 4.06601 0
M  V30 3130 N 278.983 4.64155 5.26787 0
M  V30 3131 H 283.823 2.71794 1.22198 0
M  V30 3132 H 281.36 1.34642 0.592444 0
M  V30 3133 H 283.318 2.07761 3.61789 0
M  V30 3134 H 281.948 1.09558 3.03639 0
M  V30 3135 H 281 3.26171 1.95747 0
M  V30 3136 H 282.312 4.15988 2.75237 0
M  V30 3137 H 281.466 3.44208 4.99606 0
M  V30 3138 H 280.205 2.44137 4.22195 0
M  V30 3139 H 279.21 4.49215 3.16996 0
M  V30 3140 H 280.435 5.50519 3.97625 0
M  V30 3141 H 278.381 3.75413 5.3796 0
M  V30 3142 H 278.298 5.47706 5.21109 0
M  V30 3143 H 279.566 4.76863 6.16621 0
M  V30 3144 N 283.795 -0.628877 1.44509 0
M  V30 3145 C 285.044 -1.38437 1.4669 0
M  V30 3146 C 285.357 -1.95322 0.104272 0
M  V30 3147 O 286.563 -2.715 0.00362163 0
M  V30 3148 C 285.019 -2.50659 2.5826 0
M  V30 3149 C 284.627 -2.00277 4.0074 0
M  V30 3150 C 286.371 -3.27844 2.69664 0
M  V30 3151 C 284.278 -3.09854 5.0373 0
M  V30 3152 H 283.208 -0.520245 0.545766 0
M  V30 3153 H 285.859 -0.676313 1.70582 0
M  V30 3154 H 284.241 -3.2405 2.27612 0
M  V30 3155 H 285.415 -1.33736 4.40966 0
M  V30 3156 H 283.73 -1.35901 3.93599 0
M  V30 3157 H 286.327 -4.09534 3.43781 0
M  V30 3158 H 286.67 -3.77471 1.75559 0
M  V30 3159 H 287.203 -2.61543 2.99733 0
M  V30 3160 H 283.942 -2.65168 5.99472 0
M  V30 3161 H 283.462 -3.7503 4.68095 0
M  V30 3162 H 285.141 -3.74592 5.27532 0
M  V30 3163 N 285.273 -1.31445 -0.869486 0
M  V30 3164 C 286.498 -1.24256 -1.66058 0
M  V30 3165 C 286.923 0.188928 -1.87149 0
M  V30 3166 O 286.281 1.13522 -1.4136 0
M  V30 3167 C 286.329 -1.9924 -3.00559 0
M  V30 3168 O 285.433 -1.33007 -3.90362 0
M  V30 3169 H 284.774 -0.428973 -0.506831 0
M  V30 3170 H 287.304 -1.73521 -1.08404 0
M  V30 3171 H 287.314 -2.08854 -3.50491 0
M  V30 3172 H 285.989 -3.03342 -2.84528 0
M  V30 3173 H 284.566 -1.31848 -3.48813 0
M  V30 3174 N 286.751 1.08385 -1.14413 0
M  V30 3175 C 287.683 2.1519 -0.789036 0
M  V30 3176 C 288.696 1.61638 0.19417 0
M  V30 3177 O 289.885 1.78479 -0.0275711 0
M  V30 3178 C 286.985 3.38565 -0.15058 0
M  V30 3179 C 286.158 4.21501 -1.16857 0
M  V30 3180 C 285.217 5.23277 -0.553832 0
M  V30 3181 O 284.243 5.56041 -1.21686 0
M  V30 3182 N 285.445 5.76629 0.669296 0
M  V30 3183 H 288.21 2.46257 -1.70814 0
M  V30 3184 H 285.771 1.24198 -1.03858 0
M  V30 3185 H 287.763 4.03777 0.273181 0
M  V30 3186 H 286.333 3.05299 0.671667 0
M  V30 3187 H 285.553 3.52265 -1.76926 0
M  V30 3188 H 286.841 4.73731 -1.85624 0
M  V30 3189 H 286.239 5.52243 1.22654 0
M  V30 3190 H 284.796 6.43521 1.03556 0
M  V30 3191 N 288.23 0.939286 1.26551 0
M  V30 3192 C 289.641 0.628782 1.75793 0
M  V30 3193 C 289.992 -0.856046 1.7654 0
M  V30 3194 O 289.117 -1.66994 1.3763 0
M  V30 3195 C 289.712 1.13465 3.19235 0
M  V30 3196 C 288.271 0.874601 3.66098 0
M  V30 3197 C 287.418 1.28667 2.45642 0
M  V30 3198 H 290.369 1.1178 1.12654 0
M  V30 3199 H 290.39 0.487609 3.77363 0
M  V30 3200 H 289.902 2.21535 3.1866 0
M  V30 3201 H 288.003 -0.191793 3.72106 0
M  V30 3202 H 288.116 1.50028 4.55004 0
M  V30 3203 H 286.48 0.705109 2.44745 0
M  V30 3204 H 287.263 2.37625 2.47769 0
M  V30 3205 N 289.708 -1.40897 0.706093 0
M  V30 3206 C 290.655 -2.30751 0.0474474 0
M  V30 3207 C 291.625 -1.47678 -0.76029 0
M  V30 3208 O 292.81 -1.76441 -0.726177 0
M  V30 3209 C 289.95 -3.33815 -0.875309 0
M  V30 3210 C 289.063 -4.31961 -0.0580623 0
M  V30 3211 C 288.198 -5.22093 -0.979425 0
M  V30 3212 C 287.237 -6.11902 -0.155706 0
M  V30 3213 N 286.374 -6.94482 -1.03144 0
M  V30 3214 H 291.214 -2.86513 0.819413 0
M  V30 3215 H 288.751 -1.41102 0.415783 0
M  V30 3216 H 290.709 -3.92129 -1.42446 0
M  V30 3217 H 289.339 -2.79579 -1.61356 0
M  V30 3218 H 288.391 -3.75507 0.608147 0
M  V30 3219 H 289.703 -4.95415 0.580082 0
M  V30 3220 H 288.857 -5.85292 -1.59744 0
M  V30 3221 H 287.596 -4.5889 -1.65141 0
M  V30 3222 H 286.601 -5.47742 0.475309 0
M  V30 3223 H 287.826 -6.77162 0.512635 0
M  V30 3224 H 285.772 -6.33877 -1.68924 0
M  V30 3225 H 285.689 -7.54665 -0.449108 0
M  V30 3226 H 286.957 -7.6214 -1.63593 0
M  V30 3227 N 291.186 -0.45159 -1.50991 0
M  V30 3228 C 292.133 0.352625 -2.2809 0
M  V30 3229 C 293.103 1.0044 -1.32291 0
M  V30 3230 O 294.288 1.02058 -1.6121 0
M  V30 3231 C 291.428 1.43983 -3.13629 0
M  V30 3232 C 290.541 0.804772 -4.24438 0
M  V30 3233 C 289.676 1.86822 -4.97263 0
M  V30 3234 C 288.715 1.21236 -5.99973 0
M  V30 3235 N 287.852 2.2178 -6.66152 0
M  V30 3236 H 292.692 -0.311186 -2.96371 0
M  V30 3237 H 290.229 -0.165308 -1.46168 0
M  V30 3238 H 292.187 2.08161 -3.61559 0
M  V30 3239 H 290.817 2.07307 -2.47434 0
M  V30 3240 H 289.869 0.0509129 -3.80366 0
M  V30 3241 H 291.181 0.286076 -4.97979 0
M  V30 3242 H 290.335 2.58628 -5.48813 0
M  V30 3243 H 289.074 2.42068 -4.23385 0
M  V30 3244 H 288.079 0.479828 -5.47702 0
M  V30 3245 H 289.304 0.667051 -6.75816 0
M  V30 3246 H 287.25 2.76079 -5.95077 0
M  V30 3247 H 287.167 1.74841 -7.35504 0
M  V30 3248 H 288.435 2.93026 -7.22327 0
M  V30 3249 N 292.664 1.56529 -0.183458 0
M  V30 3250 C 294.08 1.58664 0.172554 0
M  V30 3251 C 294.28 1.19925 1.61926 0
M  V30 3252 O 293.336 0.916534 2.35278 0
M  V30 3253 C 294.649 3.00463 -0.119262 0
M  V30 3254 C 296.197 3.12945 -0.0584396 0
M  V30 3255 C 296.672 4.56857 -0.323408 0
M  V30 3256 N 298.163 4.62403 -0.271612 0
M  V30 3257 C 298.898 5.71626 -0.450639 0
M  V30 3258 N 298.394 6.89362 -0.689384 0
M  V30 3259 N 300.187 5.60775 -0.385701 0
M  V30 3260 H 292.338 1.79994 -1.12765 0
M  V30 3261 H 294.601 0.834808 -0.449222 0
M  V30 3262 H 294.307 3.33326 -1.12192 0
M  V30 3263 H 294.181 3.72659 0.583544 0
M  V30 3264 H 296.568 2.79902 0.934805 0
M  V30 3265 H 296.649 2.4316 -0.794144 0
M  V30 3266 H 296.293 4.9061 -1.31392 0
M  V30 3267 H 296.223 5.24816 0.43305 0
M  V30 3268 H 298.714 3.77785 -0.0932256 0
M  V30 3269 H 299.027 7.68489 -0.815113 0
M  V30 3270 H 297.372 6.91196 -0.726142 0
M  V30 3271 H 300.563 4.67674 -0.199687 0
M  V30 3272 H 300.736 6.4584 -0.528646 0
M  V30 3273 N 294.142 -0.090211 1.57342 0
M  V30 3274 C 295.105 -1.09335 2.01441 0
M  V30 3275 C 296.105 -1.32666 0.908641 0
M  V30 3276 O 297.295 -1.28697 1.174 0
M  V30 3277 C 294.427 -2.44136 2.3793 0
M  V30 3278 H 295.62 -0.713662 2.91285 0
M  V30 3279 H 293.173 -0.335404 1.52659 0
M  V30 3280 H 293.908 -2.86972 1.51055 0
M  V30 3281 H 293.693 -2.28548 3.18603 0
M  V30 3282 H 295.183 -3.16277 2.72688 0
M  V30 3283 N 295.62 -1.53406 -0.361157 0
M  V30 3284 C 296.53 -1.83122 -1.4664 0
M  V30 3285 C 297.546 -0.719943 -1.58407 0
M  V30 3286 O 298.722 -1.01046 -1.74218 0
M  V30 3287 C 295.787 -2.01891 -2.81853 0
M  V30 3288 C 294.848 -3.25784 -2.79577 0
M  V30 3289 C 294.081 -3.43648 -4.0834 0
M  V30 3290 O 294.304 -2.65714 -5.0473 0
M  V30 3291 O 293.238 -4.37018 -4.13883 0
M  V30 3292 H 297.064 -2.7703 -1.24451 0
M  V30 3293 H 294.649 -1.38841 -0.551678 0
M  V30 3294 H 296.531 -2.15782 -3.61962 0
M  V30 3295 H 295.206 -1.11173 -3.0401 0
M  V30 3296 H 294.113 -3.17312 -1.98151 0
M  V30 3297 H 295.446 -4.16439 -2.62373 0
M  V30 3298 N 297.098 0.621204 -1.44841 0
M  V30 3299 C 298.326 1.40752 -1.51646 0
M  V30 3300 C 298.741 1.88246 -0.144549 0
M  V30 3301 O 298.098 1.61422 0.851416 0
M  V30 3302 C 298.149 2.62119 -2.4895 0
M  V30 3303 O 297.87 2.16602 -3.80808 0
M  V30 3304 C 299.371 3.55135 -2.65319 0
M  V30 3305 H 296.591 0.431325 -0.514004 0
M  V30 3306 H 299.135 0.758835 -1.899 0
M  V30 3307 H 297.29 3.23058 -2.13805 0
M  V30 3308 H 297.704 2.95358 -4.33433 0
M  V30 3309 H 299.178 4.36874 -3.37409 0
M  V30 3310 H 299.655 4.04592 -1.70886 0
M  V30 3311 H 300.261 3.00058 -3.01405 0
M  V30 3312 N 298.576 1.31904 0.862503 0
M  V30 3313 C 299.506 1.22782 1.98612 0
M  V30 3314 C 300.487 0.113362 1.69722 0
M  V30 3315 O 301.672 0.299218 1.91881 0
M  V30 3316 C 298.802 0.942058 3.34279 0
M  V30 3317 C 297.756 2.0169 3.77499 0
M  V30 3318 C 297.082 1.58369 5.10709 0
M  V30 3319 C 298.382 3.43096 3.93805 0
M  V30 3320 H 300.076 2.16788 2.06502 0
M  V30 3321 H 297.622 1.04366 0.992154 0
M  V30 3322 H 299.575 0.864818 4.1243 0
M  V30 3323 H 298.299 -0.0336603 3.26583 0
M  V30 3324 H 296.958 2.08416 3.01593 0
M  V30 3325 H 296.606 0.595628 4.99461 0
M  V30 3326 H 296.306 2.30279 5.40597 0
M  V30 3327 H 297.83 1.52067 5.91361 0
M  V30 3328 H 299.244 3.39003 4.62331 0
M  V30 3329 H 297.641 4.13288 4.35101 0
M  V30 3330 H 298.711 3.83334 2.96957 0
M  V30 3331 N 300.054 -1.07777 1.14986 0
M  V30 3332 C 301.3 -1.80557 0.923422 0
M  V30 3333 C 301.633 -1.86298 -0.548337 0
M  V30 3334 O 300.908 -1.34354 -1.40639 0
M  V30 3335 C 301.191 -3.25839 1.53299 0
M  V30 3336 C 301.044 -3.28269 3.07505 0
M  V30 3337 C 302.363 -4.22991 1.21518 0
M  V30 3338 H 299.482 -0.655493 0.336894 0
M  V30 3339 H 302.124 -1.26144 1.42083 0
M  V30 3340 H 300.274 -3.72306 1.10999 0
M  V30 3341 H 301.946 -2.90079 3.58681 0
M  V30 3342 H 300.189 -2.67355 3.4162 0
M  V30 3343 H 300.86 -4.30691 3.45266 0
M  V30 3344 H 303.336 -3.84894 1.581 0
M  V30 3345 H 302.212 -5.22945 1.66793 0
M  V30 3346 H 302.473 -4.41904 0.131505 0
M  V30 3347 N 301.532 -0.945985 -1.26051 0
M  V30 3348 C 302.779 -0.596118 -1.93527 0
M  V30 3349 C 303.107 0.865559 -1.74179 0
M  V30 3350 O 302.362 1.63524 -1.0751 0
M  V30 3351 C 302.661 -0.890475 -3.46129 0
M  V30 3352 C 302.327 -2.3368 -3.85622 0
M  V30 3353 C 300.989 -2.73216 -3.96114 0
M  V30 3354 C 303.341 -3.27648 -4.05334 0
M  V30 3355 C 300.669 -4.05806 -4.2372 0
M  V30 3356 C 303.021 -4.59841 -4.3443 0
M  V30 3357 C 301.685 -4.99185 -4.43137 0
M  V30 3358 H 300.955 -0.218135 -0.708165 0
M  V30 3359 H 303.602 -1.1934 -1.49768 0
M  V30 3360 H 301.907 -0.210711 -3.91233 0
M  V30 3361 H 303.604 -0.598478 -3.96509 0
M  V30 3362 H 300.194 -2.02015 -3.78005 0
M  V30 3363 H 304.378 -2.98298 -3.96651 0
M  V30 3364 H 299.634 -4.35945 -4.28675 0
M  V30 3365 H 303.808 -5.32641 -4.48628 0
M  V30 3366 H 301.435 -6.01952 -4.64282 0
M  V30 3367 N 303.011 1.40521 -0.713556 0
M  V30 3368 C 304.236 2.05759 -0.26035 0
M  V30 3369 C 304.661 1.53403 1.08854 0
M  V30 3370 O 304.019 0.668535 1.68524 0
M  V30 3371 C 304.067 3.59745 -0.248122 0
M  V30 3372 O 303.171 4.05123 0.77131 0
M  V30 3373 H 302.512 0.652564 -0.122703 0
M  V30 3374 H 305.042 1.79958 -0.973467 0
M  V30 3375 H 305.052 4.07911 -0.0851129 0
M  V30 3376 H 303.727 3.97218 -1.2325 0
M  V30 3377 H 302.304 3.68422 0.57619 0
M  V30 3378 N 304.489 0.459591 1.5075 0
M  V30 3379 C 305.717 -0.0973749 2.06671 0
M  V30 3380 C 306.132 -1.34524 1.32472 0
M  V30 3381 O 305.489 -1.7827 0.390634 0
M  V30 3382 C 305.54 -0.39714 3.59312 0
M  V30 3383 O 305.261 0.801214 4.30711 0
M  V30 3384 C 306.762 -1.00234 4.31819 0
M  V30 3385 H 303.982 0.00195854 0.670997 0
M  V30 3386 H 306.526 0.645072 1.94059 0
M  V30 3387 H 304.681 -1.08951 3.71764 0
M  V30 3388 H 305.095 0.538857 5.21725 0
M  V30 3389 H 306.569 -1.16193 5.39632 0
M  V30 3390 H 307.046 -1.98939 3.91561 0
M  V30 3391 H 307.652 -0.348699 4.23868 0
M  V30 3392 N 305.967 -1.56429 0.191757 0
M  V30 3393 C 306.917 -2.15548 -0.743184 0
M  V30 3394 C 307.901 -1.09531 -1.17863 0
M  V30 3395 O 309.093 -1.35602 -1.13759 0
M  V30 3396 C 306.222 -2.81577 -1.96391 0
M  V30 3397 C 305.308 -3.9478 -1.54951 0
M  V30 3398 N 305.699 -4.98677 -0.845876 0
M  V30 3399 C 303.997 -4.06319 -1.83905 0
M  V30 3400 C 304.698 -5.78183 -0.638724 0
M  V30 3401 N 303.674 -5.30495 -1.18643 0
M  V30 3402 H 307.476 -2.9324 -0.196839 0
M  V30 3403 H 304.99 -1.62398 -0.0081603 0
M  V30 3404 H 306.987 -3.22321 -2.64415 0
M  V30 3405 H 305.647 -2.05371 -2.51501 0
M  V30 3406 H 306.658 -5.15464 -0.501704 0
M  V30 3407 H 303.335 -3.41238 -2.40548 0
M  V30 3408 H 304.725 -6.71851 -0.0807929 0
M  V30 3409 N 307.445 0.0818655 -1.57387 0
M  V30 3410 C 308.408 1.08265 -2.02018 0
M  V30 3411 C 309.408 1.32183 -0.915664 0
M  V30 3412 O 310.598 1.28073 -1.18081 0
M  V30 3413 C 307.73 2.42871 -2.39221 0
M  V30 3414 H 308.923 0.698204 -2.91659 0
M  V30 3415 H 306.476 0.327303 -1.52835 0
M  V30 3416 H 307.211 2.86167 -1.52575 0
M  V30 3417 H 306.996 2.26855 -3.19811 0
M  V30 3418 H 308.486 3.14826 -2.74362 0
M  V30 3419 N 308.923 1.53595 0.353017 0
M  V30 3420 C 310.169 1.70638 1.09593 0
M  V30 3421 C 310.502 0.463286 1.88593 0
M  V30 3422 O 309.777 -0.539597 1.86865 0
M  V30 3423 C 310.06 2.96406 2.04489 0
M  V30 3424 C 309.913 4.30901 1.29014 0
M  V30 3425 C 311.232 3.17812 3.0444 0
M  V30 3426 H 308.351 0.620913 0.397034 0
M  V30 3427 H 310.993 1.86254 0.375446 0
M  V30 3428 H 309.143 2.83223 2.65927 0
M  V30 3429 H 310.815 4.55917 0.702638 0
M  V30 3430 H 309.058 4.29741 0.592071 0
M  V30 3431 H 309.729 5.1506 1.98537 0
M  V30 3432 H 312.205 3.30263 2.53112 0
M  V30 3433 H 311.081 4.07223 3.6805 0
M  V30 3434 H 311.342 2.33669 3.75301 0
M  V30 3435 N 310.401 -0.613514 1.45168 0
M  V30 3436 C 311.65 -1.36874 1.4815 0
M  V30 3437 C 311.963 -1.952 0.124982 0
M  V30 3438 O 313.169 -2.71481 0.0324176 0
M  V30 3439 C 311.625 -2.47905 2.60904 0
M  V30 3440 C 311.233 -1.96016 4.02842 0
M  V30 3441 C 312.977 -3.24965 2.73126 0
M  V30 3442 C 310.884 -3.04494 5.06988 0
M  V30 3443 H 309.814 -0.514428 0.551253 0
M  V30 3444 H 312.465 -0.658182 1.7129 0
M  V30 3445 H 310.847 -3.21618 2.31037 0
M  V30 3446 H 312.021 -1.29051 4.4236 0
M  V30 3447 H 310.336 -1.31719 3.95018 0
M  V30 3448 H 312.933 -4.05865 3.48106 0
M  V30 3449 H 313.276 -3.75588 1.79553 0
M  V30 3450 H 313.809 -2.5835 3.0249 0
M  V30 3451 H 310.548 -2.58795 6.0225 0
M  V30 3452 H 310.068 -3.70044 4.72046 0
M  V30 3453 H 311.747 -3.68976 5.31475 0
M  V30 3454 N 311.879 -1.3236 -0.855495 0
M  V30 3455 C 313.104 -1.2601 -1.64731 0
M  V30 3456 C 313.529 0.169068 -1.87339 0
M  V30 3457 O 312.887 1.12016 -1.42556 0
M  V30 3458 C 312.935 -2.02417 -2.98429 0
M  V30 3459 O 312.039 -1.3714 -3.8893 0
M  V30 3460 H 311.38 -0.434325 -0.502253 0
M  V30 3461 H 313.91 -1.74661 -1.06558 0
M  V30 3462 H 313.92 -2.12559 -3.48257 0
M  V30 3463 H 312.595 -3.06343 -2.81295 0
M  V30 3464 H 311.172 -1.3554 -3.47395 0
M  V30 3465 N 313.357 1.07166 -1.15556 0
M  V30 3466 C 314.29 2.13808 -0.797593 0
M  V30 3467 C 315.268 1.6101 0.226812 0
M  V30 3468 O 316.452 1.88161 0.112932 0
M  V30 3469 C 313.579 3.38187 -0.186371 0
M  V30 3470 C 312.625 4.09766 -1.18297 0
M  V30 3471 S 313.458 4.60932 -2.72584 0
M  V30 3472 C 314.614 5.88583 -2.12886 0
M  V30 3473 H 314.847 2.43843 -1.70083 0
M  V30 3474 H 312.38 1.19467 -0.978106 0
M  V30 3475 H 314.338 4.10189 0.159837 0
M  V30 3476 H 312.999 3.06326 0.694489 0
M  V30 3477 H 312.192 4.99065 -0.703562 0
M  V30 3478 H 311.794 3.43736 -1.47381 0
M  V30 3479 H 314.086 6.60866 -1.49208 0
M  V30 3480 H 315.029 6.41241 -3.0036 0
M  V30 3481 H 315.437 5.42194 -1.57116 0
M  V30 3482 N 314.835 0.952656 1.25548 0
M  V30 3483 C 316.251 0.656769 1.4546 0
M  V30 3484 C 316.451 -0.78633 1.85524 0
M  V30 3485 O 315.507 -1.56183 1.98402 0
M  V30 3486 C 316.82 1.62801 2.52817 0
M  V30 3487 C 318.368 1.63897 2.66659 0
M  V30 3488 C 318.843 2.5978 3.77198 0
M  V30 3489 N 320.334 2.58133 3.84606 0
M  V30 3490 C 321.069 3.29003 4.69621 0
M  V30 3491 N 320.565 4.09339 5.58939 0
M  V30 3492 N 322.358 3.179 4.63569 0
M  V30 3493 H 314.509 1.88526 0.978344 0
M  V30 3494 H 316.772 0.810815 0.491206 0
M  V30 3495 H 316.478 2.65869 2.30232 0
M  V30 3496 H 316.352 1.38898 3.50695 0
M  V30 3497 H 318.739 0.615481 2.8861 0
M  V30 3498 H 318.82 1.91858 1.69187 0
M  V30 3499 H 318.464 3.62254 3.55997 0
M  V30 3500 H 318.394 2.29105 4.7415 0
M  V30 3501 H 320.885 1.99809 3.20757 0
M  V30 3502 H 321.198 4.6034 6.20731 0
M  V30 3503 H 319.543 4.13438 5.58654 0
M  V30 3504 H 322.734 2.54612 3.92798 0
M  V30 3505 H 322.907 3.73398 5.29602 0
M  V30 3506 N 316.313 -1.40141 0.720998 0
M  V30 3507 C 317.59 -1.94677 0.189757 0
M  V30 3508 C 317.97 -1.65879 -1.30566 0
M  V30 3509 O 317.318 -0.979391 -2.06447 0
M  V30 3510 C 317.528 -3.45279 0.508304 0
M  V30 3511 C 318.876 -4.22209 0.449934 0
M  V30 3512 O 319.9 -3.53413 0.444677 0
M  V30 3513 O 318.759 -5.44788 0.432189 0
M  V30 3514 H 315.853 -0.826459 0.0299026 0
M  V30 3515 H 318.399 -1.49719 0.7989 0
M  V30 3516 H 317.171 -3.59619 1.54239 0
M  V30 3517 H 316.794 -3.97386 -0.130525 0
M  V30 3518 N 317.792 -0.46758 -1.50504 0
M  V30 3519 C 319.04 0.0884469 -2.01906 0
M  V30 3520 C 319.361 1.40532 -1.35188 0
M  V30 3521 O 318.631 1.89515 -0.496079 0
M  V30 3522 H 317.211 0.0356765 -0.746148 0
M  V30 3523 H 319.873 -0.6172 -1.84869 0
M  V30 3524 H 318.969 0.2425 -3.11156 0
M  V30 3525 N 319.27 1.56325 -0.20005 0
M  V30 3526 C 320.217 2.1932 0.718833 0
M  V30 3527 C 321.187 1.14198 1.20615 0
M  V30 3528 O 322.372 1.42469 1.26914 0
M  V30 3529 C 319.512 2.86041 1.93066 0
M  V30 3530 C 318.625 4.05702 1.48425 0
M  V30 3531 C 317.76 4.60266 2.65196 0
M  V30 3532 C 316.799 5.72273 2.17185 0
M  V30 3533 N 315.936 6.21221 3.27152 0
M  V30 3534 H 320.776 2.97486 0.17489 0
M  V30 3535 H 318.313 1.46911 0.0745794 0
M  V30 3536 H 320.271 3.22897 2.64184 0
M  V30 3537 H 318.901 2.1043 2.44783 0
M  V30 3538 H 317.953 3.74475 0.668755 0
M  V30 3539 H 319.265 4.86699 1.09204 0
M  V30 3540 H 318.419 4.99453 3.4443 0
M  V30 3541 H 317.158 3.78386 3.07693 0
M  V30 3542 H 316.163 5.3261 1.36407 0
M  V30 3543 H 317.388 6.55974 1.75713 0
M  V30 3544 H 315.334 5.42263 3.69171 0
M  V30 3545 H 315.251 6.97284 2.92116 0
M  V30 3546 H 316.519 6.65063 4.06585 0
M  V30 3547 N 320.748 -0.0735177 1.57428 0
M  V30 3548 C 321.678 -1.0879 2.06608 0
M  V30 3549 C 322.659 -1.40473 0.959237 0
M  V30 3550 O 323.844 -1.5013 1.23185 0
M  V30 3551 C 320.974 -2.40183 2.50857 0
M  V30 3552 C 319.928 -2.22858 3.65402 0
M  V30 3553 C 319.254 -3.59619 3.957 0
M  V30 3554 C 320.554 -1.65123 4.95511 0
M  V30 3555 H 322.248 -0.678673 2.91607 0
M  V30 3556 H 319.794 -0.325013 1.40284 0
M  V30 3557 H 321.747 -3.11437 2.83874 0
M  V30 3558 H 320.471 -2.83083 1.62885 0
M  V30 3559 H 319.13 -1.54045 3.32664 0
M  V30 3560 H 318.778 -4.00086 3.04861 0
M  V30 3561 H 318.478 -3.48866 4.72828 0
M  V30 3562 H 320.002 -4.32306 4.31212 0
M  V30 3563 H 321.416 -2.26241 5.26771 0
M  V30 3564 H 319.813 -1.65071 5.7695 0
M  V30 3565 H 320.883 -0.612559 4.81015 0
M  V30 3566 N 322.226 -1.5378 -0.344866 0
M  V30 3567 C 323.466 -1.72677 -1.09371 0
M  V30 3568 C 323.83 -0.479084 -1.85927 0
M  V30 3569 O 325.031 -0.54505 -2.63216 0
M  V30 3570 C 323.302 -2.95457 -2.01097 0
M  V30 3571 S 324.861 -3.35158 -2.83222 0
M  V30 3572 H 321.679 -0.607402 -0.369573 0
M  V30 3573 H 324.281 -1.91922 -0.372307 0
M  V30 3574 H 322.985 -3.84437 -1.43655 0
M  V30 3575 H 322.516 -2.78673 -2.77678 0
M  V30 3576 H 324.531 -2.88789 -4.03504 0
M  V30 3577 N 323.704 0.605807 -1.45491 0
M  V30 3578 C 324.634 1.72709 -1.57143 0
M  V30 3579 C 325.615 1.6476 -0.422884 0
M  V30 3580 O 326.8 1.83132 -0.646247 0
M  V30 3581 C 323.93 3.11316 -1.53948 0
M  V30 3582 C 322.884 3.34077 -2.67537 0
M  V30 3583 C 322.21 4.72975 -2.49397 0
M  V30 3584 C 323.51 3.24158 -4.09535 0
M  V30 3585 H 325.204 1.63214 -2.51001 0
M  V30 3586 H 322.75 0.78379 -1.208 0
M  V30 3587 H 324.703 3.89557 -1.60696 0
M  V30 3588 H 323.427 3.21655 -0.566205 0
M  V30 3589 H 322.086 2.58227 -2.6022 0
M  V30 3590 H 321.734 4.8005 -1.50205 0
M  V30 3591 H 321.434 4.8916 -3.25571 0
M  V30 3592 H 322.958 5.53414 -2.58002 0
M  V30 3593 H 324.372 3.92271 -4.18086 0
M  V30 3594 H 322.769 3.51872 -4.86113 0
M  V30 3595 H 323.839 2.2157 -4.31317 0
M  V30 3596 N 325.182 1.32811 0.848464 0
M  V30 3597 C 326.115 1.16601 1.96162 0
M  V30 3598 C 327.093 0.0638855 1.62474 0
M  V30 3599 O 328.277 0.224348 1.8716 0
M  V30 3600 C 325.404 0.786333 3.29446 0
M  V30 3601 C 324.45 1.89459 3.8211 0
M  V30 3602 S 325.283 3.50395 4.04949 0
M  V30 3603 C 326.439 3.14413 5.41198 0
M  V30 3604 H 326.672 2.10832 2.09612 0
M  V30 3605 H 324.205 1.17543 1.00115 0
M  V30 3606 H 326.163 0.574044 4.06466 0
M  V30 3607 H 324.824 -0.137218 3.138 0
M  V30 3608 H 324.017 1.58207 4.78526 0
M  V30 3609 H 323.619 2.06304 3.11953 0
M  V30 3610 H 325.911 2.64642 6.23675 0
M  V30 3611 H 326.854 4.09874 5.77416 0
M  V30 3612 H 327.262 2.51266 5.05495 0
M  V30 3613 N 326.66 -1.06551 1.16123 0
M  V30 3614 C 327.907 -1.79302 0.941126 0
M  V30 3615 C 328.235 -1.87105 -0.531235 0
M  V30 3616 O 327.49 -1.35692 -1.41018 0
M  V30 3617 C 327.789 -3.23911 1.51052 0
M  V30 3618 C 327.455 -3.36193 3.00475 0
M  V30 3619 C 326.117 -3.39252 3.41265 0
M  V30 3620 C 328.469 -3.38326 3.96465 0
M  V30 3621 C 325.797 -3.42057 4.76669 0
M  V30 3622 C 328.149 -3.4267 5.31752 0
M  V30 3623 C 326.813 -3.4401 5.72026 0
M  V30 3624 H 326.083 -0.656111 0.344382 0
M  V30 3625 H 328.73 -1.25325 1.44796 0
M  V30 3626 H 327.035 -3.80723 0.925063 0
M  V30 3627 H 328.732 -3.78793 1.31593 0
M  V30 3628 H 325.322 -3.34516 2.6795 0
M  V30 3629 H 329.506 -3.35176 3.6602 0
M  V30 3630 H 324.762 -3.41398 5.07206 0
M  V30 3631 H 328.936 -3.43268 6.05921 0
M  V30 3632 H 326.563 -3.45937 6.76928 0
M  V30 3633 N 328.138 -0.959301 -1.25041 0
M  V30 3634 C 329.554 -0.664474 -1.4511 0
M  V30 3635 C 329.754 0.776481 -1.85938 0
M  V30 3636 O 328.81 1.55128 -1.99227 0
M  V30 3637 C 330.123 -1.64139 -2.5195 0
M  V30 3638 C 331.671 -1.65309 -2.65786 0
M  V30 3639 C 332.146 -2.61777 -3.75815 0
M  V30 3640 N 333.637 -2.60169 -3.83231 0
M  V30 3641 C 334.372 -3.31489 -4.6787 0
M  V30 3642 N 333.868 -4.12298 -5.56761 0
M  V30 3643 N 335.661 -3.20354 -4.61876 0
M  V30 3644 H 327.812 -1.89043 -0.968332 0
M  V30 3645 H 330.075 -0.813408 -0.4869 0
M  V30 3646 H 329.781 -2.67086 -2.28819 0
M  V30 3647 H 329.655 -1.40756 -3.49954 0
M  V30 3648 H 332.042 -0.630778 -2.8828 0
M  V30 3649 H 332.123 -1.92753 -1.68167 0
M  V30 3650 H 331.767 -3.64137 -3.54071 0
M  V30 3651 H 331.697 -2.31616 -4.72929 0
M  V30 3652 H 334.188 -2.01507 -3.19692 0
M  V30 3653 H 334.501 -4.63625 -6.18281 0
M  V30 3654 H 332.846 -4.16395 -5.56454 0
M  V30 3655 H 336.037 -2.56692 -3.91442 0
M  V30 3656 H 336.21 -3.76201 -5.27614 0
M  V30 3657 N 329.616 1.39756 -0.72842 0
M  V30 3658 C 330.862 2.00942 -0.273892 0
M  V30 3659 C 331.195 1.57656 1.13394 0
M  V30 3660 O 330.47 0.802434 1.77176 0
M  V30 3661 C 330.753 3.58211 -0.368346 0
M  V30 3662 C 330.606 4.11534 -1.81548 0
M  V30 3663 C 331.925 4.39372 0.253054 0
M  V30 3664 H 329.044 0.730047 -0.100996 0
M  V30 3665 H 331.686 1.66056 -0.923337 0
M  V30 3666 H 329.836 3.88061 0.184588 0
M  V30 3667 H 331.508 3.92431 -2.42478 0
M  V30 3668 H 329.751 3.65341 -2.33898 0
M  V30 3669 H 330.422 5.20682 -1.83288 0
M  V30 3670 H 332.898 4.15527 -0.218224 0
M  V30 3671 H 331.774 5.48677 0.156585 0
M  V30 3672 H 332.035 4.21358 1.33826 0
M  V30 3673 N 331.094 0.475555 1.50254 0
M  V30 3674 C 332.342 -0.077738 2.0195 0
M  V30 3675 C 332.663 -1.39813 1.35931 0
M  V30 3676 O 331.933 -1.89249 0.506123 0
M  V30 3677 H 330.513 -0.031719 0.746326 0
M  V30 3678 H 333.175 0.626995 1.84539 0
M  V30 3679 H 332.271 -0.225995 3.11281 0
M  V30 3680 N 332.573 -1.56217 0.208337 0
M  V30 3681 C 333.85 -1.89739 -0.475234 0
M  V30 3682 C 334.23 -1.1238 -1.78701 0
M  V30 3683 O 333.578 -0.228979 -2.2735 0
M  V30 3684 C 333.788 -3.42289 -0.681101 0
M  V30 3685 C 335.136 -4.12789 -0.994507 0
M  V30 3686 O 336.16 -3.47814 -0.768357 0
M  V30 3687 O 335.019 -5.27649 -1.42299 0
M  V30 3688 H 332.113 -0.788478 -0.249461 0
M  V30 3689 H 334.659 -1.67855 0.249538 0
M  V30 3690 H 333.431 -3.90534 0.244722 0
M  V30 3691 H 333.054 -3.69909 -1.45785 0
M  V30 3692 N 334.051 0.0651679 -1.57465 0
M  V30 3693 C 334.981 1.07693 -2.07182 0
M  V30 3694 C 335.962 1.39962 -0.966673 0
M  V30 3695 O 337.147 1.49475 -1.2398 0
M  V30 3696 C 334.277 2.3885 -2.52127 0
M  V30 3697 C 333.231 2.20917 -3.66579 0
M  V30 3698 C 332.557 3.57515 -3.97601 0
M  V30 3699 C 333.857 1.62493 -4.9638 0
M  V30 3700 H 335.551 0.663199 -2.91962 0
M  V30 3701 H 333.097 0.317569 -1.40455 0
M  V30 3702 H 335.05 3.09928 -2.85522 0
M  V30 3703 H 333.774 2.82215 -1.64384 0
M  V30 3704 H 332.433 1.52279 -3.33477 0
M  V30 3705 H 332.081 3.98463 -3.06979 0
M  V30 3706 H 331.781 3.46353 -4.74672 0
M  V30 3707 H 333.305 4.30013 -4.33499 0
M  V30 3708 H 334.719 2.23445 -5.27963 0
M  V30 3709 H 333.116 1.62009 -5.77818 0
M  V30 3710 H 334.186 0.587041 -4.81333 0
M  V30 3711 N 335.529 1.53961 0.336706 0
M  V30 3712 C 336.945 1.44378 0.680241 0
M  V30 3713 C 337.145 0.606034 1.9217 0
M  V30 3714 O 336.201 0.099688 2.52303 0
M  V30 3715 C 337.514 2.87945 0.8665 0
M  V30 3716 C 339.062 2.97763 0.964682 0
M  V30 3717 C 339.537 4.42453 1.18321 0
M  V30 3718 N 341.028 4.46008 1.25025 0
M  V30 3719 C 341.763 5.55102 1.43697 0
M  V30 3720 N 341.259 6.7419 1.59498 0
M  V30 3721 N 343.052 5.42727 1.463 0
M  V30 3722 H 335.203 2.06918 -0.479455 0
M  V30 3723 H 337.466 0.935634 -0.152619 0
M  V30 3724 H 337.172 3.51691 0.0256937 0
M  V30 3725 H 337.046 3.33293 1.76623 0
M  V30 3726 H 339.433 2.34153 1.796 0
M  V30 3727 H 339.514 2.55766 0.041708 0
M  V30 3728 H 339.158 5.06645 0.356788 0
M  V30 3729 H 339.088 4.82048 2.11985 0
M  V30 3730 H 341.579 3.60196 1.14312 0
M  V30 3731 H 341.892 7.53095 1.734 0
M  V30 3732 H 340.237 6.77123 1.56621 0
M  V30 3733 H 343.428 4.48647 1.33543 0
M  V30 3734 H 343.601 6.27806 1.6051 0
M  V30 3735 N 337.007 -0.598083 1.45811 0
M  V30 3736 C 337.955 -1.72932 1.55555 0
M  V30 3737 C 338.949 -1.63984 0.424921 0
M  V30 3738 O 340.155 -1.69663 0.601205 0
M  V30 3739 H 336.53 -0.571489 0.488779 0
M  V30 3740 H 338.501 -1.61842 2.50699 0
M  V30 3741 C 337.25 -3.11318 1.54843 0
M  V30 3742 H 336.573 -3.18867 2.41172 0
M  V30 3743 H 338.013 -3.90274 1.65717 0
M  V30 3744 C 336.472 -3.3578 0.274427 0
M  V30 3745 O 337.002 -3.9654 -0.641778 0
M  V30 3746 N 335.208 -2.90119 0.167139 0
M  V30 3747 H 334.755 -2.40855 0.913596 0
M  V30 3748 H 334.713 -3.0686 -0.684435 0
M  V30 3749 N 338.485 -1.33259 -0.841409 0
M  V30 3750 C 339.71 -1.2775 -1.63385 0
M  V30 3751 C 340.135 0.149188 -1.87507 0
M  V30 3752 O 339.493 1.10498 -1.43736 0
M  V30 3753 C 339.541 -2.05571 -2.96265 0
M  V30 3754 O 338.645 -1.41257 -3.87453 0
M  V30 3755 H 337.986 -0.439627 -0.497618 0
M  V30 3756 H 340.516 -1.75782 -1.04699 0
M  V30 3757 H 340.526 -2.16241 -3.45982 0
M  V30 3758 H 339.201 -3.09309 -2.7803 0
M  V30 3759 H 337.778 -1.39217 -3.45938 0
M  V30 3760 N 339.963 1.05934 -1.16686 0
M  V30 3761 C 340.913 2.11764 -0.844978 0
M  V30 3762 C 341.897 1.59922 0.177178 0
M  V30 3763 O 343.089 1.76983 -0.0241768 0
M  V30 3764 C 340.218 3.41493 -0.351812 0
M  V30 3765 C 339.304 4.00152 -1.40496 0
M  V30 3766 N 339.695 4.32874 -2.61636 0
M  V30 3767 C 337.993 4.278 -1.26106 0
M  V30 3768 C 338.694 4.79552 -3.29249 0
M  V30 3769 N 337.67 4.79211 -2.56628 0
M  V30 3770 H 341.472 2.34916 -1.76612 0
M  V30 3771 H 338.986 1.23511 -1.05446 0
M  V30 3772 H 340.983 4.16773 -0.102796 0
M  V30 3773 H 339.643 3.19778 0.56322 0
M  V30 3774 H 340.654 4.23109 -2.98663 0
M  V30 3775 H 337.331 4.15511 -0.407081 0
M  V30 3776 H 338.721 5.14045 -4.32675 0
M  V30 3777 N 341.441 0.965919 1.2453 0
M  V30 3778 C 342.69 0.622437 1.91856 0
M  V30 3779 C 343.003 -0.846006 1.76358 0
M  V30 3780 O 344.209 -1.29993 2.38357 0
M  V30 3781 C 342.665 1.0626 3.43856 0
M  V30 3782 C 342.273 2.55437 3.68043 0
M  V30 3783 C 344.017 0.792183 4.17043 0
M  V30 3784 C 341.924 2.93196 5.13605 0
M  V30 3785 H 340.854 0.229092 0.718354 0
M  V30 3786 H 343.505 1.17189 1.41206 0
M  V30 3787 H 341.887 0.441476 3.93531 0
M  V30 3788 H 343.061 3.22665 3.28974 0
M  V30 3789 H 341.376 2.8007 3.08139 0
M  V30 3790 H 343.973 1.05031 5.24283 0
M  V30 3791 H 344.316 -0.271584 4.15413 0
M  V30 3792 H 344.849 1.37419 3.73311 0
M  V30 3793 H 341.588 3.98636 5.20355 0
M  V30 3794 H 341.108 2.30651 5.53679 0
M  V30 3795 H 342.787 2.83004 5.81823 0
M  V30 3796 N 342.919 -1.39368 0.735821 0
M  V30 3797 C 344.165 -2.00794 0.284544 0
M  V30 3798 C 344.498 -1.58255 -1.12557 0
M  V30 3799 O 343.773 -0.811819 -1.76748 0
M  V30 3800 C 344.056 -3.58011 0.387337 0
M  V30 3801 C 343.909 -4.10566 1.83728 0
M  V30 3802 C 345.228 -4.395 -0.22975 0
M  V30 3803 H 342.347 -0.729501 0.104866 0
M  V30 3804 H 344.989 -1.65564 0.93213 0
M  V30 3805 H 343.139 -3.88154 -0.164006 0
M  V30 3806 H 344.811 -3.91139 2.44556 0
M  V30 3807 H 343.054 -3.64095 2.35833 0
M  V30 3808 H 343.725 -5.19702 1.86047 0
M  V30 3809 H 346.201 -4.15406 0.240257 0
M  V30 3810 H 345.077 -5.48752 -0.127485 0
M  V30 3811 H 345.338 -4.22062 -1.3159 0
M  V30 3812 N 344.397 -0.483516 -1.5 0
M  V30 3813 C 345.307 0.309172 -2.32554 0
M  V30 3814 C 346.323 0.984159 -1.43493 0
M  V30 3815 O 347.499 0.969399 -1.76535 0
M  V30 3816 C 344.564 1.36979 -3.18493 0
M  V30 3817 C 343.625 0.710095 -4.23387 0
M  V30 3818 C 342.858 1.72018 -5.05218 0
M  V30 3819 O 343.081 2.94813 -4.88305 0
M  V30 3820 O 342.015 1.28515 -5.8802 0
M  V30 3821 H 345.841 -0.366064 -3.01486 0
M  V30 3822 H 343.426 -0.24514 -1.47375 0
M  V30 3823 H 345.308 1.98385 -3.71781 0
M  V30 3824 H 343.983 2.02828 -2.52275 0
M  V30 3825 H 342.89 0.0567539 -3.74057 0
M  V30 3826 H 344.223 0.0943557 -4.9211 0
M  V30 3827 N 345.875 1.56104 -0.216619 0
M  V30 3828 C 346.838 2.18819 0.681962 0
M  V30 3829 C 347.838 1.14866 1.12528 0
M  V30 3830 O 349.028 1.40128 1.03488 0
M  V30 3831 C 346.16 2.80756 1.93362 0
M  V30 3832 H 347.353 2.99595 0.135254 0
M  V30 3833 H 344.906 1.56265 0.0330003 0
M  V30 3834 H 345.641 2.03837 2.52232 0
M  V30 3835 H 345.426 3.56876 1.62426 0
M  V30 3836 H 346.916 3.28844 2.57393 0
M  V30 3837 N 347.353 -0.0568162 1.57498 0
M  V30 3838 C 348.578 -0.769402 1.92601 0
M  V30 3839 C 349.003 -1.69559 0.814336 0
M  V30 3840 O 348.361 -1.79811 -0.231903 0
M  V30 3841 C 348.409 -1.52634 3.26704 0
M  V30 3842 O 347.513 -2.63797 3.16994 0
M  V30 3843 H 346.854 -0.208909 0.63028 0
M  V30 3844 H 349.384 -0.0205798 2.0459 0
M  V30 3845 H 349.394 -1.90234 3.60936 0
M  V30 3846 H 348.069 -0.846875 4.07186 0
M  V30 3847 H 346.646 -2.28943 2.94346 0
M  V30 3848 N 348.832 -1.54138 -0.328536 0
M  V30 3849 C 350.081 -1.71318 -1.06456 0
M  V30 3850 C 350.394 -0.491109 -1.89334 0
M  V30 3851 O 351.6 -0.54416 -2.65991 0
M  V30 3852 C 350.056 -3.03 -1.94214 0
M  V30 3853 C 349.664 -4.32595 -1.16471 0
M  V30 3854 C 351.408 -3.29544 -2.67583 0
M  V30 3855 C 349.315 -5.55341 -2.03347 0
M  V30 3856 H 348.245 -0.638429 -0.401155 0
M  V30 3857 H 350.896 -1.80633 -0.323106 0
M  V30 3858 H 349.278 -2.87579 -2.72239 0
M  V30 3859 H 350.452 -4.58766 -0.432525 0
M  V30 3860 H 348.767 -4.12777 -0.548063 0
M  V30 3861 H 351.364 -4.18444 -3.3288 0
M  V30 3862 H 351.707 -2.47206 -3.34955 0
M  V30 3863 H 352.24 -3.45809 -1.96623 0
M  V30 3864 H 348.979 -6.40268 -1.40491 0
M  V30 3865 H 348.499 -5.33397 -2.74313 0
M  V30 3866 H 350.178 -5.91557 -2.62049 0
M  V30 3867 N 350.31 0.590341 -1.46126 0
M  V30 3868 C 351.726 0.912917 -1.30912 0
M  V30 3869 C 351.926 1.99616 -0.274893 0
M  V30 3870 O 350.982 2.50397 0.325197 0
M  V30 3871 C 352.295 1.3375 -2.69317 0
M  V30 3872 C 353.843 1.45077 -2.77348 0
M  V30 3873 C 354.318 1.90904 -4.16317 0
M  V30 3874 N 355.809 1.9811 -4.18696 0
M  V30 3875 C 356.544 2.34828 -5.23109 0
M  V30 3876 N 356.04 2.70393 -6.37856 0
M  V30 3877 N 357.833 2.35317 -5.10473 0
M  V30 3878 H 349.984 -0.125358 -2.1203 0
M  V30 3879 H 352.247 0.00658481 -0.947977 0
M  V30 3880 H 351.953 0.615614 -3.4627 0
M  V30 3881 H 351.827 2.30058 -2.9892 0
M  V30 3882 H 354.214 2.16353 -2.00687 0
M  V30 3883 H 354.295 0.4704 -2.51438 0
M  V30 3884 H 353.939 1.20209 -4.9347 0
M  V30 3885 H 353.869 2.89886 -4.39629 0
M  V30 3886 H 356.36 1.73146 -3.359 0
M  V30 3887 H 356.673 2.97341 -7.13308 0
M  V30 3888 H 355.018 2.68048 -6.41229 0
M  V30 3889 H 358.209 2.0695 -4.19868 0
M  V30 3890 H 358.382 2.63605 -5.9196 0
M  V30 3891 N 351.788 1.33704 0.83433 0
M  V30 3892 C 352.751 1.24244 1.92603 0
M  V30 3893 C 353.751 0.160383 1.59998 0
M  V30 3894 O 354.941 0.412228 1.69252 0
M  V30 3895 C 352.073 0.91555 3.28376 0
M  V30 3896 H 353.266 2.21287 2.02416 0
M  V30 3897 H 350.819 1.17827 1.02696 0
M  V30 3898 H 351.554 -0.0521886 3.24258 0
M  V30 3899 H 351.339 1.69811 3.53422 0
M  V30 3900 H 352.829 0.874231 4.08347 0
M  V30 3901 N 353.266 -1.05314 1.17247 0
M  V30 3902 C 354.213 -2.13031 0.888058 0
M  V30 3903 C 355.183 -1.65253 -0.167537 0
M  V30 3904 O 356.368 -1.90775 -0.0305974 0
M  V30 3905 C 353.508 -3.42702 0.406147 0
M  V30 3906 C 352.621 -4.04161 1.52572 0
M  V30 3907 C 351.756 -5.21744 0.997808 0
M  V30 3908 C 350.795 -5.75207 2.09291 0
M  V30 3909 N 349.932 -6.84094 1.57986 0
M  V30 3910 H 354.772 -2.36698 1.81048 0
M  V30 3911 H 352.309 -1.16121 0.903013 0
M  V30 3912 H 354.267 -4.17059 0.108305 0
M  V30 3913 H 352.897 -3.19222 -0.479313 0
M  V30 3914 H 351.949 -3.27253 1.93931 0
M  V30 3915 H 353.261 -4.39881 2.35172 0
M  V30 3916 H 352.415 -6.03168 0.653739 0
M  V30 3917 H 351.154 -4.87495 0.141232 0
M  V30 3918 H 350.159 -4.92414 2.44557 0
M  V30 3919 H 351.384 -6.11505 2.95362 0
M  V30 3920 H 349.33 -6.51745 0.74598 0
M  V30 3921 H 349.247 -7.18811 2.34195 0
M  V30 3922 H 350.515 -7.69172 1.26468 0
M  V30 3923 N 354.744 -0.972509 -1.24016 0
M  V30 3924 C 355.674 -0.525548 -2.27509 0
M  V30 3925 C 356.655 0.437262 -1.64384 0
M  V30 3926 O 357.84 0.332343 -1.91335 0
M  V30 3927 C 354.97 0.180448 -3.46831 0
M  V30 3928 C 353.924 -0.698859 -4.22256 0
M  V30 3929 C 353.25 0.138903 -5.3452 0
M  V30 3930 C 354.55 -1.98582 -4.83076 0
M  V30 3931 H 356.244 -1.39058 -2.65148 0
M  V30 3932 H 353.79 -0.67009 -1.27459 0
M  V30 3933 H 355.743 0.504387 -4.18371 0
M  V30 3934 H 354.467 1.07987 -3.08231 0
M  V30 3935 H 353.126 -1.00614 -3.52523 0
M  V30 3936 H 352.774 1.03862 -4.9216 0
M  V30 3937 H 352.474 -0.446259 -5.85903 0
M  V30 3938 H 353.998 0.457404 -6.08884 0
M  V30 3939 H 355.412 -1.72715 -5.46665 0
M  V30 3940 H 353.809 -2.5181 -5.44713 0
M  V30 3941 H 354.879 -2.67769 -4.04262 0
M  V30 3942 N 356.222 1.38976 -0.743202 0
M  V30 3943 C 357.471 1.99581 -0.291592 0
M  V30 3944 C 357.784 1.59656 1.13001 0
M  V30 3945 O 358.99 2.13157 1.68156 0
M  V30 3946 C 357.446 3.56813 -0.470391 0
M  V30 3947 C 357.054 4.05695 -1.90041 0
M  V30 3948 C 358.798 4.24423 -0.0809709 0
M  V30 3949 C 356.705 5.5553 -2.02832 0
M  V30 3950 H 355.635 0.746615 -0.105272 0
M  V30 3951 H 358.286 1.58872 -0.918258 0
M  V30 3952 H 356.668 3.95359 0.225299 0
M  V30 3953 H 357.842 3.78464 -2.62872 0
M  V30 3954 H 356.157 3.50775 -2.24379 0
M  V30 3955 H 358.754 5.34474 -0.155445 0
M  V30 3956 H 359.097 4.04962 0.96497 0
M  V30 3957 H 359.63 3.9108 -0.728124 0
M  V30 3958 H 356.369 5.79881 -3.05643 0
M  V30 3959 H 355.889 5.84537 -1.34448 0
M  V30 3960 H 357.568 6.21069 -1.81335 0
M  V30 3961 N 357.7 0.491464 1.49741 0
M  V30 3962 C 358.647 -0.292027 2.28945 0
M  V30 3963 C 359.617 -0.968973 1.34908 0
M  V30 3964 O 360.802 -0.97748 1.6386 0
M  V30 3965 C 357.942 -1.35617 3.17336 0
M  V30 3966 C 357.055 -0.691957 4.26422 0
M  V30 3967 C 356.19 -1.73572 5.02042 0
M  V30 3968 C 355.229 -1.05286 6.02977 0
M  V30 3969 N 354.366 -2.0404 6.71798 0
M  V30 3970 H 359.206 0.389654 2.95442 0
M  V30 3971 H 356.743 0.204003 1.45679 0
M  V30 3972 H 358.701 -1.98502 3.66951 0
M  V30 3973 H 357.331 -2.00674 2.52844 0
M  V30 3974 H 356.383 0.0499523 3.80367 0
M  V30 3975 H 357.695 -0.153946 4.98562 0
M  V30 3976 H 356.849 -2.43987 5.55478 0
M  V30 3977 H 355.588 -2.30757 4.29654 0
M  V30 3978 H 354.593 -0.334446 5.48782 0
M  V30 3979 H 355.818 -0.487636 6.77347 0
M  V30 3980 H 353.764 -2.60205 6.02187 0
M  V30 3981 H 353.681 -1.55279 7.39881 0
M  V30 3982 H 354.949 -2.73772 7.29842 0
M  V30 3983 N 359.178 -1.55987 0.224894 0
M  V30 3984 C 360.403 -2.03232 -0.41369 0
M  V30 3985 C 360.828 -1.10359 -1.52323 0
M  V30 3986 O 360.186 -0.092395 -1.81064 0
M  V30 3987 C 360.234 -3.48682 -0.919405 0
M  V30 3988 O 359.338 -3.58947 -2.03054 0
M  V30 3989 H 358.679 -0.657428 -0.0931903 0
M  V30 3990 H 361.209 -2.01679 0.34451 0
M  V30 3991 H 361.219 -3.8907 -1.22835 0
M  V30 3992 H 359.894 -4.15761 -0.107339 0
M  V30 3993 H 358.471 -3.30448 -1.72796 0
M  V30 3994 N 360.656 0.0484629 -1.57525 0
M  V30 3995 C 361.603 1.05504 -2.05275 0
M  V30 3996 C 362.573 1.37084 -0.937927 0
M  V30 3997 O 363.758 1.47754 -1.2072 0
M  V30 3998 C 360.898 2.35676 -2.52093 0
M  V30 3999 C 360.011 2.10423 -3.77288 0
M  V30 4000 C 359.146 3.34327 -4.12794 0
M  V30 4001 C 358.185 3.04542 -5.30962 0
M  V30 4002 N 357.322 4.20841 -5.61994 0
M  V30 4003 H 362.162 0.640885 -2.91027 0
M  V30 4004 H 359.699 0.304854 -1.43906 0
M  V30 4005 H 361.657 3.11709 -2.77297 0
M  V30 4006 H 360.287 2.7485 -1.69285 0
M  V30 4007 H 359.339 1.24976 -3.59284 0
M  V30 4008 H 360.651 1.84438 -4.63448 0
M  V30 4009 H 359.805 4.1874 -4.39024 0
M  V30 4010 H 358.544 3.63408 -3.25247 0
M  V30 4011 H 357.549 2.18528 -5.04505 0
M  V30 4012 H 358.774 2.76758 -6.20146 0
M  V30 4013 H 356.72 4.4991 -4.77406 0
M  V30 4014 H 356.637 3.98212 -6.42622 0
M  V30 4015 H 357.905 5.06184 -5.92789 0
M  V30 4016 N 362.134 1.5431 0.320358 0
M  V30 4017 C 363.066 1.80262 1.41556 0
M  V30 4018 C 364.079 0.684723 1.477 0
M  V30 4019 O 365.268 0.961886 1.50366 0
M  V30 4020 C 362.368 1.90825 2.8007 0
M  V30 4021 C 361.541 3.21023 2.97091 0
M  V30 4022 C 360.6 3.22247 4.15985 0
M  V30 4023 O 359.626 3.95871 4.08992 0
M  V30 4024 N 360.828 2.46258 5.25678 0
M  V30 4025 H 363.593 2.74778 1.19655 0
M  V30 4026 H 361.154 1.53646 0.510358 0
M  V30 4027 H 363.146 1.89067 3.57821 0
M  V30 4028 H 361.716 1.03392 2.95006 0
M  V30 4029 H 360.936 3.35715 2.06614 0
M  V30 4030 H 362.224 4.0698 3.05361 0
M  V30 4031 H 361.622 1.86037 5.34235 0
M  V30 4032 H 360.179 2.50275 6.01835 0
M  V30 4033 N 363.613 -0.582584 1.46437 0
M  V30 4034 C 364.841 -1.36682 1.55324 0
M  V30 4035 C 365.256 -1.87796 0.194409 0
M  V30 4036 O 364.613 -1.63623 -0.808318 0
M  V30 4037 C 364.664 -2.55426 2.55812 0
M  V30 4038 O 364.385 -2.0643 3.86417 0
M  V30 4039 C 365.886 -3.47976 2.74641 0
M  V30 4040 H 363.106 -0.417545 0.525259 0
M  V30 4041 H 365.65 -0.708219 1.91845 0
M  V30 4042 H 363.805 -3.17275 2.22295 0
M  V30 4043 H 364.219 -2.83762 4.41111 0
M  V30 4044 H 365.693 -4.27775 3.48874 0
M  V30 4045 H 366.17 -3.99919 1.81553 0
M  V30 4046 H 366.776 -2.91962 3.09255 0
M  V30 4047 N 365.091 -1.34144 -0.827227 0
M  V30 4048 C 366.316 -1.29476 -1.62021 0
M  V30 4049 C 366.741 0.129292 -1.87655 0
M  V30 4050 O 366.099 1.08967 -1.449 0
M  V30 4051 C 366.147 -2.08702 -2.94068 0
M  V30 4052 O 365.251 -1.45359 -3.85933 0
M  V30 4053 H 364.592 -0.444881 -0.492927 0
M  V30 4054 H 367.122 -1.76882 -1.02829 0
M  V30 4055 H 367.132 -2.19898 -3.43669 0
M  V30 4056 H 365.807 -3.12241 -2.74734 0
M  V30 4057 H 364.384 -1.42879 -3.44442 0
M  V30 4058 N 366.569 1.04691 -1.17803 0
M  V30 4059 C 367.479 2.16057 -0.914151 0
M  V30 4060 C 368.495 1.73589 0.119503 0
M  V30 4061 O 369.671 2.01308 -0.0609468 0
M  V30 4062 C 366.736 3.4394 -0.436603 0
M  V30 4063 C 365.797 4.00825 -1.53746 0
M  V30 4064 C 365.03 5.22604 -1.0826 0
M  V30 4065 O 365.253 5.70367 0.0612244 0
M  V30 4066 O 364.187 5.7186 -1.87775 0
M  V30 4067 H 368.013 2.41169 -1.84584 0
M  V30 4068 H 365.598 1.1453 -0.959334 0
M  V30 4069 H 367.48 4.21024 -0.178057 0
M  V30 4070 H 366.155 3.20316 0.466869 0
M  V30 4071 H 365.062 3.25158 -1.84995 0
M  V30 4072 H 366.395 4.28778 -2.41683 0
M  V30 4073 N 368.047 0.979072 1.23499 0
M  V30 4074 C 369.295 0.645941 1.91499 0
M  V30 4075 C 369.616 -0.822948 1.76784 0
M  V30 4076 O 368.886 -1.58854 1.14639 0
M  V30 4077 H 367.466 0.235919 0.708767 0
M  V30 4078 H 370.128 1.2426 1.50152 0
M  V30 4079 H 369.224 0.896411 2.9895 0
M  V30 4080 N 369.525 -1.3858 0.750561 0
M  V30 4081 C 370.435 -2.34278 0.122825 0
M  V30 4082 C 371.451 -1.59116 -0.704131 0
M  V30 4083 O 372.627 -1.91326 -0.628987 0
M  V30 4084 C 369.692 -3.38221 -0.762086 0
M  V30 4085 C 368.753 -4.29227 0.078896 0
M  V30 4086 C 367.986 -5.28205 -0.763874 0
M  V30 4087 O 368.209 -5.34112 -2.00201 0
M  V30 4088 O 367.143 -6.01618 -0.18428 0
M  V30 4089 H 370.969 -2.89649 0.913088 0
M  V30 4090 H 368.554 -1.40374 0.511417 0
M  V30 4091 H 370.436 -4.01872 -1.26793 0
M  V30 4092 H 369.111 -2.85211 -1.5309 0
M  V30 4093 H 368.018 -3.68747 0.630621 0
M  V30 4094 H 369.351 -4.85484 0.810289 0
M  V30 4095 N 371.003 -0.499398 -1.49478 0
M  V30 4096 C 372.25 0.0456899 -2.02448 0
M  V30 4097 C 372.578 1.37142 -1.37921 0
M  V30 4098 O 371.833 1.89111 -0.503544 0
M  V30 4099 C 372.132 0.248424 -3.56536 0
M  V30 4100 C 371.798 -0.999107 -4.39692 0
M  V30 4101 C 370.46 -1.34108 -4.62135 0
M  V30 4102 C 372.812 -1.82842 -4.88076 0
M  V30 4103 C 370.14 -2.51191 -5.30208 0
M  V30 4104 C 372.492 -2.99076 -5.57437 0
M  V30 4105 C 371.156 -3.33655 -5.78127 0
M  V30 4106 H 370.426 0.0167191 -0.740811 0
M  V30 4107 H 373.073 -0.65923 -1.79795 0
M  V30 4108 H 371.378 1.03586 -3.77859 0
M  V30 4109 H 373.075 0.684605 -3.95113 0
M  V30 4110 H 369.665 -0.722729 -4.22463 0
M  V30 4111 H 373.849 -1.57737 -4.70566 0
M  V30 4112 H 369.105 -2.78221 -5.44429 0
M  V30 4113 H 373.279 -3.63664 -5.93904 0
M  V30 4114 H 370.906 -4.24483 -6.30649 0
M  V30 4115 N 372.481 1.55866 -0.233164 0
M  V30 4116 C 373.73 1.97779 0.39579 0
M  V30 4117 C 374.043 1.12419 1.60066 0
M  V30 4118 O 375.249 1.44283 2.29988 0
M  V30 4119 C 373.705 3.5188 0.755556 0
M  V30 4120 C 373.313 4.45959 -0.427152 0
M  V30 4121 C 375.057 4.02479 1.34946 0
M  V30 4122 C 372.964 5.91383 -0.0443043 0
M  V30 4123 H 371.894 0.738592 0.15165 0
M  V30 4124 H 374.545 1.80486 -0.331212 0
M  V30 4125 H 372.927 3.64816 1.5403 0
M  V30 4126 H 374.101 4.44776 -1.20462 0
M  V30 4127 H 372.416 4.05765 -0.935068 0
M  V30 4128 H 375.013 5.08637 1.649 0
M  V30 4129 H 375.356 3.49014 2.26925 0
M  V30 4130 H 375.889 3.92813 0.62791 0
M  V30 4131 H 372.628 6.48857 -0.930874 0
M  V30 4132 H 372.148 5.95734 0.697238 0
M  V30 4133 H 373.827 6.45893 0.378334 0
M  V30 4134 N 373.959 -0.0401083 1.57549 0
M  V30 4135 C 375.37 -0.588097 1.77196 0
M  V30 4136 C 375.721 -1.76209 0.862832 0
M  V30 4137 O 374.846 -2.16331 0.0548389 0
M  V30 4138 C 375.441 -1.07363 3.21339 0
M  V30 4139 C 374 -1.56723 3.42221 0
M  V30 4140 C 373.147 -0.50041 2.72747 0
M  V30 4141 H 376.098 0.186119 1.57605 0
M  V30 4142 H 376.119 -1.94143 3.27244 0
M  V30 4143 H 375.631 -0.218975 3.87482 0
M  V30 4144 H 373.732 -2.4441 2.81237 0
M  V30 4145 H 373.845 -1.62234 4.50796 0
M  V30 4146 H 372.209 -0.952894 2.36203 0
M  V30 4147 H 372.992 0.344599 3.41566 0
M  V30 4148 N 375.437 -1.54477 -0.31217 0
M  V30 4149 C 376.367 -1.87652 -1.38957 0
M  V30 4150 C 377.348 -0.734358 -1.53431 0
M  V30 4151 O 378.533 -0.98911 -1.67123 0
M  V30 4152 C 375.663 -2.11396 -2.75552 0
M  V30 4153 C 374.617 -3.27243 -2.75855 0
M  V30 4154 C 373.943 -3.36382 -4.15633 0
M  V30 4155 C 375.243 -4.64622 -2.38587 0
M  V30 4156 H 376.937 -2.77887 -1.11442 0
M  V30 4157 H 374.483 -1.33707 -0.534655 0
M  V30 4158 H 376.436 -2.33189 -3.51 0
M  V30 4159 H 375.16 -1.17921 -3.04569 0
M  V30 4160 H 373.819 -3.05356 -2.02863 0
M  V30 4161 H 373.467 -2.40445 -4.41809 0
M  V30 4162 H 373.167 -4.14249 -4.1674 0
M  V30 4163 H 374.691 -3.60422 -4.92877 0
M  V30 4164 H 376.105 -4.86219 -3.03749 0
M  V30 4165 H 374.502 -5.45121 -2.50925 0
M  V30 4166 H 375.572 -4.66097 -1.33723 0
M  V30 4167 N 376.915 0.57481 -1.46744 0
M  V30 4168 C 377.863 1.70435 -1.58286 0
M  V30 4169 C 378.857 1.63287 -0.450956 0
M  V30 4170 O 380.063 1.68685 -0.628121 0
M  V30 4171 H 376.438 0.56364 -0.497809 0
M  V30 4172 H 378.409 1.57833 -2.53242 0
M  V30 4173 C 377.158 3.08815 -1.59776 0
M  V30 4174 H 376.481 3.1499 -2.46214 0
M  V30 4175 H 377.921 3.87588 -1.71905 0
M  V30 4176 C 376.38 3.35301 -0.327812 0
M  V30 4177 O 376.91 3.97511 0.57861 0
M  V30 4178 N 375.116 2.89816 -0.213274 0
M  V30 4179 H 374.663 2.39371 -0.951798 0
M  V30 4180 H 374.621 3.0791 0.63553 0
M  V30 4181 N 378.394 1.34581 0.820102 0
M  V30 4182 C 379.326 1.22236 1.93884 0
M  V30 4183 C 380.339 0.148776 1.62119 0
M  V30 4184 O 381.528 0.400877 1.7394 0
M  V30 4185 C 378.628 0.856542 3.27897 0
M  V30 4186 C 377.801 2.02569 3.87666 0
M  V30 4187 C 376.86 1.63782 5.00062 0
M  V30 4188 O 375.886 2.35477 5.18208 0
M  V30 4189 N 377.088 0.553611 5.77854 0
M  V30 4190 H 379.853 2.18615 2.05006 0
M  V30 4191 H 377.414 1.27573 0.99683 0
M  V30 4192 H 379.406 0.578806 4.0054 0
M  V30 4193 H 377.976 -0.0171518 3.12595 0
M  V30 4194 H 377.196 2.468 3.07382 0
M  V30 4195 H 378.484 2.80752 4.24329 0
M  V30 4196 H 377.882 -0.0423528 5.65684 0
M  V30 4197 H 376.439 0.335614 6.50935 0
M  V30 4198 N 379.872 -1.04064 1.18357 0
M  V30 4199 C 381.1 -1.80916 1.00384 0
M  V30 4200 C 381.515 -1.83414 -0.447738 0
M  V30 4201 O 380.872 -1.26962 -1.31099 0
M  V30 4202 C 380.923 -3.26516 1.55144 0
M  V30 4203 O 380.644 -3.2424 2.94618 0
M  V30 4204 C 382.145 -4.20013 1.41789 0
M  V30 4205 H 379.365 -0.569728 0.354474 0
M  V30 4206 H 381.909 -1.31151 1.56906 0
M  V30 4207 H 380.064 -3.73512 1.02798 0
M  V30 4208 H 380.478 -4.15452 3.20156 0
M  V30 4209 H 381.952 -5.20111 1.84901 0
M  V30 4210 H 382.429 -4.37667 0.36661 0
M  V30 4211 H 383.035 -3.78881 1.93207 0
M  V30 4212 N 381.35 -0.985608 -1.22978 0
M  V30 4213 C 382.627 -0.573599 -1.87001 0
M  V30 4214 C 383.007 0.949213 -1.88555 0
M  V30 4215 O 382.355 1.82811 -1.37086 0
M  V30 4216 C 382.565 -1.18564 -3.28243 0
M  V30 4217 C 383.913 -1.28163 -4.04796 0
M  V30 4218 O 384.937 -1.13949 -3.37482 0
M  V30 4219 O 383.796 -1.50832 -5.25273 0
M  V30 4220 H 380.89 -0.193868 -0.803955 0
M  V30 4221 H 383.436 -1.08102 -1.30813 0
M  V30 4222 H 382.208 -2.22758 -3.21706 0
M  V30 4223 H 381.831 -0.663363 -3.92027 0
M  V30 4224 N 382.828 1.3818 -0.7579 0
M  V30 4225 C 384.077 1.99261 -0.312744 0
M  V30 4226 C 384.39 1.60846 1.11301 0
M  V30 4227 O 385.596 2.14929 1.65885 0
M  V30 4228 C 384.052 3.56294 -0.50821 0
M  V30 4229 C 383.66 4.03657 -1.94333 0
M  V30 4230 C 385.404 4.24313 -0.125982 0
M  V30 4231 C 383.311 5.53347 -2.08712 0
M  V30 4232 H 382.241 0.745456 -0.113185 0
M  V30 4233 H 384.892 1.57889 -0.935056 0
M  V30 4234 H 383.274 3.95575 0.183353 0
M  V30 4235 H 384.448 3.75655 -2.66871 0
M  V30 4236 H 382.763 3.48376 -2.28086 0
M  V30 4237 H 385.36 5.34279 -0.212125 0
M  V30 4238 H 385.703 4.05962 0.921964 0
M  V30 4239 H 386.236 3.90285 -0.769563 0
M  V30 4240 H 382.975 5.76607 -3.11777 0
M  V30 4241 H 382.495 5.83078 -1.4064 0
M  V30 4242 H 384.174 6.19111 -1.87912 0
M  V30 4243 N 384.306 0.507319 1.49211 0
M  V30 4244 C 385.254 -0.281364 2.30892 0
M  V30 4245 C 386.248 -0.95687 1.39787 0
M  V30 4246 O 387.454 -0.883838 1.56807 0
M  V30 4247 H 383.829 -0.109597 0.743971 0
M  V30 4248 H 385.8 0.42744 2.95323 0
M  V30 4249 C 384.549 -1.32918 3.21291 0
M  V30 4250 H 383.872 -0.818799 3.91326 0
M  V30 4251 H 385.312 -1.85288 3.81372 0
M  V30 4252 C 383.771 -2.35074 2.41333 0
M  V30 4253 O 384.301 -3.4108 2.12197 0
M  V30 4254 N 382.507 -2.07705 2.03241 0
M  V30 4255 H 382.054 -1.2152 2.27136 0
M  V30 4256 H 382.012 -2.76283 1.50051 0
M  V30 4257 N 385.784 -1.5574 0.241426 0
M  V30 4258 C 387.03 -1.99104 -0.385406 0
M  V30 4259 C 387.363 -1.1293 -1.57988 0
M  V30 4260 O 386.638 -0.191449 -1.93555 0
M  V30 4261 C 386.921 -3.51087 -0.800616 0
M  V30 4262 C 386.774 -4.48028 0.398874 0
M  V30 4263 C 388.093 -4.08015 -1.64959 0
M  V30 4264 H 385.212 -0.723848 -0.138614 0
M  V30 4265 H 387.854 -1.86903 0.341642 0
M  V30 4266 H 386.004 -3.61615 -1.4201 0
M  V30 4267 H 387.676 -4.49487 1.03726 0
M  V30 4268 H 385.919 -4.21077 1.04293 0
M  V30 4269 H 386.59 -5.51962 0.0651056 0
M  V30 4270 H 389.066 -4.00555 -1.12672 0
M  V30 4271 H 387.942 -5.14635 -1.90898 0
M  V30 4272 H 388.203 -3.56131 -2.61961 0
M  V30 4273 N 387.262 0.0317525 -1.57568 0
M  V30 4274 C 388.51 0.721676 -1.88776 0
M  V30 4275 C 388.831 1.76039 -0.838772 0
M  V30 4276 O 388.101 1.95482 0.127935 0
M  V30 4277 H 386.681 0.269534 -0.696678 0
M  V30 4278 H 389.343 -0.00165879 -1.949 0
M  V30 4279 H 388.439 1.21293 -2.87566 0
M  V30 4280 N 388.74 1.54641 0.303973 0
M  V30 4281 C 389.97 1.77511 1.05705 0
M  V30 4282 C 390.378 0.533228 1.81531 0
M  V30 4283 O 389.721 -0.506423 1.76582 0
M  V30 4284 C 389.783 2.92779 2.08617 0
M  V30 4285 C 389.447 4.30977 1.52013 0
M  V30 4286 C 390.444 5.11115 0.9517 0
M  V30 4287 C 388.129 4.77571 1.55665 0
M  V30 4288 C 390.123 6.35966 0.427327 0
M  V30 4289 C 387.81 6.02384 1.02841 0
M  V30 4290 C 388.808 6.81417 0.464713 0
M  V30 4291 O 388.496 8.03881 -0.0555283 0
M  V30 4292 H 388.228 0.59579 0.319391 0
M  V30 4293 H 390.782 2.02401 0.349712 0
M  V30 4294 H 389.012 2.63506 2.83022 0
M  V30 4295 H 390.701 3.03252 2.69802 0
M  V30 4296 H 391.467 4.76264 0.916407 0
M  V30 4297 H 387.346 4.16085 1.9848 0
M  V30 4298 H 390.89 6.97599 -0.0133062 0
M  V30 4299 H 386.787 6.36723 1.06084 0
M  V30 4300 H 387.555 8.18479 0.0580522 0
M  V30 4301 N 390.218 -0.567019 1.47046 0
M  V30 4302 C 391.448 -1.34831 1.56538 0
M  V30 4303 C 391.856 -1.8802 0.21101 0
M  V30 4304 O 391.199 -1.65152 -0.804387 0
M  V30 4305 C 391.261 -2.56139 2.52256 0
M  V30 4306 C 390.925 -2.24307 3.98165 0
M  V30 4307 C 391.922 -1.82192 4.86931 0
M  V30 4308 C 389.607 -2.35968 4.43423 0
M  V30 4309 C 391.601 -1.52153 6.18973 0
M  V30 4310 C 389.288 -2.05542 5.75496 0
M  V30 4311 C 390.286 -1.63701 6.63092 0
M  V30 4312 O 389.974 -1.33657 7.92711 0
M  V30 4313 H 389.706 -0.417683 0.531523 0
M  V30 4314 H 392.26 -0.694726 1.93294 0
M  V30 4315 H 390.49 -3.24356 2.10548 0
M  V30 4316 H 392.179 -3.18214 2.51982 0
M  V30 4317 H 392.945 -1.72684 4.53217 0
M  V30 4318 H 388.824 -2.67495 3.75456 0
M  V30 4319 H 392.368 -1.19421 6.87302 0
M  V30 4320 H 388.265 -2.14679 6.08755 0
M  V30 4321 H 389.033 -1.4737 8.05124 0
M  V30 4322 N 391.696 -1.35014 -0.812953 0
M  V30 4323 C 392.924 -1.31031 -1.6012 0
M  V30 4324 C 393.339 0.113558 -1.88458 0
M  V30 4325 O 392.696 1.06363 -1.48301 0
M  V30 4326 C 392.747 -2.10872 -2.93624 0
M  V30 4327 O 392.468 -3.47706 -2.66518 0
M  V30 4328 C 393.969 -2.14401 -3.88004 0
M  V30 4329 H 391.189 -0.45037 -0.497401 0
M  V30 4330 H 393.733 -1.77775 -1.01076 0
M  V30 4331 H 391.888 -1.67744 -3.492 0
M  V30 4332 H 392.302 -3.89097 -3.51715 0
M  V30 4333 H 393.776 -2.74669 -4.78812 0
M  V30 4334 H 394.253 -1.14105 -4.24119 0
M  V30 4335 H 394.859 -2.57662 -3.38364 0
M  V30 4336 N 393.175 1.03435 -1.18907 0
M  V30 4337 C 394.423 1.76394 -0.986382 0
M  V30 4338 C 394.744 1.88883 0.484567 0
M  V30 4339 O 394.014 1.41843 1.3512 0
M  V30 4340 H 392.594 0.65344 -0.361975 0
M  V30 4341 H 395.256 1.248 -1.49703 0
M  V30 4342 H 394.352 2.77424 -1.42978 0
M  V30 4343 N 394.653 0.992116 1.22453 0
M  V30 4344 C 395.93 0.583508 1.86694 0
M  V30 4345 C 396.31 -0.9392 1.89056 0
M  V30 4346 O 395.658 -1.82081 1.38053 0
M  V30 4347 C 395.868 1.20304 3.2761 0
M  V30 4348 C 397.216 1.30308 4.0411 0
M  V30 4349 O 398.24 1.15737 3.36873 0
M  V30 4350 O 397.099 1.53615 5.24466 0
M  V30 4351 H 394.193 0.198129 0.802916 0
M  V30 4352 H 396.739 1.08794 1.30238 0
M  V30 4353 H 395.511 2.24461 3.2052 0
M  V30 4354 H 395.134 0.684144 3.9167 0
M  V30 4355 N 396.131 -1.37776 0.765217 0
M  V30 4356 C 397.408 -1.93975 0.251596 0
M  V30 4357 C 397.788 -1.69949 -1.25222 0
M  V30 4358 O 397.136 -1.04457 -2.03226 0
M  V30 4359 C 397.346 -3.43487 0.617895 0
M  V30 4360 C 398.694 -4.20564 0.584029 0
M  V30 4361 O 399.718 -3.5182 0.556888 0
M  V30 4362 O 398.577 -5.43138 0.605291 0
M  V30 4363 H 395.671 -0.82509 0.0561806 0
M  V30 4364 H 398.217 -1.47101 0.846128 0
M  V30 4365 H 396.989 -3.5453 1.65602 0
M  V30 4366 H 396.612 -3.976 -0.00403411 0
M  V30 4367 N 397.609 -0.515225 -1.4894 0
M  V30 4368 C 399.025 -0.172099 -1.58669 0
M  V30 4369 C 399.225 1.32405 -1.51892 0
M  V30 4370 O 398.281 2.10116 -1.40027 0
M  V30 4371 C 399.594 -0.761533 -2.90897 0
M  V30 4372 C 401.142 -0.728926 -3.04394 0
M  V30 4373 C 401.617 -1.29667 -4.39261 0
M  V30 4374 N 403.108 -1.25799 -4.4579 0
M  V30 4375 C 403.843 -1.66733 -5.48623 0
M  V30 4376 N 403.339 -2.15327 -6.58488 0
M  V30 4377 N 405.132 -1.58061 -5.39419 0
M  V30 4378 H 397.283 -1.48778 -1.51588 0
M  V30 4379 H 399.546 -0.617968 -0.718901 0
M  V30 4380 H 399.252 -1.81136 -3.01468 0
M  V30 4381 H 399.126 -0.230106 -3.76497 0
M  V30 4382 H 401.513 0.312098 -2.93445 0
M  V30 4383 H 401.594 -1.29766 -2.20442 0
M  V30 4384 H 401.238 -2.33655 -4.50963 0
M  V30 4385 H 401.168 -0.703752 -5.21876 0
M  V30 4386 H 403.659 -0.902102 -3.66975 0
M  V30 4387 H 403.972 -2.44594 -7.33071 0
M  V30 4388 H 402.317 -2.19311 -6.59491 0
M  V30 4389 H 405.508 -1.19906 -4.52482 0
M  V30 4390 H 405.681 -1.90284 -6.19432 0
M  V30 4391 N 399.087 1.5561 -0.249682 0
M  V30 4392 C 400.017 2.24477 0.642826 0
M  V30 4393 C 400.998 1.22601 1.17911 0
M  V30 4394 O 402.183 1.5126 1.21795 0
M  V30 4395 C 399.313 2.94638 1.83863 0
M  V30 4396 C 398.267 4.03227 1.435 0
M  V30 4397 C 397.593 4.60828 2.71186 0
M  V30 4398 C 398.893 5.18796 0.604002 0
M  V30 4399 H 400.587 2.99321 0.0685625 0
M  V30 4400 H 398.133 1.43965 0.0315363 0
M  V30 4401 H 400.086 3.41517 2.46868 0
M  V30 4402 H 398.81 2.17287 2.43832 0
M  V30 4403 H 397.469 3.57121 0.828275 0
M  V30 4404 H 397.117 3.80174 3.29358 0
M  V30 4405 H 396.817 5.34132 2.44901 0
M  V30 4406 H 398.341 5.10442 3.35084 0
M  V30 4407 H 399.755 5.61883 1.13842 0
M  V30 4408 H 398.152 5.98506 0.437097 0
M  V30 4409 H 399.222 4.83384 -0.383147 0
M  V30 4410 N 400.565 -0.0233959 1.57583 0
M  V30 4411 C 401.812 -0.713063 1.8953 0
M  V30 4412 C 402.14 -1.75056 0.847673 0
M  V30 4413 O 401.395 -1.95119 -0.150636 0
M  V30 4414 C 401.694 -1.41428 3.28227 0
M  V30 4415 C 401.36 -0.512222 4.47981 0
M  V30 4416 C 400.022 -0.263785 4.80476 0
M  V30 4417 C 402.374 0.110248 5.21083 0
M  V30 4418 C 399.702 0.615804 5.83459 0
M  V30 4419 C 402.054 0.977573 6.25001 0
M  V30 4420 C 400.718 1.23542 6.55968 0
M  V30 4421 H 399.988 -0.260928 0.69354 0
M  V30 4422 H 402.635 0.0271047 1.91481 0
M  V30 4423 H 400.94 -2.22791 3.22291 0
M  V30 4424 H 402.637 -1.95355 3.50196 0
M  V30 4425 H 399.227 -0.716013 4.22577 0
M  V30 4426 H 403.411 -0.0687137 4.96252 0
M  V30 4427 H 398.667 0.82382 6.05824 0
M  V30 4428 H 402.841 1.46638 6.80786 0
M  V30 4429 H 400.468 1.91871 7.35588 0
M  V30 4430 N 402.043 -1.548 -0.295768 0
M  V30 4431 C 402.973 -1.89115 -1.36959 0
M  V30 4432 C 403.954 -0.75059 -1.52644 0
M  V30 4433 O 405.139 -1.00678 -1.66065 0
M  V30 4434 C 402.269 -2.14307 -2.73295 0
M  V30 4435 C 401.223 -3.30151 -2.72368 0
M  V30 4436 C 400.549 -3.40772 -4.12042 0
M  V30 4437 C 401.849 -4.67126 -2.33646 0
M  V30 4438 H 403.543 -2.79053 -1.08488 0
M  V30 4439 H 401.089 -1.34266 -0.520443 0
M  V30 4440 H 403.042 -2.36898 -3.48507 0
M  V30 4441 H 401.766 -1.21145 -3.03301 0
M  V30 4442 H 400.425 -3.0749 -1.99613 0
M  V30 4443 H 400.073 -2.45117 -4.39234 0
M  V30 4444 H 399.773 -4.18645 -4.12322 0
M  V30 4445 H 401.297 -3.6563 -4.89027 0
M  V30 4446 H 402.711 -4.89414 -2.98575 0
M  V30 4447 H 401.108 -5.47751 -2.45129 0
M  V30 4448 H 402.178 -4.67489 -1.28772 0
M  V30 4449 N 403.521 0.559213 -1.47345 0
M  V30 4450 C 404.767 1.31843 -1.54095 0
M  V30 4451 C 405.1 1.93149 -0.201726 0
M  V30 4452 O 404.375 1.77759 0.789428 0
M  V30 4453 C 404.658 2.43006 -2.65744 0
M  V30 4454 C 404.511 1.86581 -4.09277 0
M  V30 4455 C 405.83 3.44943 -2.73318 0
M  V30 4456 H 402.949 0.478012 -0.560957 0
M  V30 4457 H 405.591 0.625977 -1.79392 0
M  V30 4458 H 403.741 3.02072 -2.44305 0
M  V30 4459 H 405.413 1.31792 -4.42073 0
M  V30 4460 H 403.656 1.17268 -4.17649 0
M  V30 4461 H 404.327 2.66933 -4.83168 0
M  V30 4462 H 406.803 2.95793 -2.92653 0
M  V30 4463 H 405.679 4.20153 -3.53218 0
M  V30 4464 H 405.94 4.03665 -1.80296 0
M  V30 4465 N 404.999 1.35443 0.805782 0
M  V30 4466 C 406.224 1.32037 1.59941 0
M  V30 4467 C 406.649 -0.0994215 1.87837 0
M  V30 4468 O 406.007 -1.06648 1.46615 0
M  V30 4469 C 406.055 2.13354 2.90711 0
M  V30 4470 O 405.159 1.5148 3.83572 0
M  V30 4471 H 404.5 0.452666 0.485787 0
M  V30 4472 H 407.03 1.78496 1.00002 0
M  V30 4473 H 407.04 2.25338 3.40128 0
M  V30 4474 H 405.715 3.16572 2.69732 0
M  V30 4475 H 404.292 1.4834 3.42125 0
M  V30 4476 N 406.477 -1.02803 1.19454 0
M  V30 4477 C 407.888 -1.57667 0.999899 0
M  V30 4478 C 408.239 -1.91041 -0.446956 0
M  V30 4479 O 407.364 -1.70978 -1.32648 0
M  V30 4480 C 407.959 -2.86477 1.80877 0
M  V30 4481 C 406.518 -3.37911 1.65811 0
M  V30 4482 C 405.665 -2.11343 1.79526 0
M  V30 4483 H 408.616 -0.853214 1.33813 0
M  V30 4484 H 408.637 -3.57408 1.30536 0
M  V30 4485 H 408.149 -2.62155 2.86175 0
M  V30 4486 H 406.25 -3.67218 0.63102 0
M  V30 4487 H 406.363 -4.10885 2.46395 0
M  V30 4488 H 404.727 -2.23254 1.22596 0
M  V30 4489 H 405.51 -1.89461 2.86285 0
M  V30 4490 N 407.956 -0.998596 -1.21925 0
M  V30 4491 C 408.886 -0.573688 -2.26343 0
M  V30 4492 C 409.867 0.402296 -1.65274 0
M  V30 4493 O 411.052 0.291683 -1.91997 0
M  V30 4494 C 408.182 0.106839 -3.47136 0
M  V30 4495 C 407.136 -0.788269 -4.20678 0
M  V30 4496 C 406.462 0.0254927 -5.34694 0
M  V30 4497 C 407.762 -2.08784 -4.78755 0
M  V30 4498 H 409.456 -1.44651 -2.62138 0
M  V30 4499 H 407.002 -0.696975 -1.26009 0
M  V30 4500 H 408.955 0.415531 -4.19346 0
M  V30 4501 H 407.679 1.01424 -3.10452 0
M  V30 4502 H 406.338 -1.08069 -3.50309 0
M  V30 4503 H 405.986 0.933989 -4.94253 0
M  V30 4504 H 405.686 -0.570437 -5.84825 0
M  V30 4505 H 407.21 0.328147 -6.09718 0
M  V30 4506 H 408.624 -1.84272 -5.42878 0
M  V30 4507 H 407.021 -2.63307 -5.39249 0
M  V30 4508 H 408.091 -2.76284 -3.98491 0
M  V30 4509 N 409.434 1.37368 -0.772513 0
M  V30 4510 C 410.683 1.98918 -0.333861 0
M  V30 4511 C 410.996 1.62017 1.09589 0
M  V30 4512 O 412.202 2.16676 1.63596 0
M  V30 4513 C 410.658 3.55735 -0.545971 0
M  V30 4514 C 410.266 4.01573 -1.98603 0
M  V30 4515 C 412.01 4.24156 -0.170979 0
M  V30 4516 C 409.917 5.51102 -2.1457 0
M  V30 4517 H 408.847 0.744214 -0.121085 0
M  V30 4518 H 411.498 1.56888 -0.95175 0
M  V30 4519 H 409.88 3.95748 0.141387 0
M  V30 4520 H 411.054 3.72803 -2.7084 0
M  V30 4521 H 409.369 3.45937 -2.31769 0
M  V30 4522 H 411.966 5.34024 -0.26878 0
M  V30 4523 H 412.309 4.06917 0.878855 0
M  V30 4524 H 412.842 3.89447 -0.810914 0
M  V30 4525 H 409.581 5.73268 -3.17875 0
M  V30 4526 H 409.101 5.81554 -1.46817 0
M  V30 4527 H 410.78 6.17083 -1.94468 0
M  V30 4528 N 410.912 0.523116 1.48665 0
M  V30 4529 C 412.161 -0.01544 2.01694 0
M  V30 4530 C 412.474 -1.35975 1.40606 0
M  V30 4531 O 413.68 -1.98627 1.85093 0
M  V30 4532 C 412.136 -0.0779303 3.59816 0
M  V30 4533 C 411.744 1.26107 4.29885 0
M  V30 4534 C 413.488 -0.565678 4.20714 0
M  V30 4535 C 411.395 1.15954 5.79921 0
M  V30 4536 H 410.325 -0.00954163 0.75394 0
M  V30 4537 H 412.976 0.665865 1.70993 0
M  V30 4538 H 411.358 -0.824165 3.87329 0
M  V30 4539 H 412.532 2.02233 4.14051 0
M  V30 4540 H 410.847 1.68401 3.80828 0
M  V30 4541 H 413.444 -0.6595 5.30617 0
M  V30 4542 H 413.787 -1.56984 3.85567 0
M  V30 4543 H 414.32 0.12467 3.97605 0
M  V30 4544 H 411.059 2.13864 6.19631 0
M  V30 4545 H 410.579 0.439529 5.98187 0
M  V30 4546 H 412.258 0.847361 6.41427 0
M  V30 4547 N 412.39 -1.55475 0.257931 0
M  V30 4548 C 413.615 -2.04064 -0.370488 0
M  V30 4549 C 414.04 -1.13565 -1.49948 0
M  V30 4550 O 413.398 -0.130781 -1.80828 0
M  V30 4551 C 413.446 -3.50554 -0.845237 0
M  V30 4552 O 412.55 -3.63173 -1.95394 0
M  V30 4553 H 411.891 -0.659257 -0.0792243 0
M  V30 4554 H 414.421 -2.00903 0.387212 0
M  V30 4555 H 414.431 -3.91588 -1.14555 0
M  V30 4556 H 413.106 -4.15896 -0.0191259 0
M  V30 4557 H 411.683 -3.34039 -1.65748 0
M  V30 4558 N 413.868 0.0150385 -1.57593 0
M  V30 4559 C 414.818 1.01943 -2.0394 0
M  V30 4560 C 415.802 1.31209 -0.931286 0
M  V30 4561 O 416.994 1.30559 -1.19513 0
M  V30 4562 C 414.123 2.31621 -2.53391 0
M  V30 4563 C 413.209 2.05384 -3.7105 0
M  V30 4564 N 413.6 1.49253 -4.83278 0
M  V30 4565 C 411.898 2.35601 -3.78693 0
M  V30 4566 C 412.599 1.39143 -5.64813 0
M  V30 4567 N 411.575 1.87187 -5.10355 0
M  V30 4568 H 415.377 0.57969 -2.88126 0
M  V30 4569 H 412.891 0.221056 -1.60888 0
M  V30 4570 H 414.888 3.044 -2.84862 0
M  V30 4571 H 413.548 2.76261 -1.70616 0
M  V30 4572 H 414.559 1.17334 -5.04433 0
M  V30 4573 H 411.236 2.8322 -3.06746 0
M  V30 4574 H 412.626 0.961153 -6.6499 0
M  V30 4575 N 415.346 1.54954 0.287554 0
M  V30 4576 C 416.256 1.8991 1.37736 0
M  V30 4577 C 417.272 0.794701 1.54792 0
M  V30 4578 O 418.448 1.09243 1.69198 0
M  V30 4579 C 415.513 2.15108 2.71899 0
M  V30 4580 C 414.574 3.38752 2.63715 0
M  V30 4581 C 413.807 3.62739 3.91479 0
M  V30 4582 O 414.03 2.89492 4.91478 0
M  V30 4583 O 412.964 4.56267 3.92561 0
M  V30 4584 H 416.79 2.82652 1.11092 0
M  V30 4585 H 414.375 1.41315 0.484807 0
M  V30 4586 H 416.257 2.32806 3.51254 0
M  V30 4587 H 414.932 1.25551 2.9836 0
M  V30 4588 H 413.839 3.26405 1.82786 0
M  V30 4589 H 415.172 4.28483 2.42205 0
M  V30 4590 N 416.824 -0.551391 1.4764 0
M  V30 4591 C 418.073 -1.30467 1.53822 0
M  V30 4592 C 418.386 -1.94495 0.207661 0
M  V30 4593 O 419.592 -2.71099 0.147533 0
M  V30 4594 C 418.048 -2.36616 2.71184 0
M  V30 4595 C 417.656 -1.78754 4.10793 0
M  V30 4596 C 419.4 -3.13088 2.86663 0
M  V30 4597 C 417.307 -2.82717 5.19447 0
M  V30 4598 H 416.237 -0.490584 0.572576 0
M  V30 4599 H 418.888 -0.58494 1.73927 0
M  V30 4600 H 417.27 -3.11529 2.4447 0
M  V30 4601 H 418.444 -1.10173 4.47435 0
M  V30 4602 H 416.759 -1.14846 4.00249 0
M  V30 4603 H 419.356 -3.90736 3.65007 0
M  V30 4604 H 419.699 -3.67635 1.95321 0
M  V30 4605 H 420.232 -2.45288 3.13175 0
M  V30 4606 H 416.971 -2.33018 6.12685 0
M  V30 4607 H 416.491 -3.4969 4.87316 0
M  V30 4608 H 418.17 -3.46102 5.46646 0
M  V30 4609 N 418.302 -1.35869 -0.798587 0
M  V30 4610 C 419.25 -1.29491 -1.93222 0
M  V30 4611 C 420.244 -0.18836 -1.6835 0
M  V30 4612 O 421.45 -0.354822 -1.76468 0
M  V30 4613 H 417.825 -0.402901 -0.63496 0
M  V30 4614 H 419.796 -2.25247 -1.9572 0
M  V30 4615 C 418.545 -1.09184 -3.30112 0
M  V30 4616 H 417.868 -1.93574 -3.49813 0
M  V30 4617 H 419.308 -1.08766 -4.09812 0
M  V30 4618 C 417.767 0.203959 -3.36282 0
M  V30 4619 O 418.297 1.19699 -3.83451 0
M  V30 4620 N 416.503 0.245488 -2.89561 0
M  V30 4621 H 416.05 -0.563223 -2.51367 0
M  V30 4622 H 416.008 1.11219 -2.94071 0
M  V30 4623 N 419.78 1.02168 -1.19998 0
M  V30 4624 C 420.712 2.10705 -0.901994 0
M  V30 4625 C 421.725 1.6244 0.108216 0
M  V30 4626 O 422.914 1.78082 -0.12214 0
M  V30 4627 C 420.014 3.37291 -0.329834 0
M  V30 4628 C 419.187 4.14714 -1.39035 0
M  V30 4629 C 418.246 5.19606 -0.830432 0
M  V30 4630 O 417.272 5.48809 -1.50989 0
M  V30 4631 N 418.474 5.79366 0.362696 0
M  V30 4632 H 421.239 2.36856 -1.83628 0
M  V30 4633 H 418.8 1.18518 -1.10296 0
M  V30 4634 H 420.792 4.04657 0.0587633 0
M  V30 4635 H 419.362 3.0843 0.508891 0
M  V30 4636 H 418.582 3.42392 -1.9535 0
M  V30 4637 H 419.87 4.63226 -2.10474 0
M  V30 4638 H 419.268 5.57968 0.932081 0
M  V30 4639 H 417.825 6.48106 0.69299 0
M  V30 4640 N 421.258 1.00505 1.21394 0
M  V30 4641 C 422.19 0.52372 2.23136 0
M  V30 4642 C 423.203 -0.387714 1.58116 0
M  V30 4643 O 424.392 -0.187905 1.77508 0
M  V30 4644 C 421.492 -0.258885 3.3791 0
M  V30 4645 C 420.665 0.651634 4.32519 0
M  V30 4646 C 419.724 -0.0813705 5.26137 0
M  V30 4647 O 418.75 0.537295 5.66658 0
M  V30 4648 N 419.952 -1.35992 5.64346 0
M  V30 4649 H 422.717 1.39865 2.65062 0
M  V30 4650 H 420.278 0.881196 1.35818 0
M  V30 4651 H 422.27 -0.758208 3.97534 0
M  V30 4652 H 420.84 -1.035 2.94968 0
M  V30 4653 H 420.06 1.33145 3.71034 0
M  V30 4654 H 421.348 1.27129 4.92662 0
M  V30 4655 H 420.746 -1.88368 5.33417 0
M  V30 4656 H 419.303 -1.8042 6.26332 0
M  V30 4657 N 422.737 -1.36956 0.779787 0
M  V30 4658 C 423.962 -2.04283 0.358224 0
M  V30 4659 C 424.387 -1.58422 -1.01411 0
M  V30 4660 O 423.745 -0.748179 -1.65142 0
M  V30 4661 C 423.793 -3.58152 0.419479 0
M  V30 4662 O 422.897 -4.08342 -0.577142 0
M  V30 4663 H 422.238 -0.645967 0.153698 0
M  V30 4664 H 424.768 -1.75108 1.05822 0
M  V30 4665 H 424.778 -4.07041 0.279636 0
M  V30 4666 H 423.453 -3.90886 1.42061 0
M  V30 4667 H 422.03 -3.70751 -0.399755 0
M  V30 4668 N 424.215 -0.530993 -1.48385 0
M  V30 4669 C 425.626 -0.0907905 -1.86479 0
M  V30 4670 C 425.977 1.33213 -1.44044 0
M  V30 4671 O 425.102 1.99783 -0.831615 0
M  V30 4672 C 425.697 -0.157987 -3.38431 0
M  V30 4673 C 424.256 0.227026 -3.75715 0
M  V30 4674 C 423.403 -0.5173 -2.72432 0
M  V30 4675 H 426.354 -0.742186 -1.40276 0
M  V30 4676 H 426.375 0.630053 -3.75247 0
M  V30 4677 H 425.887 -1.19372 -3.69286 0
M  V30 4678 H 423.988 1.26486 -3.50474 0
M  V30 4679 H 424.101 -0.113288 -4.78966 0
M  V30 4680 H 422.465 0.0365527 -2.54674 0
M  V30 4681 H 423.248 -1.55368 -3.0613 0
M  V30 4682 N 425.693 1.55336 -0.266172 0
M  V30 4683 C 426.94 1.99397 0.353158 0
M  V30 4684 C 427.268 1.15451 1.56529 0
M  V30 4685 O 426.523 0.209974 1.9457 0
M  V30 4686 C 426.822 3.48606 0.787957 0
M  V30 4687 C 426.488 4.49773 -0.318541 0
M  V30 4688 C 425.15 4.77158 -0.62239 0
M  V30 4689 C 427.502 5.10212 -1.06459 0
M  V30 4690 C 424.83 5.62251 -1.67602 0
M  V30 4691 C 427.182 5.96449 -2.10788 0
M  V30 4692 C 425.846 6.22158 -2.41817 0
M  V30 4693 H 425.116 0.729644 0.12923 0
M  V30 4694 H 427.763 1.87732 -0.37802 0
M  V30 4695 H 426.068 3.57701 1.59866 0
M  V30 4696 H 427.765 3.80098 1.27775 0
M  V30 4697 H 424.355 4.2854 -0.0715925 0
M  V30 4698 H 428.539 4.89086 -0.843098 0
M  V30 4699 H 423.795 5.80419 -1.92155 0
M  V30 4700 H 427.969 6.42317 -2.69076 0
M  V30 4701 H 425.596 6.87888 -3.23596 0
M  V30 4702 N 427.171 -0.0066808 1.57599 0
M  V30 4703 C 428.417 -0.68835 1.91398 0
M  V30 4704 C 428.772 -1.7175 0.86716 0
M  V30 4705 O 428.065 -1.91215 -0.121475 0
M  V30 4706 C 428.259 -1.37939 3.29708 0
M  V30 4707 C 428.088 -0.418689 4.47747 0
M  V30 4708 C 426.858 -0.031526 5.0529 0
M  V30 4709 C 429.056 0.312301 5.13351 0
M  V30 4710 N 427.038 0.928088 6.06844 0
M  V30 4711 C 428.409 1.12682 6.09674 0
M  V30 4712 C 430.464 0.376853 4.96472 0
M  V30 4713 C 429.167 2 6.90936 0
M  V30 4714 C 431.193 1.23723 5.78314 0
M  V30 4715 C 430.555 2.03962 6.74225 0
M  V30 4716 H 426.654 -0.225292 0.748844 0
M  V30 4717 H 429.238 0.0520973 1.9463 0
M  V30 4718 H 427.409 -2.09017 3.27363 0
M  V30 4719 H 429.141 -2.01522 3.50957 0
M  V30 4720 H 425.896 -0.398485 4.71921 0
M  V30 4721 H 426.32 1.40307 6.62301 0
M  V30 4722 H 430.962 -0.22921 4.22178 0
M  V30 4723 H 428.68 2.61676 7.64559 0
M  V30 4724 H 432.266 1.291 5.67296 0
M  V30 4725 H 431.146 2.69461 7.36451 0
M  V30 4726 N 428.649 -1.55105 -0.279332 0
M  V30 4727 C 429.559 -1.90638 -1.36727 0
M  V30 4728 C 430.575 -0.802899 -1.54368 0
M  V30 4729 O 431.751 -1.10138 -1.68616 0
M  V30 4730 C 428.816 -2.16547 -2.70755 0
M  V30 4731 C 427.877 -3.40146 -2.61915 0
M  V30 4732 C 427.11 -3.6481 -3.8955 0
M  V30 4733 O 427.333 -2.92095 -4.89935 0
M  V30 4734 O 426.267 -4.58343 -3.90135 0
M  V30 4735 H 430.093 -2.83237 -1.09591 0
M  V30 4736 H 427.678 -1.4157 -0.477306 0
M  V30 4737 H 429.56 -2.34665 -3.50014 0
M  V30 4738 H 428.235 -1.27131 -2.9769 0
M  V30 4739 H 427.142 -3.2737 -1.81052 0
M  V30 4740 H 428.475 -4.29761 -2.3993 0
M  V30 4741 N 430.127 0.543554 -1.4793 0
M  V30 4742 C 431.376 1.29649 -1.54512 0
M  V30 4743 C 431.689 1.94382 -0.217973 0
M  V30 4744 O 432.895 2.71017 -0.161908 0
M  V30 4745 C 431.351 2.35175 -2.72435 0
M  V30 4746 C 430.959 1.76572 -4.11736 0
M  V30 4747 C 432.703 3.11564 -2.8832 0
M  V30 4748 C 430.61 2.79958 -5.20939 0
M  V30 4749 H 429.54 0.487541 -0.57517 0
M  V30 4750 H 432.191 0.575708 -1.74235 0
M  V30 4751 H 430.573 3.10229 -2.46118 0
M  V30 4752 H 431.747 1.07799 -4.48013 0
M  V30 4753 H 430.062 1.12722 -4.00852 0
M  V30 4754 H 432.659 3.88794 -3.67074 0
M  V30 4755 H 433.002 3.66594 -1.97268 0
M  V30 4756 H 433.535 2.43623 -3.14472 0
M  V30 4757 H 430.274 2.29766 -6.13912 0
M  V30 4758 H 429.794 3.47101 -4.89164 0
M  V30 4759 H 431.473 3.43198 -5.48474 0
M  V30 4760 N 431.605 1.3629 0.791371 0
M  V30 4761 C 432.83 1.33726 1.58531 0
M  V30 4762 C 433.255 -0.0794933 1.87932 0
M  V30 4763 O 432.613 -1.05087 1.47738 0
M  V30 4764 C 432.661 2.16425 2.88431 0
M  V30 4765 O 431.765 1.5554 3.81944 0
M  V30 4766 H 431.106 0.457793 0.480959 0
M  V30 4767 H 433.636 1.79547 0.981031 0
M  V30 4768 H 433.646 2.28933 3.37718 0
M  V30 4769 H 432.321 3.19415 2.66359 0
M  V30 4770 H 430.898 1.51961 3.40532 0
M  V30 4771 N 433.083 -1.0153 1.20538 0
M  V30 4772 C 434.03 -2.10098 0.955383 0
M  V30 4773 C 435 -1.65702 -0.114878 0
M  V30 4774 O 436.185 -1.90776 0.0301118 0
M  V30 4775 C 433.325 -3.41236 0.514969 0
M  V30 4776 C 432.438 -3.99102 1.65353 0
M  V30 4777 C 431.573 -5.18306 1.16329 0
M  V30 4778 C 430.612 -5.68258 2.27485 0
M  V30 4779 N 429.749 -6.78722 1.7967 0
M  V30 4780 H 434.589 -2.30818 1.88486 0
M  V30 4781 H 432.126 -1.13189 0.939499 0
M  V30 4782 H 434.084 -4.16504 0.240935 0
M  V30 4783 H 432.714 -3.20585 -0.377512 0
M  V30 4784 H 431.766 -3.20918 2.04245 0
M  V30 4785 H 433.078 -4.32177 2.49047 0
M  V30 4786 H 432.232 -6.00782 0.845302 0
M  V30 4787 H 430.971 -4.86799 0.296254 0
M  V30 4788 H 429.976 -4.84385 2.60099 0
M  V30 4789 H 431.201 -6.01798 3.14667 0
M  V30 4790 H 429.147 -6.49042 0.95295 0
M  V30 4791 H 429.064 -7.10996 2.56944 0
M  V30 4792 H 430.332 -7.64759 1.50875 0
M  V30 4793 N 434.561 -1.01147 -1.20859 0
M  V30 4794 C 435.524 -0.582224 -2.21682 0
M  V30 4795 C 436.524 0.344887 -1.57058 0
M  V30 4796 O 437.714 0.134281 -1.73682 0
M  V30 4797 C 434.846 0.150496 -3.40568 0
M  V30 4798 H 436.039 -1.47408 -2.61172 0
M  V30 4799 H 433.592 -0.800695 -1.34233 0
M  V30 4800 H 434.327 1.0575 -3.06574 0
M  V30 4801 H 434.112 -0.515444 -3.88697 0
M  V30 4802 H 435.602 0.438344 -4.15293 0
M  V30 4803 N 436.039 1.36541 -0.78704 0
M  V30 4804 C 436.971 2.28761 -0.141773 0
M  V30 4805 C 437.984 1.49365 0.647599 0
M  V30 4806 O 439.173 1.71836 0.483173 0
M  V30 4807 C 436.273 3.28771 0.822368 0
M  V30 4808 C 435.446 4.3732 0.0835594 0
M  V30 4809 C 434.505 5.17307 0.963296 0
M  V30 4810 O 433.531 5.67638 0.421419 0
M  V30 4811 N 434.733 5.33515 2.28784 0
M  V30 4812 H 437.498 2.84777 -0.933919 0
M  V30 4813 H 435.059 1.48682 -0.640735 0
M  V30 4814 H 437.051 3.79169 1.41468 0
M  V30 4815 H 435.621 2.73412 1.5154 0
M  V30 4816 H 434.841 3.88118 -0.689809 0
M  V30 4817 H 436.129 5.0701 -0.426358 0
M  V30 4818 H 435.527 4.94234 2.75226 0
M  V30 4819 H 434.084 5.87165 2.82985 0
M  V30 4820 N 437.518 0.538854 1.48102 0
M  V30 4821 C 438.448 -0.207654 2.32575 0
M  V30 4822 C 439.429 -0.926559 1.4265 0
M  V30 4823 O 440.614 -0.91061 1.71527 0
M  V30 4824 C 437.744 -1.24957 3.24042 0
M  V30 4825 C 436.698 -0.648263 4.23062 0
M  V30 4826 C 436.024 -1.79348 5.03725 0
M  V30 4827 C 437.324 0.385897 5.20872 0
M  V30 4828 H 439.018 0.497534 2.95237 0
M  V30 4829 H 436.564 0.240715 1.41974 0
M  V30 4830 H 438.517 -1.77983 3.81969 0
M  V30 4831 H 437.241 -1.98446 2.59397 0
M  V30 4832 H 435.9 -0.139452 3.66335 0
M  V30 4833 H 435.548 -2.51696 4.35498 0
M  V30 4834 H 435.248 -1.39702 5.70751 0
M  V30 4835 H 436.772 -2.32735 5.64506 0
M  V30 4836 H 438.186 -0.057607 5.73271 0
M  V30 4837 H 436.583 0.700227 5.96001 0
M  V30 4838 H 437.653 1.28848 4.67468 0
M  V30 4839 N 438.996 -1.55193 0.274407 0
M  V30 4840 C 440.407 -1.85358 -0.223488 0
M  V30 4841 C 440.758 -1.19642 -1.555 0
M  V30 4842 O 439.883 -0.484498 -2.10907 0
M  V30 4843 C 440.478 -3.36282 -0.412285 0
M  V30 4844 C 439.037 -3.66574 -0.854413 0
M  V30 4845 C 438.184 -2.7725 0.0527056 0
M  V30 4846 H 441.135 -1.50743 0.496215 0
M  V30 4847 H 441.156 -3.59349 -1.25094 0
M  V30 4848 H 440.668 -3.84083 0.556965 0
M  V30 4849 H 438.769 -3.24273 -1.83516 0
M  V30 4850 H 438.882 -4.74073 -0.692226 0
M  V30 4851 H 437.246 -2.50447 -0.463484 0
M  V30 4852 H 438.029 -3.27865 1.01783 0
M  V30 4853 N 440.474 -0.00167713 -1.576 0
M  V30 4854 C 441.421 0.989195 -2.08527 0
M  V30 4855 C 442.391 1.34031 -0.981065 0
M  V30 4856 O 443.576 1.43839 -1.2536 0
M  V30 4857 C 440.716 2.27537 -2.59463 0
M  V30 4858 C 439.829 1.98314 -3.83791 0
M  V30 4859 C 438.964 3.21025 -4.23222 0
M  V30 4860 C 438.003 2.87495 -5.40382 0
M  V30 4861 N 437.14 4.02749 -5.75098 0
M  V30 4862 H 441.98 0.547973 -2.92919 0
M  V30 4863 H 439.517 0.258917 -1.44803 0
M  V30 4864 H 441.475 3.02729 -2.87073 0
M  V30 4865 H 440.105 2.69325 -1.77943 0
M  V30 4866 H 439.157 1.13482 -3.63078 0
M  V30 4867 H 440.469 1.69601 -4.69081 0
M  V30 4868 H 439.623 4.04561 -4.52123 0
M  V30 4869 H 438.362 3.52877 -3.36644 0
M  V30 4870 H 437.367 2.02367 -5.11202 0
M  V30 4871 H 438.592 2.56889 -6.28637 0
M  V30 4872 H 436.538 4.34494 -4.91478 0
M  V30 4873 H 436.455 3.77566 -6.54966 0
M  V30 4874 H 437.723 4.87068 -6.08592 0
M  V30 4875 N 441.952 1.55251 0.271103 0
M  V30 4876 C 442.862 1.9136 1.35714 0
M  V30 4877 C 443.878 0.811075 1.5394 0
M  V30 4878 O 445.054 1.11031 1.6803 0
M  V30 4879 C 442.119 2.1798 2.69603 0
M  V30 4880 C 441.18 3.4153 2.60107 0
M  V30 4881 C 440.413 3.66871 3.8761 0
M  V30 4882 O 440.636 2.94689 4.8838 0
M  V30 4883 O 439.57 4.60405 3.87699 0
M  V30 4884 H 443.396 2.83815 1.08088 0
M  V30 4885 H 440.981 1.41821 0.469792 0
M  V30 4886 H 442.863 2.36518 3.48765 0
M  V30 4887 H 441.538 1.28708 2.97012 0
M  V30 4888 H 440.445 3.28325 1.79314 0
M  V30 4889 H 441.778 4.31027 2.37647 0
M  V30 4890 N 443.43 -0.535701 1.48216 0
M  V30 4891 C 444.34 -1.66785 1.64985 0
M  V30 4892 C 445.356 -1.65654 0.532414 0
M  V30 4893 O 446.532 -1.8471 0.80275 0
M  V30 4894 C 443.597 -3.0326 1.68031 0
M  V30 4895 C 442.658 -3.1529 2.9136 0
M  V30 4896 C 441.891 -4.45255 2.94252 0
M  V30 4897 O 442.114 -5.32011 2.05719 0
M  V30 4898 O 441.048 -4.6153 3.86359 0
M  V30 4899 H 444.874 -1.55576 2.60825 0
M  V30 4900 H 442.459 -0.70815 1.31551 0
M  V30 4901 H 444.341 -3.84436 1.72589 0
M  V30 4902 H 443.016 -3.14805 0.753628 0
M  V30 4903 H 441.923 -2.3343 2.92337 0
M  V30 4904 H 443.256 -3.08658 3.83394 0
M  V30 4905 N 444.908 -1.36708 -0.784132 0
M  V30 4906 C 445.838 -1.34153 -1.91116 0
M  V30 4907 C 446.819 -0.212121 -1.68772 0
M  V30 4908 O 448.004 -0.410581 -1.8981 0
M  V30 4909 C 445.134 -1.13535 -3.28218 0
M  V30 4910 C 444.088 -2.23356 -3.65097 0
M  V30 4911 C 443.414 -1.87875 -5.00607 0
M  V30 4912 C 444.714 -3.65473 -3.73131 0
M  V30 4913 H 446.408 -2.28459 -1.93512 0
M  V30 4914 H 443.954 -1.09973 -0.929618 0
M  V30 4915 H 445.907 -1.10381 -4.06687 0
M  V30 4916 H 444.631 -0.156804 -3.26223 0
M  V30 4917 H 443.29 -2.25645 -2.88929 0
M  V30 4918 H 442.938 -0.885814 -4.95139 0
M  V30 4919 H 442.638 -2.61406 -5.26252 0
M  V30 4920 H 444.162 -1.86286 -5.81489 0
M  V30 4921 H 445.576 -3.65382 -4.41779 0
M  V30 4922 H 443.973 -4.37953 -4.10265 0
M  V30 4923 H 445.043 -3.99995 -2.74102 0
M  V30 4924 N 446.386 1.0089 -1.21074 0
M  V30 4925 C 447.296 2.13039 -0.982425 0
M  V30 4926 C 448.312 1.73881 0.0642161 0
M  V30 4927 O 449.488 2.01012 -0.12496 0
M  V30 4928 C 446.553 3.42377 -0.545803 0
M  V30 4929 C 445.614 3.95731 -1.6642 0
M  V30 4930 C 444.847 5.18896 -1.24832 0
M  V30 4931 O 445.07 5.70273 -0.120265 0
M  V30 4932 O 444.004 5.65597 -2.05873 0
M  V30 4933 H 447.83 2.35175 -1.92163 0
M  V30 4934 H 445.415 1.1142 -0.995285 0
M  V30 4935 H 447.297 4.20244 -0.311912 0
M  V30 4936 H 445.972 3.21639 0.364727 0
M  V30 4937 H 444.879 3.19108 -1.95246 0
M  V30 4938 H 446.212 4.20872 -2.55201 0
M  V30 4939 N 447.864 1.01787 1.20321 0
M  V30 4940 C 449.113 0.703249 1.89043 0
M  V30 4941 C 449.426 -0.770445 1.79787 0
M  V30 4942 O 450.632 -1.19767 2.43656 0
M  V30 4943 C 449.088 1.20749 3.3904 0
M  V30 4944 C 448.696 2.70817 3.56878 0
M  V30 4945 C 450.44 0.968352 4.13308 0
M  V30 4946 C 448.347 3.14716 5.00708 0
M  V30 4947 H 447.277 0.259354 0.707991 0
M  V30 4948 H 449.928 1.23072 1.36108 0
M  V30 4949 H 448.31 0.607989 3.91305 0
M  V30 4950 H 449.484 3.36327 3.14993 0
M  V30 4951 H 447.799 2.92888 2.95983 0
M  V30 4952 H 450.396 1.27173 5.19356 0
M  V30 4953 H 450.739 -0.095149 4.16191 0
M  V30 4954 H 451.272 1.53129 3.67146 0
M  V30 4955 H 448.011 4.20347 5.02979 0
M  V30 4956 H 447.531 2.53927 5.43398 0
M  V30 4957 H 449.21 3.07426 5.69296 0
M  V30 4958 N 449.342 -1.36122 0.79427 0
M  V30 4959 C 450.588 -1.99406 0.369452 0
M  V30 4960 C 450.921 -1.62886 -1.05743 0
M  V30 4961 O 450.196 -0.886053 -1.73145 0
M  V30 4962 C 450.479 -3.56046 0.538833 0
M  V30 4963 C 450.332 -4.02404 2.00976 0
M  V30 4964 C 451.651 -4.40079 -0.0431359 0
M  V30 4965 H 448.77 -0.724397 0.135712 0
M  V30 4966 H 451.412 -1.61461 1.00151 0
M  V30 4967 H 449.562 -3.885 0.000771004 0
M  V30 4968 H 451.234 -3.80415 2.60926 0
M  V30 4969 H 449.477 -3.53765 2.51063 0
M  V30 4970 H 450.148 -5.11344 2.07922 0
M  V30 4971 H 452.624 -4.14013 0.416228 0
M  V30 4972 H 451.5 -5.48799 0.105374 0
M  V30 4973 H 451.761 -4.27264 -1.13571 0
M  V30 4974 N 450.82 -0.546701 -1.47814 0
M  V30 4975 C 452.066 -0.0187684 -2.02791 0
M  V30 4976 C 452.399 1.32338 -1.42128 0
M  V30 4977 O 451.674 1.85867 -0.573023 0
M  V30 4978 C 451.957 0.0854985 -3.59998 0
M  V30 4979 C 451.81 -1.283 -4.31114 0
M  V30 4980 C 453.129 0.80412 -4.32691 0
M  V30 4981 H 450.248 -0.0082946 -0.736953 0
M  V30 4982 H 452.89 -0.706962 -1.76358 0
M  V30 4983 H 451.04 0.671609 -3.82651 0
M  V30 4984 H 452.712 -1.91151 -4.19832 0
M  V30 4985 H 450.955 -1.86049 -3.91878 0
M  V30 4986 H 451.626 -1.16287 -5.39612 0
M  V30 4987 H 454.102 0.306576 -4.14969 0
M  V30 4988 H 452.978 0.846011 -5.42341 0
M  V30 4989 H 453.239 1.85802 -4.01161 0
M  V30 4990 N 452.299 1.55045 -0.282633 0
M  V30 4991 C 453.548 1.98938 0.332667 0
M  V30 4992 C 453.861 1.17455 1.56409 0
M  V30 4993 O 455.067 1.51527 2.25282 0
M  V30 4994 C 453.523 3.54105 0.643226 0
M  V30 4995 C 453.131 4.44374 -0.568814 0
M  V30 4996 C 454.875 4.06569 1.22074 0
M  V30 4997 C 452.782 5.90943 -0.232426 0
M  V30 4998 H 451.712 0.743043 0.128075 0
M  V30 4999 H 454.363 1.79341 -0.388464 0
M  V30 5000 H 452.745 3.69532 1.42346 0
M  V30 5001 H 453.919 4.40718 -1.34551 0
M  V30 5002 H 452.234 4.02585 -1.06369 0
M  V30 5003 H 454.831 5.13626 1.48635 0
M  V30 5004 H 455.174 3.56057 2.15707 0
M  V30 5005 H 455.707 3.94612 0.502621 0
M  V30 5006 H 452.446 6.45567 -1.13683 0
M  V30 5007 H 451.966 5.9765 0.507357 0
M  V30 5008 H 453.645 6.4677 0.172657 0
M  V30 5009 N 453.777 0.010035 1.57597 0
M  V30 5010 C 454.707 -0.976857 2.12084 0
M  V30 5011 C 455.688 -1.35191 1.03235 0
M  V30 5012 O 456.873 -1.43389 1.3097 0
M  V30 5013 C 454.003 -2.26548 2.63236 0
M  V30 5014 C 452.957 -2.03175 3.76701 0
M  V30 5015 C 452.283 -3.38138 4.14206 0
M  V30 5016 C 453.583 -1.38625 5.03568 0
M  V30 5017 H 455.277 -0.523145 2.94794 0
M  V30 5018 H 452.823 -0.250195 1.4181 0
M  V30 5019 H 454.776 -2.95952 2.99984 0
M  V30 5020 H 453.5 -2.74051 1.77661 0
M  V30 5021 H 452.159 -1.36195 3.40362 0
M  V30 5022 H 451.807 -3.83363 3.25641 0
M  V30 5023 H 451.507 -3.23312 4.90656 0
M  V30 5024 H 453.031 -4.08841 4.53521 0
M  V30 5025 H 454.445 -1.98 5.38023 0
M  V30 5026 H 452.842 -1.34256 5.84889 0
M  V30 5027 H 453.912 -0.356722 4.83586 0
M  V30 5028 N 455.255 -1.55392 -0.262866 0
M  V30 5029 C 456.165 -1.92077 -1.34698 0
M  V30 5030 C 457.181 -0.819227 -1.53508 0
M  V30 5031 O 458.357 -1.11921 -1.67439 0
M  V30 5032 C 455.422 -2.19407 -2.68443 0
M  V30 5033 C 454.483 -3.42905 -2.58292 0
M  V30 5034 C 453.716 -3.68921 -3.85659 0
M  V30 5035 O 453.939 -2.97275 -4.8681 0
M  V30 5036 O 452.873 -4.62455 -3.85252 0
M  V30 5037 H 456.699 -2.84384 -1.06581 0
M  V30 5038 H 454.284 -1.42069 -0.462264 0
M  V30 5039 H 456.166 -2.38365 -3.47506 0
M  V30 5040 H 454.841 -1.30282 -2.96325 0
M  V30 5041 H 453.748 -3.29272 -1.7757 0
M  V30 5042 H 455.081 -4.32282 -2.35358 0
M  V30 5043 N 456.733 0.527833 -1.48498 0
M  V30 5044 C 457.981 1.28101 -1.56316 0
M  V30 5045 C 458.302 1.9352 -0.239781 0
M  V30 5046 O 457.572 1.81433 0.738849 0
M  V30 5047 H 456.152 0.475793 -0.575873 0
M  V30 5048 H 458.814 0.614052 -1.84974 0
M  V30 5049 H 457.91 2.05916 -2.34532 0
M  V30 5050 N 458.211 1.37122 0.776871 0
M  V30 5051 C 459.144 1.26835 1.89705 0
M  V30 5052 C 460.122 0.14992 1.61907 0
M  V30 5053 O 461.306 0.323242 1.85708 0
M  V30 5054 C 458.433 0.95986 3.24814 0
M  V30 5055 C 457.479 2.09447 3.7153 0
M  V30 5056 S 458.312 3.71368 3.85806 0
M  V30 5057 C 459.468 3.42659 5.23771 0
M  V30 5058 H 459.701 2.21647 1.98141 0
M  V30 5059 H 457.234 1.22685 0.937433 0
M  V30 5060 H 459.192 0.788696 4.02852 0
M  V30 5061 H 457.853 0.0293137 3.14086 0
M  V30 5062 H 457.046 1.8335 4.69467 0
M  V30 5063 H 456.648 2.2255 3.00578 0
M  V30 5064 H 458.94 2.9733 6.0877 0
M  V30 5065 H 459.883 4.39905 5.54878 0
M  V30 5066 H 460.291 2.77708 4.91466 0
M  V30 5067 N 459.689 -1.00246 1.21608 0
M  V30 5068 C 460.935 -1.74319 1.03638 0
M  V30 5069 C 461.268 -1.89408 -0.428749 0
M  V30 5070 O 460.543 -1.43026 -1.3181 0
M  V30 5071 C 460.826 -3.15431 1.73711 0
M  V30 5072 C 460.679 -3.08049 3.27759 0
M  V30 5073 C 461.998 -4.14407 1.48173 0
M  V30 5074 H 459.117 -0.632741 0.377899 0
M  V30 5075 H 461.759 -1.16853 1.49818 0
M  V30 5076 H 459.909 -3.64493 1.34452 0
M  V30 5077 H 461.581 -2.66681 3.76403 0
M  V30 5078 H 459.824 -2.45088 3.57931 0
M  V30 5079 H 460.495 -4.07862 3.71958 0
M  V30 5080 H 462.971 -3.74061 1.82258 0
M  V30 5081 H 461.847 -5.11279 1.99713 0
M  V30 5082 H 462.108 -4.40174 0.412273 0
M  V30 5083 N 461.167 -1.02423 -1.1978 0
M  V30 5084 C 462.077 -0.610919 -2.26506 0
M  V30 5085 C 463.093 0.355152 -1.70337 0
M  V30 5086 O 464.269 0.214195 -2.00258 0
M  V30 5087 C 461.334 0.0365921 -3.46681 0
M  V30 5088 C 460.395 -0.976389 -4.18049 0
M  V30 5089 C 459.628 -0.359683 -5.32487 0
M  V30 5090 O 459.851 0.838601 -5.64202 0
M  V30 5091 O 458.785 -1.08022 -5.92127 0
M  V30 5092 H 462.611 -1.49965 -2.64091 0
M  V30 5093 H 460.196 -0.794156 -1.26545 0
M  V30 5094 H 462.078 0.39786 -4.19518 0
M  V30 5095 H 460.753 0.899398 -3.10954 0
M  V30 5096 H 459.66 -1.38916 -3.47352 0
M  V30 5097 H 460.993 -1.80941 -4.57735 0
M  V30 5098 N 462.645 1.35699 -0.801477 0
M  V30 5099 C 463.608 2.28199 -0.213994 0
M  V30 5100 C 464.608 1.49359 0.595691 0
M  V30 5101 O 465.798 1.69186 0.414921 0
M  V30 5102 C 462.93 3.33587 0.702297 0
M  V30 5103 H 464.123 2.81666 -1.02976 0
M  V30 5104 H 461.676 1.45467 -0.571759 0
M  V30 5105 H 462.411 2.85297 1.54195 0
M  V30 5106 H 462.196 3.91906 0.123484 0
M  V30 5107 H 463.686 4.02638 1.10783 0
M  V30 5108 N 464.123 0.554532 1.47522 0
M  V30 5109 C 465.351 0.034257 2.06872 0
M  V30 5110 C 465.766 -1.25826 1.40759 0
M  V30 5111 O 465.123 -1.75425 0.503217 0
M  V30 5112 C 465.174 -0.167827 3.6111 0
M  V30 5113 O 464.895 1.07351 4.24744 0
M  V30 5114 C 466.396 -0.72569 4.3732 0
M  V30 5115 H 463.616 0.0446275 0.669514 0
M  V30 5116 H 466.16 0.767181 1.89564 0
M  V30 5117 H 464.315 -0.850872 3.7794 0
M  V30 5118 H 464.729 0.869563 5.17242 0
M  V30 5119 H 466.203 -0.816394 5.45929 0
M  V30 5120 H 466.68 -1.73635 4.0342 0
M  V30 5121 H 467.286 -0.0784292 4.25228 0
M  V30 5122 N 465.601 -1.54893 0.290851 0
M  V30 5123 C 466.849 -1.99538 -0.320756 0
M  V30 5124 C 467.17 -1.18075 -1.55188 0
M  V30 5125 O 466.44 -0.274162 -1.93972 0
M  V30 5126 H 465.02 -0.737052 -0.121507 0
M  V30 5127 H 467.682 -1.90755 0.399832 0
M  V30 5128 H 466.778 -3.06282 -0.599802 0
M  V30 5129 N 467.08 -0.0183926 -1.57589 0
M  V30 5130 C 468.013 1.00148 -2.0505 0
M  V30 5131 C 468.991 1.32387 -0.944058 0
M  V30 5132 O 470.175 1.44237 -1.21358 0
M  V30 5133 C 467.302 2.32435 -2.46357 0
M  V30 5134 C 466.348 2.15731 -3.67916 0
M  V30 5135 S 467.181 1.46613 -5.15039 0
M  V30 5136 C 468.337 2.80293 -5.59631 0
M  V30 5137 H 468.57 0.597429 -2.91235 0
M  V30 5138 H 466.103 0.193002 -1.53189 0
M  V30 5139 H 468.061 3.0849 -2.70822 0
M  V30 5140 H 466.722 2.69975 -1.60537 0
M  V30 5141 H 465.915 3.13502 -3.9463 0
M  V30 5142 H 465.517 1.4782 -3.43548 0
M  V30 5143 H 467.809 3.76557 -5.63215 0
M  V30 5144 H 468.752 2.58256 -6.59325 0
M  V30 5145 H 469.16 2.85047 -4.87246 0
M  V30 5146 N 468.558 1.5553 0.254621 0
M  V30 5147 C 469.786 1.81046 1.00149 0
M  V30 5148 C 470.201 0.593047 1.79244 0
M  V30 5149 O 469.558 -0.438196 1.77161 0
M  V30 5150 C 469.609 3.04684 1.94551 0
M  V30 5151 O 469.33 4.21725 1.18658 0
M  V30 5152 C 470.831 3.42943 2.80901 0
M  V30 5153 H 468.051 0.602653 0.295044 0
M  V30 5154 H 470.595 2.02576 0.279842 0
M  V30 5155 H 468.75 2.85226 2.62154 0
M  V30 5156 H 469.164 4.91746 1.82445 0
M  V30 5157 H 470.638 4.32576 3.42902 0
M  V30 5158 H 471.115 2.63176 3.51617 0
M  V30 5159 H 471.721 3.64724 2.18762 0
M  V30 5160 N 470.036 -0.519951 1.48776 0
M  V30 5161 C 471.276 -1.2856 1.58908 0
M  V30 5162 C 471.64 -1.90212 0.261418 0
M  V30 5163 O 472.841 -2.67746 0.237791 0
M  V30 5164 C 471.112 -2.33836 2.70288 0
M  V30 5165 S 472.671 -3.19992 3.0025 0
M  V30 5166 H 469.489 -0.43717 0.560717 0
M  V30 5167 H 472.091 -0.591205 1.86346 0
M  V30 5168 H 470.795 -1.87041 3.653 0
M  V30 5169 H 470.326 -3.07969 2.44783 0
M  V30 5170 H 472.341 -4.34122 2.40317 0
M  V30 5171 N 471.514 -1.37532 -0.769588 0
M  V30 5172 C 472.446 -1.29347 -1.89214 0
M  V30 5173 C 473.459 -0.208842 -1.61455 0
M  V30 5174 O 474.648 -0.465158 -1.72333 0
M  V30 5175 C 471.748 -0.977649 -3.24492 0
M  V30 5176 C 470.921 -2.16817 -3.7988 0
M  V30 5177 C 469.98 -1.82229 -4.93639 0
M  V30 5178 O 469.006 -2.54548 -5.09111 0
M  V30 5179 N 470.208 -0.767696 -5.75401 0
M  V30 5180 H 472.973 -2.26073 -1.96751 0
M  V30 5181 H 470.534 -1.31185 -0.948795 0
M  V30 5182 H 472.526 -0.727065 -3.98115 0
M  V30 5183 H 471.096 -0.0988777 -3.12444 0
M  V30 5184 H 470.316 -2.58038 -2.9801 0
M  V30 5185 H 471.604 -2.96308 -4.13617 0
M  V30 5186 H 471.002 -0.167626 -5.65452 0
M  V30 5187 H 469.559 -0.576973 -6.49241 0
M  V30 5188 N 472.992 0.995999 -1.22138 0
M  V30 5189 C 473.955 2.06711 -0.990109 0
M  V30 5190 C 474.955 1.60744 0.0422978 0
M  V30 5191 O 476.145 1.73095 -0.195895 0
M  V30 5192 C 473.277 3.37288 -0.49491 0
M  V30 5193 H 474.47 2.28661 -1.94047 0
M  V30 5194 H 472.023 1.16711 -1.03963 0
M  V30 5195 H 472.758 3.21022 0.459948 0
M  V30 5196 H 472.543 3.71986 -1.23971 0
M  V30 5197 H 474.033 4.16103 -0.353253 0
M  V30 5198 N 474.47 1.03057 1.19235 0
M  V30 5199 C 475.886 0.747947 1.40989 0
M  V30 5200 C 476.086 -0.666752 1.90149 0
M  V30 5201 O 475.142 -1.43249 2.07933 0
M  V30 5202 C 476.455 1.7855 2.41951 0
M  V30 5203 C 478.003 1.80524 2.55695 0
M  V30 5204 C 478.478 2.83243 3.59913 0
M  V30 5205 N 479.969 2.8207 3.67411 0
M  V30 5206 C 480.704 3.58204 4.47747 0
M  V30 5207 N 480.2 4.44057 5.31775 0
M  V30 5208 N 481.993 3.46738 4.42413 0
M  V30 5209 H 474.144 1.94367 0.856468 0
M  V30 5210 H 476.407 0.840412 0.438647 0
M  V30 5211 H 476.113 2.79973 2.12857 0
M  V30 5212 H 475.987 1.6092 3.41152 0
M  V30 5213 H 478.374 0.79778 2.84112 0
M  V30 5214 H 478.455 2.02229 1.56643 0
M  V30 5215 H 478.099 3.84161 3.32239 0
M  V30 5216 H 478.029 2.58795 4.5862 0
M  V30 5217 H 480.52 2.19803 3.074 0
M  V30 5218 H 480.833 4.98884 5.90199 0
M  V30 5219 H 479.178 4.48129 5.3123 0
M  V30 5220 H 482.369 2.79077 3.75811 0
M  V30 5221 H 482.542 4.06322 5.04783 0
M  V30 5222 N 475.948 -1.35272 0.808662 0
M  V30 5223 C 477.173 -2.03477 0.401475 0
M  V30 5224 C 477.598 -1.60537 -0.980279 0
M  V30 5225 O 476.956 -0.78304 -1.63518 0
M  V30 5226 C 477.004 -3.57181 0.495354 0
M  V30 5227 O 476.108 -4.09474 -0.490397 0
M  V30 5228 H 475.449 -0.642561 0.167366 0
M  V30 5229 H 477.979 -1.72824 1.09512 0
M  V30 5230 H 477.989 -4.06356 0.365912 0
M  V30 5231 H 476.664 -3.87784 1.5032 0
M  V30 5232 H 475.241 -3.71516 -0.321023 0
M  V30 5233 N 477.426 -0.562348 -1.47226 0
M  V30 5234 C 478.651 -0.0432632 -2.07355 0
M  V30 5235 C 479.076 1.24332 -1.41149 0
M  V30 5236 O 478.434 1.74603 -0.488226 0
M  V30 5237 C 478.482 0.130288 -3.60365 0
M  V30 5238 O 477.586 1.19166 -3.94808 0
M  V30 5239 H 476.927 -0.0536334 -0.66183 0
M  V30 5240 H 479.457 -0.779495 -1.89169 0
M  V30 5241 H 479.467 0.342881 -4.06557 0
M  V30 5242 H 478.142 -0.809389 -4.07948 0
M  V30 5243 H 476.719 0.959153 -3.60354 0
M  V30 5244 N 478.904 1.54736 -0.299062 0
M  V30 5245 C 480.134 2.04215 0.312992 0
M  V30 5246 C 480.542 1.17596 1.48215 0
M  V30 5247 O 479.885 0.193835 1.82674 0
M  V30 5248 C 479.947 3.49696 0.833862 0
M  V30 5249 C 479.611 4.56518 -0.20977 0
M  V30 5250 C 480.608 5.09442 -1.03756 0
M  V30 5251 C 478.293 5.01073 -0.35091 0
M  V30 5252 C 480.287 6.05459 -1.99244 0
M  V30 5253 C 477.974 5.9691 -1.30924 0
M  V30 5254 C 478.972 6.48987 -2.1285 0
M  V30 5255 O 478.66 7.42947 -3.07059 0
M  V30 5256 H 478.392 0.672128 0.0722494 0
M  V30 5257 H 480.946 2.00718 -0.436043 0
M  V30 5258 H 479.176 3.5051 1.63339 0
M  V30 5259 H 480.865 3.82381 1.36159 0
M  V30 5260 H 481.631 4.75816 -0.939376 0
M  V30 5261 H 477.51 4.60168 0.276813 0
M  V30 5262 H 481.054 6.46031 -2.63229 0
M  V30 5263 H 476.951 6.29953 -1.40815 0
M  V30 5264 H 477.719 7.60743 -3.02015 0
M  V30 5265 N 480.382 0.0267497 1.57577 0
M  V30 5266 C 481.631 -0.651736 1.9088 0
M  V30 5267 C 481.944 -1.73427 0.904576 0
M  V30 5268 O 483.15 -2.46923 1.12877 0
M  V30 5269 C 481.606 -1.21048 3.38933 0
M  V30 5270 C 481.214 -0.161362 4.47709 0
M  V30 5271 C 482.958 -1.86562 3.81307 0
M  V30 5272 C 480.865 -0.731611 5.86857 0
M  V30 5273 H 479.795 -0.247198 0.712326 0
M  V30 5274 H 482.446 0.0916641 1.83271 0
M  V30 5275 H 480.828 -2.00542 3.41466 0
M  V30 5276 H 482.002 0.61094 4.56732 0
M  V30 5277 H 480.317 0.394877 4.14523 0
M  V30 5278 H 482.914 -2.30178 4.8262 0
M  V30 5279 H 483.257 -2.70735 3.16241 0
M  V30 5280 H 483.79 -1.13762 3.81186 0
M  V30 5281 H 480.529 0.0719329 6.55461 0
M  V30 5282 H 480.049 -1.47245 5.81445 0
M  V30 5283 H 481.728 -1.22208 6.35354 0
M  V30 5284 N 481.861 -1.55662 -0.24637 0
M  V30 5285 C 483.089 -1.81575 -0.991876 0
M  V30 5286 C 483.504 -0.602545 -1.78927 0
M  V30 5287 O 482.861 0.428795 -1.77391 0
M  V30 5288 C 482.912 -3.05711 -1.92933 0
M  V30 5289 O 482.633 -4.22348 -1.1642 0
M  V30 5290 C 484.134 -3.44428 -2.79078 0
M  V30 5291 H 481.354 -0.604209 -0.291844 0
M  V30 5292 H 483.898 -2.02722 -0.269095 0
M  V30 5293 H 482.053 -2.86612 -2.60638 0
M  V30 5294 H 482.467 -4.92706 -1.79835 0
M  V30 5295 H 483.941 -4.34388 -3.40603 0
M  V30 5296 H 484.418 -2.65037 -3.50217 0
M  V30 5297 H 485.024 -3.65879 -2.16824 0
M  V30 5298 N 483.339 0.512053 -1.4905 0
M  V30 5299 C 484.564 1.2959 -1.6193 0
M  V30 5300 C 484.989 1.85906 -0.286454 0
M  V30 5301 O 484.347 1.65312 0.744426 0
M  V30 5302 C 484.395 2.40987 -2.68249 0
M  V30 5303 O 483.499 3.44531 -2.26654 0
M  V30 5304 H 482.84 0.383053 -0.542371 0
M  V30 5305 H 485.37 0.614231 -1.95162 0
M  V30 5306 H 485.38 2.86913 -2.90078 0
M  V30 5307 H 484.055 1.99361 -3.65004 0
M  V30 5308 H 482.632 3.046 -2.15112 0
M  V30 5309 N 484.817 1.37938 0.762283 0
M  V30 5310 C 485.727 1.36681 1.90671 0
M  V30 5311 C 486.743 0.265078 1.71969 0
M  V30 5312 O 487.919 0.502055 1.95042 0
M  V30 5313 C 484.984 1.18211 3.25925 0
M  V30 5314 C 484.045 2.3811 3.57214 0
M  V30 5315 C 483.278 2.20512 4.86014 0
M  V30 5316 O 483.501 1.19429 5.57757 0
M  V30 5317 O 482.435 3.08911 5.16583 0
M  V30 5318 H 486.261 2.33091 1.94685 0
M  V30 5319 H 483.846 1.18767 0.906356 0
M  V30 5320 H 485.728 1.09937 4.06807 0
M  V30 5321 H 484.403 0.248807 3.22742 0
M  V30 5322 H 483.31 2.51958 2.76529 0
M  V30 5323 H 484.643 3.30041 3.65149 0
M  V30 5324 N 486.295 -0.989507 1.22664 0
M  V30 5325 C 487.544 -1.72375 1.04737 0
M  V30 5326 C 487.857 -1.91096 -0.417316 0
M  V30 5327 O 489.063 -2.6188 -0.716334 0
M  V30 5328 C 487.519 -3.10161 1.82561 0
M  V30 5329 C 487.127 -2.99358 3.333 0
M  V30 5330 C 488.871 -3.87607 1.73093 0
M  V30 5331 C 486.778 -4.32319 4.03552 0
M  V30 5332 H 485.708 -0.646326 0.388302 0
M  V30 5333 H 488.359 -1.10437 1.46546 0
M  V30 5334 H 486.741 -3.728 1.33552 0
M  V30 5335 H 487.915 -2.45863 3.89728 0
M  V30 5336 H 486.23 -2.35392 3.43481 0
M  V30 5337 H 488.827 -4.86025 2.22899 0
M  V30 5338 H 489.17 -4.10509 0.691976 0
M  V30 5339 H 489.703 -3.31652 2.19663 0
M  V30 5340 H 486.442 -4.14616 5.07714 0
M  V30 5341 H 485.962 -4.85714 3.51911 0
M  V30 5342 H 487.641 -5.01051 4.09337 0
M  V30 5343 N 487.773 -1.03688 -1.18687 0
M  V30 5344 C 488.703 -0.645407 -2.24403 0
M  V30 5345 C 489.684 0.349511 -1.66471 0
M  V30 5346 O 490.869 0.230453 -1.92828 0
M  V30 5347 C 487.999 -0.00365337 -3.473 0
M  V30 5348 C 486.953 -0.921705 -4.17958 0
M  V30 5349 C 486.279 -0.144629 -5.34504 0
M  V30 5350 C 487.579 -2.23909 -4.71871 0
M  V30 5351 H 489.273 -1.52917 -2.57404 0
M  V30 5352 H 486.819 -0.736711 -1.23728 0
M  V30 5353 H 488.772 0.281908 -4.20456 0
M  V30 5354 H 487.496 0.914963 -3.13522 0
M  V30 5355 H 486.155 -1.19159 -3.46694 0
M  V30 5356 H 485.803 0.776274 -4.96974 0
M  V30 5357 H 485.503 -0.756206 -5.82714 0
M  V30 5358 H 487.027 0.134004 -6.10453 0
M  V30 5359 H 488.441 -2.0145 -5.36741 0
M  V30 5360 H 486.838 -2.8033 -5.30599 0
M  V30 5361 H 487.908 -2.88822 -3.895 0
M  V30 5362 N 489.251 1.34841 -0.815825 0
M  V30 5363 C 490.497 1.99219 -0.410288 0
M  V30 5364 C 490.852 1.63532 1.01366 0
M  V30 5365 O 490.145 0.893093 1.69512 0
M  V30 5366 C 490.339 3.53273 -0.541541 0
M  V30 5367 C 490.168 4.03927 -1.9767 0
M  V30 5368 C 488.938 4.32852 -2.60706 0
M  V30 5369 C 491.136 4.21808 -2.9425 0
M  V30 5370 N 489.118 4.69494 -3.95536 0
M  V30 5371 C 490.489 4.6155 -4.13971 0
M  V30 5372 C 492.544 4.04038 -2.9096 0
M  V30 5373 C 491.247 4.85381 -5.30847 0
M  V30 5374 C 493.273 4.29031 -4.07046 0
M  V30 5375 C 492.635 4.69054 -5.25517 0
M  V30 5376 H 488.734 0.756494 -0.198094 0
M  V30 5377 H 491.318 1.63379 -1.05902 0
M  V30 5378 H 489.489 3.88323 0.0772544 0
M  V30 5379 H 491.221 4.04551 -0.109694 0
M  V30 5380 H 487.976 4.23503 -2.11995 0
M  V30 5381 H 488.4 4.92061 -4.64979 0
M  V30 5382 H 493.042 3.7223 -2.00512 0
M  V30 5383 H 490.76 5.16059 -6.21859 0
M  V30 5384 H 494.346 4.16826 -4.05891 0
M  V30 5385 H 493.226 4.88014 -6.1385 0
M  V30 5386 N 490.729 0.570148 1.46925 0
M  V30 5387 C 491.977 0.0508523 2.02036 0
M  V30 5388 C 492.298 -1.30885 1.44548 0
M  V30 5389 O 491.568 -1.85647 0.625453 0
M  V30 5390 H 490.148 0.0158088 0.746833 0
M  V30 5391 H 492.81 0.743086 1.80178 0
M  V30 5392 H 491.906 -0.027575 3.12088 0
M  V30 5393 N 492.207 -1.54576 0.307264 0
M  V30 5394 C 493.437 -2.04378 -0.302158 0
M  V30 5395 C 493.845 -1.18381 -1.47589 0
M  V30 5396 O 493.188 -0.20352 -1.82569 0
M  V30 5397 C 493.25 -3.50133 -0.815305 0
M  V30 5398 C 492.914 -4.56401 0.233977 0
M  V30 5399 C 493.911 -5.08884 1.06456 0
M  V30 5400 C 491.596 -5.0088 0.377478 0
M  V30 5401 C 493.59 -6.04394 2.02452 0
M  V30 5402 C 491.277 -5.96208 1.34088 0
M  V30 5403 C 492.275 -6.47849 2.16288 0
M  V30 5404 O 491.963 -7.41308 3.10994 0
M  V30 5405 H 491.695 -0.672502 -0.0686839 0
M  V30 5406 H 494.249 -2.00484 0.446682 0
M  V30 5407 H 492.479 -3.51371 -1.61478 0
M  V30 5408 H 494.168 -3.83098 -1.34129 0
M  V30 5409 H 494.934 -4.75311 0.964596 0
M  V30 5410 H 490.813 -4.60309 -0.252405 0
M  V30 5411 H 494.357 -6.44626 2.66652 0
M  V30 5412 H 490.254 -6.29198 1.44154 0
M  V30 5413 H 491.022 -7.5913 3.06045 0
M  V30 5414 N 493.685 -0.035106 -1.57561 0
M  V30 5415 C 495.101 0.321334 -1.56332 0
M  V30 5416 C 495.301 1.72509 -1.04129 0
M  V30 5417 O 494.357 2.4287 -0.690694 0
M  V30 5418 C 495.67 0.164469 -3.0025 0
M  V30 5419 C 497.218 0.236786 -3.12103 0
M  V30 5420 C 497.693 0.10864 -4.57871 0
M  V30 5421 N 499.184 0.165433 -4.62904 0
M  V30 5422 C 499.919 0.0901506 -5.73329 0
M  V30 5423 N 499.415 -0.0365606 -6.9279 0
M  V30 5424 N 501.208 0.144572 -5.61914 0
M  V30 5425 H 493.359 -0.952976 -1.89821 0
M  V30 5426 H 495.622 -0.368537 -0.873432 0
M  V30 5427 H 495.328 -0.802746 -3.42416 0
M  V30 5428 H 495.202 0.932194 -3.655 0
M  V30 5429 H 497.589 1.19446 -2.69845 0
M  V30 5430 H 497.67 -0.561419 -2.49563 0
M  V30 5431 H 497.314 -0.845644 -5.00811 0
M  V30 5432 H 497.244 0.925786 -5.18398 0
M  V30 5433 H 499.735 0.263269 -3.76982 0
M  V30 5434 H 500.048 -0.0871487 -7.72751 0
M  V30 5435 H 498.393 -0.0714256 -6.94963 0
M  V30 5436 H 501.584 0.242006 -4.67474 0
M  V30 5437 H 501.757 0.0824413 -6.47948 0
M  V30 5438 N 495.163 1.55791 0.238111 0
M  V30 5439 C 496.41 1.78033 0.964907 0
M  V30 5440 C 496.738 0.600984 1.84982 0
M  V30 5441 O 495.993 -0.41536 1.91241 0
M  V30 5442 C 496.292 3.05869 1.84875 0
M  V30 5443 C 495.958 4.36808 1.11846 0
M  V30 5444 C 494.62 4.72388 0.916662 0
M  V30 5445 C 496.972 5.17717 0.60151 0
M  V30 5446 C 494.3 5.86406 0.185756 0
M  V30 5447 C 496.652 6.32494 -0.115972 0
M  V30 5448 C 495.316 6.66688 -0.329168 0
M  V30 5449 H 494.586 0.651469 0.353085 0
M  V30 5450 H 497.233 1.90061 0.234318 0
M  V30 5451 H 495.538 2.88891 2.64668 0
M  V30 5452 H 497.235 3.20278 2.41294 0
M  V30 5453 H 493.825 4.08862 1.28569 0
M  V30 5454 H 498.009 4.90678 0.744932 0
M  V30 5455 H 493.265 6.11399 0.0101886 0
M  V30 5456 H 497.439 6.94425 -0.524127 0
M  V30 5457 H 495.066 7.54884 -0.897474 0
M  V30 5458 N 496.642 -0.504142 1.49319 0
M  V30 5459 C 497.87 -1.28256 1.62351 0
M  V30 5460 C 498.285 -1.86502 0.293682 0
M  V30 5461 O 497.642 -1.67678 -0.720449 0
M  V30 5462 C 497.693 -2.41507 2.68992 0
M  V30 5463 O 497.414 -1.85656 3.96817 0
M  V30 5464 C 498.915 -3.32929 2.927 0
M  V30 5465 H 496.135 -0.389115 0.546654 0
M  V30 5466 H 498.679 -0.605531 1.95329 0
M  V30 5467 H 496.834 -3.05046 2.38801 0
M  V30 5468 H 497.248 -2.59981 4.55533 0
M  V30 5469 H 498.722 -4.0868 3.71058 0
M  V30 5470 H 499.199 -3.89733 2.02496 0
M  V30 5471 H 499.805 -2.75158 3.24296 0
M  V30 5472 N 498.12 -1.38341 -0.754957 0
M  V30 5473 C 499.531 -1.30803 -1.3322 0
M  V30 5474 C 499.882 0.0368 -1.96165 0
M  V30 5475 O 499.007 0.938844 -1.94974 0
M  V30 5476 C 499.602 -2.3688 -2.42225 0
M  V30 5477 C 498.161 -2.32925 -2.95674 0
M  V30 5478 C 497.308 -2.19819 -1.69042 0
M  V30 5479 H 500.259 -1.48719 -0.553937 0
M  V30 5480 H 500.28 -2.02517 -3.22129 0
M  V30 5481 H 499.792 -3.34747 -1.96383 0
M  V30 5482 H 497.893 -1.38635 -3.45848 0
M  V30 5483 H 498.006 -3.27008 -3.50146 0
M  V30 5484 H 496.37 -1.66648 -1.92615 0
M  V30 5485 H 497.153 -3.19625 -1.25279 0
M  V30 5486 N 499.598 0.982988 -1.23187 0
M  V30 5487 C 500.844 1.72648 -1.06398 0
M  V30 5488 C 501.177 1.90066 0.398561 0
M  V30 5489 O 500.452 1.45105 1.29518 0
M  V30 5490 C 500.735 3.12627 -1.78707 0
M  V30 5491 C 500.588 3.02795 -3.32618 0
M  V30 5492 C 501.907 4.11997 -1.54747 0
M  V30 5493 H 499.026 0.626649 -0.387918 0
M  V30 5494 H 501.668 1.14455 -1.51658 0
M  V30 5495 H 499.818 3.62308 -1.40234 0
M  V30 5496 H 501.49 2.60659 -3.80598 0
M  V30 5497 H 499.733 2.39362 -3.61785 0
M  V30 5498 H 500.404 4.01893 -3.78399 0
M  V30 5499 H 502.88 3.71114 -1.88186 0
M  V30 5500 H 501.756 5.08037 -2.07821 0
M  V30 5501 H 502.017 4.39462 -0.482249 0
M  V30 5502 N 501.076 1.04316 1.18135 0
M  V30 5503 C 502.006 0.657299 2.24058 0
M  V30 5504 C 502.987 -0.340678 1.66654 0
M  V30 5505 O 504.172 -0.220223 1.92947 0
M  V30 5506 C 501.302 0.0220715 3.47293 0
M  V30 5507 C 500.256 0.943857 4.17463 0
M  V30 5508 C 499.582 0.172973 5.3442 0
M  V30 5509 C 500.882 2.26409 4.70677 0
M  V30 5510 H 502.576 1.5428 2.56589 0
M  V30 5511 H 500.122 0.743263 1.23335 0
M  V30 5512 H 502.075 -0.259607 4.206 0
M  V30 5513 H 500.799 -0.898323 3.14003 0
M  V30 5514 H 499.458 1.20996 3.46057 0
M  V30 5515 H 499.106 -0.749907 4.97379 0
M  V30 5516 H 498.806 0.787098 5.82304 0
M  V30 5517 H 500.33 -0.101628 6.10515 0
M  V30 5518 H 501.744 2.04294 5.35665 0
M  V30 5519 H 500.141 2.8314 5.29105 0
M  V30 5520 H 501.211 2.90883 3.87962 0
M  V30 5521 N 502.554 -1.34406 0.822964 0
M  V30 5522 C 503.782 -2.02508 0.424039 0
M  V30 5523 C 504.197 -1.61975 -0.970022 0
M  V30 5524 O 503.554 -0.825228 -1.62777 0
M  V30 5525 C 503.605 -3.57789 0.516657 0
M  V30 5526 O 503.326 -3.96853 1.85577 0
M  V30 5527 C 504.827 -4.43157 0.112637 0
M  V30 5528 H 502.047 -0.649063 0.170173 0
M  V30 5529 H 504.591 -1.7168 1.11113 0
M  V30 5530 H 502.746 -3.87207 -0.122353 0
M  V30 5531 H 503.16 -4.91538 1.83005 0
M  V30 5532 H 504.634 -5.51527 0.228526 0
M  V30 5533 H 505.111 -4.28939 -0.943837 0
M  V30 5534 H 505.717 -4.19067 0.725449 0
M  V30 5535 N 504.032 -0.577932 -1.46621 0
M  V30 5536 C 504.962 0.145917 -2.33044 0
M  V30 5537 C 505.943 0.888412 -1.45056 0
M  V30 5538 O 507.128 0.864812 -1.73881 0
M  V30 5539 C 504.258 1.16322 -3.27241 0
M  V30 5540 C 503.212 0.535868 -4.24632 0
M  V30 5541 C 502.538 1.65929 -5.08303 0
M  V30 5542 C 503.838 -0.523861 -5.19666 0
M  V30 5543 H 505.532 -0.575636 -2.93814 0
M  V30 5544 H 503.078 -0.278272 -1.41286 0
M  V30 5545 H 505.031 1.67793 -3.86553 0
M  V30 5546 H 503.755 1.91498 -2.64567 0
M  V30 5547 H 502.414 0.0422759 -3.66576 0
M  V30 5548 H 502.062 2.40061 -4.42018 0
M  V30 5549 H 501.762 1.2452 -5.74255 0
M  V30 5550 H 503.286 2.17686 -5.70478 0
M  V30 5551 H 504.7 -0.0944059 -5.73222 0
M  V30 5552 H 503.097 -0.858 -5.93935 0
M  V30 5553 H 504.167 -1.41197 -4.63887 0
M  V30 5554 N 505.51 1.54411 -0.315457 0
M  V30 5555 C 506.42 2.27737 0.56329 0
M  V30 5556 C 507.436 1.31787 1.13614 0
M  V30 5557 O 508.612 1.64791 1.15784 0
M  V30 5558 C 505.677 3.01478 1.71207 0
M  V30 5559 C 504.738 4.12997 1.17185 0
M  V30 5560 C 503.971 4.83212 2.26588 0
M  V30 5561 O 504.194 4.52884 3.46775 0
M  V30 5562 O 503.128 5.70299 1.92463 0
M  V30 5563 H 506.954 3.03683 -0.0319614 0
M  V30 5564 H 504.539 1.49178 -0.0814188 0
M  V30 5565 H 506.421 3.47683 2.38106 0
M  V30 5566 H 505.096 2.28414 2.29366 0
M  V30 5567 H 504.003 3.71159 0.468174 0
M  V30 5568 H 505.336 4.8808 0.635501 0
M  V30 5569 N 506.988 0.0434614 1.5754 0
M  V30 5570 C 508.265 -0.671479 1.83713 0
M  V30 5571 C 508.645 -1.89495 0.930315 0
M  V30 5572 O 507.993 -2.28498 -0.0105639 0
M  V30 5573 C 508.203 -1.0361 3.33266 0
M  V30 5574 C 509.551 -1.42167 4.00092 0
M  V30 5575 O 510.575 -1.12866 3.37846 0
M  V30 5576 O 509.434 -1.96817 5.09829 0
M  V30 5577 H 506.528 -0.330726 0.75799 0
M  V30 5578 H 509.074 0.0722373 1.69546 0
M  V30 5579 H 507.846 -0.165938 3.90948 0
M  V30 5580 H 507.469 -1.83751 3.52592 0
M  V30 5581 N 508.466 -1.55915 -0.229846 0
M  V30 5582 C 509.714 -1.7819 -0.953565 0
M  V30 5583 C 510.035 -0.610504 -1.85197 0
M  V30 5584 O 509.305 0.372988 -1.92316 0
M  V30 5585 H 507.885 -0.657208 -0.355087 0
M  V30 5586 H 510.547 -1.9337 -0.243693 0
M  V30 5587 H 509.643 -2.70011 -1.56527 0
M  V30 5588 N 509.944 0.496216 -1.49584 0
M  V30 5589 C 511.191 1.25003 -1.59312 0
M  V30 5590 C 511.519 1.92445 -0.28198 0
M  V30 5591 O 510.774 1.81557 0.730452 0
M  V30 5592 C 511.073 2.3359 -2.705 0
M  V30 5593 C 510.739 1.83574 -4.11839 0
M  V30 5594 C 509.401 1.69653 -4.50302 0
M  V30 5595 C 511.753 1.46193 -5.00277 0
M  V30 5596 C 509.081 1.16736 -5.74969 0
M  V30 5597 C 511.433 0.947265 -6.25468 0
M  V30 5598 C 510.097 0.794485 -6.62755 0
M  V30 5599 H 509.367 0.45742 -0.582965 0
M  V30 5600 H 512.014 0.549996 -1.83432 0
M  V30 5601 H 510.319 3.09401 -2.40371 0
M  V30 5602 H 512.016 2.91627 -2.75235 0
M  V30 5603 H 508.606 1.9537 -3.81482 0
M  V30 5604 H 512.79 1.55793 -4.71214 0
M  V30 5605 H 508.046 1.03623 -6.02555 0
M  V30 5606 H 512.22 0.648846 -6.93371 0
M  V30 5607 H 509.847 0.382271 -7.59238 0
M  V30 5608 N 511.423 1.38739 0.74761 0
M  V30 5609 C 512.653 1.3832 1.53464 0
M  V30 5610 C 513.061 -0.0273464 1.8918 0
M  V30 5611 O 512.404 -1.00588 1.53713 0
M  V30 5612 C 512.466 2.18007 2.85855 0
M  V30 5613 C 512.13 3.66762 2.72644 0
M  V30 5614 C 513.127 4.60124 2.42037 0
M  V30 5615 C 510.812 4.10193 2.89909 0
M  V30 5616 C 512.806 5.94897 2.28859 0
M  V30 5617 C 510.493 5.45045 2.7635 0
M  V30 5618 C 511.491 6.37211 2.45869 0
M  V30 5619 O 511.179 7.69581 2.3238 0
M  V30 5620 H 510.911 0.474718 0.481268 0
M  V30 5621 H 513.465 1.83012 0.932518 0
M  V30 5622 H 511.695 1.68043 3.48279 0
M  V30 5623 H 513.384 2.09921 3.47402 0
M  V30 5624 H 514.15 4.27874 2.28361 0
M  V30 5625 H 510.029 3.38797 3.1263 0
M  V30 5626 H 513.573 6.66802 2.04989 0
M  V30 5627 H 509.47 5.76889 2.89601 0
M  V30 5628 H 510.238 7.80169 2.47546 0
M  V30 5629 N 512.901 -0.976442 1.23707 0
M  V30 5630 C 513.811 -2.10359 1.03856 0
M  V30 5631 C 514.827 -1.73991 -0.0180919 0
M  V30 5632 O 516.003 -2.0061 0.178211 0
M  V30 5633 C 513.068 -3.40809 0.636387 0
M  V30 5634 C 512.129 -3.91179 1.76854 0
M  V30 5635 C 511.362 -5.15404 1.38546 0
M  V30 5636 O 511.585 -5.69754 0.27142 0
M  V30 5637 O 510.519 -5.5994 2.20797 0
M  V30 5638 H 514.345 -2.29997 1.98331 0
M  V30 5639 H 511.93 -1.08742 1.02448 0
M  V30 5640 H 513.812 -4.19269 0.423223 0
M  V30 5641 H 512.487 -3.22493 -0.279322 0
M  V30 5642 H 511.394 -3.13819 2.03638 0
M  V30 5643 H 512.727 -4.13958 2.6627 0
M  V30 5644 N 514.379 -1.04941 -1.1758 0
M  V30 5645 C 515.625 -0.759112 -1.88057 0
M  V30 5646 C 515.958 0.711918 -1.8068 0
M  V30 5647 O 515.233 1.52035 -1.21308 0
M  V30 5648 C 515.516 -1.237 -3.38187 0
M  V30 5649 C 515.369 -2.77078 -3.54327 0
M  V30 5650 C 516.688 -0.834014 -4.32125 0
M  V30 5651 H 513.807 -0.277237 -0.682868 0
M  V30 5652 H 516.449 -1.30296 -1.38286 0
M  V30 5653 H 514.599 -0.774337 -3.80705 0
M  V30 5654 H 516.271 -3.31449 -3.20842 0
M  V30 5655 H 514.514 -3.16477 -2.96689 0
M  V30 5656 H 515.185 -3.05577 -4.59703 0
M  V30 5657 H 517.661 -1.23228 -3.97434 0
M  V30 5658 H 516.537 -1.19603 -5.35711 0
M  V30 5659 H 516.798 0.262195 -4.41322 0
M  V30 5660 N 515.857 1.33968 -0.830081 0
M  V30 5661 C 517.134 1.92554 -0.343858 0
M  V30 5662 C 517.514 1.7573 1.16971 0
M  V30 5663 O 516.862 1.14035 1.98011 0
M  V30 5664 C 517.072 3.40147 -0.781073 0
M  V30 5665 C 518.42 4.17299 -0.78402 0
M  V30 5666 O 519.444 3.48762 -0.724112 0
M  V30 5667 O 518.303 5.39631 -0.863739 0
M  V30 5668 H 515.397 0.821469 -0.0954827 0
M  V30 5669 H 517.943 1.42897 -0.915348 0
M  V30 5670 H 516.715 3.46225 -1.82329 0
M  V30 5671 H 516.338 3.97166 -0.18567 0
M  V30 5672 N 517.335 0.585699 1.46312 0
M  V30 5673 C 518.565 0.0780166 2.06453 0
M  V30 5674 C 518.973 -1.2336 1.43454 0
M  V30 5675 O 518.316 -1.75734 0.535086 0
M  V30 5676 C 518.378 -0.158951 3.59148 0
M  V30 5677 C 518.042 1.06752 4.44357 0
M  V30 5678 C 519.039 1.98031 4.80708 0
M  V30 5679 C 516.724 1.2902 4.85447 0
M  V30 5680 C 518.718 3.09924 5.5698 0
M  V30 5681 C 516.405 2.41218 5.61478 0
M  V30 5682 C 517.403 3.31499 5.97158 0
M  V30 5683 O 517.091 4.41747 6.71651 0
M  V30 5684 H 516.823 0.0558894 0.673686 0
M  V30 5685 H 519.377 0.806994 1.88883 0
M  V30 5686 H 517.607 -0.942575 3.75037 0
M  V30 5687 H 519.296 -0.615513 4.01206 0
M  V30 5688 H 520.062 1.82043 4.49539 0
M  V30 5689 H 515.941 0.596567 4.57124 0
M  V30 5690 H 519.485 3.80415 5.84748 0
M  V30 5691 H 515.382 2.57167 5.9206 0
M  V30 5692 H 516.15 4.40152 6.90079 0
M  V30 5693 N 518.813 -1.54241 0.323641 0
M  V30 5694 C 519.761 -2.25813 -0.557804 0
M  V30 5695 C 520.755 -1.27225 -1.11849 0
M  V30 5696 O 521.961 -1.45001 -1.06652 0
M  V30 5697 H 518.336 -0.72532 -0.198532 0
M  V30 5698 H 520.307 -2.98322 0.0681112 0
M  V30 5699 C 519.056 -3.02913 -1.70701 0
M  V30 5700 H 518.379 -3.78593 -1.28482 0
M  V30 5701 H 519.819 -3.56238 -2.29935 0
M  V30 5702 C 518.278 -2.11217 -2.62467 0
M  V30 5703 O 518.808 -1.69508 -3.64184 0
M  V30 5704 N 517.014 -1.76704 -2.30703 0
M  V30 5705 H 516.561 -2.1082 -1.48029 0
M  V30 5706 H 516.519 -1.15631 -2.92364 0
M  V30 5707 N 520.291 -0.0518155 -1.57515 0
M  V30 5708 C 521.516 0.634896 -1.97443 0
M  V30 5709 C 521.941 1.63546 -0.929207 0
M  V30 5710 O 521.299 1.80981 0.107484 0
M  V30 5711 C 521.347 1.29765 -3.36442 0
M  V30 5712 O 520.451 2.41333 -3.34413 0
M  V30 5713 H 519.792 0.164994 -0.643174 0
M  V30 5714 H 522.322 -0.120407 -2.04245 0
M  V30 5715 H 522.332 1.64918 -3.73184 0
M  V30 5716 H 521.007 0.564361 -4.12053 0
M  V30 5717 H 519.584 2.08122 -3.09418 0
M  V30 5718 N 521.769 1.56035 0.221574 0
M  V30 5719 C 523.016 1.79047 0.94597 0
M  V30 5720 C 523.344 0.62057 1.84334 0
M  V30 5721 O 522.599 -0.395053 1.91671 0
M  V30 5722 C 522.898 3.07813 1.8162 0
M  V30 5723 C 522.564 4.3797 1.07206 0
M  V30 5724 C 521.226 4.73334 0.866508 0
M  V30 5725 C 523.578 5.18326 0.546565 0
M  V30 5726 C 520.906 5.8657 0.123549 0
M  V30 5727 C 523.258 6.32335 -0.18305 0
M  V30 5728 C 521.922 6.66301 -0.399861 0
M  V30 5729 H 521.192 0.655178 0.346155 0
M  V30 5730 H 523.839 1.90299 0.214146 0
M  V30 5731 H 522.144 2.91682 2.61589 0
M  V30 5732 H 523.841 3.2282 2.37884 0
M  V30 5733 H 520.431 4.10202 1.24226 0
M  V30 5734 H 524.615 4.9144 0.692847 0
M  V30 5735 H 519.871 6.11376 -0.0546591 0
M  V30 5736 H 524.045 6.9383 -0.59775 0
M  V30 5737 H 521.672 7.53889 -0.977489 0
M  V30 5738 N 523.247 -0.488276 1.49845 0
M  V30 5739 C 524.197 -1.58556 1.63842 0
M  V30 5740 C 525.181 -1.53142 0.493586 0
M  V30 5741 O 526.373 -1.60457 0.747169 0
M  V30 5742 C 523.502 -2.97101 1.72005 0
M  V30 5743 C 522.588 -3.07463 2.92108 0
M  V30 5744 N 522.979 -2.87681 4.16021 0
M  V30 5745 C 521.277 -3.3858 2.90309 0
M  V30 5746 C 521.978 -3.0256 4.96822 0
M  V30 5747 N 520.954 -3.32002 4.30437 0
M  V30 5748 H 524.756 -1.41935 2.57355 0
M  V30 5749 H 522.27 -0.694668 1.46793 0
M  V30 5750 H 524.267 -3.75976 1.80132 0
M  V30 5751 H 522.927 -3.14782 0.796375 0
M  V30 5752 H 523.938 -2.63603 4.45796 0
M  V30 5753 H 520.615 -3.62357 2.07372 0
M  V30 5754 H 522.005 -2.9165 6.05301 0
M  V30 5755 N 524.725 -1.39134 -0.740242 0
M  V30 5756 C 525.635 -1.39697 -1.88473 0
M  V30 5757 C 526.651 -0.292403 -1.71526 0
M  V30 5758 O 527.827 -0.533021 -1.94219 0
M  V30 5759 C 524.892 -1.23382 -3.24003 0
M  V30 5760 C 523.953 -2.43763 -3.53381 0
M  V30 5761 C 523.186 -2.28216 -4.82445 0
M  V30 5762 O 523.409 -1.28288 -5.55786 0
M  V30 5763 O 522.343 -3.1709 -5.11603 0
M  V30 5764 H 526.169 -2.36159 -1.90952 0
M  V30 5765 H 523.754 -1.20194 -0.887346 0
M  V30 5766 H 525.636 -1.16395 -4.05006 0
M  V30 5767 H 524.311 -0.300121 -3.22306 0
M  V30 5768 H 523.218 -2.56325 -2.72485 0
M  V30 5769 H 524.551 -3.35808 -3.59852 0
M  V30 5770 N 526.204 0.969867 -1.24223 0
M  V30 5771 C 527.432 1.74756 -1.10761 0
M  V30 5772 C 527.847 1.85713 0.340041 0
M  V30 5773 O 527.204 1.34389 1.23474 0
M  V30 5774 C 527.255 3.16915 -1.73917 0
M  V30 5775 O 526.976 3.06511 -3.13021 0
M  V30 5776 C 528.477 4.11032 -1.66036 0
M  V30 5777 H 525.697 0.548092 -0.387087 0
M  V30 5778 H 528.241 1.2178 -1.64286 0
M  V30 5779 H 526.396 3.66884 -1.244 0
M  V30 5780 H 526.81 3.96079 -3.43834 0
M  V30 5781 H 528.284 5.08446 -2.14911 0
M  V30 5782 H 528.761 4.34785 -0.621159 0
M  V30 5783 H 529.367 3.66972 -2.14969 0
M  V30 5784 N 527.682 1.05563 1.17022 0
M  V30 5785 C 528.912 0.787307 1.91011 0
M  V30 5786 C 529.32 -0.661256 1.77268 0
M  V30 5787 O 528.663 -1.46379 1.10991 0
M  V30 5788 C 528.725 1.09313 3.42478 0
M  V30 5789 C 528.389 2.53863 3.80004 0
M  V30 5790 C 529.386 3.52081 3.82538 0
M  V30 5791 C 527.071 2.88969 4.10855 0
M  V30 5792 C 529.065 4.83449 4.15399 0
M  V30 5793 C 526.752 4.2054 4.43384 0
M  V30 5794 C 527.75 5.17589 4.45635 0
M  V30 5795 O 527.438 6.46799 4.77395 0
M  V30 5796 H 527.17 0.285463 0.61277 0
M  V30 5797 H 529.724 1.41051 1.49311 0
M  V30 5798 H 527.954 0.412833 3.8449 0
M  V30 5799 H 529.643 0.810224 3.97731 0
M  V30 5800 H 530.409 3.26299 3.58823 0
M  V30 5801 H 526.288 2.1409 4.08272 0
M  V30 5802 H 529.832 5.59194 4.1707 0
M  V30 5803 H 525.729 4.46083 4.66563 0
M  V30 5804 H 526.497 6.51677 4.95237 0
M  V30 5805 N 529.16 -1.33526 0.837174 0
M  V30 5806 C 530.07 -2.33023 0.271568 0
M  V30 5807 C 531.086 -1.63272 -0.601514 0
M  V30 5808 O 532.262 -1.94939 -0.506038 0
M  V30 5809 C 529.327 -3.42382 -0.545448 0
M  V30 5810 C 528.388 -4.27857 0.351709 0
M  V30 5811 C 527.621 -5.31994 -0.426409 0
M  V30 5812 O 527.844 -5.45763 -1.65828 0
M  V30 5813 O 526.778 -6.01572 0.1987 0
M  V30 5814 H 530.604 -2.83256 1.09545 0
M  V30 5815 H 528.189 -1.36837 0.599655 0
M  V30 5816 H 530.071 -4.09122 -1.00979 0
M  V30 5817 H 528.746 -2.94369 -1.34641 0
M  V30 5818 H 527.653 -3.6399 0.863853 0
M  V30 5819 H 528.986 -4.79349 1.1174 0
M  V30 5820 N 530.638 -0.59345 -1.46 0
M  V30 5821 C 531.866 -0.0890934 -2.06708 0
M  V30 5822 C 532.281 1.2205 -1.44046 0
M  V30 5823 O 531.638 1.74029 -0.549551 0
M  V30 5824 C 531.689 0.0720263 -3.61428 0
M  V30 5825 O 531.41 -1.18574 -4.21748 0
M  V30 5826 C 532.911 0.609487 -4.3909 0
M  V30 5827 H 530.131 -0.0623628 -0.668096 0
M  V30 5828 H 532.675 -0.817171 -1.87464 0
M  V30 5829 H 530.83 0.750369 -3.80063 0
M  V30 5830 H 531.244 -1.0064 -5.14754 0
M  V30 5831 H 532.718 0.671363 -5.47902 0
M  V30 5832 H 533.195 1.62878 -4.07882 0
M  V30 5833 H 533.801 -0.03434 -4.25286 0
M  V30 5834 N 532.116 1.54067 -0.331816 0
M  V30 5835 C 533.341 2.05599 0.272705 0
M  V30 5836 C 533.766 1.2059 1.44359 0
M  V30 5837 O 533.124 0.216907 1.79998 0
M  V30 5838 C 533.172 3.54188 0.677021 0
M  V30 5839 O 532.276 3.72082 1.77844 0
M  V30 5840 H 531.617 0.662286 0.0476801 0
M  V30 5841 H 534.147 1.98826 -0.482624 0
M  V30 5842 H 534.157 3.96608 0.957415 0
M  V30 5843 H 532.832 4.15513 -0.179325 0
M  V30 5844 H 531.409 3.41566 1.49622 0
M  V30 5845 N 533.594 0.0601682 1.57485 0
M  V30 5846 C 534.822 -0.620937 1.97363 0
M  V30 5847 C 535.237 -1.63846 0.938082 0
M  V30 5848 O 534.594 -1.82339 -0.0766578 0
M  V30 5849 C 534.645 -1.29987 3.37321 0
M  V30 5850 O 534.366 -0.323081 4.36907 0
M  V30 5851 C 535.867 -2.06989 3.92008 0
M  V30 5852 H 533.087 -0.169135 0.649334 0
M  V30 5853 H 535.631 0.129132 2.04092 0
M  V30 5854 H 533.786 -2.0011 3.31715 0
M  V30 5855 H 534.2 -0.808754 5.18227 0
M  V30 5856 H 535.674 -2.49901 4.92192 0
M  V30 5857 H 536.151 -2.92173 3.2792 0
M  V30 5858 H 536.757 -1.41757 4.0098 0
M  V30 5859 N 535.072 -1.5615 -0.213296 0
M  V30 5860 C 536.483 -1.69645 -0.779582 0
M  V30 5861 C 536.834 -0.663615 -1.84636 0
M  V30 5862 O 535.959 0.183633 -2.15619 0
M  V30 5863 C 536.554 -3.07567 -1.42084 0
M  V30 5864 C 535.113 -3.22889 -1.93442 0
M  V30 5865 C 534.26 -2.65581 -0.797612 0
M  V30 5866 H 537.211 -1.58696 0.0114951 0
M  V30 5867 H 537.232 -3.03884 -2.28986 0
M  V30 5868 H 536.744 -3.82716 -0.644187 0
M  V30 5869 H 534.845 -2.52623 -2.73884 0
M  V30 5870 H 534.958 -4.30197 -2.10872 0
M  V30 5871 H 533.322 -2.24278 -1.20712 0
M  V30 5872 H 534.105 -3.43284 -0.033494 0
M  V30 5873 N 536.55 0.480323 -1.50102 0
M  V30 5874 C 537.775 1.26126 -1.64642 0
M  V30 5875 C 538.2 1.85257 -0.325823 0
M  V30 5876 O 537.558 1.66854 0.709194 0
M  V30 5877 C 537.606 2.35243 -2.73301 0
M  V30 5878 O 536.71 3.39646 -2.33911 0
M  V30 5879 H 536.051 0.371463 -0.550374 0
M  V30 5880 H 538.581 0.572696 -1.96421 0
M  V30 5881 H 538.591 2.80695 -2.96098 0
M  V30 5882 H 537.266 1.91574 -3.6915 0
M  V30 5883 H 535.843 2.99969 -2.21525 0
M  V30 5884 N 538.028 1.39524 0.732853 0
M  V30 5885 C 538.958 1.41153 1.86005 0
M  V30 5886 C 539.939 0.274614 1.67869 0
M  V30 5887 O 541.124 0.480745 1.88155 0
M  V30 5888 C 538.254 1.25638 3.23778 0
M  V30 5889 C 537.208 2.36752 3.56556 0
M  V30 5890 C 536.534 2.06326 4.93289 0
M  V30 5891 C 537.834 3.79069 3.5931 0
M  V30 5892 H 539.528 2.35484 1.84899 0
M  V30 5893 H 537.074 1.13348 0.888162 0
M  V30 5894 H 539.027 1.25398 4.0231 0
M  V30 5895 H 537.751 0.277772 3.25417 0
M  V30 5896 H 536.41 2.36213 2.80355 0
M  V30 5897 H 536.058 1.06897 4.9151 0
M  V30 5898 H 535.758 2.80757 5.16187 0
M  V30 5899 H 537.282 2.07739 5.74175 0
M  V30 5900 H 538.696 3.81526 4.27914 0
M  V30 5901 H 537.093 4.52878 3.93728 0
M  V30 5902 H 538.163 4.09893 2.59068 0
M  V30 5903 N 539.506 -0.963266 1.24736 0
M  V30 5904 C 540.731 -1.74699 1.11781 0
M  V30 5905 C 541.156 -1.85267 -0.325258 0
M  V30 5906 O 540.514 -1.32681 -1.23553 0
M  V30 5907 C 540.562 -3.14322 1.76731 0
M  V30 5908 O 539.666 -3.99043 1.04109 0
M  V30 5909 H 539.007 -0.53684 0.390767 0
M  V30 5910 H 541.537 -1.20801 1.65131 0
M  V30 5911 H 541.547 -3.64824 1.82668 0
M  V30 5912 H 540.222 -3.05946 2.81726 0
M  V30 5913 H 538.799 -3.5752 1.05991 0
M  V30 5914 N 540.985 -1.06182 -1.16461 0
M  V30 5915 C 541.948 -0.675723 -2.19013 0
M  V30 5916 C 542.948 0.277963 -1.58379 0
M  V30 5917 O 544.138 0.0604962 -1.74095 0
M  V30 5918 C 541.27 0.00591459 -3.40899 0
M  V30 5919 H 542.463 -1.58353 -2.54685 0
M  V30 5920 H 540.016 -0.856908 -1.30716 0
M  V30 5921 H 540.751 0.92652 -3.10783 0
M  V30 5922 H 540.536 -0.67984 -3.86161 0
M  V30 5923 H 542.026 0.26181 -4.16778 0
M  V30 5924 N 542.463 1.3308 -0.844243 0
M  V30 5925 C 543.41 2.29104 -0.279323 0
M  V30 5926 C 544.38 1.54577 0.607882 0
M  V30 5927 O 545.565 1.8285 0.545009 0
M  V30 5928 C 542.705 3.40927 0.53508 0
M  V30 5929 C 541.818 4.30354 -0.376749 0
M  V30 5930 C 540.953 5.29297 0.449276 0
M  V30 5931 C 539.992 6.10365 -0.460606 0
M  V30 5932 N 539.129 7.01335 0.327612 0
M  V30 5933 H 543.969 2.76817 -1.10346 0
M  V30 5934 H 541.506 1.36203 -0.555611 0
M  V30 5935 H 543.464 4.04469 1.02278 0
M  V30 5936 H 542.094 2.94391 1.32414 0
M  V30 5937 H 541.146 3.67485 -0.982791 0
M  V30 5938 H 542.458 4.87067 -1.07549 0
M  V30 5939 H 541.612 5.98392 1.00058 0
M  V30 5940 H 540.351 4.73174 1.18143 0
M  V30 5941 H 539.356 5.40182 -1.02388 0
M  V30 5942 H 540.581 6.68571 -1.1912 0
M  V30 5943 H 538.527 6.47655 1.04305 0
M  V30 5944 H 538.444 7.55355 -0.3123 0
M  V30 5945 H 539.712 7.74731 0.86098 0
M  V30 5946 N 543.941 0.601185 1.45683 0
M  V30 5947 C 544.851 -0.123395 2.34275 0
M  V30 5948 C 545.867 -0.86702 1.5086 0
M  V30 5949 O 547.043 -0.826049 1.8368 0
M  V30 5950 C 544.108 -1.11237 3.2837 0
M  V30 5951 C 543.169 -0.371405 4.2769 0
M  V30 5952 C 542.402 -1.31327 5.1729 0
M  V30 5953 O 542.625 -2.55078 5.10188 0
M  V30 5954 O 541.559 -0.813811 5.96373 0
M  V30 5955 H 545.385 0.604483 2.97623 0
M  V30 5956 H 542.97 0.361477 1.44961 0
M  V30 5957 H 544.852 -1.68214 3.8637 0
M  V30 5958 H 543.527 -1.82139 2.67595 0
M  V30 5959 H 542.434 0.24067 3.73325 0
M  V30 5960 H 543.767 0.296998 4.91303 0
M  V30 5961 N 545.419 -1.53889 0.339982 0
M  V30 5962 C 546.349 -2.27843 -0.510856 0
M  V30 5963 C 547.33 -1.29267 -1.10563 0
M  V30 5964 O 548.515 -1.58104 -1.12768 0
M  V30 5965 C 545.645 -3.04857 -1.66372 0
M  V30 5966 C 544.599 -4.10907 -1.19746 0
M  V30 5967 C 543.925 -4.75855 -2.43857 0
M  V30 5968 C 545.225 -5.21435 -0.300501 0
M  V30 5969 H 546.919 -2.99212 0.106067 0
M  V30 5970 H 544.465 -1.43904 0.0524533 0
M  V30 5971 H 546.418 -3.5533 -2.26537 0
M  V30 5972 H 545.142 -2.31133 -2.30749 0
M  V30 5973 H 543.801 -3.61342 -0.618654 0
M  V30 5974 H 543.449 -3.9873 -3.06633 0
M  V30 5975 H 543.149 -5.47502 -2.13343 0
M  V30 5976 H 544.673 -5.2911 -3.04754 0
M  V30 5977 H 546.087 -5.67565 -0.80889 0
M  V30 5978 H 544.484 -6.00036 -0.0874076 0
M  V30 5979 H 545.554 -4.80328 0.664321 0
M  V30 5980 N 546.897 -0.0685191 -1.57451 0
M  V30 5981 C 547.86 0.885173 -2.11417 0
M  V30 5982 C 548.86 1.22853 -1.03748 0
M  V30 5983 O 550.05 1.16235 -1.2975 0
M  V30 5984 C 547.182 2.18964 -2.61281 0
M  V30 5985 H 548.375 0.417034 -2.96986 0
M  V30 5986 H 545.928 0.18014 -1.55258 0
M  V30 5987 H 546.663 2.70321 -1.79156 0
M  V30 5988 H 546.448 1.9534 -3.39977 0
M  V30 5989 H 547.938 2.87242 -3.0312 0
M  V30 5990 N 548.375 1.56261 0.205012 0
M  V30 5991 C 549.285 1.96944 1.27476 0
M  V30 5992 C 550.301 0.875636 1.50362 0
M  V30 5993 O 551.477 1.18058 1.6317 0
M  V30 5994 C 548.542 2.29219 2.60115 0
M  V30 5995 C 547.603 3.52255 2.45387 0
M  V30 5996 C 546.836 3.8298 3.71701 0
M  V30 5997 O 547.059 3.15138 4.75441 0
M  V30 5998 O 545.993 4.76435 3.67823 0
M  V30 5999 H 549.819 2.88144 0.959527 0
M  V30 6000 H 547.404 1.43686 0.409217 0
M  V30 6001 H 549.286 2.51098 3.3842 0
M  V30 6002 H 547.961 1.4119 2.91285 0
M  V30 6003 H 546.868 3.35635 1.65227 0
M  V30 6004 H 548.201 4.40719 2.19152 0
M  V30 6005 N 549.853 -0.472356 1.50355 0
M  V30 6006 C 550.783 -1.57859 1.72055 0
M  V30 6007 C 551.764 -1.60283 0.569505 0
M  V30 6008 O 552.949 -1.7657 0.808503 0
M  V30 6009 C 550.079 -2.96191 1.81351 0
M  V30 6010 C 549.033 -3.08633 2.96529 0
M  V30 6011 C 548.359 -4.486 2.90968 0
M  V30 6012 C 549.659 -2.85969 4.37057 0
M  V30 6013 H 551.353 -1.39953 2.64676 0
M  V30 6014 H 548.899 -0.671846 1.27367 0
M  V30 6015 H 550.852 -3.73507 1.95117 0
M  V30 6016 H 549.576 -3.15251 0.853502 0
M  V30 6017 H 548.235 -2.33749 2.82413 0
M  V30 6018 H 547.883 -4.64577 1.92815 0
M  V30 6019 H 547.583 -4.57861 3.68289 0
M  V30 6020 H 549.107 -5.27938 3.0678 0
M  V30 6021 H 550.521 -3.53036 4.51706 0
M  V30 6022 H 548.918 -3.06677 5.15819 0
M  V30 6023 H 549.988 -1.81838 4.49514 0
M  V30 6024 N 551.331 -1.39911 -0.725443 0
M  V30 6025 C 552.294 -1.39156 -1.82121 0
M  V30 6026 C 553.294 -0.287018 -1.58218 0
M  V30 6027 O 554.484 -0.545421 -1.65441 0
M  V30 6028 C 551.616 -1.1736 -3.20062 0
M  V30 6029 H 552.809 -2.36672 -1.84191 0
M  V30 6030 H 550.362 -1.25615 -0.930079 0
M  V30 6031 H 551.097 -0.205648 -3.23647 0
M  V30 6032 H 550.882 -1.97358 -3.3881 0
M  V30 6033 H 552.372 -1.19596 -4.00108 0
M  V30 6034 N 552.809 0.956637 -1.25245 0
M  V30 6035 C 554.034 1.74104 -1.12706 0
M  V30 6036 C 554.459 1.85436 0.315429 0
M  V30 6037 O 553.817 1.33334 1.22848 0
M  V30 6038 C 553.865 3.1338 -1.78396 0
M  V30 6039 O 552.969 3.98485 -1.06224 0
M  V30 6040 H 552.31 0.53476 -0.393609 0
M  V30 6041 H 554.84 1.19924 -1.65769 0
M  V30 6042 H 554.85 3.6385 -1.846 0
M  V30 6043 H 553.525 3.04448 -2.83345 0
M  V30 6044 H 552.102 3.56952 -1.07886 0
M  V30 6045 N 554.287 1.06798 1.15896 0
M  V30 6046 C 555.703 0.792423 1.38538 0
M  V30 6047 C 555.903 -0.60592 1.92174 0
M  V30 6048 O 554.959 -1.36561 2.12385 0
M  V30 6049 C 556.272 1.86157 2.36149 0
M  V30 6050 C 557.82 1.88567 2.49823 0
M  V30 6051 C 558.295 2.9455 3.5072 0
M  V30 6052 N 559.786 2.93616 3.58251 0
M  V30 6053 C 560.521 3.72267 4.36125 0
M  V30 6054 N 560.017 4.60751 5.17379 0
M  V30 6055 N 561.81 3.60637 4.31158 0
M  V30 6056 H 553.961 1.96993 0.794198 0
M  V30 6057 H 556.224 0.853942 0.411688 0
M  V30 6058 H 555.93 2.86603 2.03843 0
M  V30 6059 H 555.804 1.71692 3.3586 0
M  V30 6060 H 558.191 0.887765 2.8143 0
M  V30 6061 H 558.272 2.0711 1.5013 0
M  V30 6062 H 557.916 3.94537 3.19849 0
M  V30 6063 H 557.846 2.73255 4.50155 0
M  V30 6064 H 560.337 2.29472 3.00252 0
M  V30 6065 H 560.65 5.17408 5.74028 0
M  V30 6066 H 558.995 4.64803 5.16704 0
M  V30 6067 H 562.186 2.90892 3.66742 0
M  V30 6068 H 562.359 4.22176 4.91601 0
M  V30 6069 N 555.766 -1.3263 0.851289 0
M  V30 6070 C 556.729 -2.27247 0.298541 0
M  V30 6071 C 557.729 -1.51467 -0.539847 0
M  V30 6072 O 558.919 -1.7061 -0.351843 0
M  V30 6073 C 556.051 -3.35964 -0.578004 0
M  V30 6074 H 557.244 -2.7765 1.13359 0
M  V30 6075 H 554.797 -1.43245 0.625354 0
M  V30 6076 H 555.532 -2.90823 -1.435 0
M  V30 6077 H 555.317 -3.92094 0.0220539 0
M  V30 6078 H 556.807 -4.06472 -0.957626 0
M  V30 6079 N 557.244 -0.608902 -1.45362 0
M  V30 6080 C 558.154 0.110969 -2.34337 0
M  V30 6081 C 559.17 0.859007 -1.51318 0
M  V30 6082 O 560.346 0.816296 -1.84116 0
M  V30 6083 C 557.411 1.09494 -3.28956 0
M  V30 6084 C 556.472 0.348718 -4.27881 0
M  V30 6085 C 555.705 1.28582 -5.17979 0
M  V30 6086 O 555.928 2.52369 -5.11533 0
M  V30 6087 O 554.862 0.782172 -5.96796 0
M  V30 6088 H 558.688 -0.620258 -2.97299 0
M  V30 6089 H 556.273 -0.36916 -1.44767 0
M  V30 6090 H 558.155 1.66163 -3.87257 0
M  V30 6091 H 556.83 1.80717 -2.68557 0
M  V30 6092 H 555.737 -0.260465 -3.73192 0
M  V30 6093 H 557.07 -0.323049 -4.91139 0
M  V30 6094 N 558.722 1.53707 -0.348139 0
M  V30 6095 C 559.652 2.28111 0.498766 0
M  V30 6096 C 560.633 1.29851 1.09876 0
M  V30 6097 O 561.818 1.587 1.11928 0
M  V30 6098 C 558.948 3.05735 1.64753 0
M  V30 6099 C 557.902 4.11537 1.17565 0
M  V30 6100 C 557.228 4.77142 2.4133 0
M  V30 6101 C 558.528 5.21587 0.272844 0
M  V30 6102 H 560.222 2.99152 -0.121934 0
M  V30 6103 H 557.768 1.43875 -0.0600842 0
M  V30 6104 H 559.721 3.56526 2.24649 0
M  V30 6105 H 558.445 2.32354 2.2952 0
M  V30 6106 H 557.104 3.61665 0.599483 0
M  V30 6107 H 556.752 4.0035 3.04514 0
M  V30 6108 H 556.452 5.48626 2.10436 0
M  V30 6109 H 557.976 5.30719 3.01943 0
M  V30 6110 H 559.39 5.67986 0.778779 0
M  V30 6111 H 557.787 6.00074 0.0555849 0
M  V30 6112 H 558.857 4.79969 -0.689785 0
M  V30 6113 N 560.2 0.0768682 1.57412 0
M  V30 6114 C 561.611 -0.455037 1.8107 0
M  V30 6115 C 561.962 -1.69323 0.991162 0
M  V30 6116 O 561.087 -2.15328 0.215156 0
M  V30 6117 C 561.682 -0.832316 3.28417 0
M  V30 6118 C 560.241 -1.30906 3.52903 0
M  V30 6119 C 559.388 -0.296714 2.75708 0
M  V30 6120 H 562.339 0.302514 1.5579 0
M  V30 6121 H 562.36 -1.69333 3.40744 0
M  V30 6122 H 561.872 0.0690532 3.88039 0
M  V30 6123 H 559.973 -2.22875 2.98592 0
M  V30 6124 H 560.086 -1.28348 4.61588 0
M  V30 6125 H 558.45 -0.775059 2.42621 0
M  V30 6126 H 559.233 0.597015 3.38069 0
M  V30 6127 N 561.678 -1.56367 -0.196722 0
M  V30 6128 C 562.608 -1.97442 -1.24655 0
M  V30 6129 C 563.589 -0.846147 -1.47561 0
M  V30 6130 O 564.774 -1.11035 -1.59326 0
M  V30 6131 C 561.904 -2.31253 -2.59112 0
M  V30 6132 C 560.858 -3.46804 -2.50821 0
M  V30 6133 C 560.184 -3.66286 -3.89536 0
M  V30 6134 C 561.484 -4.8104 -2.03465 0
M  V30 6135 H 563.178 -2.85388 -0.905216 0
M  V30 6136 H 560.724 -1.37304 -0.434002 0
M  V30 6137 H 562.677 -2.58583 -3.32736 0
M  V30 6138 H 561.401 -1.40188 -2.94983 0
M  V30 6139 H 560.06 -3.19563 -1.79653 0
M  V30 6140 H 559.708 -2.72555 -4.22756 0
M  V30 6141 H 559.408 -4.4402 -3.84864 0
M  V30 6142 H 560.932 -3.9599 -4.64784 0
M  V30 6143 H 562.346 -5.07411 -2.66846 0
M  V30 6144 H 560.743 -5.62232 -2.09798 0
M  V30 6145 H 561.813 -4.74732 -0.98781 0
M  V30 6146 N 563.156 0.464375 -1.50603 0
M  V30 6147 C 564.381 1.24372 -1.65971 0
M  V30 6148 C 564.806 1.84901 -0.345453 0
M  V30 6149 O 564.164 1.67596 0.691457 0
M  V30 6150 C 564.212 2.32331 -2.7578 0
M  V30 6151 O 563.316 3.37146 -2.375 0
M  V30 6152 H 562.657 0.365604 -0.554283 0
M  V30 6153 H 565.187 0.55183 -1.97018 0
M  V30 6154 H 565.197 2.77539 -2.99059 0
M  V30 6155 H 563.872 1.87648 -3.71162 0
M  V30 6156 H 562.449 2.97602 -2.24694 0
M  V30 6157 N 564.634 1.40294 0.718013 0
M  V30 6158 C 565.88 1.39648 1.47885 0
M  V30 6159 C 566.235 -0.0023879 1.924 0
M  V30 6160 O 565.528 -0.972304 1.65096 0
M  V30 6161 C 565.722 2.31814 2.72024 0
M  V30 6162 C 565.551 3.80523 2.3965 0
M  V30 6163 C 564.321 4.49351 2.3111 0
M  V30 6164 C 566.519 4.72077 2.04079 0
M  V30 6165 N 564.501 5.83305 1.91385 0
M  V30 6166 C 565.872 5.94809 1.74935 0
M  V30 6167 C 567.927 4.59935 1.90694 0
M  V30 6168 C 566.63 7.06755 1.33753 0
M  V30 6169 C 568.656 5.7182 1.50915 0
M  V30 6170 C 568.018 6.93637 1.22668 0
M  V30 6171 H 564.117 0.566263 0.539324 0
M  V30 6172 H 566.701 1.75986 0.832891 0
M  V30 6173 H 564.872 1.97607 3.34374 0
M  V30 6174 H 566.604 2.22042 3.38348 0
M  V30 6175 H 563.359 4.03002 2.4877 0
M  V30 6176 H 563.783 6.54239 1.74068 0
M  V30 6177 H 568.425 3.66274 2.11194 0
M  V30 6178 H 566.143 8.00302 1.11995 0
M  V30 6179 H 569.729 5.64421 1.4114 0
M  V30 6180 H 568.609 7.78743 0.923502 0
M  V30 6181 N 566.112 -0.949982 1.2575 0
M  V30 6182 C 567.337 -1.73503 1.13628 0
M  V30 6183 C 567.762 -1.85601 -0.30559 0
M  V30 6184 O 567.12 -1.33984 -1.22139 0
M  V30 6185 C 567.168 -3.1243 1.80055 0
M  V30 6186 O 566.272 -3.97916 1.08336 0
M  V30 6187 H 565.613 -0.532665 0.396439 0
M  V30 6188 H 568.143 -1.19043 1.66403 0
M  V30 6189 H 568.153 -3.62866 1.86527 0
M  V30 6190 H 566.828 -3.02941 2.84956 0
M  V30 6191 H 565.405 -3.56375 1.09777 0
M  V30 6192 N 567.59 -1.07411 -1.15328 0
M  V30 6193 C 568.836 -0.798831 -1.86404 0
M  V30 6194 C 569.169 0.673433 -1.8215 0
M  V30 6195 O 568.444 1.49428 -1.24505 0
M  V30 6196 C 568.727 -1.30846 -3.35487 0
M  V30 6197 C 568.58 -2.84532 -3.4837 0
M  V30 6198 C 569.899 -0.925486 -4.30259 0
M  V30 6199 H 567.018 -0.291659 -0.676834 0
M  V30 6200 H 569.66 -1.332 -1.35491 0
M  V30 6201 H 567.81 -0.854916 -3.78977 0
M  V30 6202 H 569.482 -3.3818 -3.13739 0
M  V30 6203 H 567.725 -3.22699 -2.8991 0
M  V30 6204 H 568.396 -3.15259 -4.53118 0
M  V30 6205 H 570.872 -1.3163 -3.94731 0
M  V30 6206 H 569.748 -1.3094 -5.33053 0
M  V30 6207 H 570.009 0.168525 -4.41779 0
M  V30 6208 N 569.068 1.32177 -0.85831 0
M  V30 6209 C 570.293 2.01847 -0.476718 0
M  V30 6210 C 570.718 1.64065 0.920021 0
M  V30 6211 O 570.076 0.843189 1.60499 0
M  V30 6212 C 570.124 3.55097 -0.627578 0
M  V30 6213 O 569.228 4.11012 0.338086 0
M  V30 6214 H 568.569 0.635907 -0.191099 0
M  V30 6215 H 571.099 1.68641 -1.15851 0
M  V30 6216 H 571.109 4.04718 -0.516476 0
M  V30 6217 H 569.784 3.81938 -1.64609 0
M  V30 6218 H 568.361 3.72451 0.182917 0
M  V30 6219 N 570.547 0.616602 1.45037 0
M  V30 6220 C 571.772 0.120192 2.07051 0
M  V30 6221 C 572.197 -1.19008 1.45666 0
M  V30 6222 O 571.555 -1.7267 0.552692 0
M  V30 6223 C 571.603 0.00354901 3.606 0
M  V30 6224 O 570.707 -1.04431 3.98958 0
M  V30 6225 H 570.048 0.0781599 0.659384 0
M  V30 6226 H 572.578 0.849167 1.86146 0
M  V30 6227 H 572.588 -0.191754 4.07549 0
M  V30 6228 H 571.263 0.960239 4.04663 0
M  V30 6229 H 569.84 -0.824749 3.63665 0
M  V30 6230 N 572.025 -1.5352 0.356285 0
M  V30 6231 C 572.972 -2.25439 -0.494569 0
M  V30 6232 C 573.942 -1.25752 -1.08516 0
M  V30 6233 O 575.127 -1.54513 -1.1194 0
M  V30 6234 C 572.267 -3.04011 -1.63313 0
M  V30 6235 C 571.38 -4.18574 -1.06862 0
M  V30 6236 C 570.515 -4.84607 -2.17552 0
M  V30 6237 C 569.554 -5.91218 -1.58518 0
M  V30 6238 N 568.691 -6.50979 -2.63003 0
M  V30 6239 H 573.531 -2.97737 0.125244 0
M  V30 6240 H 571.068 -1.46916 0.0735789 0
M  V30 6241 H 573.026 -3.47834 -2.30363 0
M  V30 6242 H 571.656 -2.33986 -2.22374 0
M  V30 6243 H 570.708 -3.79303 -0.288672 0
M  V30 6244 H 572.02 -4.95215 -0.596924 0
M  V30 6245 H 571.174 -5.31566 -2.92442 0
M  V30 6246 H 569.913 -4.07418 -2.6807 0
M  V30 6247 H 568.918 -5.4363 -0.821391 0
M  V30 6248 H 570.143 -6.70322 -1.08836 0
M  V30 6249 H 568.089 -5.76648 -3.12751 0
M  V30 6250 H 568.006 -7.23131 -2.20493 0
M  V30 6251 H 569.274 -7.02589 -3.37623 0
M  V30 6252 N 573.503 -0.0852151 -1.57369 0
M  V30 6253 C 574.433 0.874556 -2.16503 0
M  V30 6254 C 575.414 1.30111 -1.09568 0
M  V30 6255 O 576.599 1.36977 -1.37662 0
M  V30 6256 C 573.729 2.13731 -2.73745 0
M  V30 6257 C 572.683 1.84971 -3.85966 0
M  V30 6258 C 572.009 3.17991 -4.29867 0
M  V30 6259 C 573.309 1.14442 -5.09608 0
M  V30 6260 H 575.003 0.381899 -2.96954 0
M  V30 6261 H 572.549 0.18225 -1.42842 0
M  V30 6262 H 574.502 2.81302 -3.13763 0
M  V30 6263 H 573.226 2.65263 -1.90534 0
M  V30 6264 H 571.885 1.19801 -3.46473 0
M  V30 6265 H 571.533 3.6739 -3.4356 0
M  V30 6266 H 571.233 2.99534 -5.05523 0
M  V30 6267 H 572.757 3.86737 -4.72511 0
M  V30 6268 H 574.171 1.72105 -5.46857 0
M  V30 6269 H 572.568 1.06197 -5.90629 0
M  V30 6270 H 573.638 0.12559 -4.84737 0
M  V30 6271 N 574.981 1.5647 0.188427 0
M  V30 6272 C 575.929 1.95971 1.25293 0
M  V30 6273 C 576.923 0.846047 1.4676 0
M  V30 6274 O 578.129 1.03109 1.47542 0
M  V30 6275 H 574.504 0.623253 0.420784 0
M  V30 6276 H 576.475 2.84731 0.892792 0
M  V30 6277 C 575.224 2.32116 2.58877 0
M  V30 6278 H 574.547 3.17341 2.43176 0
M  V30 6279 H 575.987 2.63613 3.3209 0
M  V30 6280 C 574.446 1.15823 3.16365 0
M  V30 6281 O 574.976 0.436785 3.99318 0
M  V30 6282 N 573.182 0.933278 2.75206 0
M  V30 6283 H 572.729 1.52169 2.07852 0
M  V30 6284 H 572.687 0.156976 3.14008 0
M  V30 6285 N 576.459 -0.456382 1.50847 0
M  V30 6286 C 577.391 -1.57033 1.66953 0
M  V30 6287 C 578.404 -1.53207 0.550593 0
M  V30 6288 O 579.593 -1.58328 0.824285 0
M  V30 6289 C 576.693 -2.95937 1.65149 0
M  V30 6290 C 575.866 -3.24475 2.93317 0
M  V30 6291 C 574.925 -4.43007 2.83957 0
M  V30 6292 O 573.951 -4.42592 3.57912 0
M  V30 6293 N 575.153 -5.45503 1.9851 0
M  V30 6294 H 577.918 -1.43629 2.63042 0
M  V30 6295 H 575.479 -0.645037 1.48495 0
M  V30 6296 H 577.471 -3.73224 1.56481 0
M  V30 6297 H 576.041 -3.03036 0.767343 0
M  V30 6298 H 575.261 -2.35664 3.16 0
M  V30 6299 H 576.549 -3.4036 3.78196 0
M  V30 6300 H 575.947 -5.48668 1.37766 0
M  V30 6301 H 574.504 -6.21716 1.95735 0
M  V30 6302 N 577.937 -1.40673 -0.710563 0
M  V30 6303 C 578.887 -1.37812 -1.81636 0
M  V30 6304 C 579.871 -0.254853 -1.58869 0
M  V30 6305 O 581.063 -0.494356 -1.69956 0
M  V30 6306 C 578.192 -1.24802 -3.19811 0
M  V30 6307 C 577.278 -2.41931 -3.48325 0
M  V30 6308 N 577.669 -3.67411 -3.47625 0
M  V30 6309 C 575.967 -2.35419 -3.78806 0
M  V30 6310 C 576.668 -4.45008 -3.74623 0
M  V30 6311 N 575.644 -3.74916 -3.93623 0
M  V30 6312 H 579.446 -2.32766 -1.79436 0
M  V30 6313 H 576.96 -1.34516 -0.909909 0
M  V30 6314 H 578.957 -1.20835 -3.99004 0
M  V30 6315 H 577.617 -0.308202 -3.23234 0
M  V30 6316 H 578.628 -4.00503 -3.28356 0
M  V30 6317 H 575.305 -1.4983 -3.89689 0
M  V30 6318 H 576.695 -5.53884 -3.80344 0
M  V30 6319 N 579.415 0.9433 -1.26252 0
M  V30 6320 C 580.378 2.02326 -1.07689 0
M  V30 6321 C 581.378 1.60779 -0.0259174 0
M  V30 6322 O 582.568 1.72108 -0.269134 0
M  V30 6323 C 579.7 3.34886 -0.63752 0
M  V30 6324 H 580.893 2.20225 -2.0357 0
M  V30 6325 H 578.446 1.12197 -1.08819 0
M  V30 6326 H 579.181 3.22684 0.323377 0
M  V30 6327 H 578.966 3.66393 -1.39637 0
M  V30 6328 H 580.456 4.14231 -0.529418 0
M  V30 6329 N 580.893 1.08022 1.14757 0
M  V30 6330 C 581.803 0.718292 2.23333 0
M  V30 6331 C 582.819 -0.273477 1.71837 0
M  V30 6332 O 583.995 -0.118406 2.01052 0
M  V30 6333 C 581.06 0.128855 3.4646 0
M  V30 6334 C 580.121 1.17473 4.12915 0
M  V30 6335 C 579.354 0.61333 5.30164 0
M  V30 6336 O 579.577 -0.568458 5.6756 0
M  V30 6337 O 578.511 1.3615 5.86299 0
M  V30 6338 H 582.337 1.62394 2.56636 0
M  V30 6339 H 579.922 0.853628 1.22611 0
M  V30 6340 H 581.804 -0.197249 4.20938 0
M  V30 6341 H 580.479 -0.750014 3.14891 0
M  V30 6342 H 579.386 1.5533 3.40328 0
M  V30 6343 H 580.719 2.02574 4.48581 0
M  V30 6344 N 582.371 -1.3172 0.865308 0
M  V30 6345 C 583.301 -2.31109 0.333302 0
M  V30 6346 C 584.282 -1.60148 -0.573301 0
M  V30 6347 O 585.467 -1.87882 -0.491305 0
M  V30 6348 C 582.597 -3.44104 -0.470078 0
M  V30 6349 C 581.551 -4.26623 0.343021 0
M  V30 6350 C 580.877 -5.31482 -0.585756 0
M  V30 6351 C 582.177 -4.98001 1.57456 0
M  V30 6352 H 583.871 -2.75855 1.1638 0
M  V30 6353 H 581.417 -1.3262 0.561069 0
M  V30 6354 H 583.37 -4.12682 -0.852752 0
M  V30 6355 H 582.094 -2.98112 -1.33404 0
M  V30 6356 H 580.753 -3.59707 0.707583 0
M  V30 6357 H 580.401 -4.81741 -1.44686 0
M  V30 6358 H 580.101 -5.87582 -0.0456494 0
M  V30 6359 H 581.625 -6.0292 -0.965375 0
M  V30 6360 H 583.039 -5.59201 1.26359 0
M  V30 6361 H 581.436 -5.63876 2.05339 0
M  V30 6362 H 582.506 -4.25253 2.32997 0
M  V30 6363 N 583.85 -0.624285 -1.44708 0
M  V30 6364 C 584.76 0.0861083 -2.34442 0
M  V30 6365 C 585.776 0.84291 -1.5222 0
M  V30 6366 O 586.952 0.796723 -1.84971 0
M  V30 6367 C 584.017 1.05999 -3.30099 0
M  V30 6368 C 583.077 0.303316 -4.28227 0
M  V30 6369 C 582.311 1.23081 -5.19314 0
M  V30 6370 O 582.534 2.46929 -5.14181 0
M  V30 6371 O 581.468 0.71883 -5.97592 0
M  V30 6372 H 585.293 -0.651756 -2.96624 0
M  V30 6373 H 582.879 -0.384493 -1.44368 0
M  V30 6374 H 584.76 1.62046 -3.88997 0
M  V30 6375 H 583.436 1.77859 -2.70459 0
M  V30 6376 H 582.343 -0.300033 -3.72895 0
M  V30 6377 H 583.676 -0.375123 -4.90768 0
M  V30 6378 N 585.328 1.53329 -0.364422 0
M  V30 6379 C 586.556 2.05657 0.226424 0
M  V30 6380 C 586.971 1.23801 1.42544 0
M  V30 6381 O 586.328 0.27839 1.80364 0
M  V30 6382 C 586.379 3.56125 0.621056 0
M  V30 6383 O 586.1 4.34879 -0.530304 0
M  V30 6384 C 587.601 4.24706 1.27041 0
M  V30 6385 H 584.821 0.669806 0.0400056 0
M  V30 6386 H 587.365 1.97714 -0.522456 0
M  V30 6387 H 585.52 3.64223 1.31985 0
M  V30 6388 H 585.934 5.24073 -0.211546 0
M  V30 6389 H 587.408 5.3131 1.49711 0
M  V30 6390 H 587.885 3.78354 2.23036 0
M  V30 6391 H 588.491 4.20858 0.613079 0
M  V30 6392 N 586.806 0.0935595 1.57322 0
M  V30 6393 C 587.716 -0.880192 2.17462 0
M  V30 6394 C 588.732 -1.31135 1.14366 0
M  V30 6395 O 589.908 -1.37958 1.46729 0
M  V30 6396 C 586.973 -2.12184 2.74188 0
M  V30 6397 C 586.034 -1.74503 3.92234 0
M  V30 6398 C 585.267 -2.92748 4.46245 0
M  V30 6399 O 585.49 -4.07427 3.99198 0
M  V30 6400 O 584.424 -2.71303 5.37288 0
M  V30 6401 H 588.25 -0.398516 3.01074 0
M  V30 6402 H 585.835 -0.130707 1.48827 0
M  V30 6403 H 587.717 -2.84953 3.10451 0
M  V30 6404 H 586.392 -2.59407 1.93623 0
M  V30 6405 H 585.299 -0.989186 3.60785 0
M  V30 6406 H 586.632 -1.32044 4.74157 0
M  V30 6407 N 588.284 -1.56567 -0.180126 0
M  V30 6408 C 589.194 -1.98947 -1.24327 0
M  V30 6409 C 590.21 -0.899446 -1.4895 0
M  V30 6410 O 591.386 -1.20639 -1.61271 0
M  V30 6411 C 588.451 -2.33328 -2.56435 0
M  V30 6412 C 587.512 -3.56114 -2.39752 0
M  V30 6413 C 586.745 -3.88845 -3.65561 0
M  V30 6414 O 586.968 -3.22662 -4.70368 0
M  V30 6415 O 585.902 -4.82226 -3.60197 0
M  V30 6416 H 589.728 -2.89634 -0.913565 0
M  V30 6417 H 587.313 -1.44319 -0.386306 0
M  V30 6418 H 589.195 -2.5645 -3.34382 0
M  V30 6419 H 587.87 -1.45806 -2.89002 0
M  V30 6420 H 586.777 -3.38221 -1.59866 0
M  V30 6421 H 588.11 -4.4415 -2.12113 0
M  V30 6422 N 589.762 0.448376 -1.51087 0
M  V30 6423 C 590.672 1.56882 -1.74428 0
M  V30 6424 C 591.688 1.62268 -0.62809 0
M  V30 6425 O 592.864 1.79716 -0.909075 0
M  V30 6426 C 589.929 2.92947 -1.85426 0
M  V30 6427 C 588.99 2.97766 -3.09247 0
M  V30 6428 C 588.223 4.27341 -3.19711 0
M  V30 6429 O 588.446 5.19112 -2.36387 0
M  V30 6430 O 587.38 4.38219 -4.12611 0
M  V30 6431 H 591.206 1.40104 -2.69452 0
M  V30 6432 H 588.791 0.630247 -1.35456 0
M  V30 6433 H 590.673 3.73719 -1.94709 0
M  V30 6434 H 589.348 3.09876 -0.935887 0
M  V30 6435 H 588.255 2.15989 -3.0545 0
M  V30 6436 H 589.588 2.8578 -4.00738 0
M  V30 6437 N 591.24 1.41047 0.703093 0
M  V30 6438 C 592.15 1.44645 1.84703 0
M  V30 6439 C 593.166 0.337778 1.7069 0
M  V30 6440 O 594.342 0.584327 1.92737 0
M  V30 6441 C 591.407 1.31928 3.20618 0
M  V30 6442 C 590.468 2.53047 3.46794 0
M  V30 6443 C 589.701 2.40927 4.76224 0
M  V30 6444 O 589.924 1.42978 5.5219 0
M  V30 6445 O 588.858 3.30543 5.03016 0
M  V30 6446 H 592.684 2.41139 1.84624 0
M  V30 6447 H 590.269 1.22504 0.855167 0
M  V30 6448 H 592.151 1.27092 4.01778 0
M  V30 6449 H 590.826 0.385469 3.21397 0
M  V30 6450 H 589.733 2.6346 2.65593 0
M  V30 6451 H 591.066 3.45231 3.50822 0
M  V30 6452 N 592.718 -0.936591 1.26751 0
M  V30 6453 C 593.665 -2.03597 1.08706 0
M  V30 6454 C 594.635 -1.66097 -0.00926542 0
M  V30 6455 O 595.82 -1.90199 0.151377 0
M  V30 6456 C 592.96 -3.3727 0.73094 0
M  V30 6457 C 592.073 -3.87778 1.90399 0
M  V30 6458 C 591.208 -5.09859 1.49056 0
M  V30 6459 C 590.247 -5.5264 2.63164 0
M  V30 6460 N 589.384 -6.65921 2.22471 0
M  V30 6461 H 594.224 -2.18364 2.02784 0
M  V30 6462 H 591.761 -1.06985 1.00958 0
M  V30 6463 H 593.719 -4.14128 0.505328 0
M  V30 6464 H 592.349 -3.22337 -0.172868 0
M  V30 6465 H 591.401 -3.07279 2.2424 0
M  V30 6466 H 592.713 -4.15464 2.76028 0
M  V30 6467 H 591.867 -5.9419 1.22567 0
M  V30 6468 H 590.606 -4.8393 0.60524 0
M  V30 6469 H 589.611 -4.66863 2.90377 0
M  V30 6470 H 590.836 -5.80568 3.52303 0
M  V30 6471 H 588.782 -6.41667 1.36379 0
M  V30 6472 H 588.699 -6.93216 3.01641 0
M  V30 6473 H 589.967 -7.53616 1.99205 0
M  V30 6474 N 594.196 -1.08629 -1.14182 0
M  V30 6475 C 595.144 -0.71284 -2.21408 0
M  V30 6476 C 596.138 0.282457 -1.67029 0
M  V30 6477 O 597.344 0.144783 -1.79417 0
M  V30 6478 H 593.719 -0.212497 -0.721352 0
M  V30 6479 H 595.69 -1.6265 -2.50175 0
M  V30 6480 C 594.439 -0.140704 -3.47415 0
M  V30 6481 H 593.762 -0.897739 -3.8959 0
M  V30 6482 H 595.202 0.0827677 -4.23919 0
M  V30 6483 C 593.661 1.122 -3.17668 0
M  V30 6484 O 594.191 2.20652 -3.35672 0
M  V30 6485 N 592.397 1.03328 -2.71609 0
M  V30 6486 H 591.944 0.150666 -2.57159 0
M  V30 6487 H 591.902 1.8789 -2.52081 0
M  V30 6488 N 595.674 1.31259 -0.872281 0
M  V30 6489 C 596.604 2.30929 -0.345554 0
M  V30 6490 C 597.585 1.60449 0.5648 0
M  V30 6491 O 598.77 1.8814 0.481335 0
M  V30 6492 C 595.9 3.44348 0.451823 0
M  V30 6493 C 594.854 4.26435 -0.365641 0
M  V30 6494 C 594.18 5.31785 0.557562 0
M  V30 6495 C 595.48 4.97159 -1.60095 0
M  V30 6496 H 597.174 2.75234 -1.17841 0
M  V30 6497 H 594.72 1.3232 -0.568094 0
M  V30 6498 H 596.673 4.13128 0.830854 0
M  V30 6499 H 595.397 2.98816 1.31821 0
M  V30 6500 H 594.056 3.59326 -0.726649 0
M  V30 6501 H 593.704 4.82502 1.4213 0
M  V30 6502 H 593.404 5.87598 0.0144878 0
M  V30 6503 H 594.928 6.03424 0.933387 0
M  V30 6504 H 596.342 5.58523 -1.29323 0
M  V30 6505 H 594.739 5.62779 -2.08327 0
M  V30 6506 H 595.809 4.24012 -2.35249 0
M  V30 6507 N 597.152 0.631951 1.44375 0
M  V30 6508 C 598.062 -0.073674 2.34484 0
M  V30 6509 C 599.078 -0.834825 1.52665 0
M  V30 6510 O 600.254 -0.786902 1.85391 0
M  V30 6511 C 597.319 -1.04247 3.30656 0
M  V30 6512 C 596.38 -0.280602 4.28382 0
M  V30 6513 C 595.613 -1.20325 5.19959 0
M  V30 6514 O 595.836 -2.44199 5.15484 0
M  V30 6515 O 594.77 -0.687128 5.97965 0
M  V30 6516 H 598.596 0.667477 2.96274 0
M  V30 6517 H 596.181 0.392144 1.44162 0
M  V30 6518 H 598.063 -1.59981 3.89851 0
M  V30 6519 H 596.738 -1.76422 2.71398 0
M  V30 6520 H 595.645 0.319804 3.72731 0
M  V30 6521 H 596.978 0.401144 4.90563 0
M  V30 6522 N 598.631 -1.53133 0.372548 0
M  V30 6523 C 599.541 -2.29671 -0.478379 0
M  V30 6524 C 600.557 -1.35913 -1.08644 0
M  V30 6525 O 601.733 -1.68975 -1.09588 0
M  V30 6526 C 598.798 -3.07625 -1.599 0
M  V30 6527 C 597.859 -4.17061 -1.01776 0
M  V30 6528 C 597.092 -4.91289 -2.08497 0
M  V30 6529 O 597.315 -4.65442 -3.29727 0
M  V30 6530 O 596.249 -5.7705 -1.71164 0
M  V30 6531 H 600.075 -3.03355 0.144649 0
M  V30 6532 H 597.66 -1.48773 0.136729 0
M  V30 6533 H 599.542 -3.56281 -2.25038 0
M  V30 6534 H 598.217 -2.3677 -2.2073 0
M  V30 6535 H 597.124 -3.72641 -0.330098 0
M  V30 6536 H 598.457 -4.90102 -0.453915 0
M  V30 6537 N 600.109 -0.101901 -1.5727 0
M  V30 6538 C 601.041 0.884723 -2.11436 0
M  V30 6539 C 602.054 1.24149 -1.05314 0
M  V30 6540 O 603.243 1.19341 -1.3274 0
M  V30 6541 C 600.343 2.19179 -2.58484 0
M  V30 6542 C 599.516 2.00933 -3.88516 0
M  V30 6543 C 598.575 3.15213 -4.2134 0
M  V30 6544 O 597.601 2.88877 -4.90448 0
M  V30 6545 N 598.803 4.41174 -3.77288 0
M  V30 6546 H 601.568 0.422058 -2.96713 0
M  V30 6547 H 599.129 0.0830128 -1.61687 0
M  V30 6548 H 601.121 2.94593 -2.77484 0
M  V30 6549 H 599.691 2.56847 -1.7818 0
M  V30 6550 H 598.911 1.09809 -3.78597 0
M  V30 6551 H 600.199 1.86026 -4.73573 0
M  V30 6552 H 599.597 4.6545 -3.21516 0
M  V30 6553 H 598.154 5.13515 -4.01429 0
M  V30 6554 N 601.587 1.56661 0.17182 0
M  V30 6555 C 602.815 1.861 0.904115 0
M  V30 6556 C 603.23 0.687227 1.75848 0
M  V30 6557 O 602.587 -0.343671 1.79235 0
M  V30 6558 C 602.638 3.14568 1.78127 0
M  V30 6559 O 602.359 4.27422 0.961366 0
M  V30 6560 C 603.86 3.5735 2.62327 0
M  V30 6561 H 601.08 0.617445 0.262684 0
M  V30 6562 H 603.624 2.03775 0.172068 0
M  V30 6563 H 601.779 2.98721 2.46666 0
M  V30 6564 H 602.193 5.00725 1.56123 0
M  V30 6565 H 603.667 4.50144 3.1949 0
M  V30 6566 H 604.144 2.81445 3.37173 0
M  V30 6567 H 604.75 3.75807 1.99121 0
M  V30 6568 N 603.065 -0.440357 1.51323 0
M  V30 6569 C 603.975 -1.55955 1.75258 0
M  V30 6570 C 604.991 -1.61933 0.636687 0
M  V30 6571 O 606.167 -1.79231 0.918593 0
M  V30 6572 C 603.232 -2.9196 1.86977 0
M  V30 6573 C 602.293 -2.96122 3.10822 0
M  V30 6574 C 601.526 -4.2564 3.21973 0
M  V30 6575 O 601.749 -5.17851 2.39137 0
M  V30 6576 O 600.683 -4.36025 4.14929 0
M  V30 6577 H 604.509 -1.38673 2.70191 0
M  V30 6578 H 602.094 -0.623055 1.35788 0
M  V30 6579 H 603.976 -3.72682 1.96688 0
M  V30 6580 H 602.651 -3.09375 0.952307 0
M  V30 6581 H 601.558 -2.14366 3.06591 0
M  V30 6582 H 602.891 -2.83651 4.02247 0
M  V30 6583 N 604.543 -1.41418 -0.695603 0
M  V30 6584 C 605.959 -1.23887 -1.00619 0
M  V30 6585 C 606.159 -0.128206 -2.01092 0
M  V30 6586 O 605.215 0.507408 -2.47349 0
M  V30 6587 C 606.528 -2.58816 -1.53083 0
M  V30 6588 C 608.076 -2.65998 -1.64967 0
M  V30 6589 C 608.551 -4.01244 -2.20833 0
M  V30 6590 N 610.042 -4.0309 -2.28194 0
M  V30 6591 C 610.777 -5.04539 -2.72448 0
M  V30 6592 N 610.273 -6.16378 -3.16306 0
M  V30 6593 N 612.066 -4.91901 -2.72011 0
M  V30 6594 H 604.217 -2.12379 -0.0300061 0
M  V30 6595 H 606.48 -0.944958 -0.0758797 0
M  V30 6596 H 606.186 -3.40842 -0.867147 0
M  V30 6597 H 606.06 -2.81299 -2.51298 0
M  V30 6598 H 608.447 -1.84331 -2.30448 0
M  V30 6599 H 608.528 -2.47325 -0.652982 0
M  V30 6600 H 608.172 -4.83359 -1.55968 0
M  V30 6601 H 608.102 -4.17257 -3.21254 0
M  V30 6602 H 610.593 -3.22341 -1.97242 0
M  V30 6603 H 610.906 -6.89658 -3.487 0
M  V30 6604 H 609.251 -6.19914 -3.14215 0
M  V30 6605 H 612.442 -4.03613 -2.37095 0
M  V30 6606 H 612.615 -5.71102 -3.06181 0
M  V30 6607 N 606.021 0.929856 -1.27246 0
M  V30 6608 C 606.969 2.05151 -1.09616 0
M  V30 6609 C 607.963 1.69388 -0.0198617 0
M  V30 6610 O 609.169 1.79124 -0.177417 0
M  V30 6611 H 605.544 0.671909 -0.337701 0
M  V30 6612 H 607.515 2.17168 -2.04648 0
M  V30 6613 C 606.264 3.3934 -0.757851 0
M  V30 6614 H 605.587 3.67343 -1.57795 0
M  V30 6615 H 607.027 4.18603 -0.674358 0
M  V30 6616 C 605.486 3.32582 0.537658 0
M  V30 6617 O 606.016 3.69633 1.57271 0
M  V30 6618 N 604.222 2.8568 0.532478 0
M  V30 6619 H 603.769 2.55725 -0.310233 0
M  V30 6620 H 603.727 2.81541 1.39936 0
M  V30 6621 N 607.499 1.09233 1.13605 0
M  V30 6622 C 608.747 0.825525 1.84471 0
M  V30 6623 C 609.068 -0.650702 1.83823 0
M  V30 6624 O 608.338 -1.47204 1.29259 0
M  V30 6625 H 606.918 0.3024 0.683054 0
M  V30 6626 H 609.58 1.38006 1.37624 0
M  V30 6627 H 608.676 1.17727 2.89045 0
M  V30 6628 N 608.977 -1.30795 0.87923 0
M  V30 6629 C 610.254 -1.91145 0.415086 0
M  V30 6630 C 610.634 -1.7995 -1.10368 0
M  V30 6631 O 609.982 -1.21305 -1.93642 0
M  V30 6632 C 610.192 -3.37014 0.906778 0
M  V30 6633 C 611.54 -4.14101 0.938358 0
M  V30 6634 O 612.564 -3.45834 0.853053 0
M  V30 6635 O 611.423 -5.36054 1.06342 0
M  V30 6636 H 608.517 -0.81736 0.125905 0
M  V30 6637 H 611.063 -1.39401 0.967753 0
M  V30 6638 H 609.835 -3.3922 1.95053 0
M  V30 6639 H 609.458 -3.96204 0.332948 0
M  V30 6640 N 610.455 -0.639598 -1.44038 0
M  V30 6641 C 611.701 -0.147698 -2.02261 0
M  V30 6642 C 612.034 1.23031 -1.50256 0
M  V30 6643 O 611.309 1.81847 -0.690068 0
M  V30 6644 C 611.592 -0.14362 -3.59813 0
M  V30 6645 C 611.445 -1.55458 -4.22082 0
M  V30 6646 C 612.764 0.527317 -4.36929 0
M  V30 6647 H 609.883 -0.0551453 -0.734934 0
M  V30 6648 H 612.525 -0.817688 -1.71505 0
M  V30 6649 H 610.675 0.426898 -3.86147 0
M  V30 6650 H 612.347 -2.17464 -4.06826 0
M  V30 6651 H 610.59 -2.10594 -3.79253 0
M  V30 6652 H 611.261 -1.50369 -5.31124 0
M  V30 6653 H 613.737 0.0420504 -4.16079 0
M  V30 6654 H 612.613 0.499389 -5.46624 0
M  V30 6655 H 612.874 1.59914 -4.12165 0
M  V30 6656 N 611.933 1.52934 -0.380664 0
M  V30 6657 C 612.896 2.24809 0.446473 0
M  V30 6658 C 613.896 1.26133 0.997347 0
M  V30 6659 O 615.086 1.50297 0.880714 0
M  V30 6660 C 612.218 2.99649 1.62553 0
M  V30 6661 H 613.411 2.99343 -0.182677 0
M  V30 6662 H 610.964 1.55736 -0.132618 0
M  V30 6663 H 611.699 2.29395 2.29235 0
M  V30 6664 H 611.484 3.72066 1.23732 0
M  V30 6665 H 612.974 3.54246 2.21133 0
M  V30 6666 N 613.412 0.11024 1.57214 0
M  V30 6667 C 614.36 -0.860586 2.16094 0
M  V30 6668 C 615.354 -1.28156 1.1078 0
M  V30 6669 O 616.56 -1.25433 1.29099 0
M  V30 6670 H 612.935 -0.295606 0.691463 0
M  V30 6671 H 614.906 -0.33942 2.96463 0
M  V30 6672 C 613.655 -2.10421 2.768 0
M  V30 6673 H 612.978 -1.7892 3.5753 0
M  V30 6674 H 614.418 -2.76375 3.21547 0
M  V30 6675 C 612.877 -2.88823 1.73444 0
M  V30 6676 O 613.407 -3.839 1.18251 0
M  V30 6677 N 611.613 -2.52649 1.43586 0
M  V30 6678 H 611.16 -1.754 1.8866 0
M  V30 6679 H 611.118 -3.05403 0.746735 0
M  V30 6680 N 614.89 -1.56749 -0.16351 0
M  V30 6681 C 615.82 -2.00042 -1.20438 0
M  V30 6682 C 616.801 -0.877256 -1.45733 0
M  V30 6683 O 617.986 -1.1439 -1.56935 0
M  V30 6684 C 615.116 -2.36697 -2.54149 0
M  V30 6685 C 614.07 -3.52046 -2.43408 0
M  V30 6686 C 613.396 -3.74466 -3.81679 0
M  V30 6687 C 614.696 -4.85247 -1.93216 0
M  V30 6688 H 616.39 -2.87244 -0.844477 0
M  V30 6689 H 613.936 -1.38194 -0.40478 0
M  V30 6690 H 615.889 -2.65582 -3.27176 0
M  V30 6691 H 614.613 -1.46414 -2.91943 0
M  V30 6692 H 613.272 -3.23301 -1.72834 0
M  V30 6693 H 612.92 -2.81461 -4.1688 0
M  V30 6694 H 612.62 -4.52084 -3.75359 0
M  V30 6695 H 614.144 -4.0576 -4.5628 0
M  V30 6696 H 615.558 -5.12957 -2.56023 0
M  V30 6697 H 613.955 -5.66556 -1.97825 0
M  V30 6698 H 615.025 -4.7672 -0.88689 0
M  V30 6699 N 616.368 0.432326 -1.51554 0
M  V30 6700 C 617.278 1.55023 -1.76082 0
M  V30 6701 C 618.294 1.61593 -0.645265 0
M  V30 6702 O 619.47 1.78742 -0.928086 0
M  V30 6703 C 616.535 2.90964 -1.88523 0
M  V30 6704 C 615.596 2.9447 -3.12388 0
M  V30 6705 C 614.829 4.23926 -3.24225 0
M  V30 6706 O 615.052 5.16576 -2.4188 0
M  V30 6707 O 613.986 4.33818 -4.17235 0
M  V30 6708 H 617.812 1.37238 -2.70923 0
M  V30 6709 H 615.397 0.615845 -1.36117 0
M  V30 6710 H 617.279 3.71633 -1.98662 0
M  V30 6711 H 615.954 3.08865 -0.9687 0
M  V30 6712 H 614.861 2.12737 -3.07723 0
M  V30 6713 H 616.194 2.81514 -4.03746 0
M  V30 6714 N 617.846 1.41785 0.688094 0
M  V30 6715 C 618.794 1.44436 1.82321 0
M  V30 6716 C 619.788 0.321544 1.6632 0
M  V30 6717 O 620.994 0.493931 1.73091 0
M  V30 6718 H 617.369 0.452084 0.600936 0
M  V30 6719 H 619.34 2.40087 1.77202 0
M  V30 6720 C 618.089 1.35071 3.20392 0
M  V30 6721 H 617.412 2.2076 3.33324 0
M  V30 6722 H 618.852 1.40988 3.99873 0
M  V30 6723 C 617.311 0.0639127 3.36839 0
M  V30 6724 O 617.841 -0.888495 3.91751 0
M  V30 6725 N 616.047 -0.0146114 2.90596 0
M  V30 6726 H 615.594 0.761191 2.46097 0
M  V30 6727 H 615.552 -0.874988 3.01979 0
M  V30 6728 N 619.324 -0.923095 1.27737 0
M  V30 6729 C 620.234 -2.05765 1.12685 0
M  V30 6730 C 621.25 -1.73911 0.0557197 0
M  V30 6731 O 622.426 -1.99674 0.263137 0
M  V30 6732 C 619.491 -3.37804 0.780363 0
M  V30 6733 C 618.552 -3.83326 1.93286 0
M  V30 6734 C 617.785 -5.09064 1.60281 0
M  V30 6735 O 618.008 -5.6809 0.512828 0
M  V30 6736 O 616.942 -5.50071 2.44347 0
M  V30 6737 H 620.768 -2.21378 2.07907 0
M  V30 6738 H 618.353 -1.04299 1.06968 0
M  V30 6739 H 620.235 -4.17097 0.600668 0
M  V30 6740 H 618.91 -3.23387 -0.142291 0
M  V30 6741 H 617.817 -3.049 2.16764 0
M  V30 6742 H 619.15 -4.02292 2.83588 0
M  V30 6743 N 620.802 -1.09834 -1.13024 0
M  V30 6744 C 622.027 -0.85909 -1.88771 0
M  V30 6745 C 622.452 0.584402 -1.78791 0
M  V30 6746 O 621.81 1.41101 -1.13842 0
M  V30 6747 C 621.858 -1.30427 -3.36186 0
M  V30 6748 O 620.962 -0.465368 -4.09766 0
M  V30 6749 H 620.303 -0.310786 -0.586778 0
M  V30 6750 H 622.833 -1.46355 -1.42973 0
M  V30 6751 H 622.843 -1.2915 -3.8702 0
M  V30 6752 H 621.518 -2.3555 -3.42767 0
M  V30 6753 H 620.095 -0.542814 -3.68928 0
M  V30 6754 N 622.28 1.30327 -0.886154 0
M  V30 6755 C 623.227 2.28099 -0.352069 0
M  V30 6756 C 624.197 1.56433 0.558397 0
M  V30 6757 O 625.382 1.84492 0.486561 0
M  V30 6758 C 622.522 3.42456 0.426346 0
M  V30 6759 C 621.635 4.28938 -0.513472 0
M  V30 6760 C 620.77 5.30458 0.280657 0
M  V30 6761 C 619.809 6.0859 -0.654556 0
M  V30 6762 N 618.946 7.02022 0.104322 0
M  V30 6763 H 623.786 2.73166 -1.19097 0
M  V30 6764 H 621.323 1.34367 -0.598662 0
M  V30 6765 H 623.281 4.07518 0.893587 0
M  V30 6766 H 621.911 2.98455 1.22981 0
M  V30 6767 H 620.963 3.64173 -1.09921 0
M  V30 6768 H 622.275 4.83399 -1.2299 0
M  V30 6769 H 621.429 6.01273 0.8097 0
M  V30 6770 H 620.168 4.76693 1.03029 0
M  V30 6771 H 619.173 5.36651 -1.19522 0
M  V30 6772 H 620.398 6.64443 -1.4033 0
M  V30 6773 H 618.344 6.50645 0.836472 0
M  V30 6774 H 618.261 7.53979 -0.552453 0
M  V30 6775 H 619.529 7.77077 0.614069 0
M  V30 6776 N 623.758 0.647228 1.43697 0
M  V30 6777 C 625.004 0.158422 2.0218 0
M  V30 6778 C 625.337 -1.22233 1.50907 0
M  V30 6779 O 624.612 -1.81478 0.699702 0
M  V30 6780 C 624.895 0.1627 3.59732 0
M  V30 6781 C 624.748 1.57694 4.21251 0
M  V30 6782 C 626.067 -0.504138 4.37203 0
M  V30 6783 H 623.186 0.059042 0.734631 0
M  V30 6784 H 625.828 0.826772 1.71069 0
M  V30 6785 H 623.978 -0.406414 3.86368 0
M  V30 6786 H 625.65 2.19618 4.05667 0
M  V30 6787 H 623.893 2.12603 3.7813 0
M  V30 6788 H 624.564 1.53183 5.3032 0
M  V30 6789 H 627.04 -0.0199841 4.16095 0
M  V30 6790 H 625.916 -0.470394 5.46881 0
M  V30 6791 H 626.177 -1.57726 4.13007 0
M  V30 6792 O 625.275 -1.52523 0.530952 0
M  V30 6793 H 625.966 -1.93688 0.0212942 0
M  V30 END ATOM
M  V30 BEGIN BOND
M  V30 END BOND
M  V30 END CTAB
M  END
$$$$
