drugbank_target|P11350 Respiratory nitrate reductase 1 gamma chain (DB04464; DB07349)
 OpenBabel12092120423D

  0  0  0     0  0            999 V3000
M  V30 BEGIN CTAB
M  V30 COUNTS 3637 3690 0 0 0
M  V30 BEGIN ATOM
M  V30 1 H -0.908 1.98254 -0.117106 0
M  V30 2 N 0 1.576 0 0
M  V30 3 C 0.933 2.03868 1.02534 0
M  V30 4 C 1.911 0.928543 1.3348 0
M  V30 5 O 3.095 1.19667 1.45644 0
M  V30 6 C 0.222 2.43627 2.35294 0
M  V30 7 C -0.732 3.65373 2.2001 0
M  V30 8 S 0.101 5.13292 1.52614 0
M  V30 9 C 1.257 5.56322 2.86805 0
M  V30 10 H 1.49 2.90518 0.631377 0
M  V30 11 H -0.977 1.52953 0.210867 0
M  V30 12 H 0.981 2.67203 3.11629 0
M  V30 13 H -0.358 1.57376 2.7183 0
M  V30 14 H -1.165 3.90944 3.18086 0
M  V30 15 H -1.563 3.418 1.51819 0
M  V30 16 H 0.729 5.58782 3.83104 0
M  V30 17 H 1.672 6.56266 2.65933 0
M  V30 18 H 2.08 4.83886 2.90714 0
M  V30 19 N 1.4781 -0.272755 1.55222 0
M  V30 20 C 2.4101 -1.35946 1.8453 0
M  V30 21 C 3.4231 -1.45525 0.729818 0
M  V30 22 O 4.6121 -1.47337 1.00767 0
M  V30 23 C 1.7121 -2.74069 1.99347 0
M  V30 24 C 0.8851 -2.87079 3.30007 0
M  V30 25 C -0.0559 -4.05879 3.34886 0
M  V30 26 O -1.0299 -3.96626 4.08261 0
M  V30 27 N 0.1721 -5.17857 2.62307 0
M  V30 28 H 2.9371 -1.11149 2.78327 0
M  V30 29 H 0.4981 -0.462869 1.55142 0
M  V30 30 H 2.4901 -3.51838 1.99981 0
M  V30 31 H 1.0601 -2.91688 1.12415 0
M  V30 32 H 0.2801 -1.96193 3.41909 0
M  V30 33 H 1.5681 -2.92701 4.16177 0
M  V30 34 H 0.9661 -5.28261 2.02377 0
M  V30 35 H -0.4769 -5.93855 2.68663 0
M  V30 36 N 2.9562 -1.48159 -0.537278 0
M  V30 37 C 4.2032 -1.55804 -1.29349 0
M  V30 38 C 4.5312 -0.228802 -1.9315 0
M  V30 39 O 3.7862 0.780242 -1.79473 0
M  V30 40 C 4.0852 -2.63956 -2.40961 0
M  V30 41 C 3.7512 -4.0662 -1.94861 0
M  V30 42 C 2.4132 -4.45452 -1.82006 0
M  V30 43 C 4.7652 -4.96055 -1.59933 0
M  V30 44 C 2.0932 -5.71531 -1.32547 0
M  V30 45 C 4.4452 -6.22617 -1.11939 0
M  V30 46 C 3.1092 -6.60312 -0.976951 0
M  V30 47 H 2.3792 -0.570129 -0.473322 0
M  V30 48 H 5.0262 -1.81845 -0.600372 0
M  V30 49 H 3.3312 -2.31747 -3.15912 0
M  V30 50 H 5.0282 -2.67089 -2.99107 0
M  V30 51 H 1.6182 -3.75949 -2.05815 0
M  V30 52 H 5.8022 -4.66738 -1.68728 0
M  V30 53 H 1.0582 -5.99468 -1.202 0
M  V30 54 H 5.2322 -6.91318 -0.839811 0
M  V30 55 H 2.8592 -7.57895 -0.591501 0
M  V30 56 N 4.4343 0.785586 -1.36625 0
M  V30 57 C 5.3643 1.91259 -1.33949 0
M  V30 58 C 6.3453 1.68795 -0.210325 0
M  V30 59 O 7.5303 1.89854 -0.408561 0
M  V30 60 C 4.6603 3.28339 -1.13186 0
M  V30 61 C 3.6143 3.65335 -2.22967 0
M  V30 62 C 2.9403 5.00806 -1.87342 0
M  V30 63 C 4.2403 3.7352 -3.65075 0
M  V30 64 H 5.9343 1.93755 -2.28253 0
M  V30 65 H 3.4803 0.930788 -1.09874 0
M  V30 66 H 5.4333 4.06804 -1.09948 0
M  V30 67 H 4.1573 3.2624 -0.153332 0
M  V30 68 H 2.8163 2.89169 -2.25337 0
M  V30 69 H 2.4643 4.95233 -0.880545 0
M  V30 70 H 2.1643 5.26529 -2.60846 0
M  V30 71 H 3.6883 5.81687 -1.85667 0
M  V30 72 H 5.1023 4.42168 -3.64911 0
M  V30 73 H 3.4993 4.10731 -4.37516 0
M  V30 74 H 4.5693 2.74527 -3.99703 0
M  V30 75 N 5.9124 1.20967 1.01018 0
M  V30 76 C 6.8604 0.961223 2.1181 0
M  V30 77 C 7.8544 -0.0897034 1.69162 0
M  V30 78 O 9.0604 0.0612271 1.79896 0
M  V30 79 H 5.4354 0.29355 0.692338 0
M  V30 80 H 7.4064 1.90178 2.29946 0
M  V30 81 C 6.1554 0.536854 3.4353 0
M  V30 82 H 5.4784 1.33713 3.76777 0
M  V30 83 H 6.9184 0.402286 4.22087 0
M  V30 84 C 5.3774 -0.751574 3.2841 0
M  V30 85 O 5.9074 -1.80841 3.58691 0
M  V30 86 N 4.1134 -0.716079 2.81639 0
M  V30 87 H 3.6604 0.144236 2.57196 0
M  V30 88 H 3.6184 -1.57847 2.71904 0
M  V30 89 N 7.3905 -1.2043 1.01659 0
M  V30 90 C 8.3235 -2.21924 0.531521 0
M  V30 91 C 9.3015 -1.57054 -0.421032 0
M  V30 92 O 10.4855 -1.85389 -0.341035 0
M  V30 93 C 7.6125 -3.37942 -0.226496 0
M  V30 94 C 6.6585 -4.21115 0.67561 0
M  V30 95 S 7.4915 -4.90674 2.14475 0
M  V30 96 C 8.6475 -6.10113 1.3969 0
M  V30 97 H 8.8805 -2.62725 1.3915 0
M  V30 98 H 6.4135 -1.30481 0.825479 0
M  V30 99 H 8.3715 -4.05196 -0.657738 0
M  V30 100 H 7.0325 -2.956 -1.06205 0
M  V30 101 H 6.2255 -5.03918 0.091108 0
M  V30 102 H 5.8275 -3.59115 1.04463 0
M  V30 103 H 8.1195 -6.7411 0.676897 0
M  V30 104 H 9.0625 -6.73022 2.20107 0
M  V30 105 H 9.4705 -5.57283 0.899786 0
M  V30 106 N 8.8686 -0.792821 -1.36206 0
M  V30 107 C 10.1156 -0.366786 -1.99151 0
M  V30 108 C 10.4436 1.06243 -1.62919 0
M  V30 109 O 9.6986 1.74927 -0.877442 0
M  V30 110 C 9.9976 -0.481501 -3.54142 0
M  V30 111 C 9.6636 -1.87202 -4.10203 0
M  V30 112 C 8.3256 -2.25248 -4.25226 0
M  V30 113 C 10.6776 -2.78237 -4.40719 0
M  V30 114 C 8.0056 -3.53723 -4.68078 0
M  V30 115 C 10.3576 -4.06144 -4.85005 0
M  V30 116 C 9.0216 -4.44207 -4.98234 0
M  V30 117 H 8.2916 -0.134217 -0.728743 0
M  V30 118 H 10.9386 -1.01094 -1.62641 0
M  V30 119 H 9.2436 0.246146 -3.91026 0
M  V30 120 H 10.9406 -0.132844 -4.0078 0
M  V30 121 H 7.5306 -1.56639 -3.98951 0
M  V30 122 H 11.7146 -2.50097 -4.28679 0
M  V30 123 H 6.9706 -3.8308 -4.76508 0
M  V30 124 H 11.1446 -4.76796 -5.07581 0
M  V30 125 H 8.7716 -5.43814 -5.31197 0
M  V30 126 N 10.3467 1.47872 -0.545128 0
M  V30 127 C 11.5937 2.02493 -0.0165858 0
M  V30 128 C 11.9217 1.42073 1.32836 0
M  V30 129 O 11.1767 0.561459 1.87473 0
M  V30 130 C 11.4757 3.57131 0.13867 0
M  V30 131 C 11.1417 4.36411 -1.13384 0
M  V30 132 C 9.8037 4.57792 -1.48256 0
M  V30 133 C 12.1557 4.82223 -1.97764 0
M  V30 134 C 9.4837 5.22233 -2.67376 0
M  V30 135 C 11.8357 5.47977 -3.16076 0
M  V30 136 C 10.4997 5.67593 -3.51275 0
M  V30 137 H 9.7697 0.740975 -0.00606918 0
M  V30 138 H 12.4167 1.77683 -0.714207 0
M  V30 139 H 10.7217 3.80865 0.919172 0
M  V30 140 H 12.4187 3.97031 0.562782 0
M  V30 141 H 9.0087 4.2004 -0.852297 0
M  V30 142 H 13.1927 4.65493 -1.72132 0
M  V30 143 H 8.4487 5.35616 -2.94831 0
M  V30 144 H 12.6227 5.8244 -3.81755 0
M  V30 145 H 10.2497 6.17298 -4.43675 0
M  V30 146 N 11.8248 0.280983 1.55075 0
M  V30 147 C 13.0718 -0.334115 1.99725 0
M  V30 148 C 13.3998 -1.5542 1.1694 0
M  V30 149 O 12.6548 -1.94361 0.228531 0
M  V30 150 C 12.9538 -0.754656 3.49342 0
M  V30 151 C 12.6198 0.361445 4.49449 0
M  V30 152 C 11.2818 0.667893 4.76542 0
M  V30 153 C 13.6338 1.11322 5.09173 0
M  V30 154 C 10.9618 1.7296 5.60626 0
M  V30 155 C 13.3138 2.1647 5.9441 0
M  V30 156 C 11.9778 2.47742 6.19822 0
M  V30 157 H 11.2478 -0.122261 0.730844 0
M  V30 158 H 13.8948 0.395917 1.87363 0
M  V30 159 H 12.1998 -1.56446 3.5921 0
M  V30 160 H 13.8968 -1.24142 3.813 0
M  V30 161 H 10.4868 0.112481 4.28452 0
M  V30 162 H 14.6708 0.88973 4.8826 0
M  V30 163 H 9.9268 1.97684 5.78559 0
M  V30 164 H 14.1008 2.75193 6.3972 0
M  V30 165 H 11.7278 3.30145 6.84769 0
M  V30 166 N 13.3029 -1.57598 0.00835791 0
M  V30 167 C 14.5799 -1.82172 -0.712235 0
M  V30 168 C 14.9599 -0.887873 -1.9152 0
M  V30 169 O 14.3079 0.06146 -2.28417 0
M  V30 170 C 14.5179 -3.30875 -1.11008 0
M  V30 171 C 15.8659 -3.96826 -1.51044 0
M  V30 172 O 16.8899 -3.35248 -1.20364 0
M  V30 173 O 15.7489 -5.05318 -2.08125 0
M  V30 174 H 12.8429 -0.750435 -0.347529 0
M  V30 175 H 15.3889 -1.69665 0.0344523 0
M  V30 176 H 14.1609 -3.90481 -0.252982 0
M  V30 177 H 13.7839 -3.48412 -1.9156 0
M  V30 178 N 14.781 0.264519 -1.55364 0
M  V30 179 C 16.03 0.992812 -1.75574 0
M  V30 180 C 16.343 1.87142 -0.568979 0
M  V30 181 O 17.549 2.63513 -0.653682 0
M  V30 182 C 16.005 1.81519 -3.10771 0
M  V30 183 C 15.613 0.984839 -4.37041 0
M  V30 184 C 17.357 2.53727 -3.40327 0
M  V30 185 C 15.264 1.80209 -5.63275 0
M  V30 186 H 14.194 0.374412 -0.65447 0
M  V30 187 H 16.845 0.248138 -1.81815 0
M  V30 188 H 15.227 2.60115 -2.98591 0
M  V30 189 H 16.401 0.242455 -4.60162 0
M  V30 190 H 14.716 0.37691 -4.14691 0
M  V30 191 H 17.313 3.15292 -4.3185 0
M  V30 192 H 17.656 3.24447 -2.60845 0
M  V30 193 H 18.189 1.82156 -3.53644 0
M  V30 194 H 14.928 1.13896 -6.45529 0
M  V30 195 H 14.448 2.52022 -5.44284 0
M  V30 196 H 16.127 2.37364 -6.01887 0
M  V30 197 N 16.2591 1.48442 0.529413 0
M  V30 198 C 17.4891 1.59919 1.30804 0
M  V30 199 C 17.8971 0.258792 1.87422 0
M  V30 200 O 17.2401 -0.762096 1.67146 0
M  V30 201 C 17.3021 2.58693 2.49636 0
M  V30 202 C 16.9661 4.03745 2.14101 0
M  V30 203 C 17.9631 4.9141 1.6974 0
M  V30 204 C 15.6481 4.49285 2.24607 0
M  V30 205 C 17.6421 6.22645 1.36351 0
M  V30 206 C 15.3291 5.8054 1.9083 0
M  V30 207 C 16.3271 6.67043 1.46773 0
M  V30 208 O 16.0151 7.95856 1.1344 0
M  V30 209 H 15.7471 0.541981 0.404021 0
M  V30 210 H 18.3011 1.95 0.645309 0
M  V30 211 H 16.5311 2.18734 3.18892 0
M  V30 212 H 18.2201 2.59999 3.11698 0
M  V30 213 H 18.9861 4.57465 1.61094 0
M  V30 214 H 14.8651 3.82142 2.57854 0
M  V30 215 H 18.4091 6.90119 1.01891 0
M  V30 216 H 14.3061 6.14022 1.99117 0
M  V30 217 H 15.0741 8.08613 1.26832 0
M  V30 218 N 17.7372 -0.778329 1.37039 0
M  V30 219 C 19.1482 -1.35421 1.28523 0
M  V30 220 C 19.4992 -1.96075 -0.0700901 0
M  V30 221 O 18.6242 -1.93352 -0.971801 0
M  V30 222 C 19.2192 -2.46211 2.32735 0
M  V30 223 C 17.7782 -2.99585 2.27873 0
M  V30 224 C 16.9252 -1.72748 2.16918 0
M  V30 225 H 19.8762 -0.5791 1.47757 0
M  V30 226 H 19.8972 -3.2552 1.9702 0
M  V30 227 H 19.4092 -2.02036 3.31365 0
M  V30 228 H 17.5102 -3.48152 1.32745 0
M  V30 229 H 17.6232 -3.55646 3.21018 0
M  V30 230 H 15.9872 -1.95416 1.63354 0
M  V30 231 H 16.7702 -1.30686 3.17452 0
M  V30 232 N 19.2153 -1.21501 -1.00376 0
M  V30 233 C 20.4453 -1.05746 -1.77486 0
M  V30 234 C 20.8533 0.395655 -1.85017 0
M  V30 235 O 20.1963 1.28626 -1.31152 0
M  V30 236 C 20.2583 -1.58092 -3.22873 0
M  V30 237 C 19.9223 -3.06568 -3.38917 0
M  V30 238 C 20.9193 -4.04106 -3.271 0
M  V30 239 C 18.6043 -3.45799 -3.64319 0
M  V30 240 C 20.5983 -5.38862 -3.40451 0
M  V30 241 C 18.2853 -4.80707 -3.77311 0
M  V30 242 C 19.2833 -5.77047 -3.65384 0
M  V30 243 O 18.9713 -7.09507 -3.77961 0
M  V30 244 H 18.7033 -0.371778 -0.564586 0
M  V30 245 H 21.2573 -1.61319 -1.27143 0
M  V30 246 H 19.4873 -0.969163 -3.74358 0
M  V30 247 H 21.1763 -1.38162 -3.81662 0
M  V30 248 H 21.9423 -3.75141 -3.07399 0
M  V30 249 H 17.8213 -2.71344 -3.72684 0
M  V30 250 H 21.3653 -6.14041 -3.31058 0
M  V30 251 H 17.2623 -5.09357 -3.96517 0
M  V30 252 H 18.0303 -7.16935 -3.94901 0
M  V30 253 N 20.6934 1.19889 -1.02296 0
M  V30 254 C 21.9424 1.88743 -0.711257 0
M  V30 255 C 22.2554 1.80112 0.762817 0
M  V30 256 O 23.4614 2.44161 1.18733 0
M  V30 257 C 21.9174 3.38525 -1.22185 0
M  V30 258 C 21.5254 3.55727 -2.72328 0
M  V30 259 C 23.2694 4.12893 -0.985864 0
M  V30 260 C 21.1764 4.99369 -3.16835 0
M  V30 261 H 20.1064 0.706885 -0.262353 0
M  V30 262 H 22.7574 1.35586 -1.23648 0
M  V30 263 H 21.1394 3.91044 -0.624571 0
M  V30 264 H 22.3134 3.13564 -3.3766 0
M  V30 265 H 20.6284 2.94739 -2.9414 0
M  V30 266 H 23.2254 5.18813 -1.29374 0
M  V30 267 H 23.5684 4.16228 0.0775055 0
M  V30 268 H 24.1014 3.66494 -1.54684 0
M  V30 269 H 20.8404 5.01193 -4.22476 0
M  V30 270 H 20.3604 5.42317 -2.56228 0
M  V30 271 H 22.0394 5.67988 -3.09837 0
M  V30 272 N 22.1715 0.800033 1.35784 0
M  V30 273 C 23.1345 0.211565 2.28221 0
M  V30 274 C 24.1345 -0.59728 1.49296 0
M  V30 275 O 25.3245 -0.416721 1.69142 0
M  V30 276 C 22.4565 -0.705846 3.33513 0
M  V30 277 H 23.6495 1.02677 2.81776 0
M  V30 278 H 21.2025 0.570211 1.45528 0
M  V30 279 H 21.9375 -1.54498 2.85133 0
M  V30 280 H 21.7225 -0.127655 3.91892 0
M  V30 281 H 23.2125 -1.11211 4.02519 0
M  V30 282 N 23.6496 -1.47581 0.552962 0
M  V30 283 C 24.8976 -2.02082 0.0272703 0
M  V30 284 C 25.2186 -1.4301 -1.32563 0
M  V30 285 O 24.4886 -0.603745 -1.86365 0
M  V30 286 H 23.0686 -0.746966 0.00709182 0
M  V30 287 H 25.7306 -1.81033 0.722008 0
M  V30 288 H 24.8266 -3.12034 -0.0639951 0
M  V30 289 N 25.1277 -0.289203 -1.54924 0
M  V30 290 C 26.0907 0.579144 -2.21762 0
M  V30 291 C 27.0907 1.07047 -1.1999 0
M  V30 292 O 28.2807 0.968384 -1.44803 0
M  V30 293 C 25.4127 1.80055 -2.8947 0
M  V30 294 H 26.6057 -0.00464908 -2.999 0
M  V30 295 H 24.1587 -0.0399306 -1.56249 0
M  V30 296 H 24.8937 2.42449 -2.15381 0
M  V30 297 H 24.6787 1.45602 -3.64064 0
M  V30 298 H 26.1687 2.41773 -3.40493 0
M  V30 299 N 26.6058 1.57591 -0.0167156 0
M  V30 300 C 27.8518 1.91567 0.665582 0
M  V30 301 C 28.1848 0.892298 1.72487 0
M  V30 302 O 27.4598 -0.0867127 1.94307 0
M  V30 303 C 27.7428 3.36069 1.29342 0
M  V30 304 C 27.5958 4.49135 0.244541 0
M  V30 305 C 28.9148 3.803 2.21495 0
M  V30 306 H 26.0338 0.69666 0.240488 0
M  V30 307 H 28.6758 1.89866 -0.0714356 0
M  V30 308 H 26.8258 3.3765 1.92158 0
M  V30 309 H 28.4978 4.59689 -0.385228 0
M  V30 310 H 26.7408 4.3165 -0.431379 0
M  V30 311 H 27.4118 5.47242 0.723207 0
M  V30 312 H 29.8878 3.80377 1.68678 0
M  V30 313 H 28.7638 4.82127 2.62382 0
M  V30 314 H 29.0248 3.15104 3.101 0
M  V30 315 N 28.0839 -0.256276 1.55502 0
M  V30 316 C 29.3309 -0.985619 1.76895 0
M  V30 317 C 29.6589 -1.85671 0.579355 0
M  V30 318 O 28.9139 -1.90744 -0.437651 0
M  V30 319 C 29.2129 -1.88432 3.03691 0
M  V30 320 C 28.8789 -1.16936 4.35473 0
M  V30 321 C 27.5409 -0.97173 4.71286 0
M  V30 322 C 29.8929 -0.661889 5.1698 0
M  V30 323 C 27.2209 -0.254179 5.86149 0
M  V30 324 C 29.5729 0.042149 6.32586 0
M  V30 325 C 28.2369 0.25134 6.67027 0
M  V30 326 H 27.5069 -0.360663 0.647304 0
M  V30 327 H 30.1539 -0.256483 1.89775 0
M  V30 328 H 28.4589 -2.68021 2.85783 0
M  V30 329 H 30.1559 -2.45015 3.1744 0
M  V30 330 H 26.7459 -1.33332 4.07333 0
M  V30 331 H 30.9299 -0.802145 4.89775 0
M  V30 332 H 26.1859 -0.0815408 6.11346 0
M  V30 333 H 30.3599 0.443049 6.94989 0
M  V30 334 H 27.9869 0.809314 7.5588 0
M  V30 335 N 29.562 -1.4872 -0.521534 0
M  V30 336 C 30.492 -1.66771 -1.63431 0
M  V30 337 C 31.473 -0.516499 -1.62069 0
M  V30 338 O 32.658 -0.750013 -1.79132 0
M  V30 339 C 29.788 -1.71515 -3.01993 0
M  V30 340 C 28.742 -2.86222 -3.18216 0
M  V30 341 C 28.068 -2.76061 -4.57924 0
M  V30 342 C 29.368 -4.27419 -3.00184 0
M  V30 343 H 31.062 -2.59932 -1.48579 0
M  V30 344 H 28.608 -1.25089 -0.713358 0
M  V30 345 H 30.561 -1.82731 -3.7972 0
M  V30 346 H 29.285 -0.749393 -3.17886 0
M  V30 347 H 27.944 -2.74575 -2.42908 0
M  V30 348 H 27.592 -1.77437 -4.70665 0
M  V30 349 H 27.292 -3.53037 -4.69722 0
M  V30 350 H 28.816 -2.89256 -5.37739 0
M  V30 351 H 30.23 -4.39855 -3.67697 0
M  V30 352 H 28.627 -5.05458 -3.2347 0
M  V30 353 H 29.697 -4.43293 -1.96518 0
M  V30 354 N 31.0401 0.771051 -1.3745 0
M  V30 355 C 32.2891 1.52491 -1.3202 0
M  V30 356 C 32.6021 1.9538 0.0927347 0
M  V30 357 O 33.8081 2.70159 0.269503 0
M  V30 358 C 32.2641 2.75366 -2.31736 0
M  V30 359 C 31.8721 2.39573 -3.78562 0
M  V30 360 C 33.6161 3.53307 -2.35318 0
M  V30 361 C 31.5231 3.58954 -4.70007 0
M  V30 362 H 30.4531 0.572506 -0.490666 0
M  V30 363 H 33.1041 0.844474 -1.62914 0
M  V30 364 H 31.4861 3.45303 -1.93861 0
M  V30 365 H 32.6601 1.77415 -4.25277 0
M  V30 366 H 30.9751 1.74805 -3.77932 0
M  V30 367 H 33.5721 4.42039 -3.00842 0
M  V30 368 H 33.9151 3.93217 -1.36698 0
M  V30 369 H 34.4481 2.90367 -2.71904 0
M  V30 370 H 31.1871 3.24125 -5.69757 0
M  V30 371 H 30.7071 4.20214 -4.27996 0
M  V30 372 H 32.3861 4.25758 -4.87175 0
M  V30 373 N 32.5182 1.22032 0.997298 0
M  V30 374 C 33.7662 1.04016 1.73278 0
M  V30 375 C 34.0872 -0.426255 1.90284 0
M  V30 376 O 33.3572 -1.30694 1.45931 0
M  V30 377 H 31.9372 0.381897 0.642 0
M  V30 378 H 34.5992 1.5347 1.20137 0
M  V30 379 H 33.6952 1.51441 2.72896 0
M  V30 380 N 33.9963 -1.19345 1.0293 0
M  V30 381 C 35.2213 -1.93538 0.745511 0
M  V30 382 C 35.6463 -1.75007 -0.689511 0
M  V30 383 O 35.0043 -1.05265 -1.47611 0
M  V30 384 C 35.0523 -3.43336 1.10239 0
M  V30 385 O 34.1563 -4.11806 0.221289 0
M  V30 386 H 33.4973 -0.604193 0.275404 0
M  V30 387 H 36.0273 -1.5141 1.37609 0
M  V30 388 H 36.0373 -3.94004 1.05947 0
M  V30 389 H 34.7123 -3.56146 2.14786 0
M  V30 390 H 33.2893 -3.715 0.322842 0
M  V30 391 N 35.4744 -0.807222 -1.35358 0
M  V30 392 C 36.7204 -0.397594 -1.99476 0
M  V30 393 C 37.0754 1.02405 -1.62883 0
M  V30 394 O 36.3684 1.70077 -0.882282 0
M  V30 395 C 36.5624 -0.519036 -3.53611 0
M  V30 396 C 36.3914 -1.95094 -4.05177 0
M  V30 397 C 35.1614 -2.57945 -4.34503 0
M  V30 398 C 37.3594 -2.91558 -4.23673 0
M  V30 399 N 35.3414 -3.92539 -4.72003 0
M  V30 400 C 36.7124 -4.11024 -4.64176 0
M  V30 401 C 38.7674 -2.88381 -4.05883 0
M  V30 402 C 37.4704 -5.27745 -4.88751 0
M  V30 403 C 39.4964 -4.04306 -4.31614 0
M  V30 404 C 38.8584 -5.22519 -4.72391 0
M  V30 405 H 34.9574 -0.193274 -0.75774 0
M  V30 406 H 37.5414 -1.0486 -1.6405 0
M  V30 407 H 35.7124 0.101979 -3.88266 0
M  V30 408 H 37.4444 -0.0839321 -4.04613 0
M  V30 409 H 34.1994 -2.09295 -4.24844 0
M  V30 410 H 34.6234 -4.61836 -4.95011 0
M  V30 411 H 39.2654 -1.98137 -3.73499 0
M  V30 412 H 36.9834 -6.1856 -5.20008 0
M  V30 413 H 40.5694 -4.03229 -4.19402 0
M  V30 414 H 39.4494 -6.1073 -4.91913 0
M  V30 415 N 36.9525 1.47285 -0.560781 0
M  V30 416 C 37.8825 2.32857 0.173105 0
M  V30 417 C 38.8635 1.44009 0.905281 0
M  V30 418 O 40.0485 1.7286 0.885046 0
M  V30 419 C 37.1785 3.25861 1.20133 0
M  V30 420 C 36.1325 4.23978 0.585388 0
M  V30 421 C 35.4585 5.06332 1.7185 0
M  V30 422 C 36.7585 5.20242 -0.463178 0
M  V30 423 H 38.4525 2.94466 -0.541307 0
M  V30 424 H 35.9985 1.41601 -0.261764 0
M  V30 425 H 37.9515 3.84569 1.72293 0
M  V30 426 H 36.6755 2.62315 1.94573 0
M  V30 427 H 35.3345 3.66501 0.085054 0
M  V30 428 H 34.9825 4.39186 2.45203 0
M  V30 429 H 34.6825 5.72762 1.31213 0
M  V30 430 H 36.2065 5.67899 2.24329 0
M  V30 431 H 37.6205 5.73293 -0.027502 0
M  V30 432 H 36.0175 5.94896 -0.788627 0
M  V30 433 H 37.0875 4.65504 -1.35773 0
M  V30 434 N 38.4306 0.297415 1.54768 0
M  V30 435 C 39.8466 -0.0560823 1.59501 0
M  V30 436 C 40.0466 -1.52725 1.31444 0
M  V30 437 O 39.1026 -2.27947 1.08611 0
M  V30 438 C 40.4156 0.338631 2.98787 0
M  V30 439 C 41.9636 0.287097 3.11681 0
M  V30 440 C 42.4386 0.656579 4.53269 0
M  V30 441 N 43.9296 0.608977 4.59179 0
M  V30 442 C 44.6646 0.867385 5.66802 0
M  V30 443 N 44.1606 1.19157 6.82476 0
M  V30 444 N 45.9536 0.794687 5.56454 0
M  V30 445 H 38.1046 1.25624 1.71267 0
M  V30 446 H 40.3676 0.509057 0.799728 0
M  V30 447 H 40.0736 1.36263 3.2423 0
M  V30 448 H 39.9476 -0.309508 3.75928 0
M  V30 449 H 42.3346 -0.727649 2.85988 0
M  V30 450 H 42.4156 0.969809 2.36703 0
M  V30 451 H 42.0596 1.66912 4.7969 0
M  V30 452 H 41.9896 -0.0481649 5.26578 0
M  V30 453 H 44.4806 0.369198 3.76092 0
M  V30 454 H 44.7936 1.37482 7.60473 0
M  V30 455 H 43.1386 1.22958 6.84037 0
M  V30 456 H 46.3296 0.541098 4.64962 0
M  V30 457 H 46.5026 0.999445 6.40246 0
M  V30 458 N 39.9087 -1.5758 0.0250728 0
M  V30 459 C 41.1387 -1.95646 -0.663783 0
M  V30 460 C 41.5467 -0.899935 -1.66427 0
M  V30 461 O 40.8897 0.127191 -1.83259 0
M  V30 462 C 40.9517 -3.29835 -1.43 0
M  V30 463 C 40.6157 -4.53197 -0.588305 0
M  V30 464 C 41.6127 -5.19726 0.13469 0
M  V30 465 C 39.2977 -4.99529 -0.526897 0
M  V30 466 C 41.2917 -6.30902 0.90781 0
M  V30 467 C 38.9787 -6.10589 0.24993 0
M  V30 468 C 39.9767 -6.76134 0.965994 0
M  V30 469 O 39.6647 -7.85062 1.7301 0
M  V30 470 H 39.3967 -0.649282 -0.188174 0
M  V30 471 H 41.9507 -2.05245 0.0799006 0
M  V30 472 H 40.1807 -3.16716 -2.21873 0
M  V30 473 H 41.8697 -3.52833 -2.00658 0
M  V30 474 H 42.6357 -4.84904 0.0965562 0
M  V30 475 H 38.5147 -4.48319 -1.07381 0
M  V30 476 H 42.0587 -6.81995 1.46724 0
M  V30 477 H 37.9557 -6.44849 0.289795 0
M  V30 478 H 38.7237 -8.01708 1.64944 0
M  V30 479 N 41.3868 0.248026 -1.55636 0
M  V30 480 C 42.6638 0.998988 -1.68165 0
M  V30 481 C 43.0438 2.03409 -0.564621 0
M  V30 482 O 42.3918 2.24378 0.432076 0
M  V30 483 C 42.6018 1.63334 -3.0842 0
M  V30 484 C 43.9498 2.13562 -3.66983 0
M  V30 485 O 44.9738 1.73277 -3.11213 0
M  V30 486 O 43.8328 2.87526 -4.64749 0
M  V30 487 H 40.9268 0.464933 -0.683935 0
M  V30 488 H 43.4728 0.241902 -1.67967 0
M  V30 489 H 42.2448 0.884583 -3.8117 0
M  V30 490 H 41.8678 2.45666 -3.12624 0
M  V30 491 N 42.8649 1.48995 0.513639 0
M  V30 492 C 44.0949 1.61297 1.291 0
M  V30 493 C 44.5029 0.278656 1.87137 0
M  V30 494 O 43.8459 -0.744325 1.67945 0
M  V30 495 C 43.9079 2.61326 2.46879 0
M  V30 496 C 43.5719 4.05993 2.09807 0
M  V30 497 C 44.5689 4.93183 1.64519 0
M  V30 498 C 42.2539 4.51642 2.19829 0
M  V30 499 C 44.2479 6.24056 1.2974 0
M  V30 500 C 41.9349 5.82532 1.84662 0
M  V30 501 C 42.9329 6.68562 1.3969 0
M  V30 502 O 42.6209 7.97014 1.04992 0
M  V30 503 H 42.3529 0.546236 0.39825 0
M  V30 504 H 44.9069 1.95673 0.62459 0
M  V30 505 H 43.1369 2.22104 3.16554 0
M  V30 506 H 44.8259 2.6329 3.08923 0
M  V30 507 H 45.5919 4.59147 1.56233 0
M  V30 508 H 41.4709 3.84855 2.53786 0
M  V30 509 H 45.0149 6.91161 0.945659 0
M  V30 510 H 40.9119 6.16099 1.92594 0
M  V30 511 H 41.6799 8.09913 1.18249 0
M  V30 512 N 44.343 -0.763751 1.37857 0
M  V30 513 C 45.591 -1.51957 1.33243 0
M  V30 514 C 45.912 -1.94835 -0.0801709 0
M  V30 515 O 45.182 -1.66894 -1.02582 0
M  V30 516 H 43.762 -0.563626 0.49024 0
M  V30 517 H 46.424 -0.908504 1.7243 0
M  V30 518 H 45.52 -2.41523 1.97669 0
M  V30 519 N 45.8211 -1.22559 -0.990812 0
M  V30 520 C 46.7531 -0.955325 -2.08342 0
M  V30 521 C 47.7661 0.0668408 -1.62663 0
M  V30 522 O 48.9551 -0.167421 -1.77713 0
M  V30 523 C 46.0551 -0.415566 -3.36342 0
M  V30 524 C 45.2281 -1.49544 -4.11042 0
M  V30 525 C 44.2871 -0.962399 -5.17324 0
M  V30 526 O 43.3131 -1.64907 -5.44788 0
M  V30 527 N 44.5151 0.215134 -5.80101 0
M  V30 528 H 47.2801 -1.89596 -2.32106 0
M  V30 529 H 44.8411 -1.13276 -1.15673 0
M  V30 530 H 46.8331 -0.0442386 -4.04676 0
M  V30 531 H 45.4031 0.430232 -3.09625 0
M  V30 532 H 44.6231 -2.04 -3.37309 0
M  V30 533 H 45.9111 -2.22195 -4.57719 0
M  V30 534 H 45.3091 0.789779 -5.6016 0
M  V30 535 H 43.8661 0.527826 -6.49659 0
M  V30 536 N 47.2992 1.18797 -1.03562 0
M  V30 537 C 48.5292 1.92319 -0.754773 0
M  V30 538 C 48.9372 1.7612 0.691248 0
M  V30 539 O 48.2802 1.08491 1.48241 0
M  V30 540 C 48.3422 3.44284 -1.03484 0
M  V30 541 C 48.0062 3.84258 -2.47376 0
M  V30 542 C 49.0032 3.88459 -3.45537 0
M  V30 543 C 46.6882 4.15701 -2.81954 0
M  V30 544 C 48.6822 4.23545 -4.76328 0
M  V30 545 C 46.3692 4.50458 -4.12954 0
M  V30 546 C 47.3672 4.54356 -5.09951 0
M  V30 547 O 47.0552 4.88305 -6.38603 0
M  V30 548 H 46.7872 0.617527 -0.275021 0
M  V30 549 H 49.3412 1.51683 -1.38497 0
M  V30 550 H 47.5712 3.85135 -0.347513 0
M  V30 551 H 49.2602 3.99049 -0.7426 0
M  V30 552 H 50.0262 3.6431 -3.20162 0
M  V30 553 H 45.9052 4.11847 -2.0713 0
M  V30 554 H 49.4492 4.26502 -5.52035 0
M  V30 555 H 45.3462 4.74067 -4.38099 0
M  V30 556 H 46.1142 5.06227 -6.43177 0
M  V30 557 N 48.7773 0.814389 1.34928 0
M  V30 558 C 50.0053 0.411136 2.02774 0
M  V30 559 C 50.4203 -0.980316 1.61354 0
M  V30 560 O 49.7773 -1.63299 0.814847 0
M  V30 561 C 49.8283 0.493865 3.58111 0
M  V30 562 O 49.5493 1.83047 3.98027 0
M  V30 563 C 51.0503 0.0844174 4.4322 0
M  V30 564 H 48.2703 0.166037 0.650133 0
M  V30 565 H 50.8143 1.10018 1.72384 0
M  V30 566 H 48.9693 -0.147006 3.87121 0
M  V30 567 H 49.3833 1.79872 4.92693 0
M  V30 568 H 50.8573 0.193404 5.51661 0
M  V30 569 H 51.3343 -0.97113 4.28329 0
M  V30 570 H 51.9403 0.69875 4.19521 0
M  V30 571 N 50.2554 -1.46986 0.568584 0
M  V30 572 C 51.5014 -2.0332 0.0571487 0
M  V30 573 C 51.8564 -1.43384 -1.28291 0
M  V30 574 O 51.1494 -0.584304 -1.82473 0
M  V30 575 C 51.3434 -3.57306 -0.081836 0
M  V30 576 C 51.1724 -4.32174 1.24321 0
M  V30 577 C 49.9424 -4.71633 1.81358 0
M  V30 578 C 52.1404 -4.66598 2.16312 0
M  V30 579 N 50.1224 -5.31191 3.07748 0
M  V30 580 C 51.4934 -5.26578 3.27285 0
M  V30 581 C 53.5484 -4.48527 2.16166 0
M  V30 582 C 52.2514 -5.70395 4.38226 0
M  V30 583 C 54.2774 -4.93351 3.26127 0
M  V30 584 C 53.6394 -5.5339 4.3582 0
M  V30 585 H 49.7384 -0.77943 0.063351 0
M  V30 586 H 52.3224 -1.79323 0.758378 0
M  V30 587 H 50.4934 -3.81046 -0.752207 0
M  V30 588 H 52.2254 -4.00282 -0.59637 0
M  V30 589 H 48.9804 -4.53946 1.35019 0
M  V30 590 H 49.4044 -5.65505 3.72201 0
M  V30 591 H 54.0464 -4.01456 1.32638 0
M  V30 592 H 51.7644 -6.16452 5.22506 0
M  V30 593 H 55.3504 -4.81131 3.27115 0
M  V30 594 H 54.2304 -5.87441 5.19503 0
M  V30 595 N 51.7335 -0.305618 -1.54608 0
M  V30 596 C 53.1495 0.0476228 -1.59529 0
M  V30 597 C 53.3495 1.52025 -1.32252 0
M  V30 598 O 52.4055 2.27368 -1.09818 0
M  V30 599 C 53.7185 -0.354471 -2.98603 0
M  V30 600 C 55.2665 -0.303622 -3.11524 0
M  V30 601 C 55.7415 -0.680608 -4.52915 0
M  V30 602 N 57.2325 -0.63332 -4.5885 0
M  V30 603 C 57.9675 -0.897432 -5.66334 0
M  V30 604 N 57.4635 -1.22775 -6.81834 0
M  V30 605 N 59.2565 -0.824186 -5.56025 0
M  V30 606 H 51.4075 -1.2653 -1.70599 0
M  V30 607 H 53.6705 -0.513291 -0.797017 0
M  V30 608 H 53.3765 -1.3798 -3.23503 0
M  V30 609 H 53.2505 0.289568 -3.76087 0
M  V30 610 H 55.6375 0.712472 -2.8637 0
M  V30 611 H 55.7185 -0.982348 -2.36185 0
M  V30 612 H 55.3625 -1.69453 -4.78799 0
M  V30 613 H 55.2925 0.0202385 -5.26596 0
M  V30 614 H 57.7835 -0.389138 -3.75891 0
M  V30 615 H 58.0965 -1.41513 -7.59733 0
M  V30 616 H 56.4415 -1.26583 -6.83375 0
M  V30 617 H 59.6325 -0.565748 -4.64669 0
M  V30 618 H 59.8055 -1.03338 -6.39707 0
M  V30 619 N 53.2116 1.57565 -0.0334293 0
M  V30 620 C 54.1746 2.09393 0.932048 0
M  V30 621 C 55.1746 1.00986 1.25134 0
M  V30 622 O 56.3646 1.27129 1.19096 0
M  V30 623 C 53.4966 2.56338 2.2473 0
M  V30 624 H 54.6896 2.95984 0.483085 0
M  V30 625 H 52.2426 1.54819 0.21468 0
M  V30 626 H 52.9776 1.7309 2.74245 0
M  V30 627 H 52.7626 3.35542 2.02865 0
M  V30 628 H 54.2526 2.96646 2.93923 0
M  V30 629 N 54.6897 -0.239769 1.55765 0
M  V30 630 C 55.6527 -1.28038 1.90103 0
M  V30 631 C 56.6527 -1.40723 0.778055 0
M  V30 632 O 57.8427 -1.39301 1.04599 0
M  V30 633 C 54.9747 -2.65702 2.13577 0
M  V30 634 H 56.1677 -0.988048 2.83157 0
M  V30 635 H 53.7207 -0.479382 1.48767 0
M  V30 636 H 54.4557 -3.00063 1.23015 0
M  V30 637 H 54.2407 -2.57875 2.95369 0
M  V30 638 H 55.7307 -3.40828 2.41301 0
M  V30 639 N 56.1678 -1.49265 -0.50573 0
M  V30 640 C 57.3928 -1.62478 -1.28902 0
M  V30 641 C 57.8178 -0.294332 -1.85783 0
M  V30 642 O 57.1758 0.737412 -1.65626 0
M  V30 643 C 57.2238 -2.69268 -2.39848 0
M  V30 644 O 56.3278 -2.28113 -3.43567 0
M  V30 645 H 55.6688 -0.54399 -0.380751 0
M  V30 646 H 58.1988 -1.95421 -0.605952 0
M  V30 647 H 58.2088 -2.91291 -2.85681 0
M  V30 648 H 56.8838 -3.65846 -1.97812 0
M  V30 649 H 55.4608 -2.16401 -3.03685 0
M  V30 650 N 57.6459 0.756429 -1.3826 0
M  V30 651 C 58.8709 1.55077 -1.37717 0
M  V30 652 C 59.2959 1.88073 0.03164 0
M  V30 653 O 58.6539 1.50364 1.01293 0
M  V30 654 C 58.7019 2.8283 -2.23695 0
M  V30 655 O 57.8059 3.77862 -1.6521 0
M  V30 656 H 57.1469 0.469152 -0.469885 0
M  V30 657 H 59.6769 0.935019 -1.81985 0
M  V30 658 H 59.6869 3.31783 -2.37453 0
M  V30 659 H 58.3619 2.58144 -3.2609 0
M  V30 660 H 56.9389 3.36555 -1.60578 0
M  V30 661 N 59.124 1.23083 0.984299 0
M  V30 662 C 60.056 0.96636 2.07832 0
M  V30 663 C 61.069 -0.0582135 1.62696 0
M  V30 664 O 62.258 0.176843 1.77622 0
M  V30 665 C 59.358 0.433397 3.36117 0
M  V30 666 C 58.531 1.51722 4.10243 0
M  V30 667 C 57.59 0.989821 5.16807 0
M  V30 668 O 56.616 1.67794 5.43906 0
M  V30 669 N 57.818 -0.184367 5.80207 0
M  V30 670 H 60.583 1.90824 2.31098 0
M  V30 671 H 58.144 1.13888 1.1507 0
M  V30 672 H 60.136 0.065699 4.04647 0
M  V30 673 H 58.706 -0.413806 3.09849 0
M  V30 674 H 57.926 2.05786 3.36223 0
M  V30 675 H 59.214 2.24619 4.56534 0
M  V30 676 H 58.612 -0.760062 5.60571 0
M  V30 677 H 57.169 -0.493366 6.4993 0
M  V30 678 N 60.6021 -1.18246 1.0419 0
M  V30 679 C 61.5351 -2.20746 0.578474 0
M  V30 680 C 62.5131 -1.57912 -0.387624 0
M  V30 681 O 63.6971 -1.86071 -0.301634 0
M  V30 682 C 60.8241 -3.38346 -0.154762 0
M  V30 683 C 59.8701 -4.19587 0.764782 0
M  V30 684 S 60.7031 -4.86014 2.24835 0
M  V30 685 C 61.8591 -6.07012 1.526 0
M  V30 686 H 62.0921 -2.59715 1.44691 0
M  V30 687 H 59.6251 -1.287 0.85297 0
M  V30 688 H 61.5831 -4.065 -0.571641 0
M  V30 689 H 60.2441 -2.97786 -0.999105 0
M  V30 690 H 59.4371 -5.03611 0.197976 0
M  V30 691 H 59.0391 -3.56818 1.12057 0
M  V30 692 H 61.3311 -6.72523 0.819733 0
M  V30 693 H 62.2741 -6.68202 2.34333 0
M  V30 694 H 62.6821 -5.55249 1.01779 0
M  V30 695 N 62.0802 -0.821533 -1.34494 0
M  V30 696 C 63.0102 -0.257138 -2.3208 0
M  V30 697 C 63.9912 0.625645 -1.58176 0
M  V30 698 O 65.1762 0.552811 -1.86166 0
M  V30 699 C 62.3062 0.582958 -3.42372 0
M  V30 700 C 61.2602 -0.202571 -4.2752 0
M  V30 701 C 60.5862 0.760179 -5.29269 0
M  V30 702 C 61.8862 -1.40998 -5.02908 0
M  V30 703 H 63.5802 -1.07247 -2.79532 0
M  V30 704 H 61.1262 -0.517163 -1.34393 0
M  V30 705 H 63.0792 0.987972 -4.09655 0
M  V30 706 H 61.8032 1.43133 -2.93565 0
M  V30 707 H 60.4622 -0.588936 -3.61838 0
M  V30 708 H 60.1102 1.60447 -4.76724 0
M  V30 709 H 59.8102 0.238809 -5.87115 0
M  V30 710 H 61.3342 1.16308 -5.9942 0
M  V30 711 H 62.7482 -1.07905 -5.63054 0
M  V30 712 H 61.1452 -1.86689 -5.70322 0
M  V30 713 H 62.2152 -2.1889 -4.32684 0
M  V30 714 N 63.5583 1.46682 -0.576371 0
M  V30 715 C 64.8353 1.95599 0.00703437 0
M  V30 716 C 65.2153 1.51904 1.46589 0
M  V30 717 O 64.5633 0.766755 2.15251 0
M  V30 718 C 64.7733 3.4864 -0.158404 0
M  V30 719 C 66.1213 4.24594 -0.0229439 0
M  V30 720 O 67.1453 3.56094 -0.0869173 0
M  V30 721 O 66.0043 5.46373 0.118015 0
M  V30 722 H 63.0983 0.825275 0.053384 0
M  V30 723 H 65.6443 1.56996 -0.644244 0
M  V30 724 H 64.4163 3.7331 -1.17282 0
M  V30 725 H 64.0393 3.94057 0.5296 0
M  V30 726 N 65.0364 0.313813 1.54444 0
M  V30 727 C 66.4524 -0.0391619 1.59552 0
M  V30 728 C 66.6524 -1.51322 1.33056 0
M  V30 729 O 65.7084 -2.26782 1.11022 0
M  V30 730 C 67.0214 0.370302 2.98411 0
M  V30 731 C 68.5694 0.320139 3.11358 0
M  V30 732 C 69.0444 0.704617 4.52547 0
M  V30 733 N 70.5354 0.657645 4.58508 0
M  V30 734 C 71.2704 0.927453 5.6585 0
M  V30 735 N 70.7664 1.26389 6.81174 0
M  V30 736 N 72.5594 0.853662 5.5558 0
M  V30 737 H 64.7104 1.27433 1.69925 0
M  V30 738 H 66.9734 0.517511 0.794284 0
M  V30 739 H 66.6794 1.39694 3.22767 0
M  V30 740 H 66.5534 -0.269619 3.76235 0
M  V30 741 H 68.9404 -0.697275 2.86744 0
M  V30 742 H 69.0214 0.99486 2.35661 0
M  V30 743 H 68.6654 1.7199 4.77893 0
M  V30 744 H 68.5954 0.00768843 5.26599 0
M  V30 745 H 71.0864 0.409067 3.75679 0
M  V30 746 H 71.3994 1.4554 7.58972 0
M  V30 747 H 69.7444 1.30206 6.82694 0
M  V30 748 H 72.9354 0.590383 4.64362 0
M  V30 749 H 73.1084 1.0673 6.3915 0
M  V30 750 N 66.5145 -1.57545 0.0417849 0
M  V30 751 C 67.4615 -2.10977 -0.935805 0
M  V30 752 C 68.4315 -1.01486 -1.31491 0
M  V30 753 O 69.6165 -1.2898 -1.40602 0
M  V30 754 C 66.7565 -2.65169 -2.2086 0
M  V30 755 C 65.8695 -3.88714 -1.88482 0
M  V30 756 C 65.0045 -4.31254 -3.1015 0
M  V30 757 C 64.0435 -5.47524 -2.7365 0
M  V30 758 N 63.1805 -5.85162 -3.87982 0
M  V30 759 H 68.0205 -2.94218 -0.473249 0
M  V30 760 H 65.5575 -1.45415 -0.221981 0
M  V30 761 H 67.5155 -2.94685 -2.95325 0
M  V30 762 H 66.1455 -1.8474 -2.64709 0
M  V30 763 H 65.1975 -3.65849 -1.04205 0
M  V30 764 H 66.5095 -4.73245 -1.57608 0
M  V30 765 H 65.6635 -4.62273 -3.92923 0
M  V30 766 H 64.4025 -3.45516 -3.44195 0
M  V30 767 H 63.4075 -5.16187 -1.89291 0
M  V30 768 H 64.6325 -6.34971 -2.40807 0
M  V30 769 H 62.5785 -5.02377 -4.21846 0
M  V30 770 H 62.4955 -6.64362 -3.60775 0
M  V30 771 H 63.7635 -6.20791 -4.71422 0
M  V30 772 N 67.9926 0.231505 -1.5589 0
M  V30 773 C 69.2406 0.955461 -1.78088 0
M  V30 774 C 69.5616 1.85262 -0.608533 0
M  V30 775 O 68.8316 1.92277 0.375035 0
M  V30 776 H 67.4116 0.355787 -0.656829 0
M  V30 777 H 70.0736 0.245751 -1.93344 0
M  V30 778 H 69.1696 1.56814 -2.69844 0
M  V30 779 N 69.4707 1.49531 0.497807 0
M  V30 780 C 70.4037 1.61043 1.6168 0
M  V30 781 C 71.3817 0.459386 1.55976 0
M  V30 782 O 72.5657 0.675358 1.75986 0
M  V30 783 C 69.6927 1.56833 3.00202 0
M  V30 784 C 68.7387 2.77173 3.24156 0
M  V30 785 S 69.5717 4.38808 3.06933 0
M  V30 786 C 70.7277 4.37248 4.47845 0
M  V30 787 H 70.9607 2.55702 1.51671 0
M  V30 788 H 68.4937 1.38462 0.683201 0
M  V30 789 H 70.4517 1.55089 3.80076 0
M  V30 790 H 69.1127 0.634561 3.07623 0
M  V30 791 H 68.3057 2.70456 4.25288 0
M  V30 792 H 67.9077 2.76346 2.5201 0
M  V30 793 H 70.1997 4.09164 5.39992 0
M  V30 794 H 71.1427 5.38668 4.59612 0
M  V30 795 H 71.5507 3.67286 4.28674 0
M  V30 796 N 70.9488 -0.749086 1.3866 0
M  V30 797 C 71.8968 -1.88428 1.36373 0
M  V30 798 C 72.8908 -1.67561 0.248929 0
M  V30 799 O 74.0968 -1.75074 0.41821 0
M  V30 800 H 70.4718 -0.620023 0.42553 0
M  V30 801 H 72.4428 -1.87473 2.32156 0
M  V30 802 C 71.1918 -3.25961 1.21014 0
M  V30 803 H 70.5148 -3.42607 2.06059 0
M  V30 804 H 71.9548 -4.05625 1.23469 0
M  V30 805 C 70.4138 -3.36799 -0.0825941 0
M  V30 806 O 70.9438 -3.87517 -1.05797 0
M  V30 807 N 69.1498 -2.90258 -0.140939 0
M  V30 808 H 68.6968 -2.49174 0.653477 0
M  V30 809 H 68.6548 -2.97889 -1.00545 0
M  V30 810 N 72.4269 -1.23603 -0.977757 0
M  V30 811 C 73.3569 -1.04401 -2.0886 0
M  V30 812 C 74.3379 0.0399052 -1.70053 0
M  V30 813 O 75.5229 -0.125246 -1.93796 0
M  V30 814 C 72.6529 -0.637269 -3.41403 0
M  V30 815 C 71.6069 -1.66883 -3.94124 0
M  V30 816 C 70.9329 -1.11745 -5.22893 0
M  V30 817 C 72.2329 -3.06247 -4.23096 0
M  V30 818 H 73.9269 -1.97316 -2.25182 0
M  V30 819 H 71.4729 -0.950096 -1.08209 0
M  V30 820 H 73.4259 -0.48998 -4.18542 0
M  V30 821 H 72.1499 0.327557 -3.24953 0
M  V30 822 H 70.8089 -1.80416 -3.19133 0
M  V30 823 H 70.4569 -0.143527 -5.02795 0
M  V30 824 H 70.1569 -1.80672 -5.59134 0
M  V30 825 H 71.6809 -0.982067 -6.02651 0
M  V30 826 H 73.0949 -2.96001 -4.90975 0
M  V30 827 H 71.4919 -3.72436 -4.70544 0
M  V30 828 H 72.5619 -3.55041 -3.30263 0
M  V30 829 N 73.905 1.17692 -1.04816 0
M  V30 830 C 74.868 2.19787 -0.650117 0
M  V30 831 C 75.868 1.58044 0.296427 0
M  V30 832 O 77.058 1.74012 0.0808097 0
M  V30 833 C 74.19 3.40869 0.0456987 0
M  V30 834 H 75.383 2.56516 -1.5537 0
M  V30 835 H 72.936 1.31708 -0.841594 0
M  V30 836 H 73.671 3.09681 0.962726 0
M  V30 837 H 73.456 3.86928 -0.634727 0
M  V30 838 H 74.946 4.16445 0.310432 0
M  V30 839 N 75.3831 0.828654 1.34056 0
M  V30 840 C 76.6081 0.431637 2.02859 0
M  V30 841 C 77.0331 -0.956339 1.61975 0
M  V30 842 O 76.3911 -1.62338 0.807228 0
M  V30 843 C 76.4391 0.548323 3.56407 0
M  V30 844 O 75.5431 -0.429556 4.10157 0
M  V30 845 H 74.8841 0.176886 0.640006 0
M  V30 846 H 77.4141 1.12066 1.71179 0
M  V30 847 H 77.4241 0.426196 4.05768 0
M  V30 848 H 76.0991 1.5606 3.8551 0
M  V30 849 H 74.6761 -0.265836 3.71951 0
M  V30 850 N 76.8612 -1.46375 0.584142 0
M  V30 851 C 77.8092 -2.32042 -0.161047 0
M  V30 852 C 78.8032 -1.44569 -0.882966 0
M  V30 853 O 80.0092 -1.61186 -0.801191 0
M  V30 854 H 76.3842 -0.748659 -0.0708033 0
M  V30 855 H 78.3552 -2.92704 0.580269 0
M  V30 856 C 77.1042 -3.27762 -1.1605 0
M  V30 857 H 76.4272 -3.95051 -0.614419 0
M  V30 858 H 77.8672 -3.90481 -1.65228 0
M  V30 859 C 76.3262 -2.53218 -2.22221 0
M  V30 860 O 76.8562 -2.29628 -3.29597 0
M  V30 861 N 75.0622 -2.13756 -1.96868 0
M  V30 862 H 74.6092 -2.33142 -1.09557 0
M  V30 863 H 74.5672 -1.642 -2.68115 0
M  V30 864 N 78.3393 -0.321999 -1.54275 0
M  V30 865 C 79.2693 0.537411 -2.27231 0
M  V30 866 C 80.2503 1.12064 -1.27968 0
M  V30 867 O 81.4353 1.14606 -1.56777 0
M  V30 868 C 78.5653 1.69919 -3.02894 0
M  V30 869 C 77.5193 1.24534 -4.09482 0
M  V30 870 C 76.8453 2.49394 -4.72977 0
M  V30 871 C 78.1453 0.361335 -5.21049 0
M  V30 872 H 79.8393 -0.0711406 -2.99315 0
M  V30 873 H 77.3853 -0.0356555 -1.43956 0
M  V30 874 H 79.3383 2.30668 -3.52662 0
M  V30 875 H 78.0623 2.33431 -2.28424 0
M  V30 876 H 76.7213 0.660782 -3.60596 0
M  V30 877 H 76.3693 3.11265 -3.95124 0
M  V30 878 H 76.0693 2.19718 -5.44975 0
M  V30 879 H 77.5933 3.10908 -5.25517 0
M  V30 880 H 79.0073 0.875072 -5.66582 0
M  V30 881 H 77.4043 0.157428 -5.99893 0
M  V30 882 H 78.4743 -0.60822 -4.8107 0
M  V30 883 N 79.8174 1.5752 -0.0501392 0
M  V30 884 C 81.0644 1.9265 0.623874 0
M  V30 885 C 81.3924 0.928411 1.70912 0
M  V30 886 O 80.6474 -0.0594525 1.9561 0
M  V30 887 C 80.9464 3.34467 1.25963 0
M  V30 888 C 80.6124 4.49883 0.302689 0
M  V30 889 C 79.2744 4.81184 0.0393636 0
M  V30 890 C 81.6264 5.20002 -0.353205 0
M  V30 891 C 78.9544 5.79951 -0.887308 0
M  V30 892 C 81.3064 6.1976 -1.26806 0
M  V30 893 C 79.9704 6.49491 -1.54007 0
M  V30 894 H 79.2404 0.704957 0.228292 0
M  V30 895 H 81.8874 1.91146 -0.116398 0
M  V30 896 H 80.1924 3.32333 2.07514 0
M  V30 897 H 81.8894 3.58928 1.78806 0
M  V30 898 H 78.4794 4.25457 0.518109 0
M  V30 899 H 82.6634 4.96033 -0.162854 0
M  V30 900 H 77.9194 6.01322 -1.10553 0
M  V30 901 H 82.0934 6.73205 -1.78236 0
M  V30 902 H 79.7204 7.25837 -2.25976 0
M  V30 903 N 81.2955 -0.223234 1.56011 0
M  V30 904 C 82.2455 -1.28008 1.88674 0
M  V30 905 C 83.2295 -1.42369 0.749663 0
M  V30 906 O 84.4215 -1.45212 1.01205 0
M  V30 907 C 81.5505 -2.63084 2.20548 0
M  V30 908 C 80.6365 -2.52632 3.40643 0
M  V30 909 N 81.0275 -2.11829 4.59306 0
M  V30 910 C 79.3255 -2.83594 3.44224 0
M  V30 911 C 80.0265 -2.12587 5.41463 0
M  V30 912 N 79.0025 -2.5301 4.81131 0
M  V30 913 H 82.8045 -0.955487 2.77935 0
M  V30 914 H 80.3185 -0.431801 1.56554 0
M  V30 915 H 82.3155 -3.39385 2.42122 0
M  V30 916 H 80.9755 -2.96391 1.32599 0
M  V30 917 H 81.9865 -1.82988 4.84496 0
M  V30 918 H 78.6635 -3.21284 2.66614 0
M  V30 919 H 80.0535 -1.83179 6.46448 0
M  V30 920 N 82.7736 -1.49793 -0.48987 0
M  V30 921 C 84.0226 -1.59085 -1.23995 0
M  V30 922 C 84.3356 -0.287907 -1.9347 0
M  V30 923 O 85.5416 -0.259506 -2.70257 0
M  V30 924 C 83.9976 -2.80736 -2.252 0
M  V30 925 C 83.6056 -4.17833 -1.61614 0
M  V30 926 C 85.3496 -2.99364 -3.00967 0
M  V30 927 C 83.2566 -5.30693 -2.60996 0
M  V30 928 H 82.1866 -0.592372 -0.466488 0
M  V30 929 H 84.8376 -1.76197 -0.51252 0
M  V30 930 H 83.2196 -2.57142 -3.01154 0
M  V30 931 H 84.3936 -4.51608 -0.915774 0
M  V30 932 H 82.7086 -4.04656 -0.981977 0
M  V30 933 H 85.3056 -3.80851 -3.75308 0
M  V30 934 H 85.6486 -2.10356 -3.59244 0
M  V30 935 H 86.1816 -3.2305 -2.32128 0
M  V30 936 H 82.9206 -6.21796 -2.07485 0
M  V30 937 H 82.4406 -5.01359 -3.2924 0
M  V30 938 H 84.1196 -5.6049 -3.23202 0
M  V30 939 N 84.2517 0.741722 -1.39055 0
M  V30 940 C 85.4997 1.49818 -1.35643 0
M  V30 941 C 85.8207 1.94938 0.0491642 0
M  V30 942 O 85.0907 1.68505 0.999141 0
M  V30 943 H 83.6707 0.555755 -0.499144 0
M  V30 944 H 86.3327 0.880957 -1.73854 0
M  V30 945 H 85.4287 2.38348 -2.01486 0
M  V30 946 N 85.7298 1.2412 0.971189 0
M  V30 947 C 86.9788 1.07284 1.70801 0
M  V30 948 C 87.2918 -0.388902 1.91695 0
M  V30 949 O 88.4978 -0.677379 2.62914 0
M  V30 950 C 86.9538 1.87145 3.07416 0
M  V30 951 C 86.5618 3.37707 2.94377 0
M  V30 952 C 88.3058 1.78828 3.84995 0
M  V30 953 C 86.2128 4.09925 4.26281 0
M  V30 954 H 85.1428 0.397854 0.64049 0
M  V30 955 H 87.7938 1.4817 1.0825 0
M  V30 956 H 86.1758 1.39071 3.70777 0
M  V30 957 H 87.3498 3.93335 2.4005 0
M  V30 958 H 85.6648 3.46938 2.30267 0
M  V30 959 H 88.2618 2.30089 4.82662 0
M  V30 960 H 88.6048 0.75284 4.09436 0
M  V30 961 H 89.1378 2.24563 3.28354 0
M  V30 962 H 85.8768 5.13813 4.07033 0
M  V30 963 H 85.3968 3.59083 4.80437 0
M  V30 964 H 87.0758 4.1673 4.94919 0
M  V30 965 N 87.2079 -1.17134 1.05439 0
M  V30 966 C 88.1379 -2.2342 0.678649 0
M  V30 967 C 89.1189 -1.66971 -0.32476 0
M  V30 968 O 90.3039 -1.93149 -0.201802 0
M  V30 969 C 87.4339 -3.47256 0.0552099 0
M  V30 970 C 86.3879 -4.16543 0.98365 0
M  V30 971 C 85.7139 -5.34231 0.223961 0
M  V30 972 C 87.0139 -4.68495 2.3089 0
M  V30 973 H 88.7079 -2.55105 1.56722 0
M  V30 974 H 86.2539 -1.2262 0.754998 0
M  V30 975 H 88.2069 -4.20828 -0.21946 0
M  V30 976 H 86.9309 -3.14846 -0.868319 0
M  V30 977 H 85.5899 -3.44887 1.24293 0
M  V30 978 H 85.2379 -4.98071 -0.702412 0
M  V30 979 H 84.9379 -5.81527 0.842627 0
M  V30 980 H 86.4619 -6.10585 -0.0433671 0
M  V30 981 H 87.8759 -5.33691 2.09396 0
M  V30 982 H 86.2729 -5.26379 2.88176 0
M  V30 983 H 87.3429 -3.85169 2.94572 0
M  V30 984 N 88.686 -0.835752 -1.33615 0
M  V30 985 C 89.934 -0.429109 -1.97492 0
M  V30 986 C 90.255 1.01433 -1.66543 0
M  V30 987 O 89.525 1.70611 -0.962744 0
M  V30 988 H 88.105 -0.155686 -0.730596 0
M  V30 989 H 90.767 -1.06802 -1.63031 0
M  V30 990 H 89.863 -0.55861 -3.0706 0
M  V30 991 N 90.1641 1.46063 -0.591896 0
M  V30 992 C 91.4131 2.01547 -0.0786637 0
M  V30 993 C 91.7261 1.46796 1.29268 0
M  V30 994 O 92.9321 1.94157 1.89777 0
M  V30 995 C 91.3881 3.59787 -0.0900024 0
M  V30 996 C 90.9961 4.23534 -1.46023 0
M  V30 997 C 92.7401 4.22895 0.368806 0
M  V30 998 C 90.6471 5.73881 -1.4288 0
M  V30 999 H 89.5771 0.753564 -0.0256388 0
M  V30 1000 H 92.2281 1.677 -0.744905 0
M  V30 1001 H 90.6101 3.90752 0.642586 0
M  V30 1002 H 91.7841 4.04167 -2.21328 0
M  V30 1003 H 90.0991 3.72558 -1.85982 0
M  V30 1004 H 92.6961 5.33116 0.411258 0
M  V30 1005 H 93.0391 3.9247 1.38827 0
M  V30 1006 H 93.5721 3.9659 -0.31001 0
M  V30 1007 H 90.3111 6.0898 -2.42536 0
M  V30 1008 H 89.8311 5.95486 -0.718095 0
M  V30 1009 H 91.5101 6.36776 -1.14565 0
M  V30 1010 N 91.6422 0.330177 1.54103 0
M  V30 1011 C 92.8892 -0.270405 2.00686 0
M  V30 1012 C 93.2172 -1.51621 1.21825 0
M  V30 1013 O 92.4722 -1.93536 0.29025 0
M  V30 1014 C 92.7712 -0.643134 3.51566 0
M  V30 1015 C 92.4372 0.504251 4.48072 0
M  V30 1016 C 91.0992 0.819163 4.74176 0
M  V30 1017 C 93.4512 1.27465 5.05373 0
M  V30 1018 C 90.7792 1.90708 5.5484 0
M  V30 1019 C 93.1312 2.35271 5.87223 0
M  V30 1020 C 91.7952 2.67336 6.11627 0
M  V30 1021 H 91.0652 -0.0989482 0.734364 0
M  V30 1022 H 93.7122 0.455324 1.86008 0
M  V30 1023 H 92.0172 -1.44938 3.64006 0
M  V30 1024 H 93.7142 -1.11949 3.85056 0
M  V30 1025 H 90.3042 0.248733 4.27878 0
M  V30 1026 H 94.4882 1.04462 4.85182 0
M  V30 1027 H 89.7442 2.15991 5.71977 0
M  V30 1028 H 93.9182 2.95405 6.30641 0
M  V30 1029 H 91.5452 3.51763 6.73919 0
M  V30 1030 N 93.1203 -1.57491 0.0584922 0
M  V30 1031 C 94.3663 -1.93264 -0.614558 0
M  V30 1032 C 94.6993 -0.937717 -1.7006 0
M  V30 1033 O 93.9743 0.0351652 -1.94468 0
M  V30 1034 C 94.2573 -3.3938 -1.20386 0
M  V30 1035 C 94.1103 -4.49625 -0.125375 0
M  V30 1036 C 95.4293 -3.86039 -2.11334 0
M  V30 1037 H 92.5483 -0.702791 -0.221933 0
M  V30 1038 H 95.1903 -1.8961 0.12175 0
M  V30 1039 H 93.3403 -3.42626 -1.83139 0
M  V30 1040 H 95.0123 -4.58506 0.506971 0
M  V30 1041 H 93.2553 -4.30354 0.545672 0
M  V30 1042 H 93.9263 -5.48967 -0.577861 0
M  V30 1043 H 96.4023 -3.84716 -1.58534 0
M  V30 1044 H 95.2783 -4.88914 -2.49507 0
M  V30 1045 H 95.5393 -3.23215 -3.01636 0
M  V30 1046 N 94.5984 0.214957 -1.56127 0
M  V30 1047 C 95.8464 0.936518 -1.79091 0
M  V30 1048 C 96.1674 1.84606 -0.628148 0
M  V30 1049 O 95.4374 1.92664 0.35462 0
M  V30 1050 H 94.0174 0.3488 -0.660566 0
M  V30 1051 H 96.6794 0.22523 -1.93594 0
M  V30 1052 H 95.7754 1.53943 -2.71492 0
M  V30 1053 N 96.0765 1.50051 0.48192 0
M  V30 1054 C 97.0265 1.64512 1.5786 0
M  V30 1055 C 98.0105 0.500073 1.52932 0
M  V30 1056 O 99.2025 0.753964 1.60139 0
M  V30 1057 C 96.3315 1.73263 2.9637 0
M  V30 1058 C 95.4175 2.93409 3.06222 0
M  V30 1059 N 95.8085 4.17236 2.85915 0
M  V30 1060 C 94.1065 2.91742 3.37346 0
M  V30 1061 C 94.8075 4.981 3.00451 0
M  V30 1062 N 93.7835 4.3184 3.30174 0
M  V30 1063 H 97.5855 2.57955 1.40842 0
M  V30 1064 H 95.0995 1.47086 0.688439 0
M  V30 1065 H 97.0965 1.81724 3.75209 0
M  V30 1066 H 95.7565 0.809711 3.14442 0
M  V30 1067 H 96.7675 4.46909 2.6171 0
M  V30 1068 H 93.4445 2.08907 3.61475 0
M  V30 1069 H 94.8345 6.06532 2.89082 0
M  V30 1070 N 97.5546 -0.734337 1.39446 0
M  V30 1071 C 98.8016 -1.49391 1.36706 0
M  V30 1072 C 99.1296 -1.94465 -0.0367813 0
M  V30 1073 O 98.3846 -1.67154 -1.01774 0
M  V30 1074 C 98.6836 -2.74711 2.28623 0
M  V30 1075 C 98.3496 -2.48501 3.76242 0
M  V30 1076 C 97.0116 -2.41062 4.16464 0
M  V30 1077 C 99.3636 -2.26098 4.69606 0
M  V30 1078 C 96.6916 -2.09262 5.48112 0
M  V30 1079 C 99.0436 -1.95814 6.01531 0
M  V30 1080 C 97.7076 -1.86845 6.40816 0
M  V30 1081 H 96.9776 -0.546661 0.500243 0
M  V30 1082 H 99.6246 -0.842788 1.71957 0
M  V30 1083 H 97.9296 -3.44569 1.86492 0
M  V30 1084 H 99.6266 -3.32741 2.23796 0
M  V30 1085 H 96.2166 -2.55169 3.44364 0
M  V30 1086 H 100.401 -2.30812 4.39363 0
M  V30 1087 H 95.6566 -2.00841 5.77471 0
M  V30 1088 H 99.8306 -1.77488 6.73403 0
M  V30 1089 H 97.4576 -1.6197 7.42745 0
M  V30 1090 N 99.0327 -1.24633 -0.964593 0
M  V30 1091 C 100.28 -1.08788 -1.70796 0
M  V30 1092 C 100.608 0.372783 -1.90894 0
M  V30 1093 O 99.8627 1.29167 -1.47018 0
M  V30 1094 C 100.162 -1.7763 -3.10133 0
M  V30 1095 C 99.8277 -3.27557 -3.09866 0
M  V30 1096 C 98.4897 -3.6846 -3.09501 0
M  V30 1097 C 100.842 -4.23389 -3.03959 0
M  V30 1098 C 98.1697 -5.03624 -3.00965 0
M  V30 1099 C 100.522 -5.58565 -2.96965 0
M  V30 1100 C 99.1857 -5.98809 -2.9493 0
M  V30 1101 H 98.4557 -0.398084 -0.624988 0
M  V30 1102 H 101.103 -1.54777 -1.12767 0
M  V30 1103 H 99.4077 -1.24044 -3.71645 0
M  V30 1104 H 101.105 -1.62832 -3.66451 0
M  V30 1105 H 97.6947 -2.95006 -3.10917 0
M  V30 1106 H 101.879 -3.92787 -3.03368 0
M  V30 1107 H 97.1347 -5.33998 -2.97752 0
M  V30 1108 H 101.309 -6.32523 -2.91354 0
M  V30 1109 H 98.9357 -7.03505 -2.88071 0
M  V30 1110 N 100.511 1.16574 -1.06058 0
M  V30 1111 C 101.759 1.86677 -0.77434 0
M  V30 1112 C 102.08 1.81959 0.701147 0
M  V30 1113 O 101.35 1.2515 1.50713 0
M  V30 1114 H 99.9298 0.691134 -0.283449 0
M  V30 1115 H 102.592 1.41378 -1.34158 0
M  V30 1116 H 101.688 2.92181 -1.09711 0
M  V30 1117 N 101.989 0.842826 1.3317 0
M  V30 1118 C 102.922 0.223862 2.27099 0
M  V30 1119 C 103.9 -0.631311 1.49844 0
M  V30 1120 O 105.084 -0.590708 1.79005 0
M  V30 1121 C 102.211 -0.685313 3.31694 0
M  V30 1122 C 101.257 0.094919 4.26394 0
M  V30 1123 S 102.09 1.45546 5.15341 0
M  V30 1124 C 103.246 0.551685 6.23464 0
M  V30 1125 H 103.479 1.02015 2.79249 0
M  V30 1126 H 101.012 0.639797 1.4052 0
M  V30 1127 H 102.97 -1.20426 3.92438 0
M  V30 1128 H 101.631 -1.4553 2.78352 0
M  V30 1129 H 100.824 -0.597059 5.00451 0
M  V30 1130 H 100.426 0.545054 3.70007 0
M  V30 1131 H 102.718 -0.248877 6.77043 0
M  V30 1132 H 103.661 1.26253 6.96754 0
M  V30 1133 H 104.069 0.131275 5.64347 0
M  V30 1134 N 103.467 -1.45747 0.599634 0
M  V30 1135 C 104.397 -2.33235 -0.111306 0
M  V30 1136 C 105.378 -1.46359 -0.866781 0
M  V30 1137 O 106.563 -1.75146 -0.838904 0
M  V30 1138 C 103.693 -3.28932 -1.11451 0
M  V30 1139 C 102.647 -4.25381 -0.472772 0
M  V30 1140 C 101.973 -5.1071 -1.58365 0
M  V30 1141 C 103.273 -5.18831 0.600948 0
M  V30 1142 H 104.967 -2.92927 0.61919 0
M  V30 1143 H 102.513 -1.40857 0.299215 0
M  V30 1144 H 104.466 -3.89002 -1.62036 0
M  V30 1145 H 103.19 -2.67381 -1.8755 0
M  V30 1146 H 101.849 -3.66598 0.0121472 0
M  V30 1147 H 101.497 -4.45533 -2.33473 0
M  V30 1148 H 101.197 -5.7604 -1.15982 0
M  V30 1149 H 102.721 -5.73647 -2.09194 0
M  V30 1150 H 104.135 -5.73019 0.179491 0
M  V30 1151 H 102.532 -5.92595 0.946076 0
M  V30 1152 H 103.602 -4.6174 1.48068 0
M  V30 1153 N 104.945 -0.338344 -1.53925 0
M  V30 1154 C 106.173 0.261298 -2.05243 0
M  V30 1155 C 106.588 1.44625 -1.21363 0
M  V30 1156 O 105.945 1.80811 -0.247736 0
M  V30 1157 C 105.996 0.681412 -3.5502 0
M  V30 1158 O 105.717 -0.456414 -4.35716 0
M  V30 1159 C 107.218 1.34232 -4.22489 0
M  V30 1160 H 104.438 0.0513685 -0.669031 0
M  V30 1161 H 106.982 -0.488822 -1.98572 0
M  V30 1162 H 105.137 1.38148 -3.61931 0
M  V30 1163 H 105.551 -0.122564 -5.24357 0
M  V30 1164 H 107.025 1.58708 -5.28693 0
M  V30 1165 H 107.502 2.29426 -3.74514 0
M  V30 1166 H 108.108 0.684424 -4.19757 0
M  V30 1167 N 106.423 1.57458 -0.0668435 0
M  V30 1168 C 107.834 1.80776 0.466558 0
M  V30 1169 C 108.185 0.980361 1.69951 0
M  V30 1170 O 107.31 0.201441 2.1546 0
M  V30 1171 C 107.905 3.27881 0.85321 0
M  V30 1172 C 106.464 3.52062 1.3315 0
M  V30 1173 C 105.611 2.75513 0.314264 0
M  V30 1174 H 108.562 1.5598 -0.292588 0
M  V30 1175 H 108.583 3.39659 1.715 0
M  V30 1176 H 108.095 3.88075 -0.0443439 0
M  V30 1177 H 106.196 2.97167 2.24772 0
M  V30 1178 H 106.309 4.60762 1.31285 0
M  V30 1179 H 104.673 2.42123 0.790492 0
M  V30 1180 H 105.456 3.38442 -0.575477 0
M  V30 1181 N 107.901 -0.206675 1.56239 0
M  V30 1182 C 108.851 -1.26 1.90021 0
M  V30 1183 C 109.835 -1.41566 0.764721 0
M  V30 1184 O 111.027 -1.44131 1.02739 0
M  V30 1185 C 108.156 -2.6073 2.23326 0
M  V30 1186 C 107.242 -2.49005 3.43304 0
M  V30 1187 N 107.633 -2.06946 4.61527 0
M  V30 1188 C 105.931 -2.79927 3.47213 0
M  V30 1189 C 106.632 -2.06832 5.43687 0
M  V30 1190 N 105.608 -2.47892 4.83788 0
M  V30 1191 H 109.41 -0.925955 2.78932 0
M  V30 1192 H 106.924 -0.415172 1.57003 0
M  V30 1193 H 108.921 -3.36798 2.45708 0
M  V30 1194 H 107.581 -2.94968 1.35735 0
M  V30 1195 H 108.592 -1.77839 4.86409 0
M  V30 1196 H 105.269 -3.18438 2.70006 0
M  V30 1197 H 106.659 -1.76312 6.48354 0
M  V30 1198 N 109.379 -1.50304 -0.473955 0
M  V30 1199 C 110.625 -1.62358 -1.22521 0
M  V30 1200 C 110.98 -0.318555 -1.89745 0
M  V30 1201 O 110.273 0.683315 -1.79001 0
M  V30 1202 C 110.467 -2.73938 -2.29549 0
M  V30 1203 C 110.296 -4.15165 -1.72825 0
M  V30 1204 C 109.066 -4.81604 -1.52924 0
M  V30 1205 C 111.264 -4.99503 -1.22481 0
M  V30 1206 N 109.246 -6.07056 -0.91413 0
M  V30 1207 C 110.617 -6.15655 -0.732743 0
M  V30 1208 C 112.672 -4.85299 -1.11308 0
M  V30 1209 C 111.375 -7.19164 -0.139976 0
M  V30 1210 C 113.401 -5.88982 -0.534258 0
M  V30 1211 C 112.763 -7.0438 -0.0525562 0
M  V30 1212 H 108.862 -0.648286 -0.437321 0
M  V30 1213 H 111.446 -1.87413 -0.527692 0
M  V30 1214 H 109.617 -2.50611 -2.9673 0
M  V30 1215 H 111.349 -2.75366 -2.96573 0
M  V30 1216 H 108.104 -4.3885 -1.78067 0
M  V30 1217 H 108.528 -6.74108 -0.625071 0
M  V30 1218 H 113.17 -3.96369 -1.47144 0
M  V30 1219 H 110.888 -8.07771 0.230591 0
M  V30 1220 H 114.474 -5.80055 -0.450219 0
M  V30 1221 H 113.354 -7.83238 0.388324 0
M  V30 1222 N 110.857 0.726932 -1.39834 0
M  V30 1223 C 111.79 1.8501 -1.33592 0
M  V30 1224 C 112.768 1.61262 -0.208191 0
M  V30 1225 O 113.952 1.84422 -0.389981 0
M  V30 1226 C 111.079 3.21143 -1.07633 0
M  V30 1227 C 110.125 3.63737 -2.22705 0
M  V30 1228 S 110.958 3.72167 -3.85035 0
M  V30 1229 C 112.114 5.11077 -3.61318 0
M  V30 1230 H 112.347 1.90022 -2.28646 0
M  V30 1231 H 109.88 0.892595 -1.25985 0
M  V30 1232 H 111.838 3.99747 -0.933415 0
M  V30 1233 H 110.499 3.13776 -0.142526 0
M  V30 1234 H 109.692 4.62551 -2.00155 0
M  V30 1235 H 109.294 2.9236 -2.33242 0
M  V30 1236 H 111.586 5.97656 -3.19083 0
M  V30 1237 H 112.529 5.38658 -4.59623 0
M  V30 1238 H 112.937 4.81135 -2.95245 0
M  V30 1239 N 112.336 1.25143 0.95797 0
M  V30 1240 C 113.566 1.12261 1.73439 0
M  V30 1241 C 113.974 -0.326715 1.86358 0
M  V30 1242 O 113.317 -1.2367 1.35836 0
M  V30 1243 C 113.379 1.69966 3.16784 0
M  V30 1244 C 113.043 3.18936 3.27305 0
M  V30 1245 C 114.04 4.15968 3.11877 0
M  V30 1246 C 111.725 3.59083 3.51234 0
M  V30 1247 C 113.719 5.51126 3.20217 0
M  V30 1248 C 111.406 4.9438 3.5921 0
M  V30 1249 C 112.404 5.90211 3.43716 0
M  V30 1250 O 112.092 7.23046 3.51368 0
M  V30 1251 H 111.824 0.392476 0.550399 0
M  V30 1252 H 114.378 1.65927 1.21068 0
M  V30 1253 H 112.608 1.10744 3.70503 0
M  V30 1254 H 114.297 1.52232 3.76272 0
M  V30 1255 H 115.063 3.86292 2.93264 0
M  V30 1256 H 110.942 2.84989 3.62356 0
M  V30 1257 H 114.486 6.25905 3.0804 0
M  V30 1258 H 110.383 5.23723 3.77339 0
M  V30 1259 H 111.151 7.31097 3.6802 0
M  V30 1260 N 113.814 -1.1601 1.06675 0
M  V30 1261 C 114.724 -2.24156 0.692179 0
M  V30 1262 C 115.74 -1.71507 -0.293513 0
M  V30 1263 O 116.916 -2.009 -0.141861 0
M  V30 1264 C 113.981 -3.46587 0.0884131 0
M  V30 1265 C 113.042 -4.14257 1.12646 0
M  V30 1266 C 112.275 -5.30844 0.551416 0
M  V30 1267 O 112.498 -5.66858 -0.634656 0
M  V30 1268 O 111.432 -5.87848 1.29298 0
M  V30 1269 H 115.258 -2.58513 1.59388 0
M  V30 1270 H 112.843 -1.23599 0.83926 0
M  V30 1271 H 114.725 -4.20679 -0.246361 0
M  V30 1272 H 113.4 -3.13994 -0.786712 0
M  V30 1273 H 112.307 -3.42118 1.51348 0
M  V30 1274 H 113.64 -4.50914 1.97325 0
M  V30 1275 N 115.292 -0.849877 -1.32721 0
M  V30 1276 C 116.255 -0.296122 -2.27279 0
M  V30 1277 C 117.255 0.541458 -1.5141 0
M  V30 1278 O 118.445 0.353658 -1.70572 0
M  V30 1279 C 115.577 0.581579 -3.35902 0
M  V30 1280 H 116.77 -1.13064 -2.77771 0
M  V30 1281 H 114.323 -0.62383 -1.43311 0
M  V30 1282 H 115.058 1.43809 -2.9067 0
M  V30 1283 H 114.843 -0.0178814 -3.92096 0
M  V30 1284 H 116.333 0.961951 -4.0637 0
M  V30 1285 N 116.77 1.45427 -0.607355 0
M  V30 1286 C 118.016 2.03097 -0.111035 0
M  V30 1287 C 118.371 1.46735 1.24445 0
M  V30 1288 O 117.664 0.632478 1.8086 0
M  V30 1289 C 117.858 3.57398 -0.0129263 0
M  V30 1290 C 117.687 4.28726 -1.35735 0
M  V30 1291 C 116.457 4.66659 -1.93798 0
M  V30 1292 C 118.655 4.60699 -2.28607 0
M  V30 1293 N 116.637 5.22845 -3.21723 0
M  V30 1294 C 118.008 5.17716 -3.41131 0
M  V30 1295 C 120.063 4.42638 -2.27982 0
M  V30 1296 C 118.766 5.58576 -4.53194 0
M  V30 1297 C 120.792 4.84531 -3.39093 0
M  V30 1298 C 120.154 5.4164 -4.50339 0
M  V30 1299 H 116.253 0.777476 -0.083994 0
M  V30 1300 H 118.837 1.77249 -0.805655 0
M  V30 1301 H 117.008 3.82907 0.650914 0
M  V30 1302 H 118.74 4.01722 0.490033 0
M  V30 1303 H 115.495 4.50207 -1.47007 0
M  V30 1304 H 115.919 5.55438 -3.87063 0
M  V30 1305 H 120.561 3.97798 -1.43235 0
M  V30 1306 H 118.279 6.02382 -5.38667 0
M  V30 1307 H 121.865 4.72289 -3.39757 0
M  V30 1308 H 120.745 5.73461 -5.34895 0
M  V30 1309 N 118.248 0.346503 1.53744 0
M  V30 1310 C 119.178 -0.501193 2.28058 0
M  V30 1311 C 120.159 -1.10014 1.29734 0
M  V30 1312 O 121.344 -1.12097 1.58581 0
M  V30 1313 C 118.474 -1.65078 3.05559 0
M  V30 1314 C 117.428 -1.18003 4.11411 0
M  V30 1315 C 116.754 -2.41837 4.76884 0
M  V30 1316 C 118.054 -0.278394 5.21558 0
M  V30 1317 H 119.748 0.11875 2.99164 0
M  V30 1318 H 117.294 0.0585531 1.43881 0
M  V30 1319 H 119.247 -2.25028 3.56287 0
M  V30 1320 H 117.971 -2.29767 2.32109 0
M  V30 1321 H 116.63 -0.603331 3.61601 0
M  V30 1322 H 116.278 -3.0494 4.00026 0
M  V30 1323 H 115.978 -2.1102 5.48402 0
M  V30 1324 H 117.502 -3.02508 5.30397 0
M  V30 1325 H 118.916 -0.784823 5.67903 0
M  V30 1326 H 117.313 -0.0619707 6.00068 0
M  V30 1327 H 118.383 0.684677 4.80042 0
M  V30 1328 N 119.726 -1.57421 0.075193 0
M  V30 1329 C 121.137 -1.81021 -0.456964 0
M  V30 1330 C 121.488 -0.98936 -1.69429 0
M  V30 1331 O 120.613 -0.212865 -2.15351 0
M  V30 1332 C 121.208 -3.28329 -0.83581 0
M  V30 1333 C 119.767 -3.52764 -1.31281 0
M  V30 1334 C 118.914 -2.75676 -0.299648 0
M  V30 1335 H 121.865 -1.55822 0.300856 0
M  V30 1336 H 121.886 -3.40564 -1.69696 0
M  V30 1337 H 121.398 -3.88046 0.0649238 0
M  V30 1338 H 119.499 -2.98355 -2.23193 0
M  V30 1339 H 119.612 -4.61451 -1.28839 0
M  V30 1340 H 117.976 -2.42538 -0.777641 0
M  V30 1341 H 118.759 -3.38132 0.593417 0
M  V30 1342 N 121.204 0.198386 -1.56346 0
M  V30 1343 C 122.453 0.917451 -1.79627 0
M  V30 1344 C 122.766 1.8456 -0.64784 0
M  V30 1345 O 123.972 2.60504 -0.764859 0
M  V30 1346 C 122.428 1.68175 -3.18191 0
M  V30 1347 C 122.036 0.798589 -4.40825 0
M  V30 1348 C 123.78 2.39065 -3.50782 0
M  V30 1349 C 121.687 1.56157 -5.70411 0
M  V30 1350 H 120.617 0.346317 -0.669762 0
M  V30 1351 H 123.268 0.170801 -1.82703 0
M  V30 1352 H 121.65 2.47216 -3.09354 0
M  V30 1353 H 122.824 0.0470665 -4.60776 0
M  V30 1354 H 121.139 0.200686 -4.15916 0
M  V30 1355 H 123.736 2.96692 -4.44835 0
M  V30 1356 H 124.079 3.13091 -2.74371 0
M  V30 1357 H 124.612 1.66993 -3.61052 0
M  V30 1358 H 121.351 0.864142 -6.49779 0
M  V30 1359 H 120.871 2.2871 -5.54483 0
M  V30 1360 H 122.55 2.11622 -6.11412 0
M  V30 1361 N 122.682 1.50554 0.465978 0
M  V30 1362 C 123.592 1.72585 1.58907 0
M  V30 1363 C 124.608 0.60911 1.6299 0
M  V30 1364 O 125.784 0.88804 1.80765 0
M  V30 1365 C 122.849 1.81995 2.95091 0
M  V30 1366 C 121.91 3.05751 3.01355 0
M  V30 1367 C 121.143 3.14702 4.31043 0
M  V30 1368 O 121.366 2.30313 5.21835 0
M  V30 1369 O 120.3 4.07468 4.43005 0
M  V30 1370 H 124.126 2.67799 1.43239 0
M  V30 1371 H 121.711 1.34711 0.646013 0
M  V30 1372 H 123.593 1.90335 3.75966 0
M  V30 1373 H 122.268 0.899659 3.10947 0
M  V30 1374 H 121.175 3.02908 2.19539 0
M  V30 1375 H 122.508 3.97375 2.90437 0
M  V30 1376 N 124.16 -0.719506 1.40217 0
M  V30 1377 C 125.406 -1.48152 1.38488 0
M  V30 1378 C 125.739 -1.94195 -0.0141867 0
M  V30 1379 O 125.014 -1.67884 -0.982096 0
M  V30 1380 C 125.297 -2.71035 2.37091 0
M  V30 1381 C 125.15 -2.30912 3.86005 0
M  V30 1382 C 126.469 -3.73182 2.33288 0
M  V30 1383 H 123.588 -0.537395 0.504357 0
M  V30 1384 H 126.23 -0.821472 1.71324 0
M  V30 1385 H 124.38 -3.27352 2.0922 0
M  V30 1386 H 126.052 -1.80107 4.24687 0
M  V30 1387 H 124.295 -1.62958 4.02029 0
M  V30 1388 H 124.966 -3.18978 4.50508 0
M  V30 1389 H 127.442 -3.26485 2.57966 0
M  V30 1390 H 126.318 -4.56806 3.04334 0
M  V30 1391 H 126.579 -4.21202 1.34317 0
M  V30 1392 N 125.638 -1.25649 -0.95132 0
M  V30 1393 C 126.585 -1.06323 -2.04851 0
M  V30 1394 C 127.555 0.0286491 -1.66075 0
M  V30 1395 O 128.74 -0.12917 -1.90362 0
M  V30 1396 C 125.88 -0.691529 -3.381 0
M  V30 1397 C 124.993 -1.85861 -3.89974 0
M  V30 1398 C 124.128 -1.43096 -5.11563 0
M  V30 1399 C 123.167 -2.56696 -5.55674 0
M  V30 1400 N 122.304 -2.14684 -6.68472 0
M  V30 1401 H 127.144 -2.00222 -2.20715 0
M  V30 1402 H 124.681 -0.997027 -1.08156 0
M  V30 1403 H 126.639 -0.456963 -4.1469 0
M  V30 1404 H 125.269 0.210474 -3.22113 0
M  V30 1405 H 124.321 -2.20639 -3.09875 0
M  V30 1406 H 125.633 -2.71161 -4.18657 0
M  V30 1407 H 124.787 -1.15624 -5.9558 0
M  V30 1408 H 123.526 -0.548722 -4.84603 0
M  V30 1409 H 122.531 -2.84909 -4.7022 0
M  V30 1410 H 123.756 -3.45503 -5.8464 0
M  V30 1411 H 121.702 -1.28881 -6.43215 0
M  V30 1412 H 121.619 -2.9353 -6.96689 0
M  V30 1413 H 122.887 -1.90397 -7.5589 0
M  V30 1414 N 127.117 1.15442 -1.07289 0
M  V30 1415 C 128.049 2.19773 -0.650585 0
M  V30 1416 C 129.062 1.60076 0.296572 0
M  V30 1417 O 130.251 1.78293 0.0859905 0
M  V30 1418 C 127.351 3.38838 0.0650398 0
M  V30 1419 C 126.524 4.2808 -0.898141 0
M  V30 1420 C 125.583 5.2574 -0.219926 0
M  V30 1421 O 124.609 5.62654 -0.860773 0
M  V30 1422 N 125.811 5.71205 1.03466 0
M  V30 1423 H 128.576 2.56622 -1.54808 0
M  V30 1424 H 126.137 1.30551 -0.957494 0
M  V30 1425 H 128.129 4.01222 0.529415 0
M  V30 1426 H 126.699 3.00409 0.864466 0
M  V30 1427 H 125.919 3.62804 -1.54165 0
M  V30 1428 H 127.207 4.84577 -1.5512 0
M  V30 1429 H 126.605 5.43325 1.57526 0
M  V30 1430 H 125.162 6.35633 1.44272 0
M  V30 1431 N 128.595 0.856903 1.32268 0
M  V30 1432 C 129.542 0.301172 2.28827 0
M  V30 1433 C 130.512 -0.593104 1.5515 0
M  V30 1434 O 131.697 -0.527537 1.83362 0
M  V30 1435 C 128.837 -0.502523 3.41422 0
M  V30 1436 C 127.95 0.417797 4.29975 0
M  V30 1437 C 127.085 -0.398749 5.29701 0
M  V30 1438 C 126.124 0.518827 6.09897 0
M  V30 1439 N 125.261 -0.260674 7.01616 0
M  V30 1440 H 130.101 1.12983 2.75751 0
M  V30 1441 H 127.638 0.568582 1.35667 0
M  V30 1442 H 129.596 -0.984141 4.05426 0
M  V30 1443 H 128.226 -1.29599 2.95642 0
M  V30 1444 H 127.278 1.01781 3.66531 0
M  V30 1445 H 128.59 1.12191 4.86019 0
M  V30 1446 H 127.744 -0.943435 5.9932 0
M  V30 1447 H 126.483 -1.13622 4.7428 0
M  V30 1448 H 125.488 1.07538 5.39181 0
M  V30 1449 H 126.713 1.25495 6.67404 0
M  V30 1450 H 124.659 -0.981198 6.4862 0
M  V30 1451 H 124.576 0.384364 7.55022 0
M  V30 1452 H 125.844 -0.787014 7.75517 0
M  V30 1453 N 130.073 -1.45103 0.615059 0
M  V30 1454 C 131.006 -2.27717 -0.148408 0
M  V30 1455 C 131.984 -1.37584 -0.866572 0
M  V30 1456 O 133.168 -1.67017 -0.87393 0
M  V30 1457 C 130.295 -3.16136 -1.21557 0
M  V30 1458 C 129.341 -4.22263 -0.599712 0
M  V30 1459 S 130.174 -5.3215 0.598081 0
M  V30 1460 C 131.33 -6.24137 -0.469484 0
M  V30 1461 H 131.563 -2.92121 0.552483 0
M  V30 1462 H 129.096 -1.49054 0.402778 0
M  V30 1463 H 131.054 -3.67633 -1.82638 0
M  V30 1464 H 129.715 -2.50982 -1.88857 0
M  V30 1465 H 128.908 -4.84081 -1.4029 0
M  V30 1466 H 128.51 -3.73945 -0.063876 0
M  V30 1467 H 130.802 -6.63984 -1.34652 0
M  V30 1468 H 131.745 -7.0801 0.112725 0
M  V30 1469 H 132.153 -5.58971 -0.788168 0
M  V30 1470 N 131.551 -0.354651 -1.53558 0
M  V30 1471 C 132.514 0.484566 -2.24019 0
M  V30 1472 C 133.514 1.01861 -1.24422 0
M  V30 1473 O 134.704 0.906097 -1.4878 0
M  V30 1474 C 131.836 1.67615 -2.96847 0
M  V30 1475 H 133.029 -0.131843 -2.9961 0
M  V30 1476 H 130.582 -0.106165 -1.55939 0
M  V30 1477 H 131.317 2.33095 -2.25471 0
M  V30 1478 H 131.102 1.30029 -3.69912 0
M  V30 1479 H 132.592 2.27114 -3.50441 0
M  V30 1480 N 133.029 1.57378 -0.0835403 0
M  V30 1481 C 133.962 2.09016 0.915833 0
M  V30 1482 C 134.94 0.997993 1.2837 0
M  V30 1483 O 136.124 1.27219 1.39096 0
M  V30 1484 C 133.251 2.55757 2.22049 0
M  V30 1485 C 132.297 3.76522 2.00333 0
M  V30 1486 S 133.13 5.20661 1.25191 0
M  V30 1487 C 134.286 5.70743 2.56912 0
M  V30 1488 H 134.519 2.93457 0.476492 0
M  V30 1489 H 132.052 1.53856 0.129493 0
M  V30 1490 H 134.01 2.83346 2.97027 0
M  V30 1491 H 132.671 1.71564 2.63106 0
M  V30 1492 H 131.864 4.07256 2.96916 0
M  V30 1493 H 131.466 3.49367 1.33488 0
M  V30 1494 H 133.758 5.78304 3.52946 0
M  V30 1495 H 134.701 6.6944 2.30772 0
M  V30 1496 H 135.109 4.98616 2.64655 0
M  V30 1497 N 134.507 -0.190092 1.56449 0
M  V30 1498 C 135.754 -0.909705 1.80916 0
M  V30 1499 C 136.082 -1.83047 0.657583 0
M  V30 1500 O 135.337 -1.92428 -0.356356 0
M  V30 1501 C 135.636 -1.75382 3.1141 0
M  V30 1502 C 135.302 -0.983606 4.40041 0
M  V30 1503 C 133.964 -0.770967 4.74984 0
M  V30 1504 C 136.316 -0.442024 5.19322 0
M  V30 1505 C 133.644 -0.0053448 5.867 0
M  V30 1506 C 135.996 0.310412 6.31838 0
M  V30 1507 C 134.66 0.534023 6.6536 0
M  V30 1508 H 133.93 -0.332885 0.662019 0
M  V30 1509 H 136.577 -0.175762 1.90692 0
M  V30 1510 H 134.882 -2.55659 2.96893 0
M  V30 1511 H 136.579 -2.31331 3.27547 0
M  V30 1512 H 133.169 -1.15936 4.12622 0
M  V30 1513 H 137.353 -0.593693 4.92736 0
M  V30 1514 H 132.609 0.177825 6.11141 0
M  V30 1515 H 136.783 0.737419 6.92485 0
M  V30 1516 H 134.41 1.12918 7.51767 0
M  V30 1517 N 135.985 -1.50799 -0.457987 0
M  V30 1518 C 136.948 -1.7005 -1.53674 0
M  V30 1519 C 137.948 -0.570881 -1.50325 0
M  V30 1520 O 139.138 -0.838126 -1.52712 0
M  V30 1521 C 136.27 -1.73788 -2.93276 0
M  V30 1522 H 137.463 -2.66306 -1.37917 0
M  V30 1523 H 135.016 -1.40477 -0.685271 0
M  V30 1524 H 135.751 -0.792717 -3.14462 0
M  V30 1525 H 135.536 -2.55864 -2.97113 0
M  V30 1526 H 137.026 -1.90591 -3.71571 0
M  V30 1527 N 137.463 0.71206 -1.40597 0
M  V30 1528 C 138.711 1.46907 -1.38791 0
M  V30 1529 C 139.032 1.94998 0.00780391 0
M  V30 1530 O 138.302 1.70587 0.963174 0
M  V30 1531 H 136.882 0.545043 -0.51082 0
M  V30 1532 H 139.544 0.843882 -1.75683 0
M  V30 1533 H 138.64 2.34021 -2.06496 0
M  V30 1534 N 138.941 1.26152 0.944643 0
M  V30 1535 C 140.189 1.11271 1.6871 0
M  V30 1536 C 140.51 -0.345166 1.91921 0
M  V30 1537 O 139.78 -1.24387 1.51343 0
M  V30 1538 H 138.36 0.408783 0.625224 0
M  V30 1539 H 141.022 1.58427 1.1352 0
M  V30 1540 H 140.118 1.62879 2.66227 0
M  V30 1541 N 140.419 -1.14872 1.07899 0
M  V30 1542 C 141.382 -2.17986 0.708161 0
M  V30 1543 C 142.382 -1.58775 -0.25442 0
M  V30 1544 O 143.572 -1.74166 -0.034645 0
M  V30 1545 C 140.704 -3.40871 0.0446929 0
M  V30 1546 H 141.897 -2.52306 1.62116 0
M  V30 1547 H 139.45 -1.2943 0.876218 0
M  V30 1548 H 140.185 -3.12124 -0.880281 0
M  V30 1549 H 139.97 -3.8511 0.737091 0
M  V30 1550 H 141.46 -4.17121 -0.19991 0
M  V30 1551 N 141.898 -0.863906 -1.31812 0
M  V30 1552 C 143.123 -0.48527 -2.01643 0
M  V30 1553 C 143.548 0.913058 -1.64453 0
M  V30 1554 O 142.906 1.6014 -0.849985 0
M  V30 1555 C 142.954 -0.642625 -3.54828 0
M  V30 1556 O 142.058 0.320659 -4.11151 0
M  V30 1557 H 141.399 -0.193793 -0.635091 0
M  V30 1558 H 143.929 -1.16565 -1.68148 0
M  V30 1559 H 143.939 -0.533628 -4.04495 0
M  V30 1560 H 142.614 -1.66227 -3.81237 0
M  V30 1561 H 141.191 0.167126 -3.72525 0
M  V30 1562 N 143.376 1.44774 -0.622745 0
M  V30 1563 C 144.624 2.01721 -0.123655 0
M  V30 1564 C 144.945 1.49172 1.25589 0
M  V30 1565 O 144.215 0.691974 1.83272 0
M  V30 1566 H 142.795 0.745777 -0.0427225 0
M  V30 1567 H 145.457 1.77382 -0.807559 0
M  V30 1568 H 144.553 3.11984 -0.0849534 0
M  V30 1569 N 144.854 0.36279 1.53368 0
M  V30 1570 C 146.1 -0.228113 2.01513 0
M  V30 1571 C 146.433 -1.48648 1.2497 0
M  V30 1572 O 145.708 -1.91459 0.342616 0
M  V30 1573 C 145.991 -0.522884 3.56284 0
M  V30 1574 C 145.844 0.74892 4.43521 0
M  V30 1575 C 147.163 -1.32461 4.19693 0
M  V30 1576 H 144.282 -0.0814343 0.732487 0
M  V30 1577 H 146.924 0.48713 1.83649 0
M  V30 1578 H 145.074 -1.1322 3.71636 0
M  V30 1579 H 146.746 1.38648 4.39971 0
M  V30 1580 H 144.989 1.36986 4.11603 0
M  V30 1581 H 145.66 0.497667 5.49752 0
M  V30 1582 H 148.136 -0.809203 4.08156 0
M  V30 1583 H 147.012 -1.49961 5.28018 0
M  V30 1584 H 147.273 -2.33232 3.75573 0
M  V30 1585 N 146.332 -1.57332 0.0918853 0
M  V30 1586 C 147.262 -2.16872 -0.865371 0
M  V30 1587 C 148.243 -1.10118 -1.29646 0
M  V30 1588 O 149.428 -1.38242 -1.36392 0
M  V30 1589 C 146.558 -2.74649 -2.12569 0
M  V30 1590 C 145.512 -3.86747 -1.83333 0
M  V30 1591 C 144.838 -4.31212 -3.16166 0
M  V30 1592 C 146.138 -5.10089 -1.1228 0
M  V30 1593 H 147.832 -2.97114 -0.369307 0
M  V30 1594 H 145.378 -1.42918 -0.176194 0
M  V30 1595 H 147.331 -3.14952 -2.7997 0
M  V30 1596 H 146.055 -1.91657 -2.64452 0
M  V30 1597 H 144.714 -3.46978 -1.18331 0
M  V30 1598 H 144.362 -3.45115 -3.6593 0
M  V30 1599 H 144.062 -5.06788 -2.97388 0
M  V30 1600 H 145.586 -4.74146 -3.84731 0
M  V30 1601 H 147 -5.47582 -1.69785 0
M  V30 1602 H 145.397 -5.91073 -1.03693 0
M  V30 1603 H 146.467 -4.84786 -0.105041 0
M  V30 1604 N 147.81 0.181792 -1.56548 0
M  V30 1605 C 149.05 0.906711 -1.83189 0
M  V30 1606 C 149.414 1.79882 -0.671312 0
M  V30 1607 O 150.615 2.56054 -0.81792 0
M  V30 1608 C 148.886 1.69023 -3.14906 0
M  V30 1609 S 150.445 2.46535 -3.62996 0
M  V30 1610 H 147.263 0.303877 -0.642791 0
M  V30 1611 H 149.865 0.169107 -1.94767 0
M  V30 1612 H 148.569 1.02571 -3.97376 0
M  V30 1613 H 148.1 2.46941 -3.06241 0
M  V30 1614 H 150.115 3.71014 -3.29489 0
M  V30 1615 N 149.288 1.51039 0.449983 0
M  V30 1616 C 150.218 1.74379 1.55288 0
M  V30 1617 C 151.199 0.593236 1.5942 0
M  V30 1618 O 152.384 0.834625 1.7535 0
M  V30 1619 C 149.514 1.85728 2.93466 0
M  V30 1620 C 148.468 3.01078 3.04197 0
M  V30 1621 C 147.794 2.97595 4.44231 0
M  V30 1622 C 149.094 4.41254 2.7945 0
M  V30 1623 H 150.788 2.66725 1.36008 0
M  V30 1624 H 148.334 1.2835 0.652864 0
M  V30 1625 H 150.287 2.0064 3.70569 0
M  V30 1626 H 149.011 0.900207 3.13949 0
M  V30 1627 H 147.67 2.85851 2.29531 0
M  V30 1628 H 147.318 1.99691 4.61663 0
M  V30 1629 H 147.018 3.75046 4.52343 0
M  V30 1630 H 148.542 3.14583 5.23326 0
M  V30 1631 H 149.956 4.56897 3.46292 0
M  V30 1632 H 148.353 5.20315 2.98985 0
M  V30 1633 H 149.423 4.52164 1.75144 0
M  V30 1634 N 150.766 -0.704594 1.40972 0
M  V30 1635 C 152.015 -1.46018 1.39146 0
M  V30 1636 C 152.328 -1.956 0.000589254 0
M  V30 1637 O 153.534 -2.71137 -0.1403 0
M  V30 1638 C 151.99 -2.63996 2.4461 0
M  V30 1639 C 151.598 -2.21238 3.89561 0
M  V30 1640 C 153.342 -3.41677 2.51907 0
M  V30 1641 C 151.249 -3.3612 4.86598 0
M  V30 1642 H 150.179 -0.548444 0.517422 0
M  V30 1643 H 152.83 -0.765784 1.66757 0
M  V30 1644 H 151.212 -3.3566 2.10115 0
M  V30 1645 H 152.386 -1.56923 4.33257 0
M  V30 1646 H 150.701 -1.56574 3.85841 0
M  V30 1647 H 153.298 -4.27182 3.2159 0
M  V30 1648 H 153.641 -3.86247 1.55303 0
M  V30 1649 H 154.174 -2.77064 2.85448 0
M  V30 1650 H 150.913 -2.96572 5.84573 0
M  V30 1651 H 150.433 -3.99315 4.47557 0
M  V30 1652 H 152.112 -4.02029 5.06934 0
M  V30 1653 N 152.244 -1.26651 -0.937939 0
M  V30 1654 C 153.492 -1.12165 -1.68118 0
M  V30 1655 C 153.813 0.334983 -1.92101 0
M  V30 1656 O 153.083 1.23583 -1.52 0
M  V30 1657 H 151.663 -0.412093 -0.623048 0
M  V30 1658 H 154.325 -1.59027 -1.12678 0
M  V30 1659 H 153.421 -1.64289 -2.6536 0
M  V30 1660 N 153.722 1.14298 -1.08507 0
M  V30 1661 C 154.97 1.84993 -0.813763 0
M  V30 1662 C 155.291 1.83405 0.662393 0
M  V30 1663 O 154.561 1.28319 1.48024 0
M  V30 1664 H 153.141 0.684966 -0.298045 0
M  V30 1665 H 155.803 1.385 -1.37126 0
M  V30 1666 H 154.899 2.89788 -1.15884 0
M  V30 1667 N 155.201 0.870884 1.31352 0
M  V30 1668 C 156.447 0.482987 1.96965 0
M  V30 1669 C 156.78 -0.962462 1.68672 0
M  V30 1670 O 156.055 -1.6779 0.98371 0
M  V30 1671 C 156.338 0.741752 3.52378 0
M  V30 1672 C 156.191 2.2368 3.9024 0
M  V30 1673 C 157.51 0.208838 4.39604 0
M  V30 1674 H 154.629 0.176955 0.715441 0
M  V30 1675 H 157.271 1.09229 1.55464 0
M  V30 1676 H 155.421 0.223149 3.87859 0
M  V30 1677 H 157.093 2.82273 3.64856 0
M  V30 1678 H 155.336 2.70901 3.38814 0
M  V30 1679 H 156.007 2.3685 4.98604 0
M  V30 1680 H 158.483 0.652529 4.10952 0
M  V30 1681 H 157.359 0.419336 5.47296 0
M  V30 1682 H 157.62 -0.889275 4.33064 0
M  V30 1683 N 156.679 -1.44442 0.630414 0
M  V30 1684 C 157.609 -2.33418 -0.0618083 0
M  V30 1685 C 158.59 -1.48165 -0.835541 0
M  V30 1686 O 159.775 -1.76886 -0.801564 0
M  V30 1687 C 156.905 -3.31222 -1.04449 0
M  V30 1688 C 155.859 -4.26288 -0.382436 0
M  V30 1689 C 155.185 -5.13954 -1.47497 0
M  V30 1690 C 156.485 -5.1744 0.710865 0
M  V30 1691 H 158.179 -2.91548 0.681184 0
M  V30 1692 H 155.725 -1.40191 0.329026 0
M  V30 1693 H 157.678 -3.92351 -1.53748 0
M  V30 1694 H 156.402 -2.71299 -1.81836 0
M  V30 1695 H 155.061 -3.6649 0.0899054 0
M  V30 1696 H 154.709 -4.50385 -2.2397 0
M  V30 1697 H 154.409 -5.7837 -1.03737 0
M  V30 1698 H 155.933 -5.77955 -1.96979 0
M  V30 1699 H 157.347 -5.72509 0.300996 0
M  V30 1700 H 155.744 -5.90455 1.07156 0
M  V30 1701 H 156.814 -4.58496 1.57829 0
M  V30 1702 N 158.157 -0.370918 -1.53173 0
M  V30 1703 C 159.087 0.464847 -2.28826 0
M  V30 1704 C 160.068 1.07936 -1.31468 0
M  V30 1705 O 161.253 1.0956 -1.60344 0
M  V30 1706 C 158.383 1.60196 -3.08147 0
M  V30 1707 C 157.337 1.11443 -4.13237 0
M  V30 1708 C 156.663 2.3422 -4.80672 0
M  V30 1709 C 157.963 0.195384 -5.21934 0
M  V30 1710 H 159.657 -0.166329 -2.98938 0
M  V30 1711 H 157.203 -0.0814359 -1.4377 0
M  V30 1712 H 159.156 2.19332 -3.59822 0
M  V30 1713 H 157.88 2.26045 -2.35735 0
M  V30 1714 H 156.539 0.545727 -3.62515 0
M  V30 1715 H 156.187 2.98537 -4.04827 0
M  V30 1716 H 155.887 2.02269 -5.51689 0
M  V30 1717 H 157.411 2.94032 -5.35143 0
M  V30 1718 H 158.825 0.694375 -5.69079 0
M  V30 1719 H 157.222 -0.0335027 -6.00091 0
M  V30 1720 H 158.292 -0.760961 -4.78892 0
M  V30 1721 N 159.635 1.57281 -0.100228 0
M  V30 1722 C 160.565 2.17328 0.853857 0
M  V30 1723 C 161.546 1.10804 1.2906 0
M  V30 1724 O 162.731 1.38963 1.35657 0
M  V30 1725 C 159.861 2.75772 2.11109 0
M  V30 1726 C 158.815 3.87713 1.81279 0
M  V30 1727 C 158.141 4.32882 3.13874 0
M  V30 1728 C 159.441 5.10677 1.09574 0
M  V30 1729 H 161.135 2.97305 0.353545 0
M  V30 1730 H 158.681 1.43009 0.168612 0
M  V30 1731 H 160.634 3.16433 2.78296 0
M  V30 1732 H 159.358 1.93057 2.63432 0
M  V30 1733 H 158.017 3.476 1.16489 0
M  V30 1734 H 157.665 3.47051 3.64095 0
M  V30 1735 H 157.365 5.08358 2.94696 0
M  V30 1736 H 158.889 4.7618 3.82211 0
M  V30 1737 H 160.303 5.48474 1.66879 0
M  V30 1738 H 158.7 5.91615 1.00557 0
M  V30 1739 H 159.77 4.84835 0.0793299 0
M  V30 1740 N 161.113 -0.173488 1.56642 0
M  V30 1741 C 162.06 -1.21482 1.96242 0
M  V30 1742 C 163.03 -1.44104 0.826027 0
M  V30 1743 O 164.215 -1.5688 1.08597 0
M  V30 1744 C 161.355 -2.54964 2.32567 0
M  V30 1745 C 160.468 -2.39739 3.59373 0
M  V30 1746 C 159.603 -3.66072 3.84921 0
M  V30 1747 C 158.642 -3.45771 5.05083 0
M  V30 1748 N 157.779 -4.64169 5.26775 0
M  V30 1749 H 162.619 -0.870123 2.85014 0
M  V30 1750 H 160.156 -0.418245 1.41029 0
M  V30 1751 H 162.114 -3.32758 2.5165 0
M  V30 1752 H 160.744 -2.87433 1.46908 0
M  V30 1753 H 159.796 -1.53131 3.48217 0
M  V30 1754 H 161.108 -2.20683 4.47326 0
M  V30 1755 H 160.262 -4.52303 4.0436 0
M  V30 1756 H 159.001 -3.88105 2.9534 0
M  V30 1757 H 158.006 -2.57927 4.85545 0
M  V30 1758 H 159.231 -3.25163 5.96193 0
M  V30 1759 H 157.177 -4.86425 4.40144 0
M  V30 1760 H 157.094 -4.48019 6.08946 0
M  V30 1761 H 158.362 -5.51689 5.5069 0
M  V30 1762 N 162.591 -1.51276 -0.441967 0
M  V30 1763 C 164.007 -1.39349 -0.778083 0
M  V30 1764 C 164.207 -0.472212 -1.95889 0
M  V30 1765 O 163.263 0.0743551 -2.5239 0
M  V30 1766 C 164.576 -2.81292 -1.0628 0
M  V30 1767 C 166.124 -2.9041 -1.16751 0
M  V30 1768 C 166.599 -4.33251 -1.48519 0
M  V30 1769 N 168.09 -4.36336 -1.55453 0
M  V30 1770 C 168.825 -5.43885 -1.81596 0
M  V30 1771 N 168.321 -6.61601 -2.05562 0
M  V30 1772 N 170.114 -5.3136 -1.8334 0
M  V30 1773 H 162.265 -2.09729 0.335774 0
M  V30 1774 H 164.528 -0.943925 0.0878028 0
M  V30 1775 H 164.234 -3.50678 -0.267905 0
M  V30 1776 H 164.108 -3.20334 -1.99163 0
M  V30 1777 H 166.495 -2.21225 -1.95304 0
M  V30 1778 H 166.576 -2.54871 -0.217801 0
M  V30 1779 H 166.22 -5.02984 -0.704958 0
M  V30 1780 H 166.15 -4.66299 -2.44689 0
M  V30 1781 H 168.641 -3.51466 -1.38853 0
M  V30 1782 H 168.954 -7.39361 -2.24867 0
M  V30 1783 H 167.299 -6.64725 -2.02894 0
M  V30 1784 H 170.49 -4.38382 -1.64132 0
M  V30 1785 H 170.663 -6.15258 -2.03377 0
M  V30 1786 N 164.069 0.697108 -1.41344 0
M  V30 1787 C 165.485 1.00751 -1.2378 0
M  V30 1788 C 165.685 2.01105 -0.126066 0
M  V30 1789 O 164.741 2.47295 0.51004 0
M  V30 1790 C 166.054 1.53359 -2.58653 0
M  V30 1791 C 167.602 1.6525 -2.65822 0
M  V30 1792 C 168.077 2.2126 -4.01009 0
M  V30 1793 N 169.568 2.28622 -4.02847 0
M  V30 1794 C 170.303 2.72984 -5.04249 0
M  V30 1795 N 169.799 3.16962 -6.16041 0
M  V30 1796 N 171.592 2.72534 -4.91611 0
M  V30 1797 H 163.743 0.0322662 -2.12375 0
M  V30 1798 H 166.006 0.0768853 -0.944877 0
M  V30 1799 H 165.712 0.870773 -3.4075 0
M  V30 1800 H 165.586 2.51597 -2.81032 0
M  V30 1801 H 167.973 2.30644 -1.84086 0
M  V30 1802 H 168.054 0.655614 -2.47256 0
M  V30 1803 H 167.698 1.56482 -4.83193 0
M  V30 1804 H 167.628 3.21698 -4.16915 0
M  V30 1805 H 170.119 1.97585 -3.22131 0
M  V30 1806 H 170.432 3.49434 -6.89287 0
M  V30 1807 H 168.777 3.14875 -6.1958 0
M  V30 1808 H 171.968 2.37525 -4.0336 0
M  V30 1809 H 172.141 3.06789 -5.70775 0
M  V30 1810 N 165.547 1.27147 0.931209 0
M  V30 1811 C 166.477 1.12081 2.04842 0
M  V30 1812 C 167.458 0.0232364 1.70084 0
M  V30 1813 O 168.643 0.197085 1.93197 0
M  V30 1814 C 165.773 0.76354 3.38803 0
M  V30 1815 C 164.727 1.81396 3.87659 0
M  V30 1816 C 164.053 1.31075 5.18385 0
M  V30 1817 C 165.353 3.21739 4.11438 0
M  V30 1818 H 167.047 2.05537 2.17703 0
M  V30 1819 H 164.593 0.989603 1.04608 0
M  V30 1820 H 166.546 0.644982 4.16435 0
M  V30 1821 H 165.27 -0.206727 3.25945 0
M  V30 1822 H 163.929 1.92136 3.12217 0
M  V30 1823 H 163.577 0.330037 5.01916 0
M  V30 1824 H 163.277 2.013 5.52044 0
M  V30 1825 H 164.801 1.20506 5.98591 0
M  V30 1826 H 166.215 3.14019 4.79651 0
M  V30 1827 H 164.612 3.89644 4.56397 0
M  V30 1828 H 165.682 3.67054 3.16859 0
M  V30 1829 N 167.025 -1.13721 1.09112 0
M  V30 1830 C 168.272 -1.84924 0.825192 0
M  V30 1831 C 168.6 -1.83347 -0.649151 0
M  V30 1832 O 167.855 -1.26449 -1.49362 0
M  V30 1833 C 168.154 -3.32861 1.30146 0
M  V30 1834 C 167.82 -3.54621 2.78486 0
M  V30 1835 C 166.482 -3.60268 3.18999 0
M  V30 1836 C 168.834 -3.62855 3.74146 0
M  V30 1837 C 166.162 -3.71679 4.53951 0
M  V30 1838 C 168.514 -3.75793 5.08883 0
M  V30 1839 C 167.178 -3.79692 5.4899 0
M  V30 1840 H 166.448 -0.676684 0.301959 0
M  V30 1841 H 169.095 -1.3428 1.36533 0
M  V30 1842 H 167.4 -3.85835 0.681064 0
M  V30 1843 H 169.097 -3.86395 1.07236 0
M  V30 1844 H 165.687 -3.50879 2.46134 0
M  V30 1845 H 169.871 -3.57775 3.43963 0
M  V30 1846 H 165.127 -3.72963 4.84467 0
M  V30 1847 H 169.301 -3.81107 5.82864 0
M  V30 1848 H 166.928 -3.88287 6.53558 0
M  V30 1849 N 168.503 -0.877838 -1.30888 0
M  V30 1850 C 169.728 -0.506629 -2.01117 0
M  V30 1851 C 170.153 0.895564 -1.65412 0
M  V30 1852 O 169.511 1.5923 -0.866922 0
M  V30 1853 C 169.559 -0.680223 -3.54126 0
M  V30 1854 O 168.663 0.277033 -4.11468 0
M  V30 1855 H 168.004 -0.200518 -0.633 0
M  V30 1856 H 170.534 -1.18342 -1.66902 0
M  V30 1857 H 170.544 -0.5765 -4.03907 0
M  V30 1858 H 169.219 -1.70261 -3.79452 0
M  V30 1859 H 167.796 0.127606 -3.72682 0
M  V30 1860 N 169.982 1.44106 -0.638065 0
M  V30 1861 C 171.393 1.85316 -0.226894 0
M  V30 1862 C 171.744 1.53399 1.22324 0
M  V30 1863 O 170.869 0.975463 1.93167 0
M  V30 1864 C 171.464 3.3637 -0.405013 0
M  V30 1865 C 170.023 3.76369 -0.0482902 0
M  V30 1866 C 169.17 2.67921 -0.715108 0
M  V30 1867 H 172.121 1.34474 -0.842764 0
M  V30 1868 H 172.142 3.7885 0.354 0
M  V30 1869 H 171.654 3.59569 -1.46053 0
M  V30 1870 H 169.755 3.58784 1.00522 0
M  V30 1871 H 169.868 4.76856 -0.463187 0
M  V30 1872 H 168.232 2.54259 -0.149753 0
M  V30 1873 H 169.015 2.93951 -1.77335 0
M  V30 1874 N 171.46 0.379036 1.52974 0
M  V30 1875 C 172.876 0.0285448 1.59574 0
M  V30 1876 C 173.076 -1.45542 1.39355 0
M  V30 1877 O 172.132 -2.2187 1.20541 0
M  V30 1878 C 173.445 0.496535 2.96572 0
M  V30 1879 C 174.993 0.451909 3.0972 0
M  V30 1880 C 175.468 0.895924 4.49152 0
M  V30 1881 N 176.959 0.851522 4.55306 0
M  V30 1882 C 177.694 1.16661 5.61407 0
M  V30 1883 N 177.19 1.55166 6.752 0
M  V30 1884 N 178.983 1.08853 5.51459 0
M  V30 1885 H 171.134 1.34525 1.64367 0
M  V30 1886 H 173.397 0.550733 0.771619 0
M  V30 1887 H 173.103 1.53258 3.16552 0
M  V30 1888 H 172.977 -0.109802 3.7704 0
M  V30 1889 H 175.364 -0.575029 2.89443 0
M  V30 1890 H 175.445 1.09392 2.3123 0
M  V30 1891 H 175.089 1.92104 4.70168 0
M  V30 1892 H 175.019 0.23103 5.26093 0
M  V30 1893 H 177.51 0.568038 3.73606 0
M  V30 1894 H 177.823 1.776 7.52116 0
M  V30 1895 H 176.168 1.59044 6.76557 0
M  V30 1896 H 179.359 0.786803 4.6144 0
M  V30 1897 H 179.532 1.33742 6.34048 0
M  V30 1898 N 172.938 -1.57226 0.108567 0
M  V30 1899 C 174.184 -1.95121 -0.552761 0
M  V30 1900 C 174.517 -0.991345 -1.66991 0
M  V30 1901 O 173.792 -0.0267211 -1.94482 0
M  V30 1902 C 174.075 -3.43039 -1.09528 0
M  V30 1903 C 173.928 -4.49797 0.0177332 0
M  V30 1904 C 175.247 -3.92567 -1.98945 0
M  V30 1905 H 172.366 -0.709496 -0.199461 0
M  V30 1906 H 175.008 -1.89126 0.182011 0
M  V30 1907 H 173.158 -3.48279 -1.72146 0
M  V30 1908 H 174.83 -4.56661 0.652584 0
M  V30 1909 H 173.073 -4.284 0.682309 0
M  V30 1910 H 173.744 -5.50528 -0.402919 0
M  V30 1911 H 176.22 -3.89565 -1.46214 0
M  V30 1912 H 175.096 -4.96605 -2.33827 0
M  V30 1913 H 175.357 -3.32648 -2.91201 0
M  V30 1914 N 174.416 0.165178 -1.56732 0
M  V30 1915 C 175.832 0.517174 -1.50988 0
M  V30 1916 C 176.032 1.84331 -0.813894 0
M  V30 1917 O 175.088 2.49672 -0.37682 0
M  V30 1918 C 176.401 0.544261 -2.95733 0
M  V30 1919 C 177.949 0.631039 -3.06573 0
M  V30 1920 C 178.424 0.68896 -4.52788 0
M  V30 1921 N 179.915 0.751683 -4.5706 0
M  V30 1922 C 180.65 0.817177 -5.67547 0
M  V30 1923 N 180.146 0.843129 -6.8765 0
M  V30 1924 N 181.939 0.856668 -5.55534 0
M  V30 1925 H 174.09 -0.704318 -2.00382 0
M  V30 1926 H 176.353 -0.254687 -0.913148 0
M  V30 1927 H 176.059 -0.361607 -3.49836 0
M  V30 1928 H 175.933 1.3886 -3.5071 0
M  V30 1929 H 178.32 1.52733 -2.52501 0
M  V30 1930 H 178.401 -0.240095 -2.54671 0
M  V30 1931 H 178.045 -0.2031 -5.07494 0
M  V30 1932 H 177.975 1.57633 -5.02454 0
M  V30 1933 H 180.466 0.739661 -3.70591 0
M  V30 1934 H 180.779 0.894448 -7.67606 0
M  V30 1935 H 179.124 0.811304 -6.90248 0
M  V30 1936 H 182.315 0.833437 -4.60621 0
M  V30 1937 H 182.488 0.904247 -6.4166 0
M  V30 1938 N 175.894 1.51508 0.433938 0
M  V30 1939 C 176.857 1.72473 1.50949 0
M  V30 1940 C 177.857 0.594725 1.49398 0
M  V30 1941 O 179.047 0.862315 1.5136 0
M  V30 1942 C 176.179 1.78431 2.90474 0
M  V30 1943 H 177.372 2.68467 1.33662 0
M  V30 1944 H 174.925 1.41549 0.662836 0
M  V30 1945 H 175.66 0.842645 3.13161 0
M  V30 1946 H 175.445 2.60558 2.93005 0
M  V30 1947 H 176.935 1.96479 3.68491 0
M  V30 1948 N 177.372 -0.689602 1.41712 0
M  V30 1949 C 178.6 -1.47827 1.44758 0
M  V30 1950 C 179.015 -1.88721 0.0545703 0
M  V30 1951 O 178.372 -1.57176 -0.927463 0
M  V30 1952 C 178.423 -2.73698 2.3616 0
M  V30 1953 O 178.144 -2.34524 3.7004 0
M  V30 1954 C 179.645 -3.67389 2.48072 0
M  V30 1955 H 176.865 -0.455357 0.49284 0
M  V30 1956 H 179.409 -0.848574 1.86063 0
M  V30 1957 H 177.564 -3.32891 1.98148 0
M  V30 1958 H 177.978 -3.15701 4.18847 0
M  V30 1959 H 179.452 -4.52475 3.16181 0
M  V30 1960 H 179.929 -4.12284 1.51388 0
M  V30 1961 H 180.535 -3.14097 2.86746 0
M  V30 1962 N 178.85 -1.27639 -0.924453 0
M  V30 1963 C 180.078 -1.16989 -1.70649 0
M  V30 1964 C 180.493 0.272869 -1.86818 0
M  V30 1965 O 179.85 1.18549 -1.38753 0
M  V30 1966 C 179.901 -1.85229 -3.10439 0
M  V30 1967 O 179.622 -3.23868 -2.95028 0
M  V30 1968 C 181.123 -1.80746 -4.04779 0
M  V30 1969 H 178.343 -0.406595 -0.53378 0
M  V30 1970 H 180.887 -1.68569 -1.15778 0
M  V30 1971 H 179.042 -1.37545 -3.6216 0
M  V30 1972 H 179.456 -3.57889 -3.83426 0
M  V30 1973 H 180.93 -2.33101 -5.00368 0
M  V30 1974 H 181.407 -0.777499 -4.32263 0
M  V30 1975 H 182.013 -2.28059 -3.58984 0
M  V30 1976 N 180.328 1.1314 -1.09713 0
M  V30 1977 C 181.556 1.88321 -0.856898 0
M  V30 1978 C 181.971 1.79276 0.592073 0
M  V30 1979 O 181.328 1.16142 1.40774 0
M  V30 1980 C 181.379 3.37812 -1.28706 0
M  V30 1981 O 181.1 3.46627 -2.67921 0
M  V30 1982 C 182.601 4.29952 -1.07964 0
M  V30 1983 H 179.821 0.596094 -0.308079 0
M  V30 1984 H 182.365 1.43205 -1.45988 0
M  V30 1985 H 180.52 3.805 -0.727912 0
M  V30 1986 H 180.934 4.39579 -2.8613 0
M  V30 1987 H 182.408 5.33159 -1.42986 0
M  V30 1988 H 182.885 4.39196 -0.0176577 0
M  V30 1989 H 183.491 3.93036 -1.62489 0
M  V30 1990 N 181.806 0.884767 1.30421 0
M  V30 1991 C 183.054 0.502112 1.95763 0
M  V30 1992 C 183.375 -0.951815 1.70192 0
M  V30 1993 O 182.645 -1.6692 1.0254 0
M  V30 1994 H 181.225 0.182694 0.724315 0
M  V30 1995 H 183.887 1.1278 1.58955 0
M  V30 1996 H 182.983 0.672188 3.04775 0
M  V30 1997 N 183.284 -1.43765 0.645699 0
M  V30 1998 C 184.247 -2.29163 -0.0409488 0
M  V30 1999 C 185.247 -1.41813 -0.757996 0
M  V30 2000 O 186.437 -1.63527 -0.600382 0
M  V30 2001 C 183.569 -3.23716 -1.06869 0
M  V30 2002 H 184.762 -2.91366 0.710345 0
M  V30 2003 H 182.315 -1.5092 0.406547 0
M  V30 2004 H 183.05 -2.66393 -1.84947 0
M  V30 2005 H 182.835 -3.88105 -0.558277 0
M  V30 2006 H 184.325 -3.87831 -1.54845 0
M  V30 2007 N 184.763 -0.387143 -1.52771 0
M  V30 2008 C 186.04 0.253197 -1.93954 0
M  V30 2009 C 186.42 1.64545 -1.32243 0
M  V30 2010 O 185.768 2.23191 -0.489699 0
M  V30 2011 C 185.978 0.281722 -3.47861 0
M  V30 2012 C 187.326 0.511715 -4.21505 0
M  V30 2013 O 188.35 0.362023 -3.54356 0
M  V30 2014 O 187.209 0.804847 -5.40541 0
M  V30 2015 H 184.303 0.156845 -0.811991 0
M  V30 2016 H 186.849 -0.441494 -1.63856 0
M  V30 2017 H 185.621 -0.693571 -3.85104 0
M  V30 2018 H 185.244 1.02142 -3.84256 0
M  V30 2019 N 186.241 1.57166 -0.116904 0
M  V30 2020 C 187.49 1.94298 0.541407 0
M  V30 2021 C 187.803 1.00236 1.67964 0
M  V30 2022 O 189.009 1.26826 2.40057 0
M  V30 2023 C 187.465 3.45306 1.01449 0
M  V30 2024 C 187.073 4.47899 -0.0951738 0
M  V30 2025 C 188.817 3.91361 1.6443 0
M  V30 2026 C 186.724 5.90083 0.394491 0
M  V30 2027 H 185.654 0.725308 0.206019 0
M  V30 2028 H 188.305 1.82446 -0.196419 0
M  V30 2029 H 186.687 3.52385 1.80667 0
M  V30 2030 H 187.861 4.52486 -0.871374 0
M  V30 2031 H 186.176 4.11583 -0.631505 0
M  V30 2032 H 188.773 4.95004 2.02176 0
M  V30 2033 H 189.116 3.3122 2.52189 0
M  V30 2034 H 189.649 3.87073 0.917559 0
M  V30 2035 H 186.388 6.53974 -0.447004 0
M  V30 2036 H 185.908 5.88921 1.13722 0
M  V30 2037 H 187.587 6.41307 0.856399 0
M  V30 2038 N 187.719 -0.156864 1.56817 0
M  V30 2039 C 188.649 -1.19589 2.00551 0
M  V30 2040 C 189.63 -1.4536 0.883426 0
M  V30 2041 O 190.815 -1.56449 1.15054 0
M  V30 2042 C 187.945 -2.53143 2.37773 0
M  V30 2043 C 186.899 -2.41913 3.53075 0
M  V30 2044 C 186.225 -3.80088 3.76081 0
M  V30 2045 C 187.525 -1.91157 4.86062 0
M  V30 2046 H 189.219 -0.832293 2.87599 0
M  V30 2047 H 186.765 -0.398918 1.38364 0
M  V30 2048 H 188.718 -3.26047 2.66967 0
M  V30 2049 H 187.442 -2.91319 1.4765 0
M  V30 2050 H 186.101 -1.71462 3.24031 0
M  V30 2051 H 185.749 -4.15683 2.83225 0
M  V30 2052 H 185.449 -3.73439 4.53671 0
M  V30 2053 H 186.973 -4.54556 4.0769 0
M  V30 2054 H 188.387 -2.53846 5.14038 0
M  V30 2055 H 186.784 -1.95422 5.67389 0
M  V30 2056 H 187.854 -0.866673 4.77092 0
M  V30 2057 N 189.197 -1.51736 -0.425897 0
M  V30 2058 C 190.446 -1.64201 -1.17136 0
M  V30 2059 C 190.759 -0.369705 -1.92074 0
M  V30 2060 O 191.965 -0.373898 -2.68913 0
M  V30 2061 C 190.421 -2.90035 -2.13091 0
M  V30 2062 C 190.029 -4.24312 -1.43747 0
M  V30 2063 C 191.773 -3.1186 -2.87999 0
M  V30 2064 C 189.68 -5.41285 -2.38253 0
M  V30 2065 H 188.61 -0.611624 -0.440944 0
M  V30 2066 H 191.261 -1.78212 -0.437328 0
M  V30 2067 H 189.643 -2.69684 -2.89977 0
M  V30 2068 H 190.817 -4.55086 -0.723408 0
M  V30 2069 H 189.132 -4.08456 -0.809465 0
M  V30 2070 H 191.729 -3.96427 -3.58817 0
M  V30 2071 H 192.072 -2.25403 -3.49999 0
M  V30 2072 H 192.605 -3.32605 -2.18217 0
M  V30 2073 H 189.344 -6.30037 -1.80925 0
M  V30 2074 H 188.864 -5.14872 -3.0768 0
M  V30 2075 H 190.543 -5.73694 -2.99139 0
M  V30 2076 N 190.675 0.682077 -1.42076 0
M  V30 2077 C 191.605 1.80796 -1.47767 0
M  V30 2078 C 192.586 1.6677 -0.334954 0
M  V30 2079 O 193.771 1.863 -0.548264 0
M  V30 2080 C 190.901 3.19038 -1.37229 0
M  V30 2081 C 189.855 3.47789 -2.49453 0
M  V30 2082 C 189.181 4.8553 -2.23975 0
M  V30 2083 C 190.481 3.45411 -3.91776 0
M  V30 2084 H 192.175 1.7629 -2.41997 0
M  V30 2085 H 189.721 0.846721 -1.16476 0
M  V30 2086 H 191.674 3.97528 -1.39821 0
M  V30 2087 H 190.398 3.24204 -0.394907 0
M  V30 2088 H 189.057 2.71657 -2.46166 0
M  V30 2089 H 188.705 4.87337 -1.24547 0
M  V30 2090 H 188.405 5.0573 -2.99184 0
M  V30 2091 H 189.929 5.66312 -2.28304 0
M  V30 2092 H 191.343 4.13882 -3.96705 0
M  V30 2093 H 189.74 3.77145 -4.66778 0
M  V30 2094 H 190.81 2.44122 -4.18966 0
M  V30 2095 N 192.153 1.28127 0.917671 0
M  V30 2096 C 193.378 1.18007 1.70555 0
M  V30 2097 C 193.803 -0.258257 1.86319 0
M  V30 2098 O 193.161 -1.1869 1.37049 0
M  V30 2099 C 193.209 1.87948 3.07746 0
M  V30 2100 O 192.313 1.18427 3.9503 0
M  V30 2101 H 191.654 0.409867 0.522403 0
M  V30 2102 H 194.184 1.69379 1.1477 0
M  V30 2103 H 194.194 1.95701 3.58001 0
M  V30 2104 H 192.869 2.92573 2.95591 0
M  V30 2105 H 191.446 1.18811 3.53466 0
M  V30 2106 N 193.631 -1.12557 1.10312 0
M  V30 2107 C 194.561 -2.20341 0.772798 0
M  V30 2108 C 195.542 -1.68198 -0.25365 0
M  V30 2109 O 196.727 -1.93831 -0.119699 0
M  V30 2110 C 193.857 -3.46709 0.202443 0
M  V30 2111 C 192.811 -4.11996 1.15943 0
M  V30 2112 C 192.137 -5.328 0.450345 0
M  V30 2113 C 193.437 -4.5828 2.50552 0
M  V30 2114 H 195.131 -2.48229 1.674 0
M  V30 2115 H 192.677 -1.19308 0.806326 0
M  V30 2116 H 194.63 -4.2138 -0.0407752 0
M  V30 2117 H 193.354 -3.18245 -0.734001 0
M  V30 2118 H 192.013 -3.39305 1.38808 0
M  V30 2119 H 191.661 -5.00602 -0.490531 0
M  V30 2120 H 191.361 -5.7743 1.08851 0
M  V30 2121 H 192.885 -6.10219 0.215642 0
M  V30 2122 H 194.299 -5.2433 2.31843 0
M  V30 2123 H 192.696 -5.13683 3.10242 0
M  V30 2124 H 193.766 -3.72329 3.10643 0
M  V30 2125 N 195.109 -0.891671 -1.2995 0
M  V30 2126 C 196.039 -0.379797 -2.30391 0
M  V30 2127 C 197.02 0.540919 -1.6127 0
M  V30 2128 O 198.205 0.453352 -1.88834 0
M  V30 2129 C 195.335 0.400654 -3.44981 0
M  V30 2130 C 194.289 -0.428905 -4.25846 0
M  V30 2131 C 193.615 0.478557 -5.32554 0
M  V30 2132 C 194.915 -1.67458 -4.94727 0
M  V30 2133 H 196.609 -1.21914 -2.73454 0
M  V30 2134 H 194.155 -0.587675 -1.31462 0
M  V30 2135 H 196.108 0.769434 -4.14316 0
M  V30 2136 H 194.832 1.27371 -3.0074 0
M  V30 2137 H 193.491 -0.779911 -3.58208 0
M  V30 2138 H 193.139 1.34951 -4.84559 0
M  V30 2139 H 192.839 -0.0727433 -5.87555 0
M  V30 2140 H 194.363 0.843705 -6.04743 0
M  V30 2141 H 195.777 -1.376 -5.56542 0
M  V30 2142 H 194.174 -2.16659 -5.59624 0
M  V30 2143 H 195.244 -2.41518 -4.20473 0
M  V30 2144 N 196.587 1.43421 -0.653314 0
M  V30 2145 C 197.833 2.02111 -0.166992 0
M  V30 2146 C 198.166 1.51423 1.21592 0
M  V30 2147 O 197.441 0.707389 1.8118 0
M  V30 2148 C 197.724 3.5966 -0.177948 0
M  V30 2149 C 197.577 4.20579 -1.59478 0
M  V30 2150 C 198.896 4.37413 0.4856 0
M  V30 2151 H 196.015 0.734374 -0.0621557 0
M  V30 2152 H 198.657 1.70717 -0.834016 0
M  V30 2153 H 196.807 3.86537 0.390032 0
M  V30 2154 H 198.479 4.04732 -2.21336 0
M  V30 2155 H 196.722 3.77226 -2.14204 0
M  V30 2156 H 197.393 5.29665 -1.5543 0
M  V30 2157 H 199.869 4.161 0.00234528 0
M  V30 2158 H 198.745 5.47075 0.447207 0
M  V30 2159 H 199.006 4.13672 1.55974 0
M  V30 2160 N 198.065 0.39524 1.52563 0
M  V30 2161 C 199.314 -0.186321 2.00838 0
M  V30 2162 C 199.627 -1.47402 1.28577 0
M  V30 2163 O 200.833 -2.13599 1.67593 0
M  V30 2164 C 199.289 -0.382595 3.57861 0
M  V30 2165 C 198.897 0.892202 4.39026 0
M  V30 2166 C 200.641 -0.9202 4.14406 0
M  V30 2167 C 198.548 0.66388 5.87662 0
M  V30 2168 H 197.478 -0.0734041 0.750418 0
M  V30 2169 H 200.129 0.518552 1.76021 0
M  V30 2170 H 198.511 -1.14946 3.7895 0
M  V30 2171 H 199.685 1.66414 4.29701 0
M  V30 2172 H 198 1.35519 3.9373 0
M  V30 2173 H 200.597 -1.10683 5.23119 0
M  V30 2174 H 200.94 -1.89096 3.70875 0
M  V30 2175 H 201.473 -0.212751 3.97231 0
M  V30 2176 H 198.212 1.6058 6.35527 0
M  V30 2177 H 197.732 -0.0690193 5.9976 0
M  V30 2178 H 199.411 0.300699 6.46301 0
M  V30 2179 N 199.544 -1.57102 0.125237 0
M  V30 2180 C 200.476 -2.12726 -0.853237 0
M  V30 2181 C 201.489 -1.07145 -1.22571 0
M  V30 2182 O 202.678 -1.34497 -1.17358 0
M  V30 2183 C 199.778 -2.61709 -2.15317 0
M  V30 2184 C 198.951 -3.91456 -1.95143 0
M  V30 2185 C 198.01 -4.25973 -3.08923 0
M  V30 2186 O 197.036 -4.94682 -2.81564 0
M  V30 2187 N 198.238 -3.83795 -4.35524 0
M  V30 2188 H 201.003 -2.97307 -0.377964 0
M  V30 2189 H 198.564 -1.61792 -0.0590011 0
M  V30 2190 H 200.556 -2.81826 -2.90441 0
M  V30 2191 H 199.126 -1.81974 -2.54174 0
M  V30 2192 H 198.346 -3.80185 -1.04177 0
M  V30 2193 H 199.634 -4.76283 -1.78976 0
M  V30 2194 H 199.032 -3.2839 -4.60626 0
M  V30 2195 H 197.589 -4.09008 -5.07499 0
M  V30 2196 N 201.022 0.148545 -1.56898 0
M  V30 2197 C 202.262 0.86765 -1.85071 0
M  V30 2198 C 202.626 1.78417 -0.709317 0
M  V30 2199 O 203.827 2.54261 -0.872049 0
M  V30 2200 C 202.098 1.62306 -3.1842 0
M  V30 2201 S 203.657 2.3878 -3.68143 0
M  V30 2202 H 200.475 0.290174 -0.649092 0
M  V30 2203 H 203.077 0.127755 -1.95082 0
M  V30 2204 H 201.781 0.941192 -3.99462 0
M  V30 2205 H 201.312 2.4039 -3.1141 0
M  V30 2206 H 203.327 3.63942 -3.37285 0
M  V30 2207 N 202.5 1.5196 0.417844 0
M  V30 2208 C 203.463 1.74065 1.49111 0
M  V30 2209 C 204.463 0.610537 1.48758 0
M  V30 2210 O 205.653 0.87832 1.50437 0
M  V30 2211 C 202.785 1.81502 2.88565 0
M  V30 2212 H 203.978 2.69869 1.30807 0
M  V30 2213 H 201.531 1.42244 0.647785 0
M  V30 2214 H 202.266 0.875813 3.1225 0
M  V30 2215 H 202.051 2.63651 2.90225 0
M  V30 2216 H 203.541 2.00376 3.66387 0
M  V30 2217 N 203.978 -0.674533 1.42435 0
M  V30 2218 C 204.908 -1.80009 1.48724 0
M  V30 2219 C 205.889 -1.6659 0.343793 0
M  V30 2220 O 207.074 -1.86007 0.558137 0
M  V30 2221 C 204.204 -3.18306 1.38919 0
M  V30 2222 C 203.158 -3.46461 2.51294 0
M  V30 2223 C 202.484 -4.84335 2.26547 0
M  V30 2224 C 203.784 -3.43328 3.93603 0
M  V30 2225 H 205.478 -1.75004 2.42928 0
M  V30 2226 H 203.024 -0.840533 1.16923 0
M  V30 2227 H 204.977 -3.9678 1.41927 0
M  V30 2228 H 203.701 -3.2399 0.412094 0
M  V30 2229 H 202.36 -2.70348 2.47604 0
M  V30 2230 H 202.008 -4.86669 1.2713 0
M  V30 2231 H 201.708 -5.04136 3.01861 0
M  V30 2232 H 203.232 -5.65094 2.31304 0
M  V30 2233 H 204.646 -4.11772 3.98894 0
M  V30 2234 H 203.043 -3.74664 4.68771 0
M  V30 2235 H 204.113 -2.41897 4.20255 0
M  V30 2236 N 205.456 -1.28612 -0.910864 0
M  V30 2237 C 206.704 -1.15705 -1.65701 0
M  V30 2238 C 207.025 0.29416 -1.92769 0
M  V30 2239 O 206.295 1.20331 -1.54588 0
M  V30 2240 H 204.875 -0.425216 -0.614167 0
M  V30 2241 H 207.537 -1.61381 -1.0928 0
M  V30 2242 H 206.633 -1.6988 -2.61815 0
M  V30 2243 N 206.934 1.1197 -1.10907 0
M  V30 2244 C 207.864 2.19928 -0.784473 0
M  V30 2245 C 208.845 1.6833 0.244726 0
M  V30 2246 O 210.03 1.93892 0.109418 0
M  V30 2247 C 207.16 3.46597 -0.220827 0
M  V30 2248 C 206.114 4.11376 -1.18127 0
M  V30 2249 C 205.44 5.32554 -0.478594 0
M  V30 2250 C 206.74 4.56945 -2.52979 0
M  V30 2251 H 208.434 2.47337 -1.68715 0
M  V30 2252 H 205.98 1.18879 -0.812642 0
M  V30 2253 H 207.933 4.21396 0.0184278 0
M  V30 2254 H 206.657 3.1863 0.717113 0
M  V30 2255 H 205.316 3.38564 -1.40606 0
M  V30 2256 H 204.964 5.00856 0.463976 0
M  V30 2257 H 204.664 5.76844 -1.11912 0
M  V30 2258 H 206.188 6.10096 -0.248 0
M  V30 2259 H 207.602 5.23093 -2.3462 0
M  V30 2260 H 205.999 5.1203 -3.12962 0
M  V30 2261 H 207.069 3.70676 -3.12614 0
M  V30 2262 N 208.412 0.89855 1.29475 0
M  V30 2263 C 209.342 0.39201 2.30186 0
M  V30 2264 C 210.323 -0.532359 1.61555 0
M  V30 2265 O 211.508 -0.443331 1.89072 0
M  V30 2266 C 208.638 -0.382353 3.45189 0
M  V30 2267 C 207.592 0.451483 4.25612 0
M  V30 2268 C 206.918 -0.450307 5.328 0
M  V30 2269 C 208.218 1.70079 4.93832 0
M  V30 2270 H 209.912 1.23362 2.72804 0
M  V30 2271 H 207.458 0.594638 1.31149 0
M  V30 2272 H 209.411 -0.747451 4.14718 0
M  V30 2273 H 208.135 -1.25774 3.01411 0
M  V30 2274 H 206.794 0.798897 3.57789 0
M  V30 2275 H 206.442 -1.32379 4.85268 0
M  V30 2276 H 206.142 0.103902 5.87508 0
M  V30 2277 H 207.666 -0.811623 6.05182 0
M  V30 2278 H 209.08 1.40549 5.55805 0
M  V30 2279 H 207.477 2.19623 5.58467 0
M  V30 2280 H 208.547 2.43744 4.19186 0
M  V30 2281 N 209.89 -1.43072 0.660911 0
M  V30 2282 C 211.118 -2.06067 0.185422 0
M  V30 2283 C 211.533 -1.49582 -1.15198 0
M  V30 2284 O 210.89 -0.630134 -1.71276 0
M  V30 2285 C 210.941 -3.61371 0.0966523 0
M  V30 2286 O 210.662 -4.15758 1.38119 0
M  V30 2287 C 212.163 -4.41455 -0.403996 0
M  V30 2288 H 209.383 -0.664459 0.0934604 0
M  V30 2289 H 211.927 -1.83447 0.90373 0
M  V30 2290 H 210.082 -3.8315 -0.572259 0
M  V30 2291 H 210.496 -5.09499 1.24542 0
M  V30 2292 H 211.97 -5.50437 -0.415045 0
M  V30 2293 H 212.447 -4.15036 -1.43674 0
M  V30 2294 H 213.053 -4.24663 0.232691 0
M  V30 2295 N 211.368 -0.403325 -1.52352 0
M  V30 2296 C 212.617 0.175668 -2.00934 0
M  V30 2297 C 212.93 1.46718 -1.29356 0
M  V30 2298 O 214.136 2.12708 -1.68724 0
M  V30 2299 C 212.592 0.363612 -3.58058 0
M  V30 2300 C 212.2 -0.915472 -4.38547 0
M  V30 2301 C 213.944 0.89821 -4.14888 0
M  V30 2302 C 211.851 -0.695035 -5.87302 0
M  V30 2303 H 210.781 0.0694234 -0.750797 0
M  V30 2304 H 213.432 -0.527879 -1.75743 0
M  V30 2305 H 211.814 1.12935 -3.79555 0
M  V30 2306 H 212.988 -1.68691 -4.28812 0
M  V30 2307 H 211.303 -1.37606 -3.93006 0
M  V30 2308 H 213.9 1.07907 -5.23699 0
M  V30 2309 H 214.243 1.87126 -3.71873 0
M  V30 2310 H 214.776 0.191681 -3.97338 0
M  V30 2311 H 211.515 -1.63948 -6.34666 0
M  V30 2312 H 211.035 0.0372116 -5.99788 0
M  V30 2313 H 212.714 -0.33497 -6.46132 0
M  V30 2314 N 212.846 1.57033 -0.133567 0
M  V30 2315 C 214.257 1.82593 0.389464 0
M  V30 2316 C 214.608 1.05156 1.6564 0
M  V30 2317 O 213.733 0.292644 2.14412 0
M  V30 2318 C 214.328 3.31204 0.713377 0
M  V30 2319 C 212.887 3.57393 1.18098 0
M  V30 2320 C 212.034 2.76598 0.197126 0
M  V30 2321 H 214.985 1.54598 -0.358481 0
M  V30 2322 H 215.006 3.46627 1.56939 0
M  V30 2323 H 214.518 3.87537 -0.2089 0
M  V30 2324 H 212.619 3.06433 2.11966 0
M  V30 2325 H 212.732 4.65915 1.11624 0
M  V30 2326 H 211.096 2.45257 0.687088 0
M  V30 2327 H 211.879 3.35697 -0.718504 0
M  V30 2328 N 214.325 -0.140222 1.56975 0
M  V30 2329 C 215.572 -0.851687 1.83719 0
M  V30 2330 C 215.9 -1.80862 0.715485 0
M  V30 2331 O 215.155 -1.93464 -0.294956 0
M  V30 2332 C 215.454 -1.65386 3.16832 0
M  V30 2333 C 215.12 -0.843112 4.42947 0
M  V30 2334 C 213.782 -0.619464 4.77196 0
M  V30 2335 C 216.134 -0.276582 5.20466 0
M  V30 2336 C 213.462 0.181312 5.8642 0
M  V30 2337 C 215.814 0.51127 6.30531 0
M  V30 2338 C 214.478 0.745432 6.63325 0
M  V30 2339 H 213.748 -0.311654 0.672274 0
M  V30 2340 H 216.395 -0.115006 1.91154 0
M  V30 2341 H 214.7 -2.46084 3.04877 0
M  V30 2342 H 216.397 -2.20793 3.34741 0
M  V30 2343 H 212.987 -1.0275 4.16101 0
M  V30 2344 H 217.171 -0.436632 4.94376 0
M  V30 2345 H 212.427 0.372165 6.10266 0
M  V30 2346 H 216.601 0.957354 6.89788 0
M  V30 2347 H 214.228 1.36778 7.47794 0
M  V30 2348 N 215.803 -1.52179 -0.40978 0
M  V30 2349 C 217.028 -1.70347 -1.18308 0
M  V30 2350 C 217.453 -0.411887 -1.83535 0
M  V30 2351 O 216.811 0.630587 -1.6998 0
M  V30 2352 C 216.859 -2.83977 -2.22238 0
M  V30 2353 O 215.963 -2.495 -3.28365 0
M  V30 2354 H 215.304 -0.567103 -0.345384 0
M  V30 2355 H 217.834 -1.98879 -0.480445 0
M  V30 2356 H 217.844 -3.0887 -2.66577 0
M  V30 2357 H 216.519 -3.77685 -1.74146 0
M  V30 2358 H 215.096 -2.35277 -2.89308 0
M  V30 2359 N 217.281 0.66697 -1.42791 0
M  V30 2360 C 218.244 1.76211 -1.46568 0
M  V30 2361 C 219.244 1.56896 -0.352196 0
M  V30 2362 O 220.434 1.63044 -0.613364 0
M  V30 2363 C 217.566 3.14935 -1.30494 0
M  V30 2364 H 218.759 1.74247 -2.44086 0
M  V30 2365 H 216.312 0.877342 -1.29354 0
M  V30 2366 H 217.047 3.2252 -0.339301 0
M  V30 2367 H 216.832 3.30359 -2.11199 0
M  V30 2368 H 218.322 3.94821 -1.36038 0
M  V30 2369 N 218.759 1.29093 0.90403 0
M  V30 2370 C 219.691 1.09658 2.01266 0
M  V30 2371 C 220.704 0.0453729 1.62737 0
M  V30 2372 O 221.893 0.289446 1.76138 0
M  V30 2373 C 218.993 0.646278 3.32681 0
M  V30 2374 C 218.166 1.77505 3.99763 0
M  V30 2375 C 217.225 1.31649 5.09465 0
M  V30 2376 O 216.251 2.02045 5.32134 0
M  V30 2377 N 217.453 0.184997 5.80205 0
M  V30 2378 H 220.218 2.05135 2.18494 0
M  V30 2379 H 217.779 1.20975 1.07594 0
M  V30 2380 H 219.771 0.322906 4.0341 0
M  V30 2381 H 218.341 -0.215916 3.11853 0
M  V30 2382 H 217.561 2.26752 3.22455 0
M  V30 2383 H 218.849 2.53198 4.41325 0
M  V30 2384 H 218.247 -0.402021 5.6427 0
M  V30 2385 H 216.804 -0.0790358 6.51752 0
M  V30 2386 N 220.237 -1.11381 1.11499 0
M  V30 2387 C 221.187 -2.15555 0.74298 0
M  V30 2388 C 222.171 -1.58894 -0.253276 0
M  V30 2389 O 223.363 -1.76897 -0.0602918 0
M  V30 2390 C 220.492 -3.42782 0.188481 0
M  V30 2391 C 219.578 -4.064 1.21244 0
M  V30 2392 N 219.969 -4.44864 2.40685 0
M  V30 2393 C 218.267 -4.3333 1.05552 0
M  V30 2394 C 218.968 -4.94715 3.05994 0
M  V30 2395 N 217.944 -4.90909 2.33472 0
M  V30 2396 H 221.746 -2.43074 1.65203 0
M  V30 2397 H 219.26 -1.28401 0.994329 0
M  V30 2398 H 221.257 -4.16789 -0.0961693 0
M  V30 2399 H 219.917 -3.16727 -0.715149 0
M  V30 2400 H 220.928 -4.36876 2.78136 0
M  V30 2401 H 217.605 -4.1698 0.208372 0
M  V30 2402 H 218.995 -5.34103 4.07656 0
M  V30 2403 N 221.715 -0.905404 -1.28997 0
M  V30 2404 C 222.648 -0.331959 -2.25773 0
M  V30 2405 C 223.626 0.559099 -1.52685 0
M  V30 2406 O 224.81 0.50463 -1.8162 0
M  V30 2407 C 221.937 0.526276 -3.34586 0
M  V30 2408 C 220.983 -0.298249 -4.25456 0
M  V30 2409 S 221.816 -1.69968 -5.0781 0
M  V30 2410 C 222.972 -0.848519 -6.20122 0
M  V30 2411 H 223.205 -1.15222 -2.74064 0
M  V30 2412 H 220.738 -0.706112 -1.37308 0
M  V30 2413 H 222.696 1.01565 -3.97737 0
M  V30 2414 H 221.357 1.32084 -2.84978 0
M  V30 2415 H 220.55 0.357607 -5.0273 0
M  V30 2416 H 220.152 -0.720968 -3.66985 0
M  V30 2417 H 222.444 -0.0744325 -6.77459 0
M  V30 2418 H 223.387 -1.59353 -6.89937 0
M  V30 2419 H 223.795 -0.400383 -5.63078 0
M  V30 2420 N 223.193 1.4272 -0.668489 0
M  V30 2421 C 224.47 1.95248 -0.117373 0
M  V30 2422 C 224.85 1.60919 1.36632 0
M  V30 2423 O 224.198 0.902095 2.09939 0
M  V30 2424 C 224.408 3.46927 -0.379806 0
M  V30 2425 C 225.756 4.23588 -0.292923 0
M  V30 2426 O 226.78 3.5482 -0.313204 0
M  V30 2427 O 225.639 5.46017 -0.229697 0
M  V30 2428 H 222.733 0.827 0.00079152 0
M  V30 2429 H 225.279 1.52581 -0.742783 0
M  V30 2430 H 224.051 3.65096 -1.40786 0
M  V30 2431 H 223.674 3.96627 0.277923 0
M  V30 2432 N 224.671 0.411399 1.52136 0
M  V30 2433 C 225.919 -0.163322 2.01439 0
M  V30 2434 C 226.24 -1.45453 1.29879 0
M  V30 2435 O 225.51 -1.91225 0.4254 0
M  V30 2436 H 224.09 -0.0633447 0.744309 0
M  V30 2437 H 226.752 0.548161 1.87033 0
M  V30 2438 H 225.848 -0.357817 3.10042 0
M  V30 2439 N 226.149 -1.5696 0.141893 0
M  V30 2440 C 227.374 -2.00754 -0.520838 0
M  V30 2441 C 227.799 -1.0213 -1.57959 0
M  V30 2442 O 227.157 0.00371324 -1.813 0
M  V30 2443 C 227.205 -3.43318 -1.10294 0
M  V30 2444 O 226.309 -3.47679 -2.21795 0
M  V30 2445 H 225.65 -0.651564 -0.127908 0
M  V30 2446 H 228.18 -2.03221 0.23712 0
M  V30 2447 H 228.19 -3.82012 -1.43287 0
M  V30 2448 H 226.865 -4.14608 -0.327574 0
M  V30 2449 H 225.442 -3.20824 -1.9007 0
M  V30 2450 N 227.627 0.131896 -1.57047 0
M  V30 2451 C 228.537 1.1815 -2.02676 0
M  V30 2452 C 229.553 1.46113 -0.944824 0
M  V30 2453 O 230.729 1.57485 -1.25541 0
M  V30 2454 C 227.794 2.49139 -2.41103 0
M  V30 2455 C 226.855 2.28688 -3.63318 0
M  V30 2456 C 226.088 3.53431 -3.99903 0
M  V30 2457 O 226.311 4.60223 -3.36973 0
M  V30 2458 O 225.245 3.45198 -4.93074 0
M  V30 2459 H 229.071 0.824069 -2.92306 0
M  V30 2460 H 226.656 0.341745 -1.45439 0
M  V30 2461 H 228.538 3.26338 -2.66611 0
M  V30 2462 H 227.213 2.84382 -1.54624 0
M  V30 2463 H 226.12 1.4939 -3.42977 0
M  V30 2464 H 227.453 1.98355 -4.50462 0
M  V30 2465 N 229.106 1.52395 0.401703 0
M  V30 2466 C 230.039 1.70999 1.51111 0
M  V30 2467 C 231.017 0.55765 1.52738 0
M  V30 2468 O 232.201 0.785912 1.71335 0
M  V30 2469 C 229.328 1.75607 2.8962 0
M  V30 2470 C 228.374 2.97227 3.05873 0
M  V30 2471 S 229.207 4.57439 2.78405 0
M  V30 2472 C 230.363 4.64844 4.19131 0
M  V30 2473 H 230.596 2.6483 1.35102 0
M  V30 2474 H 228.129 1.42527 0.593762 0
M  V30 2475 H 230.087 1.78947 3.69443 0
M  V30 2476 H 228.748 0.828914 3.02965 0
M  V30 2477 H 227.941 2.96955 4.07227 0
M  V30 2478 H 227.543 2.91813 2.33925 0
M  V30 2479 H 229.835 4.42677 5.12877 0
M  V30 2480 H 230.778 5.66807 4.24424 0
M  V30 2481 H 231.186 3.93804 4.04448 0
M  V30 2482 N 230.584 -0.659388 1.43143 0
M  V30 2483 C 231.517 -1.78425 1.42267 0
M  V30 2484 C 232.495 -1.60085 0.284894 0
M  V30 2485 O 233.679 -1.82351 0.477527 0
M  V30 2486 C 230.806 -3.15642 1.22833 0
M  V30 2487 C 229.852 -3.52698 2.39806 0
M  V30 2488 S 230.685 -3.53372 4.02353 0
M  V30 2489 C 231.841 -4.93256 3.85291 0
M  V30 2490 H 232.074 -1.78897 2.37452 0
M  V30 2491 H 229.607 -0.831469 1.301 0
M  V30 2492 H 231.565 -3.94838 1.12308 0
M  V30 2493 H 230.226 -3.12739 0.29207 0
M  V30 2494 H 229.419 -4.52475 2.21996 0
M  V30 2495 H 229.021 -2.80899 2.46925 0
M  V30 2496 H 231.313 -5.81751 3.47235 0
M  V30 2497 H 232.256 -5.16115 4.84799 0
M  V30 2498 H 232.664 -4.665 3.17865 0
M  V30 2499 N 232.062 -1.29571 -0.897171 0
M  V30 2500 C 233.009 -1.14916 -2.00158 0
M  V30 2501 C 233.979 -0.0418149 -1.66047 0
M  V30 2502 O 235.164 -0.209793 -1.89643 0
M  V30 2503 C 232.304 -0.834307 -3.34863 0
M  V30 2504 C 231.417 -2.02234 -3.8174 0
M  V30 2505 C 230.552 -1.64664 -5.05034 0
M  V30 2506 C 229.591 -2.80033 -5.44286 0
M  V30 2507 N 228.728 -2.42843 -6.58765 0
M  V30 2508 H 233.568 -2.09403 -2.12025 0
M  V30 2509 H 231.105 -1.042 -1.0383 0
M  V30 2510 H 233.063 -0.632436 -4.12379 0
M  V30 2511 H 231.693 0.0736656 -3.22716 0
M  V30 2512 H 230.745 -2.33583 -3.00238 0
M  V30 2513 H 232.057 -2.88673 -4.06779 0
M  V30 2514 H 231.211 -1.4078 -5.9014 0
M  V30 2515 H 229.95 -0.753766 -4.8184 0
M  V30 2516 H 228.955 -3.04596 -4.57713 0
M  V30 2517 H 230.18 -3.69989 -5.6946 0
M  V30 2518 H 228.126 -1.56046 -6.3717 0
M  V30 2519 H 228.043 -3.22815 -6.83613 0
M  V30 2520 H 229.311 -2.22285 -7.47134 0
M  V30 2521 N 233.54 1.10788 -1.12088 0
M  V30 2522 C 234.47 2.19083 -0.807755 0
M  V30 2523 C 235.451 1.6858 0.226859 0
M  V30 2524 O 236.636 1.93997 0.0888475 0
M  V30 2525 C 233.766 3.46344 -0.257576 0
M  V30 2526 C 232.72 4.101 -1.22483 0
M  V30 2527 C 232.046 5.32016 -0.535052 0
M  V30 2528 C 233.346 4.54236 -2.57811 0
M  V30 2529 H 235.04 2.45534 -1.71328 0
M  V30 2530 H 232.586 1.1801 -0.825205 0
M  V30 2531 H 234.539 4.21392 -0.0262679 0
M  V30 2532 H 233.263 3.19373 0.683278 0
M  V30 2533 H 231.922 3.37054 -1.44189 0
M  V30 2534 H 231.57 5.01319 0.410827 0
M  V30 2535 H 231.27 5.75625 -1.18024 0
M  V30 2536 H 232.794 6.09799 -0.312695 0
M  V30 2537 H 234.208 5.20575 -2.40155 0
M  V30 2538 H 232.605 5.08682 -3.18375 0
M  V30 2539 H 233.675 3.6734 -3.16528 0
M  V30 2540 N 235.018 0.912232 1.28515 0
M  V30 2541 C 236.264 0.545405 1.95328 0
M  V30 2542 C 236.597 -0.908313 1.71649 0
M  V30 2543 O 235.872 -1.64575 1.03659 0
M  V30 2544 C 236.155 0.853483 3.4984 0
M  V30 2545 C 236.008 2.35982 3.82926 0
M  V30 2546 C 237.327 0.348589 4.38717 0
M  V30 2547 H 234.446 0.199626 0.709449 0
M  V30 2548 H 237.088 1.1412 1.5191 0
M  V30 2549 H 235.238 0.34643 3.86952 0
M  V30 2550 H 236.91 2.93738 3.55691 0
M  V30 2551 H 235.153 2.81543 3.30024 0
M  V30 2552 H 235.824 2.52593 4.90816 0
M  V30 2553 H 238.3 0.78294 4.08668 0
M  V30 2554 H 237.176 0.593242 5.45685 0
M  V30 2555 H 237.437 -0.751049 4.35674 0
M  V30 2556 N 236.496 -1.42363 0.676048 0
M  V30 2557 C 237.744 -2.01123 0.198437 0
M  V30 2558 C 238.065 -1.53731 -1.19966 0
M  V30 2559 O 237.335 -0.759518 -1.80577 0
M  V30 2560 H 235.915 -0.743678 0.0703721 0
M  V30 2561 H 238.577 -1.74263 0.872837 0
M  V30 2562 H 237.673 -3.11454 0.200686 0
M  V30 2563 N 237.974 -0.419461 -1.51915 0
M  V30 2564 C 239.22 0.145505 -2.02879 0
M  V30 2565 C 239.575 1.41926 -1.29903 0
M  V30 2566 O 238.868 1.87383 -0.399782 0
M  V30 2567 C 239.062 0.437067 -3.54717 0
M  V30 2568 C 238.891 -0.806877 -4.42402 0
M  V30 2569 C 237.661 -1.33514 -4.87342 0
M  V30 2570 C 239.859 -1.68796 -4.85811 0
M  V30 2571 N 237.841 -2.53349 -5.59185 0
M  V30 2572 C 239.212 -2.73247 -5.56539 0
M  V30 2573 C 241.267 -1.70449 -4.67816 0
M  V30 2574 C 239.97 -3.79276 -6.11181 0
M  V30 2575 C 241.996 -2.75403 -5.23361 0
M  V30 2576 C 241.358 -3.78575 -5.9402 0
M  V30 2577 H 237.457 0.0145424 -0.781865 0
M  V30 2578 H 240.041 -0.576126 -1.85981 0
M  V30 2579 H 238.212 1.12774 -3.71667 0
M  V30 2580 H 239.944 0.99182 -3.92358 0
M  V30 2581 H 236.699 -0.891657 -4.65131 0
M  V30 2582 H 237.123 -3.14066 -5.99743 0
M  V30 2583 H 241.765 -0.920209 -4.12664 0
M  V30 2584 H 239.483 -4.58554 -6.65397 0
M  V30 2585 H 243.069 -2.77603 -5.113 0
M  V30 2586 H 241.949 -4.58453 -6.36231 0
M  V30 2587 N 239.452 1.56882 -0.150215 0
M  V30 2588 C 240.415 2.1573 0.774157 0
M  V30 2589 C 241.415 1.0999 1.17298 0
M  V30 2590 O 242.605 1.35613 1.09338 0
M  V30 2591 C 239.737 2.72302 2.05096 0
M  V30 2592 H 240.93 2.98752 0.262201 0
M  V30 2593 H 238.483 1.55985 0.099248 0
M  V30 2594 H 239.218 1.92956 2.6065 0
M  V30 2595 H 239.003 3.49665 1.77416 0
M  V30 2596 H 240.493 3.17632 2.71109 0
M  V30 2597 N 240.93 -0.123565 1.57115 0
M  V30 2598 C 241.862 -1.17739 1.96648 0
M  V30 2599 C 242.875 -1.37906 0.865201 0
M  V30 2600 O 244.064 -1.37062 1.14351 0
M  V30 2601 C 241.164 -2.53821 2.24562 0
M  V30 2602 C 240.337 -2.54317 3.55867 0
M  V30 2603 C 239.396 -3.72112 3.72047 0
M  V30 2604 O 238.422 -3.55907 4.44206 0
M  V30 2605 N 239.624 -4.90498 3.10471 0
M  V30 2606 H 242.389 -0.841147 2.87654 0
M  V30 2607 H 239.95 -0.31289 1.58848 0
M  V30 2608 H 241.942 -3.31175 2.32606 0
M  V30 2609 H 240.512 -2.79645 1.39705 0
M  V30 2610 H 239.732 -1.62711 3.59053 0
M  V30 2611 H 241.02 -2.51701 4.42181 0
M  V30 2612 H 240.418 -5.06567 2.51806 0
M  V30 2613 H 238.975 -5.65544 3.24043 0
M  V30 2614 N 242.408 -1.52605 -0.393616 0
M  V30 2615 C 243.633 -1.71592 -1.16495 0
M  V30 2616 C 244.058 -0.43133 -1.83088 0
M  V30 2617 O 243.416 0.612523 -1.7064 0
M  V30 2618 C 243.464 -2.86318 -2.19213 0
M  V30 2619 O 242.568 -2.52969 -3.257 0
M  V30 2620 H 241.909 -0.570734 -0.33935 0
M  V30 2621 H 244.439 -1.99377 -0.459324 0
M  V30 2622 H 244.449 -3.1168 -2.63286 0
M  V30 2623 H 243.124 -3.79511 -1.7013 0
M  V30 2624 H 241.701 -2.38332 -2.86797 0
M  V30 2625 N 243.887 0.651787 -1.4349 0
M  V30 2626 C 245.133 1.41376 -1.45398 0
M  V30 2627 C 245.466 1.94041 -0.0784823 0
M  V30 2628 O 244.741 1.72379 0.900878 0
M  V30 2629 C 245.024 2.59414 -2.49752 0
M  V30 2630 C 244.877 2.12232 -3.96582 0
M  V30 2631 C 246.196 3.61626 -2.50827 0
M  V30 2632 H 243.315 0.512719 -0.529422 0
M  V30 2633 H 245.957 0.738796 -1.75048 0
M  V30 2634 H 244.107 3.16997 -2.246 0
M  V30 2635 H 245.779 1.59639 -4.32797 0
M  V30 2636 H 244.022 1.43592 -4.09346 0
M  V30 2637 H 244.693 2.9712 -4.65214 0
M  V30 2638 H 247.169 3.13805 -2.7325 0
M  V30 2639 H 246.045 4.41766 -3.25783 0
M  V30 2640 H 246.306 4.14314 -1.5426 0
M  V30 2641 N 245.365 1.30045 0.890287 0
M  V30 2642 C 246.611 1.18737 1.64406 0
M  V30 2643 C 246.944 -0.258525 1.92472 0
M  V30 2644 O 246.219 -1.18562 1.54186 0
M  V30 2645 C 246.502 2.01087 2.98724 0
M  V30 2646 C 246.355 3.53867 2.77665 0
M  V30 2647 C 247.674 1.84457 3.9958 0
M  V30 2648 H 244.793 0.432698 0.596608 0
M  V30 2649 H 247.435 1.5962 1.0306 0
M  V30 2650 H 245.585 1.66349 3.51084 0
M  V30 2651 H 247.257 3.98637 2.32133 0
M  V30 2652 H 245.5 3.78318 2.12269 0
M  V30 2653 H 246.171 4.06772 3.7315 0
M  V30 2654 H 248.647 2.14817 3.56361 0
M  V30 2655 H 247.523 2.44411 4.91482 0
M  V30 2656 H 247.784 0.802276 4.3476 0
M  V30 2657 N 246.843 -1.10192 1.12674 0
M  V30 2658 C 248.071 -1.85983 0.906527 0
M  V30 2659 C 248.486 -1.80783 -0.544333 0
M  V30 2660 O 247.843 -1.19834 -1.37645 0
M  V30 2661 C 247.894 -3.34281 1.37618 0
M  V30 2662 O 247.615 -3.39401 2.77017 0
M  V30 2663 C 249.116 -4.26938 1.19325 0
M  V30 2664 H 246.336 -0.587716 0.323775 0
M  V30 2665 H 248.88 -1.39284 1.49734 0
M  V30 2666 H 247.035 -3.78436 0.828539 0
M  V30 2667 H 247.449 -4.31838 2.97684 0
M  V30 2668 H 248.923 -5.29181 1.57071 0
M  V30 2669 H 249.4 -4.38995 0.134097 0
M  V30 2670 H 250.006 -3.8859 1.72852 0
M  V30 2671 N 248.321 -0.919034 -1.28029 0
M  V30 2672 C 249.568 -0.554934 -1.94748 0
M  V30 2673 C 249.896 0.90231 -1.72304 0
M  V30 2674 O 249.151 1.65767 -1.04018 0
M  V30 2675 C 249.45 -0.816855 -3.4794 0
M  V30 2676 C 249.116 -2.25448 -3.90492 0
M  V30 2677 C 247.778 -2.64752 -4.01821 0
M  V30 2678 C 250.13 -3.18977 -4.12193 0
M  V30 2679 C 247.458 -3.96727 -4.32232 0
M  V30 2680 C 249.81 -4.50523 -4.44086 0
M  V30 2681 C 248.474 -4.89673 -4.53626 0
M  V30 2682 H 247.744 -0.203065 -0.712633 0
M  V30 2683 H 250.391 -1.16136 -1.52265 0
M  V30 2684 H 248.696 -0.127677 -3.91592 0
M  V30 2685 H 250.393 -0.514238 -3.97689 0
M  V30 2686 H 246.983 -1.93952 -3.82205 0
M  V30 2687 H 251.167 -2.89817 -4.02889 0
M  V30 2688 H 246.423 -4.26754 -4.37825 0
M  V30 2689 H 250.597 -5.23005 -4.59825 0
M  V30 2690 H 248.224 -5.91969 -4.76946 0
M  V30 2691 N 249.799 1.42003 -0.683588 0
M  V30 2692 C 250.749 2.27997 0.0121992 0
M  V30 2693 C 251.733 1.4156 0.764822 0
M  V30 2694 O 252.925 1.64935 0.642287 0
M  V30 2695 C 250.054 3.29706 0.956482 0
M  V30 2696 C 249.14 4.23625 0.200739 0
M  V30 2697 N 249.531 4.99448 -0.799087 0
M  V30 2698 C 247.829 4.43845 0.437937 0
M  V30 2699 C 248.53 5.68102 -1.25041 0
M  V30 2700 N 247.506 5.40511 -0.578648 0
M  V30 2701 H 251.308 2.84048 -0.754564 0
M  V30 2702 H 248.822 1.54071 -0.513398 0
M  V30 2703 H 250.819 3.90124 1.47 0
M  V30 2704 H 249.479 2.75216 1.72297 0
M  V30 2705 H 250.49 5.04303 -1.17893 0
M  V30 2706 H 247.167 4.00382 1.18325 0
M  V30 2707 H 248.557 6.38913 -2.07942 0
M  V30 2708 N 251.277 0.427512 1.51691 0
M  V30 2709 C 252.525 -0.141948 2.01601 0
M  V30 2710 C 252.846 -1.44067 1.31414 0
M  V30 2711 O 252.116 -1.90763 0.445658 0
M  V30 2712 H 250.696 -0.0554468 0.744939 0
M  V30 2713 H 253.358 0.567968 1.86441 0
M  V30 2714 H 252.454 -0.324913 3.10404 0
M  V30 2715 N 252.755 -1.56801 0.158532 0
M  V30 2716 C 254.003 -1.96102 -0.488712 0
M  V30 2717 C 254.324 -1.04498 -1.64636 0
M  V30 2718 O 253.594 -0.108783 -1.95598 0
M  V30 2719 H 252.174 -0.724102 -0.183535 0
M  V30 2720 H 254.836 -1.93457 0.236728 0
M  V30 2721 H 253.932 -3.00097 -0.857219 0
M  V30 2722 N 254.233 0.115231 -1.57178 0
M  V30 2723 C 255.196 1.12526 -1.99676 0
M  V30 2724 C 256.196 1.34095 -0.88742 0
M  V30 2725 O 257.386 1.30548 -1.15337 0
M  V30 2726 C 254.518 2.4789 -2.34015 0
M  V30 2727 H 255.711 0.759912 -2.90113 0
M  V30 2728 H 253.264 0.359648 -1.52106 0
M  V30 2729 H 253.999 2.89339 -1.4647 0
M  V30 2730 H 253.784 2.33588 -3.14927 0
M  V30 2731 H 255.274 3.20575 -2.67622 0
M  V30 2732 N 255.711 1.52812 0.385517 0
M  V30 2733 C 256.936 1.72207 1.15583 0
M  V30 2734 C 257.361 0.441034 1.82857 0
M  V30 2735 O 256.719 -0.603465 1.70962 0
M  V30 2736 C 256.767 2.87476 2.17692 0
M  V30 2737 O 255.871 2.54693 3.24354 0
M  V30 2738 H 255.212 0.572526 0.336319 0
M  V30 2739 H 257.742 1.99618 0.448744 0
M  V30 2740 H 257.752 3.13072 2.6163 0
M  V30 2741 H 256.427 3.80408 1.68115 0
M  V30 2742 H 255.004 2.3985 2.85529 0
M  V30 2743 N 257.189 -0.644168 1.43834 0
M  V30 2744 C 258.121 -1.76955 1.45669 0
M  V30 2745 C 259.134 -1.58956 0.351666 0
M  V30 2746 O 260.323 -1.6751 0.616644 0
M  V30 2747 C 257.423 -3.14507 1.26248 0
M  V30 2748 C 256.596 -3.59083 2.49757 0
M  V30 2749 C 255.655 -4.75467 2.25427 0
M  V30 2750 O 254.681 -4.84444 2.98836 0
M  V30 2751 N 255.883 -5.66289 1.27661 0
M  V30 2752 H 258.648 -1.75856 2.42682 0
M  V30 2753 H 256.209 -0.828312 1.39106 0
M  V30 2754 H 258.201 -3.90067 1.0784 0
M  V30 2755 H 256.771 -3.10325 0.376478 0
M  V30 2756 H 255.991 -2.7387 2.8353 0
M  V30 2757 H 257.279 -3.85613 3.31934 0
M  V30 2758 H 256.677 -5.61718 0.670064 0
M  V30 2759 H 255.234 -6.41533 1.15234 0
M  V30 2760 N 258.668 -1.30515 -0.883378 0
M  V30 2761 C 259.618 -1.13641 -1.9766 0
M  V30 2762 C 260.602 -0.0511314 -1.60819 0
M  V30 2763 O 261.794 -0.274623 -1.74857 0
M  V30 2764 C 258.923 -0.831976 -3.33066 0
M  V30 2765 C 258.009 -1.95759 -3.76217 0
M  V30 2766 N 258.4 -3.20313 -3.9145 0
M  V30 2767 C 256.698 -1.85431 -4.05625 0
M  V30 2768 C 257.399 -3.93856 -4.2808 0
M  V30 2769 N 256.375 -3.21919 -4.38029 0
M  V30 2770 H 260.177 -2.08106 -2.07531 0
M  V30 2771 H 257.691 -1.21877 -1.0733 0
M  V30 2772 H 259.688 -0.692102 -4.11115 0
M  V30 2773 H 258.348 0.104588 -3.24532 0
M  V30 2774 H 259.359 -3.55583 -3.76538 0
M  V30 2775 H 256.036 -0.991531 -4.05555 0
M  V30 2776 H 257.426 -5.01125 -4.47575 0
M  V30 2777 N 260.146 1.09593 -1.13257 0
M  V30 2778 C 261.076 2.18214 -0.830946 0
M  V30 2779 C 262.057 1.68812 0.208966 0
M  V30 2780 O 263.242 1.9408 0.0682666 0
M  V30 2781 C 260.372 3.46051 -0.294296 0
M  V30 2782 C 259.326 4.08778 -1.26826 0
M  V30 2783 C 258.652 5.31419 -0.591449 0
M  V30 2784 C 259.952 4.51476 -2.62615 0
M  V30 2785 H 261.646 2.43703 -1.73923 0
M  V30 2786 H 259.192 1.17128 -0.837675 0
M  V30 2787 H 261.145 4.2134 -0.0709606 0
M  V30 2788 H 259.869 3.20079 0.649366 0
M  V30 2789 H 258.528 3.35505 -1.47756 0
M  V30 2790 H 258.176 5.01727 0.357633 0
M  V30 2791 H 257.876 5.74341 -1.24123 0
M  V30 2792 H 259.4 6.09433 -0.377355 0
M  V30 2793 H 260.814 5.17999 -2.45663 0
M  V30 2794 H 259.211 5.05277 -3.23752 0
M  V30 2795 H 260.281 3.63962 -3.20406 0
M  V30 2796 N 261.624 0.925811 1.2754 0
M  V30 2797 C 262.901 0.483726 1.89524 0
M  V30 2798 C 263.281 -1.03809 1.83812 0
M  V30 2799 O 262.629 -1.89143 1.28207 0
M  V30 2800 C 262.839 1.02769 3.33526 0
M  V30 2801 C 264.187 1.08703 4.10449 0
M  V30 2802 O 265.211 0.977175 3.42534 0
M  V30 2803 O 264.07 1.25599 5.31871 0
M  V30 2804 H 261.164 0.15529 0.812289 0
M  V30 2805 H 263.71 1.01738 1.35822 0
M  V30 2806 H 262.482 2.07155 3.31967 0
M  V30 2807 H 262.105 0.475567 3.94746 0
M  V30 2808 N 263.102 -1.41638 0.69111 0
M  V30 2809 C 264.35 -2.00902 0.219758 0
M  V30 2810 C 264.671 -1.54994 -1.18329 0
M  V30 2811 O 263.941 -0.778628 -1.79762 0
M  V30 2812 H 262.521 -0.74289 0.0782558 0
M  V30 2813 H 265.183 -1.73327 0.891271 0
M  V30 2814 H 264.279 -3.11224 0.233708 0
M  V30 2815 N 264.58 -0.43555 -1.51462 0
M  V30 2816 C 265.826 0.131709 -2.02372 0
M  V30 2817 C 266.159 1.42516 -1.3192 0
M  V30 2818 O 265.434 1.89606 -0.433573 0
M  V30 2819 C 265.717 0.352301 -3.58373 0
M  V30 2820 C 265.57 -0.959676 -4.39443 0
M  V30 2821 C 266.889 1.12286 -4.25535 0
M  V30 2822 H 264.008 0.0463936 -0.735538 0
M  V30 2823 H 266.65 -0.574197 -1.81116 0
M  V30 2824 H 264.8 0.9536 -3.76615 0
M  V30 2825 H 266.472 -1.59482 -4.32855 0
M  V30 2826 H 264.715 -1.56468 -4.04599 0
M  V30 2827 H 265.386 -0.759394 -5.46752 0
M  V30 2828 H 267.862 0.613545 -4.11552 0
M  V30 2829 H 266.738 1.24598 -5.34571 0
M  V30 2830 H 266.999 2.15048 -3.86273 0
M  V30 2831 N 266.058 1.56714 -0.166846 0
M  V30 2832 C 267.021 2.16539 0.751232 0
M  V30 2833 C 268.021 1.11228 1.16125 0
M  V30 2834 O 269.211 1.36765 1.07894 0
M  V30 2835 C 266.343 2.74462 2.02196 0
M  V30 2836 H 267.536 2.99013 0.230499 0
M  V30 2837 H 265.089 1.56081 0.0826982 0
M  V30 2838 H 265.824 1.95709 2.58589 0
M  V30 2839 H 265.609 3.51527 1.73698 0
M  V30 2840 H 267.099 3.20489 2.67725 0
M  V30 2841 N 267.536 -0.106894 1.57237 0
M  V30 2842 C 268.783 -0.812526 1.85484 0
M  V30 2843 C 269.111 -1.79304 0.753687 0
M  V30 2844 O 268.366 -1.94047 -0.253853 0
M  V30 2845 C 268.665 -1.58628 3.20268 0
M  V30 2846 C 268.331 -0.748967 4.44636 0
M  V30 2847 C 266.993 -0.518104 4.78403 0
M  V30 2848 C 269.345 -0.166122 5.20935 0
M  V30 2849 C 266.673 0.305659 5.85903 0
M  V30 2850 C 269.025 0.644899 6.29304 0
M  V30 2851 C 267.689 0.885965 6.61594 0
M  V30 2852 H 266.959 -0.297324 0.678734 0
M  V30 2853 H 269.606 -0.0744332 1.91355 0
M  V30 2854 H 267.911 -2.39562 3.10028 0
M  V30 2855 H 269.608 -2.13643 3.39349 0
M  V30 2856 H 266.198 -0.939006 4.18187 0
M  V30 2857 H 270.382 -0.33167 4.95191 0
M  V30 2858 H 265.638 0.501528 6.0934 0
M  V30 2859 H 269.812 1.10345 6.87602 0
M  V30 2860 H 267.439 1.52609 7.44725 0
M  V30 2861 N 269.014 -1.53014 -0.377408 0
M  V30 2862 C 270.263 -1.67845 -1.11853 0
M  V30 2863 C 270.576 -0.430625 -1.90801 0
M  V30 2864 O 271.782 -0.459261 -2.67587 0
M  V30 2865 C 270.238 -2.96668 -2.03756 0
M  V30 2866 C 269.846 -4.28671 -1.30175 0
M  V30 2867 C 271.59 -3.20865 -2.77932 0
M  V30 2868 C 269.497 -5.48591 -2.20911 0
M  V30 2869 H 268.427 -0.625343 -0.421263 0
M  V30 2870 H 271.078 -1.79514 -0.380409 0
M  V30 2871 H 269.46 -2.78773 -2.8125 0
M  V30 2872 H 270.634 -4.57157 -0.578259 0
M  V30 2873 H 268.949 -4.10825 -0.679108 0
M  V30 2874 H 271.546 -4.07642 -3.46024 0
M  V30 2875 H 271.889 -2.36424 -3.4265 0
M  V30 2876 H 272.422 -3.39379 -2.07525 0
M  V30 2877 H 269.161 -6.35474 -1.6079 0
M  V30 2878 H 268.681 -5.244 -2.91144 0
M  V30 2879 H 270.36 -5.8292 -2.80736 0
M  V30 2880 N 270.492 0.636531 -1.44174 0
M  V30 2881 C 271.739 1.39619 -1.46672 0
M  V30 2882 C 272.067 1.94257 -0.0972691 0
M  V30 2883 O 271.322 1.73768 0.900175 0
M  V30 2884 C 271.621 2.58309 -2.47005 0
M  V30 2885 C 271.287 2.21992 -3.92467 0
M  V30 2886 C 269.949 2.118 -4.32081 0
M  V30 2887 C 272.301 1.9321 -4.84065 0
M  V30 2888 C 269.629 1.71007 -5.61225 0
M  V30 2889 C 271.981 1.53911 -6.13591 0
M  V30 2890 C 270.645 1.42257 -6.52165 0
M  V30 2891 H 269.915 0.510902 -0.536712 0
M  V30 2892 H 272.562 0.722328 -1.77355 0
M  V30 2893 H 270.867 3.30903 -2.09786 0
M  V30 2894 H 272.564 3.16533 -2.46186 0
M  V30 2895 H 269.154 2.30841 -3.61124 0
M  V30 2896 H 273.338 1.99997 -4.54219 0
M  V30 2897 H 268.594 1.60583 -5.89935 0
M  V30 2898 H 272.768 1.30677 -6.8403 0
M  V30 2899 H 270.395 1.10419 -7.52138 0
M  V30 2900 N 271.97 1.30982 0.876444 0
M  V30 2901 C 273.386 1.09498 1.16113 0
M  V30 2902 C 273.586 -0.13875 2.01022 0
M  V30 2903 O 272.642 -0.829935 2.38471 0
M  V30 2904 C 273.955 2.36308 1.85954 0
M  V30 2905 C 275.503 2.41856 1.98683 0
M  V30 2906 C 275.978 3.6853 2.71937 0
M  V30 2907 N 277.469 3.69387 2.79477 0
M  V30 2908 C 278.204 4.64096 3.36753 0
M  V30 2909 N 277.7 5.69155 3.95012 0
M  V30 2910 N 279.493 4.51626 3.3465 0
M  V30 2911 H 271.644 2.10118 0.310494 0
M  V30 2912 H 273.907 0.926634 0.200131 0
M  V30 2913 H 273.613 3.26388 1.31011 0
M  V30 2914 H 273.487 2.4561 2.86278 0
M  V30 2915 H 275.874 1.52249 2.52793 0
M  V30 2916 H 275.955 2.36523 0.9742 0
M  V30 2917 H 275.599 4.58499 2.18496 0
M  V30 2918 H 275.529 3.71127 3.73593 0
M  V30 2919 H 278.02 2.93438 2.38123 0
M  V30 2920 H 278.333 6.3751 4.36808 0
M  V30 2921 H 276.678 5.72937 3.93406 0
M  V30 2922 H 279.869 3.68728 2.8837 0
M  V30 2923 H 280.042 5.25614 3.7899 0
M  V30 2924 N 273.449 -1.08991 1.13837 0
M  V30 2925 C 274.379 -2.17771 0.842507 0
M  V30 2926 C 275.36 -1.6892 -0.20001 0
M  V30 2927 O 276.545 -1.94113 -0.0579731 0
M  V30 2928 C 273.675 -3.4589 0.312644 0
M  V30 2929 C 272.629 -4.08099 1.28992 0
M  V30 2930 C 271.955 -5.31098 0.619623 0
M  V30 2931 C 273.255 -4.50077 2.65005 0
M  V30 2932 H 274.949 -2.42777 1.75213 0
M  V30 2933 H 272.495 -1.16682 0.843875 0
M  V30 2934 H 274.448 -4.21297 0.0933043 0
M  V30 2935 H 273.172 -3.20419 -0.632382 0
M  V30 2936 H 271.831 -3.34717 1.49533 0
M  V30 2937 H 271.479 -5.0191 -0.33102 0
M  V30 2938 H 271.179 -5.73674 1.27167 0
M  V30 2939 H 272.703 -6.09224 0.409669 0
M  V30 2940 H 274.117 -5.16688 2.48407 0
M  V30 2941 H 272.514 -5.03553 3.26427 0
M  V30 2942 H 273.584 -3.62257 3.22332 0
M  V30 2943 N 274.927 -0.932562 -1.27047 0
M  V30 2944 C 275.877 -0.406392 -2.24349 0
M  V30 2945 C 276.861 0.492066 -1.53191 0
M  V30 2946 O 278.053 0.328717 -1.73921 0
M  V30 2947 C 275.182 0.335214 -3.41659 0
M  V30 2948 C 274.268 -0.58004 -4.20115 0
M  V30 2949 N 274.659 -1.70203 -4.76303 0
M  V30 2950 C 272.957 -0.383974 -4.44344 0
M  V30 2951 C 273.658 -2.27167 -5.35509 0
M  V30 2952 N 272.634 -1.56068 -5.20715 0
M  V30 2953 H 276.436 -1.26299 -2.65378 0
M  V30 2954 H 273.95 -0.787408 -1.42034 0
M  V30 2955 H 275.947 0.729142 -4.10474 0
M  V30 2956 H 274.607 1.18868 -3.0216 0
M  V30 2957 H 275.618 -2.08433 -4.74106 0
M  V30 2958 H 272.295 0.428436 -4.15296 0
M  V30 2959 H 273.685 -3.21654 -5.89905 0
M  V30 2960 N 276.405 1.4127 -0.698611 0
M  V30 2961 C 277.335 2.33447 -0.049629 0
M  V30 2962 C 278.316 1.51982 0.763898 0
M  V30 2963 O 279.501 1.80509 0.716257 0
M  V30 2964 C 276.631 3.35828 0.885267 0
M  V30 2965 C 275.585 4.27627 0.178613 0
M  V30 2966 C 274.911 5.20406 1.22807 0
M  V30 2967 C 276.211 5.13459 -0.956933 0
M  V30 2968 H 277.905 2.87966 -0.81951 0
M  V30 2969 H 275.451 1.38461 -0.395538 0
M  V30 2970 H 277.404 3.9924 1.34854 0
M  V30 2971 H 276.128 2.79666 1.68685 0
M  V30 2972 H 274.787 3.65643 -0.26466 0
M  V30 2973 H 274.435 4.60558 2.02226 0
M  V30 2974 H 274.135 5.82661 0.760239 0
M  V30 2975 H 275.659 5.86695 1.69179 0
M  V30 2976 H 277.073 5.70421 -0.573805 0
M  V30 2977 H 275.47 5.8467 -1.35205 0
M  V30 2978 H 276.54 4.50443 -1.79524 0
M  V30 2979 N 277.883 0.443576 1.51229 0
M  V30 2980 C 279.129 -0.120975 2.02439 0
M  V30 2981 C 279.462 -1.41815 1.32674 0
M  V30 2982 O 278.737 -1.89373 0.443622 0
M  V30 2983 C 279.02 -0.333291 3.58554 0
M  V30 2984 C 278.873 0.982968 4.38928 0
M  V30 2985 C 280.192 -1.10028 4.26124 0
M  V30 2986 H 277.311 -0.0424923 0.735774 0
M  V30 2987 H 279.953 0.583794 1.80809 0
M  V30 2988 H 278.103 -0.933614 3.77115 0
M  V30 2989 H 279.775 1.61775 4.32003 0
M  V30 2990 H 278.018 1.58611 4.03763 0
M  V30 2991 H 278.689 0.788379 5.46341 0
M  V30 2992 H 281.165 -0.591711 4.11871 0
M  V30 2993 H 280.041 -1.21761 5.35225 0
M  V30 2994 H 280.302 -2.12996 3.87408 0
M  V30 2995 N 279.361 -1.56624 0.175154 0
M  V30 2996 C 280.291 -2.21155 -0.749195 0
M  V30 2997 C 281.272 -1.16836 -1.23626 0
M  V30 2998 O 282.457 -1.45277 -1.28873 0
M  V30 2999 C 279.587 -2.8553 -1.97711 0
M  V30 3000 C 278.541 -3.95921 -1.62575 0
M  V30 3001 C 277.867 -4.47365 -2.92864 0
M  V30 3002 C 279.167 -5.15323 -0.850838 0
M  V30 3003 H 280.861 -2.98653 -0.211295 0
M  V30 3004 H 278.407 -1.43651 -0.100188 0
M  V30 3005 H 280.36 -3.2935 -2.62881 0
M  V30 3006 H 279.084 -2.05406 -2.53921 0
M  V30 3007 H 277.743 -3.52762 -0.997719 0
M  V30 3008 H 277.391 -3.64027 -3.47122 0
M  V30 3009 H 277.091 -5.21839 -2.70106 0
M  V30 3010 H 278.615 -4.93873 -3.59056 0
M  V30 3011 H 280.029 -5.55812 -1.40521 0
M  V30 3012 H 278.426 -5.95739 -0.722154 0
M  V30 3013 H 279.496 -4.84661 0.152082 0
M  V30 3014 N 280.839 0.0985539 -1.57292 0
M  V30 3015 C 282.087 0.801092 -1.85545 0
M  V30 3016 C 282.408 1.79438 -0.763353 0
M  V30 3017 O 281.678 1.94763 0.21073 0
M  V30 3018 H 280.258 0.29884 -0.684619 0
M  V30 3019 H 282.92 0.0810064 -1.94732 0
M  V30 3020 H 282.016 1.3338 -2.82163 0
M  V30 3021 N 282.317 1.53212 0.369288 0
M  V30 3022 C 283.25 1.74166 1.4745 0
M  V30 3023 C 284.228 0.589923 1.51521 0
M  V30 3024 O 285.412 0.822078 1.69629 0
M  V30 3025 C 282.539 1.81711 2.8583 0
M  V30 3026 C 281.585 3.03649 2.99499 0
M  V30 3027 S 282.418 4.63242 2.6864 0
M  V30 3028 C 283.574 4.7363 4.09177 0
M  V30 3029 H 283.807 2.67636 1.29454 0
M  V30 3030 H 281.34 1.43754 0.563396 0
M  V30 3031 H 283.298 1.86743 3.65564 0
M  V30 3032 H 281.959 0.89299 3.01139 0
M  V30 3033 H 281.152 3.05526 4.00836 0
M  V30 3034 H 280.754 2.9671 2.27683 0
M  V30 3035 H 283.046 4.53456 5.03372 0
M  V30 3036 H 283.989 5.75682 4.12306 0
M  V30 3037 H 284.397 4.02295 3.96004 0
M  V30 3038 N 283.795 -0.628877 1.44509 0
M  V30 3039 C 285.023 -1.41554 1.50897 0
M  V30 3040 C 285.438 -1.8832 0.134564 0
M  V30 3041 O 284.795 -1.60969 -0.859965 0
M  V30 3042 C 284.846 -2.63435 2.47556 0
M  V30 3043 O 284.567 -2.18619 3.79654 0
M  V30 3044 C 286.068 -3.56537 2.63431 0
M  V30 3045 H 283.288 -0.434044 0.511709 0
M  V30 3046 H 285.832 -0.768895 1.89495 0
M  V30 3047 H 283.987 -3.24187 2.12089 0
M  V30 3048 H 284.401 -2.97652 4.31861 0
M  V30 3049 H 285.875 -4.38657 3.35088 0
M  V30 3050 H 286.352 -4.05493 1.68738 0
M  V30 3051 H 286.958 -3.01653 2.9981 0
M  V30 3052 N 285.273 -1.31445 -0.869486 0
M  V30 3053 C 286.203 -1.21727 -1.99261 0
M  V30 3054 C 287.184 -0.104359 -1.6978 0
M  V30 3055 O 288.369 -0.289038 -1.92037 0
M  V30 3056 C 285.499 -0.924317 -3.34774 0
M  V30 3057 C 284.453 -1.99685 -3.78563 0
M  V30 3058 C 283.779 -1.55658 -5.11541 0
M  V30 3059 C 285.079 -3.41003 -3.95619 0
M  V30 3060 H 286.773 -2.1569 -2.07649 0
M  V30 3061 H 284.319 -1.03839 -0.997675 0
M  V30 3062 H 286.272 -0.842934 -4.12883 0
M  V30 3063 H 284.996 0.0509793 -3.2656 0
M  V30 3064 H 283.655 -2.06813 -3.02694 0
M  V30 3065 H 283.303 -0.569132 -4.9977 0
M  V30 3066 H 283.003 -2.27409 -5.41811 0
M  V30 3067 H 284.527 -1.48928 -5.92159 0
M  V30 3068 H 285.941 -3.36547 -4.64122 0
M  V30 3069 H 284.338 -4.10975 -4.37286 0
M  V30 3070 H 285.408 -3.81754 -2.98985 0
M  V30 3071 N 286.751 1.08385 -1.14413 0
M  V30 3072 C 287.998 1.80776 -0.912482 0
M  V30 3073 C 288.326 1.86236 0.560934 0
M  V30 3074 O 287.581 1.33431 1.43159 0
M  V30 3075 C 287.88 3.26273 -1.45879 0
M  V30 3076 C 287.546 3.4093 -2.95089 0
M  V30 3077 C 286.208 3.44638 -3.35824 0
M  V30 3078 C 288.56 3.44591 -3.91033 0
M  V30 3079 C 285.888 3.49597 -4.71167 0
M  V30 3080 C 288.24 3.51086 -5.26233 0
M  V30 3081 C 286.904 3.53067 -5.6648 0
M  V30 3082 H 286.174 0.661507 -0.333901 0
M  V30 3083 H 288.821 1.27613 -1.42784 0
M  V30 3084 H 287.126 3.82146 -0.864376 0
M  V30 3085 H 288.823 3.80839 -1.2555 0
M  V30 3086 H 285.413 3.38736 -2.62594 0
M  V30 3087 H 289.597 3.40957 -3.60641 0
M  V30 3088 H 284.853 3.49424 -5.0171 0
M  V30 3089 H 289.027 3.52864 -6.00383 0
M  V30 3090 H 286.654 3.56662 -6.71339 0
M  V30 3091 N 288.23 0.939286 1.26551 0
M  V30 3092 C 289.16 0.465044 2.28822 0
M  V30 3093 C 290.141 -0.480692 1.63167 0
M  V30 3094 O 291.326 -0.382955 1.90387 0
M  V30 3095 C 288.456 -0.27234 3.46231 0
M  V30 3096 C 287.41 0.58666 4.2396 0
M  V30 3097 C 286.736 -0.280573 5.33963 0
M  V30 3098 C 288.036 1.85704 4.88171 0
M  V30 3099 H 289.73 1.31979 2.68741 0
M  V30 3100 H 287.276 0.636061 1.29191 0
M  V30 3101 H 289.229 -0.615133 4.16886 0
M  V30 3102 H 287.953 -1.16121 3.0526 0
M  V30 3103 H 286.612 0.91232 3.55067 0
M  V30 3104 H 286.26 -1.16874 4.89234 0
M  V30 3105 H 285.96 0.29076 5.8688 0
M  V30 3106 H 287.484 -0.618678 6.07458 0
M  V30 3107 H 288.898 1.58161 5.51052 0
M  V30 3108 H 287.295 2.37279 5.51197 0
M  V30 3109 H 288.365 2.56957 4.11219 0
M  V30 3110 N 289.708 -1.40897 0.706093 0
M  V30 3111 C 290.638 -2.33418 0.0620085 0
M  V30 3112 C 291.619 -1.52385 -0.755827 0
M  V30 3113 O 292.804 -1.80886 -0.706674 0
M  V30 3114 C 289.934 -3.36293 -0.867445 0
M  V30 3115 C 288.888 -4.27716 -0.155932 0
M  V30 3116 C 288.214 -5.2105 -1.20046 0
M  V30 3117 C 289.514 -5.12944 0.984149 0
M  V30 3118 H 291.208 -2.87527 0.83477 0
M  V30 3119 H 288.754 -1.38249 0.402875 0
M  V30 3120 H 290.707 -3.99949 -1.32735 0
M  V30 3121 H 289.431 -2.80556 -1.67199 0
M  V30 3122 H 288.09 -3.65498 0.284047 0
M  V30 3123 H 287.738 -4.61624 -1.99781 0
M  V30 3124 H 287.438 -5.83056 -0.729328 0
M  V30 3125 H 288.962 -5.87584 -1.66066 0
M  V30 3126 H 290.376 -5.70109 0.604048 0
M  V30 3127 H 288.773 -5.83945 1.38304 0
M  V30 3128 H 289.843 -4.49485 1.81911 0
M  V30 3129 N 291.186 -0.45159 -1.50991 0
M  V30 3130 C 292.433 0.110074 -2.02201 0
M  V30 3131 C 292.761 1.4146 -1.33489 0
M  V30 3132 O 292.016 1.90617 -0.443125 0
M  V30 3133 C 292.315 0.361728 -3.55565 0
M  V30 3134 C 291.981 -0.858717 -4.42648 0
M  V30 3135 C 290.643 -1.19338 -4.66167 0
M  V30 3136 C 292.995 -1.67221 -4.93646 0
M  V30 3137 C 290.323 -2.34195 -5.37931 0
M  V30 3138 C 292.675 -2.8119 -5.6667 0
M  V30 3139 C 291.339 -3.15094 -5.88449 0
M  V30 3140 H 290.609 0.040279 -0.739904 0
M  V30 3141 H 293.256 -0.601696 -1.81802 0
M  V30 3142 H 291.561 1.15554 -3.74372 0
M  V30 3143 H 293.258 0.80996 -3.92735 0
M  V30 3144 H 289.848 -0.58796 -4.24548 0
M  V30 3145 H 294.032 -1.42686 -4.75347 0
M  V30 3146 H 289.288 -2.6076 -5.53005 0
M  V30 3147 H 293.462 -3.44585 -6.05173 0
M  V30 3148 H 291.089 -4.04204 -6.43835 0
M  V30 3149 N 292.664 1.56529 -0.183458 0
M  V30 3150 C 294.075 1.83739 0.331177 0
M  V30 3151 C 294.426 1.10373 1.62211 0
M  V30 3152 O 293.551 0.36071 2.13373 0
M  V30 3153 C 294.146 3.33306 0.607646 0
M  V30 3154 C 292.705 3.60969 1.06668 0
M  V30 3155 C 291.852 2.77086 0.109029 0
M  V30 3156 H 294.803 1.53379 -0.407484 0
M  V30 3157 H 294.824 3.51444 1.45832 0
M  V30 3158 H 294.336 3.86677 -0.332086 0
M  V30 3159 H 292.437 3.13021 2.0211 0
M  V30 3160 H 292.55 4.69231 0.967447 0
M  V30 3161 H 290.914 2.47319 0.608714 0
M  V30 3162 H 291.697 3.33241 -0.82494 0
M  V30 3163 N 294.142 -0.090211 1.57342 0
M  V30 3164 C 295.389 -0.792807 1.86335 0
M  V30 3165 C 295.717 -1.78494 0.772662 0
M  V30 3166 O 294.972 -1.94305 -0.233258 0
M  V30 3167 C 295.271 -1.55222 3.21933 0
M  V30 3168 C 294.937 -0.701765 4.45406 0
M  V30 3169 C 293.599 -0.467334 4.78925 0
M  V30 3170 C 295.951 -0.11086 5.21082 0
M  V30 3171 C 293.279 0.367785 5.85546 0
M  V30 3172 C 295.631 0.711609 6.28585 0
M  V30 3173 C 294.295 0.956086 6.60617 0
M  V30 3174 H 293.565 -0.290109 0.681849 0
M  V30 3175 H 296.212 -0.0541332 1.91423 0
M  V30 3176 H 294.517 -2.3626 3.12551 0
M  V30 3177 H 296.214 -2.10032 3.41595 0
M  V30 3178 H 292.804 -0.894598 4.1916 0
M  V30 3179 H 296.988 -0.279129 4.95514 0
M  V30 3180 H 292.244 0.566128 6.08773 0
M  V30 3181 H 296.418 1.17632 6.86393 0
M  V30 3182 H 294.045 1.60499 7.43064 0
M  V30 3183 N 295.62 -1.53406 -0.361157 0
M  V30 3184 C 296.845 -1.74024 -1.12829 0
M  V30 3185 C 297.27 -0.470069 -1.82132 0
M  V30 3186 O 296.628 0.57619 -1.719 0
M  V30 3187 C 296.676 -2.90903 -2.13091 0
M  V30 3188 O 295.78 -2.59821 -3.20261 0
M  V30 3189 H 295.121 -0.577804 -0.327168 0
M  V30 3190 H 297.651 -2.00307 -0.41693 0
M  V30 3191 H 297.661 -3.17194 -2.56616 0
M  V30 3192 H 296.336 -3.83034 -1.62042 0
M  V30 3193 H 294.913 -2.44362 -2.81677 0
M  V30 3194 N 297.098 0.621204 -1.44841 0
M  V30 3195 C 298.514 0.94048 -1.28946 0
M  V30 3196 C 298.714 2.00154 -0.23249 0
M  V30 3197 O 297.77 2.49651 0.378237 0
M  V30 3198 C 299.083 1.39433 -2.66419 0
M  V30 3199 C 300.631 1.50927 -2.74208 0
M  V30 3200 C 301.106 1.99692 -4.12174 0
M  V30 3201 N 302.597 2.06947 -4.144 0
M  V30 3202 C 303.332 2.45871 -5.1801 0
M  V30 3203 N 302.828 2.83862 -6.31977 0
M  V30 3204 N 304.621 2.46092 -5.05366 0
M  V30 3205 H 296.772 -0.0803548 -2.12248 0
M  V30 3206 H 299.035 0.0266913 -0.947624 0
M  V30 3207 H 298.741 0.688925 -3.44887 0
M  V30 3208 H 298.615 2.36347 -2.93973 0
M  V30 3209 H 301.002 2.20561 -1.96053 0
M  V30 3210 H 301.083 0.523627 -2.50383 0
M  V30 3211 H 300.727 1.30649 -4.90809 0
M  V30 3212 H 300.657 2.99146 -4.33381 0
M  V30 3213 H 303.148 1.80232 -3.32152 0
M  V30 3214 H 303.461 3.12405 -7.0684 0
M  V30 3215 H 301.806 2.8159 -6.35399 0
M  V30 3216 H 304.997 2.1581 -4.15384 0
M  V30 3217 H 305.17 2.76102 -5.86235 0
M  V30 3218 N 298.576 1.31904 0.862503 0
M  V30 3219 C 299.506 1.22782 1.98612 0
M  V30 3220 C 300.487 0.113362 1.69722 0
M  V30 3221 O 301.672 0.299218 1.91881 0
M  V30 3222 C 298.802 0.942058 3.34279 0
M  V30 3223 C 297.756 2.0169 3.77499 0
M  V30 3224 C 297.082 1.58369 5.10709 0
M  V30 3225 C 298.382 3.43096 3.93805 0
M  V30 3226 H 300.076 2.16788 2.06502 0
M  V30 3227 H 297.622 1.04366 0.992154 0
M  V30 3228 H 299.575 0.864818 4.1243 0
M  V30 3229 H 298.299 -0.0336603 3.26583 0
M  V30 3230 H 296.958 2.08416 3.01593 0
M  V30 3231 H 296.606 0.595628 4.99461 0
M  V30 3232 H 296.306 2.30279 5.40597 0
M  V30 3233 H 297.83 1.52067 5.91361 0
M  V30 3234 H 299.244 3.39003 4.62331 0
M  V30 3235 H 297.641 4.13288 4.35101 0
M  V30 3236 H 298.711 3.83334 2.96957 0
M  V30 3237 N 300.054 -1.07777 1.14986 0
M  V30 3238 C 301.303 -1.79669 0.916617 0
M  V30 3239 C 301.616 -1.87474 -0.557917 0
M  V30 3240 O 302.822 -2.55845 -0.908617 0
M  V30 3241 C 301.278 -3.22848 1.59051 0
M  V30 3242 C 300.886 -3.23257 3.10176 0
M  V30 3243 C 302.63 -3.99379 1.43864 0
M  V30 3244 C 300.537 -4.61063 3.70372 0
M  V30 3245 H 299.467 -0.673349 0.33929 0
M  V30 3246 H 302.118 -1.21003 1.37951 0
M  V30 3247 H 300.5 -3.8168 1.0553 0
M  V30 3248 H 301.674 -2.74095 3.70417 0
M  V30 3249 H 299.989 -2.60222 3.25074 0
M  V30 3250 H 302.586 -5.0122 1.86232 0
M  V30 3251 H 302.929 -4.14511 0.385564 0
M  V30 3252 H 303.462 -3.47032 1.94457 0
M  V30 3253 H 300.201 -4.51135 4.7556 0
M  V30 3254 H 299.721 -5.1048 3.14913 0
M  V30 3255 H 301.4 -5.30034 3.71043 0
M  V30 3256 N 301.532 -0.945985 -1.26051 0
M  V30 3257 C 302.482 -0.430164 -2.23905 0
M  V30 3258 C 303.466 0.47579 -1.53704 0
M  V30 3259 O 304.658 0.310252 -1.7426 0
M  V30 3260 C 301.787 0.298957 -3.41996 0
M  V30 3261 C 300.873 -0.624566 -4.19476 0
M  V30 3262 N 301.264 -1.75245 -4.74471 0
M  V30 3263 C 299.562 -0.431082 -4.43912 0
M  V30 3264 C 300.263 -2.32834 -5.3307 0
M  V30 3265 N 299.239 -1.61583 -5.1903 0
M  V30 3266 H 303.041 -1.29107 -2.64024 0
M  V30 3267 H 300.555 -0.802428 -1.41191 0
M  V30 3268 H 302.552 0.685565 -4.11225 0
M  V30 3269 H 301.212 1.15657 -3.03403 0
M  V30 3270 H 302.223 -2.13449 -4.71868 0
M  V30 3271 H 298.9 0.384364 -4.15727 0
M  V30 3272 H 300.29 -3.27893 -5.86461 0
M  V30 3273 N 303.011 1.40521 -0.713556 0
M  V30 3274 C 304.26 2.00155 -0.249192 0
M  V30 3275 C 304.573 1.57224 1.16362 0
M  V30 3276 O 305.779 2.09542 1.72639 0
M  V30 3277 C 304.235 3.5773 -0.3946 0
M  V30 3278 C 303.843 4.09635 -1.81392 0
M  V30 3279 C 305.587 4.24499 0.00907364 0
M  V30 3280 C 303.494 5.59707 -1.91003 0
M  V30 3281 H 302.424 0.74868 -0.0894114 0
M  V30 3282 H 305.075 1.60784 -0.884352 0
M  V30 3283 H 303.457 3.94792 0.30911 0
M  V30 3284 H 304.631 3.83955 -2.54785 0
M  V30 3285 H 302.946 3.55456 -2.16888 0
M  V30 3286 H 305.543 5.34683 -0.0420404 0
M  V30 3287 H 305.886 4.02824 1.05065 0
M  V30 3288 H 306.419 3.92536 -0.645007 0
M  V30 3289 H 303.158 5.86234 -2.93275 0
M  V30 3290 H 302.678 5.87258 -1.22019 0
M  V30 3291 H 304.357 6.24776 -1.6812 0
M  V30 3292 N 304.489 0.459591 1.5075 0
M  V30 3293 C 305.735 -0.091664 2.03193 0
M  V30 3294 C 306.09 -1.38432 1.3362 0
M  V30 3295 O 305.383 -1.86257 0.449322 0
M  V30 3296 C 305.577 -0.342866 3.55752 0
M  V30 3297 C 305.406 0.923888 4.40107 0
M  V30 3298 C 304.176 1.46388 4.83631 0
M  V30 3299 C 306.374 1.81617 4.81165 0
M  V30 3300 N 304.356 2.68086 5.52271 0
M  V30 3301 C 305.727 2.87907 5.49099 0
M  V30 3302 C 307.782 1.82793 4.63132 0
M  V30 3303 C 306.485 3.95347 6.0091 0
M  V30 3304 C 308.511 2.89182 5.15876 0
M  V30 3305 C 307.873 3.94191 5.83774 0
M  V30 3306 H 303.972 0.00619247 0.781975 0
M  V30 3307 H 306.556 0.625233 1.84388 0
M  V30 3308 H 304.727 -1.0288 3.74527 0
M  V30 3309 H 306.459 -0.887445 3.9485 0
M  V30 3310 H 303.214 1.01466 4.62603 0
M  V30 3311 H 303.638 3.29857 5.91205 0
M  V30 3312 H 308.28 1.0293 4.1008 0
M  V30 3313 H 305.998 4.76035 6.53006 0
M  V30 3314 H 309.584 2.91061 5.0376 0
M  V30 3315 H 308.464 4.75161 6.23853 0
M  V30 3316 N 305.967 -1.56429 0.191757 0
M  V30 3317 C 307.192 -2.02309 -0.456706 0
M  V30 3318 C 307.617 -1.07103 -1.5463 0
M  V30 3319 O 306.975 -0.0539677 -1.8122 0
M  V30 3320 C 307.023 -3.46654 -0.993159 0
M  V30 3321 O 306.127 -3.54559 -2.10622 0
M  V30 3322 H 305.468 -0.655303 -0.107114 0
M  V30 3323 H 307.998 -2.02364 0.301653 0
M  V30 3324 H 308.008 -3.86377 -1.31061 0
M  V30 3325 H 306.683 -4.1544 -0.195504 0
M  V30 3326 H 305.26 -3.26708 -1.79767 0
M  V30 3327 N 307.445 0.0818655 -1.57387 0
M  V30 3328 C 308.691 0.784074 -1.8703 0
M  V30 3329 C 309.024 1.77729 -0.782689 0
M  V30 3330 O 308.299 1.93384 0.208051 0
M  V30 3331 C 308.582 1.50105 -3.27323 0
M  V30 3332 C 308.435 0.524925 -4.46727 0
M  V30 3333 C 309.754 2.44843 -3.65705 0
M  V30 3334 H 306.873 0.283582 -0.680257 0
M  V30 3335 H 309.515 0.0474352 -1.89941 0
M  V30 3336 H 307.665 2.12897 -3.24972 0
M  V30 3337 H 309.337 -0.0970111 -4.61198 0
M  V30 3338 H 307.58 -0.160606 -4.33503 0
M  V30 3339 H 308.251 1.064 -5.41648 0
M  V30 3340 H 310.727 1.92135 -3.69085 0
M  V30 3341 H 309.603 2.92018 -4.64776 0
M  V30 3342 H 309.864 3.29197 -2.95096 0
M  V30 3343 N 308.923 1.53595 0.353017 0
M  V30 3344 C 310.334 1.61937 0.929153 0
M  V30 3345 C 310.685 0.494686 1.89861 0
M  V30 3346 O 309.81 -0.377017 2.1309 0
M  V30 3347 C 310.405 2.93526 1.69199 0
M  V30 3348 C 308.964 3.04161 2.21727 0
M  V30 3349 C 308.111 2.57322 1.03348 0
M  V30 3350 H 311.062 1.58155 0.131431 0
M  V30 3351 H 311.083 2.82034 2.55416 0
M  V30 3352 H 310.595 3.75362 0.986144 0
M  V30 3353 H 308.696 2.26938 2.95516 0
M  V30 3354 H 308.809 4.09465 2.48748 0
M  V30 3355 H 307.173 2.12499 1.40414 0
M  V30 3356 H 307.956 3.41588 0.342428 0
M  V30 3357 N 310.401 -0.613514 1.45168 0
M  V30 3358 C 311.647 -1.37471 1.49096 0
M  V30 3359 C 311.98 -1.93765 0.129901 0
M  V30 3360 O 311.255 -1.74707 -0.854858 0
M  V30 3361 C 311.538 -2.52701 2.56542 0
M  V30 3362 C 311.391 -2.01643 4.0207 0
M  V30 3363 C 312.71 -3.54849 2.60327 0
M  V30 3364 H 309.829 -0.498502 0.54283 0
M  V30 3365 H 312.471 -0.692125 1.76945 0
M  V30 3366 H 310.621 -3.10931 2.32926 0
M  V30 3367 H 312.293 -1.48108 4.36877 0
M  V30 3368 H 310.536 -1.32688 4.13009 0
M  V30 3369 H 311.207 -2.84681 4.72928 0
M  V30 3370 H 313.683 -3.0645 2.81474 0
M  V30 3371 H 312.559 -4.32973 3.37381 0
M  V30 3372 H 312.82 -4.10079 1.6519 0
M  V30 3373 N 311.879 -1.3236 -0.855495 0
M  V30 3374 C 312.789 -1.23221 -1.99634 0
M  V30 3375 C 313.805 -0.145983 -1.73387 0
M  V30 3376 O 314.981 -0.366502 -1.98037 0
M  V30 3377 C 312.046 -0.954782 -3.33294 0
M  V30 3378 C 311.107 -2.12937 -3.72769 0
M  V30 3379 C 310.34 -1.86508 -5.00051 0
M  V30 3380 O 310.563 -0.807231 -5.64659 0
M  V30 3381 O 309.497 -2.72591 -5.36636 0
M  V30 3382 H 313.323 -2.19126 -2.1028 0
M  V30 3383 H 310.908 -1.12241 -0.986018 0
M  V30 3384 H 312.79 -0.816519 -4.13414 0
M  V30 3385 H 311.465 -0.0258854 -3.2369 0
M  V30 3386 H 310.372 -2.3231 -2.93228 0
M  V30 3387 H 311.705 -3.04102 -3.87018 0
M  V30 3388 N 313.357 1.07166 -1.15556 0
M  V30 3389 C 314.587 1.83248 -0.954133 0
M  V30 3390 C 314.995 1.82449 0.500911 0
M  V30 3391 O 314.338 1.23575 1.35923 0
M  V30 3392 C 314.4 3.31393 -1.39351 0
M  V30 3393 C 314.064 3.5591 -2.86666 0
M  V30 3394 C 315.061 3.49695 -3.8472 0
M  V30 3395 C 312.746 3.83515 -3.24379 0
M  V30 3396 C 314.74 3.70737 -5.18491 0
M  V30 3397 C 312.427 4.04209 -4.58321 0
M  V30 3398 C 313.425 3.97815 -5.55186 0
M  V30 3399 O 313.113 4.17954 -6.86709 0
M  V30 3400 H 312.845 0.584941 -0.338851 0
M  V30 3401 H 315.399 1.36169 -1.53777 0
M  V30 3402 H 313.629 3.79292 -0.75329 0
M  V30 3403 H 315.318 3.88945 -1.16089 0
M  V30 3404 H 316.084 3.28368 -3.56931 0
M  V30 3405 H 311.963 3.87605 -2.49567 0
M  V30 3406 H 315.507 3.65663 -5.94085 0
M  V30 3407 H 311.404 4.25023 -4.85825 0
M  V30 3408 H 312.172 4.35291 -6.93155 0
M  V30 3409 N 314.835 0.952656 1.25548 0
M  V30 3410 C 315.765 0.489287 2.28316 0
M  V30 3411 C 316.746 -0.463359 1.63667 0
M  V30 3412 O 317.931 -0.36274 1.90782 0
M  V30 3413 C 315.061 -0.235603 3.465 0
M  V30 3414 C 314.015 0.631593 4.23314 0
M  V30 3415 C 313.341 -0.223923 5.34231 0
M  V30 3416 C 314.641 1.90871 4.86174 0
M  V30 3417 H 316.335 1.34822 2.67326 0
M  V30 3418 H 313.881 0.649728 1.28509 0
M  V30 3419 H 315.834 -0.570882 4.17515 0
M  V30 3420 H 314.558 -1.12877 3.06474 0
M  V30 3421 H 313.217 0.949929 3.54079 0
M  V30 3422 H 312.865 -1.11678 4.90446 0
M  V30 3423 H 312.565 0.35299 5.86539 0
M  V30 3424 H 314.089 -0.554214 6.0808 0
M  V30 3425 H 315.503 1.63997 5.49343 0
M  V30 3426 H 313.9 2.43112 5.4865 0
M  V30 3427 H 314.97 2.61304 4.08471 0
M  V30 3428 N 316.313 -1.40141 0.720998 0
M  V30 3429 C 317.541 -2.05096 0.272656 0
M  V30 3430 C 317.956 -1.54334 -1.0875 0
M  V30 3431 O 317.313 -0.702211 -1.6845 0
M  V30 3432 C 317.364 -3.60636 0.249835 0
M  V30 3433 O 317.085 -4.09526 1.55629 0
M  V30 3434 C 318.586 -4.42772 -0.216396 0
M  V30 3435 H 315.806 -0.659897 0.121558 0
M  V30 3436 H 318.35 -1.79449 0.980723 0
M  V30 3437 H 316.505 -3.85232 -0.409237 0
M  V30 3438 H 316.919 -5.03758 1.4604 0
M  V30 3439 H 318.393 -5.51702 -0.181212 0
M  V30 3440 H 318.87 -4.20756 -1.25941 0
M  V30 3441 H 319.476 -4.23294 0.412596 0
M  V30 3442 N 317.792 -0.46758 -1.50504 0
M  V30 3443 C 319.208 -0.121533 -1.59137 0
M  V30 3444 C 319.408 1.3717 -1.47603 0
M  V30 3445 O 318.464 2.14464 -1.33272 0
M  V30 3446 C 319.777 -0.6686 -2.93173 0
M  V30 3447 C 321.325 -0.631716 -3.06559 0
M  V30 3448 C 321.8 -1.15627 -4.43164 0
M  V30 3449 N 323.291 -1.11553 -4.49567 0
M  V30 3450 C 324.026 -1.49195 -5.5365 0
M  V30 3451 N 323.522 -1.94269 -6.65005 0
M  V30 3452 N 325.315 -1.4082 -5.44175 0
M  V30 3453 H 317.466 -1.4388 -1.56245 0
M  V30 3454 H 319.729 -0.594784 -0.738198 0
M  V30 3455 H 319.435 -1.71453 -3.07078 0
M  V30 3456 H 319.309 -0.11021 -3.77039 0
M  V30 3457 H 321.696 0.405297 -2.92304 0
M  V30 3458 H 321.777 -1.22687 -2.24458 0
M  V30 3459 H 321.421 -2.1919 -4.58168 0
M  V30 3460 H 321.351 -0.537365 -5.23851 0
M  V30 3461 H 323.842 -0.784895 -3.69659 0
M  V30 3462 H 324.155 -2.21148 -7.40482 0
M  V30 3463 H 322.5 -1.98219 -6.66134 0
M  V30 3464 H 325.691 -1.0545 -4.56068 0
M  V30 3465 H 325.864 -1.70481 -6.25172 0
M  V30 3466 N 319.27 1.56325 -0.20005 0
M  V30 3467 C 320.217 2.1932 0.718833 0
M  V30 3468 C 321.187 1.14198 1.20615 0
M  V30 3469 O 322.372 1.42469 1.26914 0
M  V30 3470 C 319.512 2.86041 1.93066 0
M  V30 3471 C 318.625 4.05702 1.48425 0
M  V30 3472 C 317.76 4.60266 2.65196 0
M  V30 3473 C 316.799 5.72273 2.17185 0
M  V30 3474 N 315.936 6.21221 3.27152 0
M  V30 3475 H 320.776 2.97486 0.17489 0
M  V30 3476 H 318.313 1.46911 0.0745794 0
M  V30 3477 H 320.271 3.22897 2.64184 0
M  V30 3478 H 318.901 2.1043 2.44783 0
M  V30 3479 H 317.953 3.74475 0.668755 0
M  V30 3480 H 319.265 4.86699 1.09204 0
M  V30 3481 H 318.419 4.99453 3.4443 0
M  V30 3482 H 317.158 3.78386 3.07693 0
M  V30 3483 H 316.163 5.3261 1.36407 0
M  V30 3484 H 317.388 6.55974 1.75713 0
M  V30 3485 H 315.334 5.42263 3.69171 0
M  V30 3486 H 315.251 6.97284 2.92116 0
M  V30 3487 H 316.519 6.65063 4.06585 0
M  V30 3488 N 320.748 -0.0735177 1.57428 0
M  V30 3489 C 321.978 -0.78483 1.91112 0
M  V30 3490 C 322.386 -1.71729 0.7941 0
M  V30 3491 O 321.729 -1.82105 -0.241542 0
M  V30 3492 C 321.791 -1.63346 3.20247 0
M  V30 3493 C 321.455 -0.870557 4.48632 0
M  V30 3494 C 322.452 -0.19058 5.19551 0
M  V30 3495 C 320.137 -0.838242 4.95256 0
M  V30 3496 C 322.131 0.511503 6.35344 0
M  V30 3497 C 319.818 -0.132386 6.10957 0
M  V30 3498 C 320.816 0.541288 6.80852 0
M  V30 3499 O 320.504 1.23578 7.94345 0
M  V30 3500 H 320.236 -0.228408 0.636244 0
M  V30 3501 H 322.79 -0.0486039 2.05342 0
M  V30 3502 H 321.02 -2.41245 3.02222 0
M  V30 3503 H 322.709 -2.22329 3.39595 0
M  V30 3504 H 323.475 -0.206864 4.84559 0
M  V30 3505 H 319.354 -1.35206 4.40727 0
M  V30 3506 H 322.898 1.03789 6.89836 0
M  V30 3507 H 318.795 -0.114023 6.45399 0
M  V30 3508 H 319.563 1.14487 8.10454 0
M  V30 3509 N 322.226 -1.5378 -0.344866 0
M  V30 3510 C 323.158 -1.77988 -1.44406 0
M  V30 3511 C 324.171 -0.661138 -1.48771 0
M  V30 3512 O 325.36 -0.937842 -1.51877 0
M  V30 3513 C 322.46 -1.86345 -2.8307 0
M  V30 3514 C 321.633 -3.16256 -3.0216 0
M  V30 3515 C 320.692 -3.15588 -4.21059 0
M  V30 3516 O 319.718 -3.89314 -4.15239 0
M  V30 3517 N 320.92 -2.37864 -5.29529 0
M  V30 3518 H 323.685 -2.72839 -1.24012 0
M  V30 3519 H 321.246 -1.52814 -0.534737 0
M  V30 3520 H 323.238 -1.83351 -3.60783 0
M  V30 3521 H 321.808 -0.986858 -2.96614 0
M  V30 3522 H 321.028 -3.32385 -2.11929 0
M  V30 3523 H 322.316 -4.0207 -3.11797 0
M  V30 3524 H 321.714 -1.77514 -5.37127 0
M  V30 3525 H 320.271 -2.40668 -6.05741 0
M  V30 3526 N 323.704 0.605807 -1.45491 0
M  V30 3527 C 324.634 1.72709 -1.57143 0
M  V30 3528 C 325.615 1.6476 -0.422884 0
M  V30 3529 O 326.8 1.83132 -0.646247 0
M  V30 3530 C 323.93 3.11316 -1.53948 0
M  V30 3531 C 322.884 3.34077 -2.67537 0
M  V30 3532 C 322.21 4.72975 -2.49397 0
M  V30 3533 C 323.51 3.24158 -4.09535 0
M  V30 3534 H 325.204 1.63214 -2.51001 0
M  V30 3535 H 322.75 0.78379 -1.208 0
M  V30 3536 H 324.703 3.89557 -1.60696 0
M  V30 3537 H 323.427 3.21655 -0.566205 0
M  V30 3538 H 322.086 2.58227 -2.6022 0
M  V30 3539 H 321.734 4.8005 -1.50205 0
M  V30 3540 H 321.434 4.8916 -3.25571 0
M  V30 3541 H 322.958 5.53414 -2.58002 0
M  V30 3542 H 324.372 3.92271 -4.18086 0
M  V30 3543 H 322.769 3.51872 -4.86113 0
M  V30 3544 H 323.839 2.2157 -4.31317 0
M  V30 3545 N 325.182 1.32811 0.848464 0
M  V30 3546 C 326.428 1.23907 1.60546 0
M  V30 3547 C 326.761 -0.197161 1.93197 0
M  V30 3548 O 326.036 -1.13596 1.5788 0
M  V30 3549 C 326.319 2.10489 2.92175 0
M  V30 3550 C 326.172 3.62522 2.66266 0
M  V30 3551 C 327.491 1.97075 3.93509 0
M  V30 3552 H 324.61 0.451459 0.58254 0
M  V30 3553 H 327.252 1.62818 0.979296 0
M  V30 3554 H 325.402 1.77434 3.45614 0
M  V30 3555 H 327.074 4.05821 2.19334 0
M  V30 3556 H 325.317 3.84879 2.00126 0
M  V30 3557 H 325.988 4.18437 3.6002 0
M  V30 3558 H 328.464 2.26045 3.49346 0
M  V30 3559 H 327.34 2.59923 4.83457 0
M  V30 3560 H 327.601 0.940186 4.31987 0
M  V30 3561 N 326.66 -1.06551 1.16123 0
M  V30 3562 C 328.076 -1.3142 0.905585 0
M  V30 3563 C 328.276 -1.96571 -0.442964 0
M  V30 3564 O 327.332 -2.23068 -1.18308 0
M  V30 3565 C 328.645 -2.19741 2.05267 0
M  V30 3566 C 330.193 -2.33165 2.08813 0
M  V30 3567 C 330.668 -3.24838 3.22868 0
M  V30 3568 N 332.159 -3.32421 3.22568 0
M  V30 3569 C 332.894 -4.0344 4.0746 0
M  V30 3570 N 332.39 -4.77003 5.02434 0
M  V30 3571 N 334.183 -3.99464 3.95456 0
M  V30 3572 H 326.334 -0.626548 2.02949 0
M  V30 3573 H 328.597 -0.338777 0.8854 0
M  V30 3574 H 328.303 -1.79142 3.02657 0
M  V30 3575 H 328.177 -3.20313 1.99198 0
M  V30 3576 H 330.564 -2.73013 1.12018 0
M  V30 3577 H 330.645 -1.3227 2.18948 0
M  V30 3578 H 330.289 -2.85708 4.19921 0
M  V30 3579 H 330.219 -4.25707 3.0997 0
M  V30 3580 H 332.71 -2.79994 2.53795 0
M  V30 3581 H 333.023 -5.28712 5.63634 0
M  V30 3582 H 331.368 -4.75992 5.06415 0
M  V30 3583 H 334.559 -3.4111 3.20564 0
M  V30 3584 H 334.732 -4.54544 4.61837 0
M  V30 3585 N 328.138 -0.959301 -1.25041 0
M  V30 3586 C 329.101 -0.487677 -2.23952 0
M  V30 3587 C 330.101 0.41119 -1.55454 0
M  V30 3588 O 331.291 0.207825 -1.72956 0
M  V30 3589 C 328.423 0.294807 -3.39623 0
M  V30 3590 H 329.616 -1.36198 -2.67189 0
M  V30 3591 H 327.169 -0.743042 -1.37508 0
M  V30 3592 H 327.904 1.18658 -3.01813 0
M  V30 3593 H 327.689 -0.35012 -3.90534 0
M  V30 3594 H 329.179 0.614089 -4.1306 0
M  V30 3595 N 329.616 1.39756 -0.72842 0
M  V30 3596 C 331.032 1.5442 -0.403308 0
M  V30 3597 C 331.232 1.69694 1.08656 0
M  V30 3598 O 330.288 1.69373 1.87267 0
M  V30 3599 C 331.601 2.76555 -1.18058 0
M  V30 3600 C 333.149 2.90384 -1.16815 0
M  V30 3601 C 333.624 4.15449 -1.92785 0
M  V30 3602 N 335.115 4.22475 -1.89918 0
M  V30 3603 C 335.85 5.1818 -2.45514 0
M  V30 3604 N 335.346 6.19714 -3.09719 0
M  V30 3605 N 337.139 5.1035 -2.35584 0
M  V30 3606 H 329.29 1.28089 -1.69431 0
M  V30 3607 H 331.553 0.620327 -0.716867 0
M  V30 3608 H 331.259 2.7159 -2.23455 0
M  V30 3609 H 331.133 3.69033 -0.780662 0
M  V30 3610 H 333.52 2.94846 -0.12234 0
M  V30 3611 H 333.601 1.98988 -1.6074 0
M  V30 3612 H 333.245 4.11749 -2.97364 0
M  V30 3613 H 333.175 5.05877 -1.46272 0
M  V30 3614 H 335.666 3.49743 -1.43138 0
M  V30 3615 H 335.979 6.8919 -3.49625 0
M  V30 3616 H 334.324 6.20121 -3.13807 0
M  V30 3617 H 337.515 4.2996 -1.85072 0
M  V30 3618 H 337.688 5.84761 -2.79211 0
M  V30 3619 N 331.094 0.475555 1.50254 0
M  V30 3620 C 332.044 -0.335025 2.25525 0
M  V30 3621 C 333.028 -0.957625 1.29299 0
M  V30 3622 O 334.22 -0.869436 1.54175 0
M  V30 3623 C 331.349 -1.41385 3.12834 0
M  V30 3624 C 330.435 -0.798762 4.1651 0
M  V30 3625 N 330.826 0.0835815 5.05731 0
M  V30 3626 C 329.124 -1.06221 4.33166 0
M  V30 3627 C 329.825 0.433113 5.80085 0
M  V30 3628 N 328.801 -0.1928 5.43258 0
M  V30 3629 H 332.603 0.344612 2.91873 0
M  V30 3630 H 330.117 0.289986 1.5979 0
M  V30 3631 H 332.114 -2.00777 3.65368 0
M  V30 3632 H 330.774 -2.09543 2.48036 0
M  V30 3633 H 331.785 0.452715 5.15918 0
M  V30 3634 H 328.462 -1.73844 3.79585 0
M  V30 3635 H 329.852 1.15346 6.61925 0
M  V30 3636 O 332.611 -1.57666 0.349795 0
M  V30 3637 H 333.302 -1.92619 -0.204318 0
M  V30 END ATOM
M  V30 BEGIN BOND
M  V30 END BOND
M  V30 END CTAB
M  END
$$$$
