446605
  -OEChem-10051719413D

 67 70  0     1  0  0  0  0  0999 V2000
   -0.7883    2.7677   -0.4643 S   0  0  0  0  0  0  0  0  0  0  0  0
    6.9282   -1.4100    1.7667 O   0  0  0  0  0  0  0  0  0  0  0  0
    2.2239    2.1481   -2.2443 O   0  0  0  0  0  0  0  0  0  0  0  0
    7.6136   -0.7470   -0.3374 O   0  0  0  0  0  0  0  0  0  0  0  0
   -1.3830    3.7797   -1.3163 O   0  0  0  0  0  0  0  0  0  0  0  0
    0.1934    3.1408    0.5360 O   0  0  0  0  0  0  0  0  0  0  0  0
    3.2389    1.3331   -0.3200 N   0  0  0  0  0  0  0  0  0  0  0  0
   -0.1490    1.5221   -1.4328 N   0  0  0  0  0  0  0  0  0  0  0  0
   -4.4799   -3.6408   -0.8687 N   0  0  0  0  0  0  0  0  0  0  0  0
   -3.9686   -1.9414   -2.3893 N   0  0  0  0  0  0  0  0  0  0  0  0
    5.7327    0.3103    0.7284 C   0  0  0  0  0  0  0  0  0  0  0  0
    4.4136   -0.4425    0.9222 C   0  0  0  0  0  0  0  0  0  0  0  0
    5.6877    1.1716   -0.5367 C   0  0  0  0  0  0  0  0  0  0  0  0
    3.2231    0.5140    0.8983 C   0  0  0  0  0  0  0  0  0  0  0  0
    4.4720    2.0944   -0.5307 C   0  0  0  0  0  0  0  0  0  0  0  0
    2.1859    1.4523   -1.2263 C   0  0  0  0  0  0  0  0  0  0  0  0
    0.9361    0.6678   -0.9168 C   0  0  2  0  0  0  0  0  0  0  0  0
    6.8685   -0.6605    0.6292 C   0  0  0  0  0  0  0  0  0  0  0  0
    0.9618   -0.6740   -1.6328 C   0  0  0  0  0  0  0  0  0  0  0  0
   -0.0001   -1.6646   -1.0236 C   0  0  0  0  0  0  0  0  0  0  0  0
   -2.0954    1.9317    0.3830 C   0  0  0  0  0  0  0  0  0  0  0  0
   -1.3125   -1.7401   -1.4897 C   0  0  0  0  0  0  0  0  0  0  0  0
    0.4241   -2.5055    0.0053 C   0  0  0  0  0  0  0  0  0  0  0  0
   -3.3760    1.8993   -0.1696 C   0  0  0  0  0  0  0  0  0  0  0  0
    7.9747   -2.3854    1.8061 C   0  0  0  0  0  0  0  0  0  0  0  0
   -1.8463    1.3067    1.6012 C   0  0  0  0  0  0  0  0  0  0  0  0
   -2.2009   -2.6565   -0.9268 C   0  0  0  0  0  0  0  0  0  0  0  0
   -4.4252    1.2400    0.4913 C   0  0  0  0  0  0  0  0  0  0  0  0
   -0.4641   -3.4218    0.5682 C   0  0  0  0  0  0  0  0  0  0  0  0
   -4.1719    0.6042    1.7300 C   0  0  0  0  0  0  0  0  0  0  0  0
   -1.7766   -3.4973    0.1021 C   0  0  0  0  0  0  0  0  0  0  0  0
   -2.8768    0.6467    2.2715 C   0  0  0  0  0  0  0  0  0  0  0  0
   -5.7202    1.1971   -0.0505 C   0  0  0  0  0  0  0  0  0  0  0  0
   -3.5696   -2.7357   -1.4116 C   0  0  0  0  0  0  0  0  0  0  0  0
   -5.2213   -0.0551    2.3909 C   0  0  0  0  0  0  0  0  0  0  0  0
   -6.7509    0.5377    0.6198 C   0  0  0  0  0  0  0  0  0  0  0  0
   -6.5019   -0.0870    1.8382 C   0  0  0  0  0  0  0  0  0  0  0  0
    5.9235    0.9641    1.5894 H   0  0  0  0  0  0  0  0  0  0  0  0
    4.4134   -0.9889    1.8728 H   0  0  0  0  0  0  0  0  0  0  0  0
    4.2943   -1.1925    0.1288 H   0  0  0  0  0  0  0  0  0  0  0  0
    6.6023    1.7703   -0.6257 H   0  0  0  0  0  0  0  0  0  0  0  0
    5.6392    0.5312   -1.4279 H   0  0  0  0  0  0  0  0  0  0  0  0
    3.2665    1.2016    1.7512 H   0  0  0  0  0  0  0  0  0  0  0  0
    2.3218   -0.0835    1.0105 H   0  0  0  0  0  0  0  0  0  0  0  0
    4.5484    2.8247    0.2836 H   0  0  0  0  0  0  0  0  0  0  0  0
    4.4290    2.6553   -1.4695 H   0  0  0  0  0  0  0  0  0  0  0  0
    0.7612    0.5525    0.1524 H   0  0  0  0  0  0  0  0  0  0  0  0
    0.7428   -0.5602   -2.7032 H   0  0  0  0  0  0  0  0  0  0  0  0
    1.9702   -1.1083   -1.5939 H   0  0  0  0  0  0  0  0  0  0  0  0
   -0.2362    1.5942   -2.4542 H   0  0  0  0  0  0  0  0  0  0  0  0
   -1.6234   -1.0750   -2.2915 H   0  0  0  0  0  0  0  0  0  0  0  0
    1.4438   -2.4566    0.3776 H   0  0  0  0  0  0  0  0  0  0  0  0
   -3.5678    2.3817   -1.1259 H   0  0  0  0  0  0  0  0  0  0  0  0
    7.8472   -3.1102    0.9964 H   0  0  0  0  0  0  0  0  0  0  0  0
    8.9510   -1.8963    1.7375 H   0  0  0  0  0  0  0  0  0  0  0  0
    7.9124   -2.9124    2.7620 H   0  0  0  0  0  0  0  0  0  0  0  0
   -0.8559    1.3137    2.0473 H   0  0  0  0  0  0  0  0  0  0  0  0
   -0.1331   -4.0759    1.3697 H   0  0  0  0  0  0  0  0  0  0  0  0
   -2.4250   -4.2265    0.5750 H   0  0  0  0  0  0  0  0  0  0  0  0
   -2.6588    0.1630    3.2214 H   0  0  0  0  0  0  0  0  0  0  0  0
   -5.9378    1.6780   -1.0020 H   0  0  0  0  0  0  0  0  0  0  0  0
   -5.0495   -0.5508    3.3440 H   0  0  0  0  0  0  0  0  0  0  0  0
   -7.7479    0.5117    0.1898 H   0  0  0  0  0  0  0  0  0  0  0  0
   -7.3046   -0.6007    2.3592 H   0  0  0  0  0  0  0  0  0  0  0  0
   -5.4308   -3.6812   -1.2210 H   0  0  0  0  0  0  0  0  0  0  0  0
   -4.2585   -4.2834   -0.1186 H   0  0  0  0  0  0  0  0  0  0  0  0
   -4.9541   -2.1460   -2.5886 H   0  0  0  0  0  0  0  0  0  0  0  0
  1  5  2  0  0  0  0
  1  6  2  0  0  0  0
  1  8  1  0  0  0  0
  1 21  1  0  0  0  0
  2 18  1  0  0  0  0
  2 25  1  0  0  0  0
  3 16  2  0  0  0  0
  4 18  2  0  0  0  0
  7 14  1  0  0  0  0
  7 15  1  0  0  0  0
  7 16  1  0  0  0  0
  8 17  1  0  0  0  0
  8 50  1  0  0  0  0
  9 34  1  0  0  0  0
  9 65  1  0  0  0  0
  9 66  1  0  0  0  0
 10 34  2  0  0  0  0
 10 67  1  0  0  0  0
 11 12  1  0  0  0  0
 11 13  1  0  0  0  0
 11 18  1  0  0  0  0
 11 38  1  0  0  0  0
 12 14  1  0  0  0  0
 12 39  1  0  0  0  0
 12 40  1  0  0  0  0
 13 15  1  0  0  0  0
 13 41  1  0  0  0  0
 13 42  1  0  0  0  0
 14 43  1  0  0  0  0
 14 44  1  0  0  0  0
 15 45  1  0  0  0  0
 15 46  1  0  0  0  0
 16 17  1  0  0  0  0
 17 19  1  0  0  0  0
 17 47  1  0  0  0  0
 19 20  1  0  0  0  0
 19 48  1  0  0  0  0
 19 49  1  0  0  0  0
 20 22  2  0  0  0  0
 20 23  1  0  0  0  0
 21 24  2  0  0  0  0
 21 26  1  0  0  0  0
 22 27  1  0  0  0  0
 22 51  1  0  0  0  0
 23 29  2  0  0  0  0
 23 52  1  0  0  0  0
 24 28  1  0  0  0  0
 24 53  1  0  0  0  0
 25 54  1  0  0  0  0
 25 55  1  0  0  0  0
 25 56  1  0  0  0  0
 26 32  2  0  0  0  0
 26 57  1  0  0  0  0
 27 31  2  0  0  0  0
 27 34  1  0  0  0  0
 28 30  1  0  0  0  0
 28 33  2  0  0  0  0
 29 31  1  0  0  0  0
 29 58  1  0  0  0  0
 30 32  1  0  0  0  0
 30 35  2  0  0  0  0
 31 59  1  0  0  0  0
 32 60  1  0  0  0  0
 33 36  1  0  0  0  0
 33 61  1  0  0  0  0
 35 37  1  0  0  0  0
 35 62  1  0  0  0  0
 36 37  2  0  0  0  0
 36 63  1  0  0  0  0
 37 64  1  0  0  0  0
M  END
> <DATABASE_ID>
DB01745

> <DATABASE_NAME>
drugbank

> <ORIGINAL_SOURCE>
PUBCHEM

> <ORIGINAL_SOURCE_URL>
https://pubchem.ncbi.nlm.nih.gov/rest/pug/compound/inchikey/JJLGQWCKMHPBEB-DEOSSOPVSA-N/SDF?record_type=3d

> <SMILES>
COC(=O)C1CCN(CC1)C(=O)[C@H](CC1=CC=CC(=C1)C(N)=N)NS(=O)(=O)C1=CC=C2C=CC=CC2=C1

> <INCHI_IDENTIFIER>
InChI=1S/C27H30N4O5S/c1-36-27(33)20-11-13-31(14-12-20)26(32)24(16-18-5-4-8-22(15-18)25(28)29)30-37(34,35)23-10-9-19-6-2-3-7-21(19)17-23/h2-10,15,17,20,24,30H,11-14,16H2,1H3,(H3,28,29)/t24-/m0/s1

> <INCHI_KEY>
JJLGQWCKMHPBEB-DEOSSOPVSA-N

> <FORMULA>
C27H30N4O5S

> <MOLECULAR_WEIGHT>
522.616

> <EXACT_MASS>
522.19369078

> <JCHEM_ACCEPTOR_COUNT>
6

> <JCHEM_AVERAGE_POLARIZABILITY>
54.561028189284585

> <JCHEM_BIOAVAILABILITY>
1

> <JCHEM_DONOR_COUNT>
3

> <JCHEM_FORMAL_CHARGE>
0

> <JCHEM_GHOSE_FILTER>
0

> <JCHEM_IUPAC>
methyl 1-[(2S)-3-(3-carbamimidoylphenyl)-2-(naphthalene-2-sulfonamido)propanoyl]piperidine-4-carboxylate

> <ALOGPS_LOGP>
2.25

> <JCHEM_LOGP>
1.8994950697354651

> <ALOGPS_LOGS>
-4.73

> <JCHEM_MDDR_LIKE_RULE>
1

> <JCHEM_NUMBER_OF_RINGS>
4

> <JCHEM_PHYSIOLOGICAL_CHARGE>
1

> <JCHEM_PKA>
15.553040581713113

> <JCHEM_PKA_STRONGEST_ACIDIC>
10.019778340723779

> <JCHEM_PKA_STRONGEST_BASIC>
11.471687593650726

> <JCHEM_POLAR_SURFACE_AREA>
142.64999999999998

> <JCHEM_REFRACTIVITY>
151.19939999999994

> <JCHEM_ROTATABLE_BOND_COUNT>
8

> <JCHEM_RULE_OF_FIVE>
0

> <ALOGPS_SOLUBILITY>
9.70e-03 g/l

> <JCHEM_TRADITIONAL_IUPAC>
methyl 1-[(2S)-3-(3-carbamimidoylphenyl)-2-(naphthalene-2-sulfonamido)propanoyl]piperidine-4-carboxylate

> <JCHEM_VEBER_RULE>
0

> <DRUGBANK_ID>
DB01745

> <SECONDARY_ACCESSION_NUMBERS>
EXPT01410

> <DRUG_GROUPS>
experimental

> <GENERIC_NAME>
N-Alpha-(2-Naphthylsulfonyl)-N(3-Amidino-L-Phenylalaninyl)Isopipecolinic Acid Methyl Ester

$$$$