drugbank_target|Q969I6 Sodium-coupled neutral amino acid transporter 4 (DB00174)
 OpenBabel12092121233D

  0  0  0     0  0            999 V3000
M  V30 BEGIN CTAB
M  V30 COUNTS 8642 8749 0 0 0
M  V30 BEGIN ATOM
M  V30 1 H -0.908 1.98254 -0.117106 0
M  V30 2 N 0 1.576 0 0
M  V30 3 C 0.933 2.03868 1.02534 0
M  V30 4 C 1.911 0.928543 1.3348 0
M  V30 5 O 3.095 1.19667 1.45644 0
M  V30 6 C 0.222 2.43627 2.35294 0
M  V30 7 C -0.732 3.65373 2.2001 0
M  V30 8 S 0.101 5.13292 1.52614 0
M  V30 9 C 1.257 5.56322 2.86805 0
M  V30 10 H 1.49 2.90518 0.631377 0
M  V30 11 H -0.977 1.52953 0.210867 0
M  V30 12 H 0.981 2.67203 3.11629 0
M  V30 13 H -0.358 1.57376 2.7183 0
M  V30 14 H -1.165 3.90944 3.18086 0
M  V30 15 H -1.563 3.418 1.51819 0
M  V30 16 H 0.729 5.58782 3.83104 0
M  V30 17 H 1.672 6.56266 2.65933 0
M  V30 18 H 2.08 4.83886 2.90714 0
M  V30 19 N 1.4781 -0.272755 1.55222 0
M  V30 20 C 2.7551 -1.02562 1.66555 0
M  V30 21 C 3.1351 -2.04282 0.532189 0
M  V30 22 O 2.4831 -2.23662 -0.467717 0
M  V30 23 C 2.6931 -1.6822 3.05782 0
M  V30 24 C 4.0411 -2.19373 3.63539 0
M  V30 25 O 5.0651 -1.78206 3.08417 0
M  V30 26 O 3.9241 -2.94883 4.60115 0
M  V30 27 H 1.0181 -0.475755 0.676451 0
M  V30 28 H 3.5641 -0.268593 1.67561 0
M  V30 29 H 2.3361 -0.945112 3.79715 0
M  V30 30 H 1.9591 -2.50609 3.08676 0
M  V30 31 N 2.9562 -1.48159 -0.537278 0
M  V30 32 C 4.3672 -1.49429 -1.11928 0
M  V30 33 C 4.7182 -0.26 -1.9447 0
M  V30 34 O 3.8432 0.633489 -2.0692 0
M  V30 35 C 4.4382 -2.70758 -2.03656 0
M  V30 36 C 2.9972 -2.74923 -2.57088 0
M  V30 37 C 2.1442 -2.42835 -1.3389 0
M  V30 38 H 5.0952 -1.55381 -0.322886 0
M  V30 39 H 5.1162 -2.48861 -2.87834 0
M  V30 40 H 4.6282 -3.60575 -1.43553 0
M  V30 41 H 2.7292 -1.89296 -3.20933 0
M  V30 42 H 2.8422 -3.76157 -2.9672 0
M  V30 43 H 1.2062 -1.93836 -1.65226 0
M  V30 44 H 1.9892 -3.34884 -0.755504 0
M  V30 45 N 4.4343 0.785586 -1.36625 0
M  V30 46 C 5.3673 1.90509 -1.25625 0
M  V30 47 C 6.3453 1.62 -0.139607 0
M  V30 48 O 7.5293 1.8591 -0.31141 0
M  V30 49 C 4.6563 3.25419 -0.939158 0
M  V30 50 C 3.7023 3.72856 -2.07077 0
M  V30 51 S 4.5353 3.88162 -3.68904 0
M  V30 52 C 5.6913 5.25942 -3.39317 0
M  V30 53 H 5.9243 1.99549 -2.20381 0
M  V30 54 H 3.4573 0.945226 -1.22085 0
M  V30 55 H 5.4153 4.03346 -0.763029 0
M  V30 56 H 4.0763 3.14099 -0.00931402 0
M  V30 57 H 3.2693 4.70624 -1.80357 0
M  V30 58 H 2.8713 3.01989 -2.20632 0
M  V30 59 H 5.1633 6.10651 -2.93447 0
M  V30 60 H 6.1063 5.57668 -4.36363 0
M  V30 61 H 6.5143 4.93224 -2.74573 0
M  V30 62 N 5.9124 1.20967 1.01018 0
M  V30 63 C 6.8224 0.980157 2.13143 0
M  V30 64 C 7.8384 -0.0660665 1.73875 0
M  V30 65 O 9.0144 0.122821 2.01025 0
M  V30 66 C 6.0794 0.54216 3.42435 0
M  V30 67 C 5.1404 1.65999 3.95908 0
M  V30 68 C 4.3734 1.2428 5.19028 0
M  V30 69 O 4.5964 0.114196 5.70286 0
M  V30 70 O 3.5304 2.05271 5.65816 0
M  V30 71 H 7.3564 1.91913 2.35379 0
M  V30 72 H 4.9414 0.994099 1.11526 0
M  V30 73 H 6.8234 0.30744 4.20277 0
M  V30 74 H 5.4984 -0.36815 3.216 0
M  V30 75 H 4.4054 1.94906 3.19316 0
M  V30 76 H 5.7384 2.54753 4.21143 0
M  V30 77 N 7.3905 -1.2043 1.01659 0
M  V30 78 C 8.3205 -2.25466 0.607226 0
M  V30 79 C 9.3015 -1.65853 -0.377716 0
M  V30 80 O 10.4865 -1.92409 -0.263149 0
M  V30 81 C 7.6165 -3.47256 -0.0552949 0
M  V30 82 C 6.5705 -4.19462 0.850632 0
M  V30 83 C 5.8965 -5.34673 0.0538859 0
M  V30 84 C 7.1965 -4.75603 2.15868 0
M  V30 85 H 8.8905 -2.59962 1.48526 0
M  V30 86 H 6.4365 -1.2496 0.715605 0
M  V30 87 H 8.3895 -4.19917 -0.353233 0
M  V30 88 H 7.1135 -3.11924 -0.968045 0
M  V30 89 H 5.7725 -3.48667 1.13257 0
M  V30 90 H 5.4205 -4.95585 -0.860514 0
M  V30 91 H 5.1205 -5.83913 0.657192 0
M  V30 92 H 6.6445 -6.10138 -0.237598 0
M  V30 93 H 8.0585 -5.40083 1.92311 0
M  V30 94 H 6.4555 -5.3528 2.71284 0
M  V30 95 H 7.5255 -3.94346 2.82169 0
M  V30 96 N 8.8686 -0.792821 -1.36206 0
M  V30 97 C 10.2846 -0.474903 -1.52371 0
M  V30 98 C 10.4846 1.00622 -1.74578 0
M  V30 99 O 9.5406 1.79162 -1.77924 0
M  V30 100 C 10.8536 -1.3083 -2.70747 0
M  V30 101 C 12.4016 -1.30234 -2.84619 0
M  V30 102 C 12.8766 -2.11956 -4.06004 0
M  V30 103 N 14.3676 -2.09419 -4.13156 0
M  V30 104 C 15.1026 -2.69419 -5.06163 0
M  V30 105 N 14.5986 -3.3829 -6.04592 0
M  V30 106 N 16.3916 -2.59134 -4.98804 0
M  V30 107 H 8.5426 -1.75222 -1.20046 0
M  V30 108 H 10.8056 -0.745024 -0.586211 0
M  V30 109 H 10.5116 -2.35881 -2.6087 0
M  V30 110 H 10.3856 -0.95196 -3.6499 0
M  V30 111 H 12.7726 -0.259748 -2.93955 0
M  V30 112 H 12.8536 -1.69847 -1.91274 0
M  V30 113 H 12.4976 -3.16248 -3.97429 0
M  V30 114 H 12.4276 -1.69711 -4.98503 0
M  V30 115 H 14.9186 -1.59297 -3.42685 0
M  V30 116 H 15.2316 -3.81394 -6.7213 0
M  V30 117 H 13.5766 -3.42393 -6.04807 0
M  V30 118 H 16.7676 -2.04927 -4.20859 0
M  V30 119 H 16.9406 -3.06185 -5.711 0
M  V30 120 N 10.3467 1.47872 -0.545128 0
M  V30 121 C 11.2947 2.31533 0.222512 0
M  V30 122 C 12.2887 1.42177 0.920985 0
M  V30 123 O 13.4947 1.59005 0.843645 0
M  V30 124 H 9.8697 0.746519 0.0906278 0
M  V30 125 H 11.8407 2.94139 -0.50246 0
M  V30 126 C 10.5897 3.2457 1.24699 0
M  V30 127 H 9.9127 3.93283 0.718944 0
M  V30 128 H 11.3527 3.85963 1.75523 0
M  V30 129 C 9.8117 2.47237 2.28856 0
M  V30 130 O 10.3417 2.20808 3.35569 0
M  V30 131 N 8.5477 2.08461 2.02466 0
M  V30 132 H 8.0947 2.30155 1.157 0
M  V30 133 H 8.0527 1.57033 2.72375 0
M  V30 134 N 11.8248 0.280983 1.55075 0
M  V30 135 C 13.0708 -0.33461 2.00021 0
M  V30 136 C 13.4038 -1.55063 1.16915 0
M  V30 137 O 12.6788 -1.93006 0.240646 0
M  V30 138 C 12.9618 -0.711007 3.53011 0
M  V30 139 C 12.8148 0.512766 4.46868 0
M  V30 140 C 14.1338 -1.54522 4.12081 0
M  V30 141 H 11.2528 -0.120147 0.727141 0
M  V30 142 H 13.8948 0.389097 1.85973 0
M  V30 143 H 12.0448 -1.32761 3.65112 0
M  V30 144 H 13.7168 1.15131 4.46702 0
M  V30 145 H 11.9598 1.14975 4.18286 0
M  V30 146 H 12.6308 0.205556 5.51617 0
M  V30 147 H 15.1068 -1.02442 4.03293 0
M  V30 148 H 13.9828 -1.77739 5.19327 0
M  V30 149 H 14.2438 -2.52813 3.62682 0
M  V30 150 N 13.3029 -1.57598 0.00835791 0
M  V30 151 C 14.2509 -2.10078 -0.998508 0
M  V30 152 C 15.2449 -1.02262 -1.35051 0
M  V30 153 O 16.4509 -1.20719 -1.33518 0
M  V30 154 H 12.8259 -0.670903 -0.339696 0
M  V30 155 H 14.7969 -2.93648 -0.530398 0
M  V30 156 C 13.5459 -2.62615 -2.27879 0
M  V30 157 H 12.8689 -3.45213 -2.01662 0
M  V30 158 H 14.3089 -3.03004 -2.96588 0
M  V30 159 C 12.7679 -1.54407 -2.99433 0
M  V30 160 O 13.2979 -0.931812 -3.90743 0
M  V30 161 N 11.5039 -1.2695 -2.61404 0
M  V30 162 H 11.0509 -1.76924 -1.87232 0
M  V30 163 H 11.0089 -0.547704 -3.09593 0
M  V30 164 N 14.781 0.264519 -1.55364 0
M  V30 165 C 16.03 0.992812 -1.75574 0
M  V30 166 C 16.343 1.87142 -0.568979 0
M  V30 167 O 17.549 2.63513 -0.653682 0
M  V30 168 C 16.005 1.81519 -3.10771 0
M  V30 169 C 15.613 0.984839 -4.37041 0
M  V30 170 C 17.357 2.53727 -3.40327 0
M  V30 171 C 15.264 1.80209 -5.63275 0
M  V30 172 H 14.194 0.374412 -0.65447 0
M  V30 173 H 16.845 0.248138 -1.81815 0
M  V30 174 H 15.227 2.60115 -2.98591 0
M  V30 175 H 16.401 0.242455 -4.60162 0
M  V30 176 H 14.716 0.37691 -4.14691 0
M  V30 177 H 17.313 3.15292 -4.3185 0
M  V30 178 H 17.656 3.24447 -2.60845 0
M  V30 179 H 18.189 1.82156 -3.53644 0
M  V30 180 H 14.928 1.13896 -6.45529 0
M  V30 181 H 14.448 2.52022 -5.44284 0
M  V30 182 H 16.127 2.37364 -6.01887 0
M  V30 183 N 16.2591 1.48442 0.529413 0
M  V30 184 C 17.1691 1.6569 1.66084 0
M  V30 185 C 18.1851 0.539432 1.65427 0
M  V30 186 O 19.3611 0.810572 1.84368 0
M  V30 187 C 16.4261 1.69315 3.02545 0
M  V30 188 C 15.4871 2.92694 3.14052 0
M  V30 189 C 14.7201 2.96137 4.44003 0
M  V30 190 O 14.9431 2.07973 5.31134 0
M  V30 191 O 13.8771 3.88312 4.59888 0
M  V30 192 H 17.7031 2.61483 1.54469 0
M  V30 193 H 15.2881 1.3185 0.702567 0
M  V30 194 H 17.1701 1.74217 3.83701 0
M  V30 195 H 15.8451 0.766966 3.14483 0
M  V30 196 H 14.7521 2.93324 2.32189 0
M  V30 197 H 16.0851 3.84699 3.0703 0
M  V30 198 N 17.7372 -0.778329 1.37039 0
M  V30 199 C 19.1482 -1.35421 1.28523 0
M  V30 200 C 19.4992 -1.96075 -0.0700901 0
M  V30 201 O 18.6242 -1.93352 -0.971801 0
M  V30 202 C 19.2192 -2.46211 2.32735 0
M  V30 203 C 17.7782 -2.99585 2.27873 0
M  V30 204 C 16.9252 -1.72748 2.16918 0
M  V30 205 H 19.8762 -0.5791 1.47757 0
M  V30 206 H 19.8972 -3.2552 1.9702 0
M  V30 207 H 19.4092 -2.02036 3.31365 0
M  V30 208 H 17.5102 -3.48152 1.32745 0
M  V30 209 H 17.6232 -3.55646 3.21018 0
M  V30 210 H 15.9872 -1.95416 1.63354 0
M  V30 211 H 16.7702 -1.30686 3.17452 0
M  V30 212 N 19.2153 -1.21501 -1.00376 0
M  V30 213 C 20.4923 -0.941745 -1.71437 0
M  V30 214 C 20.8723 0.546114 -2.03914 0
M  V30 215 O 20.2203 1.51128 -1.71384 0
M  V30 216 C 20.4303 -1.82812 -2.97289 0
M  V30 217 C 21.7783 -2.07771 -3.70292 0
M  V30 218 O 22.8023 -1.80171 -3.07273 0
M  V30 219 O 21.6613 -2.54456 -4.83647 0
M  V30 220 H 18.7553 -0.353243 -0.747762 0
M  V30 221 H 21.3013 -1.32436 -1.06108 0
M  V30 222 H 20.0733 -2.83501 -2.69709 0
M  V30 223 H 19.6963 -1.4464 -3.70358 0
M  V30 224 N 20.6934 1.19889 -1.02296 0
M  V30 225 C 21.9704 1.85148 -0.630832 0
M  V30 226 C 22.3504 1.91385 0.890782 0
M  V30 227 O 21.6984 1.42642 1.78509 0
M  V30 228 C 21.9084 3.24442 -1.28602 0
M  V30 229 C 23.2564 4.00663 -1.4055 0
M  V30 230 O 24.2804 3.33818 -1.24273 0
M  V30 231 O 23.1394 5.20387 -1.66913 0
M  V30 232 H 20.2334 0.797613 -0.218499 0
M  V30 233 H 22.7794 1.27427 -1.12074 0
M  V30 234 H 21.5514 3.14704 -2.32545 0
M  V30 235 H 21.1744 3.89802 -0.7836 0
M  V30 236 N 22.1715 0.800033 1.35784 0
M  V30 237 C 23.0815 0.207204 2.33683 0
M  V30 238 C 24.0975 -0.64631 1.61551 0
M  V30 239 O 25.2735 -0.559604 1.93469 0
M  V30 240 C 22.3385 -0.639659 3.40748 0
M  V30 241 C 21.3995 0.233585 4.28664 0
M  V30 242 C 20.6325 -0.572954 5.30616 0
M  V30 243 O 20.8555 -1.80816 5.40982 0
M  V30 244 O 19.7895 0.0327285 6.01891 0
M  V30 245 H 23.6155 1.01692 2.86169 0
M  V30 246 H 21.2005 0.561691 1.38439 0
M  V30 247 H 23.0825 -1.12223 4.06182 0
M  V30 248 H 21.7575 -1.42708 2.90544 0
M  V30 249 H 20.6645 0.763147 3.66233 0
M  V30 250 H 21.9975 0.984784 4.82248 0
M  V30 251 N 23.6496 -1.47581 0.552962 0
M  V30 252 C 24.8746 -2.07378 0.0300593 0
M  V30 253 C 25.2996 -1.40355 -1.25229 0
M  V30 254 O 24.6576 -0.477099 -1.7491 0
M  V30 255 C 24.7056 -3.60274 -0.153231 0
M  V30 256 O 23.8096 -3.94041 -1.21678 0
M  V30 257 H 23.1506 -0.662158 0.0494182 0
M  V30 258 H 25.6806 -1.89662 0.767434 0
M  V30 259 H 25.6906 -4.0633 -0.368761 0
M  V30 260 H 24.3656 -4.08455 0.783397 0
M  V30 261 H 22.9426 -3.59735 -0.982079 0
M  V30 262 N 25.1277 -0.289203 -1.54924 0
M  V30 263 C 26.3527 0.329299 -2.04769 0
M  V30 264 C 26.7777 1.4763 -1.16564 0
M  V30 265 O 26.1357 1.80527 -0.167186 0
M  V30 266 C 26.1837 0.774438 -3.52186 0
M  V30 267 O 25.2877 1.88038 -3.67036 0
M  V30 268 H 24.6287 0.0659259 -0.660719 0
M  V30 269 H 27.1587 -0.42761 -2.00082 0
M  V30 270 H 27.1687 1.06642 -3.93816 0
M  V30 271 H 25.8437 -0.0646707 -4.1585 0
M  V30 272 H 24.4207 1.58985 -3.3731 0
M  V30 273 N 26.6058 1.57591 -0.0167156 0
M  V30 274 C 27.8308 1.9598 0.67872 0
M  V30 275 C 28.2558 0.892546 1.65575 0
M  V30 276 O 27.6138 -0.147772 1.80697 0
M  V30 277 C 27.6618 3.33468 1.37227 0
M  V30 278 O 26.7658 3.28954 2.48722 0
M  V30 279 H 26.1068 0.639339 0.17928 0
M  V30 280 H 28.6368 2.04463 -0.0748802 0
M  V30 281 H 28.6468 3.69417 1.7319 0
M  V30 282 H 27.3218 4.10694 0.656007 0
M  V30 283 H 25.8988 3.04705 2.14963 0
M  V30 284 N 28.0839 -0.256276 1.55502 0
M  V30 285 C 29.3319 -0.983672 1.76545 0
M  V30 286 C 29.6529 -1.86206 0.578982 0
M  V30 287 O 28.9229 -1.91656 -0.405577 0
M  V30 288 H 27.5029 -0.366191 0.651086 0
M  V30 289 H 30.1649 -0.276479 1.92929 0
M  V30 290 H 29.2609 -1.61087 2.67315 0
M  V30 291 N 29.562 -1.4872 -0.521534 0
M  V30 292 C 30.472 -1.66569 -1.65203 0
M  V30 293 C 31.488 -0.548197 -1.65139 0
M  V30 294 O 32.664 -0.820339 -1.83936 0
M  V30 295 C 29.729 -1.70917 -3.01642 0
M  V30 296 C 28.79 -2.94356 -3.12495 0
M  V30 297 C 28.023 -2.98487 -4.42426 0
M  V30 298 O 28.246 -2.10786 -5.30024 0
M  V30 299 O 27.18 -3.90746 -4.57822 0
M  V30 300 H 31.006 -2.62298 -1.5308 0
M  V30 301 H 28.591 -1.3222 -0.695565 0
M  V30 302 H 30.473 -1.7625 -3.82771 0
M  V30 303 H 29.148 -0.783633 -3.14071 0
M  V30 304 H 28.055 -2.94552 -2.3063 0
M  V30 305 H 29.388 -3.86322 -3.04986 0
M  V30 306 N 31.0401 0.771051 -1.3745 0
M  V30 307 C 32.2651 1.56529 -1.36065 0
M  V30 308 C 32.6901 1.88029 0.0515859 0
M  V30 309 O 32.0481 1.49282 1.02882 0
M  V30 310 C 32.0961 2.85187 -2.20683 0
M  V30 311 O 31.2001 3.79593 -1.61193 0
M  V30 312 H 30.5411 0.47411 -0.464883 0
M  V30 313 H 33.0711 0.954269 -1.80983 0
M  V30 314 H 33.0811 3.34283 -2.33921 0
M  V30 315 H 31.7561 2.61588 -3.23334 0
M  V30 316 H 30.3331 3.38239 -1.56999 0
M  V30 317 N 32.5182 1.22032 0.997298 0
M  V30 318 C 33.4812 0.987909 2.06816 0
M  V30 319 C 34.4812 -0.0440084 1.6074 0
M  V30 320 O 35.6712 0.194053 1.73116 0
M  V30 321 C 32.8032 0.49132 3.37341 0
M  V30 322 H 33.9962 1.93803 2.28868 0
M  V30 323 H 31.5492 1.03838 1.16822 0
M  V30 324 H 32.2842 -0.463364 3.20973 0
M  V30 325 H 32.0692 1.23575 3.72118 0
M  V30 326 H 33.5592 0.348824 4.16141 0
M  V30 327 N 33.9963 -1.19345 1.0293 0
M  V30 328 C 35.4073 -1.70725 0.755633 0
M  V30 329 C 35.7583 -1.82326 -0.724676 0
M  V30 330 O 34.8833 -1.49471 -1.56484 0
M  V30 331 C 35.4783 -3.10084 1.36503 0
M  V30 332 C 34.0373 -3.58723 1.13994 0
M  V30 333 C 33.1843 -2.35577 1.46283 0
M  V30 334 H 36.1353 -1.0418 1.19718 0
M  V30 335 H 36.1563 -3.72787 0.762217 0
M  V30 336 H 35.6683 -3.01609 2.44241 0
M  V30 337 H 33.7693 -3.72512 0.0807901 0
M  V30 338 H 33.8823 -4.42816 1.82894 0
M  V30 339 H 32.2463 -2.38935 0.88217 0
M  V30 340 H 33.0293 -2.29731 2.55105 0
M  V30 341 N 35.4744 -0.807222 -1.35358 0
M  V30 342 C 36.7514 -0.311126 -1.9311 0
M  V30 343 C 37.1314 1.19937 -1.73719 0
M  V30 344 O 36.4794 1.99918 -1.10657 0
M  V30 345 C 36.6894 -0.723226 -3.41424 0
M  V30 346 C 38.0374 -0.713078 -4.18569 0
M  V30 347 O 39.0614 -0.664811 -3.49941 0
M  V30 348 O 37.9204 -0.772022 -5.41019 0
M  V30 349 H 35.0144 -0.081526 -0.822972 0
M  V30 350 H 37.5604 -0.890962 -1.4443 0
M  V30 351 H 36.3324 -1.76426 -3.4927 0
M  V30 352 H 35.9554 -0.118232 -3.97424 0
M  V30 353 N 36.9525 1.47285 -0.560781 0
M  V30 354 C 38.1775 2.07359 -0.0410566 0
M  V30 355 C 38.6025 1.41017 1.24483 0
M  V30 356 O 37.9605 0.486368 1.74654 0
M  V30 357 C 38.0085 3.6035 0.134123 0
M  V30 358 O 37.1125 3.94681 1.19587 0
M  V30 359 H 36.4535 0.661887 -0.0529291 0
M  V30 360 H 38.9835 1.89252 -0.777482 0
M  V30 361 H 38.9935 4.0652 0.347207 0
M  V30 362 H 37.6685 4.08034 -0.805047 0
M  V30 363 H 36.2455 3.60251 0.962987 0
M  V30 364 N 38.4306 0.297415 1.54768 0
M  V30 365 C 39.6606 -0.315165 2.04182 0
M  V30 366 C 40.0686 -1.4834 1.17439 0
M  V30 367 O 39.4116 -1.82695 0.191891 0
M  V30 368 C 39.4736 -0.837583 3.49607 0
M  V30 369 C 39.1376 0.204912 4.5654 0
M  V30 370 C 40.1346 1.03214 5.09552 0
M  V30 371 C 37.8196 0.345578 5.0111 0
M  V30 372 C 39.8136 1.986 6.05671 0
M  V30 373 C 37.5006 1.30289 5.97049 0
M  V30 374 C 38.4986 2.12159 6.49213 0
M  V30 375 O 38.1866 3.06268 7.43273 0
M  V30 376 H 37.9186 -0.0729646 0.672051 0
M  V30 377 H 40.4726 0.433907 2.00765 0
M  V30 378 H 38.7026 -1.63712 3.50336 0
M  V30 379 H 40.3916 -1.36566 3.82236 0
M  V30 380 H 41.1576 0.934312 4.75916 0
M  V30 381 H 37.0366 -0.28171 4.60138 0
M  V30 382 H 40.5806 2.62542 6.46311 0
M  V30 383 H 36.4776 1.40145 6.30103 0
M  V30 384 H 37.2456 3.01205 7.61064 0
M  V30 385 N 39.9087 -1.5758 0.0250728 0
M  V30 386 C 41.1577 -1.90811 -0.653767 0
M  V30 387 C 41.4707 -0.90273 -1.73523 0
M  V30 388 O 42.6767 -1.12614 -2.47043 0
M  V30 389 C 41.1327 -3.38804 -1.21409 0
M  V30 390 C 40.7407 -4.47692 -0.166126 0
M  V30 391 C 42.4847 -3.81108 -1.86967 0
M  V30 392 C 40.3917 -5.86779 -0.737856 0
M  V30 393 H 39.3217 -0.712063 -0.247956 0
M  V30 394 H 41.9727 -1.83281 0.0897137 0
M  V30 395 H 40.3547 -3.41252 -2.00905 0
M  V30 396 H 41.5287 -4.56797 0.606079 0
M  V30 397 H 39.8437 -4.14565 0.390466 0
M  V30 398 H 42.4407 -4.82375 -2.30692 0
M  V30 399 H 42.7837 -3.15953 -2.71071 0
M  V30 400 H 43.3167 -3.81065 -1.14167 0
M  V30 401 H 40.0557 -6.55468 0.0649577 0
M  V30 402 H 39.5757 -5.81288 -1.47864 0
M  V30 403 H 41.2547 -6.35223 -1.22884 0
M  V30 404 N 41.3868 0.248026 -1.55636 0
M  V30 405 C 42.6348 0.974295 -1.77065 0
M  V30 406 C 42.9558 1.85897 -0.588849 0
M  V30 407 O 42.2258 1.91868 0.395407 0
M  V30 408 H 40.8058 0.362733 -0.653019 0
M  V30 409 H 43.4678 0.266244 -1.93073 0
M  V30 410 H 42.5638 1.59667 -2.68166 0
M  V30 411 N 42.8649 1.48995 0.513639 0
M  V30 412 C 44.1139 1.57093 1.2651 0
M  V30 413 C 44.4269 0.257091 1.93903 0
M  V30 414 O 45.6329 0.216478 2.70636 0
M  V30 415 C 44.0889 2.77118 2.29638 0
M  V30 416 C 43.6969 4.15209 1.68241 0
M  V30 417 C 45.4409 2.94538 3.05692 0
M  V30 418 C 43.3479 5.26474 2.69406 0
M  V30 419 H 42.2779 0.584876 0.475854 0
M  V30 420 H 44.9289 1.7536 0.540487 0
M  V30 421 H 43.3109 2.52319 3.05207 0
M  V30 422 H 44.4849 4.50094 0.987505 0
M  V30 423 H 42.7999 4.03042 1.04623 0
M  V30 424 H 45.3969 3.74832 3.8132 0
M  V30 425 H 45.7399 2.04614 3.62545 0
M  V30 426 H 46.2729 3.19316 2.37238 0
M  V30 427 H 43.0119 6.18417 2.17351 0
M  V30 428 H 42.5319 4.96058 3.37175 0
M  V30 429 H 44.2109 5.55277 3.32078 0
M  V30 430 N 44.343 -0.763751 1.37857 0
M  V30 431 C 45.591 -1.51957 1.33243 0
M  V30 432 C 45.912 -1.94835 -0.0801709 0
M  V30 433 O 45.182 -1.66894 -1.02582 0
M  V30 434 H 43.762 -0.563626 0.49024 0
M  V30 435 H 46.424 -0.908504 1.7243 0
M  V30 436 H 45.52 -2.41523 1.97669 0
M  V30 437 N 45.8211 -1.22559 -0.990812 0
M  V30 438 C 46.7691 -0.994798 -2.10253 0
M  V30 439 C 47.7631 0.0627798 -1.69284 0
M  V30 440 O 48.9691 -0.0898392 -1.79776 0
M  V30 441 H 45.3441 -0.304527 -0.687581 0
M  V30 442 H 47.3151 -1.93812 -2.26891 0
M  V30 443 C 46.0641 -0.591439 -3.42633 0
M  V30 444 H 45.3871 -1.3969 -3.74602 0
M  V30 445 H 46.8271 -0.469385 -4.21394 0
M  V30 446 C 45.2861 0.699232 -3.29564 0
M  V30 447 O 45.8161 1.75112 -3.61523 0
M  V30 448 N 44.0221 0.671182 -2.82743 0
M  V30 449 H 43.5691 -0.185136 -2.56934 0
M  V30 450 H 43.5271 1.53502 -2.7438 0
M  V30 451 N 47.2992 1.18797 -1.03562 0
M  V30 452 C 48.5242 1.9314 -0.755764 0
M  V30 453 C 48.9492 1.7537 0.68022 0
M  V30 454 O 48.3072 1.06046 1.47051 0
M  V30 455 C 48.3552 3.42747 -1.12058 0
M  V30 456 O 47.4592 4.11683 -0.243124 0
M  V30 457 H 46.8002 0.602724 -0.278604 0
M  V30 458 H 49.3302 1.50678 -1.3841 0
M  V30 459 H 49.3402 3.93437 -1.08035 0
M  V30 460 H 48.0152 3.55002 -2.16672 0
M  V30 461 H 46.5922 3.71323 -0.342539 0
M  V30 462 N 48.7773 0.814389 1.34928 0
M  V30 463 C 49.6873 0.231978 2.3345 0
M  V30 464 C 50.7033 -0.629139 1.62228 0
M  V30 465 O 51.8793 -0.539052 1.94052 0
M  V30 466 C 48.9443 -0.603482 3.41407 0
M  V30 467 C 48.0053 0.279037 4.28392 0
M  V30 468 C 47.2383 -0.516643 5.31193 0
M  V30 469 O 47.4613 -1.75068 5.4287 0
M  V30 470 O 46.3953 0.0965652 6.01823 0
M  V30 471 H 50.2213 1.04721 2.85074 0
M  V30 472 H 47.8063 0.576343 1.37836 0
M  V30 473 H 49.6883 -1.07908 4.0735 0
M  V30 474 H 48.3633 -1.39618 2.92042 0
M  V30 475 H 47.2703 0.801948 3.65403 0
M  V30 476 H 48.6033 1.03588 4.81176 0
M  V30 477 N 50.2554 -1.46986 0.568584 0
M  V30 478 C 51.2024 -2.30153 -0.172707 0
M  V30 479 C 52.1724 -1.39759 -0.897586 0
M  V30 480 O 53.3574 -1.68716 -0.891044 0
M  V30 481 C 50.4974 -3.23952 -1.1895 0
M  V30 482 C 49.6104 -4.29441 -0.469517 0
M  V30 483 C 48.7454 -5.1038 -1.47259 0
M  V30 484 C 47.7844 -6.07632 -0.738225 0
M  V30 485 N 46.9214 -6.8149 -1.68868 0
M  V30 486 H 51.7614 -2.93019 0.542596 0
M  V30 487 H 49.2984 -1.44422 0.279401 0
M  V30 488 H 51.2564 -3.76767 -1.79173 0
M  V30 489 H 49.8864 -2.62926 -1.87269 0
M  V30 490 H 48.9384 -3.79594 0.247467 0
M  V30 491 H 50.2504 -4.98689 0.105241 0
M  V30 492 H 49.4044 -5.67402 -2.14803 0
M  V30 493 H 48.1434 -4.4106 -2.08128 0
M  V30 494 H 47.1484 -5.49778 -0.0489293 0
M  V30 495 H 48.3734 -6.78966 -0.135129 0
M  V30 496 H 46.3194 -6.14891 -2.28573 0
M  V30 497 H 46.2364 -7.46948 -1.16636 0
M  V30 498 H 47.5044 -7.43078 -2.3549 0
M  V30 499 N 51.7335 -0.305618 -1.54608 0
M  V30 500 C 52.6965 0.555591 -2.22364 0
M  V30 501 C 53.6965 1.05768 -1.21119 0
M  V30 502 O 54.8865 0.952972 -1.45822 0
M  V30 503 C 52.0185 1.76974 -2.91364 0
M  V30 504 H 53.2115 -0.0364572 -2.99878 0
M  V30 505 H 50.7645 -0.0565007 -1.56198 0
M  V30 506 H 51.4995 2.40151 -2.17941 0
M  V30 507 H 51.2845 1.41732 -3.65588 0
M  V30 508 H 52.7745 2.38148 -3.43038 0
M  V30 509 N 53.2116 1.57565 -0.0334293 0
M  V30 510 C 54.1746 2.09393 0.932048 0
M  V30 511 C 55.1746 1.00986 1.25134 0
M  V30 512 O 56.3646 1.27129 1.19096 0
M  V30 513 C 53.4966 2.56338 2.2473 0
M  V30 514 H 54.6896 2.95984 0.483085 0
M  V30 515 H 52.2426 1.54819 0.21468 0
M  V30 516 H 52.9776 1.7309 2.74245 0
M  V30 517 H 52.7626 3.35542 2.02865 0
M  V30 518 H 54.2526 2.96646 2.93923 0
M  V30 519 N 54.6897 -0.239769 1.55765 0
M  V30 520 C 55.6227 -1.32356 1.85895 0
M  V30 521 C 56.6007 -1.46053 0.714662 0
M  V30 522 O 57.7847 -1.62154 0.961157 0
M  V30 523 C 54.9117 -2.6962 2.04994 0
M  V30 524 C 53.9577 -2.73036 3.27648 0
M  V30 525 S 54.7907 -2.28929 4.84099 0
M  V30 526 C 55.9467 -3.68103 5.06212 0
M  V30 527 H 56.1797 -1.06601 2.77531 0
M  V30 528 H 53.7127 -0.441112 1.47965 0
M  V30 529 H 55.6707 -3.48653 2.16682 0
M  V30 530 H 54.3317 -2.92609 1.14188 0
M  V30 531 H 53.5247 -3.7386 3.38 0
M  V30 532 H 53.1267 -2.02052 3.14723 0
M  V30 533 H 55.4187 -4.63656 4.93993 0
M  V30 534 H 56.3617 -3.6268 6.08168 0
M  V30 535 H 56.7697 -3.60947 4.34025 0
M  V30 536 N 56.1678 -1.49265 -0.50573 0
M  V30 537 C 57.3928 -1.62478 -1.28902 0
M  V30 538 C 57.8178 -0.294332 -1.85783 0
M  V30 539 O 57.1758 0.737412 -1.65626 0
M  V30 540 C 57.2238 -2.69268 -2.39848 0
M  V30 541 O 56.3278 -2.28113 -3.43567 0
M  V30 542 H 55.6688 -0.54399 -0.380751 0
M  V30 543 H 58.1988 -1.95421 -0.605952 0
M  V30 544 H 58.2088 -2.91291 -2.85681 0
M  V30 545 H 56.8838 -3.65846 -1.97812 0
M  V30 546 H 55.4608 -2.16401 -3.03685 0
M  V30 547 N 57.6459 0.756429 -1.3826 0
M  V30 548 C 58.8709 1.55077 -1.37717 0
M  V30 549 C 59.2959 1.88073 0.03164 0
M  V30 550 O 58.6539 1.50364 1.01293 0
M  V30 551 C 58.7019 2.8283 -2.23695 0
M  V30 552 O 57.8059 3.77862 -1.6521 0
M  V30 553 H 57.1469 0.469152 -0.469885 0
M  V30 554 H 59.6769 0.935019 -1.81985 0
M  V30 555 H 59.6869 3.31783 -2.37453 0
M  V30 556 H 58.3619 2.58144 -3.2609 0
M  V30 557 H 56.9389 3.36555 -1.60578 0
M  V30 558 N 59.124 1.23083 0.984299 0
M  V30 559 C 60.056 0.96636 2.07832 0
M  V30 560 C 61.069 -0.0582135 1.62696 0
M  V30 561 O 62.258 0.176843 1.77622 0
M  V30 562 C 59.358 0.433397 3.36117 0
M  V30 563 C 58.531 1.51722 4.10243 0
M  V30 564 C 57.59 0.989821 5.16807 0
M  V30 565 O 56.616 1.67794 5.43906 0
M  V30 566 N 57.818 -0.184367 5.80207 0
M  V30 567 H 60.583 1.90824 2.31098 0
M  V30 568 H 58.144 1.13888 1.1507 0
M  V30 569 H 60.136 0.065699 4.04647 0
M  V30 570 H 58.706 -0.413806 3.09849 0
M  V30 571 H 57.926 2.05786 3.36223 0
M  V30 572 H 59.214 2.24619 4.56534 0
M  V30 573 H 58.612 -0.760062 5.60571 0
M  V30 574 H 57.169 -0.493366 6.4993 0
M  V30 575 N 60.6021 -1.18246 1.0419 0
M  V30 576 C 61.8491 -1.88257 0.746017 0
M  V30 577 C 62.1771 -1.80429 -0.726331 0
M  V30 578 O 61.4321 -1.2 -1.54591 0
M  V30 579 C 61.7311 -3.38082 1.15911 0
M  V30 580 C 61.3971 -3.66114 2.63195 0
M  V30 581 C 60.0591 -3.73474 3.03432 0
M  V30 582 C 62.4111 -3.78398 3.5842 0
M  V30 583 C 59.7391 -3.90599 4.37778 0
M  V30 584 C 62.0911 -3.97039 4.92487 0
M  V30 585 C 60.7551 -4.02635 5.32392 0
M  V30 586 H 60.0251 -0.688883 0.272987 0
M  V30 587 H 62.6721 -1.3995 1.30715 0
M  V30 588 H 60.9771 -3.88377 0.516806 0
M  V30 589 H 62.6741 -3.90596 0.907516 0
M  V30 590 H 59.2641 -3.61003 2.3103 0
M  V30 591 H 63.4481 -3.72042 3.28479 0
M  V30 592 H 58.7041 -3.93175 4.68213 0
M  V30 593 H 62.8781 -4.05486 5.66175 0
M  V30 594 H 60.5051 -4.15657 6.36501 0
M  V30 595 N 62.0802 -0.821533 -1.34494 0
M  V30 596 C 63.0432 -0.247847 -2.27856 0
M  V30 597 C 64.0432 0.573453 -1.50227 0
M  V30 598 O 65.2332 0.389759 -1.69784 0
M  V30 599 C 62.3652 0.652698 -3.34593 0
M  V30 600 H 63.5582 -1.07146 -2.80107 0
M  V30 601 H 61.1112 -0.593291 -1.44602 0
M  V30 602 H 61.8462 1.49943 -2.87555 0
M  V30 603 H 61.6312 0.065292 -3.92046 0
M  V30 604 H 63.1212 1.04793 -4.04238 0
M  V30 605 N 63.5583 1.46682 -0.576371 0
M  V30 606 C 64.5063 2.31953 0.17335 0
M  V30 607 C 65.5003 1.44098 0.89062 0
M  V30 608 O 66.7063 1.60759 0.809728 0
M  V30 609 H 63.0813 0.748273 0.0747727 0
M  V30 610 H 65.0523 2.93007 -0.564738 0
M  V30 611 C 63.8013 3.27142 1.17786 0
M  V30 612 H 63.1243 3.94719 0.635361 0
M  V30 613 H 64.5643 3.896 1.67296 0
M  V30 614 C 63.0233 2.52036 2.23561 0
M  V30 615 O 63.5533 2.27877 3.3081 0
M  V30 616 N 61.7593 2.12709 1.97998 0
M  V30 617 H 61.3063 2.32557 1.10792 0
M  V30 618 H 61.2643 1.62776 2.68982 0
M  V30 619 N 65.0364 0.313813 1.54444 0
M  V30 620 C 65.9464 -0.565714 2.27677 0
M  V30 621 C 66.9624 -1.13754 1.31666 0
M  V30 622 O 68.1384 -1.15959 1.64668 0
M  V30 623 C 65.2034 -1.71528 3.01296 0
M  V30 624 C 64.2644 -1.17624 4.12872 0
M  V30 625 C 63.4974 -2.27102 4.8297 0
M  V30 626 O 63.7204 -3.47256 4.52514 0
M  V30 627 O 62.6544 -1.9307 5.70094 0
M  V30 628 H 66.4804 0.0287296 3.03686 0
M  V30 629 H 64.0654 0.0798312 1.49187 0
M  V30 630 H 65.9474 -2.38476 3.4743 0
M  V30 631 H 64.6224 -2.29608 2.2817 0
M  V30 632 H 63.5294 -0.472124 3.71109 0
M  V30 633 H 64.8624 -0.640695 4.88012 0
M  V30 634 N 66.5145 -1.57545 0.0417849 0
M  V30 635 C 67.7915 -1.83642 -0.673433 0
M  V30 636 C 68.1715 -0.928298 -1.89594 0
M  V30 637 O 67.5195 0.0129955 -2.28496 0
M  V30 638 C 67.7295 -3.33155 -1.03964 0
M  V30 639 C 69.0775 -3.99941 -1.42592 0
M  V30 640 O 70.1015 -3.37725 -1.13226 0
M  V30 641 O 68.9605 -5.09619 -1.9736 0
M  V30 642 H 66.0545 -0.757638 -0.331533 0
M  V30 643 H 68.6005 -1.69554 0.070433 0
M  V30 644 H 67.3725 -3.9093 -0.170098 0
M  V30 645 H 66.9955 -3.52396 -1.84126 0
M  V30 646 N 67.9926 0.231505 -1.5589 0
M  V30 647 C 69.2206 0.974505 -1.82513 0
M  V30 648 C 69.6356 1.78344 -0.619591 0
M  V30 649 O 68.9926 1.77792 0.411848 0
M  V30 650 C 69.0436 1.90007 -3.07538 0
M  V30 651 O 68.7646 1.12385 -4.2344 0
M  V30 652 C 70.2656 2.75779 -3.47075 0
M  V30 653 H 67.4856 0.286065 -0.606966 0
M  V30 654 H 70.0296 0.249739 -2.02969 0
M  V30 655 H 68.1846 2.57891 -2.89086 0
M  V30 656 H 68.5986 1.75125 -4.944 0
M  V30 657 H 70.0726 3.36443 -4.37619 0
M  V30 658 H 70.5496 3.47672 -2.68367 0
M  V30 659 H 71.1556 2.13323 -3.67931 0
M  V30 660 N 69.4707 1.49531 0.497807 0
M  V30 661 C 70.3807 1.69176 1.62532 0
M  V30 662 C 71.3967 0.5744 1.64246 0
M  V30 663 O 72.5727 0.849497 1.82608 0
M  V30 664 C 69.6377 1.75695 2.98885 0
M  V30 665 C 68.6987 2.9929 3.07773 0
M  V30 666 C 67.9317 3.05488 4.37622 0
M  V30 667 O 68.1547 2.19192 5.26603 0
M  V30 668 O 67.0887 3.9798 4.51548 0
M  V30 669 H 70.9147 2.647 1.48887 0
M  V30 670 H 68.4997 1.3331 0.674441 0
M  V30 671 H 70.3817 1.82317 3.79919 0
M  V30 672 H 69.0567 0.8335 3.12785 0
M  V30 673 H 67.9637 2.98183 2.25915 0
M  V30 674 H 69.2967 3.91125 2.98801 0
M  V30 675 N 70.9488 -0.749086 1.3866 0
M  V30 676 C 72.1738 -1.54344 1.38538 0
M  V30 677 C 72.5988 -1.88088 -0.0216655 0
M  V30 678 O 71.9568 -1.50899 -1.00494 0
M  V30 679 C 72.0048 -2.8164 2.25192 0
M  V30 680 O 71.1088 -3.7698 1.67212 0
M  V30 681 H 70.4498 -0.466654 0.472367 0
M  V30 682 H 72.9798 -0.925355 1.82478 0
M  V30 683 H 72.9898 -3.30519 2.3921 0
M  V30 684 H 71.6648 -2.56411 3.27454 0
M  V30 685 H 70.2418 -3.35699 1.6236 0
M  V30 686 N 72.4269 -1.23603 -0.977757 0
M  V30 687 C 73.3589 -0.977369 -2.07317 0
M  V30 688 C 74.3719 0.0495845 -1.62724 0
M  V30 689 O 75.5609 -0.186261 -1.77526 0
M  V30 690 C 72.6609 -0.451216 -3.35883 0
M  V30 691 C 71.8339 -1.53896 -4.09432 0
M  V30 692 C 70.8929 -1.01721 -5.16274 0
M  V30 693 O 69.9189 -1.70676 -5.43009 0
M  V30 694 N 71.1209 0.153594 -5.80297 0
M  V30 695 H 73.8859 -1.92047 -2.30082 0
M  V30 696 H 71.4469 -1.14497 -1.14465 0
M  V30 697 H 73.4389 -0.0871574 -4.04606 0
M  V30 698 H 72.0089 0.397368 -3.10064 0
M  V30 699 H 71.2289 -2.07566 -3.35127 0
M  V30 700 H 72.5169 -2.27037 -4.55337 0
M  V30 701 H 71.9149 0.730323 -5.60966 0
M  V30 702 H 70.4719 0.458892 -6.50183 0
M  V30 703 N 73.905 1.17692 -1.04816 0
M  V30 704 C 74.852 2.21581 -0.645797 0
M  V30 705 C 75.822 1.62367 0.350159 0
M  V30 706 O 77.007 1.89254 0.242433 0
M  V30 707 C 74.147 3.45092 -0.0227568 0
M  V30 708 C 73.26 4.18613 -1.06709 0
M  V30 709 C 72.395 5.29602 -0.411767 0
M  V30 710 C 71.434 5.94904 -1.44067 0
M  V30 711 N 70.571 6.97414 -0.809781 0
M  V30 712 H 75.411 2.55353 -1.5362 0
M  V30 713 H 72.948 1.25438 -0.768364 0
M  V30 714 H 74.906 4.15679 0.35588 0
M  V30 715 H 73.536 3.11917 0.831122 0
M  V30 716 H 72.588 3.46779 -1.5636 0
M  V30 717 H 73.9 4.63293 -1.84827 0
M  V30 718 H 73.054 6.06696 0.0206623 0
M  V30 719 H 71.793 4.86045 0.401438 0
M  V30 720 H 70.798 5.16544 -1.88316 0
M  V30 721 H 72.023 6.40542 -2.25571 0
M  V30 722 H 69.969 6.55998 -0.0170186 0
M  V30 723 H 69.886 7.40386 -1.52856 0
M  V30 724 H 71.154 7.78463 -0.401999 0
M  V30 725 N 75.3831 0.828654 1.34056 0
M  V30 726 C 76.6301 0.419458 1.98108 0
M  V30 727 C 76.9581 -1.01886 1.65679 0
M  V30 728 O 76.2131 -1.72539 0.923512 0
M  V30 729 C 76.5121 0.575226 3.52741 0
M  V30 730 C 76.1781 1.98012 4.05095 0
M  V30 731 C 74.8401 2.36442 4.19104 0
M  V30 732 C 77.1921 2.89824 4.33188 0
M  V30 733 C 74.5201 3.66009 4.58535 0
M  V30 734 C 76.8721 4.1886 4.74066 0
M  V30 735 C 75.5361 4.5726 4.86281 0
M  V30 736 H 74.8061 0.153491 0.724929 0
M  V30 737 H 77.4531 1.05371 1.59904 0
M  V30 738 H 75.7581 -0.142385 3.91541 0
M  V30 739 H 77.4551 0.239057 4.00287 0
M  V30 740 H 74.0451 1.67162 3.94658 0
M  V30 741 H 78.2291 2.61375 4.21897 0
M  V30 742 H 73.4851 3.95579 4.66184 0
M  V30 743 H 77.6591 4.90086 4.94761 0
M  V30 744 H 75.2861 5.57707 5.16592 0
M  V30 745 N 76.8612 -1.46375 0.584142 0
M  V30 746 C 77.7912 -2.33103 -0.136037 0
M  V30 747 C 78.7722 -1.45431 -0.882255 0
M  V30 748 O 79.9572 -1.74246 -0.857434 0
M  V30 749 C 77.0872 -3.27731 -1.14933 0
M  V30 750 C 76.0412 -4.24855 -0.517862 0
M  V30 751 C 75.3672 -5.09001 -1.63773 0
M  V30 752 C 76.6672 -5.19439 0.545886 0
M  V30 753 H 78.3612 -2.93568 0.588086 0
M  V30 754 H 75.9072 -1.41166 0.284259 0
M  V30 755 H 77.8602 -3.87261 -1.66153 0
M  V30 756 H 76.5842 -2.65377 -1.90375 0
M  V30 757 H 75.2432 -3.6659 -0.0267361 0
M  V30 758 H 74.8912 -4.43031 -2.38185 0
M  V30 759 H 74.5912 -5.74777 -1.22085 0
M  V30 760 H 76.1152 -5.71396 -2.15266 0
M  V30 761 H 77.5292 -5.73177 0.118704 0
M  V30 762 H 75.9262 -5.93566 0.88317 0
M  V30 763 H 76.9962 -4.63285 1.43162 0
M  V30 764 N 78.3393 -0.321999 -1.54275 0
M  V30 765 C 79.5673 0.283052 -2.04955 0
M  V30 766 C 79.9823 1.45904 -1.19823 0
M  V30 767 O 79.3393 1.81063 -0.228545 0
M  V30 768 C 79.3903 0.719028 -3.54277 0
M  V30 769 O 79.1113 -0.410175 -4.36176 0
M  V30 770 C 80.6123 1.38705 -4.21041 0
M  V30 771 H 77.8323 0.0584616 -0.668448 0
M  V30 772 H 80.3763 -0.467734 -1.99079 0
M  V30 773 H 78.5313 1.41979 -3.60445 0
M  V30 774 H 78.9453 -0.0669416 -5.24457 0
M  V30 775 H 80.4193 1.64306 -5.2698 0
M  V30 776 H 80.8963 2.33385 -3.72059 0
M  V30 777 H 81.5023 0.728906 -4.19007 0
M  V30 778 N 79.8174 1.5752 -0.0501392 0
M  V30 779 C 80.7654 2.12651 0.942459 0
M  V30 780 C 81.7594 1.05807 1.32292 0
M  V30 781 O 82.9654 1.24217 1.3027 0
M  V30 782 H 79.3404 0.679673 0.321789 0
M  V30 783 H 81.3114 2.94951 0.452356 0
M  V30 784 C 80.0604 2.68565 2.20836 0
M  V30 785 H 79.3834 3.50439 1.92439 0
M  V30 786 H 80.8234 3.10761 2.8845 0
M  V30 787 C 79.2824 1.62291 2.95234 0
M  V30 788 O 79.8124 1.03508 3.88135 0
M  V30 789 N 78.0184 1.33836 2.57946 0
M  V30 790 H 77.5654 1.81826 1.82475 0
M  V30 791 H 77.5234 0.629595 3.08032 0
M  V30 792 N 81.2955 -0.223234 1.56011 0
M  V30 793 C 82.5435 -0.946003 1.78592 0
M  V30 794 C 82.8645 -1.84936 0.618349 0
M  V30 795 O 82.1345 -1.92473 -0.364833 0
M  V30 796 H 80.7145 -0.352298 0.658707 0
M  V30 797 H 83.3765 -0.235494 1.93472 0
M  V30 798 H 82.4725 -1.55381 2.70672 0
M  V30 799 N 82.7736 -1.49793 -0.48987 0
M  V30 800 C 84.0206 -1.59841 -1.24327 0
M  V30 801 C 84.3486 -0.290135 -1.92324 0
M  V30 802 O 83.6036 0.722749 -1.81865 0
M  V30 803 C 83.9026 -2.71488 -2.32441 0
M  V30 804 C 83.5686 -4.12614 -1.81826 0
M  V30 805 C 82.2306 -4.51017 -1.67742 0
M  V30 806 C 84.5826 -5.00892 -1.4407 0
M  V30 807 C 81.9106 -5.75459 -1.14297 0
M  V30 808 C 84.2626 -6.25863 -0.920742 0
M  V30 809 C 82.9266 -6.63086 -0.766383 0
M  V30 810 H 82.1966 -0.584899 -0.454944 0
M  V30 811 H 84.8436 -1.83663 -0.542215 0
M  V30 812 H 83.1486 -2.4168 -3.0838 0
M  V30 813 H 84.8456 -2.76469 -2.90458 0
M  V30 814 H 81.4356 -3.82307 -1.93751 0
M  V30 815 H 85.6196 -4.7187 -1.53794 0
M  V30 816 H 80.8756 -6.02989 -1.01068 0
M  V30 817 H 85.0496 -6.9364 -0.619448 0
M  V30 818 H 82.6766 -7.59393 -0.350083 0
M  V30 819 N 84.2517 0.741722 -1.39055 0
M  V30 820 C 85.1817 1.869 -1.39966 0
M  V30 821 C 86.1627 1.6804 -0.26392 0
M  V30 822 O 87.3477 1.88458 -0.468755 0
M  V30 823 C 84.4777 3.24572 -1.23574 0
M  V30 824 C 83.4317 3.58056 -2.34477 0
M  V30 825 C 82.7577 4.94593 -2.0318 0
M  V30 826 C 84.0577 3.61716 -3.76774 0
M  V30 827 H 85.7517 1.86395 -2.34302 0
M  V30 828 H 83.2977 0.895361 -1.1278 0
M  V30 829 H 85.2507 4.031 -1.22834 0
M  V30 830 H 83.9747 3.25587 -0.257045 0
M  V30 831 H 82.6337 2.81854 -2.34423 0
M  V30 832 H 82.2817 4.92181 -1.03765 0
M  V30 833 H 81.9817 5.17964 -2.77465 0
M  V30 834 H 83.5057 5.75486 -2.04079 0
M  V30 835 H 84.9197 4.30335 -3.78794 0
M  V30 836 H 83.3167 3.96603 -4.50362 0
M  V30 837 H 84.3867 2.61672 -4.08235 0
M  V30 838 N 85.7298 1.2412 0.971189 0
M  V30 839 C 86.9778 1.07668 1.71032 0
M  V30 840 C 87.2988 -0.385797 1.91146 0
M  V30 841 O 86.5688 -1.27569 1.4867 0
M  V30 842 H 85.1488 0.395429 0.633755 0
M  V30 843 H 87.8108 1.55984 1.16855 0
M  V30 844 H 86.9068 1.57195 2.69622 0
M  V30 845 N 87.2079 -1.17134 1.05439 0
M  V30 846 C 88.1549 -2.21235 0.657539 0
M  V30 847 C 89.1249 -1.62551 -0.341543 0
M  V30 848 O 90.3099 -1.89379 -0.232393 0
M  V30 849 C 87.4499 -3.45076 0.0410575 0
M  V30 850 C 86.5629 -4.18042 1.08927 0
M  V30 851 C 85.6979 -5.29376 0.439848 0
M  V30 852 C 84.7369 -5.94132 1.4722 0
M  V30 853 N 83.8739 -6.96975 0.846756 0
M  V30 854 H 88.7139 -2.54534 1.54972 0
M  V30 855 H 86.2509 -1.25028 0.775006 0
M  V30 856 H 88.2089 -4.15862 -0.33383 0
M  V30 857 H 86.8389 -3.12353 -0.814568 0
M  V30 858 H 85.8909 -3.45945 1.58196 0
M  V30 859 H 87.2029 -4.62306 1.87282 0
M  V30 860 H 86.3569 -6.06699 0.0115125 0
M  V30 861 H 85.0959 -4.86251 -0.375656 0
M  V30 862 H 84.1009 -5.15538 1.91052 0
M  V30 863 H 85.3259 -6.39337 2.28965 0
M  V30 864 H 83.2719 -6.5598 0.0518075 0
M  V30 865 H 83.1889 -7.39565 1.5678 0
M  V30 866 H 84.4569 -7.78239 0.443277 0
M  V30 867 N 88.686 -0.835752 -1.33615 0
M  V30 868 C 89.633 -0.26473 -2.29277 0
M  V30 869 C 90.603 0.617712 -1.54187 0
M  V30 870 O 91.788 0.556641 -1.825 0
M  V30 871 C 88.928 0.556777 -3.40579 0
M  V30 872 C 88.041 -0.349339 -4.30585 0
M  V30 873 C 87.176 0.482969 -5.29 0
M  V30 874 C 86.215 -0.421732 -6.10645 0
M  V30 875 N 85.352 0.372262 -7.01112 0
M  V30 876 H 90.192 -1.08582 -2.77514 0
M  V30 877 H 87.729 -0.546927 -1.36554 0
M  V30 878 H 89.687 1.04852 -4.03809 0
M  V30 879 H 88.317 1.34286 -2.93542 0
M  V30 880 H 87.369 -0.959372 -3.68104 0
M  V30 881 H 88.681 -1.04445 -4.87742 0
M  V30 882 H 87.835 1.03866 -5.97743 0
M  V30 883 H 86.574 1.21153 -4.72412 0
M  V30 884 H 85.579 -0.989464 -5.40823 0
M  V30 885 H 86.804 -1.14861 -6.69316 0
M  V30 886 H 84.75 1.08426 -6.46977 0
M  V30 887 H 84.667 -0.264198 -7.55538 0
M  V30 888 H 85.935 0.910293 -7.74167 0
M  V30 889 N 90.1641 1.46063 -0.591896 0
M  V30 890 C 91.1111 2.30399 0.136069 0
M  V30 891 C 92.0811 1.41169 0.875238 0
M  V30 892 O 93.2661 1.70112 0.86409 0
M  V30 893 C 90.4061 3.25804 1.13781 0
M  V30 894 C 89.5191 4.30134 0.401137 0
M  V30 895 C 88.6541 5.12659 1.39121 0
M  V30 896 C 87.6931 6.0873 0.641462 0
M  V30 897 N 86.8301 6.8409 1.58004 0
M  V30 898 H 91.6701 2.92118 -0.589144 0
M  V30 899 H 89.2071 1.43959 -0.302342 0
M  V30 900 H 91.1651 3.79569 1.73156 0
M  V30 901 H 89.7951 2.65872 1.83062 0
M  V30 902 H 88.8471 3.79152 -0.307826 0
M  V30 903 H 90.1591 4.98458 -0.184565 0
M  V30 904 H 89.3131 5.70747 2.05749 0
M  V30 905 H 88.0521 4.44316 2.01084 0
M  V30 906 H 87.0571 5.49786 -0.0385419 0
M  V30 907 H 88.2821 6.79095 0.0270945 0
M  V30 908 H 86.2281 6.18449 2.18761 0
M  V30 909 H 86.1451 7.48709 1.04738 0
M  V30 910 H 87.4131 7.4673 2.23639 0
M  V30 911 N 91.6422 0.330177 1.54103 0
M  V30 912 C 92.5722 -0.525353 2.27513 0
M  V30 913 C 93.5532 -1.11383 1.2856 0
M  V30 914 O 94.7382 -1.13773 1.57383 0
M  V30 915 C 91.8682 -1.6831 3.03791 0
M  V30 916 C 90.8222 -1.2236 4.10137 0
M  V30 917 C 90.1482 -2.46882 4.74293 0
M  V30 918 C 91.4482 -0.333697 5.21233 0
M  V30 919 H 93.1422 0.087013 2.99274 0
M  V30 920 H 90.6882 0.0432893 1.43935 0
M  V30 921 H 92.6412 -2.28795 3.5388 0
M  V30 922 H 91.3652 -2.32216 2.29659 0
M  V30 923 H 90.0242 -0.64165 3.60941 0
M  V30 924 H 89.6722 -3.09165 3.96769 0
M  V30 925 H 89.3722 -2.16825 5.46133 0
M  V30 926 H 90.8962 -3.08117 5.27159 0
M  V30 927 H 92.3102 -0.845013 5.67038 0
M  V30 928 H 90.7072 -0.125612 5.99969 0
M  V30 929 H 91.7772 0.633724 4.80741 0
M  V30 930 N 93.1203 -1.57491 0.0584922 0
M  V30 931 C 94.0833 -2.1085 -0.898617 0
M  V30 932 C 95.0833 -1.02964 -1.23511 0
M  V30 933 O 96.2733 -1.29007 -1.17059 0
M  V30 934 C 93.4053 -2.59881 -2.20623 0
M  V30 935 H 94.5983 -2.96715 -0.435936 0
M  V30 936 H 92.1513 -1.55141 -0.190023 0
M  V30 937 H 92.8863 -1.77431 -2.71457 0
M  V30 938 H 92.6713 -3.38727 -1.97501 0
M  V30 939 H 94.1613 -3.01285 -2.89166 0
M  V30 940 N 94.5984 0.214957 -1.56127 0
M  V30 941 C 95.8754 0.963093 -1.70247 0
M  V30 942 C 96.2554 2.02166 -0.60764 0
M  V30 943 O 95.6034 2.25244 0.384385 0
M  V30 944 C 95.8134 1.56756 -3.11815 0
M  V30 945 C 97.1614 2.0573 -3.7143 0
M  V30 946 O 98.1854 1.66637 -3.14818 0
M  V30 947 O 97.0444 2.77603 -4.70743 0
M  V30 948 H 94.1384 0.450321 -0.693643 0
M  V30 949 H 96.6844 0.206219 -1.68442 0
M  V30 950 H 95.4564 0.803533 -3.82961 0
M  V30 951 H 95.0794 2.3898 -3.17765 0
M  V30 952 N 96.0765 1.50051 0.48192 0
M  V30 953 C 97.3065 1.63999 1.2565 0
M  V30 954 C 97.7145 0.318288 1.86504 0
M  V30 955 O 97.0575 -0.708534 1.69486 0
M  V30 956 C 97.1195 2.66504 2.4128 0
M  V30 957 C 96.7835 4.10352 2.01148 0
M  V30 958 C 97.7805 4.96562 1.54021 0
M  V30 959 C 95.4655 4.56203 2.10199 0
M  V30 960 C 97.4595 6.26668 1.16473 0
M  V30 961 C 95.1465 5.86318 1.72264 0
M  V30 962 C 96.1445 6.71375 1.25477 0
M  V30 963 O 95.8325 7.99062 0.880626 0
M  V30 964 H 95.5645 0.55456 0.386574 0
M  V30 965 H 98.1185 1.96954 0.582944 0
M  V30 966 H 96.3485 2.28769 3.11772 0
M  V30 967 H 98.0375 2.69783 3.03268 0
M  V30 968 H 98.8035 4.62358 1.46458 0
M  V30 969 H 94.6825 3.90152 2.45566 0
M  V30 970 H 98.2265 6.93011 0.798841 0
M  V30 971 H 94.1235 6.20046 1.79482 0
M  V30 972 H 94.8915 8.12239 1.01043 0
M  V30 973 N 97.5546 -0.734337 1.39446 0
M  V30 974 C 98.5176 -1.83004 1.37994 0
M  V30 975 C 99.5176 -1.58397 0.276938 0
M  V30 976 O 100.708 -1.65785 0.534875 0
M  V30 977 C 97.8396 -3.20802 1.1532 0
M  V30 978 H 99.0326 -1.85694 2.35494 0
M  V30 979 H 96.5856 -0.938059 1.25021 0
M  V30 980 H 97.3206 -3.23772 0.185036 0
M  V30 981 H 97.1056 -3.4006 1.95197 0
M  V30 982 H 98.5956 -4.00862 1.17046 0
M  V30 983 N 99.0327 -1.24633 -0.964593 0
M  V30 984 C 100.31 -0.995809 -1.68354 0
M  V30 985 C 100.69 0.480964 -2.05548 0
M  V30 986 O 100.038 1.45599 -1.76105 0
M  V30 987 C 100.248 -1.92177 -2.91323 0
M  V30 988 C 101.596 -2.19446 -3.63495 0
M  V30 989 O 102.62 -1.89855 -3.01386 0
M  V30 990 O 101.479 -2.69714 -4.75307 0
M  V30 991 H 98.5727 -0.376854 -0.736146 0
M  V30 992 H 101.119 -1.35745 -1.0184 0
M  V30 993 H 99.8907 -2.91938 -2.60553 0
M  V30 994 H 99.5137 -1.56349 -3.65569 0
M  V30 995 N 100.511 1.16574 -1.06058 0
M  V30 996 C 101.421 2.2452 -0.680282 0
M  V30 997 C 102.437 1.71348 0.302604 0
M  V30 998 O 103.613 2.00822 0.152513 0
M  V30 999 C 100.678 3.46629 -0.0700315 0
M  V30 1000 C 99.7388 4.14849 -1.10448 0
M  V30 1001 C 98.9718 5.31129 -0.523256 0
M  V30 1002 O 99.1948 5.66514 0.664709 0
M  V30 1003 O 98.1288 5.88526 -1.26179 0
M  V30 1004 H 101.955 2.59355 -1.58015 0
M  V30 1005 H 99.5398 1.24043 -0.832694 0
M  V30 1006 H 101.422 4.20543 0.268667 0
M  V30 1007 H 100.097 3.13573 0.803353 0
M  V30 1008 H 99.0038 3.42916 -1.49532 0
M  V30 1009 H 100.337 4.51954 -1.94931 0
M  V30 1010 N 101.989 0.842826 1.3317 0
M  V30 1011 C 102.939 0.250877 2.26616 0
M  V30 1012 C 103.923 -0.596427 1.49437 0
M  V30 1013 O 105.115 -0.447747 1.71243 0
M  V30 1014 C 102.244 -0.569779 3.38539 0
M  V30 1015 C 101.33 0.289254 4.23112 0
M  V30 1016 N 101.721 1.36987 4.86897 0
M  V30 1017 C 100.019 0.0769631 4.45934 0
M  V30 1018 C 100.72 1.89737 5.49886 0
M  V30 1019 N 99.6959 1.19827 5.30229 0
M  V30 1020 H 103.498 1.07718 2.73448 0
M  V30 1021 H 101.012 0.687693 1.47121 0
M  V30 1022 H 103.009 -1.01018 4.04476 0
M  V30 1023 H 101.669 -1.39401 2.93253 0
M  V30 1024 H 102.68 1.75277 4.87338 0
M  V30 1025 H 99.3569 -0.713507 4.11358 0
M  V30 1026 H 100.747 2.80253 6.10662 0
M  V30 1027 N 103.467 -1.45747 0.599634 0
M  V30 1028 C 104.417 -2.27538 -0.145107 0
M  V30 1029 C 105.401 -1.3686 -0.846055 0
M  V30 1030 O 106.593 -1.6091 -0.737357 0
M  V30 1031 C 103.722 -3.23569 -1.14708 0
M  V30 1032 C 102.808 -4.21734 -0.447383 0
M  V30 1033 N 103.199 -5.03257 0.506535 0
M  V30 1034 C 101.497 -4.40536 -0.695966 0
M  V30 1035 C 102.198 -5.74426 0.917068 0
M  V30 1036 N 101.174 -5.42966 0.26253 0
M  V30 1037 H 104.976 -2.87965 0.587672 0
M  V30 1038 H 102.49 -1.56803 0.422697 0
M  V30 1039 H 104.487 -3.8089 -1.69495 0
M  V30 1040 H 103.147 -2.64702 -1.8805 0
M  V30 1041 H 104.158 -5.10319 0.882899 0
M  V30 1042 H 100.835 -3.92802 -1.41467 0
M  V30 1043 H 102.225 -6.4995 1.70338 0
M  V30 1044 N 104.945 -0.338344 -1.53925 0
M  V30 1045 C 106.356 0.146651 -1.86123 0
M  V30 1046 C 106.707 1.5042 -1.2597 0
M  V30 1047 O 105.832 2.08723 -0.571294 0
M  V30 1048 C 106.427 0.272879 -3.37699 0
M  V30 1049 C 104.986 0.702103 -3.69794 0
M  V30 1050 C 104.133 -0.167304 -2.76795 0
M  V30 1051 H 107.084 -0.558123 -1.48562 0
M  V30 1052 H 107.105 1.10128 -3.64214 0
M  V30 1053 H 106.617 -0.715307 -3.81451 0
M  V30 1054 H 104.718 1.6995 -3.31584 0
M  V30 1055 H 104.831 0.495604 -4.7653 0
M  V30 1056 H 103.195 0.359527 -2.5215 0
M  V30 1057 H 103.978 -1.15253 -3.23375 0
M  V30 1058 N 106.423 1.57458 -0.0668435 0
M  V30 1059 C 107.671 1.92919 0.602214 0
M  V30 1060 C 107.992 0.947215 1.70449 0
M  V30 1061 O 107.262 -0.00544117 1.95899 0
M  V30 1062 H 105.842 0.71217 0.22544 0
M  V30 1063 H 108.504 1.94508 -0.123535 0
M  V30 1064 H 107.6 2.94589 1.03073 0
M  V30 1065 N 107.901 -0.206675 1.56239 0
M  V30 1066 C 109.129 -0.945345 1.8404 0
M  V30 1067 C 109.544 -1.77336 0.647885 0
M  V30 1068 O 108.901 -1.78425 -0.383511 0
M  V30 1069 C 108.952 -1.8509 3.10522 0
M  V30 1070 O 108.673 -1.05634 4.25174 0
M  V30 1071 C 110.174 -2.70222 3.51418 0
M  V30 1072 H 107.394 -0.276372 0.61144 0
M  V30 1073 H 109.938 -0.217417 2.03341 0
M  V30 1074 H 108.093 -2.53259 2.93153 0
M  V30 1075 H 108.507 -1.67238 4.97124 0
M  V30 1076 H 109.981 -3.29438 4.42916 0
M  V30 1077 H 110.458 -3.43358 2.73864 0
M  V30 1078 H 111.064 -2.07443 3.71278 0
M  V30 1079 N 109.379 -1.50304 -0.473955 0
M  V30 1080 C 110.607 -1.64902 -1.24959 0
M  V30 1081 C 111.022 -0.331198 -1.85872 0
M  V30 1082 O 110.379 0.68652 -1.69095 0
M  V30 1083 C 110.43 -2.73803 -2.36038 0
M  V30 1084 O 110.151 -4.00477 -1.77624 0
M  V30 1085 C 111.652 -2.99349 -3.26964 0
M  V30 1086 H 108.872 -0.554383 -0.378022 0
M  V30 1087 H 111.416 -1.9651 -0.566054 0
M  V30 1088 H 109.571 -2.44898 -3.00173 0
M  V30 1089 H 109.985 -4.60678 -2.5075 0
M  V30 1090 H 111.459 -3.79217 -4.01121 0
M  V30 1091 H 111.936 -2.10307 -3.85574 0
M  V30 1092 H 112.542 -3.29774 -2.68569 0
M  V30 1093 N 110.857 0.726932 -1.39834 0
M  V30 1094 C 112.082 1.52121 -1.40976 0
M  V30 1095 C 112.507 1.88098 -0.00826029 0
M  V30 1096 O 111.865 1.52479 0.980807 0
M  V30 1097 C 111.913 2.78021 -2.29644 0
M  V30 1098 O 111.017 3.74272 -1.73188 0
M  V30 1099 H 110.358 0.45908 -0.479731 0
M  V30 1100 H 112.888 0.896207 -1.83927 0
M  V30 1101 H 112.898 3.26671 -2.44438 0
M  V30 1102 H 111.573 2.51169 -3.31492 0
M  V30 1103 H 110.15 3.33073 -1.6768 0
M  V30 1104 N 112.336 1.25143 0.95797 0
M  V30 1105 C 113.583 1.09692 1.70217 0
M  V30 1106 C 113.911 -0.362654 1.91089 0
M  V30 1107 O 113.166 -1.28386 1.47701 0
M  V30 1108 C 113.465 1.79272 3.09187 0
M  V30 1109 C 113.131 3.29196 3.08125 0
M  V30 1110 C 111.793 3.70096 3.07543 0
M  V30 1111 C 114.145 4.24995 3.0171 0
M  V30 1112 C 111.473 5.05213 2.9829 0
M  V30 1113 C 113.825 5.60132 2.93999 0
M  V30 1114 C 112.489 6.00365 2.9175 0
M  V30 1115 H 111.759 0.401393 0.622868 0
M  V30 1116 H 114.406 1.55372 1.11945 0
M  V30 1117 H 112.711 1.26014 3.70982 0
M  V30 1118 H 114.408 1.64773 3.65583 0
M  V30 1119 H 110.998 2.96651 3.09348 0
M  V30 1120 H 115.182 3.9439 3.01281 0
M  V30 1121 H 110.438 5.35569 2.94916 0
M  V30 1122 H 114.612 6.3406 2.87996 0
M  V30 1123 H 112.239 7.05023 2.84336 0
M  V30 1124 N 113.814 -1.1601 1.06675 0
M  V30 1125 C 115.062 -1.86264 0.784229 0
M  V30 1126 C 115.383 -1.82328 -0.691488 0
M  V30 1127 O 114.653 -1.25947 -1.50047 0
M  V30 1128 H 113.233 -0.689621 0.28711 0
M  V30 1129 H 115.895 -1.40664 1.34906 0
M  V30 1130 H 114.991 -2.91595 1.11259 0
M  V30 1131 N 115.292 -0.849877 -1.32721 0
M  V30 1132 C 116.225 -0.235903 -2.26977 0
M  V30 1133 C 117.203 0.623355 -1.50177 0
M  V30 1134 O 118.387 0.581207 -1.79316 0
M  V30 1135 C 115.514 0.667712 -3.32053 0
M  V30 1136 C 114.56 -0.11753 -4.26338 0
M  V30 1137 S 115.393 -1.48277 -5.14562 0
M  V30 1138 C 116.549 -0.584741 -6.23163 0
M  V30 1139 H 116.782 -1.03495 -2.78704 0
M  V30 1140 H 114.315 -0.64724 -1.40179 0
M  V30 1141 H 116.273 1.18343 -3.93072 0
M  V30 1142 H 114.934 1.44052 -2.7912 0
M  V30 1143 H 114.127 0.57051 -5.00761 0
M  V30 1144 H 113.729 -0.564668 -3.69713 0
M  V30 1145 H 116.021 0.212968 -6.77165 0
M  V30 1146 H 116.964 -1.29947 -6.96074 0
M  V30 1147 H 117.372 -0.161202 -5.6427 0
M  V30 1148 N 116.77 1.45427 -0.607355 0
M  V30 1149 C 117.995 2.07124 -0.107006 0
M  V30 1150 C 118.42 1.44906 1.19933 0
M  V30 1151 O 117.778 0.541687 1.73019 0
M  V30 1152 C 117.826 3.60595 0.0194119 0
M  V30 1153 O 116.93 3.98285 1.0697 0
M  V30 1154 H 116.271 0.659868 -0.0739597 0
M  V30 1155 H 118.801 1.86683 -0.837297 0
M  V30 1156 H 118.811 4.07419 0.2177 0
M  V30 1157 H 117.486 4.05266 -0.934453 0
M  V30 1158 H 116.063 3.63133 0.847889 0
M  V30 1159 N 118.248 0.346503 1.53744 0
M  V30 1160 C 119.473 -0.253074 2.0585 0
M  V30 1161 C 119.898 -1.43202 1.21962 0
M  V30 1162 O 119.256 -1.79783 0.234073 0
M  V30 1163 C 119.304 -0.643193 3.54817 0
M  V30 1164 O 118.408 -1.74286 3.73762 0
M  V30 1165 H 117.749 -0.0413583 0.662711 0
M  V30 1166 H 120.279 0.501574 1.98357 0
M  V30 1167 H 120.289 -0.919526 3.97503 0
M  V30 1168 H 118.964 0.218966 4.15323 0
M  V30 1169 H 117.541 -1.46356 3.42979 0
M  V30 1170 N 119.726 -1.57421 0.075193 0
M  V30 1171 C 120.973 -1.93618 -0.593146 0
M  V30 1172 C 121.301 -0.955484 -1.69413 0
M  V30 1173 O 120.556 0.0283251 -1.9568 0
M  V30 1174 C 120.855 -3.36428 -1.20626 0
M  V30 1175 C 120.521 -4.50307 -0.231078 0
M  V30 1176 C 119.183 -4.81186 0.0371936 0
M  V30 1177 C 121.535 -5.19374 0.435888 0
M  V30 1178 C 118.863 -5.78466 0.979461 0
M  V30 1179 C 121.215 -6.17665 1.3665 0
M  V30 1180 C 119.879 -6.46958 1.6432 0
M  V30 1181 H 119.149 -0.708499 -0.217047 0
M  V30 1182 H 121.796 -1.90937 0.146793 0
M  V30 1183 H 120.101 -3.35592 -2.02201 0
M  V30 1184 H 121.798 -3.61727 -1.73073 0
M  V30 1185 H 118.388 -4.26227 -0.450357 0
M  V30 1186 H 122.572 -4.95711 0.241748 0
M  V30 1187 H 117.828 -5.99487 1.20106 0
M  V30 1188 H 122.002 -6.70284 1.88924 0
M  V30 1189 H 119.629 -7.2215 2.37494 0
M  V30 1190 N 121.204 0.198386 -1.56346 0
M  V30 1191 C 122.152 1.26538 -1.95169 0
M  V30 1192 C 123.146 1.47295 -0.836685 0
M  V30 1193 O 124.352 1.48195 -1.02167 0
M  V30 1194 H 120.727 0.424744 -0.620561 0
M  V30 1195 H 122.698 0.910904 -2.84157 0
M  V30 1196 C 121.447 2.6035 -2.30463 0
M  V30 1197 H 120.77 2.45192 -3.15786 0
M  V30 1198 H 122.21 3.33762 -2.61494 0
M  V30 1199 C 120.669 3.17096 -1.13806 0
M  V30 1200 O 121.199 3.99588 -0.41135 0
M  V30 1201 N 119.405 2.75795 -0.915736 0
M  V30 1202 H 118.952 2.08816 -1.50843 0
M  V30 1203 H 118.91 3.14101 -0.136979 0
M  V30 1204 N 122.682 1.50554 0.465978 0
M  V30 1205 C 123.612 1.72722 1.57128 0
M  V30 1206 C 124.593 0.576294 1.6004 0
M  V30 1207 O 125.778 0.81598 1.76225 0
M  V30 1208 C 122.908 1.82605 2.95419 0
M  V30 1209 C 121.862 2.97835 3.07373 0
M  V30 1210 C 121.188 2.92867 4.47363 0
M  V30 1211 C 122.488 4.38265 2.84114 0
M  V30 1212 H 124.182 2.65267 1.38829 0
M  V30 1213 H 121.728 1.2765 0.666441 0
M  V30 1214 H 123.681 1.96698 3.72677 0
M  V30 1215 H 122.405 0.866858 3.14886 0
M  V30 1216 H 121.064 2.83401 2.3255 0
M  V30 1217 H 120.712 1.94783 4.63755 0
M  V30 1218 H 120.412 3.70227 4.56296 0
M  V30 1219 H 121.936 3.09015 5.26633 0
M  V30 1220 H 123.35 4.53198 3.51118 0
M  V30 1221 H 121.747 5.17115 3.04487 0
M  V30 1222 H 122.817 4.50281 1.7993 0
M  V30 1223 N 124.16 -0.719506 1.40217 0
M  V30 1224 C 125.385 -1.51371 1.4178 0
M  V30 1225 C 125.81 -1.88091 0.0182355 0
M  V30 1226 O 125.168 -1.52997 -0.972707 0
M  V30 1227 C 125.216 -2.768 2.31115 0
M  V30 1228 O 124.32 -3.73349 1.7517 0
M  V30 1229 H 123.661 -0.456529 0.482159 0
M  V30 1230 H 126.191 -0.88644 1.844 0
M  V30 1231 H 126.201 -3.25371 2.46167 0
M  V30 1232 H 124.876 -2.49407 3.3282 0
M  V30 1233 H 123.453 -3.32179 1.69444 0
M  V30 1234 N 125.638 -1.25649 -0.95132 0
M  V30 1235 C 126.586 -1.06118 -2.06982 0
M  V30 1236 C 127.58 0.00889169 -1.69398 0
M  V30 1237 O 128.786 -0.146988 -1.79399 0
M  V30 1238 H 125.161 -0.326248 -0.677544 0
M  V30 1239 H 127.132 -2.00932 -2.2061 0
M  V30 1240 C 125.881 -0.700145 -3.40578 0
M  V30 1241 H 125.204 -1.51537 -3.69968 0
M  V30 1242 H 126.644 -0.603211 -4.19687 0
M  V30 1243 C 125.103 0.59403 -3.31622 0
M  V30 1244 O 125.633 1.63522 -3.66911 0
M  V30 1245 N 123.839 0.58089 -2.84735 0
M  V30 1246 H 123.386 -0.266783 -2.56215 0
M  V30 1247 H 123.344 1.44695 -2.79125 0
M  V30 1248 N 127.117 1.15442 -1.07289 0
M  V30 1249 C 128.08 2.18358 -0.696591 0
M  V30 1250 C 129.08 1.58637 0.262837 0
M  V30 1251 O 130.27 1.74145 0.0438809 0
M  V30 1252 C 127.402 3.4089 -0.0266151 0
M  V30 1253 H 128.595 2.53162 -1.60776 0
M  V30 1254 H 126.148 1.29893 -0.869342 0
M  V30 1255 H 126.883 3.11653 0.896822 0
M  V30 1256 H 126.668 3.85495 -0.716657 0
M  V30 1257 H 128.158 4.17009 0.222028 0
M  V30 1258 N 128.595 0.856903 1.32268 0
M  V30 1259 C 129.844 0.457599 1.96441 0
M  V30 1260 C 130.157 -0.992426 1.68553 0
M  V30 1261 O 131.363 -1.49727 2.26482 0
M  V30 1262 C 129.819 0.767358 3.51624 0
M  V30 1263 C 129.427 2.23326 3.88367 0
M  V30 1264 C 131.171 0.435887 4.22256 0
M  V30 1265 C 129.078 2.48613 5.36606 0
M  V30 1266 H 128.008 0.167387 0.735185 0
M  V30 1267 H 130.659 1.048 1.5063 0
M  V30 1268 H 129.041 0.106367 3.95857 0
M  V30 1269 H 130.215 2.93623 3.55137 0
M  V30 1270 H 128.53 2.52948 3.30766 0
M  V30 1271 H 131.127 0.602202 5.31298 0
M  V30 1272 H 131.47 -0.622672 4.11617 0
M  V30 1273 H 132.003 1.05286 3.83614 0
M  V30 1274 H 128.742 3.53101 5.52268 0
M  V30 1275 H 128.262 1.82896 5.71235 0
M  V30 1276 H 129.941 2.32676 6.03714 0
M  V30 1277 N 130.073 -1.45103 0.615059 0
M  V30 1278 C 131.006 -2.27717 -0.148408 0
M  V30 1279 C 131.984 -1.37584 -0.866572 0
M  V30 1280 O 133.168 -1.67017 -0.87393 0
M  V30 1281 C 130.295 -3.16136 -1.21557 0
M  V30 1282 C 129.341 -4.22263 -0.599712 0
M  V30 1283 S 130.174 -5.3215 0.598081 0
M  V30 1284 C 131.33 -6.24137 -0.469484 0
M  V30 1285 H 131.563 -2.92121 0.552483 0
M  V30 1286 H 129.096 -1.49054 0.402778 0
M  V30 1287 H 131.054 -3.67633 -1.82638 0
M  V30 1288 H 129.715 -2.50982 -1.88857 0
M  V30 1289 H 128.908 -4.84081 -1.4029 0
M  V30 1290 H 128.51 -3.73945 -0.063876 0
M  V30 1291 H 130.802 -6.63984 -1.34652 0
M  V30 1292 H 131.745 -7.0801 0.112725 0
M  V30 1293 H 132.153 -5.58971 -0.788168 0
M  V30 1294 N 131.551 -0.354651 -1.53558 0
M  V30 1295 C 132.799 0.237972 -2.00694 0
M  V30 1296 C 133.12 1.50173 -1.24391 0
M  V30 1297 O 132.39 1.92673 -0.354135 0
M  V30 1298 H 130.97 0.0909256 -0.741446 0
M  V30 1299 H 133.632 -0.478368 -1.88938 0
M  V30 1300 H 132.728 0.47264 -3.085 0
M  V30 1301 N 133.029 1.57378 -0.0835403 0
M  V30 1302 C 134.254 1.98682 0.594987 0
M  V30 1303 C 134.679 0.961969 1.61641 0
M  V30 1304 O 134.037 -0.0709989 1.81161 0
M  V30 1305 C 134.085 3.38988 1.2296 0
M  V30 1306 O 133.189 3.39208 2.34546 0
M  V30 1307 H 132.53 0.646368 0.152002 0
M  V30 1308 H 135.06 2.03961 -0.161533 0
M  V30 1309 H 135.07 3.76431 1.57366 0
M  V30 1310 H 133.745 4.13107 0.481228 0
M  V30 1311 H 132.322 3.13548 2.01846 0
M  V30 1312 N 134.507 -0.190092 1.56449 0
M  V30 1313 C 135.755 -0.907908 1.80559 0
M  V30 1314 C 136.076 -1.83583 0.657438 0
M  V30 1315 O 135.346 -1.93203 -0.323924 0
M  V30 1316 H 133.926 -0.338247 0.666032 0
M  V30 1317 H 136.588 -0.194403 1.93928 0
M  V30 1318 H 135.684 -1.49604 2.73907 0
M  V30 1319 N 135.985 -1.50799 -0.457987 0
M  V30 1320 C 137.234 -1.6168 -1.20593 0
M  V30 1321 C 137.547 -0.32888 -1.92815 0
M  V30 1322 O 138.753 -0.316773 -2.69646 0
M  V30 1323 C 137.209 -2.8545 -2.19195 0
M  V30 1324 C 136.817 -4.21168 -1.52715 0
M  V30 1325 C 138.561 -3.05681 -2.94549 0
M  V30 1326 C 136.468 -5.3611 -2.4968 0
M  V30 1327 H 135.398 -0.602134 -0.453818 0
M  V30 1328 H 138.049 -1.77245 -0.475031 0
M  V30 1329 H 136.431 -2.63472 -2.95632 0
M  V30 1330 H 137.605 -4.53449 -0.819775 0
M  V30 1331 H 135.92 -4.06648 -0.895922 0
M  V30 1332 H 138.517 -3.88727 -3.67145 0
M  V30 1333 H 138.86 -2.17929 -3.54701 0
M  V30 1334 H 139.393 -3.27901 -2.25223 0
M  V30 1335 H 136.132 -6.26057 -1.94249 0
M  V30 1336 H 135.652 -5.0823 -3.18532 0
M  V30 1337 H 137.331 -5.6722 -3.11241 0
M  V30 1338 N 137.463 0.71206 -1.40597 0
M  V30 1339 C 138.393 1.83889 -1.43899 0
M  V30 1340 C 139.374 1.67442 -0.299504 0
M  V30 1341 O 140.559 1.87421 -0.508624 0
M  V30 1342 C 137.689 3.21877 -1.30431 0
M  V30 1343 C 136.643 3.53002 -2.42019 0
M  V30 1344 C 135.969 4.90172 -2.13626 0
M  V30 1345 C 137.269 3.53643 -3.84362 0
M  V30 1346 H 138.963 1.81383 -2.38203 0
M  V30 1347 H 136.509 0.871237 -1.14654 0
M  V30 1348 H 138.462 4.00404 -1.31357 0
M  V30 1349 H 137.186 3.24968 -0.326049 0
M  V30 1350 H 135.845 2.76818 -2.40349 0
M  V30 1351 H 135.493 4.89869 -1.14182 0
M  V30 1352 H 135.193 5.11962 -2.88389 0
M  V30 1353 H 136.717 5.71028 -2.1624 0
M  V30 1354 H 138.131 4.22203 -3.87837 0
M  V30 1355 H 136.528 3.86961 -4.58673 0
M  V30 1356 H 137.598 2.52954 -4.13693 0
M  V30 1357 N 138.941 1.26152 0.944643 0
M  V30 1358 C 140.189 1.11271 1.6871 0
M  V30 1359 C 140.51 -0.345166 1.91921 0
M  V30 1360 O 139.78 -1.24387 1.51343 0
M  V30 1361 H 138.36 0.408783 0.625224 0
M  V30 1362 H 141.022 1.58427 1.1352 0
M  V30 1363 H 140.118 1.62879 2.66227 0
M  V30 1364 N 140.419 -1.14872 1.07899 0
M  V30 1365 C 141.349 -2.2193 0.725887 0
M  V30 1366 C 142.33 -1.67622 -0.28927 0
M  V30 1367 O 143.515 -1.93533 -0.160787 0
M  V30 1368 C 140.645 -3.47061 0.128856 0
M  V30 1369 C 139.599 -4.14363 1.07178 0
M  V30 1370 C 138.925 -5.33636 0.337229 0
M  V30 1371 C 140.225 -4.63492 2.40775 0
M  V30 1372 H 141.919 -2.51724 1.62097 0
M  V30 1373 H 139.465 -1.20991 0.780838 0
M  V30 1374 H 141.418 -4.21199 -0.130147 0
M  V30 1375 H 140.142 -3.16617 -0.80134 0
M  V30 1376 H 138.801 -3.42173 1.3158 0
M  V30 1377 H 138.449 -4.99449 -0.596606 0
M  V30 1378 H 138.149 -5.79609 0.965788 0
M  V30 1379 H 139.673 -6.10539 0.0861567 0
M  V30 1380 H 141.087 -5.2913 2.20669 0
M  V30 1381 H 139.484 -5.20148 2.99276 0
M  V30 1382 H 140.554 -3.78834 3.02676 0
M  V30 1383 N 141.898 -0.863906 -1.31812 0
M  V30 1384 C 143.123 -0.48527 -2.01643 0
M  V30 1385 C 143.548 0.913058 -1.64453 0
M  V30 1386 O 142.906 1.6014 -0.849985 0
M  V30 1387 C 142.954 -0.642625 -3.54828 0
M  V30 1388 O 142.058 0.320659 -4.11151 0
M  V30 1389 H 141.399 -0.193793 -0.635091 0
M  V30 1390 H 143.929 -1.16565 -1.68148 0
M  V30 1391 H 143.939 -0.533628 -4.04495 0
M  V30 1392 H 142.614 -1.66227 -3.81237 0
M  V30 1393 H 141.191 0.167126 -3.72525 0
M  V30 1394 N 143.376 1.44774 -0.622745 0
M  V30 1395 C 144.606 2.06187 -0.130532 0
M  V30 1396 C 145.014 1.46547 1.19669 0
M  V30 1397 O 144.357 0.579636 1.74316 0
M  V30 1398 C 144.419 3.59437 0.0674983 0
M  V30 1399 C 144.083 4.41496 -1.18026 0
M  V30 1400 C 145.08 4.75512 -2.102 0
M  V30 1401 C 142.765 4.82007 -1.41333 0
M  V30 1402 C 144.759 5.48912 -3.23998 0
M  V30 1403 C 142.446 5.55157 -2.55429 0
M  V30 1404 C 143.444 5.88528 -3.46589 0
M  V30 1405 O 143.132 6.60191 -4.58697 0
M  V30 1406 H 142.864 0.672045 -0.0730162 0
M  V30 1407 H 145.418 1.86768 -0.854802 0
M  V30 1408 H 143.648 3.77314 0.846825 0
M  V30 1409 H 145.337 4.02642 0.513209 0
M  V30 1410 H 146.103 4.4476 -1.93425 0
M  V30 1411 H 141.982 4.55457 -0.712709 0
M  V30 1412 H 145.526 5.74877 -3.95174 0
M  V30 1413 H 141.423 5.85324 -2.72151 0
M  V30 1414 H 142.191 6.78654 -4.57571 0
M  V30 1415 N 144.854 0.36279 1.53368 0
M  V30 1416 C 145.817 -0.472679 2.24273 0
M  V30 1417 C 146.817 -1.012 1.24961 0
M  V30 1418 O 148.007 -0.898194 1.49259 0
M  V30 1419 C 145.139 -1.66039 2.97731 0
M  V30 1420 H 146.332 0.14773 2.99536 0
M  V30 1421 H 143.885 0.114434 1.55881 0
M  V30 1422 H 144.62 -2.31896 2.26704 0
M  V30 1423 H 144.405 -1.28066 3.70596 0
M  V30 1424 H 145.895 -2.25252 3.51641 0
M  V30 1425 N 146.332 -1.57332 0.0918853 0
M  V30 1426 C 147.265 -2.09499 -0.904735 0
M  V30 1427 C 148.243 -1.00479 -1.27839 0
M  V30 1428 O 149.427 -1.27954 -1.38419 0
M  V30 1429 C 146.554 -2.56931 -2.2069 0
M  V30 1430 C 145.6 -3.77579 -1.98334 0
M  V30 1431 S 146.433 -5.21317 -1.22428 0
M  V30 1432 C 147.589 -5.72097 -2.53882 0
M  V30 1433 H 147.822 -2.93705 -0.460922 0
M  V30 1434 H 145.355 -1.53923 -0.121332 0
M  V30 1435 H 147.313 -2.84917 -2.95521 0
M  V30 1436 H 145.974 -1.72956 -2.62192 0
M  V30 1437 H 145.167 -4.08824 -2.94752 0
M  V30 1438 H 144.769 -3.5007 -1.31633 0
M  V30 1439 H 147.061 -5.80168 -3.49874 0
M  V30 1440 H 148.004 -6.70654 -2.27219 0
M  V30 1441 H 148.412 -5.00012 -2.62007 0
M  V30 1442 N 147.81 0.181792 -1.56548 0
M  V30 1443 C 148.773 1.20894 -1.94724 0
M  V30 1444 C 149.773 1.37738 -0.829747 0
M  V30 1445 O 150.963 1.35323 -1.09697 0
M  V30 1446 C 148.095 2.57593 -2.23291 0
M  V30 1447 H 149.288 0.882275 -2.86629 0
M  V30 1448 H 146.841 0.423838 -1.50444 0
M  V30 1449 H 147.576 2.95291 -1.34067 0
M  V30 1450 H 147.361 2.46735 -3.04736 0
M  V30 1451 H 148.851 3.31637 -2.53785 0
M  V30 1452 N 149.288 1.51039 0.449983 0
M  V30 1453 C 150.236 1.71995 1.5659 0
M  V30 1454 C 151.23 0.586029 1.5894 0
M  V30 1455 O 152.436 0.76709 1.62837 0
M  V30 1456 H 148.811 0.543233 0.520001 0
M  V30 1457 H 150.782 2.65562 1.36085 0
M  V30 1458 C 149.531 1.8506 2.9436 0
M  V30 1459 H 148.854 2.71712 2.93279 0
M  V30 1460 H 150.294 2.0374 3.71842 0
M  V30 1461 C 148.753 0.607277 3.31382 0
M  V30 1462 O 149.283 -0.243903 4.00959 0
M  V30 1463 N 147.489 0.455073 2.87015 0
M  V30 1464 H 147.036 1.14879 2.30566 0
M  V30 1465 H 146.994 -0.375611 3.12148 0
M  V30 1466 N 150.766 -0.704594 1.40972 0
M  V30 1467 C 151.994 -1.49354 1.43182 0
M  V30 1468 C 152.409 -1.88768 0.0345508 0
M  V30 1469 O 151.766 -1.56184 -0.944081 0
M  V30 1470 C 151.817 -2.76187 2.33244 0
M  V30 1471 O 151.538 -2.38436 3.67532 0
M  V30 1472 C 153.039 -3.7 2.44162 0
M  V30 1473 H 150.259 -0.460559 0.487982 0
M  V30 1474 H 152.803 -0.868261 1.85153 0
M  V30 1475 H 150.958 -3.34974 1.94606 0
M  V30 1476 H 151.372 -3.20126 4.15475 0
M  V30 1477 H 152.846 -4.55803 3.11364 0
M  V30 1478 H 153.323 -4.13867 1.47006 0
M  V30 1479 H 153.929 -3.17121 2.83398 0
M  V30 1480 N 152.244 -1.26651 -0.937939 0
M  V30 1481 C 153.492 -1.12165 -1.68118 0
M  V30 1482 C 153.813 0.334983 -1.92101 0
M  V30 1483 O 153.083 1.23583 -1.52 0
M  V30 1484 H 151.663 -0.412093 -0.623048 0
M  V30 1485 H 154.325 -1.59027 -1.12678 0
M  V30 1486 H 153.421 -1.64289 -2.6536 0
M  V30 1487 N 153.722 1.14298 -1.08507 0
M  V30 1488 C 154.971 1.84708 -0.810305 0
M  V30 1489 C 155.284 1.83903 0.666271 0
M  V30 1490 O 156.49 2.50112 1.05624 0
M  V30 1491 C 154.946 3.31572 -1.39957 0
M  V30 1492 C 154.554 3.40791 -2.90801 0
M  V30 1493 C 156.298 4.07087 -1.20334 0
M  V30 1494 C 154.205 4.81872 -3.4286 0
M  V30 1495 H 153.135 0.691985 -0.299454 0
M  V30 1496 H 155.786 1.28841 -1.30661 0
M  V30 1497 H 154.168 3.87183 -0.830976 0
M  V30 1498 H 155.342 2.95225 -3.53806 0
M  V30 1499 H 153.657 2.78732 -3.0935 0
M  V30 1500 H 156.254 5.11225 -1.56693 0
M  V30 1501 H 156.597 4.16054 -0.143237 0
M  V30 1502 H 157.13 3.57779 -1.73893 0
M  V30 1503 H 153.869 4.78094 -4.48449 0
M  V30 1504 H 153.389 5.27972 -2.84615 0
M  V30 1505 H 155.068 5.50765 -3.39509 0
M  V30 1506 N 155.201 0.870884 1.31352 0
M  V30 1507 C 156.45 0.478408 1.95944 0
M  V30 1508 C 156.763 -0.974493 1.69597 0
M  V30 1509 O 157.969 -1.47316 2.28058 0
M  V30 1510 C 156.425 0.804609 3.50791 0
M  V30 1511 C 156.033 2.27433 3.85977 0
M  V30 1512 C 157.777 0.480648 4.2177 0
M  V30 1513 C 155.684 2.5429 5.33939 0
M  V30 1514 H 154.614 0.175175 0.733369 0
M  V30 1515 H 157.265 1.06391 1.4951 0
M  V30 1516 H 155.647 0.148347 3.95722 0
M  V30 1517 H 156.821 2.97373 3.52002 0
M  V30 1518 H 155.136 2.56442 3.28065 0
M  V30 1519 H 157.733 0.658519 5.30629 0
M  V30 1520 H 158.076 -0.578979 4.12254 0
M  V30 1521 H 158.609 1.09349 3.82476 0
M  V30 1522 H 155.348 3.58939 5.48491 0
M  V30 1523 H 154.868 1.88945 5.69263 0
M  V30 1524 H 156.547 2.39066 6.01212 0
M  V30 1525 N 156.679 -1.44442 0.630414 0
M  V30 1526 C 157.609 -2.33418 -0.0618083 0
M  V30 1527 C 158.59 -1.48165 -0.835541 0
M  V30 1528 O 159.775 -1.76886 -0.801564 0
M  V30 1529 C 156.905 -3.31222 -1.04449 0
M  V30 1530 C 155.859 -4.26288 -0.382436 0
M  V30 1531 C 155.185 -5.13954 -1.47497 0
M  V30 1532 C 156.485 -5.1744 0.710865 0
M  V30 1533 H 158.179 -2.91548 0.681184 0
M  V30 1534 H 155.725 -1.40191 0.329026 0
M  V30 1535 H 157.678 -3.92351 -1.53748 0
M  V30 1536 H 156.402 -2.71299 -1.81836 0
M  V30 1537 H 155.061 -3.6649 0.0899054 0
M  V30 1538 H 154.709 -4.50385 -2.2397 0
M  V30 1539 H 154.409 -5.7837 -1.03737 0
M  V30 1540 H 155.933 -5.77955 -1.96979 0
M  V30 1541 H 157.347 -5.72509 0.300996 0
M  V30 1542 H 155.744 -5.90455 1.07156 0
M  V30 1543 H 156.814 -4.58496 1.57829 0
M  V30 1544 N 158.157 -0.370918 -1.53173 0
M  V30 1545 C 159.404 0.217102 -2.01333 0
M  V30 1546 C 159.732 1.48338 -1.25802 0
M  V30 1547 O 158.987 1.92698 -0.34146 0
M  V30 1548 C 159.286 0.549696 -3.53147 0
M  V30 1549 C 158.952 -0.622872 -4.46577 0
M  V30 1550 C 157.614 -0.944595 -4.71838 0
M  V30 1551 C 159.966 -1.40819 -5.01816 0
M  V30 1552 C 157.294 -2.05351 -5.49589 0
M  V30 1553 C 159.646 -2.50757 -5.80778 0
M  V30 1554 C 158.31 -2.83458 -6.04324 0
M  V30 1555 H 157.58 0.0794431 -0.736729 0
M  V30 1556 H 160.227 -0.504481 -1.84736 0
M  V30 1557 H 158.532 1.35237 -3.6772 0
M  V30 1558 H 160.229 1.017 -3.87889 0
M  V30 1559 H 156.819 -0.36209 -4.27068 0
M  V30 1560 H 161.003 -1.17289 -4.82242 0
M  V30 1561 H 156.259 -2.3108 -5.6605 0
M  V30 1562 H 160.433 -3.12022 -6.22588 0
M  V30 1563 H 158.06 -3.69508 -6.64355 0
M  V30 1564 N 159.635 1.57281 -0.100228 0
M  V30 1565 C 160.884 1.93713 0.561984 0
M  V30 1566 C 161.197 0.984492 1.69018 0
M  V30 1567 O 162.403 1.24273 2.41389 0
M  V30 1568 C 160.859 3.4421 1.05106 0
M  V30 1569 C 160.467 4.47975 -0.0476628 0
M  V30 1570 C 162.211 3.89595 1.68571 0
M  V30 1571 C 160.118 5.89631 0.457055 0
M  V30 1572 H 159.048 0.723082 0.2137 0
M  V30 1573 H 161.699 1.82644 -0.177057 0
M  V30 1574 H 160.081 3.50449 1.84395 0
M  V30 1575 H 161.255 4.53385 -0.823333 0
M  V30 1576 H 159.57 4.1223 -0.587816 0
M  V30 1577 H 162.167 4.92832 2.07414 0
M  V30 1578 H 162.51 3.28526 2.55688 0
M  V30 1579 H 163.043 3.86078 0.958562 0
M  V30 1580 H 159.782 6.54411 -0.377616 0
M  V30 1581 H 159.302 5.87681 1.19962 0
M  V30 1582 H 160.981 6.40363 0.92437 0
M  V30 1583 N 161.113 -0.173488 1.56642 0
M  V30 1584 C 162.362 -0.888758 1.81063 0
M  V30 1585 C 162.675 -1.83506 0.67712 0
M  V30 1586 O 163.881 -2.59254 0.806206 0
M  V30 1587 C 162.337 -1.63091 3.20826 0
M  V30 1588 C 161.945 -0.728357 4.4204 0
M  V30 1589 C 163.689 -2.33454 3.54541 0
M  V30 1590 C 161.596 -1.47062 5.72823 0
M  V30 1591 H 160.526 -0.335618 0.675186 0
M  V30 1592 H 163.177 -0.141712 1.82952 0
M  V30 1593 H 161.559 -2.42263 3.13248 0
M  V30 1594 H 162.733 0.0262449 4.60793 0
M  V30 1595 H 161.048 -0.134492 4.16183 0
M  V30 1596 H 163.645 -2.89578 4.49498 0
M  V30 1597 H 163.988 -3.08687 2.79317 0
M  V30 1598 H 164.521 -1.61227 3.63663 0
M  V30 1599 H 161.26 -0.760658 6.51072 0
M  V30 1600 H 160.78 -2.1986 5.58052 0
M  V30 1601 H 162.459 -2.01868 6.14702 0
M  V30 1602 N 162.591 -1.51276 -0.441967 0
M  V30 1603 C 163.524 -1.66933 -1.55591 0
M  V30 1604 C 164.502 -0.516958 -1.54163 0
M  V30 1605 O 165.686 -0.740209 -1.73358 0
M  V30 1606 C 162.813 -1.67866 -2.94174 0
M  V30 1607 C 161.859 -2.89013 -3.13646 0
M  V30 1608 S 162.692 -4.49897 -2.90436 0
M  V30 1609 C 163.848 -4.53568 -4.31308 0
M  V30 1610 H 164.081 -2.61155 -1.42076 0
M  V30 1611 H 161.614 -1.40902 -0.631341 0
M  V30 1612 H 163.572 -1.69089 -3.74058 0
M  V30 1613 H 162.233 -0.748296 -3.05056 0
M  V30 1614 H 161.426 -2.86054 -4.14957 0
M  V30 1615 H 161.028 -2.85509 -2.4158 0
M  V30 1616 H 163.32 -4.28924 -5.24434 0
M  V30 1617 H 164.263 -5.55355 -4.39303 0
M  V30 1618 H 164.671 -3.82943 -4.14747 0
M  V30 1619 N 164.069 0.697108 -1.41344 0
M  V30 1620 C 164.999 1.82353 -1.45841 0
M  V30 1621 C 165.98 1.67115 -0.317247 0
M  V30 1622 O 167.165 1.86871 -0.528474 0
M  V30 1623 C 164.295 3.20476 -1.33838 0
M  V30 1624 C 163.249 3.50415 -2.4575 0
M  V30 1625 C 162.575 4.87878 -2.18813 0
M  V30 1626 C 163.875 3.49546 -3.88091 0
M  V30 1627 H 165.569 1.78846 -2.40113 0
M  V30 1628 H 163.115 0.859028 -1.15571 0
M  V30 1629 H 165.068 3.98988 -1.35596 0
M  V30 1630 H 163.792 3.24604 -0.360498 0
M  V30 1631 H 162.451 2.74253 -2.43271 0
M  V30 1632 H 162.099 4.8863 -1.19371 0
M  V30 1633 H 161.799 5.08875 -2.93803 0
M  V30 1634 H 163.323 5.68702 -2.22284 0
M  V30 1635 H 164.737 4.18066 -3.92293 0
M  V30 1636 H 163.134 3.82075 -4.62751 0
M  V30 1637 H 164.204 2.48552 -4.16353 0
M  V30 1638 N 165.547 1.27147 0.931209 0
M  V30 1639 C 166.477 1.12081 2.04842 0
M  V30 1640 C 167.458 0.0232364 1.70084 0
M  V30 1641 O 168.643 0.197085 1.93197 0
M  V30 1642 C 165.773 0.76354 3.38803 0
M  V30 1643 C 164.727 1.81396 3.87659 0
M  V30 1644 C 164.053 1.31075 5.18385 0
M  V30 1645 C 165.353 3.21739 4.11438 0
M  V30 1646 H 167.047 2.05537 2.17703 0
M  V30 1647 H 164.593 0.989603 1.04608 0
M  V30 1648 H 166.546 0.644982 4.16435 0
M  V30 1649 H 165.27 -0.206727 3.25945 0
M  V30 1650 H 163.929 1.92136 3.12217 0
M  V30 1651 H 163.577 0.330037 5.01916 0
M  V30 1652 H 163.277 2.013 5.52044 0
M  V30 1653 H 164.801 1.20506 5.98591 0
M  V30 1654 H 166.215 3.14019 4.79651 0
M  V30 1655 H 164.612 3.89644 4.56397 0
M  V30 1656 H 165.682 3.67054 3.16859 0
M  V30 1657 N 167.025 -1.13721 1.09112 0
M  V30 1658 C 167.988 -2.17222 0.731241 0
M  V30 1659 C 168.988 -1.59035 -0.237566 0
M  V30 1660 O 170.178 -1.74192 -0.0161704 0
M  V30 1661 C 167.31 -3.40804 0.0808443 0
M  V30 1662 H 168.503 -2.50573 1.64783 0
M  V30 1663 H 166.056 -1.28493 0.889897 0
M  V30 1664 H 166.791 -3.1304 -0.847127 0
M  V30 1665 H 166.576 -3.84306 0.777896 0
M  V30 1666 H 168.066 -4.1731 -0.155657 0
M  V30 1667 N 168.503 -0.877838 -1.30888 0
M  V30 1668 C 169.749 -0.493426 -1.96706 0
M  V30 1669 C 170.082 0.953504 -1.6918 0
M  V30 1670 O 169.357 1.67266 -0.992594 0
M  V30 1671 C 169.64 -0.760429 -3.51979 0
M  V30 1672 C 169.493 -2.25747 -3.89048 0
M  V30 1673 C 170.812 -0.232148 -4.39487 0
M  V30 1674 H 167.931 -0.180746 -0.714493 0
M  V30 1675 H 170.573 -1.10052 -1.54882 0
M  V30 1676 H 168.723 -0.243715 -3.87735 0
M  V30 1677 H 170.395 -2.84204 -3.63354 0
M  V30 1678 H 168.638 -2.72694 -3.37373 0
M  V30 1679 H 169.309 -2.39491 -4.97341 0
M  V30 1680 H 171.785 -0.674314 -4.106 0
M  V30 1681 H 170.661 -0.448355 -5.47066 0
M  V30 1682 H 170.922 0.866297 -4.33529 0
M  V30 1683 N 169.982 1.44106 -0.638065 0
M  V30 1684 C 170.945 2.29138 0.0531013 0
M  V30 1685 C 171.945 1.41409 0.765506 0
M  V30 1686 O 173.135 1.63206 0.609046 0
M  V30 1687 C 170.267 3.23144 1.08584 0
M  V30 1688 H 171.46 2.91739 -0.694883 0
M  V30 1689 H 169.013 1.51134 -0.398538 0
M  V30 1690 H 169.748 2.65408 1.86357 0
M  V30 1691 H 169.533 3.87804 0.578852 0
M  V30 1692 H 171.023 3.87004 1.56899 0
M  V30 1693 N 171.46 0.379036 1.52974 0
M  V30 1694 C 172.709 -0.207612 2.00629 0
M  V30 1695 C 173.022 -1.48758 1.27006 0
M  V30 1696 O 174.228 -2.15365 1.65318 0
M  V30 1697 C 172.684 -0.42053 3.57435 0
M  V30 1698 C 172.292 0.845587 4.39948 0
M  V30 1699 C 174.036 -0.964102 4.13407 0
M  V30 1700 C 171.943 0.601513 5.88333 0
M  V30 1701 H 170.873 -0.0813591 0.749598 0
M  V30 1702 H 173.524 0.499853 1.76561 0
M  V30 1703 H 171.906 -1.18959 3.7771 0
M  V30 1704 H 173.08 1.61848 4.31442 0
M  V30 1705 H 171.395 1.31336 3.95145 0
M  V30 1706 H 173.992 -1.16225 5.21916 0
M  V30 1707 H 174.335 -1.93019 3.68849 0
M  V30 1708 H 174.868 -0.25487 3.96983 0
M  V30 1709 H 171.607 1.53831 6.37194 0
M  V30 1710 H 171.127 -0.132628 5.99653 0
M  V30 1711 H 172.806 0.232134 6.46583 0
M  V30 1712 N 172.938 -1.57226 0.108567 0
M  V30 1713 C 173.868 -2.17778 -0.84232 0
M  V30 1714 C 174.849 -1.11487 -1.2847 0
M  V30 1715 O 176.034 -1.39681 -1.34918 0
M  V30 1716 C 173.164 -2.76888 -2.09644 0
M  V30 1717 C 172.118 -3.88669 -1.79221 0
M  V30 1718 C 171.444 -4.34541 -3.11574 0
M  V30 1719 C 172.744 -5.11251 -1.06864 0
M  V30 1720 H 174.438 -2.97489 -0.337774 0
M  V30 1721 H 171.984 -1.43097 -0.161025 0
M  V30 1722 H 173.937 -3.17904 -2.76614 0
M  V30 1723 H 172.661 -1.94451 -2.62405 0
M  V30 1724 H 171.32 -3.48213 -1.14644 0
M  V30 1725 H 170.968 -3.48977 -3.62249 0
M  V30 1726 H 170.668 -5.09914 -2.91996 0
M  V30 1727 H 172.192 -4.782 -3.7968 0
M  V30 1728 H 173.606 -5.49352 -1.63968 0
M  V30 1729 H 172.003 -5.9214 -0.974178 0
M  V30 1730 H 173.073 -4.8487 -0.0536168 0
M  V30 1731 N 174.416 0.165178 -1.56732 0
M  V30 1732 C 175.641 0.900253 -1.86843 0
M  V30 1733 C 176.066 1.74766 -0.695596 0
M  V30 1734 O 175.424 1.77786 0.35522 0
M  V30 1735 C 175.472 1.74777 -3.15413 0
M  V30 1736 O 174.576 2.85007 -2.98068 0
M  V30 1737 H 173.917 0.251832 -0.614391 0
M  V30 1738 H 176.447 0.161468 -2.03962 0
M  V30 1739 H 176.457 2.14646 -3.46974 0
M  V30 1740 H 175.132 1.12537 -4.00385 0
M  V30 1741 H 173.709 2.48676 -2.77875 0
M  V30 1742 N 175.894 1.51508 0.433938 0
M  V30 1743 C 176.824 1.76016 1.53429 0
M  V30 1744 C 177.805 0.610112 1.58782 0
M  V30 1745 O 178.99 0.853177 1.74455 0
M  V30 1746 C 176.12 1.88831 2.9148 0
M  V30 1747 C 175.074 3.04288 3.00987 0
M  V30 1748 C 174.4 3.0229 4.4105 0
M  V30 1749 C 175.7 4.44193 2.74754 0
M  V30 1750 H 177.394 2.68152 1.33171 0
M  V30 1751 H 174.94 1.29035 0.639214 0
M  V30 1752 H 176.893 2.04559 3.6842 0
M  V30 1753 H 175.617 0.933455 3.12976 0
M  V30 1754 H 174.276 2.8827 2.26486 0
M  V30 1755 H 173.924 2.04576 4.59519 0
M  V30 1756 H 173.624 3.79822 4.4834 0
M  V30 1757 H 175.148 3.20116 5.1996 0
M  V30 1758 H 176.562 4.60544 3.41426 0
M  V30 1759 H 174.959 5.23457 2.9345 0
M  V30 1760 H 176.029 4.53996 1.70339 0
M  V30 1761 N 177.372 -0.689602 1.41712 0
M  V30 1762 C 178.602 -1.47613 1.44548 0
M  V30 1763 C 179.01 -1.89132 0.0509034 0
M  V30 1764 O 178.353 -1.57741 -0.94146 0
M  V30 1765 C 178.415 -2.76596 2.2964 0
M  V30 1766 C 178.079 -2.57245 3.77722 0
M  V30 1767 C 179.076 -2.22804 4.69739 0
M  V30 1768 C 176.761 -2.727 4.2183 0
M  V30 1769 C 178.755 -2.04064 6.03851 0
M  V30 1770 C 176.442 -2.53576 5.56006 0
M  V30 1771 C 177.44 -2.1931 6.46832 0
M  V30 1772 O 177.128 -2.00359 7.78532 0
M  V30 1773 H 176.86 -0.461227 0.494212 0
M  V30 1774 H 179.414 -0.856045 1.86711 0
M  V30 1775 H 177.644 -3.41033 1.82301 0
M  V30 1776 H 179.333 -3.38424 2.24107 0
M  V30 1777 H 180.099 -2.10473 4.36951 0
M  V30 1778 H 175.978 -2.98353 3.51435 0
M  V30 1779 H 179.522 -1.77241 6.74708 0
M  V30 1780 H 175.419 -2.65499 5.88371 0
M  V30 1781 H 176.187 -2.15075 7.89737 0
M  V30 1782 N 178.85 -1.27639 -0.924453 0
M  V30 1783 C 180.075 -1.17101 -1.71179 0
M  V30 1784 C 180.5 0.268134 -1.86179 0
M  V30 1785 O 179.858 1.19415 -1.36418 0
M  V30 1786 C 179.906 -1.86313 -3.08739 0
M  V30 1787 O 179.01 -1.16331 -3.95652 0
M  V30 1788 H 178.351 -0.407091 -0.524569 0
M  V30 1789 H 180.881 -1.68767 -1.15666 0
M  V30 1790 H 180.891 -1.938 -3.59034 0
M  V30 1791 H 179.566 -2.91001 -2.97138 0
M  V30 1792 H 178.143 -1.16935 -3.54091 0
M  V30 1793 N 180.328 1.1314 -1.09713 0
M  V30 1794 C 181.574 1.84757 -0.836224 0
M  V30 1795 C 181.907 1.8347 0.636598 0
M  V30 1796 O 181.182 1.27491 1.46889 0
M  V30 1797 C 181.465 3.32782 -1.37578 0
M  V30 1798 C 181.318 3.42567 -2.91493 0
M  V30 1799 C 182.637 4.28307 -1.01198 0
M  V30 1800 H 179.756 0.67082 -0.305236 0
M  V30 1801 H 182.398 1.3278 -1.35903 0
M  V30 1802 H 180.548 3.77177 -0.931097 0
M  V30 1803 H 182.22 3.06862 -3.44432 0
M  V30 1804 H 180.463 2.83349 -3.28475 0
M  V30 1805 H 181.134 4.46674 -3.24324 0
M  V30 1806 H 183.61 3.91999 -1.39556 0
M  V30 1807 H 182.486 5.30307 -1.41653 0
M  V30 1808 H 182.747 4.42029 0.0794833 0
M  V30 1809 N 181.806 0.884767 1.30421 0
M  V30 1810 C 182.756 0.322846 2.25703 0
M  V30 1811 C 183.74 -0.548582 1.51259 0
M  V30 1812 O 184.932 -0.39304 1.72581 0
M  V30 1813 C 182.061 -0.461787 3.4018 0
M  V30 1814 C 181.147 0.423717 4.21978 0
M  V30 1815 N 181.538 1.52408 4.82292 0
M  V30 1816 C 179.836 0.218795 4.45463 0
M  V30 1817 C 180.537 2.07136 5.43571 0
M  V30 1818 N 179.513 1.36635 5.26148 0
M  V30 1819 H 183.315 1.16363 2.69883 0
M  V30 1820 H 180.829 0.73415 1.44859 0
M  V30 1821 H 182.826 -0.880985 4.07485 0
M  V30 1822 H 181.486 -1.30001 2.9754 0
M  V30 1823 H 182.497 1.90693 4.81515 0
M  V30 1824 H 179.174 -0.582275 4.1342 0
M  V30 1825 H 180.564 2.99538 6.01437 0
M  V30 1826 N 183.284 -1.43765 0.645699 0
M  V30 1827 C 184.214 -2.33471 -0.0370477 0
M  V30 1828 C 185.195 -1.49042 -0.819779 0
M  V30 1829 O 186.38 -1.77726 -0.782758 0
M  V30 1830 C 183.51 -3.32311 -1.0093 0
M  V30 1831 C 182.464 -4.2667 -0.337201 0
M  V30 1832 C 181.79 -5.1549 -1.42037 0
M  V30 1833 C 183.09 -5.16657 0.765706 0
M  V30 1834 H 184.784 -2.90809 0.712069 0
M  V30 1835 H 182.33 -1.39834 0.343876 0
M  V30 1836 H 184.283 -3.9396 -1.49578 0
M  V30 1837 H 183.007 -2.73213 -1.78948 0
M  V30 1838 H 181.666 -3.66374 0.128771 0
M  V30 1839 H 181.314 -4.52735 -2.1918 0
M  V30 1840 H 181.014 -5.79438 -0.975966 0
M  V30 1841 H 182.538 -5.80012 -1.90838 0
M  V30 1842 H 183.952 -5.72158 0.361702 0
M  V30 1843 H 182.349 -5.89286 1.13413 0
M  V30 1844 H 183.419 -4.56796 1.62683 0
M  V30 1845 N 184.763 -0.387143 -1.52771 0
M  V30 1846 C 185.693 0.440551 -2.29306 0
M  V30 1847 C 186.674 1.06535 -1.32606 0
M  V30 1848 O 187.859 1.07853 -1.61497 0
M  V30 1849 C 184.989 1.56919 -3.09829 0
M  V30 1850 C 183.943 1.07054 -4.14395 0
M  V30 1851 C 183.269 2.29109 -4.83129 0
M  V30 1852 C 184.569 0.140015 -5.22112 0
M  V30 1853 H 186.263 -0.198026 -2.98744 0
M  V30 1854 H 183.809 -0.09668 -1.43675 0
M  V30 1855 H 185.762 2.15503 -3.62128 0
M  V30 1856 H 184.486 2.23532 -2.3812 0
M  V30 1857 H 183.145 0.507247 -3.63074 0
M  V30 1858 H 182.793 2.94227 -4.0797 0
M  V30 1859 H 182.493 1.96406 -5.53804 0
M  V30 1860 H 184.017 2.88339 -5.38231 0
M  V30 1861 H 185.431 0.633978 -5.69784 0
M  V30 1862 H 183.828 -0.0971485 -6.00021 0
M  V30 1863 H 184.898 -0.811711 -4.78058 0
M  V30 1864 N 186.241 1.57166 -0.116904 0
M  V30 1865 C 187.171 2.18222 0.830759 0
M  V30 1866 C 188.152 1.12167 1.27877 0
M  V30 1867 O 189.337 1.40394 1.34176 0
M  V30 1868 C 186.467 2.77996 2.08172 0
M  V30 1869 C 185.421 3.89614 1.77157 0
M  V30 1870 C 184.747 4.36187 3.09265 0
M  V30 1871 C 186.047 5.1181 1.04151 0
M  V30 1872 H 187.741 2.97664 0.321992 0
M  V30 1873 H 185.287 1.4318 0.153434 0
M  V30 1874 H 187.24 3.19366 2.74924 0
M  V30 1875 H 185.964 1.9584 2.6137 0
M  V30 1876 H 184.623 3.48816 1.12796 0
M  V30 1877 H 184.271 3.50893 3.60393 0
M  V30 1878 H 183.971 5.11455 2.89288 0
M  V30 1879 H 185.495 4.80207 3.77139 0
M  V30 1880 H 186.909 5.50214 1.61052 0
M  V30 1881 H 185.306 5.92648 0.942762 0
M  V30 1882 H 186.376 4.84892 0.0279022 0
M  V30 1883 N 187.719 -0.156864 1.56817 0
M  V30 1884 C 188.666 -1.19394 1.97519 0
M  V30 1885 C 189.636 -1.4322 0.841265 0
M  V30 1886 O 190.821 -1.55719 1.10255 0
M  V30 1887 C 187.961 -2.52483 2.35258 0
M  V30 1888 C 187.074 -2.35914 3.61896 0
M  V30 1889 C 186.209 -3.61969 3.88782 0
M  V30 1890 C 185.248 -3.40395 5.08722 0
M  V30 1891 N 184.385 -4.58556 5.31668 0
M  V30 1892 H 189.225 -0.839845 2.85921 0
M  V30 1893 H 186.762 -0.403264 1.41464 0
M  V30 1894 H 188.72 -3.30071 2.55165 0
M  V30 1895 H 187.35 -2.85859 1.49949 0
M  V30 1896 H 186.402 -1.49429 3.49821 0
M  V30 1897 H 187.714 -2.15926 4.49641 0
M  V30 1898 H 186.868 -4.47989 4.09135 0
M  V30 1899 H 185.607 -3.84951 2.9944 0
M  V30 1900 H 184.612 -2.52763 4.88253 0
M  V30 1901 H 185.837 -3.18822 5.99608 0
M  V30 1902 H 183.783 -4.81729 4.45279 0
M  V30 1903 H 183.7 -4.41535 6.13664 0
M  V30 1904 H 184.968 -5.45817 5.5651 0
M  V30 1905 N 189.197 -1.51736 -0.425897 0
M  V30 1906 C 190.425 -1.68794 -1.1965 0
M  V30 1907 C 190.84 -0.390164 -1.84725 0
M  V30 1908 O 190.197 0.632376 -1.71194 0
M  V30 1909 C 190.248 -2.81174 -2.27208 0
M  V30 1910 O 189.969 -4.05925 -1.64793 0
M  V30 1911 C 191.47 -3.09599 -3.17275 0
M  V30 1912 H 188.69 -0.566128 -0.360194 0
M  V30 1913 H 191.234 -1.98211 -0.503249 0
M  V30 1914 H 189.389 -2.54324 -2.9223 0
M  V30 1915 H 189.803 -4.68423 -2.35967 0
M  V30 1916 H 191.277 -3.91786 -3.88854 0
M  V30 1917 H 191.754 -2.22468 -3.78688 0
M  V30 1918 H 192.36 -3.38151 -2.57941 0
M  V30 1919 N 190.675 0.682077 -1.42076 0
M  V30 1920 C 191.638 1.77756 -1.44691 0
M  V30 1921 C 192.638 1.5726 -0.335535 0
M  V30 1922 O 193.828 1.63686 -0.596037 0
M  V30 1923 C 190.96 3.16301 -1.27146 0
M  V30 1924 H 192.153 1.76826 -2.42224 0
M  V30 1925 H 189.706 0.891012 -1.28416 0
M  V30 1926 H 190.441 3.22862 -0.305075 0
M  V30 1927 H 190.226 3.32581 -2.07683 0
M  V30 1928 H 191.716 3.96241 -1.31843 0
M  V30 1929 N 192.153 1.28127 0.917671 0
M  V30 1930 C 193.1 1.11717 2.0196 0
M  V30 1931 C 194.07 0.0153929 1.66093 0
M  V30 1932 O 195.255 0.179596 1.89953 0
M  V30 1933 C 192.395 0.780927 3.36148 0
M  V30 1934 C 191.508 1.96135 3.84909 0
M  V30 1935 C 190.643 1.56609 5.0759 0
M  V30 1936 C 189.682 2.71339 5.48673 0
M  V30 1937 N 188.819 2.32332 6.62545 0
M  V30 1938 H 193.659 2.06003 2.15329 0
M  V30 1939 H 191.196 1.02535 1.05475 0
M  V30 1940 H 193.154 0.56675 4.13333 0
M  V30 1941 H 191.784 -0.124998 3.22558 0
M  V30 1942 H 190.836 2.28777 3.03916 0
M  V30 1943 H 192.148 2.82165 4.1132 0
M  V30 1944 H 191.302 1.31374 5.92305 0
M  V30 1945 H 190.041 0.677014 4.82978 0
M  V30 1946 H 189.046 2.97276 4.62501 0
M  V30 1947 H 190.271 3.60882 5.75274 0
M  V30 1948 H 188.217 1.45889 6.39572 0
M  V30 1949 H 188.134 3.11899 6.88662 0
M  V30 1950 H 189.402 2.10371 7.50576 0
M  V30 1951 N 193.631 -1.12557 1.10312 0
M  V30 1952 C 194.541 -2.21841 0.763142 0
M  V30 1953 C 195.557 -1.72354 -0.238801 0
M  V30 1954 O 196.733 -2.01249 -0.0778746 0
M  V30 1955 C 193.798 -3.46131 0.198632 0
M  V30 1956 C 192.859 -4.10464 1.25769 0
M  V30 1957 C 192.092 -5.28821 0.72002 0
M  V30 1958 O 192.315 -5.6859 -0.453993 0
M  V30 1959 O 191.249 -5.83437 1.47935 0
M  V30 1960 H 195.075 -2.53312 1.67532 0
M  V30 1961 H 192.66 -1.20867 0.878157 0
M  V30 1962 H 194.542 -4.2125 -0.112401 0
M  V30 1963 H 193.217 -3.16338 -0.686419 0
M  V30 1964 H 192.124 -3.3713 1.62156 0
M  V30 1965 H 193.457 -4.44408 2.11571 0
M  V30 1966 N 195.109 -0.891671 -1.2995 0
M  V30 1967 C 196.357 -0.512486 -1.95494 0
M  V30 1968 C 196.678 0.942776 -1.70695 0
M  V30 1969 O 195.948 1.66374 -1.03424 0
M  V30 1970 H 194.528 -0.186533 -0.723336 0
M  V30 1971 H 197.19 -1.13621 -1.58355 0
M  V30 1972 H 196.286 -0.688342 -3.04415 0
M  V30 1973 N 196.587 1.43421 -0.653314 0
M  V30 1974 C 197.835 2.01414 -0.166415 0
M  V30 1975 C 198.156 1.51803 1.22397 0
M  V30 1976 O 197.426 0.730693 1.81763 0
M  V30 1977 H 196.006 0.744703 -0.0585319 0
M  V30 1978 H 198.668 1.75629 -0.845003 0
M  V30 1979 H 197.764 3.11734 -0.151111 0
M  V30 1980 N 198.065 0.39524 1.52563 0
M  V30 1981 C 199.29 -0.187456 2.06551 0
M  V30 1982 C 199.715 -1.39249 1.26457 0
M  V30 1983 O 199.073 -1.78947 0.291151 0
M  V30 1984 C 199.121 -0.529985 3.56684 0
M  V30 1985 O 198.225 -1.62307 3.79118 0
M  V30 1986 H 197.566 -0.0202537 0.663691 0
M  V30 1987 H 200.096 0.564426 1.96661 0
M  V30 1988 H 200.106 -0.792598 4.00227 0
M  V30 1989 H 198.781 0.350987 4.14416 0
M  V30 1990 H 197.358 -1.3537 3.47461 0
M  V30 1991 N 199.544 -1.57102 0.125237 0
M  V30 1992 C 200.474 -2.18659 -0.819174 0
M  V30 1993 C 201.455 -1.12843 -1.27281 0
M  V30 1994 O 202.64 -1.41104 -1.33429 0
M  V30 1995 C 199.77 -2.79096 -2.06695 0
M  V30 1996 C 198.724 -3.90548 -1.75088 0
M  V30 1997 C 198.05 -4.37821 -3.06948 0
M  V30 1998 C 199.35 -5.12356 -1.01435 0
M  V30 1999 H 201.044 -2.9783 -0.306202 0
M  V30 2000 H 198.59 -1.4326 -0.145839 0
M  V30 2001 H 200.543 -3.2082 -2.73226 0
M  V30 2002 H 199.267 -1.97223 -2.60328 0
M  V30 2003 H 197.926 -3.49409 -1.10944 0
M  V30 2004 H 197.574 -3.52799 -3.58527 0
M  V30 2005 H 197.274 -5.12982 -2.86571 0
M  V30 2006 H 198.798 -4.822 -3.74587 0
M  V30 2007 H 200.212 -5.5106 -1.58132 0
M  V30 2008 H 198.609 -5.9314 -0.911319 0
M  V30 2009 H 199.679 -4.849 -0.00218681 0
M  V30 2010 N 201.022 0.148545 -1.56898 0
M  V30 2011 C 202.271 0.85984 -1.82454 0
M  V30 2012 C 202.584 1.82406 -0.706229 0
M  V30 2013 O 203.79 2.57938 -0.847349 0
M  V30 2014 C 202.246 1.57967 -3.2338 0
M  V30 2015 C 201.854 0.65794 -4.43142 0
M  V30 2016 C 203.598 2.27784 -3.58211 0
M  V30 2017 C 201.505 1.3793 -5.75091 0
M  V30 2018 H 200.435 0.324834 -0.68044 0
M  V30 2019 H 203.086 0.112588 -1.83154 0
M  V30 2020 H 201.468 2.37249 -3.17063 0
M  V30 2021 H 202.642 -0.0995497 -4.60692 0
M  V30 2022 H 200.957 0.0682643 -4.16344 0
M  V30 2023 H 203.554 2.8239 -4.54048 0
M  V30 2024 H 203.897 3.04204 -2.84193 0
M  V30 2025 H 204.43 1.55421 -3.66182 0
M  V30 2026 H 201.169 0.656982 -6.52199 0
M  V30 2027 H 200.689 2.10954 -5.61479 0
M  V30 2028 H 202.368 1.92063 -6.17835 0
M  V30 2029 N 202.5 1.5196 0.417844 0
M  V30 2030 C 203.73 1.69181 1.18581 0
M  V30 2031 C 204.138 0.397104 1.84986 0
M  V30 2032 O 203.481 -0.636011 1.72339 0
M  V30 2033 C 203.543 2.76497 2.29759 0
M  V30 2034 C 203.207 4.18514 1.83563 0
M  V30 2035 C 204.204 5.02648 1.32821 0
M  V30 2036 C 201.889 4.64708 1.90661 0
M  V30 2037 C 203.883 6.31044 0.897894 0
M  V30 2038 C 201.57 5.93096 1.47241 0
M  V30 2039 C 202.568 6.76093 0.968891 0
M  V30 2040 O 202.256 8.02078 0.540924 0
M  V30 2041 H 201.988 0.570457 0.362705 0
M  V30 2042 H 204.542 1.99249 0.498885 0
M  V30 2043 H 202.772 2.41786 3.01789 0
M  V30 2044 H 204.461 2.82403 2.91553 0
M  V30 2045 H 205.227 4.68154 1.26716 0
M  V30 2046 H 201.106 4.00216 2.28797 0
M  V30 2047 H 204.65 6.95776 0.504192 0
M  V30 2048 H 200.547 6.271 1.53022 0
M  V30 2049 H 201.315 8.15794 0.66502 0
M  V30 2050 N 203.978 -0.674533 1.42435 0
M  V30 2051 C 204.888 -1.81751 1.48337 0
M  V30 2052 C 205.904 -1.69975 0.372099 0
M  V30 2053 O 207.08 -1.91521 0.62304 0
M  V30 2054 C 204.145 -3.17895 1.38361 0
M  V30 2055 C 203.206 -3.41625 2.59982 0
M  V30 2056 C 202.439 -4.71274 2.50473 0
M  V30 2057 O 202.662 -5.49197 1.54075 0
M  V30 2058 O 201.596 -4.96254 3.4061 0
M  V30 2059 H 205.422 -1.79728 2.44809 0
M  V30 2060 H 203.007 -0.830312 1.24202 0
M  V30 2061 H 204.889 -3.99136 1.35161 0
M  V30 2062 H 203.564 -3.20555 0.450144 0
M  V30 2063 H 202.471 -2.60231 2.68757 0
M  V30 2064 H 203.804 -3.43796 3.52229 0
M  V30 2065 N 205.456 -1.28612 -0.910864 0
M  V30 2066 C 206.403 -1.12786 -2.01365 0
M  V30 2067 C 207.373 -0.024201 -1.66082 0
M  V30 2068 O 208.558 -0.189667 -1.89855 0
M  V30 2069 C 205.698 -0.798743 -3.35729 0
M  V30 2070 C 204.811 -1.98173 -3.83864 0
M  V30 2071 C 203.946 -1.59298 -5.06752 0
M  V30 2072 C 202.985 -2.74245 -5.47226 0
M  V30 2073 N 202.122 -2.35842 -6.61304 0
M  V30 2074 H 206.962 -2.07142 -2.14234 0
M  V30 2075 H 204.499 -1.03093 -1.0493 0
M  V30 2076 H 206.457 -0.588662 -4.13026 0
M  V30 2077 H 205.087 0.10789 -3.2262 0
M  V30 2078 H 204.139 -2.30386 -3.02699 0
M  V30 2079 H 205.451 -2.84343 -4.09818 0
M  V30 2080 H 204.605 -1.34513 -5.916 0
M  V30 2081 H 203.344 -0.702618 -4.82612 0
M  V30 2082 H 202.349 -2.99725 -4.60918 0
M  V30 2083 H 203.574 -3.63928 -5.73353 0
M  V30 2084 H 201.52 -1.49279 -6.38789 0
M  V30 2085 H 201.437 -3.15546 -6.86998 0
M  V30 2086 H 202.705 -2.14348 -7.4945 0
M  V30 2087 N 206.934 1.1197 -1.10907 0
M  V30 2088 C 207.864 2.19928 -0.784473 0
M  V30 2089 C 208.845 1.6833 0.244726 0
M  V30 2090 O 210.03 1.93892 0.109418 0
M  V30 2091 C 207.16 3.46597 -0.220827 0
M  V30 2092 C 206.114 4.11376 -1.18127 0
M  V30 2093 C 205.44 5.32554 -0.478594 0
M  V30 2094 C 206.74 4.56945 -2.52979 0
M  V30 2095 H 208.434 2.47337 -1.68715 0
M  V30 2096 H 205.98 1.18879 -0.812642 0
M  V30 2097 H 207.933 4.21396 0.0184278 0
M  V30 2098 H 206.657 3.1863 0.717113 0
M  V30 2099 H 205.316 3.38564 -1.40606 0
M  V30 2100 H 204.964 5.00856 0.463976 0
M  V30 2101 H 204.664 5.76844 -1.11912 0
M  V30 2102 H 206.188 6.10096 -0.248 0
M  V30 2103 H 207.602 5.23093 -2.3462 0
M  V30 2104 H 205.999 5.1203 -3.12962 0
M  V30 2105 H 207.069 3.70676 -3.12614 0
M  V30 2106 N 208.412 0.89855 1.29475 0
M  V30 2107 C 209.66 0.522847 1.9522 0
M  V30 2108 C 209.981 -0.93371 1.71192 0
M  V30 2109 O 209.251 -1.65823 1.04305 0
M  V30 2110 H 207.831 0.190366 0.722336 0
M  V30 2111 H 210.493 1.14459 1.5775 0
M  V30 2112 H 209.589 0.704476 3.04045 0
M  V30 2113 N 209.89 -1.43072 0.660911 0
M  V30 2114 C 210.8 -2.34585 -0.0264163 0
M  V30 2115 C 211.816 -1.54316 -0.803898 0
M  V30 2116 O 212.992 -1.86939 -0.749391 0
M  V30 2117 C 210.057 -3.32689 -0.975639 0
M  V30 2118 C 209.118 -4.2886 -0.194236 0
M  V30 2119 C 208.351 -5.22278 -1.09825 0
M  V30 2120 O 208.574 -5.20299 -2.33763 0
M  V30 2121 O 207.508 -5.99228 -0.566513 0
M  V30 2122 H 211.334 -2.94869 0.727034 0
M  V30 2123 H 208.919 -1.43342 0.42111 0
M  V30 2124 H 210.801 -3.92995 -1.52094 0
M  V30 2125 H 209.476 -2.74898 -1.70918 0
M  V30 2126 H 208.383 -3.72011 0.394835 0
M  V30 2127 H 209.716 -4.89655 0.499899 0
M  V30 2128 N 211.368 -0.403325 -1.52352 0
M  V30 2129 C 212.315 0.425011 -2.26853 0
M  V30 2130 C 213.285 1.04598 -1.29029 0
M  V30 2131 O 214.47 1.07135 -1.57882 0
M  V30 2132 C 211.61 1.53888 -3.08889 0
M  V30 2133 C 210.723 0.939396 -4.21663 0
M  V30 2134 C 209.858 2.02547 -4.91068 0
M  V30 2135 C 208.897 1.40263 -5.95813 0
M  V30 2136 N 208.034 2.4286 -6.58759 0
M  V30 2137 H 212.874 -0.21674 -2.97211 0
M  V30 2138 H 210.411 -0.118722 -1.4662 0
M  V30 2139 H 212.369 2.19558 -3.54753 0
M  V30 2140 H 210.999 2.15074 -2.40714 0
M  V30 2141 H 210.051 0.171898 -3.80011 0
M  V30 2142 H 211.363 0.44436 -4.96817 0
M  V30 2143 H 210.517 2.75958 -5.40308 0
M  V30 2144 H 209.256 2.55415 -4.15469 0
M  V30 2145 H 208.261 0.653833 -5.45898 0
M  V30 2146 H 209.486 0.881719 -6.73352 0
M  V30 2147 H 207.432 2.94871 -5.85992 0
M  V30 2148 H 207.349 1.98152 -7.2957 0
M  V30 2149 H 208.617 3.15858 -7.12639 0
M  V30 2150 N 212.846 1.57033 -0.133567 0
M  V30 2151 C 213.809 2.14897 0.796995 0
M  V30 2152 C 214.809 1.0874 1.18458 0
M  V30 2153 O 215.999 1.34446 1.1077 0
M  V30 2154 C 213.131 2.70112 2.07973 0
M  V30 2155 H 214.324 2.98457 0.293873 0
M  V30 2156 H 211.877 1.55871 0.115787 0
M  V30 2157 H 212.612 1.9018 2.62682 0
M  V30 2158 H 212.397 3.47764 1.81115 0
M  V30 2159 H 213.887 3.14738 2.74462 0
M  V30 2160 N 214.325 -0.140222 1.56975 0
M  V30 2161 C 215.572 -0.851687 1.83719 0
M  V30 2162 C 215.9 -1.80862 0.715485 0
M  V30 2163 O 215.155 -1.93464 -0.294956 0
M  V30 2164 C 215.454 -1.65386 3.16832 0
M  V30 2165 C 215.12 -0.843112 4.42947 0
M  V30 2166 C 213.782 -0.619464 4.77196 0
M  V30 2167 C 216.134 -0.276582 5.20466 0
M  V30 2168 C 213.462 0.181312 5.8642 0
M  V30 2169 C 215.814 0.51127 6.30531 0
M  V30 2170 C 214.478 0.745432 6.63325 0
M  V30 2171 H 213.748 -0.311654 0.672274 0
M  V30 2172 H 216.395 -0.115006 1.91154 0
M  V30 2173 H 214.7 -2.46084 3.04877 0
M  V30 2174 H 216.397 -2.20793 3.34741 0
M  V30 2175 H 212.987 -1.0275 4.16101 0
M  V30 2176 H 217.171 -0.436632 4.94376 0
M  V30 2177 H 212.427 0.372165 6.10266 0
M  V30 2178 H 216.601 0.957354 6.89788 0
M  V30 2179 H 214.228 1.36778 7.47794 0
M  V30 2180 N 215.803 -1.52179 -0.40978 0
M  V30 2181 C 217.051 -1.65878 -1.15451 0
M  V30 2182 C 217.372 -0.390771 -1.91044 0
M  V30 2183 O 216.642 0.594323 -1.86667 0
M  V30 2184 H 215.222 -0.611405 -0.429177 0
M  V30 2185 H 217.884 -1.89219 -0.467134 0
M  V30 2186 H 216.98 -2.49954 -1.86894 0
M  V30 2187 N 217.281 0.66697 -1.42791 0
M  V30 2188 C 218.527 1.42754 -1.44889 0
M  V30 2189 C 218.882 1.92283 -0.0669755 0
M  V30 2190 O 218.175 1.68494 0.912154 0
M  V30 2191 C 218.369 2.6349 -2.4147 0
M  V30 2192 C 218.198 2.25776 -3.88915 0
M  V30 2193 C 216.968 2.1476 -4.57391 0
M  V30 2194 C 219.166 1.86927 -4.79127 0
M  V30 2195 N 217.148 1.70232 -5.89826 0
M  V30 2196 C 218.519 1.53378 -6.00729 0
M  V30 2197 C 220.574 1.73989 -4.66511 0
M  V30 2198 C 219.277 1.08187 -7.11117 0
M  V30 2199 C 221.303 1.30203 -5.76889 0
M  V30 2200 C 220.665 0.975818 -6.97608 0
M  V30 2201 H 216.764 0.518559 -0.585338 0
M  V30 2202 H 219.348 0.768906 -1.78874 0
M  V30 2203 H 217.519 3.27033 -2.09533 0
M  V30 2204 H 219.251 3.30123 -2.34096 0
M  V30 2205 H 216.006 2.3408 -4.11708 0
M  V30 2206 H 216.43 1.50369 -6.6009 0
M  V30 2207 H 221.072 1.97853 -3.7365 0
M  V30 2208 H 218.79 0.830701 -8.03819 0
M  V30 2209 H 222.376 1.20701 -5.69142 0
M  V30 2210 H 221.256 0.642157 -7.81566 0
M  V30 2211 N 218.759 1.29093 0.90403 0
M  V30 2212 C 220.17 1.15186 1.46932 0
M  V30 2213 C 220.521 -0.254587 1.94541 0
M  V30 2214 O 219.646 -1.14972 1.83332 0
M  V30 2215 C 220.241 2.08492 2.67051 0
M  V30 2216 C 218.8 1.98621 3.19729 0
M  V30 2217 C 217.947 1.9967 1.92425 0
M  V30 2218 H 220.898 1.41641 0.715789 0
M  V30 2219 H 220.919 1.65461 3.42641 0
M  V30 2220 H 220.431 3.10847 2.3237 0
M  V30 2221 H 218.532 0.993389 3.59114 0
M  V30 2222 H 218.645 2.86068 3.8432 0
M  V30 2223 H 217.009 1.44208 2.09943 0
M  V30 2224 H 217.792 3.03721 1.60026 0
M  V30 2225 N 220.237 -1.11381 1.11499 0
M  V30 2226 C 221.485 -1.8277 0.862524 0
M  V30 2227 C 221.806 -1.85097 -0.613534 0
M  V30 2228 O 221.076 -1.32198 -1.4457 0
M  V30 2229 H 219.656 -0.676823 0.316101 0
M  V30 2230 H 222.318 -1.34816 1.4075 0
M  V30 2231 H 221.414 -2.86614 1.23527 0
M  V30 2232 N 221.715 -0.905404 -1.28997 0
M  V30 2233 C 222.662 -0.385892 -2.27551 0
M  V30 2234 C 223.632 0.535113 -1.57244 0
M  V30 2235 O 224.817 0.459119 -1.85194 0
M  V30 2236 C 221.957 0.375461 -3.43051 0
M  V30 2237 C 221.07 -0.577092 -4.28128 0
M  V30 2238 C 220.205 0.201879 -5.30816 0
M  V30 2239 C 219.244 -0.744829 -6.07551 0
M  V30 2240 N 218.381 9.42587e-05 -7.021 0
M  V30 2241 H 223.221 -1.23139 -2.71368 0
M  V30 2242 H 220.758 -0.618542 -1.33463 0
M  V30 2243 H 222.716 0.832992 -4.088 0
M  V30 2244 H 221.346 1.18537 -3.00248 0
M  V30 2245 H 220.398 -1.15315 -3.62501 0
M  V30 2246 H 221.71 -1.30152 -4.8152 0
M  V30 2247 H 220.864 0.720351 -6.02408 0
M  V30 2248 H 219.603 0.959413 -4.7817 0
M  V30 2249 H 218.608 -1.27475 -5.34818 0
M  V30 2250 H 219.833 -1.50178 -6.62286 0
M  V30 2251 H 217.779 0.739791 -6.51815 0
M  V30 2252 H 217.696 -0.664321 -7.53076 0
M  V30 2253 H 218.964 0.498644 -7.77903 0
M  V30 2254 N 223.193 1.4272 -0.668489 0
M  V30 2255 C 224.442 2.00846 -0.185389 0
M  V30 2256 C 224.755 1.53442 1.21305 0
M  V30 2257 O 225.961 2.03944 1.79218 0
M  V30 2258 C 224.417 3.58805 -0.280591 0
M  V30 2259 C 224.025 4.15198 -1.68268 0
M  V30 2260 C 225.769 4.24255 0.14412 0
M  V30 2261 C 223.676 5.655 -1.73099 0
M  V30 2262 H 222.606 0.751145 -0.0655475 0
M  V30 2263 H 225.257 1.63516 -0.832752 0
M  V30 2264 H 223.639 3.93608 0.434553 0
M  V30 2265 H 224.813 3.91866 -2.42441 0
M  V30 2266 H 223.128 3.62176 -2.05469 0
M  V30 2267 H 225.725 5.34547 0.128086 0
M  V30 2268 H 226.068 3.99277 1.17827 0
M  V30 2269 H 226.601 3.94389 -0.519798 0
M  V30 2270 H 223.34 5.95268 -2.74475 0
M  V30 2271 H 222.86 5.90842 -1.03274 0
M  V30 2272 H 224.539 6.29808 -1.48158 0
M  V30 2273 N 224.671 0.411399 1.52136 0
M  V30 2274 C 225.919 -0.163322 2.01439 0
M  V30 2275 C 226.24 -1.45453 1.29879 0
M  V30 2276 O 225.51 -1.91225 0.4254 0
M  V30 2277 H 224.09 -0.0633447 0.744309 0
M  V30 2278 H 226.752 0.548161 1.87033 0
M  V30 2279 H 225.848 -0.357817 3.10042 0
M  V30 2280 N 226.149 -1.5696 0.141893 0
M  V30 2281 C 227.112 -2.15316 -0.785587 0
M  V30 2282 C 228.112 -1.09366 -1.1788 0
M  V30 2283 O 229.302 -1.35031 -1.10056 0
M  V30 2284 C 226.434 -2.71211 -2.06537 0
M  V30 2285 H 227.627 -2.98608 -0.278041 0
M  V30 2286 H 225.18 -1.5593 -0.107519 0
M  V30 2287 H 225.915 -1.91571 -2.6167 0
M  V30 2288 H 225.7 -3.4872 -1.79268 0
M  V30 2289 H 227.19 -3.16189 -2.72789 0
M  V30 2290 N 227.627 0.131896 -1.57047 0
M  V30 2291 C 228.874 0.841932 -1.84168 0
M  V30 2292 C 229.202 1.8048 -0.725066 0
M  V30 2293 O 228.457 1.93618 0.284692 0
M  V30 2294 C 228.756 1.63703 -3.17704 0
M  V30 2295 C 228.422 0.81961 -4.43388 0
M  V30 2296 C 227.084 0.594148 -4.77518 0
M  V30 2297 C 229.436 0.248977 -5.20605 0
M  V30 2298 C 226.764 -0.212409 -5.86315 0
M  V30 2299 C 229.116 -0.544701 -6.30251 0
M  V30 2300 C 227.78 -0.780599 -6.6292 0
M  V30 2301 H 227.05 0.308085 -0.673917 0
M  V30 2302 H 229.697 0.104867 -1.91213 0
M  V30 2303 H 228.002 2.44464 -3.06177 0
M  V30 2304 H 229.699 2.19015 -3.35907 0
M  V30 2305 H 226.289 1.00542 -4.16641 0
M  V30 2306 H 230.473 0.410408 -4.946 0
M  V30 2307 H 225.729 -0.404524 -6.1006 0
M  V30 2308 H 229.903 -0.993922 -6.89271 0
M  V30 2309 H 227.53 -1.40742 -7.47058 0
M  V30 2310 N 229.106 1.52395 0.401703 0
M  V30 2311 C 230.352 1.67065 1.14966 0
M  V30 2312 C 230.685 0.403052 1.89971 0
M  V30 2313 O 229.96 -0.598774 1.85054 0
M  V30 2314 C 230.243 2.8975 2.13815 0
M  V30 2315 C 230.096 4.26578 1.42658 0
M  V30 2316 C 231.415 3.07965 3.14397 0
M  V30 2317 H 228.534 0.607968 0.416587 0
M  V30 2318 H 231.176 1.84965 0.434511 0
M  V30 2319 H 229.326 2.74619 2.74803 0
M  V30 2320 H 230.998 4.53451 0.847329 0
M  V30 2321 H 229.241 4.27639 0.72849 0
M  V30 2322 H 229.912 5.08483 2.14823 0
M  V30 2323 H 232.388 3.22043 2.63491 0
M  V30 2324 H 231.264 3.95308 3.80819 0
M  V30 2325 H 231.525 2.21611 3.82545 0
M  V30 2326 N 230.584 -0.659388 1.43143 0
M  V30 2327 C 231.809 -1.45221 1.48073 0
M  V30 2328 C 232.234 -1.87845 0.097995 0
M  V30 2329 O 231.592 -1.56985 -0.90694 0
M  V30 2330 C 231.64 -2.66748 2.42647 0
M  V30 2331 O 230.744 -3.65583 1.90848 0
M  V30 2332 H 230.085 -0.435669 0.501088 0
M  V30 2333 H 232.615 -0.807432 1.87994 0
M  V30 2334 H 232.625 -3.14637 2.59745 0
M  V30 2335 H 231.3 -2.35067 3.43098 0
M  V30 2336 H 229.877 -3.24693 1.83381 0
M  V30 2337 N 232.062 -1.29571 -0.897171 0
M  V30 2338 C 233.311 -1.1706 -1.64256 0
M  V30 2339 C 233.624 0.276476 -1.93636 0
M  V30 2340 O 234.83 0.52294 -2.66416 0
M  V30 2341 C 233.286 -2.0475 -2.95982 0
M  V30 2342 C 232.894 -3.54295 -2.74187 0
M  V30 2343 C 234.638 -2.0097 -3.73914 0
M  V30 2344 C 232.545 -4.34081 -4.01656 0
M  V30 2345 H 231.475 -0.43452 -0.616205 0
M  V30 2346 H 234.126 -1.54229 -0.994268 0
M  V30 2347 H 232.508 -1.60452 -3.62038 0
M  V30 2348 H 233.682 -4.06662 -2.1671 0
M  V30 2349 H 231.997 -3.59773 -2.09648 0
M  V30 2350 H 234.594 -2.57838 -4.68427 0
M  V30 2351 H 234.937 -0.990273 -4.0435 0
M  V30 2352 H 235.47 -2.43325 -3.14703 0
M  V30 2353 H 232.209 -5.36671 -3.76384 0
M  V30 2354 H 231.729 -3.86483 -4.58684 0
M  V30 2355 H 233.408 -4.44877 -4.69781 0
M  V30 2356 N 233.54 1.10788 -1.12088 0
M  V30 2357 C 234.768 1.86461 -0.896651 0
M  V30 2358 C 235.183 1.80492 0.553912 0
M  V30 2359 O 234.54 1.19102 1.38278 0
M  V30 2360 C 234.591 3.35006 -1.35843 0
M  V30 2361 O 234.312 3.40866 -2.75213 0
M  V30 2362 C 235.813 4.27565 -1.1706 0
M  V30 2363 H 233.033 0.589425 -0.320654 0
M  V30 2364 H 235.577 1.40076 -1.48993 0
M  V30 2365 H 233.732 3.7887 -0.808458 0
M  V30 2366 H 234.146 4.33411 -2.9539 0
M  V30 2367 H 235.62 5.30007 -1.54263 0
M  V30 2368 H 236.097 4.3906 -0.110814 0
M  V30 2369 H 236.703 3.89501 -1.70789 0
M  V30 2370 N 235.018 0.912232 1.28515 0
M  V30 2371 C 235.951 0.343928 2.25593 0
M  V30 2372 C 236.929 -0.550994 1.5298 0
M  V30 2373 O 238.113 -0.494991 1.81885 0
M  V30 2374 C 235.24 -0.508525 3.34861 0
M  V30 2375 C 234.286 0.320808 4.25292 0
M  V30 2376 S 235.119 1.72658 5.06902 0
M  V30 2377 C 236.275 0.881394 6.19663 0
M  V30 2378 H 236.508 1.16674 2.73449 0
M  V30 2379 H 234.041 0.713384 1.36931 0
M  V30 2380 H 235.999 -0.994539 3.9827 0
M  V30 2381 H 234.66 -1.30571 2.85675 0
M  V30 2382 H 233.853 -0.330941 5.02912 0
M  V30 2383 H 233.455 0.74042 3.66598 0
M  V30 2384 H 235.747 0.110359 6.7741 0
M  V30 2385 H 236.69 1.63009 6.89082 0
M  V30 2386 H 237.098 0.430239 5.62858 0
M  V30 2387 N 236.496 -1.42363 0.676048 0
M  V30 2388 C 237.428 -2.29164 -0.0404605 0
M  V30 2389 C 238.441 -1.43747 -0.764245 0
M  V30 2390 O 239.63 -1.67453 -0.618195 0
M  V30 2391 C 236.73 -3.21196 -1.08103 0
M  V30 2392 C 235.903 -4.35273 -0.430812 0
M  V30 2393 C 234.962 -5.08017 -1.37133 0
M  V30 2394 O 233.988 -5.62494 -0.87116 0
M  V30 2395 N 235.19 -5.13647 -2.70456 0
M  V30 2396 H 237.955 -2.91298 0.704667 0
M  V30 2397 H 235.516 -1.53303 0.520559 0
M  V30 2398 H 237.508 -3.66728 -1.71152 0
M  V30 2399 H 236.078 -2.60505 -1.72788 0
M  V30 2400 H 235.298 -3.92372 0.379209 0
M  V30 2401 H 236.586 -5.08795 0.0221132 0
M  V30 2402 H 235.984 -4.708 -3.1363 0
M  V30 2403 H 234.541 -5.62821 -3.28749 0
M  V30 2404 N 237.974 -0.419461 -1.51915 0
M  V30 2405 C 238.922 0.415502 -2.28859 0
M  V30 2406 C 239.916 1.03674 -1.3397 0
M  V30 2407 O 241.122 0.973757 -1.51387 0
M  V30 2408 H 237.497 0.152786 -0.736315 0
M  V30 2409 H 239.468 -0.254531 -2.97312 0
M  V30 2410 C 238.217 1.51425 -3.12995 0
M  V30 2411 H 237.54 1.04556 -3.85886 0
M  V30 2412 H 238.98 2.07208 -3.6992 0
M  V30 2413 C 237.439 2.48745 -2.27217 0
M  V30 2414 O 237.969 3.52871 -1.9195 0
M  V30 2415 N 236.175 2.19202 -1.90785 0
M  V30 2416 H 235.722 1.34556 -2.19664 0
M  V30 2417 H 235.68 2.84561 -1.33687 0
M  V30 2418 N 239.452 1.56882 -0.150215 0
M  V30 2419 C 240.701 1.95403 0.500071 0
M  V30 2420 C 241.014 1.03777 1.658 0
M  V30 2421 O 242.22 1.31889 2.37313 0
M  V30 2422 C 240.676 3.4738 0.941018 0
M  V30 2423 C 240.284 4.47596 -0.190158 0
M  V30 2424 C 242.028 3.9476 1.56091 0
M  V30 2425 C 239.935 5.90787 0.269237 0
M  V30 2426 H 238.865 0.729515 0.190588 0
M  V30 2427 H 241.516 1.81988 -0.235074 0
M  V30 2428 H 239.898 3.56138 1.73152 0
M  V30 2429 H 241.072 4.50536 -0.967157 0
M  V30 2430 H 239.387 4.10151 -0.718666 0
M  V30 2431 H 241.984 4.99181 1.9163 0
M  V30 2432 H 242.327 3.36494 2.45107 0
M  V30 2433 H 242.86 3.88932 0.835249 0
M  V30 2434 H 239.599 6.52879 -0.585621 0
M  V30 2435 H 239.119 5.912 1.01204 0
M  V30 2436 H 240.798 6.42979 0.720176 0
M  V30 2437 N 240.93 -0.123565 1.57115 0
M  V30 2438 C 242.178 -0.83051 1.84247 0
M  V30 2439 C 242.499 -1.80629 0.73471 0
M  V30 2440 O 241.769 -1.94403 -0.241688 0
M  V30 2441 H 240.349 -0.309694 0.679778 0
M  V30 2442 H 243.011 -0.111976 1.94578 0
M  V30 2443 H 242.107 -1.37852 2.80006 0
M  V30 2444 N 242.408 -1.52605 -0.393616 0
M  V30 2445 C 243.371 -1.76415 -1.46323 0
M  V30 2446 C 244.371 -0.634126 -1.47768 0
M  V30 2447 O 245.561 -0.902142 -1.4902 0
M  V30 2448 C 242.693 -1.8607 -2.85641 0
M  V30 2449 H 243.886 -2.71916 -1.26498 0
M  V30 2450 H 241.439 -1.43257 -0.625073 0
M  V30 2451 H 242.174 -0.925378 -3.10817 0
M  V30 2452 H 241.959 -2.68235 -2.85993 0
M  V30 2453 H 243.449 -2.06179 -3.63153 0
M  V30 2454 N 243.887 0.651787 -1.4349 0
M  V30 2455 C 244.82 1.77668 -1.43211 0
M  V30 2456 C 245.798 1.59931 -0.29338 0
M  V30 2457 O 246.982 1.82095 -0.487191 0
M  V30 2458 C 244.109 3.14986 -1.24505 0
M  V30 2459 C 243.155 3.51421 -2.41673 0
M  V30 2460 S 243.988 3.51234 -4.04222 0
M  V30 2461 C 245.144 4.91206 -3.87902 0
M  V30 2462 H 245.377 1.77635 -2.38397 0
M  V30 2463 H 242.91 0.824558 -1.30539 0
M  V30 2464 H 244.868 3.94237 -1.144 0
M  V30 2465 H 243.529 3.1258 -0.308651 0
M  V30 2466 H 242.722 4.51291 -2.24393 0
M  V30 2467 H 242.324 2.79585 -2.48411 0
M  V30 2468 H 244.616 5.79902 -3.50315 0
M  V30 2469 H 245.559 5.13537 -4.8753 0
M  V30 2470 H 245.967 4.64808 -3.20334 0
M  V30 2471 N 245.365 1.30045 0.890287 0
M  V30 2472 C 246.59 1.21598 1.68014 0
M  V30 2473 C 247.015 -0.218678 1.86825 0
M  V30 2474 O 246.373 -1.15756 1.39536 0
M  V30 2475 C 246.421 1.94434 3.03691 0
M  V30 2476 O 245.525 1.2678 3.92429 0
M  V30 2477 H 244.866 0.420856 0.513592 0
M  V30 2478 H 247.396 1.71775 1.11151 0
M  V30 2479 H 247.406 2.03251 3.5377 0
M  V30 2480 H 246.081 2.98777 2.89318 0
M  V30 2481 H 244.658 1.26282 3.50866 0
M  V30 2482 N 246.843 -1.10192 1.12674 0
M  V30 2483 C 248.068 -1.86523 0.906853 0
M  V30 2484 C 248.493 -1.80221 -0.538711 0
M  V30 2485 O 247.851 -1.17396 -1.38158 0
M  V30 2486 C 247.899 -3.32758 1.3894 0
M  V30 2487 O 247.003 -4.08449 0.5695 0
M  V30 2488 H 246.344 -0.578678 0.325619 0
M  V30 2489 H 248.874 -1.39203 1.49946 0
M  V30 2490 H 248.884 -3.83608 1.38958 0
M  V30 2491 H 247.559 -3.36661 2.44197 0
M  V30 2492 H 246.136 -3.67427 0.636528 0
M  V30 2493 N 248.321 -0.919034 -1.28029 0
M  V30 2494 C 249.551 -0.570143 -1.98577 0
M  V30 2495 C 249.959 0.854172 -1.68821 0
M  V30 2496 O 249.302 1.57807 -0.940351 0
M  V30 2497 C 249.364 -0.705734 -3.52505 0
M  V30 2498 C 249.028 -2.10057 -4.05863 0
M  V30 2499 C 250.025 -3.07385 -4.19298 0
M  V30 2500 C 247.71 -2.41517 -4.40426 0
M  V30 2501 C 249.704 -4.34287 -4.66555 0
M  V30 2502 C 247.391 -3.68657 -4.87376 0
M  V30 2503 C 248.389 -4.64856 -5.00398 0
M  V30 2504 O 248.077 -5.89735 -5.46322 0
M  V30 2505 H 247.809 -0.215592 -0.6407 0
M  V30 2506 H 250.363 -1.23583 -1.64062 0
M  V30 2507 H 248.593 0.0170414 -3.86696 0
M  V30 2508 H 250.282 -0.363172 -4.04272 0
M  V30 2509 H 251.048 -2.84398 -3.92865 0
M  V30 2510 H 246.927 -1.67389 -4.29537 0
M  V30 2511 H 250.471 -5.09377 -4.76635 0
M  V30 2512 H 246.368 -3.91466 -5.13249 0
M  V30 2513 H 247.136 -5.92599 -5.64596 0
M  V30 2514 N 249.799 1.42003 -0.683588 0
M  V30 2515 C 250.729 2.33487 -0.024866 0
M  V30 2516 C 251.71 1.51163 0.779975 0
M  V30 2517 O 252.895 1.79739 0.735362 0
M  V30 2518 C 250.025 3.3487 0.920836 0
M  V30 2519 C 248.979 4.27414 0.223958 0
M  V30 2520 C 248.305 5.19074 1.2832 0
M  V30 2521 C 249.605 5.14445 -0.90242 0
M  V30 2522 H 251.299 2.88819 -0.788921 0
M  V30 2523 H 248.845 1.38873 -0.38083 0
M  V30 2524 H 250.798 3.97787 1.39081 0
M  V30 2525 H 249.522 2.77861 1.71642 0
M  V30 2526 H 248.181 3.65904 -0.225864 0
M  V30 2527 H 247.829 4.58387 2.071 0
M  V30 2528 H 247.529 5.81822 0.821995 0
M  V30 2529 H 249.053 5.84867 1.75392 0
M  V30 2530 H 250.467 5.70998 -0.513272 0
M  V30 2531 H 248.864 5.86072 -1.28997 0
M  V30 2532 H 249.934 4.52322 -1.74737 0
M  V30 2533 N 251.277 0.427512 1.51691 0
M  V30 2534 C 252.524 -0.142229 2.02 0
M  V30 2535 C 252.852 -1.43566 1.31221 0
M  V30 2536 O 252.107 -1.91298 0.412744 0
M  V30 2537 C 252.406 -0.418249 3.54944 0
M  V30 2538 C 252.072 0.788187 4.43958 0
M  V30 2539 C 250.734 1.11906 4.68007 0
M  V30 2540 C 253.086 1.59347 4.96244 0
M  V30 2541 C 250.414 2.25608 5.41588 0
M  V30 2542 C 252.766 2.7214 5.71072 0
M  V30 2543 C 251.43 3.05692 5.93387 0
M  V30 2544 H 250.7 -0.0520451 0.73917 0
M  V30 2545 H 253.347 0.572697 1.82736 0
M  V30 2546 H 251.652 -1.21496 3.72486 0
M  V30 2547 H 253.349 -0.872339 3.91397 0
M  V30 2548 H 249.939 0.520344 4.2543 0
M  V30 2549 H 254.123 1.35106 4.77556 0
M  V30 2550 H 249.379 2.51929 5.57083 0
M  V30 2551 H 253.553 3.34914 6.10578 0
M  V30 2552 H 251.18 3.9391 6.50184 0
M  V30 2553 N 252.755 -1.56801 0.158532 0
M  V30 2554 C 254.004 -1.95665 -0.489702 0
M  V30 2555 C 254.317 -1.04654 -1.65248 0
M  V30 2556 O 255.523 -1.33146 -2.3661 0
M  V30 2557 C 253.979 -3.47874 -0.922582 0
M  V30 2558 C 253.587 -4.47489 0.213893 0
M  V30 2559 C 255.331 -3.95583 -1.53996 0
M  V30 2560 C 253.238 -5.90921 -0.237903 0
M  V30 2561 H 252.168 -0.730516 -0.186716 0
M  V30 2562 H 254.819 -1.81861 0.244722 0
M  V30 2563 H 253.201 -3.57051 -1.71261 0
M  V30 2564 H 254.375 -4.50017 0.991036 0
M  V30 2565 H 252.69 -4.09764 0.740407 0
M  V30 2566 H 255.287 -5.0019 -1.8898 0
M  V30 2567 H 255.63 -3.37789 -2.43319 0
M  V30 2568 H 256.163 -3.8937 -0.814611 0
M  V30 2569 H 252.902 -6.52559 0.620236 0
M  V30 2570 H 252.422 -5.91729 -0.980676 0
M  V30 2571 H 254.101 -6.43352 -0.686067 0
M  V30 2572 N 254.233 0.115231 -1.57178 0
M  V30 2573 C 255.482 0.820945 -1.84237 0
M  V30 2574 C 255.795 1.80866 -0.744761 0
M  V30 2575 O 257.001 2.56083 -0.901871 0
M  V30 2576 C 255.457 1.51072 -3.26658 0
M  V30 2577 C 255.065 0.563795 -4.44438 0
M  V30 2578 C 256.809 2.20134 -3.62962 0
M  V30 2579 C 254.716 1.25701 -5.77887 0
M  V30 2580 H 253.646 0.310328 -0.687177 0
M  V30 2581 H 256.297 0.0737134 -1.83352 0
M  V30 2582 H 254.679 2.30471 -3.22024 0
M  V30 2583 H 255.853 -0.197247 -4.60378 0
M  V30 2584 H 254.168 -0.0200638 -4.16395 0
M  V30 2585 H 256.765 2.72696 -4.59936 0
M  V30 2586 H 257.108 2.98107 -2.90582 0
M  V30 2587 H 257.641 1.47619 -3.69396 0
M  V30 2588 H 254.38 0.518493 -6.53446 0
M  V30 2589 H 253.9 1.98997 -5.65827 0
M  V30 2590 H 255.579 1.78915 -6.2177 0
M  V30 2591 N 255.711 1.52812 0.385517 0
M  V30 2592 C 256.658 1.77838 1.47113 0
M  V30 2593 C 257.628 0.621757 1.54024 0
M  V30 2594 O 258.813 0.861846 1.70226 0
M  V30 2595 C 255.953 1.95618 2.84302 0
M  V30 2596 C 255.066 3.23316 2.86515 0
M  V30 2597 C 254.201 3.31394 4.15152 0
M  V30 2598 C 253.24 4.53201 4.1143 0
M  V30 2599 N 252.377 4.58542 5.3168 0
M  V30 2600 H 257.217 2.70482 1.25073 0
M  V30 2601 H 254.754 1.34006 0.606692 0
M  V30 2602 H 256.712 2.03912 3.63972 0
M  V30 2603 H 255.342 1.06331 3.04784 0
M  V30 2604 H 254.394 3.24076 1.99195 0
M  V30 2605 H 255.706 4.13045 2.79634 0
M  V30 2606 H 254.86 3.3889 5.03228 0
M  V30 2607 H 253.599 2.39645 4.24761 0
M  V30 2608 H 252.604 4.45827 3.21742 0
M  V30 2609 H 253.829 5.46271 4.03442 0
M  V30 2610 H 251.775 3.69686 5.41912 0
M  V30 2611 H 251.692 5.42148 5.26889 0
M  V30 2612 H 252.96 4.70296 6.21644 0
M  V30 2613 N 257.189 -0.644168 1.43834 0
M  V30 2614 C 258.419 -1.42939 1.49171 0
M  V30 2615 C 258.827 -1.88874 0.111048 0
M  V30 2616 O 258.17 -1.60656 -0.8908 0
M  V30 2617 C 258.232 -2.69151 2.38324 0
M  V30 2618 C 257.896 -2.45097 3.85715 0
M  V30 2619 C 258.893 -2.07747 4.76589 0
M  V30 2620 C 256.578 -2.59141 4.30292 0
M  V30 2621 C 258.572 -1.8475 6.10038 0
M  V30 2622 C 256.259 -2.35759 5.63792 0
M  V30 2623 C 257.257 -1.9862 6.53482 0
M  V30 2624 O 256.945 -1.75489 7.84512 0
M  V30 2625 H 256.677 -0.445271 0.508635 0
M  V30 2626 H 259.231 -0.79621 1.8934 0
M  V30 2627 H 257.461 -3.3506 1.93058 0
M  V30 2628 H 259.15 -3.31123 2.3476 0
M  V30 2629 H 259.916 -1.96465 4.43426 0
M  V30 2630 H 255.795 -2.87022 3.60749 0
M  V30 2631 H 259.339 -1.55686 6.80006 0
M  V30 2632 H 255.236 -2.46646 5.9652 0
M  V30 2633 H 256.004 -1.89841 7.9618 0
M  V30 2634 N 258.668 -1.30515 -0.883378 0
M  V30 2635 C 259.578 -1.18959 -2.02203 0
M  V30 2636 C 260.594 -0.109172 -1.73657 0
M  V30 2637 O 261.77 -0.324413 -1.9877 0
M  V30 2638 C 258.835 -0.883871 -3.35244 0
M  V30 2639 C 257.896 -2.04982 -3.77201 0
M  V30 2640 C 257.129 -1.75859 -5.03894 0
M  V30 2641 O 257.352 -0.687276 -5.66244 0
M  V30 2642 O 256.286 -2.61146 -5.42297 0
M  V30 2643 H 260.112 -2.14616 -2.1488 0
M  V30 2644 H 257.697 -1.10124 -1.0096 0
M  V30 2645 H 259.579 -0.728644 -4.15053 0
M  V30 2646 H 258.254 0.0427798 -3.23672 0
M  V30 2647 H 257.161 -2.26038 -2.9809 0
M  V30 2648 H 258.494 -2.95825 -3.93381 0
M  V30 2649 N 260.146 1.09593 -1.13257 0
M  V30 2650 C 261.076 2.18214 -0.830946 0
M  V30 2651 C 262.057 1.68812 0.208966 0
M  V30 2652 O 263.242 1.9408 0.0682666 0
M  V30 2653 C 260.372 3.46051 -0.294296 0
M  V30 2654 C 259.326 4.08778 -1.26826 0
M  V30 2655 C 258.652 5.31419 -0.591449 0
M  V30 2656 C 259.952 4.51476 -2.62615 0
M  V30 2657 H 261.646 2.43703 -1.73923 0
M  V30 2658 H 259.192 1.17128 -0.837675 0
M  V30 2659 H 261.145 4.2134 -0.0709606 0
M  V30 2660 H 259.869 3.20079 0.649366 0
M  V30 2661 H 258.528 3.35505 -1.47756 0
M  V30 2662 H 258.176 5.01727 0.357633 0
M  V30 2663 H 257.876 5.74341 -1.24123 0
M  V30 2664 H 259.4 6.09433 -0.377355 0
M  V30 2665 H 260.814 5.17999 -2.45663 0
M  V30 2666 H 259.211 5.05277 -3.23752 0
M  V30 2667 H 260.281 3.63962 -3.20406 0
M  V30 2668 N 261.624 0.925811 1.2754 0
M  V30 2669 C 263.035 0.610102 1.7645 0
M  V30 2670 C 263.386 -0.874723 1.75622 0
M  V30 2671 O 262.511 -1.68444 1.35851 0
M  V30 2672 C 263.106 1.10073 3.20421 0
M  V30 2673 C 261.665 0.835723 3.67005 0
M  V30 2674 C 260.812 1.26054 2.46993 0
M  V30 2675 H 263.763 1.10579 1.13833 0
M  V30 2676 H 263.784 0.447557 3.77859 0
M  V30 2677 H 263.296 2.18143 3.20991 0
M  V30 2678 H 261.397 -0.231249 3.71882 0
M  V30 2679 H 261.51 1.45193 4.56569 0
M  V30 2680 H 259.874 0.679111 2.45479 0
M  V30 2681 H 260.657 2.34984 2.50275 0
M  V30 2682 N 263.102 -1.41638 0.69111 0
M  V30 2683 C 264.012 -2.34588 0.0233487 0
M  V30 2684 C 265.028 -1.55987 -0.770984 0
M  V30 2685 O 266.204 -1.88486 -0.709569 0
M  V30 2686 C 263.269 -3.34684 -0.904851 0
M  V30 2687 C 262.33 -4.29176 -0.103225 0
M  V30 2688 C 261.563 -5.2449 -0.987216 0
M  V30 2689 O 261.786 -5.2514 -2.22674 0
M  V30 2690 O 260.72 -6.00295 -0.439281 0
M  V30 2691 H 264.546 -2.93261 0.789416 0
M  V30 2692 H 262.131 -1.42417 0.45142 0
M  V30 2693 H 264.013 -3.96133 -1.43724 0
M  V30 2694 H 262.688 -2.78461 -1.65049 0
M  V30 2695 H 261.595 -3.71089 0.473655 0
M  V30 2696 H 262.928 -4.88484 0.60365 0
M  V30 2697 N 264.58 -0.43555 -1.51462 0
M  V30 2698 C 265.826 0.131709 -2.02372 0
M  V30 2699 C 266.159 1.42516 -1.3192 0
M  V30 2700 O 265.434 1.89606 -0.433573 0
M  V30 2701 C 265.717 0.352301 -3.58373 0
M  V30 2702 C 265.57 -0.959676 -4.39443 0
M  V30 2703 C 266.889 1.12286 -4.25535 0
M  V30 2704 H 264.008 0.0463936 -0.735538 0
M  V30 2705 H 266.65 -0.574197 -1.81116 0
M  V30 2706 H 264.8 0.9536 -3.76615 0
M  V30 2707 H 266.472 -1.59482 -4.32855 0
M  V30 2708 H 264.715 -1.56468 -4.04599 0
M  V30 2709 H 265.386 -0.759394 -5.46752 0
M  V30 2710 H 267.862 0.613545 -4.11552 0
M  V30 2711 H 266.738 1.24598 -5.34571 0
M  V30 2712 H 266.999 2.15048 -3.86273 0
M  V30 2713 N 266.058 1.56714 -0.166846 0
M  V30 2714 C 267.307 1.95922 0.479318 0
M  V30 2715 C 267.62 1.05529 1.6469 0
M  V30 2716 O 268.826 1.34399 2.35901 0
M  V30 2717 C 267.282 3.48359 0.90412 0
M  V30 2718 C 266.89 4.47369 -0.237621 0
M  V30 2719 C 268.634 3.96394 1.51896 0
M  V30 2720 C 266.541 5.91039 0.206561 0
M  V30 2721 H 265.471 0.731495 0.18284 0
M  V30 2722 H 268.122 1.81728 -0.254363 0
M  V30 2723 H 266.504 3.57955 1.69365 0
M  V30 2724 H 267.678 4.49485 -1.01489 0
M  V30 2725 H 265.993 4.09366 -0.762128 0
M  V30 2726 H 268.59 5.01186 1.86325 0
M  V30 2727 H 268.933 3.39075 2.41524 0
M  V30 2728 H 269.466 3.89796 0.79395 0
M  V30 2729 H 266.205 6.52221 -0.654834 0
M  V30 2730 H 265.725 5.9224 0.949282 0
M  V30 2731 H 267.404 6.43707 0.651939 0
M  V30 2732 N 267.536 -0.106894 1.57237 0
M  V30 2733 C 268.952 -0.46078 1.52804 0
M  V30 2734 C 269.152 -1.81184 0.881746 0
M  V30 2735 O 268.208 -2.48102 0.469224 0
M  V30 2736 C 269.521 -0.434127 2.9755 0
M  V30 2737 C 271.069 -0.516821 3.08704 0
M  V30 2738 C 271.544 -0.520436 4.55033 0
M  V30 2739 N 273.035 -0.58153 4.59535 0
M  V30 2740 C 273.77 -0.605973 5.70189 0
M  V30 2741 N 273.266 -0.587331 6.90306 0
M  V30 2742 N 275.059 -0.649895 5.5833 0
M  V30 2743 H 267.21 0.778203 1.9763 0
M  V30 2744 H 269.473 0.288403 0.903066 0
M  V30 2745 H 269.179 0.491197 3.48253 0
M  V30 2746 H 269.053 -1.25748 3.55622 0
M  V30 2747 H 271.44 -1.43256 2.57995 0
M  V30 2748 H 271.521 0.334449 2.53604 0
M  V30 2749 H 271.165 0.391313 5.0639 0
M  V30 2750 H 271.095 -1.38876 5.07958 0
M  V30 2751 H 273.586 -0.60161 3.73081 0
M  V30 2752 H 273.899 -0.60894 7.70397 0
M  V30 2753 H 272.244 -0.554564 6.92784 0
M  V30 2754 H 275.435 -0.661907 4.63397 0
M  V30 2755 H 275.608 -0.665476 6.44574 0
M  V30 2756 N 269.014 -1.53014 -0.377408 0
M  V30 2757 C 269.977 -1.77957 -1.44444 0
M  V30 2758 C 270.977 -0.649763 -1.47087 0
M  V30 2759 O 272.167 -0.917897 -1.48055 0
M  V30 2760 C 269.299 -1.89089 -2.83651 0
M  V30 2761 H 270.492 -2.73243 -1.23606 0
M  V30 2762 H 268.045 -1.43912 -0.609844 0
M  V30 2763 H 268.78 -0.958293 -3.09818 0
M  V30 2764 H 268.565 -2.71254 -2.83132 0
M  V30 2765 H 270.055 -2.1002 -3.60945 0
M  V30 2766 N 270.492 0.636531 -1.44174 0
M  V30 2767 C 271.739 1.39619 -1.46672 0
M  V30 2768 C 272.067 1.94257 -0.0972691 0
M  V30 2769 O 271.322 1.73768 0.900175 0
M  V30 2770 C 271.621 2.58309 -2.47005 0
M  V30 2771 C 271.287 2.21992 -3.92467 0
M  V30 2772 C 269.949 2.118 -4.32081 0
M  V30 2773 C 272.301 1.9321 -4.84065 0
M  V30 2774 C 269.629 1.71007 -5.61225 0
M  V30 2775 C 271.981 1.53911 -6.13591 0
M  V30 2776 C 270.645 1.42257 -6.52165 0
M  V30 2777 H 269.915 0.510902 -0.536712 0
M  V30 2778 H 272.562 0.722328 -1.77355 0
M  V30 2779 H 270.867 3.30903 -2.09786 0
M  V30 2780 H 272.564 3.16533 -2.46186 0
M  V30 2781 H 269.154 2.30841 -3.61124 0
M  V30 2782 H 273.338 1.99997 -4.54219 0
M  V30 2783 H 268.594 1.60583 -5.89935 0
M  V30 2784 H 272.768 1.30677 -6.8403 0
M  V30 2785 H 270.395 1.10419 -7.52138 0
M  V30 2786 N 271.97 1.30982 0.876444 0
M  V30 2787 C 272.903 1.12414 1.98591 0
M  V30 2788 C 273.881 0.0294078 1.62573 0
M  V30 2789 O 275.065 0.184598 1.87594 0
M  V30 2790 C 272.192 0.716276 3.3104 0
M  V30 2791 C 271.238 1.81311 3.86042 0
M  V30 2792 S 272.071 3.41727 4.1229 0
M  V30 2793 C 273.227 3.02863 5.47745 0
M  V30 2794 H 273.46 2.06338 2.14037 0
M  V30 2795 H 270.993 1.15393 1.02586 0
M  V30 2796 H 272.951 0.487697 4.07593 0
M  V30 2797 H 271.612 -0.203749 3.13438 0
M  V30 2798 H 270.805 1.48021 4.81774 0
M  V30 2799 H 270.407 1.99641 3.16259 0
M  V30 2800 H 272.699 2.51353 6.29148 0
M  V30 2801 H 273.642 3.97533 5.8598 0
M  V30 2802 H 274.05 2.40487 5.10711 0
M  V30 2803 N 273.449 -1.08991 1.13837 0
M  V30 2804 C 274.697 -1.80899 0.901098 0
M  V30 2805 C 275.018 -1.86356 -0.574134 0
M  V30 2806 O 274.288 -1.35235 -1.41733 0
M  V30 2807 H 272.868 -0.669966 0.330386 0
M  V30 2808 H 275.53 -1.318 1.43578 0
M  V30 2809 H 274.626 -2.83929 1.29578 0
M  V30 2810 N 274.927 -0.932562 -1.27047 0
M  V30 2811 C 275.857 -0.452902 -2.29066 0
M  V30 2812 C 276.838 0.489338 -1.62909 0
M  V30 2813 O 278.023 0.393046 -1.90181 0
M  V30 2814 C 275.153 0.290698 -3.46081 0
M  V30 2815 C 274.107 -0.564168 -4.24265 0
M  V30 2816 C 273.433 0.308886 -5.33807 0
M  V30 2817 C 274.733 -1.83112 -4.89149 0
M  V30 2818 H 276.427 -1.30552 -2.69437 0
M  V30 2819 H 273.973 -0.629201 -1.29526 0
M  V30 2820 H 275.926 0.637233 -4.16554 0
M  V30 2821 H 274.65 1.17738 -3.0464 0
M  V30 2822 H 273.309 -0.893477 -3.55545 0
M  V30 2823 H 272.957 1.19467 -4.88607 0
M  V30 2824 H 272.657 -0.259633 -5.87026 0
M  V30 2825 H 274.181 0.650884 -6.07121 0
M  V30 2826 H 275.595 -1.55236 -5.51883 0
M  V30 2827 H 273.992 -2.34353 -5.52448 0
M  V30 2828 H 275.062 -2.54772 -4.12576 0
M  V30 2829 N 276.405 1.4127 -0.698611 0
M  V30 2830 C 277.315 2.34573 -0.0357891 0
M  V30 2831 C 278.331 1.56393 0.762701 0
M  V30 2832 O 279.507 1.8886 0.699564 0
M  V30 2833 C 276.572 3.35159 0.887089 0
M  V30 2834 C 275.633 4.29225 0.0804634 0
M  V30 2835 C 274.866 5.25006 0.959387 0
M  V30 2836 O 275.089 5.26314 2.19886 0
M  V30 2837 O 274.023 6.00519 0.407439 0
M  V30 2838 H 277.849 2.92838 -0.804957 0
M  V30 2839 H 275.434 1.42175 -0.458966 0
M  V30 2840 H 277.316 3.9689 1.41621 0
M  V30 2841 H 275.991 2.79333 1.6357 0
M  V30 2842 H 274.898 3.70833 -0.493328 0
M  V30 2843 H 276.231 4.88157 -0.629547 0
M  V30 2844 N 277.883 0.443576 1.51229 0
M  V30 2845 C 278.793 -0.370721 2.31652 0
M  V30 2846 C 279.809 -1.02186 1.40833 0
M  V30 2847 O 280.985 -1.01586 1.73903 0
M  V30 2848 C 278.05 -1.45376 3.14749 0
M  V30 2849 C 277.111 -0.822099 4.21355 0
M  V30 2850 C 276.344 -1.85353 5.0048 0
M  V30 2851 O 276.567 -3.07656 4.80316 0
M  V30 2852 O 275.501 -1.4406 5.84406 0
M  V30 2853 H 279.327 0.286002 3.0235 0
M  V30 2854 H 276.912 0.20598 1.47973 0
M  V30 2855 H 278.794 -2.08173 3.66391 0
M  V30 2856 H 277.469 -2.09445 2.46809 0
M  V30 2857 H 276.376 -0.155909 3.73775 0
M  V30 2858 H 277.709 -0.224797 4.91686 0
M  V30 2859 N 279.361 -1.56624 0.175154 0
M  V30 2860 C 280.309 -2.19468 -0.770495 0
M  V30 2861 C 281.303 -1.15985 -1.23466 0
M  V30 2862 O 282.509 -1.34176 -1.19987 0
M  V30 2863 H 278.884 -0.703095 -0.266761 0
M  V30 2864 H 280.855 -2.97613 -0.216542 0
M  V30 2865 C 279.604 -2.85264 -1.98796 0
M  V30 2866 H 278.927 -3.64623 -1.63983 0
M  V30 2867 H 280.367 -3.327 -2.62843 0
M  V30 2868 C 278.826 -1.85239 -2.81404 0
M  V30 2869 O 279.356 -1.34024 -3.78682 0
M  V30 2870 N 277.562 -1.53911 -2.46495 0
M  V30 2871 H 277.109 -1.95751 -1.67449 0
M  V30 2872 H 277.067 -0.872382 -3.02054 0
M  V30 2873 N 280.839 0.0985539 -1.57292 0
M  V30 2874 C 282.067 0.816318 -1.90115 0
M  V30 2875 C 282.482 1.72451 -0.768509 0
M  V30 2876 O 281.839 1.80643 0.259687 0
M  V30 2877 C 281.89 1.63259 -3.22535 0
M  V30 2878 O 281.611 0.760934 -4.31441 0
M  V30 2879 C 283.112 2.45372 -3.69199 0
M  V30 2880 H 280.332 0.233595 -0.629027 0
M  V30 2881 H 282.876 0.0768229 -2.04356 0
M  V30 2882 H 281.031 2.32463 -3.09903 0
M  V30 2883 H 281.445 1.32595 -5.07463 0
M  V30 2884 H 282.919 2.98144 -4.64558 0
M  V30 2885 H 283.396 3.23677 -2.96867 0
M  V30 2886 H 284.002 1.81373 -3.84687 0
M  V30 2887 N 282.317 1.53212 0.369288 0
M  V30 2888 C 283.565 1.68881 1.11012 0
M  V30 2889 C 283.886 0.441285 1.89941 0
M  V30 2890 O 283.156 -0.544623 1.88177 0
M  V30 2891 H 281.736 0.622569 0.412816 0
M  V30 2892 H 284.398 1.90391 0.416802 0
M  V30 2893 H 283.494 2.54822 1.80201 0
M  V30 2894 N 283.795 -0.628877 1.44509 0
M  V30 2895 C 284.705 -1.7694 1.54044 0
M  V30 2896 C 285.721 -1.68705 0.425987 0
M  V30 2897 O 286.897 -1.89442 0.683656 0
M  V30 2898 C 283.962 -3.13332 1.48405 0
M  V30 2899 C 283.023 -3.33181 2.70719 0
M  V30 2900 C 282.256 -4.63067 2.6534 0
M  V30 2901 O 282.479 -5.44017 1.71469 0
M  V30 2902 O 281.413 -4.85167 3.56226 0
M  V30 2903 H 285.239 -1.71848 2.50403 0
M  V30 2904 H 282.824 -0.790378 1.26781 0
M  V30 2905 H 284.706 -3.94634 1.47791 0
M  V30 2906 H 283.381 -3.1896 0.551898 0
M  V30 2907 H 282.288 -2.51549 2.769 0
M  V30 2908 H 283.621 -3.32416 3.62988 0
M  V30 2909 N 285.273 -1.31445 -0.869486 0
M  V30 2910 C 286.519 -1.22347 -1.62489 0
M  V30 2911 C 286.874 0.216204 -1.91181 0
M  V30 2912 O 286.167 1.14977 -1.53268 0
M  V30 2913 C 286.361 -2.00145 -2.96102 0
M  V30 2914 C 286.19 -3.51531 -2.80456 0
M  V30 2915 C 284.96 -4.20882 -2.79618 0
M  V30 2916 C 287.158 -4.46471 -2.5528 0
M  V30 2917 N 285.14 -5.58421 -2.55027 0
M  V30 2918 C 286.511 -5.71682 -2.39957 0
M  V30 2919 C 288.566 -4.35892 -2.40629 0
M  V30 2920 C 287.269 -6.87511 -2.11472 0
M  V30 2921 C 289.295 -5.51505 -2.13532 0
M  V30 2922 C 288.657 -6.75707 -1.98998 0
M  V30 2923 H 284.756 -0.502815 -0.598917 0
M  V30 2924 H 287.34 -1.65639 -1.02332 0
M  V30 2925 H 285.511 -1.59221 -3.54264 0
M  V30 2926 H 287.243 -1.83063 -3.60929 0
M  V30 2927 H 283.998 -3.72857 -2.92018 0
M  V30 2928 H 284.422 -6.30841 -2.45701 0
M  V30 2929 H 289.064 -3.40533 -2.50593 0
M  V30 2930 H 286.782 -7.82897 -2.00245 0
M  V30 2931 H 290.368 -5.45238 -2.02995 0
M  V30 2932 H 289.248 -7.63655 -1.78326 0
M  V30 2933 N 286.751 1.08385 -1.14413 0
M  V30 2934 C 287.981 1.8425 -0.934644 0
M  V30 2935 C 288.389 1.81907 0.520234 0
M  V30 2936 O 287.732 1.22126 1.37226 0
M  V30 2937 C 287.794 3.32853 -1.35828 0
M  V30 2938 C 287.458 3.5893 -2.82875 0
M  V30 2939 C 288.455 3.53756 -3.80989 0
M  V30 2940 C 286.14 3.86934 -3.20293 0
M  V30 2941 C 288.134 3.76216 -5.14529 0
M  V30 2942 C 285.821 4.09047 -4.54008 0
M  V30 2943 C 286.819 4.03682 -5.50936 0
M  V30 2944 O 286.507 4.25214 -6.82238 0
M  V30 2945 H 286.239 0.588502 -0.332628 0
M  V30 2946 H 288.793 1.37792 -1.52324 0
M  V30 2947 H 287.023 3.8007 -0.713019 0
M  V30 2948 H 288.712 3.90154 -1.11957 0
M  V30 2949 H 289.478 3.32135 -3.53428 0
M  V30 2950 H 285.357 3.9023 -2.45442 0
M  V30 2951 H 288.901 3.71943 -5.90173 0
M  V30 2952 H 284.798 4.30151 -4.8129 0
M  V30 2953 H 285.566 4.42619 -6.88499 0
M  V30 2954 N 288.23 0.939286 1.26551 0
M  V30 2955 C 289.16 0.465044 2.28822 0
M  V30 2956 C 290.141 -0.480692 1.63167 0
M  V30 2957 O 291.326 -0.382955 1.90387 0
M  V30 2958 C 288.456 -0.27234 3.46231 0
M  V30 2959 C 287.41 0.58666 4.2396 0
M  V30 2960 C 286.736 -0.280573 5.33963 0
M  V30 2961 C 288.036 1.85704 4.88171 0
M  V30 2962 H 289.73 1.31979 2.68741 0
M  V30 2963 H 287.276 0.636061 1.29191 0
M  V30 2964 H 289.229 -0.615133 4.16886 0
M  V30 2965 H 287.953 -1.16121 3.0526 0
M  V30 2966 H 286.612 0.91232 3.55067 0
M  V30 2967 H 286.26 -1.16874 4.89234 0
M  V30 2968 H 285.96 0.29076 5.8688 0
M  V30 2969 H 287.484 -0.618678 6.07458 0
M  V30 2970 H 288.898 1.58161 5.51052 0
M  V30 2971 H 287.295 2.37279 5.51197 0
M  V30 2972 H 288.365 2.56957 4.11219 0
M  V30 2973 N 289.708 -1.40897 0.706093 0
M  V30 2974 C 290.656 -2.32572 0.0361893 0
M  V30 2975 C 291.65 -1.51532 -0.757266 0
M  V30 2976 O 292.856 -1.67396 -0.661703 0
M  V30 2977 H 289.231 -0.751966 -0.00709935 0
M  V30 2978 H 291.202 -2.86733 0.826249 0
M  V30 2979 C 289.951 -3.36418 -0.87854 0
M  V30 2980 H 289.274 -3.98836 -0.277401 0
M  V30 2981 H 290.714 -4.0308 -1.3154 0
M  V30 2982 C 289.173 -2.71141 -1.99961 0
M  V30 2983 O 289.703 -2.56735 -3.0895 0
M  V30 2984 N 287.909 -2.29671 -1.78043 0
M  V30 2985 H 287.456 -2.41588 -0.894042 0
M  V30 2986 H 287.414 -1.86332 -2.53235 0
M  V30 2987 N 291.186 -0.45159 -1.50991 0
M  V30 2988 C 292.434 0.109857 -2.01801 0
M  V30 2989 C 292.755 1.41958 -1.3369 0
M  V30 2990 O 292.025 1.9003 -0.475951 0
M  V30 2991 H 290.605 0.0435884 -0.745727 0
M  V30 2992 H 293.267 -0.597557 -1.85514 0
M  V30 2993 H 292.363 0.275489 -3.10882 0
M  V30 2994 N 292.664 1.56529 -0.183458 0
M  V30 2995 C 293.612 2.19873 0.758845 0
M  V30 2996 C 294.606 1.16638 1.22849 0
M  V30 2997 O 295.812 1.3481 1.19274 0
M  V30 2998 H 292.187 0.7045 0.263029 0
M  V30 2999 H 294.158 2.97724 0.200755 0
M  V30 3000 C 292.907 2.86314 1.9728 0
M  V30 3001 H 292.23 3.65487 1.62047 0
M  V30 3002 H 293.67 3.3409 2.61075 0
M  V30 3003 C 292.129 1.86729 2.80418 0
M  V30 3004 O 292.659 1.36031 3.77966 0
M  V30 3005 N 290.865 1.55216 2.45675 0
M  V30 3006 H 290.412 1.96636 1.66409 0
M  V30 3007 H 290.37 0.888388 3.01588 0
M  V30 3008 N 294.142 -0.090211 1.57342 0
M  V30 3009 C 295.372 -0.805055 1.90269 0
M  V30 3010 C 295.78 -1.72561 0.775842 0
M  V30 3011 O 295.123 -1.81839 -0.260843 0
M  V30 3012 C 295.185 -1.66734 3.18497 0
M  V30 3013 C 294.849 -0.918092 4.47683 0
M  V30 3014 C 295.846 -0.245674 5.19319 0
M  V30 3015 C 293.531 -0.890724 4.94339 0
M  V30 3016 C 295.525 0.444088 6.35851 0
M  V30 3017 C 293.212 -0.197179 6.10782 0
M  V30 3018 C 294.21 0.469044 6.81388 0
M  V30 3019 O 293.898 1.15146 7.95611 0
M  V30 3020 H 293.63 -0.235143 0.633785 0
M  V30 3021 H 296.184 -0.0703805 2.05279 0
M  V30 3022 H 294.414 -2.44437 2.99646 0
M  V30 3023 H 296.103 -2.25919 3.37217 0
M  V30 3024 H 296.869 -0.258246 4.84312 0
M  V30 3025 H 292.748 -1.39873 4.39268 0
M  V30 3026 H 296.292 0.964667 6.90898 0
M  V30 3027 H 292.189 -0.18247 6.45242 0
M  V30 3028 H 292.957 1.05885 8.11622 0
M  V30 3029 N 295.62 -1.53406 -0.361157 0
M  V30 3030 C 296.55 -1.83136 -1.44857 0
M  V30 3031 C 297.531 -0.685174 -1.5569 0
M  V30 3032 O 298.716 -0.93544 -1.70186 0
M  V30 3033 C 295.846 -2.02522 -2.82138 0
M  V30 3034 C 294.8 -3.18302 -2.86126 0
M  V30 3035 C 294.126 -3.22989 -4.26125 0
M  V30 3036 C 295.426 -4.56796 -2.53248 0
M  V30 3037 H 297.12 -2.74201 -1.20226 0
M  V30 3038 H 294.666 -1.31938 -0.576922 0
M  V30 3039 H 296.619 -2.21904 -3.58241 0
M  V30 3040 H 295.343 -1.08172 -3.08166 0
M  V30 3041 H 294.002 -2.98747 -2.12475 0
M  V30 3042 H 293.65 -2.26267 -4.49235 0
M  V30 3043 H 293.35 -4.00781 -4.29708 0
M  V30 3044 H 294.874 -3.44559 -5.04094 0
M  V30 3045 H 296.288 -4.7631 -3.19064 0
M  V30 3046 H 294.685 -5.36862 -2.68141 0
M  V30 3047 H 295.755 -4.61606 -1.48484 0
M  V30 3048 N 297.098 0.621204 -1.44841 0
M  V30 3049 C 298.347 1.37658 -1.47422 0
M  V30 3050 C 298.66 1.95264 -0.114629 0
M  V30 3051 O 299.866 2.71494 -0.0180199 0
M  V30 3052 C 298.322 2.49285 -2.59586 0
M  V30 3053 C 297.93 1.98149 -4.01797 0
M  V30 3054 C 299.674 3.26409 -2.71399 0
M  V30 3055 C 297.581 3.07178 -5.05367 0
M  V30 3056 H 296.511 0.517344 -0.548517 0
M  V30 3057 H 299.162 0.667257 -1.70938 0
M  V30 3058 H 297.544 3.22839 -2.29328 0
M  V30 3059 H 298.718 1.31395 -4.41669 0
M  V30 3060 H 297.033 1.33812 -3.94314 0
M  V30 3061 H 299.63 4.07706 -3.45948 0
M  V30 3062 H 299.973 3.76535 -1.77559 0
M  V30 3063 H 300.506 2.5995 -3.01116 0
M  V30 3064 H 297.245 2.61985 -6.00869 0
M  V30 3065 H 296.765 3.72542 -4.70077 0
M  V30 3066 H 298.444 3.71789 -5.29511 0
M  V30 3067 N 298.576 1.31904 0.862503 0
M  V30 3068 C 299.825 1.21373 1.61094 0
M  V30 3069 C 300.138 -0.22504 1.94301 0
M  V30 3070 O 301.344 -0.452121 2.67709 0
M  V30 3071 C 299.8 2.12525 2.9045 0
M  V30 3072 C 299.408 3.61441 2.64697 0
M  V30 3073 C 301.152 2.10813 3.68454 0
M  V30 3074 C 299.059 4.44578 3.90006 0
M  V30 3075 H 297.989 0.450705 0.604468 0
M  V30 3076 H 300.64 1.56811 0.953027 0
M  V30 3077 H 299.022 1.69994 3.57656 0
M  V30 3078 H 300.196 4.12264 2.05851 0
M  V30 3079 H 298.511 3.65205 2.00036 0
M  V30 3080 H 301.108 2.70167 4.61426 0
M  V30 3081 H 301.451 1.09713 4.01583 0
M  V30 3082 H 301.984 2.51583 3.08141 0
M  V30 3083 H 298.723 5.46461 3.62023 0
M  V30 3084 H 298.243 3.98508 4.48276 0
M  V30 3085 H 299.922 4.57176 4.5782 0
M  V30 3086 N 300.054 -1.07777 1.14986 0
M  V30 3087 C 301.301 -1.8029 0.922056 0
M  V30 3088 C 301.629 -1.86531 -0.55105 0
M  V30 3089 O 300.884 -1.34189 -1.42449 0
M  V30 3090 C 301.183 -3.25495 1.47608 0
M  V30 3091 C 300.849 -3.39361 2.96893 0
M  V30 3092 C 299.511 -3.42852 3.37647 0
M  V30 3093 C 301.863 -3.42512 3.92854 0
M  V30 3094 C 299.191 -3.47094 4.73015 0
M  V30 3095 C 301.543 -3.4829 5.28088 0
M  V30 3096 C 300.207 -3.50058 5.68345 0
M  V30 3097 H 299.477 -0.659727 0.337404 0
M  V30 3098 H 302.124 -1.26854 1.43459 0
M  V30 3099 H 300.429 -3.81683 0.88463 0
M  V30 3100 H 302.126 -3.80168 1.27568 0
M  V30 3101 H 298.716 -3.37339 2.64387 0
M  V30 3102 H 302.9 -3.3904 3.62444 0
M  V30 3103 H 298.156 -3.46758 5.03556 0
M  V30 3104 H 302.33 -3.49675 6.02246 0
M  V30 3105 H 299.957 -3.53097 6.73221 0
M  V30 3106 N 301.532 -0.945985 -1.26051 0
M  V30 3107 C 302.778 -0.597002 -1.93814 0
M  V30 3108 C 303.111 0.862484 -1.73997 0
M  V30 3109 O 302.386 1.61769 -1.07986 0
M  V30 3110 C 302.669 -0.945937 -3.47454 0
M  V30 3111 C 302.522 -2.46052 -3.76535 0
M  V30 3112 C 303.841 -0.464785 -4.37639 0
M  V30 3113 H 300.96 -0.218366 -0.703907 0
M  V30 3114 H 303.602 -1.18107 -1.48831 0
M  V30 3115 H 301.752 -0.448902 -3.85898 0
M  V30 3116 H 303.424 -3.03065 -3.47778 0
M  V30 3117 H 301.667 -2.90194 -3.22444 0
M  V30 3118 H 302.338 -2.65517 -4.83947 0
M  V30 3119 H 304.814 -0.891016 -4.06448 0
M  V30 3120 H 303.69 -0.737712 -5.4392 0
M  V30 3121 H 303.951 0.635274 -4.37512 0
M  V30 3122 N 303.011 1.40521 -0.713556 0
M  V30 3123 C 304.236 2.05759 -0.26035 0
M  V30 3124 C 304.661 1.53403 1.08854 0
M  V30 3125 O 304.019 0.668535 1.68524 0
M  V30 3126 C 304.067 3.59745 -0.248122 0
M  V30 3127 O 303.171 4.05123 0.77131 0
M  V30 3128 H 302.512 0.652564 -0.122703 0
M  V30 3129 H 305.042 1.79958 -0.973467 0
M  V30 3130 H 305.052 4.07911 -0.0851129 0
M  V30 3131 H 303.727 3.97218 -1.2325 0
M  V30 3132 H 302.304 3.68422 0.57619 0
M  V30 3133 N 304.489 0.459591 1.5075 0
M  V30 3134 C 305.735 -0.0994966 2.02556 0
M  V30 3135 C 306.068 -1.40399 1.3417 0
M  V30 3136 O 305.343 -1.88892 0.463683 0
M  V30 3137 C 305.626 -0.295242 3.58888 0
M  V30 3138 C 305.479 1.02947 4.37861 0
M  V30 3139 C 306.798 -1.05502 4.27267 0
M  V30 3140 H 303.917 -0.034686 0.736183 0
M  V30 3141 H 306.559 0.602938 1.8018 0
M  V30 3142 H 304.709 -0.893563 3.78084 0
M  V30 3143 H 306.381 1.66348 4.30263 0
M  V30 3144 H 304.624 1.62885 4.02058 0
M  V30 3145 H 305.295 0.846281 5.45474 0
M  V30 3146 H 307.771 -0.547993 4.12476 0
M  V30 3147 H 306.647 -1.16077 5.36486 0
M  V30 3148 H 306.908 -2.08875 3.89645 0
M  V30 3149 N 305.967 -1.56429 0.191757 0
M  V30 3150 C 307.215 -1.97095 -0.447006 0
M  V30 3151 C 307.536 -1.07967 -1.62383 0
M  V30 3152 O 306.806 -0.150248 -1.95323 0
M  V30 3153 H 305.386 -0.727832 -0.168135 0
M  V30 3154 H 308.048 -1.92911 0.27771 0
M  V30 3155 H 307.144 -3.01848 -0.793371 0
M  V30 3156 N 307.445 0.0818655 -1.57387 0
M  V30 3157 C 308.694 0.781681 -1.85937 0
M  V30 3158 C 309.007 1.79246 -0.782957 0
M  V30 3159 O 310.213 2.54112 -0.955987 0
M  V30 3160 C 308.669 1.44109 -3.29789 0
M  V30 3161 C 308.277 0.469396 -4.45534 0
M  V30 3162 C 310.021 2.12386 -3.67549 0
M  V30 3163 C 307.928 1.13415 -5.80423 0
M  V30 3164 H 306.858 0.295682 -0.693605 0
M  V30 3165 H 309.509 0.0348051 -1.83467 0
M  V30 3166 H 307.891 2.23588 -3.2684 0
M  V30 3167 H 309.065 -0.294856 -4.59856 0
M  V30 3168 H 307.38 -0.108383 -4.16259 0
M  V30 3169 H 309.977 2.62878 -4.65617 0
M  V30 3170 H 310.32 2.91877 -2.96839 0
M  V30 3171 H 310.853 1.39751 -3.72444 0
M  V30 3172 H 307.592 0.379771 -6.54399 0
M  V30 3173 H 307.112 1.8695 -5.69921 0
M  V30 3174 H 308.791 1.65686 -6.25426 0
M  V30 3175 N 308.923 1.53595 0.353017 0
M  V30 3176 C 310.172 1.69603 1.09168 0
M  V30 3177 C 310.485 0.460925 1.90092 0
M  V30 3178 O 311.691 0.501774 2.66823 0
M  V30 3179 C 310.147 2.99872 1.9901 0
M  V30 3180 C 309.755 4.30687 1.23339 0
M  V30 3181 C 311.499 3.25246 2.72792 0
M  V30 3182 C 309.406 5.52036 2.12156 0
M  V30 3183 H 308.336 0.631966 0.411261 0
M  V30 3184 H 310.987 1.80096 0.351802 0
M  V30 3185 H 309.369 2.83212 2.7678 0
M  V30 3186 H 310.543 4.58019 0.505456 0
M  V30 3187 H 308.858 4.11853 0.613663 0
M  V30 3188 H 311.455 4.13095 3.39495 0
M  V30 3189 H 311.798 2.41846 3.38846 0
M  V30 3190 H 312.331 3.42638 2.021 0
M  V30 3191 H 309.07 6.37951 1.50659 0
M  V30 3192 H 308.59 5.28966 2.82764 0
M  V30 3193 H 310.269 5.87313 2.71427 0
M  V30 3194 N 310.401 -0.613514 1.45168 0
M  V30 3195 C 311.331 -1.7354 1.56225 0
M  V30 3196 C 312.312 -1.64981 0.41414 0
M  V30 3197 O 313.497 -1.83472 0.636526 0
M  V30 3198 C 310.627 -3.12128 1.52295 0
M  V30 3199 C 309.581 -3.35491 2.65762 0
M  V30 3200 C 308.907 -4.74291 2.46885 0
M  V30 3201 C 310.207 -3.26325 4.0781 0
M  V30 3202 H 311.901 -1.64543 2.50132 0
M  V30 3203 H 309.447 -0.790185 1.20383 0
M  V30 3204 H 311.4 -3.90404 1.58628 0
M  V30 3205 H 310.124 -3.2195 0.549139 0
M  V30 3206 H 308.783 -2.59603 2.58847 0
M  V30 3207 H 308.431 -4.80839 1.47657 0
M  V30 3208 H 308.131 -4.9088 3.22972 0
M  V30 3209 H 309.655 -5.54775 2.55063 0
M  V30 3210 H 311.069 -3.94483 4.16 0
M  V30 3211 H 309.466 -3.54445 4.8424 0
M  V30 3212 H 310.536 -2.23855 4.30136 0
M  V30 3213 N 311.879 -1.3236 -0.855495 0
M  V30 3214 C 313.29 -1.2056 -1.42556 0
M  V30 3215 C 313.641 0.182209 -1.95352 0
M  V30 3216 O 312.766 1.08088 -1.87472 0
M  V30 3217 C 313.361 -2.1826 -2.59129 0
M  V30 3218 C 311.92 -2.10351 -3.12137 0
M  V30 3219 C 311.067 -2.06674 -1.84882 0
M  V30 3220 H 314.018 -1.442 -0.662727 0
M  V30 3221 H 314.039 -1.78064 -3.36264 0
M  V30 3222 H 313.551 -3.19257 -2.20673 0
M  V30 3223 H 311.652 -1.12599 -3.55179 0
M  V30 3224 H 311.765 -3.00135 -3.73438 0
M  V30 3225 H 310.129 -1.51901 -2.04446 0
M  V30 3226 H 310.912 -3.09451 -1.48643 0
M  V30 3227 N 313.357 1.07166 -1.15556 0
M  V30 3228 C 314.287 2.16403 -0.877046 0
M  V30 3229 C 315.268 1.69217 0.173111 0
M  V30 3230 O 316.453 1.94181 0.027084 0
M  V30 3231 C 313.583 3.45349 -0.367632 0
M  V30 3232 C 312.537 4.05995 -1.35468 0
M  V30 3233 C 311.863 5.30045 -0.704038 0
M  V30 3234 C 313.163 4.45804 -2.72132 0
M  V30 3235 H 314.857 2.39959 -1.79053 0
M  V30 3236 H 312.403 1.15325 -0.862331 0
M  V30 3237 H 314.356 4.21095 -0.160317 0
M  V30 3238 H 313.08 3.21385 0.581326 0
M  V30 3239 H 311.739 3.32296 -1.54839 0
M  V30 3240 H 311.387 5.02373 0.251128 0
M  V30 3241 H 311.087 5.71579 -1.36277 0
M  V30 3242 H 312.611 6.08495 -0.50654 0
M  V30 3243 H 314.025 5.12671 -2.56595 0
M  V30 3244 H 312.422 4.98296 -3.34397 0
M  V30 3245 H 313.492 3.57083 -3.28054 0
M  V30 3246 N 314.835 0.952656 1.25548 0
M  V30 3247 C 316.06 0.623025 1.97821 0
M  V30 3248 C 316.485 -0.7976 1.70352 0
M  V30 3249 O 315.843 -1.53905 0.958283 0
M  V30 3250 C 315.891 0.885532 3.49558 0
M  V30 3251 O 314.995 -0.0366641 4.12384 0
M  V30 3252 H 314.336 0.237082 0.620232 0
M  V30 3253 H 316.866 1.27871 1.59719 0
M  V30 3254 H 316.876 0.811009 3.99858 0
M  V30 3255 H 315.551 1.92094 3.6888 0
M  V30 3256 H 314.128 0.0898954 3.72792 0
M  V30 3257 N 316.313 -1.40141 0.720998 0
M  V30 3258 C 317.243 -2.33339 0.0867621 0
M  V30 3259 C 318.224 -1.53178 -0.739622 0
M  V30 3260 O 319.409 -1.81625 -0.687449 0
M  V30 3261 C 316.539 -3.37194 -0.831728 0
M  V30 3262 C 315.493 -4.27857 -0.110558 0
M  V30 3263 C 314.819 -5.22294 -1.14513 0
M  V30 3264 C 316.119 -5.11872 1.0385 0
M  V30 3265 H 317.813 -2.86626 0.865219 0
M  V30 3266 H 315.359 -1.37814 0.417516 0
M  V30 3267 H 317.312 -4.01335 -1.28485 0
M  V30 3268 H 316.036 -2.82314 -1.64214 0
M  V30 3269 H 314.695 -3.65176 0.322797 0
M  V30 3270 H 314.343 -4.63717 -1.94874 0
M  V30 3271 H 314.043 -5.83797 -0.667446 0
M  V30 3272 H 315.567 -5.89312 -1.59824 0
M  V30 3273 H 316.981 -5.69436 0.664482 0
M  V30 3274 H 315.378 -5.82445 1.4449 0
M  V30 3275 H 316.448 -4.4753 1.86668 0
M  V30 3276 N 317.792 -0.46758 -1.50504 0
M  V30 3277 C 318.722 0.318381 -2.31319 0
M  V30 3278 C 319.703 0.993564 -1.38066 0
M  V30 3279 O 320.888 0.991411 -1.66987 0
M  V30 3280 C 318.018 1.40275 -3.17711 0
M  V30 3281 C 316.972 0.849373 -4.19487 0
M  V30 3282 C 316.298 2.03177 -4.94594 0
M  V30 3283 C 317.598 -0.136942 -5.2212 0
M  V30 3284 H 319.292 -0.356106 -2.97275 0
M  V30 3285 H 316.838 -0.172703 -1.42961 0
M  V30 3286 H 318.791 1.96004 -3.73042 0
M  V30 3287 H 317.515 2.10596 -2.49634 0
M  V30 3288 H 316.174 0.314076 -3.65252 0
M  V30 3289 H 315.822 2.72187 -4.22993 0
M  V30 3290 H 315.522 1.66774 -5.63436 0
M  V30 3291 H 317.046 2.59403 -5.52759 0
M  V30 3292 H 318.46 0.331056 -5.72343 0
M  V30 3293 H 316.857 -0.41507 -5.98663 0
M  V30 3294 H 317.927 -1.06398 -4.73083 0
M  V30 3295 N 319.27 1.56325 -0.20005 0
M  V30 3296 C 320.217 2.1932 0.718833 0
M  V30 3297 C 321.187 1.14198 1.20615 0
M  V30 3298 O 322.372 1.42469 1.26914 0
M  V30 3299 C 319.512 2.86041 1.93066 0
M  V30 3300 C 318.625 4.05702 1.48425 0
M  V30 3301 C 317.76 4.60266 2.65196 0
M  V30 3302 C 316.799 5.72273 2.17185 0
M  V30 3303 N 315.936 6.21221 3.27152 0
M  V30 3304 H 320.776 2.97486 0.17489 0
M  V30 3305 H 318.313 1.46911 0.0745794 0
M  V30 3306 H 320.271 3.22897 2.64184 0
M  V30 3307 H 318.901 2.1043 2.44783 0
M  V30 3308 H 317.953 3.74475 0.668755 0
M  V30 3309 H 319.265 4.86699 1.09204 0
M  V30 3310 H 318.419 4.99453 3.4443 0
M  V30 3311 H 317.158 3.78386 3.07693 0
M  V30 3312 H 316.163 5.3261 1.36407 0
M  V30 3313 H 317.388 6.55974 1.75713 0
M  V30 3314 H 315.334 5.42263 3.69171 0
M  V30 3315 H 315.251 6.97284 2.92116 0
M  V30 3316 H 316.519 6.65063 4.06585 0
M  V30 3317 N 320.748 -0.0735177 1.57428 0
M  V30 3318 C 321.696 -1.10628 2.04607 0
M  V30 3319 C 322.69 -1.40181 0.951088 0
M  V30 3320 O 323.896 -1.39608 1.1362 0
M  V30 3321 H 320.271 -0.374088 0.652351 0
M  V30 3322 H 322.242 -0.682218 2.90497 0
M  V30 3323 C 320.991 -2.41212 2.50423 0
M  V30 3324 H 320.314 -2.19322 3.34272 0
M  V30 3325 H 321.754 -3.11927 2.87189 0
M  V30 3326 C 320.213 -3.0705 1.38644 0
M  V30 3327 O 320.743 -3.95056 0.727582 0
M  V30 3328 N 318.949 -2.67645 1.132 0
M  V30 3329 H 318.496 -1.96169 1.66959 0
M  V30 3330 H 318.454 -3.1202 0.386147 0
M  V30 3331 N 322.226 -1.5378 -0.344866 0
M  V30 3332 C 323.156 -1.84662 -1.42906 0
M  V30 3333 C 324.137 -0.701648 -1.54955 0
M  V30 3334 O 325.322 -0.953438 -1.69184 0
M  V30 3335 C 322.452 -2.05503 -2.79974 0
M  V30 3336 C 321.406 -3.21318 -2.82734 0
M  V30 3337 C 320.732 -3.2749 -4.22675 0
M  V30 3338 C 322.032 -4.59456 -2.48389 0
M  V30 3339 H 323.726 -2.75461 -1.17311 0
M  V30 3340 H 321.272 -1.32542 -0.562896 0
M  V30 3341 H 323.225 -2.25691 -3.55867 0
M  V30 3342 H 321.949 -1.11434 -3.07002 0
M  V30 3343 H 320.608 -3.00984 -2.09294 0
M  V30 3344 H 320.256 -2.31019 -4.4681 0
M  V30 3345 H 319.956 -4.05316 -4.25433 0
M  V30 3346 H 321.48 -3.49887 -5.00412 0
M  V30 3347 H 322.894 -4.79667 -3.13995 0
M  V30 3348 H 321.291 -5.39675 -2.62432 0
M  V30 3349 H 322.361 -4.63155 -1.4358 0
M  V30 3350 N 323.704 0.605807 -1.45491 0
M  V30 3351 C 324.952 1.36207 -1.49305 0
M  V30 3352 C 325.273 1.94519 -0.136863 0
M  V30 3353 O 324.543 1.77261 0.833983 0
M  V30 3354 H 323.123 0.50565 -0.549843 0
M  V30 3355 H 325.785 0.711239 -1.81459 0
M  V30 3356 H 324.881 2.18058 -2.23287 0
M  V30 3357 N 325.182 1.32811 0.848464 0
M  V30 3358 C 326.412 1.26556 1.63301 0
M  V30 3359 C 326.82 -0.1676 1.88456 0
M  V30 3360 O 326.163 -1.11713 1.45828 0
M  V30 3361 C 326.225 1.96202 3.01239 0
M  V30 3362 C 325.889 3.45528 2.99098 0
M  V30 3363 C 326.886 4.40903 2.75501 0
M  V30 3364 C 324.571 3.87558 3.19537 0
M  V30 3365 C 326.565 5.76282 2.72356 0
M  V30 3366 C 324.252 5.23044 3.16019 0
M  V30 3367 C 325.25 6.17217 2.92458 0
M  V30 3368 O 324.938 7.50223 2.88825 0
M  V30 3369 H 324.67 0.43771 0.515156 0
M  V30 3370 H 327.224 1.7559 1.0657 0
M  V30 3371 H 325.454 1.41746 3.59785 0
M  V30 3372 H 327.143 1.83573 3.62016 0
M  V30 3373 H 327.909 4.09756 2.5947 0
M  V30 3374 H 323.788 3.14674 3.369 0
M  V30 3375 H 327.332 6.4976 2.53886 0
M  V30 3376 H 323.229 5.53818 3.31596 0
M  V30 3377 H 323.997 7.59657 3.04735 0
M  V30 3378 N 326.66 -1.06551 1.16123 0
M  V30 3379 C 327.59 -2.15935 0.88851 0
M  V30 3380 C 328.571 -1.69306 -0.164135 0
M  V30 3381 O 329.756 -1.94193 -0.0167857 0
M  V30 3382 C 326.886 -3.45149 0.385942 0
M  V30 3383 C 325.84 -4.05271 1.3762 0
M  V30 3384 C 325.166 -5.29664 0.732137 0
M  V30 3385 C 326.466 -4.44355 2.74493 0
M  V30 3386 H 328.16 -2.39006 1.80323 0
M  V30 3387 H 325.706 -1.14866 0.868435 0
M  V30 3388 H 327.659 -4.21004 0.182647 0
M  V30 3389 H 326.383 -3.21689 -0.564274 0
M  V30 3390 H 325.042 -3.3147 1.56599 0
M  V30 3391 H 324.69 -5.02499 -0.224483 0
M  V30 3392 H 324.39 -5.70848 1.39307 0
M  V30 3393 H 325.914 -6.08218 0.538802 0
M  V30 3394 H 327.328 -5.11303 2.59311 0
M  V30 3395 H 325.725 -4.96515 3.37035 0
M  V30 3396 H 326.795 -3.55339 3.29943 0
M  V30 3397 N 328.138 -0.959301 -1.25041 0
M  V30 3398 C 329.386 -0.615393 -1.92503 0
M  V30 3399 C 329.707 0.850969 -1.75452 0
M  V30 3400 O 328.977 1.60658 -1.12098 0
M  V30 3401 H 327.557 -0.224613 -0.712431 0
M  V30 3402 H 330.219 -1.21855 -1.5211 0
M  V30 3403 H 329.315 -0.848738 -3.00338 0
M  V30 3404 N 329.616 1.39756 -0.72842 0
M  V30 3405 C 330.846 2.04651 -0.283117 0
M  V30 3406 C 331.254 1.5502 1.08469 0
M  V30 3407 O 330.597 0.707343 1.69536 0
M  V30 3408 C 330.659 3.58947 -0.199309 0
M  V30 3409 C 330.323 4.31525 -1.5045 0
M  V30 3410 C 331.32 4.5861 -2.44894 0
M  V30 3411 C 329.005 4.70195 -1.76698 0
M  V30 3412 C 330.999 5.23366 -3.63822 0
M  V30 3413 C 328.686 5.3468 -2.95906 0
M  V30 3414 C 329.684 5.61198 -3.89289 0
M  V30 3415 O 329.372 6.24347 -5.06404 0
M  V30 3416 H 329.104 0.664777 -0.122666 0
M  V30 3417 H 331.658 1.79913 -0.990987 0
M  V30 3418 H 329.888 3.82556 0.56461 0
M  V30 3419 H 331.577 4.0534 0.213125 0
M  V30 3420 H 332.343 4.29187 -2.25883 0
M  V30 3421 H 328.222 4.48916 -1.04859 0
M  V30 3422 H 331.766 5.4398 -4.36728 0
M  V30 3423 H 327.663 5.63524 -3.14819 0
M  V30 3424 H 328.431 6.42842 -5.06652 0
M  V30 3425 N 331.094 0.475555 1.50254 0
M  V30 3426 C 332.322 -0.0754493 2.06762 0
M  V30 3427 C 332.737 -1.33111 1.33891 0
M  V30 3428 O 332.094 -1.77846 0.40952 0
M  V30 3429 C 332.145 -0.359008 3.59713 0
M  V30 3430 O 331.866 0.846851 4.29837 0
M  V30 3431 C 333.367 -0.956484 4.32858 0
M  V30 3432 H 330.587 0.00907525 0.670939 0
M  V30 3433 H 333.131 0.665618 1.93364 0
M  V30 3434 H 331.286 -1.05001 3.72899 0
M  V30 3435 H 331.7 0.594162 5.21124 0
M  V30 3436 H 333.174 -1.10463 5.40834 0
M  V30 3437 H 333.651 -1.94775 3.93649 0
M  V30 3438 H 334.257 -0.303723 4.24214 0
M  V30 3439 N 332.573 -1.56217 0.208337 0
M  V30 3440 C 333.798 -2.02782 -0.435222 0
M  V30 3441 C 334.223 -1.08738 -1.53485 0
M  V30 3442 O 333.581 -0.0731855 -1.81152 0
M  V30 3443 C 333.629 -3.47687 -0.956335 0
M  V30 3444 O 332.733 -3.56773 -2.06849 0
M  V30 3445 H 332.074 -0.656403 -0.100158 0
M  V30 3446 H 334.604 -2.02033 0.3231 0
M  V30 3447 H 334.614 -3.87745 -1.26955 0
M  V30 3448 H 333.289 -4.15624 -0.15143 0
M  V30 3449 H 331.866 -3.28597 -1.76292 0
M  V30 3450 N 334.051 0.0651679 -1.57465 0
M  V30 3451 C 335.299 0.761555 -1.87202 0
M  V30 3452 C 335.62 1.77778 -0.801243 0
M  V30 3453 O 334.89 1.95166 0.16937 0
M  V30 3454 H 333.47 0.284251 -0.690804 0
M  V30 3455 H 336.132 0.0396827 -1.9486 0
M  V30 3456 H 335.228 1.27365 -2.84929 0
M  V30 3457 N 335.529 1.53961 0.336706 0
M  V30 3458 C 336.776 1.71536 1.07618 0
M  V30 3459 C 337.104 0.482125 1.8843 0
M  V30 3460 O 336.359 -0.536142 1.88213 0
M  V30 3461 C 336.658 2.93493 2.03953 0
M  V30 3462 C 336.324 4.28811 1.39399 0
M  V30 3463 C 334.986 4.65602 1.21523 0
M  V30 3464 C 337.338 5.12844 0.929541 0
M  V30 3465 C 334.666 5.84037 0.558312 0
M  V30 3466 C 337.018 6.31951 0.286505 0
M  V30 3467 C 335.682 6.67432 0.0954869 0
M  V30 3468 H 334.952 0.627696 0.393801 0
M  V30 3469 H 337.599 1.88186 0.354715 0
M  V30 3470 H 335.904 2.71475 2.82504 0
M  V30 3471 H 337.601 3.04285 2.61174 0
M  V30 3472 H 334.191 3.99858 1.54311 0
M  V30 3473 H 338.375 4.84947 1.05548 0
M  V30 3474 H 333.631 6.10097 0.398995 0
M  V30 3475 H 337.805 6.96352 -0.0814376 0
M  V30 3476 H 335.432 7.59063 -0.415579 0
M  V30 3477 N 337.007 -0.598083 1.45811 0
M  V30 3478 C 338.232 -1.3881 1.54099 0
M  V30 3479 C 338.657 -1.8726 0.177578 0
M  V30 3480 O 338.015 -1.6069 -0.839541 0
M  V30 3481 C 338.063 -2.56217 2.53743 0
M  V30 3482 O 337.167 -3.5716 2.06182 0
M  V30 3483 H 336.508 -0.414024 0.519115 0
M  V30 3484 H 339.038 -0.726971 1.91249 0
M  V30 3485 H 339.048 -3.03337 2.72856 0
M  V30 3486 H 337.723 -2.20303 3.5276 0
M  V30 3487 H 336.3 -3.16624 1.96987 0
M  V30 3488 N 338.485 -1.33259 -0.841409 0
M  V30 3489 C 339.415 -1.25926 -1.96634 0
M  V30 3490 C 340.396 -0.140349 -1.6952 0
M  V30 3491 O 341.581 -0.329707 -1.91381 0
M  V30 3492 C 338.711 -0.99512 -3.32738 0
M  V30 3493 C 337.665 -2.0767 -3.74242 0
M  V30 3494 C 336.991 -1.66474 -5.08125 0
M  V30 3495 C 338.291 -3.49318 -3.88297 0
M  V30 3496 H 339.985 -2.20046 -2.03027 0
M  V30 3497 H 337.531 -1.05931 -0.975425 0
M  V30 3498 H 339.484 -0.930323 -4.11002 0
M  V30 3499 H 338.208 -0.0183004 -3.26595 0
M  V30 3500 H 336.867 -2.13187 -2.98239 0
M  V30 3501 H 336.515 -0.675012 -4.9845 0
M  V30 3502 H 336.215 -2.3885 -5.36865 0
M  V30 3503 H 337.739 -1.61455 -5.88867 0
M  V30 3504 H 339.153 -3.46316 -4.56879 0
M  V30 3505 H 337.55 -4.20158 -4.28471 0
M  V30 3506 H 338.62 -3.8801 -2.9082 0
M  V30 3507 N 339.963 1.05934 -1.16686 0
M  V30 3508 C 341.191 1.8249 -0.974929 0
M  V30 3509 C 341.606 1.82679 0.476861 0
M  V30 3510 O 340.963 1.2486 1.33103 0
M  V30 3511 C 341.014 3.28943 -1.49929 0
M  V30 3512 O 340.735 3.28886 -2.89423 0
M  V30 3513 C 342.236 4.22215 -1.35089 0
M  V30 3514 H 339.456 0.575295 -0.345365 0
M  V30 3515 H 342 1.33631 -1.548 0
M  V30 3516 H 340.155 3.751 -0.968423 0
M  V30 3517 H 340.569 4.20493 -3.13506 0
M  V30 3518 H 342.043 5.22987 -1.76603 0
M  V30 3519 H 342.52 4.38195 -0.296935 0
M  V30 3520 H 343.126 3.81907 -1.87155 0
M  V30 3521 N 341.441 0.965919 1.2453 0
M  V30 3522 C 342.681 0.634656 1.94297 0
M  V30 3523 C 343.045 -0.814822 1.73852 0
M  V30 3524 O 344.246 -1.25622 2.3764 0
M  V30 3525 C 342.517 0.99702 3.43212 0
M  V30 3526 S 344.076 0.780038 4.31811 0
M  V30 3527 H 340.894 0.232893 0.671775 0
M  V30 3528 H 343.496 1.24249 1.50938 0
M  V30 3529 H 342.2 2.04886 3.55598 0
M  V30 3530 H 341.731 0.379888 3.91562 0
M  V30 3531 H 343.746 -0.343512 4.9501 0
M  V30 3532 N 342.919 -1.39368 0.735821 0
M  V30 3533 C 343.852 -2.28155 0.0451175 0
M  V30 3534 C 344.83 -1.44433 -0.746852 0
M  V30 3535 O 346.014 -1.73823 -0.729237 0
M  V30 3536 C 343.141 -3.253 -0.943266 0
M  V30 3537 C 342.187 -4.25826 -0.239685 0
M  V30 3538 S 343.02 -5.25166 1.04693 0
M  V30 3539 C 344.176 -6.2587 0.0611639 0
M  V30 3540 H 344.409 -2.86388 0.79807 0
M  V30 3541 H 341.942 -1.45104 0.527653 0
M  V30 3542 H 343.9 -3.81789 -1.50824 0
M  V30 3543 H 342.561 -2.66085 -1.66906 0
M  V30 3544 H 341.754 -4.94229 -0.987596 0
M  V30 3545 H 341.356 -3.73141 0.253274 0
M  V30 3546 H 343.648 -6.73007 -0.778941 0
M  V30 3547 H 344.591 -7.04508 0.712362 0
M  V30 3548 H 344.999 -5.63639 -0.311602 0
M  V30 3549 N 344.397 -0.483516 -1.5 0
M  V30 3550 C 345.643 0.0672592 -2.02688 0
M  V30 3551 C 345.976 1.38247 -1.36387 0
M  V30 3552 O 345.251 1.88131 -0.493675 0
M  V30 3553 C 345.534 0.238109 -3.59312 0
M  V30 3554 C 345.387 -1.099 -4.36168 0
M  V30 3555 C 346.706 0.986916 -4.28892 0
M  V30 3556 H 343.825 0.0229696 -0.736642 0
M  V30 3557 H 346.467 -0.631527 -1.79197 0
M  V30 3558 H 344.617 0.8333 -3.79458 0
M  V30 3559 H 346.289 -1.73172 -4.27562 0
M  V30 3560 H 344.532 -1.69261 -3.99416 0
M  V30 3561 H 345.203 -0.932954 -5.44059 0
M  V30 3562 H 347.679 0.482302 -4.13295 0
M  V30 3563 H 346.555 1.07527 -5.38265 0
M  V30 3564 H 346.816 2.0265 -3.92919 0
M  V30 3565 N 345.875 1.56104 -0.216619 0
M  V30 3566 C 347.122 1.98172 0.416416 0
M  V30 3567 C 347.45 1.10413 1.60122 0
M  V30 3568 O 346.705 0.147967 1.9514 0
M  V30 3569 C 347.004 3.45923 0.898464 0
M  V30 3570 C 346.67 4.50559 -0.175288 0
M  V30 3571 C 345.332 4.78897 -0.470271 0
M  V30 3572 C 347.684 5.1334 -0.901728 0
M  V30 3573 C 345.012 5.67299 -1.4963 0
M  V30 3574 C 347.364 6.02853 -1.91705 0
M  V30 3575 C 346.028 6.29537 -2.21901 0
M  V30 3576 H 345.298 0.725164 0.152377 0
M  V30 3577 H 347.945 1.88839 -0.318103 0
M  V30 3578 H 346.25 3.52434 1.71165 0
M  V30 3579 H 347.947 3.75841 1.39803 0
M  V30 3580 H 344.537 4.28551 0.0647806 0
M  V30 3581 H 348.721 4.91521 -0.687072 0
M  V30 3582 H 343.977 5.86239 -1.73592 0
M  V30 3583 H 348.151 6.50552 -2.48505 0
M  V30 3584 H 345.778 6.97835 -3.01548 0
M  V30 3585 N 347.353 -0.0568162 1.57498 0
M  V30 3586 C 348.6 -0.753104 1.87975 0
M  V30 3587 C 348.928 -1.76815 0.81035 0
M  V30 3588 O 348.183 -1.94756 -0.19199 0
M  V30 3589 C 348.482 -1.48359 3.25153 0
M  V30 3590 C 348.148 -0.60713 4.46794 0
M  V30 3591 C 346.81 -0.365642 4.79809 0
M  V30 3592 C 349.162 -0.000305978 5.212 0
M  V30 3593 C 346.49 0.491905 5.84634 0
M  V30 3594 C 348.842 0.844781 6.26934 0
M  V30 3595 C 347.506 1.096 6.58441 0
M  V30 3596 H 346.776 -0.27558 0.687849 0
M  V30 3597 H 349.423 -0.0135173 1.91495 0
M  V30 3598 H 347.728 -2.29577 3.17492 0
M  V30 3599 H 349.425 -2.02739 3.45974 0
M  V30 3600 H 346.015 -0.805487 4.20963 0
M  V30 3601 H 350.199 -0.173961 4.95995 0
M  V30 3602 H 345.455 0.695131 6.07436 0
M  V30 3603 H 349.629 1.32165 6.83744 0
M  V30 3604 H 347.256 1.76224 7.39492 0
M  V30 3605 N 348.832 -1.54138 -0.328536 0
M  V30 3606 C 350.078 -1.7236 -1.06865 0
M  V30 3607 C 350.411 -0.493231 -1.87832 0
M  V30 3608 O 349.686 0.5098 -1.877 0
M  V30 3609 C 349.969 -2.99621 -1.99747 0
M  V30 3610 C 349.822 -4.32899 -1.22143 0
M  V30 3611 C 351.141 -3.22615 -2.99345 0
M  V30 3612 H 348.26 -0.627151 -0.387105 0
M  V30 3613 H 350.902 -1.86827 -0.345767 0
M  V30 3614 H 349.052 -2.87418 -2.61387 0
M  V30 3615 H 350.724 -4.56978 -0.630017 0
M  V30 3616 H 348.967 -4.30628 -0.523628 0
M  V30 3617 H 349.638 -5.18154 -1.90318 0
M  V30 3618 H 352.114 -3.34248 -2.47826 0
M  V30 3619 H 350.99 -4.13027 -3.61524 0
M  V30 3620 H 351.251 -2.3961 -3.71536 0
M  V30 3621 N 350.31 0.590341 -1.46126 0
M  V30 3622 C 351.535 1.37991 -1.54833 0
M  V30 3623 C 351.96 1.87163 -0.187506 0
M  V30 3624 O 351.318 1.61133 0.831008 0
M  V30 3625 C 351.366 2.54867 -2.55098 0
M  V30 3626 O 350.47 3.56061 -2.08073 0
M  V30 3627 H 349.811 0.411265 -0.521303 0
M  V30 3628 H 352.341 0.716819 -1.91632 0
M  V30 3629 H 352.351 3.01886 -2.74461 0
M  V30 3630 H 351.026 2.18429 -3.53923 0
M  V30 3631 H 349.603 3.15574 -1.98664 0
M  V30 3632 N 351.788 1.33704 0.83433 0
M  V30 3633 C 353.034 1.25603 1.59222 0
M  V30 3634 C 353.367 -0.176659 1.93395 0
M  V30 3635 O 352.642 -1.11915 1.59076 0
M  V30 3636 C 352.925 2.13576 2.89926 0
M  V30 3637 C 352.778 3.65326 2.62406 0
M  V30 3638 C 354.097 2.01238 3.91397 0
M  V30 3639 H 351.216 0.457613 0.577719 0
M  V30 3640 H 353.858 1.63848 0.961972 0
M  V30 3641 H 352.008 1.8109 3.43713 0
M  V30 3642 H 353.68 4.08124 2.15017 0
M  V30 3643 H 351.923 3.8698 1.96033 0
M  V30 3644 H 352.594 4.22232 3.55562 0
M  V30 3645 H 355.07 2.29738 3.46929 0
M  V30 3646 H 353.946 2.65036 4.80673 0
M  V30 3647 H 354.207 0.985951 4.30966 0
M  V30 3648 N 353.266 -1.05314 1.17247 0
M  V30 3649 C 354.512 -1.78557 0.961513 0
M  V30 3650 C 354.845 -1.87419 -0.508697 0
M  V30 3651 O 354.12 -1.37307 -1.37757 0
M  V30 3652 C 354.403 -3.22514 1.60176 0
M  V30 3653 C 354.256 -3.21673 3.14399 0
M  V30 3654 C 355.575 -4.20318 1.30463 0
M  V30 3655 H 352.694 -0.6482 0.350723 0
M  V30 3656 H 355.336 -1.23102 1.44727 0
M  V30 3657 H 353.486 -3.69867 1.18871 0
M  V30 3658 H 355.158 -2.82405 3.64753 0
M  V30 3659 H 353.401 -2.60048 3.47214 0
M  V30 3660 H 354.072 -4.23271 3.54324 0
M  V30 3661 H 356.548 -3.81454 1.66229 0
M  V30 3662 H 355.424 -5.19289 1.77848 0
M  V30 3663 H 355.685 -4.41526 0.22521 0
M  V30 3664 N 354.744 -0.972509 -1.24016 0
M  V30 3665 C 355.993 -0.632603 -1.91523 0
M  V30 3666 C 356.306 0.836641 -1.76804 0
M  V30 3667 O 357.512 1.28728 -2.39043 0
M  V30 3668 C 355.968 -1.08082 -3.43287 0
M  V30 3669 C 355.576 -2.57386 -3.66683 0
M  V30 3670 C 357.32 -0.814288 -4.16617 0
M  V30 3671 C 355.227 -2.95915 -5.12043 0
M  V30 3672 H 354.157 -0.232898 -0.717129 0
M  V30 3673 H 356.808 -1.17936 -1.40582 0
M  V30 3674 H 355.19 -0.462339 -3.93292 0
M  V30 3675 H 356.364 -3.24405 -3.27258 0
M  V30 3676 H 354.679 -2.81701 -3.06649 0
M  V30 3677 H 357.276 -1.0781 -5.23718 0
M  V30 3678 H 357.619 0.24955 -4.15551 0
M  V30 3679 H 358.152 -1.39397 -3.72577 0
M  V30 3680 H 354.891 -4.0139 -5.18234 0
M  V30 3681 H 354.411 -2.33584 -5.52448 0
M  V30 3682 H 356.09 -2.86086 -5.80314 0
M  V30 3683 N 356.222 1.38976 -0.743202 0
M  V30 3684 C 357.452 2.04339 -0.304807 0
M  V30 3685 C 357.86 1.56162 1.06819 0
M  V30 3686 O 357.203 0.725284 1.68776 0
M  V30 3687 C 357.265 3.58716 -0.237369 0
M  V30 3688 C 356.929 4.29905 -1.55018 0
M  V30 3689 C 357.926 4.55987 -2.49744 0
M  V30 3690 C 355.611 4.68294 -1.81675 0
M  V30 3691 C 357.605 5.19478 -3.69353 0
M  V30 3692 C 355.292 5.31512 -3.0156 0
M  V30 3693 C 356.29 5.57037 -3.9522 0
M  V30 3694 O 355.978 6.18941 -5.12998 0
M  V30 3695 H 355.71 0.663439 -0.12971 0
M  V30 3696 H 358.264 1.78852 -1.01001 0
M  V30 3697 H 356.494 3.83133 0.524003 0
M  V30 3698 H 358.183 4.05543 0.170121 0
M  V30 3699 H 358.949 4.26767 -2.30423 0
M  V30 3700 H 354.828 4.47779 -1.09615 0
M  V30 3701 H 358.372 5.39318 -4.42473 0
M  V30 3702 H 354.269 5.60153 -3.20778 0
M  V30 3703 H 355.037 6.37433 -5.13441 0
M  V30 3704 N 357.7 0.491464 1.49741 0
M  V30 3705 C 358.647 -0.292027 2.28945 0
M  V30 3706 C 359.617 -0.968973 1.34908 0
M  V30 3707 O 360.802 -0.97748 1.6386 0
M  V30 3708 C 357.942 -1.35617 3.17336 0
M  V30 3709 C 357.055 -0.691957 4.26422 0
M  V30 3710 C 356.19 -1.73572 5.02042 0
M  V30 3711 C 355.229 -1.05286 6.02977 0
M  V30 3712 N 354.366 -2.0404 6.71798 0
M  V30 3713 H 359.206 0.389654 2.95442 0
M  V30 3714 H 356.743 0.204003 1.45679 0
M  V30 3715 H 358.701 -1.98502 3.66951 0
M  V30 3716 H 357.331 -2.00674 2.52844 0
M  V30 3717 H 356.383 0.0499523 3.80367 0
M  V30 3718 H 357.695 -0.153946 4.98562 0
M  V30 3719 H 356.849 -2.43987 5.55478 0
M  V30 3720 H 355.588 -2.30757 4.29654 0
M  V30 3721 H 354.593 -0.334446 5.48782 0
M  V30 3722 H 355.818 -0.487636 6.77347 0
M  V30 3723 H 353.764 -2.60205 6.02187 0
M  V30 3724 H 353.681 -1.55279 7.39881 0
M  V30 3725 H 354.949 -2.73772 7.29842 0
M  V30 3726 N 359.178 -1.55987 0.224894 0
M  V30 3727 C 360.125 -2.20436 -0.68385 0
M  V30 3728 C 361.095 -1.16102 -1.18783 0
M  V30 3729 O 362.28 -1.4447 -1.24632 0
M  V30 3730 C 359.42 -2.89076 -1.88491 0
M  V30 3731 C 358.533 -4.08012 -1.41951 0
M  V30 3732 C 357.668 -4.64426 -2.5784 0
M  V30 3733 C 356.707 -5.75656 -2.08053 0
M  V30 3734 N 355.844 -6.26347 -3.17227 0
M  V30 3735 H 360.684 -2.97727 -0.12754 0
M  V30 3736 H 358.221 -1.47011 -0.0511978 0
M  V30 3737 H 360.179 -3.27059 -2.59014 0
M  V30 3738 H 358.809 -2.14298 -2.41405 0
M  V30 3739 H 357.861 -3.75492 -0.609095 0
M  V30 3740 H 359.173 -4.88375 -1.01447 0
M  V30 3741 H 358.327 -5.04869 -3.3644 0
M  V30 3742 H 357.066 -3.83233 -3.01635 0
M  V30 3743 H 356.071 -5.34712 -1.27916 0
M  V30 3744 H 357.296 -6.58686 -1.65255 0
M  V30 3745 H 355.242 -5.48067 -3.60497 0
M  V30 3746 H 355.159 -7.01843 -2.80986 0
M  V30 3747 H 356.427 -6.71447 -3.95953 0
M  V30 3748 N 360.656 0.0484629 -1.57525 0
M  V30 3749 C 361.903 0.743125 -1.88372 0
M  V30 3750 C 362.231 1.76383 -0.819715 0
M  V30 3751 O 361.486 1.94855 0.181659 0
M  V30 3752 C 361.785 1.46632 -3.25935 0
M  V30 3753 C 361.451 0.583427 -4.4711 0
M  V30 3754 C 360.113 0.340191 -4.79996 0
M  V30 3755 C 362.465 -0.0273345 -5.21193 0
M  V30 3756 C 359.793 -0.522903 -5.84365 0
M  V30 3757 C 362.145 -0.878017 -6.26477 0
M  V30 3758 C 360.809 -1.1309 -6.5785 0
M  V30 3759 H 360.079 0.271929 -0.689301 0
M  V30 3760 H 362.726 0.00336166 -1.915 0
M  V30 3761 H 361.031 2.2789 -3.18706 0
M  V30 3762 H 362.728 2.00902 -3.47044 0
M  V30 3763 H 359.318 0.783151 -4.21384 0
M  V30 3764 H 363.502 0.147654 -4.9608 0
M  V30 3765 H 358.758 -0.727335 -6.07058 0
M  V30 3766 H 362.932 -1.35789 -6.83033 0
M  V30 3767 H 360.559 -1.80144 -7.38547 0
M  V30 3768 N 362.134 1.5431 0.320358 0
M  V30 3769 C 363.066 1.80262 1.41556 0
M  V30 3770 C 364.079 0.684723 1.477 0
M  V30 3771 O 365.268 0.961886 1.50366 0
M  V30 3772 C 362.368 1.90825 2.8007 0
M  V30 3773 C 361.541 3.21023 2.97091 0
M  V30 3774 C 360.6 3.22247 4.15985 0
M  V30 3775 O 359.626 3.95871 4.08992 0
M  V30 3776 N 360.828 2.46258 5.25678 0
M  V30 3777 H 363.593 2.74778 1.19655 0
M  V30 3778 H 361.154 1.53646 0.510358 0
M  V30 3779 H 363.146 1.89067 3.57821 0
M  V30 3780 H 361.716 1.03392 2.95006 0
M  V30 3781 H 360.936 3.35715 2.06614 0
M  V30 3782 H 362.224 4.0698 3.05361 0
M  V30 3783 H 361.622 1.86037 5.34235 0
M  V30 3784 H 360.179 2.50275 6.01835 0
M  V30 3785 N 363.613 -0.582584 1.46437 0
M  V30 3786 C 364.862 -1.337 1.5102 0
M  V30 3787 C 365.175 -1.94891 0.166359 0
M  V30 3788 O 366.381 -2.71351 0.0899954 0
M  V30 3789 C 364.837 -2.42315 2.66104 0
M  V30 3790 C 364.445 -1.87427 4.06909 0
M  V30 3791 C 366.189 -3.19099 2.79958 0
M  V30 3792 C 364.096 -2.93672 5.13333 0
M  V30 3793 H 363.026 -0.502619 0.562041 0
M  V30 3794 H 365.677 -0.621701 1.72647 0
M  V30 3795 H 364.059 -3.16645 2.37807 0
M  V30 3796 H 365.233 -1.19639 4.44998 0
M  V30 3797 H 363.548 -1.2331 3.97723 0
M  V30 3798 H 366.145 -3.9839 3.56636 0
M  V30 3799 H 366.488 -3.71695 1.87479 0
M  V30 3800 H 367.021 -2.51875 3.07902 0
M  V30 3801 H 363.76 -2.45962 6.07604 0
M  V30 3802 H 363.28 -3.59948 4.79789 0
M  V30 3803 H 364.959 -3.5762 5.39182 0
M  V30 3804 N 365.091 -1.34144 -0.827227 0
M  V30 3805 C 366.502 -1.23557 -1.39966 0
M  V30 3806 C 366.853 0.140731 -1.95695 0
M  V30 3807 O 365.978 1.04087 -1.89723 0
M  V30 3808 C 366.573 -2.23708 -2.54441 0
M  V30 3809 C 365.132 -2.16924 -3.07605 0
M  V30 3810 C 364.279 -2.10549 -1.80456 0
M  V30 3811 H 367.23 -1.45573 -0.631991 0
M  V30 3812 H 367.251 -1.85157 -3.32411 0
M  V30 3813 H 366.763 -3.23866 -2.13851 0
M  V30 3814 H 364.864 -1.20107 -3.52711 0
M  V30 3815 H 364.977 -3.07988 -3.66988 0
M  V30 3816 H 363.341 -1.56203 -2.01178 0
M  V30 3817 H 364.124 -3.12535 -1.42046 0
M  V30 3818 N 366.569 1.04691 -1.17803 0
M  V30 3819 C 367.809 1.79352 -0.980423 0
M  V30 3820 C 368.173 1.85853 0.481958 0
M  V30 3821 O 369.374 2.56656 0.798809 0
M  V30 3822 C 367.645 3.19088 -1.6099 0
M  V30 3823 S 369.204 4.10164 -1.55918 0
M  V30 3824 H 366.022 0.617631 -0.352211 0
M  V30 3825 H 368.624 1.25575 -1.49837 0
M  V30 3826 H 367.328 3.11962 -2.66661 0
M  V30 3827 H 366.859 3.77941 -1.09197 0
M  V30 3828 H 368.874 4.92907 -0.570685 0
M  V30 3829 N 368.047 0.979072 1.23499 0
M  V30 3830 C 369.458 0.684391 1.73704 0
M  V30 3831 C 369.809 -0.799448 1.79174 0
M  V30 3832 O 368.934 -1.62531 1.42873 0
M  V30 3833 C 369.529 1.23564 3.15464 0
M  V30 3834 C 368.088 0.99063 3.6313 0
M  V30 3835 C 367.235 1.36416 2.41425 0
M  V30 3836 H 370.186 1.15307 1.09041 0
M  V30 3837 H 370.207 0.607417 3.7562 0
M  V30 3838 H 369.719 2.31561 3.1145 0
M  V30 3839 H 367.82 -0.0733136 3.72528 0
M  V30 3840 H 367.933 1.64427 4.5 0
M  V30 3841 H 366.297 0.782616 2.42378 0
M  V30 3842 H 367.08 2.45387 2.40083 0
M  V30 3843 N 369.525 -1.3858 0.750561 0
M  V30 3844 C 370.455 -2.33102 0.136237 0
M  V30 3845 C 371.436 -1.54713 -0.706965 0
M  V30 3846 O 372.621 -1.83043 -0.648769 0
M  V30 3847 C 369.751 -3.38882 -0.760017 0
M  V30 3848 C 368.705 -4.27995 -0.0197785 0
M  V30 3849 C 368.031 -5.24605 -1.03408 0
M  V30 3850 C 369.331 -5.09554 1.14684 0
M  V30 3851 H 371.025 -2.84726 0.925822 0
M  V30 3852 H 368.571 -1.36898 0.446654 0
M  V30 3853 H 370.524 -4.0397 -1.19943 0
M  V30 3854 H 369.248 -2.85734 -1.58189 0
M  V30 3855 H 367.907 -3.64409 0.400184 0
M  V30 3856 H 367.555 -4.67746 -1.84994 0
M  V30 3857 H 367.255 -5.85081 -0.543464 0
M  V30 3858 H 368.779 -5.9257 -1.47288 0
M  V30 3859 H 370.193 -5.67899 0.785118 0
M  V30 3860 H 368.59 -5.7925 1.56812 0
M  V30 3861 H 369.66 -4.4347 1.96118 0
M  V30 3862 N 371.003 -0.499398 -1.49478 0
M  V30 3863 C 372.414 -0.051215 -1.8663 0
M  V30 3864 C 372.765 1.36238 -1.41186 0
M  V30 3865 O 371.89 2.01502 -0.789051 0
M  V30 3866 C 372.485 -0.0861651 -3.3869 0
M  V30 3867 C 371.044 0.30667 -3.75149 0
M  V30 3868 C 370.191 -0.459397 -2.73468 0
M  V30 3869 H 373.142 -0.712264 -1.41818 0
M  V30 3870 H 373.163 0.709507 -3.73826 0
M  V30 3871 H 372.675 -1.11512 -3.71735 0
M  V30 3872 H 370.776 1.33892 -3.47712 0
M  V30 3873 H 370.889 -0.0116669 -4.79099 0
M  V30 3874 H 369.253 0.0905645 -2.54539 0
M  V30 3875 H 370.036 -1.4884 -3.09357 0
M  V30 3876 N 372.481 1.55866 -0.233164 0
M  V30 3877 C 373.727 1.98897 0.395959 0
M  V30 3878 C 374.06 1.12091 1.58585 0
M  V30 3879 O 373.335 0.181182 1.93654 0
M  V30 3880 C 373.618 3.50658 0.819224 0
M  V30 3881 C 373.471 4.48233 -0.375109 0
M  V30 3882 C 374.79 4.07135 1.67121 0
M  V30 3883 H 371.909 0.723102 0.142451 0
M  V30 3884 H 374.551 1.87082 -0.331725 0
M  V30 3885 H 372.701 3.60857 1.43925 0
M  V30 3886 H 374.373 4.50031 -1.01341 0
M  V30 3887 H 372.616 4.21624 -1.02058 0
M  V30 3888 H 373.287 5.51988 -0.0358328 0
M  V30 3889 H 375.763 3.99952 1.14795 0
M  V30 3890 H 374.639 5.13615 1.93625 0
M  V30 3891 H 374.9 3.54736 2.63846 0
M  V30 3892 N 373.959 -0.0401083 1.57549 0
M  V30 3893 C 374.889 -1.04384 2.08869 0
M  V30 3894 C 375.87 -1.38407 0.988817 0
M  V30 3895 O 377.055 -1.47483 1.26342 0
M  V30 3896 C 374.185 -2.34808 2.55895 0
M  V30 3897 C 373.139 -2.15057 3.70047 0
M  V30 3898 C 372.465 -3.51145 4.03239 0
M  V30 3899 C 373.765 -1.54576 4.98902 0
M  V30 3900 H 375.459 -0.616666 2.92981 0
M  V30 3901 H 373.005 -0.295184 1.40942 0
M  V30 3902 H 374.958 -3.05346 2.90417 0
M  V30 3903 H 373.682 -2.79565 1.68853 0
M  V30 3904 H 372.341 -1.46954 3.35857 0
M  V30 3905 H 371.989 -3.93529 3.13279 0
M  V30 3906 H 371.689 -3.38758 4.80122 0
M  V30 3907 H 373.213 -4.23062 4.40285 0
M  V30 3908 H 374.627 -2.15017 5.31451 0
M  V30 3909 H 373.024 -1.52796 5.80322 0
M  V30 3910 H 374.094 -0.51039 4.82206 0
M  V30 3911 N 375.437 -1.54477 -0.31217 0
M  V30 3912 C 376.714 -1.63891 -1.06767 0
M  V30 3913 C 377.094 -0.480028 -2.0557 0
M  V30 3914 O 376.442 0.524487 -2.22399 0
M  V30 3915 C 376.652 -3.01402 -1.75948 0
M  V30 3916 C 378 -3.57838 -2.28554 0
M  V30 3917 O 379.024 -3.03782 -1.85998 0
M  V30 3918 O 377.883 -4.52462 -3.06497 0
M  V30 3919 H 374.977 -0.664125 -0.492816 0
M  V30 3920 H 377.523 -1.66823 -0.311149 0
M  V30 3921 H 376.295 -3.77187 -1.04144 0
M  V30 3922 H 375.918 -3.02199 -2.58383 0
M  V30 3923 N 376.915 0.57481 -1.46744 0
M  V30 3924 C 377.865 1.67838 -1.54319 0
M  V30 3925 C 378.849 1.55759 -0.40346 0
M  V30 3926 O 380.041 1.6454 -0.652347 0
M  V30 3927 C 377.17 3.06624 -1.5439 0
M  V30 3928 C 376.256 3.23971 -2.73685 0
M  V30 3929 N 376.647 3.11447 -3.9854 0
M  V30 3930 C 374.945 3.5493 -2.70075 0
M  V30 3931 C 375.646 3.31011 -4.78337 0
M  V30 3932 N 374.622 3.56533 -4.10348 0
M  V30 3933 H 378.424 1.56698 -2.48642 0
M  V30 3934 H 375.938 0.779071 -1.42493 0
M  V30 3935 H 377.935 3.85839 -1.57905 0
M  V30 3936 H 376.595 3.1889 -0.611493 0
M  V30 3937 H 377.606 2.89145 -4.29669 0
M  V30 3938 H 374.283 3.73832 -1.85893 0
M  V30 3939 H 375.673 3.26445 -5.87268 0
M  V30 3940 N 378.394 1.34581 0.820102 0
M  V30 3941 C 379.619 1.30333 1.61332 0
M  V30 3942 C 380.044 -0.119339 1.87721 0
M  V30 3943 O 379.402 -1.08197 1.45475 0
M  V30 3944 C 379.45 2.10258 2.92957 0
M  V30 3945 O 378.554 1.47404 3.85157 0
M  V30 3946 H 377.895 0.447488 0.490561 0
M  V30 3947 H 380.425 1.77425 1.01889 0
M  V30 3948 H 380.435 2.21718 3.42498 0
M  V30 3949 H 379.11 3.13693 2.73074 0
M  V30 3950 H 377.687 1.44703 3.43679 0
M  V30 3951 N 379.872 -1.04064 1.18357 0
M  V30 3952 C 381.118 -1.77528 0.980397 0
M  V30 3953 C 381.451 -1.87948 -0.48879 0
M  V30 3954 O 380.726 -1.3876 -1.36293 0
M  V30 3955 C 381.009 -3.20797 1.63588 0
M  V30 3956 C 380.862 -3.1832 3.17793 0
M  V30 3957 C 382.181 -4.18911 1.34914 0
M  V30 3958 H 379.3 -0.644443 0.357578 0
M  V30 3959 H 381.942 -1.2156 1.46024 0
M  V30 3960 H 380.092 -3.68586 1.22788 0
M  V30 3961 H 381.764 -2.78521 3.67728 0
M  V30 3962 H 380.007 -2.56351 3.49952 0
M  V30 3963 H 380.678 -4.19489 3.58794 0
M  V30 3964 H 383.154 -3.7967 1.70265 0
M  V30 3965 H 382.03 -5.17374 1.83346 0
M  V30 3966 H 382.291 -4.41262 0.272027 0
M  V30 3967 N 381.35 -0.985608 -1.22978 0
M  V30 3968 C 382.598 -0.656087 -1.91154 0
M  V30 3969 C 382.919 0.813561 -1.77218 0
M  V30 3970 O 382.189 1.58244 -1.1548 0
M  V30 3971 H 380.769 -0.239674 -0.707506 0
M  V30 3972 H 383.431 -1.25054 -1.49491 0
M  V30 3973 H 382.527 -0.912253 -2.9847 0
M  V30 3974 N 382.828 1.3818 -0.7579 0
M  V30 3975 C 383.776 2.32277 -0.122482 0
M  V30 3976 C 384.77 1.54238 0.700505 0
M  V30 3977 O 385.976 1.69737 0.599119 0
M  V30 3978 H 382.351 0.751712 -0.0208143 0
M  V30 3979 H 384.322 2.83469 -0.932099 0
M  V30 3980 C 383.071 3.39447 0.753076 0
M  V30 3981 H 382.394 3.99591 0.129184 0
M  V30 3982 H 383.834 4.07684 1.16489 0
M  V30 3983 C 382.293 2.78375 1.8976 0
M  V30 3984 O 382.823 2.68025 2.99208 0
M  V30 3985 N 381.029 2.36121 1.69397 0
M  V30 3986 H 380.576 2.4474 0.803762 0
M  V30 3987 H 380.534 1.95602 2.46145 0
M  V30 3988 N 384.306 0.507319 1.49211 0
M  V30 3989 C 385.236 -0.256939 2.32082 0
M  V30 3990 C 386.217 -0.956609 1.40652 0
M  V30 3991 O 387.402 -0.946788 1.69557 0
M  V30 3992 C 384.532 -1.31802 3.21318 0
M  V30 3993 C 383.486 -0.737855 4.21592 0
M  V30 3994 C 382.812 -1.89992 4.99807 0
M  V30 3995 C 384.112 0.275325 5.21574 0
M  V30 3996 H 385.806 0.434798 2.96226 0
M  V30 3997 H 383.352 0.210546 1.42452 0
M  V30 3998 H 385.305 -1.86045 3.78107 0
M  V30 3999 H 384.029 -2.03903 2.5513 0
M  V30 4000 H 382.688 -0.217126 3.65956 0
M  V30 4001 H 382.336 -2.60877 4.30061 0
M  V30 4002 H 382.036 -1.51777 5.6766 0
M  V30 4003 H 383.56 -2.44657 5.59442 0
M  V30 4004 H 384.974 -0.179193 5.7302 0
M  V30 4005 H 383.371 0.573649 5.97352 0
M  V30 4006 H 384.441 1.18903 4.70096 0
M  V30 4007 N 385.784 -1.5574 0.241426 0
M  V30 4008 C 387.009 -2.0366 -0.392111 0
M  V30 4009 C 387.434 -1.11969 -1.51144 0
M  V30 4010 O 386.792 -0.111594 -1.80956 0
M  V30 4011 C 386.84 -3.49638 -0.882371 0
M  V30 4012 O 385.944 -3.6108 -1.99235 0
M  V30 4013 H 385.285 -0.658379 -0.0862122 0
M  V30 4014 H 387.815 -2.01302 0.365881 0
M  V30 4015 H 387.825 -3.90351 -1.18702 0
M  V30 4016 H 386.5 -4.15852 -0.0632361 0
M  V30 4017 H 385.077 -3.32262 -1.69282 0
M  V30 4018 N 387.262 0.0317525 -1.57568 0
M  V30 4019 C 388.509 0.723104 -1.89149 0
M  V30 4020 C 388.837 1.75504 -0.838377 0
M  V30 4021 O 388.092 1.95037 0.160982 0
M  V30 4022 C 388.391 1.43167 -3.27472 0
M  V30 4023 C 388.057 0.535972 -4.47703 0
M  V30 4024 C 386.719 0.289262 -4.8033 0
M  V30 4025 C 389.071 -0.0826125 -5.21135 0
M  V30 4026 C 386.399 -0.584853 -5.83778 0
M  V30 4027 C 388.751 -0.944414 -6.25511 0
M  V30 4028 C 387.415 -1.20061 -6.56614 0
M  V30 4029 H 386.685 0.264602 -0.692146 0
M  V30 4030 H 389.332 -0.0169496 -1.91492 0
M  V30 4031 H 387.637 2.24497 -3.21105 0
M  V30 4032 H 389.334 1.97209 -3.49155 0
M  V30 4033 H 385.924 0.738414 -4.22191 0
M  V30 4034 H 390.108 0.0950302 -4.96209 0
M  V30 4035 H 385.364 -0.79168 -6.06253 0
M  V30 4036 H 389.538 -1.43026 -6.81554 0
M  V30 4037 H 387.165 -1.87967 -7.36595 0
M  V30 4038 N 388.74 1.54641 0.303973 0
M  V30 4039 C 389.688 1.86137 1.39484 0
M  V30 4040 C 390.682 0.734854 1.52631 0
M  V30 4041 O 391.888 0.918803 1.54784 0
M  V30 4042 H 388.263 0.590324 0.465856 0
M  V30 4043 H 390.234 2.77324 1.10154 0
M  V30 4044 C 388.983 2.12274 2.75382 0
M  V30 4045 H 388.306 2.98429 2.66046 0
M  V30 4046 H 389.746 2.38254 3.5073 0
M  V30 4047 C 388.205 0.920365 3.24085 0
M  V30 4048 O 388.735 0.139377 4.01458 0
M  V30 4049 N 386.941 0.726566 2.81371 0
M  V30 4050 H 386.488 1.36332 2.18567 0
M  V30 4051 H 386.446 -0.0763799 3.14307 0
M  V30 4052 N 390.218 -0.567019 1.47046 0
M  V30 4053 C 391.166 -1.69593 1.59188 0
M  V30 4054 C 392.16 -1.63046 0.459609 0
M  V30 4055 O 393.366 -1.6835 0.637058 0
M  V30 4056 H 389.741 -0.560993 0.500791 0
M  V30 4057 H 391.712 -1.56488 2.54075 0
M  V30 4058 C 390.461 -3.07964 1.61411 0
M  V30 4059 H 389.784 -3.13679 2.47881 0
M  V30 4060 H 391.224 -3.86671 1.73958 0
M  V30 4061 C 389.683 -3.35123 0.34559 0
M  V30 4062 O 390.213 -3.97812 -0.557521 0
M  V30 4063 N 388.419 -2.89699 0.22864 0
M  V30 4064 H 387.966 -2.38863 0.964479 0
M  V30 4065 H 387.924 -3.08242 -0.619192 0
M  V30 4066 N 391.696 -1.35014 -0.812953 0
M  V30 4067 C 392.924 -1.31031 -1.6012 0
M  V30 4068 C 393.339 0.113558 -1.88458 0
M  V30 4069 O 392.696 1.06363 -1.48301 0
M  V30 4070 C 392.747 -2.10872 -2.93624 0
M  V30 4071 O 392.468 -3.47706 -2.66518 0
M  V30 4072 C 393.969 -2.14401 -3.88004 0
M  V30 4073 H 391.189 -0.45037 -0.497401 0
M  V30 4074 H 393.733 -1.77775 -1.01076 0
M  V30 4075 H 391.888 -1.67744 -3.492 0
M  V30 4076 H 392.302 -3.89097 -3.51715 0
M  V30 4077 H 393.776 -2.74669 -4.78812 0
M  V30 4078 H 394.253 -1.14105 -4.24119 0
M  V30 4079 H 394.859 -2.57662 -3.38364 0
M  V30 4080 N 393.175 1.03435 -1.18907 0
M  V30 4081 C 394.105 2.13503 -0.945448 0
M  V30 4082 C 395.086 1.69682 0.119189 0
M  V30 4083 O 396.271 1.94169 -0.034707 0
M  V30 4084 C 393.401 3.44004 -0.477316 0
M  V30 4085 C 392.355 4.0148 -1.48316 0
M  V30 4086 C 391.681 5.27537 -0.872311 0
M  V30 4087 C 392.981 4.36921 -2.86177 0
M  V30 4088 H 394.675 2.34141 -1.86597 0
M  V30 4089 H 392.221 1.12523 -0.898584 0
M  V30 4090 H 394.174 4.20372 -0.294204 0
M  V30 4091 H 392.898 3.23072 0.478786 0
M  V30 4092 H 391.557 3.27201 -1.65332 0
M  V30 4093 H 391.205 5.02917 0.0911752 0
M  V30 4094 H 390.905 5.66954 -1.54393 0
M  V30 4095 H 392.429 6.06576 -0.699871 0
M  V30 4096 H 393.843 5.04248 -2.72776 0
M  V30 4097 H 392.24 4.87405 -3.50081 0
M  V30 4098 H 393.31 3.46466 -3.39248 0
M  V30 4099 N 394.653 0.992116 1.22453 0
M  V30 4100 C 396.064 0.702776 1.72968 0
M  V30 4101 C 396.415 -0.780399 1.80012 0
M  V30 4102 O 395.54 -1.61007 1.44589 0
M  V30 4103 C 396.135 1.26903 3.14135 0
M  V30 4104 C 394.694 1.02909 3.62059 0
M  V30 4105 C 393.841 1.38969 2.39964 0
M  V30 4106 H 396.792 1.16457 1.07812 0
M  V30 4107 H 396.813 0.647223 3.74955 0
M  V30 4108 H 396.325 2.34851 3.08977 0
M  V30 4109 H 394.426 -0.0337979 3.72585 0
M  V30 4110 H 394.539 1.69191 4.48231 0
M  V30 4111 H 392.903 0.808279 2.41535 0
M  V30 4112 H 393.686 2.4792 2.37467 0
M  V30 4113 N 396.131 -1.37776 0.765217 0
M  V30 4114 C 397.064 -2.28008 0.0935025 0
M  V30 4115 C 398.042 -1.45985 -0.716047 0
M  V30 4116 O 399.226 -1.75331 -0.692203 0
M  V30 4117 C 396.353 -3.27228 -0.874052 0
M  V30 4118 C 395.399 -4.26239 -0.149307 0
M  V30 4119 S 396.232 -5.22827 1.15809 0
M  V30 4120 C 397.388 -6.256 0.193906 0
M  V30 4121 H 397.621 -2.84631 0.858637 0
M  V30 4122 H 395.154 -1.43952 0.558313 0
M  V30 4123 H 397.112 -3.84902 -1.42691 0
M  V30 4124 H 395.773 -2.69565 -1.61225 0
M  V30 4125 H 394.966 -4.96213 -0.88254 0
M  V30 4126 H 394.568 -3.7252 0.332366 0
M  V30 4127 H 396.86 -6.74508 -0.636011 0
M  V30 4128 H 397.803 -7.02838 0.861638 0
M  V30 4129 H 398.211 -5.64173 -0.191975 0
M  V30 4130 N 397.609 -0.515225 -1.4894 0
M  V30 4131 C 398.559 0.275113 -2.26334 0
M  V30 4132 C 399.543 0.923007 -1.31793 0
M  V30 4133 O 400.735 0.828254 -1.56426 0
M  V30 4134 C 397.864 1.33041 -3.16473 0
M  V30 4135 C 396.95 0.688051 -4.18481 0
M  V30 4136 N 397.341 -0.217638 -5.05332 0
M  V30 4137 C 395.639 0.94699 -4.3583 0
M  V30 4138 C 396.34 -0.58676 -5.78733 0
M  V30 4139 N 395.316 0.0486966 -5.43578 0
M  V30 4140 H 399.118 -0.421876 -2.90856 0
M  V30 4141 H 396.632 -0.332249 -1.58965 0
M  V30 4142 H 398.629 1.9102 -3.70563 0
M  V30 4143 H 397.289 2.02894 -2.53504 0
M  V30 4144 H 398.3 -0.589343 -5.14536 0
M  V30 4145 H 394.977 1.63719 -3.8406 0
M  V30 4146 H 396.367 -1.32855 -6.58634 0
M  V30 4147 N 399.087 1.5561 -0.249682 0
M  V30 4148 C 400.333 1.99306 0.374841 0
M  V30 4149 C 400.666 1.13767 1.57387 0
M  V30 4150 O 399.941 0.201711 1.93451 0
M  V30 4151 C 400.224 3.51507 0.781986 0
M  V30 4152 C 400.077 4.4781 -0.422629 0
M  V30 4153 C 401.396 4.08884 1.62793 0
M  V30 4154 H 398.515 0.724572 0.134773 0
M  V30 4155 H 401.157 1.86719 -0.351549 0
M  V30 4156 H 399.307 3.62363 1.4009 0
M  V30 4157 H 400.979 4.48931 -1.06108 0
M  V30 4158 H 399.222 4.20518 -1.06524 0
M  V30 4159 H 399.893 5.51919 -0.0943766 0
M  V30 4160 H 402.369 4.01147 1.10547 0
M  V30 4161 H 401.245 5.1564 1.88166 0
M  V30 4162 H 401.506 3.57515 2.60068 0
M  V30 4163 N 400.565 -0.0233959 1.57583 0
M  V30 4164 C 401.811 -0.714119 1.89811 0
M  V30 4165 C 402.144 -1.74702 0.848113 0
M  V30 4166 O 401.419 -1.94023 -0.136135 0
M  V30 4167 C 401.702 -1.37853 3.32669 0
M  V30 4168 C 401.555 -0.358764 4.48367 0
M  V30 4169 C 402.874 -2.31101 3.7454 0
M  V30 4170 H 399.993 -0.25814 0.690314 0
M  V30 4171 H 402.635 0.0230927 1.89986 0
M  V30 4172 H 400.785 -2.00689 3.3265 0
M  V30 4173 H 402.457 0.268115 4.6052 0
M  V30 4174 H 400.7 0.321387 4.32608 0
M  V30 4175 H 401.371 -0.862242 5.45224 0
M  V30 4176 H 403.847 -1.78304 3.75961 0
M  V30 4177 H 402.723 -2.74567 4.75294 0
M  V30 4178 H 402.984 -3.18018 3.0711 0
M  V30 4179 N 402.043 -1.548 -0.295768 0
M  V30 4180 C 402.976 -1.81003 -1.38972 0
M  V30 4181 C 403.954 -0.661544 -1.48534 0
M  V30 4182 O 405.138 -0.902074 -1.65514 0
M  V30 4183 C 402.265 -1.95141 -2.76835 0
M  V30 4184 C 401.311 -3.17592 -2.84671 0
M  V30 4185 S 402.144 -4.75531 -2.46232 0
M  V30 4186 C 403.3 -4.92613 -3.86114 0
M  V30 4187 H 403.533 -2.73507 -1.16537 0
M  V30 4188 H 401.066 -1.46278 -0.494168 0
M  V30 4189 H 403.024 -2.03972 -3.56238 0
M  V30 4190 H 401.685 -1.03565 -2.96535 0
M  V30 4191 H 400.878 -3.24303 -3.85803 0
M  V30 4192 H 400.48 -3.07235 -2.13267 0
M  V30 4193 H 402.772 -4.76957 -4.81164 0
M  V30 4194 H 403.715 -5.94698 -3.8437 0
M  V30 4195 H 404.123 -4.2073 -3.76359 0
M  V30 4196 N 403.521 0.559213 -1.47345 0
M  V30 4197 C 404.451 1.67622 -1.62558 0
M  V30 4198 C 405.432 1.63331 -0.475087 0
M  V30 4199 O 406.617 1.80983 -0.704182 0
M  V30 4200 C 403.747 3.0626 -1.63774 0
M  V30 4201 C 402.701 3.25397 -2.7803 0
M  V30 4202 C 402.027 4.64801 -2.64318 0
M  V30 4203 C 403.327 3.10965 -4.19641 0
M  V30 4204 H 405.021 1.55146 -2.56067 0
M  V30 4205 H 402.567 0.744961 -1.23233 0
M  V30 4206 H 404.52 3.84247 -1.73008 0
M  V30 4207 H 403.244 3.1969 -0.66825 0
M  V30 4208 H 401.903 2.49817 -2.68304 0
M  V30 4209 H 401.551 4.75028 -1.65401 0
M  V30 4210 H 401.251 4.78555 -3.40968 0
M  V30 4211 H 402.775 5.44926 -2.75478 0
M  V30 4212 H 404.189 3.78772 -4.30354 0
M  V30 4213 H 402.586 3.36229 -4.97062 0
M  V30 4214 H 403.656 2.07736 -4.38148 0
M  V30 4215 N 404.999 1.35443 0.805782 0
M  V30 4216 C 406.41 1.25768 1.37983 0
M  V30 4217 C 406.761 -0.10958 1.95894 0
M  V30 4218 O 405.886 -1.01056 1.91355 0
M  V30 4219 C 406.481 2.27727 2.5085 0
M  V30 4220 C 405.04 2.2179 3.04115 0
M  V30 4221 C 404.187 2.13393 1.77084 0
M  V30 4222 H 407.138 1.4656 0.608752 0
M  V30 4223 H 407.159 1.90422 3.29424 0
M  V30 4224 H 406.671 3.27227 2.08671 0
M  V30 4225 H 404.772 1.25703 3.50756 0
M  V30 4226 H 404.885 3.13788 3.62042 0
M  V30 4227 H 403.249 1.59384 1.98668 0
M  V30 4228 H 404.032 3.14755 1.37056 0
M  V30 4229 N 406.477 -1.02803 1.19454 0
M  V30 4230 C 407.425 -2.13213 0.929673 0
M  V30 4231 C 408.419 -1.69011 -0.114806 0
M  V30 4232 O 409.625 -1.79967 0.0345147 0
M  V30 4233 H 406 -0.69662 0.28324 0
M  V30 4234 H 407.971 -2.32744 1.86743 0
M  V30 4235 C 406.72 -3.4429 0.485797 0
M  V30 4236 H 406.043 -3.7872 1.28105 0
M  V30 4237 H 407.483 -4.22638 0.339582 0
M  V30 4238 C 405.942 -3.27258 -0.800244 0
M  V30 4239 O 406.472 -3.55967 -1.86146 0
M  V30 4240 N 404.678 -2.80545 -0.75781 0
M  V30 4241 H 404.225 -2.57382 0.106039 0
M  V30 4242 H 404.183 -2.6953 -1.61867 0
M  V30 4243 N 407.956 -0.998596 -1.21925 0
M  V30 4244 C 408.904 -0.546641 -2.26085 0
M  V30 4245 C 409.898 0.405576 -1.64473 0
M  V30 4246 O 411.104 0.277471 -1.77849 0
M  V30 4247 H 407.479 -0.158403 -0.735127 0
M  V30 4248 H 409.45 -1.43645 -2.61551 0
M  V30 4249 C 408.199 0.117388 -3.47502 0
M  V30 4250 H 407.522 -0.606277 -3.95176 0
M  V30 4251 H 408.962 0.396993 -4.22137 0
M  V30 4252 C 407.421 1.35455 -3.0847 0
M  V30 4253 O 407.951 2.44944 -3.18379 0
M  V30 4254 N 406.157 1.23191 -2.63196 0
M  V30 4255 H 405.704 0.341006 -2.55333 0
M  V30 4256 H 405.662 2.06071 -2.37449 0
M  V30 4257 N 409.434 1.37368 -0.772513 0
M  V30 4258 C 410.659 2.0447 -0.347386 0
M  V30 4259 C 411.084 1.57882 1.0225 0
M  V30 4260 O 410.442 0.73941 1.65537 0
M  V30 4261 C 410.49 3.58369 -0.400479 0
M  V30 4262 O 409.594 4.0803 0.598789 0
M  V30 4263 H 408.935 0.646773 -0.15027 0
M  V30 4264 H 411.465 1.75667 -1.04892 0
M  V30 4265 H 411.475 4.07183 -0.258045 0
M  V30 4266 H 410.15 3.91633 -1.39986 0
M  V30 4267 H 408.727 3.70534 0.419411 0
M  V30 4268 N 410.912 0.523116 1.48665 0
M  V30 4269 C 411.822 -0.247406 2.33292 0
M  V30 4270 C 412.838 -0.945769 1.46052 0
M  V30 4271 O 414.014 -0.922253 1.79043 0
M  V30 4272 C 411.079 -1.28487 3.22012 0
M  V30 4273 C 410.14 -0.597592 4.2512 0
M  V30 4274 C 409.373 -1.58563 5.09601 0
M  V30 4275 O 409.596 -2.81763 4.95949 0
M  V30 4276 O 408.53 -1.12879 5.91221 0
M  V30 4277 H 412.356 0.445869 3.00409 0
M  V30 4278 H 409.941 0.284128 1.46673 0
M  V30 4279 H 411.823 -1.88459 3.7691 0
M  V30 4280 H 410.498 -1.96068 2.57564 0
M  V30 4281 H 409.405 0.0424407 3.74076 0
M  V30 4282 H 410.738 0.0361517 4.92187 0
M  V30 4283 N 412.39 -1.55475 0.257931 0
M  V30 4284 C 413.615 -2.04064 -0.370488 0
M  V30 4285 C 414.04 -1.13565 -1.49948 0
M  V30 4286 O 413.398 -0.130781 -1.80828 0
M  V30 4287 C 413.446 -3.50554 -0.845237 0
M  V30 4288 O 412.55 -3.63173 -1.95394 0
M  V30 4289 H 411.891 -0.659257 -0.0792243 0
M  V30 4290 H 414.421 -2.00903 0.387212 0
M  V30 4291 H 414.431 -3.91588 -1.14555 0
M  V30 4292 H 413.106 -4.15896 -0.0191259 0
M  V30 4293 H 411.683 -3.34039 -1.65748 0
M  V30 4294 N 413.868 0.0150385 -1.57593 0
M  V30 4295 C 415.093 0.718067 -1.94573 0
M  V30 4296 C 415.518 1.6734 -0.859005 0
M  V30 4297 O 414.876 1.80362 0.184147 0
M  V30 4298 C 414.924 1.43918 -3.30636 0
M  V30 4299 O 414.028 2.55299 -3.23876 0
M  V30 4300 H 413.369 0.192125 -0.635597 0
M  V30 4301 H 415.899 -0.0336708 -2.04572 0
M  V30 4302 H 415.909 1.80598 -3.65853 0
M  V30 4303 H 414.584 0.738619 -4.09289 0
M  V30 4304 H 413.161 2.21058 -3.00312 0
M  V30 4305 N 415.346 1.54954 0.287554 0
M  V30 4306 C 416.623 1.65569 1.04146 0
M  V30 4307 C 417.003 0.512672 2.0478 0
M  V30 4308 O 416.351 -0.489038 2.23205 0
M  V30 4309 C 416.561 3.04163 1.71131 0
M  V30 4310 C 417.909 3.61429 2.22832 0
M  V30 4311 O 418.933 3.06702 1.81141 0
M  V30 4312 O 417.792 4.57281 2.9926 0
M  V30 4313 H 414.886 0.671881 0.482188 0
M  V30 4314 H 417.432 1.67297 0.28457 0
M  V30 4315 H 416.204 3.78796 0.981303 0
M  V30 4316 H 415.827 3.06271 2.53543 0
M  V30 4317 N 416.824 -0.551391 1.4764 0
M  V30 4318 C 418.07 -1.31024 1.54792 0
M  V30 4319 C 418.403 -1.9304 0.211967 0
M  V30 4320 O 417.678 -1.78175 -0.77999 0
M  V30 4321 C 417.961 -2.41593 2.67029 0
M  V30 4322 C 417.814 -1.84408 4.10261 0
M  V30 4323 C 419.133 -3.43488 2.75143 0
M  V30 4324 H 416.252 -0.475031 0.563485 0
M  V30 4325 H 418.894 -0.616454 1.79722 0
M  V30 4326 H 417.044 -3.00772 2.45904 0
M  V30 4327 H 418.716 -1.29445 4.42766 0
M  V30 4328 H 416.959 -1.15051 4.18265 0
M  V30 4329 H 417.63 -2.64367 4.84576 0
M  V30 4330 H 420.106 -2.94236 2.94218 0
M  V30 4331 H 418.982 -4.18274 3.55441 0
M  V30 4332 H 419.243 -4.02703 1.82435 0
M  V30 4333 N 418.302 -1.35869 -0.798587 0
M  V30 4334 C 419.25 -1.29491 -1.93222 0
M  V30 4335 C 420.244 -0.18836 -1.6835 0
M  V30 4336 O 421.45 -0.354822 -1.76468 0
M  V30 4337 H 417.825 -0.402901 -0.63496 0
M  V30 4338 H 419.796 -2.25247 -1.9572 0
M  V30 4339 C 418.545 -1.09184 -3.30112 0
M  V30 4340 H 417.868 -1.93574 -3.49813 0
M  V30 4341 H 419.308 -1.08766 -4.09812 0
M  V30 4342 C 417.767 0.203959 -3.36282 0
M  V30 4343 O 418.297 1.19699 -3.83451 0
M  V30 4344 N 416.503 0.245488 -2.89561 0
M  V30 4345 H 416.05 -0.563223 -2.51367 0
M  V30 4346 H 416.008 1.11219 -2.94071 0
M  V30 4347 N 419.78 1.02168 -1.19998 0
M  V30 4348 C 421.027 1.75685 -1.00702 0
M  V30 4349 C 421.355 1.88947 0.461426 0
M  V30 4350 O 420.61 1.40832 1.35885 0
M  V30 4351 C 420.909 3.18081 -1.62969 0
M  V30 4352 C 420.575 3.24809 -3.12746 0
M  V30 4353 C 419.237 3.26352 -3.53621 0
M  V30 4354 C 421.589 3.23379 -4.08749 0
M  V30 4355 C 418.917 3.2413 -4.89036 0
M  V30 4356 C 421.269 3.22698 -5.44104 0
M  V30 4357 C 419.933 3.22542 -5.84399 0
M  V30 4358 H 419.203 0.642877 -0.368496 0
M  V30 4359 H 421.85 1.19865 -1.49348 0
M  V30 4360 H 420.155 3.77027 -1.06573 0
M  V30 4361 H 421.852 3.73648 -1.45561 0
M  V30 4362 H 418.442 3.2434 -2.80181 0
M  V30 4363 H 422.626 3.21361 -3.78207 0
M  V30 4364 H 417.882 3.22338 -5.19527 0
M  V30 4365 H 422.056 3.20543 -6.18244 0
M  V30 4366 H 419.683 3.20575 -6.89301 0
M  V30 4367 N 421.258 1.00505 1.21394 0
M  V30 4368 C 422.191 0.51032 2.22421 0
M  V30 4369 C 423.169 -0.436 1.56645 0
M  V30 4370 O 424.353 -0.358709 1.85055 0
M  V30 4371 C 421.48 -0.258733 3.3771 0
M  V30 4372 C 420.526 0.635395 4.2174 0
M  V30 4373 S 421.359 2.09783 4.92698 0
M  V30 4374 C 422.515 1.33862 6.11418 0
M  V30 4375 H 422.748 1.36637 2.64041 0
M  V30 4376 H 420.281 0.812991 1.31262 0
M  V30 4377 H 422.239 -0.696372 4.0455 0
M  V30 4378 H 420.9 -1.0902 2.94573 0
M  V30 4379 H 420.093 0.0430189 5.03982 0
M  V30 4380 H 419.695 1.01031 3.60095 0
M  V30 4381 H 421.987 0.612541 6.74725 0
M  V30 4382 H 422.93 2.13675 6.75092 0
M  V30 4383 H 423.338 0.846568 5.58116 0
M  V30 4384 N 422.737 -1.36956 0.779787 0
M  V30 4385 C 423.67 -2.27896 0.117681 0
M  V30 4386 C 424.648 -1.46736 -0.700523 0
M  V30 4387 O 425.832 -1.76055 -0.673568 0
M  V30 4388 C 422.959 -3.28136 -0.839296 0
M  V30 4389 C 422.005 -4.26373 -0.10409 0
M  V30 4390 S 422.838 -5.2157 1.21348 0
M  V30 4391 C 423.994 -6.25359 0.260249 0
M  V30 4392 H 424.227 -2.83704 0.888778 0
M  V30 4393 H 421.76 -1.43352 0.57355 0
M  V30 4394 H 423.718 -3.86394 -1.38601 0
M  V30 4395 H 422.379 -2.7126 -1.58356 0
M  V30 4396 H 421.572 -4.97121 -0.82986 0
M  V30 4397 H 421.174 -3.72147 0.371858 0
M  V30 4398 H 423.466 -6.75145 -0.564435 0
M  V30 4399 H 424.409 -7.01885 0.936135 0
M  V30 4400 H 424.817 -5.64345 -0.132127 0
M  V30 4401 N 424.215 -0.530993 -1.48385 0
M  V30 4402 C 425.492 0.0671788 -1.95485 0
M  V30 4403 C 425.872 1.51191 -1.47324 0
M  V30 4404 O 425.22 2.17507 -0.700202 0
M  V30 4405 C 425.43 -0.0511206 -3.48963 0
M  V30 4406 C 426.778 0.107632 -4.24464 0
M  V30 4407 O 427.802 0.0226248 -3.56193 0
M  V30 4408 O 426.661 0.285972 -5.45751 0
M  V30 4409 H 423.755 0.0787365 -0.823243 0
M  V30 4410 H 426.301 -0.595662 -1.58902 0
M  V30 4411 H 425.073 -1.05747 -3.7674 0
M  V30 4412 H 424.696 0.650525 -3.92242 0
M  V30 4413 N 425.693 1.55336 -0.266172 0
M  V30 4414 C 426.923 2.03506 0.356239 0
M  V30 4415 C 427.331 1.14426 1.50676 0
M  V30 4416 O 426.674 0.155043 1.83045 0
M  V30 4417 C 426.736 3.47848 0.90785 0
M  V30 4418 C 426.4 4.56861 -0.112888 0
M  V30 4419 C 427.397 5.11528 -0.929264 0
M  V30 4420 C 425.082 5.01704 -0.244546 0
M  V30 4421 C 427.076 6.09549 -1.86357 0
M  V30 4422 C 424.763 5.99553 -1.18234 0
M  V30 4423 C 425.761 6.53356 -1.99036 0
M  V30 4424 O 425.449 7.49293 -2.91231 0
M  V30 4425 H 425.181 0.670444 0.08649 0
M  V30 4426 H 427.735 2.01598 -0.39337 0
M  V30 4427 H 425.965 3.46967 1.70737 0
M  V30 4428 H 427.654 3.79407 1.44239 0
M  V30 4429 H 428.42 4.77701 -0.838237 0
M  V30 4430 H 424.299 4.59477 0.374359 0
M  V30 4431 H 427.843 6.51469 -2.49467 0
M  V30 4432 H 423.74 6.32799 -1.27421 0
M  V30 4433 H 424.508 7.66978 -2.8581 0
M  V30 4434 N 427.171 -0.0066808 1.57599 0
M  V30 4435 C 428.399 -0.704087 1.94551 0
M  V30 4436 C 428.814 -1.67677 0.867746 0
M  V30 4437 O 428.171 -1.8185 -0.153925 0
M  V30 4438 C 428.222 -1.44177 3.31505 0
M  V30 4439 O 427.943 -0.508097 4.35144 0
M  V30 4440 C 429.444 -2.23429 3.82876 0
M  V30 4441 H 426.664 -0.196523 0.641576 0
M  V30 4442 H 429.208 0.042453 2.04456 0
M  V30 4443 H 427.363 -2.13999 3.22929 0
M  V30 4444 H 427.777 -1.02782 5.14331 0
M  V30 4445 H 429.251 -2.70552 4.8115 0
M  V30 4446 H 429.728 -3.05818 3.15233 0
M  V30 4447 H 430.334 -1.58636 3.94607 0
M  V30 4448 N 428.649 -1.55105 -0.279332 0
M  V30 4449 C 429.599 -1.83937 -1.34727 0
M  V30 4450 C 430.583 -0.69785 -1.44979 0
M  V30 4451 O 431.775 -0.95904 -1.48766 0
M  V30 4452 C 428.904 -2.1092 -2.70864 0
M  V30 4453 C 427.99 -3.31314 -2.64748 0
M  V30 4454 N 428.381 -4.51371 -2.2825 0
M  V30 4455 C 426.679 -3.33777 -2.95819 0
M  V30 4456 C 427.38 -5.33447 -2.31969 0
M  V30 4457 N 426.356 -4.71697 -2.7019 0
M  V30 4458 H 430.158 -2.74309 -1.05506 0
M  V30 4459 H 427.672 -1.54896 -0.487959 0
M  V30 4460 H 429.669 -2.2973 -3.47893 0
M  V30 4461 H 428.329 -1.21828 -3.00979 0
M  V30 4462 H 429.34 -4.77584 -2.00335 0
M  V30 4463 H 426.017 -2.54858 -3.30687 0
M  V30 4464 H 427.407 -6.39424 -2.06365 0
M  V30 4465 N 430.127 0.543554 -1.4793 0
M  V30 4466 C 431.543 0.870806 -1.3375 0
M  V30 4467 C 431.743 1.9864 -0.338261 0
M  V30 4468 O 430.799 2.51305 0.245371 0
M  V30 4469 C 432.112 1.25114 -2.73435 0
M  V30 4470 C 433.66 1.3618 -2.81823 0
M  V30 4471 C 434.135 1.77563 -4.22179 0
M  V30 4472 N 435.626 1.8469 -4.24787 0
M  V30 4473 C 436.361 2.18067 -5.30315 0
M  V30 4474 N 435.857 2.49963 -6.46135 0
M  V30 4475 N 437.65 2.18958 -5.17701 0
M  V30 4476 H 429.801 -0.19275 -2.11524 0
M  V30 4477 H 432.064 -0.0235777 -0.947707 0
M  V30 4478 H 431.77 0.50514 -3.48053 0
M  V30 4479 H 431.644 2.20431 -3.06088 0
M  V30 4480 H 434.031 2.09859 -2.07468 0
M  V30 4481 H 434.112 0.390169 -2.52807 0
M  V30 4482 H 433.756 1.04449 -4.97044 0
M  V30 4483 H 433.686 2.75753 -4.48629 0
M  V30 4484 H 436.177 1.62372 -3.41239 0
M  V30 4485 H 436.49 2.74497 -7.22406 0
M  V30 4486 H 434.835 2.47513 -6.49432 0
M  V30 4487 H 438.026 1.93488 -4.2624 0
M  V30 4488 H 438.199 2.44639 -6.00047 0
M  V30 4489 N 431.605 1.3629 0.791371 0
M  V30 4490 C 432.553 1.30514 1.92533 0
M  V30 4491 C 433.547 0.197285 1.68247 0
M  V30 4492 O 434.753 0.364176 1.76278 0
M  V30 4493 H 431.128 0.406263 0.632815 0
M  V30 4494 H 433.099 2.26282 1.94523 0
M  V30 4495 C 431.848 1.10933 3.29529 0
M  V30 4496 H 431.171 1.95427 3.48781 0
M  V30 4497 H 432.611 1.10937 4.0923 0
M  V30 4498 C 431.07 -0.186123 3.36385 0
M  V30 4499 O 431.6 -1.17664 3.84081 0
M  V30 4500 N 429.806 -0.230128 2.89687 0
M  V30 4501 H 429.353 0.576545 2.51065 0
M  V30 4502 H 429.311 -1.09658 2.94657 0
M  V30 4503 N 433.083 -1.0153 1.20538 0
M  V30 4504 C 434.494 -1.56598 1.01657 0
M  V30 4505 C 434.845 -1.91505 -0.426668 0
M  V30 4506 O 433.97 -1.72375 -1.30827 0
M  V30 4507 C 434.565 -2.84542 1.83905 0
M  V30 4508 C 433.124 -3.36133 1.69386 0
M  V30 4509 C 432.271 -2.09427 1.81757 0
M  V30 4510 H 435.222 -0.838974 1.34711 0
M  V30 4511 H 435.243 -3.56004 1.34319 0
M  V30 4512 H 434.755 -2.59105 2.8894 0
M  V30 4513 H 432.856 -3.66528 0.669933 0
M  V30 4514 H 432.969 -4.08248 2.50739 0
M  V30 4515 H 431.333 -2.21941 1.24957 0
M  V30 4516 H 432.116 -1.86414 2.88279 0
M  V30 4517 N 434.561 -1.01147 -1.20859 0
M  V30 4518 C 435.524 -0.582224 -2.21682 0
M  V30 4519 C 436.524 0.344887 -1.57058 0
M  V30 4520 O 437.714 0.134281 -1.73682 0
M  V30 4521 C 434.846 0.150496 -3.40568 0
M  V30 4522 H 436.039 -1.47408 -2.61172 0
M  V30 4523 H 433.592 -0.800695 -1.34233 0
M  V30 4524 H 434.327 1.0575 -3.06574 0
M  V30 4525 H 434.112 -0.515444 -3.88697 0
M  V30 4526 H 435.602 0.438344 -4.15293 0
M  V30 4527 N 436.039 1.36541 -0.78704 0
M  V30 4528 C 437.287 1.98911 -0.357633 0
M  V30 4529 C 437.608 1.62778 1.07371 0
M  V30 4530 O 436.878 0.900612 1.73971 0
M  V30 4531 H 435.458 0.735734 -0.129246 0
M  V30 4532 H 438.12 1.66776 -1.00855 0
M  V30 4533 H 437.216 3.08874 -0.447549 0
M  V30 4534 N 437.518 0.538854 1.48102 0
M  V30 4535 C 438.448 -0.207654 2.32575 0
M  V30 4536 C 439.429 -0.926559 1.4265 0
M  V30 4537 O 440.614 -0.91061 1.71527 0
M  V30 4538 C 437.744 -1.24957 3.24042 0
M  V30 4539 C 436.698 -0.648263 4.23062 0
M  V30 4540 C 436.024 -1.79348 5.03725 0
M  V30 4541 C 437.324 0.385897 5.20872 0
M  V30 4542 H 439.018 0.497534 2.95237 0
M  V30 4543 H 436.564 0.240715 1.41974 0
M  V30 4544 H 438.517 -1.77983 3.81969 0
M  V30 4545 H 437.241 -1.98446 2.59397 0
M  V30 4546 H 435.9 -0.139452 3.66335 0
M  V30 4547 H 435.548 -2.51696 4.35498 0
M  V30 4548 H 435.248 -1.39702 5.70751 0
M  V30 4549 H 436.772 -2.32735 5.64506 0
M  V30 4550 H 438.186 -0.057607 5.73271 0
M  V30 4551 H 436.583 0.700227 5.96001 0
M  V30 4552 H 437.653 1.28848 4.67468 0
M  V30 4553 N 438.996 -1.55193 0.274407 0
M  V30 4554 C 440.273 -1.91584 -0.394331 0
M  V30 4555 C 440.653 -1.19858 -1.73774 0
M  V30 4556 O 440.001 -0.3252 -2.26174 0
M  V30 4557 C 440.211 -3.4487 -0.535311 0
M  V30 4558 C 441.559 -4.16636 -0.818534 0
M  V30 4559 O 442.583 -3.5076 -0.620146 0
M  V30 4560 O 441.442 -5.33209 -1.19792 0
M  V30 4561 H 438.536 -0.798349 -0.215794 0
M  V30 4562 H 441.082 -1.66646 0.320507 0
M  V30 4563 H 439.854 -3.89145 0.410141 0
M  V30 4564 H 439.477 -3.75759 -1.29964 0
M  V30 4565 N 440.474 -0.00167713 -1.576 0
M  V30 4566 C 441.384 1.00548 -2.1196 0
M  V30 4567 C 442.4 1.3758 -1.06526 0
M  V30 4568 O 443.576 1.46278 -1.38436 0
M  V30 4569 C 440.641 2.27809 -2.6135 0
M  V30 4570 C 439.702 1.97074 -3.81393 0
M  V30 4571 C 438.935 3.18267 -4.28417 0
M  V30 4572 O 439.158 4.30009 -3.74765 0
M  V30 4573 O 438.092 3.02167 -5.20556 0
M  V30 4574 H 441.918 0.573373 -2.98238 0
M  V30 4575 H 439.503 0.217255 -1.47812 0
M  V30 4576 H 441.385 3.02568 -2.93309 0
M  V30 4577 H 440.06 2.70254 -1.78169 0
M  V30 4578 H 438.967 1.19785 -3.54404 0
M  V30 4579 H 440.3 1.59464 -4.65652 0
M  V30 4580 N 441.952 1.55251 0.271103 0
M  V30 4581 C 442.9 1.89054 1.35504 0
M  V30 4582 C 443.894 0.767064 1.51038 0
M  V30 4583 O 445.1 0.951429 1.528 0
M  V30 4584 H 441.475 0.600072 0.45323 0
M  V30 4585 H 443.446 2.79598 1.04247 0
M  V30 4586 C 442.195 2.18068 2.70817 0
M  V30 4587 H 441.518 3.04005 2.59656 0
M  V30 4588 H 442.958 2.4564 3.45597 0
M  V30 4589 C 441.417 0.988901 3.2206 0
M  V30 4590 O 441.947 0.224501 4.01072 0
M  V30 4591 N 440.153 0.786085 2.79766 0
M  V30 4592 H 439.7 1.40937 2.15626 0
M  V30 4593 H 439.658 -0.00969349 3.14399 0
M  V30 4594 N 443.43 -0.535701 1.48216 0
M  V30 4595 C 444.362 -1.65662 1.58394 0
M  V30 4596 C 445.375 -1.5591 0.468607 0
M  V30 4597 O 446.564 -1.62475 0.7392 0
M  V30 4598 C 443.664 -3.04276 1.4923 0
M  V30 4599 C 442.837 -3.39567 2.75705 0
M  V30 4600 C 441.896 -4.57436 2.60075 0
M  V30 4601 O 440.922 -4.60942 3.33948 0
M  V30 4602 N 442.124 -5.55259 1.69315 0
M  V30 4603 H 444.889 -1.5737 2.55058 0
M  V30 4604 H 442.45 -0.722845 1.44867 0
M  V30 4605 H 444.442 -3.80994 1.36477 0
M  V30 4606 H 443.012 -3.06677 0.605632 0
M  V30 4607 H 442.232 -2.52083 3.03064 0
M  V30 4608 H 443.52 -3.59929 3.59623 0
M  V30 4609 H 442.918 -5.552 1.08489 0
M  V30 4610 H 441.475 -6.31218 1.62504 0
M  V30 4611 N 444.908 -1.36708 -0.784132 0
M  V30 4612 C 445.871 -1.31307 -1.87859 0
M  V30 4613 C 446.871 -0.219654 -1.59293 0
M  V30 4614 O 448.061 -0.47476 -1.67606 0
M  V30 4615 C 445.193 -1.03679 -3.24751 0
M  V30 4616 H 446.386 -2.28647 -1.94064 0
M  V30 4617 H 443.939 -1.21558 -0.98252 0
M  V30 4618 H 444.674 -0.0681936 -3.24228 0
M  V30 4619 H 444.459 -1.82811 -3.46876 0
M  V30 4620 H 445.949 -1.02518 -4.04821 0
M  V30 4621 N 446.386 1.0089 -1.21074 0
M  V30 4622 C 447.333 2.09588 -0.966512 0
M  V30 4623 C 448.303 1.65761 0.106089 0
M  V30 4624 O 449.488 1.90758 -0.0402287 0
M  V30 4625 C 446.628 3.40958 -0.533058 0
M  V30 4626 C 445.741 3.9822 -1.67467 0
M  V30 4627 C 444.876 5.17682 -1.19076 0
M  V30 4628 C 443.915 5.67043 -2.30496 0
M  V30 4629 N 443.052 6.77759 -1.83267 0
M  V30 4630 H 447.892 2.29815 -1.89708 0
M  V30 4631 H 445.429 1.12689 -0.945489 0
M  V30 4632 H 447.387 4.1637 -0.263019 0
M  V30 4633 H 446.017 3.20781 0.360505 0
M  V30 4634 H 445.069 3.1983 -2.05944 0
M  V30 4635 H 446.381 4.3085 -2.51336 0
M  V30 4636 H 445.535 6.00326 -0.877151 0
M  V30 4637 H 444.274 4.86635 -0.322066 0
M  V30 4638 H 443.279 4.82999 -2.62664 0
M  V30 4639 H 444.504 6.00121 -3.17855 0
M  V30 4640 H 442.45 6.48527 -0.987356 0
M  V30 4641 H 442.367 7.09624 -2.60711 0
M  V30 4642 H 443.635 7.63949 -1.54928 0
M  V30 4643 N 447.864 1.01787 1.20321 0
M  V30 4644 C 449.112 0.706538 1.89347 0
M  V30 4645 C 449.433 -0.766289 1.79313 0
M  V30 4646 O 448.703 -1.55126 1.19635 0
M  V30 4647 H 447.283 0.258348 0.700903 0
M  V30 4648 H 449.945 1.28974 1.46122 0
M  V30 4649 H 449.041 0.991066 2.95946 0
M  V30 4650 N 449.342 -1.36122 0.79427 0
M  V30 4651 C 450.567 -2.03891 0.379871 0
M  V30 4652 C 450.992 -1.59488 -0.997251 0
M  V30 4653 O 450.35 -0.765652 -1.64339 0
M  V30 4654 C 450.398 -3.57687 0.457442 0
M  V30 4655 O 449.502 -4.08931 -0.5338 0
M  V30 4656 H 448.843 -0.6443 0.160541 0
M  V30 4657 H 451.373 -1.73976 1.07673 0
M  V30 4658 H 451.383 -4.06721 0.322792 0
M  V30 4659 H 450.058 -3.89357 1.46199 0
M  V30 4660 H 448.635 -3.71154 -0.360409 0
M  V30 4661 N 450.82 -0.546701 -1.47814 0
M  V30 4662 C 451.75 0.195317 -2.32682 0
M  V30 4663 C 452.731 0.918981 -1.43139 0
M  V30 4664 O 453.916 0.901501 -1.72008 0
M  V30 4665 C 451.046 1.23237 -3.247 0
M  V30 4666 C 450 0.625818 -4.234 0
M  V30 4667 C 449.326 1.76674 -5.04669 0
M  V30 4668 C 450.626 -0.413515 -5.2066 0
M  V30 4669 H 452.32 -0.513184 -2.94969 0
M  V30 4670 H 449.866 -0.248241 -1.41844 0
M  V30 4671 H 451.819 1.75955 -3.82907 0
M  V30 4672 H 450.543 1.97067 -2.60446 0
M  V30 4673 H 449.202 0.120023 -3.66403 0
M  V30 4674 H 448.85 2.49383 -4.36826 0
M  V30 4675 H 448.55 1.36673 -5.71484 0
M  V30 4676 H 450.074 2.29738 -5.65732 0
M  V30 4677 H 451.488 0.0272042 -5.73294 0
M  V30 4678 H 449.885 -0.731825 -5.95621 0
M  V30 4679 H 450.955 -1.31325 -4.66778 0
M  V30 4680 N 452.299 1.55045 -0.282633 0
M  V30 4681 C 453.249 2.19514 0.616249 0
M  V30 4682 C 454.233 1.16216 1.11277 0
M  V30 4683 O 455.425 1.42004 1.05659 0
M  V30 4684 C 452.554 2.92548 1.7964 0
M  V30 4685 C 451.64 4.03142 1.31671 0
M  V30 4686 N 452.031 5.0276 0.553695 0
M  V30 4687 C 450.329 4.1635 1.59903 0
M  V30 4688 C 451.03 5.80923 0.30054 0
M  V30 4689 N 450.006 5.3651 0.875116 0
M  V30 4690 H 453.808 2.93889 0.0255363 0
M  V30 4691 H 451.322 1.62169 -0.0865362 0
M  V30 4692 H 453.319 3.37188 2.45173 0
M  V30 4693 H 451.979 2.19685 2.39099 0
M  V30 4694 H 452.99 5.17512 0.20032 0
M  V30 4695 H 449.667 3.54682 2.20243 0
M  V30 4696 H 451.057 6.7118 -0.311053 0
M  V30 4697 N 453.777 0.010035 1.57597 0
M  V30 4698 C 455.054 -0.710296 1.82248 0
M  V30 4699 C 455.434 -1.91426 0.889911 0
M  V30 4700 O 454.782 -2.28424 -0.0590292 0
M  V30 4701 C 454.992 -1.10655 3.30993 0
M  V30 4702 C 456.34 -1.50621 3.96987 0
M  V30 4703 O 457.364 -1.20007 3.35375 0
M  V30 4704 O 456.223 -2.07587 5.05539 0
M  V30 4705 H 453.317 -0.34673 0.750804 0
M  V30 4706 H 455.863 0.0362578 1.69661 0
M  V30 4707 H 454.635 -0.248826 3.90508 0
M  V30 4708 H 454.258 -1.91189 3.48615 0
M  V30 4709 N 455.255 -1.55392 -0.262866 0
M  V30 4710 C 456.48 -1.80847 -1.01533 0
M  V30 4711 C 456.905 -0.584946 -1.78774 0
M  V30 4712 O 456.263 0.465701 -1.75217 0
M  V30 4713 C 456.311 -3.03866 -1.94159 0
M  V30 4714 O 455.415 -2.79662 -3.03089 0
M  V30 4715 H 454.756 -0.597441 -0.289759 0
M  V30 4716 H 457.286 -2.02553 -0.288698 0
M  V30 4717 H 457.296 -3.32872 -2.35924 0
M  V30 4718 H 455.971 -3.92564 -1.37354 0
M  V30 4719 H 454.548 -2.61781 -2.65566 0
M  V30 4720 N 456.733 0.527833 -1.48498 0
M  V30 4721 C 457.981 1.28101 -1.56316 0
M  V30 4722 C 458.302 1.9352 -0.239781 0
M  V30 4723 O 457.572 1.81433 0.738849 0
M  V30 4724 H 456.152 0.475793 -0.575873 0
M  V30 4725 H 458.814 0.614052 -1.84974 0
M  V30 4726 H 457.91 2.05916 -2.34532 0
M  V30 4727 N 458.211 1.37122 0.776871 0
M  V30 4728 C 459.457 1.32243 1.53752 0
M  V30 4729 C 459.79 -0.0944745 1.9397 0
M  V30 4730 O 459.065 -1.05068 1.6368 0
M  V30 4731 C 459.348 2.25681 2.80607 0
M  V30 4732 C 459.201 3.76127 2.46676 0
M  V30 4733 C 460.52 2.17657 3.82509 0
M  V30 4734 H 457.639 0.481704 0.557791 0
M  V30 4735 H 460.281 1.6778 0.891612 0
M  V30 4736 H 458.431 1.95505 3.35723 0
M  V30 4737 H 460.103 4.16877 1.97513 0
M  V30 4738 H 458.346 3.94946 1.79443 0
M  V30 4739 H 459.017 4.36933 3.37333 0
M  V30 4740 H 461.493 2.44245 3.36873 0
M  V30 4741 H 460.369 2.85185 4.69 0
M  V30 4742 H 460.63 1.16785 4.26396 0
M  V30 4743 N 459.689 -1.00246 1.21608 0
M  V30 4744 C 460.599 -2.12515 0.993709 0
M  V30 4745 C 461.615 -1.73913 -0.0549939 0
M  V30 4746 O 462.791 -2.00943 0.135619 0
M  V30 4747 C 459.856 -3.42083 0.563953 0
M  V30 4748 C 458.917 -3.94843 1.68516 0
M  V30 4749 C 458.15 -5.18226 1.27582 0
M  V30 4750 O 458.373 -5.70201 0.150506 0
M  V30 4751 O 457.307 -5.64497 2.0887 0
M  V30 4752 H 461.133 -2.34152 1.93407 0
M  V30 4753 H 458.718 -1.10891 1.00118 0
M  V30 4754 H 460.6 -4.20073 0.334194 0
M  V30 4755 H 459.275 -3.21828 -0.347665 0
M  V30 4756 H 458.182 -3.18068 1.96935 0
M  V30 4757 H 459.515 -4.19512 2.5743 0
M  V30 4758 N 461.167 -1.02423 -1.1978 0
M  V30 4759 C 462.397 -0.736387 -1.93031 0
M  V30 4760 C 462.805 0.708023 -1.75453 0
M  V30 4761 O 462.148 1.4927 -1.07071 0
M  V30 4762 C 462.21 -1.00194 -3.45255 0
M  V30 4763 C 461.874 -2.43698 -3.86601 0
M  V30 4764 C 462.871 -3.41814 -3.91738 0
M  V30 4765 C 460.556 -2.77975 -4.18372 0
M  V30 4766 C 462.55 -4.72265 -4.28071 0
M  V30 4767 C 460.237 -4.08636 -4.54378 0
M  V30 4768 C 461.235 -5.05592 -4.59201 0
M  V30 4769 O 460.923 -6.33914 -4.94376 0
M  V30 4770 H 460.655 -0.269116 -0.620123 0
M  V30 4771 H 463.209 -1.37043 -1.52998 0
M  V30 4772 H 461.439 -0.310747 -3.85449 0
M  V30 4773 H 463.128 -0.704488 -3.9974 0
M  V30 4774 H 463.894 -3.16671 -3.67348 0
M  V30 4775 H 459.773 -2.0319 -4.13805 0
M  V30 4776 H 463.317 -5.4794 -4.3175 0
M  V30 4777 H 459.214 -4.33556 -4.78226 0
M  V30 4778 H 459.982 -6.38317 -5.12341 0
M  V30 4779 N 462.645 1.35699 -0.801477 0
M  V30 4780 C 463.555 2.33661 -0.209691 0
M  V30 4781 C 464.571 1.6162 0.644591 0
M  V30 4782 O 465.747 1.93529 0.557545 0
M  V30 4783 C 462.812 3.40816 0.636033 0
M  V30 4784 C 461.873 4.28639 -0.238147 0
M  V30 4785 C 461.106 5.30676 0.567307 0
M  V30 4786 O 461.329 5.41174 1.8024 0
M  V30 4787 O 460.263 6.01887 -0.0391336 0
M  V30 4788 H 464.089 2.8606 -1.01996 0
M  V30 4789 H 461.674 1.38379 -0.563164 0
M  V30 4790 H 463.556 4.06301 1.11791 0
M  V30 4791 H 462.231 2.90696 1.42399 0
M  V30 4792 H 461.138 3.66152 -0.767044 0
M  V30 4793 H 462.471 4.82143 -0.989915 0
M  V30 4794 N 464.123 0.554532 1.47522 0
M  V30 4795 C 465.086 -0.184174 2.28459 0
M  V30 4796 C 466.086 -0.845195 1.36796 0
M  V30 4797 O 467.276 -0.701467 1.59452 0
M  V30 4798 C 464.408 -1.26903 3.16399 0
M  V30 4799 H 465.601 0.526751 2.95238 0
M  V30 4800 H 463.154 0.311375 1.53167 0
M  V30 4801 H 463.889 -2.01244 2.54306 0
M  V30 4802 H 463.674 -0.799883 3.83854 0
M  V30 4803 H 465.164 -1.78794 3.77389 0
M  V30 4804 N 465.601 -1.54893 0.290851 0
M  V30 4805 C 466.551 -2.19838 -0.604599 0
M  V30 4806 C 467.535 -1.16805 -1.10659 0
M  V30 4807 O 468.727 -1.42562 -1.04905 0
M  V30 4808 C 465.856 -2.93497 -1.78086 0
M  V30 4809 C 464.942 -4.03835 -1.29531 0
M  V30 4810 N 465.333 -5.03047 -0.527024 0
M  V30 4811 C 463.631 -4.17192 -1.57693 0
M  V30 4812 C 464.332 -5.81074 -0.269728 0
M  V30 4813 N 463.308 -5.36966 -0.846651 0
M  V30 4814 H 467.11 -2.93898 -0.00995032 0
M  V30 4815 H 464.624 -1.62121 0.0951353 0
M  V30 4816 H 466.621 -3.38484 -2.43381 0
M  V30 4817 H 465.281 -2.2095 -2.37931 0
M  V30 4818 H 466.292 -5.17611 -0.172872 0
M  V30 4819 H 462.969 -3.55845 -2.18359 0
M  V30 4820 H 464.359 -6.71005 0.346643 0
M  V30 4821 N 467.08 -0.0183926 -1.57589 0
M  V30 4822 C 468.305 0.676634 -1.96052 0
M  V30 4823 C 468.73 1.6548 -0.894307 0
M  V30 4824 O 468.088 1.80712 0.145849 0
M  V30 4825 C 468.136 1.36872 -3.33614 0
M  V30 4826 O 467.24 2.48372 -3.29219 0
M  V30 4827 H 466.581 0.1786 -0.63953 0
M  V30 4828 H 469.111 -0.077056 -2.04455 0
M  V30 4829 H 469.121 1.72797 -3.69601 0
M  V30 4830 H 467.796 0.651636 -4.10763 0
M  V30 4831 H 466.373 2.14639 -3.04934 0
M  V30 4832 N 468.558 1.5553 0.254621 0
M  V30 4833 C 469.835 1.6774 1.00611 0
M  V30 4834 C 470.215 0.555993 2.03647 0
M  V30 4835 O 469.563 -0.441583 2.24193 0
M  V30 4836 C 469.773 3.07725 1.6464 0
M  V30 4837 C 471.121 3.66074 2.15116 0
M  V30 4838 O 472.145 3.10476 1.74595 0
M  V30 4839 O 471.004 4.63526 2.89493 0
M  V30 4840 H 468.098 0.681958 0.467828 0
M  V30 4841 H 470.644 1.67863 0.24902 0
M  V30 4842 H 469.416 3.80792 0.900734 0
M  V30 4843 H 469.039 3.1158 2.46989 0
M  V30 4844 N 470.036 -0.519951 1.48776 0
M  V30 4845 C 471.313 -1.28123 1.47797 0
M  V30 4846 C 471.693 -2.10196 0.195157 0
M  V30 4847 O 471.041 -2.13167 -0.822925 0
M  V30 4848 C 471.251 -2.15413 2.74587 0
M  V30 4849 C 472.599 -2.75225 3.23321 0
M  V30 4850 O 473.623 -2.25694 2.75574 0
M  V30 4851 O 472.482 -3.65346 4.06429 0
M  V30 4852 H 469.576 -0.578793 0.590701 0
M  V30 4853 H 472.122 -0.535779 1.6102 0
M  V30 4854 H 470.894 -1.54617 3.59457 0
M  V30 4855 H 470.517 -2.97186 2.64132 0
M  V30 4856 N 471.514 -1.37532 -0.769588 0
M  V30 4857 C 472.461 -1.3347 -1.88293 0
M  V30 4858 C 473.431 -0.199891 -1.64893 0
M  V30 4859 O 474.616 -0.389594 -1.8678 0
M  V30 4860 C 471.756 -1.14968 -3.25387 0
M  V30 4861 C 470.869 -2.37698 -3.60727 0
M  V30 4862 C 470.004 -2.12051 -4.8704 0
M  V30 4863 C 469.043 -3.30636 -5.15117 0
M  V30 4864 N 468.18 -3.04527 -6.3262 0
M  V30 4865 H 473.02 -2.28658 -1.911 0
M  V30 4866 H 470.557 -1.13622 -0.934257 0
M  V30 4867 H 472.515 -1.02261 -4.04473 0
M  V30 4868 H 471.145 -0.234263 -3.21949 0
M  V30 4869 H 470.197 -2.61137 -2.76608 0
M  V30 4870 H 471.509 -3.26131 -3.77413 0
M  V30 4871 H 470.663 -1.96388 -5.74035 0
M  V30 4872 H 469.402 -1.20959 -4.72462 0
M  V30 4873 H 468.407 -3.46836 -4.26597 0
M  V30 4874 H 469.632 -4.22582 -5.31603 0
M  V30 4875 H 467.578 -2.16067 -6.19396 0
M  V30 4876 H 467.495 -3.86503 -6.49732 0
M  V30 4877 H 468.763 -2.92485 -7.22546 0
M  V30 4878 N 472.992 0.995999 -1.22138 0
M  V30 4879 C 474.232 1.75032 -1.05561 0
M  V30 4880 C 474.596 1.87729 0.402698 0
M  V30 4881 O 475.797 2.59813 0.689234 0
M  V30 4882 C 474.068 3.11973 -1.74379 0
M  V30 4883 S 475.627 4.03182 -1.73175 0
M  V30 4884 H 472.445 0.602137 -0.37809 0
M  V30 4885 H 475.047 1.19107 -1.55028 0
M  V30 4886 H 473.751 3.00371 -2.79652 0
M  V30 4887 H 473.282 3.7297 -1.25128 0
M  V30 4888 H 475.297 4.90043 -0.77923 0
M  V30 4889 N 474.47 1.03057 1.19235 0
M  V30 4890 C 475.38 0.622922 2.26179 0
M  V30 4891 C 476.396 -0.346113 1.70523 0
M  V30 4892 O 477.572 -0.203572 2.00369 0
M  V30 4893 C 474.637 -0.0182063 3.46695 0
M  V30 4894 C 473.698 0.998546 4.17526 0
M  V30 4895 C 472.931 0.387917 5.32288 0
M  V30 4896 O 473.154 -0.808668 5.64639 0
M  V30 4897 O 472.088 1.1116 5.91546 0
M  V30 4898 H 475.914 1.51363 2.63292 0
M  V30 4899 H 473.499 0.800856 1.26122 0
M  V30 4900 H 475.381 -0.375606 4.19723 0
M  V30 4901 H 474.056 -0.882895 3.11427 0
M  V30 4902 H 472.963 1.40756 3.4661 0
M  V30 4903 H 474.296 1.83366 4.56769 0
M  V30 4904 N 475.948 -1.35272 0.808662 0
M  V30 4905 C 477.359 -1.81179 0.450688 0
M  V30 4906 C 477.71 -1.67143 -1.02751 0
M  V30 4907 O 476.835 -1.20325 -1.79864 0
M  V30 4908 C 477.43 -3.28943 0.811275 0
M  V30 4909 C 475.989 -3.72985 0.505871 0
M  V30 4910 C 475.136 -2.57229 1.03578 0
M  V30 4911 H 478.087 -1.2322 1.00012 0
M  V30 4912 H 478.108 -3.80342 0.109588 0
M  V30 4913 H 477.62 -3.39127 1.88718 0
M  V30 4914 H 475.721 -3.68349 -0.561209 0
M  V30 4915 H 475.834 -4.67677 1.03995 0
M  V30 4916 H 474.198 -2.50548 0.458005 0
M  V30 4917 H 474.981 -2.7019 2.11784 0
M  V30 4918 N 477.426 -0.562348 -1.47226 0
M  V30 4919 C 478.373 0.182461 -2.30078 0
M  V30 4920 C 479.343 0.903503 -1.39377 0
M  V30 4921 O 480.528 0.898188 -1.68337 0
M  V30 4922 C 477.668 1.20322 -3.23445 0
M  V30 4923 C 476.781 0.487717 -4.29238 0
M  V30 4924 C 475.916 1.49422 -5.09752 0
M  V30 4925 C 474.955 0.763976 -6.07314 0
M  V30 4926 N 474.092 1.71755 -6.80768 0
M  V30 4927 H 478.932 -0.530169 -2.93246 0
M  V30 4928 H 476.469 -0.273276 -1.44539 0
M  V30 4929 H 478.427 1.80768 -3.76004 0
M  V30 4930 H 477.057 1.88382 -2.6213 0
M  V30 4931 H 476.109 -0.231374 -3.79696 0
M  V30 4932 H 477.421 -0.0841003 -4.98729 0
M  V30 4933 H 476.575 2.17206 -5.66486 0
M  V30 4934 H 475.314 2.09995 -4.40174 0
M  V30 4935 H 474.319 0.0722344 -5.49753 0
M  V30 4936 H 475.544 0.16391 -6.78902 0
M  V30 4937 H 473.49 2.31177 -6.13916 0
M  V30 4938 H 473.407 1.19802 -7.46447 0
M  V30 4939 H 474.675 2.38638 -7.42073 0
M  V30 4940 N 478.904 1.54736 -0.299062 0
M  V30 4941 C 480.134 2.04215 0.312992 0
M  V30 4942 C 480.542 1.17596 1.48215 0
M  V30 4943 O 479.885 0.193835 1.82674 0
M  V30 4944 C 479.947 3.49696 0.833862 0
M  V30 4945 C 479.611 4.56518 -0.20977 0
M  V30 4946 C 480.608 5.09442 -1.03756 0
M  V30 4947 C 478.293 5.01073 -0.35091 0
M  V30 4948 C 480.287 6.05459 -1.99244 0
M  V30 4949 C 477.974 5.9691 -1.30924 0
M  V30 4950 C 478.972 6.48987 -2.1285 0
M  V30 4951 O 478.66 7.42947 -3.07059 0
M  V30 4952 H 478.392 0.672128 0.0722494 0
M  V30 4953 H 480.946 2.00718 -0.436043 0
M  V30 4954 H 479.176 3.5051 1.63339 0
M  V30 4955 H 480.865 3.82381 1.36159 0
M  V30 4956 H 481.631 4.75816 -0.939376 0
M  V30 4957 H 477.51 4.60168 0.276813 0
M  V30 4958 H 481.054 6.46031 -2.63229 0
M  V30 4959 H 476.951 6.29953 -1.40815 0
M  V30 4960 H 477.719 7.60743 -3.02015 0
M  V30 4961 N 480.382 0.0267497 1.57577 0
M  V30 4962 C 481.629 -0.652404 1.91703 0
M  V30 4963 C 481.957 -1.72271 0.902936 0
M  V30 4964 O 481.212 -1.955 -0.0884843 0
M  V30 4965 C 481.511 -1.30914 3.3256 0
M  V30 4966 C 481.177 -0.369441 4.49384 0
M  V30 4967 C 479.839 -0.110791 4.81072 0
M  V30 4968 C 482.191 0.275971 5.20469 0
M  V30 4969 C 479.519 0.801116 5.81205 0
M  V30 4970 C 481.871 1.17592 6.21575 0
M  V30 4971 C 480.535 1.44348 6.51705 0
M  V30 4972 H 479.805 -0.238732 0.70149 0
M  V30 4973 H 482.452 0.0880091 1.91298 0
M  V30 4974 H 480.757 -2.12425 3.29216 0
M  V30 4975 H 482.454 -1.84115 3.56234 0
M  V30 4976 H 479.044 -0.581211 4.24641 0
M  V30 4977 H 483.228 0.0892 4.9622 0
M  V30 4978 H 478.484 1.01614 6.02897 0
M  V30 4979 H 482.658 1.68223 6.75777 0
M  V30 4980 H 480.285 2.15176 7.29111 0
M  V30 4981 N 481.861 -1.55662 -0.24637 0
M  V30 4982 C 483.107 -1.77782 -0.975779 0
M  V30 4983 C 483.44 -0.592103 -1.84953 0
M  V30 4984 O 482.715 0.409588 -1.90138 0
M  V30 4985 C 482.998 -3.09788 -1.83584 0
M  V30 4986 C 482.851 -4.38764 -0.990241 0
M  V30 4987 C 484.17 -3.38029 -2.81823 0
M  V30 4988 H 481.289 -0.646789 -0.353317 0
M  V30 4989 H 483.931 -1.88398 -0.246248 0
M  V30 4990 H 482.081 -3.00869 -2.45784 0
M  V30 4991 H 483.753 -4.59675 -0.386897 0
M  V30 4992 H 481.996 -4.32798 -0.294626 0
M  V30 4993 H 482.667 -5.27514 -1.62584 0
M  V30 4994 H 485.143 -3.46915 -2.2976 0
M  V30 4995 H 484.019 -4.3161 -3.39122 0
M  V30 4996 H 484.28 -2.58968 -3.58313 0
M  V30 4997 N 483.339 0.512053 -1.4905 0
M  V30 4998 C 484.586 1.26686 -1.57978 0
M  V30 4999 C 484.914 1.92733 -0.261553 0
M  V30 5000 O 484.169 1.80772 0.749667 0
M  V30 5001 C 484.468 2.36446 -2.68008 0
M  V30 5002 C 484.134 1.87932 -4.09869 0
M  V30 5003 C 482.796 1.74419 -4.48477 0
M  V30 5004 C 485.148 1.5149 -4.98698 0
M  V30 5005 C 482.476 1.22827 -5.73699 0
M  V30 5006 C 484.828 1.01355 -6.24428 0
M  V30 5007 C 483.492 0.864735 -6.61875 0
M  V30 5008 H 482.762 0.463577 -0.578081 0
M  V30 5009 H 485.409 0.569421 -1.82838 0
M  V30 5010 H 483.714 3.11933 -2.37076 0
M  V30 5011 H 485.411 2.9453 -2.72127 0
M  V30 5012 H 482.001 1.99405 -3.79389 0
M  V30 5013 H 486.185 1.60782 -4.69535 0
M  V30 5014 H 481.441 1.10008 -6.01422 0
M  V30 5015 H 485.615 0.722351 -6.92644 0
M  V30 5016 H 483.242 0.462777 -7.5879 0
M  V30 5017 N 484.817 1.37938 0.762283 0
M  V30 5018 C 485.765 1.34569 1.89721 0
M  V30 5019 C 486.759 0.232929 1.67791 0
M  V30 5020 O 487.965 0.401485 1.75465 0
M  V30 5021 H 484.34 0.419594 0.624055 0
M  V30 5022 H 486.311 2.30357 1.8968 0
M  V30 5023 C 485.06 1.17898 3.27101 0
M  V30 5024 H 484.383 2.02781 3.44558 0
M  V30 5025 H 485.823 1.19593 4.06784 0
M  V30 5026 C 484.282 -0.114728 3.36705 0
M  V30 5027 O 484.812 -1.0949 3.8649 0
M  V30 5028 N 483.018 -0.16863 2.9011 0
M  V30 5029 H 482.565 0.62967 2.49786 0
M  V30 5030 H 482.523 -1.03383 2.96916 0
M  V30 5031 N 486.295 -0.989507 1.22664 0
M  V30 5032 C 487.52 -1.77031 1.08051 0
M  V30 5033 C 487.945 -1.84535 -0.364483 0
M  V30 5034 O 487.303 -1.3003 -1.2634 0
M  V30 5035 C 487.351 -3.18 1.70024 0
M  V30 5036 O 486.455 -4.01161 0.956216 0
M  V30 5037 H 485.796 -0.545008 0.379292 0
M  V30 5038 H 488.326 -1.24277 1.62531 0
M  V30 5039 H 488.336 -3.68616 1.74888 0
M  V30 5040 H 487.011 -3.11853 2.75174 0
M  V30 5041 H 485.588 -3.59687 0.98384 0
M  V30 5042 N 487.773 -1.03688 -1.18687 0
M  V30 5043 C 489.189 -0.755413 -1.4059 0
M  V30 5044 C 489.389 0.656659 -1.905 0
M  V30 5045 O 488.445 1.42144 -2.08689 0
M  V30 5046 C 489.758 -1.7983 -2.41001 0
M  V30 5047 C 491.306 -1.81877 -2.54735 0
M  V30 5048 C 491.781 -2.85148 -3.58406 0
M  V30 5049 N 493.272 -2.84015 -3.6591 0
M  V30 5050 C 494.007 -3.60573 -4.45841 0
M  V30 5051 N 493.503 -4.46871 -5.29413 0
M  V30 5052 N 495.296 -3.49079 -4.40568 0
M  V30 5053 H 487.447 -1.94818 -0.846148 0
M  V30 5054 H 489.71 -0.842727 -0.434184 0
M  V30 5055 H 489.416 -2.81097 -2.1137 0
M  V30 5056 H 489.29 -1.62727 -3.40294 0
M  V30 5057 H 491.677 -0.812836 -2.83685 0
M  V30 5058 H 491.758 -2.03057 -1.55568 0
M  V30 5059 H 491.402 -3.85918 -3.30197 0
M  V30 5060 H 491.332 -2.61224 -4.57241 0
M  V30 5061 H 493.823 -2.21431 -3.0623 0
M  V30 5062 H 494.136 -5.02007 -5.87545 0
M  V30 5063 H 492.481 -4.5094 -5.28846 0
M  V30 5064 H 495.672 -2.81066 -3.74325 0
M  V30 5065 H 495.845 -4.08994 -5.02621 0
M  V30 5066 N 489.251 1.34841 -0.815825 0
M  V30 5067 C 490.479 2.0273 -0.413294 0
M  V30 5068 C 490.894 1.61459 0.978599 0
M  V30 5069 O 490.251 0.816584 1.63212 0
M  V30 5070 C 490.302 3.58058 -0.497676 0
M  V30 5071 O 490.023 3.97832 -1.8347 0
M  V30 5072 C 491.524 4.4321 -0.0891339 0
M  V30 5073 H 488.744 0.649956 -0.166728 0
M  V30 5074 H 491.288 1.72267 -1.10201 0
M  V30 5075 H 489.443 3.87136 0.142886 0
M  V30 5076 H 489.857 4.92501 -1.80396 0
M  V30 5077 H 491.331 5.5164 -0.199274 0
M  V30 5078 H 491.808 4.28432 0.966571 0
M  V30 5079 H 492.414 4.19446 -0.703214 0
M  V30 5080 N 490.729 0.570148 1.46925 0
M  V30 5081 C 491.692 -0.159933 2.28641 0
M  V30 5082 C 492.692 -0.830638 1.37685 0
M  V30 5083 O 493.882 -0.684516 1.60187 0
M  V30 5084 C 491.014 -1.2354 3.17727 0
M  V30 5085 H 492.207 0.558035 2.94662 0
M  V30 5086 H 489.76 0.327603 1.52828 0
M  V30 5087 H 490.495 -1.98535 2.56426 0
M  V30 5088 H 490.28 -0.759125 3.84681 0
M  V30 5089 H 491.77 -1.74782 3.79264 0
M  V30 5090 N 492.207 -1.54576 0.307264 0
M  V30 5091 C 493.437 -2.04378 -0.302158 0
M  V30 5092 C 493.845 -1.18381 -1.47589 0
M  V30 5093 O 493.188 -0.20352 -1.82569 0
M  V30 5094 C 493.25 -3.50133 -0.815305 0
M  V30 5095 C 492.914 -4.56401 0.233977 0
M  V30 5096 C 493.911 -5.08884 1.06456 0
M  V30 5097 C 491.596 -5.0088 0.377478 0
M  V30 5098 C 493.59 -6.04394 2.02452 0
M  V30 5099 C 491.277 -5.96208 1.34088 0
M  V30 5100 C 492.275 -6.47849 2.16288 0
M  V30 5101 O 491.963 -7.41308 3.10994 0
M  V30 5102 H 491.695 -0.672502 -0.0686839 0
M  V30 5103 H 494.249 -2.00484 0.446682 0
M  V30 5104 H 492.479 -3.51371 -1.61478 0
M  V30 5105 H 494.168 -3.83098 -1.34129 0
M  V30 5106 H 494.934 -4.75311 0.964596 0
M  V30 5107 H 490.813 -4.60309 -0.252405 0
M  V30 5108 H 494.357 -6.44626 2.66652 0
M  V30 5109 H 490.254 -6.29198 1.44154 0
M  V30 5110 H 491.022 -7.5913 3.06045 0
M  V30 5111 N 493.685 -0.035106 -1.57561 0
M  V30 5112 C 494.648 0.929819 -2.09492 0
M  V30 5113 C 495.648 1.25026 -1.01119 0
M  V30 5114 O 496.838 1.18961 -1.27255 0
M  V30 5115 C 493.97 2.24457 -2.56577 0
M  V30 5116 H 495.163 0.479935 -2.96035 0
M  V30 5117 H 492.716 0.213033 -1.54841 0
M  V30 5118 H 493.451 2.74061 -1.73382 0
M  V30 5119 H 493.236 2.02508 -3.35757 0
M  V30 5120 H 494.726 2.93607 -2.96959 0
M  V30 5121 N 495.163 1.55791 0.238111 0
M  V30 5122 C 496.412 1.77234 0.962868 0
M  V30 5123 C 496.725 0.600661 1.86149 0
M  V30 5124 O 497.931 0.698315 2.62366 0
M  V30 5125 C 496.387 3.13808 1.76218 0
M  V30 5126 C 495.995 4.3865 0.910518 0
M  V30 5127 C 497.739 3.44585 2.47914 0
M  V30 5128 C 495.646 5.66252 1.70623 0
M  V30 5129 H 494.576 0.660731 0.36325 0
M  V30 5130 H 497.227 1.8221 0.217242 0
M  V30 5131 H 495.609 3.02963 2.55009 0
M  V30 5132 H 496.783 4.60507 0.164316 0
M  V30 5133 H 495.098 4.15271 0.30647 0
M  V30 5134 H 497.695 4.3714 3.07917 0
M  V30 5135 H 498.038 2.66314 3.19973 0
M  V30 5136 H 498.571 3.56685 1.76127 0
M  V30 5137 H 495.31 6.47369 1.02923 0
M  V30 5138 H 494.83 5.48483 2.42748 0
M  V30 5139 H 496.509 6.05829 2.27114 0
M  V30 5140 N 496.642 -0.504142 1.49319 0
M  V30 5141 C 498.053 -1.08572 1.51885 0
M  V30 5142 C 498.404 -1.93842 0.303255 0
M  V30 5143 O 497.529 -2.0828 -0.58724 0
M  V30 5144 C 498.124 -1.97574 2.75227 0
M  V30 5145 C 496.683 -2.509 2.80581 0
M  V30 5146 C 495.83 -1.28447 2.45757 0
M  V30 5147 H 498.781 -0.288194 1.56061 0
M  V30 5148 H 498.802 -2.82219 2.55211 0
M  V30 5149 H 498.314 -1.35486 3.63683 0
M  V30 5150 H 496.415 -3.16636 1.96398 0
M  V30 5151 H 496.528 -2.88268 3.82673 0
M  V30 5152 H 494.892 -1.60868 1.97468 0
M  V30 5153 H 495.675 -0.68072 3.36483 0
M  V30 5154 N 498.12 -1.38341 -0.754957 0
M  V30 5155 C 499.369 -1.33791 -1.5094 0
M  V30 5156 C 499.682 0.0699267 -1.95475 0
M  V30 5157 O 500.888 0.237956 -2.70455 0
M  V30 5158 C 499.344 -2.34934 -2.72643 0
M  V30 5159 C 498.952 -3.81332 -2.35138 0
M  V30 5160 C 500.696 -2.39425 -3.50536 0
M  V30 5161 C 498.603 -4.74164 -3.53444 0
M  V30 5162 H 497.533 -0.497314 -0.566741 0
M  V30 5163 H 500.184 -1.63888 -0.825403 0
M  V30 5164 H 498.566 -1.97878 -3.43017 0
M  V30 5165 H 499.74 -4.27319 -1.7244 0
M  V30 5166 H 498.055 -3.79946 -1.70382 0
M  V30 5167 H 500.652 -3.0598 -4.38498 0
M  V30 5168 H 500.995 -1.41278 -3.91594 0
M  V30 5169 H 501.528 -2.75274 -2.87174 0
M  V30 5170 H 498.267 -5.73501 -3.17453 0
M  V30 5171 H 497.787 -4.3287 -4.15191 0
M  V30 5172 H 499.466 -4.92111 -4.20043 0
M  V30 5173 N 499.598 0.982988 -1.23187 0
M  V30 5174 C 500.528 2.09301 -1.03515 0
M  V30 5175 C 501.509 1.70035 0.0471136 0
M  V30 5176 O 502.694 1.93847 -0.117029 0
M  V30 5177 C 499.824 3.4167 -0.622791 0
M  V30 5178 C 498.778 3.94828 -1.65211 0
M  V30 5179 C 498.104 5.23362 -1.09527 0
M  V30 5180 C 499.404 4.2439 -3.04451 0
M  V30 5181 H 501.098 2.26016 -1.96359 0
M  V30 5182 H 498.644 1.08611 -0.945501 0
M  V30 5183 H 500.597 4.18746 -0.472233 0
M  V30 5184 H 499.321 3.24811 0.341329 0
M  V30 5185 H 497.98 3.19895 -1.79061 0
M  V30 5186 H 497.628 5.02852 -0.122211 0
M  V30 5187 H 497.328 5.59895 -1.783 0
M  V30 5188 H 498.852 6.03062 -0.956511 0
M  V30 5189 H 500.266 4.92225 -2.93917 0
M  V30 5190 H 498.663 4.72118 -3.70438 0
M  V30 5191 H 499.733 3.31765 -3.53638 0
M  V30 5192 N 501.076 1.04316 1.18135 0
M  V30 5193 C 502.322 0.749128 1.88457 0
M  V30 5194 C 502.655 -0.72149 1.803 0
M  V30 5195 O 501.93 -1.52676 1.205 0
M  V30 5196 C 502.213 1.21905 3.38838 0
M  V30 5197 C 502.066 2.75195 3.55792 0
M  V30 5198 C 503.385 0.811085 4.32561 0
M  V30 5199 H 500.504 0.273611 0.684329 0
M  V30 5200 H 503.146 1.29561 1.38975 0
M  V30 5201 H 501.296 0.754137 3.8111 0
M  V30 5202 H 502.968 3.29743 3.22595 0
M  V30 5203 H 501.211 3.14899 2.98364 0
M  V30 5204 H 501.882 3.03135 4.61317 0
M  V30 5205 H 504.358 1.21118 3.98082 0
M  V30 5206 H 503.234 1.16761 5.36338 0
M  V30 5207 H 503.495 -0.285596 4.41177 0
M  V30 5208 N 502.554 -1.34406 0.822964 0
M  V30 5209 C 503.801 -1.98284 0.411057 0
M  V30 5210 C 504.129 -1.65245 -1.02588 0
M  V30 5211 O 503.384 -0.91619 -1.72929 0
M  V30 5212 C 503.683 -3.52981 0.560268 0
M  V30 5213 C 503.349 -4.05931 1.96293 0
M  V30 5214 C 502.011 -4.20103 2.34664 0
M  V30 5215 C 504.363 -4.34412 2.87985 0
M  V30 5216 C 501.691 -4.60082 3.64062 0
M  V30 5217 C 504.043 -4.75838 4.16847 0
M  V30 5218 C 502.707 -4.88215 4.55195 0
M  V30 5219 H 501.977 -0.725573 0.150416 0
M  V30 5220 H 504.624 -1.60349 1.04692 0
M  V30 5221 H 502.929 -3.91477 -0.158982 0
M  V30 5222 H 504.626 -4.00385 0.222087 0
M  V30 5223 H 501.216 -3.95363 1.65487 0
M  V30 5224 H 505.4 -4.23001 2.59584 0
M  V30 5225 H 500.656 -4.67856 3.93599 0
M  V30 5226 H 504.83 -4.96834 4.87984 0
M  V30 5227 H 502.457 -5.18952 5.55512 0
M  V30 5228 N 504.032 -0.577932 -1.46621 0
M  V30 5229 C 504.995 0.147805 -2.28723 0
M  V30 5230 C 505.995 0.823325 -1.38123 0
M  V30 5231 O 507.185 0.676011 -1.60548 0
M  V30 5232 C 504.317 1.21853 -3.18378 0
M  V30 5233 H 505.51 -0.573654 -2.94362 0
M  V30 5234 H 503.063 -0.335703 -1.52652 0
M  V30 5235 H 503.798 1.97173 -2.57475 0
M  V30 5236 H 503.583 0.738714 -3.85078 0
M  V30 5237 H 505.073 1.72768 -3.80186 0
M  V30 5238 N 505.51 1.54411 -0.315457 0
M  V30 5239 C 506.757 2.00419 0.289543 0
M  V30 5240 C 507.085 1.20373 1.52776 0
M  V30 5241 O 506.34 0.271769 1.93804 0
M  V30 5242 C 506.639 3.50936 0.676652 0
M  V30 5243 C 506.305 4.48532 -0.461472 0
M  V30 5244 C 504.967 4.74936 -0.773879 0
M  V30 5245 C 507.319 5.06567 -1.22637 0
M  V30 5246 C 504.647 5.56634 -1.85405 0
M  V30 5247 C 506.999 5.89441 -2.29657 0
M  V30 5248 C 505.663 6.1415 -2.61488 0
M  V30 5249 H 504.933 0.733386 0.105951 0
M  V30 5250 H 507.58 1.86434 -0.437554 0
M  V30 5251 H 505.885 3.62606 1.48405 0
M  V30 5252 H 507.582 3.83971 1.15618 0
M  V30 5253 H 504.172 4.28096 -0.207893 0
M  V30 5254 H 508.356 4.86157 -0.998271 0
M  V30 5255 H 503.612 5.74012 -2.10523 0
M  V30 5256 H 507.786 6.33432 -2.89374 0
M  V30 5257 H 505.413 6.77245 -3.45317 0
M  V30 5258 N 506.988 0.0434614 1.5754 0
M  V30 5259 C 508.234 -0.632971 1.92669 0
M  V30 5260 C 508.567 -1.70947 0.921446 0
M  V30 5261 O 507.842 -1.94426 -0.0537202 0
M  V30 5262 C 508.125 -1.23619 3.38216 0
M  V30 5263 C 507.978 -0.168274 4.49485 0
M  V30 5264 C 509.297 -2.15008 3.84005 0
M  V30 5265 H 506.416 -0.228629 0.700641 0
M  V30 5266 H 509.058 0.103651 1.89717 0
M  V30 5267 H 507.208 -1.864 3.40863 0
M  V30 5268 H 508.88 0.463196 4.58969 0
M  V30 5269 H 507.123 0.504581 4.30855 0
M  V30 5270 H 507.794 -0.630218 5.48391 0
M  V30 5271 H 510.27 -1.62198 3.83185 0
M  V30 5272 H 509.146 -2.54161 4.86511 0
M  V30 5273 H 509.407 -3.04707 3.20322 0
M  V30 5274 N 508.466 -1.55915 -0.229846 0
M  V30 5275 C 509.706 -1.80314 -0.962614 0
M  V30 5276 C 510.07 -0.61568 -1.81861 0
M  V30 5277 O 511.271 -0.738795 -2.58448 0
M  V30 5278 C 509.542 -3.0956 -1.78627 0
M  V30 5279 S 511.101 -3.55243 -2.57581 0
M  V30 5280 H 507.919 -0.633142 -0.323499 0
M  V30 5281 H 510.521 -1.94155 -0.228919 0
M  V30 5282 H 509.225 -3.94033 -1.14742 0
M  V30 5283 H 508.756 -2.98503 -2.56241 0
M  V30 5284 H 510.771 -3.17924 -3.80971 0
M  V30 5285 N 509.944 0.496216 -1.49584 0
M  V30 5286 C 510.894 1.59422 -1.62999 0
M  V30 5287 C 511.878 1.53402 -0.485457 0
M  V30 5288 O 513.07 1.60851 -0.738649 0
M  V30 5289 C 510.199 2.98009 -1.70427 0
M  V30 5290 C 509.285 3.09008 -2.90473 0
M  V30 5291 N 509.676 2.89884 -4.14489 0
M  V30 5292 C 507.974 3.40115 -2.8851 0
M  V30 5293 C 508.675 3.0519 -4.95211 0
M  V30 5294 N 507.651 3.3428 -4.2867 0
M  V30 5295 H 511.453 1.43297 -2.56599 0
M  V30 5296 H 508.967 0.702443 -1.46422 0
M  V30 5297 H 510.964 3.76926 -1.78136 0
M  V30 5298 H 509.624 3.152 -0.77967 0
M  V30 5299 H 510.635 2.65963 -4.44392 0
M  V30 5300 H 507.312 3.63452 -2.05448 0
M  V30 5301 H 508.702 2.94856 -6.03746 0
M  V30 5302 N 511.423 1.38739 0.74761 0
M  V30 5303 C 512.834 1.31507 1.32524 0
M  V30 5304 C 513.185 -0.0263963 1.96182 0
M  V30 5305 O 512.31 -0.92849 1.95469 0
M  V30 5306 C 512.905 2.38162 2.40966 0
M  V30 5307 C 511.464 2.34489 2.94434 0
M  V30 5308 C 510.611 2.20712 1.67873 0
M  V30 5309 H 513.562 1.4901 0.546043 0
M  V30 5310 H 513.583 2.04222 3.21051 0
M  V30 5311 H 513.095 3.35783 1.94605 0
M  V30 5312 H 511.196 1.40467 3.45108 0
M  V30 5313 H 511.309 3.28861 3.48407 0
M  V30 5314 H 509.673 1.67667 1.91729 0
M  V30 5315 H 510.456 3.20285 1.23582 0
M  V30 5316 N 512.901 -0.976442 1.23707 0
M  V30 5317 C 513.811 -2.10359 1.03856 0
M  V30 5318 C 514.827 -1.73991 -0.0180919 0
M  V30 5319 O 516.003 -2.0061 0.178211 0
M  V30 5320 C 513.068 -3.40809 0.636387 0
M  V30 5321 C 512.129 -3.91179 1.76854 0
M  V30 5322 C 511.362 -5.15404 1.38546 0
M  V30 5323 O 511.585 -5.69754 0.27142 0
M  V30 5324 O 510.519 -5.5994 2.20797 0
M  V30 5325 H 514.345 -2.29997 1.98331 0
M  V30 5326 H 511.93 -1.08742 1.02448 0
M  V30 5327 H 513.812 -4.19269 0.423223 0
M  V30 5328 H 512.487 -3.22493 -0.279322 0
M  V30 5329 H 511.394 -3.13819 2.03638 0
M  V30 5330 H 512.727 -4.13958 2.6627 0
M  V30 5331 N 514.379 -1.04941 -1.1758 0
M  V30 5332 C 515.625 -0.759112 -1.88057 0
M  V30 5333 C 515.958 0.711918 -1.8068 0
M  V30 5334 O 515.233 1.52035 -1.21308 0
M  V30 5335 C 515.516 -1.237 -3.38187 0
M  V30 5336 C 515.369 -2.77078 -3.54327 0
M  V30 5337 C 516.688 -0.834014 -4.32125 0
M  V30 5338 H 513.807 -0.277237 -0.682868 0
M  V30 5339 H 516.449 -1.30296 -1.38286 0
M  V30 5340 H 514.599 -0.774337 -3.80705 0
M  V30 5341 H 516.271 -3.31449 -3.20842 0
M  V30 5342 H 514.514 -3.16477 -2.96689 0
M  V30 5343 H 515.185 -3.05577 -4.59703 0
M  V30 5344 H 517.661 -1.23228 -3.97434 0
M  V30 5345 H 516.537 -1.19603 -5.35711 0
M  V30 5346 H 516.798 0.262195 -4.41322 0
M  V30 5347 N 515.857 1.33968 -0.830081 0
M  V30 5348 C 516.787 2.31911 -0.271911 0
M  V30 5349 C 517.768 1.58571 0.61556 0
M  V30 5350 O 518.953 1.86514 0.540946 0
M  V30 5351 C 516.083 3.42737 0.561146 0
M  V30 5352 C 515.037 4.27383 -0.229789 0
M  V30 5353 C 514.363 5.29742 0.726463 0
M  V30 5354 C 515.663 5.02 -1.44197 0
M  V30 5355 H 517.357 2.78844 -1.09025 0
M  V30 5356 H 514.903 1.34061 -0.52571 0
M  V30 5357 H 516.856 4.10276 0.961867 0
M  V30 5358 H 515.58 2.94471 1.41261 0
M  V30 5359 H 514.239 3.61456 -0.611964 0
M  V30 5360 H 513.887 4.77736 1.57408 0
M  V30 5361 H 513.587 5.87255 0.20142 0
M  V30 5362 H 515.111 6.00149 1.12489 0
M  V30 5363 H 516.525 5.62355 -1.11488 0
M  V30 5364 H 514.922 5.69122 -1.90317 0
M  V30 5365 H 515.992 4.31281 -2.2164 0
M  V30 5366 N 517.335 0.585699 1.46312 0
M  V30 5367 C 518.746 0.159938 1.86014 0
M  V30 5368 C 519.097 -1.27775 1.48889 0
M  V30 5369 O 518.222 -1.96559 0.90519 0
M  V30 5370 C 518.817 0.283485 3.37612 0
M  V30 5371 C 517.376 -0.0874256 3.76298 0
M  V30 5372 C 516.523 0.618055 2.70325 0
M  V30 5373 H 519.474 0.793737 1.37425 0
M  V30 5374 H 519.495 -0.490348 3.77327 0
M  V30 5375 H 519.007 1.32995 3.64601 0
M  V30 5376 H 517.108 -1.13391 3.54927 0
M  V30 5377 H 517.221 0.290975 4.78216 0
M  V30 5378 H 515.585 0.057993 2.54634 0
M  V30 5379 H 516.368 1.66623 3.00153 0
M  V30 5380 N 518.813 -1.54241 0.323641 0
M  V30 5381 C 520.062 -1.9975 -0.279806 0
M  V30 5382 C 520.375 -1.2156 -1.5324 0
M  V30 5383 O 521.581 -1.57447 -2.21185 0
M  V30 5384 C 520.037 -3.55686 -0.549115 0
M  V30 5385 C 519.645 -4.4271 0.686432 0
M  V30 5386 C 521.389 -4.09663 -1.11251 0
M  V30 5387 C 519.296 -5.90119 0.389022 0
M  V30 5388 H 518.226 -0.746177 -0.10833 0
M  V30 5389 H 520.877 -1.78248 0.435877 0
M  V30 5390 H 519.259 -3.73176 -1.32499 0
M  V30 5391 H 520.433 -4.36996 1.46188 0
M  V30 5392 H 518.748 -3.99623 1.17005 0
M  V30 5393 H 521.345 -5.17386 -1.34965 0
M  V30 5394 H 521.688 -3.61651 -2.06191 0
M  V30 5395 H 522.221 -3.95806 -0.39782 0
M  V30 5396 H 518.96 -6.42326 1.30759 0
M  V30 5397 H 518.48 -5.98785 -0.348722 0
M  V30 5398 H 520.159 -6.47 -0.0011164 0
M  V30 5399 N 520.291 -0.0518155 -1.57515 0
M  V30 5400 C 521.521 0.63048 -1.96745 0
M  V30 5401 C 521.929 1.64875 -0.928054 0
M  V30 5402 O 521.272 1.83449 0.0960678 0
M  V30 5403 C 521.334 1.37381 -3.32215 0
M  V30 5404 C 520.998 0.511298 -4.54131 0
M  V30 5405 C 521.995 -0.222884 -5.19422 0
M  V30 5406 C 519.68 0.442035 -5.00351 0
M  V30 5407 C 521.674 -1.01476 -6.2927 0
M  V30 5408 C 519.361 -0.35353 -6.10077 0
M  V30 5409 C 520.359 -1.08062 -6.74397 0
M  V30 5410 O 520.047 -1.8631 -7.82013 0
M  V30 5411 H 519.779 0.177126 -0.652382 0
M  V30 5412 H 522.333 -0.114726 -2.05079 0
M  V30 5413 H 520.563 2.16466 -3.20436 0
M  V30 5414 H 522.252 1.9464 -3.56188 0
M  V30 5415 H 523.018 -0.178846 -4.8467 0
M  V30 5416 H 518.897 0.997562 -4.50077 0
M  V30 5417 H 522.441 -1.58279 -6.79407 0
M  V30 5418 H 518.338 -0.399205 -6.44264 0
M  V30 5419 H 519.106 -1.78528 -7.98793 0
M  V30 5420 N 521.769 1.56035 0.221574 0
M  V30 5421 C 522.994 1.83476 0.967026 0
M  V30 5422 C 523.419 0.632139 1.7716 0
M  V30 5423 O 522.777 -0.419082 1.7639 0
M  V30 5424 C 522.825 3.08907 1.86034 0
M  V30 5425 O 521.929 2.876 2.95567 0
M  V30 5426 H 521.27 0.604913 0.273817 0
M  V30 5427 H 523.8 2.03247 0.234893 0
M  V30 5428 H 523.81 3.3901 2.27016 0
M  V30 5429 H 522.485 3.96068 1.26898 0
M  V30 5430 H 521.062 2.6873 2.58532 0
M  V30 5431 N 523.247 -0.488276 1.49845 0
M  V30 5432 C 524.157 -1.61451 1.70207 0
M  V30 5433 C 525.173 -1.63877 0.584846 0
M  V30 5434 O 526.349 -1.82063 0.861107 0
M  V30 5435 C 523.414 -2.9776 1.77594 0
M  V30 5436 C 522.475 -3.05861 3.01243 0
M  V30 5437 C 521.708 -4.35668 3.08268 0
M  V30 5438 O 521.931 -5.25197 2.22541 0
M  V30 5439 O 520.865 -4.49005 4.00847 0
M  V30 5440 H 524.691 -1.47199 2.65643 0
M  V30 5441 H 522.276 -0.665939 1.33737 0
M  V30 5442 H 524.158 -3.7875 1.84732 0
M  V30 5443 H 522.833 -3.12248 0.8534 0
M  V30 5444 H 521.74 -2.24012 2.99616 0
M  V30 5445 H 523.073 -2.96304 3.9302 0
M  V30 5446 N 524.725 -1.39134 -0.740242 0
M  V30 5447 C 525.655 -1.40165 -1.86751 0
M  V30 5448 C 526.636 -0.265708 -1.68012 0
M  V30 5449 O 527.821 -0.47076 -1.88408 0
M  V30 5450 C 524.951 -1.2392 -3.2444 0
M  V30 5451 C 523.905 -2.34858 -3.57807 0
M  V30 5452 C 523.231 -2.03707 -4.94376 0
M  V30 5453 C 524.531 -3.77159 -3.61315 0
M  V30 5454 H 526.225 -2.345 -1.86145 0
M  V30 5455 H 523.771 -1.12875 -0.89416 0
M  V30 5456 H 525.724 -1.23263 -4.02969 0
M  V30 5457 H 524.448 -0.26051 -3.25559 0
M  V30 5458 H 523.107 -2.34723 -2.81604 0
M  V30 5459 H 522.755 -1.04289 -4.9207 0
M  V30 5460 H 522.455 -2.78016 -5.17669 0
M  V30 5461 H 523.979 -2.04691 -5.75268 0
M  V30 5462 H 525.393 -3.79252 -4.29931 0
M  V30 5463 H 523.79 -4.50784 -3.96124 0
M  V30 5464 H 524.86 -4.08513 -2.61238 0
M  V30 5465 N 526.204 0.969867 -1.24223 0
M  V30 5466 C 527.151 2.06407 -1.0327 0
M  V30 5467 C 528.121 1.66014 0.0533 0
M  V30 5468 O 529.306 1.90533 -0.100896 0
M  V30 5469 C 526.446 3.3909 -0.641262 0
M  V30 5470 C 525.559 3.9269 -1.80051 0
M  V30 5471 C 524.694 5.13631 -1.35486 0
M  V30 5472 C 523.733 5.59423 -2.48419 0
M  V30 5473 N 522.87 6.71586 -2.04737 0
M  V30 5474 H 527.71 2.23663 -1.96923 0
M  V30 5475 H 525.247 1.09624 -0.980862 0
M  V30 5476 H 527.205 4.15323 -0.395351 0
M  V30 5477 H 525.835 3.21765 0.258269 0
M  V30 5478 H 524.887 3.13116 -2.16014 0
M  V30 5479 H 526.199 4.22636 -2.64916 0
M  V30 5480 H 525.353 5.97231 -1.0677 0
M  V30 5481 H 524.092 4.85364 -0.476722 0
M  V30 5482 H 523.097 4.74398 -2.77897 0
M  V30 5483 H 524.322 5.89705 -3.36786 0
M  V30 5484 H 522.268 6.45058 -1.19318 0
M  V30 5485 H 522.185 7.0097 -2.83156 0
M  V30 5486 H 523.453 7.58633 -1.79154 0
M  V30 5487 N 527.682 1.05563 1.17022 0
M  V30 5488 C 528.959 0.68165 1.83338 0
M  V30 5489 C 529.339 -0.837665 1.93769 0
M  V30 5490 O 528.687 -1.74507 1.47511 0
M  V30 5491 C 528.897 1.375 3.20772 0
M  V30 5492 C 530.245 1.51545 3.96635 0
M  V30 5493 O 531.269 1.33431 3.30264 0
M  V30 5494 O 530.128 1.812 5.15586 0
M  V30 5495 H 527.222 0.240412 0.791285 0
M  V30 5496 H 529.768 1.15545 1.24288 0
M  V30 5497 H 528.54 2.41135 3.08171 0
M  V30 5498 H 528.163 0.890798 3.87493 0
M  V30 5499 N 529.16 -1.33526 0.837174 0
M  V30 5500 C 530.576 -1.50727 0.524743 0
M  V30 5501 C 530.776 -1.77792 -0.948279 0
M  V30 5502 O 529.832 -1.83719 -1.73216 0
M  V30 5503 C 531.145 -2.66299 1.39661 0
M  V30 5504 C 532.693 -2.80183 1.39521 0
M  V30 5505 C 533.168 -3.98815 2.25189 0
M  V30 5506 N 534.659 -4.06047 2.2289 0
M  V30 5507 C 535.394 -4.97032 2.85915 0
M  V30 5508 N 534.89 -5.93143 3.57985 0
M  V30 5509 N 536.683 -4.90015 2.75394 0
M  V30 5510 H 528.834 -1.1422 1.79074 0
M  V30 5511 H 531.097 -0.561399 0.763894 0
M  V30 5512 H 530.803 -2.52974 2.4433 0
M  V30 5513 H 530.677 -3.61663 1.07145 0
M  V30 5514 H 533.064 -2.92942 0.356253 0
M  V30 5515 H 533.145 -1.85586 1.76044 0
M  V30 5516 H 532.789 -3.86817 3.29143 0
M  V30 5517 H 532.719 -4.92654 1.86009 0
M  V30 5518 H 535.21 -3.37262 1.70478 0
M  V30 5519 H 535.523 -6.59227 4.03286 0
M  V30 5520 H 533.868 -5.93223 3.62093 0
M  V30 5521 H 537.059 -4.13894 2.18654 0
M  V30 5522 H 537.232 -5.60724 3.24796 0
M  V30 5523 N 530.638 -0.59345 -1.46 0
M  V30 5524 C 531.863 -0.0872365 -2.07216 0
M  V30 5525 C 532.288 1.2131 -1.43755 0
M  V30 5526 O 531.646 1.73528 -0.525152 0
M  V30 5527 C 531.694 0.0538197 -3.6056 0
M  V30 5528 O 530.798 1.10765 -3.97247 0
M  V30 5529 H 530.139 -0.0676598 -0.660544 0
M  V30 5530 H 532.669 -0.819445 -1.87473 0
M  V30 5531 H 532.679 0.256567 -4.07193 0
M  V30 5532 H 531.354 -0.895739 -4.0614 0
M  V30 5533 H 529.931 0.882501 -3.62307 0
M  V30 5534 N 532.116 1.54067 -0.331816 0
M  V30 5535 C 533.532 1.59587 0.0205388 0
M  V30 5536 C 533.732 1.34813 1.49759 0
M  V30 5537 O 532.788 1.13661 2.25471 0
M  V30 5538 C 534.101 2.97959 -0.405103 0
M  V30 5539 C 535.649 3.10964 -0.356454 0
M  V30 5540 C 536.124 4.51694 -0.757384 0
M  V30 5541 N 537.615 4.57709 -0.71111 0
M  V30 5542 C 538.35 5.64729 -0.993427 0
M  V30 5543 N 537.846 6.79652 -1.3433 0
M  V30 5544 N 539.639 5.54546 -0.918442 0
M  V30 5545 H 531.79 1.68426 -1.29407 0
M  V30 5546 H 534.053 0.78819 -0.526745 0
M  V30 5547 H 533.759 3.21115 -1.43451 0
M  V30 5548 H 533.633 3.76524 0.225692 0
M  V30 5549 H 536.02 2.87538 0.663763 0
M  V30 5550 H 536.101 2.34484 -1.02229 0
M  V30 5551 H 535.745 4.75853 -1.77555 0
M  V30 5552 H 535.675 5.26555 -0.0691444 0
M  V30 5553 H 538.166 3.75176 -0.452883 0
M  V30 5554 H 538.479 7.57221 -1.54388 0
M  V30 5555 H 536.824 6.81128 -1.38164 0
M  V30 5556 H 540.015 4.63641 -0.644536 0
M  V30 5557 H 540.188 6.37861 -1.14181 0
M  V30 5558 N 533.594 0.0601682 1.57485 0
M  V30 5559 C 535.01 -0.296422 1.56823 0
M  V30 5560 C 535.21 -1.70831 1.0686 0
M  V30 5561 O 534.266 -2.4174 0.729245 0
M  V30 5562 C 535.579 -0.116681 3.00474 0
M  V30 5563 C 537.127 -0.187103 3.1244 0
M  V30 5564 C 537.602 -0.035783 4.57986 0
M  V30 5565 N 539.093 -0.0917676 4.63109 0
M  V30 5566 C 539.828 0.00107251 5.734 0
M  V30 5567 N 539.324 0.146773 6.92645 0
M  V30 5568 N 541.117 -0.0551577 5.62073 0
M  V30 5569 H 533.268 0.983055 1.88281 0
M  V30 5570 H 535.531 0.382386 0.867459 0
M  V30 5571 H 535.237 0.85712 3.41096 0
M  V30 5572 H 535.111 -0.873929 3.66936 0
M  V30 5573 H 537.498 -1.15138 2.71712 0
M  V30 5574 H 537.579 0.601052 2.48638 0
M  V30 5575 H 537.223 0.925212 4.99402 0
M  V30 5576 H 537.153 -0.843196 5.19806 0
M  V30 5577 H 539.644 -0.203261 3.77353 0
M  V30 5578 H 539.957 0.210076 7.72514 0
M  V30 5579 H 538.302 0.181979 6.94762 0
M  V30 5580 H 541.493 -0.167605 4.678 0
M  V30 5581 H 541.666 0.020652 6.47997 0
M  V30 5582 N 535.072 -1.5615 -0.213296 0
M  V30 5583 C 536.019 -1.93086 -1.26437 0
M  V30 5584 C 536.989 -0.789086 -1.4616 0
M  V30 5585 O 538.174 -1.04569 -1.59593 0
M  V30 5586 C 535.314 -2.26003 -2.608 0
M  V30 5587 C 534.427 -3.53156 -2.48807 0
M  V30 5588 C 533.562 -3.7548 -3.7575 0
M  V30 5589 C 532.601 -4.96119 -3.58514 0
M  V30 5590 N 531.738 -5.14791 -4.77425 0
M  V30 5591 H 536.578 -2.82707 -0.942376 0
M  V30 5592 H 534.115 -1.39919 -0.454001 0
M  V30 5593 H 536.073 -2.431 -3.39055 0
M  V30 5594 H 534.703 -1.39546 -2.91079 0
M  V30 5595 H 533.755 -3.44207 -1.61944 0
M  V30 5596 H 535.067 -4.41565 -2.31996 0
M  V30 5597 H 534.221 -3.92718 -4.62447 0
M  V30 5598 H 532.96 -2.85368 -3.95495 0
M  V30 5599 H 531.965 -4.78823 -2.70201 0
M  V30 5600 H 533.19 -5.87724 -3.40231 0
M  V30 5601 H 531.136 -4.27623 -4.97468 0
M  V30 5602 H 531.053 -5.97347 -4.63371 0
M  V30 5603 H 532.321 -5.36471 -5.65525 0
M  V30 5604 N 536.55 0.480323 -1.50102 0
M  V30 5605 C 537.483 1.59789 -1.62919 0
M  V30 5606 C 538.461 1.55429 -0.477557 0
M  V30 5607 O 539.645 1.75186 -0.695851 0
M  V30 5608 C 536.772 2.98351 -1.60325 0
M  V30 5609 C 535.818 3.20899 -2.80938 0
M  V30 5610 S 536.651 3.01791 -4.4236 0
M  V30 5611 C 537.807 4.42712 -4.42444 0
M  V30 5612 H 538.04 1.48676 -2.57454 0
M  V30 5613 H 535.573 0.666996 -1.3925 0
M  V30 5614 H 537.531 3.7824 -1.59514 0
M  V30 5615 H 536.192 3.06862 -0.670419 0
M  V30 5616 H 535.385 4.22102 -2.75401 0
M  V30 5617 H 534.987 2.48768 -2.79268 0
M  V30 5618 H 537.279 5.3518 -4.15438 0
M  V30 5619 H 538.222 4.53294 -5.43995 0
M  V30 5620 H 538.63 4.24359 -3.72263 0
M  V30 5621 N 538.028 1.39524 0.732853 0
M  V30 5622 C 538.96 1.34318 1.85718 0
M  V30 5623 C 539.973 0.251576 1.60844 0
M  V30 5624 O 541.162 0.510685 1.71039 0
M  V30 5625 C 538.262 1.06334 3.21786 0
M  V30 5626 C 537.435 2.26813 3.73998 0
M  V30 5627 C 536.494 1.95253 4.88634 0
M  V30 5628 O 535.52 2.67957 5.02183 0
M  V30 5629 N 536.722 0.919984 5.73164 0
M  V30 5630 H 539.487 2.3121 1.90688 0
M  V30 5631 H 537.048 1.33654 0.91368 0
M  V30 5632 H 539.04 0.832363 3.96048 0
M  V30 5633 H 537.61 0.181682 3.12072 0
M  V30 5634 H 536.83 2.65849 2.91064 0
M  V30 5635 H 538.118 3.0717 4.05616 0
M  V30 5636 H 537.516 0.317487 5.64808 0
M  V30 5637 H 536.073 0.748905 6.47483 0
M  V30 5638 N 539.506 -0.963266 1.24736 0
M  V30 5639 C 540.734 -1.74166 1.11686 0
M  V30 5640 C 541.149 -1.8589 -0.330187 0
M  V30 5641 O 540.506 -1.35042 -1.2276 0
M  V30 5642 C 540.557 -3.15989 1.75595 0
M  V30 5643 O 540.278 -3.04847 3.14642 0
M  V30 5644 C 541.779 -4.10145 1.68213 0
M  V30 5645 H 538.999 -0.546031 0.389989 0
M  V30 5646 H 541.543 -1.20907 1.64929 0
M  V30 5647 H 539.698 -3.66219 1.26343 0
M  V30 5648 H 540.112 -3.9425 3.4593 0
M  V30 5649 H 541.586 -5.07299 2.17604 0
M  V30 5650 H 542.063 -4.3445 0.644208 0
M  V30 5651 H 542.669 -3.65827 2.16912 0
M  V30 5652 N 540.985 -1.06182 -1.16461 0
M  V30 5653 C 542.231 -0.779015 -1.87241 0
M  V30 5654 C 542.564 0.692715 -1.81425 0
M  V30 5655 O 541.839 1.5074 -1.22913 0
M  V30 5656 C 542.122 -1.2728 -3.36856 0
M  V30 5657 C 541.975 -2.80821 -3.51368 0
M  V30 5658 C 543.294 -0.879799 -4.31216 0
M  V30 5659 H 540.413 -0.284464 -0.679889 0
M  V30 5660 H 543.055 -1.31755 -1.36896 0
M  V30 5661 H 541.205 -0.814673 -3.79862 0
M  V30 5662 H 542.877 -3.34833 -3.17308 0
M  V30 5663 H 541.12 -3.19606 -2.93316 0
M  V30 5664 H 541.791 -3.10435 -4.56436 0
M  V30 5665 H 544.267 -1.27436 -3.96105 0
M  V30 5666 H 543.143 -1.25278 -5.34412 0
M  V30 5667 H 543.404 0.215372 -4.41575 0
M  V30 5668 N 542.463 1.3308 -0.844243 0
M  V30 5669 C 543.688 2.02341 -0.455282 0
M  V30 5670 C 544.113 1.6308 0.93737 0
M  V30 5671 O 543.471 0.826118 1.61385 0
M  V30 5672 C 543.519 3.55743 -0.58988 0
M  V30 5673 O 542.623 4.1063 0.38166 0
M  V30 5674 H 541.964 0.637898 -0.184343 0
M  V30 5675 H 544.494 1.6986 -1.14056 0
M  V30 5676 H 544.504 4.05243 -0.473522 0
M  V30 5677 H 543.179 3.83662 -1.60549 0
M  V30 5678 H 541.756 3.72236 0.22241 0
M  V30 5679 N 543.941 0.601185 1.45683 0
M  V30 5680 C 544.889 -0.133955 2.32214 0
M  V30 5681 C 545.883 -0.866034 1.45589 0
M  V30 5682 O 547.089 -0.782326 1.6211 0
M  V30 5683 H 543.464 -0.0620613 0.749435 0
M  V30 5684 H 545.435 0.614389 2.92007 0
M  V30 5685 C 544.184 -1.12216 3.29094 0
M  V30 5686 H 543.507 -0.568273 3.95741 0
M  V30 5687 H 544.947 -1.60659 3.92383 0
M  V30 5688 C 543.406 -2.19251 2.55794 0
M  V30 5689 O 543.936 -3.26894 2.33459 0
M  V30 5690 N 542.142 -1.9436 2.16039 0
M  V30 5691 H 541.689 -1.06829 2.34404 0
M  V30 5692 H 541.647 -2.66181 1.67318 0
M  V30 5693 N 545.419 -1.53889 0.339982 0
M  V30 5694 C 546.668 -2.00035 -0.258604 0
M  V30 5695 C 546.981 -1.23179 -1.51942 0
M  V30 5696 O 548.187 -1.59784 -2.19503 0
M  V30 5697 C 546.643 -3.56249 -0.511359 0
M  V30 5698 C 546.251 -4.41957 0.733349 0
M  V30 5699 C 547.995 -4.1082 -1.069 0
M  V30 5700 C 545.902 -5.89673 0.451591 0
M  V30 5701 H 544.832 -0.747284 -0.10041 0
M  V30 5702 H 547.483 -1.77776 0.454758 0
M  V30 5703 H 545.865 -3.7456 -1.28533 0
M  V30 5704 H 547.039 -4.35421 1.50815 0
M  V30 5705 H 545.354 -3.9836 1.21237 0
M  V30 5706 H 547.951 -5.18789 -1.2947 0
M  V30 5707 H 548.294 -3.63817 -2.02343 0
M  V30 5708 H 548.827 -3.96205 -0.355817 0
M  V30 5709 H 545.566 -6.40903 1.37565 0
M  V30 5710 H 545.086 -5.99122 -0.285193 0
M  V30 5711 H 546.765 -6.46965 0.0675067 0
M  V30 5712 N 546.897 -0.0685191 -1.57451 0
M  V30 5713 C 548.122 0.613919 -1.98106 0
M  V30 5714 C 548.547 1.62551 -0.946501 0
M  V30 5715 O 547.905 1.81085 0.0882824 0
M  V30 5716 C 547.953 1.26189 -3.378 0
M  V30 5717 O 547.057 2.37773 -3.36954 0
M  V30 5718 H 546.398 0.158163 -0.644888 0
M  V30 5719 H 548.928 -0.142063 -2.04106 0
M  V30 5720 H 548.938 1.60951 -3.74912 0
M  V30 5721 H 547.613 0.520625 -4.12629 0
M  V30 5722 H 546.19 2.04829 -3.11608 0
M  V30 5723 N 548.375 1.56261 0.205012 0
M  V30 5724 C 549.624 1.79236 0.925058 0
M  V30 5725 C 549.937 0.640011 1.84833 0
M  V30 5726 O 551.143 0.753809 2.60826 0
M  V30 5727 C 549.599 3.17475 1.69522 0
M  V30 5728 C 549.207 4.40482 0.817269 0
M  V30 5729 C 550.951 3.49766 2.4055 0
M  V30 5730 C 548.858 5.69744 1.58573 0
M  V30 5731 H 547.788 0.668287 0.349153 0
M  V30 5732 H 550.439 1.82629 0.178544 0
M  V30 5733 H 548.821 3.08304 2.48526 0
M  V30 5734 H 549.995 4.60752 0.0665988 0
M  V30 5735 H 548.31 4.15827 0.218316 0
M  V30 5736 H 550.907 4.43573 2.98575 0
M  V30 5737 H 551.25 2.73041 3.14252 0
M  V30 5738 H 551.783 3.60341 1.68522 0
M  V30 5739 H 548.522 6.49407 0.891679 0
M  V30 5740 H 548.042 5.53509 2.31059 0
M  V30 5741 H 549.721 6.1051 2.14212 0
M  V30 5742 N 549.853 -0.472356 1.50355 0
M  V30 5743 C 551.081 -1.24784 1.65035 0
M  V30 5744 C 551.496 -1.85837 0.333176 0
M  V30 5745 O 550.853 -1.69168 -0.68472 0
M  V30 5746 C 550.904 -2.35747 2.74054 0
M  V30 5747 O 550.625 -1.77197 4.00665 0
M  V30 5748 C 552.126 -3.26645 2.99696 0
M  V30 5749 H 549.346 -0.377432 0.554785 0
M  V30 5750 H 551.89 -0.563962 1.9657 0
M  V30 5751 H 550.045 -2.99912 2.45217 0
M  V30 5752 H 550.459 -2.5026 4.60945 0
M  V30 5753 H 551.933 -4.00718 3.79644 0
M  V30 5754 H 552.41 -3.8535 2.10718 0
M  V30 5755 H 553.016 -2.68218 3.3006 0
M  V30 5756 N 551.331 -1.39911 -0.725443 0
M  V30 5757 C 552.579 -1.37382 -1.48224 0
M  V30 5758 C 552.9 0.0264107 -1.94982 0
M  V30 5759 O 552.17 0.979408 -1.6966 0
M  V30 5760 H 550.75 -0.505596 -0.549892 0
M  V30 5761 H 553.412 -1.7487 -0.860608 0
M  V30 5762 H 552.508 -2.04254 -2.3598 0
M  V30 5763 N 552.809 0.956637 -1.25245 0
M  V30 5764 C 553.742 2.05232 -0.99775 0
M  V30 5765 C 554.72 1.62439 0.0723137 0
M  V30 5766 O 555.904 1.88381 -0.066926 0
M  V30 5767 C 553.031 3.34871 -0.507861 0
M  V30 5768 C 552.077 3.96625 -1.56815 0
M  V30 5769 S 552.91 4.32853 -3.15276 0
M  V30 5770 C 554.066 5.65613 -2.68017 0
M  V30 5771 H 554.299 2.26521 -1.9255 0
M  V30 5772 H 551.832 1.09601 -1.08752 0
M  V30 5773 H 553.79 4.09845 -0.231858 0
M  V30 5774 H 552.451 3.11551 0.399356 0
M  V30 5775 H 551.644 4.90087 -1.17604 0
M  V30 5776 H 551.246 3.28124 -1.79473 0
M  V30 5777 H 553.538 6.43635 -2.11518 0
M  V30 5778 H 554.481 6.09693 -3.60112 0
M  V30 5779 H 554.889 5.24751 -2.0808 0
M  V30 5780 N 554.287 1.06798 1.15896 0
M  V30 5781 C 555.217 0.704677 2.22613 0
M  V30 5782 C 556.198 -0.305252 1.67339 0
M  V30 5783 O 557.383 -0.179247 1.93371 0
M  V30 5784 C 554.513 0.0957325 3.47168 0
M  V30 5785 C 553.467 1.0322 4.15367 0
M  V30 5786 C 552.793 0.286293 5.33933 0
M  V30 5787 C 554.093 2.36341 4.65768 0
M  V30 5788 H 555.787 1.59688 2.53259 0
M  V30 5789 H 553.333 0.769257 1.21731 0
M  V30 5790 H 555.286 -0.170333 4.21056 0
M  V30 5791 H 554.01 -0.831516 3.15838 0
M  V30 5792 H 552.669 1.28309 3.43413 0
M  V30 5793 H 552.317 -0.644237 4.98857 0
M  V30 5794 H 552.017 0.910436 5.80504 0
M  V30 5795 H 553.541 0.0278938 6.10594 0
M  V30 5796 H 554.955 2.1561 5.31211 0
M  V30 5797 H 553.352 2.94299 5.2298 0
M  V30 5798 H 554.422 2.99047 3.81705 0
M  V30 5799 N 555.766 -1.3263 0.851289 0
M  V30 5800 C 557.012 -1.9766 0.453694 0
M  V30 5801 C 557.345 -1.67225 -0.987396 0
M  V30 5802 O 556.62 -0.958693 -1.69232 0
M  V30 5803 C 556.903 -3.5344 0.68936 0
M  V30 5804 C 556.756 -3.93517 2.17862 0
M  V30 5805 C 558.075 -4.39866 0.143555 0
M  V30 5806 H 555.194 -0.717989 0.166314 0
M  V30 5807 H 557.836 -1.57068 1.06909 0
M  V30 5808 H 555.986 -3.88147 0.165546 0
M  V30 5809 H 557.658 -3.69006 2.76826 0
M  V30 5810 H 555.901 -3.42798 2.65841 0
M  V30 5811 H 556.572 -5.02065 2.29422 0
M  V30 5812 H 559.048 -4.11875 0.591451 0
M  V30 5813 H 557.924 -5.47858 0.338043 0
M  V30 5814 H 558.185 -4.31696 -0.953466 0
M  V30 5815 N 557.244 -0.608902 -1.45362 0
M  V30 5816 C 558.177 0.158059 -2.27652 0
M  V30 5817 C 559.155 0.872397 -1.37215 0
M  V30 5818 O 560.339 0.881002 -1.66645 0
M  V30 5819 C 557.466 1.22896 -3.15617 0
M  V30 5820 C 556.512 0.617607 -4.22005 0
M  V30 5821 S 557.345 -0.575518 -5.32398 0
M  V30 5822 C 558.501 0.495938 -6.23932 0
M  V30 5823 H 558.734 -0.540095 -2.92353 0
M  V30 5824 H 556.267 -0.396456 -1.49223 0
M  V30 5825 H 558.225 1.84195 -3.66855 0
M  V30 5826 H 556.886 1.89919 -2.50179 0
M  V30 5827 H 556.079 1.42341 -4.83482 0
M  V30 5828 H 555.681 0.0797273 -3.73915 0
M  V30 5829 H 557.973 1.37465 -6.63408 0
M  V30 5830 H 558.916 -0.0827108 -7.08052 0
M  V30 5831 H 559.324 0.811856 -5.58631 0
M  V30 5832 N 558.722 1.53707 -0.348139 0
M  V30 5833 C 559.952 2.05108 0.247864 0
M  V30 5834 C 560.36 1.22252 1.44399 0
M  V30 5835 O 559.703 0.251853 1.81965 0
M  V30 5836 C 559.765 3.52171 0.722187 0
M  V30 5837 C 559.429 4.5562 -0.354902 0
M  V30 5838 C 560.426 5.05883 -1.19911 0
M  V30 5839 C 558.111 4.99703 -0.510145 0
M  V30 5840 C 560.105 5.98814 -2.18406 0
M  V30 5841 C 557.792 5.92443 -1.49848 0
M  V30 5842 C 558.79 6.41887 -2.33389 0
M  V30 5843 O 558.478 7.32802 -3.3054 0
M  V30 5844 H 558.21 0.674086 0.0508296 0
M  V30 5845 H 560.764 1.99229 -0.49968 0
M  V30 5846 H 558.994 3.55529 1.52105 0
M  V30 5847 H 560.683 3.8652 1.23925 0
M  V30 5848 H 561.449 4.72586 -1.09028 0
M  V30 5849 H 557.328 4.60816 0.130274 0
M  V30 5850 H 560.872 6.3733 -2.83649 0
M  V30 5851 H 556.769 6.25155 -1.60786 0
M  V30 5852 H 557.537 7.50749 -3.26064 0
M  V30 5853 N 560.2 0.0768682 1.57412 0
M  V30 5854 C 561.13 -0.886026 2.16037 0
M  V30 5855 C 562.111 -1.30691 1.08876 0
M  V30 5856 O 563.296 -1.37705 1.36934 0
M  V30 5857 C 560.426 -2.1518 2.72608 0
M  V30 5858 C 559.38 -1.87015 3.8498 0
M  V30 5859 C 558.706 -3.20266 4.28175 0
M  V30 5860 C 560.006 -1.17143 5.08994 0
M  V30 5861 H 561.7 -0.397642 2.96748 0
M  V30 5862 H 559.246 -0.189823 1.42743 0
M  V30 5863 H 561.199 -2.82962 3.12266 0
M  V30 5864 H 559.923 -2.66269 1.89125 0
M  V30 5865 H 558.582 -1.21636 3.45833 0
M  V30 5866 H 558.23 -3.69207 3.41607 0
M  V30 5867 H 557.93 -3.0221 5.03927 0
M  V30 5868 H 559.454 -3.89237 4.70454 0
M  V30 5869 H 560.868 -1.75003 5.45937 0
M  V30 5870 H 559.265 -1.09328 5.90057 0
M  V30 5871 H 560.335 -0.151295 4.84664 0
M  V30 5872 N 561.678 -1.56367 -0.196722 0
M  V30 5873 C 562.608 -1.97442 -1.24655 0
M  V30 5874 C 563.589 -0.846147 -1.47561 0
M  V30 5875 O 564.774 -1.11035 -1.59326 0
M  V30 5876 C 561.904 -2.31253 -2.59112 0
M  V30 5877 C 560.858 -3.46804 -2.50821 0
M  V30 5878 C 560.184 -3.66286 -3.89536 0
M  V30 5879 C 561.484 -4.8104 -2.03465 0
M  V30 5880 H 563.178 -2.85388 -0.905216 0
M  V30 5881 H 560.724 -1.37304 -0.434002 0
M  V30 5882 H 562.677 -2.58583 -3.32736 0
M  V30 5883 H 561.401 -1.40188 -2.94983 0
M  V30 5884 H 560.06 -3.19563 -1.79653 0
M  V30 5885 H 559.708 -2.72555 -4.22756 0
M  V30 5886 H 559.408 -4.4402 -3.84864 0
M  V30 5887 H 560.932 -3.9599 -4.64784 0
M  V30 5888 H 562.346 -5.07411 -2.66846 0
M  V30 5889 H 560.743 -5.62232 -2.09798 0
M  V30 5890 H 561.813 -4.74732 -0.98781 0
M  V30 5891 N 563.156 0.464375 -1.50603 0
M  V30 5892 C 564.119 1.54393 -1.69397 0
M  V30 5893 C 565.119 1.50566 -0.564504 0
M  V30 5894 O 566.309 1.53066 -0.831645 0
M  V30 5895 C 563.441 2.9401 -1.72543 0
M  V30 5896 H 564.634 1.39044 -2.65719 0
M  V30 5897 H 562.187 0.69122 -1.40185 0
M  V30 5898 H 562.922 3.14795 -0.77938 0
M  V30 5899 H 562.707 2.98195 -2.54602 0
M  V30 5900 H 564.197 3.72375 -1.89015 0
M  V30 5901 N 564.634 1.40294 0.718013 0
M  V30 5902 C 565.597 1.4012 1.81381 0
M  V30 5903 C 566.597 0.295405 1.58063 0
M  V30 5904 O 567.787 0.554187 1.6515 0
M  V30 5905 C 564.919 1.19056 3.19435 0
M  V30 5906 H 566.112 2.37645 1.82933 0
M  V30 5907 H 563.665 1.26107 0.923405 0
M  V30 5908 H 564.4 0.222809 3.23534 0
M  V30 5909 H 564.185 1.99152 3.37758 0
M  V30 5910 H 565.675 1.21716 3.99468 0
M  V30 5911 N 566.112 -0.949982 1.2575 0
M  V30 5912 C 567.042 -2.06483 1.09028 0
M  V30 5913 C 568.023 -1.701 -0.00201532 0
M  V30 5914 O 569.208 -1.93469 0.168383 0
M  V30 5915 C 566.338 -3.39899 0.71316 0
M  V30 5916 C 565.292 -3.90309 1.75621 0
M  V30 5917 C 564.618 -5.20274 1.23365 0
M  V30 5918 C 565.918 -4.16169 3.15596 0
M  V30 5919 H 567.612 -2.20731 2.02283 0
M  V30 5920 H 565.158 -1.06066 0.973964 0
M  V30 5921 H 567.111 -4.17346 0.58309 0
M  V30 5922 H 565.835 -3.25602 -0.255091 0
M  V30 5923 H 564.494 -3.15035 1.8748 0
M  V30 5924 H 564.142 -5.02351 0.255491 0
M  V30 5925 H 563.842 -5.54971 1.93082 0
M  V30 5926 H 565.366 -6.00314 1.11607 0
M  V30 5927 H 566.78 -4.84259 3.06864 0
M  V30 5928 H 565.177 -4.62131 3.82825 0
M  V30 5929 H 566.247 -3.22273 3.6231 0
M  V30 5930 N 567.59 -1.07411 -1.15328 0
M  V30 5931 C 568.837 -0.797649 -1.86128 0
M  V30 5932 C 569.165 0.676298 -1.82364 0
M  V30 5933 O 568.42 1.51223 -1.24218 0
M  V30 5934 C 568.719 -1.25191 -3.34757 0
M  V30 5935 C 568.385 -2.73191 -3.58716 0
M  V30 5936 C 567.047 -3.13616 -3.64964 0
M  V30 5937 C 569.399 -3.68718 -3.6837 0
M  V30 5938 C 566.727 -4.48383 -3.78377 0
M  V30 5939 C 569.079 -5.03248 -3.83306 0
M  V30 5940 C 567.743 -5.43293 -3.878 0
M  V30 5941 H 567.013 -0.29188 -0.681092 0
M  V30 5942 H 569.66 -1.34524 -1.36292 0
M  V30 5943 H 567.965 -0.623712 -3.86804 0
M  V30 5944 H 569.662 -1.01489 -3.87945 0
M  V30 5945 H 566.252 -2.40898 -3.54494 0
M  V30 5946 H 570.436 -3.38614 -3.62842 0
M  V30 5947 H 565.692 -4.78877 -3.80114 0
M  V30 5948 H 569.866 -5.77142 -3.89718 0
M  V30 5949 H 567.493 -6.47721 -3.97946 0
M  V30 5950 N 569.068 1.32177 -0.85831 0
M  V30 5951 C 570.316 1.96735 -0.462568 0
M  V30 5952 C 570.637 1.6824 0.985911 0
M  V30 5953 O 569.907 0.991564 1.68952 0
M  V30 5954 H 568.487 0.727849 -0.168064 0
M  V30 5955 H 571.149 1.61195 -1.09554 0
M  V30 5956 H 570.245 3.06068 -0.610647 0
M  V30 5957 N 570.547 0.616602 1.45037 0
M  V30 5958 C 571.777 0.121791 2.06241 0
M  V30 5959 C 572.185 -1.20289 1.46038 0
M  V30 5960 O 571.528 -1.7456 0.572242 0
M  V30 5961 C 571.59 -0.0827345 3.59405 0
M  V30 5962 C 571.254 1.16153 4.41993 0
M  V30 5963 C 572.251 2.08183 4.76399 0
M  V30 5964 C 569.936 1.39288 4.82601 0
M  V30 5965 C 571.93 3.21668 5.5028 0
M  V30 5966 C 569.617 2.53073 5.56235 0
M  V30 5967 C 570.615 3.44091 5.89992 0
M  V30 5968 O 570.303 4.55894 6.6213 0
M  V30 5969 H 570.035 0.0701667 0.672349 0
M  V30 5970 H 572.589 0.846877 1.87129 0
M  V30 5971 H 570.819 -0.862812 3.76952 0
M  V30 5972 H 572.508 -0.530273 4.02421 0
M  V30 5973 H 573.274 1.91538 4.45576 0
M  V30 5974 H 569.153 0.693396 4.55755 0
M  V30 5975 H 572.697 3.92733 5.76547 0
M  V30 5976 H 568.594 2.69667 5.86472 0
M  V30 5977 H 569.362 4.5469 6.80587 0
M  V30 5978 N 572.025 -1.5352 0.356285 0
M  V30 5979 C 572.955 -2.28372 -0.486661 0
M  V30 5980 C 573.936 -1.30432 -1.09185 0
M  V30 5981 O 575.121 -1.59291 -1.11085 0
M  V30 5982 C 572.251 -3.06604 -1.63129 0
M  V30 5983 C 571.205 -4.12154 -1.15381 0
M  V30 5984 C 570.531 -4.78415 -2.38796 0
M  V30 5985 C 571.831 -5.21724 -0.245179 0
M  V30 5986 H 573.525 -2.99083 0.137797 0
M  V30 5987 H 571.071 -1.43841 0.0677134 0
M  V30 5988 H 573.024 -3.57712 -2.22755 0
M  V30 5989 H 571.748 -2.33568 -2.28284 0
M  V30 5990 H 570.407 -3.61978 -0.580294 0
M  V30 5991 H 570.055 -4.01959 -3.02387 0
M  V30 5992 H 569.755 -5.49734 -2.07524 0
M  V30 5993 H 571.279 -5.32313 -2.99125 0
M  V30 5994 H 572.693 -5.68391 -0.748646 0
M  V30 5995 H 571.09 -6.00095 -0.0237608 0
M  V30 5996 H 572.16 -4.79596 0.715229 0
M  V30 5997 N 573.503 -0.0852151 -1.57369 0
M  V30 5998 C 574.731 0.58946 -1.98325 0
M  V30 5999 C 575.146 1.62333 -0.96403 0
M  V30 6000 O 574.503 1.82438 0.0476395 0
M  V30 6001 C 574.554 1.24604 -3.39347 0
M  V30 6002 O 574.275 0.253532 -4.37366 0
M  V30 6003 C 575.776 2.00726 -3.95252 0
M  V30 6004 H 572.996 0.158783 -0.651942 0
M  V30 6005 H 575.54 -0.161584 -2.03861 0
M  V30 6006 H 573.695 1.94808 -3.34856 0
M  V30 6007 H 574.109 0.726207 -5.19448 0
M  V30 6008 H 575.583 2.42039 -4.96106 0
M  V30 6009 H 576.06 2.86919 -3.32527 0
M  V30 6010 H 576.666 1.3536 -4.03185 0
M  V30 6011 N 574.981 1.5647 0.188427 0
M  V30 6012 C 576.228 1.81013 0.907779 0
M  V30 6013 C 576.556 0.65953 1.82977 0
M  V30 6014 O 575.811 -0.354308 1.92466 0
M  V30 6015 C 576.11 3.11596 1.7505 0
M  V30 6016 C 575.776 4.40145 0.978922 0
M  V30 6017 C 574.438 4.75066 0.765912 0
M  V30 6018 C 576.79 5.19369 0.436498 0
M  V30 6019 C 574.118 5.867 -0.00089868 0
M  V30 6020 C 576.47 6.31805 -0.317136 0
M  V30 6021 C 575.134 6.65303 -0.541103 0
M  V30 6022 H 574.404 0.662373 0.33218 0
M  V30 6023 H 577.051 1.9071 0.173732 0
M  V30 6024 H 575.356 2.97165 2.55343 0
M  V30 6025 H 577.053 3.27793 2.30983 0
M  V30 6026 H 573.643 4.12745 1.15497 0
M  V30 6027 H 577.827 4.92799 0.588449 0
M  V30 6028 H 573.083 6.11122 -0.184329 0
M  V30 6029 H 577.257 6.92406 -0.744788 0
M  V30 6030 H 574.884 7.51646 -1.13718 0
M  V30 6031 N 576.459 -0.456382 1.50847 0
M  V30 6032 C 577.689 -1.22848 1.66108 0
M  V30 6033 C 578.097 -1.85936 0.349897 0
M  V30 6034 O 577.44 -1.70664 -0.679665 0
M  V30 6035 C 577.502 -2.36722 2.70561 0
M  V30 6036 C 577.166 -1.94154 4.13707 0
M  V30 6037 C 578.163 -1.4557 4.99105 0
M  V30 6038 C 575.848 -2.02426 4.59705 0
M  V30 6039 C 577.842 -1.0582 6.28555 0
M  V30 6040 C 575.529 -1.62287 5.89157 0
M  V30 6041 C 576.527 -1.14064 6.73408 0
M  V30 6042 O 576.215 -0.744873 8.00442 0
M  V30 6043 H 575.947 -0.377105 0.561042 0
M  V30 6044 H 578.501 -0.549431 1.97915 0
M  V30 6045 H 576.731 -3.07844 2.34027 0
M  V30 6046 H 578.42 -2.98646 2.74892 0
M  V30 6047 H 579.186 -1.38589 4.64777 0
M  V30 6048 H 575.065 -2.38908 3.94264 0
M  V30 6049 H 578.609 -0.6811 6.94267 0
M  V30 6050 H 574.506 -1.68932 6.23003 0
M  V30 6051 H 575.274 -0.87242 8.13837 0
M  V30 6052 N 577.937 -1.40673 -0.710563 0
M  V30 6053 C 579.185 -1.38947 -1.46759 0
M  V30 6054 C 579.506 0.00572879 -1.94999 0
M  V30 6055 O 578.776 0.961358 -1.70689 0
M  V30 6056 H 577.356 -0.5114 -0.544499 0
M  V30 6057 H 580.018 -1.75773 -0.842012 0
M  V30 6058 H 579.114 -2.06745 -2.33801 0
M  V30 6059 N 579.415 0.9433 -1.26252 0
M  V30 6060 C 580.325 2.07532 -1.09397 0
M  V30 6061 C 581.341 1.73977 -0.0280449 0
M  V30 6062 O 582.517 2.00067 -0.231337 0
M  V30 6063 C 579.582 3.39002 -0.726523 0
M  V30 6064 C 578.643 3.86353 -1.87163 0
M  V30 6065 C 577.876 5.11549 -1.52162 0
M  V30 6066 O 578.099 5.68834 -0.422385 0
M  V30 6067 O 577.033 5.53889 -2.35565 0
M  V30 6068 H 580.859 2.24658 -2.04359 0
M  V30 6069 H 578.444 1.05988 -1.05295 0
M  V30 6070 H 580.326 4.18 -0.534236 0
M  V30 6071 H 579.001 3.2312 0.193721 0
M  V30 6072 H 577.908 3.0831 -2.11886 0
M  V30 6073 H 579.241 4.06752 -2.77152 0
M  V30 6074 N 580.893 1.08022 1.14757 0
M  V30 6075 C 582.139 0.808705 1.85978 0
M  V30 6076 C 582.472 -0.663764 1.82504 0
M  V30 6077 O 581.747 -1.48765 1.25296 0
M  V30 6078 C 582.03 1.32623 3.34788 0
M  V30 6079 C 581.883 2.86375 3.46856 0
M  V30 6080 C 583.202 0.948291 4.29762 0
M  V30 6081 H 580.321 0.295244 0.675278 0
M  V30 6082 H 582.963 1.33917 1.34783 0
M  V30 6083 H 581.113 0.875002 3.78518 0
M  V30 6084 H 582.785 3.39839 3.11941 0
M  V30 6085 H 581.028 3.24232 2.88194 0
M  V30 6086 H 581.699 3.17658 4.51439 0
M  V30 6087 H 584.175 1.33722 3.94028 0
M  V30 6088 H 583.051 1.33765 5.32352 0
M  V30 6089 H 583.312 -0.145094 4.41862 0
M  V30 6090 N 582.371 -1.3172 0.865308 0
M  V30 6091 C 583.281 -2.32394 0.320935 0
M  V30 6092 C 584.297 -1.64511 -0.566746 0
M  V30 6093 O 585.473 -1.95969 -0.464575 0
M  V30 6094 C 582.538 -3.43462 -0.472701 0
M  V30 6095 C 581.599 -4.27015 0.442385 0
M  V30 6096 C 580.832 -5.32779 -0.313469 0
M  V30 6097 O 581.055 -5.49158 -1.54214 0
M  V30 6098 O 579.989 -6.01015 0.326257 0
M  V30 6099 H 583.815 -2.80868 1.15528 0
M  V30 6100 H 581.4 -1.35535 0.628545 0
M  V30 6101 H 583.282 -4.11172 -0.922781 0
M  V30 6102 H 581.957 -2.97159 -1.28367 0
M  V30 6103 H 580.864 -3.62075 0.940866 0
M  V30 6104 H 582.197 -4.76871 1.21882 0
M  V30 6105 N 583.85 -0.624285 -1.44708 0
M  V30 6106 C 585.127 -0.0572781 -1.95516 0
M  V30 6107 C 585.507 1.41516 -1.56641 0
M  V30 6108 O 584.855 2.12614 -0.837111 0
M  V30 6109 C 585.065 -0.272944 -3.47931 0
M  V30 6110 C 586.413 -0.162529 -4.24289 0
M  V30 6111 O 587.437 -0.203946 -3.55616 0
M  V30 6112 O 586.296 -0.0616847 -5.46465 0
M  V30 6113 H 583.389 0.0262219 -0.826584 0
M  V30 6114 H 585.936 -0.695512 -1.54793 0
M  V30 6115 H 584.707 -1.29492 -3.69253 0
M  V30 6116 H 584.331 0.399756 -3.95585 0
M  V30 6117 N 585.328 1.53329 -0.364422 0
M  V30 6118 C 586.238 2.29414 0.490552 0
M  V30 6119 C 587.254 1.35335 1.09363 0
M  V30 6120 O 588.43 1.68391 1.10483 0
M  V30 6121 C 585.495 3.06772 1.61529 0
M  V30 6122 C 584.556 4.16516 1.03986 0
M  V30 6123 C 583.789 4.90176 2.111 0
M  V30 6124 O 584.012 4.63687 3.32191 0
M  V30 6125 O 582.946 5.76134 1.74222 0
M  V30 6126 H 586.772 3.03428 -0.12856 0
M  V30 6127 H 584.357 1.48843 -0.128837 0
M  V30 6128 H 586.239 3.55082 2.26924 0
M  V30 6129 H 584.914 2.35596 2.21983 0
M  V30 6130 H 583.821 3.7246 0.349856 0
M  V30 6131 H 585.154 4.89855 0.4799 0
M  V30 6132 N 586.806 0.0935595 1.57322 0
M  V30 6133 C 587.736 -0.863062 2.16964 0
M  V30 6134 C 588.717 -1.29528 1.10256 0
M  V30 6135 O 589.902 -1.36245 1.38387 0
M  V30 6136 C 587.032 -2.12276 2.74875 0
M  V30 6137 C 585.986 -1.82921 3.86942 0
M  V30 6138 C 585.312 -3.15707 4.31548 0
M  V30 6139 C 586.612 -1.11737 5.10208 0
M  V30 6140 H 588.306 -0.366145 2.97153 0
M  V30 6141 H 585.852 -0.174673 1.42937 0
M  V30 6142 H 587.805 -2.79634 3.1525 0
M  V30 6143 H 586.529 -2.64248 1.91938 0
M  V30 6144 H 585.188 -1.17961 3.47103 0
M  V30 6145 H 584.836 -3.65563 3.45504 0
M  V30 6146 H 584.536 -2.96849 5.07104 0
M  V30 6147 H 586.06 -3.84226 4.74555 0
M  V30 6148 H 587.474 -1.69203 5.47762 0
M  V30 6149 H 585.871 -1.03064 5.91183 0
M  V30 6150 H 586.941 -0.0998818 4.84797 0
M  V30 6151 N 588.284 -1.56567 -0.180126 0
M  V30 6152 C 589.214 -1.98753 -1.22553 0
M  V30 6153 C 590.195 -0.86175 -1.46656 0
M  V30 6154 O 591.38 -1.12719 -1.58139 0
M  V30 6155 C 588.51 -2.33988 -2.56645 0
M  V30 6156 C 587.464 -3.49445 -2.47128 0
M  V30 6157 C 586.79 -3.70397 -3.8563 0
M  V30 6158 C 588.09 -4.83171 -1.98352 0
M  V30 6159 H 589.784 -2.86332 -0.874896 0
M  V30 6160 H 587.33 -1.37757 -0.419414 0
M  V30 6161 H 589.283 -2.62097 -3.29974 0
M  V30 6162 H 588.007 -1.43309 -2.93479 0
M  V30 6163 H 586.666 -3.2145 -1.76254 0
M  V30 6164 H 586.314 -2.77023 -4.19842 0
M  V30 6165 H 586.014 -4.48077 -3.80132 0
M  V30 6166 H 587.538 -4.00897 -4.60558 0
M  V30 6167 H 588.952 -5.10213 -2.61449 0
M  V30 6168 H 587.349 -5.64425 -2.03823 0
M  V30 6169 H 588.419 -4.75753 -0.937402 0
M  V30 6170 N 589.762 0.448376 -1.51087 0
M  V30 6171 C 590.712 1.54156 -1.67988 0
M  V30 6172 C 591.696 1.5178 -0.534015 0
M  V30 6173 O 592.888 1.58419 -0.789448 0
M  V30 6174 C 590.017 2.92437 -1.79822 0
M  V30 6175 C 589.103 2.99611 -3.00157 0
M  V30 6176 N 589.494 2.7655 -4.23502 0
M  V30 6177 C 587.792 3.30764 -2.99184 0
M  V30 6178 C 588.493 2.89281 -5.0467 0
M  V30 6179 N 587.469 3.20473 -4.39088 0
M  V30 6180 H 591.271 1.35061 -2.61028 0
M  V30 6181 H 588.785 0.655504 -1.48583 0
M  V30 6182 H 590.782 3.71068 -1.90037 0
M  V30 6183 H 589.442 3.1256 -0.879554 0
M  V30 6184 H 590.453 2.5169 -4.52628 0
M  V30 6185 H 587.13 3.56732 -2.16907 0
M  V30 6186 H 588.52 2.75499 -6.12821 0
M  V30 6187 N 591.24 1.41047 0.703093 0
M  V30 6188 C 592.203 1.42036 1.79884 0
M  V30 6189 C 593.203 0.312153 1.57741 0
M  V30 6190 O 594.393 0.571672 1.64553 0
M  V30 6191 C 591.525 1.22437 3.18154 0
M  V30 6192 H 592.718 2.39572 1.80403 0
M  V30 6193 H 590.271 1.27079 0.909977 0
M  V30 6194 H 591.006 0.257112 3.23279 0
M  V30 6195 H 590.791 2.02723 3.35627 0
M  V30 6196 H 592.281 1.25946 3.98155 0
M  V30 6197 N 592.718 -0.936591 1.26751 0
M  V30 6198 C 593.948 -1.71509 1.15188 0
M  V30 6199 C 594.356 -1.86885 -0.295037 0
M  V30 6200 O 593.699 -1.37915 -1.21347 0
M  V30 6201 C 593.761 -3.13853 1.75318 0
M  V30 6202 C 593.425 -3.21845 3.24445 0
M  V30 6203 C 594.422 -3.04771 4.21201 0
M  V30 6204 C 592.107 -3.45088 3.64992 0
M  V30 6205 C 594.101 -3.10816 5.56482 0
M  V30 6206 C 591.788 -3.50767 5.00405 0
M  V30 6207 C 592.786 -3.33648 5.9596 0
M  V30 6208 O 592.474 -3.39045 7.28906 0
M  V30 6209 H 592.206 -0.543658 0.401761 0
M  V30 6210 H 594.76 -1.18234 1.67958 0
M  V30 6211 H 592.99 -3.6857 1.17016 0
M  V30 6212 H 594.679 -3.73634 1.58596 0
M  V30 6213 H 595.445 -2.86665 3.91214 0
M  V30 6214 H 591.324 -3.57467 2.91098 0
M  V30 6215 H 594.868 -2.97372 6.31043 0
M  V30 6216 H 590.765 -3.68396 5.30052 0
M  V30 6217 H 591.533 -3.55558 7.37238 0
M  V30 6218 N 594.196 -1.08629 -1.14182 0
M  V30 6219 C 595.421 -0.83902 -1.89671 0
M  V30 6220 C 595.846 0.603332 -1.78161 0
M  V30 6221 O 595.204 1.42301 -1.12339 0
M  V30 6222 C 595.252 -1.26854 -3.37551 0
M  V30 6223 O 594.356 -0.42188 -4.10236 0
M  V30 6224 H 593.697 -0.304545 -0.590041 0
M  V30 6225 H 596.227 -1.4483 -1.44518 0
M  V30 6226 H 596.237 -1.25038 -3.88368 0
M  V30 6227 H 594.912 -2.31901 -3.45246 0
M  V30 6228 H 593.489 -0.503654 -3.69483 0
M  V30 6229 N 595.674 1.31259 -0.872281 0
M  V30 6230 C 596.621 2.28459 -0.327857 0
M  V30 6231 C 597.591 1.55831 0.574957 0
M  V30 6232 O 598.776 1.83965 0.506101 0
M  V30 6233 C 595.916 3.41985 0.462644 0
M  V30 6234 C 595.029 4.29458 -0.467949 0
M  V30 6235 C 594.164 5.30131 0.336903 0
M  V30 6236 C 593.203 6.0925 -0.58997 0
M  V30 6237 N 592.34 7.01872 0.178775 0
M  V30 6238 H 597.18 2.74414 -1.16193 0
M  V30 6239 H 594.717 1.34994 -0.584376 0
M  V30 6240 H 596.675 4.06547 0.936759 0
M  V30 6241 H 595.305 2.97134 1.2614 0
M  V30 6242 H 594.357 3.65318 -1.06052 0
M  V30 6243 H 595.669 4.84677 -1.17856 0
M  V30 6244 H 594.823 6.0038 0.873427 0
M  V30 6245 H 593.562 4.75573 1.08079 0
M  V30 6246 H 592.567 5.37889 -1.13823 0
M  V30 6247 H 593.792 6.65894 -1.33275 0
M  V30 6248 H 591.738 6.49721 0.905435 0
M  V30 6249 H 591.655 7.54522 -0.472452 0
M  V30 6250 H 592.923 7.76382 0.696454 0
M  V30 6251 N 597.152 0.631951 1.44375 0
M  V30 6252 C 598.398 0.13697 2.02337 0
M  V30 6253 C 598.731 -1.23826 1.49602 0
M  V30 6254 O 598.006 -1.8221 0.680415 0
M  V30 6255 C 598.289 0.124536 3.59885 0
M  V30 6256 C 598.142 1.53217 4.229 0
M  V30 6257 C 599.461 -0.550481 4.36644 0
M  V30 6258 H 596.58 0.051247 0.735216 0
M  V30 6259 H 599.222 0.808581 1.71936 0
M  V30 6260 H 597.372 -0.44737 3.85916 0
M  V30 6261 H 599.044 2.15303 4.07973 0
M  V30 6262 H 597.287 2.0858 3.80364 0
M  V30 6263 H 597.958 1.4755 5.31914 0
M  V30 6264 H 600.434 -0.0641154 4.16051 0
M  V30 6265 H 599.31 -0.528371 5.46351 0
M  V30 6266 H 599.571 -1.62097 4.11311 0
M  V30 6267 N 598.631 -1.53133 0.372548 0
M  V30 6268 C 599.861 -2.05476 -0.215202 0
M  V30 6269 C 600.269 -1.24534 -1.42436 0
M  V30 6270 O 599.612 -0.280771 -1.81542 0
M  V30 6271 C 599.674 -3.53276 -0.666068 0
M  V30 6272 C 599.338 -4.54998 0.427342 0
M  V30 6273 C 600.335 -5.03911 1.27944 0
M  V30 6274 C 598.02 -4.98828 0.589579 0
M  V30 6275 C 600.014 -5.95263 2.27905 0
M  V30 6276 C 597.701 -5.89984 1.59255 0
M  V30 6277 C 598.699 -6.38093 2.43571 0
M  V30 6278 O 598.387 -7.27451 3.42156 0
M  V30 6279 H 598.119 -0.67481 -0.040099 0
M  V30 6280 H 600.673 -1.98409 0.531312 0
M  V30 6281 H 598.903 -3.57904 -1.4643 0
M  V30 6282 H 600.592 -3.88442 -1.1776 0
M  V30 6283 H 601.358 -4.70792 1.16532 0
M  V30 6284 H 597.237 -4.60965 -0.0569456 0
M  V30 6285 H 600.781 -6.32736 2.93753 0
M  V30 6286 H 596.678 -6.22518 1.70711 0
M  V30 6287 H 597.446 -7.45467 3.37967 0
M  V30 6288 N 600.109 -0.101901 -1.5727 0
M  V30 6289 C 601.337 0.568392 -1.98939 0
M  V30 6290 C 601.752 1.61301 -0.981194 0
M  V30 6291 O 601.109 1.82478 0.0282869 0
M  V30 6292 C 601.16 1.20997 -3.40649 0
M  V30 6293 O 600.881 0.207129 -4.3761 0
M  V30 6294 C 602.382 1.96523 -3.97358 0
M  V30 6295 H 599.602 0.15186 -0.65359 0
M  V30 6296 H 602.146 -0.183198 -2.03678 0
M  V30 6297 H 600.301 1.91245 -3.36904 0
M  V30 6298 H 600.715 0.671071 -5.20189 0
M  V30 6299 H 602.189 2.36764 -4.98645 0
M  V30 6300 H 602.666 2.83376 -3.35552 0
M  V30 6301 H 603.272 1.31076 -4.04598 0
M  V30 6302 N 601.587 1.56661 0.17182 0
M  V30 6303 C 602.517 1.99401 1.21498 0
M  V30 6304 C 603.498 0.869516 1.46197 0
M  V30 6305 O 604.683 1.13556 1.57539 0
M  V30 6306 C 601.813 2.35346 2.55401 0
M  V30 6307 C 600.767 3.5075 2.45272 0
M  V30 6308 C 600.093 3.72437 3.8366 0
M  V30 6309 C 601.393 4.84216 1.95787 0
M  V30 6310 H 603.087 2.86792 0.859699 0
M  V30 6311 H 600.633 1.37977 0.412103 0
M  V30 6312 H 602.586 2.63843 3.2858 0
M  V30 6313 H 601.31 1.44864 2.92715 0
M  V30 6314 H 599.969 3.2238 1.74547 0
M  V30 6315 H 599.617 2.79246 4.18367 0
M  V30 6316 H 599.317 4.50087 3.77751 0
M  V30 6317 H 600.841 4.03334 4.58426 0
M  V30 6318 H 602.255 5.11592 2.5874 0
M  V30 6319 H 600.652 5.65498 2.00827 0
M  V30 6320 H 601.722 4.76243 0.912159 0
M  V30 6321 N 603.065 -0.440357 1.51323 0
M  V30 6322 C 604.342 -1.20109 1.5438 0
M  V30 6323 C 604.722 -2.08866 0.306303 0
M  V30 6324 O 604.07 -2.1723 -0.708773 0
M  V30 6325 C 604.28 -2.00555 2.8562 0
M  V30 6326 C 605.628 -2.577 3.37455 0
M  V30 6327 O 606.652 -2.10769 2.8715 0
M  V30 6328 O 605.511 -3.43289 4.25224 0
M  V30 6329 H 602.605 -0.546668 0.620551 0
M  V30 6330 H 605.151 -0.449672 1.63634 0
M  V30 6331 H 603.923 -1.35346 3.67147 0
M  V30 6332 H 603.546 -2.82768 2.79514 0
M  V30 6333 N 604.543 -1.41418 -0.695603 0
M  V30 6334 C 605.792 -1.40073 -1.4513 0
M  V30 6335 C 606.105 -0.0130439 -1.95596 0
M  V30 6336 O 607.311 0.123032 -2.71221 0
M  V30 6337 C 605.767 -2.46286 -2.62433 0
M  V30 6338 C 605.375 -3.90962 -2.18753 0
M  V30 6339 C 607.119 -2.54077 -3.40066 0
M  V30 6340 C 605.026 -4.88728 -3.33015 0
M  V30 6341 H 603.956 -0.520903 -0.545138 0
M  V30 6342 H 606.607 -1.67242 -0.75515 0
M  V30 6343 H 604.989 -2.12248 -3.34315 0
M  V30 6344 H 606.163 -4.34248 -1.54161 0
M  V30 6345 H 604.478 -3.86831 -1.54114 0
M  V30 6346 H 607.075 -3.24303 -4.25125 0
M  V30 6347 H 607.418 -1.5776 -3.8525 0
M  V30 6348 H 607.951 -2.87206 -2.75241 0
M  V30 6349 H 604.69 -5.86449 -2.92844 0
M  V30 6350 H 604.21 -4.50091 -3.96457 0
M  V30 6351 H 605.889 -5.09483 -3.98793 0
M  V30 6352 N 606.021 0.929856 -1.27246 0
M  V30 6353 C 607.432 1.49223 -1.12203 0
M  V30 6354 C 607.783 1.93989 0.293731 0
M  V30 6355 O 606.908 1.80978 1.18642 0
M  V30 6356 C 607.503 2.71198 -2.0307 0
M  V30 6357 C 606.062 3.23666 -1.92139 0
M  V30 6358 C 605.209 1.96409 -1.95752 0
M  V30 6359 H 608.16 0.744181 -1.4017 0
M  V30 6360 H 608.181 3.45905 -1.58524 0
M  V30 6361 H 607.693 2.38585 -3.06102 0
M  V30 6362 H 605.794 3.61042 -0.920834 0
M  V30 6363 H 605.907 3.90006 -2.78267 0
M  V30 6364 H 604.271 2.12806 -1.39949 0
M  V30 6365 H 605.054 1.66113 -3.00436 0
M  V30 6366 N 607.499 1.09233 1.13605 0
M  V30 6367 C 608.429 0.751738 2.21068 0
M  V30 6368 C 609.41 -0.269688 1.67948 0
M  V30 6369 O 610.595 -0.13819 1.93708 0
M  V30 6370 C 607.725 0.16935 3.46887 0
M  V30 6371 C 606.679 1.12007 4.13084 0
M  V30 6372 C 606.005 0.399483 5.33206 0
M  V30 6373 C 607.305 2.46168 4.6065 0
M  V30 6374 H 608.999 1.65024 2.49815 0
M  V30 6375 H 606.545 0.794905 1.20072 0
M  V30 6376 H 608.498 -0.0809824 4.21322 0
M  V30 6377 H 607.222 -0.764335 3.1753 0
M  V30 6378 H 605.881 1.35564 3.40614 0
M  V30 6379 H 605.529 -0.538277 5.00112 0
M  V30 6380 H 605.229 1.03337 5.78442 0
M  V30 6381 H 606.753 0.157403 6.10397 0
M  V30 6382 H 608.167 2.26829 5.26518 0
M  V30 6383 H 606.564 3.05326 5.1662 0
M  V30 6384 H 607.634 3.07076 3.75276 0
M  V30 6385 N 608.977 -1.30795 0.87923 0
M  V30 6386 C 609.907 -2.30742 0.357796 0
M  V30 6387 C 610.888 -1.60747 -0.556283 0
M  V30 6388 O 612.073 -1.88393 -0.47135 0
M  V30 6389 C 609.203 -3.44583 -0.433555 0
M  V30 6390 C 608.157 -4.26235 0.388251 0
M  V30 6391 C 607.483 -5.32073 -0.529352 0
M  V30 6392 C 608.783 -4.96303 1.62729 0
M  V30 6393 H 610.477 -2.74605 1.19299 0
M  V30 6394 H 608.023 -1.32017 0.575104 0
M  V30 6395 H 609.976 -4.13563 -0.808934 0
M  V30 6396 H 608.7 -2.99511 -1.30234 0
M  V30 6397 H 607.359 -3.58936 0.745695 0
M  V30 6398 H 607.007 -4.83249 -1.39569 0
M  V30 6399 H 606.707 -5.87598 0.0166741 0
M  V30 6400 H 608.231 -6.0391 -0.901373 0
M  V30 6401 H 609.645 -5.5783 1.32283 0
M  V30 6402 H 608.042 -5.61666 2.11309 0
M  V30 6403 H 609.112 -4.22758 2.37494 0
M  V30 6404 N 610.455 -0.639598 -1.44038 0
M  V30 6405 C 611.388 0.109736 -2.27936 0
M  V30 6406 C 612.366 0.843095 -1.39035 0
M  V30 6407 O 613.55 0.845456 -1.68476 0
M  V30 6408 C 610.677 1.16173 -3.18153 0
M  V30 6409 C 609.723 0.527954 -4.2322 0
M  V30 6410 S 610.556 -0.688318 -5.31058 0
M  V30 6411 C 611.712 0.363481 -6.24844 0
M  V30 6412 H 611.945 -0.601986 -2.91142 0
M  V30 6413 H 609.478 -0.42802 -1.48349 0
M  V30 6414 H 611.436 1.76372 -3.7068 0
M  V30 6415 H 610.097 1.84569 -2.54151 0
M  V30 6416 H 609.29 1.32054 -4.86393 0
M  V30 6417 H 608.892 0.000396444 -3.74 0
M  V30 6418 H 611.184 1.23362 -6.66174 0
M  V30 6419 H 612.127 -0.23288 -7.07717 0
M  V30 6420 H 612.535 0.693179 -5.60228 0
M  V30 6421 N 611.933 1.52934 -0.380664 0
M  V30 6422 C 613.179 2.01765 0.20458 0
M  V30 6423 C 613.512 1.26696 1.47179 0
M  V30 6424 O 612.787 0.364936 1.91046 0
M  V30 6425 C 613.07 3.56869 0.481269 0
M  V30 6426 C 612.923 4.42617 -0.800629 0
M  V30 6427 C 614.242 4.2121 1.27554 0
M  V30 6428 H 611.361 0.733388 0.0728803 0
M  V30 6429 H 614.003 1.83068 -0.50853 0
M  V30 6430 H 612.153 3.72932 1.08875 0
M  V30 6431 H 613.825 4.38323 -1.43773 0
M  V30 6432 H 612.068 4.09977 -1.4178 0
M  V30 6433 H 612.739 5.49134 -0.561791 0
M  V30 6434 H 615.215 4.09072 0.761514 0
M  V30 6435 H 614.091 5.29732 1.43788 0
M  V30 6436 H 614.352 3.78269 2.28833 0
M  V30 6437 N 613.412 0.11024 1.57214 0
M  V30 6438 C 614.828 -0.24638 1.57687 0
M  V30 6439 C 615.028 -1.67344 1.12241 0
M  V30 6440 O 614.084 -2.39298 0.805783 0
M  V30 6441 C 615.397 -0.0210288 3.00693 0
M  V30 6442 C 616.945 -0.0876077 3.12877 0
M  V30 6443 C 617.42 0.10994 4.57868 0
M  V30 6444 N 618.911 0.0556135 4.63167 0
M  V30 6445 C 619.646 0.183495 5.73106 0
M  V30 6446 N 619.142 0.367058 6.91827 0
M  V30 6447 N 620.935 0.123689 5.61964 0
M  V30 6448 H 613.086 1.04246 1.85058 0
M  V30 6449 H 615.349 0.40979 0.854854 0
M  V30 6450 H 615.055 0.965203 3.38196 0
M  V30 6451 H 614.929 -0.756748 3.69531 0
M  V30 6452 H 617.316 -1.06436 2.75237 0
M  V30 6453 H 617.397 0.67985 2.466 0
M  V30 6454 H 617.041 1.08362 4.96206 0
M  V30 6455 H 616.971 -0.677397 5.22225 0
M  V30 6456 H 619.462 -0.0831062 3.77809 0
M  V30 6457 H 619.775 0.455739 7.71455 0
M  V30 6458 H 618.12 0.40292 6.93831 0
M  V30 6459 H 621.311 -0.0186928 4.68096 0
M  V30 6460 H 621.484 0.226797 6.47603 0
M  V30 6461 N 614.89 -1.56749 -0.16351 0
M  V30 6462 C 615.82 -2.00042 -1.20438 0
M  V30 6463 C 616.801 -0.877256 -1.45733 0
M  V30 6464 O 617.986 -1.1439 -1.56935 0
M  V30 6465 C 615.116 -2.36697 -2.54149 0
M  V30 6466 C 614.07 -3.52046 -2.43408 0
M  V30 6467 C 613.396 -3.74466 -3.81679 0
M  V30 6468 C 614.696 -4.85247 -1.93216 0
M  V30 6469 H 616.39 -2.87244 -0.844477 0
M  V30 6470 H 613.936 -1.38194 -0.40478 0
M  V30 6471 H 615.889 -2.65582 -3.27176 0
M  V30 6472 H 614.613 -1.46414 -2.91943 0
M  V30 6473 H 613.272 -3.23301 -1.72834 0
M  V30 6474 H 612.92 -2.81461 -4.1688 0
M  V30 6475 H 612.62 -4.52084 -3.75359 0
M  V30 6476 H 614.144 -4.0576 -4.5628 0
M  V30 6477 H 615.558 -5.12957 -2.56023 0
M  V30 6478 H 613.955 -5.66556 -1.97825 0
M  V30 6479 H 615.025 -4.7672 -0.88689 0
M  V30 6480 N 616.368 0.432326 -1.51554 0
M  V30 6481 C 617.331 1.50765 -1.72634 0
M  V30 6482 C 618.331 1.49334 -0.596314 0
M  V30 6483 O 619.521 1.51268 -0.863925 0
M  V30 6484 C 616.653 2.90284 -1.7874 0
M  V30 6485 H 617.846 1.33377 -2.68609 0
M  V30 6486 H 615.399 0.661329 -1.4162 0
M  V30 6487 H 616.134 3.13071 -0.845977 0
M  V30 6488 H 615.919 2.92727 -2.6087 0
M  V30 6489 H 617.409 3.68282 -1.96871 0
M  V30 6490 N 617.846 1.41785 0.688094 0
M  V30 6491 C 619.092 1.41753 1.4503 0
M  V30 6492 C 619.425 0.0290745 1.94178 0
M  V30 6493 O 618.7 -0.944456 1.7003 0
M  V30 6494 C 618.983 2.43069 2.65686 0
M  V30 6495 C 618.836 3.91053 2.22256 0
M  V30 6496 C 620.155 2.41543 3.67893 0
M  V30 6497 H 617.274 0.516202 0.526027 0
M  V30 6498 H 619.916 1.73111 0.783105 0
M  V30 6499 H 618.066 2.1646 3.2261 0
M  V30 6500 H 619.738 4.28594 1.70602 0
M  V30 6501 H 617.981 4.05559 1.53963 0
M  V30 6502 H 618.652 4.57501 3.08863 0
M  V30 6503 H 621.128 2.65175 3.20658 0
M  V30 6504 H 620.004 3.14434 4.49914 0
M  V30 6505 H 620.265 1.43666 4.18106 0
M  V30 6506 N 619.324 -0.923095 1.27737 0
M  V30 6507 C 620.254 -2.04124 1.13383 0
M  V30 6508 C 621.235 -1.70066 0.0340658 0
M  V30 6509 O 622.42 -1.93068 0.209383 0
M  V30 6510 C 619.55 -3.3831 0.785097 0
M  V30 6511 C 618.504 -3.86496 1.8386 0
M  V30 6512 C 617.83 -5.1754 1.34373 0
M  V30 6513 C 619.13 -4.09381 3.24353 0
M  V30 6514 H 620.824 -2.1639 2.06919 0
M  V30 6515 H 618.37 -1.03976 0.996243 0
M  V30 6516 H 620.323 -4.16016 0.671485 0
M  V30 6517 H 619.047 -3.2607 -0.185969 0
M  V30 6518 H 617.706 -3.10987 1.9412 0
M  V30 6519 H 617.354 -5.01696 0.361989 0
M  V30 6520 H 617.054 -5.50751 2.04811 0
M  V30 6521 H 618.578 -5.97811 1.24315 0
M  V30 6522 H 619.992 -4.77641 3.17067 0
M  V30 6523 H 618.389 -4.53906 3.92542 0
M  V30 6524 H 619.459 -3.14515 3.69064 0
M  V30 6525 N 620.802 -1.09834 -1.13024 0
M  V30 6526 C 622.048 -0.83819 -1.84668 0
M  V30 6527 C 622.381 0.634645 -1.83537 0
M  V30 6528 O 621.656 1.46753 -1.27647 0
M  V30 6529 C 621.939 -1.37933 -3.32636 0
M  V30 6530 C 621.792 -2.91857 -3.42257 0
M  V30 6531 C 623.111 -1.01654 -4.28199 0
M  V30 6532 H 620.23 -0.30595 -0.670495 0
M  V30 6533 H 622.872 -1.36044 -1.32635 0
M  V30 6534 H 621.022 -0.935111 -3.77078 0
M  V30 6535 H 622.694 -3.44759 -3.06495 0
M  V30 6536 H 620.937 -3.28776 -2.83 0
M  V30 6537 H 621.608 -3.24799 -4.46329 0
M  V30 6538 H 624.084 -1.39973 -3.9185 0
M  V30 6539 H 622.96 -1.42217 -5.30156 0
M  V30 6540 H 623.221 0.0747794 -4.42037 0
M  V30 6541 N 622.28 1.30327 -0.886154 0
M  V30 6542 C 623.243 2.26376 -0.358687 0
M  V30 6543 C 624.243 1.52845 0.499498 0
M  V30 6544 O 625.433 1.71483 0.306485 0
M  V30 6545 C 622.565 3.37379 0.488726 0
M  V30 6546 H 623.758 2.74547 -1.20681 0
M  V30 6547 H 621.311 1.41536 -0.663113 0
M  V30 6548 H 622.046 2.94526 1.35739 0
M  V30 6549 H 621.831 3.91897 -0.126003 0
M  V30 6550 H 623.321 4.08868 0.84952 0
M  V30 6551 N 623.758 0.647228 1.43697 0
M  V30 6552 C 625.004 0.158422 2.0218 0
M  V30 6553 C 625.337 -1.22233 1.50907 0
M  V30 6554 O 624.612 -1.81478 0.699702 0
M  V30 6555 C 624.895 0.1627 3.59732 0
M  V30 6556 C 624.748 1.57694 4.21251 0
M  V30 6557 C 626.067 -0.504138 4.37203 0
M  V30 6558 H 623.186 0.059042 0.734631 0
M  V30 6559 H 625.828 0.826772 1.71069 0
M  V30 6560 H 623.978 -0.406414 3.86368 0
M  V30 6561 H 625.65 2.19618 4.05667 0
M  V30 6562 H 623.893 2.12603 3.7813 0
M  V30 6563 H 624.564 1.53183 5.3032 0
M  V30 6564 H 627.04 -0.0199841 4.16095 0
M  V30 6565 H 625.916 -0.470394 5.46881 0
M  V30 6566 H 626.177 -1.57726 4.13007 0
M  V30 6567 N 625.236 -1.5273 0.388769 0
M  V30 6568 C 626.464 -2.05992 -0.193677 0
M  V30 6569 C 626.879 -1.26053 -1.40557 0
M  V30 6570 O 626.236 -0.307049 -1.79898 0
M  V30 6571 C 626.287 -3.57068 -0.564321 0
M  V30 6572 O 626.008 -4.3398 0.599422 0
M  V30 6573 C 627.509 -4.26674 -1.20269 0
M  V30 6574 H 624.729 -0.670358 -0.0293445 0
M  V30 6575 H 627.273 -1.96857 0.553844 0
M  V30 6576 H 625.428 -3.66277 -1.26174 0
M  V30 6577 H 625.842 -5.2367 0.294895 0
M  V30 6578 H 627.316 -5.33625 -1.4124 0
M  V30 6579 H 627.793 -3.81854 -2.16989 0
M  V30 6580 H 628.399 -4.2178 -0.546047 0
M  V30 6581 N 626.714 -0.118576 -1.57153 0
M  V30 6582 C 627.644 0.828436 -2.1831 0
M  V30 6583 C 628.625 1.27758 -1.12303 0
M  V30 6584 O 629.81 1.34026 -1.40537 0
M  V30 6585 C 626.94 2.07876 -2.78217 0
M  V30 6586 C 625.894 1.76742 -3.89803 0
M  V30 6587 C 625.22 3.08801 -4.36516 0
M  V30 6588 C 626.52 1.03606 -5.11921 0
M  V30 6589 H 628.214 0.318824 -2.97698 0
M  V30 6590 H 625.76 0.151911 -1.43196 0
M  V30 6591 H 627.713 2.74584 -3.19659 0
M  V30 6592 H 626.437 2.61161 -1.96118 0
M  V30 6593 H 625.096 1.12424 -3.48936 0
M  V30 6594 H 624.744 3.6002 -3.51276 0
M  V30 6595 H 624.444 2.88743 -5.11763 0
M  V30 6596 H 625.968 3.76627 -4.80608 0
M  V30 6597 H 627.382 1.60467 -5.50385 0
M  V30 6598 H 625.779 0.936454 -5.92748 0
M  V30 6599 H 626.849 0.0227421 -4.84895 0
M  V30 6600 N 628.193 1.56834 0.155195 0
M  V30 6601 C 629.421 1.87049 0.884326 0
M  V30 6602 C 629.836 0.705839 1.7511 0
M  V30 6603 O 629.193 -0.324641 1.79589 0
M  V30 6604 C 629.244 3.1644 1.74781 0
M  V30 6605 O 628.965 4.28417 0.915978 0
M  V30 6606 C 630.466 3.60113 2.58522 0
M  V30 6607 H 627.686 0.620196 0.25612 0
M  V30 6608 H 630.23 2.03946 0.150445 0
M  V30 6609 H 628.385 3.01321 2.43484 0
M  V30 6610 H 628.799 5.02353 1.50803 0
M  V30 6611 H 630.273 4.53508 3.14698 0
M  V30 6612 H 630.75 2.85005 3.34169 0
M  V30 6613 H 631.356 3.77898 1.95124 0
M  V30 6614 N 629.671 -0.424282 1.51781 0
M  V30 6615 C 630.917 -1.17434 1.6534 0
M  V30 6616 C 631.25 -1.90549 0.374806 0
M  V30 6617 O 630.525 -1.84145 -0.626179 0
M  V30 6618 C 630.808 -2.18093 2.86544 0
M  V30 6619 C 630.661 -1.48975 4.24413 0
M  V30 6620 C 631.98 -3.18934 3.03264 0
M  V30 6621 H 629.099 -0.425566 0.601716 0
M  V30 6622 H 631.741 -0.461921 1.84299 0
M  V30 6623 H 629.891 -2.78849 2.7051 0
M  V30 6624 H 631.563 -0.914551 4.52143 0
M  V30 6625 H 629.806 -0.791893 4.26511 0
M  V30 6626 H 630.477 -2.22347 5.05238 0
M  V30 6627 H 632.953 -2.68243 3.18096 0
M  V30 6628 H 631.829 -3.86645 3.89611 0
M  V30 6629 H 632.09 -3.85793 2.15908 0
M  V30 6630 N 631.149 -1.42148 -0.680565 0
M  V30 6631 C 632.56 -1.3768 -1.26099 0
M  V30 6632 C 632.911 -0.0672348 -1.96085 0
M  V30 6633 O 632.036 0.834172 -1.99676 0
M  V30 6634 C 632.631 -2.49387 -2.29328 0
M  V30 6635 C 631.19 -2.4827 -2.82911 0
M  V30 6636 C 630.337 -2.2847 -1.57152 0
M  V30 6637 H 633.288 -1.51446 -0.474326 0
M  V30 6638 H 633.309 -2.19307 -3.10941 0
M  V30 6639 H 632.821 -3.44686 -1.78363 0
M  V30 6640 H 630.922 -1.56773 -3.38013 0
M  V30 6641 H 631.035 -3.45109 -3.3232 0
M  V30 6642 H 629.399 -1.76623 -1.83511 0
M  V30 6643 H 630.182 -3.25816 -1.0816 0
M  V30 6644 N 632.627 0.916307 -1.28225 0
M  V30 6645 C 633.876 1.65975 -1.14608 0
M  V30 6646 C 634.189 1.93204 0.305191 0
M  V30 6647 O 635.395 2.65611 0.562432 0
M  V30 6648 C 633.851 2.98989 -2.00333 0
M  V30 6649 C 633.459 2.79417 -3.50186 0
M  V30 6650 C 635.203 3.76856 -1.95397 0
M  V30 6651 C 633.11 4.08056 -4.28071 0
M  V30 6652 H 632.04 0.622587 -0.425324 0
M  V30 6653 H 634.691 1.01705 -1.52736 0
M  V30 6654 H 633.073 3.6438 -1.5506 0
M  V30 6655 H 634.247 2.22723 -4.034 0
M  V30 6656 H 632.562 2.14966 -3.56621 0
M  V30 6657 H 635.159 4.72203 -2.50856 0
M  V30 6658 H 635.502 4.05776 -0.930137 0
M  V30 6659 H 636.035 3.1828 -2.38626 0
M  V30 6660 H 632.774 3.8431 -5.31024 0
M  V30 6661 H 632.294 4.64371 -3.79631 0
M  V30 6662 H 633.973 4.76333 -4.37854 0
M  V30 6663 N 634.105 1.10431 1.1244 0
M  V30 6664 C 635.351 0.847972 1.84221 0
M  V30 6665 C 635.684 -0.624903 1.83871 0
M  V30 6666 O 634.959 -1.46074 1.28423 0
M  V30 6667 C 635.242 1.39695 3.319 0
M  V30 6668 C 635.095 2.93668 3.40704 0
M  V30 6669 C 636.414 1.03924 4.27654 0
M  V30 6670 H 633.533 0.309502 0.668863 0
M  V30 6671 H 636.175 1.36745 1.31912 0
M  V30 6672 H 634.325 0.955095 3.76577 0
M  V30 6673 H 635.997 3.46379 3.04662 0
M  V30 6674 H 634.24 3.30272 2.81252 0
M  V30 6675 H 634.911 3.27162 4.446 0
M  V30 6676 H 637.387 1.42049 3.91102 0
M  V30 6677 H 636.263 1.45027 5.29394 0
M  V30 6678 H 636.524 -0.051336 4.4207 0
M  V30 6679 N 635.583 -1.29855 0.893053 0
M  V30 6680 C 636.513 -2.3035 0.382249 0
M  V30 6681 C 637.494 -1.61328 -0.539203 0
M  V30 6682 O 638.679 -1.88882 -0.451342 0
M  V30 6683 C 635.809 -3.45024 -0.396983 0
M  V30 6684 C 634.763 -4.258 0.433437 0
M  V30 6685 C 634.089 -5.32605 -0.472889 0
M  V30 6686 C 635.389 -4.94549 1.67984 0
M  V30 6687 H 637.083 -2.73325 1.22205 0
M  V30 6688 H 634.629 -1.314 0.589073 0
M  V30 6689 H 636.582 -4.14398 -0.765024 0
M  V30 6690 H 635.306 -3.00875 -1.2705 0
M  V30 6691 H 633.965 -3.58125 0.783723 0
M  V30 6692 H 633.613 -4.84702 -1.34435 0
M  V30 6693 H 633.313 -5.87547 0.0789958 0
M  V30 6694 H 634.837 -6.04832 -0.837269 0
M  V30 6695 H 636.251 -5.56395 1.38192 0
M  V30 6696 H 634.648 -5.59393 2.17254 0
M  V30 6697 H 635.718 -4.20215 2.41965 0
M  V30 6698 N 637.061 -0.65484 -1.43351 0
M  V30 6699 C 638.308 -0.168892 -2.01794 0
M  V30 6700 C 638.636 1.2177 -1.51665 0
M  V30 6701 O 637.891 1.82717 -0.70092 0
M  V30 6702 C 638.19 -0.130424 -3.57162 0
M  V30 6703 C 637.856 -1.45898 -4.26643 0
M  V30 6704 C 636.518 -1.82279 -4.4534 0
M  V30 6705 C 638.87 -2.33485 -4.65976 0
M  V30 6706 C 636.198 -3.0591 -5.00635 0
M  V30 6707 C 638.55 -3.5641 -5.22642 0
M  V30 6708 C 637.214 -3.92985 -5.39555 0
M  V30 6709 H 636.484 -0.061802 -0.738418 0
M  V30 6710 H 639.131 -0.845869 -1.71806 0
M  V30 6711 H 637.436 0.630008 -3.86702 0
M  V30 6712 H 639.133 0.262465 -4.0014 0
M  V30 6713 H 635.723 -1.16591 -4.12437 0
M  V30 6714 H 639.907 -2.06668 -4.51223 0
M  V30 6715 H 635.163 -3.34295 -5.11915 0
M  V30 6716 H 639.337 -4.24495 -5.52066 0
M  V30 6717 H 636.964 -4.88862 -5.82167 0
M  V30 6718 N 638.539 1.52521 -0.396863 0
M  V30 6719 C 639.95 1.86547 0.0754868 0
M  V30 6720 C 640.301 1.31621 1.45501 0
M  V30 6721 O 639.426 0.650563 2.0639 0
M  V30 6722 C 640.021 3.38495 0.143754 0
M  V30 6723 C 638.58 3.72205 0.560413 0
M  V30 6724 C 637.727 2.75954 -0.272856 0
M  V30 6725 H 640.678 1.46323 -0.614434 0
M  V30 6726 H 640.699 3.68153 0.961425 0
M  V30 6727 H 640.211 3.78442 -0.860415 0
M  V30 6728 H 638.312 3.3783 1.57167 0
M  V30 6729 H 638.425 4.78074 0.313314 0
M  V30 6730 H 636.789 2.53339 0.263 0
M  V30 6731 H 637.572 3.1874 -1.27515 0
M  V30 6732 N 640.017 0.126909 1.57088 0
M  V30 6733 C 641.266 -0.529024 1.94639 0
M  V30 6734 C 641.579 -1.67323 1.01304 0
M  V30 6735 O 642.785 -2.39245 1.28352 0
M  V30 6736 C 641.241 -0.992483 3.45945 0
M  V30 6737 C 640.849 0.123691 4.47829 0
M  V30 6738 C 642.593 -1.61934 3.924 0
M  V30 6739 C 640.5 -0.356911 5.90322 0
M  V30 6740 H 639.43 -0.201397 0.726605 0
M  V30 6741 H 642.081 0.208032 1.82317 0
M  V30 6742 H 640.463 -1.7842 3.53528 0
M  V30 6743 H 641.637 0.900168 4.51922 0
M  V30 6744 H 639.952 0.657699 4.11173 0
M  V30 6745 H 642.549 -1.9902 4.96281 0
M  V30 6746 H 642.892 -2.50075 3.32819 0
M  V30 6747 H 643.425 -0.892894 3.8765 0
M  V30 6748 H 640.164 0.488636 6.53676 0
M  V30 6749 H 639.684 -1.0997 5.89633 0
M  V30 6750 H 641.363 -0.815547 6.41839 0
M  V30 6751 N 641.495 -1.56914 -0.146875 0
M  V30 6752 C 642.911 -1.51582 -0.499518 0
M  V30 6753 C 643.111 -0.83535 -1.83369 0
M  V30 6754 O 642.167 -0.405932 -2.49216 0
M  V30 6755 C 643.48 -2.96349 -0.509711 0
M  V30 6756 C 645.028 -3.07288 -0.595217 0
M  V30 6757 C 645.503 -4.53562 -0.636071 0
M  V30 6758 N 646.994 -4.57906 -0.69829 0
M  V30 6759 C 647.729 -5.68462 -0.750886 0
M  V30 6760 N 647.225 -6.88588 -0.76282 0
M  V30 6761 N 649.018 -5.56496 -0.791777 0
M  V30 6762 H 641.169 -1.99547 0.727656 0
M  V30 6763 H 643.432 -0.910113 0.265327 0
M  V30 6764 H 643.138 -3.4939 0.402409 0
M  V30 6765 H 643.012 -3.52307 -1.34758 0
M  V30 6766 H 645.399 -2.54266 -1.49776 0
M  V30 6767 H 645.48 -2.54373 0.2698 0
M  V30 6768 H 645.124 -5.07222 0.262313 0
M  V30 6769 H 645.054 -5.04259 -1.51758 0
M  V30 6770 H 647.545 -3.71429 -0.696362 0
M  V30 6771 H 647.858 -7.68598 -0.804804 0
M  V30 6772 H 646.203 -6.91148 -0.730694 0
M  V30 6773 H 649.394 -4.61562 -0.779624 0
M  V30 6774 H 649.567 -6.42671 -0.829301 0
M  V30 6775 N 642.974 0.416227 -1.52004 0
M  V30 6776 C 644.202 1.18573 -1.69553 0
M  V30 6777 C 644.617 1.84472 -0.401919 0
M  V30 6778 O 643.974 1.71593 0.621463 0
M  V30 6779 C 644.025 2.25413 -2.82615 0
M  V30 6780 O 643.746 1.62205 -4.06966 0
M  V30 6781 C 645.247 3.15297 -3.11613 0
M  V30 6782 H 642.467 0.356582 -0.56841 0
M  V30 6783 H 645.011 0.490618 -1.98528 0
M  V30 6784 H 643.166 2.90604 -2.56179 0
M  V30 6785 H 643.58 2.3298 -4.69916 0
M  V30 6786 H 645.054 3.86351 -3.94255 0
M  V30 6787 H 645.531 3.77264 -2.24874 0
M  V30 6788 H 646.137 2.55783 -3.39787 0
M  V30 6789 N 644.452 1.42507 0.673017 0
M  V30 6790 C 645.677 1.4668 1.46627 0
M  V30 6791 C 646.102 0.080066 1.8793 0
M  V30 6792 O 645.46 -0.921879 1.56112 0
M  V30 6793 C 645.508 2.40091 2.69051 0
M  V30 6794 O 644.612 1.8735 3.67387 0
M  V30 6795 H 643.953 0.496908 0.44043 0
M  V30 6796 H 646.483 1.87215 0.825334 0
M  V30 6797 H 646.493 2.56731 3.17101 0
M  V30 6798 H 645.168 3.4084 2.3833 0
M  V30 6799 H 643.745 1.80274 3.26429 0
M  V30 6800 N 645.93 -0.909495 1.28709 0
M  V30 6801 C 647.176 -1.66151 1.16283 0
M  V30 6802 C 647.509 -1.92067 -0.287069 0
M  V30 6803 O 646.784 -1.52409 -1.20837 0
M  V30 6804 C 647.067 -3.01676 1.9663 0
M  V30 6805 C 646.92 -2.82888 3.49707 0
M  V30 6806 C 648.239 -4.02274 1.78504 0
M  V30 6807 H 645.358 -0.602966 0.423793 0
M  V30 6808 H 648 -1.05418 1.58073 0
M  V30 6809 H 646.15 -3.53515 1.61119 0
M  V30 6810 H 647.822 -2.38026 3.95147 0
M  V30 6811 H 646.065 -2.17862 3.75125 0
M  V30 6812 H 646.736 -3.79147 4.01187 0
M  V30 6813 H 649.212 -3.59511 2.09503 0
M  V30 6814 H 648.088 -4.95056 2.37088 0
M  V30 6815 H 648.349 -4.35903 0.737647 0
M  V30 6816 N 647.408 -1.11026 -1.11852 0
M  V30 6817 C 648.657 -0.851249 -1.82857 0
M  V30 6818 C 648.97 0.62514 -1.85341 0
M  V30 6819 O 650.176 1.00026 -2.52403 0
M  V30 6820 C 648.632 -1.47309 -3.28372 0
M  V30 6821 C 648.24 -2.9832 -3.34229 0
M  V30 6822 C 649.984 -1.29373 -4.04306 0
M  V30 6823 C 647.891 -3.53509 -4.74115 0
M  V30 6824 H 646.821 -0.314794 -0.685143 0
M  V30 6825 H 649.472 -1.33499 -1.25898 0
M  V30 6826 H 647.854 -0.917017 -3.85236 0
M  V30 6827 H 649.028 -3.60295 -2.87271 0
M  V30 6828 H 647.343 -3.15482 -2.71772 0
M  V30 6829 H 649.94 -1.68042 -5.07608 0
M  V30 6830 H 650.283 -0.235879 -4.15631 0
M  V30 6831 H 650.816 -1.8182 -3.53817 0
M  V30 6832 H 647.555 -4.58987 -4.67986 0
M  V30 6833 H 647.075 -2.96305 -5.21501 0
M  V30 6834 H 648.754 -3.51693 -5.43066 0
M  V30 6835 N 648.886 1.2938 -0.899927 0
M  V30 6836 C 650.114 1.99691 -0.541386 0
M  V30 6837 C 650.529 1.67355 0.873936 0
M  V30 6838 O 649.886 0.918728 1.57688 0
M  V30 6839 C 649.937 3.54168 -0.72438 0
M  V30 6840 O 649.658 3.85359 -2.08399 0
M  V30 6841 C 651.159 4.41746 -0.370819 0
M  V30 6842 H 648.379 0.638037 -0.207726 0
M  V30 6843 H 650.923 1.6491 -1.20934 0
M  V30 6844 H 649.078 3.87261 -0.103607 0
M  V30 6845 H 649.492 4.80032 -2.11352 0
M  V30 6846 H 650.966 5.49256 -0.549693 0
M  V30 6847 H 651.443 4.33712 0.692148 0
M  V30 6848 H 652.049 4.14125 -0.968543 0
M  V30 6849 N 650.364 0.662433 1.43002 0
M  V30 6850 C 651.294 -0.00979809 2.33498 0
M  V30 6851 C 652.275 -0.802329 1.49989 0
M  V30 6852 O 653.46 -0.761964 1.78627 0
M  V30 6853 C 650.59 -0.970446 3.33466 0
M  V30 6854 C 649.544 -0.287383 4.27034 0
M  V30 6855 C 648.87 -1.36012 5.17112 0
M  V30 6856 C 650.17 0.82595 5.15728 0
M  V30 6857 H 651.864 0.745959 2.89958 0
M  V30 6858 H 649.41 0.360172 1.39423 0
M  V30 6859 H 651.363 -1.44971 3.95679 0
M  V30 6860 H 650.087 -1.75748 2.75282 0
M  V30 6861 H 648.746 0.17152 3.66199 0
M  V30 6862 H 648.394 -2.13882 4.55262 0
M  V30 6863 H 648.094 -0.908276 5.80538 0
M  V30 6864 H 649.618 -1.84056 5.82199 0
M  V30 6865 H 651.032 0.42845 5.71697 0
M  V30 6866 H 649.429 1.20282 5.87922 0
M  V30 6867 H 650.499 1.68003 4.54866 0
M  V30 6868 N 651.842 -1.52309 0.404946 0
M  V30 6869 C 652.772 -2.29805 -0.41376 0
M  V30 6870 C 653.753 -1.3384 -1.0498 0
M  V30 6871 O 654.938 -1.62745 -1.05961 0
M  V30 6872 C 652.068 -3.11639 -1.53292 0
M  V30 6873 C 651.022 -4.15616 -1.02211 0
M  V30 6874 C 650.348 -4.8577 -2.23455 0
M  V30 6875 C 651.648 -5.2224 -0.0790725 0
M  V30 6876 H 653.342 -2.98493 0.232878 0
M  V30 6877 H 650.888 -1.43552 0.113441 0
M  V30 6878 H 652.841 -3.64618 -2.11262 0
M  V30 6879 H 651.565 -2.40712 -2.20738 0
M  V30 6880 H 650.224 -3.63641 -0.46484 0
M  V30 6881 H 649.872 -4.11376 -2.89445 0
M  V30 6882 H 649.572 -5.56058 -1.89929 0
M  V30 6883 H 651.096 -5.4156 -2.82038 0
M  V30 6884 H 652.51 -5.70485 -0.567438 0
M  V30 6885 H 650.907 -5.99867 0.167167 0
M  V30 6886 H 651.977 -4.77078 0.867447 0
M  V30 6887 N 653.32 -0.135238 -1.57019 0
M  V30 6888 C 654.567 0.518794 -1.95742 0
M  V30 6889 C 654.895 1.65642 -1.01947 0
M  V30 6890 O 654.15 1.95645 -0.0464016 0
M  V30 6891 C 654.449 1.07694 -3.40788 0
M  V30 6892 C 654.115 0.058992 -4.50861 0
M  V30 6893 C 652.777 -0.220872 -4.80693 0
M  V30 6894 C 655.129 -0.633856 -5.17331 0
M  V30 6895 C 652.457 -1.19959 -5.74305 0
M  V30 6896 C 654.809 -1.60131 -6.11997 0
M  V30 6897 C 653.473 -1.889 -6.40213 0
M  V30 6898 H 652.743 0.18984 -0.716269 0
M  V30 6899 H 655.39 -0.219581 -1.90237 0
M  V30 6900 H 653.695 1.89241 -3.43067 0
M  V30 6901 H 655.392 1.59137 -3.68071 0
M  V30 6902 H 651.982 0.287304 -4.27636 0
M  V30 6903 H 656.166 -0.430823 -4.94427 0
M  V30 6904 H 651.422 -1.42905 -5.94465 0
M  V30 6905 H 655.596 -2.14376 -6.62583 0
M  V30 6906 H 653.223 -2.64891 -7.12556 0
M  V30 6907 N 654.798 1.5699 0.138552 0
M  V30 6908 C 656.209 1.73171 0.697754 0
M  V30 6909 C 656.56 0.750952 1.8126 0
M  V30 6910 O 655.685 -0.080549 2.1625 0
M  V30 6911 C 656.28 3.13996 1.27248 0
M  V30 6912 C 654.839 3.3175 1.77816 0
M  V30 6913 C 653.986 2.69084 0.669991 0
M  V30 6914 H 656.937 1.5846 -0.0871979 0
M  V30 6915 H 656.958 3.14463 2.14227 0
M  V30 6916 H 656.47 3.85354 0.460855 0
M  V30 6917 H 654.571 2.65403 2.61519 0
M  V30 6918 H 654.684 4.39768 1.90107 0
M  V30 6919 H 653.048 2.29782 1.09874 0
M  V30 6920 H 653.831 3.43053 -0.130329 0
M  V30 6921 N 656.276 -0.40816 1.52223 0
M  V30 6922 C 657.223 -1.49737 1.75635 0
M  V30 6923 C 658.193 -1.5493 0.598824 0
M  V30 6924 O 659.378 -1.71487 0.83648 0
M  V30 6925 C 656.518 -2.87174 1.91376 0
M  V30 6926 C 655.631 -2.91283 3.19027 0
M  V30 6927 C 654.766 -4.20026 3.25195 0
M  V30 6928 C 653.805 -4.18113 4.47044 0
M  V30 6929 N 652.942 -5.38429 4.50598 0
M  V30 6930 H 657.782 -1.29075 2.68596 0
M  V30 6931 H 655.319 -0.626518 1.33091 0
M  V30 6932 H 657.277 -3.66959 1.98486 0
M  V30 6933 H 655.907 -3.06329 1.01795 0
M  V30 6934 H 654.959 -2.03984 3.21084 0
M  V30 6935 H 656.271 -2.85734 4.08849 0
M  V30 6936 H 655.425 -5.08204 3.31382 0
M  V30 6937 H 654.164 -4.28271 2.33313 0
M  V30 6938 H 653.169 -3.28325 4.41002 0
M  V30 6939 H 654.394 -4.11507 5.40221 0
M  V30 6940 H 652.34 -5.4734 3.616 0
M  V30 6941 H 652.257 -5.34879 5.34266 0
M  V30 6942 H 653.525 -6.28557 4.61016 0
M  V30 6943 N 657.755 -1.42862 -0.66545 0
M  V30 6944 C 659.171 -1.25993 -0.979687 0
M  V30 6945 C 659.371 -0.170831 -2.00775 0
M  V30 6946 O 658.427 0.454827 -2.4837 0
M  V30 6947 C 659.74 -2.62005 -1.47559 0
M  V30 6948 C 661.288 -2.69437 -1.59288 0
M  V30 6949 C 661.763 -4.05838 -2.12272 0
M  V30 6950 N 663.254 -4.0784 -2.19592 0
M  V30 6951 C 663.989 -5.10205 -2.61684 0
M  V30 6952 N 663.485 -6.22949 -3.03161 0
M  V30 6953 N 665.278 -4.9756 -2.61516 0
M  V30 6954 H 657.429 -2.12395 0.0150493 0
M  V30 6955 H 659.692 -0.946355 -0.0558187 0
M  V30 6956 H 659.398 -3.42605 -0.794654 0
M  V30 6957 H 659.272 -2.86566 -2.45275 0
M  V30 6958 H 661.659 -1.89178 -2.26486 0
M  V30 6959 H 661.74 -2.48655 -0.600374 0
M  V30 6960 H 661.384 -4.86559 -1.4568 0
M  V30 6961 H 661.314 -4.23977 -3.12331 0
M  V30 6962 H 663.805 -3.26452 -1.90361 0
M  V30 6963 H 664.118 -6.96899 -3.33993 0
M  V30 6964 H 662.463 -6.2644 -3.00995 0
M  V30 6965 H 665.654 -4.08551 -2.28481 0
M  V30 6966 H 665.827 -5.77468 -2.93999 0
M  V30 6967 N 659.233 0.902656 -1.29189 0
M  V30 6968 C 660.644 1.46809 -1.15343 0
M  V30 6969 C 660.995 1.94568 0.252517 0
M  V30 6970 O 660.12 1.83454 1.14777 0
M  V30 6971 C 660.715 2.66829 -2.08776 0
M  V30 6972 C 659.274 3.19518 -1.98961 0
M  V30 6973 C 658.421 1.92212 -1.99874 0
M  V30 6974 H 661.372 0.714282 -1.41717 0
M  V30 6975 H 661.393 3.42465 -1.65826 0
M  V30 6976 H 660.905 2.32039 -3.11094 0
M  V30 6977 H 659.006 3.59008 -0.99721 0
M  V30 6978 H 659.119 3.84016 -2.86477 0
M  V30 6979 H 657.483 2.0979 -1.44431 0
M  V30 6980 H 658.266 1.59702 -3.03891 0
M  V30 6981 N 660.711 1.11618 1.11262 0
M  V30 6982 C 661.958 0.86618 1.8304 0
M  V30 6983 C 662.286 -0.608149 1.84748 0
M  V30 6984 O 661.541 -1.46508 1.29745 0
M  V30 6985 C 661.84 1.37529 3.2988 0
M  V30 6986 C 661.506 2.86317 3.4833 0
M  V30 6987 C 660.168 3.26945 3.53073 0
M  V30 6988 C 662.52 3.82136 3.54431 0
M  V30 6989 C 659.848 4.62117 3.61475 0
M  V30 6990 C 662.2 5.17128 3.64365 0
M  V30 6991 C 660.864 5.57312 3.67369 0
M  V30 6992 H 660.134 0.316958 0.66979 0
M  V30 6993 H 662.781 1.3949 1.31205 0
M  V30 6994 H 661.086 0.766842 3.84222 0
M  V30 6995 H 662.783 1.15817 3.83911 0
M  V30 6996 H 659.373 2.53889 3.45309 0
M  V30 6997 H 663.557 3.51847 3.50025 0
M  V30 6998 H 658.813 4.92655 3.62079 0
M  V30 6999 H 662.987 5.91208 3.68029 0
M  V30 7000 H 660.614 6.62045 3.73632 0
M  V30 7001 N 662.189 -1.289 0.906776 0
M  V30 7002 C 663.414 -1.99939 0.551303 0
M  V30 7003 C 663.839 -1.67366 -0.858496 0
M  V30 7004 O 663.197 -0.902176 -1.57259 0
M  V30 7005 C 663.245 -3.52523 0.758937 0
M  V30 7006 O 662.349 -4.11983 -0.185308 0
M  V30 7007 H 661.69 -0.628376 0.214568 0
M  V30 7008 H 664.22 -1.64225 1.2203 0
M  V30 7009 H 664.23 -4.02522 0.666329 0
M  V30 7010 H 662.905 -3.75566 1.78671 0
M  V30 7011 H 661.482 -3.72873 -0.0445577 0
M  V30 7012 N 663.667 -0.670007 -1.42649 0
M  V30 7013 C 664.913 -0.19923 -2.02422 0
M  V30 7014 C 665.268 1.17947 -1.52007 0
M  V30 7015 O 664.561 1.77939 -0.710512 0
M  V30 7016 C 664.755 -0.168298 -3.57004 0
M  V30 7017 C 664.584 -1.54246 -4.22419 0
M  V30 7018 C 663.354 -2.13904 -4.57792 0
M  V30 7019 C 665.552 -2.4842 -4.50324 0
M  V30 7020 N 663.534 -3.44151 -5.08364 0
M  V30 7021 C 664.905 -3.63317 -5.02395 0
M  V30 7022 C 666.96 -2.47011 -4.32308 0
M  V30 7023 C 665.663 -4.77051 -5.38345 0
M  V30 7024 C 667.689 -3.59838 -4.6933 0
M  V30 7025 C 667.051 -4.73462 -5.21549 0
M  V30 7026 H 663.15 -0.117717 -0.773089 0
M  V30 7027 H 665.734 -0.881955 -1.73579 0
M  V30 7028 H 663.905 0.483824 -3.85375 0
M  V30 7029 H 665.637 0.314914 -4.03473 0
M  V30 7030 H 662.392 -1.66441 -4.4339 0
M  V30 7031 H 662.816 -4.10846 -5.38084 0
M  V30 7032 H 667.458 -1.60394 -3.91195 0
M  V30 7033 H 665.176 -5.64347 -5.78393 0
M  V30 7034 H 668.762 -3.59969 -4.57071 0
M  V30 7035 H 667.642 -5.59321 -5.49663 0
M  V30 7036 N 665.145 1.52092 -0.413018 0
M  V30 7037 C 666.394 2.01041 0.16287 0
M  V30 7038 C 666.707 1.30288 1.45892 0
M  V30 7039 O 667.913 1.70075 2.11629 0
M  V30 7040 C 666.369 3.58283 0.340806 0
M  V30 7041 C 665.977 4.37955 -0.943377 0
M  V30 7042 C 667.721 4.15452 0.871774 0
M  V30 7043 C 665.628 5.86847 -0.732417 0
M  V30 7044 H 664.558 0.751224 0.0646414 0
M  V30 7045 H 667.209 1.75404 -0.539059 0
M  V30 7046 H 665.591 3.80266 1.10516 0
M  V30 7047 H 666.765 4.2773 -1.71418 0
M  V30 7048 H 665.08 3.92122 -1.40105 0
M  V30 7049 H 667.677 5.24375 1.0457 0
M  V30 7050 H 668.02 3.73057 1.84755 0
M  V30 7051 H 668.553 3.97452 0.166377 0
M  V30 7052 H 665.292 6.33609 -1.67986 0
M  V30 7053 H 664.812 5.998 -0.000980058 0
M  V30 7054 H 666.491 6.45906 -0.376105 0
M  V30 7055 N 666.623 0.143563 1.56945 0
M  V30 7056 C 668.039 -0.212877 1.58174 0
M  V30 7057 C 668.239 -1.64926 1.15766 0
M  V30 7058 O 667.295 -2.37535 0.856361 0
M  V30 7059 C 668.608 0.0427573 3.0067 0
M  V30 7060 C 670.156 -0.0212221 3.12993 0
M  V30 7061 C 670.631 0.207036 4.57532 0
M  V30 7062 N 672.122 0.153845 4.62944 0
M  V30 7063 C 672.857 0.305018 5.72588 0
M  V30 7064 N 672.353 0.513722 6.90893 0
M  V30 7065 N 674.146 0.242862 5.61575 0
M  V30 7066 H 666.297 1.08148 1.82805 0
M  V30 7067 H 668.56 0.427831 0.84597 0
M  V30 7068 H 668.266 1.03672 3.36073 0
M  V30 7069 H 668.14 -0.678195 3.71053 0
M  V30 7070 H 670.527 -1.00574 2.77433 0
M  V30 7071 H 670.608 0.732004 2.45103 0
M  V30 7072 H 670.252 1.18863 4.93795 0
M  V30 7073 H 670.182 -0.566473 5.23544 0
M  V30 7074 H 672.673 -0.00294866 3.779 0
M  V30 7075 H 672.986 0.619273 7.70315 0
M  V30 7076 H 671.331 0.550001 6.9282 0
M  V30 7077 H 674.522 0.0806015 4.68031 0
M  V30 7078 H 674.695 0.364112 6.46976 0
M  V30 7079 N 668.101 -1.57061 -0.130224 0
M  V30 7080 C 669.051 -1.95941 -1.16582 0
M  V30 7081 C 670.035 -0.832858 -1.37667 0
M  V30 7082 O 671.227 -1.09647 -1.38948 0
M  V30 7083 C 668.356 -2.35777 -2.49528 0
M  V30 7084 C 667.442 -3.5504 -2.31964 0
M  V30 7085 N 667.833 -4.71071 -1.84189 0
M  V30 7086 C 666.131 -3.60453 -2.62659 0
M  V30 7087 C 666.832 -5.53128 -1.80068 0
M  V30 7088 N 665.808 -4.95303 -2.24001 0
M  V30 7089 H 669.61 -2.83117 -0.788806 0
M  V30 7090 H 667.124 -1.58842 -0.3381 0
M  V30 7091 H 669.121 -2.61843 -3.24413 0
M  V30 7092 H 667.781 -1.49961 -2.87996 0
M  V30 7093 H 668.792 -4.94504 -1.53903 0
M  V30 7094 H 665.469 -2.85217 -3.0489 0
M  V30 7095 H 666.859 -6.56182 -1.4448 0
M  V30 7096 N 669.579 0.400081 -1.52437 0
M  V30 7097 C 670.826 1.14619 -1.6694 0
M  V30 7098 C 671.154 1.90262 -0.403797 0
M  V30 7099 O 670.409 1.85835 0.61351 0
M  V30 7100 C 670.708 2.15914 -2.84808 0
M  V30 7101 C 670.374 1.57011 -4.2268 0
M  V30 7102 C 669.036 1.40672 -4.60179 0
M  V30 7103 C 671.388 1.14081 -5.08562 0
M  V30 7104 C 668.716 0.799335 -5.81229 0
M  V30 7105 C 671.068 0.547573 -6.30226 0
M  V30 7106 C 669.732 0.371389 -6.66466 0
M  V30 7107 H 669.002 0.419419 -0.610875 0
M  V30 7108 H 671.649 0.432227 -1.86558 0
M  V30 7109 H 669.954 2.93488 -2.59561 0
M  V30 7110 H 671.651 2.73533 -2.93225 0
M  V30 7111 H 668.241 1.70713 -3.93135 0
M  V30 7112 H 672.425 1.2551 -4.80168 0
M  V30 7113 H 667.681 0.65093 -6.07925 0
M  V30 7114 H 671.855 0.206575 -6.96094 0
M  V30 7115 H 669.482 -0.10135 -7.60132 0
M  V30 7116 N 671.057 1.43213 0.657864 0
M  V30 7117 C 671.987 1.50815 1.78262 0
M  V30 7118 C 672.968 0.363211 1.66177 0
M  V30 7119 O 674.153 0.579806 1.85343 0
M  V30 7120 C 671.283 1.42625 3.16663 0
M  V30 7121 C 670.237 2.5532 3.43505 0
M  V30 7122 C 669.563 2.32184 4.81658 0
M  V30 7123 C 670.863 3.97583 3.38711 0
M  V30 7124 H 672.557 2.44954 1.72157 0
M  V30 7125 H 670.103 1.17896 0.82683 0
M  V30 7126 H 672.056 1.46548 3.95097 0
M  V30 7127 H 670.78 0.449877 3.23487 0
M  V30 7128 H 669.439 2.50742 2.6744 0
M  V30 7129 H 669.087 1.32801 4.85153 0
M  V30 7130 H 668.787 3.07724 5.00579 0
M  V30 7131 H 670.311 2.37883 5.62356 0
M  V30 7132 H 671.725 4.03673 4.07089 0
M  V30 7133 H 670.122 4.73112 3.69168 0
M  V30 7134 H 671.192 4.23049 2.36976 0
M  V30 7135 N 672.536 -0.895792 1.29666 0
M  V30 7136 C 673.785 -1.64131 1.17234 0
M  V30 7137 C 674.098 -1.93665 -0.274416 0
M  V30 7138 O 675.304 -2.66472 -0.520105 0
M  V30 7139 C 673.76 -2.95764 2.05065 0
M  V30 7140 C 673.368 -2.7381 3.54587 0
M  V30 7141 C 675.112 -3.737 2.01367 0
M  V30 7142 C 673.019 -4.01194 4.34508 0
M  V30 7143 H 671.949 -0.615742 0.435175 0
M  V30 7144 H 674.6 -0.992626 1.54335 0
M  V30 7145 H 672.982 -3.61867 1.60837 0
M  V30 7146 H 674.156 -2.16277 4.06892 0
M  V30 7147 H 672.471 -2.09265 3.59996 0
M  V30 7148 H 675.068 -4.68152 2.58337 0
M  V30 7149 H 675.411 -4.04245 0.994575 0
M  V30 7150 H 675.944 -3.14444 2.43659 0
M  V30 7151 H 672.683 -3.75813 5.37071 0
M  V30 7152 H 672.203 -4.58272 3.86971 0
M  V30 7153 H 673.882 -4.69307 4.45376 0
M  V30 7154 N 674.014 -1.12206 -1.10668 0
M  V30 7155 C 674.977 -0.790867 -2.15123 0
M  V30 7156 C 675.977 0.193618 -1.5963 0
M  V30 7157 O 677.167 -0.0318728 -1.74171 0
M  V30 7158 C 674.299 -0.174797 -3.40452 0
M  V30 7159 H 675.492 -1.7163 -2.45933 0
M  V30 7160 H 673.045 -0.924993 -1.2599 0
M  V30 7161 H 673.78 0.760478 -3.15257 0
M  V30 7162 H 673.565 -0.88358 -3.82015 0
M  V30 7163 H 675.055 0.0405162 -4.1758 0
M  V30 7164 N 675.492 1.28418 -0.913599 0
M  V30 7165 C 676.455 2.25564 -0.406624 0
M  V30 7166 C 677.455 1.5387 0.466965 0
M  V30 7167 O 678.645 1.72094 0.270042 0
M  V30 7168 C 675.777 3.38339 0.417053 0
M  V30 7169 H 676.97 2.71926 -1.26477 0
M  V30 7170 H 674.523 1.40098 -0.692986 0
M  V30 7171 H 675.258 2.97339 1.29461 0
M  V30 7172 H 675.043 3.91542 -0.209102 0
M  V30 7173 H 676.533 4.10578 0.762602 0
M  V30 7174 N 676.97 0.677563 1.42291 0
M  V30 7175 C 678.216 0.201272 2.01799 0
M  V30 7176 C 678.549 -1.19004 1.53465 0
M  V30 7177 O 677.824 -1.79953 0.738039 0
M  V30 7178 C 678.107 0.238968 3.59306 0
M  V30 7179 C 677.96 1.66594 4.17812 0
M  V30 7180 C 679.279 -0.411287 4.38174 0
M  V30 7181 H 676.398 0.0746114 0.733214 0
M  V30 7182 H 679.04 0.862872 1.69276 0
M  V30 7183 H 677.19 -0.324368 3.87144 0
M  V30 7184 H 678.862 2.28173 4.00917 0
M  V30 7185 H 677.105 2.20576 3.73536 0
M  V30 7186 H 677.776 1.64398 5.26951 0
M  V30 7187 H 680.252 0.0682804 4.16044 0
M  V30 7188 H 679.128 -0.354286 5.47755 0
M  V30 7189 H 679.389 -1.4893 4.1626 0
M  V30 7190 N 678.448 -1.51871 0.421078 0
M  V30 7191 C 679.378 -2.30231 -0.389363 0
M  V30 7192 C 680.359 -1.34946 -1.03555 0
M  V30 7193 O 681.544 -1.63859 -1.04229 0
M  V30 7194 C 678.674 -3.13247 -1.49979 0
M  V30 7195 C 677.628 -4.16677 -0.977966 0
M  V30 7196 C 676.954 -4.88112 -2.1829 0
M  V30 7197 C 678.254 -5.22295 -0.0236775 0
M  V30 7198 H 679.948 -2.98229 0.264524 0
M  V30 7199 H 677.494 -1.43424 0.12866 0
M  V30 7200 H 679.447 -3.66838 -2.07383 0
M  V30 7201 H 678.171 -2.4304 -2.18173 0
M  V30 7202 H 676.83 -3.64114 -0.426245 0
M  V30 7203 H 676.478 -4.14423 -2.85066 0
M  V30 7204 H 676.178 -5.58041 -1.84021 0
M  V30 7205 H 677.702 -5.44521 -2.76278 0
M  V30 7206 H 679.116 -5.71055 -0.506899 0
M  V30 7207 H 677.513 -5.99656 0.230782 0
M  V30 7208 H 678.583 -4.76131 0.917999 0
M  V30 7209 N 679.926 -0.151884 -1.56866 0
M  V30 7210 C 681.175 0.497992 -1.95456 0
M  V30 7211 C 681.488 1.6569 -1.03953 0
M  V30 7212 O 682.694 2.37173 -1.32142 0
M  V30 7213 C 681.15 0.93732 -3.4748 0
M  V30 7214 C 680.758 -0.194921 -4.47576 0
M  V30 7215 C 682.502 1.55671 -3.94926 0
M  V30 7216 C 680.409 0.26295 -5.90815 0
M  V30 7217 H 679.339 0.189811 -0.729717 0
M  V30 7218 H 681.99 -0.237011 -1.81963 0
M  V30 7219 H 680.372 1.72773 -3.56322 0
M  V30 7220 H 681.546 -0.971951 -4.50433 0
M  V30 7221 H 679.861 -0.72303 -4.10075 0
M  V30 7222 H 682.458 1.91099 -4.99385 0
M  V30 7223 H 682.801 2.44748 -3.36755 0
M  V30 7224 H 683.334 0.831109 -3.89021 0
M  V30 7225 H 680.073 -0.592568 -6.52816 0
M  V30 7226 H 679.593 1.00575 -5.91308 0
M  V30 7227 H 681.272 0.713333 -6.43056 0
M  V30 7228 N 681.404 1.57128 0.121893 0
M  V30 7229 C 682.367 1.99197 1.13372 0
M  V30 7230 C 683.367 0.881728 1.3447 0
M  V30 7231 O 684.557 1.14783 1.31036 0
M  V30 7232 C 681.689 2.32963 2.4888 0
M  V30 7233 H 682.882 2.89788 0.772204 0
M  V30 7234 H 680.435 1.51952 0.366093 0
M  V30 7235 H 681.17 1.45243 2.89957 0
M  V30 7236 H 680.955 3.13934 2.34921 0
M  V30 7237 H 682.445 2.66261 3.21706 0
M  V30 7238 N 682.882 -0.391992 1.52647 0
M  V30 7239 C 683.812 -1.48517 1.8018 0
M  V30 7240 C 684.793 -1.57039 0.653667 0
M  V30 7241 O 685.978 -1.72036 0.900962 0
M  V30 7242 C 683.108 -2.86161 1.96797 0
M  V30 7243 C 682.062 -2.92481 3.12472 0
M  V30 7244 C 681.388 -4.32546 3.14338 0
M  V30 7245 C 682.688 -2.624 4.51601 0
M  V30 7246 H 684.382 -1.25726 2.71723 0
M  V30 7247 H 681.928 -0.603387 1.30749 0
M  V30 7248 H 683.881 -3.62639 2.14641 0
M  V30 7249 H 682.605 -3.10283 1.01941 0
M  V30 7250 H 681.264 -2.18451 2.94406 0
M  V30 7251 H 680.912 -4.53703 2.1717 0
M  V30 7252 H 680.612 -4.37695 3.92042 0
M  V30 7253 H 682.136 -5.10934 3.34333 0
M  V30 7254 H 683.55 -3.28596 4.69785 0
M  V30 7255 H 681.947 -2.78903 5.3135 0
M  V30 7256 H 683.017 -1.57754 4.58521 0
M  V30 7257 N 684.36 -1.4356 -0.65026 0
M  V30 7258 C 685.308 -1.49219 -1.78427 0
M  V30 7259 C 686.302 -0.365528 -1.65409 0
M  V30 7260 O 687.508 -0.539649 -1.7172 0
M  V30 7261 H 683.883 -0.467858 -0.588738 0
M  V30 7262 H 685.854 -2.44701 -1.70774 0
M  V30 7263 C 684.603 -1.43519 -3.16698 0
M  V30 7264 H 683.926 -2.2952 -3.27354 0
M  V30 7265 H 685.366 -1.5154 -3.95995 0
M  V30 7266 C 683.825 -0.153197 -3.36552 0
M  V30 7267 O 684.355 0.784317 -3.93969 0
M  V30 7268 N 682.561 -0.0624402 -2.90533 0
M  V30 7269 H 682.108 -0.826172 -2.43992 0
M  V30 7270 H 682.066 0.794616 -3.04193 0
M  V30 7271 N 685.838 0.888903 -1.30139 0
M  V30 7272 C 686.786 2.0156 -1.16088 0
M  V30 7273 C 687.78 1.69239 -0.0737413 0
M  V30 7274 O 688.986 1.78468 -0.234313 0
M  V30 7275 H 685.361 0.660825 -0.358907 0
M  V30 7276 H 687.332 2.10547 -2.11453 0
M  V30 7277 C 686.081 3.36758 -0.865426 0
M  V30 7278 H 685.404 3.62137 -1.69402 0
M  V30 7279 H 686.844 4.16246 -0.807192 0
M  V30 7280 C 685.303 3.34124 0.431577 0
M  V30 7281 O 685.833 3.7445 1.45431 0
M  V30 7282 N 684.039 2.87229 0.441321 0
M  V30 7283 H 683.586 2.54609 -0.391433 0
M  V30 7284 H 683.544 2.8585 1.30909 0
M  V30 7285 N 687.317 1.12792 1.10072 0
M  V30 7286 C 688.563 0.886857 1.82381 0
M  V30 7287 C 688.896 -0.58576 1.85155 0
M  V30 7288 O 688.171 -1.43317 1.31493 0
M  V30 7289 C 688.454 1.46703 3.28862 0
M  V30 7290 C 688.307 3.00829 3.34398 0
M  V30 7291 C 689.626 1.12971 4.25353 0
M  V30 7292 H 686.745 0.32362 0.662148 0
M  V30 7293 H 689.387 1.39513 1.28982 0
M  V30 7294 H 687.537 1.03476 3.74466 0
M  V30 7295 H 689.209 3.52764 2.97247 0
M  V30 7296 H 687.452 3.36164 2.74183 0
M  V30 7297 H 688.123 3.36519 4.3756 0
M  V30 7298 H 690.599 1.50313 3.88001 0
M  V30 7299 H 689.475 1.56223 5.26199 0
M  V30 7300 H 689.736 0.0424452 4.4208 0
M  V30 7301 N 688.795 -1.27931 0.920396 0
M  V30 7302 C 689.725 -2.29487 0.431024 0
M  V30 7303 C 690.706 -1.62435 -0.504861 0
M  V30 7304 O 691.891 -1.89797 -0.411176 0
M  V30 7305 C 689.021 -3.45788 -0.323709 0
M  V30 7306 C 687.975 -4.24784 0.523658 0
M  V30 7307 C 687.301 -5.33488 -0.359809 0
M  V30 7308 C 688.601 -4.90874 1.78437 0
M  V30 7309 H 690.295 -2.70671 1.27975 0
M  V30 7310 H 687.841 -1.30121 0.616813 0
M  V30 7311 H 689.794 -4.15927 -0.676952 0
M  V30 7312 H 688.518 -3.03502 -1.2064 0
M  V30 7313 H 687.177 -3.56382 0.85951 0
M  V30 7314 H 686.825 -4.87445 -1.24124 0
M  V30 7315 H 686.525 -5.87247 0.203605 0
M  V30 7316 H 688.049 -6.06472 -0.708787 0
M  V30 7317 H 689.463 -5.53339 1.49963 0
M  V30 7318 H 687.86 -5.54659 2.29071 0
M  V30 7319 H 688.93 -4.14988 2.50824 0
M  V30 7320 N 690.273 -0.685099 -1.4193 0
M  V30 7321 C 691.519 -0.211971 -2.01689 0
M  V30 7322 C 691.852 1.18189 -1.54094 0
M  V30 7323 O 691.127 1.79559 -0.747572 0
M  V30 7324 C 691.41 -0.258019 -3.59174 0
M  V30 7325 C 691.263 -1.68807 -4.16922 0
M  V30 7326 C 692.582 0.388044 -4.38386 0
M  V30 7327 H 689.701 -0.0784987 -0.732808 0
M  V30 7328 H 692.343 -0.871837 -1.68816 0
M  V30 7329 H 690.493 0.303832 -3.8731 0
M  V30 7330 H 692.165 -2.30296 -3.99702 0
M  V30 7331 H 690.408 -2.22553 -3.72361 0
M  V30 7332 H 691.079 -1.6719 -5.26072 0
M  V30 7333 H 693.555 -0.0903432 -4.16002 0
M  V30 7334 H 692.431 0.325232 -5.47936 0
M  V30 7335 H 692.692 1.4672 -4.17044 0
M  V30 7336 N 691.751 1.51645 -0.429126 0
M  V30 7337 C 693 2.01203 0.141538 0
M  V30 7338 C 693.313 1.31828 1.44502 0
M  V30 7339 O 694.519 1.7231 2.09813 0
M  V30 7340 C 692.975 3.58624 0.302786 0
M  V30 7341 C 692.583 4.3693 -0.989775 0
M  V30 7342 C 694.327 4.16353 0.827661 0
M  V30 7343 C 692.234 5.86037 -0.794619 0
M  V30 7344 H 691.164 0.751867 0.05667 0
M  V30 7345 H 693.815 1.74822 -0.557633 0
M  V30 7346 H 692.197 3.81417 1.06476 0
M  V30 7347 H 693.371 4.25887 -1.75945 0
M  V30 7348 H 691.686 3.90614 -1.44256 0
M  V30 7349 H 694.283 5.25455 0.990026 0
M  V30 7350 H 694.626 3.74995 1.80787 0
M  V30 7351 H 695.159 3.97606 0.124213 0
M  V30 7352 H 691.898 6.31792 -1.74697 0
M  V30 7353 H 691.418 5.99765 -0.0645968 0
M  V30 7354 H 693.097 6.45471 -0.444591 0
M  V30 7355 N 693.229 0.160201 1.56784 0
M  V30 7356 C 694.159 -0.770264 2.2043 0
M  V30 7357 C 695.14 -1.24736 1.15651 0
M  V30 7358 O 696.325 -1.30253 1.44041 0
M  V30 7359 C 693.455 -2.00427 2.83631 0
M  V30 7360 C 692.409 -1.66345 3.94352 0
M  V30 7361 C 691.735 -2.97119 4.4455 0
M  V30 7362 C 693.035 -0.899972 5.14488 0
M  V30 7363 H 694.729 -0.239783 2.98438 0
M  V30 7364 H 692.275 -0.113891 1.43549 0
M  V30 7365 H 694.228 -2.66012 3.26827 0
M  V30 7366 H 692.952 -2.5587 2.02973 0
M  V30 7367 H 691.611 -1.03133 3.51794 0
M  V30 7368 H 691.259 -3.5058 3.60698 0
M  V30 7369 H 690.959 -2.75073 5.19238 0
M  V30 7370 H 692.483 -3.63753 4.90425 0
M  V30 7371 H 693.897 -1.45818 5.54446 0
M  V30 7372 H 692.294 -0.778968 5.95023 0
M  V30 7373 H 693.364 0.105827 4.84785 0
M  V30 7374 N 694.707 -1.5719 -0.113559 0
M  V30 7375 C 695.953 -1.85412 -0.821597 0
M  V30 7376 C 696.286 -0.746722 -1.7927 0
M  V30 7377 O 695.561 0.246971 -1.92926 0
M  V30 7378 C 695.844 -3.24233 -1.56669 0
M  V30 7379 C 695.697 -4.45578 -0.614823 0
M  V30 7380 C 697.016 -3.60697 -2.52161 0
M  V30 7381 H 694.135 -0.674406 -0.29723 0
M  V30 7382 H 696.777 -1.89807 -0.085694 0
M  V30 7383 H 694.927 -3.20617 -2.19401 0
M  V30 7384 H 696.599 -4.613 0.00407137 0
M  V30 7385 H 694.842 -4.33738 0.0732332 0
M  V30 7386 H 695.513 -5.39395 -1.17292 0
M  V30 7387 H 697.989 -3.65139 -1.99532 0
M  V30 7388 H 696.865 -4.58798 -3.01323 0
M  V30 7389 H 697.126 -2.88403 -3.35076 0
M  V30 7390 N 696.185 0.383891 -1.52853 0
M  V30 7391 C 697.596 0.961591 -1.60032 0
M  V30 7392 C 697.947 1.90819 -0.456333 0
M  V30 7393 O 697.072 2.12288 0.419873 0
M  V30 7394 C 697.667 1.75078 -2.90057 0
M  V30 7395 C 696.226 2.2781 -2.99632 0
M  V30 7396 C 695.373 1.08512 -2.55187 0
M  V30 7397 H 698.324 0.163269 -1.57858 0
M  V30 7398 H 698.345 2.61046 -2.7683 0
M  V30 7399 H 697.857 1.06157 -3.73299 0
M  V30 7400 H 695.958 3.00028 -2.20939 0
M  V30 7401 H 696.071 2.56947 -4.0437 0
M  V30 7402 H 694.435 1.44667 -2.09627 0
M  V30 7403 H 695.218 0.41118 -3.40829 0
M  V30 7404 N 697.663 1.43903 0.642637 0
M  V30 7405 C 698.891 1.4954 1.42988 0
M  V30 7406 C 699.306 0.116588 1.8844 0
M  V30 7407 O 698.663 -0.875285 1.60141 0
M  V30 7408 C 698.714 2.45031 2.65785 0
M  V30 7409 O 698.435 3.77551 2.22232 0
M  V30 7410 C 699.936 2.60017 3.59035 0
M  V30 7411 H 697.156 0.507544 0.438907 0
M  V30 7412 H 699.7 1.88752 0.786942 0
M  V30 7413 H 697.855 2.08985 3.26196 0
M  V30 7414 H 698.269 4.29001 3.01759 0
M  V30 7415 H 699.743 3.30887 4.41835 0
M  V30 7416 H 700.22 1.64861 4.07084 0
M  V30 7417 H 700.826 2.96918 3.045 0
M  V30 7418 N 699.141 -0.881989 1.30609 0
M  V30 7419 C 700.39 -1.62878 1.18969 0
M  V30 7420 C 700.703 -1.93946 -0.253859 0
M  V30 7421 O 701.909 -2.67008 -0.491813 0
M  V30 7422 C 700.365 -2.93573 2.0819 0
M  V30 7423 C 699.973 -2.70034 3.57471 0
M  V30 7424 C 701.717 -3.71543 2.0532 0
M  V30 7425 C 699.624 -3.96563 4.38739 0
M  V30 7426 H 698.554 -0.611092 0.441682 0
M  V30 7427 H 701.205 -0.976201 1.55379 0
M  V30 7428 H 699.587 -3.6014 1.64666 0
M  V30 7429 H 700.761 -2.11949 4.09163 0
M  V30 7430 H 699.076 -2.05435 3.62195 0
M  V30 7431 H 701.673 -4.65386 2.63288 0
M  V30 7432 H 702.016 -4.03167 1.03739 0
M  V30 7433 H 702.549 -3.11842 2.46981 0
M  V30 7434 H 699.288 -3.70095 5.41027 0
M  V30 7435 H 698.808 -4.54142 3.9181 0
M  V30 7436 H 700.487 -4.64557 4.50329 0
M  V30 7437 N 700.619 -1.13374 -1.09472 0
M  V30 7438 C 701.566 -0.810682 -2.16094 0
M  V30 7439 C 702.536 0.227003 -1.64541 0
M  V30 7440 O 703.721 0.0993538 -1.90541 0
M  V30 7441 C 700.861 -0.282336 -3.43943 0
M  V30 7442 C 699.974 -1.37902 -4.09398 0
M  V30 7443 C 699.109 -0.809066 -5.25002 0
M  V30 7444 C 698.148 -1.88419 -5.82379 0
M  V30 7445 N 697.285 -1.33221 -6.89345 0
M  V30 7446 H 702.125 -1.72397 -2.43071 0
M  V30 7447 H 699.662 -0.860564 -1.19301 0
M  V30 7448 H 701.62 0.0421189 -4.17179 0
M  V30 7449 H 700.25 0.594083 -3.17286 0
M  V30 7450 H 699.302 -1.82008 -3.34032 0
M  V30 7451 H 700.614 -2.19161 -4.48074 0
M  V30 7452 H 699.768 -0.435867 -6.05132 0
M  V30 7453 H 698.507 0.0346058 -4.87688 0
M  V30 7454 H 697.512 -2.26646 -5.00911 0
M  V30 7455 H 698.737 -2.73125 -6.21755 0
M  V30 7456 H 696.683 -0.510535 -6.5401 0
M  V30 7457 H 696.6 -2.08129 -7.26786 0
M  V30 7458 H 697.868 -0.986565 -7.73232 0
M  V30 7459 N 702.098 1.27442 -0.927168 0
M  V30 7460 C 703.328 1.9821 -0.582775 0
M  V30 7461 C 703.736 1.69361 0.843406 0
M  V30 7462 O 703.079 0.950381 1.57205 0
M  V30 7463 C 703.141 3.52048 -0.728165 0
M  V30 7464 C 702.805 4.04518 -2.12637 0
M  V30 7465 C 703.802 4.17332 -3.10048 0
M  V30 7466 C 701.487 4.38879 -2.44317 0
M  V30 7467 C 703.481 4.6378 -4.37249 0
M  V30 7468 C 701.168 4.85018 -3.71753 0
M  V30 7469 C 702.166 4.97428 -4.68033 0
M  V30 7470 O 701.854 5.42556 -5.93202 0
M  V30 7471 H 701.586 0.639314 -0.219667 0
M  V30 7472 H 704.14 1.63272 -1.24626 0
M  V30 7473 H 702.37 3.86699 -0.00758143 0
M  V30 7474 H 704.059 4.04033 -0.388906 0
M  V30 7475 H 704.825 3.91046 -2.86894 0
M  V30 7476 H 700.704 4.28462 -1.70121 0
M  V30 7477 H 704.248 4.73382 -5.12402 0
M  V30 7478 H 700.145 5.10746 -3.94726 0
M  V30 7479 H 700.913 5.60811 -5.96182 0
M  V30 7480 N 703.576 0.692616 1.41565 0
M  V30 7481 C 704.825 0.219452 2.00503 0
M  V30 7482 C 705.138 -1.18683 1.55479 0
M  V30 7483 O 706.344 -1.75731 2.06956 0
M  V30 7484 C 704.8 0.341451 3.58277 0
M  V30 7485 C 704.408 1.75291 4.12283 0
M  V30 7486 C 706.152 -0.0720899 4.24439 0
M  V30 7487 C 704.059 1.82673 5.62481 0
M  V30 7488 H 702.989 0.0782874 0.749925 0
M  V30 7489 H 705.64 0.860386 1.62079 0
M  V30 7490 H 704.022 -0.367683 3.94289 0
M  V30 7491 H 705.196 2.49057 3.87695 0
M  V30 7492 H 703.511 2.11587 3.58636 0
M  V30 7493 H 706.108 -0.0373385 5.34687 0
M  V30 7494 H 706.451 -1.11034 4.0122 0
M  V30 7495 H 706.984 0.586663 3.9345 0
M  V30 7496 H 703.723 2.84539 5.90523 0
M  V30 7497 H 703.243 1.13288 5.89004 0
M  V30 7498 H 704.922 1.58827 6.27203 0
M  V30 7499 N 705.054 -1.51416 0.437162 0
M  V30 7500 C 706.301 -2.02086 -0.129364 0
M  V30 7501 C 706.629 -1.32133 -1.42728 0
M  V30 7502 O 705.884 -0.424916 -1.91031 0
M  V30 7503 C 706.183 -3.55203 -0.39564 0
M  V30 7504 C 705.849 -4.43447 0.81644 0
M  V30 7505 C 704.511 -4.67285 1.14884 0
M  V30 7506 C 706.863 -4.95219 1.62503 0
M  V30 7507 C 704.191 -5.40141 2.29052 0
M  V30 7508 C 706.543 -5.69327 2.7577 0
M  V30 7509 C 705.207 -5.91429 3.09464 0
M  V30 7510 H 704.477 -0.739486 -0.0473375 0
M  V30 7511 H 707.124 -1.82368 0.584321 0
M  V30 7512 H 705.429 -3.73252 -1.19121 0
M  V30 7513 H 707.126 -3.91944 -0.847399 0
M  V30 7514 H 703.716 -4.2509 0.547422 0
M  V30 7515 H 707.9 -4.76686 1.38144 0
M  V30 7516 H 703.156 -5.55468 2.55471 0
M  V30 7517 H 707.33 -6.08433 3.38795 0
M  V30 7518 H 704.957 -6.47662 3.98042 0
M  V30 7519 N 706.532 -0.168513 -1.56696 0
M  V30 7520 C 707.78 0.476216 -1.96409 0
M  V30 7521 C 708.101 1.63968 -1.05544 0
M  V30 7522 O 707.371 1.95525 -0.121235 0
M  V30 7523 H 705.951 0.178921 -0.725256 0
M  V30 7524 H 708.613 -0.249042 -1.93302 0
M  V30 7525 H 707.709 0.838094 -3.00637 0
M  V30 7526 N 708.01 1.57248 0.105221 0
M  V30 7527 C 709.257 1.8557 0.810552 0
M  V30 7528 C 709.585 0.755595 1.79223 0
M  V30 7529 O 708.84 -0.251788 1.94073 0
M  V30 7530 C 709.139 3.20437 1.58287 0
M  V30 7531 C 708.805 4.44716 0.744235 0
M  V30 7532 C 707.467 4.78458 0.513013 0
M  V30 7533 C 709.819 5.20953 0.160578 0
M  V30 7534 C 707.147 5.8587 -0.311894 0
M  V30 7535 C 709.499 6.29235 -0.651596 0
M  V30 7536 C 708.163 6.615 -0.893005 0
M  V30 7537 H 707.433 0.67905 0.296602 0
M  V30 7538 H 710.08 1.91363 0.0723968 0
M  V30 7539 H 708.385 3.10283 2.39232 0
M  V30 7540 H 710.082 3.39576 2.13282 0
M  V30 7541 H 706.672 4.18287 0.934555 0
M  V30 7542 H 710.856 4.95226 0.3264 0
M  V30 7543 H 706.112 6.09286 -0.508012 0
M  V30 7544 H 710.286 6.87484 -1.11077 0
M  V30 7545 H 707.913 7.44562 -1.53401 0
M  V30 7546 N 709.488 -0.375779 1.53054 0
M  V30 7547 C 710.737 -1.11674 1.67964 0
M  V30 7548 C 711.05 -1.90755 0.432655 0
M  V30 7549 O 712.256 -2.67538 0.462109 0
M  V30 7550 C 710.712 -2.0344 2.96884 0
M  V30 7551 C 710.32 -1.29719 4.28809 0
M  V30 7552 C 712.064 -2.7759 3.2116 0
M  V30 7553 C 709.971 -2.20327 5.48826 0
M  V30 7554 H 708.901 -0.420597 0.625791 0
M  V30 7555 H 711.552 -0.378499 1.79554 0
M  V30 7556 H 709.934 -2.80953 2.79072 0
M  V30 7557 H 711.108 -0.573394 4.57219 0
M  V30 7558 H 709.423 -0.674735 4.10897 0
M  V30 7559 H 712.02 -3.4559 4.0801 0
M  V30 7560 H 712.363 -3.42399 2.36789 0
M  V30 7561 H 712.896 -2.07164 3.396 0
M  V30 7562 H 709.635 -1.60113 6.35645 0
M  V30 7563 H 709.155 -2.90585 5.2471 0
M  V30 7564 H 710.834 -2.80116 5.83219 0
M  V30 7565 N 710.966 -1.44241 -0.634997 0
M  V30 7566 C 712.214 -1.46531 -1.39187 0
M  V30 7567 C 712.535 -0.0976441 -1.94755 0
M  V30 7568 O 711.805 0.869528 -1.75545 0
M  V30 7569 H 710.385 -0.539544 -0.516625 0
M  V30 7570 H 713.047 -1.79989 -0.747655 0
M  V30 7571 H 712.143 -2.18848 -2.22513 0
M  V30 7572 N 712.444 0.87505 -1.31075 0
M  V30 7573 C 713.407 1.96333 -1.18263 0
M  V30 7574 C 714.407 1.60416 -0.111106 0
M  V30 7575 O 715.597 1.7044 -0.359987 0
M  V30 7576 C 712.729 3.31036 -0.81414 0
M  V30 7577 H 713.922 2.09125 -2.14958 0
M  V30 7578 H 711.475 1.06271 -1.14614 0
M  V30 7579 H 712.21 3.23944 0.151875 0
M  V30 7580 H 711.995 3.58476 -1.58862 0
M  V30 7581 H 713.485 4.10842 -0.748249 0
M  V30 7582 N 713.922 1.13953 1.08869 0
M  V30 7583 C 715.147 0.928559 1.85452 0
M  V30 7584 C 715.572 -0.517642 1.80837 0
M  V30 7585 O 714.93 -1.36779 1.19001 0
M  V30 7586 C 714.978 1.42814 3.31114 0
M  V30 7587 O 714.082 0.617129 4.07756 0
M  V30 7588 H 713.423 0.33235 0.574839 0
M  V30 7589 H 715.953 1.5156 1.37443 0
M  V30 7590 H 715.963 1.43425 3.8196 0
M  V30 7591 H 714.638 2.48109 3.33788 0
M  V30 7592 H 713.215 0.679365 3.66659 0
M  V30 7593 N 715.4 -1.26948 0.933913 0
M  V30 7594 C 716.625 -1.98724 0.593589 0
M  V30 7595 C 717.05 -1.6915 -0.822801 0
M  V30 7596 O 716.408 -0.93533 -1.5531 0
M  V30 7597 C 716.456 -3.50834 0.833542 0
M  V30 7598 O 715.56 -4.12284 -0.0978788 0
M  V30 7599 H 714.901 -0.623683 0.227849 0
M  V30 7600 H 717.431 -1.61599 1.25486 0
M  V30 7601 H 717.441 -4.01018 0.75156 0
M  V30 7602 H 716.116 -3.71691 1.86597 0
M  V30 7603 H 714.693 -3.72884 0.0345443 0
M  V30 7604 N 716.879 -0.700114 -1.41195 0
M  V30 7605 C 717.842 -0.0465706 -2.29153 0
M  V30 7606 C 718.842 0.703302 -1.44604 0
M  V30 7607 O 720.032 0.537513 -1.657 0
M  V30 7608 C 717.164 0.944324 -3.2756 0
M  V30 7609 H 718.357 -0.821064 -2.88442 0
M  V30 7610 H 715.91 -0.463869 -1.49258 0
M  V30 7611 H 716.645 1.74642 -2.73259 0
M  V30 7612 H 716.43 0.409701 -3.89954 0
M  V30 7613 H 717.92 1.39925 -3.9346 0
M  V30 7614 N 718.357 1.51182 -0.445186 0
M  V30 7615 C 719.585 2.06568 0.117091 0
M  V30 7616 C 720 1.31182 1.35781 0
M  V30 7617 O 719.357 0.373605 1.78635 0
M  V30 7618 C 719.408 3.58917 0.431408 0
M  V30 7619 O 719.129 4.31456 -0.760078 0
M  V30 7620 C 720.63 4.30843 1.0435 0
M  V30 7621 H 717.85 0.670985 0.00444436 0
M  V30 7622 H 720.394 1.94666 -0.626525 0
M  V30 7623 H 718.549 3.70708 1.12493 0
M  V30 7624 H 718.963 5.22215 -0.489048 0
M  V30 7625 H 720.437 5.38499 1.21337 0
M  V30 7626 H 720.914 3.89644 2.02667 0
M  V30 7627 H 721.52 4.23516 0.38913 0
M  V30 7628 N 719.835 0.176821 1.56605 0
M  V30 7629 C 720.768 -0.790135 2.14084 0
M  V30 7630 C 721.746 -1.22219 1.07244 0
M  V30 7631 O 722.93 -1.31298 1.35252 0
M  V30 7632 C 720.057 -2.06475 2.68488 0
M  V30 7633 C 719.103 -1.77628 3.87751 0
M  V30 7634 S 719.936 -0.940612 5.27174 0
M  V30 7635 C 721.092 -2.22577 5.84988 0
M  V30 7636 H 721.325 -0.30144 2.95768 0
M  V30 7637 H 718.858 -0.0379279 1.54353 0
M  V30 7638 H 720.816 -2.79683 3.00479 0
M  V30 7639 H 719.477 -2.52457 1.8688 0
M  V30 7640 H 718.67 -2.72215 4.24164 0
M  V30 7641 H 718.272 -1.12512 3.56675 0
M  V30 7642 H 720.564 -3.17992 5.98237 0
M  V30 7643 H 721.507 -1.90624 6.81959 0
M  V30 7644 H 721.915 -2.34588 5.13448 0
M  V30 7645 N 721.313 -1.57302 -0.09688 0
M  V30 7646 C 722.243 -2.0497 -1.11846 0
M  V30 7647 C 723.224 -0.938278 -1.41882 0
M  V30 7648 O 724.409 -1.20943 -1.51942 0
M  V30 7649 C 721.539 -2.47264 -2.43881 0
M  V30 7650 C 720.493 -3.62053 -2.28257 0
M  V30 7651 C 719.819 -3.90318 -3.65453 0
M  V30 7652 C 721.119 -4.93005 -1.72461 0
M  V30 7653 H 722.813 -2.90567 -0.721888 0
M  V30 7654 H 720.359 -1.39786 -0.345803 0
M  V30 7655 H 722.312 -2.7922 -3.15617 0
M  V30 7656 H 721.036 -1.58664 -2.8547 0
M  V30 7657 H 719.695 -3.30341 -1.58967 0
M  V30 7658 H 719.343 -2.98889 -4.04567 0
M  V30 7659 H 719.043 -4.67597 -3.55846 0
M  V30 7660 H 720.567 -4.24747 -4.3866 0
M  V30 7661 H 721.981 -5.23354 -2.34036 0
M  V30 7662 H 720.378 -5.74436 -1.73618 0
M  V30 7663 H 721.448 -4.80053 -0.683898 0
M  V30 7664 N 722.791 0.367657 -1.53252 0
M  V30 7665 C 724.04 1.10782 -1.68554 0
M  V30 7666 C 724.353 1.90523 -0.442765 0
M  V30 7667 O 725.559 2.6729 -0.47629 0
M  V30 7668 C 724.015 2.01863 -2.97959 0
M  V30 7669 C 723.623 1.27443 -4.29491 0
M  V30 7670 C 725.367 2.75883 -3.22628 0
M  V30 7671 C 723.274 2.17414 -5.49987 0
M  V30 7672 H 722.204 0.417272 -0.628013 0
M  V30 7673 H 724.855 0.368971 -1.79752 0
M  V30 7674 H 723.237 2.7947 -2.80558 0
M  V30 7675 H 724.411 0.549138 -4.57516 0
M  V30 7676 H 722.726 0.652935 -4.11249 0
M  V30 7677 H 725.323 3.43421 -4.09837 0
M  V30 7678 H 725.666 3.41138 -2.38601 0
M  V30 7679 H 726.199 2.0536 -3.40693 0
M  V30 7680 H 722.938 1.5674 -6.36485 0
M  V30 7681 H 722.458 2.87799 -5.26243 0
M  V30 7682 H 724.137 2.77019 -5.84696 0
M  V30 7683 N 724.269 1.44576 0.627338 0
M  V30 7684 C 725.516 1.47558 1.38682 0
M  V30 7685 C 725.844 0.109636 1.94191 0
M  V30 7686 O 725.099 -0.889092 1.74338 0
M  V30 7687 C 725.398 2.48644 2.56731 0
M  V30 7688 C 725.064 3.93873 2.19489 0
M  V30 7689 C 723.726 4.33421 2.09045 0
M  V30 7690 C 726.078 4.85286 1.90124 0
M  V30 7691 C 723.406 5.62303 1.6743 0
M  V30 7692 C 725.758 6.14559 1.50001 0
M  V30 7693 C 724.422 6.53058 1.38101 0
M  V30 7694 H 723.692 0.539955 0.507474 0
M  V30 7695 H 726.339 1.77811 0.711021 0
M  V30 7696 H 724.644 2.11889 3.29561 0
M  V30 7697 H 726.341 2.48197 3.14959 0
M  V30 7698 H 722.931 3.62587 2.28537 0
M  V30 7699 H 727.115 4.55483 1.971 0
M  V30 7700 H 722.371 5.90945 1.56823 0
M  V30 7701 H 726.545 6.84848 1.26319 0
M  V30 7702 H 724.172 7.52826 1.05628 0
M  V30 7703 N 725.747 -0.868086 1.31537 0
M  V30 7704 C 726.996 -1.61607 1.20689 0
M  V30 7705 C 727.309 -1.94204 -0.233275 0
M  V30 7706 O 728.515 -2.67515 -0.463465 0
M  V30 7707 C 726.971 -2.91348 2.11292 0
M  V30 7708 C 726.579 -2.66227 3.60315 0
M  V30 7709 C 728.323 -3.69344 2.09249 0
M  V30 7710 C 726.23 -3.91887 4.42921 0
M  V30 7711 H 725.16 -0.606373 0.448138 0
M  V30 7712 H 727.811 -0.959666 1.56405 0
M  V30 7713 H 726.193 -3.58374 1.68477 0
M  V30 7714 H 727.367 -2.07597 4.11388 0
M  V30 7715 H 725.682 -2.01582 3.64354 0
M  V30 7716 H 728.279 -4.62567 2.68209 0
M  V30 7717 H 728.622 -4.02044 1.0801 0
M  V30 7718 H 729.155 -3.09205 2.50274 0
M  V30 7719 H 725.894 -3.64336 5.44922 0
M  V30 7720 H 725.414 -4.49961 3.96605 0
M  V30 7721 H 727.093 -4.59754 4.55231 0
M  V30 7722 N 727.225 -1.14528 -1.08264 0
M  V30 7723 C 728.155 -0.856356 -2.1723 0
M  V30 7724 C 729.136 0.189251 -1.69044 0
M  V30 7725 O 730.321 0.0456119 -1.94146 0
M  V30 7726 C 727.451 -0.334662 -3.45684 0
M  V30 7727 C 726.405 -1.31588 -4.0727 0
M  V30 7728 C 725.731 -0.653428 -5.30692 0
M  V30 7729 C 727.031 -2.67866 -4.48381 0
M  V30 7730 H 728.725 -1.76755 -2.41657 0
M  V30 7731 H 726.271 -0.851287 -1.16143 0
M  V30 7732 H 728.224 -0.120128 -4.21229 0
M  V30 7733 H 726.948 0.611967 -3.20815 0
M  V30 7734 H 725.607 -1.51661 -3.33758 0
M  V30 7735 H 725.255 0.299054 -5.0211 0
M  V30 7736 H 724.955 -1.30817 -5.72853 0
M  V30 7737 H 726.479 -0.448453 -6.08951 0
M  V30 7738 H 727.893 -2.51692 -5.15096 0
M  V30 7739 H 726.29 -3.29627 -5.01464 0
M  V30 7740 H 727.36 -3.24632 -3.60198 0
M  V30 7741 N 728.703 1.26451 -0.940633 0
M  V30 7742 C 730.114 1.75726 -0.630653 0
M  V30 7743 C 730.465 1.76631 0.854167 0
M  V30 7744 O 729.59 1.37807 1.66848 0
M  V30 7745 C 730.185 3.19114 -1.13805 0
M  V30 7746 C 728.744 3.66005 -0.878497 0
M  V30 7747 C 727.891 2.45505 -1.28928 0
M  V30 7748 H 730.842 1.12535 -1.119 0
M  V30 7749 H 730.863 3.77311 -0.491625 0
M  V30 7750 H 730.375 3.18424 -2.21874 0
M  V30 7751 H 728.476 3.72126 0.187833 0
M  V30 7752 H 728.589 4.54844 -1.50512 0
M  V30 7753 H 726.953 2.4467 -0.707713 0
M  V30 7754 H 727.736 2.47516 -2.37888 0
M  V30 7755 N 730.181 0.707592 1.40822 0
M  V30 7756 C 731.144 0.0587224 2.29125 0
M  V30 7757 C 732.144 -0.695624 1.44975 0
M  V30 7758 O 733.334 -0.528718 1.65983 0
M  V30 7759 C 730.466 -0.926939 3.28056 0
M  V30 7760 H 731.659 0.836349 2.88002 0
M  V30 7761 H 729.212 0.471778 1.4901 0
M  V30 7762 H 729.947 -1.7319 2.74182 0
M  V30 7763 H 729.732 -0.389015 3.90165 0
M  V30 7764 H 731.222 -1.37837 3.94196 0
M  V30 7765 N 731.66 -1.50943 0.453197 0
M  V30 7766 C 732.906 -2.02512 -0.108082 0
M  V30 7767 C 733.239 -1.33574 -1.40967 0
M  V30 7768 O 732.514 -0.455671 -1.89087 0
M  V30 7769 C 732.797 -3.58759 -0.310453 0
M  V30 7770 C 732.65 -4.38293 1.0109 0
M  V30 7771 C 733.969 -4.26816 -1.07313 0
M  V30 7772 H 731.088 -0.73603 -0.0378064 0
M  V30 7773 H 733.73 -1.80433 0.595295 0
M  V30 7774 H 731.88 -3.77702 -0.909582 0
M  V30 7775 H 733.552 -4.30964 1.64523 0
M  V30 7776 H 731.795 -4.02745 1.61179 0
M  V30 7777 H 732.466 -5.45828 0.82315 0
M  V30 7778 H 734.942 -4.1224 -0.565473 0
M  V30 7779 H 733.818 -5.35989 -1.1835 0
M  V30 7780 H 734.079 -3.88757 -2.10525 0
M  V30 7781 N 733.138 -0.185124 -1.56509 0
M  V30 7782 C 734.385 0.456258 -1.97293 0
M  V30 7783 C 734.713 1.62314 -1.07165 0
M  V30 7784 O 733.968 1.95398 -0.108621 0
M  V30 7785 C 734.267 0.967977 -3.44042 0
M  V30 7786 C 733.933 -0.084476 -4.50821 0
M  V30 7787 C 732.595 -0.373689 -4.79747 0
M  V30 7788 C 734.947 -0.79812 -5.15053 0
M  V30 7789 C 732.275 -1.3817 -5.70198 0
M  V30 7790 C 734.627 -1.79521 -6.06593 0
M  V30 7791 C 733.291 -2.09172 -6.3388 0
M  V30 7792 H 732.561 0.166957 -0.721946 0
M  V30 7793 H 735.208 -0.279992 -1.89442 0
M  V30 7794 H 733.513 1.78231 -3.48914 0
M  V30 7795 H 735.21 1.47347 -3.72948 0
M  V30 7796 H 731.8 0.15111 -4.28334 0
M  V30 7797 H 735.984 -0.587903 -4.92806 0
M  V30 7798 H 731.24 -1.61745 -5.89617 0
M  V30 7799 H 735.414 -2.35347 -6.55427 0
M  V30 7800 H 733.041 -2.87427 -7.03768 0
M  V30 7801 N 734.616 1.57351 0.0885366 0
M  V30 7802 C 735.846 1.90355 0.80303 0
M  V30 7803 C 736.254 0.777678 1.72478 0
M  V30 7804 O 735.597 -0.258908 1.81866 0
M  V30 7805 C 735.659 3.18674 1.66395 0
M  V30 7806 C 735.323 4.4778 0.913327 0
M  V30 7807 C 736.32 5.19345 0.240148 0
M  V30 7808 C 734.005 4.94434 0.885462 0
M  V30 7809 C 735.999 6.35803 -0.450854 0
M  V30 7810 C 733.686 6.10802 0.190679 0
M  V30 7811 C 734.684 6.81337 -0.476295 0
M  V30 7812 O 734.372 7.95488 -1.15992 0
M  V30 7813 H 734.104 0.634035 0.234469 0
M  V30 7814 H 736.658 2.05287 0.0681959 0
M  V30 7815 H 734.888 2.99906 2.44117 0
M  V30 7816 H 736.577 3.37458 2.2556 0
M  V30 7817 H 737.343 4.84339 0.253092 0
M  V30 7818 H 733.222 4.39417 1.39406 0
M  V30 7819 H 736.766 6.90795 -0.972019 0
M  V30 7820 H 732.663 6.45261 0.175603 0
M  V30 7821 H 733.431 8.11509 -1.06749 0
M  V30 7822 N 736.094 -0.359525 1.53444 0
M  V30 7823 C 737.024 -1.44662 1.8329 0
M  V30 7824 C 738.005 -1.55617 0.68683 0
M  V30 7825 O 739.19 -1.70086 0.93725 0
M  V30 7826 C 736.32 -2.81923 2.02822 0
M  V30 7827 C 735.274 -2.85787 3.18606 0
M  V30 7828 C 734.6 -4.25781 3.23442 0
M  V30 7829 C 735.9 -2.52762 4.57065 0
M  V30 7830 H 737.594 -1.19934 2.74329 0
M  V30 7831 H 735.14 -0.575517 1.31999 0
M  V30 7832 H 737.093 -3.58005 2.22285 0
M  V30 7833 H 735.817 -3.08051 1.085 0
M  V30 7834 H 734.476 -2.12157 2.98973 0
M  V30 7835 H 734.124 -4.48994 2.26745 0
M  V30 7836 H 733.824 -4.29281 4.01238 0
M  V30 7837 H 735.348 -5.03727 3.45096 0
M  V30 7838 H 736.762 -3.18557 4.76649 0
M  V30 7839 H 735.159 -2.67569 5.37147 0
M  V30 7840 H 736.229 -1.47993 4.61764 0
M  V30 7841 N 737.572 -1.44907 -0.619662 0
M  V30 7842 C 738.519 -1.52654 -1.73105 0
M  V30 7843 C 739.489 -0.373334 -1.6185 0
M  V30 7844 O 740.674 -0.585143 -1.81606 0
M  V30 7845 C 737.814 -1.48769 -3.11387 0
M  V30 7846 C 736.927 -2.74551 -3.33535 0
M  V30 7847 C 736.062 -2.62421 -4.61854 0
M  V30 7848 C 735.101 -3.83312 -4.77219 0
M  V30 7849 N 734.238 -3.69789 -5.96826 0
M  V30 7850 H 739.078 -2.47605 -1.65819 0
M  V30 7851 H 736.615 -1.22875 -0.808719 0
M  V30 7852 H 738.573 -1.44507 -3.91374 0
M  V30 7853 H 737.203 -0.573783 -3.1766 0
M  V30 7854 H 736.255 -2.88953 -2.47408 0
M  V30 7855 H 737.567 -3.64253 -3.40765 0
M  V30 7856 H 736.721 -2.56056 -5.50019 0
M  V30 7857 H 735.46 -1.70298 -4.57001 0
M  V30 7858 H 734.465 -3.90049 -3.87481 0
M  V30 7859 H 735.69 -4.76486 -4.83878 0
M  V30 7860 H 733.636 -2.80426 -5.93041 0
M  V30 7861 H 733.553 -4.53116 -6.05163 0
M  V30 7862 H 734.821 -3.67335 -6.87521 0
M  V30 7863 N 739.05 0.861098 -1.31996 0
M  V30 7864 C 739.98 1.98482 -1.22993 0
M  V30 7865 C 740.961 1.6971 -0.115168 0
M  V30 7866 O 742.146 1.91849 -0.30126 0
M  V30 7867 C 739.276 3.34179 -0.945615 0
M  V30 7868 C 738.23 3.77284 -2.02091 0
M  V30 7869 C 737.556 5.1054 -1.58912 0
M  V30 7870 C 738.856 3.93439 -3.43515 0
M  V30 7871 H 740.55 2.06271 -2.17008 0
M  V30 7872 H 738.096 0.991043 -1.04472 0
M  V30 7873 H 740.049 4.12338 -0.869206 0
M  V30 7874 H 738.773 3.26586 0.0301849 0
M  V30 7875 H 737.432 3.01371 -2.08737 0
M  V30 7876 H 737.08 4.99397 -0.600942 0
M  V30 7877 H 736.78 5.40352 -2.30854 0
M  V30 7878 H 738.304 5.91199 -1.52696 0
M  V30 7879 H 739.718 4.6197 -3.39495 0
M  V30 7880 H 738.115 4.34661 -4.13751 0
M  V30 7881 H 739.185 2.96548 -3.8365 0
M  V30 7882 N 740.528 1.15101 1.07655 0
M  V30 7883 C 741.774 0.925343 1.80458 0
M  V30 7884 C 742.107 -0.546354 1.86356 0
M  V30 7885 O 741.382 -1.40496 1.34503 0
M  V30 7886 C 741.665 1.53646 3.25676 0
M  V30 7887 C 741.518 3.07854 3.27942 0
M  V30 7888 C 742.837 1.21968 4.22861 0
M  V30 7889 H 739.956 0.337592 0.655134 0
M  V30 7890 H 742.598 1.42217 1.25993 0
M  V30 7891 H 740.748 1.11395 3.72187 0
M  V30 7892 H 742.42 3.58989 2.89697 0
M  V30 7893 H 740.663 3.41904 2.66991 0
M  V30 7894 H 741.334 3.45725 4.30324 0
M  V30 7895 H 743.81 1.5851 3.84726 0
M  V30 7896 H 742.686 1.67349 5.22767 0
M  V30 7897 H 742.947 0.136207 4.4189 0
M  V30 7898 N 742.006 -1.2595 0.947325 0
M  V30 7899 C 742.953 -2.26159 0.460497 0
M  V30 7900 C 743.923 -1.58919 -0.483125 0
M  V30 7901 O 745.108 -1.86603 -0.397983 0
M  V30 7902 C 742.248 -3.441 -0.26247 0
M  V30 7903 C 741.361 -4.25999 0.717539 0
M  V30 7904 C 740.496 -5.31193 -0.0272486 0
M  V30 7905 C 739.535 -6.04774 0.944177 0
M  V30 7906 N 738.672 -7.01721 0.230741 0
M  V30 7907 H 743.512 -2.67173 1.31995 0
M  V30 7908 H 741.049 -1.31358 0.662088 0
M  V30 7909 H 743.007 -4.11317 -0.698137 0
M  V30 7910 H 741.637 -3.03983 -1.08602 0
M  V30 7911 H 740.689 -3.58513 1.27171 0
M  V30 7912 H 742.001 -4.76981 1.45913 0
M  V30 7913 H 741.155 -6.04451 -0.521903 0
M  V30 7914 H 739.894 -4.81066 -0.801682 0
M  V30 7915 H 738.899 -5.30338 1.4499 0
M  V30 7916 H 740.124 -6.56991 1.71872 0
M  V30 7917 H 738.07 -6.53895 -0.525088 0
M  V30 7918 H 737.987 -7.50484 0.911556 0
M  V30 7919 H 739.255 -7.79122 -0.242616 0
M  V30 7920 N 743.484 -0.715051 -1.40445 0
M  V30 7921 C 744.431 -0.0621393 -2.30716 0
M  V30 7922 C 745.401 0.750871 -1.48159 0
M  V30 7923 O 746.586 0.714928 -1.76899 0
M  V30 7924 C 743.726 0.854036 -3.34365 0
M  V30 7925 C 742.839 0.0305565 -4.31989 0
M  V30 7926 C 741.974 0.946162 -5.22706 0
M  V30 7927 C 741.013 0.116741 -6.11989 0
M  V30 7928 N 740.15 0.987194 -6.95125 0
M  V30 7929 H 744.99 -0.83764 -2.85985 0
M  V30 7930 H 742.527 -0.424759 -1.40834 0
M  V30 7931 H 744.485 1.39946 -3.93028 0
M  V30 7932 H 743.115 1.59572 -2.806 0
M  V30 7933 H 742.167 -0.632044 -3.75112 0
M  V30 7934 H 743.479 -0.611615 -4.95036 0
M  V30 7935 H 742.633 1.56014 -5.86297 0
M  V30 7936 H 741.372 1.62216 -4.59932 0
M  V30 7937 H 740.377 -0.510176 -5.47428 0
M  V30 7938 H 741.602 -0.555742 -6.76822 0
M  V30 7939 H 739.548 1.64885 -6.3494 0
M  V30 7940 H 739.465 0.401046 -7.54936 0
M  V30 7941 H 740.733 1.58737 -7.63166 0
M  V30 7942 N 744.962 1.50701 -0.461195 0
M  V30 7943 C 745.872 2.32069 0.343661 0
M  V30 7944 C 746.888 1.42016 1.00535 0
M  V30 7945 O 748.064 1.75077 0.995498 0
M  V30 7946 C 745.129 3.16424 1.41692 0
M  V30 7947 C 744.19 4.22286 0.772869 0
M  V30 7948 C 743.423 5.02609 1.79499 0
M  V30 7949 O 743.646 4.83874 3.0203 0
M  V30 7950 O 742.58 5.86047 1.3723 0
M  V30 7951 H 746.406 3.01996 -0.321268 0
M  V30 7952 H 743.991 1.47723 -0.223235 0
M  V30 7953 H 745.873 3.68795 2.03883 0
M  V30 7954 H 744.548 2.49236 2.0655 0
M  V30 7955 H 743.455 3.73931 0.112277 0
M  V30 7956 H 744.788 4.91915 0.167399 0
M  V30 7957 N 746.441 0.193421 1.56409 0
M  V30 7958 C 747.669 -0.451438 2.01915 0
M  V30 7959 C 748.084 -1.55306 1.07357 0
M  V30 7960 O 747.441 -1.82333 0.0781512 0
M  V30 7961 C 747.492 -1.00931 3.47124 0
M  V30 7962 O 747.213 0.0483623 4.38073 0
M  V30 7963 C 748.714 -1.73021 4.0814 0
M  V30 7964 H 745.934 -0.113495 0.661332 0
M  V30 7965 H 748.478 0.301636 2.02263 0
M  V30 7966 H 746.633 -1.71277 3.47481 0
M  V30 7967 H 747.047 -0.366644 5.23217 0
M  V30 7968 H 748.521 -2.07289 5.11601 0
M  V30 7969 H 748.998 -2.6333 3.51502 0
M  V30 7970 H 749.604 -1.07264 4.11551 0
M  V30 7971 N 747.919 -1.57396 -0.0801906 0
M  V30 7972 C 749.166 -1.86836 -0.780927 0
M  V30 7973 C 749.494 -0.784012 -1.77999 0
M  V30 7974 O 748.749 0.220881 -1.94449 0
M  V30 7975 C 749.048 -3.22915 -1.53169 0
M  V30 7976 C 748.714 -4.45843 -0.67339 0
M  V30 7977 C 747.376 -4.79213 -0.436829 0
M  V30 7978 C 749.728 -5.21142 -0.0776786 0
M  V30 7979 C 747.056 -5.853 0.405062 0
M  V30 7980 C 749.408 -6.28119 0.751619 0
M  V30 7981 C 748.072 -6.59995 0.998131 0
M  V30 7982 H 747.342 -0.683682 -0.285761 0
M  V30 7983 H 749.989 -1.91454 -0.0419435 0
M  V30 7984 H 748.294 -3.14049 -2.34265 0
M  V30 7985 H 749.991 -3.42926 -2.07853 0
M  V30 7986 H 746.581 -4.19721 -0.867891 0
M  V30 7987 H 750.765 -4.95682 -0.247572 0
M  V30 7988 H 746.021 -6.084 0.60488 0
M  V30 7989 H 750.195 -6.8563 1.22 0
M  V30 7990 H 747.822 -7.42027 1.65227 0
M  V30 7991 N 749.397 0.351382 -1.53633 0
M  V30 7992 C 750.813 0.693987 -1.43722 0
M  V30 7993 C 751.013 1.9274 -0.587669 0
M  V30 7994 O 750.069 2.52387 -0.0756082 0
M  V30 7995 C 751.382 0.893937 -2.87105 0
M  V30 7996 C 752.93 0.993051 -2.96829 0
M  V30 7997 C 753.405 1.22537 -4.41303 0
M  V30 7998 N 754.896 1.29275 -4.44795 0
M  V30 7999 C 755.631 1.48988 -5.53706 0
M  V30 8000 N 755.127 1.65924 -6.72637 0
M  V30 8001 N 756.92 1.51472 -5.41306 0
M  V30 8002 H 749.071 -0.459688 -2.07366 0
M  V30 8003 H 751.334 -0.143684 -0.937048 0
M  V30 8004 H 751.04 0.0592517 -3.5165 0
M  V30 8005 H 750.914 1.79795 -3.31592 0
M  V30 8006 H 753.301 1.81827 -2.32429 0
M  V30 8007 H 753.382 0.0661119 -2.55715 0
M  V30 8008 H 753.026 0.405117 -5.06282 0
M  V30 8009 H 752.956 2.16575 -4.80003 0
M  V30 8010 H 755.447 1.17743 -3.59089 0
M  V30 8011 H 755.76 1.80578 -7.51406 0
M  V30 8012 H 754.105 1.63075 -6.75597 0
M  V30 8013 H 757.296 1.37818 -4.47352 0
M  V30 8014 H 757.469 1.66493 -6.26246 0
M  V30 8015 N 750.875 1.45233 0.611969 0
M  V30 8016 C 752.1 1.52767 1.40274 0
M  V30 8017 C 752.525 0.159701 1.87421 0
M  V30 8018 O 751.883 -0.854837 1.59882 0
M  V30 8019 C 751.931 2.51286 2.58626 0
M  V30 8020 O 751.035 2.02764 3.59111 0
M  V30 8021 H 750.376 0.515141 0.418958 0
M  V30 8022 H 752.906 1.90547 0.745188 0
M  V30 8023 H 752.916 2.69949 3.05927 0
M  V30 8024 H 751.591 3.50641 2.23659 0
M  V30 8025 H 750.168 1.93957 3.18489 0
M  V30 8026 N 752.353 -0.854086 1.3245 0
M  V30 8027 C 753.764 -1.42427 1.20712 0
M  V30 8028 C 754.115 -1.95371 -0.18013 0
M  V30 8029 O 753.24 -1.87587 -1.07889 0
M  V30 8030 C 753.835 -2.58897 2.18536 0
M  V30 8031 C 752.394 -3.11913 2.10683 0
M  V30 8032 C 751.541 -1.84661 2.06871 0
M  V30 8033 H 754.492 -0.661192 1.4427 0
M  V30 8034 H 754.513 -3.36074 1.78422 0
M  V30 8035 H 754.025 -2.20333 3.19492 0
M  V30 8036 H 752.126 -3.55059 1.12977 0
M  V30 8037 H 752.239 -3.73119 3.00532 0
M  V30 8038 H 750.603 -2.04285 1.52118 0
M  V30 8039 H 751.386 -1.48314 3.09609 0
M  V30 8040 N 753.831 -1.1567 -1.07043 0
M  V30 8041 C 754.763 -0.814095 -2.14255 0
M  V30 8042 C 755.776 0.175293 -1.61854 0
M  V30 8043 O 756.965 -0.0483984 -1.78434 0
M  V30 8044 C 754.065 -0.190082 -3.38367 0
M  V30 8045 C 753.238 -1.21768 -4.20109 0
M  V30 8046 C 752.297 -0.614863 -5.22595 0
M  V30 8047 O 751.323 -1.28167 -5.54583 0
M  V30 8048 N 752.525 0.601955 -5.77371 0
M  V30 8049 H 755.29 -1.73677 -2.44247 0
M  V30 8050 H 752.851 -1.05301 -1.22977 0
M  V30 8051 H 754.843 0.22604 -4.04068 0
M  V30 8052 H 753.413 0.635992 -3.06062 0
M  V30 8053 H 752.633 -1.81025 -3.50177 0
M  V30 8054 H 753.921 -1.9114 -4.71533 0
M  V30 8055 H 753.319 1.162 -5.53637 0
M  V30 8056 H 751.876 0.96039 -6.44686 0
M  V30 8057 N 755.309 1.25446 -0.953992 0
M  V30 8058 C 756.256 2.25912 -0.472485 0
M  V30 8059 C 757.226 1.59173 0.47469 0
M  V30 8060 O 758.411 1.86812 0.388082 0
M  V30 8061 C 755.551 3.44235 0.244218 0
M  V30 8062 C 754.664 4.25613 -0.740121 0
M  V30 8063 C 753.799 5.312 -0.000922267 0
M  V30 8064 C 752.838 6.04265 -0.976236 0
M  V30 8065 N 751.975 7.01589 -0.267952 0
M  V30 8066 H 756.815 2.66469 -1.3341 0
M  V30 8067 H 754.352 1.31005 -0.669045 0
M  V30 8068 H 756.31 4.11682 0.676314 0
M  V30 8069 H 754.94 3.04554 1.06988 0
M  V30 8070 H 753.992 3.57834 -1.2907 0
M  V30 8071 H 755.304 4.762 -1.48441 0
M  V30 8072 H 754.458 6.04719 0.48984 0
M  V30 8073 H 753.197 4.81484 0.776159 0
M  V30 8074 H 752.202 5.29561 -1.478 0
M  V30 8075 H 753.427 6.5607 -1.75354 0
M  V30 8076 H 751.373 6.54164 0.490403 0
M  V30 8077 H 751.29 7.4999 -0.951344 0
M  V30 8078 H 752.558 7.7924 0.201294 0
M  V30 8079 N 756.787 0.722489 1.40064 0
M  V30 8080 C 758.033 0.265371 2.01056 0
M  V30 8081 C 758.366 -1.14062 1.57174 0
M  V30 8082 O 757.641 -1.77514 0.794916 0
M  V30 8083 C 757.924 0.353157 3.58364 0
M  V30 8084 C 757.777 1.79802 4.123 0
M  V30 8085 C 759.096 -0.271677 4.39261 0
M  V30 8086 H 756.215 0.0979002 0.730469 0
M  V30 8087 H 758.857 0.916289 1.66446 0
M  V30 8088 H 757.007 -0.201037 3.87979 0
M  V30 8089 H 758.679 2.40813 3.93455 0
M  V30 8090 H 756.922 2.32348 3.66329 0
M  V30 8091 H 757.593 1.81079 5.21454 0
M  V30 8092 H 760.069 0.200607 4.15616 0
M  V30 8093 H 758.945 -0.179843 5.48605 0
M  V30 8094 H 759.206 -1.35611 4.20787 0
M  V30 8095 N 758.265 -1.50454 0.469181 0
M  V30 8096 C 759.513 -2.01916 -0.0862982 0
M  V30 8097 C 759.834 -1.35337 -1.40388 0
M  V30 8098 O 759.104 -0.498096 -1.89462 0
M  V30 8099 H 757.684 -0.746185 -0.0348825 0
M  V30 8100 H 760.346 -1.84804 0.619167 0
M  V30 8101 H 759.442 -3.11182 -0.239189 0
M  V30 8102 N 759.743 -0.201713 -1.56304 0
M  V30 8103 C 760.706 0.702811 -2.18159 0
M  V30 8104 C 761.706 1.13619 -1.13787 0
M  V30 8105 O 762.896 1.0482 -1.39134 0
M  V30 8106 C 760.028 1.96032 -2.78898 0
M  V30 8107 H 761.221 0.163836 -2.99452 0
M  V30 8108 H 758.774 0.04791 -1.56227 0
M  V30 8109 H 759.509 2.54165 -2.01421 0
M  V30 8110 H 759.294 1.65824 -3.55309 0
M  V30 8111 H 760.784 2.60519 -3.26373 0
M  V30 8112 N 761.222 1.57436 0.0718424 0
M  V30 8113 C 762.152 2.06724 1.08571 0
M  V30 8114 C 763.133 0.960731 1.40371 0
M  V30 8115 O 764.318 1.23345 1.49999 0
M  V30 8116 C 761.448 2.51112 2.39916 0
M  V30 8117 C 760.402 3.65639 2.22469 0
M  V30 8118 C 759.728 3.96082 3.59198 0
M  V30 8119 C 761.028 4.95687 1.64596 0
M  V30 8120 H 762.722 2.91679 0.675569 0
M  V30 8121 H 760.268 1.40319 0.32352 0
M  V30 8122 H 762.221 2.84206 3.11135 0
M  V30 8123 H 760.945 1.63186 2.8291 0
M  V30 8124 H 759.604 3.32828 1.53691 0
M  V30 8125 H 759.252 3.05287 3.99761 0
M  V30 8126 H 758.952 4.73199 3.48362 0
M  V30 8127 H 760.476 4.31672 4.31847 0
M  V30 8128 H 761.89 5.27011 2.25681 0
M  V30 8129 H 760.287 5.77126 1.64457 0
M  V30 8130 H 761.357 4.8108 0.60744 0
M  V30 8131 N 762.7 -0.34323 1.53817 0
M  V30 8132 C 763.949 -1.08086 1.70295 0
M  V30 8133 C 764.262 -1.89794 0.47302 0
M  V30 8134 O 765.468 -2.66498 0.518754 0
M  V30 8135 C 763.924 -1.97097 3.01133 0
M  V30 8136 C 763.532 -1.20594 4.31464 0
M  V30 8137 C 765.276 -2.70715 3.26976 0
M  V30 8138 C 763.183 -2.08636 5.53376 0
M  V30 8139 H 762.113 -0.407228 0.634572 0
M  V30 8140 H 764.764 -0.340328 1.80316 0
M  V30 8141 H 763.146 -2.74971 2.84969 0
M  V30 8142 H 764.32 -0.476282 4.58332 0
M  V30 8143 H 762.635 -0.587426 4.12236 0
M  V30 8144 H 765.232 -3.36857 4.15248 0
M  V30 8145 H 765.575 -3.37299 2.43998 0
M  V30 8146 H 766.108 -1.99914 3.43917 0
M  V30 8147 H 762.847 -1.46594 6.38898 0
M  V30 8148 H 762.367 -2.7939 5.30755 0
M  V30 8149 H 764.046 -2.67682 5.89029 0
M  V30 8150 N 764.178 -1.45556 -0.604258 0
M  V30 8151 C 765.425 -1.49746 -1.36317 0
M  V30 8152 C 765.753 -0.140516 -1.93992 0
M  V30 8153 O 765.008 0.861244 -1.7573 0
M  V30 8154 C 765.307 -2.52697 -2.52743 0
M  V30 8155 C 764.973 -3.97315 -2.13195 0
M  V30 8156 C 763.635 -4.36692 -2.02123 0
M  V30 8157 C 765.987 -4.88249 -1.8238 0
M  V30 8158 C 763.315 -5.64895 -1.58463 0
M  V30 8159 C 765.667 -6.16867 -1.40205 0
M  V30 8160 C 764.331 -6.55172 -1.27694 0
M  V30 8161 H 763.601 -0.54796 -0.49882 0
M  V30 8162 H 766.248 -1.7892 -0.682643 0
M  V30 8163 H 764.553 -2.17105 -3.26148 0
M  V30 8164 H 766.25 -2.53176 -3.10971 0
M  V30 8165 H 762.84 -3.66176 -2.22739 0
M  V30 8166 H 767.024 -4.58561 -1.89829 0
M  V30 8167 H 762.28 -5.93365 -1.47402 0
M  V30 8168 H 766.454 -6.86771 -1.15408 0
M  V30 8169 H 764.081 -7.54411 -0.936375 0
M  V30 8170 N 765.656 0.84705 -1.32902 0
M  V30 8171 C 766.586 1.97166 -1.25091 0
M  V30 8172 C 767.567 1.69578 -0.133161 0
M  V30 8173 O 768.752 1.91519 -0.321591 0
M  V30 8174 C 765.882 3.33157 -0.981006 0
M  V30 8175 C 764.836 3.75119 -2.06082 0
M  V30 8176 C 764.162 5.08826 -1.64318 0
M  V30 8177 C 765.462 3.89774 -3.47669 0
M  V30 8178 H 767.156 2.03958 -2.19184 0
M  V30 8179 H 764.702 0.979907 -1.05517 0
M  V30 8180 H 766.655 4.11393 -0.912891 0
M  V30 8181 H 765.379 3.266 -0.00445559 0
M  V30 8182 H 764.038 2.9914 -2.11921 0
M  V30 8183 H 763.686 4.98732 -0.653876 0
M  V30 8184 H 763.386 5.37873 -2.36572 0
M  V30 8185 H 764.91 5.89546 -1.58958 0
M  V30 8186 H 766.324 4.58343 -3.44376 0
M  V30 8187 H 764.721 4.30248 -4.18338 0
M  V30 8188 H 765.791 2.92463 -3.86773 0
M  V30 8189 N 767.134 1.16236 1.06428 0
M  V30 8190 C 768.38 0.944431 1.79467 0
M  V30 8191 C 768.713 -0.526558 1.86925 0
M  V30 8192 O 767.988 -1.39061 1.35986 0
M  V30 8193 C 768.271 1.57092 3.24028 0
M  V30 8194 C 768.124 3.11315 3.24658 0
M  V30 8195 C 769.443 1.26447 4.21544 0
M  V30 8196 H 766.562 0.344521 0.651517 0
M  V30 8197 H 769.204 1.43545 1.24478 0
M  V30 8198 H 767.354 1.15337 3.70985 0
M  V30 8199 H 769.026 3.62042 2.85873 0
M  V30 8200 H 767.269 3.44716 2.6335 0
M  V30 8201 H 767.94 3.50269 4.26633 0
M  V30 8202 H 770.416 1.62581 3.83023 0
M  V30 8203 H 769.292 1.72885 5.20963 0
M  V30 8204 H 769.553 0.183068 4.41721 0
M  V30 8205 N 768.612 -1.24939 0.960631 0
M  V30 8206 C 769.858 -1.93104 0.61958 0
M  V30 8207 C 770.191 -1.74991 -0.84212 0
M  V30 8208 O 769.466 -1.09867 -1.60498 0
M  V30 8209 C 769.749 -3.46326 0.986422 0
M  V30 8210 C 769.602 -3.73638 2.50429 0
M  V30 8211 C 770.921 -4.37067 0.515827 0
M  V30 8212 H 768.04 -0.701311 0.226566 0
M  V30 8213 H 770.682 -1.47442 1.19836 0
M  V30 8214 H 768.832 -3.85348 0.493907 0
M  V30 8215 H 770.504 -3.44217 3.07103 0
M  V30 8216 H 768.747 -3.19035 2.93937 0
M  V30 8217 H 769.418 -4.80815 2.71147 0
M  V30 8218 H 771.894 -4.05381 0.938389 0
M  V30 8219 H 770.77 -5.43022 0.80114 0
M  V30 8220 H 771.031 -4.38224 -0.584171 0
M  V30 8221 N 770.09 -0.729906 -1.39679 0
M  V30 8222 C 771.338 -0.275077 -2.00219 0
M  V30 8223 C 771.659 1.1401 -1.58199 0
M  V30 8224 O 770.929 1.77546 -0.827904 0
M  V30 8225 H 769.509 -0.0987127 -0.740449 0
M  V30 8226 H 772.171 -0.93873 -1.70804 0
M  V30 8227 H 771.267 -0.319446 -3.10461 0
M  V30 8228 N 771.568 1.50203 -0.477153 0
M  V30 8229 C 772.817 2.01551 0.0774548 0
M  V30 8230 C 773.13 1.36359 1.40234 0
M  V30 8231 O 774.336 1.78898 2.04225 0
M  V30 8232 C 772.792 3.59406 0.188539 0
M  V30 8233 C 772.4 4.3356 -1.12828 0
M  V30 8234 C 774.144 4.18776 0.694782 0
M  V30 8235 C 772.051 5.83213 -0.98066 0
M  V30 8236 H 770.981 0.75329 0.0327212 0
M  V30 8237 H 773.632 1.72959 -0.612969 0
M  V30 8238 H 772.014 3.84611 0.942881 0
M  V30 8239 H 773.188 4.20074 -1.89405 0
M  V30 8240 H 771.503 3.85827 -1.5661 0
M  V30 8241 H 774.1 5.28338 0.822356 0
M  V30 8242 H 774.443 3.80557 1.68766 0
M  V30 8243 H 774.976 3.978 -0.00234519 0
M  V30 8244 H 771.715 6.25914 -1.94709 0
M  V30 8245 H 771.235 5.99256 -0.255375 0
M  V30 8246 H 772.914 6.4373 -0.649717 0
M  V30 8247 N 773.046 0.209999 1.56195 0
M  V30 8248 C 774.293 -0.424813 1.97994 0
M  V30 8249 C 774.621 -1.60589 1.09733 0
M  V30 8250 O 773.876 -1.95201 0.139693 0
M  V30 8251 C 774.175 -0.91312 3.45539 0
M  V30 8252 C 773.841 0.156187 4.50629 0
M  V30 8253 C 772.503 0.449966 4.79092 0
M  V30 8254 C 774.855 0.879959 5.13718 0
M  V30 8255 C 772.183 1.47223 5.67928 0
M  V30 8256 C 774.535 1.89148 6.0366 0
M  V30 8257 C 773.199 2.1923 6.30472 0
M  V30 8258 H 772.469 -0.15545 0.724511 0
M  V30 8259 H 775.116 0.310095 1.88973 0
M  V30 8260 H 773.421 -1.72658 3.51705 0
M  V30 8261 H 775.118 -1.41395 3.75245 0
M  V30 8262 H 771.708 -0.0829466 4.2852 0
M  V30 8263 H 775.892 0.66623 4.91808 0
M  V30 8264 H 771.148 1.71105 5.86969 0
M  V30 8265 H 775.322 2.45745 6.516 0
M  V30 8266 H 772.949 2.98587 6.99107 0
M  V30 8267 N 774.524 -1.57472 -0.0634922 0
M  V30 8268 C 775.771 -1.87654 -0.761066 0
M  V30 8269 C 776.099 -0.802847 -1.77157 0
M  V30 8270 O 775.354 0.200244 -1.94673 0
M  V30 8271 C 775.653 -3.24521 -1.49736 0
M  V30 8272 C 775.319 -4.46532 -0.626065 0
M  V30 8273 C 773.981 -4.7965 -0.385978 0
M  V30 8274 C 776.333 -5.21195 -0.0224001 0
M  V30 8275 C 773.661 -5.84837 0.467118 0
M  V30 8276 C 776.013 -6.27286 0.818198 0
M  V30 8277 C 774.677 -6.58899 1.06808 0
M  V30 8278 H 773.947 -0.686675 -0.278494 0
M  V30 8279 H 776.594 -1.91488 -0.0216348 0
M  V30 8280 H 774.899 -3.16516 -2.30921 0
M  V30 8281 H 776.596 -3.45111 -2.04204 0
M  V30 8282 H 773.186 -4.20618 -0.823325 0
M  V30 8283 H 777.37 -4.95917 -0.194985 0
M  V30 8284 H 772.626 -6.07725 0.669375 0
M  V30 8285 H 776.8 -6.84298 1.29265 0
M  V30 8286 H 774.427 -7.40233 1.73088 0
M  V30 8287 N 776.003 0.335068 -1.53997 0
M  V30 8288 C 776.936 1.43533 -1.77407 0
M  V30 8289 C 777.914 1.5017 -0.623529 0
M  V30 8290 O 779.098 1.67756 -0.85966 0
M  V30 8291 C 776.225 2.81712 -1.88033 0
M  V30 8292 C 775.271 2.92661 -3.10245 0
M  V30 8293 S 776.104 2.58254 -4.69111 0
M  V30 8294 C 777.26 3.98525 -4.82627 0
M  V30 8295 H 777.493 1.2346 -2.70453 0
M  V30 8296 H 775.026 0.531234 -1.44973 0
M  V30 8297 H 776.984 3.61314 -1.9484 0
M  V30 8298 H 775.645 2.99075 -0.959849 0
M  V30 8299 H 774.838 3.93931 -3.14379 0
M  V30 8300 H 774.44 2.21017 -3.01708 0
M  V30 8301 H 776.732 4.93146 -4.64557 0
M  V30 8302 H 777.675 3.9938 -5.84723 0
M  V30 8303 H 778.083 3.86945 -4.11016 0
M  V30 8304 N 777.481 1.45874 0.596531 0
M  V30 8305 C 778.73 1.49737 1.35135 0
M  V30 8306 C 779.043 0.147755 1.95041 0
M  V30 8307 O 780.249 0.0640984 2.71424 0
M  V30 8308 C 778.705 2.6378 2.44843 0
M  V30 8309 C 778.313 4.05102 1.91301 0
M  V30 8310 C 780.057 2.769 3.21755 0
M  V30 8311 C 777.964 5.10508 2.98557 0
M  V30 8312 H 776.894 0.557219 0.507959 0
M  V30 8313 H 779.545 1.72046 0.638147 0
M  V30 8314 H 777.927 2.34774 3.189 0
M  V30 8315 H 779.101 4.43836 1.2388 0
M  V30 8316 H 777.416 3.96528 1.271 0
M  V30 8317 H 780.013 3.52819 4.01775 0
M  V30 8318 H 780.356 1.83924 3.73467 0
M  V30 8319 H 780.889 3.05485 2.54802 0
M  V30 8320 H 777.628 6.0523 2.51749 0
M  V30 8321 H 777.148 4.76332 3.6451 0
M  V30 8322 H 778.827 5.35745 3.62748 0
M  V30 8323 N 778.959 -0.83999 1.33349 0
M  V30 8324 C 780.207 -1.59202 1.24496 0
M  V30 8325 C 780.528 -1.94077 -0.189499 0
M  V30 8326 O 779.798 -1.60868 -1.11796 0
M  V30 8327 H 778.378 -0.590276 0.457802 0
M  V30 8328 H 781.04 -1.00394 1.67054 0
M  V30 8329 H 780.136 -2.52247 1.83788 0
M  V30 8330 N 780.437 -1.16799 -1.0581 0
M  V30 8331 C 781.662 -0.977402 -1.82925 0
M  V30 8332 C 782.087 0.469514 -1.82146 0
M  V30 8333 O 781.445 1.33576 -1.22585 0
M  V30 8334 C 781.493 -1.51543 -3.27211 0
M  V30 8335 O 780.597 -0.725021 -4.05977 0
M  V30 8336 H 779.938 -0.347474 -0.565825 0
M  V30 8337 H 782.468 -1.55151 -1.33376 0
M  V30 8338 H 782.478 -1.53502 -3.78023 0
M  V30 8339 H 781.153 -2.56872 -3.27093 0
M  V30 8340 H 779.73 -0.77634 -3.64729 0
M  V30 8341 N 781.915 1.24427 -0.967243 0
M  V30 8342 C 782.848 2.23885 -0.441683 0
M  V30 8343 C 783.826 1.55231 0.483963 0
M  V30 8344 O 785.01 1.83865 0.415445 0
M  V30 8345 C 782.137 3.36755 0.362458 0
M  V30 8346 C 781.183 4.23495 -0.505407 0
M  V30 8347 S 782.016 4.98916 -1.94534 0
M  V30 8348 C 783.172 6.15245 -1.14997 0
M  V30 8349 H 783.405 2.68118 -1.28453 0
M  V30 8350 H 780.938 1.337 -0.772243 0
M  V30 8351 H 782.896 4.02218 0.820445 0
M  V30 8352 H 781.557 2.91081 1.18027 0
M  V30 8353 H 780.75 5.03876 0.111979 0
M  V30 8354 H 780.352 3.63032 -0.899104 0
M  V30 8355 H 782.644 6.7629 -0.404769 0
M  V30 8356 H 783.587 6.81343 -1.92814 0
M  V30 8357 H 783.995 5.60455 -0.674543 0
M  V30 8358 N 783.393 0.737304 1.3929 0
M  V30 8359 C 784.356 0.10731 2.28949 0
M  V30 8360 C 785.356 -0.664716 1.46418 0
M  V30 8361 O 786.546 -0.493392 1.67067 0
M  V30 8362 C 783.678 -0.857145 3.29948 0
M  V30 8363 H 784.871 0.89725 2.86163 0
M  V30 8364 H 782.424 0.503279 1.47976 0
M  V30 8365 H 783.159 -1.67336 2.77794 0
M  V30 8366 H 782.944 -0.306167 3.90903 0
M  V30 8367 H 784.434 -1.29444 3.97031 0
M  V30 8368 N 784.871 -1.49948 0.485112 0
M  V30 8369 C 785.801 -2.31675 -0.291364 0
M  V30 8370 C 786.782 -1.39216 -0.977383 0
M  V30 8371 O 787.967 -1.68133 -0.971855 0
M  V30 8372 C 785.097 -3.19326 -1.36558 0
M  V30 8373 C 784.051 -4.2045 -0.800359 0
M  V30 8374 C 783.377 -4.96931 -1.97391 0
M  V30 8375 C 784.677 -5.21925 0.197867 0
M  V30 8376 H 786.371 -2.96839 0.390775 0
M  V30 8377 H 783.917 -1.42749 0.189375 0
M  V30 8378 H 785.87 -3.75304 -1.91638 0
M  V30 8379 H 784.594 -2.52074 -2.07668 0
M  V30 8380 H 783.253 -3.65594 -0.271428 0
M  V30 8381 H 782.901 -4.26141 -2.67232 0
M  V30 8382 H 782.601 -5.65344 -1.60187 0
M  V30 8383 H 784.125 -5.55749 -2.52935 0
M  V30 8384 H 785.539 -5.72691 -0.264239 0
M  V30 8385 H 783.936 -5.98138 0.484908 0
M  V30 8386 H 785.006 -4.71809 1.11912 0
M  V30 8387 N 786.349 -0.21828 -1.56081 0
M  V30 8388 C 787.598 0.414644 -1.97392 0
M  V30 8389 C 787.911 1.61132 -1.10887 0
M  V30 8390 O 789.117 2.31355 -1.42082 0
M  V30 8391 C 787.573 0.789099 -3.51143 0
M  V30 8392 C 787.181 -0.384578 -4.46346 0
M  V30 8393 C 788.925 1.38781 -4.01173 0
M  V30 8394 C 786.832 0.0121288 -5.91399 0
M  V30 8395 H 785.762 0.158691 -0.737111 0
M  V30 8396 H 788.413 -0.313974 -1.80794 0
M  V30 8397 H 786.795 1.57505 -3.6333 0
M  V30 8398 H 787.969 -1.16212 -4.45905 0
M  V30 8399 H 786.284 -0.896306 -4.06639 0
M  V30 8400 H 788.881 1.69746 -5.07041 0
M  V30 8401 H 789.224 2.30245 -3.46833 0
M  V30 8402 H 789.757 0.665364 -3.92196 0
M  V30 8403 H 786.496 -0.868917 -6.49715 0
M  V30 8404 H 786.016 0.754053 -5.95041 0
M  V30 8405 H 787.695 0.439949 -6.45502 0
M  V30 8406 N 787.827 1.57504 0.0551401 0
M  V30 8407 C 789.076 1.87237 0.750009 0
M  V30 8408 C 789.389 0.813268 1.77891 0
M  V30 8409 O 790.595 0.99898 2.52453 0
M  V30 8410 C 789.051 3.32187 1.38491 0
M  V30 8411 C 788.659 4.46267 0.393707 0
M  V30 8412 C 790.403 3.71101 2.06117 0
M  V30 8413 C 788.31 5.82265 1.03547 0
M  V30 8414 H 787.24 0.698524 0.283866 0
M  V30 8415 H 789.891 1.835 0.00365997 0
M  V30 8416 H 788.273 3.30588 2.18008 0
M  V30 8417 H 789.447 4.59289 -0.372865 0
M  V30 8418 H 787.762 4.16015 -0.17902 0
M  V30 8419 H 790.359 4.70012 2.54937 0
M  V30 8420 H 790.702 3.01751 2.86796 0
M  V30 8421 H 791.235 3.74762 1.33409 0
M  V30 8422 H 787.974 6.54949 0.268644 0
M  V30 8423 H 787.494 5.73012 1.7725 0
M  V30 8424 H 789.173 6.28148 1.55047 0
M  V30 8425 N 789.305 -0.326896 1.54172 0
M  V30 8426 C 790.554 -1.06274 1.71431 0
M  V30 8427 C 790.867 -1.89282 0.493123 0
M  V30 8428 O 792.073 -2.65933 0.54699 0
M  V30 8429 C 790.529 -1.93892 3.03206 0
M  V30 8430 C 790.137 -1.16011 4.32719 0
M  V30 8431 C 791.881 -2.67232 3.29829 0
M  V30 8432 C 789.788 -2.02755 5.55558 0
M  V30 8433 H 788.718 -0.400475 0.638855 0
M  V30 8434 H 791.369 -0.321184 1.80667 0
M  V30 8435 H 789.751 -2.71933 2.87869 0
M  V30 8436 H 790.925 -0.427643 4.58811 0
M  V30 8437 H 789.24 -0.54367 4.12836 0
M  V30 8438 H 791.837 -3.32434 4.18798 0
M  V30 8439 H 792.18 -3.34692 2.47562 0
M  V30 8440 H 792.713 -1.96255 3.46018 0
M  V30 8441 H 789.452 -1.3981 6.40417 0
M  V30 8442 H 788.972 -2.73745 5.33689 0
M  V30 8443 H 790.651 -2.61419 5.91835 0
M  V30 8444 N 790.784 -1.46188 -0.588786 0
M  V30 8445 C 792.061 -1.41659 -1.34878 0
M  V30 8446 C 792.441 -0.0968913 -2.10878 0
M  V30 8447 O 791.789 0.921468 -2.09096 0
M  V30 8448 C 791.999 -2.6424 -2.27988 0
M  V30 8449 C 793.347 -3.1013 -2.90008 0
M  V30 8450 O 794.371 -2.64745 -2.38303 0
M  V30 8451 O 793.23 -3.88944 -3.83908 0
M  V30 8452 H 790.324 -0.563058 -0.605718 0
M  V30 8453 H 792.87 -1.58346 -0.610309 0
M  V30 8454 H 791.642 -3.51853 -1.71217 0
M  V30 8455 H 791.265 -2.49982 -3.09184 0
M  V30 8456 N 792.262 0.832906 -1.33792 0
M  V30 8457 C 793.508 1.59053 -1.26782 0
M  V30 8458 C 793.863 1.91705 0.163399 0
M  V30 8459 O 793.156 1.5638 1.10706 0
M  V30 8460 C 793.35 2.9047 -2.08235 0
M  V30 8461 C 793.179 2.70656 -3.59132 0
M  V30 8462 C 791.949 2.67905 -4.28433 0
M  V30 8463 C 794.147 2.42871 -4.53341 0
M  V30 8464 N 792.129 2.39531 -5.65242 0
M  V30 8465 C 793.5 2.24101 -5.78082 0
M  V30 8466 C 795.555 2.28517 -4.42362 0
M  V30 8467 C 794.258 1.92432 -6.93082 0
M  V30 8468 C 796.284 1.98242 -5.57184 0
M  V30 8469 C 795.646 1.80288 -6.80937 0
M  V30 8470 H 791.745 0.584823 -0.51914 0
M  V30 8471 H 794.329 0.977252 -1.68398 0
M  V30 8472 H 792.5 3.49739 -1.6893 0
M  V30 8473 H 794.232 3.55744 -1.92947 0
M  V30 8474 H 790.987 2.81624 -3.80768 0
M  V30 8475 H 791.411 2.28211 -6.37377 0
M  V30 8476 H 796.053 2.41107 -3.47314 0
M  V30 8477 H 793.771 1.78579 -7.88121 0
M  V30 8478 H 797.357 1.87882 -5.50628 0
M  V30 8479 H 796.237 1.57199 -7.68283 0
M  V30 8480 N 793.74 1.17359 1.05189 0
M  V30 8481 C 794.989 0.956412 1.77583 0
M  V30 8482 C 795.302 -0.516018 1.88671 0
M  V30 8483 O 796.508 -0.851401 2.57805 0
M  V30 8484 C 794.964 1.66203 3.19225 0
M  V30 8485 C 794.572 3.17299 3.16267 0
M  V30 8486 C 796.316 1.52725 3.96075 0
M  V30 8487 C 794.223 3.8055 4.52698 0
M  V30 8488 H 793.153 0.354204 0.665624 0
M  V30 8489 H 795.804 1.40612 1.17901 0
M  V30 8490 H 794.186 1.14006 3.79234 0
M  V30 8491 H 795.36 3.76431 2.65776 0
M  V30 8492 H 793.675 3.3079 2.52917 0
M  V30 8493 H 796.272 1.97351 4.96947 0
M  V30 8494 H 796.615 0.477803 4.13549 0
M  V30 8495 H 797.148 2.02139 3.42614 0
M  V30 8496 H 793.887 4.85492 4.4043 0
M  V30 8497 H 793.407 3.26206 5.03339 0
M  V30 8498 H 795.086 3.82757 5.21638 0
M  V30 8499 N 795.218 -1.23913 0.973828 0
M  V30 8500 C 796.448 -1.95911 0.655938 0
M  V30 8501 C 796.856 -1.72375 -0.779967 0
M  V30 8502 O 796.199 -1.00807 -1.5357 0
M  V30 8503 C 796.261 -3.49103 0.858324 0
M  V30 8504 C 795.925 -3.96347 2.27504 0
M  V30 8505 C 796.922 -4.05537 3.25324 0
M  V30 8506 C 794.607 -4.29509 2.60437 0
M  V30 8507 C 796.601 -4.47233 4.5416 0
M  V30 8508 C 794.288 -4.70887 3.89498 0
M  V30 8509 C 795.286 -4.79714 4.86172 0
M  V30 8510 O 794.974 -5.20166 6.1293 0
M  V30 8511 H 794.706 -0.630721 0.243244 0
M  V30 8512 H 797.26 -1.58534 1.30599 0
M  V30 8513 H 795.49 -3.86405 0.151097 0
M  V30 8514 H 797.179 -4.02311 0.538592 0
M  V30 8515 H 797.945 -3.80128 3.0121 0
M  V30 8516 H 793.824 -4.21853 1.85906 0
M  V30 8517 H 797.368 -4.54038 5.29618 0
M  V30 8518 H 793.265 -4.95744 4.1341 0
M  V30 8519 H 794.033 -5.38298 6.16586 0
M  V30 8520 N 796.696 -0.74468 -1.38897 0
M  V30 8521 C 797.973 -0.222773 -1.94327 0
M  V30 8522 C 798.353 1.27731 -1.68071 0
M  V30 8523 O 797.701 2.04754 -1.01429 0
M  V30 8524 C 797.911 -0.566836 -3.44366 0
M  V30 8525 C 799.259 -0.521531 -4.21385 0
M  V30 8526 O 800.283 -0.504599 -3.52608 0
M  V30 8527 O 799.142 -0.524595 -5.43976 0
M  V30 8528 H 796.236 -0.0439259 -0.825833 0
M  V30 8529 H 798.782 -0.824197 -1.48341 0
M  V30 8530 H 797.554 -1.60321 -3.56949 0
M  V30 8531 H 797.177 0.0630577 -3.9755 0
M  V30 8532 N 798.174 1.49689 -0.493057 0
M  V30 8533 C 799.585 1.8665 -0.0433032 0
M  V30 8534 C 799.936 1.40607 1.36836 0
M  V30 8535 O 799.061 0.780503 2.01834 0
M  V30 8536 C 799.656 3.38724 -0.0718069 0
M  V30 8537 C 798.215 3.75015 0.32257 0
M  V30 8538 C 797.362 2.7366 -0.4478 0
M  V30 8539 H 800.313 1.42119 -0.706246 0
M  V30 8540 H 800.334 3.73522 0.725347 0
M  V30 8541 H 799.846 3.72204 -1.09935 0
M  V30 8542 H 797.947 3.47142 1.35364 0
M  V30 8543 H 798.06 4.79099 0.00864259 0
M  V30 8544 H 796.424 2.54498 0.101354 0
M  V30 8545 H 797.207 3.09985 -1.47527 0
M  V30 8546 N 799.652 0.226554 1.55963 0
M  V30 8547 C 801.063 -0.280381 1.84583 0
M  V30 8548 C 801.414 -1.59105 1.14804 0
M  V30 8549 O 800.539 -2.12297 0.419414 0
M  V30 8550 C 801.134 -0.515499 3.34855 0
M  V30 8551 C 799.693 -0.966733 3.63774 0
M  V30 8552 C 798.84 -0.0325753 2.77281 0
M  V30 8553 H 801.791 0.449626 1.52197 0
M  V30 8554 H 801.812 -1.36085 3.55332 0
M  V30 8555 H 801.324 0.438594 3.85614 0
M  V30 8556 H 799.425 -1.93401 3.18476 0
M  V30 8557 H 799.538 -0.837679 4.7172 0
M  V30 8558 H 797.902 -0.540279 2.48904 0
M  V30 8559 H 798.685 0.916524 3.30839 0
M  V30 8560 N 801.13 -1.57531 -0.0467866 0
M  V30 8561 C 802.078 -2.06455 -1.0714 0
M  V30 8562 C 803.072 -0.974744 -1.38546 0
M  V30 8563 O 804.278 -1.15974 -1.37659 0
M  V30 8564 H 800.653 -0.658607 -0.362962 0
M  V30 8565 H 802.624 -2.91613 -0.632813 0
M  V30 8566 C 801.373 -2.54481 -2.36927 0
M  V30 8567 H 800.696 -3.37946 -2.13617 0
M  V30 8568 H 802.136 -2.92442 -3.07007 0
M  V30 8569 C 800.595 -1.43836 -3.04652 0
M  V30 8570 O 801.125 -0.794531 -3.93764 0
M  V30 8571 N 799.331 -1.17727 -2.65686 0
M  V30 8572 H 798.878 -1.70265 -1.93307 0
M  V30 8573 H 798.836 -0.439051 -3.11319 0
M  V30 8574 N 802.608 0.318715 -1.54344 0
M  V30 8575 C 803.833 1.07987 -1.77069 0
M  V30 8576 C 804.258 1.80766 -0.520117 0
M  V30 8577 O 803.616 1.73424 0.528566 0
M  V30 8578 C 803.664 2.04987 -2.96669 0
M  V30 8579 O 802.768 3.12974 -2.68554 0
M  V30 8580 H 802.109 0.311109 -0.586606 0
M  V30 8581 H 804.639 0.361533 -2.0138 0
M  V30 8582 H 804.649 2.47771 -3.2415 0
M  V30 8583 H 803.324 1.51417 -3.87357 0
M  V30 8584 H 801.901 2.74831 -2.52037 0
M  V30 8585 N 804.086 1.46499 0.581025 0
M  V30 8586 C 805.033 1.5719 1.68997 0
M  V30 8587 C 806.003 0.416114 1.60803 0
M  V30 8588 O 807.188 0.633086 1.79991 0
M  V30 8589 C 804.328 1.56973 3.07333 0
M  V30 8590 C 803.441 2.83298 3.26139 0
M  V30 8591 C 802.576 2.74574 4.54734 0
M  V30 8592 C 801.615 3.9583 4.66889 0
M  V30 8593 N 800.752 3.85482 5.86811 0
M  V30 8594 H 805.592 2.51914 1.59196 0
M  V30 8595 H 803.129 1.24975 0.775857 0
M  V30 8596 H 805.087 1.54832 3.87405 0
M  V30 8597 H 803.717 0.657803 3.16027 0
M  V30 8598 H 802.769 2.95411 2.3966 0
M  V30 8599 H 804.081 3.7316 3.30988 0
M  V30 8600 H 803.235 2.70548 5.43036 0
M  V30 8601 H 801.974 1.82354 4.52325 0
M  V30 8602 H 800.979 4.00186 3.77003 0
M  V30 8603 H 802.204 4.89148 4.71075 0
M  V30 8604 H 800.15 2.96051 5.85397 0
M  V30 8605 H 800.067 4.69002 5.92936 0
M  V30 8606 H 801.335 3.85434 6.7754 0
M  V30 8607 N 805.565 -0.825799 1.34232 0
M  V30 8608 C 806.515 -1.92533 1.22128 0
M  V30 8609 C 807.499 -1.60444 0.121002 0
M  V30 8610 O 808.691 -1.73497 0.350385 0
M  V30 8611 C 805.82 -3.29134 0.975995 0
M  V30 8612 C 804.906 -3.6735 2.11931 0
M  V30 8613 N 805.297 -3.77154 3.37029 0
M  V30 8614 C 803.595 -3.97179 2.02891 0
M  V30 8615 C 804.296 -4.10552 4.12095 0
M  V30 8616 N 803.272 -4.23619 3.40658 0
M  V30 8617 H 807.074 -1.98287 2.16932 0
M  V30 8618 H 804.588 -1.01929 1.26429 0
M  V30 8619 H 806.585 -4.07717 0.870187 0
M  V30 8620 H 805.245 -3.24679 0.036606 0
M  V30 8621 H 806.256 -3.60723 3.71618 0
M  V30 8622 H 802.933 -4.00861 1.16692 0
M  V30 8623 H 804.323 -4.25365 5.2011 0
M  V30 8624 N 807.043 -1.17915 -1.04565 0
M  V30 8625 C 807.993 -0.869634 -2.10764 0
M  V30 8626 C 808.977 0.158502 -1.60117 0
M  V30 8627 O 810.169 -0.04483 -1.76943 0
M  V30 8628 C 807.298 -0.391642 -3.41059 0
M  V30 8629 C 806.384 -1.45156 -3.98485 0
M  V30 8630 N 806.775 -2.6667 -4.29792 0
M  V30 8631 C 805.073 -1.3109 -4.263 0
M  V30 8632 C 805.774 -3.34823 -4.75677 0
M  V30 8633 N 804.75 -2.62203 -4.76183 0
M  V30 8634 H 808.552 -1.79342 -2.32838 0
M  V30 8635 H 806.066 -1.0688 -1.22272 0
M  V30 8636 H 808.063 -0.151428 -4.16625 0
M  V30 8637 H 806.723 0.525862 -3.20413 0
M  V30 8638 H 807.734 -3.0358 -4.19594 0
M  V30 8639 H 804.411 -0.455545 -4.15007 0
M  V30 8640 H 805.801 -4.38645 -5.0896 0
M  V30 8641 O 808.56 1.1738 -1.10924 0
M  V30 8642 H 809.251 1.75813 -0.81298 0
M  V30 END ATOM
M  V30 BEGIN BOND
M  V30 END BOND
M  V30 END CTAB
M  END
$$$$
