drugbank_target|Q7KZI7 Serine/threonine-protein kinase MARK2 (DB12010)
 OpenBabel12092121173D

  0  0  0     0  0            999 V3000
M  V30 BEGIN CTAB
M  V30 COUNTS 12373 12497 0 0 0
M  V30 BEGIN ATOM
M  V30 1 H -0.908 1.98254 -0.117106 0
M  V30 2 N 0 1.576 0 0
M  V30 3 C 0.933 2.03868 1.02534 0
M  V30 4 C 1.911 0.928543 1.3348 0
M  V30 5 O 3.095 1.19667 1.45644 0
M  V30 6 C 0.222 2.43627 2.35294 0
M  V30 7 C -0.732 3.65373 2.2001 0
M  V30 8 S 0.101 5.13292 1.52614 0
M  V30 9 C 1.257 5.56322 2.86805 0
M  V30 10 H 1.49 2.90518 0.631377 0
M  V30 11 H -0.977 1.52953 0.210867 0
M  V30 12 H 0.981 2.67203 3.11629 0
M  V30 13 H -0.358 1.57376 2.7183 0
M  V30 14 H -1.165 3.90944 3.18086 0
M  V30 15 H -1.563 3.418 1.51819 0
M  V30 16 H 0.729 5.58782 3.83104 0
M  V30 17 H 1.672 6.56266 2.65933 0
M  V30 18 H 2.08 4.83886 2.90714 0
M  V30 19 N 1.4781 -0.272755 1.55222 0
M  V30 20 C 2.7031 -1.02683 1.80197 0
M  V30 21 C 3.1281 -1.79142 0.573551 0
M  V30 22 O 2.4861 -1.74917 -0.476849 0
M  V30 23 C 2.5341 -1.9609 3.02624 0
M  V30 24 O 1.6381 -3.04863 2.77727 0
M  V30 25 H 0.9791 -0.293557 0.595584 0
M  V30 26 H 3.5091 -0.30159 2.02365 0
M  V30 27 H 3.5191 -2.38039 3.31363 0
M  V30 28 H 2.1941 -1.39851 3.91682 0
M  V30 29 H 0.7711 -2.67228 2.60084 0
M  V30 30 N 2.9562 -1.48159 -0.537278 0
M  V30 31 C 4.1812 -1.59707 -1.32319 0
M  V30 32 C 4.6062 -0.254859 -1.86365 0
M  V30 33 O 3.9642 0.772378 -1.64024 0
M  V30 34 C 4.0122 -2.6412 -2.45505 0
M  V30 35 O 3.1162 -2.20774 -3.48328 0
M  V30 36 H 2.4572 -0.535791 -0.392204 0
M  V30 37 H 4.9872 -1.94092 -0.647268 0
M  V30 38 H 4.9972 -2.85166 -2.91795 0
M  V30 39 H 3.6722 -3.61567 -2.05528 0
M  V30 40 H 2.2492 -2.09911 -3.08207 0
M  V30 41 N 4.4343 0.785586 -1.36625 0
M  V30 42 C 5.3973 1.87999 -1.31107 0
M  V30 43 C 6.3973 1.59316 -0.217959 0
M  V30 44 O 7.5873 1.67656 -0.472977 0
M  V30 45 C 4.7193 3.24861 -1.03334 0
M  V30 46 H 5.9123 1.94307 -2.2844 0
M  V30 47 H 3.4653 0.983813 -1.21453 0
M  V30 48 H 4.2003 3.24235 -0.0647432 0
M  V30 49 H 3.9853 3.4707 -1.82441 0
M  V30 50 H 5.4753 4.04929 -1.02088 0
M  V30 51 N 5.9124 1.20967 1.01018 0
M  V30 52 C 7.3284 0.965905 1.27053 0
M  V30 53 C 7.5284 -0.350785 1.98423 0
M  V30 54 O 6.5844 -1.07773 2.28344 0
M  V30 55 C 7.8974 2.15294 2.09926 0
M  V30 56 C 9.4454 2.19463 2.23171 0
M  V30 57 C 9.9204 3.3767 3.09424 0
M  V30 58 N 11.4114 3.37724 3.17012 0
M  V30 59 C 12.1464 4.25837 3.83993 0
M  V30 60 N 11.6424 5.24138 4.53047 0
M  V30 61 N 13.4354 4.1366 3.80581 0
M  V30 62 H 5.5864 2.0565 0.531194 0
M  V30 63 H 7.8494 0.90024 0.297106 0
M  V30 64 H 7.5554 3.10684 1.64828 0
M  V30 65 H 7.4294 2.13923 3.10672 0
M  V30 66 H 9.8164 1.24632 2.6749 0
M  V30 67 H 9.8974 2.2488 1.21912 0
M  V30 68 H 9.5414 4.32791 2.65808 0
M  V30 69 H 9.4714 3.29491 4.10784 0
M  V30 70 H 11.9624 2.6658 2.6785 0
M  V30 71 H 12.2754 5.87684 5.01844 0
M  V30 72 H 10.6204 5.28068 4.5185 0
M  V30 73 H 13.8114 3.36127 3.25785 0
M  V30 74 H 13.9844 4.82538 4.32505 0
M  V30 75 N 7.3905 -1.2043 1.01659 0
M  V30 76 C 8.6185 -1.93777 0.725132 0
M  V30 77 C 9.0335 -1.74772 -0.714166 0
M  V30 78 O 8.3905 -1.06169 -1.4844 0
M  V30 79 C 8.4415 -3.45876 1.05129 0
M  V30 80 O 8.1625 -3.6426 2.43406 0
M  V30 81 C 9.6635 -4.36368 0.780891 0
M  V30 82 H 6.8835 -0.615901 0.266284 0
M  V30 83 H 9.4275 -1.52922 1.35776 0
M  V30 84 H 7.5825 -3.8461 0.464065 0
M  V30 85 H 7.9965 -4.58246 2.55169 0
M  V30 86 H 9.4705 -5.41743 1.05918 0
M  V30 87 H 9.9475 -4.38275 -0.284937 0
M  V30 88 H 10.5535 -4.03296 1.35027 0
M  V30 89 N 8.8686 -0.792821 -1.36206 0
M  V30 90 C 10.2796 -0.429513 -1.81692 0
M  V30 91 C 10.6306 1.04695 -1.65932 0
M  V30 92 O 9.7556 1.81256 -1.18218 0
M  V30 93 C 10.3506 -0.772831 -3.29868 0
M  V30 94 C 8.9096 -0.462307 -3.7355 0
M  V30 95 C 8.0566 -1.00569 -2.5842 0
M  V30 96 H 11.0076 -0.985672 -1.24379 0
M  V30 97 H 11.0286 -0.0651928 -3.80444 0
M  V30 98 H 10.5406 -1.84747 -3.41307 0
M  V30 99 H 8.6416 0.604158 -3.67669 0
M  V30 100 H 8.7546 -0.985299 -4.68859 0
M  V30 101 H 7.1186 -0.428734 -2.51066 0
M  V30 102 H 7.9016 -2.08616 -2.72643 0
M  V30 103 N 10.3467 1.47872 -0.545128 0
M  V30 104 C 11.2767 2.32661 0.197793 0
M  V30 105 C 12.2577 1.43041 0.920504 0
M  V30 106 O 13.4427 1.71912 0.90333 0
M  V30 107 C 10.5727 3.24569 1.23582 0
M  V30 108 C 9.5267 4.23333 0.630323 0
M  V30 109 C 8.8527 5.0448 1.77211 0
M  V30 110 C 10.1527 5.20704 -0.407974 0
M  V30 111 H 11.8467 2.95024 -0.510045 0
M  V30 112 H 9.3927 1.4187 -0.246731 0
M  V30 113 H 11.3457 3.8272 1.76362 0
M  V30 114 H 10.0697 2.60236 1.97344 0
M  V30 115 H 8.7287 3.6639 0.123922 0
M  V30 116 H 8.3767 4.36561 2.49847 0
M  V30 117 H 8.0767 5.71339 1.37281 0
M  V30 118 H 9.6007 5.65487 2.3034 0
M  V30 119 H 11.0147 5.7329 0.033305 0
M  V30 120 H 9.4117 5.95699 -0.725486 0
M  V30 121 H 10.4817 4.66917 -1.30828 0
M  V30 122 N 11.8248 0.280983 1.55075 0
M  V30 123 C 13.2358 -0.215629 1.85451 0
M  V30 124 C 13.5868 -1.54991 1.203 0
M  V30 125 O 12.7118 -2.10699 0.493435 0
M  V30 126 C 13.3068 -0.398026 3.36454 0
M  V30 127 C 11.8658 -0.838866 3.66933 0
M  V30 128 C 11.0128 0.064458 2.77225 0
M  V30 129 H 13.9638 0.502601 1.50531 0
M  V30 130 H 13.9848 -1.23569 3.59876 0
M  V30 131 H 13.4968 0.573241 3.83843 0
M  V30 132 H 11.5978 -1.8214 3.25048 0
M  V30 133 H 11.7108 -0.672123 4.74362 0
M  V30 134 H 10.0748 -0.452863 2.50642 0
M  V30 135 H 10.8578 1.03172 3.2743 0
M  V30 136 N 13.3029 -1.57598 0.00835791 0
M  V30 137 C 14.5309 -1.95214 -0.68549 0
M  V30 138 C 14.9459 -0.883706 -1.66841 0
M  V30 139 O 14.3029 0.136565 -1.81988 0
M  V30 140 C 14.3539 -3.32865 -1.41007 0
M  V30 141 O 14.0749 -4.35609 -0.466552 0
M  V30 142 C 15.5759 -3.84991 -2.19765 0
M  V30 143 H 12.7959 -0.643422 -0.190392 0
M  V30 144 H 15.3399 -2.04406 0.0619607 0
M  V30 145 H 13.4949 -3.24956 -2.10908 0
M  V30 146 H 13.9089 -5.15288 -0.978699 0
M  V30 147 H 15.3829 -4.8371 -2.65948 0
M  V30 148 H 15.8599 -3.18137 -3.02796 0
M  V30 149 H 16.4659 -3.96103 -1.54864 0
M  V30 150 N 14.781 0.264519 -1.55364 0
M  V30 151 C 15.711 1.33121 -1.91836 0
M  V30 152 C 16.692 1.51101 -0.781192 0
M  V30 153 O 17.877 1.64003 -1.04003 0
M  V30 154 C 15.007 2.68921 -2.19769 0
M  V30 155 C 13.961 2.65661 -3.35571 0
M  V30 156 C 13.287 4.05093 -3.49004 0
M  V30 157 C 14.587 2.24187 -4.71739 0
M  V30 158 H 16.281 1.02844 -2.81182 0
M  V30 159 H 13.827 0.493286 -1.35287 0
M  V30 160 H 15.78 3.43663 -2.43872 0
M  V30 161 H 14.504 3.00799 -1.27231 0
M  V30 162 H 13.163 1.93377 -3.1145 0
M  V30 163 H 12.811 4.34206 -2.53917 0
M  V30 164 H 12.511 4.03804 -4.26868 0
M  V30 165 H 14.035 4.81561 -3.75408 0
M  V30 166 H 15.449 2.88654 -4.9533 0
M  V30 167 H 13.846 2.34044 -5.52579 0
M  V30 168 H 14.916 1.19327 -4.69988 0
M  V30 169 N 16.2591 1.48442 0.529413 0
M  V30 170 C 17.2071 1.63452 1.65487 0
M  V30 171 C 18.2011 0.500955 1.61823 0
M  V30 172 O 19.4071 0.679695 1.66674 0
M  V30 173 H 15.7821 0.514905 0.548066 0
M  V30 174 H 17.7531 2.57975 1.49971 0
M  V30 175 C 16.5021 1.69196 3.03756 0
M  V30 176 H 15.8251 2.55784 3.07269 0
M  V30 177 H 17.2651 1.83743 3.82119 0
M  V30 178 C 15.7241 0.430765 3.34135 0
M  V30 179 O 16.2541 -0.4561 3.99102 0
M  V30 180 N 14.4601 0.302293 2.89023 0
M  V30 181 H 14.0071 1.02496 2.36331 0
M  V30 182 H 13.9651 -0.540546 3.09718 0
M  V30 183 N 17.7372 -0.778329 1.37039 0
M  V30 184 C 18.6472 -1.92253 1.34446 0
M  V30 185 C 19.6632 -1.72267 0.244991 0
M  V30 186 O 20.8392 -1.95615 0.479258 0
M  V30 187 C 17.9042 -3.27282 1.144 0
M  V30 188 C 16.9652 -3.59969 2.33925 0
M  V30 189 C 16.1982 -4.88555 2.14825 0
M  V30 190 O 16.4212 -5.59113 1.12912 0
M  V30 191 O 15.3552 -5.20153 3.02861 0
M  V30 192 H 19.1812 -1.97392 2.30803 0
M  V30 193 H 16.7662 -0.920154 1.17701 0
M  V30 194 H 18.6482 -4.08062 1.05182 0
M  V30 195 H 17.3232 -3.23011 0.211124 0
M  V30 196 H 16.2302 -2.7945 2.48714 0
M  V30 197 H 17.5632 -3.68976 3.25757 0
M  V30 198 N 19.2153 -1.21501 -1.00376 0
M  V30 199 C 20.6313 -0.972629 -1.26539 0
M  V30 200 C 20.8313 0.340257 -1.98606 0
M  V30 201 O 19.8873 1.06561 -2.28913 0
M  V30 202 C 21.2003 -2.16404 -2.08781 0
M  V30 203 C 22.7483 -2.20643 -2.22004 0
M  V30 204 C 23.2233 -3.39306 -3.07629 0
M  V30 205 N 24.7143 -3.39401 -3.15217 0
M  V30 206 C 25.4493 -4.27867 -3.81729 0
M  V30 207 N 24.9453 -5.26533 -4.5026 0
M  V30 208 N 26.7383 -4.15672 -3.78382 0
M  V30 209 H 18.8893 -2.05929 -0.520281 0
M  V30 210 H 21.1523 -0.901803 -0.292328 0
M  V30 211 H 20.8583 -3.11554 -1.63178 0
M  V30 212 H 20.7323 -2.15567 -3.09533 0
M  V30 213 H 23.1193 -1.26048 -2.66825 0
M  V30 214 H 23.2003 -2.25523 -1.20718 0
M  V30 215 H 22.8443 -4.34195 -2.63509 0
M  V30 216 H 22.7743 -3.31665 -4.09031 0
M  V30 217 H 25.2653 -2.67997 -2.66432 0
M  V30 218 H 25.5783 -5.90337 -4.98721 0
M  V30 219 H 23.9233 -5.30457 -4.49044 0
M  V30 220 H 27.1143 -3.3785 -3.23998 0
M  V30 221 H 27.2873 -4.84825 -4.2994 0
M  V30 222 N 20.6934 1.19889 -1.02296 0
M  V30 223 C 21.9704 1.85148 -0.630832 0
M  V30 224 C 22.3504 1.91385 0.890782 0
M  V30 225 O 21.6984 1.42642 1.78509 0
M  V30 226 C 21.9084 3.24442 -1.28602 0
M  V30 227 C 23.2564 4.00663 -1.4055 0
M  V30 228 O 24.2804 3.33818 -1.24273 0
M  V30 229 O 23.1394 5.20387 -1.66913 0
M  V30 230 H 20.2334 0.797613 -0.218499 0
M  V30 231 H 22.7794 1.27427 -1.12074 0
M  V30 232 H 21.5514 3.14704 -2.32545 0
M  V30 233 H 21.1744 3.89802 -0.7836 0
M  V30 234 N 22.1715 0.800033 1.35784 0
M  V30 235 C 23.3995 0.389606 2.03199 0
M  V30 236 C 23.8145 -0.997375 1.60306 0
M  V30 237 O 23.1715 -1.64154 0.797481 0
M  V30 238 C 23.2225 0.455855 3.58614 0
M  V30 239 O 22.9435 1.78815 3.99946 0
M  V30 240 C 24.4445 0.0374032 4.43284 0
M  V30 241 H 21.6645 0.159132 0.651857 0
M  V30 242 H 24.2085 1.08183 1.73541 0
M  V30 243 H 22.3635 -0.188057 3.86943 0
M  V30 244 H 22.7775 1.74636 4.94573 0
M  V30 245 H 24.2515 0.134882 5.51835 0
M  V30 246 H 24.7285 -1.01651 4.27275 0
M  V30 247 H 25.3345 0.654215 4.20238 0
M  V30 248 N 23.6496 -1.47581 0.552962 0
M  V30 249 C 24.5596 -2.33743 -0.200353 0
M  V30 250 C 25.5756 -1.47928 -0.916151 0
M  V30 251 O 26.7516 -1.80865 -0.885993 0
M  V30 252 C 23.8166 -3.24536 -1.21973 0
M  V30 253 C 22.8776 -4.26238 -0.511819 0
M  V30 254 C 22.1106 -5.12693 -1.48263 0
M  V30 255 O 22.3336 -5.01525 -2.71714 0
M  V30 256 O 21.2676 -5.93375 -1.00945 0
M  V30 257 H 25.0936 -2.9945 0.506304 0
M  V30 258 H 22.6786 -1.46071 0.313622 0
M  V30 259 H 24.5606 -3.80631 -1.80827 0
M  V30 260 H 23.2356 -2.61462 -1.90839 0
M  V30 261 H 22.1426 -3.73914 0.117799 0
M  V30 262 H 23.4756 -4.92014 0.135308 0
M  V30 263 N 25.1277 -0.289203 -1.54924 0
M  V30 264 C 26.0597 0.625583 -2.20497 0
M  V30 265 C 27.0727 1.10667 -1.19402 0
M  V30 266 O 28.2617 1.02615 -1.46056 0
M  V30 267 C 25.3617 1.86702 -2.82835 0
M  V30 268 C 24.5347 1.5304 -4.09753 0
M  V30 269 C 23.5937 2.62576 -4.56005 0
M  V30 270 O 22.6197 2.28167 -5.21468 0
M  V30 271 N 23.8217 3.92901 -4.27328 0
M  V30 272 H 26.5867 0.0642801 -2.99631 0
M  V30 273 H 24.1477 -0.110896 -1.6152 0
M  V30 274 H 26.1397 2.59304 -3.10715 0
M  V30 275 H 24.7097 2.33702 -2.07611 0
M  V30 276 H 23.9297 0.637564 -3.8901 0
M  V30 277 H 25.2177 1.28072 -4.92418 0
M  V30 278 H 24.6157 4.23671 -3.74859 0
M  V30 279 H 23.1727 4.61837 -4.59946 0
M  V30 280 N 26.6058 1.57591 -0.0167156 0
M  V30 281 C 28.0168 1.79201 0.523834 0
M  V30 282 C 28.3678 0.925796 1.72984 0
M  V30 283 O 27.4928 0.132792 2.15992 0
M  V30 284 C 28.0878 3.25 0.957091 0
M  V30 285 C 26.6468 3.47648 1.44283 0
M  V30 286 C 25.7938 2.74374 0.401757 0
M  V30 287 H 28.7448 1.56831 -0.242816 0
M  V30 288 H 28.7658 3.34031 1.82219 0
M  V30 289 H 28.2778 3.88019 0.0791415 0
M  V30 290 H 26.3788 2.89866 2.34113 0
M  V30 291 H 26.4918 4.56352 1.45877 0
M  V30 292 H 24.8558 2.39485 0.867121 0
M  V30 293 H 25.6388 3.40102 -0.467513 0
M  V30 294 N 28.0839 -0.256276 1.55502 0
M  V30 295 C 29.3119 -1.00342 1.8094 0
M  V30 296 C 29.7269 -1.79307 0.59114 0
M  V30 297 O 29.0839 -1.77114 -0.440081 0
M  V30 298 C 29.1349 -1.94875 3.04476 0
M  V30 299 O 28.8559 -1.19107 4.21598 0
M  V30 300 C 30.3569 -2.81266 3.42644 0
M  V30 301 H 27.5769 -0.295685 0.602338 0
M  V30 302 H 30.1209 -0.281998 2.02546 0
M  V30 303 H 28.2759 -2.62457 2.84947 0
M  V30 304 H 28.6899 -1.82969 4.91551 0
M  V30 305 H 30.1639 -3.43362 4.32211 0
M  V30 306 H 30.6409 -3.51897 2.62802 0
M  V30 307 H 31.2469 -2.1915 3.64491 0
M  V30 308 N 29.562 -1.4872 -0.521534 0
M  V30 309 C 30.492 -1.66771 -1.63431 0
M  V30 310 C 31.473 -0.516499 -1.62069 0
M  V30 311 O 32.658 -0.750013 -1.79132 0
M  V30 312 C 29.788 -1.71515 -3.01993 0
M  V30 313 C 28.742 -2.86222 -3.18216 0
M  V30 314 C 28.068 -2.76061 -4.57924 0
M  V30 315 C 29.368 -4.27419 -3.00184 0
M  V30 316 H 31.062 -2.59932 -1.48579 0
M  V30 317 H 28.608 -1.25089 -0.713358 0
M  V30 318 H 30.561 -1.82731 -3.7972 0
M  V30 319 H 29.285 -0.749393 -3.17886 0
M  V30 320 H 27.944 -2.74575 -2.42908 0
M  V30 321 H 27.592 -1.77437 -4.70665 0
M  V30 322 H 27.292 -3.53037 -4.69722 0
M  V30 323 H 28.816 -2.89256 -5.37739 0
M  V30 324 H 30.23 -4.39855 -3.67697 0
M  V30 325 H 28.627 -5.05458 -3.2347 0
M  V30 326 H 29.697 -4.43293 -1.96518 0
M  V30 327 N 31.0401 0.771051 -1.3745 0
M  V30 328 C 32.2881 1.52661 -1.32435 0
M  V30 329 C 32.6091 1.9479 0.0905024 0
M  V30 330 O 31.8791 1.66348 1.03466 0
M  V30 331 H 30.4591 0.566218 -0.487244 0
M  V30 332 H 33.1211 0.917636 -1.71946 0
M  V30 333 H 32.2171 2.42568 -1.96385 0
M  V30 334 N 32.5182 1.22032 0.997298 0
M  V30 335 C 33.4682 0.953838 2.07089 0
M  V30 336 C 34.4522 -0.0938669 1.60626 0
M  V30 337 O 35.6442 0.116078 1.76619 0
M  V30 338 C 32.7732 0.528726 3.39204 0
M  V30 339 C 31.8592 1.61092 3.92314 0
M  V30 340 N 32.2502 2.83768 4.18699 0
M  V30 341 C 30.5482 1.48158 4.20672 0
M  V30 342 C 31.2492 3.53715 4.61802 0
M  V30 343 N 30.2252 2.81174 4.65233 0
M  V30 344 H 34.0272 1.88577 2.25424 0
M  V30 345 H 31.5412 1.11719 1.17867 0
M  V30 346 H 33.5382 0.31915 4.15677 0
M  V30 347 H 32.1982 -0.39635 3.22272 0
M  V30 348 H 33.2092 3.20238 4.07023 0
M  V30 349 H 29.8862 0.622369 4.12835 0
M  V30 350 H 31.2762 4.58793 4.90875 0
M  V30 351 N 33.9963 -1.19345 1.0293 0
M  V30 352 C 34.9263 -2.2481 0.631105 0
M  V30 353 C 35.9073 -1.66245 -0.360104 0
M  V30 354 O 37.0923 -1.92677 -0.242726 0
M  V30 355 C 34.2223 -3.47295 -0.0184607 0
M  V30 356 C 33.1763 -4.18536 0.895073 0
M  V30 357 C 32.5023 -5.34586 0.110592 0
M  V30 358 C 33.8023 -4.73287 2.209 0
M  V30 359 H 35.4963 -2.58372 1.51275 0
M  V30 360 H 33.0423 -1.24194 0.728818 0
M  V30 361 H 34.9953 -4.20268 -0.308675 0
M  V30 362 H 33.7193 -3.12933 -0.934907 0
M  V30 363 H 32.3783 -3.47446 1.16949 0
M  V30 364 H 32.0263 -4.96469 -0.807902 0
M  V30 365 H 31.7263 -5.83183 0.719087 0
M  V30 366 H 33.2503 -6.10355 -0.172871 0
M  V30 367 H 34.6643 -5.38013 1.98028 0
M  V30 368 H 33.0613 -5.32373 2.76946 0
M  V30 369 H 34.1313 -3.91331 2.86336 0
M  V30 370 N 35.4744 -0.807222 -1.35358 0
M  V30 371 C 36.7514 -0.311126 -1.9311 0
M  V30 372 C 37.1314 1.19937 -1.73719 0
M  V30 373 O 36.4794 1.99918 -1.10657 0
M  V30 374 C 36.6894 -0.723226 -3.41424 0
M  V30 375 C 38.0374 -0.713078 -4.18569 0
M  V30 376 O 39.0614 -0.664811 -3.49941 0
M  V30 377 O 37.9204 -0.772022 -5.41019 0
M  V30 378 H 35.0144 -0.081526 -0.822972 0
M  V30 379 H 37.5604 -0.890962 -1.4443 0
M  V30 380 H 36.3324 -1.76426 -3.4927 0
M  V30 381 H 35.9554 -0.118232 -3.97424 0
M  V30 382 N 36.9525 1.47285 -0.560781 0
M  V30 383 C 38.1775 2.07359 -0.0410566 0
M  V30 384 C 38.6025 1.41017 1.24483 0
M  V30 385 O 37.9605 0.486368 1.74654 0
M  V30 386 C 38.0085 3.6035 0.134123 0
M  V30 387 O 37.1125 3.94681 1.19587 0
M  V30 388 H 36.4535 0.661887 -0.0529291 0
M  V30 389 H 38.9835 1.89252 -0.777482 0
M  V30 390 H 38.9935 4.0652 0.347207 0
M  V30 391 H 37.6685 4.08034 -0.805047 0
M  V30 392 H 36.2455 3.60251 0.962987 0
M  V30 393 N 38.4306 0.297415 1.54768 0
M  V30 394 C 39.3776 -0.580276 2.23386 0
M  V30 395 C 40.3476 -1.13238 1.21517 0
M  V30 396 O 41.5326 -1.17757 1.50126 0
M  V30 397 C 38.6726 -1.74801 2.97555 0
M  V30 398 C 37.7856 -1.22764 4.1419 0
M  V30 399 C 36.9206 -2.35895 4.75949 0
M  V30 400 C 35.9596 -1.80974 5.84735 0
M  V30 401 N 35.0966 -2.87664 6.40464 0
M  V30 402 H 39.9366 0.0114833 2.97998 0
M  V30 403 H 37.4736 0.0174361 1.4709 0
M  V30 404 H 39.4316 -2.43475 3.38786 0
M  V30 405 H 38.0616 -2.31145 2.25326 0
M  V30 406 H 37.1136 -0.433271 3.77924 0
M  V30 407 H 38.4256 -0.785551 4.92575 0
M  V30 408 H 37.5796 -3.12523 5.20014 0
M  V30 409 H 36.3186 -2.83429 3.96887 0
M  V30 410 H 35.3236 -1.02834 5.40097 0
M  V30 411 H 36.5486 -1.34348 6.65678 0
M  V30 412 H 34.4946 -3.34538 5.64287 0
M  V30 413 H 34.4116 -2.4794 7.14186 0
M  V30 414 H 35.6796 -3.642 6.89187 0
M  V30 415 N 39.9087 -1.5758 0.0250728 0
M  V30 416 C 41.3197 -1.79476 -0.514323 0
M  V30 417 C 41.6707 -0.934956 -1.72491 0
M  V30 418 O 40.7957 -0.144245 -2.15919 0
M  V30 419 C 41.3907 -3.25503 -0.939842 0
M  V30 420 C 39.9497 -3.48408 -1.42438 0
M  V30 421 C 39.0967 -2.74583 -0.387201 0
M  V30 422 H 42.0477 -1.567 0.25113 0
M  V30 423 H 42.0687 -3.34992 -1.80445 0
M  V30 424 H 41.5807 -3.88056 -0.0585628 0
M  V30 425 H 39.6817 -2.91103 -2.32572 0
M  V30 426 H 39.7947 -4.57119 -1.43455 0
M  V30 427 H 38.1587 -2.39942 -0.854409 0
M  V30 428 H 38.9417 -3.39849 0.485543 0
M  V30 429 N 41.3868 0.248026 -1.55636 0
M  V30 430 C 42.6118 0.998028 -1.81808 0
M  V30 431 C 43.0368 1.78207 -0.601979 0
M  V30 432 O 42.3948 1.75653 0.448961 0
M  V30 433 C 42.4428 1.9125 -3.05705 0
M  V30 434 O 41.5468 3.00406 -2.82542 0
M  V30 435 H 40.8878 0.284045 -0.600179 0
M  V30 436 H 43.4178 0.269357 -2.02819 0
M  V30 437 H 43.4278 2.32737 -3.35108 0
M  V30 438 H 42.1028 1.33602 -3.93857 0
M  V30 439 H 40.6798 2.63056 -2.64303 0
M  V30 440 N 42.8649 1.48995 0.513639 0
M  V30 441 C 44.0899 1.61792 1.29762 0
M  V30 442 C 44.5149 0.284475 1.85936 0
M  V30 443 O 43.8729 -0.746185 1.65232 0
M  V30 444 C 43.9209 2.67993 2.41272 0
M  V30 445 O 43.0249 2.26287 3.44772 0
M  V30 446 H 42.3659 0.541963 0.38363 0
M  V30 447 H 44.8959 1.95097 0.616307 0
M  V30 448 H 44.9059 2.89772 2.87221 0
M  V30 449 H 43.5809 3.64791 1.9975 0
M  V30 450 H 42.1579 2.14788 3.04829 0
M  V30 451 N 44.343 -0.763751 1.37857 0
M  V30 452 C 45.29 -1.87726 1.34267 0
M  V30 453 C 46.26 -1.64807 0.206879 0
M  V30 454 O 47.445 -1.86613 0.397508 0
M  V30 455 C 44.585 -3.24896 1.16346 0
M  V30 456 C 43.698 -3.59716 2.39225 0
M  V30 457 C 42.833 -4.86137 2.14114 0
M  V30 458 C 41.872 -5.13711 3.32817 0
M  V30 459 N 41.009 -6.31323 3.07206 0
M  V30 460 H 45.849 -1.90129 2.29466 0
M  V30 461 H 43.386 -0.929433 1.14017 0
M  V30 462 H 45.344 -4.04036 1.03975 0
M  V30 463 H 43.974 -3.21847 0.247909 0
M  V30 464 H 43.026 -2.75498 2.62307 0
M  V30 465 H 44.338 -3.76027 3.27728 0
M  V30 466 H 43.492 -5.73198 1.9882 0
M  V30 467 H 42.231 -4.71945 1.22961 0
M  V30 468 H 41.236 -4.25123 3.48641 0
M  V30 469 H 42.461 -5.29807 4.24832 0
M  V30 470 H 40.407 -6.18474 2.1869 0
M  V30 471 H 40.324 -6.48087 3.89254 0
M  V30 472 H 41.592 -7.213 2.95546 0
M  V30 473 N 45.8211 -1.22559 -0.990812 0
M  V30 474 C 47.0461 -1.07862 -1.77145 0
M  V30 475 C 47.4711 0.366447 -1.84496 0
M  V30 476 O 46.8291 1.26478 -1.29896 0
M  V30 477 C 46.8771 -1.69686 -3.18181 0
M  V30 478 O 45.9811 -0.951946 -4.01263 0
M  V30 479 H 45.3221 -0.378712 -0.545411 0
M  V30 480 H 47.8521 -1.62399 -1.2445 0
M  V30 481 H 47.8621 -1.74496 -3.68802 0
M  V30 482 H 46.5371 -2.74841 -3.12146 0
M  V30 483 H 45.1141 -0.980011 -3.59792 0
M  V30 484 N 47.2992 1.18797 -1.03562 0
M  V30 485 C 48.2472 2.24297 -0.615905 0
M  V30 486 C 49.2412 1.65643 0.354808 0
M  V30 487 O 50.4472 1.78618 0.22265 0
M  V30 488 H 46.8222 0.729909 -0.180934 0
M  V30 489 H 48.7932 2.5701 -1.5162 0
M  V30 490 C 47.5422 3.47698 0.0104735 0
M  V30 491 H 46.8652 3.93125 -0.727509 0
M  V30 492 H 48.3052 4.23159 0.266995 0
M  V30 493 C 46.7642 3.12489 1.25905 0
M  V30 494 O 47.2942 3.25761 2.35038 0
M  V30 495 N 45.5002 2.6686 1.15039 0
M  V30 496 H 45.0472 2.56261 0.262328 0
M  V30 497 H 45.0052 2.43674 1.98672 0
M  V30 498 N 48.7773 0.814389 1.34928 0
M  V30 499 C 49.7103 0.175641 2.27523 0
M  V30 500 C 50.6883 -0.662953 1.48471 0
M  V30 501 O 51.8723 -0.628545 1.77712 0
M  V30 502 C 48.9993 -0.755516 3.30166 0
M  V30 503 C 48.0453 0.00445305 4.265 0
M  V30 504 S 48.8783 1.34582 5.18313 0
M  V30 505 C 50.0343 0.419315 6.24494 0
M  V30 506 H 50.2673 0.960691 2.8135 0
M  V30 507 H 47.8003 0.609846 1.41846 0
M  V30 508 H 49.7583 -1.28723 3.89796 0
M  V30 509 H 48.4193 -1.51402 2.75202 0
M  V30 510 H 47.6123 -0.703077 4.99072 0
M  V30 511 H 47.2143 0.466447 3.7108 0
M  V30 512 H 49.5063 -0.392432 6.76362 0
M  V30 513 H 50.4493 1.11446 6.99275 0
M  V30 514 H 50.8573 0.0115389 5.64499 0
M  V30 515 N 50.2554 -1.46986 0.568584 0
M  V30 516 C 51.5044 -2.01646 0.0465894 0
M  V30 517 C 51.8174 -1.44721 -1.31587 0
M  V30 518 O 53.0234 -1.91113 -1.92842 0
M  V30 519 C 51.4794 -3.59885 0.032752 0
M  V30 520 C 51.0874 -4.25804 1.39266 0
M  V30 521 C 52.8314 -4.22255 -0.436038 0
M  V30 522 C 50.7384 -5.76081 1.33732 0
M  V30 523 H 49.6684 -0.753876 0.013647 0
M  V30 524 H 52.3194 -1.68864 0.718131 0
M  V30 525 H 50.7014 -3.8968 -0.704669 0
M  V30 526 H 51.8754 -4.07637 2.1487 0
M  V30 527 H 50.1904 -3.7547 1.80032 0
M  V30 528 H 52.7874 -5.32394 -0.49602 0
M  V30 529 H 53.1304 -3.90212 -1.45053 0
M  V30 530 H 53.6634 -3.97033 0.246877 0
M  V30 531 H 50.4024 -6.12761 2.32817 0
M  V30 532 H 49.9224 -5.96553 0.623267 0
M  V30 533 H 51.6014 -6.38518 1.0442 0
M  V30 534 N 51.7335 -0.305618 -1.54608 0
M  V30 535 C 53.1495 0.0476228 -1.59529 0
M  V30 536 C 53.3495 1.52025 -1.32252 0
M  V30 537 O 52.4055 2.27368 -1.09818 0
M  V30 538 C 53.7185 -0.354471 -2.98603 0
M  V30 539 C 55.2665 -0.303622 -3.11524 0
M  V30 540 C 55.7415 -0.680608 -4.52915 0
M  V30 541 N 57.2325 -0.63332 -4.5885 0
M  V30 542 C 57.9675 -0.897432 -5.66334 0
M  V30 543 N 57.4635 -1.22775 -6.81834 0
M  V30 544 N 59.2565 -0.824186 -5.56025 0
M  V30 545 H 51.4075 -1.2653 -1.70599 0
M  V30 546 H 53.6705 -0.513291 -0.797017 0
M  V30 547 H 53.3765 -1.3798 -3.23503 0
M  V30 548 H 53.2505 0.289568 -3.76087 0
M  V30 549 H 55.6375 0.712472 -2.8637 0
M  V30 550 H 55.7185 -0.982348 -2.36185 0
M  V30 551 H 55.3625 -1.69453 -4.78799 0
M  V30 552 H 55.2925 0.0202385 -5.26596 0
M  V30 553 H 57.7835 -0.389138 -3.75891 0
M  V30 554 H 58.0965 -1.41513 -7.59733 0
M  V30 555 H 56.4415 -1.26583 -6.83375 0
M  V30 556 H 59.6325 -0.565748 -4.64669 0
M  V30 557 H 59.8055 -1.03338 -6.39707 0
M  V30 558 N 53.2116 1.57565 -0.0334293 0
M  V30 559 C 54.4596 1.91598 0.642999 0
M  V30 560 C 54.7806 0.910847 1.7242 0
M  V30 561 O 54.0506 -0.0469931 1.95844 0
M  V30 562 H 52.6306 0.707228 0.240496 0
M  V30 563 H 55.2926 1.94726 -0.0822488 0
M  V30 564 H 54.3886 2.92336 1.09298 0
M  V30 565 N 54.6897 -0.239769 1.55765 0
M  V30 566 C 56.1057 -0.588624 1.48349 0
M  V30 567 C 56.3057 -1.88005 0.72502 0
M  V30 568 O 55.3617 -2.51186 0.257269 0
M  V30 569 C 56.6747 -0.68474 2.928 0
M  V30 570 C 58.2227 -0.77659 3.03213 0
M  V30 571 C 58.6977 -0.904207 4.48986 0
M  V30 572 N 60.1887 -0.968896 4.52953 0
M  V30 573 C 60.9237 -1.08703 5.63002 0
M  V30 574 N 60.4197 -1.17026 6.82845 0
M  V30 575 N 62.2127 -1.12074 5.50814 0
M  V30 576 H 54.3637 0.607911 2.03515 0
M  V30 577 H 56.6267 0.21083 0.924259 0
M  V30 578 H 56.3327 0.194284 3.51163 0
M  V30 579 H 56.2067 -1.55435 3.43686 0
M  V30 580 H 58.5937 -1.64606 2.44926 0
M  V30 581 H 58.6747 0.118315 2.55526 0
M  V30 582 H 58.3187 -0.0392633 5.07885 0
M  V30 583 H 58.2487 -1.81426 4.9436 0
M  V30 584 H 60.7397 -0.915633 3.6664 0
M  V30 585 H 61.0527 -1.25966 7.62465 0
M  V30 586 H 59.3977 -1.13971 6.85591 0
M  V30 587 H 62.5887 -1.05226 4.5612 0
M  V30 588 H 62.7617 -1.20936 6.36615 0
M  V30 589 N 56.1678 -1.49265 -0.50573 0
M  V30 590 C 57.1158 -1.66065 -1.62866 0
M  V30 591 C 58.1098 -0.526636 -1.61006 0
M  V30 592 O 59.3158 -0.706126 -1.65571 0
M  V30 593 H 55.6908 -0.52356 -0.539805 0
M  V30 594 H 57.6618 -2.60329 -1.45848 0
M  V30 595 C 56.4108 -1.74008 -3.01026 0
M  V30 596 H 55.7338 -2.6064 -3.03161 0
M  V30 597 H 57.1738 -1.89798 -3.79147 0
M  V30 598 C 55.6328 -0.483868 -3.33407 0
M  V30 599 O 56.1628 0.392548 -3.99777 0
M  V30 600 N 54.3688 -0.348236 -2.88506 0
M  V30 601 H 53.9158 -1.06242 -2.34671 0
M  V30 602 H 53.8738 0.491204 -3.10539 0
M  V30 603 N 57.6459 0.756429 -1.3826 0
M  V30 604 C 58.8709 1.55077 -1.37717 0
M  V30 605 C 59.2959 1.88073 0.03164 0
M  V30 606 O 58.6539 1.50364 1.01293 0
M  V30 607 C 58.7019 2.8283 -2.23695 0
M  V30 608 O 57.8059 3.77862 -1.6521 0
M  V30 609 H 57.1469 0.469152 -0.469885 0
M  V30 610 H 59.6769 0.935019 -1.81985 0
M  V30 611 H 59.6869 3.31783 -2.37453 0
M  V30 612 H 58.3619 2.58144 -3.2609 0
M  V30 613 H 56.9389 3.36555 -1.60578 0
M  V30 614 N 59.124 1.23083 0.984299 0
M  V30 615 C 60.087 1.00979 2.05757 0
M  V30 616 C 61.087 -0.0269573 1.60777 0
M  V30 617 O 62.277 0.212403 1.729 0
M  V30 618 C 59.409 0.527072 3.36801 0
M  V30 619 H 60.602 1.9622 2.26799 0
M  V30 620 H 58.155 1.05072 1.15714 0
M  V30 621 H 58.89 -0.429294 3.21446 0
M  V30 622 H 58.675 1.27515 3.70786 0
M  V30 623 H 60.165 0.392942 4.15747 0
M  V30 624 N 60.6021 -1.18246 1.0419 0
M  V30 625 C 61.8301 -1.92195 0.766072 0
M  V30 626 C 62.2451 -1.76247 -0.676933 0
M  V30 627 O 61.6021 -1.09293 -1.46155 0
M  V30 628 C 61.6531 -3.43568 1.12442 0
M  V30 629 O 61.3741 -3.59015 2.51078 0
M  V30 630 C 62.8751 -4.34613 0.873275 0
M  V30 631 H 60.0951 -0.610114 0.279288 0
M  V30 632 H 62.6391 -1.50007 1.38989 0
M  V30 633 H 60.7941 -3.8354 0.545542 0
M  V30 634 H 61.2081 -4.5273 2.64831 0
M  V30 635 H 62.6821 -5.39374 1.17385 0
M  V30 636 H 63.1591 -4.38781 -0.191909 0
M  V30 637 H 63.7651 -4.00341 1.43551 0
M  V30 638 N 62.0802 -0.821533 -1.34494 0
M  V30 639 C 63.3052 -0.420873 -2.03085 0
M  V30 640 C 63.7302 0.964915 -1.61465 0
M  V30 641 O 63.0882 1.62763 -0.798607 0
M  V30 642 C 63.1362 -0.529414 -3.56693 0
M  V30 643 O 62.2402 0.451302 -4.09923 0
M  V30 644 H 61.5812 -0.173489 -0.640935 0
M  V30 645 H 64.1112 -1.11157 -1.71771 0
M  V30 646 H 64.1212 -0.404671 -4.05988 0
M  V30 647 H 62.7962 -1.54014 -3.86332 0
M  V30 648 H 61.3732 0.285558 -3.71805 0
M  V30 649 N 63.5583 1.46682 -0.576371 0
M  V30 650 C 64.5213 2.28707 0.150239 0
M  V30 651 C 65.5213 1.38035 0.824794 0
M  V30 652 O 66.7113 1.60476 0.677719 0
M  V30 653 C 63.8433 3.18248 1.22192 0
M  V30 654 H 65.0363 2.94423 -0.570521 0
M  V30 655 H 62.5893 1.52688 -0.334078 0
M  V30 656 H 63.3243 2.57265 1.97447 0
M  V30 657 H 63.1093 3.85 0.742812 0
M  V30 658 H 64.5993 3.80001 1.73172 0
M  V30 659 N 65.0364 0.313813 1.54444 0
M  V30 660 C 66.3134 -0.345447 1.92525 0
M  V30 661 C 66.6934 -1.70667 1.24242 0
M  V30 662 O 66.0414 -2.25273 0.382654 0
M  V30 663 C 66.2514 -0.44737 3.46121 0
M  V30 664 C 67.5994 -0.712238 4.18584 0
M  V30 665 O 68.6234 -0.530678 3.52225 0
M  V30 666 O 67.4824 -1.06183 5.36085 0
M  V30 667 H 64.5764 -0.195407 0.803583 0
M  V30 668 H 67.1224 0.362813 1.65776 0
M  V30 669 H 65.8944 0.509043 3.87975 0
M  V30 670 H 65.5174 -1.20359 3.78945 0
M  V30 671 N 66.5145 -1.57545 0.0417849 0
M  V30 672 C 67.4245 -2.14451 -0.951213 0
M  V30 673 C 68.4405 -1.09992 -1.34825 0
M  V30 674 O 69.6165 -1.42114 -1.42708 0
M  V30 675 C 66.6815 -2.67063 -2.21084 0
M  V30 676 C 65.7425 -3.86284 -1.87304 0
M  V30 677 C 64.9755 -4.36378 -3.07261 0
M  V30 678 O 65.1985 -3.85587 -4.20332 0
M  V30 679 O 64.1325 -5.28077 -2.88822 0
M  V30 680 H 67.9585 -2.99601 -0.497287 0
M  V30 681 H 65.5435 -1.48317 -0.179567 0
M  V30 682 H 67.4255 -3.00914 -2.95006 0
M  V30 683 H 66.1005 -1.84989 -2.65633 0
M  V30 684 H 65.0075 -3.57338 -1.10727 0
M  V30 685 H 66.3405 -4.6956 -1.47562 0
M  V30 686 N 67.9926 0.231505 -1.5589 0
M  V30 687 C 68.9246 1.31006 -1.8807 0
M  V30 688 C 69.9376 1.43539 -0.768145 0
M  V30 689 O 71.1266 1.44614 -1.04638 0
M  V30 690 C 68.2266 2.68688 -2.06543 0
M  V30 691 C 67.3996 2.78228 -3.37502 0
M  V30 692 C 66.4586 3.96857 -3.4553 0
M  V30 693 O 65.4846 3.85662 -4.18633 0
M  V30 694 N 66.6866 5.1072 -2.75944 0
M  V30 695 H 69.4516 1.03731 -2.81176 0
M  V30 696 H 67.0126 0.421573 -1.56315 0
M  V30 697 H 69.0046 3.46412 -2.09239 0
M  V30 698 H 67.5746 2.88605 -1.20109 0
M  V30 699 H 66.7946 1.87059 -3.46991 0
M  V30 700 H 68.0826 2.81564 -4.23791 0
M  V30 701 H 67.4806 5.2271 -2.16311 0
M  V30 702 H 66.0376 5.86523 -2.84314 0
M  V30 703 N 69.4707 1.49531 0.497807 0
M  V30 704 C 70.8817 1.52344 1.07927 0
M  V30 705 C 71.2327 0.311469 1.93712 0
M  V30 706 O 70.3577 -0.578405 2.08527 0
M  V30 707 C 70.9527 2.76062 1.96405 0
M  V30 708 C 69.5117 2.81643 2.49709 0
M  V30 709 C 68.6587 2.46299 1.27404 0
M  V30 710 H 71.6097 1.56182 0.281576 0
M  V30 711 H 71.6307 2.56405 2.81135 0
M  V30 712 H 71.1427 3.64254 1.33943 0
M  V30 713 H 69.2437 1.97739 3.15801 0
M  V30 714 H 69.3567 3.83891 2.86643 0
M  V30 715 H 67.7207 1.98148 1.60029 0
M  V30 716 H 68.5037 3.36769 0.66645 0
M  V30 717 N 70.9488 -0.749086 1.3866 0
M  V30 718 C 71.8988 -1.85368 1.32751 0
M  V30 719 C 72.8828 -1.59511 0.210945 0
M  V30 720 O 74.0748 -1.71255 0.447299 0
M  V30 721 C 71.2038 -3.23131 1.15935 0
M  V30 722 C 70.2898 -3.54864 2.32233 0
M  V30 723 N 70.6808 -3.57625 3.57684 0
M  V30 724 C 68.9788 -3.85154 2.24883 0
M  V30 725 C 69.6798 -3.86753 4.34508 0
M  V30 726 N 68.6558 -4.03812 3.63918 0
M  V30 727 H 72.4578 -1.85787 2.27729 0
M  V30 728 H 69.9718 -0.946658 1.31955 0
M  V30 729 H 71.9688 -4.02185 1.09786 0
M  V30 730 H 70.6288 -3.23961 0.218947 0
M  V30 731 H 71.6398 -3.39276 3.91295 0
M  V30 732 H 68.3168 -3.93672 1.39027 0
M  V30 733 H 69.7068 -3.95474 5.43185 0
M  V30 734 N 72.4269 -1.23603 -0.977757 0
M  V30 735 C 73.6759 -1.06377 -1.71368 0
M  V30 736 C 73.9889 0.399062 -1.91486 0
M  V30 737 O 75.1949 0.691312 -2.62551 0
M  V30 738 C 73.6509 -1.85512 -3.08404 0
M  V30 739 C 73.2589 -3.36141 -2.96164 0
M  V30 740 C 75.0029 -1.76783 -3.85938 0
M  V30 741 C 72.9099 -4.07659 -4.28449 0
M  V30 742 H 71.8399 -0.394452 -0.642591 0
M  V30 743 H 74.4909 -1.47594 -1.09034 0
M  V30 744 H 72.8729 -1.37103 -3.71509 0
M  V30 745 H 74.0469 -3.92056 -2.42133 0
M  V30 746 H 72.3619 -3.45712 -2.32104 0
M  V30 747 H 74.9589 -2.27526 -4.83876 0
M  V30 748 H 75.3019 -0.731116 -4.0983 0
M  V30 749 H 75.8349 -2.22818 -3.2954 0
M  V30 750 H 72.5739 -5.11648 -4.09752 0
M  V30 751 H 72.0939 -3.5653 -4.82334 0
M  V30 752 H 73.7729 -4.141 -4.97122 0
M  V30 753 N 73.905 1.17692 -1.04816 0
M  V30 754 C 75.153 1.87488 -0.754497 0
M  V30 755 C 75.474 1.81205 0.720407 0
M  V30 756 O 74.744 1.23544 1.52032 0
M  V30 757 H 73.324 0.694101 -0.276102 0
M  V30 758 H 75.986 1.42793 -1.32651 0
M  V30 759 H 75.082 2.93328 -1.06606 0
M  V30 760 N 75.3831 0.828654 1.34056 0
M  V30 761 C 76.3311 0.242973 2.31327 0
M  V30 762 C 77.3251 -0.61944 1.57668 0
M  V30 763 O 78.5311 -0.51014 1.7262 0
M  V30 764 H 74.9061 0.059834 0.749616 0
M  V30 765 H 76.8771 1.07809 2.78244 0
M  V30 766 C 75.6261 -0.575733 3.429 0
M  V30 767 H 74.9491 0.0785582 3.99723 0
M  V30 768 H 76.3891 -0.951547 4.13185 0
M  V30 769 C 74.8481 -1.75044 2.87856 0
M  V30 770 O 75.3781 -2.84882 2.83205 0
M  V30 771 N 73.5841 -1.56903 2.44602 0
M  V30 772 H 73.1311 -0.675547 2.48584 0
M  V30 773 H 73.0891 -2.35652 2.08124 0
M  V30 774 N 76.8612 -1.46375 0.584142 0
M  V30 775 C 78.0912 -2.06461 0.0758195 0
M  V30 776 C 78.4992 -1.43322 -1.23512 0
M  V30 777 O 77.8422 -0.533216 -1.75791 0
M  V30 778 C 77.9042 -3.59131 -0.162773 0
M  V30 779 C 77.5682 -4.4447 1.06279 0
M  V30 780 C 78.5652 -4.80918 1.97519 0
M  V30 781 C 76.2502 -4.85584 1.28504 0
M  V30 782 C 78.2442 -5.57309 3.09331 0
M  V30 783 C 75.9312 -5.61734 2.4062 0
M  V30 784 C 76.9292 -5.9751 3.30863 0
M  V30 785 O 76.6172 -6.72121 4.41032 0
M  V30 786 H 76.3492 -0.673745 0.0551725 0
M  V30 787 H 78.9032 -1.88969 0.804984 0
M  V30 788 H 77.1332 -3.74936 -0.946565 0
M  V30 789 H 78.8222 -4.0114 -0.619782 0
M  V30 790 H 79.5882 -4.49732 1.81565 0
M  V30 791 H 75.4672 -4.57187 0.591702 0
M  V30 792 H 79.0112 -5.85152 3.79793 0
M  V30 793 H 74.9082 -5.92334 2.56537 0
M  V30 794 H 75.6762 -6.90547 4.39417 0
M  V30 795 N 78.3393 -0.321999 -1.54275 0
M  V30 796 C 79.7553 0.0306999 -1.5957 0
M  V30 797 C 79.9553 1.50614 -1.33857 0
M  V30 798 O 79.0113 2.2619 -1.12223 0
M  V30 799 C 80.3243 -0.386122 -2.98211 0
M  V30 800 C 81.8723 -0.336647 -3.11184 0
M  V30 801 C 82.3473 -0.728607 -4.52167 0
M  V30 802 N 83.8383 -0.681952 -4.58152 0
M  V30 803 C 84.5733 -0.957449 -5.6535 0
M  V30 804 N 84.0693 -1.3 -6.80494 0
M  V30 805 N 85.8623 -0.883113 -5.55119 0
M  V30 806 H 78.0133 -1.28332 -1.69247 0
M  V30 807 H 80.2763 -0.521716 -0.791528 0
M  V30 808 H 79.9823 -1.41404 -3.22022 0
M  V30 809 H 79.8563 0.249662 -3.76373 0
M  V30 810 H 82.2433 0.682058 -2.8711 0
M  V30 811 H 82.3243 -1.00734 -2.3513 0
M  V30 812 H 81.9683 -1.74522 -4.76974 0
M  V30 813 H 81.8983 -0.0356152 -5.26588 0
M  V30 814 H 84.3893 -0.428985 -3.75457 0
M  V30 815 H 84.7023 -1.49563 -7.58189 0
M  V30 816 H 83.0473 -1.33824 -6.81994 0
M  V30 817 H 86.2383 -0.615001 -4.64042 0
M  V30 818 H 86.4113 -1.10118 -6.38575 0
M  V30 819 N 79.8174 1.5752 -0.0501392 0
M  V30 820 C 80.7474 2.14502 0.922566 0
M  V30 821 C 81.7284 1.06642 1.3252 0
M  V30 822 O 82.9134 1.34577 1.4001 0
M  V30 823 C 80.0434 2.68916 2.19776 0
M  V30 824 C 78.9974 3.8175 1.93523 0
M  V30 825 C 78.3234 4.22677 3.27487 0
M  V30 826 C 79.6234 5.06932 1.25765 0
M  V30 827 H 81.3174 2.9603 0.447952 0
M  V30 828 H 78.8634 1.42401 0.214024 0
M  V30 829 H 80.8164 3.07419 2.88222 0
M  V30 830 H 79.5404 1.84578 2.69441 0
M  V30 831 H 78.1994 3.43718 1.27489 0
M  V30 832 H 77.8474 3.35291 3.74952 0
M  V30 833 H 77.5474 4.98725 3.1072 0
M  V30 834 H 79.0714 4.63779 3.97166 0
M  V30 835 H 80.4854 5.42888 1.84244 0
M  V30 836 H 78.8824 5.88116 1.19328 0
M  V30 837 H 79.9524 4.84337 0.233536 0
M  V30 838 N 81.2955 -0.223234 1.56011 0
M  V30 839 C 82.2255 -1.27988 1.95298 0
M  V30 840 C 83.2065 -1.48976 0.820979 0
M  V30 841 O 84.3915 -1.61188 1.08315 0
M  V30 842 C 81.5215 -2.63 2.26822 0
M  V30 843 C 80.4755 -2.56671 3.42497 0
M  V30 844 C 79.8015 -3.95697 3.59622 0
M  V30 845 C 81.1015 -2.11601 4.77517 0
M  V30 846 H 82.7955 -0.953525 2.8381 0
M  V30 847 H 80.3415 -0.457244 1.36548 0
M  V30 848 H 82.2945 -3.37077 2.52898 0
M  V30 849 H 81.0185 -2.9732 1.35161 0
M  V30 850 H 79.6775 -1.85051 3.16467 0
M  V30 851 H 79.3255 -4.27322 2.6534 0
M  V30 852 H 79.0255 -3.92345 4.37424 0
M  V30 853 H 80.5495 -4.71438 3.88044 0
M  V30 854 H 81.9635 -2.7542 5.02809 0
M  V30 855 H 80.3605 -2.19311 5.5859 0
M  V30 856 H 81.4305 -1.06824 4.72987 0
M  V30 857 N 82.7736 -1.49793 -0.48987 0
M  V30 858 C 83.7206 -1.67281 -1.59014 0
M  V30 859 C 84.6906 -0.514177 -1.57941 0
M  V30 860 O 85.8756 -0.742533 -1.75759 0
M  V30 861 C 83.0156 -1.75569 -2.97102 0
M  V30 862 C 82.1286 -3.0281 -3.08107 0
M  V30 863 C 81.2636 -3.02008 -4.36995 0
M  V30 864 C 80.3026 -4.23782 -4.41673 0
M  V30 865 N 79.4396 -4.20826 -5.62005 0
M  V30 866 H 84.2796 -2.61224 -1.43409 0
M  V30 867 H 81.8166 -1.29508 -0.697565 0
M  V30 868 H 83.7746 -1.78354 -3.77155 0
M  V30 869 H 82.4046 -0.850827 -3.11385 0
M  V30 870 H 81.4566 -3.09584 -2.21047 0
M  V30 871 H 82.7686 -3.92801 -3.07423 0
M  V30 872 H 81.9226 -3.03418 -5.25378 0
M  V30 873 H 80.6616 -2.09815 -4.4026 0
M  V30 874 H 79.6666 -4.22604 -3.5169 0
M  V30 875 H 80.8916 -5.17181 -4.40115 0
M  V30 876 H 78.8376 -3.31476 -5.66091 0
M  V30 877 H 78.7546 -5.04564 -5.62984 0
M  V30 878 H 80.0226 -4.26355 -6.52565 0
M  V30 879 N 84.2517 0.741722 -1.39055 0
M  V30 880 C 85.4797 1.53098 -1.39171 0
M  V30 881 C 85.8947 1.88794 0.0155099 0
M  V30 882 O 85.2517 1.53626 0.985159 0
M  V30 883 C 85.3027 2.82274 -2.2584 0
M  V30 884 O 85.0237 2.48097 -3.61081 0
M  V30 885 C 86.5247 3.76343 -2.34266 0
M  V30 886 H 83.7447 0.473335 -0.4756 0
M  V30 887 H 86.2887 0.917045 -1.82785 0
M  V30 888 H 84.4437 3.40015 -1.85656 0
M  V30 889 H 84.8577 3.31029 -4.06842 0
M  V30 890 H 86.3317 4.63898 -2.9917 0
M  V30 891 H 86.8087 4.17619 -1.35982 0
M  V30 892 H 87.4147 3.24523 -2.74891 0
M  V30 893 N 85.7298 1.2412 0.971189 0
M  V30 894 C 86.9788 1.07284 1.70801 0
M  V30 895 C 87.2918 -0.388902 1.91695 0
M  V30 896 O 88.4978 -0.677379 2.62914 0
M  V30 897 C 86.9538 1.87145 3.07416 0
M  V30 898 C 86.5618 3.37707 2.94377 0
M  V30 899 C 88.3058 1.78828 3.84995 0
M  V30 900 C 86.2128 4.09925 4.26281 0
M  V30 901 H 85.1428 0.397854 0.64049 0
M  V30 902 H 87.7938 1.4817 1.0825 0
M  V30 903 H 86.1758 1.39071 3.70777 0
M  V30 904 H 87.3498 3.93335 2.4005 0
M  V30 905 H 85.6648 3.46938 2.30267 0
M  V30 906 H 88.2618 2.30089 4.82662 0
M  V30 907 H 88.6048 0.75284 4.09436 0
M  V30 908 H 89.1378 2.24563 3.28354 0
M  V30 909 H 85.8768 5.13813 4.07033 0
M  V30 910 H 85.3968 3.59083 4.80437 0
M  V30 911 H 87.0758 4.1673 4.94919 0
M  V30 912 N 87.2079 -1.17134 1.05439 0
M  V30 913 C 88.4559 -1.87085 0.764429 0
M  V30 914 C 88.7769 -1.81584 -0.710787 0
M  V30 915 O 88.0469 -1.24349 -1.51374 0
M  V30 916 H 86.6269 -0.692627 0.279779 0
M  V30 917 H 89.2889 -1.42087 1.33406 0
M  V30 918 H 88.3849 -2.92759 1.0816 0
M  V30 919 N 88.686 -0.835752 -1.33615 0
M  V30 920 C 89.633 -0.26473 -2.29277 0
M  V30 921 C 90.603 0.617712 -1.54187 0
M  V30 922 O 91.788 0.556641 -1.825 0
M  V30 923 C 88.928 0.556777 -3.40579 0
M  V30 924 C 88.041 -0.349339 -4.30585 0
M  V30 925 C 87.176 0.482969 -5.29 0
M  V30 926 C 86.215 -0.421732 -6.10645 0
M  V30 927 N 85.352 0.372262 -7.01112 0
M  V30 928 H 90.192 -1.08582 -2.77514 0
M  V30 929 H 87.729 -0.546927 -1.36554 0
M  V30 930 H 89.687 1.04852 -4.03809 0
M  V30 931 H 88.317 1.34286 -2.93542 0
M  V30 932 H 87.369 -0.959372 -3.68104 0
M  V30 933 H 88.681 -1.04445 -4.87742 0
M  V30 934 H 87.835 1.03866 -5.97743 0
M  V30 935 H 86.574 1.21153 -4.72412 0
M  V30 936 H 85.579 -0.989464 -5.40823 0
M  V30 937 H 86.804 -1.14861 -6.69316 0
M  V30 938 H 84.75 1.08426 -6.46977 0
M  V30 939 H 84.667 -0.264198 -7.55538 0
M  V30 940 H 85.935 0.910293 -7.74167 0
M  V30 941 N 90.1641 1.46063 -0.591896 0
M  V30 942 C 91.4121 2.01938 -0.0808391 0
M  V30 943 C 91.7331 1.46475 1.28725 0
M  V30 944 O 91.0031 0.652944 1.84698 0
M  V30 945 H 89.5831 0.746516 -0.0268938 0
M  V30 946 H 92.2451 1.79055 -0.769752 0
M  V30 947 H 91.3411 3.12094 -0.0187578 0
M  V30 948 N 91.6422 0.330177 1.54103 0
M  V30 949 C 92.5902 -0.548226 2.26047 0
M  V30 950 C 93.5842 -1.11309 1.27698 0
M  V30 951 O 94.7902 -1.06036 1.45452 0
M  V30 952 H 91.1652 -0.195456 0.726155 0
M  V30 953 H 93.1362 0.0807567 2.98291 0
M  V30 954 C 91.8852 -1.69415 3.03634 0
M  V30 955 H 91.2082 -1.26876 3.79134 0
M  V30 956 H 92.6482 -2.28423 3.5721 0
M  V30 957 C 91.1072 -2.61569 2.12328 0
M  V30 958 O 91.6372 -3.63462 1.7105 0
M  V30 959 N 89.8432 -2.29952 1.77681 0
M  V30 960 H 89.3902 -1.47134 2.11446 0
M  V30 961 H 89.3482 -2.91871 1.16869 0
M  V30 962 N 93.1203 -1.57491 0.0584922 0
M  V30 963 C 94.3673 -1.92978 -0.613648 0
M  V30 964 C 94.6953 -0.937461 -1.70417 0
M  V30 965 O 93.9503 0.049078 -1.95638 0
M  V30 966 C 94.2493 -3.3513 -1.24188 0
M  V30 967 C 93.9153 -4.50037 -0.278826 0
M  V30 968 C 92.5773 -4.81198 -0.0138447 0
M  V30 969 C 94.9293 -5.19807 0.380777 0
M  V30 970 C 92.2573 -5.79473 0.918052 0
M  V30 971 C 94.6093 -6.19079 1.30091 0
M  V30 972 C 93.2733 -6.48665 1.57449 0
M  V30 973 H 92.5433 -0.706157 -0.22455 0
M  V30 974 H 95.1903 -1.91082 0.126533 0
M  V30 975 H 93.4953 -3.33429 -2.05749 0
M  V30 976 H 95.1923 -3.59871 -1.769 0
M  V30 977 H 91.7823 -4.25726 -0.495539 0
M  V30 978 H 95.9663 -4.95939 0.189158 0
M  V30 979 H 91.2223 -6.00727 1.1374 0
M  V30 980 H 95.3963 -6.7225 1.81804 0
M  V30 981 H 93.0233 -7.24628 2.29822 0
M  V30 982 N 94.5984 0.214957 -1.56127 0
M  V30 983 C 95.5614 1.24997 -1.92116 0
M  V30 984 C 96.5614 1.39467 -0.800344 0
M  V30 985 O 97.7514 1.37619 -1.06802 0
M  V30 986 C 94.8834 2.62271 -2.17777 0
M  V30 987 H 96.0764 0.942875 -2.84693 0
M  V30 988 H 93.6294 0.455654 -1.49511 0
M  V30 989 H 94.3644 2.98068 -1.27773 0
M  V30 990 H 94.1494 2.53143 -2.99434 0
M  V30 991 H 95.6394 3.36946 -2.46693 0
M  V30 992 N 96.0765 1.50051 0.48192 0
M  V30 993 C 97.0235 1.68122 1.58125 0
M  V30 994 C 97.9935 0.522545 1.57666 0
M  V30 995 O 99.1785 0.751844 1.75362 0
M  V30 996 C 96.3185 1.77142 2.96167 0
M  V30 997 C 95.4315 3.0444 3.06497 0
M  V30 998 C 94.5665 3.04321 4.35387 0
M  V30 999 C 93.6055 4.26118 4.3942 0
M  V30 1000 N 92.7425 4.238 5.59766 0
M  V30 1001 H 97.5825 2.6198 1.42022 0
M  V30 1002 H 95.1195 1.29877 0.690687 0
M  V30 1003 H 97.0775 1.80352 3.76203 0
M  V30 1004 H 95.7075 0.867329 3.1093 0
M  V30 1005 H 94.7595 3.10752 2.19402 0
M  V30 1006 H 96.0715 3.94426 3.05336 0
M  V30 1007 H 95.2255 3.062 5.23762 0
M  V30 1008 H 93.9645 2.12147 4.39141 0
M  V30 1009 H 92.9695 4.24463 3.49444 0
M  V30 1010 H 94.1945 5.19507 4.37366 0
M  V30 1011 H 92.1405 3.34474 5.64326 0
M  V30 1012 H 92.0575 5.07542 5.60301 0
M  V30 1013 H 93.3255 4.2981 6.50295 0
M  V30 1014 N 97.5546 -0.734337 1.39446 0
M  V30 1015 C 98.8006 -1.49613 1.36908 0
M  V30 1016 C 99.1336 -1.94169 -0.0347829 0
M  V30 1017 O 98.4086 -1.66833 -0.999847 0
M  V30 1018 C 98.6916 -2.73534 2.34203 0
M  V30 1019 C 98.5446 -2.34993 3.83534 0
M  V30 1020 C 99.8636 -3.75635 2.29317 0
M  V30 1021 H 96.9826 -0.542714 0.498629 0
M  V30 1022 H 99.6246 -0.839597 1.70443 0
M  V30 1023 H 97.7746 -3.29553 2.05736 0
M  V30 1024 H 99.4466 -1.84601 4.22753 0
M  V30 1025 H 97.6896 -1.67213 4.00278 0
M  V30 1026 H 98.3606 -3.23738 4.47099 0
M  V30 1027 H 100.837 -3.29203 2.54489 0
M  V30 1028 H 99.7126 -4.60008 2.99472 0
M  V30 1029 H 99.9736 -4.22603 1.29842 0
M  V30 1030 N 99.0327 -1.24633 -0.964593 0
M  V30 1031 C 99.9797 -1.04144 -2.05968 0
M  V30 1032 C 100.95 0.046262 -1.66036 0
M  V30 1033 O 102.135 -0.108972 -1.90489 0
M  V30 1034 C 99.2747 -0.65563 -3.38815 0
M  V30 1035 C 98.3877 -1.81714 -3.91923 0
M  V30 1036 C 97.5227 -1.37662 -5.13052 0
M  V30 1037 C 96.5617 -2.50788 -5.58365 0
M  V30 1038 N 95.6987 -2.07582 -6.70712 0
M  V30 1039 H 100.539 -1.9787 -2.22827 0
M  V30 1040 H 98.0757 -0.9855 -1.09208 0
M  V30 1041 H 100.034 -0.412954 -4.15151 0
M  V30 1042 H 98.6637 0.244627 -3.21872 0
M  V30 1043 H 97.7157 -2.1734 -3.12198 0
M  V30 1044 H 99.0277 -2.66705 -4.21509 0
M  V30 1045 H 98.1817 -1.093 -5.96773 0
M  V30 1046 H 96.9207 -0.497293 -4.85158 0
M  V30 1047 H 95.9257 -2.79906 -4.73215 0
M  V30 1048 H 97.1507 -3.39283 -5.88272 0
M  V30 1049 H 95.0967 -1.22051 -6.44546 0
M  V30 1050 H 95.0137 -2.86125 -6.99763 0
M  V30 1051 H 96.2817 -1.82369 -7.57867 0
M  V30 1052 N 100.511 1.16574 -1.06058 0
M  V30 1053 C 101.441 2.23057 -0.690488 0
M  V30 1054 C 102.422 1.67141 0.315901 0
M  V30 1055 O 103.607 1.93253 0.191556 0
M  V30 1056 C 100.737 3.47222 -0.073625 0
M  V30 1057 C 99.6908 4.16016 -1.00573 0
M  V30 1058 C 99.0168 5.34104 -0.252289 0
M  V30 1059 C 100.317 4.67264 -2.33371 0
M  V30 1060 H 102.011 2.54271 -1.58072 0
M  V30 1061 H 99.5568 1.22218 -0.76149 0
M  V30 1062 H 101.51 4.20939 0.19714 0
M  V30 1063 H 100.234 3.15302 0.85161 0
M  V30 1064 H 98.8928 3.44223 -1.2612 0
M  V30 1065 H 98.5408 4.98437 0.675988 0
M  V30 1066 H 98.2408 5.81072 -0.873455 0
M  V30 1067 H 99.7648 6.10599 0.0109857 0
M  V30 1068 H 101.179 5.32573 -2.12223 0
M  V30 1069 H 99.5758 5.24843 -2.90963 0
M  V30 1070 H 100.646 3.83602 -2.96611 0
M  V30 1071 N 101.989 0.842826 1.3317 0
M  V30 1072 C 102.952 0.284065 2.27433 0
M  V30 1073 C 103.952 -0.54948 1.5112 0
M  V30 1074 O 105.142 -0.362699 1.70382 0
M  V30 1075 C 102.274 -0.599384 3.35589 0
M  V30 1076 H 103.467 1.11589 2.78366 0
M  V30 1077 H 101.02 0.616221 1.4364 0
M  V30 1078 H 101.755 -1.45349 2.89904 0
M  V30 1079 H 101.54 -0.00291266 3.921 0
M  V30 1080 H 103.03 -0.983488 4.05854 0
M  V30 1081 N 103.467 -1.45747 0.599634 0
M  V30 1082 C 104.883 -1.57424 0.26264 0
M  V30 1083 C 105.083 -1.59222 -1.23493 0
M  V30 1084 O 104.139 -1.51825 -2.01756 0
M  V30 1085 C 105.452 -2.86061 0.926795 0
M  V30 1086 C 107 -2.99722 0.901967 0
M  V30 1087 C 107.475 -4.31119 1.54598 0
M  V30 1088 N 108.966 -4.37858 1.5111 0
M  V30 1089 C 109.701 -5.3818 1.97863 0
M  V30 1090 N 109.197 -6.45083 2.52666 0
M  V30 1091 N 110.99 -5.29487 1.88679 0
M  V30 1092 H 103.141 -1.42823 1.57211 0
M  V30 1093 H 105.404 -0.68235 0.658105 0
M  V30 1094 H 105.11 -2.90605 1.98095 0
M  V30 1095 H 104.984 -3.74563 0.445238 0
M  V30 1096 H 107.371 -2.9475 -0.143617 0
M  V30 1097 H 107.452 -2.12652 1.42171 0
M  V30 1098 H 107.096 -4.36849 2.59085 0
M  V30 1099 H 107.026 -5.16992 1.00132 0
M  V30 1100 H 109.517 -3.61209 1.11068 0
M  V30 1101 H 109.83 -7.17869 2.86155 0
M  V30 1102 H 108.175 -6.45856 2.56701 0
M  V30 1103 H 111.366 -4.44877 1.4561 0
M  V30 1104 H 111.539 -6.07524 2.25429 0
M  V30 1105 N 104.945 -0.338344 -1.53925 0
M  V30 1106 C 105.895 0.536712 -2.21593 0
M  V30 1107 C 106.879 1.07015 -1.20153 0
M  V30 1108 O 108.071 1.00471 -1.45721 0
M  V30 1109 C 105.2 1.68977 -2.98834 0
M  V30 1110 C 104.286 1.17052 -4.07627 0
M  V30 1111 N 104.677 0.372085 -5.0443 0
M  V30 1112 C 102.975 1.44789 -4.21844 0
M  V30 1113 C 103.676 0.0909171 -5.81629 0
M  V30 1114 N 102.652 0.681131 -5.39316 0
M  V30 1115 H 106.454 -0.0804298 -2.9379 0
M  V30 1116 H 103.968 -0.144943 -1.61752 0
M  V30 1117 H 105.965 2.32857 -3.45808 0
M  V30 1118 H 104.625 2.31024 -2.28162 0
M  V30 1119 H 105.636 0.0136217 -5.17898 0
M  V30 1120 H 102.313 2.07313 -3.62391 0
M  V30 1121 H 103.703 -0.552817 -6.69622 0
M  V30 1122 N 106.423 1.57458 -0.0668435 0
M  V30 1123 C 107.672 1.92477 0.602947 0
M  V30 1124 C 107.985 0.948419 1.71068 0
M  V30 1125 O 109.191 1.19124 2.43971 0
M  V30 1126 C 107.647 3.41903 1.12383 0
M  V30 1127 C 107.255 4.47975 0.04737 0
M  V30 1128 C 108.999 3.85931 1.76797 0
M  V30 1129 C 106.906 5.88529 0.582022 0
M  V30 1130 H 105.836 0.718387 0.22899 0
M  V30 1131 H 108.487 1.82978 -0.138276 0
M  V30 1132 H 106.869 3.46459 1.91787 0
M  V30 1133 H 108.043 4.55029 -0.726978 0
M  V30 1134 H 106.358 4.13384 -0.500243 0
M  V30 1135 H 108.955 4.88322 2.17821 0
M  V30 1136 H 109.298 3.23029 2.62599 0
M  V30 1137 H 109.831 3.83958 1.04024 0
M  V30 1138 H 106.57 6.55065 -0.238721 0
M  V30 1139 H 106.09 5.85004 1.324 0
M  V30 1140 H 107.769 6.38258 1.05999 0
M  V30 1141 N 107.901 -0.206675 1.56239 0
M  V30 1142 C 108.831 -1.25909 1.96645 0
M  V30 1143 C 109.812 -1.48097 0.836734 0
M  V30 1144 O 110.997 -1.6003 1.10019 0
M  V30 1145 C 108.127 -2.6058 2.29599 0
M  V30 1146 C 107.081 -2.53024 3.452 0
M  V30 1147 C 106.407 -3.91861 3.63798 0
M  V30 1148 C 107.707 -2.06524 4.79734 0
M  V30 1149 H 109.401 -0.923369 2.84806 0
M  V30 1150 H 106.947 -0.442735 1.37025 0
M  V30 1151 H 108.9 -3.34375 2.56459 0
M  V30 1152 H 107.624 -2.95869 1.38307 0
M  V30 1153 H 106.283 -1.81684 3.18412 0
M  V30 1154 H 105.931 -4.24483 2.69857 0
M  V30 1155 H 105.631 -3.87683 4.4156 0
M  V30 1156 H 107.155 -4.67296 3.93022 0
M  V30 1157 H 108.569 -2.70072 5.05702 0
M  V30 1158 H 106.966 -2.13374 5.60885 0
M  V30 1159 H 108.036 -1.01802 4.74093 0
M  V30 1160 N 109.379 -1.50304 -0.473955 0
M  V30 1161 C 110.607 -1.64902 -1.24959 0
M  V30 1162 C 111.022 -0.331198 -1.85872 0
M  V30 1163 O 110.379 0.68652 -1.69095 0
M  V30 1164 C 110.43 -2.73803 -2.36038 0
M  V30 1165 O 110.151 -4.00477 -1.77624 0
M  V30 1166 C 111.652 -2.99349 -3.26964 0
M  V30 1167 H 108.872 -0.554383 -0.378022 0
M  V30 1168 H 111.416 -1.9651 -0.566054 0
M  V30 1169 H 109.571 -2.44898 -3.00173 0
M  V30 1170 H 109.985 -4.60678 -2.5075 0
M  V30 1171 H 111.459 -3.79217 -4.01121 0
M  V30 1172 H 111.936 -2.10307 -3.85574 0
M  V30 1173 H 112.542 -3.29774 -2.68569 0
M  V30 1174 N 110.857 0.726932 -1.39834 0
M  V30 1175 C 112.105 1.4837 -1.37225 0
M  V30 1176 C 112.426 1.94979 0.0284857 0
M  V30 1177 O 111.696 1.69555 0.981213 0
M  V30 1178 H 110.276 0.55043 -0.505011 0
M  V30 1179 H 112.938 0.862468 -1.74778 0
M  V30 1180 H 112.034 2.36198 -2.04003 0
M  V30 1181 N 112.336 1.25143 0.95797 0
M  V30 1182 C 113.283 1.05235 2.05412 0
M  V30 1183 C 114.253 -0.0374561 1.66058 0
M  V30 1184 O 115.438 0.119073 1.90428 0
M  V30 1185 C 112.578 0.673589 3.38462 0
M  V30 1186 C 111.691 1.8379 3.90954 0
M  V30 1187 C 110.826 1.40381 5.12315 0
M  V30 1188 C 109.865 2.53746 5.57027 0
M  V30 1189 N 109.002 2.11136 6.69601 0
M  V30 1190 H 113.842 1.99048 2.21774 0
M  V30 1191 H 111.379 0.991277 1.08683 0
M  V30 1192 H 113.337 0.434964 4.14926 0
M  V30 1193 H 111.967 -0.227554 3.21997 0
M  V30 1194 H 111.019 2.18992 3.11041 0
M  V30 1195 H 112.331 2.68937 4.20089 0
M  V30 1196 H 111.485 1.12464 5.96185 0
M  V30 1197 H 110.224 0.523015 4.84887 0
M  V30 1198 H 109.229 2.82412 4.71724 0
M  V30 1199 H 110.454 3.42398 5.86464 0
M  V30 1200 H 108.4 1.25468 6.4389 0
M  V30 1201 H 108.317 2.89832 6.98236 0
M  V30 1202 H 109.585 1.86385 7.56889 0
M  V30 1203 N 113.814 -1.1601 1.06675 0
M  V30 1204 C 114.724 -2.24156 0.692179 0
M  V30 1205 C 115.74 -1.71507 -0.293513 0
M  V30 1206 O 116.916 -2.009 -0.141861 0
M  V30 1207 C 113.981 -3.46587 0.0884131 0
M  V30 1208 C 113.042 -4.14257 1.12646 0
M  V30 1209 C 112.275 -5.30844 0.551416 0
M  V30 1210 O 112.498 -5.66858 -0.634656 0
M  V30 1211 O 111.432 -5.87848 1.29298 0
M  V30 1212 H 115.258 -2.58513 1.59388 0
M  V30 1213 H 112.843 -1.23599 0.83926 0
M  V30 1214 H 114.725 -4.20679 -0.246361 0
M  V30 1215 H 113.4 -3.13994 -0.786712 0
M  V30 1216 H 112.307 -3.42118 1.51348 0
M  V30 1217 H 113.64 -4.50914 1.97325 0
M  V30 1218 N 115.292 -0.849877 -1.32721 0
M  V30 1219 C 116.538 -0.451591 -1.97708 0
M  V30 1220 C 116.871 0.989175 -1.6712 0
M  V30 1221 O 116.146 1.69334 -0.956891 0
M  V30 1222 C 116.429 -0.685598 -3.53513 0
M  V30 1223 C 116.282 -2.17444 -3.93749 0
M  V30 1224 C 117.601 -0.138874 -4.39881 0
M  V30 1225 H 114.72 -0.16555 -0.718166 0
M  V30 1226 H 117.362 -1.06742 -1.57182 0
M  V30 1227 H 115.512 -0.161416 -3.88165 0
M  V30 1228 H 117.184 -2.76433 -3.693 0
M  V30 1229 H 115.427 -2.65476 -3.43081 0
M  V30 1230 H 116.098 -2.28888 -5.02309 0
M  V30 1231 H 118.574 -0.587068 -4.11938 0
M  V30 1232 H 117.45 -0.332213 -5.47894 0
M  V30 1233 H 117.711 0.95806 -4.31594 0
M  V30 1234 N 116.77 1.45427 -0.607355 0
M  V30 1235 C 117.733 2.28974 0.101693 0
M  V30 1236 C 118.733 1.39754 0.795329 0
M  V30 1237 O 119.923 1.61878 0.643527 0
M  V30 1238 C 117.055 3.20768 1.15414 0
M  V30 1239 H 118.248 2.93147 -0.632844 0
M  V30 1240 H 115.801 1.51945 -0.366391 0
M  V30 1241 H 116.536 2.61395 1.91945 0
M  V30 1242 H 116.321 3.86489 0.66098 0
M  V30 1243 H 117.811 3.83589 1.65073 0
M  V30 1244 N 118.248 0.346503 1.53744 0
M  V30 1245 C 119.494 -0.249473 2.0126 0
M  V30 1246 C 119.827 -1.49965 1.23386 0
M  V30 1247 O 119.102 -1.91811 0.32229 0
M  V30 1248 C 119.385 -0.560643 3.55709 0
M  V30 1249 C 119.238 0.701836 4.44291 0
M  V30 1250 C 120.557 -1.36905 4.18264 0
M  V30 1251 H 117.676 -0.0891987 0.731582 0
M  V30 1252 H 120.318 0.467624 1.84156 0
M  V30 1253 H 118.468 -1.17156 3.70414 0
M  V30 1254 H 120.14 1.33974 4.41417 0
M  V30 1255 H 118.383 1.32612 4.13033 0
M  V30 1256 H 119.054 0.43933 5.50249 0
M  V30 1257 H 121.53 -0.852448 4.07275 0
M  V30 1258 H 120.406 -1.55553 5.26398 0
M  V30 1259 H 120.667 -2.37203 3.73078 0
M  V30 1260 N 119.726 -1.57421 0.075193 0
M  V30 1261 C 120.673 -2.12915 -0.890843 0
M  V30 1262 C 121.643 -1.04252 -1.29309 0
M  V30 1263 O 122.828 -1.31933 -1.37834 0
M  V30 1264 C 119.968 -2.69795 -2.15186 0
M  V30 1265 C 119.081 -3.92624 -1.80194 0
M  V30 1266 C 118.216 -4.37736 -3.00933 0
M  V30 1267 C 117.255 -5.53205 -2.61974 0
M  V30 1268 N 116.392 -5.9326 -3.75483 0
M  V30 1269 H 121.232 -2.95156 -0.410735 0
M  V30 1270 H 118.769 -1.45854 -0.191086 0
M  V30 1271 H 120.727 -3.00883 -2.89008 0
M  V30 1272 H 119.357 -1.90313 -2.60731 0
M  V30 1273 H 118.409 -3.67977 -0.964218 0
M  V30 1274 H 119.721 -4.76482 -1.47534 0
M  V30 1275 H 118.875 -4.70503 -3.8303 0
M  V30 1276 H 117.614 -3.52739 -3.36789 0
M  V30 1277 H 116.619 -5.20086 -1.783 0
M  V30 1278 H 117.844 -6.39936 -2.27284 0
M  V30 1279 H 115.79 -5.11212 -4.11094 0
M  V30 1280 H 115.707 -6.71865 -3.46602 0
M  V30 1281 H 116.975 -6.30651 -4.58148 0
M  V30 1282 N 121.204 0.198386 -1.56346 0
M  V30 1283 C 122.453 0.917451 -1.79627 0
M  V30 1284 C 122.766 1.8456 -0.64784 0
M  V30 1285 O 123.972 2.60504 -0.764859 0
M  V30 1286 C 122.428 1.68175 -3.18191 0
M  V30 1287 C 122.036 0.798589 -4.40825 0
M  V30 1288 C 123.78 2.39065 -3.50782 0
M  V30 1289 C 121.687 1.56157 -5.70411 0
M  V30 1290 H 120.617 0.346317 -0.669762 0
M  V30 1291 H 123.268 0.170801 -1.82703 0
M  V30 1292 H 121.65 2.47216 -3.09354 0
M  V30 1293 H 122.824 0.0470665 -4.60776 0
M  V30 1294 H 121.139 0.200686 -4.15916 0
M  V30 1295 H 123.736 2.96692 -4.44835 0
M  V30 1296 H 124.079 3.13091 -2.74371 0
M  V30 1297 H 124.612 1.66993 -3.61052 0
M  V30 1298 H 121.351 0.864142 -6.49779 0
M  V30 1299 H 120.871 2.2871 -5.54483 0
M  V30 1300 H 122.55 2.11622 -6.11412 0
M  V30 1301 N 122.682 1.50554 0.465978 0
M  V30 1302 C 123.931 1.61038 1.21448 0
M  V30 1303 C 124.244 0.31865 1.92987 0
M  V30 1304 O 125.45 0.302469 2.6981 0
M  V30 1305 C 123.906 2.84283 2.20706 0
M  V30 1306 C 123.514 4.20352 1.54946 0
M  V30 1307 C 125.258 3.04115 2.96166 0
M  V30 1308 C 123.165 5.34778 2.5252 0
M  V30 1309 H 122.095 0.599718 0.457005 0
M  V30 1310 H 124.746 1.7699 0.484424 0
M  V30 1311 H 123.128 2.61901 2.97025 0
M  V30 1312 H 124.302 4.53008 0.843811 0
M  V30 1313 H 122.617 4.06167 0.917475 0
M  V30 1314 H 125.214 3.86774 3.69202 0
M  V30 1315 H 125.557 2.16045 3.55852 0
M  V30 1316 H 126.09 3.26702 2.26959 0
M  V30 1317 H 122.829 6.25018 1.97566 0
M  V30 1318 H 122.349 5.06534 3.21222 0
M  V30 1319 H 124.028 5.65561 3.14245 0
M  V30 1320 N 124.16 -0.719506 1.40217 0
M  V30 1321 C 125.437 -1.47221 1.28784 0
M  V30 1322 C 125.817 -2.10883 -0.0956067 0
M  V30 1323 O 125.165 -1.99833 -1.10811 0
M  V30 1324 C 125.375 -2.5111 2.42373 0
M  V30 1325 C 126.723 -3.17053 2.82423 0
M  V30 1326 O 127.747 -2.61429 2.41937 0
M  V30 1327 O 126.606 -4.17742 3.52355 0
M  V30 1328 H 123.7 -0.654491 0.50554 0
M  V30 1329 H 126.246 -0.752014 1.52128 0
M  V30 1330 H 125.018 -2.02556 3.34793 0
M  V30 1331 H 124.641 -3.3067 2.20778 0
M  V30 1332 N 125.638 -1.25649 -0.95132 0
M  V30 1333 C 126.585 -1.06323 -2.04851 0
M  V30 1334 C 127.555 0.0286491 -1.66075 0
M  V30 1335 O 128.74 -0.12917 -1.90362 0
M  V30 1336 C 125.88 -0.691529 -3.381 0
M  V30 1337 C 124.993 -1.85861 -3.89974 0
M  V30 1338 C 124.128 -1.43096 -5.11563 0
M  V30 1339 C 123.167 -2.56696 -5.55674 0
M  V30 1340 N 122.304 -2.14684 -6.68472 0
M  V30 1341 H 127.144 -2.00222 -2.20715 0
M  V30 1342 H 124.681 -0.997027 -1.08156 0
M  V30 1343 H 126.639 -0.456963 -4.1469 0
M  V30 1344 H 125.269 0.210474 -3.22113 0
M  V30 1345 H 124.321 -2.20639 -3.09875 0
M  V30 1346 H 125.633 -2.71161 -4.18657 0
M  V30 1347 H 124.787 -1.15624 -5.9558 0
M  V30 1348 H 123.526 -0.548722 -4.84603 0
M  V30 1349 H 122.531 -2.84909 -4.7022 0
M  V30 1350 H 123.756 -3.45503 -5.8464 0
M  V30 1351 H 121.702 -1.28881 -6.43215 0
M  V30 1352 H 121.619 -2.9353 -6.96689 0
M  V30 1353 H 122.887 -1.90397 -7.5589 0
M  V30 1354 N 127.117 1.15442 -1.07289 0
M  V30 1355 C 128.345 1.90096 -0.81676 0
M  V30 1356 C 128.76 1.7798 0.629966 0
M  V30 1357 O 128.117 1.1313 1.43206 0
M  V30 1358 C 128.168 3.40466 -1.21512 0
M  V30 1359 O 127.889 3.52232 -2.60508 0
M  V30 1360 C 129.39 4.32145 -0.988198 0
M  V30 1361 H 126.61 0.602495 -0.295366 0
M  V30 1362 H 129.154 1.4627 -1.42918 0
M  V30 1363 H 127.309 3.81958 -0.647039 0
M  V30 1364 H 127.723 4.45549 -2.76742 0
M  V30 1365 H 129.197 5.36072 -1.31645 0
M  V30 1366 H 129.674 4.39135 0.0755063 0
M  V30 1367 H 130.28 3.96395 -1.54115 0
M  V30 1368 N 128.595 0.856903 1.32268 0
M  V30 1369 C 129.527 0.260412 2.27716 0
M  V30 1370 C 130.54 -0.569137 1.52528 0
M  V30 1371 O 131.729 -0.39326 1.74114 0
M  V30 1372 C 128.829 -0.650477 3.32599 0
M  V30 1373 C 128.002 0.14372 4.37164 0
M  V30 1374 C 127.061 -0.69328 5.21613 0
M  V30 1375 O 126.087 -0.12599 5.69061 0
M  V30 1376 N 127.289 -2.00761 5.44679 0
M  V30 1377 H 130.054 1.08059 2.79541 0
M  V30 1378 H 127.615 0.717103 1.45152 0
M  V30 1379 H 129.607 -1.21581 3.86005 0
M  V30 1380 H 128.177 -1.37133 2.80915 0
M  V30 1381 H 127.397 0.890486 3.8401 0
M  V30 1382 H 128.685 0.68915 5.04111 0
M  V30 1383 H 128.083 -2.49181 5.07863 0
M  V30 1384 H 126.64 -2.52103 6.01072 0
M  V30 1385 N 130.073 -1.45103 0.615059 0
M  V30 1386 C 131.003 -2.33339 -0.0865619 0
M  V30 1387 C 131.984 -1.4727 -0.851209 0
M  V30 1388 O 133.169 -1.76026 -0.820281 0
M  V30 1389 C 130.299 -3.30095 -1.07956 0
M  V30 1390 C 129.253 -4.25858 -0.427628 0
M  V30 1391 C 128.579 -5.12361 -1.5294 0
M  V30 1392 C 129.879 -5.18165 0.655944 0
M  V30 1393 H 131.573 -2.92254 0.650224 0
M  V30 1394 H 129.119 -1.40532 0.314138 0
M  V30 1395 H 131.072 -3.90698 -1.57901 0
M  V30 1396 H 129.796 -2.69355 -1.84703 0
M  V30 1397 H 128.455 -3.66564 0.0510292 0
M  V30 1398 H 128.103 -4.47984 -2.28734 0
M  V30 1399 H 127.803 -5.77238 -1.09865 0
M  V30 1400 H 129.327 -5.75833 -2.03098 0
M  V30 1401 H 130.741 -5.72796 0.240257 0
M  V30 1402 H 129.138 -5.91559 1.00888 0
M  V30 1403 H 130.208 -4.60144 1.52957 0
M  V30 1404 N 131.551 -0.354651 -1.53558 0
M  V30 1405 C 132.499 0.512195 -2.26891 0
M  V30 1406 C 133.493 1.09263 -1.29452 0
M  V30 1407 O 134.699 1.03709 -1.47121 0
M  V30 1408 H 131.074 0.183878 -0.729173 0
M  V30 1409 H 133.045 -0.128202 -2.98124 0
M  V30 1410 C 131.794 1.64563 -3.06291 0
M  V30 1411 H 131.117 1.20829 -3.81104 0
M  V30 1412 H 132.557 2.22711 -3.60799 0
M  V30 1413 C 131.016 2.58158 -2.16462 0
M  V30 1414 O 131.546 3.60695 -1.76811 0
M  V30 1415 N 129.752 2.27096 -1.81317 0
M  V30 1416 H 129.299 1.43751 -2.1376 0
M  V30 1417 H 129.257 2.89975 -1.21498 0
M  V30 1418 N 133.029 1.57378 -0.0835403 0
M  V30 1419 C 134.254 1.98682 0.594987 0
M  V30 1420 C 134.679 0.961969 1.61641 0
M  V30 1421 O 134.037 -0.0709989 1.81161 0
M  V30 1422 C 134.085 3.38988 1.2296 0
M  V30 1423 O 133.189 3.39208 2.34546 0
M  V30 1424 H 132.53 0.646368 0.152002 0
M  V30 1425 H 135.06 2.03961 -0.161533 0
M  V30 1426 H 135.07 3.76431 1.57366 0
M  V30 1427 H 133.745 4.13107 0.481228 0
M  V30 1428 H 132.322 3.13548 2.01846 0
M  V30 1429 N 134.507 -0.190092 1.56449 0
M  V30 1430 C 135.732 -0.929864 1.85387 0
M  V30 1431 C 136.157 -1.7585 0.667704 0
M  V30 1432 O 135.515 -1.77198 -0.383459 0
M  V30 1433 C 135.563 -1.79773 3.12593 0
M  V30 1434 O 134.667 -2.89713 2.93496 0
M  V30 1435 H 134.008 -0.261574 0.610307 0
M  V30 1436 H 136.538 -0.193896 2.03679 0
M  V30 1437 H 136.548 -2.20139 3.43515 0
M  V30 1438 H 135.223 -1.18892 3.98544 0
M  V30 1439 H 133.8 -2.53065 2.73884 0
M  V30 1440 N 135.985 -1.50799 -0.457987 0
M  V30 1441 C 137.21 -1.66496 -1.23668 0
M  V30 1442 C 137.635 -0.353288 -1.84752 0
M  V30 1443 O 136.993 0.684346 -1.67888 0
M  V30 1444 C 137.041 -2.76763 -2.3116 0
M  V30 1445 O 136.145 -2.38928 -3.36136 0
M  V30 1446 H 135.486 -0.555828 -0.363252 0
M  V30 1447 H 138.016 -1.9725 -0.543474 0
M  V30 1448 H 138.026 -3.00232 -2.76269 0
M  V30 1449 H 136.701 -3.71954 -1.86073 0
M  V30 1450 H 135.278 -2.25953 -2.96647 0
M  V30 1451 N 137.463 0.71206 -1.40597 0
M  V30 1452 C 138.393 1.83889 -1.43899 0
M  V30 1453 C 139.374 1.67442 -0.299504 0
M  V30 1454 O 140.559 1.87421 -0.508624 0
M  V30 1455 C 137.689 3.21877 -1.30431 0
M  V30 1456 C 136.643 3.53002 -2.42019 0
M  V30 1457 C 135.969 4.90172 -2.13626 0
M  V30 1458 C 137.269 3.53643 -3.84362 0
M  V30 1459 H 138.963 1.81383 -2.38203 0
M  V30 1460 H 136.509 0.871237 -1.14654 0
M  V30 1461 H 138.462 4.00404 -1.31357 0
M  V30 1462 H 137.186 3.24968 -0.326049 0
M  V30 1463 H 135.845 2.76818 -2.40349 0
M  V30 1464 H 135.493 4.89869 -1.14182 0
M  V30 1465 H 135.193 5.11962 -2.88389 0
M  V30 1466 H 136.717 5.71028 -2.1624 0
M  V30 1467 H 138.131 4.22203 -3.87837 0
M  V30 1468 H 136.528 3.86961 -4.58673 0
M  V30 1469 H 137.598 2.52954 -4.13693 0
M  V30 1470 N 138.941 1.26152 0.944643 0
M  V30 1471 C 139.873 1.03199 2.04652 0
M  V30 1472 C 140.886 -0.00642356 1.62799 0
M  V30 1473 O 142.075 0.233263 1.76969 0
M  V30 1474 C 139.175 0.540111 3.34568 0
M  V30 1475 C 138.348 1.64697 4.05208 0
M  V30 1476 C 137.407 1.15374 5.13396 0
M  V30 1477 O 136.433 1.85013 5.38293 0
M  V30 1478 N 137.635 0.00031529 5.805 0
M  V30 1479 H 140.4 1.9808 2.2491 0
M  V30 1480 H 137.961 1.17491 1.11389 0
M  V30 1481 H 139.953 0.194401 4.04233 0
M  V30 1482 H 138.523 -0.315021 3.11009 0
M  V30 1483 H 137.743 2.16379 3.29506 0
M  V30 1484 H 139.031 2.3903 4.49157 0
M  V30 1485 H 138.429 -0.581336 5.62705 0
M  V30 1486 H 136.986 -0.286346 6.51171 0
M  V30 1487 N 140.419 -1.14872 1.07899 0
M  V30 1488 C 141.366 -2.19791 0.704319 0
M  V30 1489 C 142.336 -1.63238 -0.306987 0
M  V30 1490 O 143.521 -1.8983 -0.192171 0
M  V30 1491 C 140.661 -3.44911 0.114244 0
M  V30 1492 C 139.774 -4.15637 1.1777 0
M  V30 1493 C 138.909 -5.28324 0.552037 0
M  V30 1494 C 137.948 -5.90875 1.59789 0
M  V30 1495 N 137.085 -6.95022 0.994404 0
M  V30 1496 H 141.925 -2.5119 1.60336 0
M  V30 1497 H 139.462 -1.23356 0.801352 0
M  V30 1498 H 141.42 -4.16477 -0.245544 0
M  V30 1499 H 140.05 -3.14011 -0.74813 0
M  V30 1500 H 139.102 -3.42512 1.65499 0
M  V30 1501 H 140.414 -4.5823 1.97046 0
M  V30 1502 H 139.568 -6.06538 0.1402 0
M  V30 1503 H 138.307 -4.86939 -0.272431 0
M  V30 1504 H 137.312 -5.11369 2.01945 0
M  V30 1505 H 138.537 -6.34337 2.42474 0
M  V30 1506 H 136.483 -6.55722 0.190939 0
M  V30 1507 H 136.4 -7.36073 1.72432 0
M  V30 1508 H 137.668 -7.77123 0.608253 0
M  V30 1509 N 141.898 -0.863906 -1.31812 0
M  V30 1510 C 142.828 -0.330843 -2.31144 0
M  V30 1511 C 143.809 0.575005 -1.60087 0
M  V30 1512 O 144.994 0.493304 -1.8783 0
M  V30 1513 C 142.124 0.47374 -3.44054 0
M  V30 1514 C 141.078 -0.338481 -4.26659 0
M  V30 1515 C 140.404 0.591412 -5.31419 0
M  V30 1516 C 141.704 -1.56926 -4.98168 0
M  V30 1517 H 143.398 -1.16086 -2.75979 0
M  V30 1518 H 140.944 -0.559657 -1.32679 0
M  V30 1519 H 142.897 0.857143 -4.12591 0
M  V30 1520 H 141.621 1.33721 -2.9797 0
M  V30 1521 H 140.28 -0.703754 -3.59782 0
M  V30 1522 H 139.928 1.45199 -4.81587 0
M  V30 1523 H 139.628 0.0519022 -5.87577 0
M  V30 1524 H 141.152 0.97179 -6.02817 0
M  V30 1525 H 142.566 -1.25764 -5.59336 0
M  V30 1526 H 140.963 -2.04739 -5.64094 0
M  V30 1527 H 142.033 -2.32544 -4.25501 0
M  V30 1528 N 143.376 1.44774 -0.622745 0
M  V30 1529 C 144.623 2.02121 -0.1239 0
M  V30 1530 C 144.951 1.48915 1.25118 0
M  V30 1531 O 144.206 0.660045 1.84233 0
M  V30 1532 C 144.505 3.57364 -0.0508323 0
M  V30 1533 C 144.171 4.29787 -1.36358 0
M  V30 1534 C 142.833 4.4929 -1.72314 0
M  V30 1535 C 145.185 4.71062 -2.23048 0
M  V30 1536 C 142.513 5.07325 -2.94682 0
M  V30 1537 C 144.865 5.30452 -3.44679 0
M  V30 1538 C 143.529 5.48175 -3.80868 0
M  V30 1539 H 142.799 0.739612 -0.0453381 0
M  V30 1540 H 145.446 1.73648 -0.807389 0
M  V30 1541 H 143.751 3.85202 0.715991 0
M  V30 1542 H 145.448 3.99456 0.351533 0
M  V30 1543 H 142.038 4.14932 -1.07375 0
M  V30 1544 H 146.222 4.55715 -1.96565 0
M  V30 1545 H 141.478 5.19235 -3.22809 0
M  V30 1546 H 145.652 5.61385 -4.12092 0
M  V30 1547 H 143.279 5.92912 -4.75773 0
M  V30 1548 N 144.854 0.36279 1.53368 0
M  V30 1549 C 146.27 0.0116182 1.59596 0
M  V30 1550 C 146.47 -1.47012 1.37803 0
M  V30 1551 O 145.526 -2.23136 1.18181 0
M  V30 1552 C 146.839 0.465052 2.97082 0
M  V30 1553 C 148.387 0.419033 3.10182 0
M  V30 1554 C 148.862 0.848235 4.50077 0
M  V30 1555 N 150.353 0.803183 4.56183 0
M  V30 1556 C 151.088 1.107 5.62613 0
M  V30 1557 N 150.584 1.47996 6.76808 0
M  V30 1558 N 152.377 1.02998 5.52583 0
M  V30 1559 H 144.528 1.32775 1.65785 0
M  V30 1560 H 146.791 0.542518 0.777417 0
M  V30 1561 H 146.497 1.49892 3.18159 0
M  V30 1562 H 146.371 -0.149786 3.76902 0
M  V30 1563 H 148.758 -0.605696 2.88817 0
M  V30 1564 H 148.839 1.06933 2.32377 0
M  V30 1565 H 148.483 1.87107 4.7218 0
M  V30 1566 H 148.413 0.175218 5.26308 0
M  V30 1567 H 150.904 0.52838 3.74188 0
M  V30 1568 H 151.217 1.69613 7.53957 0
M  V30 1569 H 149.562 1.51859 6.78206 0
M  V30 1570 H 152.753 0.737817 4.62249 0
M  V30 1571 H 152.926 1.2701 6.35431 0
M  V30 1572 N 146.332 -1.57332 0.0918853 0
M  V30 1573 C 147.242 -2.17368 -0.882505 0
M  V30 1574 C 148.258 -1.14226 -1.31257 0
M  V30 1575 O 149.434 -1.46582 -1.38115 0
M  V30 1576 C 146.499 -2.73962 -2.12476 0
M  V30 1577 C 145.56 -3.92048 -1.7492 0
M  V30 1578 C 144.793 -4.45933 -2.93223 0
M  V30 1579 O 145.016 -3.98764 -4.07852 0
M  V30 1580 O 143.95 -5.36999 -2.71875 0
M  V30 1581 H 147.776 -3.01031 -0.40172 0
M  V30 1582 H 145.361 -1.48813 -0.132291 0
M  V30 1583 H 147.243 -3.10147 -2.85283 0
M  V30 1584 H 145.918 -1.93347 -2.59613 0
M  V30 1585 H 144.825 -3.6068 -0.993025 0
M  V30 1586 H 146.158 -4.74017 -1.32548 0
M  V30 1587 N 147.81 0.181792 -1.56548 0
M  V30 1588 C 149.056 0.901431 -1.81665 0
M  V30 1589 C 149.389 1.82347 -0.668075 0
M  V30 1590 O 148.664 1.91669 0.330615 0
M  V30 1591 C 148.947 1.70618 -3.17115 0
M  V30 1592 C 148.8 0.807964 -4.42484 0
M  V30 1593 C 150.119 2.67605 -3.49393 0
M  V30 1594 H 147.238 0.32627 -0.660846 0
M  V30 1595 H 149.88 0.168134 -1.89255 0
M  V30 1596 H 148.03 2.33133 -3.10775 0
M  V30 1597 H 149.702 0.19649 -4.60881 0
M  V30 1598 H 147.945 0.115411 -4.33646 0
M  V30 1599 H 148.616 1.40632 -5.33785 0
M  V30 1600 H 151.092 2.15218 -3.56118 0
M  V30 1601 H 149.968 3.20985 -4.45264 0
M  V30 1602 H 150.229 3.47298 -2.73563 0
M  V30 1603 N 149.288 1.51039 0.449983 0
M  V30 1604 C 150.704 1.38934 0.785462 0
M  V30 1605 C 150.904 0.461817 1.96136 0
M  V30 1606 O 149.96 -0.0877389 2.52348 0
M  V30 1607 C 151.273 2.80724 1.0777 0
M  V30 1608 C 152.821 2.89787 1.1829 0
M  V30 1609 C 153.296 4.32457 1.50815 0
M  V30 1610 N 154.787 4.35505 1.57764 0
M  V30 1611 C 155.522 5.42914 1.84477 0
M  V30 1612 N 155.018 6.60502 2.09068 0
M  V30 1613 N 156.811 5.3038 1.86155 0
M  V30 1614 H 148.962 2.09904 -0.324647 0
M  V30 1615 H 151.225 0.944378 -0.0827957 0
M  V30 1616 H 150.931 3.50531 0.286498 0
M  V30 1617 H 150.805 3.19273 2.00859 0
M  V30 1618 H 153.192 2.20186 1.96474 0
M  V30 1619 H 153.273 2.54752 0.231314 0
M  V30 1620 H 152.917 5.02603 0.731622 0
M  V30 1621 H 152.847 4.64995 2.47158 0
M  V30 1622 H 155.338 3.50724 1.40715 0
M  V30 1623 H 155.651 7.38158 2.28785 0
M  V30 1624 H 153.996 6.63639 2.06416 0
M  V30 1625 H 157.187 4.37505 1.66454 0
M  V30 1626 H 157.36 6.1417 2.06637 0
M  V30 1627 N 150.766 -0.704594 1.40972 0
M  V30 1628 C 152.015 -1.46018 1.39146 0
M  V30 1629 C 152.328 -1.956 0.000589254 0
M  V30 1630 O 153.534 -2.71137 -0.1403 0
M  V30 1631 C 151.99 -2.63996 2.4461 0
M  V30 1632 C 151.598 -2.21238 3.89561 0
M  V30 1633 C 153.342 -3.41677 2.51907 0
M  V30 1634 C 151.249 -3.3612 4.86598 0
M  V30 1635 H 150.179 -0.548444 0.517422 0
M  V30 1636 H 152.83 -0.765784 1.66757 0
M  V30 1637 H 151.212 -3.3566 2.10115 0
M  V30 1638 H 152.386 -1.56923 4.33257 0
M  V30 1639 H 150.701 -1.56574 3.85841 0
M  V30 1640 H 153.298 -4.27182 3.2159 0
M  V30 1641 H 153.641 -3.86247 1.55303 0
M  V30 1642 H 154.174 -2.77064 2.85448 0
M  V30 1643 H 150.913 -2.96572 5.84573 0
M  V30 1644 H 150.433 -3.99315 4.47557 0
M  V30 1645 H 152.112 -4.02029 5.06934 0
M  V30 1646 N 152.244 -1.26651 -0.937939 0
M  V30 1647 C 153.177 -1.02811 -2.03728 0
M  V30 1648 C 154.155 0.0481915 -1.62529 0
M  V30 1649 O 155.339 -0.0948839 -1.88261 0
M  V30 1650 C 152.466 -0.557517 -3.3408 0
M  V30 1651 C 151.512 -1.62686 -3.94253 0
M  V30 1652 S 152.345 -3.21667 -4.28125 0
M  V30 1653 C 153.501 -2.76384 -5.61572 0
M  V30 1654 H 153.734 -1.95891 -2.23638 0
M  V30 1655 H 151.267 -1.10367 -1.07974 0
M  V30 1656 H 153.225 -0.292674 -4.09455 0
M  V30 1657 H 151.886 0.353062 -3.12109 0
M  V30 1658 H 151.079 -1.24866 -4.88287 0
M  V30 1659 H 150.681 -1.84324 -3.25424 0
M  V30 1660 H 152.973 -2.2105 -6.40424 0
M  V30 1661 H 153.916 -3.69123 -6.0428 0
M  V30 1662 H 154.324 -2.15847 -5.21604 0
M  V30 1663 N 153.722 1.14298 -1.08507 0
M  V30 1664 C 154.669 2.19414 -0.715965 0
M  V30 1665 C 155.639 1.63399 0.298326 0
M  V30 1666 O 156.824 1.89929 0.182101 0
M  V30 1667 C 153.964 3.44845 -0.132534 0
M  V30 1668 C 153.077 4.15007 -1.19973 0
M  V30 1669 C 152.212 5.28024 -0.580048 0
M  V30 1670 C 151.251 5.9002 -1.62921 0
M  V30 1671 N 150.388 6.94485 -1.03125 0
M  V30 1672 H 155.228 2.50336 -1.61666 0
M  V30 1673 H 152.765 1.2293 -0.807882 0
M  V30 1674 H 154.723 4.16601 0.223454 0
M  V30 1675 H 153.353 3.14403 0.731467 0
M  V30 1676 H 152.405 3.41629 -1.67313 0
M  V30 1677 H 153.717 4.57178 -1.99473 0
M  V30 1678 H 152.871 6.06455 -0.172364 0
M  V30 1679 H 151.61 4.87076 0.246603 0
M  V30 1680 H 150.615 5.10291 -2.04654 0
M  V30 1681 H 151.84 6.33042 -2.45835 0
M  V30 1682 H 149.786 6.55612 -0.225711 0
M  V30 1683 H 149.703 7.35148 -1.76334 0
M  V30 1684 H 150.971 7.7679 -0.649458 0
M  V30 1685 N 155.201 0.870884 1.31352 0
M  V30 1686 C 156.447 0.482987 1.96965 0
M  V30 1687 C 156.78 -0.962462 1.68672 0
M  V30 1688 O 156.055 -1.6779 0.98371 0
M  V30 1689 C 156.338 0.741752 3.52378 0
M  V30 1690 C 156.191 2.2368 3.9024 0
M  V30 1691 C 157.51 0.208838 4.39604 0
M  V30 1692 H 154.629 0.176955 0.715441 0
M  V30 1693 H 157.271 1.09229 1.55464 0
M  V30 1694 H 155.421 0.223149 3.87859 0
M  V30 1695 H 157.093 2.82273 3.64856 0
M  V30 1696 H 155.336 2.70901 3.38814 0
M  V30 1697 H 156.007 2.3685 4.98604 0
M  V30 1698 H 158.483 0.652529 4.10952 0
M  V30 1699 H 157.359 0.419336 5.47296 0
M  V30 1700 H 157.62 -0.889275 4.33064 0
M  V30 1701 N 156.679 -1.44442 0.630414 0
M  V30 1702 C 157.609 -2.33418 -0.0618083 0
M  V30 1703 C 158.59 -1.48165 -0.835541 0
M  V30 1704 O 159.775 -1.76886 -0.801564 0
M  V30 1705 C 156.905 -3.31222 -1.04449 0
M  V30 1706 C 155.859 -4.26288 -0.382436 0
M  V30 1707 C 155.185 -5.13954 -1.47497 0
M  V30 1708 C 156.485 -5.1744 0.710865 0
M  V30 1709 H 158.179 -2.91548 0.681184 0
M  V30 1710 H 155.725 -1.40191 0.329026 0
M  V30 1711 H 157.678 -3.92351 -1.53748 0
M  V30 1712 H 156.402 -2.71299 -1.81836 0
M  V30 1713 H 155.061 -3.6649 0.0899054 0
M  V30 1714 H 154.709 -4.50385 -2.2397 0
M  V30 1715 H 154.409 -5.7837 -1.03737 0
M  V30 1716 H 155.933 -5.77955 -1.96979 0
M  V30 1717 H 157.347 -5.72509 0.300996 0
M  V30 1718 H 155.744 -5.90455 1.07156 0
M  V30 1719 H 156.814 -4.58496 1.57829 0
M  V30 1720 N 158.157 -0.370918 -1.53173 0
M  V30 1721 C 159.105 0.488101 -2.27421 0
M  V30 1722 C 160.099 1.07884 -1.30604 0
M  V30 1723 O 161.305 1.02143 -1.48212 0
M  V30 1724 H 157.68 0.176134 -0.731082 0
M  V30 1725 H 159.651 -0.159815 -2.97972 0
M  V30 1726 C 158.4 1.61306 -3.08019 0
M  V30 1727 H 157.723 1.1678 -3.82364 0
M  V30 1728 H 159.163 2.18872 -3.63141 0
M  V30 1729 C 157.622 2.55848 -2.19188 0
M  V30 1730 O 158.152 3.58799 -1.80626 0
M  V30 1731 N 156.358 2.2516 -1.83715 0
M  V30 1732 H 155.905 1.41476 -2.15273 0
M  V30 1733 H 155.863 2.8867 -1.24567 0
M  V30 1734 N 159.635 1.57281 -0.100228 0
M  V30 1735 C 160.585 2.10848 0.86759 0
M  V30 1736 C 161.569 1.02473 1.24049 0
M  V30 1737 O 162.761 1.28739 1.21471 0
M  V30 1738 C 159.89 2.69648 2.12474 0
M  V30 1739 C 158.976 3.85074 1.77704 0
M  V30 1740 N 159.367 4.92897 1.13518 0
M  V30 1741 C 157.665 3.94905 2.07282 0
M  V30 1742 C 158.366 5.73475 0.974735 0
M  V30 1743 N 157.342 5.22675 1.4937 0
M  V30 1744 H 161.144 2.91594 0.367471 0
M  V30 1745 H 158.658 1.62074 0.102829 0
M  V30 1746 H 160.655 3.06356 2.82757 0
M  V30 1747 H 159.315 1.90359 2.63047 0
M  V30 1748 H 160.326 5.11662 0.801381 0
M  V30 1749 H 157.003 3.26633 2.60033 0
M  V30 1750 H 158.393 6.70238 0.472364 0
M  V30 1751 N 161.113 -0.173488 1.56642 0
M  V30 1752 C 162.524 -0.736155 1.71574 0
M  V30 1753 C 162.875 -1.82888 0.710389 0
M  V30 1754 O 162 -2.16017 -0.1287 0
M  V30 1755 C 162.595 -1.34211 3.11083 0
M  V30 1756 C 161.154 -1.85162 3.27707 0
M  V30 1757 C 160.301 -0.729765 2.67525 0
M  V30 1758 H 163.252 0.0518786 1.58615 0
M  V30 1759 H 163.273 -2.21178 3.09613 0
M  V30 1760 H 162.785 -0.546579 3.84232 0
M  V30 1761 H 160.886 -2.67366 2.59512 0
M  V30 1762 H 160.999 -1.99855 4.35425 0
M  V30 1763 H 159.363 -1.14965 2.27278 0
M  V30 1764 H 160.146 0.0538806 3.43258 0
M  V30 1765 N 162.591 -1.51276 -0.441967 0
M  V30 1766 C 163.539 -1.72823 -1.55676 0
M  V30 1767 C 164.533 -0.59445 -1.58627 0
M  V30 1768 O 165.739 -0.775715 -1.62427 0
M  V30 1769 H 162.114 -0.545983 -0.517113 0
M  V30 1770 H 164.085 -2.6628 -1.34675 0
M  V30 1771 C 162.834 -1.86619 -2.93375 0
M  V30 1772 H 162.157 -2.73264 -2.91834 0
M  V30 1773 H 163.597 -2.05709 -3.70756 0
M  V30 1774 C 162.056 -0.624842 -3.31055 0
M  V30 1775 O 162.586 0.222636 -4.01083 0
M  V30 1776 N 160.792 -0.470288 -2.86769 0
M  V30 1777 H 160.339 -1.161 -2.29953 0
M  V30 1778 H 160.297 0.359051 -3.12343 0
M  V30 1779 N 164.069 0.697108 -1.41344 0
M  V30 1780 C 165.318 1.45279 -1.39918 0
M  V30 1781 C 165.631 1.95597 -0.0109624 0
M  V30 1782 O 166.837 2.71208 0.125919 0
M  V30 1783 C 165.293 2.62695 -2.46007 0
M  V30 1784 C 164.901 2.19169 -3.90729 0
M  V30 1785 C 166.645 3.40336 -2.53715 0
M  V30 1786 C 164.552 3.33535 -4.88373 0
M  V30 1787 H 163.482 0.545692 -0.520323 0
M  V30 1788 H 166.133 0.756929 -1.67161 0
M  V30 1789 H 164.515 3.34541 -2.11892 0
M  V30 1790 H 165.689 1.54623 -4.34083 0
M  V30 1791 H 164.004 1.54525 -3.86666 0
M  V30 1792 H 166.601 4.2547 -3.2385 0
M  V30 1793 H 166.944 3.85418 -1.5735 0
M  V30 1794 H 167.477 2.75546 -2.86913 0
M  V30 1795 H 164.216 2.93468 -5.86137 0
M  V30 1796 H 163.736 3.96936 -4.49668 0
M  V30 1797 H 165.415 3.99335 -5.09059 0
M  V30 1798 N 165.547 1.27147 0.931209 0
M  V30 1799 C 166.793 1.13446 1.68101 0
M  V30 1800 C 167.126 -0.319628 1.91552 0
M  V30 1801 O 166.401 -1.23407 1.50336 0
M  V30 1802 C 166.684 1.91482 3.0497 0
M  V30 1803 C 166.537 3.44855 2.88782 0
M  V30 1804 C 167.856 1.71651 4.05246 0
M  V30 1805 H 164.975 0.413498 0.610072 0
M  V30 1806 H 167.617 1.56261 1.08086 0
M  V30 1807 H 165.767 1.55095 3.56199 0
M  V30 1808 H 167.439 3.9105 2.44698 0
M  V30 1809 H 165.682 3.71373 2.24198 0
M  V30 1810 H 166.353 3.94694 3.85902 0
M  V30 1811 H 168.829 2.0337 3.63015 0
M  V30 1812 H 167.705 2.28651 4.99009 0
M  V30 1813 H 167.966 0.663555 4.37092 0
M  V30 1814 N 167.025 -1.13721 1.09112 0
M  V30 1815 C 167.972 -2.19031 0.727591 0
M  V30 1816 C 168.942 -1.63555 -0.289656 0
M  V30 1817 O 170.127 -1.90023 -0.172026 0
M  V30 1818 C 167.267 -3.4477 0.15082 0
M  V30 1819 C 166.38 -4.14365 1.22172 0
M  V30 1820 C 165.515 -5.27709 0.608042 0
M  V30 1821 C 164.554 -5.89147 1.66047 0
M  V30 1822 N 163.691 -6.93929 1.06806 0
M  V30 1823 H 168.531 -2.49475 1.62991 0
M  V30 1824 H 166.068 -1.22499 0.81439 0
M  V30 1825 H 168.026 -4.16714 -0.201358 0
M  V30 1826 H 166.656 -3.14787 -0.714783 0
M  V30 1827 H 165.708 -3.40737 1.69122 0
M  V30 1828 H 167.02 -4.56114 2.01895 0
M  V30 1829 H 166.174 -6.06355 0.204523 0
M  V30 1830 H 164.913 -4.872 -0.220769 0
M  V30 1831 H 163.918 -5.09198 2.07357 0
M  V30 1832 H 165.143 -6.31729 2.49189 0
M  V30 1833 H 163.089 -6.55483 0.260476 0
M  V30 1834 H 163.006 -7.34202 1.8023 0
M  V30 1835 H 164.274 -7.76434 0.690644 0
M  V30 1836 N 168.503 -0.877838 -1.30888 0
M  V30 1837 C 169.433 -0.35534 -2.3078 0
M  V30 1838 C 170.414 0.557994 -1.60687 0
M  V30 1839 O 171.599 0.473355 -1.88343 0
M  V30 1840 C 168.729 0.437221 -3.44537 0
M  V30 1841 C 167.683 -0.383715 -4.26276 0
M  V30 1842 C 167.009 0.535014 -5.32017 0
M  V30 1843 C 168.309 -1.62201 -4.96476 0
M  V30 1844 H 170.003 -1.19007 -2.74732 0
M  V30 1845 H 167.549 -0.573698 -1.32078 0
M  V30 1846 H 169.502 0.813334 -4.13477 0
M  V30 1847 H 168.226 1.30553 -2.99372 0
M  V30 1848 H 166.885 -0.741874 -3.59015 0
M  V30 1849 H 166.533 1.40083 -4.831 0
M  V30 1850 H 166.233 -0.0104211 -5.87599 0
M  V30 1851 H 167.757 0.907799 -6.03814 0
M  V30 1852 H 169.171 -1.31689 -5.5797 0
M  V30 1853 H 167.568 -2.10711 -5.61891 0
M  V30 1854 H 168.638 -2.37044 -4.23011 0
M  V30 1855 N 169.982 1.44106 -0.638065 0
M  V30 1856 C 171.229 2.01978 -0.14533 0
M  V30 1857 C 171.557 1.50234 1.23532 0
M  V30 1858 O 170.812 0.679548 1.83523 0
M  V30 1859 C 171.111 3.5729 -0.0887327 0
M  V30 1860 C 170.777 4.28317 -1.40909 0
M  V30 1861 C 169.439 4.47437 -1.77069 0
M  V30 1862 C 171.791 4.6867 -2.28031 0
M  V30 1863 C 169.119 5.04171 -3.00047 0
M  V30 1864 C 171.471 5.26766 -3.50286 0
M  V30 1865 C 170.135 5.44104 -3.86661 0
M  V30 1866 H 169.405 0.739089 -0.0531801 0
M  V30 1867 H 172.052 1.72781 -0.825761 0
M  V30 1868 H 170.357 3.8594 0.675095 0
M  V30 1869 H 172.054 3.99807 0.309145 0
M  V30 1870 H 168.644 4.1377 -1.1177 0
M  V30 1871 H 172.828 4.53604 -2.01388 0
M  V30 1872 H 168.084 5.15782 -3.28298 0
M  V30 1873 H 172.258 5.56983 -4.18023 0
M  V30 1874 H 169.885 5.87832 -4.82034 0
M  V30 1875 N 171.46 0.379036 1.52974 0
M  V30 1876 C 172.37 -0.468639 2.29872 0
M  V30 1877 C 173.386 -1.08067 1.36373 0
M  V30 1878 O 174.562 -1.08871 1.69438 0
M  V30 1879 C 171.627 -1.58594 3.083 0
M  V30 1880 C 170.688 -1.00007 4.17489 0
M  V30 1881 C 169.921 -2.06413 4.92168 0
M  V30 1882 O 170.144 -3.27751 4.66835 0
M  V30 1883 O 169.078 -1.68717 5.7777 0
M  V30 1884 H 172.904 0.157508 3.03291 0
M  V30 1885 H 170.489 0.143035 1.48714 0
M  V30 1886 H 172.371 -2.23525 3.57232 0
M  V30 1887 H 171.046 -2.19724 2.37703 0
M  V30 1888 H 169.953 -0.314299 3.72777 0
M  V30 1889 H 171.286 -0.433135 4.90291 0
M  V30 1890 N 172.938 -1.57226 0.108567 0
M  V30 1891 C 174.184 -1.95121 -0.552761 0
M  V30 1892 C 174.517 -0.991345 -1.66991 0
M  V30 1893 O 173.792 -0.0267211 -1.94482 0
M  V30 1894 C 174.075 -3.43039 -1.09528 0
M  V30 1895 C 173.928 -4.49797 0.0177332 0
M  V30 1896 C 175.247 -3.92567 -1.98945 0
M  V30 1897 H 172.366 -0.709496 -0.199461 0
M  V30 1898 H 175.008 -1.89126 0.182011 0
M  V30 1899 H 173.158 -3.48279 -1.72146 0
M  V30 1900 H 174.83 -4.56661 0.652584 0
M  V30 1901 H 173.073 -4.284 0.682309 0
M  V30 1902 H 173.744 -5.50528 -0.402919 0
M  V30 1903 H 176.22 -3.89565 -1.46214 0
M  V30 1904 H 175.096 -4.96605 -2.33827 0
M  V30 1905 H 175.357 -3.32648 -2.91201 0
M  V30 1906 N 174.416 0.165178 -1.56732 0
M  V30 1907 C 175.665 0.879143 -1.81532 0
M  V30 1908 C 175.978 1.83144 -0.686842 0
M  V30 1909 O 177.184 2.58823 -0.819944 0
M  V30 1910 C 175.64 1.61388 -3.21686 0
M  V30 1911 C 175.248 0.704904 -4.4242 0
M  V30 1912 C 176.992 2.3157 -3.55774 0
M  V30 1913 C 174.899 1.44022 -5.73595 0
M  V30 1914 H 173.829 0.332033 -0.676957 0
M  V30 1915 H 176.48 0.132008 -1.83025 0
M  V30 1916 H 174.862 2.40599 -3.14529 0
M  V30 1917 H 176.036 -0.0506815 -4.60772 0
M  V30 1918 H 174.351 0.112419 -4.16248 0
M  V30 1919 H 176.948 2.8719 -4.51028 0
M  V30 1920 H 177.291 3.07201 -2.8095 0
M  V30 1921 H 177.824 1.59297 -3.64513 0
M  V30 1922 H 174.563 0.72612 -6.51466 0
M  V30 1923 H 174.083 2.16898 -5.5921 0
M  V30 1924 H 175.762 1.98606 -6.15764 0
M  V30 1925 N 175.894 1.51508 0.433938 0
M  V30 1926 C 176.804 1.75917 1.5521 0
M  V30 1927 C 177.82 0.643545 1.61662 0
M  V30 1928 O 178.996 0.926183 1.7884 0
M  V30 1929 C 176.061 1.88213 2.91164 0
M  V30 1930 C 175.122 3.12074 2.94802 0
M  V30 1931 C 174.355 3.23774 4.24271 0
M  V30 1932 O 174.578 2.4133 5.16833 0
M  V30 1933 O 173.512 4.16774 4.34262 0
M  V30 1934 H 177.338 2.70777 1.37527 0
M  V30 1935 H 174.923 1.36051 0.617293 0
M  V30 1936 H 176.805 1.98267 3.71845 0
M  V30 1937 H 175.48 0.965413 3.08968 0
M  V30 1938 H 174.387 3.07497 2.13065 0
M  V30 1939 H 175.72 4.03446 2.81943 0
M  V30 1940 N 177.372 -0.689602 1.41712 0
M  V30 1941 C 178.6 -1.47827 1.44758 0
M  V30 1942 C 179.015 -1.88721 0.0545703 0
M  V30 1943 O 178.372 -1.57176 -0.927463 0
M  V30 1944 C 178.423 -2.73698 2.3616 0
M  V30 1945 O 178.144 -2.34524 3.7004 0
M  V30 1946 C 179.645 -3.67389 2.48072 0
M  V30 1947 H 176.865 -0.455357 0.49284 0
M  V30 1948 H 179.409 -0.848574 1.86063 0
M  V30 1949 H 177.564 -3.32891 1.98148 0
M  V30 1950 H 177.978 -3.15701 4.18847 0
M  V30 1951 H 179.452 -4.52475 3.16181 0
M  V30 1952 H 179.929 -4.12284 1.51388 0
M  V30 1953 H 180.535 -3.14097 2.86746 0
M  V30 1954 N 178.85 -1.27639 -0.924453 0
M  V30 1955 C 179.76 -1.12466 -2.05885 0
M  V30 1956 C 180.776 -0.053869 -1.73917 0
M  V30 1957 O 181.952 -0.261012 -1.99702 0
M  V30 1958 C 179.017 -0.776768 -3.37886 0
M  V30 1959 C 178.078 -1.92878 -3.83532 0
M  V30 1960 C 177.311 -1.59739 -5.09234 0
M  V30 1961 O 177.534 -0.506782 -5.68144 0
M  V30 1962 O 176.468 -2.43761 -5.50331 0
M  V30 1963 H 180.294 -2.07671 -2.21599 0
M  V30 1964 H 177.879 -1.06857 -1.04413 0
M  V30 1965 H 179.761 -0.596229 -4.17161 0
M  V30 1966 H 178.436 0.145732 -3.23372 0
M  V30 1967 H 177.343 -2.1644 -3.0513 0
M  V30 1968 H 178.676 -2.8316 -4.02593 0
M  V30 1969 N 180.328 1.1314 -1.09713 0
M  V30 1970 C 181.275 2.18642 -0.739196 0
M  V30 1971 C 182.245 1.63706 0.280978 0
M  V30 1972 O 183.43 1.90111 0.161946 0
M  V30 1973 C 180.57 3.44685 -0.169102 0
M  V30 1974 C 179.683 4.13711 -1.24367 0
M  V30 1975 C 178.818 5.27379 -0.636019 0
M  V30 1976 C 177.857 5.88259 -1.69169 0
M  V30 1977 N 176.994 6.93352 -1.10485 0
M  V30 1978 H 181.834 2.48607 -1.64312 0
M  V30 1979 H 179.371 1.22066 -0.820875 0
M  V30 1980 H 181.329 4.16815 0.179256 0
M  V30 1981 H 179.959 3.15161 0.698079 0
M  V30 1982 H 179.011 3.39835 -1.70927 0
M  V30 1983 H 180.323 4.55037 -2.04311 0
M  V30 1984 H 179.477 6.06238 -0.236677 0
M  V30 1985 H 178.216 4.8731 0.194928 0
M  V30 1986 H 177.221 5.08092 -2.10055 0
M  V30 1987 H 178.446 6.30399 -2.52536 0
M  V30 1988 H 176.392 6.55335 -0.295234 0
M  V30 1989 H 176.309 7.33236 -1.84121 0
M  V30 1990 H 177.577 7.76057 -0.73181 0
M  V30 1991 N 181.806 0.884767 1.30421 0
M  V30 1992 C 183.034 0.518044 2.0031 0
M  V30 1993 C 183.449 -0.893408 1.66324 0
M  V30 1994 O 182.806 -1.5875 0.900262 0
M  V30 1995 C 182.857 0.682997 3.54989 0
M  V30 1996 O 182.578 2.03888 3.87764 0
M  V30 1997 C 184.079 0.31924 4.42149 0
M  V30 1998 H 181.299 0.200265 0.640418 0
M  V30 1999 H 183.843 1.19001 1.6631 0
M  V30 2000 H 181.998 0.0584052 3.87356 0
M  V30 2001 H 182.412 2.05735 4.82466 0
M  V30 2002 H 183.886 0.485555 5.4986 0
M  V30 2003 H 184.363 -0.742717 4.32875 0
M  V30 2004 H 184.969 0.920147 4.15227 0
M  V30 2005 N 183.284 -1.43765 0.645699 0
M  V30 2006 C 184.214 -2.33471 -0.0370477 0
M  V30 2007 C 185.195 -1.49042 -0.819779 0
M  V30 2008 O 186.38 -1.77726 -0.782758 0
M  V30 2009 C 183.51 -3.32311 -1.0093 0
M  V30 2010 C 182.464 -4.2667 -0.337201 0
M  V30 2011 C 181.79 -5.1549 -1.42037 0
M  V30 2012 C 183.09 -5.16657 0.765706 0
M  V30 2013 H 184.784 -2.90809 0.712069 0
M  V30 2014 H 182.33 -1.39834 0.343876 0
M  V30 2015 H 184.283 -3.9396 -1.49578 0
M  V30 2016 H 183.007 -2.73213 -1.78948 0
M  V30 2017 H 181.666 -3.66374 0.128771 0
M  V30 2018 H 181.314 -4.52735 -2.1918 0
M  V30 2019 H 181.014 -5.79438 -0.975966 0
M  V30 2020 H 182.538 -5.80012 -1.90838 0
M  V30 2021 H 183.952 -5.72158 0.361702 0
M  V30 2022 H 182.349 -5.89286 1.13413 0
M  V30 2023 H 183.419 -4.56796 1.62683 0
M  V30 2024 N 184.763 -0.387143 -1.52771 0
M  V30 2025 C 185.993 0.195585 -2.05672 0
M  V30 2026 C 186.401 1.41241 -1.25887 0
M  V30 2027 O 185.744 1.81265 -0.298081 0
M  V30 2028 C 185.806 0.632327 -3.53895 0
M  V30 2029 C 185.47 -0.470739 -4.54569 0
M  V30 2030 C 186.467 -1.32746 -5.02667 0
M  V30 2031 C 184.152 -0.637151 -4.98243 0
M  V30 2032 C 186.146 -2.33574 -5.93061 0
M  V30 2033 C 183.833 -1.64877 -5.88438 0
M  V30 2034 C 184.831 -2.49649 -6.35739 0
M  V30 2035 O 184.519 -3.49082 -7.24153 0
M  V30 2036 H 184.251 0.033658 -0.675162 0
M  V30 2037 H 186.805 -0.550221 -1.97893 0
M  V30 2038 H 185.035 1.43008 -3.59285 0
M  V30 2039 H 186.724 1.14048 -3.89548 0
M  V30 2040 H 187.49 -1.21019 -4.69659 0
M  V30 2041 H 183.369 0.0129567 -4.60998 0
M  V30 2042 H 186.913 -2.99777 -6.29904 0
M  V30 2043 H 182.81 -1.76643 -6.2086 0
M  V30 2044 H 183.578 -3.45065 -7.42208 0
M  V30 2045 N 186.241 1.57166 -0.116904 0
M  V30 2046 C 187.171 2.18222 0.830759 0
M  V30 2047 C 188.152 1.12167 1.27877 0
M  V30 2048 O 189.337 1.40394 1.34176 0
M  V30 2049 C 186.467 2.77996 2.08172 0
M  V30 2050 C 185.421 3.89614 1.77157 0
M  V30 2051 C 184.747 4.36187 3.09265 0
M  V30 2052 C 186.047 5.1181 1.04151 0
M  V30 2053 H 187.741 2.97664 0.321992 0
M  V30 2054 H 185.287 1.4318 0.153434 0
M  V30 2055 H 187.24 3.19366 2.74924 0
M  V30 2056 H 185.964 1.9584 2.6137 0
M  V30 2057 H 184.623 3.48816 1.12796 0
M  V30 2058 H 184.271 3.50893 3.60393 0
M  V30 2059 H 183.971 5.11455 2.89288 0
M  V30 2060 H 185.495 4.80207 3.77139 0
M  V30 2061 H 186.909 5.50214 1.61052 0
M  V30 2062 H 185.306 5.92648 0.942762 0
M  V30 2063 H 186.376 4.84892 0.0279022 0
M  V30 2064 N 187.719 -0.156864 1.56817 0
M  V30 2065 C 188.965 -0.872416 1.83076 0
M  V30 2066 C 189.298 -1.81261 0.697001 0
M  V30 2067 O 188.573 -1.92171 -0.30008 0
M  V30 2068 C 188.856 -1.65551 3.19789 0
M  V30 2069 C 188.709 -0.737467 4.43713 0
M  V30 2070 C 190.028 -2.62012 3.53606 0
M  V30 2071 H 187.147 -0.315715 0.665953 0
M  V30 2072 H 189.789 -0.138004 1.89498 0
M  V30 2073 H 187.939 -2.28159 3.14445 0
M  V30 2074 H 189.611 -0.123143 4.61136 0
M  V30 2075 H 187.854 -0.0464067 4.33775 0
M  V30 2076 H 188.525 -1.32122 5.35955 0
M  V30 2077 H 191.001 -2.09525 3.59497 0
M  V30 2078 H 189.877 -3.13861 4.50314 0
M  V30 2079 H 190.138 -3.42902 2.79053 0
M  V30 2080 N 189.197 -1.51736 -0.425897 0
M  V30 2081 C 190.13 -1.68574 -1.53812 0
M  V30 2082 C 191.108 -0.53328 -1.53606 0
M  V30 2083 O 192.292 -0.758555 -1.72564 0
M  V30 2084 C 189.419 -1.70977 -2.92377 0
M  V30 2085 C 188.465 -2.92324 -3.10563 0
M  V30 2086 S 189.298 -4.52952 -2.85648 0
M  V30 2087 C 190.454 -4.58117 -4.26474 0
M  V30 2088 H 190.687 -2.62647 -1.39298 0
M  V30 2089 H 188.22 -1.41564 -0.616361 0
M  V30 2090 H 190.178 -1.73047 -3.72243 0
M  V30 2091 H 188.839 -0.78061 -3.04245 0
M  V30 2092 H 188.032 -2.90439 -4.11899 0
M  V30 2093 H 187.634 -2.88055 -2.38538 0
M  V30 2094 H 189.926 -4.34462 -5.19855 0
M  V30 2095 H 190.869 -5.59983 -4.33388 0
M  V30 2096 H 191.277 -3.8732 -4.10662 0
M  V30 2097 N 190.675 0.682077 -1.42076 0
M  V30 2098 C 191.585 1.82535 -1.47371 0
M  V30 2099 C 192.601 1.7017 -0.363079 0
M  V30 2100 O 193.777 1.91848 -0.612875 0
M  V30 2101 C 190.842 3.18624 -1.36674 0
M  V30 2102 C 189.903 3.42999 -2.58167 0
M  V30 2103 C 189.136 4.72595 -2.4797 0
M  V30 2104 O 189.359 5.50006 -1.5116 0
M  V30 2105 O 188.293 4.98054 -3.37974 0
M  V30 2106 H 192.119 1.81023 -2.43853 0
M  V30 2107 H 189.704 0.836887 -1.2376 0
M  V30 2108 H 191.586 3.99847 -1.33043 0
M  V30 2109 H 190.261 3.20789 -0.433138 0
M  V30 2110 H 189.168 2.61653 -2.67373 0
M  V30 2111 H 190.501 3.45659 -3.50401 0
M  V30 2112 N 192.153 1.28127 0.917671 0
M  V30 2113 C 193.383 1.17722 1.6978 0
M  V30 2114 C 193.791 -0.267261 1.87303 0
M  V30 2115 O 193.134 -1.19286 1.39702 0
M  V30 2116 C 193.196 1.79958 3.11216 0
M  V30 2117 C 192.86 3.29187 3.16993 0
M  V30 2118 C 193.857 4.25679 2.98485 0
M  V30 2119 C 191.542 3.70075 3.39632 0
M  V30 2120 C 193.536 5.61035 3.02521 0
M  V30 2121 C 191.223 5.05557 3.433 0
M  V30 2122 C 192.221 6.00847 3.24764 0
M  V30 2123 O 191.909 7.33859 3.28187 0
M  V30 2124 H 191.641 0.409788 0.537634 0
M  V30 2125 H 194.195 1.69694 1.15728 0
M  V30 2126 H 192.425 1.22475 3.66793 0
M  V30 2127 H 194.114 1.64125 3.71238 0
M  V30 2128 H 194.88 3.95426 2.80826 0
M  V30 2129 H 190.759 2.96373 3.53106 0
M  V30 2130 H 194.303 6.35388 2.87971 0
M  V30 2131 H 190.2 5.35462 3.60486 0
M  V30 2132 H 190.968 7.42436 3.44575 0
M  V30 2133 N 193.631 -1.12557 1.10312 0
M  V30 2134 C 194.594 -2.16434 0.75424 0
M  V30 2135 C 195.594 -1.59278 -0.220685 0
M  V30 2136 O 196.784 -1.742 0.00230591 0
M  V30 2137 C 193.916 -3.40699 0.116987 0
M  V30 2138 H 195.109 -2.48811 1.67431 0
M  V30 2139 H 192.662 -1.27542 0.903475 0
M  V30 2140 H 193.397 -3.13921 -0.813877 0
M  V30 2141 H 193.182 -3.83459 0.818613 0
M  V30 2142 H 194.672 -4.17451 -0.111387 0
M  V30 2143 N 195.109 -0.891671 -1.2995 0
M  V30 2144 C 196.334 -0.527932 -2.00568 0
M  V30 2145 C 196.759 0.877969 -1.66353 0
M  V30 2146 O 196.117 1.58301 -0.883762 0
M  V30 2147 C 196.165 -0.717745 -3.53385 0
M  V30 2148 O 195.269 0.233376 -4.11739 0
M  V30 2149 H 194.61 -0.20722 -0.630837 0
M  V30 2150 H 197.14 -1.20105 -1.65638 0
M  V30 2151 H 197.15 -0.619307 -4.03272 0
M  V30 2152 H 195.825 -1.74276 -3.77625 0
M  V30 2153 H 194.402 0.0880706 -3.72796 0
M  V30 2154 N 196.587 1.43421 -0.653314 0
M  V30 2155 C 197.835 2.01414 -0.166415 0
M  V30 2156 C 198.156 1.51803 1.22397 0
M  V30 2157 O 197.426 0.730693 1.81763 0
M  V30 2158 H 196.006 0.744703 -0.0585319 0
M  V30 2159 H 198.668 1.75629 -0.845003 0
M  V30 2160 H 197.764 3.11734 -0.151111 0
M  V30 2161 N 198.065 0.39524 1.52563 0
M  V30 2162 C 199.313 -0.184678 2.01254 0
M  V30 2163 C 199.634 -1.46822 1.28329 0
M  V30 2164 O 198.904 -1.91666 0.405094 0
M  V30 2165 H 197.484 -0.0712355 0.743596 0
M  V30 2166 H 200.146 0.528293 1.87603 0
M  V30 2167 H 199.242 -0.390681 3.09645 0
M  V30 2168 N 199.544 -1.57102 0.125237 0
M  V30 2169 C 200.454 -2.19191 -0.8362 0
M  V30 2170 C 201.47 -1.16985 -1.28805 0
M  V30 2171 O 202.646 -1.49479 -1.34974 0
M  V30 2172 C 199.711 -2.78407 -2.06617 0
M  V30 2173 C 198.772 -3.9567 -1.66565 0
M  V30 2174 C 198.005 -4.52052 -2.83698 0
M  V30 2175 O 198.228 -4.07326 -3.99302 0
M  V30 2176 O 197.162 -5.42645 -2.60423 0
M  V30 2177 H 200.988 -3.01816 -0.337776 0
M  V30 2178 H 198.573 -1.4906 -0.100695 0
M  V30 2179 H 200.455 -3.16129 -2.7864 0
M  V30 2180 H 199.13 -1.9881 -2.55453 0
M  V30 2181 H 198.037 -3.62705 -0.916296 0
M  V30 2182 H 199.37 -4.76722 -1.22464 0
M  V30 2183 N 201.022 0.148545 -1.56898 0
M  V30 2184 C 202.268 0.862694 -1.83536 0
M  V30 2185 C 202.601 1.80889 -0.706604 0
M  V30 2186 O 201.876 1.92328 0.289885 0
M  V30 2187 C 202.159 1.63853 -3.20662 0
M  V30 2188 C 202.012 0.713925 -4.44098 0
M  V30 2189 C 203.331 2.60133 -3.54991 0
M  V30 2190 H 200.45 0.312179 -0.667618 0
M  V30 2191 H 203.092 0.127953 -1.89569 0
M  V30 2192 H 201.242 2.26489 -3.1565 0
M  V30 2193 H 202.914 0.098686 -4.61194 0
M  V30 2194 H 201.157 0.0234019 -4.33794 0
M  V30 2195 H 201.828 1.29278 -5.36648 0
M  V30 2196 H 204.304 2.07616 -3.60603 0
M  V30 2197 H 203.18 3.11468 -4.51972 0
M  V30 2198 H 203.441 3.41417 -2.80868 0
M  V30 2199 N 202.5 1.5196 0.417844 0
M  V30 2200 C 203.747 1.65591 1.16559 0
M  V30 2201 C 204.075 0.381565 1.90721 0
M  V30 2202 O 203.33 -0.635156 1.85106 0
M  V30 2203 C 203.629 2.82269 2.19223 0
M  V30 2204 C 203.295 4.20819 1.61933 0
M  V30 2205 C 201.957 4.58506 1.46033 0
M  V30 2206 C 204.309 5.07196 1.20008 0
M  V30 2207 C 201.637 5.80257 0.867113 0
M  V30 2208 C 203.989 6.29544 0.621086 0
M  V30 2209 C 202.653 6.65987 0.449144 0
M  V30 2210 H 201.923 0.605939 0.42652 0
M  V30 2211 H 204.57 1.86041 0.45397 0
M  V30 2212 H 202.875 2.56118 2.96498 0
M  V30 2213 H 204.572 2.90012 2.76936 0
M  V30 2214 H 201.162 3.91116 1.7529 0
M  V30 2215 H 205.346 4.7867 1.31105 0
M  V30 2216 H 200.602 6.07124 0.721833 0
M  V30 2217 H 204.776 6.95805 0.287798 0
M  V30 2218 H 202.403 7.60199 -0.012632 0
M  V30 2219 N 203.978 -0.674533 1.42435 0
M  V30 2220 C 205.255 -1.4305 1.33402 0
M  V30 2221 C 205.635 -2.11081 -0.0284674 0
M  V30 2222 O 204.983 -2.03257 -1.04397 0
M  V30 2223 C 205.193 -2.43272 2.50239 0
M  V30 2224 C 206.541 -3.07907 2.92367 0
M  V30 2225 O 207.565 -2.53599 2.50132 0
M  V30 2226 O 206.424 -4.0632 3.65467 0
M  V30 2227 H 203.518 -0.638076 0.526106 0
M  V30 2228 H 206.064 -0.703235 1.54443 0
M  V30 2229 H 204.836 -1.91803 3.41068 0
M  V30 2230 H 204.459 -3.23479 2.31186 0
M  V30 2231 N 205.456 -1.28612 -0.910864 0
M  V30 2232 C 206.686 -1.1862 -1.69153 0
M  V30 2233 C 207.094 0.257324 -1.87442 0
M  V30 2234 O 206.437 1.18543 -1.40332 0
M  V30 2235 C 206.499 -1.81606 -3.10257 0
M  V30 2236 C 206.163 -3.30864 -3.15243 0
M  V30 2237 C 207.16 -4.27256 -2.96223 0
M  V30 2238 C 204.845 -3.71871 -3.37664 0
M  V30 2239 C 206.839 -5.62631 -2.99541 0
M  V30 2240 C 204.526 -5.07371 -3.40614 0
M  V30 2241 C 205.524 -6.02561 -3.21573 0
M  V30 2242 O 205.212 -7.35589 -3.2429 0
M  V30 2243 H 204.944 -0.412633 -0.535453 0
M  V30 2244 H 207.498 -1.70306 -1.14827 0
M  V30 2245 H 205.728 -1.24418 -3.66138 0
M  V30 2246 H 207.417 -1.66092 -3.70362 0
M  V30 2247 H 208.183 -3.9691 -2.78725 0
M  V30 2248 H 204.062 -2.98241 -3.5153 0
M  V30 2249 H 207.606 -6.36907 -2.84597 0
M  V30 2250 H 203.503 -5.37366 -3.57642 0
M  V30 2251 H 204.271 -7.44252 -3.40633 0
M  V30 2252 N 206.934 1.1197 -1.10907 0
M  V30 2253 C 207.864 2.19928 -0.784473 0
M  V30 2254 C 208.845 1.6833 0.244726 0
M  V30 2255 O 210.03 1.93892 0.109418 0
M  V30 2256 C 207.16 3.46597 -0.220827 0
M  V30 2257 C 206.114 4.11376 -1.18127 0
M  V30 2258 C 205.44 5.32554 -0.478594 0
M  V30 2259 C 206.74 4.56945 -2.52979 0
M  V30 2260 H 208.434 2.47337 -1.68715 0
M  V30 2261 H 205.98 1.18879 -0.812642 0
M  V30 2262 H 207.933 4.21396 0.0184278 0
M  V30 2263 H 206.657 3.1863 0.717113 0
M  V30 2264 H 205.316 3.38564 -1.40606 0
M  V30 2265 H 204.964 5.00856 0.463976 0
M  V30 2266 H 204.664 5.76844 -1.11912 0
M  V30 2267 H 206.188 6.10096 -0.248 0
M  V30 2268 H 207.602 5.23093 -2.3462 0
M  V30 2269 H 205.999 5.1203 -3.12962 0
M  V30 2270 H 207.069 3.70676 -3.12614 0
M  V30 2271 N 208.412 0.89855 1.29475 0
M  V30 2272 C 209.658 0.524658 1.95896 0
M  V30 2273 C 209.991 -0.926468 1.70676 0
M  V30 2274 O 209.266 -1.65665 1.01908 0
M  V30 2275 C 209.549 0.81633 3.50725 0
M  V30 2276 C 209.402 2.31907 3.85408 0
M  V30 2277 C 210.721 0.302038 4.39062 0
M  V30 2278 H 207.84 0.19209 0.711527 0
M  V30 2279 H 210.482 1.12502 1.53112 0
M  V30 2280 H 208.632 0.305369 3.87298 0
M  V30 2281 H 210.304 2.89949 3.58786 0
M  V30 2282 H 208.547 2.78027 3.32992 0
M  V30 2283 H 209.218 2.47373 4.93468 0
M  V30 2284 H 211.694 0.739551 4.09475 0
M  V30 2285 H 210.57 0.535331 5.46283 0
M  V30 2286 H 210.831 -0.797216 4.34853 0
M  V30 2287 N 209.89 -1.43072 0.660911 0
M  V30 2288 C 210.853 -2.29194 -0.0166406 0
M  V30 2289 C 211.853 -1.42609 -0.742912 0
M  V30 2290 O 213.043 -1.64155 -0.583004 0
M  V30 2291 C 210.175 -3.24831 -1.0343 0
M  V30 2292 H 211.368 -2.90596 0.741208 0
M  V30 2293 H 208.921 -1.5048 0.422532 0
M  V30 2294 H 209.656 -2.68339 -1.82111 0
M  V30 2295 H 209.441 -3.88676 -0.517082 0
M  V30 2296 H 210.931 -3.89451 -1.50723 0
M  V30 2297 N 211.368 -0.403325 -1.52352 0
M  V30 2298 C 212.318 0.442244 -2.2367 0
M  V30 2299 C 213.302 1.01823 -1.24583 0
M  V30 2300 O 214.494 0.942005 -1.49851 0
M  V30 2301 C 211.623 1.5615 -3.05732 0
M  V30 2302 C 210.709 0.996575 -4.12225 0
M  V30 2303 N 211.1 0.157804 -5.05554 0
M  V30 2304 C 209.398 1.26767 -4.27605 0
M  V30 2305 C 210.099 -0.155853 -5.81491 0
M  V30 2306 N 209.075 0.451775 -5.41719 0
M  V30 2307 H 212.877 -0.204964 -2.93184 0
M  V30 2308 H 210.391 -0.213418 -1.60992 0
M  V30 2309 H 212.388 2.17981 -3.55373 0
M  V30 2310 H 211.048 2.21139 -2.37755 0
M  V30 2311 H 212.059 -0.206049 -5.1749 0
M  V30 2312 H 208.736 1.91757 -3.70858 0
M  V30 2313 H 210.126 -0.836329 -6.66675 0
M  V30 2314 N 212.846 1.57033 -0.133567 0
M  V30 2315 C 214.094 1.953 0.519848 0
M  V30 2316 C 214.415 1.01866 1.66278 0
M  V30 2317 O 213.685 0.0776513 1.95746 0
M  V30 2318 H 212.265 0.721091 0.195032 0
M  V30 2319 H 214.927 1.93809 -0.205921 0
M  V30 2320 H 214.023 2.98695 0.904854 0
M  V30 2321 N 214.325 -0.140222 1.56975 0
M  V30 2322 C 215.741 -0.493088 1.51792 0
M  V30 2323 C 215.941 -1.83013 0.843116 0
M  V30 2324 O 214.997 -2.49041 0.416493 0
M  V30 2325 C 216.31 -0.497144 2.96562 0
M  V30 2326 C 217.858 -0.582186 3.07538 0
M  V30 2327 C 218.333 -0.616838 4.53827 0
M  V30 2328 N 219.824 -0.678873 4.58198 0
M  V30 2329 C 220.559 -0.726782 5.68775 0
M  V30 2330 N 220.055 -0.733623 6.88905 0
M  V30 2331 N 221.848 -0.768179 5.56826 0
M  V30 2332 H 213.999 0.736108 1.99237 0
M  V30 2333 H 216.262 0.269182 0.90898 0
M  V30 2334 H 215.968 0.417217 3.49217 0
M  V30 2335 H 215.842 -1.33263 3.52875 0
M  V30 2336 H 218.229 -1.48697 2.54899 0
M  V30 2337 H 218.31 0.280581 2.54257 0
M  V30 2338 H 217.954 0.283812 5.07106 0
M  V30 2339 H 217.884 -1.49619 5.04898 0
M  V30 2340 H 220.375 -0.68061 3.7172 0
M  V30 2341 H 220.688 -0.772215 7.68932 0
M  V30 2342 H 219.033 -0.701389 6.91452 0
M  V30 2343 H 222.224 -0.760051 4.61888 0
M  V30 2344 H 222.397 -0.80205 6.43017 0
M  V30 2345 N 215.803 -1.52179 -0.40978 0
M  V30 2346 C 216.736 -1.70196 -1.52015 0
M  V30 2347 C 217.714 -0.549542 -1.53032 0
M  V30 2348 O 218.898 -0.776815 -1.71749 0
M  V30 2349 C 216.025 -1.74069 -2.90547 0
M  V30 2350 C 215.071 -2.95601 -3.07445 0
M  V30 2351 S 215.904 -4.55956 -2.80827 0
M  V30 2352 C 217.06 -4.62614 -4.21591 0
M  V30 2353 H 217.293 -2.64109 -1.36504 0
M  V30 2354 H 214.826 -1.4221 -0.601312 0
M  V30 2355 H 216.784 -1.76985 -3.70387 0
M  V30 2356 H 215.445 -0.812835 -3.034 0
M  V30 2357 H 214.638 -2.94791 -4.08796 0
M  V30 2358 H 214.24 -2.90569 -2.35469 0
M  V30 2359 H 216.532 -4.39951 -5.15218 0
M  V30 2360 H 217.475 -5.64548 -4.27424 0
M  V30 2361 H 217.883 -3.91654 -4.06531 0
M  V30 2362 N 217.281 0.66697 -1.42791 0
M  V30 2363 C 218.228 1.7803 -1.4688 0
M  V30 2364 C 219.198 1.6299 -0.319919 0
M  V30 2365 O 220.383 1.83432 -0.525118 0
M  V30 2366 C 217.523 3.1611 -1.38451 0
M  V30 2367 C 216.636 3.42381 -2.63437 0
M  V30 2368 C 215.771 4.70232 -2.47094 0
M  V30 2369 C 214.81 4.89564 -3.67415 0
M  V30 2370 N 213.947 6.08661 -3.49966 0
M  V30 2371 H 218.787 1.7387 -2.42019 0
M  V30 2372 H 216.324 0.84868 -1.20149 0
M  V30 2373 H 218.282 3.95914 -1.31561 0
M  V30 2374 H 216.912 3.19374 -0.469033 0
M  V30 2375 H 215.964 2.56774 -2.80662 0
M  V30 2376 H 217.276 3.52557 -3.52853 0
M  V30 2377 H 216.43 5.5814 -2.37834 0
M  V30 2378 H 215.169 4.62353 -1.5518 0
M  V30 2379 H 214.174 4.00096 -3.77099 0
M  V30 2380 H 215.399 4.99282 -4.6032 0
M  V30 2381 H 213.345 6.0194 -2.60776 0
M  V30 2382 H 213.262 6.19733 -4.32975 0
M  V30 2383 H 214.53 6.99226 -3.44532 0
M  V30 2384 N 218.759 1.29093 0.90403 0
M  V30 2385 C 219.669 1.15727 2.0407 0
M  V30 2386 C 220.685 0.0815308 1.73809 0
M  V30 2387 O 221.861 0.292749 1.99261 0
M  V30 2388 C 218.926 0.830424 3.36608 0
M  V30 2389 C 217.987 1.98955 3.80415 0
M  V30 2390 C 217.22 1.6782 5.06628 0
M  V30 2391 O 217.443 0.597105 5.67266 0
M  V30 2392 O 216.377 2.52486 5.46383 0
M  V30 2393 H 220.203 2.11171 2.18267 0
M  V30 2394 H 217.788 1.08504 1.027 0
M  V30 2395 H 219.67 0.662521 4.16159 0
M  V30 2396 H 218.345 -0.0942678 3.23563 0
M  V30 2397 H 217.252 2.21267 3.01648 0
M  V30 2398 H 218.585 2.89529 3.98037 0
M  V30 2399 N 220.237 -1.11381 1.11499 0
M  V30 2400 C 221.184 -2.17439 0.773887 0
M  V30 2401 C 222.154 -1.64132 -0.254899 0
M  V30 2402 O 223.339 -1.90345 -0.13168 0
M  V30 2403 C 220.479 -3.44373 0.223917 0
M  V30 2404 C 219.592 -4.1168 1.30934 0
M  V30 2405 C 218.727 -5.263 0.71984 0
M  V30 2406 C 217.766 -5.85493 1.78507 0
M  V30 2407 N 216.903 -6.91507 1.21502 0
M  V30 2408 H 221.743 -2.45962 1.68246 0
M  V30 2409 H 219.28 -1.20744 0.840191 0
M  V30 2410 H 221.238 -4.17047 -0.112921 0
M  V30 2411 H 219.868 -3.16232 -0.647851 0
M  V30 2412 H 218.92 -3.37073 1.76312 0
M  V30 2413 H 220.232 -4.51729 2.11524 0
M  V30 2414 H 219.386 -6.05785 0.333094 0
M  V30 2415 H 218.125 -4.87559 -0.117377 0
M  V30 2416 H 217.13 -5.04686 2.18111 0
M  V30 2417 H 218.355 -6.26301 2.62533 0
M  V30 2418 H 216.301 -6.54783 0.399455 0
M  V30 2419 H 216.218 -7.30214 1.95763 0
M  V30 2420 H 217.486 -7.74795 0.855181 0
M  V30 2421 N 221.715 -0.905404 -1.28997 0
M  V30 2422 C 222.625 -0.392246 -2.31298 0
M  V30 2423 C 223.641 0.515889 -1.66176 0
M  V30 2424 O 224.817 0.404093 -1.97304 0
M  V30 2425 C 221.882 0.36686 -3.44754 0
M  V30 2426 C 220.943 -0.573485 -4.25452 0
M  V30 2427 C 220.176 0.149488 -5.33491 0
M  V30 2428 O 220.399 1.37255 -5.5364 0
M  V30 2429 O 219.333 -0.510919 -5.99728 0
M  V30 2430 H 223.159 -1.2411 -2.77183 0
M  V30 2431 H 220.744 -0.669926 -1.33538 0
M  V30 2432 H 222.626 0.795907 -4.13816 0
M  V30 2433 H 221.301 1.19169 -3.00966 0
M  V30 2434 H 220.208 -1.05176 -3.59011 0
M  V30 2435 H 221.541 -1.36489 -4.72897 0
M  V30 2436 N 223.193 1.4272 -0.668489 0
M  V30 2437 C 224.156 2.292 0.00448567 0
M  V30 2438 C 225.156 1.43001 0.735339 0
M  V30 2439 O 226.346 1.64461 0.57429 0
M  V30 2440 C 223.478 3.25375 1.01705 0
M  V30 2441 H 224.671 2.90199 -0.756608 0
M  V30 2442 H 222.224 1.50254 -0.430506 0
M  V30 2443 H 222.959 2.69301 1.80686 0
M  V30 2444 H 222.744 3.88944 0.496463 0
M  V30 2445 H 224.234 3.90245 1.48655 0
M  V30 2446 N 224.671 0.411399 1.52136 0
M  V30 2447 C 226.087 0.0623865 1.59478 0
M  V30 2448 C 226.287 -1.42554 1.4241 0
M  V30 2449 O 225.343 -2.19263 1.2522 0
M  V30 2450 C 226.656 0.559331 2.95452 0
M  V30 2451 C 228.204 0.517503 3.08692 0
M  V30 2452 C 228.679 0.990994 4.4715 0
M  V30 2453 N 230.17 0.947908 4.53397 0
M  V30 2454 C 230.905 1.28544 5.58806 0
M  V30 2455 N 230.401 1.69454 6.71757 0
M  V30 2456 N 232.194 1.20526 5.49026 0
M  V30 2457 H 224.345 1.37982 1.61477 0
M  V30 2458 H 226.608 0.566977 0.759764 0
M  V30 2459 H 226.314 1.59938 3.1323 0
M  V30 2460 H 226.188 -0.0298014 3.77188 0
M  V30 2461 H 228.575 -0.513505 2.90598 0
M  V30 2462 H 228.656 1.14272 2.28857 0
M  V30 2463 H 228.3 2.02034 4.65988 0
M  V30 2464 H 228.23 0.34257 5.25485 0
M  V30 2465 H 230.721 0.647157 3.72317 0
M  V30 2466 H 231.034 1.93513 7.48179 0
M  V30 2467 H 229.379 1.73359 6.73032 0
M  V30 2468 H 232.57 0.884505 4.59667 0
M  V30 2469 H 232.743 1.47161 6.31069 0
M  V30 2470 N 226.149 -1.5696 0.141893 0
M  V30 2471 C 227.112 -2.15316 -0.785587 0
M  V30 2472 C 228.112 -1.09366 -1.1788 0
M  V30 2473 O 229.302 -1.35031 -1.10056 0
M  V30 2474 C 226.434 -2.71211 -2.06537 0
M  V30 2475 H 227.627 -2.98608 -0.278041 0
M  V30 2476 H 225.18 -1.5593 -0.107519 0
M  V30 2477 H 225.915 -1.91571 -2.6167 0
M  V30 2478 H 225.7 -3.4872 -1.79268 0
M  V30 2479 H 227.19 -3.16189 -2.72789 0
M  V30 2480 N 227.627 0.131896 -1.57047 0
M  V30 2481 C 228.574 1.16236 -1.99393 0
M  V30 2482 C 229.544 1.41863 -0.863943 0
M  V30 2483 O 230.729 1.53946 -1.12718 0
M  V30 2484 C 227.869 2.48708 -2.39245 0
M  V30 2485 C 226.982 2.30127 -3.65603 0
M  V30 2486 C 226.117 3.55738 -3.94492 0
M  V30 2487 C 225.156 3.32259 -5.14073 0
M  V30 2488 N 224.293 4.50039 -5.38896 0
M  V30 2489 H 229.133 0.794251 -2.87221 0
M  V30 2490 H 226.67 0.380707 -1.42088 0
M  V30 2491 H 228.628 3.25969 -2.60384 0
M  V30 2492 H 227.258 2.83437 -1.54478 0
M  V30 2493 H 226.31 1.43845 -3.52154 0
M  V30 2494 H 227.622 2.08746 -4.5302 0
M  V30 2495 H 226.776 4.41423 -4.1621 0
M  V30 2496 H 225.515 3.80138 -3.05526 0
M  V30 2497 H 224.52 2.44963 -4.92212 0
M  V30 2498 H 225.745 3.09242 -6.04604 0
M  V30 2499 H 223.691 4.74584 -4.52886 0
M  V30 2500 H 223.608 4.31716 -6.2061 0
M  V30 2501 H 224.876 5.36895 -5.65123 0
M  V30 2502 N 229.106 1.52395 0.401703 0
M  V30 2503 C 230.353 1.66817 1.14796 0
M  V30 2504 C 230.681 0.401772 1.90305 0
M  V30 2505 O 229.936 -0.615487 1.85769 0
M  V30 2506 C 230.235 2.84578 2.16217 0
M  V30 2507 C 229.901 4.22513 1.5746 0
M  V30 2508 C 228.563 4.60029 1.41161 0
M  V30 2509 C 230.915 5.0844 1.14622 0
M  V30 2510 C 228.243 5.81144 0.80552 0
M  V30 2511 C 230.595 6.30167 0.55428 0
M  V30 2512 C 229.259 6.66426 0.378482 0
M  V30 2513 H 228.529 0.610428 0.420069 0
M  V30 2514 H 231.176 1.86512 0.434212 0
M  V30 2515 H 229.481 2.59248 2.93764 0
M  V30 2516 H 231.178 2.92933 2.73845 0
M  V30 2517 H 227.768 3.92953 1.71132 0
M  V30 2518 H 231.952 4.80034 1.26021 0
M  V30 2519 H 227.208 6.07855 0.657399 0
M  V30 2520 H 231.382 6.96071 0.213983 0
M  V30 2521 H 229.009 7.60143 -0.0932606 0
M  V30 2522 N 230.584 -0.659388 1.43143 0
M  V30 2523 C 232 -0.974337 1.26407 0
M  V30 2524 C 232.2 -2.007 0.179341 0
M  V30 2525 O 231.256 -2.4856 -0.444295 0
M  V30 2526 C 232.569 -1.46447 2.62628 0
M  V30 2527 C 234.117 -1.58144 2.7011 0
M  V30 2528 C 234.592 -2.1055 4.06734 0
M  V30 2529 N 236.083 -2.17861 4.08767 0
M  V30 2530 C 236.818 -2.59519 5.1131 0
M  V30 2531 N 236.314 -3.00518 6.24228 0
M  V30 2532 N 238.107 -2.59404 4.98664 0
M  V30 2533 H 230.258 0.0240528 2.12386 0
M  V30 2534 H 232.521 -0.0518065 0.946583 0
M  V30 2535 H 232.227 -0.780123 3.42939 0
M  V30 2536 H 232.101 -2.44058 2.87603 0
M  V30 2537 H 234.488 -2.25682 1.90136 0
M  V30 2538 H 234.569 -0.589828 2.48907 0
M  V30 2539 H 234.213 -1.43616 4.87172 0
M  V30 2540 H 234.143 -3.10531 4.25298 0
M  V30 2541 H 236.634 -1.88975 3.27257 0
M  V30 2542 H 236.947 -3.31036 6.98309 0
M  V30 2543 H 235.292 -2.98337 6.2771 0
M  V30 2544 H 238.483 -2.26747 4.09516 0
M  V30 2545 H 238.656 -2.91548 5.78709 0
M  V30 2546 N 232.062 -1.29571 -0.897171 0
M  V30 2547 C 232.994 -1.10724 -2.00681 0
M  V30 2548 C 234.007 -0.0540026 -1.6271 0
M  V30 2549 O 235.196 -0.298783 -1.75982 0
M  V30 2550 C 232.296 -0.663912 -3.32333 0
M  V30 2551 C 231.469 -1.79622 -3.98816 0
M  V30 2552 C 230.528 -1.34349 -5.0876 0
M  V30 2553 O 229.554 -2.04864 -5.31055 0
M  V30 2554 N 230.756 -0.215764 -5.80099 0
M  V30 2555 H 233.521 -2.06291 -2.17403 0
M  V30 2556 H 231.082 -1.21544 -1.06951 0
M  V30 2557 H 233.074 -0.344295 -4.03233 0
M  V30 2558 H 231.644 0.199375 -3.11964 0
M  V30 2559 H 230.864 -2.28459 -3.21248 0
M  V30 2560 H 232.152 -2.55535 -4.39976 0
M  V30 2561 H 231.55 0.372091 -5.64475 0
M  V30 2562 H 230.107 0.0444707 -6.51785 0
M  V30 2563 N 233.54 1.10788 -1.12088 0
M  V30 2564 C 234.789 1.82036 -0.868659 0
M  V30 2565 C 235.102 1.85929 0.607426 0
M  V30 2566 O 236.308 2.53346 0.97613 0
M  V30 2567 C 234.764 3.26951 -1.50435 0
M  V30 2568 C 234.372 3.31367 -3.01496 0
M  V30 2569 C 236.116 4.03053 -1.33225 0
M  V30 2570 C 234.023 4.7072 -3.58017 0
M  V30 2571 H 232.953 0.682108 -0.321318 0
M  V30 2572 H 235.604 1.24618 -1.34694 0
M  V30 2573 H 233.986 3.84343 -0.953735 0
M  V30 2574 H 235.16 2.83819 -3.6302 0
M  V30 2575 H 233.475 2.6875 -3.18061 0
M  V30 2576 H 236.072 5.05981 -1.72878 0
M  V30 2577 H 236.415 4.15387 -0.275529 0
M  V30 2578 H 236.948 3.52066 -1.85188 0
M  V30 2579 H 233.687 4.63585 -4.63432 0
M  V30 2580 H 233.207 5.1865 -3.01268 0
M  V30 2581 H 234.886 5.39685 -3.56859 0
M  V30 2582 N 235.018 0.912232 1.28515 0
M  V30 2583 C 236.264 0.545405 1.95328 0
M  V30 2584 C 236.597 -0.908313 1.71649 0
M  V30 2585 O 235.872 -1.64575 1.03659 0
M  V30 2586 C 236.155 0.853483 3.4984 0
M  V30 2587 C 236.008 2.35982 3.82926 0
M  V30 2588 C 237.327 0.348589 4.38717 0
M  V30 2589 H 234.446 0.199626 0.709449 0
M  V30 2590 H 237.088 1.1412 1.5191 0
M  V30 2591 H 235.238 0.34643 3.86952 0
M  V30 2592 H 236.91 2.93738 3.55691 0
M  V30 2593 H 235.153 2.81543 3.30024 0
M  V30 2594 H 235.824 2.52593 4.90816 0
M  V30 2595 H 238.3 0.78294 4.08668 0
M  V30 2596 H 237.176 0.593242 5.45685 0
M  V30 2597 H 237.437 -0.751049 4.35674 0
M  V30 2598 N 236.496 -1.42363 0.676048 0
M  V30 2599 C 237.721 -2.06377 0.205705 0
M  V30 2600 C 238.146 -1.50463 -1.12883 0
M  V30 2601 O 237.504 -0.623619 -1.70237 0
M  V30 2602 C 237.552 -3.60277 0.152655 0
M  V30 2603 O 236.656 -4.02935 -0.87845 0
M  V30 2604 H 235.997 -0.655588 0.105359 0
M  V30 2605 H 238.527 -1.82475 0.925412 0
M  V30 2606 H 238.537 -4.07993 -0.0230675 0
M  V30 2607 H 237.212 -4.00346 1.12675 0
M  V30 2608 H 235.789 -3.66764 -0.673668 0
M  V30 2609 N 237.974 -0.419461 -1.51915 0
M  V30 2610 C 238.937 0.389116 -2.25873 0
M  V30 2611 C 239.937 0.964924 -1.28631 0
M  V30 2612 O 241.127 0.842179 -1.52489 0
M  V30 2613 C 238.259 1.54874 -3.03689 0
M  V30 2614 H 239.452 -0.258799 -2.98781 0
M  V30 2615 H 237.005 -0.172209 -1.55348 0
M  V30 2616 H 237.74 2.23323 -2.35154 0
M  V30 2617 H 237.525 1.14223 -3.75094 0
M  V30 2618 H 239.015 2.12046 -3.59759 0
M  V30 2619 N 239.452 1.56882 -0.150215 0
M  V30 2620 C 240.698 1.96518 0.500834 0
M  V30 2621 C 241.031 1.03527 1.64304 0
M  V30 2622 O 240.306 0.0782751 1.94342 0
M  V30 2623 C 240.589 3.45822 1.00395 0
M  V30 2624 C 240.442 4.49591 -0.136983 0
M  V30 2625 C 241.761 3.97704 1.88467 0
M  V30 2626 H 238.88 0.714535 0.18058 0
M  V30 2627 H 241.522 1.88577 -0.232091 0
M  V30 2628 H 239.672 3.5272 1.62851 0
M  V30 2629 H 241.344 4.5477 -0.77343 0
M  V30 2630 H 239.587 4.26441 -0.795652 0
M  V30 2631 H 240.258 5.51402 0.256815 0
M  V30 2632 H 242.734 3.93304 1.35834 0
M  V30 2633 H 241.61 5.0263 2.20578 0
M  V30 2634 H 241.871 3.40252 2.82279 0
M  V30 2635 N 240.93 -0.123565 1.57115 0
M  V30 2636 C 241.862 -1.17739 1.96648 0
M  V30 2637 C 242.875 -1.37906 0.865201 0
M  V30 2638 O 244.064 -1.37062 1.14351 0
M  V30 2639 C 241.164 -2.53821 2.24562 0
M  V30 2640 C 240.337 -2.54317 3.55867 0
M  V30 2641 C 239.396 -3.72112 3.72047 0
M  V30 2642 O 238.422 -3.55907 4.44206 0
M  V30 2643 N 239.624 -4.90498 3.10471 0
M  V30 2644 H 242.389 -0.841147 2.87654 0
M  V30 2645 H 239.95 -0.31289 1.58848 0
M  V30 2646 H 241.942 -3.31175 2.32606 0
M  V30 2647 H 240.512 -2.79645 1.39705 0
M  V30 2648 H 239.732 -1.62711 3.59053 0
M  V30 2649 H 241.02 -2.51701 4.42181 0
M  V30 2650 H 240.418 -5.06567 2.51806 0
M  V30 2651 H 238.975 -5.65544 3.24043 0
M  V30 2652 N 242.408 -1.52605 -0.393616 0
M  V30 2653 C 243.638 -1.71046 -1.15874 0
M  V30 2654 C 244.046 -0.426483 -1.84331 0
M  V30 2655 O 243.389 0.608513 -1.73329 0
M  V30 2656 C 243.451 -2.80118 -2.25332 0
M  V30 2657 C 243.115 -4.21381 -1.76881 0
M  V30 2658 C 244.112 -5.04697 -1.24808 0
M  V30 2659 C 241.797 -4.67683 -1.83244 0
M  V30 2660 C 243.791 -6.32393 -0.797387 0
M  V30 2661 C 241.478 -5.95364 -1.37787 0
M  V30 2662 C 242.476 -6.77549 -0.861208 0
M  V30 2663 O 242.164 -8.02837 -0.413252 0
M  V30 2664 H 241.896 -0.576155 -0.353583 0
M  V30 2665 H 244.45 -2.00018 -0.467123 0
M  V30 2666 H 242.68 -2.46557 -2.97904 0
M  V30 2667 H 244.369 -2.87006 -2.87023 0
M  V30 2668 H 245.135 -4.70111 -1.19252 0
M  V30 2669 H 241.014 -4.03805 -2.22401 0
M  V30 2670 H 244.558 -6.9649 -0.393437 0
M  V30 2671 H 240.455 -6.29455 -1.43026 0
M  V30 2672 H 241.223 -8.16749 -0.53515 0
M  V30 2673 N 243.887 0.651787 -1.4349 0
M  V30 2674 C 245.127 1.42345 -1.46688 0
M  V30 2675 C 245.491 1.91793 -0.0891023 0
M  V30 2676 O 246.692 2.688 0.00423594 0
M  V30 2677 C 244.963 2.57221 -2.48137 0
M  V30 2678 S 246.522 3.45725 -2.70221 0
M  V30 2679 H 243.34 0.485878 -0.51908 0
M  V30 2680 H 245.942 0.756578 -1.80267 0
M  V30 2681 H 244.646 2.1917 -3.46976 0
M  V30 2682 H 244.177 3.28757 -2.16061 0
M  V30 2683 H 246.192 4.53996 -2.00255 0
M  V30 2684 N 245.365 1.30045 0.890287 0
M  V30 2685 C 246.315 1.12592 1.9826 0
M  V30 2686 C 247.299 0.0426021 1.60844 0
M  V30 2687 O 248.491 0.265346 1.75 0
M  V30 2688 C 245.62 0.814301 3.33503 0
M  V30 2689 C 244.706 1.93761 3.7725 0
M  V30 2690 N 245.097 3.18232 3.93143 0
M  V30 2691 C 243.395 1.83277 4.06602 0
M  V30 2692 C 244.096 3.9158 4.30163 0
M  V30 2693 N 243.072 3.19591 4.3973 0
M  V30 2694 H 246.874 2.07003 2.08631 0
M  V30 2695 H 244.388 1.21307 1.07974 0
M  V30 2696 H 246.385 0.67029 4.11476 0
M  V30 2697 H 245.045 -0.121797 3.24471 0
M  V30 2698 H 246.056 3.53581 3.78419 0
M  V30 2699 H 242.733 0.97001 4.06075 0
M  V30 2700 H 244.123 4.98744 4.50226 0
M  V30 2701 N 246.843 -1.10192 1.12674 0
M  V30 2702 C 247.775 -2.16418 0.754701 0
M  V30 2703 C 248.788 -1.61309 -0.21986 0
M  V30 2704 O 249.977 -1.785 -0.000826841 0
M  V30 2705 C 247.077 -3.38762 0.096698 0
M  V30 2706 C 246.25 -4.23307 1.10136 0
M  V30 2707 C 245.309 -5.24092 0.470513 0
M  V30 2708 O 244.335 -5.57906 1.12824 0
M  V30 2709 N 245.537 -5.75491 -0.760948 0
M  V30 2710 H 248.302 -2.48943 1.66875 0
M  V30 2711 H 245.863 -1.25834 1.01869 0
M  V30 2712 H 247.855 -4.03291 -0.337384 0
M  V30 2713 H 246.425 -3.04192 -0.720153 0
M  V30 2714 H 245.645 -3.55036 1.71299 0
M  V30 2715 H 246.933 -4.76624 1.78064 0
M  V30 2716 H 246.331 -5.50222 -1.31424 0
M  V30 2717 H 244.888 -6.41792 -1.13781 0
M  V30 2718 N 248.321 -0.919034 -1.28029 0
M  V30 2719 C 249.268 -0.410005 -2.27129 0
M  V30 2720 C 250.238 0.518405 -1.57803 0
M  V30 2721 O 251.423 0.439451 -1.8567 0
M  V30 2722 C 248.563 0.339054 -3.4343 0
M  V30 2723 C 247.676 -0.622468 -4.27492 0
M  V30 2724 C 246.811 0.145567 -5.31001 0
M  V30 2725 C 245.85 -0.809226 -6.06727 0
M  V30 2726 N 244.987 -0.0743728 -7.02061 0
M  V30 2727 H 249.827 -1.26011 -2.70047 0
M  V30 2728 H 247.364 -0.632663 -1.328 0
M  V30 2729 H 249.322 0.789586 -4.0966 0
M  V30 2730 H 247.952 1.15346 -3.01488 0
M  V30 2731 H 247.004 -1.19153 -3.61257 0
M  V30 2732 H 248.316 -1.35252 -4.80113 0
M  V30 2733 H 247.47 0.656417 -6.03139 0
M  V30 2734 H 246.209 0.908643 -4.79161 0
M  V30 2735 H 245.214 -1.3314 -5.33436 0
M  V30 2736 H 246.439 -1.57194 -6.60656 0
M  V30 2737 H 244.385 0.670616 -6.52563 0
M  V30 2738 H 244.302 -0.744157 -7.52329 0
M  V30 2739 H 245.57 0.416109 -7.78389 0
M  V30 2740 N 249.799 1.42003 -0.683588 0
M  V30 2741 C 251.046 2.01413 -0.209514 0
M  V30 2742 C 251.374 1.54088 1.1869 0
M  V30 2743 O 250.629 0.737591 1.81268 0
M  V30 2744 C 250.928 3.56827 -0.202357 0
M  V30 2745 C 250.594 4.23617 -1.54464 0
M  V30 2746 C 249.256 4.41577 -1.91215 0
M  V30 2747 C 251.608 4.61178 -2.42826 0
M  V30 2748 C 248.936 4.9437 -3.15935 0
M  V30 2749 C 251.288 5.15355 -3.66867 0
M  V30 2750 C 249.952 5.31528 -4.03776 0
M  V30 2751 H 249.222 0.737023 -0.0766668 0
M  V30 2752 H 251.869 1.70067 -0.880312 0
M  V30 2753 H 250.174 3.87892 0.551969 0
M  V30 2754 H 251.871 4.00588 0.181793 0
M  V30 2755 H 248.461 4.10004 -1.24877 0
M  V30 2756 H 252.645 4.46968 -2.15717 0
M  V30 2757 H 247.901 5.05076 -3.44541 0
M  V30 2758 H 252.075 5.43402 -4.35531 0
M  V30 2759 H 249.702 5.72199 -5.00492 0
M  V30 2760 N 251.277 0.427512 1.51691 0
M  V30 2761 C 252.526 -0.143679 2.01188 0
M  V30 2762 C 252.839 -1.44642 1.31674 0
M  V30 2763 O 254.045 -2.09997 1.72086 0
M  V30 2764 C 252.501 -0.306602 3.58592 0
M  V30 2765 C 252.109 0.985125 4.37035 0
M  V30 2766 C 253.853 -0.832091 4.16265 0
M  V30 2767 C 251.76 0.788382 5.86122 0
M  V30 2768 H 250.69 -0.0574701 0.751807 0
M  V30 2769 H 253.341 0.555772 1.74881 0
M  V30 2770 H 251.723 -1.06882 3.81303 0
M  V30 2771 H 252.897 1.75492 4.26074 0
M  V30 2772 H 251.212 1.4384 3.90767 0
M  V30 2773 H 253.809 -0.995617 5.25349 0
M  V30 2774 H 254.152 -1.81186 3.74803 0
M  V30 2775 H 254.685 -0.128444 3.97593 0
M  V30 2776 H 251.424 1.74025 6.31978 0
M  V30 2777 H 250.944 0.0582143 5.99772 0
M  V30 2778 H 252.623 0.437722 6.45518 0
M  V30 2779 N 252.755 -1.56801 0.158532 0
M  V30 2780 C 254.001 -1.96781 -0.490405 0
M  V30 2781 C 254.334 -1.04397 -1.63753 0
M  V30 2782 O 253.609 -0.0885805 -1.94298 0
M  V30 2783 C 253.892 -3.4635 -0.985594 0
M  V30 2784 C 253.745 -4.49512 0.160824 0
M  V30 2785 C 255.064 -3.98697 -1.86355 0
M  V30 2786 H 252.183 -0.715482 -0.176788 0
M  V30 2787 H 254.825 -1.88451 0.242088 0
M  V30 2788 H 252.975 -3.53579 -1.60978 0
M  V30 2789 H 254.647 -4.54353 0.797537 0
M  V30 2790 H 252.89 -4.26013 0.818256 0
M  V30 2791 H 253.561 -5.51531 -0.227569 0
M  V30 2792 H 256.037 -3.94019 -1.33746 0
M  V30 2793 H 254.913 -5.03792 -2.17909 0
M  V30 2794 H 255.174 -3.41744 -2.8047 0
M  V30 2795 N 254.233 0.115231 -1.57178 0
M  V30 2796 C 255.183 1.14707 -1.97044 0
M  V30 2797 C 256.167 1.36866 -0.845957 0
M  V30 2798 O 257.359 1.37895 -1.10968 0
M  V30 2799 C 254.488 2.47266 -2.38148 0
M  V30 2800 C 253.574 2.28566 -3.57237 0
M  V30 2801 N 253.965 1.79685 -4.72807 0
M  V30 2802 C 252.263 2.59208 -3.62943 0
M  V30 2803 C 252.964 1.74781 -5.54821 0
M  V30 2804 N 251.94 2.19264 -4.97417 0
M  V30 2805 H 255.742 0.761754 -2.83857 0
M  V30 2806 H 253.256 0.322928 -1.59157 0
M  V30 2807 H 255.253 3.219 -2.64927 0
M  V30 2808 H 253.913 2.86552 -1.52702 0
M  V30 2809 H 254.924 1.49177 -4.9595 0
M  V30 2810 H 251.601 3.02154 -2.88113 0
M  V30 2811 H 252.991 1.38212 -6.57531 0
M  V30 2812 N 255.711 1.52812 0.385517 0
M  V30 2813 C 257.127 1.4214 0.725829 0
M  V30 2814 C 257.327 0.544589 1.94001 0
M  V30 2815 O 256.383 0.0193693 2.52493 0
M  V30 2816 C 257.696 2.85042 0.957668 0
M  V30 2817 C 259.244 2.94543 1.05892 0
M  V30 2818 C 259.719 4.38464 1.32337 0
M  V30 2819 N 261.21 4.41804 1.39151 0
M  V30 2820 C 261.945 5.5025 1.61285 0
M  V30 2821 N 261.441 6.68775 1.80866 0
M  V30 2822 N 263.234 5.37798 1.63492 0
M  V30 2823 H 255.385 2.08338 -0.413383 0
M  V30 2824 H 257.648 0.940016 -0.122775 0
M  V30 2825 H 257.354 3.51431 0.137568 0
M  V30 2826 H 257.228 3.27505 1.87137 0
M  V30 2827 H 259.615 2.28321 1.86959 0
M  V30 2828 H 259.696 2.55504 0.123057 0
M  V30 2829 H 259.34 5.05254 0.517793 0
M  V30 2830 H 259.27 4.75059 2.27214 0
M  V30 2831 H 261.761 3.56377 1.25713 0
M  V30 2832 H 262.074 7.47197 1.97271 0
M  V30 2833 H 260.419 6.71797 1.78083 0
M  V30 2834 H 263.61 4.44171 1.47749 0
M  V30 2835 H 263.783 6.22382 1.80402 0
M  V30 2836 N 257.189 -0.644168 1.43834 0
M  V30 2837 C 258.466 -1.40188 1.36406 0
M  V30 2838 C 258.846 -2.11094 0.0163124 0
M  V30 2839 O 258.194 -2.05426 -1.00062 0
M  V30 2840 C 258.404 -2.3791 2.55343 0
M  V30 2841 C 259.752 -3.01637 2.98832 0
M  V30 2842 O 260.776 -2.48237 2.55455 0
M  V30 2843 O 259.635 -3.98477 3.74003 0
M  V30 2844 H 256.729 -0.626773 0.539523 0
M  V30 2845 H 259.275 -0.670317 1.559 0
M  V30 2846 H 258.047 -1.84525 3.4506 0
M  V30 2847 H 257.67 -3.18503 2.37995 0
M  V30 2848 N 258.668 -1.30515 -0.883378 0
M  V30 2849 C 259.598 -1.19607 -2.00541 0
M  V30 2850 C 260.579 -0.086346 -1.69881 0
M  V30 2851 O 261.764 -0.268654 -1.92333 0
M  V30 2852 C 258.894 -0.888758 -3.35736 0
M  V30 2853 C 257.848 -1.95659 -3.8066 0
M  V30 2854 C 257.174 -1.50224 -5.13164 0
M  V30 2855 C 258.474 -3.36788 -3.99213 0
M  V30 2856 H 260.168 -2.13476 -2.09925 0
M  V30 2857 H 257.714 -1.02775 -1.00863 0
M  V30 2858 H 259.667 -0.799094 -4.13754 0
M  V30 2859 H 258.391 0.0856125 -3.26488 0
M  V30 2860 H 257.05 -2.03591 -3.04871 0
M  V30 2861 H 256.698 -0.516092 -5.00345 0
M  V30 2862 H 256.398 -2.2165 -5.44192 0
M  V30 2863 H 257.922 -1.42639 -5.93706 0
M  V30 2864 H 259.336 -3.31605 -4.67665 0
M  V30 2865 H 257.733 -4.06314 -4.41621 0
M  V30 2866 H 258.803 -3.78561 -3.03017 0
M  V30 2867 N 260.146 1.09593 -1.13257 0
M  V30 2868 C 261.093 2.1618 -0.808381 0
M  V30 2869 C 262.063 1.64517 0.228754 0
M  V30 2870 O 263.248 1.9053 0.101381 0
M  V30 2871 C 260.388 3.43973 -0.278675 0
M  V30 2872 C 259.501 4.09545 -1.37466 0
M  V30 2873 C 258.636 5.25088 -0.803479 0
M  V30 2874 C 257.675 5.82579 -1.87799 0
M  V30 2875 N 256.812 6.89486 -1.32488 0
M  V30 2876 H 261.652 2.43254 -1.72138 0
M  V30 2877 H 259.189 1.19392 -0.859294 0
M  V30 2878 H 261.147 4.17174 0.0465583 0
M  V30 2879 H 259.777 3.17223 0.597459 0
M  V30 2880 H 258.829 3.34226 -1.81652 0
M  V30 2881 H 260.141 4.48307 -2.18684 0
M  V30 2882 H 259.295 6.05178 -0.429427 0
M  V30 2883 H 258.034 4.87684 0.0397956 0
M  V30 2884 H 257.039 5.01152 -2.26113 0
M  V30 2885 H 258.264 6.22045 -2.72463 0
M  V30 2886 H 256.21 6.54064 -0.503575 0
M  V30 2887 H 256.127 7.27007 -2.07355 0
M  V30 2888 H 257.395 7.73336 -0.978336 0
M  V30 2889 N 261.624 0.925811 1.2754 0
M  V30 2890 C 262.587 0.428129 2.25166 0
M  V30 2891 C 263.587 -0.452261 1.54309 0
M  V30 2892 O 264.777 -0.253608 1.72344 0
M  V30 2893 C 261.909 -0.384749 3.38722 0
M  V30 2894 H 263.102 1.29066 2.70706 0
M  V30 2895 H 260.655 0.706323 1.3943 0
M  V30 2896 H 261.39 -1.26618 2.98561 0
M  V30 2897 H 261.175 0.246454 3.91325 0
M  V30 2898 H 262.665 -0.723389 4.11287 0
M  V30 2899 N 263.102 -1.41638 0.69111 0
M  V30 2900 C 264.012 -2.34588 0.0233487 0
M  V30 2901 C 265.028 -1.55987 -0.770984 0
M  V30 2902 O 266.204 -1.88486 -0.709569 0
M  V30 2903 C 263.269 -3.34684 -0.904851 0
M  V30 2904 C 262.33 -4.29176 -0.103225 0
M  V30 2905 C 261.563 -5.2449 -0.987216 0
M  V30 2906 O 261.786 -5.2514 -2.22674 0
M  V30 2907 O 260.72 -6.00295 -0.439281 0
M  V30 2908 H 264.546 -2.93261 0.789416 0
M  V30 2909 H 262.131 -1.42417 0.45142 0
M  V30 2910 H 264.013 -3.96133 -1.43724 0
M  V30 2911 H 262.688 -2.78461 -1.65049 0
M  V30 2912 H 261.595 -3.71089 0.473655 0
M  V30 2913 H 262.928 -4.88484 0.60365 0
M  V30 2914 N 264.58 -0.43555 -1.51462 0
M  V30 2915 C 265.528 0.391205 -2.29287 0
M  V30 2916 C 266.522 1.02247 -1.35062 0
M  V30 2917 O 267.728 0.957646 -1.52411 0
M  V30 2918 H 264.103 0.144968 -0.737895 0
M  V30 2919 H 266.074 -0.286051 -2.97026 0
M  V30 2920 C 264.823 1.48096 -3.14583 0
M  V30 2921 H 264.146 1.00457 -3.86973 0
M  V30 2922 H 265.586 2.03273 -3.72097 0
M  V30 2923 C 264.045 2.46321 -2.29843 0
M  V30 2924 O 264.575 3.50815 -1.95682 0
M  V30 2925 N 262.781 2.17166 -1.931 0
M  V30 2926 H 262.328 1.32218 -2.21079 0
M  V30 2927 H 262.286 2.83127 -1.36698 0
M  V30 2928 N 266.058 1.56714 -0.166846 0
M  V30 2929 C 266.988 2.20754 0.760913 0
M  V30 2930 C 267.969 1.16178 1.24244 0
M  V30 2931 O 269.154 1.44592 1.29641 0
M  V30 2932 C 266.284 2.84478 1.99223 0
M  V30 2933 C 265.238 3.95053 1.64672 0
M  V30 2934 C 264.564 4.45805 2.95232 0
M  V30 2935 C 265.864 5.14865 0.878155 0
M  V30 2936 H 267.558 2.98537 0.22713 0
M  V30 2937 H 265.104 1.43596 0.107805 0
M  V30 2938 H 267.057 3.27951 2.64624 0
M  V30 2939 H 265.781 2.04056 2.55007 0
M  V30 2940 H 264.44 3.52228 1.01641 0
M  V30 2941 H 264.088 3.62181 3.49047 0
M  V30 2942 H 263.788 5.204 2.7287 0
M  V30 2943 H 265.312 4.91962 3.6167 0
M  V30 2944 H 266.726 5.55059 1.43466 0
M  V30 2945 H 265.123 5.95348 0.753738 0
M  V30 2946 H 266.193 4.84735 -0.126377 0
M  V30 2947 N 267.536 -0.106894 1.57237 0
M  V30 2948 C 268.466 -1.13148 2.04254 0
M  V30 2949 C 269.447 -1.42476 0.929224 0
M  V30 2950 O 270.632 -1.52709 1.19973 0
M  V30 2951 C 267.762 -2.4545 2.45706 0
M  V30 2952 C 266.716 -2.30558 3.60592 0
M  V30 2953 C 266.042 -3.67931 3.87983 0
M  V30 2954 C 267.342 -1.75597 4.91897 0
M  V30 2955 H 269.036 -0.740374 2.90101 0
M  V30 2956 H 266.582 -0.354696 1.39563 0
M  V30 2957 H 268.535 -3.17389 2.77205 0
M  V30 2958 H 267.259 -2.86475 1.56843 0
M  V30 2959 H 265.918 -1.61067 3.29322 0
M  V30 2960 H 265.566 -4.06462 2.96306 0
M  V30 2961 H 265.266 -3.58817 4.65322 0
M  V30 2962 H 266.79 -4.41356 4.21945 0
M  V30 2963 H 268.204 -2.37364 5.21854 0
M  V30 2964 H 266.601 -1.77272 5.73319 0
M  V30 2965 H 267.671 -0.714451 4.79608 0
M  V30 2966 N 269.014 -1.53014 -0.377408 0
M  V30 2967 C 269.944 -1.81589 -1.46791 0
M  V30 2968 C 270.925 -0.668622 -1.56408 0
M  V30 2969 O 272.11 -0.917337 -1.71168 0
M  V30 2970 C 269.24 -1.99519 -2.8427 0
M  V30 2971 C 268.194 -3.15249 -2.89486 0
M  V30 2972 C 267.52 -3.18451 -4.29527 0
M  V30 2973 C 268.82 -4.54084 -2.58079 0
M  V30 2974 H 270.514 -2.7291 -1.23127 0
M  V30 2975 H 268.06 -1.31319 -0.590883 0
M  V30 2976 H 270.013 -2.18092 -3.60575 0
M  V30 2977 H 268.737 -1.04897 -3.09296 0
M  V30 2978 H 267.396 -2.96477 -2.15631 0
M  V30 2979 H 267.044 -2.2149 -4.5161 0
M  V30 2980 H 266.744 -3.962 -4.33934 0
M  V30 2981 H 268.268 -3.39193 -5.07721 0
M  V30 2982 H 269.682 -4.72899 -3.24098 0
M  V30 2983 H 268.079 -5.33987 -2.7382 0
M  V30 2984 H 269.149 -4.60006 -1.53372 0
M  V30 2985 N 270.492 0.636531 -1.44174 0
M  V30 2986 C 271.769 1.39463 -1.37148 0
M  V30 2987 C 272.149 2.11082 -0.027507 0
M  V30 2988 O 271.497 2.05954 0.989716 0
M  V30 2989 C 271.707 2.36552 -2.56601 0
M  V30 2990 C 273.055 3.00048 -3.00427 0
M  V30 2991 O 274.079 2.46878 -2.56767 0
M  V30 2992 O 272.938 3.96488 -3.76111 0
M  V30 2993 H 270.032 0.623903 -0.542839 0
M  V30 2994 H 272.578 0.662039 -1.56253 0
M  V30 2995 H 271.35 1.82692 -3.46034 0
M  V30 2996 H 270.973 3.17236 -2.39681 0
M  V30 2997 N 271.97 1.30982 0.876444 0
M  V30 2998 C 272.933 1.18054 1.96459 0
M  V30 2999 C 273.933 0.109399 1.60427 0
M  V30 3000 O 275.123 0.358173 1.70478 0
M  V30 3001 C 272.255 0.810616 3.31122 0
M  V30 3002 H 273.448 2.14735 2.09354 0
M  V30 3003 H 271.001 1.145 1.06392 0
M  V30 3004 H 271.736 -0.155322 3.23928 0
M  V30 3005 H 271.521 1.58481 3.58645 0
M  V30 3006 H 273.011 0.743876 4.10921 0
M  V30 3007 N 273.449 -1.08991 1.13837 0
M  V30 3008 C 274.726 -1.77863 0.813876 0
M  V30 3009 C 275.106 -1.99375 -0.693746 0
M  V30 3010 O 274.454 -1.59875 -1.63255 0
M  V30 3011 C 274.664 -3.0986 1.60586 0
M  V30 3012 C 276.012 -3.84493 1.8014 0
M  V30 3013 O 277.036 -3.19624 1.57222 0
M  V30 3014 O 275.895 -5.00957 2.18413 0
M  V30 3015 H 272.989 -0.771589 0.297624 0
M  V30 3016 H 275.535 -1.15507 1.24323 0
M  V30 3017 H 274.307 -2.89715 2.63022 0
M  V30 3018 H 273.93 -3.79942 1.17173 0
M  V30 3019 N 274.927 -0.932562 -1.27047 0
M  V30 3020 C 275.86 -0.379774 -2.25018 0
M  V30 3021 C 276.838 0.526587 -1.53837 0
M  V30 3022 O 278.022 0.465992 -1.82649 0
M  V30 3023 C 275.149 0.455187 -3.35627 0
M  V30 3024 C 274.195 -0.388428 -4.24728 0
M  V30 3025 S 275.028 -1.80701 -5.04091 0
M  V30 3026 C 276.184 -0.979865 -6.18182 0
M  V30 3027 H 276.417 -1.2101 -2.71558 0
M  V30 3028 H 273.95 -0.735078 -1.35779 0
M  V30 3029 H 275.908 0.931052 -3.99802 0
M  V30 3030 H 274.569 1.26009 -2.87716 0
M  V30 3031 H 273.762 0.25089 -5.03375 0
M  V30 3032 H 273.364 -0.798649 -3.65373 0
M  V30 3033 H 275.656 -0.218115 -6.77149 0
M  V30 3034 H 276.599 -1.73951 -6.86401 0
M  V30 3035 H 277.007 -0.51973 -5.62102 0
M  V30 3036 N 276.405 1.4127 -0.698611 0
M  V30 3037 C 277.353 2.32588 -0.023855 0
M  V30 3038 C 278.347 1.51128 0.765292 0
M  V30 3039 O 279.553 1.67043 0.670571 0
M  V30 3040 H 275.928 0.751918 0.0110871 0
M  V30 3041 H 277.899 2.87167 -0.811031 0
M  V30 3042 C 276.648 3.35947 0.896369 0
M  V30 3043 H 275.971 3.98684 0.298548 0
M  V30 3044 H 277.411 4.02376 1.33676 0
M  V30 3045 C 275.87 2.70076 2.01396 0
M  V30 3046 O 276.4 2.55093 3.10307 0
M  V30 3047 N 274.606 2.28724 1.79259 0
M  V30 3048 H 274.153 2.4111 0.906841 0
M  V30 3049 H 274.111 1.84986 2.54219 0
M  V30 3050 N 277.883 0.443576 1.51229 0
M  V30 3051 C 279.132 -0.122332 2.01329 0
M  V30 3052 C 279.445 -1.43237 1.33201 0
M  V30 3053 O 280.651 -2.0816 1.74304 0
M  V30 3054 C 279.107 -0.268551 3.58897 0
M  V30 3055 C 278.715 1.03142 4.35965 0
M  V30 3056 C 280.459 -0.787894 4.17124 0
M  V30 3057 C 278.366 0.850504 5.85252 0
M  V30 3058 H 277.296 -0.0494929 0.752374 0
M  V30 3059 H 279.947 0.574289 1.74282 0
M  V30 3060 H 278.329 -1.02832 3.82415 0
M  V30 3061 H 279.503 1.80001 4.24189 0
M  V30 3062 H 277.818 1.47977 3.89219 0
M  V30 3063 H 280.415 -0.939841 5.26375 0
M  V30 3064 H 280.758 -1.77201 3.76703 0
M  V30 3065 H 281.291 -0.0862669 3.97706 0
M  V30 3066 H 278.03 1.80718 6.30096 0
M  V30 3067 H 277.55 0.121825 5.99676 0
M  V30 3068 H 279.229 0.506163 6.45017 0
M  V30 3069 N 279.361 -1.56624 0.175154 0
M  V30 3070 C 280.308 -2.18149 -0.753634 0
M  V30 3071 C 281.278 -1.12265 -1.22417 0
M  V30 3072 O 282.463 -1.40432 -1.29165 0
M  V30 3073 C 279.603 -2.82933 -1.97592 0
M  V30 3074 C 278.716 -4.03289 -1.5486 0
M  V30 3075 C 277.851 -4.55988 -2.72485 0
M  V30 3076 C 276.89 -5.68746 -2.26262 0
M  V30 3077 N 276.027 -6.15938 -3.36994 0
M  V30 3078 H 280.867 -2.9717 -0.222195 0
M  V30 3079 H 278.404 -1.46774 -0.0979422 0
M  V30 3080 H 280.362 -3.18653 -2.69288 0
M  V30 3081 H 278.992 -2.06509 -2.481 0
M  V30 3082 H 278.044 -3.73364 -0.728246 0
M  V30 3083 H 279.356 -4.849 -1.16933 0
M  V30 3084 H 278.51 -4.9391 -3.52332 0
M  V30 3085 H 277.249 -3.73443 -3.13674 0
M  V30 3086 H 276.254 -5.30372 -1.44863 0
M  V30 3087 H 277.479 -6.53095 -1.86127 0
M  V30 3088 H 275.425 -5.36321 -3.77751 0
M  V30 3089 H 275.342 -6.92548 -3.03172 0
M  V30 3090 H 276.61 -6.58511 -4.17114 0
M  V30 3091 N 280.839 0.0985539 -1.57292 0
M  V30 3092 C 282.088 0.801358 -1.85098 0
M  V30 3093 C 282.401 1.80066 -0.763902 0
M  V30 3094 O 283.607 2.55112 -0.928981 0
M  V30 3095 C 282.063 1.47599 -3.28242 0
M  V30 3096 C 281.671 0.516624 -4.45011 0
M  V30 3097 C 283.415 2.16272 -3.65276 0
M  V30 3098 C 281.322 1.19564 -5.79188 0
M  V30 3099 H 280.252 0.303022 -0.69043 0
M  V30 3100 H 282.903 0.0542623 -1.8342 0
M  V30 3101 H 281.285 2.27042 -3.2445 0
M  V30 3102 H 282.459 -0.246065 -4.60143 0
M  V30 3103 H 280.774 -0.064227 -4.1635 0
M  V30 3104 H 283.371 2.67802 -4.62803 0
M  V30 3105 H 283.714 2.95009 -2.93727 0
M  V30 3106 H 284.247 1.43693 -3.70941 0
M  V30 3107 H 280.986 0.449157 -6.53959 0
M  V30 3108 H 280.506 1.92984 -5.67906 0
M  V30 3109 H 282.185 1.7231 -6.23633 0
M  V30 3110 N 282.317 1.53212 0.369288 0
M  V30 3111 C 283.28 1.7872 1.43498 0
M  V30 3112 C 284.28 0.657554 1.46741 0
M  V30 3113 O 285.47 0.925736 1.47566 0
M  V30 3114 C 282.602 1.90591 2.82645 0
M  V30 3115 H 283.795 2.73894 1.22156 0
M  V30 3116 H 281.348 1.44233 0.602203 0
M  V30 3117 H 282.083 0.974709 3.09306 0
M  V30 3118 H 281.868 2.72751 2.8169 0
M  V30 3119 H 283.358 2.11931 3.59826 0
M  V30 3120 N 283.795 -0.628877 1.44509 0
M  V30 3121 C 285.072 -1.38733 1.37886 0
M  V30 3122 C 285.452 -2.11065 0.0387008 0
M  V30 3123 O 284.8 -2.06476 -0.97878 0
M  V30 3124 C 285.01 -2.35188 2.57852 0
M  V30 3125 C 286.358 -2.9845 3.02014 0
M  V30 3126 O 287.382 -2.45513 2.58073 0
M  V30 3127 O 286.241 -3.94487 3.78209 0
M  V30 3128 H 283.335 -0.621015 0.54614 0
M  V30 3129 H 285.881 -0.653744 1.56602 0
M  V30 3130 H 284.653 -1.80855 3.46998 0
M  V30 3131 H 284.276 -3.1596 2.4136 0
M  V30 3132 N 285.273 -1.31445 -0.869486 0
M  V30 3133 C 286.52 -1.21158 -1.62256 0
M  V30 3134 C 286.848 0.230155 -1.93133 0
M  V30 3135 O 286.103 1.17906 -1.56194 0
M  V30 3136 C 286.402 -2.00145 -2.96102 0
M  V30 3137 C 286.068 -3.4964 -2.84715 0
M  V30 3138 C 284.73 -3.90403 -2.81317 0
M  V30 3139 C 287.082 -4.44769 -2.71716 0
M  V30 3140 C 284.41 -5.24561 -2.62778 0
M  V30 3141 C 286.762 -5.79054 -2.54714 0
M  V30 3142 C 285.426 -6.19037 -2.49699 0
M  V30 3143 H 284.696 -0.443348 -0.593737 0
M  V30 3144 H 287.343 -1.62715 -1.00976 0
M  V30 3145 H 285.648 -1.5127 -3.6142 0
M  V30 3146 H 287.345 -1.89566 -3.53363 0
M  V30 3147 H 283.935 -3.17256 -2.88178 0
M  V30 3148 H 288.119 -4.14208 -2.73397 0
M  V30 3149 H 283.375 -5.54613 -2.57321 0
M  V30 3150 H 287.549 -6.52393 -2.43632 0
M  V30 3151 H 285.176 -7.22935 -2.35093 0
M  V30 3152 N 286.751 1.08385 -1.14413 0
M  V30 3153 C 287.999 1.80419 -0.910679 0
M  V30 3154 C 288.32 1.86658 0.564243 0
M  V30 3155 O 287.59 1.35985 1.41014 0
M  V30 3156 H 286.17 0.668204 -0.333934 0
M  V30 3157 H 288.832 1.31037 -1.44275 0
M  V30 3158 H 287.928 2.83238 -1.31082 0
M  V30 3159 N 288.23 0.939286 1.26551 0
M  V30 3160 C 289.477 0.585847 1.9384 0
M  V30 3161 C 289.805 -0.874784 1.73718 0
M  V30 3162 O 289.06 -1.64092 1.06642 0
M  V30 3163 C 289.359 0.872106 3.46596 0
M  V30 3164 C 289.025 2.31632 3.86856 0
M  V30 3165 C 287.687 2.71111 3.97558 0
M  V30 3166 C 290.039 3.25494 4.07066 0
M  V30 3167 C 287.367 4.03553 4.25866 0
M  V30 3168 C 289.719 4.57531 4.36862 0
M  V30 3169 C 288.383 4.96828 4.45778 0
M  V30 3170 H 287.653 0.214377 0.709312 0
M  V30 3171 H 290.3 1.18544 1.50398 0
M  V30 3172 H 288.605 0.18996 3.91339 0
M  V30 3173 H 290.302 0.577442 3.96821 0
M  V30 3174 H 286.892 2.00008 3.79071 0
M  V30 3175 H 291.076 2.9619 3.98227 0
M  V30 3176 H 286.332 4.33665 4.30981 0
M  V30 3177 H 290.506 5.30254 4.51446 0
M  V30 3178 H 288.133 5.99482 4.67468 0
M  V30 3179 N 289.708 -1.40897 0.706093 0
M  V30 3180 C 290.933 -2.05895 0.249435 0
M  V30 3181 C 291.358 -1.52823 -1.09666 0
M  V30 3182 O 290.716 -0.659589 -1.68876 0
M  V30 3183 C 290.764 -3.59872 0.22904 0
M  V30 3184 O 289.868 -4.04708 -0.792784 0
M  V30 3185 H 289.209 -0.653206 0.119241 0
M  V30 3186 H 291.739 -1.80471 0.96391 0
M  V30 3187 H 291.749 -4.07951 0.0634791 0
M  V30 3188 H 290.424 -3.97866 1.21141 0
M  V30 3189 H 289.001 -3.68111 -0.59572 0
M  V30 3190 N 291.186 -0.45159 -1.50991 0
M  V30 3191 C 292.134 0.366864 -2.29689 0
M  V30 3192 C 293.128 1.00809 -1.36139 0
M  V30 3193 O 294.334 0.941427 -1.53418 0
M  V30 3194 H 290.709 0.137133 -0.739391 0
M  V30 3195 H 292.68 -0.317538 -2.96706 0
M  V30 3196 C 291.429 1.44751 -3.16137 0
M  V30 3197 H 290.752 0.963473 -3.88017 0
M  V30 3198 H 292.192 1.99315 -3.74232 0
M  V30 3199 C 290.651 2.43869 -2.32442 0
M  V30 3200 O 291.181 3.4872 -1.99392 0
M  V30 3201 N 289.387 2.15105 -1.95392 0
M  V30 3202 H 288.934 1.29866 -2.22469 0
M  V30 3203 H 288.892 2.81661 -1.39693 0
M  V30 3204 N 292.664 1.56529 -0.183458 0
M  V30 3205 C 293.574 2.22144 0.754272 0
M  V30 3206 C 294.59 1.21684 1.24374 0
M  V30 3207 O 295.766 1.54385 1.29333 0
M  V30 3208 C 292.831 2.85884 1.96141 0
M  V30 3209 C 291.892 4.01579 1.51765 0
M  V30 3210 C 291.125 4.6227 2.66725 0
M  V30 3211 O 291.348 4.21865 3.83909 0
M  V30 3212 O 290.282 5.51936 2.40104 0
M  V30 3213 H 294.108 3.02861 0.225527 0
M  V30 3214 H 291.693 1.49331 0.0453032 0
M  V30 3215 H 293.575 3.26253 2.66715 0
M  V30 3216 H 292.25 2.08154 2.47899 0
M  V30 3217 H 291.157 3.65856 0.781049 0
M  V30 3218 H 292.49 4.80938 1.04686 0
M  V30 3219 N 294.142 -0.090211 1.57342 0
M  V30 3220 C 295.389 -0.792807 1.86335 0
M  V30 3221 C 295.717 -1.78494 0.772662 0
M  V30 3222 O 294.972 -1.94305 -0.233258 0
M  V30 3223 C 295.271 -1.55222 3.21933 0
M  V30 3224 C 294.937 -0.701765 4.45406 0
M  V30 3225 C 293.599 -0.467334 4.78925 0
M  V30 3226 C 295.951 -0.11086 5.21082 0
M  V30 3227 C 293.279 0.367785 5.85546 0
M  V30 3228 C 295.631 0.711609 6.28585 0
M  V30 3229 C 294.295 0.956086 6.60617 0
M  V30 3230 H 293.565 -0.290109 0.681849 0
M  V30 3231 H 296.212 -0.0541332 1.91423 0
M  V30 3232 H 294.517 -2.3626 3.12551 0
M  V30 3233 H 296.214 -2.10032 3.41595 0
M  V30 3234 H 292.804 -0.894598 4.1916 0
M  V30 3235 H 296.988 -0.279129 4.95514 0
M  V30 3236 H 292.244 0.566128 6.08773 0
M  V30 3237 H 296.418 1.17632 6.86393 0
M  V30 3238 H 294.045 1.60499 7.43064 0
M  V30 3239 N 295.62 -1.53406 -0.361157 0
M  V30 3240 C 296.848 -1.73717 -1.12383 0
M  V30 3241 C 297.263 -0.468161 -1.82904 0
M  V30 3242 O 296.62 0.559198 -1.73722 0
M  V30 3243 C 296.671 -2.90558 -2.15078 0
M  V30 3244 O 296.392 -4.12549 -1.47428 0
M  V30 3245 C 297.893 -3.22777 -3.03858 0
M  V30 3246 H 295.113 -0.580896 -0.335858 0
M  V30 3247 H 297.657 -2.00167 -0.418728 0
M  V30 3248 H 295.812 -2.66489 -2.8118 0
M  V30 3249 H 296.226 -4.78009 -2.15887 0
M  V30 3250 H 297.7 -4.07927 -3.71887 0
M  V30 3251 H 298.177 -2.38329 -3.68912 0
M  V30 3252 H 298.783 -3.48787 -2.43367 0
M  V30 3253 N 297.098 0.621204 -1.44841 0
M  V30 3254 C 298.345 1.38055 -1.48145 0
M  V30 3255 C 298.673 1.94143 -0.117867 0
M  V30 3256 O 297.928 1.74713 0.881694 0
M  V30 3257 C 298.227 2.55675 -2.4973 0
M  V30 3258 C 297.893 2.17817 -3.94799 0
M  V30 3259 C 296.555 2.07205 -4.34303 0
M  V30 3260 C 298.907 1.88065 -4.86087 0
M  V30 3261 C 296.235 1.65045 -5.63007 0
M  V30 3262 C 298.587 1.47394 -6.15189 0
M  V30 3263 C 297.251 1.35331 -6.53637 0
M  V30 3264 H 296.521 0.505181 -0.542101 0
M  V30 3265 H 299.168 0.703477 -1.78111 0
M  V30 3266 H 297.473 3.2866 -2.13284 0
M  V30 3267 H 299.17 3.13904 -2.4953 0
M  V30 3268 H 295.76 2.26998 -3.63552 0
M  V30 3269 H 299.944 1.95168 -4.56315 0
M  V30 3270 H 295.2 1.54317 -5.91605 0
M  V30 3271 H 299.374 1.23415 -6.85377 0
M  V30 3272 H 297.001 1.02435 -7.53267 0
M  V30 3273 N 298.576 1.31904 0.862503 0
M  V30 3274 C 299.824 1.21776 1.61292 0
M  V30 3275 C 300.145 -0.222413 1.93727 0
M  V30 3276 O 299.415 -1.1451 1.58947 0
M  V30 3277 H 297.995 0.447717 0.597962 0
M  V30 3278 H 300.657 1.65326 1.03215 0
M  V30 3279 H 299.753 1.7948 2.5533 0
M  V30 3280 N 300.054 -1.07777 1.14986 0
M  V30 3281 C 301.002 -2.16964 0.838406 0
M  V30 3282 C 301.996 -1.68372 -0.186386 0
M  V30 3283 O 303.202 -1.79951 -0.0418465 0
M  V30 3284 H 299.577 -0.708006 0.253439 0
M  V30 3285 H 301.548 -2.40454 1.76704 0
M  V30 3286 C 300.297 -3.4604 0.339335 0
M  V30 3287 H 299.62 -3.83813 1.11927 0
M  V30 3288 H 301.06 -4.23698 0.160021 0
M  V30 3289 C 299.519 -3.23569 -0.938325 0
M  V30 3290 O 300.049 -3.47752 -2.01077 0
M  V30 3291 N 298.255 -2.77079 -0.876117 0
M  V30 3292 H 297.802 -2.576 -0.00322037 0
M  V30 3293 H 297.76 -2.62422 -1.73153 0
M  V30 3294 N 301.532 -0.945985 -1.26051 0
M  V30 3295 C 302.479 -0.45809 -2.26208 0
M  V30 3296 C 303.449 0.484816 -1.58867 0
M  V30 3297 O 304.634 0.399969 -1.86561 0
M  V30 3298 C 301.774 0.266131 -3.44072 0
M  V30 3299 C 300.887 -0.713005 -4.26075 0
M  V30 3300 C 300.022 0.0329013 -5.3119 0
M  V30 3301 C 299.061 -0.93774 -6.04874 0
M  V30 3302 N 298.198 -0.223274 -7.01745 0
M  V30 3303 H 303.038 -1.3171 -2.67313 0
M  V30 3304 H 300.575 -0.66069 -1.31428 0
M  V30 3305 H 302.533 0.702514 -4.11243 0
M  V30 3306 H 301.163 1.08925 -3.03867 0
M  V30 3307 H 300.215 -1.26789 -3.58648 0
M  V30 3308 H 301.527 -1.45406 -4.77136 0
M  V30 3309 H 300.681 0.528335 -6.04395 0
M  V30 3310 H 299.42 0.806801 -4.8098 0
M  V30 3311 H 298.425 -1.44425 -5.30492 0
M  V30 3312 H 299.65 -1.71172 -6.57173 0
M  V30 3313 H 297.596 0.532046 -6.53839 0
M  V30 3314 H 297.513 -0.90357 -7.50581 0
M  V30 3315 H 298.781 0.250907 -7.79096 0
M  V30 3316 N 303.011 1.40521 -0.713556 0
M  V30 3317 C 303.941 2.33381 -0.0743864 0
M  V30 3318 C 304.922 1.52784 0.747735 0
M  V30 3319 O 306.107 1.81258 0.697071 0
M  V30 3320 C 303.237 3.36748 0.849598 0
M  V30 3321 C 302.191 4.27793 0.133247 0
M  V30 3322 C 301.517 5.21679 1.17281 0
M  V30 3323 C 302.817 5.12415 -1.01134 0
M  V30 3324 H 304.511 2.87081 -0.850007 0
M  V30 3325 H 302.057 1.38034 -0.410201 0
M  V30 3326 H 304.01 4.00648 1.30612 0
M  V30 3327 H 302.734 2.81439 1.65709 0
M  V30 3328 H 301.393 3.65342 -0.303426 0
M  V30 3329 H 301.041 4.62677 1.9733 0
M  V30 3330 H 300.741 5.83435 0.698397 0
M  V30 3331 H 302.265 5.88456 1.62947 0
M  V30 3332 H 303.679 5.69781 -0.634274 0
M  V30 3333 H 302.076 5.83203 -1.41399 0
M  V30 3334 H 303.146 4.48514 -1.84292 0
M  V30 3335 N 304.489 0.459591 1.5075 0
M  V30 3336 C 305.766 -0.160371 1.94941 0
M  V30 3337 C 306.146 -1.58048 1.39943 0
M  V30 3338 O 305.494 -2.206 0.595629 0
M  V30 3339 C 305.704 -0.115432 3.48809 0
M  V30 3340 C 307.052 -0.310026 4.23467 0
M  V30 3341 O 308.076 -0.192543 3.55679 0
M  V30 3342 O 306.935 -0.546031 5.43765 0
M  V30 3343 H 304.029 -0.117925 0.818549 0
M  V30 3344 H 306.575 0.519169 1.61563 0
M  V30 3345 H 305.347 0.87652 3.81357 0
M  V30 3346 H 304.97 -0.836928 3.88692 0
M  V30 3347 N 305.967 -1.56429 0.191757 0
M  V30 3348 C 307.195 -2.01867 -0.453586 0
M  V30 3349 C 307.61 -1.07191 -1.5542 0
M  V30 3350 O 306.967 -0.0762108 -1.82341 0
M  V30 3351 C 307.018 -3.47017 -1.013 0
M  V30 3352 O 306.739 -4.38078 0.0437005 0
M  V30 3353 C 308.24 -4.07956 -1.73456 0
M  V30 3354 H 305.46 -0.661211 -0.114199 0
M  V30 3355 H 308.004 -2.02295 0.299483 0
M  V30 3356 H 306.159 -3.47298 -1.71647 0
M  V30 3357 H 306.573 -5.23178 -0.372212 0
M  V30 3358 H 308.047 -5.1138 -2.07833 0
M  V30 3359 H 308.524 -3.51222 -2.63704 0
M  V30 3360 H 309.13 -4.11437 -1.07702 0
M  V30 3361 N 307.445 0.0818655 -1.57387 0
M  V30 3362 C 308.692 0.782914 -1.86753 0
M  V30 3363 C 309.02 1.78082 -0.782118 0
M  V30 3364 O 308.275 1.94426 0.22295 0
M  V30 3365 C 308.574 1.53513 -3.22752 0
M  V30 3366 C 308.24 0.678134 -4.45771 0
M  V30 3367 C 306.902 0.441929 -4.79166 0
M  V30 3368 C 309.254 0.0832243 -5.21134 0
M  V30 3369 C 306.582 -0.398833 -5.85343 0
M  V30 3370 C 308.934 -0.744935 -6.28199 0
M  V30 3371 C 307.598 -0.991107 -6.60101 0
M  V30 3372 H 306.868 0.286489 -0.683378 0
M  V30 3373 H 309.515 0.0439808 -1.91449 0
M  V30 3374 H 307.82 2.34599 -3.138 0
M  V30 3375 H 309.517 2.08218 -3.42705 0
M  V30 3376 H 306.107 0.872357 -4.19628 0
M  V30 3377 H 310.291 0.252847 -4.95655 0
M  V30 3378 H 305.547 -0.598405 -6.08465 0
M  V30 3379 H 309.721 -1.21271 -6.8576 0
M  V30 3380 H 307.348 -1.64437 -7.42202 0
M  V30 3381 N 308.923 1.53595 0.353017 0
M  V30 3382 C 310.163 1.72094 1.10286 0
M  V30 3383 C 310.527 0.469217 1.86178 0
M  V30 3384 O 311.728 0.531083 2.63501 0
M  V30 3385 C 309.999 2.94386 2.02661 0
M  V30 3386 S 311.558 3.33651 2.84996 0
M  V30 3387 H 308.376 0.605433 0.372789 0
M  V30 3388 H 310.978 1.91722 0.38248 0
M  V30 3389 H 309.682 3.83669 1.45691 0
M  V30 3390 H 309.213 2.77197 2.79152 0
M  V30 3391 H 311.228 2.86645 4.0503 0
M  V30 3392 N 310.401 -0.613514 1.45168 0
M  V30 3393 C 311.649 -1.36997 1.48581 0
M  V30 3394 C 311.97 -1.94589 0.126545 0
M  V30 3395 O 311.24 -1.76816 -0.843372 0
M  V30 3396 H 309.82 -0.508558 0.547154 0
M  V30 3397 H 312.482 -0.720853 1.81079 0
M  V30 3398 H 311.578 -2.1924 2.22127 0
M  V30 3399 N 311.879 -1.3236 -0.855495 0
M  V30 3400 C 313.104 -1.2601 -1.64731 0
M  V30 3401 C 313.529 0.169068 -1.87339 0
M  V30 3402 O 312.887 1.12016 -1.42556 0
M  V30 3403 C 312.935 -2.02417 -2.98429 0
M  V30 3404 O 312.039 -1.3714 -3.8893 0
M  V30 3405 H 311.38 -0.434325 -0.502253 0
M  V30 3406 H 313.91 -1.74661 -1.06558 0
M  V30 3407 H 313.92 -2.12559 -3.48257 0
M  V30 3408 H 312.595 -3.06343 -2.81295 0
M  V30 3409 H 311.172 -1.3554 -3.47395 0
M  V30 3410 N 313.357 1.07166 -1.15556 0
M  V30 3411 C 314.768 1.6127 -0.940693 0
M  V30 3412 C 315.119 1.89251 0.517551 0
M  V30 3413 O 314.244 1.65937 1.38903 0
M  V30 3414 C 314.839 2.92993 -1.7012 0
M  V30 3415 C 313.398 3.43832 -1.53156 0
M  V30 3416 C 312.545 2.1786 -1.71558 0
M  V30 3417 H 315.496 0.90229 -1.30554 0
M  V30 3418 H 315.517 3.62007 -1.17181 0
M  V30 3419 H 315.029 2.72596 -2.76248 0
M  V30 3420 H 313.13 3.69307 -0.494294 0
M  V30 3421 H 313.243 4.19747 -2.30975 0
M  V30 3422 H 311.607 2.2765 -1.14225 0
M  V30 3423 H 312.39 1.99956 -2.79056 0
M  V30 3424 N 314.835 0.952656 1.25548 0
M  V30 3425 C 316.246 0.647392 1.75116 0
M  V30 3426 C 316.597 -0.837274 1.77438 0
M  V30 3427 O 315.722 -1.65525 1.39393 0
M  V30 3428 C 316.317 1.16845 3.18014 0
M  V30 3429 C 314.876 0.913382 3.6515 0
M  V30 3430 C 314.023 1.31265 2.44264 0
M  V30 3431 H 316.974 1.12968 1.11462 0
M  V30 3432 H 316.995 0.527606 3.76824 0
M  V30 3433 H 316.507 2.24902 3.16292 0
M  V30 3434 H 314.608 -0.152316 3.72289 0
M  V30 3435 H 314.721 1.54845 4.53387 0
M  V30 3436 H 313.085 0.731028 2.43984 0
M  V30 3437 H 313.868 2.40239 2.45234 0
M  V30 3438 N 316.313 -1.40141 0.720998 0
M  V30 3439 C 317.543 -2.04798 0.27226 0
M  V30 3440 C 317.951 -1.54442 -1.09289 0
M  V30 3441 O 317.294 -0.698342 -1.69908 0
M  V30 3442 C 317.356 -3.59048 0.18027 0
M  V30 3443 C 317.02 -4.32317 1.48159 0
M  V30 3444 C 318.017 -4.59902 2.42458 0
M  V30 3445 C 315.702 -4.71125 1.74202 0
M  V30 3446 C 317.696 -5.25288 3.61042 0
M  V30 3447 C 315.383 -5.36242 2.93066 0
M  V30 3448 C 316.381 -5.63254 3.86308 0
M  V30 3449 O 316.069 -6.27024 5.03086 0
M  V30 3450 H 315.801 -0.665419 0.119139 0
M  V30 3451 H 318.355 -1.80436 0.981432 0
M  V30 3452 H 316.585 -3.82251 -0.58489 0
M  V30 3453 H 318.274 -4.05221 -0.234618 0
M  V30 3454 H 319.04 -4.30379 2.23604 0
M  V30 3455 H 314.919 -4.49466 1.02477 0
M  V30 3456 H 318.463 -5.46289 4.33837 0
M  V30 3457 H 314.36 -5.65185 3.11826 0
M  V30 3458 H 315.128 -6.4552 5.03235 0
M  V30 3459 N 317.792 -0.46758 -1.50504 0
M  V30 3460 C 318.755 0.317059 -2.26996 0
M  V30 3461 C 319.755 0.923513 -1.31635 0
M  V30 3462 O 320.945 0.793239 -1.55091 0
M  V30 3463 C 318.077 1.45134 -3.08462 0
M  V30 3464 H 319.27 -0.353723 -2.97807 0
M  V30 3465 H 316.823 -0.221545 -1.54722 0
M  V30 3466 H 317.558 2.15728 -2.4214 0
M  V30 3467 H 317.343 1.02232 -3.78538 0
M  V30 3468 H 318.833 2.00493 -3.66323 0
M  V30 3469 N 319.27 1.56325 -0.20005 0
M  V30 3470 C 320.233 2.18084 0.705132 0
M  V30 3471 C 321.233 1.13666 1.1374 0
M  V30 3472 O 322.423 1.39023 1.04968 0
M  V30 3473 C 319.555 2.78689 1.96329 0
M  V30 3474 H 320.748 2.99435 0.167023 0
M  V30 3475 H 318.301 1.56221 0.0495725 0
M  V30 3476 H 319.036 2.0115 2.5438 0
M  V30 3477 H 318.821 3.55133 1.66202 0
M  V30 3478 H 320.311 3.26096 2.60866 0
M  V30 3479 N 320.748 -0.0735177 1.57428 0
M  V30 3480 C 322.159 -0.625551 1.75908 0
M  V30 3481 C 322.51 -1.78 0.825261 0
M  V30 3482 O 321.635 -2.16398 0.00893964 0
M  V30 3483 C 322.23 -1.14155 3.18989 0
M  V30 3484 C 320.789 -1.63946 3.38819 0
M  V30 3485 C 319.936 -0.558151 2.71625 0
M  V30 3486 H 322.887 0.152647 1.57964 0
M  V30 3487 H 322.908 -2.0104 3.23053 0
M  V30 3488 H 322.42 -0.301116 3.8693 0
M  V30 3489 H 320.521 -2.50321 2.7599 0
M  V30 3490 H 320.634 -1.71759 4.47253 0
M  V30 3491 H 318.998 -1.00278 2.34129 0
M  V30 3492 H 319.781 0.272071 3.4222 0
M  V30 3493 N 322.226 -1.5378 -0.344866 0
M  V30 3494 C 323.136 -1.84667 -1.4469 0
M  V30 3495 C 324.152 -0.736704 -1.57635 0
M  V30 3496 O 325.328 -1.02888 -1.73136 0
M  V30 3497 C 322.393 -2.04869 -2.79696 0
M  V30 3498 C 321.454 -3.28731 -2.76106 0
M  V30 3499 C 320.687 -3.4796 -4.04673 0
M  V30 3500 O 320.91 -2.71052 -5.01883 0
M  V30 3501 O 319.844 -4.41383 -4.09224 0
M  V30 3502 H 323.67 -2.78334 -1.21506 0
M  V30 3503 H 321.255 -1.39418 -0.536921 0
M  V30 3504 H 323.137 -2.19609 -3.59652 0
M  V30 3505 H 321.812 -1.14391 -3.02814 0
M  V30 3506 H 320.719 -3.19396 -1.94774 0
M  V30 3507 H 322.052 -4.19198 -2.57941 0
M  V30 3508 N 323.704 0.605807 -1.45491 0
M  V30 3509 C 324.634 1.72709 -1.57143 0
M  V30 3510 C 325.615 1.6476 -0.422884 0
M  V30 3511 O 326.8 1.83132 -0.646247 0
M  V30 3512 C 323.93 3.11316 -1.53948 0
M  V30 3513 C 322.884 3.34077 -2.67537 0
M  V30 3514 C 322.21 4.72975 -2.49397 0
M  V30 3515 C 323.51 3.24158 -4.09535 0
M  V30 3516 H 325.204 1.63214 -2.51001 0
M  V30 3517 H 322.75 0.78379 -1.208 0
M  V30 3518 H 324.703 3.89557 -1.60696 0
M  V30 3519 H 323.427 3.21655 -0.566205 0
M  V30 3520 H 322.086 2.58227 -2.6022 0
M  V30 3521 H 321.734 4.8005 -1.50205 0
M  V30 3522 H 321.434 4.8916 -3.25571 0
M  V30 3523 H 322.958 5.53414 -2.58002 0
M  V30 3524 H 324.372 3.92271 -4.18086 0
M  V30 3525 H 322.769 3.51872 -4.86113 0
M  V30 3526 H 323.839 2.2157 -4.31317 0
M  V30 3527 N 325.182 1.32811 0.848464 0
M  V30 3528 C 326.429 1.23724 1.60308 0
M  V30 3529 C 326.757 -0.1994 1.93475 0
M  V30 3530 O 326.012 -1.15406 1.5805 0
M  V30 3531 C 326.311 2.04831 2.92881 0
M  V30 3532 C 325.977 3.54125 2.79117 0
M  V30 3533 C 324.639 3.94829 2.7507 0
M  V30 3534 C 326.991 4.49036 2.64606 0
M  V30 3535 C 324.319 5.28675 2.544 0
M  V30 3536 C 326.671 5.83033 2.4547 0
M  V30 3537 C 325.335 6.22931 2.39819 0
M  V30 3538 H 324.605 0.452737 0.586609 0
M  V30 3539 H 327.252 1.64301 0.983743 0
M  V30 3540 H 325.557 1.57001 3.58968 0
M  V30 3541 H 327.254 1.95164 3.50303 0
M  V30 3542 H 323.844 3.21801 2.83094 0
M  V30 3543 H 328.028 4.18505 2.66772 0
M  V30 3544 H 323.284 5.58637 2.48465 0
M  V30 3545 H 327.458 6.56186 2.33222 0
M  V30 3546 H 325.085 7.26584 2.23562 0
M  V30 3547 N 326.66 -1.06551 1.16123 0
M  V30 3548 C 327.592 -2.13908 0.823171 0
M  V30 3549 C 328.605 -1.61926 -0.16843 0
M  V30 3550 O 329.794 -1.78412 0.055962 0
M  V30 3551 C 326.894 -3.38283 0.204424 0
M  V30 3552 C 326.067 -4.19589 1.23548 0
M  V30 3553 C 325.126 -5.2233 0.637011 0
M  V30 3554 O 324.152 -5.54034 1.30516 0
M  V30 3555 N 325.354 -5.77621 -0.577474 0
M  V30 3556 H 328.119 -2.43508 1.74711 0
M  V30 3557 H 325.68 -1.2253 1.05821 0
M  V30 3558 H 327.672 -4.0416 -0.208909 0
M  V30 3559 H 326.242 -3.06329 -0.623012 0
M  V30 3560 H 325.462 -3.49406 1.82507 0
M  V30 3561 H 326.75 -4.70718 1.93137 0
M  V30 3562 H 326.148 -5.54125 -1.13853 0
M  V30 3563 H 324.705 -6.45087 -0.933053 0
M  V30 3564 N 328.138 -0.959301 -1.25041 0
M  V30 3565 C 329.386 -0.615393 -1.92503 0
M  V30 3566 C 329.707 0.850969 -1.75452 0
M  V30 3567 O 328.977 1.60658 -1.12098 0
M  V30 3568 H 327.557 -0.224613 -0.712431 0
M  V30 3569 H 330.219 -1.21855 -1.5211 0
M  V30 3570 H 329.315 -0.848738 -3.00338 0
M  V30 3571 N 329.616 1.39756 -0.72842 0
M  V30 3572 C 330.563 2.30647 -0.0841519 0
M  V30 3573 C 331.533 1.48869 0.7367 0
M  V30 3574 O 332.718 1.77574 0.698015 0
M  V30 3575 C 329.858 3.35165 0.822091 0
M  V30 3576 C 328.971 4.31999 -0.0106663 0
M  V30 3577 C 328.106 5.23585 0.896241 0
M  V30 3578 C 327.145 6.12072 0.0583381 0
M  V30 3579 N 326.282 6.96035 0.920818 0
M  V30 3580 H 331.122 2.85173 -0.864891 0
M  V30 3581 H 328.659 1.40422 -0.438179 0
M  V30 3582 H 330.617 3.94345 1.36189 0
M  V30 3583 H 329.247 2.8211 1.56888 0
M  V30 3584 H 328.299 3.74492 -0.66781 0
M  V30 3585 H 329.611 4.9443 -0.658825 0
M  V30 3586 H 328.765 5.87759 1.50412 0
M  V30 3587 H 327.504 4.61459 1.57819 0
M  V30 3588 H 326.509 5.46916 -0.562389 0
M  V30 3589 H 327.734 6.76261 -0.6203 0
M  V30 3590 H 325.68 6.36485 1.58818 0
M  V30 3591 H 325.597 7.55284 0.32899 0
M  V30 3592 H 326.865 7.64646 1.51447 0
M  V30 3593 N 331.094 0.475555 1.50254 0
M  V30 3594 C 332.041 -0.316293 2.28622 0
M  V30 3595 C 333.011 -0.983227 1.33873 0
M  V30 3596 O 334.196 -0.994805 1.62814 0
M  V30 3597 C 331.336 -1.38975 3.1588 0
M  V30 3598 C 330.449 -0.737146 4.25664 0
M  V30 3599 C 329.584 -1.78887 5.00173 0
M  V30 3600 C 328.623 -1.11676 6.01826 0
M  V30 3601 N 327.76 -2.11154 6.69596 0
M  V30 3602 H 332.6 0.358297 2.95838 0
M  V30 3603 H 330.137 0.188541 1.45887 0
M  V30 3604 H 332.095 -2.02383 3.64825 0
M  V30 3605 H 330.725 -2.03344 2.50701 0
M  V30 3606 H 329.777 0.0096065 3.80399 0
M  V30 3607 H 331.089 -0.206816 4.98371 0
M  V30 3608 H 330.243 -2.49865 5.52859 0
M  V30 3609 H 328.982 -2.35302 4.27182 0
M  V30 3610 H 327.987 -0.392633 5.48396 0
M  V30 3611 H 329.212 -0.55945 6.76792 0
M  V30 3612 H 327.158 -2.66577 5.99394 0
M  V30 3613 H 327.075 -1.63118 7.38193 0
M  V30 3614 H 328.343 -2.81497 7.26897 0
M  V30 3615 N 332.573 -1.56217 0.208337 0
M  V30 3616 C 333.803 -2.02043 -0.431523 0
M  V30 3617 C 334.211 -1.08755 -1.54819 0
M  V30 3618 O 333.554 -0.0870009 -1.83494 0
M  V30 3619 C 333.616 -3.44239 -1.03633 0
M  V30 3620 C 333.28 -4.56965 -0.0567502 0
M  V30 3621 C 334.277 -5.14624 0.738773 0
M  V30 3622 C 331.962 -5.02266 0.0581736 0
M  V30 3623 C 333.956 -6.16045 1.63605 0
M  V30 3624 C 331.643 -6.03528 0.959001 0
M  V30 3625 C 332.641 -6.60293 1.7465 0
M  V30 3626 O 332.329 -7.59586 2.6322 0
M  V30 3627 H 332.061 -0.666772 -0.111313 0
M  V30 3628 H 334.615 -2.02919 0.318277 0
M  V30 3629 H 332.845 -3.40391 -1.83497 0
M  V30 3630 H 334.534 -3.73793 -1.58221 0
M  V30 3631 H 335.3 -4.80483 0.660364 0
M  V30 3632 H 331.179 -4.57771 -0.544633 0
M  V30 3633 H 334.723 -6.60279 2.25116 0
M  V30 3634 H 330.62 -6.37092 1.03848 0
M  V30 3635 H 331.388 -7.77057 2.57148 0
M  V30 3636 N 334.051 0.0651679 -1.57465 0
M  V30 3637 C 335.328 0.79644 -1.78651 0
M  V30 3638 C 335.708 1.95454 -0.797566 0
M  V30 3639 O 335.056 2.27882 0.167946 0
M  V30 3640 C 335.266 1.26322 -3.25337 0
M  V30 3641 C 336.614 1.6939 -3.89348 0
M  V30 3642 O 337.638 1.35872 -3.29268 0
M  V30 3643 O 336.497 2.31471 -4.95059 0
M  V30 3644 H 333.591 0.382157 -0.733407 0
M  V30 3645 H 336.137 0.0447311 -1.69641 0
M  V30 3646 H 334.909 0.434859 -3.88876 0
M  V30 3647 H 334.532 2.07604 -3.39096 0
M  V30 3648 N 335.529 1.53961 0.336706 0
M  V30 3649 C 336.777 1.71197 1.07405 0
M  V30 3650 C 337.098 0.481475 1.88962 0
M  V30 3651 O 336.368 -0.504585 1.8929 0
M  V30 3652 H 334.948 0.631185 0.399517 0
M  V30 3653 H 337.61 1.91232 0.376323 0
M  V30 3654 H 336.706 2.58587 1.74755 0
M  V30 3655 N 337.007 -0.598083 1.45811 0
M  V30 3656 C 338.418 -1.18011 1.44673 0
M  V30 3657 C 338.769 -1.95378 0.179364 0
M  V30 3658 O 337.894 -2.04124 -0.718509 0
M  V30 3659 C 338.489 -2.14677 2.62105 0
M  V30 3660 C 337.048 -2.68236 2.64057 0
M  V30 3661 C 336.195 -1.43816 2.37091 0
M  V30 3662 H 339.146 -0.38686 1.53913 0
M  V30 3663 H 339.167 -2.97878 2.36746 0
M  V30 3664 H 338.679 -1.5834 3.5433 0
M  V30 3665 H 336.78 -3.28486 1.75864 0
M  V30 3666 H 336.893 -3.12021 3.63566 0
M  V30 3667 H 335.257 -1.731 1.86838 0
M  V30 3668 H 336.04 -0.893333 3.31473 0
M  V30 3669 N 338.485 -1.33259 -0.841409 0
M  V30 3670 C 339.395 -1.25332 -1.98316 0
M  V30 3671 C 340.411 -0.164364 -1.73222 0
M  V30 3672 O 341.587 -0.387486 -1.97637 0
M  V30 3673 C 338.652 -0.990078 -3.32262 0
M  V30 3674 C 337.713 -2.16879 -3.70489 0
M  V30 3675 C 336.946 -1.91801 -4.98044 0
M  V30 3676 O 337.169 -0.867075 -5.63771 0
M  V30 3677 O 336.103 -2.78267 -5.33714 0
M  V30 3678 H 339.929 -2.21344 -2.07944 0
M  V30 3679 H 337.514 -1.1328 -0.974058 0
M  V30 3680 H 339.396 -0.860321 -4.12524 0
M  V30 3681 H 338.071 -0.0602155 -3.23644 0
M  V30 3682 H 336.978 -2.35407 -2.90748 0
M  V30 3683 H 338.311 -3.0819 -3.8377 0
M  V30 3684 N 339.963 1.05934 -1.16686 0
M  V30 3685 C 341.209 1.79065 -0.95203 0
M  V30 3686 C 341.542 1.87147 0.518629 0
M  V30 3687 O 340.817 1.36574 1.38484 0
M  V30 3688 C 341.1 3.23359 -1.58464 0
M  V30 3689 C 340.953 3.23336 -3.12689 0
M  V30 3690 C 342.272 4.21004 -1.28232 0
M  V30 3691 H 339.391 0.65005 -0.34728 0
M  V30 3692 H 342.033 1.23868 -1.44072 0
M  V30 3693 H 340.183 3.70493 -1.16908 0
M  V30 3694 H 341.855 2.84336 -3.6325 0
M  V30 3695 H 340.098 2.61886 -3.4583 0
M  V30 3696 H 340.769 4.25144 -3.52075 0
M  V30 3697 H 343.245 3.8233 -1.64203 0
M  V30 3698 H 342.121 5.20225 -1.75092 0
M  V30 3699 H 342.382 4.41639 -0.201791 0
M  V30 3700 N 341.441 0.965919 1.2453 0
M  V30 3701 C 342.718 0.543777 1.87889 0
M  V30 3702 C 343.098 -0.97909 1.87021 0
M  V30 3703 O 342.446 -1.84969 1.3416 0
M  V30 3704 C 342.656 1.13327 3.30088 0
M  V30 3705 C 344.004 1.21707 4.06783 0
M  V30 3706 O 345.028 1.08566 3.39252 0
M  V30 3707 O 343.887 1.42456 5.27606 0
M  V30 3708 H 340.981 0.181054 0.806938 0
M  V30 3709 H 343.527 1.06007 1.32516 0
M  V30 3710 H 342.299 2.17612 3.25209 0
M  V30 3711 H 341.922 0.600911 3.93033 0
M  V30 3712 N 342.919 -1.39368 0.735821 0
M  V30 3713 C 344.165 -2.00794 0.284544 0
M  V30 3714 C 344.498 -1.58255 -1.12557 0
M  V30 3715 O 343.773 -0.811819 -1.76748 0
M  V30 3716 C 344.056 -3.58011 0.387337 0
M  V30 3717 C 343.909 -4.10566 1.83728 0
M  V30 3718 C 345.228 -4.395 -0.22975 0
M  V30 3719 H 342.347 -0.729501 0.104866 0
M  V30 3720 H 344.989 -1.65564 0.93213 0
M  V30 3721 H 343.139 -3.88154 -0.164006 0
M  V30 3722 H 344.811 -3.91139 2.44556 0
M  V30 3723 H 343.054 -3.64095 2.35833 0
M  V30 3724 H 343.725 -5.19702 1.86047 0
M  V30 3725 H 346.201 -4.15406 0.240257 0
M  V30 3726 H 345.077 -5.48752 -0.127485 0
M  V30 3727 H 345.338 -4.22062 -1.3159 0
M  V30 3728 N 344.397 -0.483516 -1.5 0
M  V30 3729 C 345.643 0.0593261 -2.03313 0
M  V30 3730 C 345.998 1.36288 -1.35806 0
M  V30 3731 O 345.291 1.85519 -0.478897 0
M  V30 3732 C 345.485 0.286226 -3.56252 0
M  V30 3733 C 345.314 -0.993788 -4.38582 0
M  V30 3734 C 344.084 -1.54064 -4.81241 0
M  V30 3735 C 346.282 -1.89249 -4.78215 0
M  V30 3736 N 344.264 -2.76838 -5.47936 0
M  V30 3737 C 345.635 -2.96606 -5.44449 0
M  V30 3738 C 347.69 -1.90138 -4.60165 0
M  V30 3739 C 346.393 -4.04857 -5.94544 0
M  V30 3740 C 348.419 -2.97353 -5.1121 0
M  V30 3741 C 347.781 -4.03429 -5.77429 0
M  V30 3742 H 343.88 -0.0186322 -0.781778 0
M  V30 3743 H 346.464 -0.654489 -1.8337 0
M  V30 3744 H 344.635 0.969086 -3.76116 0
M  V30 3745 H 346.367 0.824515 -3.96212 0
M  V30 3746 H 343.122 -1.08813 -4.6093 0
M  V30 3747 H 343.546 -3.39221 -5.85882 0
M  V30 3748 H 348.188 -1.09441 -4.0839 0
M  V30 3749 H 345.906 -4.86363 -6.4535 0
M  V30 3750 H 349.492 -2.99039 -4.99066 0
M  V30 3751 H 348.372 -4.85025 -6.16214 0
M  V30 3752 N 345.875 1.56104 -0.216619 0
M  V30 3753 C 347.1 2.0301 0.424462 0
M  V30 3754 C 347.525 1.0955 1.52907 0
M  V30 3755 O 346.883 0.0827914 1.81111 0
M  V30 3756 C 346.931 3.4819 0.937883 0
M  V30 3757 O 346.035 3.57865 2.04955 0
M  V30 3758 H 345.376 0.656925 0.0966755 0
M  V30 3759 H 347.906 2.01859 -0.33381 0
M  V30 3760 H 347.916 3.88413 1.24897 0
M  V30 3761 H 346.591 4.15699 0.129387 0
M  V30 3762 H 345.168 3.29527 1.74546 0
M  V30 3763 N 347.353 -0.0568162 1.57498 0
M  V30 3764 C 348.283 -1.06593 2.0775 0
M  V30 3765 C 349.264 -1.39448 0.974082 0
M  V30 3766 O 350.449 -1.48815 1.24771 0
M  V30 3767 C 347.579 -2.37509 2.5339 0
M  V30 3768 C 346.533 -2.1897 3.67745 0
M  V30 3769 C 345.859 -3.55402 3.99492 0
M  V30 3770 C 347.159 -1.59859 4.97235 0
M  V30 3771 H 348.853 -0.647706 2.9231 0
M  V30 3772 H 346.399 -0.310116 1.40621 0
M  V30 3773 H 348.352 -3.08409 2.87162 0
M  V30 3774 H 347.076 -2.8134 1.65878 0
M  V30 3775 H 345.735 -1.50508 3.3428 0
M  V30 3776 H 345.383 -3.9683 3.09088 0
M  V30 3777 H 345.083 -3.43831 4.76502 0
M  V30 3778 H 346.607 -4.27708 4.35773 0
M  V30 3779 H 348.021 -2.20642 5.29141 0
M  V30 3780 H 346.418 -1.58942 5.78669 0
M  V30 3781 H 347.488 -0.561506 4.81638 0
M  V30 3782 N 348.832 -1.54138 -0.328536 0
M  V30 3783 C 350.08 -1.71765 -1.06496 0
M  V30 3784 C 350.401 -0.49149 -1.88704 0
M  V30 3785 O 349.671 0.494539 -1.89555 0
M  V30 3786 H 348.251 -0.633295 -0.396164 0
M  V30 3787 H 350.913 -1.91429 -0.366176 0
M  V30 3788 H 350.009 -2.5951 -1.73381 0
M  V30 3789 N 350.31 0.590341 -1.46126 0
M  V30 3790 C 351.556 1.35082 -1.51264 0
M  V30 3791 C 351.889 1.93534 -0.160711 0
M  V30 3792 O 351.164 1.76045 0.826956 0
M  V30 3793 C 351.447 2.48588 -2.6053 0
M  V30 3794 C 351.3 1.95221 -4.05227 0
M  V30 3795 C 352.619 3.50662 -2.6594 0
M  V30 3796 H 349.738 0.489803 -0.550692 0
M  V30 3797 H 352.38 0.663887 -1.78024 0
M  V30 3798 H 350.53 3.07186 -2.37843 0
M  V30 3799 H 352.202 1.41139 -4.39178 0
M  V30 3800 H 350.445 1.26101 -4.15068 0
M  V30 3801 H 351.116 2.77121 -4.77397 0
M  V30 3802 H 353.592 3.01934 -2.86313 0
M  V30 3803 H 352.468 4.27551 -3.44226 0
M  V30 3804 H 352.729 4.07399 -1.71694 0
M  V30 3805 N 351.788 1.33704 0.83433 0
M  V30 3806 C 353.037 1.24763 1.58484 0
M  V30 3807 C 353.35 -0.183775 1.94735 0
M  V30 3808 O 354.556 -0.395234 2.68608 0
M  V30 3809 C 353.012 2.18638 2.85876 0
M  V30 3810 C 352.62 3.66974 2.56971 0
M  V30 3811 C 354.364 2.18581 3.63899 0
M  V30 3812 C 352.271 4.5275 3.80488 0
M  V30 3813 H 351.201 0.463425 0.594772 0
M  V30 3814 H 353.852 1.58797 0.919551 0
M  V30 3815 H 352.234 1.77542 3.5397 0
M  V30 3816 H 353.408 4.16538 1.9706 0
M  V30 3817 H 351.723 3.69366 1.92244 0
M  V30 3818 H 354.32 2.79894 4.55591 0
M  V30 3819 H 354.663 1.18207 3.99165 0
M  V30 3820 H 355.196 2.58062 3.02735 0
M  V30 3821 H 351.935 5.54017 3.5035 0
M  V30 3822 H 351.455 4.07927 4.39722 0
M  V30 3823 H 353.134 4.66784 4.4802 0
M  V30 3824 N 353.266 -1.05314 1.17247 0
M  V30 3825 C 354.196 -2.1498 0.911362 0
M  V30 3826 C 355.177 -1.69471 -0.146169 0
M  V30 3827 O 356.362 -1.942 0.003812 0
M  V30 3828 C 353.492 -3.4472 0.422528 0
M  V30 3829 C 352.446 -4.03789 1.4191 0
M  V30 3830 C 351.772 -5.28858 0.788274 0
M  V30 3831 C 353.072 -4.41418 2.7919 0
M  V30 3832 H 354.766 -2.3708 1.82848 0
M  V30 3833 H 352.312 -1.13938 0.880569 0
M  V30 3834 H 354.265 -4.20787 0.227289 0
M  V30 3835 H 352.989 -3.22269 -0.530123 0
M  V30 3836 H 351.648 -3.2979 1.60106 0
M  V30 3837 H 351.296 -5.02709 -0.171173 0
M  V30 3838 H 350.996 -5.69338 1.45353 0
M  V30 3839 H 352.52 -6.07612 0.603282 0
M  V30 3840 H 353.934 -5.08524 2.64719 0
M  V30 3841 H 352.331 -4.92913 3.42282 0
M  V30 3842 H 353.401 -3.51819 3.33693 0
M  V30 3843 N 354.744 -0.972509 -1.24016 0
M  V30 3844 C 355.974 -0.653853 -1.9598 0
M  V30 3845 C 356.382 0.781801 -1.72292 0
M  V30 3846 O 355.725 1.53677 -1.00644 0
M  V30 3847 C 355.787 -0.854608 -3.49194 0
M  V30 3848 C 355.451 -2.27082 -3.96589 0
M  V30 3849 C 356.448 -3.24892 -4.05883 0
M  V30 3850 C 354.133 -2.5998 -4.29786 0
M  V30 3851 C 356.127 -4.53684 -4.47716 0
M  V30 3852 C 353.814 -3.88997 -4.71301 0
M  V30 3853 C 354.812 -4.85661 -4.80232 0
M  V30 3854 O 354.5 -6.12376 -5.20818 0
M  V30 3855 H 354.232 -0.242572 -0.630979 0
M  V30 3856 H 356.786 -1.30431 -1.58673 0
M  V30 3857 H 355.016 -0.146985 -3.86421 0
M  V30 3858 H 356.705 -0.534311 -4.02368 0
M  V30 3859 H 357.471 -3.00805 -3.80449 0
M  V30 3860 H 353.35 -1.85457 -4.22051 0
M  V30 3861 H 356.894 -5.29135 -4.54601 0
M  V30 3862 H 352.791 -4.12882 -4.96184 0
M  V30 3863 H 353.559 -6.16013 -5.38953 0
M  V30 3864 N 356.222 1.38976 -0.743202 0
M  V30 3865 C 357.45 2.04636 -0.30525 0
M  V30 3866 C 357.865 1.56044 1.06281 0
M  V30 3867 O 357.222 0.728921 1.67311 0
M  V30 3868 C 357.273 3.60193 -0.307177 0
M  V30 3869 O 356.994 4.06998 -1.62124 0
M  V30 3870 C 358.495 4.4306 0.145928 0
M  V30 3871 H 355.715 0.65788 -0.132041 0
M  V30 3872 H 358.259 1.77866 -1.00915 0
M  V30 3873 H 356.414 3.85835 0.347898 0
M  V30 3874 H 356.828 5.01371 -1.54036 0
M  V30 3875 H 358.302 5.51921 0.0934183 0
M  V30 3876 H 358.779 4.22706 1.19231 0
M  V30 3877 H 359.385 4.22584 -0.479886 0
M  V30 3878 N 357.7 0.491464 1.49741 0
M  V30 3879 C 358.63 -0.28154 2.31796 0
M  V30 3880 C 359.611 -0.971473 1.3963 0
M  V30 3881 O 360.796 -0.964719 1.68543 0
M  V30 3882 C 357.926 -1.35203 3.19902 0
M  V30 3883 C 356.88 -0.782529 4.20786 0
M  V30 3884 C 356.206 -1.95283 4.97764 0
M  V30 3885 C 357.506 0.21999 5.21837 0
M  V30 3886 H 359.2 0.403355 2.96671 0
M  V30 3887 H 356.746 0.195425 1.42668 0
M  V30 3888 H 358.699 -1.90045 3.76113 0
M  V30 3889 H 357.423 -2.06598 2.52953 0
M  V30 3890 H 356.082 -0.255928 3.65706 0
M  V30 3891 H 355.73 -2.65423 4.2727 0
M  V30 3892 H 355.43 -1.57789 5.66018 0
M  V30 3893 H 356.954 -2.50577 5.56816 0
M  V30 3894 H 358.368 -0.23996 5.72798 0
M  V30 3895 H 356.765 0.51026 5.97927 0
M  V30 3896 H 357.835 1.13911 4.7133 0
M  V30 3897 N 359.178 -1.55987 0.224894 0
M  V30 3898 C 360.424 -1.98684 -0.406502 0
M  V30 3899 C 360.757 -1.11248 -1.59177 0
M  V30 3900 O 360.032 -0.170909 -1.93748 0
M  V30 3901 C 360.315 -3.50218 -0.837808 0
M  V30 3902 C 360.168 -4.48426 0.351332 0
M  V30 3903 C 361.487 -4.06243 -1.69278 0
M  V30 3904 H 358.606 -0.722337 -0.146283 0
M  V30 3905 H 361.248 -1.87255 0.321799 0
M  V30 3906 H 359.398 -3.60089 -1.45837 0
M  V30 3907 H 361.07 -4.50562 0.989526 0
M  V30 3908 H 359.313 -4.22159 0.998207 0
M  V30 3909 H 359.984 -5.52 0.00655905 0
M  V30 3910 H 362.46 -3.99337 -1.16914 0
M  V30 3911 H 361.336 -5.12581 -1.96346 0
M  V30 3912 H 361.597 -3.53332 -2.65723 0
M  V30 3913 N 360.656 0.0484629 -1.57525 0
M  V30 3914 C 361.881 0.759177 -1.93006 0
M  V30 3915 C 362.306 1.69125 -0.823317 0
M  V30 3916 O 361.664 1.79931 0.222364 0
M  V30 3917 C 361.712 1.50899 -3.27509 0
M  V30 3918 O 360.816 2.62112 -3.18388 0
M  V30 3919 H 360.157 0.205564 -0.631379 0
M  V30 3920 H 362.687 0.00972959 -2.04598 0
M  V30 3921 H 362.697 1.88317 -3.6194 0
M  V30 3922 H 361.372 0.825269 -4.0763 0
M  V30 3923 H 359.949 2.27379 -2.95556 0
M  V30 3924 N 362.134 1.5431 0.320358 0
M  V30 3925 C 363.382 1.72327 1.05583 0
M  V30 3926 C 363.703 0.50149 1.88441 0
M  V30 3927 O 362.973 -0.48448 1.89815 0
M  V30 3928 H 361.553 0.635387 0.3928 0
M  V30 3929 H 364.215 1.91621 0.356019 0
M  V30 3930 H 363.311 2.60426 1.72003 0
M  V30 3931 N 363.613 -0.582584 1.46437 0
M  V30 3932 C 364.838 -1.37168 1.55563 0
M  V30 3933 C 365.263 -1.87061 0.19743 0
M  V30 3934 O 364.621 -1.61572 -0.822451 0
M  V30 3935 C 364.669 -2.53511 2.56446 0
M  V30 3936 O 363.773 -3.54953 2.09958 0
M  V30 3937 H 363.114 -0.408494 0.523477 0
M  V30 3938 H 365.644 -0.706646 1.9201 0
M  V30 3939 H 365.654 -3.00426 2.76058 0
M  V30 3940 H 364.329 -2.16549 3.55076 0
M  V30 3941 H 362.906 -3.14516 2.00334 0
M  V30 3942 N 365.091 -1.34144 -0.827227 0
M  V30 3943 C 366.021 -1.28005 -1.95287 0
M  V30 3944 C 367.002 -0.158321 -1.69362 0
M  V30 3945 O 368.187 -0.349987 -1.9102 0
M  V30 3946 C 365.317 -1.03036 -3.31664 0
M  V30 3947 C 364.271 -2.11628 -3.72019 0
M  V30 3948 C 363.597 -1.71854 -5.0633 0
M  V30 3949 C 364.897 -3.53417 -3.8457 0
M  V30 3950 H 366.591 -2.22187 -2.00682 0
M  V30 3951 H 364.137 -1.0696 -0.964135 0
M  V30 3952 H 366.09 -0.973863 -4.09993 0
M  V30 3953 H 364.814 -0.0529391 -3.26557 0
M  V30 3954 H 363.473 -2.16339 -2.95961 0
M  V30 3955 H 363.121 -0.727841 -4.97706 0
M  V30 3956 H 362.821 -2.44531 -5.34302 0
M  V30 3957 H 364.345 -1.67692 -5.87122 0
M  V30 3958 H 365.759 -3.51142 -4.5318 0
M  V30 3959 H 364.156 -4.24679 -4.2399 0
M  V30 3960 H 365.226 -3.91072 -2.86689 0
M  V30 3961 N 366.569 1.04691 -1.17803 0
M  V30 3962 C 367.98 1.59238 -0.974689 0
M  V30 3963 C 368.331 1.90306 0.477292 0
M  V30 3964 O 367.456 1.68846 1.35352 0
M  V30 3965 C 368.051 2.89318 -1.76296 0
M  V30 3966 C 366.61 3.40506 -1.60414 0
M  V30 3967 C 365.757 2.14172 -1.76141 0
M  V30 3968 H 368.708 0.874395 -1.32439 0
M  V30 3969 H 368.729 3.5944 -1.24833 0
M  V30 3970 H 368.241 2.66675 -2.81968 0
M  V30 3971 H 366.342 3.68175 -0.572519 0
M  V30 3972 H 366.455 4.14753 -2.39827 0
M  V30 3973 H 364.819 2.25176 -1.19028 0
M  V30 3974 H 365.602 1.93992 -2.83235 0
M  V30 3975 N 368.047 0.979072 1.23499 0
M  V30 3976 C 369.294 0.647219 1.91878 0
M  V30 3977 C 369.622 -0.819074 1.76413 0
M  V30 3978 O 368.877 -1.60616 1.11808 0
M  V30 3979 C 369.176 0.981932 3.43646 0
M  V30 3980 C 368.842 2.43822 3.79291 0
M  V30 3981 C 367.504 2.83622 3.88731 0
M  V30 3982 C 369.856 3.3828 3.96505 0
M  V30 3983 C 367.184 4.16897 4.12812 0
M  V30 3984 C 369.536 4.71197 4.22085 0
M  V30 3985 C 368.2 5.10758 4.29747 0
M  V30 3986 H 367.47 0.236834 0.702133 0
M  V30 3987 H 370.117 1.23268 1.46551 0
M  V30 3988 H 368.422 0.314365 3.90537 0
M  V30 3989 H 370.119 0.703395 3.94783 0
M  V30 3990 H 366.709 2.11966 3.72516 0
M  V30 3991 H 370.893 3.0871 3.88603 0
M  V30 3992 H 366.149 4.47157 4.16966 0
M  V30 3993 H 370.323 5.44348 4.34348 0
M  V30 3994 H 367.95 6.1405 4.48159 0
M  V30 3995 N 369.525 -1.3858 0.750561 0
M  V30 3996 C 370.802 -1.94231 0.231009 0
M  V30 3997 C 371.182 -1.68611 -1.27018 0
M  V30 3998 O 370.53 -1.02296 -2.04323 0
M  V30 3999 C 370.74 -3.44123 0.581428 0
M  V30 4000 C 372.088 -4.2116 0.539389 0
M  V30 4001 O 373.112 -3.52391 0.519541 0
M  V30 4002 O 371.971 -5.43749 0.54765 0
M  V30 4003 H 369.065 -0.825639 0.0474263 0
M  V30 4004 H 371.611 -1.4799 0.830478 0
M  V30 4005 H 370.383 -3.56267 1.61833 0
M  V30 4006 H 370.006 -3.97573 -0.0462047 0
M  V30 4007 N 371.003 -0.499398 -1.49478 0
M  V30 4008 C 372.251 0.0455996 -2.02049 0
M  V30 4009 C 372.572 1.37633 -1.38138 0
M  V30 4010 O 371.842 1.8842 -0.536166 0
M  V30 4011 H 370.422 0.0198416 -0.746736 0
M  V30 4012 H 373.084 -0.656274 -1.83519 0
M  V30 4013 H 372.18 0.176445 -3.11601 0
M  V30 4014 N 372.481 1.55866 -0.233164 0
M  V30 4015 C 373.413 2.18099 0.704668 0
M  V30 4016 C 374.426 1.15334 1.14899 0
M  V30 4017 O 375.615 1.42262 1.07814 0
M  V30 4018 C 372.715 2.7592 1.96777 0
M  V30 4019 C 371.888 4.03969 1.67713 0
M  V30 4020 C 370.947 4.46242 2.78845 0
M  V30 4021 O 369.973 5.12903 2.46818 0
M  V30 4022 N 371.175 4.12886 4.08051 0
M  V30 4023 H 373.94 2.99205 0.172258 0
M  V30 4024 H 371.501 1.61815 -0.0525945 0
M  V30 4025 H 373.493 3.01165 2.70337 0
M  V30 4026 H 372.063 1.99051 2.41034 0
M  V30 4027 H 371.283 3.86459 0.777391 0
M  V30 4028 H 372.571 4.8748 1.4574 0
M  V30 4029 H 371.969 3.59342 4.3691 0
M  V30 4030 H 370.526 4.42997 4.78118 0
M  V30 4031 N 373.959 -0.0401083 1.57549 0
M  V30 4032 C 374.907 -1.06264 2.06908 0
M  V30 4033 C 375.901 -1.38132 0.980608 0
M  V30 4034 O 377.107 -1.37167 1.16556 0
M  V30 4035 H 373.482 -0.360166 0.660139 0
M  V30 4036 H 375.453 -0.620445 2.91878 0
M  V30 4037 C 374.202 -2.35846 2.55483 0
M  V30 4038 H 373.525 -2.12183 3.38849 0
M  V30 4039 H 374.965 -3.05765 2.93741 0
M  V30 4040 C 373.424 -3.0404 1.45126 0
M  V30 4041 O 373.954 -3.93424 0.811216 0
M  V30 4042 N 372.16 -2.65184 1.18852 0
M  V30 4043 H 371.707 -1.92584 1.71083 0
M  V30 4044 H 371.665 -3.1113 0.452244 0
M  V30 4045 N 375.437 -1.54477 -0.31217 0
M  V30 4046 C 376.367 -1.87652 -1.38957 0
M  V30 4047 C 377.348 -0.734358 -1.53431 0
M  V30 4048 O 378.533 -0.98911 -1.67123 0
M  V30 4049 C 375.663 -2.11396 -2.75552 0
M  V30 4050 C 374.617 -3.27243 -2.75855 0
M  V30 4051 C 373.943 -3.36382 -4.15633 0
M  V30 4052 C 375.243 -4.64622 -2.38587 0
M  V30 4053 H 376.937 -2.77887 -1.11442 0
M  V30 4054 H 374.483 -1.33707 -0.534655 0
M  V30 4055 H 376.436 -2.33189 -3.51 0
M  V30 4056 H 375.16 -1.17921 -3.04569 0
M  V30 4057 H 373.819 -3.05356 -2.02863 0
M  V30 4058 H 373.467 -2.40445 -4.41809 0
M  V30 4059 H 373.167 -4.14249 -4.1674 0
M  V30 4060 H 374.691 -3.60422 -4.92877 0
M  V30 4061 H 376.105 -4.86219 -3.03749 0
M  V30 4062 H 374.502 -5.45121 -2.50925 0
M  V30 4063 H 375.572 -4.66097 -1.33723 0
M  V30 4064 N 376.915 0.57481 -1.46744 0
M  V30 4065 C 377.862 1.68329 -1.57905 0
M  V30 4066 C 378.832 1.60625 -0.422927 0
M  V30 4067 O 380.017 1.79721 -0.640711 0
M  V30 4068 C 377.157 3.06665 -1.58274 0
M  V30 4069 C 376.27 3.24935 -2.84678 0
M  V30 4070 C 375.405 4.53566 -2.76499 0
M  V30 4071 C 374.444 4.65207 -3.97806 0
M  V30 4072 N 373.581 5.85172 -3.87967 0
M  V30 4073 H 378.421 1.58127 -2.52587 0
M  V30 4074 H 375.958 0.770552 -1.25303 0
M  V30 4075 H 377.916 3.86745 -1.56473 0
M  V30 4076 H 376.546 3.15745 -0.671194 0
M  V30 4077 H 375.598 2.38405 -2.96424 0
M  V30 4078 H 376.91 3.29403 -3.7456 0
M  V30 4079 H 376.064 5.41885 -2.72848 0
M  V30 4080 H 374.803 4.51548 -1.8427 0
M  V30 4081 H 373.808 3.75304 -4.0178 0
M  V30 4082 H 375.033 4.68997 -4.9114 0
M  V30 4083 H 372.979 5.84137 -2.98529 0
M  V30 4084 H 372.896 5.90943 -4.71511 0
M  V30 4085 H 374.164 6.759 -3.88303 0
M  V30 4086 N 378.394 1.34581 0.820102 0
M  V30 4087 C 379.304 1.28471 1.96297 0
M  V30 4088 C 380.32 0.191902 1.72939 0
M  V30 4089 O 381.496 0.418879 1.96996 0
M  V30 4090 C 378.561 1.04281 3.30645 0
M  V30 4091 C 377.622 2.22745 3.66992 0
M  V30 4092 C 376.855 1.997 4.9493 0
M  V30 4093 O 377.078 0.956656 5.6232 0
M  V30 4094 O 376.012 2.86723 5.2922 0
M  V30 4095 H 379.838 2.24624 2.04396 0
M  V30 4096 H 377.423 1.14816 0.955913 0
M  V30 4097 H 379.305 0.925841 4.11104 0
M  V30 4098 H 377.98 0.111697 3.23507 0
M  V30 4099 H 376.887 2.40003 2.86966 0
M  V30 4100 H 378.22 3.14257 3.78819 0
M  V30 4101 N 379.872 -1.04064 1.18357 0
M  V30 4102 C 380.802 -2.14001 0.934113 0
M  V30 4103 C 381.783 -1.69616 -0.128186 0
M  V30 4104 O 382.968 -1.94185 0.0244093 0
M  V30 4105 C 380.098 -3.44253 0.459066 0
M  V30 4106 C 379.052 -4.02261 1.46185 0
M  V30 4107 C 378.378 -5.27992 0.844322 0
M  V30 4108 C 379.678 -4.38432 2.83856 0
M  V30 4109 H 381.372 -2.35127 1.85352 0
M  V30 4110 H 378.918 -1.12998 0.892604 0
M  V30 4111 H 380.871 -4.20522 0.271907 0
M  V30 4112 H 379.595 -3.22813 -0.495912 0
M  V30 4113 H 378.254 -3.28074 1.63595 0
M  V30 4114 H 377.902 -5.02862 -0.117845 0
M  V30 4115 H 377.602 -5.67765 1.51384 0
M  V30 4116 H 379.126 -6.06938 0.667693 0
M  V30 4117 H 380.54 -5.05688 2.70098 0
M  V30 4118 H 378.937 -4.89254 3.47491 0
M  V30 4119 H 380.007 -3.4826 3.37406 0
M  V30 4120 N 381.35 -0.985608 -1.22978 0
M  V30 4121 C 382.766 -0.695104 -1.43668 0
M  V30 4122 C 382.966 0.736866 -1.87543 0
M  V30 4123 O 382.022 1.50868 -2.02473 0
M  V30 4124 C 383.335 -1.69447 -2.48412 0
M  V30 4125 C 384.883 -1.70909 -2.62219 0
M  V30 4126 C 385.358 -2.6969 -3.70178 0
M  V30 4127 N 386.849 -2.6824 -3.77626 0
M  V30 4128 C 387.584 -3.41339 -4.60733 0
M  V30 4129 N 387.08 -4.24015 -5.4789 0
M  V30 4130 N 388.873 -3.30079 -4.54977 0
M  V30 4131 H 381.024 -1.91054 -0.928016 0
M  V30 4132 H 383.287 -0.823553 -0.469536 0
M  V30 4133 H 382.993 -2.7188 -2.23102 0
M  V30 4134 H 382.867 -1.48147 -3.46889 0
M  V30 4135 H 385.254 -0.691785 -2.86877 0
M  V30 4136 H 385.335 -1.96276 -1.6404 0
M  V30 4137 H 384.979 -3.71566 -3.46268 0
M  V30 4138 H 384.909 -2.41595 -4.67909 0
M  V30 4139 H 387.4 -2.08243 -3.15346 0
M  V30 4140 H 387.713 -4.76636 -6.08308 0
M  V30 4141 H 386.058 -4.28104 -5.47496 0
M  V30 4142 H 389.249 -2.64937 -3.85909 0
M  V30 4143 H 389.422 -3.87308 -5.19516 0
M  V30 4144 N 382.828 1.3818 -0.7579 0
M  V30 4145 C 383.738 2.3421 -0.135247 0
M  V30 4146 C 384.754 1.59487 0.695683 0
M  V30 4147 O 385.93 1.91657 0.618832 0
M  V30 4148 C 382.995 3.3862 0.744139 0
M  V30 4149 C 382.056 4.2918 -0.101658 0
M  V30 4150 C 381.289 5.28603 0.735851 0
M  V30 4151 O 381.512 5.35166 1.97366 0
M  V30 4152 O 380.446 6.01707 0.152372 0
M  V30 4153 H 384.272 2.8916 -0.928436 0
M  V30 4154 H 381.857 1.40101 -0.518855 0
M  V30 4155 H 383.739 4.02539 1.2466 0
M  V30 4156 H 382.414 2.86019 1.51575 0
M  V30 4157 H 381.321 3.68407 -0.650167 0
M  V30 4158 H 382.654 4.85048 -0.836024 0
M  V30 4159 N 384.306 0.507319 1.49211 0
M  V30 4160 C 385.722 0.163682 1.58758 0
M  V30 4161 C 385.922 -1.33208 1.51188 0
M  V30 4162 O 384.978 -2.10855 1.38911 0
M  V30 4163 C 386.291 0.746095 2.91297 0
M  V30 4164 C 387.839 0.712773 3.04776 0
M  V30 4165 C 388.314 1.27336 4.39943 0
M  V30 4166 N 389.805 1.23433 4.46451 0
M  V30 4167 C 390.54 1.63821 5.495 0
M  V30 4168 N 390.036 2.11832 6.5962 0
M  V30 4169 N 391.829 1.55198 5.4025 0
M  V30 4170 H 383.98 1.47972 1.52375 0
M  V30 4171 H 386.243 0.614147 0.722168 0
M  V30 4172 H 385.949 1.79534 3.02424 0
M  V30 4173 H 385.823 0.210137 3.76614 0
M  V30 4174 H 388.21 -0.327656 2.93275 0
M  V30 4175 H 388.291 1.28595 2.21127 0
M  V30 4176 H 387.935 2.3126 4.52196 0
M  V30 4177 H 387.865 0.676066 5.22242 0
M  V30 4178 H 390.356 0.882627 3.67448 0
M  V30 4179 H 390.669 2.40703 7.34358 0
M  V30 4180 H 389.014 2.1581 6.60644 0
M  V30 4181 H 392.205 1.17505 4.53112 0
M  V30 4182 H 392.378 1.86997 6.20432 0
M  V30 4183 N 385.784 -1.5574 0.241426 0
M  V30 4184 C 387.03 -1.99104 -0.385406 0
M  V30 4185 C 387.363 -1.1293 -1.57988 0
M  V30 4186 O 386.638 -0.191449 -1.93555 0
M  V30 4187 C 386.921 -3.51087 -0.800616 0
M  V30 4188 C 386.774 -4.48028 0.398874 0
M  V30 4189 C 388.093 -4.08015 -1.64959 0
M  V30 4190 H 385.212 -0.723848 -0.138614 0
M  V30 4191 H 387.854 -1.86903 0.341642 0
M  V30 4192 H 386.004 -3.61615 -1.4201 0
M  V30 4193 H 387.676 -4.49487 1.03726 0
M  V30 4194 H 385.919 -4.21077 1.04293 0
M  V30 4195 H 386.59 -5.51962 0.0651056 0
M  V30 4196 H 389.066 -4.00555 -1.12672 0
M  V30 4197 H 387.942 -5.14635 -1.90898 0
M  V30 4198 H 388.203 -3.56131 -2.61961 0
M  V30 4199 N 387.262 0.0317525 -1.57568 0
M  V30 4200 C 388.192 1.03274 -2.0942 0
M  V30 4201 C 389.173 1.3788 -0.996143 0
M  V30 4202 O 390.358 1.46811 -1.27122 0
M  V30 4203 C 387.488 2.33448 -2.57137 0
M  V30 4204 C 386.442 2.13091 -3.71182 0
M  V30 4205 C 385.768 3.49001 -4.05095 0
M  V30 4206 C 387.068 1.51928 -4.99715 0
M  V30 4207 H 388.762 0.60112 -2.93303 0
M  V30 4208 H 386.308 0.287705 -1.41097 0
M  V30 4209 H 388.261 3.03802 -2.92032 0
M  V30 4210 H 386.985 2.78665 -1.70333 0
M  V30 4211 H 385.644 1.45171 -3.36632 0
M  V30 4212 H 385.292 3.91862 -3.15362 0
M  V30 4213 H 384.992 3.36207 -4.81911 0
M  V30 4214 H 386.516 4.20721 -4.42522 0
M  V30 4215 H 387.93 2.12196 -5.32584 0
M  V30 4216 H 386.327 1.49716 -5.81124 0
M  V30 4217 H 387.397 0.484811 -4.8247 0
M  V30 4218 N 388.74 1.54641 0.303973 0
M  V30 4219 C 390.156 1.45788 0.649463 0
M  V30 4220 C 390.356 0.64666 1.90842 0
M  V30 4221 O 389.412 0.153183 2.52035 0
M  V30 4222 C 390.725 2.89718 0.805227 0
M  V30 4223 C 392.273 2.99742 0.901305 0
M  V30 4224 C 392.748 4.44863 1.08909 0
M  V30 4225 N 394.239 4.48559 1.15536 0
M  V30 4226 C 394.974 5.58026 1.3189 0
M  V30 4227 N 394.47 6.77422 1.45161 0
M  V30 4228 N 396.263 5.45708 1.34755 0
M  V30 4229 H 388.414 2.05854 -0.523237 0
M  V30 4230 H 390.677 0.932186 -0.172431 0
M  V30 4231 H 390.383 3.51666 -0.0489108 0
M  V30 4232 H 390.257 3.36964 1.69513 0
M  V30 4233 H 392.644 2.3791 1.74593 0
M  V30 4234 H 392.725 2.55797 -0.0125531 0
M  V30 4235 H 392.369 5.07288 0.249241 0
M  V30 4236 H 392.299 4.86436 2.01713 0
M  V30 4237 H 394.79 3.6254 1.06646 0
M  V30 4238 H 395.103 7.56604 1.57387 0
M  V30 4239 H 393.448 6.80292 1.42223 0
M  V30 4240 H 396.639 4.51378 1.23996 0
M  V30 4241 H 396.812 6.3107 1.47157 0
M  V30 4242 N 390.218 -0.567019 1.47046 0
M  V30 4243 C 391.466 -1.322 1.52864 0
M  V30 4244 C 391.787 -1.94088 0.188388 0
M  V30 4245 O 391.057 -1.7941 -0.786693 0
M  V30 4246 H 389.637 -0.490894 0.563056 0
M  V30 4247 H 392.299 -0.662879 1.83281 0
M  V30 4248 H 391.395 -2.12062 2.2899 0
M  V30 4249 N 391.696 -1.35014 -0.812953 0
M  V30 4250 C 392.643 -1.27412 -1.92444 0
M  V30 4251 C 393.613 -0.14733 -1.65445 0
M  V30 4252 O 394.798 -0.329974 -1.87925 0
M  V30 4253 C 391.938 -1.04558 -3.28879 0
M  V30 4254 C 391.051 -2.26101 -3.68106 0
M  V30 4255 C 390.186 -1.96449 -4.9354 0
M  V30 4256 C 389.225 -3.14081 -5.25376 0
M  V30 4257 N 388.362 -2.84246 -6.41988 0
M  V30 4258 H 393.202 -2.22463 -1.98278 0
M  V30 4259 H 390.739 -1.10593 -0.969933 0
M  V30 4260 H 392.697 -0.893413 -4.07522 0
M  V30 4261 H 391.327 -0.131719 -3.22531 0
M  V30 4262 H 390.379 -2.52204 -2.84775 0
M  V30 4263 H 391.691 -3.13959 -3.87597 0
M  V30 4264 H 390.845 -1.78026 -5.79993 0
M  V30 4265 H 389.584 -1.05867 -4.76071 0
M  V30 4266 H 388.589 -3.33089 -4.37415 0
M  V30 4267 H 389.814 -4.05455 -5.44778 0
M  V30 4268 H 387.76 -1.96252 -6.25956 0
M  V30 4269 H 387.677 -3.65637 -6.61699 0
M  V30 4270 H 388.945 -2.6935 -7.31485 0
M  V30 4271 N 393.175 1.03435 -1.18907 0
M  V30 4272 C 394.405 1.8012 -1.01195 0
M  V30 4273 C 394.813 1.8395 0.442613 0
M  V30 4274 O 394.156 1.27836 1.31923 0
M  V30 4275 C 394.218 3.26792 -1.49823 0
M  V30 4276 C 393.882 3.46609 -2.97844 0
M  V30 4277 C 394.879 3.37278 -3.95651 0
M  V30 4278 C 392.564 3.73001 -3.36416 0
M  V30 4279 C 394.558 3.54054 -5.30023 0
M  V30 4280 C 392.245 3.89423 -4.70949 0
M  V30 4281 C 393.243 3.79951 -5.67562 0
M  V30 4282 O 392.931 3.95895 -6.99659 0
M  V30 4283 H 392.663 0.573865 -0.357289 0
M  V30 4284 H 395.217 1.31207 -1.58031 0
M  V30 4285 H 393.447 3.76703 -0.873578 0
M  V30 4286 H 395.136 3.85055 -1.28404 0
M  V30 4287 H 395.902 3.16846 -3.67197 0
M  V30 4288 H 391.781 3.79469 -2.61772 0
M  V30 4289 H 395.325 3.46577 -6.05417 0
M  V30 4290 H 391.222 4.09351 -4.99101 0
M  V30 4291 H 391.99 4.13019 -7.06653 0
M  V30 4292 N 394.653 0.992116 1.22453 0
M  V30 4293 C 396.069 0.702713 1.43297 0
M  V30 4294 C 396.269 -0.726909 1.87932 0
M  V30 4295 O 395.325 -1.49792 2.0327 0
M  V30 4296 C 396.638 1.70762 2.47509 0
M  V30 4297 C 398.186 1.72298 2.61309 0
M  V30 4298 C 398.661 2.71649 3.68742 0
M  V30 4299 N 400.152 2.70239 3.76199 0
M  V30 4300 C 400.887 3.43778 4.58917 0
M  V30 4301 N 400.383 4.26914 5.45633 0
M  V30 4302 N 402.176 3.32487 4.5322 0
M  V30 4303 H 394.327 1.91543 0.917871 0
M  V30 4304 H 396.59 0.826031 0.465162 0
M  V30 4305 H 396.296 2.73059 2.21657 0
M  V30 4306 H 396.17 1.49985 3.46099 0
M  V30 4307 H 398.557 0.706989 2.86506 0
M  V30 4308 H 398.638 1.97143 1.62997 0
M  V30 4309 H 398.282 3.73397 3.44292 0
M  V30 4310 H 398.212 2.44074 4.66622 0
M  V30 4311 H 400.703 2.09912 3.14237 0
M  V30 4312 H 401.016 4.79855 6.05771 0
M  V30 4313 H 399.361 4.31002 5.45218 0
M  V30 4314 H 402.552 2.6698 3.84499 0
M  V30 4315 H 402.725 3.90058 5.17454 0
M  V30 4316 N 396.131 -1.37776 0.765217 0
M  V30 4317 C 397.38 -1.99092 0.323307 0
M  V30 4318 C 397.693 -1.61434 -1.10446 0
M  V30 4319 O 398.899 -2.15805 -1.64743 0
M  V30 4320 C 397.355 -3.56019 0.527098 0
M  V30 4321 C 396.963 -4.0262 1.96471 0
M  V30 4322 C 398.707 -4.2424 0.148483 0
M  V30 4323 C 396.614 -5.52233 2.11644 0
M  V30 4324 H 395.544 -0.744846 0.117137 0
M  V30 4325 H 398.195 -1.57391 0.943417 0
M  V30 4326 H 396.577 -3.95667 -0.162372 0
M  V30 4327 H 397.751 -3.74234 2.68859 0
M  V30 4328 H 396.066 -3.47161 2.29931 0
M  V30 4329 H 398.663 -5.34159 0.240456 0
M  V30 4330 H 399.006 -4.06446 -0.900422 0
M  V30 4331 H 399.539 -3.89872 0.79025 0
M  V30 4332 H 396.278 -5.74945 3.1483 0
M  V30 4333 H 395.798 -5.82324 1.4373 0
M  V30 4334 H 397.477 -6.18106 1.91193 0
M  V30 4335 N 397.609 -0.515225 -1.4894 0
M  V30 4336 C 399.02 -0.0710067 -1.86565 0
M  V30 4337 C 399.371 1.34733 -1.42623 0
M  V30 4338 O 398.496 2.00653 -0.810379 0
M  V30 4339 C 399.091 -0.122083 -3.3858 0
M  V30 4340 C 397.65 0.266863 -3.75453 0
M  V30 4341 C 396.797 -0.488376 -2.72966 0
M  V30 4342 H 399.748 -0.727266 -1.41055 0
M  V30 4343 H 399.769 0.669818 -3.74558 0
M  V30 4344 H 399.281 -1.15448 -3.70531 0
M  V30 4345 H 397.382 1.30196 -3.49113 0
M  V30 4346 H 397.495 -0.0624811 -4.79059 0
M  V30 4347 H 395.859 0.0635622 -2.54621 0
M  V30 4348 H 396.642 -1.52113 -3.07761 0
M  V30 4349 N 399.087 1.5561 -0.249682 0
M  V30 4350 C 400.334 1.99011 0.374287 0
M  V30 4351 C 400.662 1.13785 1.57744 0
M  V30 4352 O 399.917 0.189326 1.94782 0
M  V30 4353 C 400.216 3.4775 0.824887 0
M  V30 4354 C 399.882 4.50086 -0.270819 0
M  V30 4355 C 398.544 4.77791 -0.571746 0
M  V30 4356 C 400.896 5.11312 -1.01041 0
M  V30 4357 C 398.224 5.63997 -1.61629 0
M  V30 4358 C 400.576 5.98651 -2.0445 0
M  V30 4359 C 399.24 6.24688 -2.35204 0
M  V30 4360 H 398.51 0.728233 0.136961 0
M  V30 4361 H 401.157 1.88122 -0.358087 0
M  V30 4362 H 399.462 3.55985 1.63651 0
M  V30 4363 H 401.159 3.78721 1.31799 0
M  V30 4364 H 397.749 4.28592 -0.026136 0
M  V30 4365 H 401.933 4.89953 -0.791177 0
M  V30 4366 H 397.189 5.82425 -1.85988 0
M  V30 4367 H 401.363 6.45135 -2.62248 0
M  V30 4368 H 398.99 6.91281 -3.16282 0
M  V30 4369 N 400.565 -0.0233959 1.57583 0
M  V30 4370 C 401.795 -0.723631 1.93513 0
M  V30 4371 C 402.203 -1.69115 0.848333 0
M  V30 4372 O 401.546 -1.82781 -0.183484 0
M  V30 4373 C 401.608 -1.53075 3.25282 0
M  V30 4374 C 401.272 -0.727388 4.51174 0
M  V30 4375 C 402.269 -0.0251924 5.19894 0
M  V30 4376 C 399.954 -0.680256 4.97672 0
M  V30 4377 C 401.948 0.713374 6.33395 0
M  V30 4378 C 399.635 0.0620523 6.11068 0
M  V30 4379 C 400.633 0.757622 6.78785 0
M  V30 4380 O 400.321 1.48787 7.90011 0
M  V30 4381 H 400.053 -0.208051 0.643188 0
M  V30 4382 H 402.607 0.0167489 2.05393 0
M  V30 4383 H 400.837 -2.31508 3.09744 0
M  V30 4384 H 402.526 -2.11413 3.46496 0
M  V30 4385 H 403.292 -0.0526003 4.84971 0
M  V30 4386 H 399.171 -1.21116 4.44805 0
M  V30 4387 H 402.715 1.25683 6.86185 0
M  V30 4388 H 398.612 0.0913634 6.45435 0
M  V30 4389 H 399.38 1.40213 8.06401 0
M  V30 4390 N 402.043 -1.548 -0.295768 0
M  V30 4391 C 402.976 -1.81003 -1.38972 0
M  V30 4392 C 403.954 -0.661544 -1.48534 0
M  V30 4393 O 405.138 -0.902074 -1.65514 0
M  V30 4394 C 402.265 -1.95141 -2.76835 0
M  V30 4395 C 401.311 -3.17592 -2.84671 0
M  V30 4396 S 402.144 -4.75531 -2.46232 0
M  V30 4397 C 403.3 -4.92613 -3.86114 0
M  V30 4398 H 403.533 -2.73507 -1.16537 0
M  V30 4399 H 401.066 -1.46278 -0.494168 0
M  V30 4400 H 403.024 -2.03972 -3.56238 0
M  V30 4401 H 401.685 -1.03565 -2.96535 0
M  V30 4402 H 400.878 -3.24303 -3.85803 0
M  V30 4403 H 400.48 -3.07235 -2.13267 0
M  V30 4404 H 402.772 -4.76957 -4.81164 0
M  V30 4405 H 403.715 -5.94698 -3.8437 0
M  V30 4406 H 404.123 -4.2073 -3.76359 0
M  V30 4407 N 403.521 0.559213 -1.47345 0
M  V30 4408 C 404.746 1.34676 -1.57725 0
M  V30 4409 C 405.171 1.86723 -0.227164 0
M  V30 4410 O 404.529 1.6286 0.796642 0
M  V30 4411 C 404.577 2.49399 -2.60447 0
M  V30 4412 O 403.681 3.51567 -2.15578 0
M  V30 4413 H 403.022 0.400115 -0.52991 0
M  V30 4414 H 405.552 0.676009 -1.93109 0
M  V30 4415 H 405.562 2.95996 -2.80803 0
M  V30 4416 H 404.237 2.10873 -3.58477 0
M  V30 4417 H 402.814 3.11289 -2.05313 0
M  V30 4418 N 404.999 1.35443 0.805782 0
M  V30 4419 C 406.227 1.31878 1.59423 0
M  V30 4420 C 406.642 -0.103562 1.88516 0
M  V30 4421 O 405.999 -1.05575 1.48863 0
M  V30 4422 C 406.05 2.12426 2.92502 0
M  V30 4423 O 405.771 3.49115 2.6467 0
M  V30 4424 C 407.272 2.16455 3.86862 0
M  V30 4425 H 404.492 0.453002 0.495005 0
M  V30 4426 H 407.036 1.78309 1.00131 0
M  V30 4427 H 405.191 1.69593 3.48306 0
M  V30 4428 H 405.605 3.90957 3.49647 0
M  V30 4429 H 407.079 2.77204 4.77349 0
M  V30 4430 H 407.556 1.16352 4.23508 0
M  V30 4431 H 408.162 2.59453 3.36993 0
M  V30 4432 N 406.477 -1.02803 1.19454 0
M  V30 4433 C 407.754 -1.73299 0.907013 0
M  V30 4434 C 408.134 -2.02772 -0.587086 0
M  V30 4435 O 407.482 -1.68304 -1.54551 0
M  V30 4436 C 407.692 -3.00912 1.76785 0
M  V30 4437 C 409.04 -3.74403 2.00268 0
M  V30 4438 O 410.064 -3.10841 1.73943 0
M  V30 4439 O 408.923 -4.88675 2.4466 0
M  V30 4440 H 406.017 -0.754727 0.338106 0
M  V30 4441 H 408.563 -1.08754 1.30271 0
M  V30 4442 H 407.335 -2.75366 2.7801 0
M  V30 4443 H 406.958 -3.73197 1.37149 0
M  V30 4444 N 407.956 -0.998596 -1.21925 0
M  V30 4445 C 409.196 -0.685948 -1.92546 0
M  V30 4446 C 409.56 0.768441 -1.75952 0
M  V30 4447 O 410.761 1.19277 -2.40887 0
M  V30 4448 C 409.032 -1.08767 -3.40448 0
M  V30 4449 S 410.591 -0.894251 -4.29591 0
M  V30 4450 H 407.409 -0.250622 -0.665364 0
M  V30 4451 H 410.011 -1.28207 -1.47591 0
M  V30 4452 H 408.715 -2.14242 -3.50041 0
M  V30 4453 H 408.246 -0.48357 -3.90417 0
M  V30 4454 H 410.261 0.212149 -4.95746 0
M  V30 4455 N 409.434 1.37368 -0.772513 0
M  V30 4456 C 410.344 2.34053 -0.160081 0
M  V30 4457 C 411.36 1.60216 0.678728 0
M  V30 4458 O 412.536 1.92303 0.59847 0
M  V30 4459 C 409.601 3.3939 0.708182 0
M  V30 4460 C 408.662 4.29048 -0.147172 0
M  V30 4461 C 407.895 5.29354 0.679744 0
M  V30 4462 O 408.118 5.3723 1.91678 0
M  V30 4463 O 407.052 6.01835 0.0885444 0
M  V30 4464 H 410.878 2.88159 -0.959053 0
M  V30 4465 H 408.463 1.39543 -0.533685 0
M  V30 4466 H 410.345 4.03839 1.20384 0
M  V30 4467 H 409.02 2.8761 1.48533 0
M  V30 4468 H 407.927 3.67697 -0.689205 0
M  V30 4469 H 409.26 4.84134 -0.887423 0
M  V30 4470 N 410.912 0.523116 1.48665 0
M  V30 4471 C 411.86 -0.256859 2.31177 0
M  V30 4472 C 412.854 -0.94199 1.40794 0
M  V30 4473 O 414.06 -0.867157 1.57735 0
M  V30 4474 H 410.435 -0.1017 0.745091 0
M  V30 4475 H 412.406 0.458739 2.94853 0
M  V30 4476 C 411.155 -1.29503 3.22683 0
M  V30 4477 H 410.478 -0.777248 3.92172 0
M  V30 4478 H 411.918 -1.81233 3.83315 0
M  V30 4479 C 410.377 -2.32501 2.43813 0
M  V30 4480 O 410.907 -3.3881 2.15803 0
M  V30 4481 N 409.113 -2.05538 2.05432 0
M  V30 4482 H 408.66 -1.19104 2.28412 0
M  V30 4483 H 408.618 -2.74676 1.52973 0
M  V30 4484 N 412.39 -1.55475 0.257931 0
M  V30 4485 C 413.32 -2.24815 -0.630912 0
M  V30 4486 C 414.301 -1.23224 -1.17259 0
M  V30 4487 O 415.486 -1.51904 -1.20991 0
M  V30 4488 C 412.616 -2.95609 -1.82298 0
M  V30 4489 C 411.57 -4.03982 -1.41359 0
M  V30 4490 C 410.896 -4.6226 -2.68738 0
M  V30 4491 C 412.196 -5.19109 -0.57648 0
M  V30 4492 H 413.89 -2.99354 -0.0526878 0
M  V30 4493 H 411.436 -1.4398 -0.023901 0
M  V30 4494 H 413.389 -3.42822 -2.45054 0
M  V30 4495 H 412.113 -2.18577 -2.42676 0
M  V30 4496 H 410.772 -3.57555 -0.809324 0
M  V30 4497 H 410.42 -3.81915 -3.27338 0
M  V30 4498 H 410.12 -5.35424 -2.42065 0
M  V30 4499 H 411.644 -5.12212 -3.32372 0
M  V30 4500 H 413.058 -5.62479 -1.10861 0
M  V30 4501 H 411.455 -5.98729 -0.405351 0
M  V30 4502 H 412.525 -4.83174 0.408776 0
M  V30 4503 N 413.868 0.0150385 -1.57593 0
M  V30 4504 C 414.798 1.01047 -2.10503 0
M  V30 4505 C 415.779 1.36816 -1.01071 0
M  V30 4506 O 416.964 1.45455 -1.28672 0
M  V30 4507 C 414.094 2.30708 -2.59598 0
M  V30 4508 C 413.048 2.09142 -3.73421 0
M  V30 4509 C 412.374 3.44685 -4.08774 0
M  V30 4510 C 413.674 1.46619 -5.01298 0
M  V30 4511 H 415.368 0.569978 -2.93925 0
M  V30 4512 H 412.914 0.272724 -1.41394 0
M  V30 4513 H 414.867 3.00687 -2.95238 0
M  V30 4514 H 413.591 2.76843 -1.73279 0
M  V30 4515 H 412.25 1.41592 -3.38153 0
M  V30 4516 H 411.898 3.88495 -3.195 0
M  V30 4517 H 411.598 3.31077 -4.8545 0
M  V30 4518 H 413.122 4.16004 -4.4696 0
M  V30 4519 H 414.536 2.06535 -5.34805 0
M  V30 4520 H 412.933 1.43544 -5.82679 0
M  V30 4521 H 414.003 0.433611 -4.82957 0
M  V30 4522 N 415.346 1.54954 0.287554 0
M  V30 4523 C 416.293 1.86834 1.35505 0
M  V30 4524 C 417.263 0.718452 1.49758 0
M  V30 4525 O 418.448 0.968358 1.644 0
M  V30 4526 C 415.588 2.13303 2.71286 0
M  V30 4527 C 414.701 3.40883 2.65373 0
M  V30 4528 C 413.836 3.57125 3.93236 0
M  V30 4529 C 412.875 4.78449 3.81776 0
M  V30 4530 N 412.012 4.91426 5.01443 0
M  V30 4531 H 416.852 2.77889 1.07619 0
M  V30 4532 H 414.389 1.37593 0.520241 0
M  V30 4533 H 416.347 2.26646 3.50267 0
M  V30 4534 H 414.977 1.25499 2.97405 0
M  V30 4535 H 414.029 3.36088 1.78182 0
M  V30 4536 H 415.341 4.29993 2.52799 0
M  V30 4537 H 414.495 3.70207 4.80658 0
M  V30 4538 H 413.234 2.66173 4.0866 0
M  V30 4539 H 412.239 4.65386 2.92738 0
M  V30 4540 H 413.464 5.70822 3.67884 0
M  V30 4541 H 411.41 4.03401 5.17304 0
M  V30 4542 H 411.327 5.74559 4.91343 0
M  V30 4543 H 412.595 5.08879 5.90477 0
M  V30 4544 N 416.824 -0.551391 1.4764 0
M  V30 4545 C 417.771 -1.65796 1.60563 0
M  V30 4546 C 418.741 -1.59932 0.448428 0
M  V30 4547 O 419.926 -1.78679 0.669222 0
M  V30 4548 C 417.066 -3.04108 1.63133 0
M  V30 4549 C 416.179 -3.20365 2.89811 0
M  V30 4550 C 415.314 -4.49109 2.8368 0
M  V30 4551 C 414.353 -4.58819 4.05156 0
M  V30 4552 N 413.49 -5.78926 3.97227 0
M  V30 4553 H 418.33 -1.54088 2.5507 0
M  V30 4554 H 415.867 -0.75052 1.26513 0
M  V30 4555 H 417.825 -3.84207 1.62606 0
M  V30 4556 H 416.455 -3.14637 0.721341 0
M  V30 4557 H 415.507 -2.33659 3.00179 0
M  V30 4558 H 416.819 -3.23402 3.79753 0
M  V30 4559 H 415.973 -5.37475 2.81434 0
M  V30 4560 H 414.712 -4.4856 1.91431 0
M  V30 4561 H 413.717 -3.68864 4.077 0
M  V30 4562 H 414.942 -4.61124 4.98539 0
M  V30 4563 H 412.888 -5.79314 3.07785 0
M  V30 4564 H 412.805 -5.83367 4.80853 0
M  V30 4565 H 414.073 -6.69637 3.99007 0
M  V30 4566 N 418.302 -1.35869 -0.798587 0
M  V30 4567 C 419.549 -1.29588 -1.55606 0
M  V30 4568 C 419.877 0.127456 -1.94082 0
M  V30 4569 O 419.132 1.09461 -1.62225 0
M  V30 4570 C 419.431 -2.1556 -2.85077 0
M  V30 4571 C 419.097 -3.6424 -2.65781 0
M  V30 4572 C 417.759 -4.04766 -2.60227 0
M  V30 4573 C 420.111 -4.58547 -2.47758 0
M  V30 4574 C 417.439 -5.37753 -2.34603 0
M  V30 4575 C 419.791 -5.91742 -2.23662 0
M  V30 4576 C 418.455 -6.31402 -2.16534 0
M  V30 4577 H 417.725 -0.474197 -0.569402 0
M  V30 4578 H 420.372 -1.67839 -0.922086 0
M  V30 4579 H 418.677 -1.70216 -3.52893 0
M  V30 4580 H 420.374 -2.08031 -3.42818 0
M  V30 4581 H 416.964 -3.32086 -2.70956 0
M  V30 4582 H 421.148 -4.28117 -2.51056 0
M  V30 4583 H 416.404 -5.67474 -2.2756 0
M  V30 4584 H 420.578 -6.6439 -2.08708 0
M  V30 4585 H 418.205 -7.34381 -1.96441 0
M  V30 4586 N 419.78 1.02168 -1.19998 0
M  V30 4587 C 420.71 2.12488 -0.96804 0
M  V30 4588 C 421.691 1.69799 0.101185 0
M  V30 4589 O 422.876 1.94121 -0.0552993 0
M  V30 4590 C 420.006 3.43479 -0.513776 0
M  V30 4591 C 418.96 3.99884 -1.52566 0
M  V30 4592 C 418.286 5.26582 -0.928214 0
M  V30 4593 C 419.586 4.33861 -2.90795 0
M  V30 4594 H 421.28 2.32149 -1.89069 0
M  V30 4595 H 418.826 1.11564 -0.910468 0
M  V30 4596 H 420.779 4.20036 -0.338774 0
M  V30 4597 H 419.503 3.23561 0.444493 0
M  V30 4598 H 418.162 3.25429 -1.68794 0
M  V30 4599 H 417.81 5.02986 0.0378289 0
M  V30 4600 H 417.51 5.65284 -1.60397 0
M  V30 4601 H 419.034 6.05799 -0.764167 0
M  V30 4602 H 420.448 5.01327 -2.78109 0
M  V30 4603 H 418.845 4.83664 -3.55231 0
M  V30 4604 H 419.915 3.42848 -3.42904 0
M  V30 4605 N 421.258 1.00505 1.21394 0
M  V30 4606 C 422.507 0.683159 1.89778 0
M  V30 4607 C 422.82 -0.789471 1.7896 0
M  V30 4608 O 424.026 -1.22344 2.42372 0
M  V30 4609 C 422.482 1.17146 3.40301 0
M  V30 4610 C 422.09 2.67017 3.5973 0
M  V30 4611 C 423.834 0.924461 4.14311 0
M  V30 4612 C 421.741 3.09387 5.04017 0
M  V30 4613 H 420.671 0.25183 0.710702 0
M  V30 4614 H 423.322 1.21622 1.37406 0
M  V30 4615 H 421.704 0.566451 3.91928 0
M  V30 4616 H 422.878 3.32968 3.18542 0
M  V30 4617 H 421.193 2.89732 2.99073 0
M  V30 4618 H 423.79 1.21658 5.20676 0
M  V30 4619 H 424.133 -0.139286 4.16067 0
M  V30 4620 H 424.666 1.49226 3.6875 0
M  V30 4621 H 421.405 4.14989 5.07409 0
M  V30 4622 H 420.925 2.48149 5.46061 0
M  V30 4623 H 422.604 3.01371 5.72525 0
M  V30 4624 N 422.737 -1.36956 0.779787 0
M  V30 4625 C 423.667 -2.32761 0.185651 0
M  V30 4626 C 424.648 -1.56177 -0.673989 0
M  V30 4627 O 425.833 -1.84378 -0.609797 0
M  V30 4628 C 422.963 -3.40418 -0.687964 0
M  V30 4629 C 421.917 -4.27941 0.0710102 0
M  V30 4630 C 421.243 -5.26681 -0.922573 0
M  V30 4631 C 422.543 -5.07006 1.25467 0
M  V30 4632 H 424.237 -2.82698 0.986008 0
M  V30 4633 H 421.783 -1.3592 0.475592 0
M  V30 4634 H 423.736 -4.06423 -1.11348 0
M  V30 4635 H 422.46 -2.89025 -1.52093 0
M  V30 4636 H 421.119 -3.63478 0.47739 0
M  V30 4637 H 420.767 -4.71565 -1.7503 0
M  V30 4638 H 420.467 -5.86103 -0.419237 0
M  V30 4639 H 421.991 -5.9556 -1.34686 0
M  V30 4640 H 423.405 -5.66105 0.905401 0
M  V30 4641 H 421.802 -5.75793 1.69063 0
M  V30 4642 H 422.872 -4.3921 2.05481 0
M  V30 4643 N 424.215 -0.530993 -1.48385 0
M  V30 4644 C 425.163 0.244595 -2.3131 0
M  V30 4645 C 426.157 0.93451 -1.41291 0
M  V30 4646 O 427.363 0.85878 -1.58193 0
M  V30 4647 H 423.738 0.0977472 -0.74562 0
M  V30 4648 H 425.709 -0.474369 -2.94605 0
M  V30 4649 C 424.458 1.2779 -3.23365 0
M  V30 4650 H 423.781 0.756439 -3.92579 0
M  V30 4651 H 425.221 1.79198 -3.84271 0
M  V30 4652 C 423.68 2.31205 -2.45042 0
M  V30 4653 O 424.21 3.37661 -2.17596 0
M  V30 4654 N 422.416 2.04446 -2.0652 0
M  V30 4655 H 421.963 1.17891 -2.2904 0
M  V30 4656 H 421.921 2.73861 -1.54427 0
M  V30 4657 N 425.693 1.55336 -0.266172 0
M  V30 4658 C 427.104 1.85236 0.233315 0
M  V30 4659 C 427.455 1.18816 1.56132 0
M  V30 4660 O 426.58 0.473307 2.11161 0
M  V30 4661 C 427.175 3.36059 0.430113 0
M  V30 4662 C 425.734 3.66116 0.873842 0
M  V30 4663 C 424.881 2.77274 -0.0380016 0
M  V30 4664 H 427.832 1.51004 -0.488214 0
M  V30 4665 H 427.853 3.58681 1.26998 0
M  V30 4666 H 427.365 3.84373 -0.536588 0
M  V30 4667 H 425.466 3.23295 1.85233 0
M  V30 4668 H 425.579 4.73699 0.717358 0
M  V30 4669 H 423.943 2.50198 0.476759 0
M  V30 4670 H 424.726 3.284 -1.00042 0
M  V30 4671 N 427.171 -0.0066808 1.57599 0
M  V30 4672 C 428.396 -0.707738 1.94951 0
M  V30 4673 C 428.821 -1.66882 0.867868 0
M  V30 4674 O 428.179 -1.80457 -0.17458 0
M  V30 4675 C 428.227 -1.42162 3.31394 0
M  V30 4676 O 427.331 -2.53578 3.25226 0
M  V30 4677 H 426.672 -0.188752 0.636607 0
M  V30 4678 H 429.202 0.0445193 2.04552 0
M  V30 4679 H 429.212 -1.78655 3.66806 0
M  V30 4680 H 427.887 -0.716903 4.09675 0
M  V30 4681 H 426.464 -2.19463 3.01481 0
M  V30 4682 N 428.649 -1.55105 -0.279332 0
M  V30 4683 C 429.596 -1.8755 -1.34513 0
M  V30 4684 C 430.566 -0.726384 -1.49375 0
M  V30 4685 O 431.751 -0.977063 -1.63884 0
M  V30 4686 C 428.891 -2.14738 -2.70151 0
M  V30 4687 C 428.004 -3.42285 -2.63562 0
M  V30 4688 C 427.139 -3.59206 -3.91337 0
M  V30 4689 C 426.178 -4.80467 -3.79233 0
M  V30 4690 N 425.315 -4.94079 -4.98829 0
M  V30 4691 H 430.155 -2.78456 -1.06143 0
M  V30 4692 H 427.692 -1.37867 -0.512936 0
M  V30 4693 H 429.65 -2.28501 -3.49061 0
M  V30 4694 H 428.28 -1.27075 -2.96735 0
M  V30 4695 H 427.332 -3.37029 -1.76397 0
M  V30 4696 H 428.644 -4.31328 -2.50515 0
M  V30 4697 H 427.798 -3.72751 -4.78687 0
M  V30 4698 H 426.537 -2.68337 -4.07243 0
M  V30 4699 H 425.542 -4.66932 -2.90266 0
M  V30 4700 H 426.767 -5.72765 -3.64852 0
M  V30 4701 H 424.713 -4.06139 -5.15158 0
M  V30 4702 H 424.63 -5.77156 -4.8829 0
M  V30 4703 H 425.898 -5.12003 -5.8777 0
M  V30 4704 N 430.127 0.543554 -1.4793 0
M  V30 4705 C 431.543 0.870806 -1.3375 0
M  V30 4706 C 431.743 1.9864 -0.338261 0
M  V30 4707 O 430.799 2.51305 0.245371 0
M  V30 4708 C 432.112 1.25114 -2.73435 0
M  V30 4709 C 433.66 1.3618 -2.81823 0
M  V30 4710 C 434.135 1.77563 -4.22179 0
M  V30 4711 N 435.626 1.8469 -4.24787 0
M  V30 4712 C 436.361 2.18067 -5.30315 0
M  V30 4713 N 435.857 2.49963 -6.46135 0
M  V30 4714 N 437.65 2.18958 -5.17701 0
M  V30 4715 H 429.801 -0.19275 -2.11524 0
M  V30 4716 H 432.064 -0.0235777 -0.947707 0
M  V30 4717 H 431.77 0.50514 -3.48053 0
M  V30 4718 H 431.644 2.20431 -3.06088 0
M  V30 4719 H 434.031 2.09859 -2.07468 0
M  V30 4720 H 434.112 0.390169 -2.52807 0
M  V30 4721 H 433.756 1.04449 -4.97044 0
M  V30 4722 H 433.686 2.75753 -4.48629 0
M  V30 4723 H 436.177 1.62372 -3.41239 0
M  V30 4724 H 436.49 2.74497 -7.22406 0
M  V30 4725 H 434.835 2.47513 -6.49432 0
M  V30 4726 H 438.026 1.93488 -4.2624 0
M  V30 4727 H 438.199 2.44639 -6.00047 0
M  V30 4728 N 431.605 1.3629 0.791371 0
M  V30 4729 C 432.853 1.30154 1.5461 0
M  V30 4730 C 433.174 -0.119409 1.94634 0
M  V30 4731 O 432.444 -1.05924 1.64794 0
M  V30 4732 H 431.024 0.478784 0.573389 0
M  V30 4733 H 433.686 1.70565 0.94306 0
M  V30 4734 H 432.782 1.92762 2.45457 0
M  V30 4735 N 433.083 -1.0153 1.20538 0
M  V30 4736 C 434.311 -1.78746 1.04199 0
M  V30 4737 C 434.726 -1.84323 -0.408733 0
M  V30 4738 O 434.083 -1.29714 -1.28377 0
M  V30 4739 C 434.134 -3.23152 1.62035 0
M  V30 4740 O 433.855 -3.17918 3.0143 0
M  V30 4741 C 435.356 -4.16911 1.50666 0
M  V30 4742 H 432.576 -0.56208 0.366479 0
M  V30 4743 H 435.12 -1.27794 1.59653 0
M  V30 4744 H 433.275 -3.71248 1.10697 0
M  V30 4745 H 433.689 -4.08567 3.28897 0
M  V30 4746 H 435.163 -5.16072 1.95892 0
M  V30 4747 H 435.64 -4.36791 0.459363 0
M  V30 4748 H 436.246 -3.74698 2.01201 0
M  V30 4749 N 434.561 -1.01147 -1.20859 0
M  V30 4750 C 435.491 -0.597663 -2.25722 0
M  V30 4751 C 436.472 0.384744 -1.65692 0
M  V30 4752 O 437.657 0.271303 -1.92296 0
M  V30 4753 C 434.787 0.0700149 -3.47229 0
M  V30 4754 C 433.741 -0.832843 -4.19819 0
M  V30 4755 C 433.067 -0.0312202 -5.34691 0
M  V30 4756 C 434.367 -2.1385 -4.76514 0
M  V30 4757 H 436.061 -1.47423 -2.60589 0
M  V30 4758 H 433.607 -0.710301 -1.25263 0
M  V30 4759 H 435.56 0.37103 -4.19763 0
M  V30 4760 H 434.284 0.981259 -3.11511 0
M  V30 4761 H 432.943 -1.11778 -3.49144 0
M  V30 4762 H 432.591 0.881515 -4.95215 0
M  V30 4763 H 432.291 -0.632434 -5.84187 0
M  V30 4764 H 433.815 0.26346 -6.10031 0
M  V30 4765 H 435.229 -1.9002 -5.40893 0
M  V30 4766 H 433.626 -2.69012 -5.36426 0
M  V30 4767 H 434.696 -2.80495 -3.95538 0
M  V30 4768 N 436.039 1.36541 -0.78704 0
M  V30 4769 C 436.949 2.3387 -0.184896 0
M  V30 4770 C 437.965 1.60927 0.661697 0
M  V30 4771 O 439.141 1.92927 0.57804 0
M  V30 4772 C 436.206 3.40122 0.672145 0
M  V30 4773 C 435.267 4.28867 -0.19267 0
M  V30 4774 C 434.5 5.30045 0.623561 0
M  V30 4775 O 434.723 5.39232 1.8597 0
M  V30 4776 O 433.657 6.01895 0.0247068 0
M  V30 4777 H 437.483 2.87126 -0.989562 0
M  V30 4778 H 435.068 1.38969 -0.548455 0
M  V30 4779 H 436.95 4.05093 1.16094 0
M  V30 4780 H 435.625 2.89169 1.45474 0
M  V30 4781 H 434.532 3.66945 -0.728166 0
M  V30 4782 H 435.865 4.83165 -0.938722 0
M  V30 4783 N 437.518 0.538854 1.48102 0
M  V30 4784 C 438.45 -0.256278 2.27763 0
M  V30 4785 C 439.463 -0.89633 1.35904 0
M  V30 4786 O 440.652 -0.773275 1.60881 0
M  V30 4787 C 437.752 -1.37896 3.09577 0
M  V30 4788 C 436.925 -0.839159 4.29275 0
M  V30 4789 C 435.984 -1.84405 4.9283 0
M  V30 4790 O 435.01 -1.39746 5.51779 0
M  V30 4791 N 436.212 -3.17666 4.85869 0
M  V30 4792 H 438.977 0.426968 2.96643 0
M  V30 4793 H 436.538 0.373747 1.57527 0
M  V30 4794 H 438.53 -2.04955 3.48963 0
M  V30 4795 H 437.1 -1.96572 2.4306 0
M  V30 4796 H 436.32 0.00769287 3.94199 0
M  V30 4797 H 437.608 -0.457548 5.06739 0
M  V30 4798 H 437.006 -3.56609 4.39143 0
M  V30 4799 H 435.563 -3.80334 5.29329 0
M  V30 4800 N 438.996 -1.55193 0.274407 0
M  V30 4801 C 440.245 -1.98758 -0.343213 0
M  V30 4802 C 440.558 -1.16624 -1.5703 0
M  V30 4803 O 441.764 -1.5033 -2.26082 0
M  V30 4804 C 440.22 -3.53759 -0.661996 0
M  V30 4805 C 439.828 -4.4467 0.54524 0
M  V30 4806 C 441.572 -4.05916 -1.24228 0
M  V30 4807 C 439.479 -5.91058 0.201084 0
M  V30 4808 H 438.409 -0.742353 -0.132014 0
M  V30 4809 H 441.06 -1.79545 0.378948 0
M  V30 4810 H 439.442 -3.68772 -1.44304 0
M  V30 4811 H 440.616 -4.41426 1.32212 0
M  V30 4812 H 438.931 -4.03143 1.04232 0
M  V30 4813 H 441.528 -5.12831 -1.51357 0
M  V30 4814 H 441.871 -3.54908 -2.17592 0
M  V30 4815 H 442.404 -3.9434 -0.523542 0
M  V30 4816 H 439.143 -6.46161 1.10258 0
M  V30 4817 H 438.663 -5.97373 -0.539045 0
M  V30 4818 H 440.342 -6.46669 -0.206954 0
M  V30 4819 N 440.474 -0.00167713 -1.576 0
M  V30 4820 C 441.407 1.02317 -2.03977 0
M  V30 4821 C 442.385 1.33381 -0.929963 0
M  V30 4822 O 443.569 1.45517 -1.19822 0
M  V30 4823 C 440.696 2.35035 -2.43878 0
M  V30 4824 C 439.742 2.19621 -3.65607 0
M  V30 4825 S 440.575 1.52068 -5.13455 0
M  V30 4826 C 441.731 2.86212 -5.56627 0
M  V30 4827 H 441.964 0.628285 -2.90585 0
M  V30 4828 H 439.497 0.209239 -1.52976 0
M  V30 4829 H 441.455 3.11345 -2.67534 0
M  V30 4830 H 440.116 2.71663 -1.57665 0
M  V30 4831 H 439.309 3.1767 -3.91282 0
M  V30 4832 H 438.911 1.51455 -3.41961 0
M  V30 4833 H 441.203 3.82509 -5.59189 0
M  V30 4834 H 442.146 2.65235 -6.56549 0
M  V30 4835 H 442.554 2.90199 -4.84195 0
M  V30 4836 N 441.952 1.55251 0.271103 0
M  V30 4837 C 442.899 1.88261 1.33516 0
M  V30 4838 C 443.869 0.734296 1.48988 0
M  V30 4839 O 445.054 0.985741 1.63364 0
M  V30 4840 C 442.194 2.16168 2.69008 0
M  V30 4841 C 441.307 3.43678 2.61743 0
M  V30 4842 C 440.442 3.61276 3.89427 0
M  V30 4843 C 439.481 4.82472 3.7668 0
M  V30 4844 N 438.618 4.96717 4.96202 0
M  V30 4845 H 443.458 2.79015 1.04665 0
M  V30 4846 H 440.995 1.38137 0.505618 0
M  V30 4847 H 442.953 2.30349 3.47844 0
M  V30 4848 H 441.583 1.28646 2.96057 0
M  V30 4849 H 440.635 3.37959 1.74607 0
M  V30 4850 H 441.947 4.3265 2.48224 0
M  V30 4851 H 441.101 3.75284 4.76704 0
M  V30 4852 H 439.84 2.70492 4.05814 0
M  V30 4853 H 438.845 4.68465 2.87786 0
M  V30 4854 H 440.07 5.74692 3.61809 0
M  V30 4855 H 438.016 4.08865 5.12997 0
M  V30 4856 H 437.933 5.79738 4.85222 0
M  V30 4857 H 439.201 5.15113 5.85046 0
M  V30 4858 N 443.43 -0.535701 1.48216 0
M  V30 4859 C 444.707 -1.29683 1.46429 0
M  V30 4860 C 445.087 -2.10391 0.172852 0
M  V30 4861 O 444.435 -2.12282 -0.845488 0
M  V30 4862 C 444.645 -2.18313 2.72287 0
M  V30 4863 C 445.993 -2.78639 3.20383 0
M  V30 4864 O 447.017 -2.28604 2.73164 0
M  V30 4865 O 445.876 -3.69636 4.02531 0
M  V30 4866 H 442.97 -0.585026 0.584529 0
M  V30 4867 H 445.516 -0.552827 1.60443 0
M  V30 4868 H 444.288 -1.58421 3.57797 0
M  V30 4869 H 443.911 -2.99971 2.60966 0
M  V30 4870 N 444.908 -1.36708 -0.784132 0
M  V30 4871 C 446.324 -1.17237 -1.08294 0
M  V30 4872 C 446.524 -5.93947e-05 -2.015 0
M  V30 4873 O 445.58 0.663686 -2.43622 0
M  V30 4874 C 446.893 -2.48557 -1.69233 0
M  V30 4875 C 448.441 -2.54968 -1.8155 0
M  V30 4876 C 448.916 -3.86388 -2.45904 0
M  V30 4877 N 450.407 -3.87762 -2.53367 0
M  V30 4878 C 451.142 -4.86191 -3.03983 0
M  V30 4879 N 450.638 -5.95015 -3.54866 0
M  V30 4880 N 452.431 -4.73606 -3.02743 0
M  V30 4881 H 444.582 -2.11758 -0.16501 0
M  V30 4882 H 446.845 -0.93822 -0.135822 0
M  V30 4883 H 446.551 -3.34638 -1.08215 0
M  V30 4884 H 446.425 -2.64748 -2.68679 0
M  V30 4885 H 448.812 -1.69302 -2.41704 0
M  V30 4886 H 448.893 -2.42672 -0.80895 0
M  V30 4887 H 448.537 -4.72462 -1.86392 0
M  V30 4888 H 448.467 -3.95982 -3.4714 0
M  V30 4889 H 450.958 -3.09145 -2.17343 0
M  V30 4890 H 451.271 -6.66086 -3.91854 0
M  V30 4891 H 449.616 -5.98676 -3.53003 0
M  V30 4892 H 452.807 -3.87717 -2.62284 0
M  V30 4893 H 452.98 -5.50473 -3.41881 0
M  V30 4894 N 446.386 1.0089 -1.21074 0
M  V30 4895 C 447.632 1.7497 -1.03717 0
M  V30 4896 C 447.987 1.8764 0.425344 0
M  V30 4897 O 447.28 1.39679 1.3115 0
M  V30 4898 C 447.474 3.16335 -1.66334 0
M  V30 4899 C 447.303 3.17449 -3.18522 0
M  V30 4900 C 446.073 3.2425 -3.87543 0
M  V30 4901 C 448.271 3.02877 -4.15656 0
M  V30 4902 N 446.253 3.14949 -5.26954 0
M  V30 4903 C 447.624 3.0143 -5.41793 0
M  V30 4904 C 449.679 2.8715 -4.06755 0
M  V30 4905 C 448.382 2.85869 -6.60054 0
M  V30 4906 C 450.408 2.72944 -5.24648 0
M  V30 4907 C 449.77 2.72171 -6.49694 0
M  V30 4908 H 445.869 0.650627 -0.43383 0
M  V30 4909 H 448.453 1.19944 -1.53367 0
M  V30 4910 H 446.624 3.69638 -1.19256 0
M  V30 4911 H 448.356 3.78888 -1.42219 0
M  V30 4912 H 445.111 3.31288 -3.38446 0
M  V30 4913 H 445.535 3.13651 -5.9996 0
M  V30 4914 H 450.177 2.86557 -3.10878 0
M  V30 4915 H 447.895 2.8521 -7.56096 0
M  V30 4916 H 451.481 2.61782 -5.19578 0
M  V30 4917 H 450.361 2.61307 -7.39384 0
M  V30 4918 N 447.864 1.01787 1.20321 0
M  V30 4919 C 448.797 0.533882 2.21867 0
M  V30 4920 C 449.775 -0.419361 1.57099 0
M  V30 4921 O 450.959 -0.339062 1.85426 0
M  V30 4922 C 448.086 -0.222899 3.37966 0
M  V30 4923 C 447.132 0.680091 4.21043 0
M  V30 4924 S 447.965 2.14997 4.90445 0
M  V30 4925 C 449.121 1.40339 6.09964 0
M  V30 4926 H 449.354 1.39429 2.62577 0
M  V30 4927 H 446.887 0.826867 1.30393 0
M  V30 4928 H 448.845 -0.653425 4.05266 0
M  V30 4929 H 447.506 -1.0589 2.95713 0
M  V30 4930 H 446.699 0.0964704 5.03908 0
M  V30 4931 H 446.301 1.04845 3.59004 0
M  V30 4932 H 448.593 0.68407 6.74038 0
M  V30 4933 H 449.536 2.20823 6.72787 0
M  V30 4934 H 449.944 0.905716 5.57187 0
M  V30 4935 N 449.342 -1.36122 0.79427 0
M  V30 4936 C 450.29 -2.31871 0.184023 0
M  V30 4937 C 451.284 -1.56041 -0.659365 0
M  V30 4938 O 452.49 -1.71266 -0.553906 0
M  V30 4939 H 448.865 -0.750896 0.0407373 0
M  V30 4940 H 450.836 -2.80898 1.00693 0
M  V30 4941 C 449.585 -3.41324 -0.662813 0
M  V30 4942 H 448.908 -3.99793 -0.0231944 0
M  V30 4943 H 450.348 -4.10629 -1.05639 0
M  V30 4944 C 448.807 -2.83308 -1.82313 0
M  V30 4945 O 449.337 -2.75863 -2.91997 0
M  V30 4946 N 447.543 -2.40529 -1.63077 0
M  V30 4947 H 447.09 -2.46785 -0.738591 0
M  V30 4948 H 447.048 -2.02059 -2.40872 0
M  V30 4949 N 450.82 -0.546701 -1.47814 0
M  V30 4950 C 452.066 -0.0187684 -2.02791 0
M  V30 4951 C 452.399 1.32338 -1.42128 0
M  V30 4952 O 451.674 1.85867 -0.573023 0
M  V30 4953 C 451.957 0.0854985 -3.59998 0
M  V30 4954 C 451.81 -1.283 -4.31114 0
M  V30 4955 C 453.129 0.80412 -4.32691 0
M  V30 4956 H 450.248 -0.0082946 -0.736953 0
M  V30 4957 H 452.89 -0.706962 -1.76358 0
M  V30 4958 H 451.04 0.671609 -3.82651 0
M  V30 4959 H 452.712 -1.91151 -4.19832 0
M  V30 4960 H 450.955 -1.86049 -3.91878 0
M  V30 4961 H 451.626 -1.16287 -5.39612 0
M  V30 4962 H 454.102 0.306576 -4.14969 0
M  V30 4963 H 452.978 0.846011 -5.42341 0
M  V30 4964 H 453.239 1.85802 -4.01161 0
M  V30 4965 N 452.299 1.55045 -0.282633 0
M  V30 4966 C 453.547 1.99365 0.331334 0
M  V30 4967 C 453.868 1.1725 1.55812 0
M  V30 4968 O 453.138 0.263871 1.94115 0
M  V30 4969 H 451.718 0.736397 0.125414 0
M  V30 4970 H 454.38 1.90964 -0.389711 0
M  V30 4971 H 453.476 3.0596 0.616036 0
M  V30 4972 N 453.777 0.010035 1.57597 0
M  V30 4973 C 454.727 -0.986858 2.05536 0
M  V30 4974 C 455.711 -1.29711 0.952042 0
M  V30 4975 O 456.903 -1.28641 1.21575 0
M  V30 4976 C 454.032 -2.2756 2.57043 0
M  V30 4977 C 453.118 -1.99455 3.74271 0
M  V30 4978 N 453.509 -1.41546 4.85591 0
M  V30 4979 C 451.807 -2.29547 3.82393 0
M  V30 4980 C 452.508 -1.3014 5.66956 0
M  V30 4981 N 451.484 -1.79044 5.13268 0
M  V30 4982 H 455.286 -0.533778 2.89012 0
M  V30 4983 H 452.8 -0.195432 1.6122 0
M  V30 4984 H 454.797 -2.99829 2.89669 0
M  V30 4985 H 453.457 -2.73512 1.7499 0
M  V30 4986 H 454.468 -1.09294 5.06236 0
M  V30 4987 H 451.145 -2.78304 3.11213 0
M  V30 4988 H 452.535 -0.855237 6.66435 0
M  V30 4989 N 455.255 -1.55392 -0.262866 0
M  V30 4990 C 456.165 -1.92077 -1.34698 0
M  V30 4991 C 457.181 -0.819227 -1.53508 0
M  V30 4992 O 458.357 -1.11921 -1.67439 0
M  V30 4993 C 455.422 -2.19407 -2.68443 0
M  V30 4994 C 454.483 -3.42905 -2.58292 0
M  V30 4995 C 453.716 -3.68921 -3.85659 0
M  V30 4996 O 453.939 -2.97275 -4.8681 0
M  V30 4997 O 452.873 -4.62455 -3.85252 0
M  V30 4998 H 456.699 -2.84384 -1.06581 0
M  V30 4999 H 454.284 -1.42069 -0.462264 0
M  V30 5000 H 456.166 -2.38365 -3.47506 0
M  V30 5001 H 454.841 -1.30282 -2.96325 0
M  V30 5002 H 453.748 -3.29272 -1.7757 0
M  V30 5003 H 455.081 -4.32282 -2.35358 0
M  V30 5004 N 456.733 0.527833 -1.48498 0
M  V30 5005 C 458.01 1.28905 -1.47115 0
M  V30 5006 C 458.39 2.10297 -0.184007 0
M  V30 5007 O 457.738 2.12728 0.834218 0
M  V30 5008 C 457.948 2.16866 -2.73441 0
M  V30 5009 C 459.296 2.76936 -3.21857 0
M  V30 5010 O 460.32 2.27152 -2.74373 0
M  V30 5011 O 459.179 3.67496 -4.04486 0
M  V30 5012 H 456.273 0.581918 -0.587623 0
M  V30 5013 H 458.819 0.544311 -1.60734 0
M  V30 5014 H 457.591 1.56521 -3.58632 0
M  V30 5015 H 457.214 2.98583 -2.62553 0
M  V30 5016 N 458.211 1.37122 0.776871 0
M  V30 5017 C 459.488 1.22586 1.52421 0
M  V30 5018 C 459.868 -0.182726 2.10308 0
M  V30 5019 O 459.216 -1.18979 1.9508 0
M  V30 5020 C 459.426 2.31782 2.60918 0
M  V30 5021 C 460.774 2.69071 3.2846 0
M  V30 5022 O 461.798 2.3092 2.71209 0
M  V30 5023 O 460.657 3.3478 4.31954 0
M  V30 5024 H 457.751 0.478045 0.674835 0
M  V30 5025 H 460.297 1.48888 0.814275 0
M  V30 5026 H 459.069 3.26131 2.16227 0
M  V30 5027 H 458.692 2.06916 3.39517 0
M  V30 5028 N 459.689 -1.00246 1.21608 0
M  V30 5029 C 460.599 -2.12515 0.993709 0
M  V30 5030 C 461.615 -1.73913 -0.0549939 0
M  V30 5031 O 462.791 -2.00943 0.135619 0
M  V30 5032 C 459.856 -3.42083 0.563953 0
M  V30 5033 C 458.917 -3.94843 1.68516 0
M  V30 5034 C 458.15 -5.18226 1.27582 0
M  V30 5035 O 458.373 -5.70201 0.150506 0
M  V30 5036 O 457.307 -5.64497 2.0887 0
M  V30 5037 H 461.133 -2.34152 1.93407 0
M  V30 5038 H 458.718 -1.10891 1.00118 0
M  V30 5039 H 460.6 -4.20073 0.334194 0
M  V30 5040 H 459.275 -3.21828 -0.347665 0
M  V30 5041 H 458.182 -3.18068 1.96935 0
M  V30 5042 H 459.515 -4.19512 2.5743 0
M  V30 5043 N 461.167 -1.02423 -1.1978 0
M  V30 5044 C 462.097 -0.62157 -2.25075 0
M  V30 5045 C 463.078 0.367148 -1.6609 0
M  V30 5046 O 464.263 0.250892 -1.92573 0
M  V30 5047 C 461.393 0.0331826 -3.47284 0
M  V30 5048 C 460.347 -0.877323 -4.18912 0
M  V30 5049 C 459.673 -0.0879296 -5.34628 0
M  V30 5050 C 460.973 -2.18892 -4.74219 0
M  V30 5051 H 462.667 -1.50179 -2.59011 0
M  V30 5052 H 460.213 -0.723547 -1.24502 0
M  V30 5053 H 462.166 0.326488 -4.20133 0
M  V30 5054 H 460.89 0.948164 -3.12534 0
M  V30 5055 H 459.549 -1.15475 -3.47938 0
M  V30 5056 H 459.197 0.828941 -4.96123 0
M  V30 5057 H 458.897 -0.694359 -5.83483 0
M  V30 5058 H 460.421 0.198743 -6.10276 0
M  V30 5059 H 461.835 -1.95746 -5.38847 0
M  V30 5060 H 460.232 -2.74686 -5.33542 0
M  V30 5061 H 461.302 -2.84674 -3.92541 0
M  V30 5062 N 462.645 1.35699 -0.801477 0
M  V30 5063 C 463.592 2.29876 -0.206294 0
M  V30 5064 C 464.562 1.52565 0.656752 0
M  V30 5065 O 465.747 1.81024 0.602906 0
M  V30 5066 C 462.887 3.39052 0.643272 0
M  V30 5067 C 462 4.31335 -0.239644 0
M  V30 5068 C 461.135 5.27599 0.61744 0
M  V30 5069 C 460.174 6.11521 -0.26619 0
M  V30 5070 N 459.311 6.99938 0.550571 0
M  V30 5071 H 464.151 2.80187 -1.01484 0
M  V30 5072 H 461.688 1.37902 -0.511997 0
M  V30 5073 H 463.646 4.0101 1.15094 0
M  V30 5074 H 462.276 2.9003 1.41713 0
M  V30 5075 H 461.328 3.70426 -0.865381 0
M  V30 5076 H 462.64 4.90243 -0.919985 0
M  V30 5077 H 461.794 5.94906 1.19045 0
M  V30 5078 H 460.533 4.69176 1.33137 0
M  V30 5079 H 459.538 5.43166 -0.851507 0
M  V30 5080 H 460.763 6.72022 -0.9779 0
M  V30 5081 H 458.709 6.44008 1.24856 0
M  V30 5082 H 458.626 7.55966 -0.071832 0
M  V30 5083 H 459.894 7.71599 1.10702 0
M  V30 5084 N 464.123 0.554532 1.47522 0
M  V30 5085 C 465.534 0.120446 1.86311 0
M  V30 5086 C 465.885 -1.30904 1.46145 0
M  V30 5087 O 465.01 -1.98434 0.863294 0
M  V30 5088 C 465.605 0.211808 3.38137 0
M  V30 5089 C 464.164 -0.167224 3.76028 0
M  V30 5090 C 463.311 0.560576 2.71575 0
M  V30 5091 H 466.262 0.764408 1.39077 0
M  V30 5092 H 466.283 -0.570275 3.76202 0
M  V30 5093 H 465.795 1.25232 3.6734 0
M  V30 5094 H 463.896 -1.20894 3.52442 0
M  V30 5095 H 464.009 0.189473 4.78725 0
M  V30 5096 H 462.373 0.00396836 2.547 0
M  V30 5097 H 463.156 1.60219 3.0362 0
M  V30 5098 N 465.601 -1.54893 0.290851 0
M  V30 5099 C 466.831 -2.04047 -0.323818 0
M  V30 5100 C 467.239 -1.16809 -1.48837 0
M  V30 5101 O 466.582 -0.184145 -1.82775 0
M  V30 5102 C 466.644 -3.49248 -0.852395 0
M  V30 5103 C 466.308 -4.56623 0.185557 0
M  V30 5104 C 467.305 -5.09985 1.01053 0
M  V30 5105 C 464.99 -5.01252 0.324332 0
M  V30 5106 C 466.984 -6.06507 1.96031 0
M  V30 5107 C 464.671 -5.97596 1.27757 0
M  V30 5108 C 465.669 -6.50107 2.09405 0
M  V30 5109 O 465.357 -7.44565 3.03114 0
M  V30 5110 H 465.089 -0.671735 -0.0758129 0
M  V30 5111 H 467.643 -2.00947 0.425393 0
M  V30 5112 H 465.873 -3.49639 -1.65195 0
M  V30 5113 H 467.562 -3.81654 -1.38185 0
M  V30 5114 H 468.328 -4.76307 0.914129 0
M  V30 5115 H 464.207 -4.60015 -0.301213 0
M  V30 5116 H 467.751 -6.47418 2.598 0
M  V30 5117 H 463.648 -6.30691 1.37473 0
M  V30 5118 H 464.416 -7.62334 2.97976 0
M  V30 5119 N 467.08 -0.0183926 -1.57589 0
M  V30 5120 C 468.326 0.663543 -1.91638 0
M  V30 5121 C 468.659 1.72392 -0.894134 0
M  V30 5122 O 467.934 1.94316 0.0846449 0
M  V30 5123 C 468.217 1.28984 -3.36207 0
M  V30 5124 C 468.07 0.239761 -4.49161 0
M  V30 5125 C 469.389 2.2109 -3.80536 0
M  V30 5126 H 466.508 0.239746 -0.696915 0
M  V30 5127 H 469.15 -0.073456 -1.89858 0
M  V30 5128 H 467.3 1.91799 -3.37854 0
M  V30 5129 H 468.972 -0.390119 -4.59647 0
M  V30 5130 H 467.215 -0.435972 -4.31604 0
M  V30 5131 H 467.886 0.717383 -5.47319 0
M  V30 5132 H 470.362 1.68273 -3.80557 0
M  V30 5133 H 469.238 2.61869 -4.82406 0
M  V30 5134 H 469.499 3.09764 -3.15434 0
M  V30 5135 N 468.558 1.5553 0.254621 0
M  V30 5136 C 469.468 1.92789 1.33677 0
M  V30 5137 C 470.484 0.827356 1.53071 0
M  V30 5138 O 471.66 1.12807 1.66843 0
M  V30 5139 C 468.725 2.20827 2.67275 0
M  V30 5140 C 467.786 3.4427 2.5647 0
M  V30 5141 C 467.019 3.70961 3.83697 0
M  V30 5142 O 467.242 2.99852 4.85227 0
M  V30 5143 O 466.176 4.64491 3.82794 0
M  V30 5144 H 470.002 2.84945 1.05071 0
M  V30 5145 H 467.587 1.42312 0.454723 0
M  V30 5146 H 469.469 2.40204 3.46237 0
M  V30 5147 H 468.144 1.31851 2.9563 0
M  V30 5148 H 467.051 3.30209 1.75821 0
M  V30 5149 H 468.384 4.33524 2.33062 0
M  V30 5150 N 470.036 -0.519951 1.48776 0
M  V30 5151 C 471.447 -1.10177 1.50725 0
M  V30 5152 C 471.798 -1.94153 0.282678 0
M  V30 5153 O 470.923 -2.07645 -0.609298 0
M  V30 5154 C 471.518 -2.00482 2.73116 0
M  V30 5155 C 470.077 -2.53862 2.77905 0
M  V30 5156 C 469.224 -1.31047 2.44381 0
M  V30 5157 H 472.175 -0.30473 1.55747 0
M  V30 5158 H 472.196 -2.8491 2.52203 0
M  V30 5159 H 471.708 -1.39335 3.62225 0
M  V30 5160 H 469.809 -3.18702 1.93029 0
M  V30 5161 H 469.922 -2.9231 3.79594 0
M  V30 5162 H 468.286 -1.62953 1.95751 0
M  V30 5163 H 469.069 -0.71637 3.35743 0
M  V30 5164 N 471.514 -1.37532 -0.769588 0
M  V30 5165 C 472.444 -1.36172 -1.89682 0
M  V30 5166 C 473.425 -0.23001 -1.68538 0
M  V30 5167 O 474.61 -0.43069 -1.89364 0
M  V30 5168 C 471.74 -1.1701 -3.26995 0
M  V30 5169 C 470.694 -2.27216 -3.62708 0
M  V30 5170 C 470.02 -1.93174 -4.98586 0
M  V30 5171 C 471.32 -3.6941 -3.69234 0
M  V30 5172 H 473.014 -2.30499 -1.91078 0
M  V30 5173 H 470.56 -1.10953 -0.917902 0
M  V30 5174 H 472.513 -1.14688 -4.05493 0
M  V30 5175 H 471.237 -0.191395 -3.26039 0
M  V30 5176 H 469.896 -2.28697 -2.86519 0
M  V30 5177 H 469.544 -0.938281 -4.94171 0
M  V30 5178 H 469.244 -2.66973 -5.23449 0
M  V30 5179 H 470.768 -1.92443 -5.79481 0
M  V30 5180 H 472.182 -3.70047 -4.37879 0
M  V30 5181 H 470.579 -4.4228 -4.05597 0
M  V30 5182 H 471.649 -4.0288 -2.69844 0
M  V30 5183 N 472.992 0.995999 -1.22138 0
M  V30 5184 C 474.403 1.54961 -1.04135 0
M  V30 5185 C 474.754 1.92159 0.396147 0
M  V30 5186 O 473.879 1.74435 1.28069 0
M  V30 5187 C 474.474 2.81581 -1.88408 0
M  V30 5188 C 473.033 3.33396 -1.74712 0
M  V30 5189 C 472.18 2.06509 -1.85066 0
M  V30 5190 H 475.131 0.817436 -1.36028 0
M  V30 5191 H 475.152 3.53822 -1.39966 0
M  V30 5192 H 474.664 2.54476 -2.93025 0
M  V30 5193 H 472.765 3.65416 -0.728159 0
M  V30 5194 H 472.878 4.04208 -2.57202 0
M  V30 5195 H 471.242 2.19925 -1.28472 0
M  V30 5196 H 472.025 1.81804 -2.91208 0
M  V30 5197 N 474.47 1.03057 1.19235 0
M  V30 5198 C 475.747 0.642608 1.84743 0
M  V30 5199 C 476.127 -0.878577 1.91948 0
M  V30 5200 O 475.475 -1.77597 1.43776 0
M  V30 5201 C 475.685 1.30665 3.23616 0
M  V30 5202 C 477.033 1.43098 3.9976 0
M  V30 5203 O 478.057 1.26396 3.3302 0
M  V30 5204 O 476.916 1.70223 5.19313 0
M  V30 5205 H 474.01 0.223573 0.796206 0
M  V30 5206 H 476.556 1.12883 1.26711 0
M  V30 5207 H 475.328 2.34544 3.13217 0
M  V30 5208 H 474.951 0.808405 3.89295 0
M  V30 5209 N 475.948 -1.35272 0.808662 0
M  V30 5210 C 477.178 -2.02652 0.401953 0
M  V30 5211 C 477.586 -1.6108 -0.992462 0
M  V30 5212 O 476.929 -0.804984 -1.65123 0
M  V30 5213 C 476.991 -3.57174 0.408246 0
M  V30 5214 C 476.655 -4.22019 1.75353 0
M  V30 5215 C 477.652 -4.43552 2.71215 0
M  V30 5216 C 475.337 -4.59093 2.03811 0
M  V30 5217 C 477.331 -5.01264 3.93717 0
M  V30 5218 C 475.018 -5.16519 3.26576 0
M  V30 5219 C 476.016 -5.37546 4.21347 0
M  V30 5220 O 475.704 -5.93761 5.41944 0
M  V30 5221 H 475.436 -0.656495 0.161216 0
M  V30 5222 H 477.99 -1.73829 1.0942 0
M  V30 5223 H 476.22 -3.85197 -0.340608 0
M  V30 5224 H 477.909 -4.05893 0.0235623 0
M  V30 5225 H 478.675 -4.15288 2.50522 0
M  V30 5226 H 474.554 -4.42039 1.30854 0
M  V30 5227 H 478.098 -5.17592 4.67701 0
M  V30 5228 H 473.995 -5.4421 3.47139 0
M  V30 5229 H 474.763 -6.1221 5.43269 0
M  V30 5230 N 477.426 -0.562348 -1.47226 0
M  V30 5231 C 478.373 0.182461 -2.30078 0
M  V30 5232 C 479.343 0.903503 -1.39377 0
M  V30 5233 O 480.528 0.898188 -1.68337 0
M  V30 5234 C 477.668 1.20322 -3.23445 0
M  V30 5235 C 476.781 0.487717 -4.29238 0
M  V30 5236 C 475.916 1.49422 -5.09752 0
M  V30 5237 C 474.955 0.763976 -6.07314 0
M  V30 5238 N 474.092 1.71755 -6.80768 0
M  V30 5239 H 478.932 -0.530169 -2.93246 0
M  V30 5240 H 476.469 -0.273276 -1.44539 0
M  V30 5241 H 478.427 1.80768 -3.76004 0
M  V30 5242 H 477.057 1.88382 -2.6213 0
M  V30 5243 H 476.109 -0.231374 -3.79696 0
M  V30 5244 H 477.421 -0.0841003 -4.98729 0
M  V30 5245 H 476.575 2.17206 -5.66486 0
M  V30 5246 H 475.314 2.09995 -4.40174 0
M  V30 5247 H 474.319 0.0722344 -5.49753 0
M  V30 5248 H 475.544 0.16391 -6.78902 0
M  V30 5249 H 473.49 2.31177 -6.13916 0
M  V30 5250 H 473.407 1.19802 -7.46447 0
M  V30 5251 H 474.675 2.38638 -7.42073 0
M  V30 5252 N 478.904 1.54736 -0.299062 0
M  V30 5253 C 480.181 1.92187 0.363802 0
M  V30 5254 C 480.561 1.22607 1.71845 0
M  V30 5255 O 479.909 0.361141 2.25628 0
M  V30 5256 C 480.119 3.45678 0.480377 0
M  V30 5257 C 481.467 4.17885 0.752147 0
M  V30 5258 O 482.491 3.51702 0.564264 0
M  V30 5259 O 481.35 5.35048 1.11294 0
M  V30 5260 H 478.444 0.801681 0.203066 0
M  V30 5261 H 480.99 1.66115 -0.346978 0
M  V30 5262 H 479.762 3.88443 -0.471999 0
M  V30 5263 H 479.385 3.77779 1.2397 0
M  V30 5264 N 480.382 0.0267497 1.57577 0
M  V30 5265 C 481.793 -0.512413 1.79531 0
M  V30 5266 C 482.144 -1.72391 0.936791 0
M  V30 5267 O 481.269 -2.15903 0.146543 0
M  V30 5268 C 481.864 -0.936378 3.25603 0
M  V30 5269 C 480.423 -1.42067 3.4856 0
M  V30 5270 C 479.57 -0.384278 2.74624 0
M  V30 5271 H 482.521 0.252797 1.56674 0
M  V30 5272 H 482.542 -1.80088 3.35184 0
M  V30 5273 H 482.054 -0.0544332 3.88062 0
M  V30 5274 H 480.155 -2.32262 2.9135 0
M  V30 5275 H 480.268 -1.42968 4.57271 0
M  V30 5276 H 478.632 -0.851855 2.40032 0
M  V30 5277 H 479.415 0.489159 3.39797 0
M  V30 5278 N 481.861 -1.55662 -0.24637 0
M  V30 5279 C 483.277 -1.48098 -0.594907 0
M  V30 5280 C 483.477 -0.717044 -1.8831 0
M  V30 5281 O 482.533 -0.246618 -2.51293 0
M  V30 5282 C 483.846 -2.92507 -0.697146 0
M  V30 5283 C 485.394 -3.02881 -0.789436 0
M  V30 5284 C 485.869 -4.48598 -0.923232 0
M  V30 5285 N 487.36 -4.52538 -0.988088 0
M  V30 5286 C 488.095 -5.62536 -1.11089 0
M  V30 5287 N 487.591 -6.82342 -1.19919 0
M  V30 5288 N 489.384 -5.50334 -1.14408 0
M  V30 5289 H 481.535 -2.0377 0.599278 0
M  V30 5290 H 483.798 -0.925145 0.20691 0
M  V30 5291 H 483.504 -3.51242 0.179396 0
M  V30 5292 H 483.378 -3.43024 -1.5689 0
M  V30 5293 H 485.765 -2.44226 -1.65643 0
M  V30 5294 H 485.846 -2.55574 0.107482 0
M  V30 5295 H 485.49 -5.07864 -0.0607927 0
M  V30 5296 H 485.42 -4.93587 -1.8352 0
M  V30 5297 H 487.911 -3.66248 -0.931167 0
M  V30 5298 H 488.224 -7.61924 -1.29197 0
M  V30 5299 H 486.569 -6.85102 -1.16876 0
M  V30 5300 H 489.76 -4.5567 -1.07158 0
M  V30 5301 H 489.933 -6.36096 -1.23634 0
M  V30 5302 N 483.339 0.512053 -1.4905 0
M  V30 5303 C 484.755 0.84224 -1.35567 0
M  V30 5304 C 484.955 1.97878 -0.380319 0
M  V30 5305 O 484.011 2.51769 0.19201 0
M  V30 5306 C 485.324 1.19286 -2.76028 0
M  V30 5307 C 486.872 1.30171 -2.84648 0
M  V30 5308 C 487.347 1.68568 -4.25851 0
M  V30 5309 N 488.838 1.75638 -4.28609 0
M  V30 5310 C 489.573 2.06769 -5.34821 0
M  V30 5311 N 489.069 2.36201 -6.51292 0
M  V30 5312 N 490.862 2.07927 -5.22229 0
M  V30 5313 H 483.013 -0.237574 -2.11067 0
M  V30 5314 H 485.276 -0.0436747 -0.946993 0
M  V30 5315 H 484.982 0.431199 -3.49047 0
M  V30 5316 H 484.856 2.13889 -3.10695 0
M  V30 5317 H 487.243 2.05411 -2.11873 0
M  V30 5318 H 487.324 0.336457 -2.53578 0
M  V30 5319 H 486.968 0.938824 -4.99148 0
M  V30 5320 H 486.898 2.66174 -4.54377 0
M  V30 5321 H 489.389 1.55097 -3.44606 0
M  V30 5322 H 489.702 2.59112 -7.28066 0
M  V30 5323 H 488.047 2.33681 -6.54536 0
M  V30 5324 H 491.238 1.84403 -4.30248 0
M  V30 5325 H 491.411 2.31856 -6.05101 0
M  V30 5326 N 484.817 1.37938 0.762283 0
M  V30 5327 C 486.045 1.36883 1.55147 0
M  V30 5328 C 486.46 -0.0435348 1.8875 0
M  V30 5329 O 485.817 -1.00786 1.52146 0
M  V30 5330 C 485.868 2.21624 2.85596 0
M  V30 5331 O 485.589 3.57358 2.5343 0
M  V30 5332 C 487.09 2.28653 3.7978 0
M  V30 5333 H 484.31 0.468521 0.480343 0
M  V30 5334 H 486.854 1.81404 0.944079 0
M  V30 5335 H 485.009 1.80588 3.42734 0
M  V30 5336 H 485.423 4.01883 3.37032 0
M  V30 5337 H 486.897 2.9225 4.68288 0
M  V30 5338 H 487.374 1.29767 4.19592 0
M  V30 5339 H 487.98 2.70043 3.28568 0
M  V30 5340 N 486.295 -0.989507 1.22664 0
M  V30 5341 C 487.205 -2.11449 1.01619 0
M  V30 5342 C 488.221 -1.73962 -0.036545 0
M  V30 5343 O 489.397 -2.00788 0.156924 0
M  V30 5344 C 486.462 -3.41465 0.600204 0
M  V30 5345 C 485.523 -3.93033 1.72695 0
M  V30 5346 C 484.756 -5.16844 1.33071 0
M  V30 5347 O 484.979 -5.7001 0.210975 0
M  V30 5348 O 483.913 -5.6225 2.14845 0
M  V30 5349 H 487.739 -2.32088 1.9588 0
M  V30 5350 H 485.324 -1.09823 1.01289 0
M  V30 5351 H 487.206 -4.19695 0.37873 0
M  V30 5352 H 485.881 -3.22178 -0.313511 0
M  V30 5353 H 484.788 -3.15961 2.00298 0
M  V30 5354 H 486.121 -4.16758 2.61865 0
M  V30 5355 N 487.773 -1.03688 -1.18687 0
M  V30 5356 C 488.703 -0.645407 -2.24403 0
M  V30 5357 C 489.684 0.349511 -1.66471 0
M  V30 5358 O 490.869 0.230453 -1.92828 0
M  V30 5359 C 487.999 -0.00365337 -3.473 0
M  V30 5360 C 486.953 -0.921705 -4.17958 0
M  V30 5361 C 486.279 -0.144629 -5.34504 0
M  V30 5362 C 487.579 -2.23909 -4.71871 0
M  V30 5363 H 489.273 -1.52917 -2.57404 0
M  V30 5364 H 486.819 -0.736711 -1.23728 0
M  V30 5365 H 488.772 0.281908 -4.20456 0
M  V30 5366 H 487.496 0.914963 -3.13522 0
M  V30 5367 H 486.155 -1.19159 -3.46694 0
M  V30 5368 H 485.803 0.776274 -4.96974 0
M  V30 5369 H 485.503 -0.756206 -5.82714 0
M  V30 5370 H 487.027 0.134004 -6.10453 0
M  V30 5371 H 488.441 -2.0145 -5.36741 0
M  V30 5372 H 486.838 -2.8033 -5.30599 0
M  V30 5373 H 487.908 -2.88822 -3.895 0
M  V30 5374 N 489.251 1.34841 -0.815825 0
M  V30 5375 C 490.184 2.27504 -0.178062 0
M  V30 5376 C 491.162 1.48542 0.661373 0
M  V30 5377 O 492.346 1.77779 0.626653 0
M  V30 5378 C 489.473 3.30246 0.752002 0
M  V30 5379 C 488.519 4.26499 -0.00899172 0
M  V30 5380 S 489.352 5.18169 -1.35134 0
M  V30 5381 C 490.508 6.24449 -0.42596 0
M  V30 5382 H 490.741 2.81248 -0.963684 0
M  V30 5383 H 488.274 1.41781 -0.611355 0
M  V30 5384 H 490.232 3.89933 1.28308 0
M  V30 5385 H 488.893 2.75363 1.51109 0
M  V30 5386 H 488.086 4.99146 0.697766 0
M  V30 5387 H 487.688 3.7103 -0.470396 0
M  V30 5388 H 489.98 6.76404 0.385234 0
M  V30 5389 H 490.923 6.99156 -1.1219 0
M  V30 5390 H 491.331 5.64497 -0.0175461 0
M  V30 5391 N 490.729 0.570148 1.46925 0
M  V30 5392 C 491.975 0.0510284 2.02736 0
M  V30 5393 C 492.308 -1.3006 1.44215 0
M  V30 5394 O 491.583 -1.84932 0.602521 0
M  V30 5395 C 491.866 -0.028215 3.60089 0
M  V30 5396 C 491.719 1.35142 4.29018 0
M  V30 5397 C 493.038 -0.735181 4.33916 0
M  V30 5398 H 490.157 0.0200178 0.736728 0
M  V30 5399 H 492.799 0.73493 1.75211 0
M  V30 5400 H 490.949 -0.610648 3.83671 0
M  V30 5401 H 492.621 1.97806 4.16738 0
M  V30 5402 H 490.864 1.9226 3.88868 0
M  V30 5403 H 491.535 1.24857 5.37694 0
M  V30 5404 H 494.011 -0.240519 4.15404 0
M  V30 5405 H 492.887 -0.759622 5.43618 0
M  V30 5406 H 493.148 -1.79397 4.04066 0
M  V30 5407 N 492.207 -1.54576 0.307264 0
M  V30 5408 C 493.432 -2.05139 -0.305379 0
M  V30 5409 C 493.857 -1.18278 -1.46259 0
M  V30 5410 O 493.215 -0.188243 -1.8032 0
M  V30 5411 C 493.263 -3.53066 -0.733283 0
M  V30 5412 O 492.367 -3.69206 -1.83741 0
M  V30 5413 H 491.708 -0.661444 -0.0582105 0
M  V30 5414 H 494.238 -1.99569 0.450931 0
M  V30 5415 H 494.248 -3.95034 -1.02039 0
M  V30 5416 H 492.923 -4.15746 0.113198 0
M  V30 5417 H 491.5 -3.39143 -1.55037 0
M  V30 5418 N 493.685 -0.035106 -1.57561 0
M  V30 5419 C 494.618 0.979673 -2.06101 0
M  V30 5420 C 495.596 1.31378 -0.958046 0
M  V30 5421 O 496.78 1.42942 -1.22881 0
M  V30 5422 C 493.907 2.29809 -2.48808 0
M  V30 5423 C 492.953 2.11817 -3.70184 0
M  V30 5424 S 493.786 1.41143 -5.16565 0
M  V30 5425 C 494.942 2.74341 -5.62572 0
M  V30 5426 H 495.175 0.566506 -2.91853 0
M  V30 5427 H 492.708 0.176744 -1.53385 0
M  V30 5428 H 494.666 3.056 -2.74078 0
M  V30 5429 H 493.327 2.68257 -1.63392 0
M  V30 5430 H 492.52 3.09299 -3.97933 0
M  V30 5431 H 492.122 1.44168 -3.45097 0
M  V30 5432 H 494.414 3.70562 -5.67177 0
M  V30 5433 H 495.357 2.51249 -6.62027 0
M  V30 5434 H 495.765 2.79863 -4.90242 0
M  V30 5435 N 495.163 1.55791 0.238111 0
M  V30 5436 C 496.411 1.77681 0.963001 0
M  V30 5437 C 496.732 0.600674 1.85518 0
M  V30 5438 O 496.002 -0.383182 1.92116 0
M  V30 5439 H 494.582 0.655315 0.358568 0
M  V30 5440 H 497.244 1.93239 0.253945 0
M  V30 5441 H 496.34 2.69177 1.57956 0
M  V30 5442 N 496.642 -0.504142 1.49319 0
M  V30 5443 C 497.872 -1.28071 1.62116 0
M  V30 5444 C 498.28 -1.86955 0.290566 0
M  V30 5445 O 497.623 -1.68415 -0.733616 0
M  V30 5446 C 497.685 -2.4521 2.62893 0
M  V30 5447 C 497.349 -2.07218 4.0732 0
M  V30 5448 C 498.346 -1.61375 4.94221 0
M  V30 5449 C 496.031 -2.16949 4.53033 0
M  V30 5450 C 498.025 -1.25763 6.2487 0
M  V30 5451 C 495.712 -1.80949 5.83696 0
M  V30 5452 C 496.71 -1.3543 6.69438 0
M  V30 5453 O 496.398 -0.99915 7.97667 0
M  V30 5454 H 496.13 -0.394763 0.54876 0
M  V30 5455 H 498.684 -0.612118 1.96067 0
M  V30 5456 H 496.914 -3.15134 2.24115 0
M  V30 5457 H 498.603 -3.0724 2.65252 0
M  V30 5458 H 499.369 -1.53306 4.60133 0
M  V30 5459 H 495.248 -2.5133 3.86463 0
M  V30 5460 H 498.792 -0.901631 6.91749 0
M  V30 5461 H 494.689 -1.88667 6.17313 0
M  V30 5462 H 495.457 -1.13089 8.1065 0
M  V30 5463 N 498.12 -1.38341 -0.754957 0
M  V30 5464 C 499.348 -1.37704 -1.54419 0
M  V30 5465 C 499.763 0.0335243 -1.8877 0
M  V30 5466 O 499.12 0.999773 -1.52679 0
M  V30 5467 C 499.171 -2.23136 -2.84416 0
M  V30 5468 O 498.892 -3.58697 -2.51531 0
M  V30 5469 C 500.393 -2.30664 -3.78562 0
M  V30 5470 H 497.613 -0.471061 -0.477852 0
M  V30 5471 H 500.157 -1.81902 -0.934446 0
M  V30 5472 H 498.312 -1.82403 -3.41772 0
M  V30 5473 H 498.726 -4.03665 -3.34896 0
M  V30 5474 H 500.2 -2.9473 -4.66732 0
M  V30 5475 H 500.677 -1.3199 -4.18898 0
M  V30 5476 H 501.283 -2.71781 -3.27131 0
M  V30 5477 N 499.598 0.982988 -1.23187 0
M  V30 5478 C 501.014 1.2487 -0.993967 0
M  V30 5479 C 501.214 1.99155 0.306498 0
M  V30 5480 O 500.27 2.30688 1.0266 0
M  V30 5481 C 501.583 2.05078 -2.19917 0
M  V30 5482 C 503.131 2.18227 -2.2438 0
M  V30 5483 C 503.606 3.01825 -3.44479 0
M  V30 5484 N 505.097 3.09411 -3.44702 0
M  V30 5485 C 505.832 3.74412 -4.34285 0
M  V30 5486 N 505.328 4.41259 -5.341 0
M  V30 5487 N 507.121 3.71273 -4.22035 0
M  V30 5488 H 499.272 0.485253 -2.06783 0
M  V30 5489 H 501.535 0.276979 -0.906635 0
M  V30 5490 H 501.241 1.57867 -3.14279 0
M  V30 5491 H 501.115 3.05829 -2.2079 0
M  V30 5492 H 503.502 2.64648 -1.30559 0
M  V30 5493 H 503.583 1.16873 -2.2754 0
M  V30 5494 H 503.227 2.56102 -4.38605 0
M  V30 5495 H 503.157 4.03342 -3.38559 0
M  V30 5496 H 505.648 2.61845 -2.7248 0
M  V30 5497 H 505.961 4.88629 -5.98717 0
M  V30 5498 H 504.306 4.39975 -5.38002 0
M  V30 5499 H 507.497 3.18217 -3.43301 0
M  V30 5500 H 507.67 4.21649 -4.92053 0
M  V30 5501 N 501.076 1.04316 1.18135 0
M  V30 5502 C 501.986 0.646876 2.25505 0
M  V30 5503 C 503.002 -0.328008 1.7088 0
M  V30 5504 O 504.178 -0.182309 2.00573 0
M  V30 5505 C 501.243 0.0185664 3.46695 0
M  V30 5506 C 500.304 1.04277 4.16443 0
M  V30 5507 C 499.537 0.444352 5.31847 0
M  V30 5508 O 499.76 -0.748735 5.65465 0
M  V30 5509 O 498.694 1.17428 5.90334 0
M  V30 5510 H 502.52 1.54147 2.61672 0
M  V30 5511 H 500.105 0.814188 1.25265 0
M  V30 5512 H 501.987 -0.331068 4.20097 0
M  V30 5513 H 500.662 -0.849814 3.12346 0
M  V30 5514 H 499.569 1.44425 3.45098 0
M  V30 5515 H 500.902 1.882 4.54798 0
M  V30 5516 N 502.554 -1.34406 0.822964 0
M  V30 5517 C 503.464 -2.33298 0.246838 0
M  V30 5518 C 504.48 -1.62625 -0.618797 0
M  V30 5519 O 505.656 -1.94391 -0.526685 0
M  V30 5520 C 502.721 -3.41785 -0.581731 0
M  V30 5521 C 501.782 -4.28206 0.306309 0
M  V30 5522 C 501.015 -5.31512 -0.48281 0
M  V30 5523 O 501.238 -5.43973 -1.71607 0
M  V30 5524 O 500.172 -6.01749 0.134884 0
M  V30 5525 H 503.998 -2.84401 1.06534 0
M  V30 5526 H 501.583 -1.37466 0.585108 0
M  V30 5527 H 503.465 -4.08028 -1.05313 0
M  V30 5528 H 502.14 -2.92925 -1.37756 0
M  V30 5529 H 501.047 -3.64885 0.825199 0
M  V30 5530 H 502.38 -4.80507 1.06649 0
M  V30 5531 N 504.032 -0.577932 -1.46621 0
M  V30 5532 C 505.281 -0.0594281 -2.01612 0
M  V30 5533 C 505.594 1.30663 -1.45556 0
M  V30 5534 O 506.8 1.91621 -1.92337 0
M  V30 5535 C 505.256 -0.0556666 -3.59857 0
M  V30 5536 C 504.864 -1.41975 -4.24908 0
M  V30 5537 C 506.608 0.409143 -4.22524 0
M  V30 5538 C 504.515 -1.37397 -5.75218 0
M  V30 5539 H 503.445 -0.0184469 -0.753774 0
M  V30 5540 H 506.096 -0.728869 -1.68404 0
M  V30 5541 H 504.478 0.679843 -3.90121 0
M  V30 5542 H 505.652 -2.17461 -4.0626 0
M  V30 5543 H 503.967 -1.82419 -3.74316 0
M  V30 5544 H 506.564 0.46211 -5.32699 0
M  V30 5545 H 506.907 1.42565 -3.91128 0
M  V30 5546 H 507.44 -0.272152 -3.96868 0
M  V30 5547 H 504.179 -2.36714 -6.11267 0
M  V30 5548 H 503.699 -0.661239 -5.96144 0
M  V30 5549 H 505.378 -1.08484 -6.3784 0
M  V30 5550 N 505.51 1.54411 -0.315457 0
M  V30 5551 C 506.442 2.21527 0.588067 0
M  V30 5552 C 507.455 1.21263 1.08624 0
M  V30 5553 O 508.644 1.47777 1.00121 0
M  V30 5554 C 505.744 2.85963 1.81875 0
M  V30 5555 C 504.917 4.12291 1.46063 0
M  V30 5556 C 503.976 4.60396 2.54799 0
M  V30 5557 O 503.002 5.25265 2.19283 0
M  V30 5558 N 504.204 4.33935 3.85591 0
M  V30 5559 H 506.969 2.99697 0.013414 0
M  V30 5560 H 504.53 1.61308 -0.138295 0
M  V30 5561 H 506.522 3.15071 2.53993 0
M  V30 5562 H 505.092 2.11548 2.30144 0
M  V30 5563 H 504.312 3.90036 0.571445 0
M  V30 5564 H 505.6 4.9452 1.19695 0
M  V30 5565 H 504.998 3.81996 4.17248 0
M  V30 5566 H 503.555 4.67718 4.53964 0
M  V30 5567 N 506.988 0.0434614 1.5754 0
M  V30 5568 C 508.265 -0.671479 1.83713 0
M  V30 5569 C 508.645 -1.89495 0.930315 0
M  V30 5570 O 507.993 -2.28498 -0.0105639 0
M  V30 5571 C 508.203 -1.0361 3.33266 0
M  V30 5572 C 509.551 -1.42167 4.00092 0
M  V30 5573 O 510.575 -1.12866 3.37846 0
M  V30 5574 O 509.434 -1.96817 5.09829 0
M  V30 5575 H 506.528 -0.330726 0.75799 0
M  V30 5576 H 509.074 0.0722373 1.69546 0
M  V30 5577 H 507.846 -0.165938 3.90948 0
M  V30 5578 H 507.469 -1.83751 3.52592 0
M  V30 5579 N 508.466 -1.55915 -0.229846 0
M  V30 5580 C 509.691 -1.8296 -0.976743 0
M  V30 5581 C 510.116 -0.622735 -1.77493 0
M  V30 5582 O 509.474 0.428431 -1.76165 0
M  V30 5583 C 509.522 -3.07916 -1.8767 0
M  V30 5584 O 508.626 -2.86028 -2.97088 0
M  V30 5585 H 507.967 -0.603453 -0.277021 0
M  V30 5586 H 510.497 -2.0312 -0.245669 0
M  V30 5587 H 510.507 -3.37802 -2.2881 0
M  V30 5588 H 509.182 -3.95389 -1.28996 0
M  V30 5589 H 507.759 -2.67355 -2.59954 0
M  V30 5590 N 509.944 0.496216 -1.49584 0
M  V30 5591 C 510.874 1.60576 -1.69521 0
M  V30 5592 C 511.855 1.61169 -0.543933 0
M  V30 5593 O 513.04 1.77834 -0.78031 0
M  V30 5594 C 510.17 2.99038 -1.76616 0
M  V30 5595 C 509.124 3.13312 -2.91581 0
M  V30 5596 C 508.45 4.53172 -2.83794 0
M  V30 5597 C 509.75 2.92886 -4.32452 0
M  V30 5598 H 511.444 1.44146 -2.62416 0
M  V30 5599 H 508.99 0.692024 -1.26282 0
M  V30 5600 H 510.943 3.76564 -1.8915 0
M  V30 5601 H 509.667 3.16568 -0.80324 0
M  V30 5602 H 508.326 2.38213 -2.78658 0
M  V30 5603 H 507.974 4.67585 -1.854 0
M  V30 5604 H 507.674 4.63662 -3.60958 0
M  V30 5605 H 509.198 5.32752 -2.98342 0
M  V30 5606 H 510.612 3.60178 -4.46032 0
M  V30 5607 H 509.009 3.14844 -5.10875 0
M  V30 5608 H 510.079 1.88966 -4.46565 0
M  V30 5609 N 511.423 1.38739 0.74761 0
M  V30 5610 C 512.669 1.35475 1.50912 0
M  V30 5611 C 513.002 -0.0533093 1.94127 0
M  V30 5612 O 512.277 -1.01572 1.65871 0
M  V30 5613 C 512.56 2.31582 2.75757 0
M  V30 5614 C 512.413 3.81274 2.38642 0
M  V30 5615 C 513.732 2.25722 3.77806 0
M  V30 5616 H 510.851 0.493427 0.547447 0
M  V30 5617 H 513.493 1.69634 0.855823 0
M  V30 5618 H 511.643 2.02582 3.31501 0
M  V30 5619 H 513.315 4.20972 1.88626 0
M  V30 5620 H 511.558 3.98664 1.71025 0
M  V30 5621 H 512.229 4.4399 3.27989 0
M  V30 5622 H 514.705 2.51336 3.31616 0
M  V30 5623 H 513.581 2.95069 4.62845 0
M  V30 5624 H 513.842 1.25803 4.23823 0
M  V30 5625 N 512.901 -0.976442 1.23707 0
M  V30 5626 C 514.149 -1.71487 1.06942 0
M  V30 5627 C 514.47 -1.9098 -0.393897 0
M  V30 5628 O 513.74 -1.48128 -1.28198 0
M  V30 5629 H 512.32 -0.635425 0.392739 0
M  V30 5630 H 514.982 -1.17515 1.55487 0
M  V30 5631 H 514.078 -2.70286 1.56051 0
M  V30 5632 N 514.379 -1.04941 -1.1758 0
M  V30 5633 C 515.311 -0.606174 -2.21039 0
M  V30 5634 C 516.324 0.328763 -1.59446 0
M  V30 5635 O 517.513 0.121895 -1.78083 0
M  V30 5636 C 514.613 0.133294 -3.38638 0
M  V30 5637 C 513.786 -0.811711 -4.29802 0
M  V30 5638 C 512.845 -0.113958 -5.26077 0
M  V30 5639 O 511.871 -0.747237 -5.64274 0
M  V30 5640 N 513.073 1.14953 -5.69004 0
M  V30 5641 H 515.838 -1.49606 -2.59689 0
M  V30 5642 H 513.399 -0.930997 -1.32454 0
M  V30 5643 H 515.391 0.610144 -4.00074 0
M  V30 5644 H 513.961 0.924816 -2.98607 0
M  V30 5645 H 513.181 -1.46824 -3.65837 0
M  V30 5646 H 514.469 -1.45326 -4.87604 0
M  V30 5647 H 513.867 1.68441 -5.40041 0
M  V30 5648 H 512.424 1.57049 -6.32597 0
M  V30 5649 N 515.857 1.33968 -0.830081 0
M  V30 5650 C 517.273 1.51003 -0.516742 0
M  V30 5651 C 517.473 1.77286 0.957694 0
M  V30 5652 O 516.529 1.82797 1.74188 0
M  V30 5653 C 517.842 2.67036 -1.38247 0
M  V30 5654 C 519.39 2.80919 -1.38034 0
M  V30 5655 C 519.865 4.00004 -2.23071 0
M  V30 5656 N 521.356 4.07224 -2.20733 0
M  V30 5657 C 522.091 4.98541 -2.83275 0
M  V30 5658 N 521.587 5.95033 -3.54835 0
M  V30 5659 N 523.38 4.91469 -2.72791 0
M  V30 5660 H 515.531 1.15168 -1.78466 0
M  V30 5661 H 517.794 0.565443 -0.760906 0
M  V30 5662 H 517.5 2.54266 -2.42985 0
M  V30 5663 H 517.374 3.62226 -1.05225 0
M  V30 5664 H 519.761 2.93127 -0.340713 0
M  V30 5665 H 519.842 1.86517 -1.75057 0
M  V30 5666 H 519.486 3.88557 -3.27087 0
M  V30 5667 H 519.416 4.93634 -1.83394 0
M  V30 5668 H 521.907 3.38162 -1.68687 0
M  V30 5669 H 522.22 6.61357 -3.99784 0
M  V30 5670 H 520.565 5.95135 -3.58942 0
M  V30 5671 H 523.756 4.15048 -2.16456 0
M  V30 5672 H 523.929 5.62439 -3.21818 0
M  V30 5673 N 517.335 0.585699 1.46312 0
M  V30 5674 C 518.565 0.0780166 2.06453 0
M  V30 5675 C 518.973 -1.2336 1.43454 0
M  V30 5676 O 518.316 -1.75734 0.535086 0
M  V30 5677 C 518.378 -0.158951 3.59148 0
M  V30 5678 C 518.042 1.06752 4.44357 0
M  V30 5679 C 519.039 1.98031 4.80708 0
M  V30 5680 C 516.724 1.2902 4.85447 0
M  V30 5681 C 518.718 3.09924 5.5698 0
M  V30 5682 C 516.405 2.41218 5.61478 0
M  V30 5683 C 517.403 3.31499 5.97158 0
M  V30 5684 O 517.091 4.41747 6.71651 0
M  V30 5685 H 516.823 0.0558894 0.673686 0
M  V30 5686 H 519.377 0.806994 1.88883 0
M  V30 5687 H 517.607 -0.942575 3.75037 0
M  V30 5688 H 519.296 -0.615513 4.01206 0
M  V30 5689 H 520.062 1.82043 4.49539 0
M  V30 5690 H 515.941 0.596567 4.57124 0
M  V30 5691 H 519.485 3.80415 5.84748 0
M  V30 5692 H 515.382 2.57167 5.9206 0
M  V30 5693 H 516.15 4.40152 6.90079 0
M  V30 5694 N 518.813 -1.54241 0.323641 0
M  V30 5695 C 519.761 -2.25813 -0.557804 0
M  V30 5696 C 520.755 -1.27225 -1.11849 0
M  V30 5697 O 521.961 -1.45001 -1.06652 0
M  V30 5698 H 518.336 -0.72532 -0.198532 0
M  V30 5699 H 520.307 -2.98322 0.0681112 0
M  V30 5700 C 519.056 -3.02913 -1.70701 0
M  V30 5701 H 518.379 -3.78593 -1.28482 0
M  V30 5702 H 519.819 -3.56238 -2.29935 0
M  V30 5703 C 518.278 -2.11217 -2.62467 0
M  V30 5704 O 518.808 -1.69508 -3.64184 0
M  V30 5705 N 517.014 -1.76704 -2.30703 0
M  V30 5706 H 516.561 -2.1082 -1.48029 0
M  V30 5707 H 516.519 -1.15631 -2.92364 0
M  V30 5708 N 520.291 -0.0518155 -1.57515 0
M  V30 5709 C 521.201 0.937539 -2.15052 0
M  V30 5710 C 522.217 1.34121 -1.10849 0
M  V30 5711 O 523.393 1.418 -1.4302 0
M  V30 5712 C 520.458 2.19379 -2.68466 0
M  V30 5713 C 519.519 1.84841 -3.87469 0
M  V30 5714 C 518.752 3.04477 -4.38326 0
M  V30 5715 O 518.975 4.17868 -3.88256 0
M  V30 5716 O 517.909 2.85453 -5.29906 0
M  V30 5717 H 521.735 0.478201 -2.99912 0
M  V30 5718 H 519.32 0.17012 -1.48428 0
M  V30 5719 H 521.202 2.93084 -3.02787 0
M  V30 5720 H 519.877 2.64449 -1.86677 0
M  V30 5721 H 518.784 1.08449 -3.58036 0
M  V30 5722 H 520.117 1.44569 -4.7049 0
M  V30 5723 N 521.769 1.56035 0.221574 0
M  V30 5724 C 523.015 1.79312 0.947372 0
M  V30 5725 C 523.348 0.621453 1.83988 0
M  V30 5726 O 522.623 -0.379287 1.90766 0
M  V30 5727 C 522.906 3.1267 1.78633 0
M  V30 5728 C 522.759 4.40284 0.920312 0
M  V30 5729 C 524.078 3.4247 2.7641 0
M  V30 5730 H 521.197 0.652328 0.342982 0
M  V30 5731 H 523.839 1.88765 0.216244 0
M  V30 5732 H 521.989 3.04741 2.40967 0
M  V30 5733 H 523.661 4.60232 0.313718 0
M  V30 5734 H 521.904 4.33212 0.225734 0
M  V30 5735 H 522.575 5.30033 1.54171 0
M  V30 5736 H 525.051 3.50526 2.24211 0
M  V30 5737 H 523.927 4.3695 3.32213 0
M  V30 5738 H 524.188 2.64635 3.54148 0
M  V30 5739 N 523.247 -0.488276 1.49845 0
M  V30 5740 C 524.18 -1.60651 1.62069 0
M  V30 5741 C 525.158 -1.5568 0.469308 0
M  V30 5742 O 526.342 -1.75553 0.686551 0
M  V30 5743 C 523.469 -2.99197 1.58741 0
M  V30 5744 C 522.515 -3.22385 2.79232 0
M  V30 5745 S 523.348 -3.04133 4.40753 0
M  V30 5746 C 524.504 -4.45052 4.4009 0
M  V30 5747 H 524.737 -1.50039 2.56662 0
M  V30 5748 H 522.27 -0.674371 1.38894 0
M  V30 5749 H 524.228 -3.79081 1.57506 0
M  V30 5750 H 522.889 -3.07213 0.654136 0
M  V30 5751 H 522.082 -4.23557 2.73159 0
M  V30 5752 H 521.684 -2.50245 2.77945 0
M  V30 5753 H 523.976 -5.37375 4.12594 0
M  V30 5754 H 524.919 -4.56172 5.41583 0
M  V30 5755 H 525.327 -4.26327 3.70008 0
M  V30 5756 N 524.725 -1.39134 -0.740242 0
M  V30 5757 C 525.688 -1.37217 -1.83587 0
M  V30 5758 C 526.688 -0.270221 -1.58513 0
M  V30 5759 O 527.878 -0.527843 -1.6601 0
M  V30 5760 C 525.01 -1.13959 -3.21288 0
M  V30 5761 H 526.203 -2.34705 -1.86691 0
M  V30 5762 H 523.756 -1.24622 -0.94335 0
M  V30 5763 H 524.491 -0.17131 -3.23847 0
M  V30 5764 H 524.276 -1.93754 -3.40884 0
M  V30 5765 H 525.766 -1.15346 -4.01354 0
M  V30 5766 N 526.204 0.969867 -1.24223 0
M  V30 5767 C 527.432 1.74756 -1.10761 0
M  V30 5768 C 527.847 1.85713 0.340041 0
M  V30 5769 O 527.204 1.34389 1.23474 0
M  V30 5770 C 527.255 3.16915 -1.73917 0
M  V30 5771 O 526.976 3.06511 -3.13021 0
M  V30 5772 C 528.477 4.11032 -1.66036 0
M  V30 5773 H 525.697 0.548092 -0.387087 0
M  V30 5774 H 528.241 1.2178 -1.64286 0
M  V30 5775 H 526.396 3.66884 -1.244 0
M  V30 5776 H 526.81 3.96079 -3.43834 0
M  V30 5777 H 528.284 5.08446 -2.14911 0
M  V30 5778 H 528.761 4.34785 -0.621159 0
M  V30 5779 H 529.367 3.66972 -2.14969 0
M  V30 5780 N 527.682 1.05563 1.17022 0
M  V30 5781 C 528.912 0.787307 1.91011 0
M  V30 5782 C 529.32 -0.661256 1.77268 0
M  V30 5783 O 528.663 -1.46379 1.10991 0
M  V30 5784 C 528.725 1.09313 3.42478 0
M  V30 5785 C 528.389 2.53863 3.80004 0
M  V30 5786 C 529.386 3.52081 3.82538 0
M  V30 5787 C 527.071 2.88969 4.10855 0
M  V30 5788 C 529.065 4.83449 4.15399 0
M  V30 5789 C 526.752 4.2054 4.43384 0
M  V30 5790 C 527.75 5.17589 4.45635 0
M  V30 5791 O 527.438 6.46799 4.77395 0
M  V30 5792 H 527.17 0.285463 0.61277 0
M  V30 5793 H 529.724 1.41051 1.49311 0
M  V30 5794 H 527.954 0.412833 3.8449 0
M  V30 5795 H 529.643 0.810224 3.97731 0
M  V30 5796 H 530.409 3.26299 3.58823 0
M  V30 5797 H 526.288 2.1409 4.08272 0
M  V30 5798 H 529.832 5.59194 4.1707 0
M  V30 5799 H 525.729 4.46083 4.66563 0
M  V30 5800 H 526.497 6.51677 4.95237 0
M  V30 5801 N 529.16 -1.33526 0.837174 0
M  V30 5802 C 530.09 -2.31764 0.284206 0
M  V30 5803 C 531.071 -1.58896 -0.607142 0
M  V30 5804 O 532.256 -1.86798 -0.531047 0
M  V30 5805 C 529.386 -3.43029 -0.542962 0
M  V30 5806 C 528.34 -4.27255 0.252451 0
M  V30 5807 C 527.666 -5.3012 -0.69836 0
M  V30 5808 C 528.966 -5.01229 1.46858 0
M  V30 5809 H 530.66 -2.78262 1.10502 0
M  V30 5810 H 528.206 -1.3378 0.532812 0
M  V30 5811 H 530.159 -4.1078 -0.940096 0
M  V30 5812 H 528.883 -2.95216 -1.39697 0
M  V30 5813 H 527.542 -3.61127 0.631124 0
M  V30 5814 H 527.19 -4.78564 -1.54872 0
M  V30 5815 H 526.89 -5.87353 -0.170274 0
M  V30 5816 H 528.414 -6.00737 -1.09305 0
M  V30 5817 H 529.828 -5.61756 1.14469 0
M  V30 5818 H 528.225 -5.68104 1.93333 0
M  V30 5819 H 529.295 -4.301 2.23924 0
M  V30 5820 N 530.638 -0.59345 -1.46 0
M  V30 5821 C 531.568 0.121192 -2.33185 0
M  V30 5822 C 532.549 0.872977 -1.4599 0
M  V30 5823 O 533.734 0.846321 -1.74789 0
M  V30 5824 C 530.864 1.12844 -3.28456 0
M  V30 5825 C 529.818 0.4908 -4.25177 0
M  V30 5826 C 529.144 1.60529 -5.10034 0
M  V30 5827 C 530.444 -0.578949 -5.19081 0
M  V30 5828 H 532.138 -0.606767 -2.93187 0
M  V30 5829 H 529.684 -0.293242 -1.40983 0
M  V30 5830 H 531.637 1.63684 -3.88311 0
M  V30 5831 H 530.361 1.88681 -2.66584 0
M  V30 5832 H 529.02 0.00339328 -3.666 0
M  V30 5833 H 528.668 2.35359 -4.44539 0
M  V30 5834 H 528.368 1.18422 -5.75543 0
M  V30 5835 H 529.892 2.11623 -5.72755 0
M  V30 5836 H 531.306 -0.155199 -5.7309 0
M  V30 5837 H 529.703 -0.920947 -5.92991 0
M  V30 5838 H 530.773 -1.46109 -4.62364 0
M  V30 5839 N 532.116 1.54067 -0.331816 0
M  V30 5840 C 533.046 2.27569 0.522932 0
M  V30 5841 C 534.027 1.28679 1.11247 0
M  V30 5842 O 535.212 1.57504 1.13605 0
M  V30 5843 C 532.342 3.0397 1.67987 0
M  V30 5844 C 531.296 4.10267 1.21924 0
M  V30 5845 C 530.622 4.74555 2.46377 0
M  V30 5846 C 531.922 5.21268 0.32815 0
M  V30 5847 H 533.616 2.99264 -0.0901977 0
M  V30 5848 H 531.162 1.4393 -0.044821 0
M  V30 5849 H 533.115 3.54123 2.28418 0
M  V30 5850 H 531.839 2.29906 2.31971 0
M  V30 5851 H 530.498 3.61009 0.637809 0
M  V30 5852 H 530.146 3.97098 3.08743 0
M  V30 5853 H 529.846 5.46363 2.16243 0
M  V30 5854 H 531.37 5.27487 3.07555 0
M  V30 5855 H 532.784 5.67128 0.838978 0
M  V30 5856 H 531.181 5.99982 0.119228 0
M  V30 5857 H 532.251 4.80673 -0.638839 0
M  V30 5858 N 533.594 0.0601682 1.57485 0
M  V30 5859 C 534.842 -0.610386 1.92662 0
M  V30 5860 C 535.163 -1.70849 0.939981 0
M  V30 5861 O 534.433 -1.95895 -0.0137455 0
M  V30 5862 H 533.013 -0.228457 0.711208 0
M  V30 5863 H 535.675 0.115288 1.94559 0
M  V30 5864 H 534.771 -1.0432 2.94149 0
M  V30 5865 N 535.072 -1.5615 -0.213296 0
M  V30 5866 C 536.302 -1.83372 -0.951757 0
M  V30 5867 C 536.71 -0.638158 -1.78113 0
M  V30 5868 O 536.053 0.402609 -1.79234 0
M  V30 5869 C 536.115 -3.04444 -1.91192 0
M  V30 5870 C 535.779 -4.39107 -1.26627 0
M  V30 5871 C 536.776 -5.15794 -0.652087 0
M  V30 5872 C 534.461 -4.85834 -1.27556 0
M  V30 5873 C 536.455 -6.37376 -0.055814 0
M  V30 5874 C 534.142 -6.07356 -0.675451 0
M  V30 5875 C 535.14 -6.82967 -0.0666367 0
M  V30 5876 O 534.828 -8.0219 0.524119 0
M  V30 5877 H 534.56 -0.613398 -0.284111 0
M  V30 5878 H 537.114 -2.04096 -0.231112 0
M  V30 5879 H 535.344 -2.79559 -2.67178 0
M  V30 5880 H 537.033 -3.18466 -2.51662 0
M  V30 5881 H 537.799 -4.80796 -0.637172 0
M  V30 5882 H 533.678 -4.26949 -1.73883 0
M  V30 5883 H 537.222 -6.96334 0.420004 0
M  V30 5884 H 533.119 -6.41825 -0.687806 0
M  V30 5885 H 533.887 -8.17426 0.419243 0
M  V30 5886 N 536.55 0.480323 -1.50102 0
M  V30 5887 C 537.497 1.57946 -1.6829 0
M  V30 5888 C 538.467 1.57611 -0.524223 0
M  V30 5889 O 539.652 1.75282 -0.753709 0
M  V30 5890 C 536.792 2.95978 -1.77457 0
M  V30 5891 C 535.905 3.06173 -3.04766 0
M  V30 5892 C 535.04 4.35063 -3.04784 0
M  V30 5893 C 534.079 4.38966 -4.26586 0
M  V30 5894 N 533.216 5.59314 -4.24396 0
M  V30 5895 H 538.056 1.41743 -2.62131 0
M  V30 5896 H 535.593 0.689304 -1.2995 0
M  V30 5897 H 537.551 3.76011 -1.80752 0
M  V30 5898 H 536.181 3.10837 -0.870637 0
M  V30 5899 H 535.233 2.19071 -3.10986 0
M  V30 5900 H 536.545 3.04916 -3.9475 0
M  V30 5901 H 535.699 5.23436 -3.06757 0
M  V30 5902 H 534.438 4.38915 -2.12614 0
M  V30 5903 H 533.443 3.48992 -4.24835 0
M  V30 5904 H 534.668 4.36813 -5.19972 0
M  V30 5905 H 532.614 5.63969 -3.35074 0
M  V30 5906 H 532.531 5.5976 -5.08138 0
M  V30 5907 H 533.799 6.49837 -4.30502 0
M  V30 5908 N 538.028 1.39524 0.732853 0
M  V30 5909 C 539.253 1.40329 1.52717 0
M  V30 5910 C 539.678 0.000286574 1.881 0
M  V30 5911 O 539.036 -0.987262 1.52062 0
M  V30 5912 C 539.084 2.28464 2.78992 0
M  V30 5913 O 538.188 1.716 3.75003 0
M  V30 5914 H 537.529 0.47778 0.461109 0
M  V30 5915 H 540.059 1.83546 0.903996 0
M  V30 5916 H 540.069 2.43051 3.27705 0
M  V30 5917 H 538.744 3.30425 2.52572 0
M  V30 5918 H 537.321 1.66267 3.33781 0
M  V30 5919 N 539.506 -0.963266 1.24736 0
M  V30 5920 C 540.731 -1.74699 1.11781 0
M  V30 5921 C 541.156 -1.85267 -0.325258 0
M  V30 5922 O 540.514 -1.32681 -1.23553 0
M  V30 5923 C 540.562 -3.14322 1.76731 0
M  V30 5924 O 539.666 -3.99043 1.04109 0
M  V30 5925 H 539.007 -0.53684 0.390767 0
M  V30 5926 H 541.537 -1.20801 1.65131 0
M  V30 5927 H 541.547 -3.64824 1.82668 0
M  V30 5928 H 540.222 -3.05946 2.81726 0
M  V30 5929 H 538.799 -3.5752 1.05991 0
M  V30 5930 N 540.985 -1.06182 -1.16461 0
M  V30 5931 C 541.895 -0.682671 -2.24448 0
M  V30 5932 C 542.911 0.30078 -1.71381 0
M  V30 5933 O 544.087 0.150376 -2.00838 0
M  V30 5934 C 541.152 -0.0737202 -3.46622 0
M  V30 5935 C 540.213 -1.10889 -4.14731 0
M  V30 5936 C 539.446 -0.528908 -5.31073 0
M  V30 5937 O 539.669 0.65868 -5.66584 0
M  V30 5938 O 538.603 -1.26805 -5.88391 0
M  V30 5939 H 542.429 -1.58291 -2.59187 0
M  V30 5940 H 540.014 -0.834013 -1.23954 0
M  V30 5941 H 541.896 0.264192 -4.20571 0
M  V30 5942 H 540.571 0.800015 -3.13658 0
M  V30 5943 H 539.478 -1.49896 -3.42756 0
M  V30 5944 H 540.811 -1.95412 -4.51747 0
M  V30 5945 N 542.463 1.3308 -0.844243 0
M  V30 5946 C 543.393 2.3161 -0.296493 0
M  V30 5947 C 544.374 1.59215 0.598707 0
M  V30 5948 O 545.559 1.87077 0.521134 0
M  V30 5949 C 542.689 3.43313 0.524762 0
M  V30 5950 C 541.643 4.27115 -0.275106 0
M  V30 5951 C 540.969 5.30483 0.670236 0
M  V30 5952 C 542.269 5.00443 -1.49514 0
M  V30 5953 H 543.963 2.77672 -1.11976 0
M  V30 5954 H 541.509 1.33496 -0.539899 0
M  V30 5955 H 543.462 4.11273 0.918298 0
M  V30 5956 H 542.186 2.95952 1.3813 0
M  V30 5957 H 540.845 3.60787 -0.650267 0
M  V30 5958 H 540.493 4.79379 1.52332 0
M  V30 5959 H 540.193 5.87435 0.139123 0
M  V30 5960 H 541.717 6.01308 1.06117 0
M  V30 5961 H 543.131 5.61141 -1.17447 0
M  V30 5962 H 541.528 5.67071 -1.96343 0
M  V30 5963 H 542.598 4.28906 -2.26202 0
M  V30 5964 N 543.941 0.601185 1.45683 0
M  V30 5965 C 544.851 -0.123395 2.34275 0
M  V30 5966 C 545.867 -0.86702 1.5086 0
M  V30 5967 O 547.043 -0.826049 1.8368 0
M  V30 5968 C 544.108 -1.11237 3.2837 0
M  V30 5969 C 543.169 -0.371405 4.2769 0
M  V30 5970 C 542.402 -1.31327 5.1729 0
M  V30 5971 O 542.625 -2.55078 5.10188 0
M  V30 5972 O 541.559 -0.813811 5.96373 0
M  V30 5973 H 545.385 0.604483 2.97623 0
M  V30 5974 H 542.97 0.361477 1.44961 0
M  V30 5975 H 544.852 -1.68214 3.8637 0
M  V30 5976 H 543.527 -1.82139 2.67595 0
M  V30 5977 H 542.434 0.24067 3.73325 0
M  V30 5978 H 543.767 0.296998 4.91303 0
M  V30 5979 N 545.419 -1.53889 0.339982 0
M  V30 5980 C 546.667 -2.00458 -0.257112 0
M  V30 5981 C 546.988 -1.22953 -1.51353 0
M  V30 5982 O 546.258 -0.335734 -1.93002 0
M  V30 5983 H 544.838 -0.740544 -0.0979965 0
M  V30 5984 H 547.5 -1.89386 0.460317 0
M  V30 5985 H 546.596 -3.08035 -0.502057 0
M  V30 5986 N 546.897 -0.0685191 -1.57451 0
M  V30 5987 C 548.174 0.642167 -1.84758 0
M  V30 5988 C 548.554 1.87991 -0.960344 0
M  V30 5989 O 547.902 2.28485 -0.0257894 0
M  V30 5990 C 548.112 0.982946 -3.34872 0
M  V30 5991 C 549.46 1.35784 -4.02303 0
M  V30 5992 O 550.484 1.07477 -3.39598 0
M  V30 5993 O 549.343 1.88681 -5.12895 0
M  V30 5994 H 546.437 0.318625 -0.763156 0
M  V30 5995 H 548.983 -0.0992015 -1.6941 0
M  V30 5996 H 547.755 0.10372 -3.91163 0
M  V30 5997 H 547.378 1.78119 -3.55471 0
M  V30 5998 N 548.375 1.56261 0.205012 0
M  V30 5999 C 549.603 1.84141 0.943386 0
M  V30 6000 C 550.018 0.649772 1.77266 0
M  V30 6001 O 549.375 -0.381612 1.78466 0
M  V30 6002 C 549.426 3.10719 1.84759 0
M  V30 6003 O 549.147 4.25286 1.05181 0
M  V30 6004 C 550.648 3.51706 2.69848 0
M  V30 6005 H 547.868 0.611734 0.275721 0
M  V30 6006 H 550.412 2.03364 0.215253 0
M  V30 6007 H 548.567 2.93422 2.52947 0
M  V30 6008 H 548.981 4.97301 1.66709 0
M  V30 6009 H 550.455 4.43266 3.28967 0
M  V30 6010 H 550.932 2.7423 3.43067 0
M  V30 6011 H 551.538 3.71499 2.07047 0
M  V30 6012 N 549.853 -0.472356 1.50355 0
M  V30 6013 C 551.102 -1.2213 1.60522 0
M  V30 6014 C 551.415 -1.9312 0.310466 0
M  V30 6015 O 552.621 -2.69936 0.291029 0
M  V30 6016 C 551.077 -2.21909 2.83345 0
M  V30 6017 C 550.685 -1.56727 4.19691 0
M  V30 6018 C 552.429 -2.97453 3.02856 0
M  V30 6019 C 550.336 -2.54785 5.33703 0
M  V30 6020 H 549.266 -0.459543 0.597776 0
M  V30 6021 H 551.917 -0.491922 1.76783 0
M  V30 6022 H 550.299 -2.98133 2.60639 0
M  V30 6023 H 551.473 -0.863007 4.52646 0
M  V30 6024 H 549.788 -0.934685 4.05774 0
M  V30 6025 H 552.385 -3.70838 3.85205 0
M  V30 6026 H 552.728 -3.56764 2.14534 0
M  V30 6027 H 553.261 -2.28342 3.25737 0
M  V30 6028 H 550 -2.00214 6.24175 0
M  V30 6029 H 549.52 -3.23367 5.05167 0
M  V30 6030 H 551.199 -3.16639 5.64224 0
M  V30 6031 N 551.331 -1.39911 -0.725443 0
M  V30 6032 C 552.559 -1.40949 -1.51463 0
M  V30 6033 C 552.974 -0.0065242 -1.88799 0
M  V30 6034 O 552.331 0.967163 -1.54765 0
M  V30 6035 C 552.382 -2.29119 -2.79619 0
M  V30 6036 O 552.103 -3.63952 -2.43866 0
M  V30 6037 C 553.604 -2.38642 -3.73584 0
M  V30 6038 H 550.824 -0.481091 -0.467752 0
M  V30 6039 H 553.368 -1.83843 -0.895651 0
M  V30 6040 H 551.523 -1.89612 -3.37826 0
M  V30 6041 H 551.937 -4.10677 -3.26258 0
M  V30 6042 H 553.411 -3.04563 -4.60375 0
M  V30 6043 H 553.888 -1.40846 -4.16004 0
M  V30 6044 H 554.494 -2.78659 -3.21293 0
M  V30 6045 N 552.809 0.956637 -1.25245 0
M  V30 6046 C 553.739 2.07058 -1.07931 0
M  V30 6047 C 554.72 1.70096 0.0110361 0
M  V30 6048 O 555.905 1.93555 -0.158121 0
M  V30 6049 C 553.035 3.40272 -0.695124 0
M  V30 6050 C 551.989 3.91235 -1.73549 0
M  V30 6051 C 551.315 5.20921 -1.20604 0
M  V30 6052 C 552.615 4.17837 -3.13385 0
M  V30 6053 H 554.309 2.218 -2.01109 0
M  V30 6054 H 551.855 1.06581 -0.968326 0
M  V30 6055 H 553.808 4.1765 -0.560949 0
M  V30 6056 H 552.532 3.25462 0.272355 0
M  V30 6057 H 551.191 3.16025 -1.85807 0
M  V30 6058 H 550.839 5.02479 -0.228846 0
M  V30 6059 H 550.539 5.55987 -1.90136 0
M  V30 6060 H 552.063 6.00897 -1.08421 0
M  V30 6061 H 553.477 4.8588 -3.04292 0
M  V30 6062 H 551.874 4.64154 -3.80369 0
M  V30 6063 H 552.944 3.2419 -3.60595 0
M  V30 6064 N 554.287 1.06798 1.15896 0
M  V30 6065 C 555.234 0.683314 2.20453 0
M  V30 6066 C 556.204 -0.32255 1.62938 0
M  V30 6067 O 557.389 -0.210276 1.89638 0
M  V30 6068 C 554.529 0.0813266 3.45004 0
M  V30 6069 C 553.642 1.13799 4.16742 0
M  V30 6070 C 552.777 0.501598 5.28826 0
M  V30 6071 C 551.816 1.54144 5.92373 0
M  V30 6072 N 550.953 0.928038 6.9594 0
M  V30 6073 H 555.793 1.57932 2.52708 0
M  V30 6074 H 553.33 0.789544 1.24115 0
M  V30 6075 H 555.288 -0.285274 4.16224 0
M  V30 6076 H 553.918 -0.77806 3.13283 0
M  V30 6077 H 552.97 1.62223 3.44075 0
M  V30 6078 H 554.282 1.92664 4.60089 0
M  V30 6079 H 553.436 0.0823162 6.06644 0
M  V30 6080 H 552.175 -0.318883 4.86656 0
M  V30 6081 H 551.18 1.97056 5.13273 0
M  V30 6082 H 552.405 2.3641 6.36621 0
M  V30 6083 H 550.351 0.12836 6.55874 0
M  V30 6084 H 550.268 1.65401 7.37685 0
M  V30 6085 H 551.536 0.534071 7.77668 0
M  V30 6086 N 555.766 -1.3263 0.851289 0
M  V30 6087 C 557.177 -1.79653 0.5081 0
M  V30 6088 C 557.528 -1.70327 -0.973815 0
M  V30 6089 O 556.653 -1.25986 -1.75944 0
M  V30 6090 C 557.248 -3.26196 0.915515 0
M  V30 6091 C 555.807 -3.71187 0.624277 0
M  V30 6092 C 554.954 -2.53804 1.11709 0
M  V30 6093 H 557.905 -1.19976 1.03882 0
M  V30 6094 H 557.926 -3.79801 0.230535 0
M  V30 6095 H 557.438 -3.32952 1.99411 0
M  V30 6096 H 555.539 -3.69948 -0.443737 0
M  V30 6097 H 555.652 -4.64132 1.18821 0
M  V30 6098 H 554.016 -2.48964 0.537484 0
M  V30 6099 H 554.799 -2.63315 2.20272 0
M  V30 6100 N 557.244 -0.608902 -1.45362 0
M  V30 6101 C 558.66 -0.272659 -1.57254 0
M  V30 6102 C 558.86 1.22477 -1.60005 0
M  V30 6103 O 557.916 2.00785 -1.53106 0
M  V30 6104 C 559.229 -0.944991 -2.85465 0
M  V30 6105 C 560.777 -0.921033 -2.99142 0
M  V30 6106 C 561.252 -1.5734 -4.30126 0
M  V30 6107 N 562.743 -1.53895 -4.36887 0
M  V30 6108 C 563.478 -2.01286 -5.36909 0
M  V30 6109 N 562.974 -2.56768 -6.43461 0
M  V30 6110 N 564.767 -1.92046 -5.28275 0
M  V30 6111 H 556.918 -1.58117 -1.4182 0
M  V30 6112 H 559.181 -0.662437 -0.678146 0
M  V30 6113 H 558.887 -1.99941 -2.89338 0
M  V30 6114 H 558.761 -0.469079 -3.74272 0
M  V30 6115 H 561.148 0.124846 -2.94836 0
M  V30 6116 H 561.229 -1.43522 -2.11743 0
M  V30 6117 H 560.873 -2.61862 -4.35191 0
M  V30 6118 H 560.803 -1.03422 -5.16344 0
M  V30 6119 H 563.294 -1.13366 -3.60495 0
M  V30 6120 H 563.607 -2.9072 -7.16032 0
M  V30 6121 H 561.952 -2.60808 -6.44208 0
M  V30 6122 H 565.143 -1.48439 -4.43941 0
M  V30 6123 H 565.316 -2.29293 -6.06077 0
M  V30 6124 N 558.722 1.53707 -0.348139 0
M  V30 6125 C 560.133 1.86213 0.134797 0
M  V30 6126 C 560.484 1.26925 1.49614 0
M  V30 6127 O 559.609 0.584573 2.08355 0
M  V30 6128 C 560.204 3.37866 0.251371 0
M  V30 6129 C 558.763 3.70233 0.678543 0
M  V30 6130 C 557.91 2.76683 -0.184925 0
M  V30 6131 H 560.861 1.48204 -0.567571 0
M  V30 6132 H 560.882 3.64908 1.07806 0
M  V30 6133 H 560.394 3.80988 -0.739581 0
M  V30 6134 H 558.495 3.32659 1.67835 0
M  V30 6135 H 558.608 4.76836 0.465251 0
M  V30 6136 H 556.972 2.52374 0.343465 0
M  V30 6137 H 557.755 3.22635 -1.1731 0
M  V30 6138 N 560.2 0.0768682 1.57412 0
M  V30 6139 C 561.425 -0.603404 1.98428 0
M  V30 6140 C 561.85 -1.62047 0.955108 0
M  V30 6141 O 561.208 -1.81129 -0.0786778 0
M  V30 6142 C 561.256 -1.24396 3.38464 0
M  V30 6143 O 560.36 -2.35982 3.3821 0
M  V30 6144 H 559.701 -0.154741 0.645718 0
M  V30 6145 H 562.231 0.152885 2.04028 0
M  V30 6146 H 562.241 -1.5896 3.7576 0
M  V30 6147 H 560.916 -0.498735 4.12899 0
M  V30 6148 H 559.493 -2.03173 3.1269 0
M  V30 6149 N 561.678 -1.56367 -0.196722 0
M  V30 6150 C 562.641 -1.93561 -1.22746 0
M  V30 6151 C 563.641 -0.816566 -1.38524 0
M  V30 6152 O 564.831 -1.084 -1.36363 0
M  V30 6153 C 561.963 -2.20823 -2.59712 0
M  V30 6154 H 563.156 -2.85774 -0.909586 0
M  V30 6155 H 560.709 -1.50032 -0.438174 0
M  V30 6156 H 561.444 -1.31243 -2.96557 0
M  V30 6157 H 561.229 -3.02368 -2.49632 0
M  V30 6158 H 562.719 -2.50608 -3.34044 0
M  V30 6159 N 563.156 0.464375 -1.50603 0
M  V30 6160 C 564.433 1.22549 -1.5245 0
M  V30 6161 C 564.813 2.09327 -0.273035 0
M  V30 6162 O 564.161 2.16074 0.743242 0
M  V30 6163 C 564.371 2.05074 -2.82393 0
M  V30 6164 C 565.719 2.63036 -3.33313 0
M  V30 6165 O 566.743 2.1531 -2.8376 0
M  V30 6166 O 565.602 3.5001 -4.19709 0
M  V30 6167 H 562.696 0.556471 -0.611775 0
M  V30 6168 H 565.242 0.475648 -1.62898 0
M  V30 6169 H 564.014 1.41169 -3.64948 0
M  V30 6170 H 563.637 2.87179 -2.7498 0
M  V30 6171 N 564.634 1.40294 0.718013 0
M  V30 6172 C 565.564 1.43118 1.84498 0
M  V30 6173 C 566.545 0.292403 1.67568 0
M  V30 6174 O 567.73 0.500675 1.87635 0
M  V30 6175 C 564.86 1.29065 3.22427 0
M  V30 6176 C 563.814 2.40521 3.54025 0
M  V30 6177 C 563.14 2.11546 4.91073 0
M  V30 6178 C 564.44 3.82859 3.55269 0
M  V30 6179 H 566.134 2.37432 1.82391 0
M  V30 6180 H 563.68 1.14283 0.87609 0
M  V30 6181 H 565.633 1.29658 4.00957 0
M  V30 6182 H 564.357 0.312271 3.25104 0
M  V30 6183 H 563.016 2.39173 2.77834 0
M  V30 6184 H 562.664 1.12104 4.90348 0
M  V30 6185 H 562.364 2.86216 5.1318 0
M  V30 6186 H 563.888 2.13817 5.71939 0
M  V30 6187 H 565.302 3.86044 4.23843 0
M  V30 6188 H 563.699 4.57029 3.88902 0
M  V30 6189 H 564.769 4.12617 2.54706 0
M  V30 6190 N 566.112 -0.949982 1.2575 0
M  V30 6191 C 567.34 -1.72972 1.13527 0
M  V30 6192 C 567.755 -1.8623 -0.310453 0
M  V30 6193 O 567.112 -1.36336 -1.2132 0
M  V30 6194 C 567.163 -3.14108 1.78936 0
M  V30 6195 O 566.884 -3.01493 3.17858 0
M  V30 6196 C 568.385 -4.08338 1.72554 0
M  V30 6197 H 565.605 -0.541864 0.395758 0
M  V30 6198 H 568.149 -1.19151 1.66202 0
M  V30 6199 H 566.304 -3.64858 1.30221 0
M  V30 6200 H 566.718 -3.90559 3.50092 0
M  V30 6201 H 568.192 -5.04963 2.22973 0
M  V30 6202 H 568.669 -4.33742 0.690251 0
M  V30 6203 H 569.275 -3.63506 2.2078 0
M  V30 6204 N 567.59 -1.07411 -1.15328 0
M  V30 6205 C 568.538 -0.689316 -2.22151 0
M  V30 6206 C 569.532 0.300156 -1.6672 0
M  V30 6207 O 570.738 0.163804 -1.79253 0
M  V30 6208 H 567.113 -0.204834 -0.723566 0
M  V30 6209 H 569.084 -1.59988 -2.51886 0
M  V30 6210 C 567.833 -0.103848 -3.47545 0
M  V30 6211 H 567.156 -0.856367 -3.90521 0
M  V30 6212 H 568.596 0.127725 -4.23808 0
M  V30 6213 C 567.055 1.15563 -3.1646 0
M  V30 6214 O 567.585 2.242 -3.33312 0
M  V30 6215 N 565.791 1.06203 -2.70498 0
M  V30 6216 H 565.338 0.177933 -2.56985 0
M  V30 6217 H 565.296 1.90553 -2.50074 0
M  V30 6218 N 569.068 1.32177 -0.85831 0
M  V30 6219 C 570.293 2.01847 -0.476718 0
M  V30 6220 C 570.718 1.64065 0.920021 0
M  V30 6221 O 570.076 0.843189 1.60499 0
M  V30 6222 C 570.124 3.55097 -0.627578 0
M  V30 6223 O 569.228 4.11012 0.338086 0
M  V30 6224 H 568.569 0.635907 -0.191099 0
M  V30 6225 H 571.099 1.68641 -1.15851 0
M  V30 6226 H 571.109 4.04718 -0.516476 0
M  V30 6227 H 569.784 3.81938 -1.64609 0
M  V30 6228 H 568.361 3.72451 0.182917 0
M  V30 6229 N 570.547 0.616602 1.45037 0
M  V30 6230 C 571.772 0.120192 2.07051 0
M  V30 6231 C 572.197 -1.19008 1.45666 0
M  V30 6232 O 571.555 -1.7267 0.552692 0
M  V30 6233 C 571.603 0.00354901 3.606 0
M  V30 6234 O 570.707 -1.04431 3.98958 0
M  V30 6235 H 570.048 0.0781599 0.659384 0
M  V30 6236 H 572.578 0.849167 1.86146 0
M  V30 6237 H 572.588 -0.191754 4.07549 0
M  V30 6238 H 571.263 0.960239 4.04663 0
M  V30 6239 H 569.84 -0.824749 3.63665 0
M  V30 6240 N 572.025 -1.5352 0.356285 0
M  V30 6241 C 572.988 -2.24071 -0.482182 0
M  V30 6242 C 573.988 -1.24531 -1.01729 0
M  V30 6243 O 575.178 -1.48876 -0.904513 0
M  V30 6244 C 572.31 -2.97025 -1.67299 0
M  V30 6245 H 573.503 -2.99596 0.135031 0
M  V30 6246 H 571.056 -1.55928 0.107825 0
M  V30 6247 H 571.791 -2.25719 -2.32855 0
M  V30 6248 H 571.576 -3.7005 -1.29636 0
M  V30 6249 H 573.066 -3.50683 -2.26741 0
M  V30 6250 N 573.503 -0.0852151 -1.57369 0
M  V30 6251 C 574.914 0.445428 -1.81309 0
M  V30 6252 C 575.265 1.68795 -1.00013 0
M  V30 6253 O 574.39 2.15211 -0.226573 0
M  V30 6254 C 574.985 0.814887 -3.28854 0
M  V30 6255 C 573.544 1.29032 -3.53592 0
M  V30 6256 C 572.691 0.282089 -2.75861 0
M  V30 6257 H 575.642 -0.310771 -1.55627 0
M  V30 6258 H 575.663 1.67524 -3.41637 0
M  V30 6259 H 575.175 -0.0896309 -3.87996 0
M  V30 6260 H 573.276 2.21289 -2.9977 0
M  V30 6261 H 573.389 1.25898 -4.62262 0
M  V30 6262 H 571.753 0.762182 -2.43029 0
M  V30 6263 H 572.536 -0.614936 -3.37748 0
M  V30 6264 N 574.981 1.5647 0.188427 0
M  V30 6265 C 576.206 1.85486 0.927891 0
M  V30 6266 C 576.631 0.669575 1.75779 0
M  V30 6267 O 575.989 -0.381573 1.77239 0
M  V30 6268 C 576.037 3.12784 1.7944 0
M  V30 6269 O 575.141 2.93805 2.894 0
M  V30 6270 H 574.482 0.610585 0.260925 0
M  V30 6271 H 577.012 2.037 0.191729 0
M  V30 6272 H 577.022 3.43749 2.19774 0
M  V30 6273 H 575.697 3.98671 1.18468 0
M  V30 6274 H 574.274 2.74153 2.52774 0
M  V30 6275 N 576.459 -0.456382 1.50847 0
M  V30 6276 C 577.87 -1.03685 1.55262 0
M  V30 6277 C 578.221 -1.92779 0.364771 0
M  V30 6278 O 577.346 -2.10043 -0.52068 0
M  V30 6279 C 577.941 -1.88718 2.81374 0
M  V30 6280 C 576.5 -2.41847 2.88422 0
M  V30 6281 C 575.647 -1.20564 2.49719 0
M  V30 6282 H 578.598 -0.238399 1.56899 0
M  V30 6283 H 578.619 -2.73957 2.6406 0
M  V30 6284 H 578.131 -1.23847 3.67809 0
M  V30 6285 H 576.232 -3.10228 2.06372 0
M  V30 6286 H 576.345 -2.75947 3.9165 0
M  V30 6287 H 574.709 -1.54504 2.02486 0
M  V30 6288 H 575.492 -0.573326 3.38479 0
M  V30 6289 N 577.937 -1.40673 -0.710563 0
M  V30 6290 C 579.162 -1.42741 -1.50465 0
M  V30 6291 C 579.587 -0.0302116 -1.88076 0
M  V30 6292 O 578.945 0.962945 -1.53613 0
M  V30 6293 C 578.993 -2.32873 -2.75322 0
M  V30 6294 O 578.097 -1.77544 -3.72226 0
M  V30 6295 H 577.438 -0.485056 -0.45345 0
M  V30 6296 H 579.968 -1.84961 -0.874681 0
M  V30 6297 H 579.978 -2.48233 -3.23797 0
M  V30 6298 H 578.653 -3.34401 -2.47283 0
M  V30 6299 H 577.23 -1.71556 -3.31093 0
M  V30 6300 N 579.415 0.9433 -1.26252 0
M  V30 6301 C 580.365 2.02746 -1.04297 0
M  V30 6302 C 581.349 1.60882 0.0239435 0
M  V30 6303 O 582.541 1.75947 -0.192757 0
M  V30 6304 C 579.67 3.36585 -0.6757 0
M  V30 6305 C 578.756 3.84939 -1.77996 0
M  V30 6306 N 579.147 4.05966 -3.01704 0
M  V30 6307 C 577.445 4.13833 -1.66308 0
M  V30 6308 C 578.146 4.45987 -3.73458 0
M  V30 6309 N 577.122 4.52569 -3.01135 0
M  V30 6310 H 580.924 2.17012 -1.98199 0
M  V30 6311 H 578.438 1.12898 -1.16738 0
M  V30 6312 H 580.435 4.13896 -0.499571 0
M  V30 6313 H 579.095 3.2369 0.255863 0
M  V30 6314 H 580.106 3.92716 -3.37631 0
M  V30 6315 H 576.783 4.09739 -0.801267 0
M  V30 6316 H 578.173 4.70465 -4.79701 0
M  V30 6317 N 580.893 1.08022 1.14757 0
M  V30 6318 C 581.84 0.706657 2.19716 0
M  V30 6319 C 582.81 -0.30525 1.63271 0
M  V30 6320 O 583.995 -0.19015 1.8985 0
M  V30 6321 C 581.135 0.117914 3.44898 0
M  V30 6322 C 580.248 1.18212 4.15512 0
M  V30 6323 C 579.383 0.557659 5.28265 0
M  V30 6324 C 578.422 1.60418 5.90705 0
M  V30 6325 N 577.559 1.0018 6.94916 0
M  V30 6326 H 582.399 1.60603 2.51019 0
M  V30 6327 H 579.936 0.802664 1.23271 0
M  V30 6328 H 581.894 -0.241112 4.16503 0
M  V30 6329 H 580.524 -0.744788 3.1409 0
M  V30 6330 H 579.576 1.65863 3.42335 0
M  V30 6331 H 580.888 1.97533 4.5802 0
M  V30 6332 H 580.042 0.146654 6.06523 0
M  V30 6333 H 578.781 -0.267249 4.86967 0
M  V30 6334 H 577.786 2.02489 5.11154 0
M  V30 6335 H 579.011 2.43149 6.34078 0
M  V30 6336 H 576.957 0.197917 6.55701 0
M  V30 6337 H 576.874 1.73216 7.35889 0
M  V30 6338 H 578.142 0.616523 7.77058 0
M  V30 6339 N 582.371 -1.3172 0.865308 0
M  V30 6340 C 583.617 -1.97168 0.474633 0
M  V30 6341 C 583.95 -1.68263 -0.969604 0
M  V30 6342 O 583.225 -0.976588 -1.68205 0
M  V30 6343 C 583.508 -3.52689 0.726808 0
M  V30 6344 C 583.361 -3.91185 2.22024 0
M  V30 6345 C 584.68 -4.39689 0.190201 0
M  V30 6346 H 581.799 -0.716185 0.17392 0
M  V30 6347 H 584.441 -1.55925 1.08569 0
M  V30 6348 H 582.591 -3.8795 0.206705 0
M  V30 6349 H 584.263 -3.66049 2.80724 0
M  V30 6350 H 582.506 -3.3996 2.69462 0
M  V30 6351 H 583.177 -4.99604 2.34735 0
M  V30 6352 H 585.653 -4.11225 0.635103 0
M  V30 6353 H 584.529 -5.47469 0.396132 0
M  V30 6354 H 584.79 -4.32683 -0.907625 0
M  V30 6355 N 583.85 -0.624285 -1.44708 0
M  V30 6356 C 584.782 0.12305 -2.28869 0
M  V30 6357 C 585.795 0.81557 -1.40898 0
M  V30 6358 O 586.984 0.678162 -1.65116 0
M  V30 6359 C 584.084 1.19612 -3.1709 0
M  V30 6360 C 583.257 0.587452 -4.33437 0
M  V30 6361 C 582.316 1.55358 -5.02743 0
M  V30 6362 O 581.341 1.07338 -5.58988 0
M  V30 6363 N 582.543 2.88798 -5.03563 0
M  V30 6364 H 585.308 -0.599193 -2.93649 0
M  V30 6365 H 582.87 -0.464954 -1.5508 0
M  V30 6366 H 584.861 1.84261 -3.60319 0
M  V30 6367 H 583.432 1.82067 -2.54107 0
M  V30 6368 H 582.652 -0.237509 -3.93484 0
M  V30 6369 H 583.94 0.161326 -5.08544 0
M  V30 6370 H 583.338 3.30399 -4.59188 0
M  V30 6371 H 581.894 3.48826 -5.50603 0
M  V30 6372 N 585.328 1.53329 -0.364422 0
M  V30 6373 C 586.744 1.59594 -0.0133165 0
M  V30 6374 C 586.944 1.37959 1.46865 0
M  V30 6375 O 586 1.18418 2.2301 0
M  V30 6376 C 587.313 2.97032 -0.468213 0
M  V30 6377 C 588.861 3.10138 -0.422334 0
M  V30 6378 C 589.336 4.49986 -0.853024 0
M  V30 6379 N 590.827 4.56098 -0.808037 0
M  V30 6380 C 591.562 5.62495 -1.11299 0
M  V30 6381 N 591.058 6.7665 -1.48717 0
M  V30 6382 N 592.851 5.52473 -1.03586 0
M  V30 6383 H 585.002 1.65644 -1.32951 0
M  V30 6384 H 587.265 0.77684 -0.543345 0
M  V30 6385 H 586.971 3.18 -1.5023 0
M  V30 6386 H 586.845 3.76918 0.145775 0
M  V30 6387 H 589.232 2.88881 0.602622 0
M  V30 6388 H 589.313 2.32263 -1.0718 0
M  V30 6389 H 588.957 4.7198 -1.87609 0
M  V30 6390 H 588.887 5.26289 -0.180819 0
M  V30 6391 H 591.378 3.74131 -0.532361 0
M  V30 6392 H 591.691 7.53776 -1.70415 0
M  V30 6393 H 590.036 6.78044 -1.52581 0
M  V30 6394 H 593.227 4.6217 -0.742736 0
M  V30 6395 H 593.4 6.35295 -1.27686 0
M  V30 6396 N 586.806 0.0935595 1.57322 0
M  V30 6397 C 588.031 -0.582324 1.99057 0
M  V30 6398 C 588.456 -1.61025 0.972242 0
M  V30 6399 O 587.814 -1.81202 -0.0594622 0
M  V30 6400 C 587.862 -1.20799 3.39765 0
M  V30 6401 O 586.966 -2.32382 3.40694 0
M  V30 6402 H 586.307 -0.147884 0.647323 0
M  V30 6403 H 588.837 0.174516 2.03854 0
M  V30 6404 H 588.847 -1.54966 3.77425 0
M  V30 6405 H 587.522 -0.454914 4.13405 0
M  V30 6406 H 586.099 -1.99845 3.14827 0
M  V30 6407 N 588.284 -1.56567 -0.180126 0
M  V30 6408 C 589.53 -1.81761 -0.899497 0
M  V30 6409 C 589.863 -0.670015 -1.82276 0
M  V30 6410 O 589.138 0.328575 -1.91705 0
M  V30 6411 C 589.421 -3.17296 -1.7028 0
M  V30 6412 C 589.274 -4.4257 -0.803255 0
M  V30 6413 C 590.593 -3.49678 -2.67233 0
M  V30 6414 H 587.712 -0.661192 -0.325567 0
M  V30 6415 H 590.354 -1.89272 -0.16612 0
M  V30 6416 H 588.504 -3.11023 -2.32802 0
M  V30 6417 H 590.176 -4.60902 -0.191585 0
M  V30 6418 H 588.419 -4.33658 -0.110796 0
M  V30 6419 H 589.09 -5.33935 -1.40064 0
M  V30 6420 H 591.566 -3.56347 -2.14839 0
M  V30 6421 H 590.442 -4.45605 -3.20511 0
M  V30 6422 H 590.703 -2.73932 -3.47007 0
M  V30 6423 N 589.762 0.448376 -1.51087 0
M  V30 6424 C 590.987 1.22605 -1.6728 0
M  V30 6425 C 591.412 1.84524 -0.365045 0
M  V30 6426 O 590.77 1.6832 0.673642 0
M  V30 6427 C 590.818 2.29393 -2.78229 0
M  V30 6428 O 589.922 3.34608 -2.41063 0
M  V30 6429 H 589.263 0.359705 -0.558129 0
M  V30 6430 H 591.793 0.530903 -1.97592 0
M  V30 6431 H 591.803 2.74352 -3.01986 0
M  V30 6432 H 590.478 1.83701 -3.73131 0
M  V30 6433 H 589.055 2.95202 -2.27838 0
M  V30 6434 N 591.24 1.41047 0.703093 0
M  V30 6435 C 592.203 1.42036 1.79884 0
M  V30 6436 C 593.203 0.312153 1.57741 0
M  V30 6437 O 594.393 0.571672 1.64553 0
M  V30 6438 C 591.525 1.22437 3.18154 0
M  V30 6439 H 592.718 2.39572 1.80403 0
M  V30 6440 H 590.271 1.27079 0.909977 0
M  V30 6441 H 591.006 0.257112 3.23279 0
M  V30 6442 H 590.791 2.02723 3.35627 0
M  V30 6443 H 592.281 1.25946 3.98155 0
M  V30 6444 N 592.718 -0.936591 1.26751 0
M  V30 6445 C 593.666 -2.0573 1.08527 0
M  V30 6446 C 594.66 -1.69397 0.0108784 0
M  V30 6447 O 595.866 -1.79215 0.167915 0
M  V30 6448 H 592.241 -0.673691 0.334133 0
M  V30 6449 H 594.212 -2.1825 2.03493 0
M  V30 6450 C 592.961 -3.39738 0.739845 0
M  V30 6451 H 592.284 -3.68174 1.55845 0
M  V30 6452 H 593.724 -4.18955 0.652149 0
M  V30 6453 C 592.183 -3.32292 -0.555288 0
M  V30 6454 O 592.713 -3.68794 -1.59229 0
M  V30 6455 N 590.919 -2.85394 -0.54762 0
M  V30 6456 H 590.466 -2.55886 0.296667 0
M  V30 6457 H 590.424 -2.80795 -1.41427 0
M  V30 6458 N 594.196 -1.08629 -1.14182 0
M  V30 6459 C 595.607 -0.838003 -1.66836 0
M  V30 6460 C 595.958 0.634885 -1.85644 0
M  V30 6461 O 595.083 1.49008 -1.56926 0
M  V30 6462 C 595.678 -1.51465 -3.03058 0
M  V30 6463 C 594.237 -1.31355 -3.52736 0
M  V30 6464 C 593.384 -1.57599 -2.28162 0
M  V30 6465 H 596.335 -1.24656 -0.982165 0
M  V30 6466 H 596.356 -0.943134 -3.68626 0
M  V30 6467 H 595.868 -2.58661 -2.89337 0
M  V30 6468 H 593.969 -0.262384 -3.71675 0
M  V30 6469 H 594.082 -2.04275 -4.33369 0
M  V30 6470 H 592.446 -0.997659 -2.34348 0
M  V30 6471 H 593.229 -2.66006 -2.17015 0
M  V30 6472 N 595.674 1.31259 -0.872281 0
M  V30 6473 C 596.621 2.28459 -0.327857 0
M  V30 6474 C 597.591 1.55831 0.574957 0
M  V30 6475 O 598.776 1.83965 0.506101 0
M  V30 6476 C 595.916 3.41985 0.462644 0
M  V30 6477 C 595.029 4.29458 -0.467949 0
M  V30 6478 C 594.164 5.30131 0.336903 0
M  V30 6479 C 593.203 6.0925 -0.58997 0
M  V30 6480 N 592.34 7.01872 0.178775 0
M  V30 6481 H 597.18 2.74414 -1.16193 0
M  V30 6482 H 594.717 1.34994 -0.584376 0
M  V30 6483 H 596.675 4.06547 0.936759 0
M  V30 6484 H 595.305 2.97134 1.2614 0
M  V30 6485 H 594.357 3.65318 -1.06052 0
M  V30 6486 H 595.669 4.84677 -1.17856 0
M  V30 6487 H 594.823 6.0038 0.873427 0
M  V30 6488 H 593.562 4.75573 1.08079 0
M  V30 6489 H 592.567 5.37889 -1.13823 0
M  V30 6490 H 593.792 6.65894 -1.33275 0
M  V30 6491 H 591.738 6.49721 0.905435 0
M  V30 6492 H 591.655 7.54522 -0.472452 0
M  V30 6493 H 592.923 7.76382 0.696454 0
M  V30 6494 N 597.152 0.631951 1.44375 0
M  V30 6495 C 598.084 -0.110911 2.28931 0
M  V30 6496 C 599.097 -0.808086 1.41329 0
M  V30 6497 O 600.286 -0.669396 1.65473 0
M  V30 6498 C 597.386 -1.17928 3.1772 0
M  V30 6499 C 596.559 -0.564458 4.33743 0
M  V30 6500 C 595.618 -1.5269 5.0356 0
M  V30 6501 O 594.644 -1.04372 5.59549 0
M  V30 6502 N 595.846 -2.86123 5.05088 0
M  V30 6503 H 598.611 0.614758 2.93327 0
M  V30 6504 H 596.172 0.473171 1.54831 0
M  V30 6505 H 598.164 -1.82348 3.61291 0
M  V30 6506 H 596.734 -1.80717 2.55069 0
M  V30 6507 H 595.954 0.258373 3.93352 0
M  V30 6508 H 597.242 -0.134355 5.08623 0
M  V30 6509 H 596.64 -3.27959 4.60933 0
M  V30 6510 H 595.197 -3.45901 5.52445 0
M  V30 6511 N 598.631 -1.53133 0.372548 0
M  V30 6512 C 600.047 -1.59585 0.02178 0
M  V30 6513 C 600.247 -1.38736 -1.46132 0
M  V30 6514 O 599.303 -1.19599 -2.22379 0
M  V30 6515 C 600.616 -2.9678 0.483959 0
M  V30 6516 C 602.164 -3.09909 0.438775 0
M  V30 6517 C 602.639 -4.49527 0.876876 0
M  V30 6518 N 604.13 -4.55663 0.832214 0
M  V30 6519 C 604.865 -5.61896 1.14281 0
M  V30 6520 N 604.361 -6.75852 1.52303 0
M  V30 6521 N 606.154 -5.51916 1.06515 0
M  V30 6522 H 598.305 -1.64936 1.33827 0
M  V30 6523 H 600.568 -0.773947 0.547458 0
M  V30 6524 H 600.274 -3.17198 1.51915 0
M  V30 6525 H 600.148 -3.7699 -0.125784 0
M  V30 6526 H 602.535 -2.89197 -0.587294 0
M  V30 6527 H 602.616 -2.31691 1.0841 0
M  V30 6528 H 602.26 -4.70979 1.90109 0
M  V30 6529 H 602.19 -5.26186 0.208727 0
M  V30 6530 H 604.681 -3.73844 0.552195 0
M  V30 6531 H 604.994 -7.52862 1.7441 0
M  V30 6532 H 603.339 -6.77226 1.56175 0
M  V30 6533 H 606.53 -4.6177 0.767235 0
M  V30 6534 H 606.703 -6.34609 1.31053 0
M  V30 6535 N 600.109 -0.101901 -1.5727 0
M  V30 6536 C 601.525 0.254739 -1.57554 0
M  V30 6537 C 601.725 1.67937 -1.11352 0
M  V30 6538 O 600.781 2.39722 -0.793081 0
M  V30 6539 C 602.094 0.036975 -3.00677 0
M  V30 6540 C 603.642 0.104199 -3.12827 0
M  V30 6541 C 604.117 -0.0856565 -4.5792 0
M  V30 6542 N 605.608 -0.0310498 -4.6319 0
M  V30 6543 C 606.343 -0.153099 -5.73196 0
M  V30 6544 N 605.839 -0.330364 -6.92012 0
M  V30 6545 N 607.632 -0.0938854 -5.62022 0
M  V30 6546 H 599.783 -1.03263 -1.85609 0
M  V30 6547 H 602.046 -0.405251 -0.857016 0
M  V30 6548 H 601.752 -0.947254 -3.38703 0
M  V30 6549 H 601.626 0.776335 -3.69124 0
M  V30 6550 H 604.013 1.07894 -2.74669 0
M  V30 6551 H 604.094 -0.666762 -2.46957 0
M  V30 6552 H 603.738 -1.05729 -4.96773 0
M  V30 6553 H 603.668 0.705082 -5.21858 0
M  V30 6554 H 606.159 0.103141 -3.77759 0
M  V30 6555 H 606.472 -0.41482 -7.71686 0
M  V30 6556 H 604.817 -0.366119 -6.94035 0
M  V30 6557 H 608.008 0.0435168 -4.6808 0
M  V30 6558 H 608.181 -0.19245 -6.47714 0
M  V30 6559 N 601.587 1.56661 0.17182 0
M  V30 6560 C 602.834 1.81965 0.888529 0
M  V30 6561 C 603.162 0.6789 1.82267 0
M  V30 6562 O 602.417 -0.333875 1.92831 0
M  V30 6563 C 602.716 3.13435 1.71736 0
M  V30 6564 C 602.382 4.41159 0.932184 0
M  V30 6565 C 601.044 4.75851 0.715481 0
M  V30 6566 C 603.396 5.19803 0.381387 0
M  V30 6567 C 600.724 5.86666 -0.063126 0
M  V30 6568 C 603.076 6.31433 -0.384129 0
M  V30 6569 C 601.74 6.64692 -0.611637 0
M  V30 6570 H 601.01 0.665859 0.325136 0
M  V30 6571 H 603.657 1.90884 0.153495 0
M  V30 6572 H 601.962 2.99857 2.52177 0
M  V30 6573 H 603.659 3.30224 2.27493 0
M  V30 6574 H 600.249 4.13947 1.11112 0
M  V30 6575 H 604.433 4.93396 0.536148 0
M  V30 6576 H 599.689 6.10892 -0.249136 0
M  V30 6577 H 603.863 6.91577 -0.818185 0
M  V30 6578 H 601.49 7.50398 -1.21684 0
M  V30 6579 N 603.065 -0.440357 1.51323 0
M  V30 6580 C 604.29 -1.21716 1.67928 0
M  V30 6581 C 604.715 -1.84328 0.374826 0
M  V30 6582 O 604.073 -1.68675 -0.664706 0
M  V30 6583 C 604.121 -2.27914 2.79442 0
M  V30 6584 O 603.225 -3.33325 2.42834 0
M  V30 6585 H 602.566 -0.35674 0.560029 0
M  V30 6586 H 605.096 -0.520417 1.97871 0
M  V30 6587 H 605.106 -2.72746 3.03436 0
M  V30 6588 H 603.781 -1.8172 3.741 0
M  V30 6589 H 602.358 -2.9399 2.294 0
M  V30 6590 N 604.543 -1.41418 -0.695603 0
M  V30 6591 C 605.82 -1.31264 -1.45014 0
M  V30 6592 C 606.2 0.0597994 -2.11015 0
M  V30 6593 O 605.548 1.07403 -2.01685 0
M  V30 6594 C 605.758 -2.466 -2.4696 0
M  V30 6595 C 607.106 -2.87763 -3.12214 0
M  V30 6596 O 608.13 -2.46339 -2.57285 0
M  V30 6597 O 606.989 -3.59395 -4.11701 0
M  V30 6598 H 604.083 -0.516576 -0.645816 0
M  V30 6599 H 606.629 -1.53382 -0.726084 0
M  V30 6600 H 605.401 -3.38183 -1.96845 0
M  V30 6601 H 605.024 -2.26358 -3.26876 0
M  V30 6602 N 606.021 0.929856 -1.27246 0
M  V30 6603 C 606.953 2.03434 -1.0558 0
M  V30 6604 C 607.966 1.62795 -0.0125762 0
M  V30 6605 O 609.155 1.76685 -0.2539 0
M  V30 6606 C 606.255 3.33915 -0.57912 0
M  V30 6607 C 605.428 4.03259 -1.69415 0
M  V30 6608 C 604.487 5.12014 -1.21357 0
M  V30 6609 O 603.513 5.36097 -1.91282 0
M  V30 6610 N 604.715 5.8046 -0.0680622 0
M  V30 6611 H 607.48 2.22583 -2.00691 0
M  V30 6612 H 605.041 1.1001 -1.18783 0
M  V30 6613 H 607.033 4.03978 -0.241563 0
M  V30 6614 H 605.603 3.11355 0.278703 0
M  V30 6615 H 604.823 3.26958 -2.20209 0
M  V30 6616 H 606.111 4.46337 -2.44255 0
M  V30 6617 H 605.509 5.63345 0.515626 0
M  V30 6618 H 604.066 6.51461 0.210332 0
M  V30 6619 N 607.499 1.09233 1.13605 0
M  V30 6620 C 608.462 0.733553 2.17144 0
M  V30 6621 C 609.462 -0.235873 1.59061 0
M  V30 6622 O 610.652 -0.0143167 1.74194 0
M  V30 6623 C 607.784 0.084471 3.40795 0
M  V30 6624 H 608.977 1.65049 2.50397 0
M  V30 6625 H 606.53 0.891264 1.28399 0
M  V30 6626 H 607.265 -0.843795 3.1313 0
M  V30 6627 H 607.05 0.781985 3.84223 0
M  V30 6628 H 608.54 -0.151216 4.17326 0
M  V30 6629 N 608.977 -1.30795 0.87923 0
M  V30 6630 C 609.94 -2.26563 0.346676 0
M  V30 6631 C 610.94 -1.52578 -0.507597 0
M  V30 6632 O 612.13 -1.71318 -0.315575 0
M  V30 6633 C 609.262 -3.37115 -0.506611 0
M  V30 6634 H 610.455 -2.75183 1.19223 0
M  V30 6635 H 608.008 -1.41886 0.655598 0
M  V30 6636 H 608.743 -2.93802 -1.37299 0
M  V30 6637 H 608.528 -3.91959 0.105218 0
M  V30 6638 H 610.018 -4.08412 -0.871192 0
M  V30 6639 N 610.455 -0.639598 -1.44038 0
M  V30 6640 C 611.703 -0.147188 -2.01563 0
M  V30 6641 C 612.024 1.2384 -1.50628 0
M  V30 6642 O 611.294 1.82452 -0.713316 0
M  V30 6643 H 609.874 -0.0514231 -0.745228 0
M  V30 6644 H 612.536 -0.828205 -1.76428 0
M  V30 6645 H 611.632 -0.121358 -3.11864 0
M  V30 6646 N 611.933 1.52934 -0.380664 0
M  V30 6647 C 613.344 1.86457 0.0952684 0
M  V30 6648 C 613.695 1.3007 1.46889 0
M  V30 6649 O 612.82 0.628636 2.07068 0
M  V30 6650 C 613.415 3.38323 0.179648 0
M  V30 6651 C 611.974 3.71589 0.599858 0
M  V30 6652 C 611.121 2.76228 -0.243572 0
M  V30 6653 H 614.072 1.46966 -0.59888 0
M  V30 6654 H 614.093 3.67113 1.00042 0
M  V30 6655 H 613.605 3.79333 -0.820228 0
M  V30 6656 H 611.706 3.36144 1.60742 0
M  V30 6657 H 611.819 4.77715 0.364003 0
M  V30 6658 H 610.183 2.53045 0.289855 0
M  V30 6659 H 610.966 3.20074 -1.24127 0
M  V30 6660 N 613.412 0.11024 1.57214 0
M  V30 6661 C 614.375 -0.828808 2.1369 0
M  V30 6662 C 615.375 -1.20059 1.06969 0
M  V30 6663 O 616.565 -1.12754 1.32786 0
M  V30 6664 C 613.697 -2.11959 2.66994 0
M  V30 6665 H 614.89 -0.338146 2.97988 0
M  V30 6666 H 612.443 -0.138913 1.55681 0
M  V30 6667 H 613.178 -2.65476 1.8626 0
M  V30 6668 H 612.963 -1.86258 3.45037 0
M  V30 6669 H 614.453 -2.79105 3.10629 0
M  V30 6670 N 614.89 -1.56749 -0.16351 0
M  V30 6671 C 616.139 -1.81626 -0.877211 0
M  V30 6672 C 616.452 -0.688791 -1.83071 0
M  V30 6673 O 617.658 -0.822697 -2.58735 0
M  V30 6674 C 616.114 -3.21858 -1.61045 0
M  V30 6675 C 615.722 -4.42494 -0.700195 0
M  V30 6676 C 617.466 -3.56021 -2.31192 0
M  V30 6677 C 615.373 -5.73748 -1.43412 0
M  V30 6678 H 614.303 -0.67731 -0.331312 0
M  V30 6679 H 616.954 -1.83039 -0.13006 0
M  V30 6680 H 615.336 -3.14784 -2.40264 0
M  V30 6681 H 616.51 -4.60766 0.0555849 0
M  V30 6682 H 614.825 -4.1626 -0.10799 0
M  V30 6683 H 617.422 -4.51333 -2.8671 0
M  V30 6684 H 617.765 -2.81277 -3.06902 0
M  V30 6685 H 618.298 -3.64682 -1.58909 0
M  V30 6686 H 615.037 -6.51543 -0.719186 0
M  V30 6687 H 614.557 -5.5944 -2.16302 0
M  V30 6688 H 616.236 -6.15975 -1.9795 0
M  V30 6689 N 616.368 0.432326 -1.51554 0
M  V30 6690 C 617.779 1.01202 -1.56892 0
M  V30 6691 C 618.13 1.92175 -0.395394 0
M  V30 6692 O 617.255 2.10844 0.487198 0
M  V30 6693 C 617.85 1.84217 -2.8434 0
M  V30 6694 C 616.409 2.37228 -2.92233 0
M  V30 6695 C 615.556 1.16576 -2.51606 0
M  V30 6696 H 618.507 0.213407 -1.57259 0
M  V30 6697 H 618.528 2.69721 -2.68385 0
M  V30 6698 H 618.04 1.17979 -3.69733 0
M  V30 6699 H 616.141 3.06905 -2.11282 0
M  V30 6700 H 616.254 2.69682 -3.95991 0
M  V30 6701 H 614.618 1.51263 -2.04919 0
M  V30 6702 H 615.401 0.519404 -3.39348 0
M  V30 6703 N 617.846 1.41785 0.688094 0
M  V30 6704 C 619.074 1.44915 1.47673 0
M  V30 6705 C 619.489 0.0565786 1.88715 0
M  V30 6706 O 618.846 -0.92579 1.57275 0
M  V30 6707 C 618.897 2.36452 2.73446 0
M  V30 6708 O 618.618 3.7029 2.34131 0
M  V30 6709 C 620.119 2.48463 3.67125 0
M  V30 6710 H 617.339 0.493324 0.454832 0
M  V30 6711 H 619.883 1.86153 0.846594 0
M  V30 6712 H 618.038 1.98502 3.3268 0
M  V30 6713 H 618.452 4.19183 3.15255 0
M  V30 6714 H 619.926 3.16662 4.52138 0
M  V30 6715 H 620.403 1.51826 4.12123 0
M  V30 6716 H 621.009 2.8708 3.13792 0
M  V30 6717 N 619.324 -0.923095 1.27737 0
M  V30 6718 C 620.549 -1.71054 1.17283 0
M  V30 6719 C 620.974 -1.86208 -0.266153 0
M  V30 6720 O 620.332 -1.36545 -1.1927 0
M  V30 6721 C 620.38 -3.0854 1.86642 0
M  V30 6722 O 619.484 -3.95528 1.16752 0
M  V30 6723 H 618.825 -0.524136 0.407649 0
M  V30 6724 H 621.355 -1.15487 1.6889 0
M  V30 6725 H 621.365 -3.58828 1.94182 0
M  V30 6726 H 620.04 -2.96828 2.91317 0
M  V30 6727 H 618.617 -3.53967 1.17312 0
M  V30 6728 N 620.802 -1.09834 -1.13024 0
M  V30 6729 C 621.75 -0.736283 -2.20639 0
M  V30 6730 C 622.744 0.264725 -1.67319 0
M  V30 6731 O 623.95 0.125745 -1.7956 0
M  V30 6732 H 620.325 -0.220136 -0.719058 0
M  V30 6733 H 622.296 -1.65295 -2.48436 0
M  V30 6734 C 621.045 -0.177544 -3.47246 0
M  V30 6735 H 620.368 -0.939009 -3.88616 0
M  V30 6736 H 621.808 0.0378007 -4.23983 0
M  V30 6737 C 620.267 1.08824 -3.1884 0
M  V30 6738 O 620.797 2.1708 -3.37993 0
M  V30 6739 N 619.003 1.00442 -2.7269 0
M  V30 6740 H 618.55 0.123383 -2.57304 0
M  V30 6741 H 618.508 1.85206 -2.5406 0
M  V30 6742 N 622.28 1.30327 -0.886154 0
M  V30 6743 C 623.505 2.0079 -0.519425 0
M  V30 6744 C 623.93 1.65979 0.885013 0
M  V30 6745 O 623.288 0.877043 1.58675 0
M  V30 6746 C 623.336 3.53686 -0.702758 0
M  V30 6747 O 622.44 4.11637 0.250828 0
M  V30 6748 H 621.781 0.63171 -0.204544 0
M  V30 6749 H 624.311 1.66145 -1.19402 0
M  V30 6750 H 624.321 4.03531 -0.602207 0
M  V30 6751 H 622.996 3.78361 -1.72673 0
M  V30 6752 H 621.573 3.72755 0.103873 0
M  V30 6753 N 623.758 0.647228 1.43697 0
M  V30 6754 C 624.988 0.16551 2.05936 0
M  V30 6755 C 625.396 -1.17164 1.48557 0
M  V30 6756 O 624.739 -1.73307 0.60914 0
M  V30 6757 C 624.801 -0.00648082 3.59499 0
M  V30 6758 C 624.465 1.25503 4.39429 0
M  V30 6759 C 625.462 2.18241 4.71876 0
M  V30 6760 C 623.147 1.49494 4.79538 0
M  V30 6761 C 625.141 3.33268 5.43333 0
M  V30 6762 C 622.828 2.64815 5.50742 0
M  V30 6763 C 623.826 3.56528 5.82561 0
M  V30 6764 O 623.514 4.69836 6.52311 0
M  V30 6765 H 623.246 0.0844124 0.670709 0
M  V30 6766 H 625.8 0.88638 1.8529 0
M  V30 6767 H 624.03 -0.782661 3.78697 0
M  V30 6768 H 625.719 -0.444794 4.03456 0
M  V30 6769 H 626.485 2.00946 4.41413 0
M  V30 6770 H 622.364 0.789912 4.54182 0
M  V30 6771 H 625.908 4.04874 5.68087 0
M  V30 6772 H 621.805 2.82047 5.8062 0
M  V30 6773 H 622.573 4.69024 6.70789 0
M  V30 6774 N 625.236 -1.5273 0.388769 0
M  V30 6775 C 626.461 -2.0647 -0.19621 0
M  V30 6776 C 626.886 -1.25865 -1.39784 0
M  V30 6777 O 626.244 -0.283562 -1.79069 0
M  V30 6778 C 626.292 -3.56456 -0.5451 0
M  V30 6779 O 625.396 -3.78426 -1.63912 0
M  V30 6780 H 624.737 -0.663599 -0.023067 0
M  V30 6781 H 627.267 -1.96898 0.556084 0
M  V30 6782 H 627.277 -3.99888 -0.809557 0
M  V30 6783 H 625.952 -4.14561 0.333417 0
M  V30 6784 H 624.529 -3.46884 -1.36842 0
M  V30 6785 N 626.714 -0.118576 -1.57153 0
M  V30 6786 C 627.661 0.831789 -2.1529 0
M  V30 6787 C 628.631 1.26385 -1.07778 0
M  V30 6788 O 629.816 1.34144 -1.35684 0
M  V30 6789 C 626.956 2.07664 -2.75626 0
M  V30 6790 C 626.069 1.69298 -3.97444 0
M  V30 6791 C 625.204 2.88747 -4.45868 0
M  V30 6792 C 624.243 2.46619 -5.60219 0
M  V30 6793 N 623.38 3.5898 -6.03389 0
M  V30 6794 H 628.22 0.329183 -2.96176 0
M  V30 6795 H 625.757 0.150792 -1.46325 0
M  V30 6796 H 627.715 2.80601 -3.08738 0
M  V30 6797 H 626.345 2.55384 -1.97431 0
M  V30 6798 H 625.397 0.862374 -3.70496 0
M  V30 6799 H 626.709 1.34338 -4.80369 0
M  V30 6800 H 625.863 3.69909 -4.80887 0
M  V30 6801 H 624.602 3.26933 -3.61892 0
M  V30 6802 H 623.607 1.63889 -5.24805 0
M  V30 6803 H 624.832 2.0955 -6.45961 0
M  V30 6804 H 622.778 3.9684 -5.22354 0
M  V30 6805 H 622.695 3.27942 -6.81168 0
M  V30 6806 H 623.963 4.40583 -6.43045 0
M  V30 6807 N 628.193 1.56834 0.155195 0
M  V30 6808 C 629.14 1.97646 1.19184 0
M  V30 6809 C 630.11 0.842788 1.4313 0
M  V30 6810 O 631.295 1.1042 1.55602 0
M  V30 6811 C 628.435 2.35527 2.52232 0
M  V30 6812 C 627.548 3.62147 2.35529 0
M  V30 6813 C 626.683 3.89167 3.61555 0
M  V30 6814 C 625.722 5.09084 3.39853 0
M  V30 6815 N 624.859 5.32156 4.5799 0
M  V30 6816 H 629.699 2.8601 0.836802 0
M  V30 6817 H 627.236 1.41507 0.401758 0
M  V30 6818 H 629.194 2.55516 3.29799 0
M  V30 6819 H 627.824 1.50253 2.85699 0
M  V30 6820 H 626.876 3.4998 1.49057 0
M  V30 6821 H 628.188 4.49871 2.15448 0
M  V30 6822 H 627.342 4.09611 4.47553 0
M  V30 6823 H 626.081 2.9985 3.84632 0
M  V30 6824 H 625.086 4.88522 2.52243 0
M  V30 6825 H 626.311 5.99947 3.18183 0
M  V30 6826 H 624.257 4.45791 4.81255 0
M  V30 6827 H 624.174 6.14133 4.40882 0
M  V30 6828 H 625.442 5.57091 5.45225 0
M  V30 6829 N 629.671 -0.424282 1.51781 0
M  V30 6830 C 630.899 -1.1947 1.68921 0
M  V30 6831 C 631.314 -1.84683 0.39213 0
M  V30 6832 O 630.671 -1.71261 -0.630554 0
M  V30 6833 C 630.722 -2.26909 2.81416 0
M  V30 6834 O 630.443 -1.64361 4.061 0
M  V30 6835 C 631.944 -3.16945 3.09937 0
M  V30 6836 H 629.164 -0.359591 0.566511 0
M  V30 6837 H 631.708 -0.501139 1.98265 0
M  V30 6838 H 629.863 -2.91959 2.54635 0
M  V30 6839 H 630.277 -2.35468 4.68674 0
M  V30 6840 H 631.751 -3.88437 3.922 0
M  V30 6841 H 632.228 -3.78451 2.22871 0
M  V30 6842 H 632.834 -2.57581 3.38426 0
M  V30 6843 N 631.149 -1.42148 -0.680565 0
M  V30 6844 C 632.081 -1.41119 -1.80605 0
M  V30 6845 C 633.094 -0.311099 -1.598 0
M  V30 6846 O 634.283 -0.573813 -1.69026 0
M  V30 6847 C 631.383 -1.18204 -3.17618 0
M  V30 6848 C 630.556 -2.40537 -3.65322 0
M  V30 6849 C 629.615 -2.13254 -4.8105 0
M  V30 6850 O 628.641 -2.8641 -4.91892 0
M  V30 6851 N 629.843 -1.13208 -5.69354 0
M  V30 6852 H 632.608 -2.38128 -1.81975 0
M  V30 6853 H 630.169 -1.36953 -0.863446 0
M  V30 6854 H 632.161 -0.97878 -3.92686 0
M  V30 6855 H 630.731 -0.29738 -3.11182 0
M  V30 6856 H 629.951 -2.76468 -2.80996 0
M  V30 6857 H 631.239 -3.22012 -3.93936 0
M  V30 6858 H 630.637 -0.526893 -5.63241 0
M  V30 6859 H 629.194 -0.988699 -6.44258 0
M  V30 6860 N 632.627 0.916307 -1.28225 0
M  V30 6861 C 633.852 1.7043 -1.18188 0
M  V30 6862 C 634.277 1.86346 0.256274 0
M  V30 6863 O 633.635 1.37175 1.18544 0
M  V30 6864 C 633.683 3.07546 -1.88275 0
M  V30 6865 O 632.787 3.94904 -1.18848 0
M  V30 6866 H 632.128 0.521967 -0.410423 0
M  V30 6867 H 634.658 1.14589 -1.69501 0
M  V30 6868 H 634.668 3.57793 -1.96082 0
M  V30 6869 H 633.343 2.95279 -2.92887 0
M  V30 6870 H 631.92 3.53339 -1.19187 0
M  V30 6871 N 634.105 1.10431 1.1244 0
M  V30 6872 C 635.053 0.747974 2.20246 0
M  V30 6873 C 636.047 -0.255848 1.67457 0
M  V30 6874 O 637.253 -0.116221 1.79624 0
M  V30 6875 H 633.628 0.223946 0.71788 0
M  V30 6876 H 635.599 1.6661 2.47556 0
M  V30 6877 C 634.348 0.195957 3.47147 0
M  V30 6878 H 633.671 0.959606 3.88113 0
M  V30 6879 H 635.111 -0.0153154 4.23997 0
M  V30 6880 C 633.57 -1.07132 3.19413 0
M  V30 6881 O 634.1 -2.15284 3.3914 0
M  V30 6882 N 632.306 -0.98994 2.73219 0
M  V30 6883 H 631.853 -0.109736 2.57366 0
M  V30 6884 H 631.811 -1.83856 2.55038 0
M  V30 6885 N 635.583 -1.29855 0.893053 0
M  V30 6886 C 636.531 -2.29867 0.355512 0
M  V30 6887 C 637.525 -1.60502 -0.541801 0
M  V30 6888 O 638.731 -1.74902 -0.425339 0
M  V30 6889 H 635.106 -0.745805 0.0963247 0
M  V30 6890 H 637.077 -2.72655 1.21252 0
M  V30 6891 C 635.826 -3.453 -0.407801 0
M  V30 6892 H 635.149 -3.98864 0.273426 0
M  V30 6893 H 636.589 -4.17334 -0.748887 0
M  V30 6894 C 635.048 -2.96051 -1.60795 0
M  V30 6895 O 635.578 -2.96763 -2.7073 0
M  V30 6896 N 633.784 -2.51963 -1.44786 0
M  V30 6897 H 633.331 -2.51583 -0.553498 0
M  V30 6898 H 633.289 -2.1937 -2.2522 0
M  V30 6899 N 637.061 -0.65484 -1.43351 0
M  V30 6900 C 638.024 0.0263562 -2.29185 0
M  V30 6901 C 639.024 0.748951 -1.42293 0
M  V30 6902 O 640.214 0.589957 -1.63906 0
M  V30 6903 C 637.346 1.04806 -3.2439 0
M  V30 6904 H 638.539 -0.728883 -2.90908 0
M  V30 6905 H 636.092 -0.416149 -1.50658 0
M  V30 6906 H 636.827 1.83247 -2.67565 0
M  V30 6907 H 636.612 0.533554 -3.88453 0
M  V30 6908 H 638.102 1.52372 -3.88809 0
M  V30 6909 N 638.539 1.52521 -0.396863 0
M  V30 6910 C 639.449 2.30403 0.44178 0
M  V30 6911 C 640.465 1.37625 1.06468 0
M  V30 6912 O 641.641 1.70697 1.06886 0
M  V30 6913 C 638.706 3.1013 1.54986 0
M  V30 6914 C 637.767 4.18628 0.951279 0
M  V30 6915 C 637 4.94543 2.00655 0
M  V30 6916 O 637.223 4.70629 3.22281 0
M  V30 6917 O 636.157 5.797 1.61962 0
M  V30 6918 H 639.983 3.03087 -0.192892 0
M  V30 6919 H 637.568 1.48537 -0.16038 0
M  V30 6920 H 639.45 3.59816 2.19341 0
M  V30 6921 H 638.125 2.40251 2.16935 0
M  V30 6922 H 637.032 3.73119 0.270773 0
M  V30 6923 H 638.365 4.90763 0.375887 0
M  V30 6924 N 640.017 0.126909 1.57088 0
M  V30 6925 C 640.965 -0.837618 2.16995 0
M  V30 6926 C 641.959 -1.26974 1.12133 0
M  V30 6927 O 643.165 -1.24056 1.30423 0
M  V30 6928 H 639.54 -0.288256 0.694559 0
M  V30 6929 H 641.511 -0.307957 2.96807 0
M  V30 6930 C 640.26 -2.07474 2.79016 0
M  V30 6931 H 639.583 -1.75117 3.59408 0
M  V30 6932 H 641.023 -2.72949 3.24461 0
M  V30 6933 C 639.482 -2.86967 1.76498 0
M  V30 6934 O 640.012 -3.82625 1.22316 0
M  V30 6935 N 638.218 -2.51111 1.46258 0
M  V30 6936 H 637.765 -1.73389 1.90509 0
M  V30 6937 H 637.723 -3.04594 0.779085 0
M  V30 6938 N 641.495 -1.56914 -0.146875 0
M  V30 6939 C 642.442 -1.98275 -1.18134 0
M  V30 6940 C 643.412 -0.850367 -1.42681 0
M  V30 6941 O 644.597 -1.11244 -1.55014 0
M  V30 6942 C 641.737 -2.36861 -2.5098 0
M  V30 6943 C 640.85 -3.63391 -2.33605 0
M  V30 6944 C 639.985 -3.91079 -3.59486 0
M  V30 6945 C 639.024 -5.10879 -3.37149 0
M  V30 6946 N 638.161 -5.34577 -4.55161 0
M  V30 6947 H 643.001 -2.8645 -0.821622 0
M  V30 6948 H 640.538 -1.41718 -0.394248 0
M  V30 6949 H 642.496 -2.57262 -3.28439 0
M  V30 6950 H 641.126 -1.51766 -2.84898 0
M  V30 6951 H 640.178 -3.50766 -1.47199 0
M  V30 6952 H 641.49 -4.51007 -2.13059 0
M  V30 6953 H 640.644 -4.11979 -4.45374 0
M  V30 6954 H 639.383 -3.01885 -3.83036 0
M  V30 6955 H 638.388 -4.89853 -2.49649 0
M  V30 6956 H 639.613 -6.01626 -3.14997 0
M  V30 6957 H 637.559 -4.48337 -4.78884 0
M  V30 6958 H 637.476 -6.16463 -4.37618 0
M  V30 6959 H 638.744 -5.59975 -5.42263 0
M  V30 6960 N 642.974 0.416227 -1.52004 0
M  V30 6961 C 644.39 0.754319 -1.40649 0
M  V30 6962 C 644.59 1.95059 -0.505392 0
M  V30 6963 O 643.646 2.5248 0.0315057 0
M  V30 6964 C 644.959 1.0149 -2.83055 0
M  V30 6965 C 646.507 1.11805 -2.9235 0
M  V30 6966 C 646.982 1.41144 -4.35709 0
M  V30 6967 N 648.473 1.48024 -4.38911 0
M  V30 6968 C 649.208 1.72338 -5.46889 0
M  V30 6969 N 648.704 1.94303 -6.64995 0
M  V30 6970 N 650.497 1.74294 -5.34395 0
M  V30 6971 H 642.648 -0.371324 -2.09129 0
M  V30 6972 H 644.911 -0.103811 -0.942299 0
M  V30 6973 H 644.617 0.208345 -3.51082 0
M  V30 6974 H 644.491 1.93697 -3.23668 0
M  V30 6975 H 646.878 1.91521 -2.24508 0
M  V30 6976 H 646.959 0.17451 -2.55204 0
M  V30 6977 H 646.603 0.619484 -5.04108 0
M  V30 6978 H 646.533 2.36739 -4.70385 0
M  V30 6979 H 649.024 1.32868 -3.53772 0
M  V30 6980 H 649.337 2.12286 -7.43071 0
M  V30 6981 H 647.682 1.91582 -6.68073 0
M  V30 6982 H 650.873 1.56667 -4.41104 0
M  V30 6983 H 651.046 1.92904 -6.18621 0
M  V30 6984 N 644.452 1.42507 0.673017 0
M  V30 6985 C 645.863 1.38347 1.25367 0
M  V30 6986 C 646.214 0.0776327 1.96046 0
M  V30 6987 O 645.339 -0.823571 2.00116 0
M  V30 6988 C 645.934 2.506 2.28002 0
M  V30 6989 C 644.493 2.49767 2.81591 0
M  V30 6990 C 643.64 2.293 1.55938 0
M  V30 6991 H 646.591 1.51695 0.466288 0
M  V30 6992 H 646.612 2.20953 3.09774 0
M  V30 6993 H 646.124 3.45627 1.76532 0
M  V30 6994 H 644.225 1.58563 3.37177 0
M  V30 6995 H 644.338 3.46867 3.30485 0
M  V30 6996 H 642.702 1.77594 1.82572 0
M  V30 6997 H 643.485 3.26385 1.06431 0
M  V30 6998 N 645.93 -0.909495 1.28709 0
M  V30 6999 C 646.84 -2.04558 1.14861 0
M  V30 7000 C 647.856 -1.73842 0.0741621 0
M  V30 7001 O 649.032 -1.99383 0.2843 0
M  V30 7002 C 646.097 -3.36957 0.816148 0
M  V30 7003 C 645.158 -3.81255 1.97341 0
M  V30 7004 C 644.391 -5.07335 1.65671 0
M  V30 7005 O 644.614 -5.67514 0.573053 0
M  V30 7006 O 643.548 -5.47449 2.50167 0
M  V30 7007 H 647.374 -2.19161 2.10243 0
M  V30 7008 H 644.959 -1.03159 1.08068 0
M  V30 7009 H 646.841 -4.16436 0.644873 0
M  V30 7010 H 645.516 -3.2352 -0.107983 0
M  V30 7011 H 644.423 -3.02584 2.19986 0
M  V30 7012 H 645.756 -3.99261 2.87839 0
M  V30 7013 N 647.408 -1.11026 -1.11852 0
M  V30 7014 C 648.318 -0.777252 -2.2135 0
M  V30 7015 C 649.334 0.227821 -1.72502 0
M  V30 7016 O 650.51 0.0650587 -2.01295 0
M  V30 7017 C 647.575 -0.220668 -3.45997 0
M  V30 7018 C 646.636 -1.2838 -4.09655 0
M  V30 7019 C 645.869 -0.753678 -5.28352 0
M  V30 7020 O 646.092 0.417779 -5.68868 0
M  V30 7021 O 645.026 -1.51647 -5.82483 0
M  V30 7022 H 648.852 -1.69141 -2.5224 0
M  V30 7023 H 646.437 -0.885836 -1.20305 0
M  V30 7024 H 648.319 0.0855756 -4.21313 0
M  V30 7025 H 646.994 0.666262 -3.16769 0
M  V30 7026 H 645.901 -1.64299 -3.3609 0
M  V30 7027 H 647.234 -2.14396 -4.43052 0
M  V30 7028 N 648.886 1.2938 -0.899927 0
M  V30 7029 C 650.163 1.9046 -0.445443 0
M  V30 7030 C 650.543 1.81683 1.07492 0
M  V30 7031 O 649.891 1.24371 1.91688 0
M  V30 7032 C 650.101 3.35529 -0.960279 0
M  V30 7033 C 651.449 4.12556 -1.00412 0
M  V30 7034 O 652.473 3.44434 -0.907965 0
M  V30 7035 O 651.332 5.34294 -1.14857 0
M  V30 7036 H 648.426 0.815253 -0.138893 0
M  V30 7037 H 650.972 1.37844 -0.989808 0
M  V30 7038 H 649.744 3.36074 -2.00425 0
M  V30 7039 H 649.367 3.95624 -0.395939 0
M  V30 7040 N 650.364 0.662433 1.43002 0
M  V30 7041 C 651.78 0.330835 1.56133 0
M  V30 7042 C 651.98 -1.16454 1.64441 0
M  V30 7043 O 651.036 -1.94964 1.60453 0
M  V30 7044 C 652.349 1.05029 2.81761 0
M  V30 7045 C 653.897 1.03142 2.95518 0
M  V30 7046 C 654.372 1.73196 4.2399 0
M  V30 7047 N 655.863 1.70004 4.30875 0
M  V30 7048 C 656.598 2.21074 5.29069 0
M  V30 7049 N 656.094 2.80473 6.33488 0
M  V30 7050 N 657.887 2.1152 5.20784 0
M  V30 7051 H 650.038 1.63272 1.35853 0
M  V30 7052 H 652.301 0.687149 0.653092 0
M  V30 7053 H 652.007 2.10542 2.81718 0
M  V30 7054 H 651.881 0.607664 3.72273 0
M  V30 7055 H 654.268 -0.0153339 2.95096 0
M  V30 7056 H 654.349 1.51282 2.0627 0
M  V30 7057 H 653.993 2.77833 4.25172 0
M  V30 7058 H 653.923 1.22515 5.1215 0
M  V30 7059 H 656.414 1.26667 3.56039 0
M  V30 7060 H 656.727 3.17094 7.04749 0
M  V30 7061 H 655.072 2.84538 6.34085 0
M  V30 7062 H 658.263 1.64814 4.38126 0
M  V30 7063 H 658.436 2.51629 5.97149 0
M  V30 7064 N 651.842 -1.52309 0.404946 0
M  V30 7065 C 652.752 -2.30634 -0.429555 0
M  V30 7066 C 653.768 -1.38187 -1.05737 0
M  V30 7067 O 654.944 -1.71261 -1.05979 0
M  V30 7068 C 652.009 -3.10947 -1.53339 0
M  V30 7069 C 651.07 -4.19126 -0.929065 0
M  V30 7070 C 650.303 -4.95601 -1.9803 0
M  V30 7071 O 650.526 -4.72331 -3.1978 0
M  V30 7072 O 649.46 -5.80551 -1.58886 0
M  V30 7073 H 653.286 -3.0298 0.208963 0
M  V30 7074 H 650.871 -1.4845 0.168255 0
M  V30 7075 H 652.753 -3.60974 -2.1743 0
M  V30 7076 H 651.428 -2.41399 -2.15658 0
M  V30 7077 H 650.335 -3.73257 -0.250982 0
M  V30 7078 H 651.668 -4.90955 -0.349855 0
M  V30 7079 N 653.32 -0.135238 -1.57019 0
M  V30 7080 C 654.545 0.529343 -2.00531 0
M  V30 7081 C 654.97 1.58391 -1.01459 0
M  V30 7082 O 654.328 1.81296 0.0113986 0
M  V30 7083 C 654.376 1.11748 -3.42848 0
M  V30 7084 O 653.48 2.23267 -3.46736 0
M  V30 7085 H 652.821 0.130669 -0.651016 0
M  V30 7086 H 655.351 -0.228503 -2.0332 0
M  V30 7087 H 655.361 1.44905 -3.81401 0
M  V30 7088 H 654.036 0.345147 -4.14465 0
M  V30 7089 H 652.613 1.91428 -3.20015 0
M  V30 7090 N 654.798 1.5699 0.138552 0
M  V30 7091 C 656.046 1.83446 0.848053 0
M  V30 7092 C 656.367 0.71744 1.81322 0
M  V30 7093 O 655.637 -0.260228 1.94164 0
M  V30 7094 H 654.217 0.676792 0.316166 0
M  V30 7095 H 656.879 1.94462 0.130538 0
M  V30 7096 H 655.975 2.78677 1.40518 0
M  V30 7097 N 656.276 -0.40816 1.52223 0
M  V30 7098 C 657.692 -0.74685 1.41047 0
M  V30 7099 C 657.892 -1.94788 0.51573 0
M  V30 7100 O 656.948 -2.52494 -0.0181156 0
M  V30 7101 C 658.261 -0.999878 2.83589 0
M  V30 7102 C 659.809 -1.10253 2.92939 0
M  V30 7103 C 660.284 -1.38832 4.36451 0
M  V30 7104 N 661.775 -1.45694 4.3969 0
M  V30 7105 C 662.51 -1.69435 5.47795 0
M  V30 7106 N 662.006 -1.90774 6.66016 0
M  V30 7107 N 663.799 -1.71458 5.35312 0
M  V30 7108 H 655.95 0.382409 2.08929 0
M  V30 7109 H 658.213 0.108807 0.941735 0
M  V30 7110 H 657.919 -0.189723 3.51188 0
M  V30 7111 H 657.793 -1.91978 3.24691 0
M  V30 7112 H 660.18 -1.90328 2.2552 0
M  V30 7113 H 660.261 -0.160973 2.55293 0
M  V30 7114 H 659.905 -0.592741 5.04429 0
M  V30 7115 H 659.835 -2.34241 4.71634 0
M  V30 7116 H 662.326 -1.3099 3.54472 0
M  V30 7117 H 662.639 -2.08342 7.44186 0
M  V30 7118 H 660.984 -1.88037 6.69079 0
M  V30 7119 H 664.175 -1.54326 4.41929 0
M  V30 7120 H 664.348 -1.89621 6.19635 0
M  V30 7121 N 657.755 -1.42862 -0.66545 0
M  V30 7122 C 658.702 -1.4707 -1.77874 0
M  V30 7123 C 659.672 -0.321654 -1.62956 0
M  V30 7124 O 660.857 -0.52707 -1.83376 0
M  V30 7125 C 657.997 -1.38788 -3.15962 0
M  V30 7126 C 657.11 -2.63801 -3.42101 0
M  V30 7127 C 656.245 -2.47594 -4.69969 0
M  V30 7128 C 655.284 -3.67936 -4.89172 0
M  V30 7129 N 654.421 -3.50614 -6.08288 0
M  V30 7130 H 659.261 -2.42204 -1.73613 0
M  V30 7131 H 656.798 -1.20239 -0.847401 0
M  V30 7132 H 658.756 -1.31982 -3.95773 0
M  V30 7133 H 657.386 -0.472431 -3.19324 0
M  V30 7134 H 656.438 -2.80935 -2.56475 0
M  V30 7135 H 657.75 -3.53228 -3.52181 0
M  V30 7136 H 656.904 -2.38427 -5.57886 0
M  V30 7137 H 655.643 -1.55672 -4.62188 0
M  V30 7138 H 654.648 -3.77525 -3.99694 0
M  V30 7139 H 655.873 -4.60851 -4.98792 0
M  V30 7140 H 653.819 -2.61417 -6.01662 0
M  V30 7141 H 653.736 -4.33634 -6.19272 0
M  V30 7142 H 655.004 -3.45276 -6.98859 0
M  V30 7143 N 659.233 0.902656 -1.29189 0
M  V30 7144 C 660.196 1.98797 -1.14071 0
M  V30 7145 C 661.196 1.60615 -0.0770549 0
M  V30 7146 O 662.386 1.71165 -0.323753 0
M  V30 7147 C 659.518 3.32688 -0.743739 0
M  V30 7148 H 660.711 2.13637 -2.10473 0
M  V30 7149 H 658.264 1.08678 -1.12334 0
M  V30 7150 H 658.999 3.23549 0.220554 0
M  V30 7151 H 658.784 3.61765 -1.51223 0
M  V30 7152 H 660.274 4.12337 -0.660935 0
M  V30 7153 N 660.711 1.11618 1.11262 0
M  V30 7154 C 661.936 0.889013 1.8738 0
M  V30 7155 C 662.361 -0.555884 1.79698 0
M  V30 7156 O 661.719 -1.39272 1.16073 0
M  V30 7157 C 661.767 1.35759 3.34069 0
M  V30 7158 O 660.871 0.530499 4.08974 0
M  V30 7159 H 660.212 0.320082 0.581759 0
M  V30 7160 H 662.742 1.48611 1.40627 0
M  V30 7161 H 662.752 1.35291 3.84916 0
M  V30 7162 H 661.427 2.40973 3.38976 0
M  V30 7163 H 660.004 0.601439 3.68018 0
M  V30 7164 N 662.189 -1.289 0.906776 0
M  V30 7165 C 663.414 -1.99939 0.551303 0
M  V30 7166 C 663.839 -1.67366 -0.858496 0
M  V30 7167 O 663.197 -0.902176 -1.57259 0
M  V30 7168 C 663.245 -3.52523 0.758937 0
M  V30 7169 O 662.349 -4.11983 -0.185308 0
M  V30 7170 H 661.69 -0.628376 0.214568 0
M  V30 7171 H 664.22 -1.64225 1.2203 0
M  V30 7172 H 664.23 -4.02522 0.666329 0
M  V30 7173 H 662.905 -3.75566 1.78671 0
M  V30 7174 H 661.482 -3.72873 -0.0445577 0
M  V30 7175 N 663.667 -0.670007 -1.42649 0
M  V30 7176 C 664.895 -0.19854 -2.05945 0
M  V30 7177 C 665.31 1.14243 -1.50313 0
M  V30 7178 O 664.667 1.70872 -0.641027 0
M  V30 7179 C 664.718 -0.11966 -3.61302 0
M  V30 7180 O 664.439 -1.40764 -4.1487 0
M  V30 7181 C 665.94 0.375878 -4.41704 0
M  V30 7182 H 663.16 -0.0976894 -0.663851 0
M  V30 7183 H 665.704 -0.915392 -1.82868 0
M  V30 7184 H 663.859 0.547851 -3.83507 0
M  V30 7185 H 664.273 -1.27784 -5.08696 0
M  V30 7186 H 665.747 0.379988 -5.50691 0
M  V30 7187 H 666.224 1.41028 -4.15942 0
M  V30 7188 H 666.83 -0.259727 -4.24506 0
M  V30 7189 N 665.145 1.52092 -0.413018 0
M  V30 7190 C 666.108 2.25706 0.398687 0
M  V30 7191 C 667.108 1.28221 0.970368 0
M  V30 7192 O 668.298 1.52131 0.848635 0
M  V30 7193 C 665.43 3.03029 1.5616 0
M  V30 7194 H 666.623 2.98888 -0.246131 0
M  V30 7195 H 664.176 1.5542 -0.165622 0
M  V30 7196 H 664.911 2.34205 2.24317 0
M  V30 7197 H 664.696 3.74606 1.15812 0
M  V30 7198 H 666.186 3.58857 2.13569 0
M  V30 7199 N 666.623 0.143563 1.56945 0
M  V30 7200 C 667.57 -0.797433 2.16586 0
M  V30 7201 C 668.54 -1.24654 1.09775 0
M  V30 7202 O 669.725 -1.31968 1.37801 0
M  V30 7203 C 666.865 -2.03253 2.78895 0
M  V30 7204 C 665.978 -1.62954 4.00087 0
M  V30 7205 C 665.113 -2.81617 4.50406 0
M  V30 7206 C 664.152 -2.37675 5.64072 0
M  V30 7207 N 663.289 -3.49335 6.09023 0
M  V30 7208 H 668.129 -0.282023 2.96662 0
M  V30 7209 H 665.666 -0.127494 1.46546 0
M  V30 7210 H 667.624 -2.75653 3.13163 0
M  V30 7211 H 666.254 -2.52211 2.01469 0
M  V30 7212 H 665.306 -0.803322 3.71821 0
M  V30 7213 H 666.618 -1.26679 4.82446 0
M  V30 7214 H 665.772 -3.62212 4.86711 0
M  V30 7215 H 664.511 -3.21134 3.67048 0
M  V30 7216 H 663.516 -1.55519 5.27346 0
M  V30 7217 H 664.741 -1.99247 6.49213 0
M  V30 7218 H 662.687 -3.8848 5.28601 0
M  V30 7219 H 662.604 -3.17064 6.86299 0
M  V30 7220 H 663.872 -4.30297 6.49973 0
M  V30 7221 N 668.101 -1.57061 -0.130224 0
M  V30 7222 C 669.347 -1.8453 -0.841216 0
M  V30 7223 C 669.68 -0.727666 -1.80052 0
M  V30 7224 O 668.955 0.267419 -1.92653 0
M  V30 7225 C 669.238 -3.22553 -1.60099 0
M  V30 7226 C 669.091 -4.44901 -0.662048 0
M  V30 7227 C 670.41 -3.58003 -2.55973 0
M  V30 7228 H 667.529 -0.671215 -0.304366 0
M  V30 7229 H 670.171 -1.89705 -0.105821 0
M  V30 7230 H 668.321 -3.18272 -2.22789 0
M  V30 7231 H 669.993 -4.61278 -0.0448559 0
M  V30 7232 H 668.236 -4.33791 0.0272253 0
M  V30 7233 H 668.907 -5.3812 -1.23006 0
M  V30 7234 H 671.383 -3.63002 -2.03393 0
M  V30 7235 H 670.259 -4.55576 -3.06172 0
M  V30 7236 H 670.52 -2.84833 -3.38116 0
M  V30 7237 N 669.579 0.400081 -1.52437 0
M  V30 7238 C 670.99 0.97851 -1.59003 0
M  V30 7239 C 671.341 1.91293 -0.436068 0
M  V30 7240 O 670.466 2.1183 0.442365 0
M  V30 7241 C 671.061 1.78145 -2.88184 0
M  V30 7242 C 669.62 2.30976 -2.97199 0
M  V30 7243 C 668.767 1.11212 -2.54022 0
M  V30 7244 H 671.718 0.180002 -1.57676 0
M  V30 7245 H 671.739 2.63968 -2.74046 0
M  V30 7246 H 671.251 1.1011 -3.72152 0
M  V30 7247 H 669.352 3.02355 -2.17744 0
M  V30 7248 H 669.465 2.61221 -4.01622 0
M  V30 7249 H 667.829 1.46882 -2.08081 0
M  V30 7250 H 668.612 0.447307 -3.40373 0
M  V30 7251 N 671.057 1.43213 0.657864 0
M  V30 7252 C 672.02 1.47687 1.75275 0
M  V30 7253 C 673.02 0.362179 1.56668 0
M  V30 7254 O 674.21 0.623734 1.62651 0
M  V30 7255 C 671.342 1.32497 3.14098 0
M  V30 7256 H 672.535 2.4519 1.7269 0
M  V30 7257 H 670.088 1.2991 0.869087 0
M  V30 7258 H 670.823 0.359831 3.22298 0
M  V30 7259 H 670.608 2.13299 3.29008 0
M  V30 7260 H 672.098 1.38549 3.93946 0
M  V30 7261 N 672.536 -0.895792 1.29666 0
M  V30 7262 C 673.761 -1.68528 1.20885 0
M  V30 7263 C 674.186 -1.8673 -0.226595 0
M  V30 7264 O 673.544 -1.39044 -1.16347 0
M  V30 7265 C 673.592 -3.04512 1.93144 0
M  V30 7266 O 672.696 -3.92963 1.25115 0
M  V30 7267 H 672.037 -0.515371 0.418675 0
M  V30 7268 H 674.567 -1.11878 1.71302 0
M  V30 7269 H 674.577 -3.54628 2.0175 0
M  V30 7270 H 673.252 -2.90582 2.97548 0
M  V30 7271 H 671.829 -3.51399 1.24794 0
M  V30 7272 N 674.014 -1.12206 -1.10668 0
M  V30 7273 C 675.425 -0.890657 -1.64086 0
M  V30 7274 C 675.776 0.575502 -1.8757 0
M  V30 7275 O 674.901 1.4394 -1.61587 0
M  V30 7276 C 675.496 -1.61029 -2.98085 0
M  V30 7277 C 674.055 -1.4251 -3.48379 0
M  V30 7278 C 673.202 -1.64778 -2.23033 0
M  V30 7279 H 676.153 -1.27718 -0.94201 0
M  V30 7280 H 676.174 -1.05993 -3.65439 0
M  V30 7281 H 675.686 -2.67735 -2.80962 0
M  V30 7282 H 673.787 -0.380497 -3.70652 0
M  V30 7283 H 673.9 -2.17959 -4.26651 0
M  V30 7284 H 672.264 -1.07171 -2.31055 0
M  V30 7285 H 673.047 -2.72776 -2.08443 0
M  V30 7286 N 675.492 1.28418 -0.913599 0
M  V30 7287 C 676.422 2.29713 -0.418847 0
M  V30 7288 C 677.403 1.62165 0.513469 0
M  V30 7289 O 678.588 1.89576 0.421235 0
M  V30 7290 C 675.718 3.45612 0.342042 0
M  V30 7291 C 674.672 4.25056 -0.501123 0
M  V30 7292 C 673.998 5.3329 0.388097 0
M  V30 7293 C 675.298 4.91814 -1.75831 0
M  V30 7294 H 676.992 2.71346 -1.26538 0
M  V30 7295 H 674.538 1.30446 -0.609903 0
M  V30 7296 H 676.491 4.15562 0.699 0
M  V30 7297 H 675.215 3.02858 1.22248 0
M  V30 7298 H 673.874 3.56833 -0.840598 0
M  V30 7299 H 673.522 4.8678 1.26707 0
M  V30 7300 H 673.222 5.87347 -0.172459 0
M  V30 7301 H 674.746 6.06088 0.74094 0
M  V30 7302 H 676.16 5.54126 -1.47026 0
M  V30 7303 H 674.557 5.55866 -2.26126 0
M  V30 7304 H 675.627 4.16313 -2.4862 0
M  V30 7305 N 676.97 0.677563 1.42291 0
M  V30 7306 C 678.381 0.277912 1.8462 0
M  V30 7307 C 678.732 -1.18048 1.56714 0
M  V30 7308 O 677.857 -1.90404 1.02836 0
M  V30 7309 C 678.452 0.497619 3.35126 0
M  V30 7310 C 677.011 0.152063 3.76093 0
M  V30 7311 C 676.158 0.78872 2.65847 0
M  V30 7312 H 679.109 0.879527 1.32098 0
M  V30 7313 H 679.13 -0.24939 3.79682 0
M  V30 7314 H 678.642 1.55913 3.55405 0
M  V30 7315 H 676.743 -0.905896 3.6142 0
M  V30 7316 H 676.856 0.594514 4.75397 0
M  V30 7317 H 675.22 0.219813 2.5375 0
M  V30 7318 H 676.003 1.85374 2.88949 0
M  V30 7319 N 678.448 -1.51871 0.421078 0
M  V30 7320 C 679.696 -2.01539 -0.150492 0
M  V30 7321 C 680.017 -1.30803 -1.44623 0
M  V30 7322 O 679.287 -0.437568 -1.90951 0
M  V30 7323 H 677.867 -0.744698 -0.0586041 0
M  V30 7324 H 680.529 -1.8668 0.560059 0
M  V30 7325 H 679.625 -3.10264 -0.338068 0
M  V30 7326 N 679.926 -0.151884 -1.56866 0
M  V30 7327 C 680.856 0.781943 -2.20018 0
M  V30 7328 C 681.837 1.25347 -1.14987 0
M  V30 7329 O 683.022 1.31015 -1.43348 0
M  V30 7330 C 680.152 2.01928 -2.82564 0
M  V30 7331 C 679.106 1.68434 -3.93464 0
M  V30 7332 C 678.432 2.99472 -4.42968 0
M  V30 7333 C 679.732 0.927244 -5.14003 0
M  V30 7334 H 681.426 0.255607 -2.98307 0
M  V30 7335 H 678.972 0.121502 -1.43486 0
M  V30 7336 H 680.925 2.67741 -3.25411 0
M  V30 7337 H 679.649 2.56943 -2.01614 0
M  V30 7338 H 678.308 1.04998 -3.51242 0
M  V30 7339 H 677.956 3.52488 -3.58834 0
M  V30 7340 H 677.656 2.77823 -5.17772 0
M  V30 7341 H 679.18 3.66348 -4.88489 0
M  V30 7342 H 680.594 1.48756 -5.53665 0
M  V30 7343 H 678.991 0.810513 -5.94601 0
M  V30 7344 H 680.061 -0.0801163 -4.84834 0
M  V30 7345 N 681.404 1.57128 0.121893 0
M  V30 7346 C 682.314 2.03425 1.16857 0
M  V30 7347 C 683.33 0.954108 1.45509 0
M  V30 7348 O 684.506 1.26541 1.56682 0
M  V30 7349 C 681.571 2.42685 2.47599 0
M  V30 7350 C 680.632 3.64767 2.2637 0
M  V30 7351 C 679.865 4.02145 3.50878 0
M  V30 7352 O 680.088 3.39897 4.58068 0
M  V30 7353 O 679.022 4.95262 3.42051 0
M  V30 7354 H 682.848 2.92825 0.80544 0
M  V30 7355 H 680.433 1.45654 0.332477 0
M  V30 7356 H 682.315 2.68684 3.24634 0
M  V30 7357 H 680.99 1.56432 2.83392 0
M  V30 7358 H 679.897 3.43922 1.47203 0
M  V30 7359 H 681.23 4.51716 1.95482 0
M  V30 7360 N 682.882 -0.391992 1.52647 0
M  V30 7361 C 684.298 -0.731848 1.41831 0
M  V30 7362 C 684.498 -1.9423 0.536361 0
M  V30 7363 O 683.554 -2.52499 0.00866571 0
M  V30 7364 C 684.867 -0.969743 2.84634 0
M  V30 7365 C 686.415 -1.0714 2.94092 0
M  V30 7366 C 686.89 -1.34195 4.37899 0
M  V30 7367 N 688.381 -1.41023 4.41211 0
M  V30 7368 C 689.116 -1.63616 5.49561 0
M  V30 7369 N 688.612 -1.83699 6.68002 0
M  V30 7370 N 690.405 -1.65771 5.371 0
M  V30 7371 H 682.556 0.404547 2.08512 0
M  V30 7372 H 684.819 0.11879 0.940528 0
M  V30 7373 H 684.525 -0.152465 3.51369 0
M  V30 7374 H 684.399 -1.88523 3.26709 0
M  V30 7375 H 686.786 -1.87925 2.27526 0
M  V30 7376 H 686.867 -0.133887 2.55449 0
M  V30 7377 H 686.511 -0.539207 5.0503 0
M  V30 7378 H 686.441 -2.29226 4.74092 0
M  V30 7379 H 688.932 -1.27223 3.55841 0
M  V30 7380 H 689.245 -2.00437 7.46354 0
M  V30 7381 H 687.59 -1.8093 6.71036 0
M  V30 7382 H 690.781 -1.4963 4.43541 0
M  V30 7383 H 690.954 -1.83038 6.21612 0
M  V30 7384 N 684.36 -1.4356 -0.65026 0
M  V30 7385 C 685.307 -1.48948 -1.76304 0
M  V30 7386 C 686.277 -0.338919 -1.62605 0
M  V30 7387 O 687.462 -0.54649 -1.82806 0
M  V30 7388 C 684.602 -1.42131 -3.14472 0
M  V30 7389 C 683.715 -2.67415 -3.39284 0
M  V30 7390 C 682.85 -2.52565 -4.67316 0
M  V30 7391 C 681.889 -3.73103 -4.85243 0
M  V30 7392 N 681.026 -3.57046 -6.04535 0
M  V30 7393 H 685.866 -2.44032 -1.71034 0
M  V30 7394 H 683.403 -1.21131 -0.834601 0
M  V30 7395 H 685.361 -1.36172 -3.94351 0
M  V30 7396 H 683.991 -0.506273 -3.18805 0
M  V30 7397 H 683.043 -2.8364 -2.53481 0
M  V30 7398 H 684.355 -3.56943 -3.48415 0
M  V30 7399 H 683.509 -2.44331 -5.55326 0
M  V30 7400 H 682.248 -1.60566 -4.60511 0
M  V30 7401 H 681.253 -3.81743 -3.95667 0
M  V30 7402 H 682.478 -4.66115 -4.93876 0
M  V30 7403 H 680.424 -2.67783 -5.98856 0
M  V30 7404 H 680.341 -4.40178 -6.14638 0
M  V30 7405 H 681.609 -3.52669 -6.95158 0
M  V30 7406 N 685.838 0.888903 -1.30139 0
M  V30 7407 C 686.785 1.99422 -1.16188 0
M  V30 7408 C 687.755 1.66017 -0.0523869 0
M  V30 7409 O 688.94 1.89506 -0.221864 0
M  V30 7410 C 686.08 3.34325 -0.855612 0
M  V30 7411 C 685.193 3.80445 -2.0466 0
M  V30 7412 C 684.328 5.03975 -1.67876 0
M  V30 7413 C 683.367 5.42492 -2.83493 0
M  V30 7414 N 682.504 6.57206 -2.47032 0
M  V30 7415 H 687.344 2.10687 -2.10749 0
M  V30 7416 H 684.881 1.03165 -1.04859 0
M  V30 7417 H 686.839 4.11968 -0.658681 0
M  V30 7418 H 685.469 3.22756 0.0531155 0
M  V30 7419 H 684.521 2.98745 -2.3549 0
M  V30 7420 H 685.833 4.04933 -2.91257 0
M  V30 7421 H 684.987 5.89232 -1.44535 0
M  V30 7422 H 683.726 4.8135 -0.784431 0
M  V30 7423 H 682.731 4.55764 -3.07505 0
M  V30 7424 H 683.956 5.67093 -3.73607 0
M  V30 7425 H 681.902 6.36164 -1.601 0
M  V30 7426 H 681.819 6.81543 -3.27161 0
M  V30 7427 H 683.087 7.45704 -2.27038 0
M  V30 7428 N 687.317 1.12792 1.10072 0
M  V30 7429 C 688.545 0.908506 1.85886 0
M  V30 7430 C 688.96 -0.542408 1.80841 0
M  V30 7431 O 688.317 -1.37517 1.1998 0
M  V30 7432 C 688.368 1.37973 3.34134 0
M  V30 7433 O 688.089 2.77378 3.39106 0
M  V30 7434 C 689.59 1.1978 4.26811 0
M  V30 7435 H 686.81 0.3244 0.587372 0
M  V30 7436 H 689.354 1.49882 1.39125 0
M  V30 7437 H 687.509 0.832566 3.78348 0
M  V30 7438 H 687.923 2.98144 4.31521 0
M  V30 7439 H 689.397 1.57635 5.29014 0
M  V30 7440 H 689.874 0.138768 4.38981 0
M  V30 7441 H 690.48 1.73266 3.88406 0
M  V30 7442 N 688.795 -1.27931 0.920396 0
M  V30 7443 C 690.023 -1.98805 0.573087 0
M  V30 7444 C 690.438 -1.68724 -0.847201 0
M  V30 7445 O 689.795 -0.943699 -1.56207 0
M  V30 7446 C 689.846 -3.52971 0.780633 0
M  V30 7447 O 689.567 -3.81994 2.14504 0
M  V30 7448 C 691.068 -4.411 0.44105 0
M  V30 7449 H 688.288 -0.634651 0.21785 0
M  V30 7450 H 690.832 -1.62965 1.23542 0
M  V30 7451 H 688.987 -3.87048 0.165204 0
M  V30 7452 H 689.401 -4.76609 2.18962 0
M  V30 7453 H 690.875 -5.48312 0.637006 0
M  V30 7454 H 691.352 -4.34758 -0.62306 0
M  V30 7455 H 691.958 -4.12532 1.0343 0
M  V30 7456 N 690.273 -0.685099 -1.4193 0
M  V30 7457 C 691.684 -0.287699 -1.8447 0
M  V30 7458 C 692.035 1.17215 -1.57338 0
M  V30 7459 O 691.16 1.89856 -1.03845 0
M  V30 7460 C 691.755 -0.515385 -3.34857 0
M  V30 7461 C 690.314 -0.172006 -3.76007 0
M  V30 7462 C 689.461 -0.802808 -2.65425 0
M  V30 7463 H 692.412 -0.88652 -1.3163 0
M  V30 7464 H 692.433 0.229251 -3.79809 0
M  V30 7465 H 691.945 -1.57796 -3.54573 0
M  V30 7466 H 690.046 0.886716 -3.61895 0
M  V30 7467 H 690.159 -0.619717 -4.75075 0
M  V30 7468 H 688.523 -0.233267 -2.5363 0
M  V30 7469 H 689.306 -1.86904 -2.87961 0
M  V30 7470 N 691.751 1.51645 -0.429126 0
M  V30 7471 C 692.979 2.06433 0.138994 0
M  V30 7472 C 693.394 1.29735 1.37165 0
M  V30 7473 O 692.751 0.354638 1.79021 0
M  V30 7474 C 692.802 3.58439 0.469452 0
M  V30 7475 O 692.523 4.32238 -0.714273 0
M  V30 7476 C 694.024 4.29712 1.08914 0
M  V30 7477 H 691.244 0.6709 0.0115608 0
M  V30 7478 H 693.788 1.9532 -0.605843 0
M  V30 7479 H 691.943 3.69494 1.16419 0
M  V30 7480 H 692.357 5.22704 -0.433633 0
M  V30 7481 H 693.831 5.37182 1.27042 0
M  V30 7482 H 694.308 3.87473 2.06788 0
M  V30 7483 H 694.914 4.2308 0.434028 0
M  V30 7484 N 693.229 0.160201 1.56784 0
M  V30 7485 C 694.64 -0.358417 1.83227 0
M  V30 7486 C 694.991 -1.63831 1.07952 0
M  V30 7487 O 694.116 -2.13885 0.328995 0
M  V30 7488 C 694.711 -0.657058 3.32368 0
M  V30 7489 C 693.27 -1.12015 3.59346 0
M  V30 7490 C 692.417 -0.15015 2.76893 0
M  V30 7491 H 695.368 0.384669 1.53967 0
M  V30 7492 H 695.389 -1.51033 3.49241 0
M  V30 7493 H 694.901 0.274647 3.87127 0
M  V30 7494 H 693.002 -2.06734 3.09987 0
M  V30 7495 H 693.115 -1.037 4.67743 0
M  V30 7496 H 691.479 -0.645361 2.46388 0
M  V30 7497 H 692.262 0.775379 3.34429 0
M  V30 7498 N 694.707 -1.5719 -0.113559 0
M  V30 7499 C 695.932 -1.89702 -0.838336 0
M  V30 7500 C 696.357 -0.752679 -1.72384 0
M  V30 7501 O 695.715 0.296575 -1.78858 0
M  V30 7502 C 695.763 -3.20989 -1.64312 0
M  V30 7503 O 694.867 -3.07278 -2.75053 0
M  V30 7504 H 694.208 -0.622339 -0.231496 0
M  V30 7505 H 696.738 -2.04382 -0.0943228 0
M  V30 7506 H 696.748 -3.53843 -2.03123 0
M  V30 7507 H 695.423 -4.03869 -0.993119 0
M  V30 7508 H 694 -2.85901 -2.39406 0
M  V30 7509 N 696.185 0.383891 -1.52853 0
M  V30 7510 C 697.413 1.1495 -1.7203 0
M  V30 7511 C 697.828 1.83578 -0.440957 0
M  V30 7512 O 697.185 1.72872 0.584925 0
M  V30 7513 C 697.236 2.19368 -2.87333 0
M  V30 7514 O 696.957 1.53536 -4.10315 0
M  V30 7515 C 698.458 3.08616 -3.18231 0
M  V30 7516 H 695.678 0.344445 -0.575846 0
M  V30 7517 H 698.222 0.448397 -1.99524 0
M  V30 7518 H 696.377 2.85105 -2.62286 0
M  V30 7519 H 696.791 2.2296 -4.74752 0
M  V30 7520 H 698.265 3.77902 -4.02361 0
M  V30 7521 H 698.742 3.72409 -2.32826 0
M  V30 7522 H 699.348 2.48518 -3.45136 0
M  V30 7523 N 697.663 1.43903 0.642637 0
M  V30 7524 C 698.611 1.50164 1.77634 0
M  V30 7525 C 699.605 0.374294 1.65213 0
M  V30 7526 O 700.811 0.548748 1.71431 0
M  V30 7527 H 697.186 0.470974 0.586249 0
M  V30 7528 H 699.157 2.45603 1.69474 0
M  V30 7529 C 697.906 1.45196 3.15933 0
M  V30 7530 H 697.229 2.31253 3.26132 0
M  V30 7531 H 698.669 1.53638 3.95185 0
M  V30 7532 C 697.128 0.171043 3.36466 0
M  V30 7533 O 697.658 -0.763413 3.94379 0
M  V30 7534 N 695.864 0.077847 2.90496 0
M  V30 7535 H 695.411 0.8391 2.43551 0
M  V30 7536 H 695.369 -0.778473 3.0461 0
M  V30 7537 N 699.141 -0.881989 1.30609 0
M  V30 7538 C 700.366 -1.67236 1.22665 0
M  V30 7539 C 700.791 -1.8696 -0.206777 0
M  V30 7540 O 700.149 -1.4027 -1.14865 0
M  V30 7541 C 700.197 -3.02446 1.96363 0
M  V30 7542 O 699.301 -3.91614 1.29276 0
M  V30 7543 H 698.642 -0.510902 0.424117 0
M  V30 7544 H 701.172 -1.10055 1.72479 0
M  V30 7545 H 701.182 -3.52468 2.055 0
M  V30 7546 H 699.857 -2.8741 3.00613 0
M  V30 7547 H 698.434 -3.50055 1.28514 0
M  V30 7548 N 700.619 -1.13374 -1.09472 0
M  V30 7549 C 701.865 -0.896516 -1.81908 0
M  V30 7550 C 702.198 0.575933 -1.85463 0
M  V30 7551 O 701.473 1.42618 -1.32251 0
M  V30 7552 C 701.756 -1.48445 -3.28079 0
M  V30 7553 C 701.609 -3.02598 -3.32798 0
M  V30 7554 C 702.928 -1.15226 -4.24748 0
M  V30 7555 H 700.047 -0.327127 -0.660422 0
M  V30 7556 H 702.689 -1.40195 -1.2824 0
M  V30 7557 H 700.839 -1.0546 -3.73912 0
M  V30 7558 H 702.511 -3.54335 -2.95372 0
M  V30 7559 H 700.754 -3.37613 -2.72397 0
M  V30 7560 H 701.425 -3.38835 -4.3577 0
M  V30 7561 H 703.901 -1.52369 -3.87199 0
M  V30 7562 H 702.777 -1.59012 -5.25363 0
M  V30 7563 H 703.038 -0.0658891 -4.42051 0
M  V30 7564 N 702.098 1.27442 -0.927168 0
M  V30 7565 C 703.028 2.29256 -0.443188 0
M  V30 7566 C 704.009 1.62701 0.49624 0
M  V30 7567 O 705.194 1.90013 0.401105 0
M  V30 7568 C 702.324 3.45955 0.305366 0
M  V30 7569 C 701.278 4.24501 -0.546178 0
M  V30 7570 C 700.604 5.33671 0.331512 0
M  V30 7571 C 701.904 4.89921 -1.81037 0
M  V30 7572 H 703.598 2.69988 -1.29409 0
M  V30 7573 H 701.144 1.29792 -0.623705 0
M  V30 7574 H 703.097 4.1628 0.654885 0
M  V30 7575 H 701.821 3.04138 1.19029 0
M  V30 7576 H 700.48 3.55921 -0.878398 0
M  V30 7577 H 700.128 4.88096 1.21537 0
M  V30 7578 H 699.828 5.87131 -0.234746 0
M  V30 7579 H 701.352 6.0684 0.676614 0
M  V30 7580 H 702.766 5.52536 -1.52895 0
M  V30 7581 H 701.163 5.53436 -2.32009 0
M  V30 7582 H 702.233 4.13652 -2.53021 0
M  V30 7583 N 703.576 0.692616 1.41565 0
M  V30 7584 C 704.801 0.229776 2.06123 0
M  V30 7585 C 705.226 -1.11119 1.5177 0
M  V30 7586 O 704.584 -1.69498 0.643444 0
M  V30 7587 C 704.632 0.19469 3.60074 0
M  V30 7588 O 703.736 -0.831366 4.03933 0
M  V30 7589 H 703.077 0.113002 0.654314 0
M  V30 7590 H 705.607 0.946645 1.81383 0
M  V30 7591 H 705.617 0.0245487 4.07993 0
M  V30 7592 H 704.292 1.17339 3.99004 0
M  V30 7593 H 702.869 -0.630819 3.67526 0
M  V30 7594 N 705.054 -1.51416 0.437162 0
M  V30 7595 C 706.282 -2.06503 -0.128045 0
M  V30 7596 C 706.697 -1.30461 -1.36475 0
M  V30 7597 O 706.054 -0.364127 -1.78831 0
M  V30 7598 C 706.105 -3.58683 -0.450437 0
M  V30 7599 O 705.826 -4.31853 0.737186 0
M  V30 7600 C 707.327 -4.30284 -1.06633 0
M  V30 7601 H 704.547 -0.670952 -0.00800269 0
M  V30 7602 H 707.091 -1.94996 0.616193 0
M  V30 7603 H 705.246 -3.70106 -1.14457 0
M  V30 7604 H 705.66 -5.22467 0.461347 0
M  V30 7605 H 707.134 -5.37848 -1.24191 0
M  V30 7606 H 707.611 -3.88564 -2.0473 0
M  V30 7607 H 708.217 -4.23304 -0.411585 0
M  V30 7608 N 706.532 -0.168513 -1.56696 0
M  V30 7609 C 707.757 0.486688 -2.01609 0
M  V30 7610 C 708.182 1.56203 -1.04796 0
M  V30 7611 O 707.54 1.8128 -0.0270596 0
M  V30 7612 C 707.588 1.04451 -3.45141 0
M  V30 7613 O 706.692 2.15862 -3.51393 0
M  V30 7614 H 706.033 0.116831 -0.653641 0
M  V30 7615 H 708.563 -0.271579 -2.0279 0
M  V30 7616 H 708.573 1.36782 -3.84389 0
M  V30 7617 H 707.248 0.257155 -4.15104 0
M  V30 7618 H 705.825 1.84597 -3.24004 0
M  V30 7619 N 708.01 1.57248 0.105221 0
M  V30 7620 C 709.238 1.89768 0.82437 0
M  V30 7621 C 709.653 0.761192 1.72775 0
M  V30 7622 O 709.01 -0.267342 1.80531 0
M  V30 7623 C 709.061 3.2184 1.64625 0
M  V30 7624 O 708.782 4.31115 0.779217 0
M  V30 7625 C 710.283 3.68155 2.46935 0
M  V30 7626 H 707.503 0.628031 0.236259 0
M  V30 7627 H 710.047 2.04321 0.085485 0
M  V30 7628 H 708.202 3.08915 2.33775 0
M  V30 7629 H 708.616 5.06897 1.34745 0
M  V30 7630 H 710.09 4.6329 3.00111 0
M  V30 7631 H 710.567 2.95492 3.24932 0
M  V30 7632 H 711.173 3.83914 1.83002 0
M  V30 7633 N 709.488 -0.375779 1.53054 0
M  V30 7634 C 710.436 -1.48015 1.79428 0
M  V30 7635 C 711.43 -1.55893 0.662854 0
M  V30 7636 O 712.636 -1.58901 0.845599 0
M  V30 7637 H 709.011 -0.492887 0.56795 0
M  V30 7638 H 710.982 -1.22971 2.71884 0
M  V30 7639 C 709.731 -2.84984 1.99197 0
M  V30 7640 H 709.054 -2.79677 2.85693 0
M  V30 7641 H 710.494 -3.61462 2.21633 0
M  V30 7642 C 708.953 -3.28025 0.768183 0
M  V30 7643 O 709.483 -4.01671 -0.0480482 0
M  V30 7644 N 707.689 -2.84454 0.594521 0
M  V30 7645 H 707.236 -2.24688 1.25988 0
M  V30 7646 H 707.194 -3.13609 -0.222916 0
M  V30 7647 N 710.966 -1.44241 -0.634997 0
M  V30 7648 C 712.382 -1.28043 -0.952742 0
M  V30 7649 C 712.582 -0.21338 -2.00367 0
M  V30 7650 O 711.638 0.402042 -2.49279 0
M  V30 7651 C 712.951 -2.65076 -1.41968 0
M  V30 7652 C 714.499 -2.72755 -1.53537 0
M  V30 7653 C 714.974 -4.10249 -2.03616 0
M  V30 7654 N 716.465 -4.12406 -2.10892 0
M  V30 7655 C 717.2 -5.15641 -2.50803 0
M  V30 7656 N 716.696 -6.29239 -2.89879 0
M  V30 7657 N 718.489 -5.02995 -2.50903 0
M  V30 7658 H 710.64 -2.12315 0.060098 0
M  V30 7659 H 712.903 -0.947326 -0.0357325 0
M  V30 7660 H 712.609 -3.44213 -0.721804 0
M  V30 7661 H 712.483 -2.91704 -2.39141 0
M  V30 7662 H 714.87 -1.93939 -2.22422 0
M  V30 7663 H 714.951 -2.49872 -0.547496 0
M  V30 7664 H 714.595 -4.8954 -1.35327 0
M  V30 7665 H 714.525 -4.30507 -3.03268 0
M  V30 7666 H 717.016 -3.30417 -1.83393 0
M  V30 7667 H 717.329 -7.03827 -3.19135 0
M  V30 7668 H 715.674 -6.32683 -2.8764 0
M  V30 7669 H 718.865 -4.13306 -2.19763 0
M  V30 7670 H 719.038 -5.83574 -2.81683 0
M  V30 7671 N 712.444 0.87505 -1.31075 0
M  V30 7672 C 713.669 1.66583 -1.23551 0
M  V30 7673 C 714.094 1.87067 0.19686 0
M  V30 7674 O 713.452 1.40877 1.1412 0
M  V30 7675 C 713.5 3.01401 -1.97965 0
M  V30 7676 O 712.604 3.90923 -1.31351 0
M  V30 7677 H 711.945 0.508645 -0.426821 0
M  V30 7678 H 714.475 1.09139 -1.7306 0
M  V30 7679 H 714.485 3.51374 -2.07366 0
M  V30 7680 H 713.16 2.85812 -3.02133 0
M  V30 7681 H 711.737 3.49369 -1.30368 0
M  V30 7682 N 713.922 1.13953 1.08869 0
M  V30 7683 C 715.338 0.878924 1.33218 0
M  V30 7684 C 715.538 -0.482478 1.95638 0
M  V30 7685 O 714.594 -1.22778 2.2064 0
M  V30 7686 C 715.907 2.00798 2.23832 0
M  V30 7687 C 717.455 2.04073 2.37325 0
M  V30 7688 C 717.93 3.16258 3.31278 0
M  V30 7689 N 719.421 3.15805 3.38853 0
M  V30 7690 C 720.156 3.99249 4.11567 0
M  V30 7691 N 719.652 4.92721 4.87029 0
M  V30 7692 N 721.445 3.87327 4.0735 0
M  V30 7693 H 713.596 2.01645 0.66731 0
M  V30 7694 H 715.859 0.878395 0.356547 0
M  V30 7695 H 715.565 2.98986 1.85203 0
M  V30 7696 H 715.439 1.92704 3.24261 0
M  V30 7697 H 717.826 1.06495 2.75214 0
M  V30 7698 H 717.907 2.16239 1.36654 0
M  V30 7699 H 717.551 4.14079 2.9411 0
M  V30 7700 H 717.481 3.0133 4.31866 0
M  V30 7701 H 719.972 2.48102 2.8505 0
M  V30 7702 H 720.285 5.52867 5.39961 0
M  V30 7703 H 718.63 4.96723 4.86098 0
M  V30 7704 H 721.821 3.13627 3.475 0
M  V30 7705 H 721.994 4.52585 4.63757 0
M  V30 7706 N 715.4 -1.26948 0.933913 0
M  V30 7707 C 716.348 -2.2862 0.428463 0
M  V30 7708 C 717.342 -1.62144 -0.490464 0
M  V30 7709 O 718.548 -1.76167 -0.36948 0
M  V30 7710 H 714.923 -0.742363 0.120003 0
M  V30 7711 H 716.894 -2.68659 1.29865 0
M  V30 7712 C 715.643 -3.46423 -0.29774 0
M  V30 7713 H 714.966 -3.97792 0.400183 0
M  V30 7714 H 716.406 -4.19505 -0.615736 0
M  V30 7715 C 714.865 -3.01017 -1.51295 0
M  V30 7716 O 715.395 -3.05226 -2.61151 0
M  V30 7717 N 713.601 -2.56442 -1.36696 0
M  V30 7718 H 713.148 -2.53217 -0.473178 0
M  V30 7719 H 713.106 -2.26424 -2.18127 0
M  V30 7720 N 716.879 -0.700114 -1.41195 0
M  V30 7721 C 718.104 -0.240704 -2.05998 0
M  V30 7722 C 718.529 1.10313 -1.52357 0
M  V30 7723 O 717.887 1.69154 -0.652424 0
M  V30 7724 C 717.935 -0.213783 -3.59966 0
M  V30 7725 O 717.039 0.809933 -4.04368 0
M  V30 7726 H 716.38 -0.116471 -0.653705 0
M  V30 7727 H 718.91 -0.956251 -1.80878 0
M  V30 7728 H 718.92 -0.0461852 -4.07974 0
M  V30 7729 H 717.595 -1.19454 -3.98376 0
M  V30 7730 H 716.172 0.611319 -3.67855 0
M  V30 7731 N 718.357 1.51182 -0.445186 0
M  V30 7732 C 719.768 1.86693 0.0160999 0
M  V30 7733 C 720.119 1.36183 1.4124 0
M  V30 7734 O 719.244 0.715895 2.04215 0
M  V30 7735 C 719.839 3.38781 0.0359918 0
M  V30 7736 C 718.398 3.73799 0.441715 0
M  V30 7737 C 717.545 2.74947 -0.360511 0
M  V30 7738 H 720.496 1.44294 -0.660674 0
M  V30 7739 H 720.517 3.71026 0.843813 0
M  V30 7740 H 720.029 3.75513 -0.980378 0
M  V30 7741 H 718.13 3.42659 1.4634 0
M  V30 7742 H 718.243 4.78829 0.16106 0
M  V30 7743 H 716.607 2.54047 0.182269 0
M  V30 7744 H 717.39 3.14521 -1.3759 0
M  V30 7745 N 719.835 0.176821 1.56605 0
M  V30 7746 C 720.765 -0.746841 2.21234 0
M  V30 7747 C 721.746 -1.23502 1.16967 0
M  V30 7748 O 722.931 -1.28718 1.45414 0
M  V30 7749 C 720.061 -1.97407 2.8574 0
M  V30 7750 C 719.015 -1.62153 3.96094 0
M  V30 7751 C 718.341 -2.92387 4.47676 0
M  V30 7752 C 719.641 -0.845353 5.15413 0
M  V30 7753 H 721.335 -0.208116 2.98676 0
M  V30 7754 H 718.881 -0.0986594 1.43662 0
M  V30 7755 H 720.834 -2.62531 3.2963 0
M  V30 7756 H 719.558 -2.53703 2.05676 0
M  V30 7757 H 718.217 -0.993964 3.52868 0
M  V30 7758 H 717.865 -3.46734 3.64396 0
M  V30 7759 H 717.565 -2.69551 5.22127 0
M  V30 7760 H 719.089 -3.5853 4.94255 0
M  V30 7761 H 720.503 -1.39929 5.55961 0
M  V30 7762 H 718.9 -0.715814 5.95815 0
M  V30 7763 H 719.97 0.157239 4.84645 0
M  V30 7764 N 721.313 -1.57302 -0.09688 0
M  V30 7765 C 722.243 -2.0497 -1.11846 0
M  V30 7766 C 723.224 -0.938278 -1.41882 0
M  V30 7767 O 724.409 -1.20943 -1.51942 0
M  V30 7768 C 721.539 -2.47264 -2.43881 0
M  V30 7769 C 720.493 -3.62053 -2.28257 0
M  V30 7770 C 719.819 -3.90318 -3.65453 0
M  V30 7771 C 721.119 -4.93005 -1.72461 0
M  V30 7772 H 722.813 -2.90567 -0.721888 0
M  V30 7773 H 720.359 -1.39786 -0.345803 0
M  V30 7774 H 722.312 -2.7922 -3.15617 0
M  V30 7775 H 721.036 -1.58664 -2.8547 0
M  V30 7776 H 719.695 -3.30341 -1.58967 0
M  V30 7777 H 719.343 -2.98889 -4.04567 0
M  V30 7778 H 719.043 -4.67597 -3.55846 0
M  V30 7779 H 720.567 -4.24747 -4.3866 0
M  V30 7780 H 721.981 -5.23354 -2.34036 0
M  V30 7781 H 720.378 -5.74436 -1.73618 0
M  V30 7782 H 721.448 -4.80053 -0.683898 0
M  V30 7783 N 722.791 0.367657 -1.53252 0
M  V30 7784 C 723.701 1.47415 -1.82499 0
M  V30 7785 C 724.717 1.58711 -0.713222 0
M  V30 7786 O 725.893 1.74644 -1.00306 0
M  V30 7787 C 722.958 2.82706 -2.00694 0
M  V30 7788 C 722.019 2.80955 -3.24596 0
M  V30 7789 C 721.252 4.09793 -3.41914 0
M  V30 7790 O 721.475 5.05852 -2.63572 0
M  V30 7791 O 720.409 4.15731 -4.3526 0
M  V30 7792 H 724.235 1.25624 -2.765 0
M  V30 7793 H 721.82 0.557559 -1.38606 0
M  V30 7794 H 723.702 3.62873 -2.14246 0
M  V30 7795 H 722.377 3.04479 -1.09883 0
M  V30 7796 H 721.284 1.99494 -3.16469 0
M  V30 7797 H 722.617 2.64136 -4.15323 0
M  V30 7798 N 724.269 1.44576 0.627338 0
M  V30 7799 C 725.685 1.28546 0.945938 0
M  V30 7800 C 725.885 0.224003 2.00251 0
M  V30 7801 O 724.941 -0.388817 2.49488 0
M  V30 7802 C 726.254 2.65825 1.40561 0
M  V30 7803 C 727.802 2.73566 1.52088 0
M  V30 7804 C 728.277 4.11323 2.01438 0
M  V30 7805 N 729.768 4.13519 2.08702 0
M  V30 7806 C 730.503 5.16964 2.48065 0
M  V30 7807 N 729.999 6.30768 2.86538 0
M  V30 7808 N 731.792 5.04319 2.48232 0
M  V30 7809 H 723.943 2.1228 -0.0713567 0
M  V30 7810 H 726.206 0.947503 0.0307081 0
M  V30 7811 H 725.912 3.44591 0.703539 0
M  V30 7812 H 725.786 2.92969 2.37591 0
M  V30 7813 H 728.173 1.95116 2.21391 0
M  V30 7814 H 728.254 2.50159 0.534237 0
M  V30 7815 H 727.898 4.9025 1.32729 0
M  V30 7816 H 727.828 4.32109 3.0098 0
M  V30 7817 H 730.319 3.31385 1.81638 0
M  V30 7818 H 730.632 7.0551 3.15398 0
M  V30 7819 H 728.977 6.342 2.84281 0
M  V30 7820 H 732.168 4.14465 2.17569 0
M  V30 7821 H 732.341 5.85059 2.78585 0
M  V30 7822 N 725.747 -0.868086 1.31537 0
M  V30 7823 C 726.71 -1.95703 1.19302 0
M  V30 7824 C 727.71 -1.60355 0.119612 0
M  V30 7825 O 728.9 -1.70247 0.36902 0
M  V30 7826 C 726.032 -3.30599 0.831684 0
M  V30 7827 H 727.225 -2.07982 2.16064 0
M  V30 7828 H 724.778 -1.05661 1.15176 0
M  V30 7829 H 725.513 -3.2402 -0.134694 0
M  V30 7830 H 725.298 -3.57629 1.60761 0
M  V30 7831 H 726.788 -4.10439 0.770026 0
M  V30 7832 N 727.225 -1.14528 -1.08264 0
M  V30 7833 C 728.45 -0.938381 -1.84957 0
M  V30 7834 C 728.875 0.508044 -1.81109 0
M  V30 7835 O 728.233 1.36146 -1.19724 0
M  V30 7836 C 728.281 -1.44568 -3.30352 0
M  V30 7837 O 727.385 -0.638745 -4.07423 0
M  V30 7838 H 726.726 -0.335394 -0.573068 0
M  V30 7839 H 729.256 -1.52287 -1.36637 0
M  V30 7840 H 729.266 -1.45449 -3.81194 0
M  V30 7841 H 727.941 -2.49876 -3.32468 0
M  V30 7842 H 726.518 -0.698801 -3.66294 0
M  V30 7843 N 728.703 1.26451 -0.940633 0
M  V30 7844 C 729.633 2.28773 -0.467479 0
M  V30 7845 C 730.614 1.63218 0.478955 0
M  V30 7846 O 731.799 1.90427 0.380929 0
M  V30 7847 C 728.929 3.46259 0.268656 0
M  V30 7848 C 727.883 4.23898 -0.591171 0
M  V30 7849 C 727.209 5.33993 0.274891 0
M  V30 7850 C 728.509 4.87974 -1.86223 0
M  V30 7851 H 730.203 2.68601 -1.32265 0
M  V30 7852 H 727.749 1.29123 -0.637436 0
M  V30 7853 H 729.702 4.16951 0.610696 0
M  V30 7854 H 728.426 3.05383 1.15796 0
M  V30 7855 H 727.085 3.54969 -0.916098 0
M  V30 7856 H 726.733 4.89358 1.16353 0
M  V30 7857 H 726.433 5.86849 -0.297006 0
M  V30 7858 H 727.957 6.07523 0.612213 0
M  V30 7859 H 729.371 5.50883 -1.58747 0
M  V30 7860 H 727.768 5.50945 -2.37866 0
M  V30 7861 H 728.838 4.10945 -2.57394 0
M  V30 7862 N 730.181 0.707592 1.40822 0
M  V30 7863 C 731.429 0.243189 2.00632 0
M  V30 7864 C 731.75 -1.16512 1.56365 0
M  V30 7865 O 731.02 -1.78841 0.799553 0
M  V30 7866 H 729.6 0.0869203 0.741926 0
M  V30 7867 H 732.262 0.911438 1.72275 0
M  V30 7868 H 731.358 0.270014 3.1093 0
M  V30 7869 N 731.66 -1.50943 0.453197 0
M  V30 7870 C 732.592 -2.25922 -0.38623 0
M  V30 7871 C 733.605 -1.3055 -0.972652 0
M  V30 7872 O 734.794 -1.56191 -0.864097 0
M  V30 7873 C 731.894 -3.01176 -1.5539 0
M  V30 7874 C 731.067 -4.23768 -1.0835 0
M  V30 7875 C 730.126 -4.81466 -2.12313 0
M  V30 7876 O 729.152 -5.42875 -1.71101 0
M  V30 7877 N 730.354 -4.66889 -3.44956 0
M  V30 7878 H 733.119 -2.98601 0.256468 0
M  V30 7879 H 730.68 -1.59408 0.282965 0
M  V30 7880 H 732.672 -3.36659 -2.24594 0
M  V30 7881 H 731.242 -2.31409 -2.10163 0
M  V30 7882 H 730.462 -3.93597 -0.217961 0
M  V30 7883 H 731.75 -5.03289 -0.746857 0
M  V30 7884 H 731.148 -4.18011 -3.81161 0
M  V30 7885 H 729.705 -5.06691 -4.1001 0
M  V30 7886 N 733.138 -0.185124 -1.56509 0
M  V30 7887 C 734.101 0.72591 -2.17401 0
M  V30 7888 C 735.101 1.14819 -1.12575 0
M  V30 7889 O 736.291 1.0629 -1.38015 0
M  V30 7890 C 733.423 1.98979 -2.76803 0
M  V30 7891 H 734.616 0.195588 -2.99262 0
M  V30 7892 H 732.169 0.0644772 -1.56167 0
M  V30 7893 H 732.904 2.56287 -1.98714 0
M  V30 7894 H 732.689 1.69583 -3.53531 0
M  V30 7895 H 734.179 2.63966 -3.23592 0
M  V30 7896 N 734.616 1.57351 0.0885366 0
M  V30 7897 C 735.841 1.91011 0.80805 0
M  V30 7898 C 736.266 0.780009 1.71165 0
M  V30 7899 O 735.624 -0.268083 1.79307 0
M  V30 7900 C 735.672 3.23562 1.59185 0
M  V30 7901 O 734.776 3.11615 2.7013 0
M  V30 7902 H 734.117 0.625943 0.221565 0
M  V30 7903 H 736.647 2.04507 0.0617954 0
M  V30 7904 H 736.657 3.5703 1.97468 0
M  V30 7905 H 735.332 4.05398 0.928741 0
M  V30 7906 H 733.909 2.89673 2.34827 0
M  V30 7907 N 736.094 -0.359525 1.53444 0
M  V30 7908 C 737.343 -1.09886 1.69139 0
M  V30 7909 C 737.656 -1.90285 0.452863 0
M  V30 7910 O 738.862 -2.67033 0.490459 0
M  V30 7911 C 737.318 -2.0028 2.99025 0
M  V30 7912 C 736.926 -1.25164 4.30161 0
M  V30 7913 C 738.67 -2.74168 3.24086 0
M  V30 7914 C 736.577 -2.14494 5.51132 0
M  V30 7915 H 735.507 -0.413936 0.630217 0
M  V30 7916 H 738.158 -0.359434 1.79945 0
M  V30 7917 H 736.54 -2.77978 2.82036 0
M  V30 7918 H 737.714 -0.524867 4.57801 0
M  V30 7919 H 736.029 -0.631116 4.11589 0
M  V30 7920 H 738.626 -3.41243 4.11652 0
M  V30 7921 H 738.969 -3.39868 2.40407 0
M  V30 7922 H 739.502 -2.0355 3.41778 0
M  V30 7923 H 736.241 -1.53362 6.37307 0
M  V30 7924 H 735.761 -2.85004 5.27762 0
M  V30 7925 H 737.44 -2.73914 5.86157 0
M  V30 7926 N 737.572 -1.44907 -0.619662 0
M  V30 7927 C 738.504 -1.48652 -1.74457 0
M  V30 7928 C 739.517 -0.378596 -1.58337 0
M  V30 7929 O 740.706 -0.644987 -1.6644 0
M  V30 7930 C 737.806 -1.31568 -3.12319 0
M  V30 7931 C 736.979 -2.55816 -3.54792 0
M  V30 7932 C 736.038 -2.33465 -4.71573 0
M  V30 7933 O 735.064 -3.07015 -4.79302 0
M  V30 7934 N 736.266 -1.37254 -5.6404 0
M  V30 7935 H 739.031 -2.45632 -1.71712 0
M  V30 7936 H 736.592 -1.40492 -0.804582 0
M  V30 7937 H 738.584 -1.14445 -3.88181 0
M  V30 7938 H 737.154 -0.429095 -3.09641 0
M  V30 7939 H 736.374 -2.88137 -2.69018 0
M  V30 7940 H 737.662 -3.38431 -3.79924 0
M  V30 7941 H 737.06 -0.765309 -5.60499 0
M  V30 7942 H 735.617 -1.26106 -6.39485 0
M  V30 7943 N 739.05 0.861098 -1.31996 0
M  V30 7944 C 739.998 1.99052 -1.20337 0
M  V30 7945 C 740.992 1.69045 -0.109623 0
M  V30 7946 O 742.198 1.77931 -0.272117 0
M  V30 7947 H 738.573 0.653064 -0.372843 0
M  V30 7948 H 740.544 2.06015 -2.15872 0
M  V30 7949 C 739.293 3.34846 -0.936663 0
M  V30 7950 H 738.616 3.58462 -1.77045 0
M  V30 7951 H 740.056 4.1444 -0.895302 0
M  V30 7952 C 738.515 3.34965 0.360607 0
M  V30 7953 O 739.045 3.7745 1.37456 0
M  V30 7954 N 737.251 2.88101 0.380296 0
M  V30 7955 H 736.798 2.53721 -0.445351 0
M  V30 7956 H 736.756 2.88563 1.24816 0
M  V30 7957 N 740.528 1.15101 1.07655 0
M  V30 7958 C 741.776 0.922149 1.79836 0
M  V30 7959 C 742.097 -0.552346 1.87014 0
M  V30 7960 O 741.367 -1.40145 1.3688 0
M  V30 7961 H 739.947 0.338182 0.666064 0
M  V30 7962 H 742.609 1.45107 1.30115 0
M  V30 7963 H 741.705 1.32883 2.82398 0
M  V30 7964 N 742.006 -1.2595 0.947325 0
M  V30 7965 C 742.953 -2.26159 0.460497 0
M  V30 7966 C 743.923 -1.58919 -0.483125 0
M  V30 7967 O 745.108 -1.86603 -0.397983 0
M  V30 7968 C 742.248 -3.441 -0.26247 0
M  V30 7969 C 741.361 -4.25999 0.717539 0
M  V30 7970 C 740.496 -5.31193 -0.0272486 0
M  V30 7971 C 739.535 -6.04774 0.944177 0
M  V30 7972 N 738.672 -7.01721 0.230741 0
M  V30 7973 H 743.512 -2.67173 1.31995 0
M  V30 7974 H 741.049 -1.31358 0.662088 0
M  V30 7975 H 743.007 -4.11317 -0.698137 0
M  V30 7976 H 741.637 -3.03983 -1.08602 0
M  V30 7977 H 740.689 -3.58513 1.27171 0
M  V30 7978 H 742.001 -4.76981 1.45913 0
M  V30 7979 H 741.155 -6.04451 -0.521903 0
M  V30 7980 H 739.894 -4.81066 -0.801682 0
M  V30 7981 H 738.899 -5.30338 1.4499 0
M  V30 7982 H 740.124 -6.56991 1.71872 0
M  V30 7983 H 738.07 -6.53895 -0.525088 0
M  V30 7984 H 737.987 -7.50484 0.911556 0
M  V30 7985 H 739.255 -7.79122 -0.242616 0
M  V30 7986 N 743.484 -0.715051 -1.40445 0
M  V30 7987 C 744.761 -0.181503 -1.94756 0
M  V30 7988 C 745.141 1.31268 -1.65324 0
M  V30 7989 O 744.489 2.0686 -0.970631 0
M  V30 7990 C 744.699 -0.493663 -3.45491 0
M  V30 7991 C 746.047 -0.432032 -4.22396 0
M  V30 7992 O 747.071 -0.429692 -3.53599 0
M  V30 7993 O 745.93 -0.409091 -5.44967 0
M  V30 7994 H 743.024 -0.0263989 -0.826579 0
M  V30 7995 H 745.57 -0.792546 -1.50056 0
M  V30 7996 H 744.342 -1.52713 -3.6027 0
M  V30 7997 H 743.965 0.14737 -3.97327 0
M  V30 7998 N 744.962 1.50701 -0.461195 0
M  V30 7999 C 746.187 2.07171 0.0974773 0
M  V30 8000 C 746.612 1.32391 1.3362 0
M  V30 8001 O 745.97 0.368676 1.77512 0
M  V30 8002 C 746.018 3.58651 0.374409 0
M  V30 8003 O 745.122 3.85816 1.4567 0
M  V30 8004 H 744.463 0.663944 -0.00862047 0
M  V30 8005 H 746.993 1.94021 -0.649394 0
M  V30 8006 H 747.003 4.03295 0.617843 0
M  V30 8007 H 745.678 4.12498 -0.530829 0
M  V30 8008 H 744.255 3.53018 1.20136 0
M  V30 8009 N 746.441 0.193421 1.56409 0
M  V30 8010 C 747.371 -0.723334 2.22014 0
M  V30 8011 C 748.352 -1.22254 1.1827 0
M  V30 8012 O 749.537 -1.27168 1.46771 0
M  V30 8013 C 746.667 -1.94366 2.87818 0
M  V30 8014 C 745.621 -1.57943 3.97791 0
M  V30 8015 C 744.947 -2.87623 4.50752 0
M  V30 8016 C 746.247 -0.790639 5.16281 0
M  V30 8017 H 747.941 -0.176426 2.9888 0
M  V30 8018 H 745.487 -0.0834166 1.43758 0
M  V30 8019 H 747.44 -2.5902 3.32396 0
M  V30 8020 H 746.164 -2.51507 2.08355 0
M  V30 8021 H 744.823 -0.956482 3.53903 0
M  V30 8022 H 744.471 -3.4285 3.68053 0
M  V30 8023 H 744.171 -2.63998 5.24956 0
M  V30 8024 H 745.695 -3.53268 4.9803 0
M  V30 8025 H 747.109 -1.34024 5.57414 0
M  V30 8026 H 745.506 -0.65258 5.96541 0
M  V30 8027 H 746.576 0.208633 4.84451 0
M  V30 8028 N 747.919 -1.57396 -0.0801906 0
M  V30 8029 C 749.147 -1.91055 -0.794075 0
M  V30 8030 C 749.562 -0.788583 -1.71542 0
M  V30 8031 O 748.919 0.238587 -1.80934 0
M  V30 8032 C 748.97 -3.24418 -1.59484 0
M  V30 8033 O 748.691 -4.323 -0.710532 0
M  V30 8034 C 750.192 -3.72037 -2.41046 0
M  V30 8035 H 747.412 -0.63171 -0.226238 0
M  V30 8036 H 749.956 -2.04431 -0.0529685 0
M  V30 8037 H 748.111 -3.12595 -2.2883 0
M  V30 8038 H 748.525 -5.08976 -1.26663 0
M  V30 8039 H 749.999 -4.68006 -2.92702 0
M  V30 8040 H 750.476 -3.00624 -3.2019 0
M  V30 8041 H 751.082 -3.86777 -1.76871 0
M  V30 8042 N 749.397 0.351382 -1.53633 0
M  V30 8043 C 750.33 1.45407 -1.75875 0
M  V30 8044 C 751.308 1.50822 -0.607566 0
M  V30 8045 O 752.492 1.68658 -0.841818 0
M  V30 8046 C 749.619 2.8369 -1.85034 0
M  V30 8047 C 748.665 2.95935 -3.07123 0
M  V30 8048 S 749.498 2.63215 -4.66345 0
M  V30 8049 C 750.654 4.03622 -4.78373 0
M  V30 8050 H 750.887 1.26322 -2.69128 0
M  V30 8051 H 748.42 0.546581 -1.44402 0
M  V30 8052 H 750.378 3.6336 -1.90996 0
M  V30 8053 H 749.039 3.00076 -0.928074 0
M  V30 8054 H 748.232 3.97243 -3.10183 0
M  V30 8055 H 747.834 2.24205 -2.99346 0
M  V30 8056 H 750.126 4.98046 -4.593 0
M  V30 8057 H 751.069 4.05559 -5.80454 0
M  V30 8058 H 751.477 3.91282 -4.06889 0
M  V30 8059 N 750.875 1.45233 0.611969 0
M  V30 8060 C 752.286 1.4354 1.19387 0
M  V30 8061 C 752.637 0.160713 1.95541 0
M  V30 8062 O 751.762 -0.737954 2.03429 0
M  V30 8063 C 752.357 2.60045 2.17169 0
M  V30 8064 C 750.916 2.61486 2.70744 0
M  V30 8065 C 750.063 2.35708 1.46072 0
M  V30 8066 H 753.014 1.53536 0.401529 0
M  V30 8067 H 753.035 2.33893 3.00124 0
M  V30 8068 H 752.547 3.52803 1.61714 0
M  V30 8069 H 750.648 1.72721 3.30149 0
M  V30 8070 H 750.761 3.60572 3.15476 0
M  V30 8071 H 749.125 1.85178 1.74875 0
M  V30 8072 H 749.908 3.30606 0.924922 0
M  V30 8073 N 752.353 -0.854086 1.3245 0
M  V30 8074 C 753.601 -1.60513 1.228 0
M  V30 8075 C 753.922 -1.93865 -0.210073 0
M  V30 8076 O 753.192 -1.59673 -1.13496 0
M  V30 8077 H 751.772 -0.595099 0.451516 0
M  V30 8078 H 754.434 -1.0216 1.6598 0
M  V30 8079 H 753.53 -2.54182 1.81102 0
M  V30 8080 N 753.831 -1.1567 -1.07043 0
M  V30 8081 C 755.056 -0.957946 -1.83952 0
M  V30 8082 C 755.481 0.488807 -1.81638 0
M  V30 8083 O 754.839 1.34869 -1.21162 0
M  V30 8084 C 754.887 -1.48064 -3.288 0
M  V30 8085 O 753.991 -0.681921 -4.06723 0
M  V30 8086 H 753.332 -0.341453 -0.569479 0
M  V30 8087 H 755.862 -1.53728 -1.35015 0
M  V30 8088 H 755.872 -1.49484 -3.7963 0
M  V30 8089 H 754.547 -2.53388 -3.29799 0
M  V30 8090 H 753.124 -0.737612 -3.65532 0
M  V30 8091 N 755.309 1.25446 -0.953992 0
M  V30 8092 C 756.725 1.4539 -0.658316 0
M  V30 8093 C 756.925 1.85607 0.784356 0
M  V30 8094 O 755.981 1.98568 1.55972 0
M  V30 8095 C 757.294 2.52643 -1.6307 0
M  V30 8096 C 758.842 2.66484 -1.64181 0
M  V30 8097 C 759.317 3.76921 -2.60182 0
M  V30 8098 N 760.808 3.84331 -2.58542 0
M  V30 8099 C 761.543 4.69271 -3.29503 0
M  V30 8100 N 761.039 5.58503 -4.09934 0
M  V30 8101 N 762.832 4.6323 -3.18393 0
M  V30 8102 H 754.983 0.976337 -1.8863 0
M  V30 8103 H 757.246 0.490343 -0.811337 0
M  V30 8104 H 756.952 2.29949 -2.66114 0
M  V30 8105 H 756.826 3.50547 -1.39271 0
M  V30 8106 H 759.213 2.88545 -0.618552 0
M  V30 8107 H 759.294 1.68982 -1.92038 0
M  V30 8108 H 758.938 3.55612 -3.62633 0
M  V30 8109 H 758.868 4.73906 -2.29609 0
M  V30 8110 H 761.359 3.20544 -2.0015 0
M  V30 8111 H 761.672 6.20241 -4.61 0
M  V30 8112 H 760.017 5.58214 -4.14032 0
M  V30 8113 H 763.208 3.92527 -2.5503 0
M  V30 8114 H 763.381 5.29204 -3.73961 0
M  V30 8115 N 756.787 0.722489 1.40064 0
M  V30 8116 C 757.75 0.0830209 2.2905 0
M  V30 8117 C 758.75 -0.680208 1.45705 0
M  V30 8118 O 759.94 -0.511084 1.66534 0
M  V30 8119 C 757.072 -0.892092 3.29021 0
M  V30 8120 H 758.265 0.866848 2.87099 0
M  V30 8121 H 755.818 0.487556 1.48501 0
M  V30 8122 H 756.553 -1.70273 2.76003 0
M  V30 8123 H 756.338 -0.34761 3.90556 0
M  V30 8124 H 757.828 -1.33648 3.95636 0
M  V30 8125 N 758.265 -1.50454 0.469181 0
M  V30 8126 C 759.49 -2.0722 -0.0864892 0
M  V30 8127 C 759.915 -1.33098 -1.32916 0
M  V30 8128 O 759.273 -0.378084 -1.77314 0
M  V30 8129 C 759.321 -3.58845 -0.355384 0
M  V30 8130 O 758.425 -3.86583 -1.43622 0
M  V30 8131 H 757.766 -0.663889 0.0121414 0
M  V30 8132 H 760.296 -1.93674 0.659674 0
M  V30 8133 H 760.306 -4.03617 -0.596447 0
M  V30 8134 H 758.981 -4.12211 0.552698 0
M  V30 8135 H 757.558 -3.5365 -1.18262 0
M  V30 8136 N 759.743 -0.201713 -1.56304 0
M  V30 8137 C 760.971 0.440723 -2.02152 0
M  V30 8138 C 761.386 1.54735 -1.08179 0
M  V30 8139 O 760.743 1.82289 -0.0878196 0
M  V30 8140 C 760.794 0.990884 -3.47655 0
M  V30 8141 O 760.515 -0.0715937 -4.38041 0
M  V30 8142 C 762.016 1.70854 -4.09052 0
M  V30 8143 H 759.236 0.109987 -0.661924 0
M  V30 8144 H 761.78 -0.312358 -2.021 0
M  V30 8145 H 759.935 1.69432 -3.48384 0
M  V30 8146 H 760.349 0.338892 -5.23404 0
M  V30 8147 H 761.823 2.04572 -5.12693 0
M  V30 8148 H 762.3 2.61462 -3.52894 0
M  V30 8149 H 762.906 1.0508 -4.12114 0
M  V30 8150 N 761.222 1.57436 0.0718424 0
M  V30 8151 C 762.185 2.02703 1.06977 0
M  V30 8152 C 763.185 0.924062 1.31597 0
M  V30 8153 O 764.375 1.18894 1.27318 0
M  V30 8154 C 761.507 2.40763 2.41342 0
M  V30 8155 H 762.7 2.92098 0.679619 0
M  V30 8156 H 760.253 1.5304 0.317565 0
M  V30 8157 H 760.988 1.54394 2.8519 0
M  V30 8158 H 760.773 3.21249 2.24814 0
M  V30 8159 H 762.263 2.76361 3.13073 0
M  V30 8160 N 762.7 -0.34323 1.53817 0
M  V30 8161 C 763.925 -1.1079 1.75329 0
M  V30 8162 C 764.35 -1.81571 0.491293 0
M  V30 8163 O 763.708 -1.72561 -0.556089 0
M  V30 8164 C 763.756 -2.09681 2.9337 0
M  V30 8165 O 762.86 -3.17207 2.63541 0
M  V30 8166 H 762.201 -0.320402 0.581583 0
M  V30 8167 H 764.731 -0.393525 2.0078 0
M  V30 8168 H 764.741 -2.52897 3.20168 0
M  V30 8169 H 763.416 -1.5756 3.84899 0
M  V30 8170 H 761.993 -2.78806 2.47632 0
M  V30 8171 N 764.178 -1.45556 -0.604258 0
M  V30 8172 C 765.141 -1.54091 -1.69672 0
M  V30 8173 C 766.141 -0.420076 -1.55216 0
M  V30 8174 O 767.331 -0.683671 -1.60224 0
M  V30 8175 C 764.463 -1.44063 -3.08964 0
M  V30 8176 H 765.656 -2.51431 -1.6347 0
M  V30 8177 H 763.209 -1.33046 -0.820273 0
M  V30 8178 H 763.944 -0.479201 -3.2074 0
M  V30 8179 H 763.729 -2.25362 -3.20865 0
M  V30 8180 H 765.219 -1.53075 -3.88533 0
M  V30 8181 N 765.656 0.84705 -1.32902 0
M  V30 8182 C 766.881 1.63925 -1.27056 0
M  V30 8183 C 767.306 1.87443 0.157136 0
M  V30 8184 O 766.664 1.43266 1.11106 0
M  V30 8185 C 766.712 2.97134 -2.04313 0
M  V30 8186 O 765.816 3.88049 -1.39614 0
M  V30 8187 H 765.157 0.499477 -0.437514 0
M  V30 8188 H 767.687 1.05443 -1.75336 0
M  V30 8189 H 767.697 3.46896 -2.14772 0
M  V30 8190 H 766.372 2.79339 -3.08128 0
M  V30 8191 H 764.949 3.46525 -1.3775 0
M  V30 8192 N 767.134 1.16236 1.06428 0
M  V30 8193 C 768.097 0.870163 2.1204 0
M  V30 8194 C 769.097 -0.134239 1.60239 0
M  V30 8195 O 770.287 0.0964932 1.73933 0
M  V30 8196 C 767.419 0.301033 3.39568 0
M  V30 8197 H 768.612 1.8064 2.39394 0
M  V30 8198 H 766.165 0.971116 1.2247 0
M  V30 8199 H 766.9 -0.642948 3.17863 0
M  V30 8200 H 766.685 1.02475 3.78472 0
M  V30 8201 H 768.175 0.114494 4.17443 0
M  V30 8202 N 768.612 -1.24939 0.960631 0
M  V30 8203 C 769.575 -2.239 0.49006 0
M  V30 8204 C 770.575 -1.55497 -0.409535 0
M  V30 8205 O 771.765 -1.72978 -0.205984 0
M  V30 8206 C 768.897 -3.39654 -0.291193 0
M  V30 8207 H 770.09 -2.67044 1.36482 0
M  V30 8208 H 767.643 -1.37429 0.744505 0
M  V30 8209 H 768.378 -3.01939 -1.18336 0
M  V30 8210 H 768.163 -3.90496 0.354276 0
M  V30 8211 H 769.653 -4.13125 -0.609693 0
M  V30 8212 N 770.09 -0.729906 -1.39679 0
M  V30 8213 C 771.336 -0.27603 -2.00913 0
M  V30 8214 C 771.669 1.13227 -1.57776 0
M  V30 8215 O 770.944 1.7709 -0.804319 0
M  V30 8216 C 771.227 -0.372157 -3.58172 0
M  V30 8217 C 771.08 -1.81986 -4.11341 0
M  V30 8218 C 772.399 0.248378 -4.39399 0
M  V30 8219 H 769.518 -0.101773 -0.729939 0
M  V30 8220 H 772.16 -0.925104 -1.65957 0
M  V30 8221 H 770.31 0.180459 -3.88081 0
M  V30 8222 H 771.982 -2.42896 -3.92172 0
M  V30 8223 H 770.225 -2.34287 -3.65092 0
M  V30 8224 H 770.896 -1.83842 -5.20486 0
M  V30 8225 H 773.372 -0.222645 -4.15504 0
M  V30 8226 H 772.248 0.150746 -5.48693 0
M  V30 8227 H 772.509 1.33378 -4.21501 0
M  V30 8228 N 771.568 1.50203 -0.477153 0
M  V30 8229 C 772.793 2.07263 0.0754986 0
M  V30 8230 C 773.218 1.33801 1.32208 0
M  V30 8231 O 772.576 0.387482 1.77111 0
M  V30 8232 C 772.624 3.59028 0.336348 0
M  V30 8233 O 771.728 3.87339 1.4157 0
M  V30 8234 H 771.069 0.663815 -0.015662 0
M  V30 8235 H 773.599 1.93321 -0.669936 0
M  V30 8236 H 773.609 4.03927 0.575034 0
M  V30 8237 H 772.284 4.11912 -0.574551 0
M  V30 8238 H 770.861 3.54272 1.16385 0
M  V30 8239 N 773.046 0.209999 1.56195 0
M  V30 8240 C 774.009 -0.691232 2.18528 0
M  V30 8241 C 775.009 -1.13013 1.14388 0
M  V30 8242 O 776.199 -1.04081 1.39688 0
M  V30 8243 C 773.331 -1.94551 2.79934 0
M  V30 8244 H 774.524 -0.147953 2.99535 0
M  V30 8245 H 772.077 -0.0396243 1.5625 0
M  V30 8246 H 772.812 -2.53094 2.02766 0
M  V30 8247 H 772.597 -1.63938 3.56184 0
M  V30 8248 H 774.087 -2.58785 3.2775 0
M  V30 8249 N 774.524 -1.57472 -0.0634922 0
M  V30 8250 C 775.487 -2.03268 -1.059 0
M  V30 8251 C 776.487 -0.931028 -1.31105 0
M  V30 8252 O 777.677 -1.19567 -1.26686 0
M  V30 8253 C 774.809 -2.42039 -2.40062 0
M  V30 8254 H 776.002 -2.92454 -0.664119 0
M  V30 8255 H 773.555 -1.53206 -0.309444 0
M  V30 8256 H 774.29 -1.55904 -2.84367 0
M  V30 8257 H 774.075 -3.22437 -2.23108 0
M  V30 8258 H 775.565 -2.78017 -3.11603 0
M  V30 8259 N 776.003 0.335068 -1.53997 0
M  V30 8260 C 777.419 0.678704 -1.4445 0
M  V30 8261 C 777.619 1.92106 -0.608078 0
M  V30 8262 O 776.675 2.52292 -0.102373 0
M  V30 8263 C 777.988 0.863435 -2.88037 0
M  V30 8264 C 779.536 0.961513 -2.97866 0
M  V30 8265 C 780.011 1.1785 -4.42578 0
M  V30 8266 N 781.502 1.2455 -4.46141 0
M  V30 8267 C 782.237 1.43106 -5.55255 0
M  V30 8268 N 781.733 1.5878 -6.74359 0
M  V30 8269 N 783.526 1.45722 -5.42883 0
M  V30 8270 H 775.677 -0.481656 -2.06867 0
M  V30 8271 H 777.94 -0.153615 -0.935471 0
M  V30 8272 H 777.646 0.0219511 -3.51693 0
M  V30 8273 H 777.52 1.76268 -3.33481 0
M  V30 8274 H 779.907 1.79351 -2.34344 0
M  V30 8275 H 779.988 0.0389862 -2.5577 0
M  V30 8276 H 779.632 0.351397 -5.06683 0
M  V30 8277 H 779.562 2.11472 -4.82273 0
M  V30 8278 H 782.053 1.13928 -3.60318 0
M  V30 8279 H 782.366 1.72599 -7.53279 0
M  V30 8280 H 780.711 1.559 -6.77289 0
M  V30 8281 H 783.902 1.33065 -4.48789 0
M  V30 8282 H 784.075 1.59841 -6.27977 0
M  V30 8283 N 777.481 1.45874 0.596531 0
M  V30 8284 C 778.892 1.44798 1.17857 0
M  V30 8285 C 779.243 0.181443 1.95359 0
M  V30 8286 O 778.368 -0.716336 2.042 0
M  V30 8287 C 778.963 2.62333 2.14398 0
M  V30 8288 C 777.522 2.64342 2.67955 0
M  V30 8289 C 776.669 2.37244 1.43564 0
M  V30 8290 H 779.62 1.53954 0.385222 0
M  V30 8291 H 779.641 2.37063 2.97626 0
M  V30 8292 H 779.153 3.54499 1.57963 0
M  V30 8293 H 777.254 1.76213 3.28298 0
M  V30 8294 H 777.367 3.63897 3.11634 0
M  V30 8295 H 775.731 1.87022 1.72901 0
M  V30 8296 H 776.514 3.31568 0.889805 0
M  V30 8297 N 778.959 -0.83999 1.33349 0
M  V30 8298 C 780.375 -1.13049 1.12659 0
M  V30 8299 C 780.575 -2.01328 -0.0832613 0
M  V30 8300 O 779.631 -2.40669 -0.763856 0
M  V30 8301 C 780.944 -1.79366 2.41347 0
M  V30 8302 C 782.492 -1.91937 2.47243 0
M  V30 8303 C 782.967 -2.6167 3.75889 0
M  V30 8304 N 784.458 -2.69184 3.76954 0
M  V30 8305 C 785.193 -3.23827 4.73206 0
M  V30 8306 N 784.689 -3.79166 5.79832 0
M  V30 8307 N 786.482 -3.22068 4.60683 0
M  V30 8308 H 778.633 -0.252432 2.10895 0
M  V30 8309 H 780.896 -0.174501 0.931801 0
M  V30 8310 H 780.602 -1.2196 3.29877 0
M  V30 8311 H 780.476 -2.79396 2.53412 0
M  V30 8312 H 782.863 -2.48498 1.59163 0
M  V30 8313 H 782.944 -0.908604 2.39119 0
M  V30 8314 H 782.588 -2.05769 4.64351 0
M  V30 8315 H 782.518 -3.63217 3.81289 0
M  V30 8316 H 785.009 -2.2994 2.99893 0
M  V30 8317 H 785.322 -4.19061 6.49313 0
M  V30 8318 H 783.667 -3.77457 5.83568 0
M  V30 8319 H 786.858 -2.78092 3.7654 0
M  V30 8320 H 787.031 -3.64351 5.35866 0
M  V30 8321 N 780.437 -1.16799 -1.0581 0
M  V30 8322 C 781.369 -0.836774 -2.13379 0
M  V30 8323 C 782.382 0.158116 -1.6203 0
M  V30 8324 O 783.571 -0.0673211 -1.78373 0
M  V30 8325 C 780.671 -0.225959 -3.38146 0
M  V30 8326 C 779.844 -1.26217 -4.18794 0
M  V30 8327 C 778.903 -0.670257 -5.21914 0
M  V30 8328 O 777.929 -1.34042 -5.53192 0
M  V30 8329 N 779.131 0.540683 -5.77977 0
M  V30 8330 H 781.896 -1.76257 -2.42391 0
M  V30 8331 H 779.457 -1.06599 -1.21853 0
M  V30 8332 H 781.449 0.18317 -4.04285 0
M  V30 8333 H 780.019 0.603494 -3.06719 0
M  V30 8334 H 779.239 -1.84729 -3.48237 0
M  V30 8335 H 780.527 -1.9613 -4.69479 0
M  V30 8336 H 779.925 1.10322 -5.54838 0
M  V30 8337 H 778.482 0.891958 -6.45668 0
M  V30 8338 N 781.915 1.24427 -0.967243 0
M  V30 8339 C 782.865 2.23143 -0.468106 0
M  V30 8340 C 783.849 1.5449 0.449633 0
M  V30 8341 O 785.041 1.74761 0.28063 0
M  V30 8342 C 782.17 3.42454 0.240867 0
M  V30 8343 C 781.256 4.18355 -0.695674 0
M  V30 8344 N 781.647 4.71428 -1.83273 0
M  V30 8345 C 779.945 4.43116 -0.506365 0
M  V30 8346 C 780.646 5.29041 -2.41849 0
M  V30 8347 N 779.622 5.16213 -1.70369 0
M  V30 8348 H 783.424 2.61795 -1.3357 0
M  V30 8349 H 780.938 1.39809 -0.826277 0
M  V30 8350 H 782.935 4.12329 0.615668 0
M  V30 8351 H 781.595 3.05323 1.10491 0
M  V30 8352 H 782.606 4.68177 -2.21428 0
M  V30 8353 H 779.283 4.16319 0.313747 0
M  V30 8354 H 780.673 5.80811 -3.37799 0
M  V30 8355 N 783.393 0.737304 1.3929 0
M  V30 8356 C 784.325 0.0592106 2.29124 0
M  V30 8357 C 785.338 -0.701026 1.46934 0
M  V30 8358 O 786.527 -0.544808 1.69983 0
M  V30 8359 C 783.627 -0.940358 3.25592 0
M  V30 8360 C 782.8 -0.241163 4.36735 0
M  V30 8361 C 781.859 -1.14916 5.13498 0
M  V30 8362 O 780.885 -0.625783 5.6575 0
M  V30 8363 N 782.087 -2.47869 5.2492 0
M  V30 8364 H 784.852 0.830647 2.87959 0
M  V30 8365 H 782.413 0.586718 1.50895 0
M  V30 8366 H 784.405 -1.55046 3.73822 0
M  V30 8367 H 782.975 -1.61299 2.67771 0
M  V30 8368 H 782.195 0.549441 3.90352 0
M  V30 8369 H 783.483 0.243299 5.08218 0
M  V30 8370 H 782.881 -2.92864 4.83991 0
M  V30 8371 H 781.438 -3.03969 5.76581 0
M  V30 8372 N 784.871 -1.49948 0.485112 0
M  V30 8373 C 785.818 -2.28819 -0.301729 0
M  V30 8374 C 786.788 -1.34496 -0.974683 0
M  V30 8375 O 787.973 -1.63444 -0.984418 0
M  V30 8376 C 785.113 -3.16758 -1.36961 0
M  V30 8377 C 784.226 -4.26125 -0.710027 0
M  V30 8378 C 783.361 -5.01302 -1.75699 0
M  V30 8379 C 782.4 -6.02525 -1.07841 0
M  V30 8380 N 781.537 -6.70927 -2.06886 0
M  V30 8381 H 786.377 -2.95604 0.377127 0
M  V30 8382 H 783.914 -1.45764 0.197826 0
M  V30 8383 H 785.872 -3.66106 -2.00056 0
M  V30 8384 H 784.502 -2.51991 -2.01744 0
M  V30 8385 H 783.554 -3.80385 0.0338278 0
M  V30 8386 H 784.866 -4.98493 -0.175079 0
M  V30 8387 H 784.02 -5.54438 -2.46339 0
M  V30 8388 H 782.759 -4.28672 -2.32577 0
M  V30 8389 H 781.764 -5.48635 -0.357706 0
M  V30 8390 H 782.989 -6.77134 -0.516345 0
M  V30 8391 H 780.935 -6.01079 -2.62755 0
M  V30 8392 H 780.852 -7.39216 -1.58414 0
M  V30 8393 H 782.12 -7.28675 -2.76863 0
M  V30 8394 N 786.349 -0.21828 -1.56081 0
M  V30 8395 C 787.574 0.422302 -2.03055 0
M  V30 8396 C 787.999 1.5279 -1.09713 0
M  V30 8397 O 787.357 1.81102 -0.0847187 0
M  V30 8398 C 787.405 0.934177 -3.48289 0
M  V30 8399 O 786.509 2.04574 -3.58083 0
M  V30 8400 H 785.85 0.0959764 -0.657027 0
M  V30 8401 H 788.38 -0.335958 -2.01823 0
M  V30 8402 H 788.39 1.24484 -3.88546 0
M  V30 8403 H 787.065 0.124963 -4.15712 0
M  V30 8404 H 785.642 1.74196 -3.29712 0
M  V30 8405 N 787.827 1.57504 0.0551401 0
M  V30 8406 C 788.76 2.00155 1.09604 0
M  V30 8407 C 789.738 0.881274 1.36647 0
M  V30 8408 O 790.922 1.14498 1.49742 0
M  V30 8409 C 788.049 2.35246 2.43674 0
M  V30 8410 C 787.095 3.57452 2.32659 0
M  V30 8411 S 787.928 5.07639 1.7048 0
M  V30 8412 C 789.084 5.45947 3.06093 0
M  V30 8413 H 789.317 2.88131 0.732635 0
M  V30 8414 H 786.85 1.52122 0.264252 0
M  V30 8415 H 788.808 2.56136 3.20787 0
M  V30 8416 H 787.469 1.47769 2.7717 0
M  V30 8417 H 786.662 3.79576 3.31569 0
M  V30 8418 H 786.264 3.36279 1.63685 0
M  V30 8419 H 788.556 5.45036 4.0242 0
M  V30 8420 H 789.499 6.4656 2.88732 0
M  V30 8421 H 789.907 4.73419 3.07466 0
M  V30 8422 N 789.305 -0.326896 1.54172 0
M  V30 8423 C 790.53 -1.08924 1.76494 0
M  V30 8424 C 790.955 -1.81039 0.510523 0
M  V30 8425 O 790.313 -1.73141 -0.537756 0
M  V30 8426 C 790.361 -2.06558 2.95578 0
M  V30 8427 O 789.465 -3.14394 2.6689 0
M  V30 8428 H 788.806 -0.314216 0.584948 0
M  V30 8429 H 791.336 -0.372207 2.01186 0
M  V30 8430 H 791.346 -2.49487 3.22832 0
M  V30 8431 H 790.021 -1.53469 3.86549 0
M  V30 8432 H 788.598 -2.76164 2.50576 0
M  V30 8433 N 790.784 -1.46188 -0.588786 0
M  V30 8434 C 791.747 -1.55882 -1.68029 0
M  V30 8435 C 792.747 -0.436515 -1.54762 0
M  V30 8436 O 793.937 -0.700626 -1.59489 0
M  V30 8437 C 791.069 -1.47332 -3.07418 0
M  V30 8438 H 792.262 -2.5315 -1.60795 0
M  V30 8439 H 789.815 -1.33908 -0.806116 0
M  V30 8440 H 790.55 -0.513193 -3.20214 0
M  V30 8441 H 790.335 -2.28753 -3.18456 0
M  V30 8442 H 791.825 -1.57187 -3.86887 0
M  V30 8443 N 792.262 0.832906 -1.33792 0
M  V30 8444 C 793.487 1.62568 -1.28788 0
M  V30 8445 C 793.912 1.87599 0.137246 0
M  V30 8446 O 793.27 1.44436 1.0958 0
M  V30 8447 C 793.318 2.9495 -2.07453 0
M  V30 8448 O 792.422 3.86546 -1.43722 0
M  V30 8449 H 791.763 0.494809 -0.442787 0
M  V30 8450 H 794.293 1.03578 -1.76445 0
M  V30 8451 H 794.303 3.44599 -2.1844 0
M  V30 8452 H 792.978 2.76055 -3.11073 0
M  V30 8453 H 791.555 3.45044 -1.41417 0
M  V30 8454 N 793.74 1.17359 1.05189 0
M  V30 8455 C 794.986 0.963413 1.78455 0
M  V30 8456 C 795.319 -0.506703 1.87473 0
M  V30 8457 O 794.594 -1.37611 1.37453 0
M  V30 8458 C 794.877 1.60519 3.22344 0
M  V30 8459 C 794.73 3.14741 3.21338 0
M  V30 8460 C 796.049 1.3091 4.20179 0
M  V30 8461 H 793.168 0.351412 0.647826 0
M  V30 8462 H 795.81 1.44858 1.22948 0
M  V30 8463 H 793.96 1.19265 3.69741 0
M  V30 8464 H 795.632 3.65053 2.82017 0
M  V30 8465 H 793.875 3.4749 2.59679 0
M  V30 8466 H 794.546 3.54775 4.22894 0
M  V30 8467 H 797.022 1.66635 3.81277 0
M  V30 8468 H 795.898 1.784 5.191 0
M  V30 8469 H 796.159 0.229908 4.41502 0
M  V30 8470 N 795.218 -1.23913 0.973828 0
M  V30 8471 C 796.168 -2.22892 0.479933 0
M  V30 8472 C 797.152 -1.54726 -0.441434 0
M  V30 8473 O 798.344 -1.74908 -0.271358 0
M  V30 8474 C 795.473 -3.42577 -0.222702 0
M  V30 8475 C 794.559 -4.17981 0.717851 0
M  V30 8476 N 794.95 -4.7045 1.8577 0
M  V30 8477 C 793.248 -4.42841 0.529858 0
M  V30 8478 C 793.949 -5.27751 2.44651 0
M  V30 8479 N 792.925 -5.15302 1.73104 0
M  V30 8480 H 796.727 -2.61083 1.34956 0
M  V30 8481 H 794.241 -1.39368 0.83368 0
M  V30 8482 H 796.238 -4.1265 -0.593793 0
M  V30 8483 H 794.898 -3.05904 -1.0887 0
M  V30 8484 H 795.909 -4.66997 2.23908 0
M  V30 8485 H 792.586 -4.1648 -0.291664 0
M  V30 8486 H 793.976 -5.79011 3.40875 0
M  V30 8487 N 796.696 -0.74468 -1.38897 0
M  V30 8488 C 798.107 -0.36568 -1.83084 0
M  V30 8489 C 798.458 1.10436 -1.62168 0
M  V30 8490 O 797.583 1.85281 -1.11804 0
M  V30 8491 C 798.178 -0.656946 -3.3237 0
M  V30 8492 C 796.737 -0.331329 -3.74939 0
M  V30 8493 C 795.884 -0.914661 -2.61781 0
M  V30 8494 H 798.835 -0.941551 -1.27752 0
M  V30 8495 H 798.856 0.0679546 -3.80439 0
M  V30 8496 H 798.368 -1.72693 -3.47561 0
M  V30 8497 H 796.469 0.732426 -3.6533 0
M  V30 8498 H 796.582 -0.820655 -4.72019 0
M  V30 8499 H 794.946 -0.34063 -2.52412 0
M  V30 8500 H 795.729 -1.98949 -2.79775 0
M  V30 8501 N 798.174 1.49689 -0.493057 0
M  V30 8502 C 799.122 2.30613 0.303383 0
M  V30 8503 C 800.116 1.38867 0.970165 0
M  V30 8504 O 801.322 1.55956 0.898761 0
M  V30 8505 H 797.697 0.742891 0.116691 0
M  V30 8506 H 799.668 2.95717 -0.39924 0
M  V30 8507 C 798.417 3.20008 1.35978 0
M  V30 8508 H 797.74 3.90526 0.856103 0
M  V30 8509 H 799.18 3.79586 1.88919 0
M  V30 8510 C 797.639 2.39079 2.37367 0
M  V30 8511 O 798.169 2.08933 3.43089 0
M  V30 8512 N 796.375 2.0125 2.09635 0
M  V30 8513 H 795.922 2.25966 1.23682 0
M  V30 8514 H 795.88 1.47408 2.77702 0
M  V30 8515 N 799.652 0.226554 1.55963 0
M  V30 8516 C 800.599 -0.681504 2.20509 0
M  V30 8517 C 801.569 -1.1866 1.16229 0
M  V30 8518 O 802.754 -1.24478 1.44602 0
M  V30 8519 C 799.894 -1.88183 2.89277 0
M  V30 8520 C 799.007 -1.41517 4.08163 0
M  V30 8521 C 798.142 -2.57346 4.647 0
M  V30 8522 C 797.181 -2.07441 5.75877 0
M  V30 8523 N 796.318 -3.16561 6.26685 0
M  V30 8524 H 801.158 -0.124372 2.9774 0
M  V30 8525 H 798.695 -0.0496333 1.47016 0
M  V30 8526 H 800.653 -2.58666 3.27335 0
M  V30 8527 H 799.283 -2.41177 2.14555 0
M  V30 8528 H 798.335 -0.605099 3.75557 0
M  V30 8529 H 799.647 -1.00928 4.88482 0
M  V30 8530 H 798.801 -3.35903 5.05227 0
M  V30 8531 H 797.54 -3.01227 3.83554 0
M  V30 8532 H 796.545 -1.27347 5.34848 0
M  V30 8533 H 797.77 -1.64554 6.58862 0
M  V30 8534 H 795.716 -3.59914 5.48451 0
M  V30 8535 H 795.633 -2.80239 7.02141 0
M  V30 8536 H 796.901 -3.95238 6.71868 0
M  V30 8537 N 801.13 -1.57531 -0.0467866 0
M  V30 8538 C 802.093 -2.04379 -1.03738 0
M  V30 8539 C 803.093 -0.944881 -1.3011 0
M  V30 8540 O 804.283 -1.20904 -1.25411 0
M  V30 8541 C 801.415 -2.44572 -2.37482 0
M  V30 8542 H 802.608 -2.93142 -0.633063 0
M  V30 8543 H 800.161 -1.53526 -0.293177 0
M  V30 8544 H 800.896 -1.58911 -2.82697 0
M  V30 8545 H 800.681 -3.24785 -2.19675 0
M  V30 8546 H 802.171 -2.81307 -3.08636 0
M  V30 8547 N 802.608 0.318715 -1.54344 0
M  V30 8548 C 803.833 1.07987 -1.77069 0
M  V30 8549 C 804.258 1.80766 -0.520117 0
M  V30 8550 O 803.616 1.73424 0.528566 0
M  V30 8551 C 803.664 2.04987 -2.96669 0
M  V30 8552 O 802.768 3.12974 -2.68554 0
M  V30 8553 H 802.109 0.311109 -0.586606 0
M  V30 8554 H 804.639 0.361533 -2.0138 0
M  V30 8555 H 804.649 2.47771 -3.2415 0
M  V30 8556 H 803.324 1.51417 -3.87357 0
M  V30 8557 H 801.901 2.74831 -2.52037 0
M  V30 8558 N 804.086 1.46499 0.581025 0
M  V30 8559 C 805.334 1.51596 1.33653 0
M  V30 8560 C 805.655 0.169859 1.94259 0
M  V30 8561 O 804.925 -0.803776 1.78651 0
M  V30 8562 H 803.505 0.558346 0.496244 0
M  V30 8563 H 806.167 1.8264 0.680338 0
M  V30 8564 H 805.263 2.26956 2.14237 0
M  V30 8565 N 805.565 -0.825799 1.34232 0
M  V30 8566 C 806.495 -1.95151 1.28212 0
M  V30 8567 C 807.476 -1.69345 0.160123 0
M  V30 8568 O 808.661 -1.90983 0.352019 0
M  V30 8569 C 805.791 -3.31554 1.03388 0
M  V30 8570 C 804.745 -3.71793 2.12023 0
M  V30 8571 C 804.071 -5.06147 1.72392 0
M  V30 8572 C 805.371 -3.84193 3.53826 0
M  V30 8573 H 807.065 -2.00445 2.22401 0
M  V30 8574 H 804.611 -0.962996 1.07063 0
M  V30 8575 H 806.564 -4.09889 0.978225 0
M  V30 8576 H 805.288 -3.26551 0.0564142 0
M  V30 8577 H 803.947 -2.95731 2.16654 0
M  V30 8578 H 803.595 -4.97628 0.733137 0
M  V30 8579 H 803.295 -5.34041 2.451 0
M  V30 8580 H 804.819 -5.86943 1.68317 0
M  V30 8581 H 806.233 -4.52806 3.51624 0
M  V30 8582 H 804.63 -4.23538 4.2513 0
M  V30 8583 H 805.7 -2.86272 3.91377 0
M  V30 8584 N 807.043 -1.17915 -1.04565 0
M  V30 8585 C 808.454 -0.976383 -1.59134 0
M  V30 8586 C 808.805 0.475267 -1.90357 0
M  V30 8587 O 807.93 1.35172 -1.6899 0
M  V30 8588 C 808.525 -1.76604 -2.89131 0
M  V30 8589 C 807.084 -1.60777 -3.40335 0
M  V30 8590 C 806.231 -1.76369 -2.13985 0
M  V30 8591 H 809.182 -1.32532 -0.872985 0
M  V30 8592 H 809.203 -1.25215 -3.59307 0
M  V30 8593 H 808.715 -2.82252 -2.66375 0
M  V30 8594 H 806.816 -0.576436 -3.68114 0
M  V30 8595 H 806.929 -2.40268 -4.14497 0
M  V30 8596 H 805.293 -1.19268 -2.25049 0
M  V30 8597 H 806.076 -2.83441 -1.9369 0
M  V30 8598 N 808.521 1.23394 -0.980386 0
M  V30 8599 C 809.932 1.73631 -0.686239 0
M  V30 8600 C 810.283 1.79259 0.797541 0
M  V30 8601 O 809.408 1.43046 1.62379 0
M  V30 8602 C 810.003 3.15332 -1.239 0
M  V30 8603 C 808.562 3.63024 -0.994494 0
M  V30 8604 C 807.709 2.41279 -1.36673 0
M  V30 8605 H 810.66 1.08918 -1.15423 0
M  V30 8606 H 810.681 3.75556 -0.611414 0
M  V30 8607 H 810.193 3.11204 -2.31892 0
M  V30 8608 H 808.294 3.72535 0.0693492 0
M  V30 8609 H 808.407 4.49825 -1.64906 0
M  V30 8610 H 806.771 2.42295 -0.785195 0
M  V30 8611 H 807.554 2.39822 -2.45642 0
M  V30 8612 N 809.999 0.752036 1.385 0
M  V30 8613 C 811.227 0.318274 2.04437 0
M  V30 8614 C 811.642 -1.05285 1.56718 0
M  V30 8615 O 810.999 -1.66844 0.73956 0
M  V30 8616 C 811.05 0.330106 3.5999 0
M  V30 8617 O 810.771 1.64712 4.05957 0
M  V30 8618 C 812.272 -0.117713 4.43144 0
M  V30 8619 H 809.492 0.136228 0.657026 0
M  V30 8620 H 812.036 1.02045 1.7722 0
M  V30 8621 H 810.191 -0.323323 3.86048 0
M  V30 8622 H 810.605 1.57225 5.0038 0
M  V30 8623 H 812.079 -0.0582735 5.51969 0
M  V30 8624 H 812.556 -1.16538 4.23457 0
M  V30 8625 H 813.162 0.506784 4.2227 0
M  V30 8626 N 811.477 -1.49425 0.500989 0
M  V30 8627 C 812.387 -2.32899 -0.282011 0
M  V30 8628 C 813.403 -1.44632 -0.967346 0
M  V30 8629 O 814.579 -1.77654 -0.94873 0
M  V30 8630 C 811.644 -3.20069 -1.33253 0
M  V30 8631 C 810.705 -4.24186 -0.660636 0
M  V30 8632 C 809.938 -5.07191 -1.6611 0
M  V30 8633 O 810.161 -4.91712 -2.89094 0
M  V30 8634 O 809.095 -5.8948 -1.21643 0
M  V30 8635 H 812.921 -3.01038 0.401224 0
M  V30 8636 H 810.506 -1.47079 0.262323 0
M  V30 8637 H 812.388 -3.74071 -1.94033 0
M  V30 8638 H 811.063 -2.54625 -1.9987 0
M  V30 8639 H 809.97 -3.74098 -0.0130959 0
M  V30 8640 H 811.303 -4.92186 -0.0369179 0
M  V30 8641 N 812.955 -0.234822 -1.55841 0
M  V30 8642 C 814.18 0.400741 -2.03492 0
M  V30 8643 C 814.605 1.51618 -1.11327 0
M  V30 8644 O 813.963 1.81002 -0.103922 0
M  V30 8645 C 814.011 0.897184 -3.49261 0
M  V30 8646 O 813.115 2.00764 -3.60233 0
M  V30 8647 H 812.456 0.0890023 -0.658008 0
M  V30 8648 H 814.986 -0.357345 -2.01455 0
M  V30 8649 H 814.996 1.20356 -3.89844 0
M  V30 8650 H 813.671 0.0808639 -4.15821 0
M  V30 8651 H 812.248 1.70689 -3.31541 0
M  V30 8652 N 814.433 1.57553 0.0384317 0
M  V30 8653 C 815.381 2.07021 1.06043 0
M  V30 8654 C 816.375 0.982078 1.38028 0
M  V30 8655 O 817.581 1.16702 1.37042 0
M  V30 8656 H 813.956 0.660522 0.359464 0
M  V30 8657 H 815.927 2.91944 0.617339 0
M  V30 8658 C 814.676 2.55734 2.35574 0
M  V30 8659 H 813.999 3.39074 2.11822 0
M  V30 8660 H 815.439 2.94066 3.05452 0
M  V30 8661 C 813.898 1.45449 3.03885 0
M  V30 8662 O 814.428 0.815402 3.93337 0
M  V30 8663 N 812.634 1.19134 2.65058 0
M  V30 8664 H 812.181 1.71288 1.92401 0
M  V30 8665 H 812.139 0.455554 3.11082 0
M  V30 8666 N 815.911 -0.310526 1.54511 0
M  V30 8667 C 817.151 -1.05498 1.7507 0
M  V30 8668 C 817.515 -1.84814 0.520381 0
M  V30 8669 O 818.716 -2.61937 0.603547 0
M  V30 8670 C 816.987 -1.94466 2.99863 0
M  V30 8671 S 818.546 -2.75686 3.41383 0
M  V30 8672 H 815.364 -0.355951 0.615483 0
M  V30 8673 H 817.966 -0.329464 1.92704 0
M  V30 8674 H 816.67 -1.35055 3.87541 0
M  V30 8675 H 816.201 -2.71401 2.84789 0
M  V30 8676 H 818.216 -3.96971 2.97706 0
M  V30 8677 N 817.389 -1.46805 -0.573248 0
M  V30 8678 C 818.299 -1.60687 -1.70929 0
M  V30 8679 C 819.315 -0.490084 -1.66956 0
M  V30 8680 O 820.491 -0.755482 -1.86693 0
M  V30 8681 C 817.556 -1.60259 -3.07438 0
M  V30 8682 C 816.617 -2.83242 -3.22603 0
M  V30 8683 C 815.85 -2.82825 -4.52599 0
M  V30 8684 O 816.073 -1.92113 -5.37074 0
M  V30 8685 O 815.007 -3.74489 -4.71213 0
M  V30 8686 H 818.833 -2.56782 -1.62163 0
M  V30 8687 H 816.418 -1.29706 -0.741399 0
M  V30 8688 H 818.3 -1.6275 -3.88704 0
M  V30 8689 H 816.975 -0.673268 -3.16621 0
M  V30 8690 H 815.882 -2.86302 -2.40794 0
M  V30 8691 H 817.215 -3.75415 -3.18315 0
M  V30 8692 N 818.867 0.818669 -1.34668 0
M  V30 8693 C 820.113 1.57746 -1.27453 0
M  V30 8694 C 820.446 1.93588 0.154077 0
M  V30 8695 O 819.721 1.60371 1.10051 0
M  V30 8696 C 820.004 2.87414 -2.16945 0
M  V30 8697 C 819.857 2.58125 -3.68363 0
M  V30 8698 C 821.176 3.89021 -2.05792 0
M  V30 8699 H 818.295 0.572339 -0.464324 0
M  V30 8700 H 820.937 0.942784 -1.64959 0
M  V30 8701 H 819.087 3.41576 -1.85089 0
M  V30 8702 H 820.759 2.10239 -4.10606 0
M  V30 8703 H 819.002 1.91503 -3.89242 0
M  V30 8704 H 819.673 3.5061 -4.26353 0
M  V30 8705 H 822.149 3.44224 -2.33771 0
M  V30 8706 H 821.025 4.77548 -2.70628 0
M  V30 8707 H 821.286 4.29786 -1.03618 0
M  V30 8708 N 820.346 1.18468 1.03938 0
M  V30 8709 C 821.757 0.984808 1.58614 0
M  V30 8710 C 822.108 -0.465165 1.90606 0
M  V30 8711 O 821.233 -1.34274 1.69704 0
M  V30 8712 C 821.828 1.78135 2.8819 0
M  V30 8713 C 820.387 1.62579 3.39478 0
M  V30 8714 C 819.534 1.77501 2.13046 0
M  V30 8715 H 822.485 1.32993 0.865944 0
M  V30 8716 H 822.506 1.27119 3.58638 0
M  V30 8717 H 822.018 2.83661 2.64874 0
M  V30 8718 H 820.119 0.59595 3.67803 0
M  V30 8719 H 820.232 2.42463 4.13217 0
M  V30 8720 H 818.596 1.2046 2.24414 0
M  V30 8721 H 819.379 2.84464 1.92185 0
M  V30 8722 N 821.824 -1.22873 0.986916 0
M  V30 8723 C 823.24 -1.43594 0.696633 0
M  V30 8724 C 823.44 -1.87622 -0.734869 0
M  V30 8725 O 822.496 -2.02633 -1.50652 0
M  V30 8726 C 823.809 -2.48231 1.69711 0
M  V30 8727 C 825.357 -2.62037 1.71188 0
M  V30 8728 C 825.832 -3.6989 2.70084 0
M  V30 8729 N 827.323 -3.77341 2.68641 0
M  V30 8730 C 828.058 -4.6037 3.41829 0
M  V30 8731 N 827.554 -5.47438 4.24598 0
M  V30 8732 N 829.347 -4.54626 3.30563 0
M  V30 8733 H 821.498 -0.925982 1.91153 0
M  V30 8734 H 823.761 -0.46866 0.824052 0
M  V30 8735 H 823.467 -2.22812 2.72117 0
M  V30 8736 H 823.341 -3.46731 1.48516 0
M  V30 8737 H 825.728 -2.86803 0.694837 0
M  V30 8738 H 825.809 -1.63831 1.96451 0
M  V30 8739 H 825.453 -3.45872 3.71934 0
M  V30 8740 H 825.383 -4.67652 2.42093 0
M  V30 8741 H 827.874 -3.15124 2.08578 0
M  V30 8742 H 828.187 -6.078 4.77283 0
M  V30 8743 H 826.532 -5.4704 4.28687 0
M  V30 8744 H 829.723 -3.85627 2.65347 0
M  V30 8745 H 829.896 -5.19103 3.8786 0
M  V30 8746 N 823.302 -0.75937 -1.38099 0
M  V30 8747 C 824.713 -0.385078 -1.82686 0
M  V30 8748 C 825.064 1.0871 -1.6333 0
M  V30 8749 O 824.189 1.84084 -1.13762 0
M  V30 8750 C 824.784 -0.692161 -3.31654 0
M  V30 8751 C 823.343 -0.371077 -3.74566 0
M  V30 8752 C 822.49 -0.942375 -2.60796 0
M  V30 8753 H 825.441 -0.955048 -1.26746 0
M  V30 8754 H 825.462 0.0276001 -3.8049 0
M  V30 8755 H 824.974 -1.76369 -3.4571 0
M  V30 8756 H 823.075 0.693637 -3.66087 0
M  V30 8757 H 823.188 -0.870672 -4.71122 0
M  V30 8758 H 821.552 -0.367383 -2.52036 0
M  V30 8759 H 822.335 -2.01905 -2.77649 0
M  V30 8760 N 824.78 1.49157 -0.508906 0
M  V30 8761 C 826.005 2.07376 0.0315182 0
M  V30 8762 C 826.43 1.36575 1.2934 0
M  V30 8763 O 825.788 0.424963 1.76249 0
M  V30 8764 C 825.836 3.59661 0.260118 0
M  V30 8765 O 824.94 3.90255 1.33322 0
M  V30 8766 H 824.281 0.663334 -0.029739 0
M  V30 8767 H 826.811 1.91857 -0.710791 0
M  V30 8768 H 826.821 4.05056 0.489225 0
M  V30 8769 H 825.496 4.10601 -0.661794 0
M  V30 8770 H 824.073 3.56661 1.08844 0
M  V30 8771 N 826.258 0.243083 1.55714 0
M  V30 8772 C 827.486 -0.386971 2.03249 0
M  V30 8773 C 827.901 -1.51812 1.12243 0
M  V30 8774 O 827.258 -1.81992 0.136119 0
M  V30 8775 C 827.309 -0.898361 3.5016 0
M  V30 8776 O 827.03 0.187708 4.37698 0
M  V30 8777 C 828.531 -1.59949 4.13438 0
M  V30 8778 H 825.751 -0.0923981 0.664608 0
M  V30 8779 H 828.295 0.365832 2.01201 0
M  V30 8780 H 826.45 -1.60136 3.52754 0
M  V30 8781 H 826.864 -0.200001 5.24119 0
M  V30 8782 H 828.338 -1.90907 5.17937 0
M  V30 8783 H 828.815 -2.52014 3.59702 0
M  V30 8784 H 829.421 -0.941163 4.14756 0
M  V30 8785 N 827.736 -1.57571 -0.0300757 0
M  V30 8786 C 828.699 -2.05468 -1.01565 0
M  V30 8787 C 829.699 -0.958628 -1.29101 0
M  V30 8788 O 830.889 -1.22228 -1.24121 0
M  V30 8789 C 828.021 -2.47077 -2.34874 0
M  V30 8790 H 829.214 -2.93797 -0.601936 0
M  V30 8791 H 826.767 -1.53828 -0.276878 0
M  V30 8792 H 827.502 -1.61901 -2.80996 0
M  V30 8793 H 827.287 -3.27097 -2.16218 0
M  V30 8794 H 828.777 -2.84564 -3.05635 0
M  V30 8795 N 829.214 0.302327 -1.54673 0
M  V30 8796 C 830.625 0.875409 -1.64904 0
M  V30 8797 C 830.976 1.88132 -0.55684 0
M  V30 8798 O 830.101 2.14215 0.306754 0
M  V30 8799 C 830.696 1.59457 -2.9893 0
M  V30 8800 C 829.255 2.11607 -3.11287 0
M  V30 8801 C 828.402 0.948324 -2.6058 0
M  V30 8802 H 831.353 0.079362 -1.58501 0
M  V30 8803 H 831.374 2.46005 -2.90279 0
M  V30 8804 H 830.886 0.8622 -3.78402 0
M  V30 8805 H 828.987 2.87895 -2.36532 0
M  V30 8806 H 829.1 2.35151 -4.17422 0
M  V30 8807 H 827.464 1.33352 -2.17001 0
M  V30 8808 H 828.247 0.229936 -3.42529 0
M  V30 8809 N 830.692 1.47107 0.565454 0
M  V30 8810 C 831.624 1.55024 1.6882 0
M  V30 8811 C 832.637 0.4371 1.56822 0
M  V30 8812 O 833.826 0.706315 1.63931 0
M  V30 8813 C 830.926 1.43069 3.0722 0
M  V30 8814 C 830.099 2.68807 3.45053 0
M  V30 8815 C 829.158 2.50806 4.62583 0
M  V30 8816 O 828.184 3.24593 4.67577 0
M  V30 8817 N 829.386 1.58093 5.58558 0
M  V30 8818 H 832.151 2.51836 1.62477 0
M  V30 8819 H 829.712 1.43382 0.751885 0
M  V30 8820 H 831.704 1.28773 3.83666 0
M  V30 8821 H 830.274 0.543721 3.07835 0
M  V30 8822 H 829.494 2.97923 2.58138 0
M  V30 8823 H 830.782 3.52298 3.67101 0
M  V30 8824 H 830.18 0.972807 5.57273 0
M  V30 8825 H 828.737 1.49753 6.34364 0
M  V30 8826 N 832.17 -0.811516 1.35101 0
M  V30 8827 C 833.586 -1.10634 1.15031 0
M  V30 8828 C 833.786 -2.01459 -0.0405379 0
M  V30 8829 O 832.842 -2.42235 -0.712635 0
M  V30 8830 C 834.155 -1.74207 2.45097 0
M  V30 8831 C 835.703 -1.8665 2.51258 0
M  V30 8832 C 836.178 -2.53638 3.81355 0
M  V30 8833 N 837.669 -2.61128 3.82579 0
M  V30 8834 C 838.404 -3.13717 4.79968 0
M  V30 8835 N 837.9 -3.66782 5.87744 0
M  V30 8836 N 839.693 -3.12224 4.67411 0
M  V30 8837 H 831.844 -0.207641 2.11383 0
M  V30 8838 H 834.107 -0.154697 0.935293 0
M  V30 8839 H 833.813 -1.14936 3.32389 0
M  V30 8840 H 833.687 -2.73958 2.59281 0
M  V30 8841 H 836.074 -2.45066 1.64398 0
M  V30 8842 H 836.155 -0.857678 2.40993 0
M  V30 8843 H 835.799 -1.95873 4.68611 0
M  V30 8844 H 835.729 -3.55047 3.88907 0
M  V30 8845 H 838.22 -2.23527 3.04703 0
M  V30 8846 H 838.533 -4.05194 6.58056 0
M  V30 8847 H 836.878 -3.64994 5.91443 0
M  V30 8848 H 840.069 -2.70042 3.82354 0
M  V30 8849 H 840.242 -3.52903 5.43474 0
M  V30 8850 N 833.648 -1.19017 -1.03309 0
M  V30 8851 C 834.894 -0.991681 -1.769 0
M  V30 8852 C 835.227 0.476813 -1.88255 0
M  V30 8853 O 834.502 1.35407 -1.39625 0
M  V30 8854 C 834.785 -1.65627 -3.19749 0
M  V30 8855 C 834.638 -3.19813 -3.1629 0
M  V30 8856 C 835.957 -1.37579 -4.18043 0
M  V30 8857 H 833.076 -0.361674 -0.642153 0
M  V30 8858 H 835.718 -1.46795 -1.20628 0
M  V30 8859 H 833.868 -1.25132 -3.67796 0
M  V30 8860 H 835.54 -3.69494 -2.76174 0
M  V30 8861 H 833.783 -3.51578 -2.54117 0
M  V30 8862 H 834.454 -3.61457 -4.17196 0
M  V30 8863 H 836.93 -1.72679 -3.78578 0
M  V30 8864 H 835.806 -1.86636 -5.16196 0
M  V30 8865 H 836.067 -0.300118 -4.4108 0
M  V30 8866 N 835.127 1.22348 -0.993418 0
M  V30 8867 C 836.538 1.72893 -0.704616 0
M  V30 8868 C 836.889 1.80095 0.778483 0
M  V30 8869 O 836.014 1.4476 1.60853 0
M  V30 8870 C 836.609 3.14 -1.27237 0
M  V30 8871 C 835.168 3.61949 -1.03294 0
M  V30 8872 C 834.315 2.39816 -1.39225 0
M  V30 8873 H 837.266 1.07688 -1.16572 0
M  V30 8874 H 837.287 3.74886 -0.651212 0
M  V30 8875 H 836.799 3.08727 -2.3518 0
M  V30 8876 H 834.9 3.72588 0.0298329 0
M  V30 8877 H 835.013 4.48051 -1.69668 0
M  V30 8878 H 833.377 2.41448 -0.810849 0
M  V30 8879 H 834.16 2.37203 -2.48172 0
M  V30 8880 N 836.605 0.766683 1.37694 0
M  V30 8881 C 837.851 0.329201 2.0011 0
M  V30 8882 C 838.184 -1.09004 1.60723 0
M  V30 8883 O 837.459 -1.74895 0.850989 0
M  V30 8884 C 837.742 0.466989 3.57059 0
M  V30 8885 C 837.595 1.92828 4.06371 0
M  V30 8886 C 838.914 -0.131792 4.39903 0
M  V30 8887 H 836.033 0.12109 0.726984 0
M  V30 8888 H 838.675 0.968779 1.63446 0
M  V30 8889 H 836.825 -0.0775023 3.88423 0
M  V30 8890 H 838.497 2.53208 3.85595 0
M  V30 8891 H 836.74 2.43884 3.58752 0
M  V30 8892 H 837.411 1.97577 5.15429 0
M  V30 8893 H 839.887 0.332731 4.14768 0
M  V30 8894 H 838.763 -0.005217 5.489 0
M  V30 8895 H 839.024 -1.22156 4.24889 0
M  V30 8896 N 838.083 -1.48885 0.516809 0
M  V30 8897 C 839.046 -2.27916 -0.242256 0
M  V30 8898 C 840.046 -1.34601 -0.879735 0
M  V30 8899 O 841.236 -1.57616 -0.74182 0
M  V30 8900 C 838.368 -3.13067 -1.34914 0
M  V30 8901 H 839.561 -2.96483 0.451444 0
M  V30 8902 H 837.114 -1.5391 0.272294 0
M  V30 8903 H 837.849 -2.49102 -2.07651 0
M  V30 8904 H 837.634 -3.81695 -0.897313 0
M  V30 8905 H 839.124 -3.72716 -1.88341 0
M  V30 8906 N 839.561 -0.251338 -1.55583 0
M  V30 8907 C 840.786 0.379136 -2.03905 0
M  V30 8908 C 841.211 1.50428 -1.12929 0
M  V30 8909 O 840.569 1.80882 -0.123114 0
M  V30 8910 C 840.617 0.86009 -3.50193 0
M  V30 8911 O 839.721 1.96932 -3.62342 0
M  V30 8912 H 839.062 0.0820183 -0.658915 0
M  V30 8913 H 841.592 -0.378692 -2.01065 0
M  V30 8914 H 841.602 1.16214 -3.91099 0
M  V30 8915 H 840.277 0.0367559 -4.15884 0
M  V30 8916 H 838.854 1.67163 -3.33333 0
M  V30 8917 N 841.039 1.57585 0.0217189 0
M  V30 8918 C 842.45 1.7787 0.567377 0
M  V30 8919 C 842.801 0.883337 1.7519 0
M  V30 8920 O 841.926 0.0800819 2.16252 0
M  V30 8921 C 842.521 3.2257 1.03606 0
M  V30 8922 C 841.08 3.44026 1.52718 0
M  V30 8923 C 840.227 2.73313 0.468545 0
M  V30 8924 H 843.178 1.57377 -0.2045 0
M  V30 8925 H 843.199 3.29488 1.9031 0
M  V30 8926 H 842.711 3.87711 0.173739 0
M  V30 8927 H 840.812 2.8407 2.41111 0
M  V30 8928 H 840.925 4.52659 1.56962 0
M  V30 8929 H 839.289 2.37299 0.925263 0
M  V30 8930 H 840.072 3.41141 -0.384438 0
M  V30 8931 N 842.517 -0.29412 1.54831 0
M  V30 8932 C 843.742 -1.05156 1.78765 0
M  V30 8933 C 844.167 -1.79916 0.548809 0
M  V30 8934 O 843.525 -1.74243 -0.500909 0
M  V30 8935 C 843.573 -2.00242 2.99893 0
M  V30 8936 O 842.677 -3.08662 2.73499 0
M  V30 8937 H 842.018 -0.301737 0.591482 0
M  V30 8938 H 844.548 -0.329449 2.0193 0
M  V30 8939 H 844.558 -2.42583 3.28051 0
M  V30 8940 H 843.233 -1.45235 3.89717 0
M  V30 8941 H 841.81 -2.70786 2.56377 0
M  V30 8942 N 843.995 -1.47404 -0.557645 0
M  V30 8943 C 844.958 -1.59411 -1.64684 0
M  V30 8944 C 845.958 -0.469244 -1.53801 0
M  V30 8945 O 847.148 -0.734298 -1.57967 0
M  V30 8946 C 844.28 -1.5382 -3.04224 0
M  V30 8947 H 845.473 -2.56504 -1.55389 0
M  V30 8948 H 843.026 -1.35588 -0.777531 0
M  V30 8949 H 843.761 -0.581 -3.19053 0
M  V30 8950 H 843.546 -2.35456 -3.13533 0
M  V30 8951 H 845.036 -1.65358 -3.83466 0
M  V30 8952 N 845.473 0.80434 -1.35529 0
M  V30 8953 C 846.423 1.90565 -1.25175 0
M  V30 8954 C 847.407 1.60232 -0.146512 0
M  V30 8955 O 848.599 1.72918 -0.377943 0
M  V30 8956 C 845.728 3.2754 -1.02823 0
M  V30 8957 C 844.814 3.63932 -2.17748 0
M  V30 8958 N 845.205 3.71744 -3.42986 0
M  V30 8959 C 843.503 3.93901 -2.09184 0
M  V30 8960 C 844.204 4.03944 -4.18574 0
M  V30 8961 N 843.18 4.18146 -3.47355 0
M  V30 8962 H 846.982 1.9481 -2.20059 0
M  V30 8963 H 844.496 0.99905 -1.28034 0
M  V30 8964 H 846.493 4.06281 -0.934941 0
M  V30 8965 H 845.153 3.2458 -0.0882551 0
M  V30 8966 H 846.164 3.54765 -3.77309 0
M  V30 8967 H 842.841 3.98954 -1.23054 0
M  V30 8968 H 844.231 4.17036 -5.26811 0
M  V30 8969 N 846.951 1.19563 1.02676 0
M  V30 8970 C 847.899 0.931942 2.13114 0
M  V30 8971 C 848.893 -0.113007 1.69023 0
M  V30 8972 O 850.099 0.0364298 1.79963 0
M  V30 8973 H 846.474 0.283981 0.696318 0
M  V30 8974 H 848.445 1.86991 2.32545 0
M  V30 8975 C 847.194 0.489461 3.44238 0
M  V30 8976 H 846.517 1.28508 3.78584 0
M  V30 8977 H 847.957 0.34408 4.22602 0
M  V30 8978 C 846.416 -0.796761 3.27343 0
M  V30 8979 O 846.946 -1.85767 3.56165 0
M  V30 8980 N 845.152 -0.754824 2.80626 0
M  V30 8981 H 844.699 0.108778 2.5737 0
M  V30 8982 H 844.657 -1.6158 2.69702 0
M  V30 8983 N 848.429 -1.21819 0.999893 0
M  V30 8984 C 849.678 -1.90066 0.675108 0
M  V30 8985 C 849.991 -1.78624 -0.79705 0
M  V30 8986 O 851.197 -2.41851 -1.23371 0
M  V30 8987 C 849.653 -3.40795 1.15702 0
M  V30 8988 C 849.261 -3.60859 2.6549 0
M  V30 8989 C 851.005 -4.147 0.906889 0
M  V30 8990 C 848.912 -5.05324 3.07248 0
M  V30 8991 H 847.842 -0.711763 0.248815 0
M  V30 8992 H 850.493 -1.3792 1.21038 0
M  V30 8993 H 848.875 -3.92164 0.549832 0
M  V30 8994 H 850.049 -3.19951 3.31614 0
M  V30 8995 H 848.364 -3.00298 2.88461 0
M  V30 8996 H 850.961 -5.21187 1.1945 0
M  V30 8997 H 851.304 -4.16004 -0.156923 0
M  V30 8998 H 851.837 -3.69379 1.47662 0
M  V30 8999 H 848.576 -5.09164 4.12834 0
M  V30 9000 H 848.096 -5.47108 2.45832 0
M  V30 9001 H 849.775 -5.73797 2.98941 0
M  V30 9002 N 849.908 -0.773975 -1.37286 0
M  V30 9003 C 851.133 -0.349561 -2.04433 0
M  V30 9004 C 851.558 1.02082 -1.5799 0
M  V30 9005 O 850.916 1.65458 -0.741172 0
M  V30 9006 C 850.964 -0.404292 -3.58326 0
M  V30 9007 O 850.068 0.594447 -4.08093 0
M  V30 9008 H 849.409 -0.150959 -0.646612 0
M  V30 9009 H 851.939 -1.05079 -1.75555 0
M  V30 9010 H 851.949 -0.262378 -4.07155 0
M  V30 9011 H 850.624 -1.40403 -3.91484 0
M  V30 9012 H 849.201 0.415468 -3.70578 0
M  V30 9013 N 851.386 1.48609 -0.524698 0
M  V30 9014 C 852.611 2.07398 0.00952139 0
M  V30 9015 C 853.036 1.37939 1.27884 0
M  V30 9016 O 852.394 0.443633 1.75788 0
M  V30 9017 C 852.442 3.59916 0.221956 0
M  V30 9018 O 851.546 3.91647 1.29175 0
M  V30 9019 H 850.887 0.662981 -0.0367729 0
M  V30 9020 H 853.417 1.91092 -0.7311 0
M  V30 9021 H 853.427 4.05552 0.446236 0
M  V30 9022 H 852.102 4.09876 -0.705306 0
M  V30 9023 H 850.679 3.57796 1.05055 0
M  V30 9024 N 852.864 0.259585 1.55447 0
M  V30 9025 C 854.089 -0.368317 2.04103 0
M  V30 9026 C 854.514 -1.49827 1.13725 0
M  V30 9027 O 853.872 -1.80814 0.132705 0
M  V30 9028 C 853.92 -0.841506 3.50644 0
M  V30 9029 O 853.024 -1.95008 3.63381 0
M  V30 9030 H 852.365 -0.0785227 0.659341 0
M  V30 9031 H 854.895 0.389349 2.00861 0
M  V30 9032 H 854.905 -1.14138 3.9171 0
M  V30 9033 H 853.58 -0.0147001 4.15897 0
M  V30 9034 H 852.157 -1.65393 3.34215 0
M  V30 9035 N 854.342 -1.57594 -0.0133615 0
M  V30 9036 C 855.59 -1.89605 -0.699596 0
M  V30 9037 C 855.911 -0.85926 -1.75048 0
M  V30 9038 O 855.181 0.105112 -1.95618 0
M  V30 9039 H 853.761 -0.699776 -0.261385 0
M  V30 9040 H 856.423 -1.94885 0.0244044 0
M  V30 9041 H 855.519 -2.88962 -1.17928 0
M  V30 9042 N 855.82 0.285905 -1.54985 0
M  V30 9043 C 857.068 1.01718 -1.74636 0
M  V30 9044 C 857.389 1.87277 -0.543342 0
M  V30 9045 O 856.659 1.90847 0.442078 0
M  V30 9046 H 855.239 0.378549 -0.643979 0
M  V30 9047 H 857.901 0.313247 -1.92366 0
M  V30 9048 H 856.997 1.66159 -2.64192 0
M  V30 9049 N 857.298 1.47698 0.54982 0
M  V30 9050 C 858.261 1.60282 1.63837 0
M  V30 9051 C 859.261 0.477394 1.5355 0
M  V30 9052 O 860.451 0.742665 1.57576 0
M  V30 9053 C 857.583 1.55431 3.03404 0
M  V30 9054 H 858.776 2.57325 1.54026 0
M  V30 9055 H 856.329 1.35999 0.770329 0
M  V30 9056 H 857.064 0.597912 3.1874 0
M  V30 9057 H 856.849 2.37116 3.12279 0
M  V30 9058 H 858.339 1.6739 3.82584 0
M  V30 9059 N 858.776 -0.797141 1.35954 0
M  V30 9060 C 860.187 -1.37179 1.26644 0
M  V30 9061 C 860.538 -1.9596 -0.0971046 0
M  V30 9062 O 859.663 -1.91994 -0.998355 0
M  V30 9063 C 860.258 -2.49395 2.2932 0
M  V30 9064 C 858.817 -3.02697 2.23722 0
M  V30 9065 C 857.964 -1.75721 2.14517 0
M  V30 9066 H 860.915 -0.599407 1.46945 0
M  V30 9067 H 860.936 -3.28204 1.92515 0
M  V30 9068 H 860.448 -2.06584 3.2855 0
M  V30 9069 H 858.549 -3.49948 1.27934 0
M  V30 9070 H 858.662 -3.60036 3.16087 0
M  V30 9071 H 857.026 -1.97649 1.60646 0
M  V30 9072 H 857.809 -1.35049 3.15621 0
M  V30 9073 N 860.254 -1.20106 -1.0204 0
M  V30 9074 C 861.531 -0.918029 -1.72718 0
M  V30 9075 C 861.911 0.574163 -2.03142 0
M  V30 9076 O 861.259 1.53476 -1.69285 0
M  V30 9077 C 861.469 -1.78698 -2.9978 0
M  V30 9078 C 862.817 -2.02648 -3.7312 0
M  V30 9079 O 863.841 -1.75919 -3.09727 0
M  V30 9080 O 862.7 -2.47767 -4.87107 0
M  V30 9081 H 859.794 -0.342904 -0.752559 0
M  V30 9082 H 862.34 -1.30961 -1.07923 0
M  V30 9083 H 861.112 -2.79757 -2.7359 0
M  V30 9084 H 860.735 -1.39522 -3.72316 0
M  V30 9085 N 861.732 1.21287 -1.00634 0
M  V30 9086 C 863.148 1.42467 -0.719389 0
M  V30 9087 C 863.348 1.88767 0.704927 0
M  V30 9088 O 862.404 2.05004 1.47409 0
M  V30 9089 C 863.717 2.455 -1.73639 0
M  V30 9090 C 865.265 2.59281 -1.75335 0
M  V30 9091 C 865.74 3.65547 -2.75934 0
M  V30 9092 N 867.231 3.73019 -2.74611 0
M  V30 9093 C 867.966 4.54873 -3.4911 0
M  V30 9094 N 867.462 5.40614 -4.33253 0
M  V30 9095 N 869.255 4.49309 -3.37754 0
M  V30 9096 H 861.406 0.895454 -1.92602 0
M  V30 9097 H 863.669 0.455491 -0.831404 0
M  V30 9098 H 863.375 2.18455 -2.75627 0
M  V30 9099 H 863.249 3.44325 -1.54014 0
M  V30 9100 H 865.636 2.85661 -0.740377 0
M  V30 9101 H 865.717 1.60685 -1.99032 0
M  V30 9102 H 865.361 3.39911 -3.77389 0
M  V30 9103 H 865.291 4.63741 -2.49503 0
M  V30 9104 H 867.782 3.11766 -2.13565 0
M  V30 9105 H 868.095 6.0013 -4.86892 0
M  V30 9106 H 866.44 5.40151 -4.37335 0
M  V30 9107 H 869.631 3.81357 -2.71449 0
M  V30 9108 H 869.804 5.12867 -3.9607 0
M  V30 9109 N 863.21 0.781244 1.36873 0
M  V30 9110 C 864.438 0.361566 2.03716 0
M  V30 9111 C 864.853 -1.01937 1.58916 0
M  V30 9112 O 864.21 -1.65237 0.774783 0
M  V30 9113 C 864.261 0.406391 3.59208 0
M  V30 9114 O 863.982 1.73286 4.02372 0
M  V30 9115 C 865.483 -0.0236894 4.43294 0
M  V30 9116 H 862.703 0.150133 0.653988 0
M  V30 9117 H 865.247 1.05781 1.75016 0
M  V30 9118 H 863.402 -0.241364 3.86647 0
M  V30 9119 H 863.816 1.67804 4.96933 0
M  V30 9120 H 865.29 0.0588205 5.51969 0
M  V30 9121 H 865.767 -1.07529 4.25833 0
M  V30 9122 H 866.373 0.59624 4.211 0
M  V30 9123 N 864.689 -1.48329 0.532571 0
M  V30 9124 C 865.637 -2.31336 -0.242133 0
M  V30 9125 C 866.631 -1.41391 -0.933006 0
M  V30 9126 O 867.837 -1.58284 -0.857096 0
M  V30 9127 H 864.212 -0.745724 -0.0969536 0
M  V30 9128 H 866.183 -2.94555 0.477504 0
M  V30 9129 C 864.932 -3.23501 -1.27446 0
M  V30 9130 H 864.255 -3.92659 -0.752261 0
M  V30 9131 H 865.695 -3.84461 -1.78789 0
M  V30 9132 C 864.154 -2.45288 -2.30944 0
M  V30 9133 O 864.684 -2.17955 -3.37429 0
M  V30 9134 N 862.89 -2.06737 -2.04226 0
M  V30 9135 H 862.437 -2.29166 -1.17647 0
M  V30 9136 H 862.395 -1.54719 -2.73696 0
M  V30 9137 N 866.167 -0.267825 -1.55308 0
M  V30 9138 C 867.414 0.351036 -1.99434 0
M  V30 9139 C 867.742 1.56406 -1.15618 0
M  V30 9140 O 866.997 1.94548 -0.212045 0
M  V30 9141 C 867.296 0.784247 -3.48689 0
M  V30 9142 C 866.962 -0.323328 -4.49739 0
M  V30 9143 C 865.624 -0.627467 -4.77091 0
M  V30 9144 C 867.976 -1.07002 -5.10098 0
M  V30 9145 C 865.304 -1.682 -5.62073 0
M  V30 9146 C 867.656 -2.11422 -5.96224 0
M  V30 9147 C 866.32 -2.42479 -6.21901 0
M  V30 9148 H 865.59 0.128453 -0.729781 0
M  V30 9149 H 868.237 -0.380018 -1.87692 0
M  V30 9150 H 866.542 1.59485 -3.57871 0
M  V30 9151 H 868.239 1.2737 -3.80234 0
M  V30 9152 H 864.829 -0.0761528 -4.28532 0
M  V30 9153 H 869.013 -0.848302 -4.88996 0
M  V30 9154 H 864.269 -1.92772 -5.80215 0
M  V30 9155 H 868.443 -2.69759 -6.4203 0
M  V30 9156 H 866.07 -3.24328 -6.87543 0
M  V30 9157 N 867.645 1.57599 0.00500368 0
M  V30 9158 C 869.056 1.78462 0.54848 0
M  V30 9159 C 869.407 0.901869 1.74243 0
M  V30 9160 O 868.532 0.103014 2.16155 0
M  V30 9161 C 869.127 3.2365 1.00179 0
M  V30 9162 C 867.686 3.45627 1.49061 0
M  V30 9163 C 866.833 2.73794 0.439531 0
M  V30 9164 H 869.784 1.57151 -0.22118 0
M  V30 9165 H 869.805 3.31488 1.86805 0
M  V30 9166 H 869.317 3.87873 0.132607 0
M  V30 9167 H 867.418 2.86612 2.38085 0
M  V30 9168 H 867.531 4.54298 1.52152 0
M  V30 9169 H 865.895 2.38267 0.900043 0
M  V30 9170 H 866.678 3.40714 -0.420599 0
M  V30 9171 N 869.123 -0.277682 1.55134 0
M  V30 9172 C 870.539 -0.624625 1.46869 0
M  V30 9173 C 870.739 -1.89717 0.678958 0
M  V30 9174 O 869.795 -2.51739 0.195939 0
M  V30 9175 C 871.108 -0.755937 2.91043 0
M  V30 9176 C 872.656 -0.850299 3.01229 0
M  V30 9177 C 873.131 -1.01343 4.46647 0
M  V30 9178 N 874.622 -1.07906 4.50456 0
M  V30 9179 C 875.357 -1.224 5.60184 0
M  V30 9180 N 874.853 -1.33642 6.79788 0
M  V30 9181 N 876.646 -1.25473 5.47917 0
M  V30 9182 H 868.797 0.558102 2.04937 0
M  V30 9183 H 871.06 0.188228 0.929125 0
M  V30 9184 H 870.766 0.108593 3.51532 0
M  V30 9185 H 870.64 -1.6377 3.39793 0
M  V30 9186 H 873.027 -1.7053 2.40839 0
M  V30 9187 H 873.108 0.0559681 2.55739 0
M  V30 9188 H 872.752 -0.163102 5.07638 0
M  V30 9189 H 872.682 -1.93427 4.89789 0
M  V30 9190 H 875.173 -1.00477 3.64298 0
M  V30 9191 H 875.486 -1.44522 7.59166 0
M  V30 9192 H 873.831 -1.30655 6.82608 0
M  V30 9193 H 877.022 -1.16317 4.53418 0
M  V30 9194 H 877.195 -1.36424 6.33476 0
M  V30 9195 N 870.601 -1.47988 -0.541979 0
M  V30 9196 C 871.849 -1.55086 -1.29587 0
M  V30 9197 C 872.17 -0.221304 -1.9374 0
M  V30 9198 O 871.44 0.756128 -1.80719 0
M  V30 9199 H 870.02 -0.571307 -0.481266 0
M  V30 9200 H 872.682 -1.8438 -0.631675 0
M  V30 9201 H 871.778 -2.32556 -2.08144 0
M  V30 9202 N 872.079 0.78992 -1.36375 0
M  V30 9203 C 873.325 1.55007 -1.3077 0
M  V30 9204 C 873.658 1.93871 0.112979 0
M  V30 9205 O 872.933 1.6267 1.06625 0
M  V30 9206 C 873.216 2.82748 -2.22993 0
M  V30 9207 C 873.069 2.50253 -3.73756 0
M  V30 9208 C 874.388 3.84569 -2.13998 0
M  V30 9209 H 871.507 0.562362 -0.476359 0
M  V30 9210 H 874.149 0.907582 -1.66922 0
M  V30 9211 H 872.299 3.37573 -1.92292 0
M  V30 9212 H 873.971 2.01482 -4.14973 0
M  V30 9213 H 872.214 1.83203 -3.93216 0
M  V30 9214 H 872.885 3.41487 -4.33694 0
M  V30 9215 H 875.361 3.39188 -2.4102 0
M  V30 9216 H 874.237 4.717 -2.80697 0
M  V30 9217 H 874.498 4.27491 -1.12711 0
M  V30 9218 N 873.557 1.20646 1.01402 0
M  V30 9219 C 874.782 1.04462 1.79172 0
M  V30 9220 C 875.207 -0.401588 1.83763 0
M  V30 9221 O 874.565 -1.28934 1.27459 0
M  V30 9222 C 874.613 1.63583 3.21361 0
M  V30 9223 O 873.717 0.875198 4.03006 0
M  V30 9224 H 873.058 0.368235 0.552539 0
M  V30 9225 H 875.588 1.59994 1.27526 0
M  V30 9226 H 875.598 1.67426 3.72065 0
M  V30 9227 H 874.273 2.68835 3.17334 0
M  V30 9228 H 872.85 0.911172 3.61597 0
M  V30 9229 N 875.035 -1.20752 1.01276 0
M  V30 9230 C 876.26 -1.94547 0.718769 0
M  V30 9231 C 876.685 -1.7404 -0.713563 0
M  V30 9232 O 876.043 -1.03221 -1.49047 0
M  V30 9233 C 876.091 -3.44823 1.05497 0
M  V30 9234 O 875.195 -4.12072 0.164516 0
M  V30 9235 H 874.536 -0.607931 0.267051 0
M  V30 9236 H 877.066 -1.53292 1.35509 0
M  V30 9237 H 877.076 -3.95427 1.00507 0
M  V30 9238 H 875.751 -3.59072 2.09858 0
M  V30 9239 H 874.328 -3.71909 0.271615 0
M  V30 9240 N 876.513 -0.788492 -1.36457 0
M  V30 9241 C 877.929 -0.470063 -1.52521 0
M  V30 9242 C 878.129 1.01176 -1.74258 0
M  V30 9243 O 877.185 1.79726 -1.77355 0
M  V30 9244 C 878.498 -1.2997 -2.71161 0
M  V30 9245 C 880.046 -1.2933 -2.85031 0
M  V30 9246 C 880.521 -2.10665 -4.06674 0
M  V30 9247 N 882.012 -2.08107 -4.13819 0
M  V30 9248 C 882.747 -2.6781 -5.07016 0
M  V30 9249 N 882.243 -3.36369 -6.05663 0
M  V30 9250 N 884.036 -2.57549 -4.99625 0
M  V30 9251 H 876.187 -1.7484 -1.20602 0
M  V30 9252 H 878.45 -0.743159 -0.588574 0
M  V30 9253 H 878.156 -2.35051 -2.61618 0
M  V30 9254 H 878.03 -0.940367 -3.6529 0
M  V30 9255 H 880.417 -0.250414 -2.94036 0
M  V30 9256 H 880.498 -1.69239 -1.91812 0
M  V30 9257 H 880.142 -3.14984 -3.98431 0
M  V30 9258 H 880.072 -1.68128 -4.9904 0
M  V30 9259 H 882.563 -1.58208 -3.43189 0
M  V30 9260 H 882.876 -3.79258 -6.73338 0
M  V30 9261 H 881.221 -3.40471 -6.05891 0
M  V30 9262 H 884.412 -2.0359 -4.21508 0
M  V30 9263 H 884.585 -3.0437 -5.72069 0
M  V30 9264 N 877.991 1.48044 -0.54043 0
M  V30 9265 C 879.216 2.07396 -0.0124765 0
M  V30 9266 C 879.641 1.39288 1.26414 0
M  V30 9267 O 878.999 0.462252 1.75308 0
M  V30 9268 C 879.047 3.60131 0.18377 0
M  V30 9269 O 878.151 3.92995 1.25014 0
M  V30 9270 H 877.492 0.662554 -0.0438026 0
M  V30 9271 H 880.022 1.90306 -0.751327 0
M  V30 9272 H 880.032 4.06003 0.403197 0
M  V30 9273 H 878.707 4.09105 -0.74874 0
M  V30 9274 H 877.284 3.5889 1.01254 0
M  V30 9275 N 879.47 0.276058 1.55163 0
M  V30 9276 C 880.698 -0.343772 2.04024 0
M  V30 9277 C 881.113 -1.49397 1.15438 0
M  V30 9278 O 880.47 -1.81662 0.174692 0
M  V30 9279 C 880.521 -0.823885 3.51986 0
M  V30 9280 O 880.242 0.280507 4.37201 0
M  V30 9281 C 881.743 -1.51143 4.16738 0
M  V30 9282 H 878.963 -0.07828 0.666418 0
M  V30 9283 H 881.507 0.408427 2.0038 0
M  V30 9284 H 879.662 -1.52617 3.56071 0
M  V30 9285 H 880.076 -0.0887831 5.24425 0
M  V30 9286 H 881.55 -1.79878 5.2187 0
M  V30 9287 H 882.027 -2.44327 3.64967 0
M  V30 9288 H 882.633 -0.852975 4.16659 0
M  V30 9289 N 880.948 -1.576 0.00335426 0
M  V30 9290 C 882.195 -1.90713 -0.680791 0
M  V30 9291 C 882.523 -0.877263 -1.73592 0
M  V30 9292 O 881.778 0.117497 -1.95347 0
M  V30 9293 C 882.077 -3.3058 -1.35837 0
M  V30 9294 C 881.743 -4.48786 -0.436111 0
M  V30 9295 C 880.405 -4.80855 -0.182195 0
M  V30 9296 C 882.757 -5.20821 0.198677 0
M  V30 9297 C 880.085 -5.8233 0.714747 0
M  V30 9298 C 882.437 -6.23252 1.08351 0
M  V30 9299 C 881.101 -6.53776 1.34658 0
M  V30 9300 H 880.371 -0.697869 -0.249119 0
M  V30 9301 H 883.018 -1.91407 0.0596011 0
M  V30 9302 H 881.323 -3.26026 -2.17289 0
M  V30 9303 H 883.02 -3.53462 -1.89383 0
M  V30 9304 H 879.61 -4.23731 -0.644186 0
M  V30 9305 H 883.794 -4.96298 0.0155259 0
M  V30 9306 H 879.05 -6.04339 0.926529 0
M  V30 9307 H 883.224 -6.78199 1.58172 0
M  V30 9308 H 880.851 -7.32225 2.04328 0
M  V30 9309 N 882.426 0.269451 -1.5528 0
M  V30 9310 C 883.376 1.33553 -1.84791 0
M  V30 9311 C 884.36 1.44532 -0.707067 0
M  V30 9312 O 885.552 1.48153 -0.968493 0
M  V30 9313 C 882.681 2.69516 -2.12641 0
M  V30 9314 C 881.767 2.62633 -3.32993 0
M  V30 9315 N 882.158 2.25371 -4.52815 0
M  V30 9316 C 880.456 2.93688 -3.35654 0
M  V30 9317 C 881.157 2.28567 -5.34913 0
M  V30 9318 N 880.133 2.67181 -4.73408 0
M  V30 9319 H 883.935 1.03758 -2.74976 0
M  V30 9320 H 881.449 0.478087 -1.55203 0
M  V30 9321 H 883.446 3.46424 -2.3194 0
M  V30 9322 H 882.106 3.00197 -1.23742 0
M  V30 9323 H 883.117 1.9729 -4.7885 0
M  V30 9324 H 879.794 3.29057 -2.56958 0
M  V30 9325 H 881.184 2.02289 -6.40725 0
M  V30 9326 N 883.904 1.48273 0.534124 0
M  V30 9327 C 884.867 1.6201 1.62127 0
M  V30 9328 C 885.867 0.493653 1.53035 0
M  V30 9329 O 887.057 0.759337 1.56779 0
M  V30 9330 C 884.189 1.5864 3.01739 0
M  V30 9331 H 885.382 2.58944 1.51288 0
M  V30 9332 H 882.935 1.36808 0.755861 0
M  V30 9333 H 883.67 0.631685 3.18088 0
M  V30 9334 H 883.455 2.40415 3.09747 0
M  V30 9335 H 884.945 1.71438 3.80787 0
M  V30 9336 N 885.382 -0.782676 1.36792 0
M  V30 9337 C 886.63 -1.53778 1.31136 0
M  V30 9338 C 886.951 -1.94706 -0.107014 0
M  V30 9339 O 886.221 -1.65465 -1.04872 0
M  V30 9340 H 884.801 -0.570328 0.482426 0
M  V30 9341 H 887.463 -0.932181 1.71162 0
M  V30 9342 H 886.559 -2.44224 1.94321 0
M  V30 9343 N 886.86 -1.21182 -1.00761 0
M  V30 9344 C 887.792 -0.926523 -2.09638 0
M  V30 9345 C 888.805 0.0892511 -1.62555 0
M  V30 9346 O 889.994 -0.142915 -1.77927 0
M  V30 9347 C 887.094 -0.369175 -3.36883 0
M  V30 9348 C 886.267 -1.43866 -4.13063 0
M  V30 9349 C 885.326 -0.891015 -5.18601 0
M  V30 9350 O 884.352 -1.57384 -5.47009 0
M  V30 9351 N 885.554 0.295057 -5.7975 0
M  V30 9352 H 888.319 -1.8638 -2.34697 0
M  V30 9353 H 885.88 -1.11671 -1.17223 0
M  V30 9354 H 887.872 0.011534 -4.04698 0
M  V30 9355 H 886.442 0.472861 -3.09003 0
M  V30 9356 H 885.662 -1.99332 -3.40089 0
M  V30 9357 H 886.95 -2.15866 -4.60738 0
M  V30 9358 H 886.348 0.8669 -5.59018 0
M  V30 9359 H 884.905 0.617306 -6.4887 0
M  V30 9360 N 888.338 1.20213 -1.01915 0
M  V30 9361 C 889.268 2.25336 -0.612023 0
M  V30 9362 C 890.249 1.65933 0.374186 0
M  V30 9363 O 891.434 1.92464 0.259053 0
M  V30 9364 C 888.564 3.47267 0.047904 0
M  V30 9365 C 887.518 4.1928 -0.859557 0
M  V30 9366 C 886.844 5.3466 -0.0652655 0
M  V30 9367 C 888.144 4.75143 -2.1688 0
M  V30 9368 H 889.838 2.59645 -1.49079 0
M  V30 9369 H 887.384 1.24808 -0.718263 0
M  V30 9370 H 889.337 4.19991 0.344294 0
M  V30 9371 H 888.061 3.12129 0.961404 0
M  V30 9372 H 886.72 3.48425 -1.13999 0
M  V30 9373 H 886.368 4.95767 0.849964 0
M  V30 9374 H 886.068 5.83772 -0.669618 0
M  V30 9375 H 887.592 6.10187 0.224612 0
M  V30 9376 H 889.006 5.39672 -1.9346 0
M  V30 9377 H 887.403 5.34702 -2.72422 0
M  V30 9378 H 888.473 3.93744 -2.83008 0
M  V30 9379 N 889.816 0.795718 1.36037 0
M  V30 9380 C 891.232 0.478145 1.52269 0
M  V30 9381 C 891.432 -1.0025 1.74792 0
M  V30 9382 O 890.488 -1.78783 1.78305 0
M  V30 9383 C 891.801 1.31406 2.70468 0
M  V30 9384 C 893.349 1.3084 2.84341 0
M  V30 9385 C 893.824 2.12819 4.05551 0
M  V30 9386 N 895.315 2.10298 4.12709 0
M  V30 9387 C 896.05 2.70495 5.05589 0
M  V30 9388 N 895.546 3.39576 6.03871 0
M  V30 9389 N 897.339 2.60195 4.98252 0
M  V30 9390 H 889.49 1.75477 1.19673 0
M  V30 9391 H 891.753 0.74627 0.584624 0
M  V30 9392 H 891.459 2.36435 2.60368 0
M  V30 9393 H 891.333 0.959726 3.64786 0
M  V30 9394 H 893.72 0.266003 2.93899 0
M  V30 9395 H 893.801 1.70254 1.90912 0
M  V30 9396 H 893.445 3.17093 3.96755 0
M  V30 9397 H 893.375 1.70772 4.98141 0
M  V30 9398 H 895.866 1.60026 3.42345 0
M  V30 9399 H 896.179 3.82823 6.71317 0
M  V30 9400 H 894.524 3.43679 6.04077 0
M  V30 9401 H 897.715 2.05823 4.20422 0
M  V30 9402 H 897.888 3.074 5.70447 0
M  V30 9403 N 891.294 -1.47756 0.548274 0
M  V30 9404 C 892.226 -2.27921 -0.24177 0
M  V30 9405 C 893.239 -1.36471 -0.887658 0
M  V30 9406 O 894.428 -1.6137 -0.763016 0
M  V30 9407 C 891.528 -3.10449 -1.35922 0
M  V30 9408 C 890.701 -4.298 -0.811808 0
M  V30 9409 C 889.76 -4.93994 -1.81264 0
M  V30 9410 O 888.786 -5.52657 -1.3623 0
M  V30 9411 N 889.988 -4.87882 -3.14566 0
M  V30 9412 H 892.753 -2.96365 0.445848 0
M  V30 9413 H 890.314 -1.57286 0.383769 0
M  V30 9414 H 892.306 -3.50261 -2.02729 0
M  V30 9415 H 890.876 -2.44306 -1.95021 0
M  V30 9416 H 890.096 -3.94186 0.0327929 0
M  V30 9417 H 891.384 -5.0702 -0.425272 0
M  V30 9418 H 890.782 -4.41405 -3.53805 0
M  V30 9419 H 889.339 -5.3174 -3.76956 0
M  V30 9420 N 892.772 -0.284283 -1.55015 0
M  V30 9421 C 894.018 0.330352 -2.00091 0
M  V30 9422 C 894.351 1.54814 -1.17244 0
M  V30 9423 O 893.626 1.92954 -0.244753 0
M  V30 9424 C 893.909 0.703492 -3.53161 0
M  V30 9425 C 893.762 -0.522275 -4.46758 0
M  V30 9426 C 895.081 1.53645 -4.12409 0
M  V30 9427 H 892.2 0.118599 -0.727395 0
M  V30 9428 H 894.842 -0.393054 -1.8589 0
M  V30 9429 H 892.992 1.31983 -3.65394 0
M  V30 9430 H 894.664 -1.16082 -4.46456 0
M  V30 9431 H 892.907 -1.15865 -4.1804 0
M  V30 9432 H 893.578 -0.217295 -5.51572 0
M  V30 9433 H 896.054 1.01583 -4.0351 0
M  V30 9434 H 894.93 1.76633 -5.19704 0
M  V30 9435 H 895.191 2.5204 -3.63219 0
M  V30 9436 N 894.251 1.57596 -0.0117121 0
M  V30 9437 C 895.667 1.55837 0.344506 0
M  V30 9438 C 895.867 1.01557 1.74036 0
M  V30 9439 O 894.923 0.654563 2.43868 0
M  V30 9440 C 896.236 2.99973 0.209023 0
M  V30 9441 C 897.784 3.11717 0.283092 0
M  V30 9442 C 898.259 4.57659 0.176599 0
M  V30 9443 N 899.75 4.62608 0.234133 0
M  V30 9444 C 900.485 5.73132 0.175252 0
M  V30 9445 N 899.981 6.92768 0.0662888 0
M  V30 9446 N 901.774 5.61638 0.227972 0
M  V30 9447 H 893.925 1.91215 -0.924692 0
M  V30 9448 H 896.188 0.878807 -0.355531 0
M  V30 9449 H 895.894 3.4357 -0.751826 0
M  V30 9450 H 895.768 3.64075 0.98635 0
M  V30 9451 H 898.155 2.68043 1.23439 0
M  V30 9452 H 898.236 2.50369 -0.52431 0
M  V30 9453 H 897.88 5.02011 -0.771205 0
M  V30 9454 H 897.81 5.16967 1.00264 0
M  V30 9455 H 900.301 3.76549 0.319203 0
M  V30 9456 H 900.614 7.72795 0.0275765 0
M  V30 9457 H 898.959 6.94993 0.0317502 0
M  V30 9458 H 902.15 4.67063 0.311377 0
M  V30 9459 H 902.323 6.47754 0.178621 0
M  V30 9460 N 895.729 -0.261212 1.5542 0
M  V30 9461 C 897.006 -1.01321 1.67312 0
M  V30 9462 C 897.386 -2.0388 0.547356 0
M  V30 9463 O 896.734 -2.24003 -0.451083 0
M  V30 9464 C 896.944 -1.65943 3.07024 0
M  V30 9465 C 898.292 -2.16666 3.65159 0
M  V30 9466 O 899.316 -1.75909 3.09733 0
M  V30 9467 O 898.175 -2.91455 4.62294 0
M  V30 9468 H 895.269 -0.470714 0.679968 0
M  V30 9469 H 897.815 -0.256133 1.67756 0
M  V30 9470 H 896.587 -0.916868 3.80407 0
M  V30 9471 H 896.21 -2.48308 3.1053 0
M  V30 9472 N 897.207 -1.48554 -0.526253 0
M  V30 9473 C 898.139 -1.59446 -1.6465 0
M  V30 9474 C 899.152 -0.478525 -1.55608 0
M  V30 9475 O 900.341 -0.74953 -1.62001 0
M  V30 9476 C 897.441 -1.51164 -3.03319 0
M  V30 9477 C 896.614 -2.77861 -3.37805 0
M  V30 9478 C 895.673 -2.62982 -4.5577 0
M  V30 9479 O 894.699 -3.36876 -4.58806 0
M  V30 9480 N 895.901 -1.72847 -5.5417 0
M  V30 9481 H 898.666 -2.56055 -1.55743 0
M  V30 9482 H 896.227 -1.45325 -0.713606 0
M  V30 9483 H 898.219 -1.389 -3.80117 0
M  V30 9484 H 896.789 -0.625147 -3.06285 0
M  V30 9485 H 896.009 -3.04663 -2.50149 0
M  V30 9486 H 897.297 -3.61908 -3.57632 0
M  V30 9487 H 896.695 -1.12022 -5.54498 0
M  V30 9488 H 895.252 -1.6652 -6.3017 0
M  V30 9489 N 898.685 0.775411 -1.37205 0
M  V30 9490 C 899.617 1.89761 -1.28544 0
M  V30 9491 C 900.63 1.61542 -0.201996 0
M  V30 9492 O 901.819 1.72528 -0.457848 0
M  V30 9493 C 898.919 3.24904 -0.963885 0
M  V30 9494 C 898.092 3.80796 -2.15205 0
M  V30 9495 C 897.151 4.94407 -1.80135 0
M  V30 9496 O 896.177 5.10185 -2.52388 0
M  V30 9497 N 897.379 5.75722 -0.743298 0
M  V30 9498 H 900.144 1.97708 -2.25237 0
M  V30 9499 H 897.705 0.954348 -1.30782 0
M  V30 9500 H 899.697 3.9842 -0.710182 0
M  V30 9501 H 898.267 3.12483 -0.085632 0
M  V30 9502 H 897.487 2.99101 -2.56773 0
M  V30 9503 H 898.775 4.1487 -2.94552 0
M  V30 9504 H 898.173 5.65518 -0.143655 0
M  V30 9505 H 896.73 6.4948 -0.549446 0
M  V30 9506 N 900.163 1.21714 1.00117 0
M  V30 9507 C 901.111 0.976937 2.11089 0
M  V30 9508 C 902.105 -0.0771295 1.69224 0
M  V30 9509 O 903.311 0.0745945 1.79845 0
M  V30 9510 H 899.686 0.298687 0.690138 0
M  V30 9511 H 901.657 1.91881 2.28526 0
M  V30 9512 C 900.406 0.562369 3.43122 0
M  V30 9513 H 899.729 1.36509 3.75773 0
M  V30 9514 H 901.169 0.433642 4.21777 0
M  V30 9515 C 899.628 -0.727148 3.28959 0
M  V30 9516 O 900.158 -1.78171 3.60025 0
M  V30 9517 N 898.364 -0.695129 2.82164 0
M  V30 9518 H 897.911 0.163346 2.57082 0
M  V30 9519 H 897.869 -1.55822 2.73069 0
M  V30 9520 N 901.641 -1.19671 1.02551 0
M  V30 9521 C 902.571 -2.25009 0.623965 0
M  V30 9522 C 903.552 -1.66129 -0.36538 0
M  V30 9523 O 904.737 -1.92599 -0.248842 0
M  V30 9524 C 901.867 -3.47287 -0.0294869 0
M  V30 9525 C 900.821 -4.18818 0.881781 0
M  V30 9526 C 900.147 -5.34618 0.0936189 0
M  V30 9527 C 901.447 -4.73986 2.19396 0
M  V30 9528 H 903.141 -2.58851 1.50454 0
M  V30 9529 H 900.687 -1.24425 0.724872 0
M  V30 9530 H 902.64 -4.20168 -0.322016 0
M  V30 9531 H 901.364 -3.12635 -0.944838 0
M  V30 9532 H 900.023 -3.47815 1.15845 0
M  V30 9533 H 899.671 -4.9621 -0.823661 0
M  V30 9534 H 899.371 -5.83409 0.700568 0
M  V30 9535 H 900.895 -6.10297 -0.192249 0
M  V30 9536 H 902.309 -5.38639 1.96319 0
M  V30 9537 H 900.706 -5.3325 2.75254 0
M  V30 9538 H 901.776 -3.92238 2.85092 0
M  V30 9539 N 903.119 -0.802921 -1.35613 0
M  V30 9540 C 904.53 -0.443004 -1.81368 0
M  V30 9541 C 904.881 1.03459 -1.66706 0
M  V30 9542 O 904.006 1.80372 -1.19561 0
M  V30 9543 C 904.601 -0.797324 -3.29284 0
M  V30 9544 C 903.16 -0.490055 -3.73196 0
M  V30 9545 C 902.307 -1.02487 -2.57666 0
M  V30 9546 H 905.258 -0.994888 -1.23643 0
M  V30 9547 H 905.279 -0.0934638 -3.80385 0
M  V30 9548 H 904.791 -1.87278 -3.39924 0
M  V30 9549 H 902.892 0.576818 -3.68108 0
M  V30 9550 H 903.005 -1.02012 -4.68114 0
M  V30 9551 H 901.369 -0.44738 -2.5074 0
M  V30 9552 H 902.152 -2.10636 -2.71085 0
M  V30 9553 N 904.597 1.47463 -0.556102 0
M  V30 9554 C 905.827 2.06568 -0.0364056 0
M  V30 9555 C 906.235 1.40939 1.26225 0
M  V30 9556 O 905.578 0.499572 1.76777 0
M  V30 9557 C 905.64 3.58755 0.231278 0
M  V30 9558 C 905.304 4.46417 -0.977776 0
M  V30 9559 C 906.301 4.846 -1.88305 0
M  V30 9560 C 903.986 4.87948 -1.19214 0
M  V30 9561 C 905.98 5.63111 -2.98639 0
M  V30 9562 C 903.667 5.66224 -2.29857 0
M  V30 9563 C 904.665 6.03716 -3.194 0
M  V30 9564 O 904.353 6.80415 -4.28125 0
M  V30 9565 H 904.085 0.674675 -0.042305 0
M  V30 9566 H 906.639 1.9047 -0.768775 0
M  V30 9567 H 904.869 3.73061 1.01794 0
M  V30 9568 H 906.558 3.99884 0.696221 0
M  V30 9569 H 907.324 4.53115 -1.72949 0
M  V30 9570 H 903.203 4.58233 -0.504347 0
M  V30 9571 H 906.747 5.92293 -3.68557 0
M  V30 9572 H 902.644 5.97121 -2.45186 0
M  V30 9573 H 903.412 6.98807 -4.26159 0
M  V30 9574 N 906.075 0.2925 1.54862 0
M  V30 9575 C 907.323 -0.318633 1.99572 0
M  V30 9576 C 907.644 -1.55062 1.1824 0
M  V30 9577 O 906.914 -1.93943 0.276226 0
M  V30 9578 H 905.494 -0.120722 0.737181 0
M  V30 9579 H 908.156 0.401862 1.90712 0
M  V30 9580 H 907.252 -0.596542 3.06346 0
M  V30 9581 N 907.553 -1.57587 0.0200696 0
M  V30 9582 C 908.799 -1.91708 -0.661503 0
M  V30 9583 C 909.132 -0.895968 -1.72296 0
M  V30 9584 O 908.407 0.082577 -1.94325 0
M  V30 9585 C 908.69 -3.36344 -1.28627 0
M  V30 9586 C 908.543 -4.49186 -0.234982 0
M  V30 9587 C 909.862 -3.80771 -2.20685 0
M  V30 9588 H 906.981 -0.69717 -0.239005 0
M  V30 9589 H 909.623 -1.8985 0.0754764 0
M  V30 9590 H 907.773 -3.38058 -1.91439 0
M  V30 9591 H 909.445 -4.59606 0.395011 0
M  V30 9592 H 907.688 -4.31557 0.440565 0
M  V30 9593 H 908.359 -5.47395 -0.711558 0
M  V30 9594 H 910.835 -3.80735 -1.67868 0
M  V30 9595 H 909.711 -4.82685 -2.61356 0
M  V30 9596 H 909.972 -3.15764 -3.09428 0
M  V30 9597 N 909.032 0.252966 -1.55557 0
M  V30 9598 C 910.26 0.999565 -1.81153 0
M  V30 9599 C 910.675 1.79181 -0.594955 0
M  V30 9600 O 910.032 1.77208 0.436311 0
M  V30 9601 C 910.083 1.94227 -3.04891 0
M  V30 9602 O 909.804 1.18209 -4.21851 0
M  V30 9603 C 911.305 2.80536 -3.43241 0
M  V30 9604 H 908.525 0.294402 -0.602966 0
M  V30 9605 H 911.069 0.277686 -2.02606 0
M  V30 9606 H 909.224 2.6185 -2.85505 0
M  V30 9607 H 909.638 1.81922 -4.9194 0
M  V30 9608 H 911.112 3.42442 -4.32941 0
M  V30 9609 H 911.589 3.51337 -2.6355 0
M  V30 9610 H 912.195 2.18373 -3.64956 0
M  V30 9611 N 910.51 1.48831 0.518367 0
M  V30 9612 C 911.921 1.50842 1.10016 0
M  V30 9613 C 912.272 0.284744 1.94123 0
M  V30 9614 O 911.397 -0.607088 2.0771 0
M  V30 9615 C 911.992 2.73329 2.00191 0
M  V30 9616 C 910.551 2.78175 2.53566 0
M  V30 9617 C 909.698 2.4452 1.30786 0
M  V30 9618 H 912.649 1.55779 0.303073 0
M  V30 9619 H 912.67 2.52506 2.84642 0
M  V30 9620 H 912.182 3.62374 1.3895 0
M  V30 9621 H 910.283 1.93368 3.18496 0
M  V30 9622 H 910.396 3.79905 2.91906 0
M  V30 9623 H 908.76 1.95924 1.62744 0
M  V30 9624 H 909.543 3.35819 0.712797 0
M  V30 9625 N 911.988 -0.768124 1.37614 0
M  V30 9626 C 912.951 -1.86314 1.3349 0
M  V30 9627 C 913.951 -1.59025 0.23823 0
M  V30 9628 O 915.141 -1.6704 0.494288 0
M  V30 9629 C 912.273 -3.23519 1.07462 0
M  V30 9630 H 913.466 -1.91382 2.30896 0
M  V30 9631 H 911.019 -0.968267 1.22696 0
M  V30 9632 H 911.754 -3.24127 0.106028 0
M  V30 9633 H 911.539 -3.44719 1.86846 0
M  V30 9634 H 913.029 -4.03597 1.07236 0
M  V30 9635 N 913.466 -1.22244 -0.994698 0
M  V30 9636 C 914.691 -1.07299 -1.77487 0
M  V30 9637 C 915.116 0.372302 -1.84379 0
M  V30 9638 O 914.474 1.2689 -1.29494 0
M  V30 9639 C 914.522 -1.68675 -3.18718 0
M  V30 9640 O 913.626 -0.939202 -4.01563 0
M  V30 9641 H 912.967 -0.376979 -0.546611 0
M  V30 9642 H 915.497 -1.62003 -1.24965 0
M  V30 9643 H 915.507 -1.73324 -3.69354 0
M  V30 9644 H 914.182 -2.73849 -3.13017 0
M  V30 9645 H 912.759 -0.968583 -3.60101 0
M  V30 9646 N 914.944 1.19125 -1.03184 0
M  V30 9647 C 916.355 1.70564 -0.759264 0
M  V30 9648 C 916.706 1.8248 0.720794 0
M  V30 9649 O 915.831 1.49804 1.56166 0
M  V30 9650 C 916.426 3.09793 -1.37163 0
M  V30 9651 C 914.985 3.5848 -1.14757 0
M  V30 9652 C 914.132 2.35265 -1.46784 0
M  V30 9653 H 917.083 1.03925 -1.19939 0
M  V30 9654 H 917.104 3.72624 -0.77015 0
M  V30 9655 H 916.616 3.01088 -2.44882 0
M  V30 9656 H 914.717 3.72494 -0.0887182 0
M  V30 9657 H 914.83 4.42426 -1.83836 0
M  V30 9658 H 913.194 2.38747 -0.887254 0
M  V30 9659 H 913.977 2.29188 -2.55593 0
M  V30 9660 N 916.422 0.810101 1.35185 0
M  V30 9661 C 917.647 0.40364 2.03434 0
M  V30 9662 C 918.072 -0.97857 1.60641 0
M  V30 9663 O 917.43 -1.63435 0.784779 0
M  V30 9664 C 917.478 0.499154 3.57129 0
M  V30 9665 O 916.582 -0.486039 4.09526 0
M  V30 9666 H 915.923 0.168049 0.642383 0
M  V30 9667 H 918.453 1.09696 1.72708 0
M  V30 9668 H 918.463 0.370236 4.06317 0
M  V30 9669 H 917.138 1.50733 3.87624 0
M  V30 9670 H 915.715 -0.31707 3.7155 0
M  V30 9671 N 917.9 -1.47166 0.563914 0
M  V30 9672 C 919.148 -2.02056 0.0422873 0
M  V30 9673 C 919.469 -1.43992 -1.31497 0
M  V30 9674 O 918.739 -0.617578 -1.85911 0
M  V30 9675 H 917.319 -0.746893 0.0126427 0
M  V30 9676 H 919.981 -1.80492 0.735441 0
M  V30 9677 H 919.077 -3.12073 -0.0408044 0
M  V30 9678 N 919.378 -0.300708 -1.54705 0
M  V30 9679 C 920.328 0.590589 -2.20218 0
M  V30 9680 C 921.312 1.09913 -1.17507 0
M  V30 9681 O 922.504 1.03995 -1.43227 0
M  V30 9682 C 919.633 1.76214 -2.94625 0
M  V30 9683 C 918.719 1.26957 -4.04651 0
M  V30 9684 N 919.11 0.494982 -5.03372 0
M  V30 9685 C 917.408 1.55033 -4.18188 0
M  V30 9686 C 918.109 0.232724 -5.81234 0
M  V30 9687 N 917.085 0.812443 -5.37494 0
M  V30 9688 H 920.887 -0.00876354 -2.93899 0
M  V30 9689 H 918.401 -0.105456 -1.62057 0
M  V30 9690 H 920.398 2.41221 -3.40027 0
M  V30 9691 H 919.058 2.36519 -2.22461 0
M  V30 9692 H 920.069 0.13991 -5.17711 0
M  V30 9693 H 916.746 2.16089 -3.57228 0
M  V30 9694 H 918.136 -0.389362 -6.70771 0
M  V30 9695 N 920.856 1.57574 -0.0284266 0
M  V30 9696 C 922.081 1.96479 0.664137 0
M  V30 9697 C 922.506 0.904826 1.64908 0
M  V30 9698 O 921.864 -0.134339 1.80802 0
M  V30 9699 C 921.912 3.34479 1.34745 0
M  V30 9700 O 921.016 3.30794 2.46271 0
M  V30 9701 H 920.357 0.640654 0.174524 0
M  V30 9702 H 922.887 2.04402 -0.0900729 0
M  V30 9703 H 922.897 3.70694 1.7044 0
M  V30 9704 H 921.572 4.1117 0.625468 0
M  V30 9705 H 920.149 3.06294 2.12693 0
M  V30 9706 N 922.334 -0.244713 1.55689 0
M  V30 9707 C 923.266 -1.32595 1.86952 0
M  V30 9708 C 924.279 -1.44185 0.755948 0
M  V30 9709 O 925.468 -1.45496 1.03408 0
M  V30 9710 C 922.568 -2.70429 2.04258 0
M  V30 9711 C 921.741 -2.8108 3.35131 0
M  V30 9712 C 920.8 -3.99773 3.42152 0
M  V30 9713 O 919.826 -3.89197 4.15348 0
M  V30 9714 N 921.028 -5.13041 2.71604 0
M  V30 9715 H 923.793 -1.06111 2.80287 0
M  V30 9716 H 921.354 -0.434811 1.55952 0
M  V30 9717 H 923.346 -3.48173 2.06295 0
M  V30 9718 H 921.916 -2.89612 1.17658 0
M  V30 9719 H 921.136 -1.89994 3.45392 0
M  V30 9720 H 922.424 -2.85147 4.21389 0
M  V30 9721 H 921.822 -5.24525 2.11872 0
M  V30 9722 H 920.379 -5.88912 2.79331 0
M  V30 9723 N 923.813 -1.49104 -0.510467 0
M  V30 9724 C 925.061 -1.578 -1.26268 0
M  V30 9725 C 925.382 -0.262349 -1.93227 0
M  V30 9726 O 924.652 0.717624 -1.82283 0
M  V30 9727 H 923.232 -0.581387 -0.46904 0
M  V30 9728 H 925.894 -1.85678 -0.592423 0
M  V30 9729 H 924.99 -2.36919 -2.03165 0
M  V30 9730 N 925.291 0.760815 -1.38019 0
M  V30 9731 C 926.707 1.06289 -1.19058 0
M  V30 9732 C 926.907 2.01471 -0.0342603 0
M  V30 9733 O 925.963 2.44713 0.62224 0
M  V30 9734 C 927.276 1.6499 -2.51394 0
M  V30 9735 C 928.824 1.77196 -2.58013 0
M  V30 9736 C 929.299 2.3931 -3.90506 0
M  V30 9737 N 930.79 2.46749 -3.92007 0
M  V30 9738 C 931.525 2.95687 -4.91281 0
M  V30 9739 N 931.021 3.44715 -6.00952 0
M  V30 9740 N 932.814 2.94661 -4.78677 0
M  V30 9741 H 924.965 0.129045 -2.12008 0
M  V30 9742 H 927.228 0.119878 -0.94039 0
M  V30 9743 H 926.934 1.0252 -3.36426 0
M  V30 9744 H 926.808 2.64146 -2.6927 0
M  V30 9745 H 929.195 2.38796 -1.7338 0
M  V30 9746 H 929.276 0.767645 -2.4401 0
M  V30 9747 H 928.92 1.78346 -4.75558 0
M  V30 9748 H 928.85 3.40369 -4.01817 0
M  V30 9749 H 931.341 2.12064 -3.12789 0
M  V30 9750 H 931.654 3.80492 -6.72641 0
M  V30 9751 H 929.999 3.42791 -6.04582 0
M  V30 9752 H 933.19 2.55665 -3.92113 0
M  V30 9753 H 933.363 3.32489 -5.56197 0
M  V30 9754 N 926.769 1.22769 0.988202 0
M  V30 9755 C 928.185 0.988665 1.2529 0
M  V30 9756 C 928.385 -0.314938 1.99024 0
M  V30 9757 O 927.441 -1.03637 2.30251 0
M  V30 9758 C 928.754 2.19046 2.06009 0
M  V30 9759 C 930.302 2.23452 2.19176 0
M  V30 9760 C 930.777 3.43196 3.03283 0
M  V30 9761 N 932.268 3.43387 3.10869 0
M  V30 9762 C 933.003 4.32693 3.7625 0
M  V30 9763 N 932.499 5.32224 4.43519 0
M  V30 9764 N 934.292 4.20457 3.73058 0
M  V30 9765 H 926.443 2.06575 0.494014 0
M  V30 9766 H 928.706 0.905452 0.28082 0
M  V30 9767 H 928.412 3.13607 1.59197 0
M  V30 9768 H 928.286 2.19492 3.06763 0
M  V30 9769 H 930.673 1.29436 2.65199 0
M  V30 9770 H 930.754 2.27042 1.17836 0
M  V30 9771 H 930.398 4.37515 2.57959 0
M  V30 9772 H 930.328 3.36847 4.04774 0
M  V30 9773 H 932.819 2.71368 2.62998 0
M  V30 9774 H 933.132 5.9664 4.91163 0
M  V30 9775 H 931.477 5.36133 4.42252 0
M  V30 9776 H 934.668 3.41949 3.19669 0
M  V30 9777 H 934.841 4.90261 4.23731 0
M  V30 9778 N 928.247 -1.18576 1.03814 0
M  V30 9779 C 929.495 -1.88121 0.738574 0
M  V30 9780 C 929.816 -1.80587 -0.735744 0
M  V30 9781 O 929.086 -1.22251 -1.53074 0
M  V30 9782 H 927.666 -0.696417 0.270208 0
M  V30 9783 H 930.328 -1.43912 1.31435 0
M  V30 9784 H 929.424 -2.94222 1.04115 0
M  V30 9785 N 929.725 -0.817259 -1.34754 0
M  V30 9786 C 930.688 -0.240611 -2.27934 0
M  V30 9787 C 931.688 0.578219 -1.50044 0
M  V30 9788 O 932.878 0.395148 -1.69659 0
M  V30 9789 C 930.01 0.663318 -3.34384 0
M  V30 9790 H 931.203 -1.06257 -2.80445 0
M  V30 9791 H 928.756 -0.588697 -1.4479 0
M  V30 9792 H 929.491 1.50855 -2.87077 0
M  V30 9793 H 929.276 0.0777388 -3.92023 0
M  V30 9794 H 930.766 1.06076 -4.03903 0
M  V30 9795 N 931.203 1.46865 -0.571711 0
M  V30 9796 C 932.428 2.07323 -0.0564655 0
M  V30 9797 C 932.853 1.41938 1.23431 0
M  V30 9798 O 932.211 0.499334 1.74288 0
M  V30 9799 C 932.259 3.6044 0.107339 0
M  V30 9800 O 931.363 3.95558 1.1665 0
M  V30 9801 H 930.704 0.661475 -0.0578465 0
M  V30 9802 H 933.234 1.88669 -0.791524 0
M  V30 9803 H 933.244 4.06767 0.316987 0
M  V30 9804 H 931.919 4.07425 -0.835348 0
M  V30 9805 H 930.496 3.60957 0.936189 0
M  V30 9806 N 932.681 0.308908 1.54543 0
M  V30 9807 C 933.929 -0.297447 1.99899 0
M  V30 9808 C 934.25 -1.53799 1.19878 0
M  V30 9809 O 933.52 -1.93639 0.29678 0
M  V30 9810 H 932.1 -0.112897 0.738419 0
M  V30 9811 H 934.762 0.422067 1.90275 0
M  V30 9812 H 933.858 -0.564016 3.06961 0
M  V30 9813 N 934.159 -1.57557 0.0367827 0
M  V30 9814 C 935.384 -1.96828 -0.653707 0
M  V30 9815 C 935.809 -0.913559 -1.64425 0
M  V30 9816 O 935.167 0.124749 -1.8087 0
M  V30 9817 C 935.215 -3.35189 -1.32969 0
M  V30 9818 O 934.319 -3.32095 -2.44513 0
M  V30 9819 H 933.66 -0.64157 -0.171124 0
M  V30 9820 H 936.19 -2.04351 0.100912 0
M  V30 9821 H 936.2 -3.71593 -1.68472 0
M  V30 9822 H 934.875 -4.11496 -0.603654 0
M  V30 9823 H 933.452 -3.07418 -2.11065 0
M  V30 9824 N 935.637 0.236453 -1.55816 0
M  V30 9825 C 936.886 0.960981 -1.77336 0
M  V30 9826 C 937.199 1.86085 -0.602641 0
M  V30 9827 O 938.405 2.62291 -0.701106 0
M  V30 9828 C 936.861 1.75884 -3.13995 0
M  V30 9829 C 936.469 0.905849 -4.38746 0
M  V30 9830 C 938.213 2.47548 -3.44848 0
M  V30 9831 C 936.12 1.7002 -5.66434 0
M  V30 9832 H 935.05 0.362547 -0.661117 0
M  V30 9833 H 937.701 0.215303 -1.82233 0
M  V30 9834 H 936.083 2.54687 -3.03234 0
M  V30 9835 H 937.257 0.159415 -4.60524 0
M  V30 9836 H 935.572 0.30205 -4.15303 0
M  V30 9837 H 938.169 3.07452 -4.37467 0
M  V30 9838 H 938.512 3.19689 -2.66655 0
M  V30 9839 H 939.045 1.75747 -3.56872 0
M  V30 9840 H 935.784 1.02234 -6.47479 0
M  V30 9841 H 935.304 2.42164 -5.48741 0
M  V30 9842 H 936.983 2.26469 -6.0607 0
M  V30 9843 N 937.115 1.49373 0.502552 0
M  V30 9844 C 938.362 1.58781 1.25678 0
M  V30 9845 C 938.69 0.273819 1.92563 0
M  V30 9846 O 937.945 -0.738141 1.81246 0
M  V30 9847 C 938.244 2.69508 2.34735 0
M  V30 9848 C 937.91 4.11057 1.85318 0
M  V30 9849 C 936.572 4.49578 1.7156 0
M  V30 9850 C 938.924 4.99653 1.48312 0
M  V30 9851 C 936.252 5.74469 1.19172 0
M  V30 9852 C 938.604 6.2506 0.97377 0
M  V30 9853 C 937.268 6.62412 0.822573 0
M  V30 9854 H 936.538 0.581021 0.459887 0
M  V30 9855 H 939.185 1.83197 0.557767 0
M  V30 9856 H 937.49 2.39057 3.10418 0
M  V30 9857 H 939.187 2.73997 2.92791 0
M  V30 9858 H 935.777 3.80651 1.96985 0
M  V30 9859 H 939.961 4.70549 1.57789 0
M  V30 9860 H 935.217 6.0211 1.06176 0
M  V30 9861 H 939.391 6.93089 0.678233 0
M  V30 9862 H 937.018 7.59069 0.414453 0
M  V30 9863 N 938.594 -0.753485 1.38421 0
M  V30 9864 C 939.819 -1.54783 1.38047 0
M  V30 9865 C 940.244 -1.8808 -0.0276371 0
M  V30 9866 O 939.602 -1.5058 -1.00973 0
M  V30 9867 C 939.65 -2.82353 2.24297 0
M  V30 9868 O 938.754 -3.77509 1.66014 0
M  V30 9869 H 938.095 -0.468151 0.470883 0
M  V30 9870 H 940.625 -0.931144 1.82184 0
M  V30 9871 H 940.635 -3.31277 2.38159 0
M  V30 9872 H 939.31 -2.57449 3.26639 0
M  V30 9873 H 937.887 -3.36212 1.61294 0
M  V30 9874 N 940.072 -1.23292 -0.981677 0
M  V30 9875 C 941.019 -1.01296 -2.07383 0
M  V30 9876 C 941.989 0.069139 -1.65956 0
M  V30 9877 O 943.174 -0.0827108 -1.90621 0
M  V30 9878 C 940.314 -0.608876 -3.39686 0
M  V30 9879 C 939.427 -1.76296 -3.9439 0
M  V30 9880 C 938.562 -1.30578 -5.14901 0
M  V30 9881 C 937.601 -2.4307 -5.61768 0
M  V30 9882 N 936.738 -1.98319 -6.73509 0
M  V30 9883 H 941.578 -1.9478 -2.25532 0
M  V30 9884 H 939.115 -0.970356 -1.10555 0
M  V30 9885 H 941.073 -0.355702 -4.15681 0
M  V30 9886 H 939.703 0.288961 -3.21504 0
M  V30 9887 H 938.755 -2.13017 -3.15163 0
M  V30 9888 H 940.067 -2.60871 -4.25145 0
M  V30 9889 H 939.221 -1.01066 -5.98223 0
M  V30 9890 H 937.96 -0.430386 -4.85797 0
M  V30 9891 H 936.965 -2.73358 -4.77028 0
M  V30 9892 H 938.19 -3.31144 -5.92892 0
M  V30 9893 H 936.136 -1.13157 -6.46167 0
M  V30 9894 H 936.053 -2.76454 -7.0364 0
M  V30 9895 H 937.321 -1.71907 -7.60308 0
M  V30 9896 N 941.55 1.18024 -1.04442 0
M  V30 9897 C 942.797 1.88098 -0.750022 0
M  V30 9898 C 943.125 1.80583 0.722489 0
M  V30 9899 O 942.38 1.20329 1.54335 0
M  V30 9900 C 942.679 3.37834 -1.16631 0
M  V30 9901 C 942.345 3.65553 -2.63974 0
M  V30 9902 C 941.007 3.72827 -3.04226 0
M  V30 9903 C 943.359 3.77634 -3.59224 0
M  V30 9904 C 940.687 3.89666 -4.38608 0
M  V30 9905 C 943.039 3.9599 -4.9333 0
M  V30 9906 C 941.703 4.01501 -5.33248 0
M  V30 9907 H 940.973 0.6883 -0.274452 0
M  V30 9908 H 943.62 1.39671 -1.31012 0
M  V30 9909 H 941.925 3.88266 -0.525071 0
M  V30 9910 H 943.622 3.90402 -0.915827 0
M  V30 9911 H 940.212 3.6051 -2.31798 0
M  V30 9912 H 944.396 3.71342 -3.2927 0
M  V30 9913 H 939.652 3.92178 -4.69048 0
M  V30 9914 H 943.826 4.0428 -5.67037 0
M  V30 9915 H 941.453 4.14301 -6.37384 0
M  V30 9916 N 943.028 0.824394 1.34319 0
M  V30 9917 C 944.256 0.426194 2.02463 0
M  V30 9918 C 944.671 -0.968298 1.62078 0
M  V30 9919 O 944.028 -1.62689 0.82696 0
M  V30 9920 C 944.079 0.520465 3.57734 0
M  V30 9921 O 943.8 1.86 3.96656 0
M  V30 9922 C 945.301 0.117353 4.43145 0
M  V30 9923 H 942.521 0.170864 0.648881 0
M  V30 9924 H 945.065 1.11296 1.71562 0
M  V30 9925 H 943.22 -0.118233 3.8722 0
M  V30 9926 H 943.634 1.83528 4.91343 0
M  V30 9927 H 945.108 0.234395 5.51502 0
M  V30 9928 H 945.585 -0.939271 4.29039 0
M  V30 9929 H 946.191 0.729908 4.1899 0
M  V30 9930 N 944.506 -1.46559 0.579492 0
M  V30 9931 C 945.731 -2.0729 0.0674595 0
M  V30 9932 C 946.156 -1.4259 -1.22677 0
M  V30 9933 O 945.514 -0.50857 -1.74021 0
M  V30 9934 C 945.562 -3.60492 -0.0882227 0
M  V30 9935 O 944.666 -3.96172 -1.14551 0
M  V30 9936 H 944.007 -0.661159 0.0613536 0
M  V30 9937 H 946.537 -1.88247 0.801519 0
M  V30 9938 H 946.547 -4.06929 -0.295411 0
M  V30 9939 H 945.222 -4.06976 0.856943 0
M  V30 9940 H 943.799 -3.61448 -0.917033 0
M  V30 9941 N 945.984 -0.3171 -1.54377 0
M  V30 9942 C 946.931 0.551782 -2.24107 0
M  V30 9943 C 947.901 1.11681 -1.22949 0
M  V30 9944 O 949.086 1.15836 -1.51614 0
M  V30 9945 C 946.226 1.70997 -2.99756 0
M  V30 9946 C 945.339 1.17479 -4.15719 0
M  V30 9947 C 944.474 2.29815 -4.78914 0
M  V30 9948 C 943.513 1.73513 -5.86992 0
M  V30 9949 N 942.65 2.79485 -6.44075 0
M  V30 9950 H 947.49 -0.049431 -2.97959 0
M  V30 9951 H 945.027 -0.0361658 -1.47056 0
M  V30 9952 H 946.985 2.39141 -3.41859 0
M  V30 9953 H 945.615 2.28257 -2.28251 0
M  V30 9954 H 944.667 0.385109 -3.78446 0
M  V30 9955 H 945.979 0.72276 -4.93536 0
M  V30 9956 H 945.133 3.05875 -5.23952 0
M  V30 9957 H 943.872 2.78352 -4.00464 0
M  V30 9958 H 942.877 0.959475 -5.41363 0
M  V30 9959 H 944.102 1.2586 -6.67335 0
M  V30 9960 H 942.048 3.27325 -5.68502 0
M  V30 9961 H 941.965 2.38825 -7.17286 0
M  V30 9962 H 943.233 3.55394 -6.93769 0
M  V30 9963 N 947.462 1.57535 -0.0451378 0
M  V30 9964 C 948.709 1.92451 0.629987 0
M  V30 9965 C 949.037 0.92298 1.71206 0
M  V30 9966 O 948.292 -0.0656626 1.9559 0
M  V30 9967 C 948.591 3.34065 1.27024 0
M  V30 9968 C 948.257 4.49785 0.316971 0
M  V30 9969 C 946.919 4.81169 0.0546406 0
M  V30 9970 C 949.271 5.20111 -0.336693 0
M  V30 9971 C 946.599 5.8023 -0.86889 0
M  V30 9972 C 948.951 6.2016 -1.24838 0
M  V30 9973 C 947.615 6.49976 -1.51944 0
M  V30 9974 H 946.885 0.704228 0.230529 0
M  V30 9975 H 949.532 1.91182 -0.110328 0
M  V30 9976 H 947.837 3.31672 2.08568 0
M  V30 9977 H 949.534 3.58359 1.79945 0
M  V30 9978 H 946.124 4.2529 0.531614 0
M  V30 9979 H 950.308 4.96082 -0.147105 0
M  V30 9980 H 945.564 6.0167 -1.08643 0
M  V30 9981 H 949.738 6.73767 -1.76098 0
M  V30 9982 H 947.365 7.26551 -2.2367 0
M  V30 9983 N 948.94 -0.228186 1.55939 0
M  V30 9984 C 950.186 -0.954964 1.78909 0
M  V30 9985 C 950.519 -1.8425 0.613648 0
M  V30 9986 O 949.794 -1.90604 -0.38737 0
M  V30 9987 C 950.077 -1.79957 3.1191 0
M  V30 9988 C 949.93 -0.938968 4.3989 0
M  V30 9989 C 951.249 -2.77859 3.41295 0
M  V30 9990 H 948.368 -0.345745 0.650868 0
M  V30 9991 H 951.01 -0.224244 1.88672 0
M  V30 9992 H 949.16 -2.42256 3.03717 0
M  V30 9993 H 950.832 -0.333225 4.60095 0
M  V30 9994 H 949.075 -0.244096 4.33113 0
M  V30 9995 H 949.746 -1.56416 5.29375 0
M  V30 9996 H 952.222 -2.25695 3.49572 0
M  V30 9997 H 951.098 -3.34062 4.35538 0
M  V30 9998 H 951.359 -3.55266 2.63132 0
M  V30 9999 N 950.418 -1.49637 -0.494624 0
M  V30 10000 C 951.834 -1.36541 -0.826361 0
M  V30 10001 C 952.034 -0.403386 -1.97421 0
M  V30 10002 O 951.09 0.162614 -2.51976 0
M  V30 10003 C 952.403 -2.77401 -1.16057 0
M  V30 10004 C 953.951 -2.86148 -1.26841 0
M  V30 10005 C 954.426 -4.27789 -1.63587 0
M  V30 10006 N 955.917 -4.3063 -1.70624 0
M  V30 10007 C 956.652 -5.37198 -2.00514 0
M  V30 10008 N 956.148 -6.54004 -2.28584 0
M  V30 10009 N 957.941 -5.2462 -2.01818 0
M  V30 10010 H 950.092 -2.10776 0.26219 0
M  V30 10011 H 952.355 -0.946419 0.0547235 0
M  V30 10012 H 952.061 -3.49526 -0.390434 0
M  V30 10013 H 951.935 -3.1317 -2.10249 0
M  V30 10014 H 954.322 -2.14256 -2.02925 0
M  V30 10015 H 954.403 -2.53953 -0.30684 0
M  V30 10016 H 954.047 -5.00209 -0.880507 0
M  V30 10017 H 953.977 -4.57453 -2.60854 0
M  V30 10018 H 956.468 -3.46393 -1.51065 0
M  V30 10019 H 956.781 -7.31041 -2.50598 0
M  V30 10020 H 955.126 -6.57219 -2.26027 0
M  V30 10021 H 958.317 -4.32371 -1.79369 0
M  V30 10022 H 958.49 -6.07765 -2.24778 0
M  V30 10023 N 951.896 0.746133 -1.38819 0
M  V30 10024 C 953.312 1.0502 -1.20179 0
M  V30 10025 C 953.512 2.01423 -0.0556271 0
M  V30 10026 O 952.568 2.45359 0.59625 0
M  V30 10027 C 953.881 1.62315 -2.53129 0
M  V30 10028 C 955.429 1.74449 -2.59878 0
M  V30 10029 C 955.904 2.35155 -3.93022 0
M  V30 10030 N 957.395 2.42577 -3.94602 0
M  V30 10031 C 958.13 2.9046 -4.94389 0
M  V30 10032 N 957.626 3.38322 -6.04574 0
M  V30 10033 N 959.419 2.89568 -4.81775 0
M  V30 10034 H 951.57 0.106551 -2.12133 0
M  V30 10035 H 953.833 0.109897 -0.941609 0
M  V30 10036 H 953.539 0.98946 -3.37495 0
M  V30 10037 H 953.413 2.61276 -2.72057 0
M  V30 10038 H 955.8 2.36943 -1.75903 0
M  V30 10039 H 955.881 0.741721 -2.4481 0
M  V30 10040 H 955.525 1.73292 -4.77422 0
M  V30 10041 H 955.455 3.36088 -4.05404 0
M  V30 10042 H 957.946 2.08735 -3.15021 0
M  V30 10043 H 958.259 3.73336 -6.76639 0
M  V30 10044 H 956.604 3.3636 -6.08184 0
M  V30 10045 H 959.795 2.51492 -3.94803 0
M  V30 10046 H 959.968 3.26571 -5.59692 0
M  V30 10047 N 953.375 1.23811 0.975125 0
M  V30 10048 C 954.323 1.02149 2.0897 0
M  V30 10049 C 955.317 -0.0412172 1.6935 0
M  V30 10050 O 956.523 0.112726 1.79647 0
M  V30 10051 H 952.898 0.313259 0.683647 0
M  V30 10052 H 954.869 1.96686 2.24404 0
M  V30 10053 C 953.618 0.635023 3.41852 0
M  V30 10054 H 952.941 1.44449 3.72793 0
M  V30 10055 H 954.381 0.52301 4.20762 0
M  V30 10056 C 952.84 -0.657207 3.30428 0
M  V30 10057 O 953.37 -1.70494 3.63723 0
M  V30 10058 N 951.576 -0.635122 2.83575 0
M  V30 10059 H 951.123 0.21784 2.56677 0
M  V30 10060 H 951.081 -1.49995 2.76313 0
M  V30 10061 N 954.853 -1.17469 1.05066 0
M  V30 10062 C 955.783 -2.23635 0.671552 0
M  V30 10063 C 956.764 -1.66867 -0.33006 0
M  V30 10064 O 957.949 -1.93084 -0.207933 0
M  V30 10065 C 955.079 -3.47272 0.0441845 0
M  V30 10066 C 954.033 -4.16854 0.97042 0
M  V30 10067 C 953.359 -5.34299 0.206998 0
M  V30 10068 C 954.659 -4.69225 2.29401 0
M  V30 10069 H 956.353 -2.55602 1.55911 0
M  V30 10070 H 953.899 -1.2286 0.751101 0
M  V30 10071 H 955.852 -4.20756 -0.23282 0
M  V30 10072 H 954.576 -3.14568 -0.878311 0
M  V30 10073 H 953.235 -3.4528 1.23197 0
M  V30 10074 H 952.883 -4.97846 -0.718222 0
M  V30 10075 H 952.583 -5.81792 0.82416 0
M  V30 10076 H 954.107 -6.10568 -0.0627525 0
M  V30 10077 H 955.521 -5.34353 2.077 0
M  V30 10078 H 953.918 -5.27291 2.86503 0
M  V30 10079 H 954.988 -3.86102 2.93348 0
M  V30 10080 N 956.331 -0.831506 -1.3388 0
M  V30 10081 C 957.556 -0.435954 -2.02766 0
M  V30 10082 C 957.981 0.952889 -1.62178 0
M  V30 10083 O 957.339 1.62166 -0.810681 0
M  V30 10084 C 957.387 -0.555907 -3.56289 0
M  V30 10085 O 956.491 0.420826 -4.10247 0
M  V30 10086 H 955.832 -0.178248 -0.639628 0
M  V30 10087 H 958.362 -1.1243 -1.70941 0
M  V30 10088 H 958.372 -0.434831 -4.05676 0
M  V30 10089 H 957.047 -1.56881 -3.85177 0
M  V30 10090 H 955.624 0.257919 -3.72007 0
M  V30 10091 N 957.809 1.4625 -0.587256 0
M  V30 10092 C 959.056 2.02363 -0.0745746 0
M  V30 10093 C 959.384 1.4582 1.28712 0
M  V30 10094 O 958.639 0.614922 1.85788 0
M  V30 10095 C 958.938 3.57382 0.036328 0
M  V30 10096 C 958.604 4.32985 -1.25837 0
M  V30 10097 C 957.266 4.53358 -1.61306 0
M  V30 10098 C 959.618 4.76361 -2.11494 0
M  V30 10099 C 956.946 5.14361 -2.82223 0
M  V30 10100 C 959.298 5.38699 -3.31641 0
M  V30 10101 C 957.962 5.57299 -3.67388 0
M  V30 10102 H 957.232 0.740497 -0.0272888 0
M  V30 10103 H 959.879 1.75565 -0.764804 0
M  V30 10104 H 958.184 3.83342 0.809712 0
M  V30 10105 H 959.881 3.9848 0.448838 0
M  V30 10106 H 956.471 4.17427 -0.972251 0
M  V30 10107 H 960.655 4.60372 -1.85394 0
M  V30 10108 H 955.911 5.26952 -3.10051 0
M  V30 10109 H 960.085 5.71267 -3.9828 0
M  V30 10110 H 957.712 6.04338 -4.61173 0
M  V30 10111 N 959.287 0.325282 1.54207 0
M  V30 10112 C 960.703 -0.0273036 1.59577 0
M  V30 10113 C 960.903 -1.50329 1.34177 0
M  V30 10114 O 959.959 -2.25951 1.12705 0
M  V30 10115 C 961.272 0.392468 2.98128 0
M  V30 10116 C 962.82 0.343269 3.11112 0
M  V30 10117 C 963.295 0.738229 4.52011 0
M  V30 10118 N 964.786 0.691701 4.58006 0
M  V30 10119 C 965.521 0.969479 5.65145 0
M  V30 10120 N 965.017 1.31448 6.80216 0
M  V30 10121 N 966.81 0.894926 5.5493 0
M  V30 10122 H 958.961 1.28692 1.68974 0
M  V30 10123 H 961.224 0.523399 0.790416 0
M  V30 10124 H 960.93 1.42089 3.2172 0
M  V30 10125 H 960.804 -0.241651 3.76425 0
M  V30 10126 H 963.191 -0.675946 2.87254 0
M  V30 10127 H 963.272 1.01235 2.34915 0
M  V30 10128 H 962.916 1.75537 4.76602 0
M  V30 10129 H 962.846 0.0468226 5.26579 0
M  V30 10130 H 965.337 0.436975 3.75365 0
M  V30 10131 H 965.65 1.51177 7.57869 0
M  V30 10132 H 963.995 1.35276 6.81708 0
M  V30 10133 H 967.186 0.624876 4.6391 0
M  V30 10134 H 967.359 1.11476 6.38339 0
M  V30 10135 N 960.765 -1.57509 0.0534917 0
M  V30 10136 C 962.012 -1.92782 -0.619772 0
M  V30 10137 C 962.34 -0.932046 -1.70714 0
M  V30 10138 O 961.595 0.0552891 -1.95622 0
M  V30 10139 C 961.894 -3.34734 -1.25251 0
M  V30 10140 C 961.56 -4.49946 -0.293113 0
M  V30 10141 C 960.222 -4.81191 -0.0291223 0
M  V30 10142 C 962.574 -5.19925 0.364271 0
M  V30 10143 C 959.902 -5.79761 0.899649 0
M  V30 10144 C 962.254 -6.19489 1.28125 0
M  V30 10145 C 960.918 -6.49161 1.55389 0
M  V30 10146 H 960.188 -0.705441 -0.226791 0
M  V30 10147 H 962.835 -1.91121 0.120466 0
M  V30 10148 H 961.14 -3.32774 -2.06807 0
M  V30 10149 H 962.837 -3.59308 -1.78042 0
M  V30 10150 H 959.427 -4.25566 -0.509053 0
M  V30 10151 H 963.611 -4.95997 0.173411 0
M  V30 10152 H 958.867 -6.01085 1.11833 0
M  V30 10153 H 963.041 -6.72824 1.79669 0
M  V30 10154 H 960.668 -7.25354 2.2752 0
M  V30 10155 N 962.243 0.219913 -1.56058 0
M  V30 10156 C 963.206 1.25606 -1.91718 0
M  V30 10157 C 964.206 1.39721 -0.795912 0
M  V30 10158 O 965.396 1.37958 -1.06364 0
M  V30 10159 C 962.528 2.62961 -2.16943 0
M  V30 10160 H 963.721 0.951909 -2.84392 0
M  V30 10161 H 961.274 0.460398 -1.49365 0
M  V30 10162 H 962.009 2.98472 -1.26826 0
M  V30 10163 H 961.794 2.54093 -2.98629 0
M  V30 10164 H 963.284 3.37727 -2.45622 0
M  V30 10165 N 963.721 1.49897 0.486681 0
M  V30 10166 C 965.137 1.36977 0.819109 0
M  V30 10167 C 965.337 0.41385 1.97204 0
M  V30 10168 O 964.393 -0.149249 2.52059 0
M  V30 10169 C 965.706 2.78013 1.14584 0
M  V30 10170 C 967.254 2.86816 1.25321 0
M  V30 10171 C 967.729 4.28651 1.61316 0
M  V30 10172 N 969.22 4.31528 1.68337 0
M  V30 10173 C 969.955 5.38254 1.97662 0
M  V30 10174 N 969.451 6.55207 2.25113 0
M  V30 10175 N 971.244 5.25683 1.99033 0
M  V30 10176 H 963.395 2.10634 -0.273364 0
M  V30 10177 H 965.658 0.946116 -0.0597418 0
M  V30 10178 H 965.364 3.49728 0.371892 0
M  V30 10179 H 965.238 3.1428 2.08585 0
M  V30 10180 H 967.625 2.15329 2.01785 0
M  V30 10181 H 967.706 2.54112 0.293368 0
M  V30 10182 H 967.35 5.00669 0.853968 0
M  V30 10183 H 967.28 4.5883 2.58424 0
M  V30 10184 H 969.771 3.47189 1.49226 0
M  V30 10185 H 970.084 7.32359 2.46717 0
M  V30 10186 H 968.429 6.58408 2.22538 0
M  V30 10187 H 971.62 4.33316 1.77074 0
M  V30 10188 H 971.793 6.08949 2.21552 0
M  V30 10189 N 965.199 -0.738761 1.39212 0
M  V30 10190 C 966.615 -1.04381 1.20734 0
M  V30 10191 C 966.815 -2.01391 0.0663082 0
M  V30 10192 O 965.871 -2.45672 -0.583229 0
M  V30 10193 C 967.184 -1.6097 2.53987 0
M  V30 10194 C 968.732 -1.73069 2.60799 0
M  V30 10195 C 969.207 -2.33067 3.94264 0
M  V30 10196 N 970.698 -2.40481 3.95883 0
M  V30 10197 C 971.433 -2.87834 4.95923 0
M  V30 10198 N 970.929 -3.35111 6.0636 0
M  V30 10199 N 972.722 -2.87009 4.83304 0
M  V30 10200 H 964.873 -0.0952996 2.12186 0
M  V30 10201 H 967.136 -0.104902 0.942178 0
M  V30 10202 H 966.842 -0.971548 3.38015 0
M  V30 10203 H 966.716 -2.59829 2.73439 0
M  V30 10204 H 969.103 -2.36007 1.77157 0
M  V30 10205 H 969.184 -0.728728 2.452 0
M  V30 10206 H 968.828 -1.70758 4.78335 0
M  V30 10207 H 968.758 -3.33933 4.07181 0
M  V30 10208 H 971.249 -2.07061 3.16123 0
M  V30 10209 H 971.562 -3.69742 6.78609 0
M  V30 10210 H 969.907 -3.33129 6.09959 0
M  V30 10211 H 973.098 -2.49395 3.96131 0
M  V30 10212 H 973.271 -3.23598 5.61416 0
M  V30 10213 N 966.677 -1.24326 -0.968545 0
M  V30 10214 C 967.625 -1.03256 -2.08425 0
M  V30 10215 C 968.619 0.0322356 -1.69369 0
M  V30 10216 O 969.825 -0.122251 -1.79584 0
M  V30 10217 H 966.2 -0.31688 -0.681976 0
M  V30 10218 H 968.171 -1.97873 -2.23358 0
M  V30 10219 C 966.92 -0.653144 -3.4151 0
M  V30 10220 H 966.243 -1.46424 -3.72021 0
M  V30 10221 H 967.683 -0.545316 -4.20479 0
M  V30 10222 C 966.142 0.639674 -3.30771 0
M  V30 10223 O 966.672 1.68563 -3.64622 0
M  V30 10224 N 964.878 0.620074 -2.83907 0
M  V30 10225 H 964.425 -0.231449 -2.56558 0
M  V30 10226 H 964.383 1.48528 -2.77104 0
M  V30 10227 N 968.156 1.1691 -1.05688 0
M  V30 10228 C 969.086 2.23275 -0.683402 0
M  V30 10229 C 970.067 1.6704 0.321206 0
M  V30 10230 O 971.252 1.93191 0.197691 0
M  V30 10231 C 968.382 3.47244 -0.0626006 0
M  V30 10232 C 967.336 4.16333 -0.992513 0
M  V30 10233 C 966.662 5.34182 -0.23533 0
M  V30 10234 C 967.962 4.68002 -2.31886 0
M  V30 10235 H 969.656 2.54771 -1.57264 0
M  V30 10236 H 967.202 1.2246 -0.757606 0
M  V30 10237 H 969.155 4.20874 0.210503 0
M  V30 10238 H 967.879 3.1503 0.861616 0
M  V30 10239 H 966.538 3.44622 -1.25026 0
M  V30 10240 H 966.186 4.9822 0.69181 0
M  V30 10241 H 965.886 5.81346 -0.855002 0
M  V30 10242 H 967.41 6.10592 0.0303717 0
M  V30 10243 H 968.824 5.33244 -2.10531 0
M  V30 10244 H 967.221 5.25764 -2.89296 0
M  V30 10245 H 968.291 3.84541 -2.95391 0
M  V30 10246 N 969.634 0.838594 1.33437 0
M  V30 10247 C 970.582 0.260158 2.31141 0
M  V30 10248 C 971.576 -0.607706 1.58124 0
M  V30 10249 O 972.782 -0.497298 1.72994 0
M  V30 10250 H 969.157 0.0654031 0.74915 0
M  V30 10251 H 971.128 1.09874 2.77435 0
M  V30 10252 C 969.877 -0.550234 3.43319 0
M  V30 10253 H 969.2 0.108262 3.99653 0
M  V30 10254 H 970.64 -0.920815 4.1388 0
M  V30 10255 C 969.099 -1.729 2.89149 0
M  V30 10256 O 969.629 -2.82769 2.85315 0
M  V30 10257 N 967.835 -1.5508 2.45761 0
M  V30 10258 H 967.382 -0.657055 2.49079 0
M  V30 10259 H 967.34 -2.34099 2.0987 0
M  V30 10260 N 971.112 -1.45937 0.595003 0
M  V30 10261 C 972.022 -2.34221 -0.133325 0
M  V30 10262 C 973.038 -1.50491 -0.873407 0
M  V30 10263 O 974.214 -1.83328 -0.833828 0
M  V30 10264 C 971.279 -3.27896 -1.12628 0
M  V30 10265 C 970.34 -4.27529 -0.389532 0
M  V30 10266 C 969.573 -5.16729 -1.33519 0
M  V30 10267 O 969.796 -5.09102 -2.57238 0
M  V30 10268 O 968.73 -5.96023 -0.839084 0
M  V30 10269 H 972.556 -2.97877 0.591861 0
M  V30 10270 H 970.141 -1.45113 0.355329 0
M  V30 10271 H 972.023 -3.85654 -1.69851 0
M  V30 10272 H 970.698 -2.6682 -1.83272 0
M  V30 10273 H 969.605 -3.73424 0.224843 0
M  V30 10274 H 970.938 -4.91425 0.276169 0
M  V30 10275 N 972.59 -0.333456 -1.54032 0
M  V30 10276 C 974.001 0.15256 -1.86076 0
M  V30 10277 C 974.352 1.50819 -1.25492 0
M  V30 10278 O 973.477 2.08903 -0.564665 0
M  V30 10279 C 974.072 0.283599 -3.37611 0
M  V30 10280 C 972.631 0.713841 -3.69569 0
M  V30 10281 C 971.778 -0.158515 -2.76847 0
M  V30 10282 H 974.729 -0.553404 -1.48738 0
M  V30 10283 H 974.75 1.11284 -3.63863 0
M  V30 10284 H 974.262 -0.703193 -3.81676 0
M  V30 10285 H 972.363 1.71002 -3.31042 0
M  V30 10286 H 972.476 0.510731 -4.7637 0
M  V30 10287 H 970.84 0.367531 -2.52034 0
M  V30 10288 H 971.623 -1.14226 -3.2374 0
M  V30 10289 N 974.068 1.57479 -0.061844 0
M  V30 10290 C 974.978 2.15645 0.923826 0
M  V30 10291 C 975.994 1.117 1.33413 0
M  V30 10292 O 977.17 1.4392 1.40887 0
M  V30 10293 C 974.235 2.69857 2.17665 0
M  V30 10294 C 973.296 3.88638 1.8237 0
M  V30 10295 C 972.529 4.40256 3.01679 0
M  V30 10296 O 972.752 3.90908 4.15388 0
M  V30 10297 O 971.686 5.31713 2.82073 0
M  V30 10298 H 975.512 3.0021 0.459094 0
M  V30 10299 H 973.097 1.48534 0.160665 0
M  V30 10300 H 974.979 3.04647 2.9115 0
M  V30 10301 H 973.654 1.88357 2.63255 0
M  V30 10302 H 972.561 3.58719 1.06167 0
M  V30 10303 H 973.894 4.71401 1.4157 0
M  V30 10304 N 975.546 -0.211634 1.56173 0
M  V30 10305 C 976.771 -0.955324 1.84088 0
M  V30 10306 C 977.196 -1.76754 0.643407 0
M  V30 10307 O 976.554 -1.76653 -0.407842 0
M  V30 10308 C 976.602 -1.84063 3.10085 0
M  V30 10309 O 975.706 -2.9373 2.89476 0
M  V30 10310 H 975.047 -0.26996 0.606645 0
M  V30 10311 H 977.577 -0.221947 2.03393 0
M  V30 10312 H 977.587 -2.24852 3.40449 0
M  V30 10313 H 976.262 -1.24373 3.96868 0
M  V30 10314 H 974.839 -2.56816 2.7037 0
M  V30 10315 N 977.024 -1.50153 -0.478725 0
M  V30 10316 C 977.971 -1.68458 -1.57767 0
M  V30 10317 C 978.941 -0.5259 -1.57555 0
M  V30 10318 O 980.126 -0.755574 -1.75202 0
M  V30 10319 C 977.266 -1.77772 -2.95789 0
M  V30 10320 C 976.379 -3.05092 -3.05848 0
M  V30 10321 C 975.514 -3.05247 -4.34739 0
M  V30 10322 C 974.553 -4.27053 -4.38512 0
M  V30 10323 N 973.69 -4.24991 -5.58862 0
M  V30 10324 H 978.53 -2.62282 -1.41464 0
M  V30 10325 H 976.067 -1.30023 -0.687921 0
M  V30 10326 H 978.025 -1.81152 -3.75819 0
M  V30 10327 H 976.655 -0.873944 -3.10744 0
M  V30 10328 H 975.707 -3.11219 -2.1874 0
M  V30 10329 H 977.019 -3.95075 -3.04495 0
M  V30 10330 H 976.173 -3.07314 -5.23109 0
M  V30 10331 H 974.912 -2.13081 -4.38689 0
M  V30 10332 H 973.917 -4.25206 -3.4854 0
M  V30 10333 H 975.142 -5.20437 -4.36259 0
M  V30 10334 H 973.088 -3.35674 -5.63612 0
M  V30 10335 H 973.005 -5.08734 -5.59219 0
M  V30 10336 H 974.273 -4.31193 -6.49379 0
M  V30 10337 N 978.502 0.731368 -1.39602 0
M  V30 10338 C 979.779 1.48308 -1.27531 0
M  V30 10339 C 980.159 2.10795 0.113482 0
M  V30 10340 O 979.507 1.98886 1.12501 0
M  V30 10341 C 979.717 2.53156 -2.40235 0
M  V30 10342 C 981.065 3.19436 -2.79725 0
M  V30 10343 O 982.089 2.6347 -2.39712 0
M  V30 10344 O 980.948 4.20714 -3.48801 0
M  V30 10345 H 978.042 0.658753 -0.499973 0
M  V30 10346 H 980.588 0.764884 -1.51485 0
M  V30 10347 H 979.36 2.05387 -3.33064 0
M  V30 10348 H 978.983 3.3253 -2.17966 0
M  V30 10349 N 979.98 1.24838 0.961938 0
M  V30 10350 C 981.396 1.01502 1.23165 0
M  V30 10351 C 981.596 -0.272651 1.99647 0
M  V30 10352 O 980.652 -0.987297 2.32398 0
M  V30 10353 C 981.965 2.23366 2.01316 0
M  V30 10354 C 983.513 2.28051 2.14387 0
M  V30 10355 C 983.988 3.49552 2.95935 0
M  V30 10356 N 985.479 3.49904 3.03515 0
M  V30 10357 C 986.214 4.40577 3.66987 0
M  V30 10358 N 985.71 5.41512 4.3213 0
M  V30 10359 N 987.503 4.28275 3.64056 0
M  V30 10360 H 979.654 2.07576 0.450086 0
M  V30 10361 H 981.917 0.911205 0.261551 0
M  V30 10362 H 981.623 3.16913 1.5251 0
M  V30 10363 H 981.497 2.25949 3.02038 0
M  V30 10364 H 983.884 1.35032 2.62393 0
M  V30 10365 H 983.965 2.29491 1.12994 0
M  V30 10366 H 983.609 4.42889 2.4862 0
M  V30 10367 H 983.539 3.45357 3.97538 0
M  V30 10368 H 986.03 2.76885 2.57183 0
M  V30 10369 H 986.343 6.06924 4.78396 0
M  V30 10370 H 984.688 5.45393 4.3078 0
M  V30 10371 H 987.879 3.48653 3.12344 0
M  V30 10372 H 988.052 4.99138 4.13237 0
M  V30 10373 N 981.458 -1.16348 1.06306 0
M  V30 10374 C 982.704 -1.87158 0.781007 0
M  V30 10375 C 983.037 -1.81499 -0.690784 0
M  V30 10376 O 982.312 -1.23074 -1.50609 0
M  V30 10377 C 982.595 -3.3672 1.27639 0
M  V30 10378 C 982.448 -3.51069 2.81194 0
M  V30 10379 C 983.767 -4.31122 0.884388 0
M  V30 10380 H 980.886 -0.679586 0.285187 0
M  V30 10381 H 983.528 -1.36756 1.31901 0
M  V30 10382 H 981.678 -3.79775 0.818715 0
M  V30 10383 H 983.35 -3.16952 3.35171 0
M  V30 10384 H 981.593 -2.92976 3.19918 0
M  V30 10385 H 982.264 -4.56105 3.10921 0
M  V30 10386 H 984.74 -3.95969 1.27858 0
M  V30 10387 H 983.616 -5.34279 1.25847 0
M  V30 10388 H 983.877 -4.41598 -0.210673 0
M  V30 10389 N 982.937 -0.845659 -1.3299 0
M  V30 10390 C 983.847 -0.2864 -2.32845 0
M  V30 10391 C 984.863 0.591105 -1.63652 0
M  V30 10392 O 986.039 0.493615 -1.95257 0
M  V30 10393 C 983.104 0.523636 -3.42723 0
M  V30 10394 C 982.165 -0.378945 -4.27624 0
M  V30 10395 C 981.398 0.392526 -5.32255 0
M  V30 10396 O 981.621 1.6235 -5.46808 0
M  V30 10397 O 980.555 -0.237 -6.01433 0
M  V30 10398 H 984.381 -1.11346 -2.82552 0
M  V30 10399 H 981.966 -0.608356 -1.36453 0
M  V30 10400 H 983.848 0.983718 -4.09757 0
M  V30 10401 H 982.523 1.32764 -2.95221 0
M  V30 10402 H 981.43 -0.887012 -3.63432 0
M  V30 10403 H 982.763 -1.1479 -4.78627 0
M  V30 10404 N 984.415 1.45619 -0.602734 0
M  V30 10405 C 985.643 2.06647 -0.102253 0
M  V30 10406 C 986.058 1.4482 1.21131 0
M  V30 10407 O 985.415 0.560621 1.73676 0
M  V30 10408 C 985.466 3.61467 0.0490113 0
M  V30 10409 O 985.187 4.20985 -1.21257 0
M  V30 10410 C 986.688 4.39469 0.581517 0
M  V30 10411 H 983.908 0.667685 -0.0666155 0
M  V30 10412 H 986.452 1.86939 -0.829091 0
M  V30 10413 H 984.607 3.80534 0.726153 0
M  V30 10414 H 985.021 5.14103 -1.03915 0
M  V30 10415 H 986.495 5.48318 0.636462 0
M  V30 10416 H 986.972 4.0891 1.60277 0
M  V30 10417 H 987.578 4.25256 -0.061419 0
M  V30 10418 N 985.893 0.34162 1.53853 0
M  V30 10419 C 986.823 -0.508431 2.27897 0
M  V30 10420 C 987.804 -1.10425 1.29384 0
M  V30 10421 O 988.989 -1.126 1.58224 0
M  V30 10422 C 986.119 -1.66048 3.05034 0
M  V30 10423 C 985.073 -1.19309 4.11035 0
M  V30 10424 C 984.399 -2.4335 4.76114 0
M  V30 10425 C 985.699 -0.294952 5.21467 0
M  V30 10426 H 987.393 0.109251 2.99201 0
M  V30 10427 H 984.939 0.0539847 1.43899 0
M  V30 10428 H 986.892 -2.26158 3.5557 0
M  V30 10429 H 985.616 -2.30503 2.31379 0
M  V30 10430 H 984.275 -0.614809 3.61408 0
M  V30 10431 H 983.923 -3.06208 3.99056 0
M  V30 10432 H 983.623 -2.1276 5.47729 0
M  V30 10433 H 985.147 -3.0419 5.29434 0
M  V30 10434 H 986.561 -0.80285 5.67651 0
M  V30 10435 H 984.958 -0.0810221 6.00045 0
M  V30 10436 H 986.028 0.669433 4.80257 0
M  V30 10437 N 987.371 -1.57444 0.0701946 0
M  V30 10438 C 988.787 -1.57009 -0.286431 0
M  V30 10439 C 988.987 -1.07946 -1.70147 0
M  V30 10440 O 988.043 -0.744622 -2.41271 0
M  V30 10441 C 989.356 -3.00542 -0.0975466 0
M  V30 10442 C 990.904 -3.12553 -0.167205 0
M  V30 10443 C 991.379 -4.58 -0.00662047 0
M  V30 10444 N 992.87 -4.63158 -0.0622778 0
M  V30 10445 C 993.605 -5.73388 0.0375831 0
M  V30 10446 N 993.101 -6.92537 0.190873 0
M  V30 10447 N 994.894 -5.62097 -0.0193672 0
M  V30 10448 H 987.045 -1.87651 0.995023 0
M  V30 10449 H 989.308 -0.865006 0.387902 0
M  V30 10450 H 989.014 -3.40543 0.878822 0
M  V30 10451 H 988.888 -3.67485 -0.850547 0
M  V30 10452 H 991.275 -2.72439 -1.13406 0
M  V30 10453 H 991.356 -2.48251 0.616871 0
M  V30 10454 H 991 -4.98803 0.956992 0
M  V30 10455 H 990.93 -5.20332 -0.810081 0
M  V30 10456 H 993.421 -3.77475 -0.179229 0
M  V30 10457 H 993.734 -7.72365 0.25926 0
M  V30 10458 H 992.079 -6.94632 0.226214 0
M  V30 10459 H 995.27 -4.67897 -0.137815 0
M  V30 10460 H 995.443 -6.4797 0.0619121 0
M  V30 10461 N 988.849 0.203349 -1.56283 0
M  V30 10462 C 990.26 0.768764 -1.70138 0
M  V30 10463 C 990.611 1.8421 -0.675358 0
M  V30 10464 O 989.736 2.15732 0.1699 0
M  V30 10465 C 990.331 1.40123 -3.08466 0
M  V30 10466 C 988.89 1.91382 -3.24114 0
M  V30 10467 C 988.037 0.780685 -2.66084 0
M  V30 10468 H 990.988 -0.0215997 -1.58685 0
M  V30 10469 H 991.009 2.27046 -3.05336 0
M  V30 10470 H 990.521 0.619805 -3.83119 0
M  V30 10471 H 988.622 2.7227 -2.54362 0
M  V30 10472 H 988.735 2.08128 -4.31531 0
M  V30 10473 H 987.099 1.19281 -2.25042 0
M  V30 10474 H 987.882 0.0116351 -3.43298 0
M  V30 10475 N 990.327 1.50405 0.470755 0
M  V30 10476 C 991.277 1.65681 1.56633 0
M  V30 10477 C 992.261 0.511424 1.52556 0
M  V30 10478 O 993.453 0.765844 1.59574 0
M  V30 10479 C 990.582 1.7546 2.95074 0
M  V30 10480 C 989.668 2.95676 3.04034 0
M  V30 10481 N 990.059 4.1935 2.82807 0
M  V30 10482 C 988.357 2.94241 3.35169 0
M  V30 10483 C 989.058 5.0032 2.96741 0
M  V30 10484 N 988.034 4.34282 3.26956 0
M  V30 10485 H 991.836 2.58994 1.38922 0
M  V30 10486 H 989.35 1.47593 0.67749 0
M  V30 10487 H 991.347 1.84508 3.73848 0
M  V30 10488 H 990.007 0.833057 3.13832 0
M  V30 10489 H 991.018 4.48842 2.58382 0
M  V30 10490 H 987.695 2.11587 3.59913 0
M  V30 10491 H 989.085 6.08664 2.84566 0
M  V30 10492 N 991.805 -0.723954 1.39988 0
M  V30 10493 C 993.051 -1.48591 1.38017 0
M  V30 10494 C 993.384 -1.94189 -0.0203522 0
M  V30 10495 O 992.659 -1.67572 -0.987422 0
M  V30 10496 C 992.942 -2.71786 2.36229 0
M  V30 10497 C 992.795 -2.32136 3.8527 0
M  V30 10498 C 994.114 -3.73921 2.32102 0
M  V30 10499 H 991.233 -0.538993 0.502648 0
M  V30 10500 H 993.875 -0.826908 1.71062 0
M  V30 10501 H 992.025 -3.28015 2.0818 0
M  V30 10502 H 993.697 -1.81454 4.24113 0
M  V30 10503 H 991.94 -1.64234 4.01509 0
M  V30 10504 H 992.611 -3.20406 4.49493 0
M  V30 10505 H 995.087 -3.27303 2.56928 0
M  V30 10506 H 993.963 -4.5777 3.02882 0
M  V30 10507 H 994.224 -4.21627 1.32979 0
M  V30 10508 N 993.283 -1.25346 -0.955304 0
M  V30 10509 C 994.529 -1.10218 -1.70235 0
M  V30 10510 C 994.862 0.356124 -1.90907 0
M  V30 10511 O 994.137 1.26253 -1.47954 0
M  V30 10512 C 994.42 -1.85627 -3.08569 0
M  V30 10513 C 994.273 -3.39281 -2.95311 0
M  V30 10514 C 995.592 -1.63886 -4.08448 0
M  V30 10515 H 992.711 -0.401781 -0.617852 0
M  V30 10516 H 995.353 -1.5417 -1.11048 0
M  V30 10517 H 993.503 -1.48269 -3.59094 0
M  V30 10518 H 995.175 -3.8631 -2.52116 0
M  V30 10519 H 993.418 -3.67027 -2.31244 0
M  V30 10520 H 994.089 -3.87258 -3.93364 0
M  V30 10521 H 996.565 -1.96406 -3.6683 0
M  V30 10522 H 995.441 -2.19087 -5.03281 0
M  V30 10523 H 995.702 -0.580021 -4.38279 0
M  V30 10524 N 994.761 1.15782 -1.06922 0
M  V30 10525 C 996.009 1.86097 -0.788192 0
M  V30 10526 C 996.33 1.82475 0.687606 0
M  V30 10527 O 995.6 1.26266 1.49778 0
M  V30 10528 H 994.18 0.689008 -0.288577 0
M  V30 10529 H 996.842 1.40377 -1.35205 0
M  V30 10530 H 995.938 2.91358 -1.1188 0
M  V30 10531 N 996.239 0.8527 1.3254 0
M  V30 10532 C 997.464 0.468157 2.02047 0
M  V30 10533 C 997.889 -0.926967 1.63673 0
M  V30 10534 O 997.247 -1.60855 0.836378 0
M  V30 10535 C 997.295 0.612519 3.5536 0
M  V30 10536 O 996.399 -0.355506 4.10865 0
M  V30 10537 H 995.74 0.188401 0.636711 0
M  V30 10538 H 998.27 1.15135 1.6913 0
M  V30 10539 H 998.28 0.499315 4.04933 0
M  V30 10540 H 996.955 1.62988 3.82632 0
M  V30 10541 H 995.532 -0.198703 3.7237 0
M  V30 10542 N 997.718 -1.45297 0.610449 0
M  V30 10543 C 998.966 -2.01819 0.106548 0
M  V30 10544 C 999.287 -1.48102 -1.26849 0
M  V30 10545 O 998.557 -0.676411 -1.83852 0
M  V30 10546 H 997.137 -0.746113 0.0363982 0
M  V30 10547 H 999.799 -1.78061 0.792491 0
M  V30 10548 H 998.895 -3.12045 0.0585 0
M  V30 10549 N 999.196 -0.349774 -1.5367 0
M  V30 10550 C 1000.44 0.244343 -2.00617 0
M  V30 10551 C 1000.76 1.50567 -1.23914 0
M  V30 10552 O 1000.03 1.92784 -0.348016 0
M  V30 10553 H 998.615 0.0932792 -0.741153 0
M  V30 10554 H 1001.28 -0.472367 -1.89089 0
M  V30 10555 H 1000.37 0.482433 -3.08349 0
M  V30 10556 N 1000.67 1.57404 -0.0785433 0
M  V30 10557 C 1001.62 2.14316 0.903949 0
M  V30 10558 C 1002.62 1.08176 1.30362 0
M  V30 10559 O 1003.82 1.26546 1.28008 0
M  V30 10560 H 1000.2 0.685367 0.309477 0
M  V30 10561 H 1002.17 2.95719 0.399081 0
M  V30 10562 C 1000.92 2.72504 2.15956 0
M  V30 10563 H 1000.24 3.53853 1.86087 0
M  V30 10564 H 1001.68 3.15914 2.82798 0
M  V30 10565 C 1000.14 1.6759 2.92259 0
M  V30 10566 O 1000.67 1.10492 3.86205 0
M  V30 10567 N 998.875 1.38467 2.5549 0
M  V30 10568 H 998.422 1.85088 1.79166 0
M  V30 10569 H 998.38 0.685053 3.06846 0
M  V30 10570 N 1002.15 -0.195058 1.56388 0
M  V30 10571 C 1003.43 -0.941335 1.71459 0
M  V30 10572 C 1003.81 -2.01375 0.633336 0
M  V30 10573 O 1003.16 -2.25715 -0.35567 0
M  V30 10574 C 1003.37 -1.52772 3.13786 0
M  V30 10575 C 1004.71 -2.00983 3.7402 0
M  V30 10576 O 1005.74 -1.62614 3.16915 0
M  V30 10577 O 1004.6 -2.71586 4.7424 0
M  V30 10578 H 1001.69 -0.441451 0.699321 0
M  V30 10579 H 1004.24 -0.184752 1.68691 0
M  V30 10580 H 1003.01 -0.754699 3.83953 0
M  V30 10581 H 1002.63 -2.34914 3.20782 0
M  V30 10582 N 1003.63 -1.50653 -0.462772 0
M  V30 10583 C 1004.58 -1.70122 -1.55971 0
M  V30 10584 C 1005.55 -0.542581 -1.56988 0
M  V30 10585 O 1006.73 -0.774114 -1.74391 0
M  V30 10586 C 1003.87 -1.80899 -2.93887 0
M  V30 10587 C 1002.98 -3.08318 -3.02595 0
M  V30 10588 C 1002.12 -3.09841 -4.31477 0
M  V30 10589 C 1001.16 -4.3168 -4.33957 0
M  V30 10590 N 1000.3 -4.30894 -5.54323 0
M  V30 10591 H 1005.14 -2.63768 -1.38674 0
M  V30 10592 H 1002.67 -1.30746 -0.674091 0
M  V30 10593 H 1004.63 -1.85128 -3.73876 0
M  V30 10594 H 1003.26 -0.906854 -3.098 0
M  V30 10595 H 1002.31 -3.13521 -2.15427 0
M  V30 10596 H 1003.62 -3.98282 -3.00288 0
M  V30 10597 H 1002.78 -3.12845 -5.1982 0
M  V30 10598 H 1001.52 -2.17722 -4.36404 0
M  V30 10599 H 1000.52 -4.28879 -3.4401 0
M  V30 10600 H 1001.75 -5.25035 -4.30715 0
M  V30 10601 H 999.694 -3.41633 -5.6002 0
M  V30 10602 H 999.611 -5.14636 -5.53792 0
M  V30 10603 H 1000.88 -4.38056 -6.44769 0
M  V30 10604 N 1005.11 0.71652 -1.4037 0
M  V30 10605 C 1006.02 1.86074 -1.42876 0
M  V30 10606 C 1007.03 1.71005 -0.321475 0
M  V30 10607 O 1008.21 1.93286 -0.565909 0
M  V30 10608 C 1005.28 3.21862 -1.28863 0
M  V30 10609 C 1004.34 3.49193 -2.49726 0
M  V30 10610 C 1003.57 4.78502 -2.36372 0
M  V30 10611 O 1003.79 5.53529 -1.37703 0
M  V30 10612 O 1002.73 5.06147 -3.25728 0
M  V30 10613 H 1006.55 1.86916 -2.39366 0
M  V30 10614 H 1004.14 0.866818 -1.21683 0
M  V30 10615 H 1006.02 4.02972 -1.23253 0
M  V30 10616 H 1004.69 3.2175 -0.354783 0
M  V30 10617 H 1003.6 2.68095 -2.60913 0
M  V30 10618 H 1004.93 3.54101 -3.41868 0
M  V30 10619 N 1006.59 1.25851 0.948643 0
M  V30 10620 C 1007.53 1.06759 2.04625 0
M  V30 10621 C 1008.5 -0.0251144 1.66081 0
M  V30 10622 O 1009.69 0.133221 1.90334 0
M  V30 10623 C 1006.83 0.698724 3.37952 0
M  V30 10624 C 1005.94 1.8669 3.89578 0
M  V30 10625 C 1005.08 1.44184 5.11258 0
M  V30 10626 C 1004.12 2.57878 5.55126 0
M  V30 10627 N 1003.25 2.16106 6.68014 0
M  V30 10628 H 1008.09 2.00691 2.20289 0
M  V30 10629 H 1005.63 0.999327 1.07944 0
M  V30 10630 H 1007.59 0.465788 4.14592 0
M  V30 10631 H 1006.22 -0.203618 3.22157 0
M  V30 10632 H 1005.27 2.21298 3.09405 0
M  V30 10633 H 1006.58 2.72051 4.18079 0
M  V30 10634 H 1005.74 1.16891 5.95333 0
M  V30 10635 H 1004.47 0.559035 4.84485 0
M  V30 10636 H 1003.48 2.85909 4.69612 0
M  V30 10637 H 1004.7 3.46747 5.83904 0
M  V30 10638 H 1002.65 1.3025 6.42939 0
M  V30 10639 H 1002.57 2.95012 6.96063 0
M  V30 10640 H 1003.84 1.92005 7.55483 0
M  V30 10641 N 1008.06 -1.15214 1.07534 0
M  V30 10642 C 1008.97 -2.23636 0.708818 0
M  V30 10643 C 1009.99 -1.7172 -0.280759 0
M  V30 10644 O 1011.17 -2.01 -0.126927 0
M  V30 10645 C 1008.23 -3.46512 0.114167 0
M  V30 10646 C 1007.29 -4.13409 1.15722 0
M  V30 10647 C 1006.53 -5.30419 0.59085 0
M  V30 10648 O 1006.75 -5.67314 -0.592512 0
M  V30 10649 O 1005.68 -5.86871 1.33663 0
M  V30 10650 H 1009.51 -2.57322 1.61305 0
M  V30 10651 H 1007.09 -1.22972 0.848422 0
M  V30 10652 H 1008.98 -4.20851 -0.215091 0
M  V30 10653 H 1007.65 -3.1457 -0.763356 0
M  V30 10654 H 1006.56 -3.40984 1.53886 0
M  V30 10655 H 1007.89 -4.49435 2.00671 0
M  V30 10656 N 1009.54 -0.859717 -1.32086 0
M  V30 10657 C 1010.45 -0.31108 -2.32528 0
M  V30 10658 C 1011.47 0.573714 -1.6427 0
M  V30 10659 O 1012.64 0.472878 -1.9577 0
M  V30 10660 C 1009.71 0.487256 -3.43259 0
M  V30 10661 C 1008.77 -0.424279 -4.27198 0
M  V30 10662 C 1008 0.336051 -5.32641 0
M  V30 10663 O 1008.23 1.56541 -5.48499 0
M  V30 10664 O 1007.16 -0.300777 -6.01148 0
M  V30 10665 H 1010.99 -1.14336 -2.81355 0
M  V30 10666 H 1008.57 -0.622794 -1.358 0
M  V30 10667 H 1010.45 0.940203 -4.10777 0
M  V30 10668 H 1009.13 1.29626 -2.96612 0
M  V30 10669 H 1008.04 -0.925509 -3.62471 0
M  V30 10670 H 1009.37 -1.1986 -4.77383 0
M  V30 10671 N 1011.02 1.44971 -0.618145 0
M  V30 10672 C 1012.27 2.02159 -0.117482 0
M  V30 10673 C 1012.6 1.48517 1.2559 0
M  V30 10674 O 1011.85 0.654192 1.84442 0
M  V30 10675 C 1012.15 3.57378 -0.0394861 0
M  V30 10676 C 1011.82 4.30218 -1.34993 0
M  V30 10677 C 1010.48 4.49835 -1.70886 0
M  V30 10678 C 1012.83 4.71768 -2.21551 0
M  V30 10679 C 1010.16 5.08258 -2.9307 0
M  V30 10680 C 1012.51 5.31543 -3.42993 0
M  V30 10681 C 1011.17 5.49381 -3.79126 0
M  V30 10682 H 1010.44 0.739752 -0.0429897 0
M  V30 10683 H 1013.09 1.73903 -0.801871 0
M  V30 10684 H 1011.4 3.84973 0.728217 0
M  V30 10685 H 1013.09 3.99343 0.364213 0
M  V30 10686 H 1009.68 4.15271 -1.06057 0
M  V30 10687 H 1013.87 4.56336 -1.95117 0
M  V30 10688 H 1009.12 5.20257 -3.21158 0
M  V30 10689 H 1013.3 5.62691 -4.10308 0
M  V30 10690 H 1010.92 5.94419 -4.73888 0
M  V30 10691 N 1012.5 0.357919 1.53482 0
M  V30 10692 C 1013.91 0.00655107 1.59599 0
M  V30 10693 C 1014.11 -1.47449 1.37336 0
M  V30 10694 O 1013.17 -2.2351 1.17472 0
M  V30 10695 C 1014.48 0.455617 2.97228 0
M  V30 10696 C 1016.03 0.409183 3.10314 0
M  V30 10697 C 1016.51 0.833941 4.50344 0
M  V30 10698 N 1018 0.788695 4.56436 0
M  V30 10699 C 1018.73 1.08914 5.62961 0
M  V30 10700 N 1018.23 1.45847 6.77274 0
M  V30 10701 N 1020.02 1.01243 5.52907 0
M  V30 10702 H 1012.17 1.32248 1.66206 0
M  V30 10703 H 1014.44 0.540047 0.779136 0
M  V30 10704 H 1014.14 1.48881 3.18634 0
M  V30 10705 H 1014.02 -0.161751 3.76853 0
M  V30 10706 H 1016.4 -0.614863 2.88623 0
M  V30 10707 H 1016.48 1.06195 2.32715 0
M  V30 10708 H 1016.13 1.85607 4.72771 0
M  V30 10709 H 1016.06 0.158507 5.26361 0
M  V30 10710 H 1018.55 0.516497 3.74354 0
M  V30 10711 H 1018.86 1.67218 7.54492 0
M  V30 10712 H 1017.21 1.49705 6.78685 0
M  V30 10713 H 1020.4 0.723137 4.62481 0
M  V30 10714 H 1020.57 1.24991 6.35831 0
M  V30 10715 N 1013.98 -1.5736 0.0868897 0
M  V30 10716 C 1014.89 -2.17087 -0.889402 0
M  V30 10717 C 1015.9 -1.13809 -1.31619 0
M  V30 10718 O 1017.08 -1.46143 -1.38579 0
M  V30 10719 C 1014.14 -2.73286 -2.13344 0
M  V30 10720 C 1013.2 -3.91491 -1.76164 0
M  V30 10721 C 1012.44 -4.45 -2.94637 0
M  V30 10722 O 1012.66 -3.97467 -4.09116 0
M  V30 10723 O 1011.59 -5.36133 -2.73579 0
M  V30 10724 H 1015.42 -3.00902 -0.411275 0
M  V30 10725 H 1013.01 -1.4877 -0.137015 0
M  V30 10726 H 1014.89 -3.0924 -2.86266 0
M  V30 10727 H 1013.56 -1.92521 -2.60225 0
M  V30 10728 H 1012.47 -3.60363 -1.00447 0
M  V30 10729 H 1013.8 -4.73593 -1.34053 0
M  V30 10730 N 1015.45 0.186762 -1.56489 0
M  V30 10731 C 1016.42 1.21511 -1.94339 0
M  V30 10732 C 1017.42 1.38001 -0.82537 0
M  V30 10733 O 1018.61 1.3567 -1.09266 0
M  V30 10734 C 1015.74 2.583 -2.22472 0
M  V30 10735 H 1016.93 0.891371 -2.86347 0
M  V30 10736 H 1014.49 0.428612 -1.50308 0
M  V30 10737 H 1015.22 2.95715 -1.33129 0
M  V30 10738 H 1015.01 2.47701 -3.03951 0
M  V30 10739 H 1016.5 3.32441 -2.5273 0
M  V30 10740 N 1016.93 1.50896 0.454776 0
M  V30 10741 C 1017.88 1.70947 1.55067 0
M  V30 10742 C 1018.85 0.550899 1.56698 0
M  V30 10743 O 1020.03 0.783352 1.73978 0
M  V30 10744 C 1017.17 1.82455 2.92924 0
M  V30 10745 C 1016.29 3.09919 3.00956 0
M  V30 10746 C 1015.42 3.12125 4.29827 0
M  V30 10747 C 1014.46 4.33975 4.31662 0
M  V30 10748 N 1013.6 4.33828 5.5203 0
M  V30 10749 H 1018.44 2.645 1.37273 0
M  V30 10750 H 1015.98 1.31101 0.667148 0
M  V30 10751 H 1017.93 1.87108 3.72889 0
M  V30 10752 H 1016.56 0.92327 3.09315 0
M  V30 10753 H 1015.62 3.14659 2.13761 0
M  V30 10754 H 1016.93 3.99869 2.98172 0
M  V30 10755 H 1016.08 3.15598 5.18154 0
M  V30 10756 H 1014.82 2.20033 4.35243 0
M  V30 10757 H 1013.83 4.30697 3.41731 0
M  V30 10758 H 1015.05 5.27312 4.27924 0
M  V30 10759 H 1013 3.44598 5.58201 0
M  V30 10760 H 1012.91 5.17566 5.51055 0
M  V30 10761 H 1014.18 4.4147 6.42437 0
M  V30 10762 N 1018.41 -0.709066 1.40748 0
M  V30 10763 C 1019.82 -1.28847 1.35112 0
M  V30 10764 C 1020.17 -1.9618 0.0277149 0
M  V30 10765 O 1019.3 -1.97955 -0.874233 0
M  V30 10766 C 1019.89 -2.34306 2.44716 0
M  V30 10767 C 1018.45 -2.87856 2.4252 0
M  V30 10768 C 1017.6 -1.61723 2.25257 0
M  V30 10769 H 1020.55 -0.504742 1.50459 0
M  V30 10770 H 1020.57 -3.15297 2.12998 0
M  V30 10771 H 1020.08 -1.85271 3.41022 0
M  V30 10772 H 1018.18 -3.41103 1.49931 0
M  V30 10773 H 1018.3 -3.39205 3.38344 0
M  V30 10774 H 1016.66 -1.87032 1.7289 0
M  V30 10775 H 1017.44 -1.14703 3.23571 0
M  V30 10776 N 1019.89 -1.26353 -0.941956 0
M  V30 10777 C 1021.31 -1.03448 -1.21534 0
M  V30 10778 C 1021.51 0.240855 -2.00055 0
M  V30 10779 O 1020.56 0.950199 -2.33939 0
M  V30 10780 C 1021.87 -2.2654 -1.97737 0
M  V30 10781 C 1023.42 -2.31433 -2.10731 0
M  V30 10782 C 1023.9 -3.54216 -2.90336 0
M  V30 10783 N 1025.39 -3.54688 -2.9791 0
M  V30 10784 C 1026.12 -4.4636 -3.59931 0
M  V30 10785 N 1025.62 -5.48319 -4.2346 0
M  V30 10786 N 1027.41 -4.34013 -3.57196 0
M  V30 10787 H 1019.56 -2.08266 -0.417005 0
M  V30 10788 H 1021.83 -0.915251 -0.247021 0
M  V30 10789 H 1021.53 -3.19299 -1.47449 0
M  V30 10790 H 1021.41 -2.30726 -2.98405 0
M  V30 10791 H 1023.79 -1.3919 -2.60212 0
M  V30 10792 H 1023.87 -2.31259 -1.09329 0
M  V30 10793 H 1023.52 -4.46788 -2.41543 0
M  V30 10794 H 1023.45 -3.51637 -3.91993 0
M  V30 10795 H 1025.94 -2.80942 -2.52745 0
M  V30 10796 H 1026.25 -6.14458 -4.6868 0
M  V30 10797 H 1024.6 -5.52177 -4.22049 0
M  V30 10798 H 1027.79 -3.53578 -3.06758 0
M  V30 10799 H 1027.96 -5.0565 -4.05244 0
M  V30 10800 N 1021.37 1.14642 -1.08144 0
M  V30 10801 C 1022.59 1.90025 -0.830972 0
M  V30 10802 C 1023.02 1.77904 0.610879 0
M  V30 10803 O 1022.38 1.11735 1.42776 0
M  V30 10804 C 1022.42 3.38085 -1.25422 0
M  V30 10805 O 1021.53 4.10412 -0.404486 0
M  V30 10806 H 1020.87 0.591327 -0.302041 0
M  V30 10807 H 1023.4 1.4513 -1.44216 0
M  V30 10808 H 1023.41 3.88894 -1.23391 0
M  V30 10809 H 1022.08 3.46226 -2.30435 0
M  V30 10810 H 1020.66 3.69693 -0.487987 0
M  V30 10811 N 1022.85 0.866709 1.31628 0
M  V30 10812 C 1023.78 0.335762 2.31073 0
M  V30 10813 C 1024.76 -0.571597 1.60209 0
M  V30 10814 O 1025.94 -0.489306 1.87935 0
M  V30 10815 C 1023.07 -0.466416 3.44154 0
M  V30 10816 C 1022.03 0.347561 4.26586 0
M  V30 10817 C 1021.35 -0.5801 5.31544 0
M  V30 10818 C 1022.65 1.57986 4.97833 0
M  V30 10819 H 1024.35 1.16673 2.75731 0
M  V30 10820 H 1021.89 0.56248 1.3256 0
M  V30 10821 H 1023.84 -0.84836 4.12772 0
M  V30 10822 H 1022.57 -1.33086 2.98254 0
M  V30 10823 H 1021.23 0.71141 3.59631 0
M  V30 10824 H 1020.88 -1.44174 4.81895 0
M  V30 10825 H 1020.58 -0.0393965 5.87587 0
M  V30 10826 H 1022.1 -0.958958 6.03023 0
M  V30 10827 H 1023.51 1.26954 5.59067 0
M  V30 10828 H 1021.91 2.05939 5.63657 0
M  V30 10829 H 1022.98 2.3345 4.25005 0
M  V30 10830 N 1024.32 -1.44642 0.625825 0
M  V30 10831 C 1025.74 -1.56925 0.290992 0
M  V30 10832 C 1025.94 -1.61424 -1.20601 0
M  V30 10833 O 1025 -1.55439 -1.98985 0
M  V30 10834 C 1026.31 -2.84343 0.978242 0
M  V30 10835 C 1027.86 -2.98047 0.955882 0
M  V30 10836 C 1028.33 -4.2826 1.62349 0
M  V30 10837 N 1029.82 -4.35062 1.58983 0
M  V30 10838 C 1030.56 -5.34524 2.07538 0
M  V30 10839 N 1030.05 -6.4042 2.6426 0
M  V30 10840 N 1031.85 -5.25998 1.98198 0
M  V30 10841 H 1024 -1.39965 1.59761 0
M  V30 10842 H 1026.26 -0.670368 0.670306 0
M  V30 10843 H 1025.97 -2.86985 2.03304 0
M  V30 10844 H 1025.84 -3.73699 0.512726 0
M  V30 10845 H 1028.23 -2.94961 -0.0904292 0
M  V30 10846 H 1028.31 -2.10053 1.45984 0
M  V30 10847 H 1027.95 -4.32105 2.66923 0
M  V30 10848 H 1027.88 -5.15102 1.09441 0
M  V30 10849 H 1030.37 -3.59147 1.17565 0
M  V30 10850 H 1030.69 -7.1259 2.99056 0
M  V30 10851 H 1029.03 -6.41121 2.68308 0
M  V30 10852 H 1032.22 -4.42178 1.5361 0
M  V30 10853 H 1032.4 -6.03359 2.3635 0
M  V30 10854 N 1025.8 -0.366053 -1.5329 0
M  V30 10855 C 1027.05 0.223493 -2.01263 0
M  V30 10856 C 1027.38 1.48736 -1.25331 0
M  V30 10857 O 1026.63 1.92805 -0.335341 0
M  V30 10858 C 1026.93 0.560906 -3.52971 0
M  V30 10859 C 1026.6 -0.60869 -4.46773 0
M  V30 10860 C 1025.26 -0.929609 -4.72135 0
M  V30 10861 C 1027.61 -1.39225 -5.02261 0
M  V30 10862 C 1024.94 -2.03606 -5.50238 0
M  V30 10863 C 1027.29 -2.48912 -5.81572 0
M  V30 10864 C 1025.95 -2.81538 -6.05221 0
M  V30 10865 H 1025.22 0.0817818 -0.736473 0
M  V30 10866 H 1027.87 -0.498613 -1.84895 0
M  V30 10867 H 1026.18 1.36403 -3.67289 0
M  V30 10868 H 1027.87 1.02931 -3.87564 0
M  V30 10869 H 1024.46 -0.348529 -4.27181 0
M  V30 10870 H 1028.65 -1.15757 -4.82612 0
M  V30 10871 H 1023.9 -2.29281 -5.6678 0
M  V30 10872 H 1028.08 -3.10044 -6.23575 0
M  V30 10873 H 1025.7 -3.67396 -6.65525 0
M  V30 10874 N 1027.28 1.57312 -0.0952337 0
M  V30 10875 C 1028.51 1.98697 0.57682 0
M  V30 10876 C 1028.92 0.974347 1.61716 0
M  V30 10877 O 1028.28 -0.036022 1.82464 0
M  V30 10878 C 1028.33 3.40133 1.2244 0
M  V30 10879 O 1028.05 4.37518 0.225678 0
M  V30 10880 C 1029.55 3.96522 1.98205 0
M  V30 10881 H 1026.77 0.65294 0.154629 0
M  V30 10882 H 1029.32 2.03754 -0.174562 0
M  V30 10883 H 1027.47 3.3609 1.92671 0
M  V30 10884 H 1027.89 5.199 0.693116 0
M  V30 10885 H 1029.36 4.97637 2.38875 0
M  V30 10886 H 1029.84 3.34347 2.84796 0
M  V30 10887 H 1030.44 4.04038 1.3279 0
M  V30 10888 N 1028.76 -0.17846 1.56586 0
M  V30 10889 C 1030 -0.892915 1.82753 0
M  V30 10890 C 1030.36 -1.8018 0.674744 0
M  V30 10891 O 1029.65 -1.8875 -0.329219 0
M  V30 10892 C 1029.85 -1.73063 3.12704 0
M  V30 10893 C 1029.67 -0.904341 4.40513 0
M  V30 10894 C 1028.44 -0.582221 5.01935 0
M  V30 10895 C 1030.64 -0.249232 5.13696 0
M  V30 10896 N 1028.62 0.260955 6.13345 0
M  V30 10897 C 1030 0.455417 6.18325 0
M  V30 10898 C 1032.05 -0.166663 4.97621 0
M  V30 10899 C 1030.75 1.23479 7.08622 0
M  V30 10900 C 1032.78 0.599362 5.88355 0
M  V30 10901 C 1032.14 1.2924 6.92442 0
M  V30 10902 H 1028.24 -0.30559 0.719818 0
M  V30 10903 H 1030.82 -0.160405 1.94038 0
M  V30 10904 H 1029 -2.43461 3.02624 0
M  V30 10905 H 1030.73 -2.38584 3.26894 0
M  V30 10906 H 1027.48 -0.910612 4.64763 0
M  V30 10907 H 1027.91 0.672643 6.7365 0
M  V30 10908 H 1032.55 -0.688116 4.17163 0
M  V30 10909 H 1030.27 1.76762 7.88531 0
M  V30 10910 H 1033.85 0.664826 5.77989 0
M  V30 10911 H 1032.73 1.87564 7.61439 0
M  V30 10912 N 1030.24 -1.51135 -0.446768 0
M  V30 10913 C 1031.46 -1.67411 -1.22427 0
M  V30 10914 C 1031.89 -0.367009 -1.84485 0
M  V30 10915 O 1031.24 0.67185 -1.68392 0
M  V30 10916 C 1031.29 -2.78473 -2.29096 0
M  V30 10917 O 1030.4 -2.41419 -3.34351 0
M  V30 10918 H 1029.74 -0.558512 -0.359111 0
M  V30 10919 H 1032.27 -1.97648 -0.5288 0
M  V30 10920 H 1032.28 -3.02277 -2.7403 0
M  V30 10921 H 1030.95 -3.73326 -1.83304 0
M  V30 10922 H 1029.53 -2.28152 -2.9496 0
M  V30 10923 N 1031.71 0.701592 -1.41122 0
M  V30 10924 C 1032.65 1.8257 -1.36907 0
M  V30 10925 C 1033.62 1.6086 -0.237245 0
M  V30 10926 O 1034.81 1.83688 -0.423182 0
M  V30 10927 C 1031.94 3.19149 -1.13408 0
M  V30 10928 C 1030.98 3.59661 -2.29229 0
M  V30 10929 S 1031.81 3.65161 -3.91685 0
M  V30 10930 C 1032.97 5.04477 -3.70478 0
M  V30 10931 H 1033.2 1.85867 -2.32036 0
M  V30 10932 H 1030.74 0.869726 -1.27574 0
M  V30 10933 H 1032.69 3.97998 -1.00537 0
M  V30 10934 H 1031.36 3.13468 -0.199099 0
M  V30 10935 H 1030.55 4.58866 -2.08466 0
M  V30 10936 H 1030.15 2.88105 -2.38477 0
M  V30 10937 H 1032.44 5.91803 -3.29811 0
M  V30 10938 H 1033.39 5.3028 -4.69264 0
M  V30 10939 H 1033.79 4.75731 -3.03876 0
M  V30 10940 N 1033.19 1.2685 0.935242 0
M  V30 10941 C 1034.14 1.08923 2.03481 0
M  V30 10942 C 1035.11 -0.00749786 1.66098 0
M  V30 10943 O 1036.29 0.153401 1.90182 0
M  V30 10944 C 1033.43 0.734529 3.37192 0
M  V30 10945 C 1032.55 1.90812 3.87576 0
M  V30 10946 C 1031.68 1.49599 5.097 0
M  V30 10947 C 1030.72 2.63752 5.5236 0
M  V30 10948 N 1029.86 2.23179 6.65684 0
M  V30 10949 H 1034.7 2.03016 2.18148 0
M  V30 10950 H 1032.23 1.01072 1.06878 0
M  V30 10951 H 1034.19 0.509734 4.14074 0
M  V30 10952 H 1032.82 -0.169438 3.22355 0
M  V30 10953 H 1031.87 2.24567 3.0704 0
M  V30 10954 H 1033.19 2.7647 4.1517 0
M  V30 10955 H 1032.34 1.23199 5.9406 0
M  V30 10956 H 1031.08 0.61039 4.83865 0
M  V30 10957 H 1030.08 2.90874 4.66554 0
M  V30 10958 H 1031.31 3.5292 5.80193 0
M  V30 10959 H 1029.26 1.37061 6.41522 0
M  V30 10960 H 1029.17 3.02379 6.92895 0
M  V30 10961 H 1030.44 2.00007 7.53404 0
M  V30 10962 N 1034.67 -1.14067 1.0875 0
M  V30 10963 C 1035.9 -1.89041 0.840902 0
M  V30 10964 C 1036.31 -1.78768 -0.60725 0
M  V30 10965 O 1035.67 -1.14945 -1.41753 0
M  V30 10966 C 1035.72 -3.38891 1.25838 0
M  V30 10967 O 1035.44 -3.48886 2.64972 0
M  V30 10968 C 1036.94 -4.30852 1.04315 0
M  V30 10969 H 1034.16 -0.598685 0.303014 0
M  V30 10970 H 1036.71 -1.44438 1.44769 0
M  V30 10971 H 1034.86 -3.81103 0.695627 0
M  V30 10972 H 1035.28 -4.41989 2.82393 0
M  V30 10973 H 1036.75 -5.34353 1.38461 0
M  V30 10974 H 1037.23 -4.39196 -0.0195784 0
M  V30 10975 H 1037.83 -3.944 1.59151 0
M  V30 10976 N 1036.15 -0.873678 -1.31166 0
M  V30 10977 C 1037.38 -0.501043 -2.00742 0
M  V30 10978 C 1037.79 0.907477 -1.65561 0
M  V30 10979 O 1037.15 1.59507 -0.886771 0
M  V30 10980 C 1037.2 -0.652877 -3.55556 0
M  V30 10981 O 1036.92 -2.00593 -3.89479 0
M  V30 10982 C 1038.42 -0.281742 -4.42404 0
M  V30 10983 H 1035.64 -0.194829 -0.642092 0
M  V30 10984 H 1038.19 -1.17587 -1.67313 0
M  V30 10985 H 1036.34 -0.0255627 -3.87392 0
M  V30 10986 H 1036.75 -2.01638 -4.84193 0
M  V30 10987 H 1038.23 -0.43892 -5.50252 0
M  V30 10988 H 1038.71 0.779389 -4.32229 0
M  V30 10989 H 1039.31 -0.88491 -4.15992 0
M  V30 10990 N 1037.63 1.44308 -0.633487 0
M  V30 10991 C 1038.85 2.06897 -0.144347 0
M  V30 10992 C 1039.28 1.47045 1.173 0
M  V30 10993 O 1038.63 0.572806 1.72013 0
M  V30 10994 C 1038.68 3.60571 -0.0456324 0
M  V30 10995 O 1037.79 4.0015 0.997682 0
M  V30 10996 H 1037.13 0.658427 -0.0858499 0
M  V30 10997 H 1039.66 1.85142 -0.870833 0
M  V30 10998 H 1039.67 4.07745 0.144178 0
M  V30 10999 H 1038.34 4.03515 -1.0074 0
M  V30 11000 H 1036.92 3.64603 0.782252 0
M  V30 11001 N 1039.1 0.374177 1.53094 0
M  V30 11002 C 1040.33 -0.215903 2.06273 0
M  V30 11003 C 1040.75 -1.40979 1.24526 0
M  V30 11004 O 1040.11 -1.79331 0.266462 0
M  V30 11005 C 1040.16 -0.579089 3.5592 0
M  V30 11006 O 1039.26 -1.67516 3.76845 0
M  V30 11007 H 1038.61 -0.0293981 0.663349 0
M  V30 11008 H 1041.14 0.537271 1.9742 0
M  V30 11009 H 1041.15 -0.847678 3.99097 0
M  V30 11010 H 1039.82 0.293843 4.14861 0
M  V30 11011 H 1038.4 -1.40146 3.45563 0
M  V30 11012 N 1040.58 -1.57259 0.103575 0
M  V30 11013 C 1041.52 -2.10165 -0.889141 0
M  V30 11014 C 1042.49 -1.01426 -1.27089 0
M  V30 11015 O 1043.68 -1.2898 -1.37465 0
M  V30 11016 C 1040.8 -2.58564 -2.18774 0
M  V30 11017 C 1039.85 -3.79043 -1.95522 0
M  V30 11018 S 1040.68 -5.22213 -1.18551 0
M  V30 11019 C 1041.84 -5.73968 -2.49623 0
M  V30 11020 H 1042.07 -2.9404 -0.439083 0
M  V30 11021 H 1039.61 -1.54008 -0.10989 0
M  V30 11022 H 1041.56 -2.87106 -2.93395 0
M  V30 11023 H 1040.22 -1.749 -2.609 0
M  V30 11024 H 1039.42 -4.11004 -2.91705 0
M  V30 11025 H 1039.02 -3.51038 -1.29028 0
M  V30 11026 H 1041.31 -5.82752 -3.45553 0
M  V30 11027 H 1042.25 -6.72324 -2.22229 0
M  V30 11028 H 1042.66 -5.01946 -2.58284 0
M  V30 11029 N 1042.06 0.170153 -1.56679 0
M  V30 11030 C 1042.97 1.23057 -1.99735 0
M  V30 11031 C 1043.99 1.48374 -0.908912 0
M  V30 11032 O 1045.16 1.60499 -1.21663 0
M  V30 11033 C 1042.23 2.54944 -2.34956 0
M  V30 11034 C 1041.29 2.3748 -3.57634 0
M  V30 11035 C 1040.52 3.63078 -3.91165 0
M  V30 11036 O 1040.74 4.68304 -3.2565 0
M  V30 11037 O 1039.68 3.57119 -4.8451 0
M  V30 11038 H 1043.5 0.895104 -2.9021 0
M  V30 11039 H 1041.09 0.377109 -1.44562 0
M  V30 11040 H 1042.97 3.32742 -2.58574 0
M  V30 11041 H 1041.65 2.88068 -1.47643 0
M  V30 11042 H 1040.55 1.57709 -3.39232 0
M  V30 11043 H 1041.89 2.0928 -4.45491 0
M  V30 11044 N 1043.54 1.5137 0.438746 0
M  V30 11045 C 1044.95 1.56462 1.01866 0
M  V30 11046 C 1045.3 0.387244 1.9234 0
M  V30 11047 O 1044.43 -0.496131 2.10636 0
M  V30 11048 C 1045.02 2.83557 1.85421 0
M  V30 11049 C 1043.58 2.91224 2.38464 0
M  V30 11050 C 1042.73 2.51109 1.17641 0
M  V30 11051 H 1045.68 1.57167 0.220072 0
M  V30 11052 H 1045.7 2.6724 2.70857 0
M  V30 11053 H 1045.21 3.69229 1.19546 0
M  V30 11054 H 1043.31 2.09979 3.07798 0
M  V30 11055 H 1043.42 3.94844 2.71358 0
M  V30 11056 H 1041.79 2.04276 1.5213 0
M  V30 11057 H 1042.57 3.39125 0.533785 0
M  V30 11058 N 1045.02 -0.694098 1.41492 0
M  V30 11059 C 1045.96 -1.82932 1.43662 0
M  V30 11060 C 1046.96 -1.66455 0.31449 0
M  V30 11061 O 1048.16 -1.73298 0.486589 0
M  V30 11062 H 1044.54 -0.602847 0.449533 0
M  V30 11063 H 1046.51 -1.78218 2.39334 0
M  V30 11064 C 1045.26 -3.20962 1.33712 0
M  V30 11065 H 1044.58 -3.34257 2.19345 0
M  V30 11066 H 1046.02 -4.00467 1.39291 0
M  V30 11067 C 1044.48 -3.36863 0.0496332 0
M  V30 11068 O 1045.01 -3.91371 -0.905093 0
M  V30 11069 N 1043.22 -2.90588 -0.0269299 0
M  V30 11070 H 1042.76 -2.46417 0.750752 0
M  V30 11071 H 1042.72 -3.01605 -0.887781 0
M  V30 11072 N 1046.49 -1.27344 -0.928501 0
M  V30 11073 C 1047.4 -1.11812 -2.06241 0
M  V30 11074 C 1048.42 -0.048347 -1.73933 0
M  V30 11075 O 1049.6 -0.25467 -1.99783 0
M  V30 11076 C 1046.66 -0.766036 -3.38131 0
M  V30 11077 C 1045.72 -1.91659 -3.84142 0
M  V30 11078 C 1044.96 -1.58121 -5.09738 0
M  V30 11079 O 1045.18 -0.488742 -5.68302 0
M  V30 11080 O 1044.11 -2.42013 -5.51102 0
M  V30 11081 H 1047.94 -2.06967 -2.22258 0
M  V30 11082 H 1045.52 -1.06524 -1.04752 0
M  V30 11083 H 1047.41 -0.582982 -4.17348 0
M  V30 11084 H 1046.08 0.155998 -3.23324 0
M  V30 11085 H 1044.99 -2.1547 -3.05816 0
M  V30 11086 H 1046.32 -2.8188 -4.0349 0
M  V30 11087 N 1047.97 1.13488 -1.09353 0
M  V30 11088 C 1048.91 2.17951 -0.67622 0
M  V30 11089 C 1049.88 1.59482 0.316906 0
M  V30 11090 O 1051.07 1.8723 0.218459 0
M  V30 11091 C 1048.19 3.387 0.00391024 0
M  V30 11092 C 1047.24 4.15764 -0.950906 0
M  V30 11093 S 1048.07 4.75517 -2.46259 0
M  V30 11094 C 1049.23 5.99613 -1.79485 0
M  V30 11095 H 1049.46 2.53012 -1.56115 0
M  V30 11096 H 1047 1.24773 -0.909447 0
M  V30 11097 H 1048.95 4.08643 0.39002 0
M  V30 11098 H 1047.61 3.01941 0.86548 0
M  V30 11099 H 1046.81 5.02229 -0.422086 0
M  V30 11100 H 1046.41 3.51473 -1.27838 0
M  V30 11101 H 1048.7 6.68204 -1.11846 0
M  V30 11102 H 1049.64 6.57102 -2.63862 0
M  V30 11103 H 1050.05 5.50165 -1.26409 0
M  V30 11104 N 1049.45 0.880621 1.30701 0
M  V30 11105 C 1050.38 0.288813 2.26365 0
M  V30 11106 C 1051.36 -0.588135 1.51591 0
M  V30 11107 O 1052.55 -0.539197 1.80624 0
M  V30 11108 C 1049.67 -0.590032 3.33521 0
M  V30 11109 C 1048.72 0.217003 4.25948 0
M  V30 11110 S 1049.55 1.60246 5.10961 0
M  V30 11111 C 1050.71 0.730023 6.21628 0
M  V30 11112 H 1050.94 1.09971 2.76213 0
M  V30 11113 H 1048.47 0.67978 1.3863 0
M  V30 11114 H 1050.43 -1.09136 3.95727 0
M  V30 11115 H 1049.09 -1.37498 2.82406 0
M  V30 11116 H 1048.29 -0.453481 5.01956 0
M  V30 11117 H 1047.89 0.650803 3.68294 0
M  V30 11118 H 1050.18 -0.0548644 6.77478 0
M  V30 11119 H 1051.12 1.46157 6.92852 0
M  V30 11120 H 1051.53 0.292854 5.6374 0
M  V30 11121 N 1050.93 -1.4397 0.641131 0
M  V30 11122 C 1052.35 -1.56607 0.30762 0
M  V30 11123 C 1052.55 -1.62694 -1.18882 0
M  V30 11124 O 1051.6 -1.57541 -1.97325 0
M  V30 11125 C 1052.91 -2.83289 1.00834 0
M  V30 11126 C 1054.46 -2.97016 0.98744 0
M  V30 11127 C 1054.94 -4.26514 1.66882 0
M  V30 11128 N 1056.43 -4.33351 1.63589 0
M  V30 11129 C 1057.16 -5.32292 2.13196 0
M  V30 11130 N 1056.66 -6.37582 2.71038 0
M  V30 11131 N 1058.45 -5.23866 2.03766 0
M  V30 11132 H 1050.6 -1.38262 1.61237 0
M  V30 11133 H 1052.87 -0.663221 0.677378 0
M  V30 11134 H 1052.57 -2.84812 2.06337 0
M  V30 11135 H 1052.45 -3.73134 0.552333 0
M  V30 11136 H 1054.83 -2.95041 -0.0591395 0
M  V30 11137 H 1054.91 -2.08493 1.48203 0
M  V30 11138 H 1054.56 -4.2925 2.71491 0
M  V30 11139 H 1054.49 -5.13912 1.14898 0
M  V30 11140 H 1056.98 -3.5788 1.21368 0
M  V30 11141 H 1057.29 -7.09378 3.06597 0
M  V30 11142 H 1055.64 -6.38239 2.75093 0
M  V30 11143 H 1058.83 -4.40524 1.58291 0
M  V30 11144 H 1059 -6.00819 2.42737 0
M  V30 11145 N 1052.41 -0.382291 -1.52893 0
M  V30 11146 C 1053.32 0.463745 -2.29971 0
M  V30 11147 C 1054.33 1.07777 -1.36602 0
M  V30 11148 O 1055.51 1.0851 -1.69669 0
M  V30 11149 C 1052.57 1.57938 -3.08637 0
M  V30 11150 C 1051.64 0.991182 -4.17701 0
M  V30 11151 C 1050.87 2.05365 -4.92606 0
M  V30 11152 O 1051.09 3.26757 -4.67532 0
M  V30 11153 O 1050.03 1.67487 -5.78128 0
M  V30 11154 H 1053.85 -0.163962 -3.03257 0
M  V30 11155 H 1051.44 -0.146199 -1.48683 0
M  V30 11156 H 1053.32 2.22765 -3.57706 0
M  V30 11157 H 1051.99 2.19218 -2.3817 0
M  V30 11158 H 1050.9 0.306364 -3.72843 0
M  V30 11159 H 1052.23 0.422699 -4.90382 0
M  V30 11160 N 1053.89 1.57202 -0.111913 0
M  V30 11161 C 1055.13 1.94125 0.547573 0
M  V30 11162 C 1055.45 0.997026 1.68282 0
M  V30 11163 O 1056.65 1.26063 2.40459 0
M  V30 11164 C 1055.11 3.44982 1.02545 0
M  V30 11165 C 1054.72 4.47927 -0.0809529 0
M  V30 11166 C 1056.46 3.90837 1.65671 0
M  V30 11167 C 1054.37 5.89955 0.413224 0
M  V30 11168 H 1053.3 0.724651 0.208321 0
M  V30 11169 H 1055.95 1.82507 -0.190625 0
M  V30 11170 H 1054.33 3.5181 1.81785 0
M  V30 11171 H 1055.51 4.52761 -0.857003 0
M  V30 11172 H 1053.82 4.11782 -0.618434 0
M  V30 11173 H 1056.42 4.9436 2.03746 0
M  V30 11174 H 1056.76 3.30417 2.53239 0
M  V30 11175 H 1057.29 3.8678 0.929844 0
M  V30 11176 H 1054.03 6.54113 -0.426238 0
M  V30 11177 H 1053.55 5.88557 1.15591 0
M  V30 11178 H 1055.23 6.41032 0.876756 0
M  V30 11179 N 1055.36 -0.161842 1.56767 0
M  V30 11180 C 1056.78 -0.51396 1.51098 0
M  V30 11181 C 1056.98 -1.84158 0.817815 0
M  V30 11182 O 1056.04 -2.49592 0.382133 0
M  V30 11183 C 1057.35 -0.537966 2.95849 0
M  V30 11184 C 1058.9 -0.624512 3.06706 0
M  V30 11185 C 1059.37 -0.679322 4.52934 0
M  V30 11186 N 1060.86 -0.741953 4.57219 0
M  V30 11187 C 1061.6 -0.805096 5.6772 0
M  V30 11188 N 1061.09 -0.828492 6.87828 0
M  V30 11189 N 1062.89 -0.844843 5.55715 0
M  V30 11190 H 1055.04 0.708581 2.00232 0
M  V30 11191 H 1057.3 0.25663 0.912603 0
M  V30 11192 H 1057.01 0.369052 3.49758 0
M  V30 11193 H 1056.88 -1.38113 3.51005 0
M  V30 11194 H 1059.27 -1.52195 2.52825 0
M  V30 11195 H 1059.35 0.245515 2.54619 0
M  V30 11196 H 1058.99 0.213901 5.07449 0
M  V30 11197 H 1058.92 -1.56563 5.02788 0
M  V30 11198 H 1061.41 -0.731772 3.70747 0
M  V30 11199 H 1061.73 -0.878109 7.67795 0
M  V30 11200 H 1060.07 -0.796612 6.9042 0
M  V30 11201 H 1063.26 -0.823632 4.60797 0
M  V30 11202 H 1063.44 -0.890588 6.41851 0
M  V30 11203 N 1056.84 -1.516 -0.430713 0
M  V30 11204 C 1057.79 -1.73392 -1.52328 0
M  V30 11205 C 1058.76 -0.575758 -1.55802 0
M  V30 11206 O 1059.94 -0.810931 -1.72709 0
M  V30 11207 C 1057.08 -1.87092 -2.89984 0
M  V30 11208 C 1056.2 -3.14668 -2.95987 0
M  V30 11209 C 1055.33 -3.18923 -4.24807 0
M  V30 11210 C 1054.37 -4.40787 -4.24703 0
M  V30 11211 N 1053.51 -4.42556 -5.45059 0
M  V30 11212 H 1058.35 -2.6665 -1.33048 0
M  V30 11213 H 1055.88 -1.32146 -0.646207 0
M  V30 11214 H 1057.84 -1.93017 -3.69865 0
M  V30 11215 H 1056.47 -0.972363 -3.07807 0
M  V30 11216 H 1055.52 -3.1802 -2.08728 0
M  V30 11217 H 1056.84 -4.04562 -2.91772 0
M  V30 11218 H 1055.99 -3.23801 -5.13067 0
M  V30 11219 H 1054.73 -2.2693 -4.31688 0
M  V30 11220 H 1053.73 -4.36079 -3.34836 0
M  V30 11221 H 1054.96 -5.34053 -4.19481 0
M  V30 11222 H 1052.91 -3.53435 -5.52648 0
M  V30 11223 H 1052.82 -5.26267 -5.42751 0
M  V30 11224 H 1054.09 -4.51634 -6.35332 0
M  V30 11225 N 1058.32 0.686584 -1.41858 0
M  V30 11226 C 1059.57 1.44879 -1.41908 0
M  V30 11227 C 1059.9 1.94175 -0.0311408 0
M  V30 11228 O 1059.17 1.70131 0.942646 0
M  V30 11229 C 1059.46 2.65428 -2.43352 0
M  V30 11230 C 1059.31 2.2184 -3.91289 0
M  V30 11231 C 1060.63 3.67635 -2.41934 0
M  V30 11232 H 1057.75 0.525477 -0.516762 0
M  V30 11233 H 1060.39 0.781263 -1.73194 0
M  V30 11234 H 1058.54 3.2238 -2.16803 0
M  V30 11235 H 1060.21 1.70146 -4.28775 0
M  V30 11236 H 1058.45 1.53531 -4.05722 0
M  V30 11237 H 1059.13 3.08376 -4.5783 0
M  V30 11238 H 1061.6 3.20376 -2.65516 0
M  V30 11239 H 1060.48 4.49579 -3.14913 0
M  V30 11240 H 1060.74 4.17953 -1.44111 0
M  V30 11241 N 1059.8 1.27835 0.921735 0
M  V30 11242 C 1060.73 1.136 2.04003 0
M  V30 11243 C 1061.71 0.0358756 1.70062 0
M  V30 11244 O 1062.89 0.211438 1.93046 0
M  V30 11245 C 1060.02 0.788697 3.38226 0
M  V30 11246 C 1058.98 1.84272 3.863 0
M  V30 11247 C 1058.3 1.34923 5.17397 0
M  V30 11248 C 1059.6 3.24788 4.09035 0
M  V30 11249 H 1061.3 2.07149 2.1617 0
M  V30 11250 H 1058.84 0.997349 1.0387 0
M  V30 11251 H 1060.8 0.675911 4.15944 0
M  V30 11252 H 1059.52 -0.182499 3.2609 0
M  V30 11253 H 1058.18 1.94451 3.1078 0
M  V30 11254 H 1057.83 0.367328 5.01657 0
M  V30 11255 H 1057.53 2.05397 5.50532 0
M  V30 11256 H 1059.05 1.24951 5.97678 0
M  V30 11257 H 1060.47 3.17575 4.77304 0
M  V30 11258 H 1058.86 3.93025 4.53488 0
M  V30 11259 H 1059.93 3.69398 3.14122 0
M  V30 11260 N 1061.28 -1.12907 1.09954 0
M  V30 11261 C 1062.55 -1.80602 0.751148 0
M  V30 11262 C 1062.93 -1.96826 -0.763077 0
M  V30 11263 O 1062.28 -1.54066 -1.68749 0
M  V30 11264 C 1062.49 -3.15289 1.49646 0
M  V30 11265 C 1063.84 -3.9056 1.66578 0
M  V30 11266 O 1064.86 -3.24929 1.45943 0
M  V30 11267 O 1063.72 -5.08292 2.00752 0
M  V30 11268 H 1060.82 -0.781529 0.270446 0
M  V30 11269 H 1063.36 -1.19786 1.20206 0
M  V30 11270 H 1062.13 -2.9874 2.52725 0
M  V30 11271 H 1061.76 -3.83809 1.03808 0
M  V30 11272 N 1062.75 -0.88754 -1.30232 0
M  V30 11273 C 1063.72 -0.361095 -2.26338 0
M  V30 11274 C 1064.72 0.497871 -1.52898 0
M  V30 11275 O 1065.91 0.30466 -1.71515 0
M  V30 11276 C 1063.04 0.485135 -3.3743 0
M  V30 11277 H 1064.23 -1.20973 -2.74419 0
M  V30 11278 H 1061.78 -0.664619 -1.41466 0
M  V30 11279 H 1062.52 1.35425 -2.9467 0
M  V30 11280 H 1062.3 -0.130173 -3.91884 0
M  V30 11281 H 1063.79 0.845169 -4.08958 0
M  V30 11282 N 1064.23 1.43628 -0.648757 0
M  V30 11283 C 1065.18 2.32529 0.057536 0
M  V30 11284 C 1066.17 1.48358 0.817699 0
M  V30 11285 O 1067.38 1.64595 0.728605 0
M  V30 11286 H 1063.76 0.75107 0.037388 0
M  V30 11287 H 1065.73 2.89829 -0.710062 0
M  V30 11288 C 1064.48 3.32605 1.01336 0
M  V30 11289 H 1063.8 3.97395 0.437855 0
M  V30 11290 H 1065.24 3.97453 1.47672 0
M  V30 11291 C 1063.7 2.62865 2.10722 0
M  V30 11292 O 1064.23 2.4408 3.19042 0
M  V30 11293 N 1062.43 2.22312 1.87152 0
M  V30 11294 H 1061.98 2.3779 0.990644 0
M  V30 11295 H 1061.94 1.75979 2.60536 0
M  V30 11296 N 1065.71 0.390394 1.52688 0
M  V30 11297 C 1066.94 -0.194013 2.06491 0
M  V30 11298 C 1067.36 -1.3965 1.26014 0
M  V30 11299 O 1066.72 -1.79038 0.285468 0
M  V30 11300 C 1066.77 -0.541306 3.56514 0
M  V30 11301 O 1065.87 -1.63509 3.78601 0
M  V30 11302 H 1065.21 -0.0223608 0.663623 0
M  V30 11303 H 1067.74 0.558179 1.96839 0
M  V30 11304 H 1067.75 -0.805301 3.99974 0
M  V30 11305 H 1066.43 0.337828 4.14526 0
M  V30 11306 H 1065 -1.36473 3.4703 0
M  V30 11307 N 1067.19 -1.57141 0.120249 0
M  V30 11308 C 1068.43 -1.97124 -0.540521 0
M  V30 11309 C 1068.79 -1.0022 -1.63768 0
M  V30 11310 O 1069.99 -1.29146 -2.35743 0
M  V30 11311 C 1068.26 -3.41371 -1.05833 0
M  V30 11312 S 1069.82 -4.03367 -1.72745 0
M  V30 11313 H 1066.64 -0.688962 -0.175646 0
M  V30 11314 H 1069.24 -1.94416 0.205625 0
M  V30 11315 H 1067.95 -4.09646 -0.248656 0
M  V30 11316 H 1067.48 -3.47732 -1.83972 0
M  V30 11317 H 1069.49 -3.94227 -3.0133 0
M  V30 11318 N 1068.67 0.153526 -1.5685 0
M  V30 11319 C 1069.6 1.2147 -1.94365 0
M  V30 11320 C 1070.61 1.39532 -0.838726 0
M  V30 11321 O 1071.8 1.39219 -1.11715 0
M  V30 11322 C 1068.9 2.5806 -2.19677 0
M  V30 11323 C 1068.07 2.61062 -3.50949 0
M  V30 11324 C 1067.13 3.79144 -3.64878 0
M  V30 11325 O 1066.16 3.64319 -4.37333 0
M  V30 11326 N 1067.36 4.96333 -3.01054 0
M  V30 11327 H 1070.13 0.895889 -2.85996 0
M  V30 11328 H 1067.69 0.343147 -1.58222 0
M  V30 11329 H 1069.68 3.35553 -2.26243 0
M  V30 11330 H 1068.25 2.8226 -1.34343 0
M  V30 11331 H 1067.47 1.69533 -3.55882 0
M  V30 11332 H 1068.76 2.60094 -4.37297 0
M  V30 11333 H 1068.15 5.1128 -2.42093 0
M  V30 11334 H 1066.71 5.71625 -3.13191 0
M  V30 11335 N 1070.14 1.51827 0.422667 0
M  V30 11336 C 1071.37 1.69337 1.19748 0
M  V30 11337 C 1071.79 0.396312 1.83878 0
M  V30 11338 O 1071.15 -0.644976 1.6944 0
M  V30 11339 C 1071.2 2.82082 2.24637 0
M  V30 11340 O 1070.3 2.46708 3.30468 0
M  V30 11341 H 1069.65 0.564154 0.35018 0
M  V30 11342 H 1072.18 1.98465 0.497289 0
M  V30 11343 H 1072.19 3.06599 2.69186 0
M  V30 11344 H 1070.86 3.76195 1.77341 0
M  V30 11345 H 1069.44 2.32815 2.91293 0
M  V30 11346 N 1071.62 -0.679052 1.4222 0
M  V30 11347 C 1072.53 -1.82221 1.47759 0
M  V30 11348 C 1073.55 -1.70092 0.3667 0
M  V30 11349 O 1074.72 -1.91718 0.616957 0
M  V30 11350 C 1071.79 -3.18332 1.37351 0
M  V30 11351 C 1070.85 -3.42449 2.58896 0
M  V30 11352 C 1070.08 -4.72067 2.48976 0
M  V30 11353 O 1070.31 -5.49683 1.5233 0
M  V30 11354 O 1069.24 -4.97333 3.39033 0
M  V30 11355 H 1073.07 -1.80504 2.44238 0
M  V30 11356 H 1070.65 -0.834251 1.23938 0
M  V30 11357 H 1072.53 -3.99563 1.33893 0
M  V30 11358 H 1071.21 -3.20696 0.439965 0
M  V30 11359 H 1070.12 -2.61083 2.6793 0
M  V30 11360 H 1071.45 -3.44912 3.51136 0
M  V30 11361 N 1073.1 -1.28322 -0.914942 0
M  V30 11362 C 1074.03 -1.14681 -2.03398 0
M  V30 11363 C 1075.01 -0.0448939 -1.70041 0
M  V30 11364 O 1076.2 -0.221672 -1.92931 0
M  V30 11365 C 1073.33 -0.806623 -3.37803 0
M  V30 11366 C 1072.28 -1.86318 -3.85318 0
M  V30 11367 C 1071.61 -1.37665 -5.16674 0
M  V30 11368 C 1072.91 -3.26953 -4.07307 0
M  V30 11369 H 1074.6 -2.08293 -2.15068 0
M  V30 11370 H 1072.15 -1.00284 -1.03339 0
M  V30 11371 H 1074.1 -0.69796 -4.1558 0
M  V30 11372 H 1072.82 0.165203 -3.26182 0
M  V30 11373 H 1071.48 -1.96096 -3.09745 0
M  V30 11374 H 1071.13 -0.393927 -5.01455 0
M  V30 11375 H 1070.83 -2.08313 -5.49435 0
M  V30 11376 H 1072.35 -1.28119 -5.97007 0
M  V30 11377 H 1073.77 -3.20102 -4.75613 0
M  V30 11378 H 1072.17 -3.95424 -4.51398 0
M  V30 11379 H 1073.24 -3.71059 -3.12159 0
M  V30 11380 N 1074.58 1.12322 -1.10551 0
M  V30 11381 C 1075.53 2.16177 -0.724679 0
M  V30 11382 C 1076.51 1.58674 0.266739 0
M  V30 11383 O 1077.7 1.7684 0.0752872 0
M  V30 11384 C 1074.83 3.4293 -0.159413 0
M  V30 11385 C 1073.92 4.07413 -1.17794 0
M  V30 11386 N 1074.31 4.46889 -2.36905 0
M  V30 11387 C 1072.61 4.34209 -1.01874 0
M  V30 11388 C 1073.31 4.97291 -3.01789 0
M  V30 11389 N 1072.29 4.92871 -2.29302 0
M  V30 11390 H 1076.09 2.44466 -1.63136 0
M  V30 11391 H 1073.6 1.2924 -0.983407 0
M  V30 11392 H 1075.6 4.16693 0.131502 0
M  V30 11393 H 1074.26 3.16109 0.741975 0
M  V30 11394 H 1075.27 4.39219 -2.74422 0
M  V30 11395 H 1071.95 4.17141 -0.173013 0
M  V30 11396 H 1073.34 5.3754 -4.03114 0
M  V30 11397 N 1076.06 0.894434 1.2976 0
M  V30 11398 C 1076.97 0.372622 2.31622 0
M  V30 11399 C 1077.98 -0.52996 1.65733 0
M  V30 11400 O 1079.16 -0.420807 1.96955 0
M  V30 11401 C 1076.22 -0.396076 3.4443 0
M  V30 11402 C 1075.28 0.537394 4.25923 0
M  V30 11403 C 1074.52 -0.194713 5.33345 0
M  V30 11404 O 1074.74 -1.41943 5.52457 0
M  V30 11405 O 1073.67 0.460055 6.00139 0
M  V30 11406 H 1077.5 1.21756 2.78225 0
M  V30 11407 H 1075.09 0.65858 1.34101 0
M  V30 11408 H 1076.97 -0.830962 4.13126 0
M  V30 11409 H 1075.64 -1.21716 2.99945 0
M  V30 11410 H 1074.55 1.02129 3.5989 0
M  V30 11411 H 1075.88 1.32475 4.74037 0
M  V30 11412 N 1077.53 -1.43282 0.656365 0
M  V30 11413 C 1078.48 -2.30776 -0.0333155 0
M  V30 11414 C 1079.45 -1.44928 -0.811493 0
M  V30 11415 O 1080.64 -1.73792 -0.787465 0
M  V30 11416 C 1077.78 -3.30548 -0.991566 0
M  V30 11417 C 1076.89 -4.31493 -0.209159 0
M  V30 11418 C 1076.02 -5.18346 -1.16149 0
M  V30 11419 C 1075.06 -6.10983 -0.369699 0
M  V30 11420 N 1074.2 -6.90449 -1.27378 0
M  V30 11421 H 1079.04 -2.89204 0.718668 0
M  V30 11422 H 1076.58 -1.4247 0.366161 0
M  V30 11423 H 1078.54 -3.86905 -1.56078 0
M  V30 11424 H 1077.17 -2.73762 -1.71039 0
M  V30 11425 H 1076.22 -3.77405 0.476394 0
M  V30 11426 H 1077.53 -4.97142 0.406394 0
M  V30 11427 H 1076.68 -5.79345 -1.80124 0
M  V30 11428 H 1075.42 -4.52831 -1.81095 0
M  V30 11429 H 1074.43 -5.49069 0.283377 0
M  V30 11430 H 1075.65 -6.78541 0.275399 0
M  V30 11431 H 1073.6 -6.27579 -1.90999 0
M  V30 11432 H 1073.52 -7.52631 -0.71287 0
M  V30 11433 H 1074.78 -7.5595 -1.90158 0
M  V30 11434 N 1079.01 -0.398486 -1.52479 0
M  V30 11435 C 1080.24 0.180295 -2.05812 0
M  V30 11436 C 1080.65 1.40301 -1.26934 0
M  V30 11437 O 1079.99 1.81039 -0.311544 0
M  V30 11438 C 1080.06 0.60601 -3.54355 0
M  V30 11439 C 1079.72 -0.504508 -4.54207 0
M  V30 11440 C 1080.72 -1.36478 -5.01667 0
M  V30 11441 C 1078.4 -0.674161 -4.97755 0
M  V30 11442 C 1080.4 -2.37975 -5.91309 0
M  V30 11443 C 1078.08 -1.69246 -5.87196 0
M  V30 11444 C 1079.08 -2.54367 -6.33866 0
M  V30 11445 O 1078.77 -3.54454 -7.21538 0
M  V30 11446 H 1078.5 0.0286396 -0.675393 0
M  V30 11447 H 1081.06 -0.564912 -1.97479 0
M  V30 11448 H 1079.29 1.40334 -3.60338 0
M  V30 11449 H 1080.97 1.1115 -3.90385 0
M  V30 11450 H 1081.74 -1.24506 -4.68746 0
M  V30 11451 H 1077.62 -0.0213029 -4.60995 0
M  V30 11452 H 1081.16 -3.0445 -6.27659 0
M  V30 11453 H 1077.06 -1.81252 -6.1953 0
M  V30 11454 H 1077.83 -3.50571 -7.39623 0
M  V30 11455 N 1080.49 1.57075 -0.12858 0
M  V30 11456 C 1081.42 2.11553 0.855593 0
M  V30 11457 C 1082.4 1.03435 1.25459 0
M  V30 11458 O 1083.59 1.3115 1.35395 0
M  V30 11459 C 1080.71 2.62012 2.14633 0
M  V30 11460 C 1079.76 3.82105 1.89467 0
M  V30 11461 S 1080.59 5.24033 1.10228 0
M  V30 11462 C 1081.75 5.77867 2.4046 0
M  V30 11463 H 1081.98 2.94701 0.392248 0
M  V30 11464 H 1079.51 1.54164 0.0853746 0
M  V30 11465 H 1081.47 2.91737 2.8879 0
M  V30 11466 H 1080.13 1.79029 2.58084 0
M  V30 11467 H 1079.33 4.15592 2.8513 0
M  V30 11468 H 1078.93 3.53047 1.23427 0
M  V30 11469 H 1081.22 5.88175 3.36238 0
M  V30 11470 H 1082.16 6.75775 2.11504 0
M  V30 11471 H 1082.57 5.05991 2.50266 0
M  V30 11472 N 1081.97 -0.145205 1.5693 0
M  V30 11473 C 1082.9 -1.18096 2.01434 0
M  V30 11474 C 1083.88 -1.447 0.894204 0
M  V30 11475 O 1085.07 -1.55589 1.16214 0
M  V30 11476 C 1082.2 -2.51369 2.39647 0
M  V30 11477 C 1081.15 -2.39283 3.54863 0
M  V30 11478 C 1080.48 -3.77283 3.78895 0
M  V30 11479 C 1081.78 -1.8754 4.87469 0
M  V30 11480 H 1083.47 -0.810897 2.8821 0
M  V30 11481 H 1081.02 -0.388624 1.38657 0
M  V30 11482 H 1082.97 -3.24054 2.69382 0
M  V30 11483 H 1081.69 -2.90214 1.49811 0
M  V30 11484 H 1080.35 -1.6905 3.25296 0
M  V30 11485 H 1080 -4.13567 2.86307 0
M  V30 11486 H 1079.7 -3.70057 4.56433 0
M  V30 11487 H 1081.22 -4.51514 4.11057 0
M  V30 11488 H 1082.64 -2.50019 5.1591 0
M  V30 11489 H 1081.03 -1.912 5.68826 0
M  V30 11490 H 1082.1 -0.831194 4.77723 0
M  V30 11491 N 1083.45 -1.52049 -0.414609 0
M  V30 11492 C 1084.38 -1.77956 -1.51175 0
M  V30 11493 C 1085.36 -0.630282 -1.57992 0
M  V30 11494 O 1086.54 -0.875324 -1.73354 0
M  V30 11495 C 1083.67 -1.92527 -2.89051 0
M  V30 11496 C 1082.63 -3.08096 -2.97087 0
M  V30 11497 C 1081.95 -3.07882 -4.37164 0
M  V30 11498 C 1083.25 -4.47656 -2.69075 0
M  V30 11499 H 1084.95 -2.69827 -1.29746 0
M  V30 11500 H 1082.49 -1.29839 -0.62273 0
M  V30 11501 H 1084.45 -2.09234 -3.65786 0
M  V30 11502 H 1083.17 -0.973235 -3.11762 0
M  V30 11503 H 1081.83 -2.91131 -2.22797 0
M  V30 11504 H 1081.48 -2.10411 -4.56877 0
M  V30 11505 H 1081.18 -3.85501 -4.43467 0
M  V30 11506 H 1082.7 -3.26712 -5.15841 0
M  V30 11507 H 1084.12 -4.64855 -3.35534 0
M  V30 11508 H 1082.51 -5.27151 -2.8676 0
M  V30 11509 H 1083.58 -4.56129 -1.64544 0
M  V30 11510 N 1084.93 0.6715 -1.42579 0
M  V30 11511 C 1086.17 1.44353 -1.44712 0
M  V30 11512 C 1086.53 1.91898 -0.0626628 0
M  V30 11513 O 1087.73 2.68768 0.0412789 0
M  V30 11514 C 1086 2.60616 -2.44569 0
M  V30 11515 S 1087.56 3.49416 -2.65431 0
M  V30 11516 H 1084.38 0.492985 -0.512334 0
M  V30 11517 H 1086.98 0.781349 -1.79207 0
M  V30 11518 H 1085.68 2.23931 -3.43923 0
M  V30 11519 H 1085.22 3.31703 -2.1151 0
M  V30 11520 H 1087.23 4.56712 -1.9398 0
M  V30 11521 N 1086.4 1.28806 0.908124 0
M  V30 11522 C 1087.34 1.07538 2.01273 0
M  V30 11523 C 1088.31 -0.0102454 1.62597 0
M  V30 11524 O 1089.5 0.138797 1.87988 0
M  V30 11525 C 1086.63 0.635337 3.32688 0
M  V30 11526 C 1085.67 1.71843 3.90349 0
M  V30 11527 S 1086.5 3.31571 4.20501 0
M  V30 11528 C 1087.66 2.89416 5.54968 0
M  V30 11529 H 1087.89 2.01058 2.19005 0
M  V30 11530 H 1085.43 1.12857 1.05369 0
M  V30 11531 H 1087.38 0.388159 4.08661 0
M  V30 11532 H 1086.05 -0.280122 3.12848 0
M  V30 11533 H 1085.24 1.36228 4.8524 0
M  V30 11534 H 1084.84 1.91869 3.21033 0
M  V30 11535 H 1087.13 2.35936 6.35091 0
M  V30 11536 H 1088.08 3.83126 5.955 0
M  V30 11537 H 1088.48 2.27962 5.16424 0
M  V30 11538 N 1087.88 -1.11734 1.11145 0
M  V30 11539 C 1088.83 -2.15789 0.736133 0
M  V30 11540 C 1089.82 -1.58813 -0.25832 0
M  V30 11541 O 1091.01 -1.76877 -0.0659078 0
M  V30 11542 C 1088.14 -3.4284 0.177597 0
M  V30 11543 C 1087.22 -4.06783 1.19953 0
M  V30 11544 N 1087.61 -4.45626 2.39271 0
M  V30 11545 C 1085.91 -4.33663 1.04176 0
M  V30 11546 C 1086.61 -4.95684 3.04422 0
M  V30 11547 N 1085.59 -4.91648 2.31912 0
M  V30 11548 H 1089.39 -2.43598 1.6443 0
M  V30 11549 H 1086.9 -1.28716 0.990247 0
M  V30 11550 H 1088.9 -4.16756 -0.109402 0
M  V30 11551 H 1087.56 -3.16498 -0.725201 0
M  V30 11552 H 1088.57 -4.37757 2.76747 0
M  V30 11553 H 1085.25 -4.17044 0.195132 0
M  V30 11554 H 1086.64 -5.35394 4.05959 0
M  V30 11555 N 1089.36 -0.901303 -1.29284 0
M  V30 11556 C 1090.61 -0.527 -1.95108 0
M  V30 11557 C 1090.93 0.930065 -1.71391 0
M  V30 11558 O 1090.2 1.65601 -1.04658 0
M  V30 11559 H 1088.78 -0.191903 -0.721929 0
M  V30 11560 H 1091.44 -1.14795 -1.57506 0
M  V30 11561 H 1090.54 -0.710945 -3.03895 0
M  V30 11562 N 1090.84 1.42931 -0.663954 0
M  V30 11563 C 1092.07 2.06028 -0.189808 0
M  V30 11564 C 1092.48 1.49827 1.14879 0
M  V30 11565 O 1091.84 0.633778 1.71142 0
M  V30 11566 C 1091.89 3.61349 -0.104343 0
M  V30 11567 O 1091.61 4.15463 -1.39004 0
M  V30 11568 C 1093.11 4.4154 0.394599 0
M  V30 11569 H 1090.33 0.664259 -0.0948744 0
M  V30 11570 H 1092.87 1.83255 -0.907632 0
M  V30 11571 H 1091.03 3.83271 0.564103 0
M  V30 11572 H 1091.44 5.09233 -1.25626 0
M  V30 11573 H 1092.92 5.50525 0.403329 0
M  V30 11574 H 1093.39 4.1534 1.4279 0
M  V30 11575 H 1094 4.24612 -0.241729 0
M  V30 11576 N 1092.32 0.406567 1.52266 0
M  V30 11577 C 1093.73 -0.063607 1.86592 0
M  V30 11578 C 1094.08 -1.4466 1.32544 0
M  V30 11579 O 1093.2 -2.05971 0.663692 0
M  V30 11580 C 1093.8 -0.122198 3.3858 0
M  V30 11581 C 1092.36 -0.536701 3.72554 0
M  V30 11582 C 1091.5 0.290422 2.75775 0
M  V30 11583 H 1094.45 0.623738 1.45929 0
M  V30 11584 H 1094.48 -0.937964 3.68758 0
M  V30 11585 H 1093.99 0.884495 3.77887 0
M  V30 11586 H 1092.09 -1.55013 3.38824 0
M  V30 11587 H 1092.2 -0.282867 4.78264 0
M  V30 11588 H 1090.57 -0.246864 2.53501 0
M  V30 11589 H 1091.35 1.29541 3.17921 0
M  V30 11590 N 1093.79 -1.57004 0.136909 0
M  V30 11591 C 1095.04 -1.9541 -0.51569 0
M  V30 11592 C 1095.36 -1.02219 -1.66061 0
M  V30 11593 O 1094.63 -0.0818172 -1.95729 0
M  V30 11594 H 1093.21 -0.721504 -0.193497 0
M  V30 11595 H 1095.88 -1.93765 0.210046 0
M  V30 11596 H 1094.97 -2.98887 -0.898494 0
M  V30 11597 N 1095.27 0.136881 -1.57004 0
M  V30 11598 C 1096.22 1.17411 -1.95445 0
M  V30 11599 C 1097.21 1.38019 -0.827015 0
M  V30 11600 O 1098.4 1.39412 -1.09057 0
M  V30 11601 C 1095.53 2.50525 -2.34717 0
M  V30 11602 C 1094.61 2.33467 -3.54054 0
M  V30 11603 N 1095 1.86184 -4.70286 0
M  V30 11604 C 1093.3 2.64185 -3.59336 0
M  V30 11605 C 1094 1.82411 -5.5236 0
M  V30 11606 N 1092.98 2.26098 -4.94349 0
M  V30 11607 H 1096.78 0.8008 -2.8278 0
M  V30 11608 H 1094.3 0.344831 -1.58697 0
M  V30 11609 H 1096.29 3.2552 -2.60465 0
M  V30 11610 H 1094.95 2.8863 -1.48738 0
M  V30 11611 H 1095.96 1.55998 -4.93847 0
M  V30 11612 H 1092.64 3.06096 -2.83922 0
M  V30 11613 H 1094.03 1.4726 -6.55564 0
M  V30 11614 N 1096.75 1.52266 0.40654 0
M  V30 11615 C 1097.66 1.78688 1.52012 0
M  V30 11616 C 1098.68 0.6726 1.60475 0
M  V30 11617 O 1099.85 0.95829 1.77141 0
M  V30 11618 C 1096.92 1.93434 2.87722 0
M  V30 11619 C 1095.98 3.17341 2.89125 0
M  V30 11620 C 1095.21 3.31374 4.18362 0
M  V30 11621 O 1095.43 2.50613 5.12396 0
M  V30 11622 O 1094.37 4.24539 4.26674 0
M  V30 11623 H 1098.19 2.73213 1.3262 0
M  V30 11624 H 1095.78 1.37142 0.592653 0
M  V30 11625 H 1097.66 2.04941 3.68208 0
M  V30 11626 H 1096.34 1.02099 3.07177 0
M  V30 11627 H 1095.24 3.1129 2.07483 0
M  V30 11628 H 1096.58 4.08466 2.7462 0
M  V30 11629 N 1098.23 -0.663929 1.42933 0
M  V30 11630 C 1099.51 -1.42054 1.34462 0
M  V30 11631 C 1099.89 -2.11096 -0.0127801 0
M  V30 11632 O 1099.23 -2.04027 -1.02884 0
M  V30 11633 C 1099.44 -2.41406 2.5204 0
M  V30 11634 C 1100.79 -3.05726 2.94647 0
M  V30 11635 O 1101.82 -2.51733 2.52009 0
M  V30 11636 O 1100.67 -4.03593 3.68477 0
M  V30 11637 H 1097.77 -0.634149 0.530834 0
M  V30 11638 H 1100.31 -0.691738 1.54962 0
M  V30 11639 H 1099.09 -1.89263 3.42484 0
M  V30 11640 H 1098.71 -3.21752 2.33584 0
M  V30 11641 N 1099.71 -1.29285 -0.901281 0
M  V30 11642 C 1100.95 -1.17165 -1.65162 0
M  V30 11643 C 1101.28 0.277184 -1.92515 0
M  V30 11644 O 1100.54 1.2168 -1.53273 0
M  V30 11645 C 1100.84 -1.92865 -3.00895 0
M  V30 11646 C 1100.5 -3.42593 -2.93157 0
M  V30 11647 C 1099.16 -3.83426 -2.90754 0
M  V30 11648 C 1101.52 -4.38011 -2.82481 0
M  V30 11649 C 1098.84 -5.17997 -2.75492 0
M  V30 11650 C 1101.2 -5.7267 -2.68759 0
M  V30 11651 C 1099.86 -6.12764 -2.64721 0
M  V30 11652 H 1099.13 -0.428737 -0.604372 0
M  V30 11653 H 1101.78 -1.60204 -1.04914 0
M  V30 11654 H 1100.08 -1.42412 -3.65001 0
M  V30 11655 H 1101.78 -1.80893 -3.57881 0
M  V30 11656 H 1098.37 -3.10134 -2.95829 0
M  V30 11657 H 1102.55 -4.07417 -2.83416 0
M  V30 11658 H 1097.81 -5.48173 -2.70769 0
M  V30 11659 H 1101.98 -6.46258 -2.59469 0
M  V30 11660 H 1099.61 -7.16987 -2.52652 0
M  V30 11661 N 1101.18 1.11143 -1.11736 0
M  V30 11662 C 1102.43 1.83219 -0.869413 0
M  V30 11663 C 1102.76 1.84588 0.603402 0
M  V30 11664 O 1102.04 1.30119 1.44566 0
M  V30 11665 C 1102.32 3.30247 -1.43559 0
M  V30 11666 C 1102.17 3.37253 -2.97624 0
M  V30 11667 C 1103.49 4.26412 -1.08907 0
M  V30 11668 H 1100.61 0.665205 -0.317286 0
M  V30 11669 H 1103.25 1.30307 -1.38275 0
M  V30 11670 H 1101.4 3.75437 -0.998978 0
M  V30 11671 H 1103.08 3.00599 -3.49911 0
M  V30 11672 H 1101.32 2.77378 -3.33532 0
M  V30 11673 H 1101.99 4.40752 -3.32328 0
M  V30 11674 H 1104.47 3.89418 -1.46604 0
M  V30 11675 H 1103.34 5.27666 -1.51195 0
M  V30 11676 H 1103.6 4.421 -0.000259009 0
M  V30 11677 N 1102.66 0.908147 1.28804 0
M  V30 11678 C 1103.59 0.34957 2.26519 0
M  V30 11679 C 1104.61 -0.508845 1.54643 0
M  V30 11680 O 1105.8 -0.324633 1.75523 0
M  V30 11681 C 1102.9 -0.519461 3.34895 0
M  V30 11682 C 1102.07 0.315157 4.36263 0
M  V30 11683 C 1101.13 -0.488059 5.23932 0
M  V30 11684 O 1100.15 0.0974133 5.69117 0
M  V30 11685 N 1101.36 -1.79233 5.52137 0
M  V30 11686 H 1104.12 1.18945 2.75086 0
M  V30 11687 H 1101.68 0.77351 1.42227 0
M  V30 11688 H 1103.67 -1.0634 3.90479 0
M  V30 11689 H 1102.24 -1.26004 2.8608 0
M  V30 11690 H 1101.46 1.04049 3.8022 0
M  V30 11691 H 1102.75 0.886438 5.01019 0
M  V30 11692 H 1102.15 -2.2906 5.1725 0
M  V30 11693 H 1100.71 -2.28322 6.10502 0
M  V30 11694 N 1104.14 -1.42577 0.671525 0
M  V30 11695 C 1105.39 -2.02401 0.201384 0
M  V30 11696 C 1105.74 -1.52133 -1.17786 0
M  V30 11697 O 1105.03 -0.712405 -1.77863 0
M  V30 11698 C 1105.23 -3.56985 0.172097 0
M  V30 11699 C 1105.06 -4.22255 1.54696 0
M  V30 11700 C 1103.83 -4.57564 2.14391 0
M  V30 11701 C 1106.03 -4.5006 2.48899 0
M  V30 11702 N 1104.01 -5.07997 3.44692 0
M  V30 11703 C 1105.38 -5.02008 3.63851 0
M  V30 11704 C 1107.43 -4.32045 2.47471 0
M  V30 11705 C 1106.14 -5.37837 4.77624 0
M  V30 11706 C 1108.16 -4.68947 3.60337 0
M  V30 11707 C 1107.52 -5.21045 4.74016 0
M  V30 11708 H 1103.62 -0.772963 0.118539 0
M  V30 11709 H 1106.21 -1.73485 0.883802 0
M  V30 11710 H 1104.38 -3.85426 -0.479723 0
M  V30 11711 H 1106.11 -4.03506 -0.31062 0
M  V30 11712 H 1102.87 -4.43212 1.66913 0
M  V30 11713 H 1103.29 -5.37647 4.11418 0
M  V30 11714 H 1107.93 -3.91024 1.60811 0
M  V30 11715 H 1105.65 -5.77792 5.64962 0
M  V30 11716 H 1109.24 -4.56687 3.60455 0
M  V30 11717 H 1108.12 -5.49067 5.59906 0
M  V30 11718 N 1105.62 -0.414636 -1.52048 0
M  V30 11719 C 1106.53 0.414861 -2.30903 0
M  V30 11720 C 1107.54 1.04855 -1.38858 0
M  V30 11721 O 1108.72 1.04886 -1.71933 0
M  V30 11722 C 1105.79 1.51356 -3.11917 0
M  V30 11723 C 1104.85 0.902359 -4.19709 0
M  V30 11724 C 1104.08 1.9487 -4.96852 0
M  V30 11725 O 1104.3 3.16766 -4.74358 0
M  V30 11726 O 1103.24 1.55186 -5.8155 0
M  V30 11727 H 1107.06 -0.228251 -3.02841 0
M  V30 11728 H 1104.65 -0.177704 -1.48339 0
M  V30 11729 H 1106.53 2.15127 -3.62351 0
M  V30 11730 H 1105.2 2.14117 -2.42767 0
M  V30 11731 H 1104.11 0.22721 -3.73409 0
M  V30 11732 H 1105.44 0.318587 -4.91168 0
M  V30 11733 N 1107.1 1.56929 -0.145233 0
M  V30 11734 C 1108.03 2.12449 0.833107 0
M  V30 11735 C 1109.01 1.0476 1.24355 0
M  V30 11736 O 1110.19 1.32579 1.33997 0
M  V30 11737 C 1107.32 2.64274 2.11842 0
M  V30 11738 C 1106.36 3.84093 1.85404 0
M  V30 11739 S 1107.2 5.25172 1.04663 0
M  V30 11740 C 1108.35 5.80384 2.34318 0
M  V30 11741 H 1108.59 2.951 0.360969 0
M  V30 11742 H 1106.12 1.54246 0.0690187 0
M  V30 11743 H 1108.08 2.94783 2.8568 0
M  V30 11744 H 1106.74 1.81756 2.56171 0
M  V30 11745 H 1105.93 4.18593 2.80706 0
M  V30 11746 H 1105.53 3.54336 1.19675 0
M  V30 11747 H 1107.83 5.91709 3.29981 0
M  V30 11748 H 1108.77 6.7798 2.04325 0
M  V30 11749 H 1109.18 5.08617 2.44885 0
M  V30 11750 N 1108.58 -0.128553 1.57075 0
M  V30 11751 C 1109.49 -1.17718 2.02927 0
M  V30 11752 C 1110.5 -1.45912 0.947932 0
M  V30 11753 O 1111.68 -1.57217 1.25876 0
M  V30 11754 C 1108.74 -2.48625 2.41633 0
M  V30 11755 C 1107.8 -2.27914 3.63804 0
M  V30 11756 C 1107.04 -3.52579 4.00654 0
M  V30 11757 O 1107.26 -4.59505 3.37952 0
M  V30 11758 O 1106.19 -3.44147 4.93808 0
M  V30 11759 H 1110.02 -0.817846 2.92481 0
M  V30 11760 H 1107.6 -0.338649 1.45511 0
M  V30 11761 H 1109.49 -3.2577 2.67305 0
M  V30 11762 H 1108.16 -2.84052 1.55229 0
M  V30 11763 H 1107.07 -1.4866 3.43294 0
M  V30 11764 H 1108.4 -1.97395 4.50883 0
M  V30 11765 N 1110.05 -1.5248 -0.398459 0
M  V30 11766 C 1111.3 -1.67309 -1.1461 0
M  V30 11767 C 1111.63 -0.407095 -1.89885 0
M  V30 11768 O 1110.91 0.594834 -1.85181 0
M  V30 11769 C 1111.19 -2.90204 -2.13198 0
M  V30 11770 C 1111.04 -4.26881 -1.4175 0
M  V30 11771 C 1112.36 -3.08634 -3.13741 0
M  V30 11772 H 1109.48 -0.608853 -0.415292 0
M  V30 11773 H 1112.12 -1.85057 -0.430573 0
M  V30 11774 H 1110.27 -2.75204 -2.74218 0
M  V30 11775 H 1111.95 -4.53631 -0.837676 0
M  V30 11776 H 1110.19 -4.27793 -0.719387 0
M  V30 11777 H 1110.86 -5.08939 -2.1374 0
M  V30 11778 H 1113.34 -3.22603 -2.62805 0
M  V30 11779 H 1112.21 -3.96117 -3.79977 0
M  V30 11780 H 1112.47 -2.22425 -3.82073 0
M  V30 11781 N 1111.53 0.65634 -1.43283 0
M  V30 11782 C 1112.77 1.4281 -1.46235 0
M  V30 11783 C 1113.14 1.9182 -0.0830126 0
M  V30 11784 O 1114.34 2.68797 0.0127701 0
M  V30 11785 C 1112.61 2.58008 -2.47319 0
M  V30 11786 S 1114.17 3.46582 -2.69122 0
M  V30 11787 H 1110.98 0.487523 -0.517534 0
M  V30 11788 H 1113.59 0.762298 -1.80026 0
M  V30 11789 H 1112.29 2.20271 -3.46279 0
M  V30 11790 H 1111.82 3.29441 -2.15016 0
M  V30 11791 H 1113.84 4.54629 -1.98813 0
M  V30 11792 N 1113.01 1.29761 0.894412 0
M  V30 11793 C 1113.96 1.15341 1.99912 0
M  V30 11794 C 1114.93 0.0453488 1.66038 0
M  V30 11795 O 1116.11 0.213829 1.89598 0
M  V30 11796 C 1113.25 0.841432 3.34685 0
M  V30 11797 C 1112.36 2.03046 3.81309 0
M  V30 11798 C 1111.5 1.65739 5.04682 0
M  V30 11799 C 1110.54 2.81191 5.43689 0
M  V30 11800 N 1109.68 2.44244 6.58247 0
M  V30 11801 H 1114.52 2.09854 2.11578 0
M  V30 11802 H 1112.05 1.04421 1.03608 0
M  V30 11803 H 1114.01 0.641211 4.12243 0
M  V30 11804 H 1112.64 -0.066797 3.22731 0
M  V30 11805 H 1111.69 2.34222 2.9974 0
M  V30 11806 H 1113 2.89538 4.06164 0
M  V30 11807 H 1112.16 1.42036 5.8984 0
M  V30 11808 H 1110.9 0.764019 4.81678 0
M  V30 11809 H 1109.9 3.0557 4.57064 0
M  V30 11810 H 1111.13 3.712 5.68672 0
M  V30 11811 H 1109.07 1.57402 6.36837 0
M  V30 11812 H 1108.99 3.24269 6.82924 0
M  V30 11813 H 1110.26 2.23875 7.46659 0
M  V30 11814 N 1114.49 -1.10549 1.12324 0
M  V30 11815 C 1115.42 -2.18911 0.812416 0
M  V30 11816 C 1116.4 -1.68628 -0.22327 0
M  V30 11817 O 1117.58 -1.94015 -0.0847184 0
M  V30 11818 C 1114.71 -3.46288 0.264947 0
M  V30 11819 C 1113.67 -4.09838 1.23356 0
M  V30 11820 C 1112.99 -5.31901 0.546374 0
M  V30 11821 C 1114.29 -4.53686 2.58778 0
M  V30 11822 H 1115.99 -2.45169 1.71851 0
M  V30 11823 H 1113.53 -1.17834 0.827715 0
M  V30 11824 H 1115.49 -4.21385 0.0352364 0
M  V30 11825 H 1114.21 -3.19517 -0.676479 0
M  V30 11826 H 1112.87 -3.36746 1.44906 0
M  V30 11827 H 1112.52 -5.01406 -0.400157 0
M  V30 11828 H 1112.22 -5.75372 1.19249 0
M  V30 11829 H 1113.74 -6.09731 0.325673 0
M  V30 11830 H 1115.16 -5.20063 2.41263 0
M  V30 11831 H 1113.55 -5.08003 3.19457 0
M  V30 11832 H 1114.62 -3.66665 3.17309 0
M  V30 11833 N 1115.97 -0.914965 -1.28321 0
M  V30 11834 C 1117.38 -0.59512 -1.76961 0
M  V30 11835 C 1117.73 0.88958 -1.74874 0
M  V30 11836 O 1116.85 1.6959 -1.34418 0
M  V30 11837 C 1117.45 -1.07353 -3.21342 0
M  V30 11838 C 1116.01 -0.804577 -3.677 0
M  V30 11839 C 1115.15 -1.23955 -2.48053 0
M  V30 11840 H 1118.1 -1.0961 -1.14767 0
M  V30 11841 H 1118.13 -0.415506 -3.78225 0
M  V30 11842 H 1117.64 -2.15413 -3.22829 0
M  V30 11843 H 1115.74 0.26277 -3.71672 0
M  V30 11844 H 1115.85 -1.41317 -4.57784 0
M  V30 11845 H 1114.22 -0.658274 -2.46046 0
M  V30 11846 H 1115 -2.32853 -2.52258 0
M  V30 11847 N 1117.44 1.42219 -0.679077 0
M  V30 11848 C 1118.86 1.55737 -0.349034 0
M  V30 11849 C 1119.06 1.65789 1.14527 0
M  V30 11850 O 1118.12 1.62717 1.93079 0
M  V30 11851 C 1119.43 2.80516 -1.0831 0
M  V30 11852 C 1120.98 2.94294 -1.06584 0
M  V30 11853 C 1121.45 4.2194 -1.78132 0
M  V30 11854 N 1122.94 4.28861 -1.75021 0
M  V30 11855 C 1123.68 5.26453 -2.27234 0
M  V30 11856 N 1123.17 6.30171 -2.87847 0
M  V30 11857 N 1124.97 5.1828 -2.17584 0
M  V30 11858 H 1117.12 1.33939 -1.64846 0
M  V30 11859 H 1119.38 0.645029 -0.694725 0
M  V30 11860 H 1119.09 2.79241 -2.13816 0
M  V30 11861 H 1118.96 3.71539 -0.651069 0
M  V30 11862 H 1121.35 2.95094 -0.0191061 0
M  V30 11863 H 1121.43 2.04491 -1.53679 0
M  V30 11864 H 1121.07 4.21901 -2.82776 0
M  V30 11865 H 1121 5.10685 -1.28483 0
M  V30 11866 H 1123.49 3.54537 -1.30814 0
M  V30 11867 H 1123.81 7.01 -3.25298 0
M  V30 11868 H 1122.15 6.30721 -2.91918 0
M  V30 11869 H 1125.34 4.36172 -1.69916 0
M  V30 11870 H 1125.52 5.94172 -2.58581 0
M  V30 11871 N 1118.92 0.422693 1.51826 0
M  V30 11872 C 1119.85 -0.386913 2.30272 0
M  V30 11873 C 1120.83 -1.03411 1.35056 0
M  V30 11874 O 1122.02 -1.04055 1.6397 0
M  V30 11875 C 1119.15 -1.49645 3.13407 0
M  V30 11876 C 1118.1 -0.973532 4.16781 0
M  V30 11877 C 1117.43 -2.1777 4.88344 0
M  V30 11878 C 1118.73 -0.0181194 5.22297 0
M  V30 11879 H 1120.42 0.267697 2.98201 0
M  V30 11880 H 1117.97 0.130186 1.4341 0
M  V30 11881 H 1119.92 -2.06993 3.67059 0
M  V30 11882 H 1118.64 -2.17914 2.43272 0
M  V30 11883 H 1117.3 -0.42237 3.64159 0
M  V30 11884 H 1116.95 -2.84625 4.14726 0
M  V30 11885 H 1116.65 -1.83427 5.58237 0
M  V30 11886 H 1118.18 -2.75699 5.44814 0
M  V30 11887 H 1119.59 -0.500822 5.71108 0
M  V30 11888 H 1117.99 0.237163 5.99631 0
M  V30 11889 H 1119.06 0.923065 4.76033 0
M  V30 11890 N 1120.4 -1.5685 0.153553 0
M  V30 11891 C 1121.62 -2.01135 -0.505904 0
M  V30 11892 C 1122.05 -1.03301 -1.57196 0
M  V30 11893 O 1121.41 -0.00976022 -1.81297 0
M  V30 11894 C 1121.46 -3.44129 -1.0774 0
M  V30 11895 O 1120.56 -3.49318 -2.19205 0
M  V30 11896 H 1119.9 -0.652496 -0.123062 0
M  V30 11897 H 1122.43 -2.03039 0.252216 0
M  V30 11898 H 1122.44 -3.83066 -1.40444 0
M  V30 11899 H 1121.12 -4.1484 -0.296754 0
M  V30 11900 H 1119.69 -3.22227 -1.8768 0
M  V30 11901 N 1121.88 0.120221 -1.57141 0
M  V30 11902 C 1122.81 1.14876 -2.03287 0
M  V30 11903 C 1123.79 1.43259 -0.917112 0
M  V30 11904 O 1124.97 1.53721 -1.18674 0
M  V30 11905 C 1122.1 2.47525 -2.43616 0
M  V30 11906 C 1121.06 2.33607 -3.58625 0
M  V30 11907 C 1120.38 3.71207 -3.84849 0
M  V30 11908 C 1121.68 1.79761 -4.90391 0
M  V30 11909 H 1123.38 0.764943 -2.89463 0
M  V30 11910 H 1120.92 0.366516 -1.39258 0
M  V30 11911 H 1122.88 3.19728 -2.74504 0
M  V30 11912 H 1121.6 2.87794 -1.54409 0
M  V30 11913 H 1120.26 1.63853 -3.27945 0
M  V30 11914 H 1119.91 4.0896 -2.9285 0
M  V30 11915 H 1119.61 3.62749 -4.62263 0
M  V30 11916 H 1121.13 4.44917 -4.18188 0
M  V30 11917 H 1122.55 2.4178 -5.19822 0
M  V30 11918 H 1120.94 1.82126 -5.71795 0
M  V30 11919 H 1122.01 0.755087 -4.78985 0
M  V30 11920 N 1123.36 1.52689 0.390367 0
M  V30 11921 C 1124.3 1.78007 1.4972 0
M  V30 11922 C 1125.3 0.647948 1.56518 0
M  V30 11923 O 1126.5 0.830398 1.59701 0
M  V30 11924 H 1122.88 0.56322 0.498284 0
M  V30 11925 H 1124.85 2.70698 1.25559 0
M  V30 11926 C 1123.6 1.96469 2.86872 0
M  V30 11927 H 1122.92 2.83012 2.82391 0
M  V30 11928 H 1124.36 2.18174 3.6356 0
M  V30 11929 C 1122.82 0.736847 3.28743 0
M  V30 11930 O 1123.35 -0.0863743 4.01607 0
M  V30 11931 N 1121.56 0.56735 2.85008 0
M  V30 11932 H 1121.1 1.23838 2.2588 0
M  V30 11933 H 1121.06 -0.252831 3.13382 0
M  V30 11934 N 1124.83 -0.648732 1.43629 0
M  V30 11935 C 1126.08 -1.40579 1.45196 0
M  V30 11936 C 1126.4 -1.9484 0.0790556 0
M  V30 11937 O 1125.67 -1.74707 -0.886239 0
M  V30 11938 H 1124.25 -0.52175 0.53459 0
M  V30 11939 H 1126.92 -0.764796 1.79268 0
M  V30 11940 H 1126.01 -2.24591 2.16715 0
M  V30 11941 N 1126.31 -1.30234 -0.887518 0
M  V30 11942 C 1127.56 -1.19086 -1.64153 0
M  V30 11943 C 1127.89 0.254428 -1.92526 0
M  V30 11944 O 1127.17 1.18233 -1.54438 0
M  V30 11945 C 1127.45 -2.01723 -2.98295 0
M  V30 11946 C 1127.3 -3.54458 -2.76911 0
M  V30 11947 C 1128.62 -1.85307 -3.99186 0
M  V30 11948 H 1125.74 -0.433967 -0.595686 0
M  V30 11949 H 1128.38 -1.59839 -1.0272 0
M  V30 11950 H 1126.53 -1.67096 -3.5073 0
M  V30 11951 H 1128.2 -3.99131 -2.31284 0
M  V30 11952 H 1126.45 -3.78768 -2.11464 0
M  V30 11953 H 1127.12 -4.07565 -3.72283 0
M  V30 11954 H 1129.59 -2.15575 -3.55903 0
M  V30 11955 H 1128.47 -2.45456 -4.90961 0
M  V30 11956 H 1128.73 -0.811528 -4.34588 0
M  V30 11957 N 1127.79 1.09952 -1.12909 0
M  V30 11958 C 1129.21 1.34051 -0.866172 0
M  V30 11959 C 1129.41 1.95169 0.501125 0
M  V30 11960 O 1128.46 2.19458 1.24878 0
M  V30 11961 C 1129.78 2.25738 -1.98653 0
M  V30 11962 C 1131.32 2.39261 -2.01799 0
M  V30 11963 C 1131.8 3.3428 -3.13083 0
M  V30 11964 N 1133.29 3.41851 -3.12558 0
M  V30 11965 C 1134.02 4.15358 -3.95304 0
M  V30 11966 N 1133.52 4.91709 -4.88051 0
M  V30 11967 N 1135.31 4.11027 -3.83423 0
M  V30 11968 H 1127.46 0.686521 -2.00999 0
M  V30 11969 H 1129.73 0.364913 -0.874953 0
M  V30 11970 H 1129.43 1.88048 -2.97205 0
M  V30 11971 H 1129.31 3.26085 -1.89601 0
M  V30 11972 H 1131.69 2.76218 -1.03864 0
M  V30 11973 H 1131.78 1.38712 -2.14925 0
M  V30 11974 H 1131.42 2.98048 -4.11254 0
M  V30 11975 H 1131.35 4.34721 -2.97195 0
M  V30 11976 H 1133.84 2.87405 -2.45371 0
M  V30 11977 H 1134.15 5.45212 -5.47689 0
M  V30 11978 H 1132.5 4.90816 -4.92061 0
M  V30 11979 H 1135.69 3.50477 -3.10296 0
M  V30 11980 H 1135.86 4.68054 -4.4814 0
M  V30 11981 N 1129.27 0.921757 1.27833 0
M  V30 11982 C 1130.52 0.559078 1.94629 0
M  V30 11983 C 1130.84 -0.898641 1.72495 0
M  V30 11984 O 1130.1 -1.65546 1.0437 0
M  V30 11985 C 1130.4 0.824259 3.47765 0
M  V30 11986 C 1130.06 2.26278 3.90011 0
M  V30 11987 C 1128.73 2.65607 4.01256 0
M  V30 11988 C 1131.08 3.19853 4.11513 0
M  V30 11989 C 1128.41 3.97646 4.31387 0
M  V30 11990 C 1130.76 4.51467 4.43126 0
M  V30 11991 C 1129.42 4.90637 4.52583 0
M  V30 11992 H 1128.69 0.204581 0.712199 0
M  V30 11993 H 1131.34 1.1646 1.52018 0
M  V30 11994 H 1129.64 0.136011 3.91564 0
M  V30 11995 H 1131.34 0.522701 3.97579 0
M  V30 11996 H 1127.93 1.94765 3.81791 0
M  V30 11997 H 1132.11 2.90674 4.02271 0
M  V30 11998 H 1127.37 4.27685 4.36916 0
M  V30 11999 H 1131.54 5.23982 4.58711 0
M  V30 12000 H 1129.17 5.92982 4.75685 0
M  V30 12001 N 1130.75 -1.41857 0.686609 0
M  V30 12002 C 1131.69 -2.30795 0.015643 0
M  V30 12003 C 1132.66 -1.46616 -0.780569 0
M  V30 12004 O 1133.85 -1.75423 -0.750424 0
M  V30 12005 C 1130.99 -3.32577 -0.921229 0
M  V30 12006 C 1130.1 -4.3184 -0.117585 0
M  V30 12007 C 1129.24 -5.20693 -1.05128 0
M  V30 12008 C 1128.28 -6.11629 -0.240018 0
M  V30 12009 N 1127.41 -6.92995 -1.12704 0
M  V30 12010 H 1132.25 -2.87615 0.77985 0
M  V30 12011 H 1129.79 -1.41661 0.396298 0
M  V30 12012 H 1131.75 -3.90129 -1.47836 0
M  V30 12013 H 1130.38 -2.77328 -1.65193 0
M  V30 12014 H 1129.43 -3.7631 0.55634 0
M  V30 12015 H 1130.74 -4.96168 0.511753 0
M  V30 12016 H 1129.9 -5.83035 -1.67795 0
M  V30 12017 H 1128.63 -4.5657 -1.71449 0
M  V30 12018 H 1127.64 -5.48345 0.399779 0
M  V30 12019 H 1128.86 -6.77805 0.419266 0
M  V30 12020 H 1126.81 -6.31489 -1.77644 0
M  V30 12021 H 1126.73 -7.53974 -0.553065 0
M  V30 12022 H 1128 -7.59813 -1.7408 0
M  V30 12023 N 1132.22 -0.430739 -1.51599 0
M  V30 12024 C 1133.64 -0.0826902 -1.59386 0
M  V30 12025 C 1133.84 1.40729 -1.44214 0
M  V30 12026 O 1132.9 2.1765 -1.28002 0
M  V30 12027 C 1134.21 -0.59691 -2.94716 0
M  V30 12028 C 1135.76 -0.556772 -3.08008 0
M  V30 12029 C 1136.23 -1.04786 -4.45852 0
M  V30 12030 N 1137.72 -1.00557 -4.52153 0
M  V30 12031 C 1138.46 -1.35649 -5.57124 0
M  V30 12032 N 1137.95 -1.77994 -6.69545 0
M  V30 12033 N 1139.75 -1.27508 -5.47447 0
M  V30 12034 H 1131.9 -1.40027 -1.59707 0
M  V30 12035 H 1134.16 -0.576606 -0.752482 0
M  V30 12036 H 1133.87 -1.63914 -3.11167 0
M  V30 12037 H 1133.74 -0.0182342 -3.77196 0
M  V30 12038 H 1136.13 0.476457 -2.91228 0
M  V30 12039 H 1136.21 -1.17177 -2.27383 0
M  V30 12040 H 1135.85 -2.07952 -4.63377 0
M  V30 12041 H 1135.78 -0.409461 -5.25006 0
M  V30 12042 H 1138.27 -0.694518 -3.71463 0
M  V30 12043 H 1138.59 -2.03026 -7.45654 0
M  V30 12044 H 1136.93 -1.81916 -6.70769 0
M  V30 12045 H 1140.12 -0.942969 -4.58504 0
M  V30 12046 H 1140.3 -1.55185 -6.29143 0
M  V30 12047 N 1133.7 1.56767 -0.161869 0
M  V30 12048 C 1134.95 1.95769 0.485536 0
M  V30 12049 C 1135.26 1.05006 1.65025 0
M  V30 12050 O 1136.47 1.33649 2.36326 0
M  V30 12051 C 1134.93 3.4807 0.915176 0
M  V30 12052 C 1134.53 4.47443 -0.223416 0
M  V30 12053 C 1136.28 3.95909 1.53153 0
M  V30 12054 C 1134.19 5.90971 0.225325 0
M  V30 12055 H 1133.12 0.730911 0.185161 0
M  V30 12056 H 1135.77 1.81808 -0.248592 0
M  V30 12057 H 1134.15 3.57415 1.705 0
M  V30 12058 H 1135.32 4.49805 -1.00061 0
M  V30 12059 H 1133.64 4.09606 -0.749127 0
M  V30 12060 H 1136.23 5.00592 1.87915 0
M  V30 12061 H 1136.58 3.38307 2.42599 0
M  V30 12062 H 1137.11 3.89542 0.806322 0
M  V30 12063 H 1133.85 6.52426 -0.634124 0
M  V30 12064 H 1133.37 5.91936 0.96808 0
M  V30 12065 H 1135.05 6.43497 0.672373 0
M  V30 12066 N 1135.18 -0.111886 1.57202 0
M  V30 12067 C 1136.41 -0.836317 1.89791 0
M  V30 12068 C 1136.83 -1.72304 0.754513 0
M  V30 12069 O 1136.19 -1.78889 -0.294672 0
M  V30 12070 C 1136.24 -1.63971 3.21164 0
M  V30 12071 O 1135.34 -2.74726 3.0757 0
M  V30 12072 H 1134.68 -0.230833 0.622585 0
M  V30 12073 H 1137.21 -0.0921478 2.04392 0
M  V30 12074 H 1137.22 -2.02746 3.54059 0
M  V30 12075 H 1135.9 -0.98882 4.03974 0
M  V30 12076 H 1134.47 -2.39101 2.86156 0
M  V30 12077 N 1136.66 -1.52894 -0.382264 0
M  V30 12078 C 1137.91 -1.67933 -1.1244 0
M  V30 12079 C 1138.23 -0.425166 -1.90309 0
M  V30 12080 O 1137.5 0.560557 -1.87709 0
M  V30 12081 H 1136.08 -0.619047 -0.418079 0
M  V30 12082 H 1138.74 -1.90031 -0.432928 0
M  V30 12083 H 1137.84 -2.53285 -1.82355 0
M  V30 12084 N 1138.14 0.641106 -1.43971 0
M  V30 12085 C 1139.37 1.42829 -1.49692 0
M  V30 12086 C 1139.78 1.88427 -0.118594 0
M  V30 12087 O 1139.14 1.60234 0.873581 0
M  V30 12088 C 1139.19 2.65524 -2.45314 0
M  V30 12089 O 1138.91 2.2183 -3.77787 0
M  V30 12090 C 1140.41 3.58758 -2.60399 0
M  V30 12091 H 1137.63 0.438367 -0.508011 0
M  V30 12092 H 1140.17 0.784933 -1.88836 0
M  V30 12093 H 1138.33 3.25973 -2.09332 0
M  V30 12094 H 1138.74 3.01303 -4.29321 0
M  V30 12095 H 1140.22 4.41483 -3.31357 0
M  V30 12096 H 1140.69 4.06909 -1.65294 0
M  V30 12097 H 1141.3 3.04184 -2.97241 0
M  V30 12098 N 1139.62 1.30703 0.880598 0
M  V30 12099 C 1140.84 1.22843 1.67106 0
M  V30 12100 C 1141.27 -0.204788 1.86982 0
M  V30 12101 O 1140.62 -1.14716 1.40392 0
M  V30 12102 C 1140.67 1.96685 3.02237 0
M  V30 12103 O 1139.78 1.29693 3.91476 0
M  V30 12104 H 1139.12 0.424661 0.51045 0
M  V30 12105 H 1141.65 1.72596 1.09871 0
M  V30 12106 H 1141.66 2.05874 3.52249 0
M  V30 12107 H 1140.33 3.00919 2.8709 0
M  V30 12108 H 1138.91 1.28886 3.49918 0
M  V30 12109 N 1141.09 -1.09351 1.1349 0
M  V30 12110 C 1142.03 -2.15291 0.756645 0
M  V30 12111 C 1143 -1.60548 -0.257497 0
M  V30 12112 O 1144.19 -1.87912 -0.14882 0
M  V30 12113 C 1141.32 -3.38481 0.121799 0
M  V30 12114 C 1140.36 -4.11949 1.10456 0
M  V30 12115 S 1141.19 -4.6605 2.63738 0
M  V30 12116 C 1142.35 -5.92539 2.01615 0
M  V30 12117 H 1142.58 -2.47044 1.65398 0
M  V30 12118 H 1140.12 -1.21312 0.955129 0
M  V30 12119 H 1142.07 -4.09809 -0.238086 0
M  V30 12120 H 1140.74 -3.04945 -0.752821 0
M  V30 12121 H 1139.93 -5.00317 0.608195 0
M  V30 12122 H 1139.53 -3.46486 1.40795 0
M  V30 12123 H 1141.82 -6.63593 1.36569 0
M  V30 12124 H 1142.77 -6.46856 2.88068 0
M  V30 12125 H 1143.17 -5.45094 1.46741 0
M  V30 12126 N 1142.57 -0.928524 -1.27343 0
M  V30 12127 C 1143.53 -0.43292 -2.25074 0
M  V30 12128 C 1144.53 0.448976 -1.54405 0
M  V30 12129 O 1145.72 0.249939 -1.72398 0
M  V30 12130 C 1142.86 0.377539 -3.38803 0
M  V30 12131 H 1144.05 -1.29642 -2.70431 0
M  V30 12132 H 1141.6 -0.709289 -1.3928 0
M  V30 12133 H 1142.34 1.25982 -2.98829 0
M  V30 12134 H 1142.12 -0.254782 -3.91271 0
M  V30 12135 H 1143.61 0.714634 -4.1144 0
M  V30 12136 N 1144.05 1.41491 -0.694123 0
M  V30 12137 C 1145.3 2.01252 -0.224477 0
M  V30 12138 C 1145.62 1.54965 1.17541 0
M  V30 12139 O 1144.88 0.751041 1.80715 0
M  V30 12140 C 1145.18 3.56666 -0.228869 0
M  V30 12141 C 1144.84 4.22458 -1.57608 0
M  V30 12142 C 1143.51 4.40144 -1.94491 0
M  V30 12143 C 1145.86 4.5936 -2.46247 0
M  V30 12144 C 1143.19 4.92009 -3.196 0
M  V30 12145 C 1145.54 5.12615 -3.70687 0
M  V30 12146 C 1144.2 5.28512 -4.07715 0
M  V30 12147 H 1143.47 0.736433 -0.0821419 0
M  V30 12148 H 1146.12 1.69408 -0.892926 0
M  V30 12149 H 1144.42 3.88292 0.523128 0
M  V30 12150 H 1146.12 4.00712 0.152019 0
M  V30 12151 H 1142.71 4.09065 -1.27921 0
M  V30 12152 H 1146.9 4.45352 -2.19032 0
M  V30 12153 H 1142.15 5.02502 -3.48285 0
M  V30 12154 H 1146.33 5.4015 -4.39558 0
M  V30 12155 H 1143.95 5.68464 -5.0473 0
M  V30 12156 N 1145.53 0.438773 1.51369 0
M  V30 12157 C 1146.47 -0.37195 2.27783 0
M  V30 12158 C 1147.44 -1.01558 1.31435 0
M  V30 12159 O 1148.63 -1.03421 1.60339 0
M  V30 12160 C 1145.77 -1.46636 3.12397 0
M  V30 12161 C 1144.88 -0.840727 4.2374 0
M  V30 12162 C 1144.02 -1.91031 4.95662 0
M  V30 12163 C 1143.06 -1.26318 5.98924 0
M  V30 12164 N 1142.19 -2.27419 6.64248 0
M  V30 12165 H 1147.03 0.286048 2.96624 0
M  V30 12166 H 1144.57 0.152909 1.46303 0
M  V30 12167 H 1146.53 -2.11219 3.59781 0
M  V30 12168 H 1145.16 -2.09397 2.45668 0
M  V30 12169 H 1144.21 -0.0831588 3.80309 0
M  V30 12170 H 1145.52 -0.328285 4.97719 0
M  V30 12171 H 1144.68 -2.63272 5.46601 0
M  V30 12172 H 1143.42 -2.45649 4.21317 0
M  V30 12173 H 1142.42 -0.526246 5.47276 0
M  V30 12174 H 1143.65 -0.724324 6.75226 0
M  V30 12175 H 1141.59 -2.81114 5.92715 0
M  V30 12176 H 1141.51 -1.81071 7.33996 0
M  V30 12177 H 1142.78 -2.99139 7.19817 0
M  V30 12178 N 1147.01 -1.56678 0.170181 0
M  V30 12179 C 1147.95 -2.19222 -0.777459 0
M  V30 12180 C 1148.95 -1.15592 -1.23834 0
M  V30 12181 O 1150.15 -1.33794 -1.20412 0
M  V30 12182 H 1146.53 -0.702244 -0.268992 0
M  V30 12183 H 1148.5 -2.97543 -0.225989 0
M  V30 12184 C 1147.25 -2.84631 -1.997 0
M  V30 12185 H 1146.57 -3.641 -1.65139 0
M  V30 12186 H 1148.01 -3.31864 -2.63898 0
M  V30 12187 C 1146.47 -1.84345 -2.81991 0
M  V30 12188 O 1147 -1.32821 -3.79106 0
M  V30 12189 N 1145.21 -1.53127 -2.46983 0
M  V30 12190 H 1144.75 -1.95219 -1.6807 0
M  V30 12191 H 1144.71 -0.862787 -3.0233 0
M  V30 12192 N 1148.48 0.103547 -1.57259 0
M  V30 12193 C 1149.73 0.807231 -1.84842 0
M  V30 12194 C 1150.05 1.80308 -0.758181 0
M  V30 12195 O 1151.25 2.55406 -0.920877 0
M  V30 12196 C 1149.71 1.4864 -3.27771 0
M  V30 12197 C 1149.32 0.53075 -4.44845 0
M  V30 12198 C 1151.06 2.17431 -3.64587 0
M  V30 12199 C 1148.97 1.21403 -5.78805 0
M  V30 12200 H 1147.9 0.305212 -0.689465 0
M  V30 12201 H 1150.55 0.0600855 -1.83402 0
M  V30 12202 H 1148.93 2.28071 -3.23728 0
M  V30 12203 H 1150.1 -0.231455 -4.60218 0
M  V30 12204 H 1148.42 -0.0510078 -4.16369 0
M  V30 12205 H 1151.02 2.6927 -4.6195 0
M  V30 12206 H 1151.36 2.9594 -2.92789 0
M  V30 12207 H 1151.89 1.4487 -3.70483 0
M  V30 12208 H 1148.63 0.469918 -6.53813 0
M  V30 12209 H 1148.15 1.94787 -5.6729 0
M  V30 12210 H 1149.83 1.74289 -6.23083 0
M  V30 12211 N 1149.96 1.53094 0.37415 0
M  V30 12212 C 1150.92 1.78264 1.44065 0
M  V30 12213 C 1151.92 0.652892 1.46949 0
M  V30 12214 O 1153.11 0.921046 1.47859 0
M  V30 12215 C 1150.25 1.89693 2.83248 0
M  V30 12216 H 1151.44 2.73505 1.23025 0
M  V30 12217 H 1148.99 1.44041 0.60678 0
M  V30 12218 H 1149.73 0.964884 3.09613 0
M  V30 12219 H 1149.51 2.71855 2.82554 0
M  V30 12220 H 1151 2.10787 3.60498 0
M  V30 12221 N 1151.44 -0.633461 1.44309 0
M  V30 12222 C 1152.66 -1.42527 1.50668 0
M  V30 12223 C 1153.09 -1.87637 0.131861 0
M  V30 12224 O 1152.45 -1.58595 -0.878477 0
M  V30 12225 C 1152.5 -2.62328 2.47419 0
M  V30 12226 O 1151.6 -3.62081 1.97411 0
M  V30 12227 H 1150.94 -0.426559 0.508864 0
M  V30 12228 H 1153.47 -0.773392 1.8942 0
M  V30 12229 H 1153.48 -3.09901 2.65378 0
M  V30 12230 H 1152.16 -2.2884 3.47283 0
M  V30 12231 H 1150.73 -3.21333 1.89208 0
M  V30 12232 N 1152.92 -1.31168 -0.873655 0
M  V30 12233 C 1153.87 -1.18507 -1.98052 0
M  V30 12234 C 1154.84 -0.0717583 -1.65945 0
M  V30 12235 O 1156.02 -0.243965 -1.89234 0
M  V30 12236 C 1153.16 -0.894571 -3.33304 0
M  V30 12237 C 1152.27 -2.09086 -3.7803 0
M  V30 12238 C 1151.41 -1.73747 -5.01982 0
M  V30 12239 C 1150.45 -2.89805 -5.39147 0
M  V30 12240 N 1149.58 -2.54686 -6.54278 0
M  V30 12241 H 1154.42 -2.13193 -2.08213 0
M  V30 12242 H 1151.96 -1.06056 -1.01934 0
M  V30 12243 H 1153.92 -0.706714 -4.11171 0
M  V30 12244 H 1152.55 0.0154449 -3.22796 0
M  V30 12245 H 1151.6 -2.38961 -2.95976 0
M  V30 12246 H 1152.91 -2.95963 -4.01506 0
M  V30 12247 H 1152.07 -1.51402 -5.87505 0
M  V30 12248 H 1150.81 -0.840553 -4.80402 0
M  V30 12249 H 1149.81 -3.12803 -4.52144 0
M  V30 12250 H 1151.04 -3.802 -5.62694 0
M  V30 12251 H 1148.98 -1.67513 -6.34252 0
M  V30 12252 H 1148.9 -3.35093 -6.77679 0
M  V30 12253 H 1150.17 -2.35725 -7.43003 0
M  V30 12254 N 1154.4 1.08748 -1.14068 0
M  V30 12255 C 1155.65 1.8044 -0.901352 0
M  V30 12256 C 1155.96 1.86995 0.573791 0
M  V30 12257 O 1157.16 2.55065 0.930275 0
M  V30 12258 C 1155.62 3.24185 -1.56308 0
M  V30 12259 C 1155.23 3.25875 -3.07424 0
M  V30 12260 C 1156.97 4.00584 -1.40473 0
M  V30 12261 C 1154.88 4.64186 -3.66449 0
M  V30 12262 H 1153.81 0.676201 -0.333569 0
M  V30 12263 H 1156.46 1.22169 -1.3692 0
M  V30 12264 H 1154.84 3.82561 -1.0229 0
M  V30 12265 H 1156.02 2.77225 -3.6808 0
M  V30 12266 H 1154.33 2.62969 -3.22856 0
M  V30 12267 H 1156.93 5.02781 -1.81976 0
M  V30 12268 H 1157.27 4.14823 -0.350408 0
M  V30 12269 H 1157.8 3.48668 -1.91508 0
M  V30 12270 H 1154.54 4.5515 -4.71719 0
M  V30 12271 H 1154.06 5.13132 -3.10574 0
M  V30 12272 H 1155.74 5.33161 -3.66536 0
M  V30 12273 N 1155.87 0.935264 1.26849 0
M  V30 12274 C 1156.84 0.44485 2.24842 0
M  V30 12275 C 1157.84 -0.440781 1.54641 0
M  V30 12276 O 1159.03 -0.240793 1.72528 0
M  V30 12277 C 1156.16 -0.359566 3.38998 0
M  V30 12278 H 1157.35 1.31074 2.6974 0
M  V30 12279 H 1154.91 0.716665 1.38901 0
M  V30 12280 H 1155.64 -1.24396 2.99493 0
M  V30 12281 H 1155.43 0.275529 3.91131 0
M  V30 12282 H 1156.92 -0.692804 4.11813 0
M  V30 12283 N 1157.35 -1.41121 0.701616 0
M  V30 12284 C 1158.3 -2.32582 0.0288052 0
M  V30 12285 C 1159.29 -1.5129 -0.762074 0
M  V30 12286 O 1160.5 -1.67185 -0.667014 0
M  V30 12287 H 1156.88 -0.75194 -0.00948675 0
M  V30 12288 H 1158.85 -2.86994 0.817141 0
M  V30 12289 C 1157.6 -3.36137 -0.889217 0
M  V30 12290 H 1156.92 -3.98746 -0.290062 0
M  V30 12291 H 1158.36 -4.0266 -1.32819 0
M  V30 12292 C 1156.82 -2.70504 -2.00821 0
M  V30 12293 O 1157.35 -2.55753 -3.09763 0
M  V30 12294 N 1155.55 -2.29105 -1.78772 0
M  V30 12295 H 1155.1 -2.41303 -0.901708 0
M  V30 12296 H 1155.06 -1.85527 -2.53825 0
M  V30 12297 N 1158.83 -0.446794 -1.51134 0
M  V30 12298 C 1159.74 0.36579 -2.31731 0
M  V30 12299 C 1160.76 1.01886 -1.41051 0
M  V30 12300 O 1161.93 1.01216 -1.74119 0
M  V30 12301 C 1159 1.44705 -3.15058 0
M  V30 12302 C 1158.06 0.813129 -4.21529 0
M  V30 12303 C 1157.29 1.84287 -5.00873 0
M  V30 12304 O 1157.51 3.06633 -4.8097 0
M  V30 12305 O 1156.45 1.42816 -5.84711 0
M  V30 12306 H 1160.27 -0.292436 -3.02289 0
M  V30 12307 H 1157.86 -0.209129 -1.47929 0
M  V30 12308 H 1159.74 2.07393 -3.66833 0
M  V30 12309 H 1158.42 2.08919 -2.47254 0
M  V30 12310 H 1157.32 0.147953 -3.73807 0
M  V30 12311 H 1158.66 0.214331 -4.91733 0
M  V30 12312 N 1160.31 1.56586 -0.178487 0
M  V30 12313 C 1161.24 2.21313 0.744486 0
M  V30 12314 C 1162.22 1.17098 1.23377 0
M  V30 12315 O 1163.4 1.45551 1.28563 0
M  V30 12316 C 1160.53 2.8595 1.97103 0
M  V30 12317 C 1159.49 3.96266 1.61732 0
M  V30 12318 C 1158.81 4.47987 2.91911 0
M  V30 12319 C 1160.11 5.15503 0.839868 0
M  V30 12320 H 1161.81 2.98698 0.204938 0
M  V30 12321 H 1159.35 1.43672 0.0971306 0
M  V30 12322 H 1161.31 3.29909 2.6218 0
M  V30 12323 H 1160.03 2.05946 2.53484 0
M  V30 12324 H 1158.69 3.52974 0.990208 0
M  V30 12325 H 1158.34 3.64765 3.46346 0
M  V30 12326 H 1158.04 5.22413 2.68995 0
M  V30 12327 H 1159.56 4.94637 3.58004 0
M  V30 12328 H 1160.98 5.5611 1.39337 0
M  V30 12329 H 1159.37 5.95891 0.709473 0
M  V30 12330 H 1160.44 4.84628 -0.162396 0
M  V30 12331 N 1161.79 -0.095206 1.57312 0
M  V30 12332 C 1162.73 -1.11551 2.02052 0
M  V30 12333 C 1163.7 -1.39808 0.896818 0
M  V30 12334 O 1164.89 -1.51273 1.1628 0
M  V30 12335 C 1162.03 -2.43056 2.44985 0
M  V30 12336 C 1161.14 -2.21531 3.70875 0
M  V30 12337 C 1160.28 -3.46434 4.02687 0
M  V30 12338 C 1159.32 -3.2017 5.21687 0
M  V30 12339 N 1158.45 -4.37339 5.49253 0
M  V30 12340 H 1163.29 -0.727 2.88996 0
M  V30 12341 H 1160.83 -0.347441 1.42938 0
M  V30 12342 H 1162.79 -3.19803 2.67921 0
M  V30 12343 H 1161.42 -2.79754 1.61051 0
M  V30 12344 H 1160.47 -1.35587 3.55416 0
M  V30 12345 H 1161.78 -1.98116 4.57768 0
M  V30 12346 H 1160.94 -4.31589 4.26399 0
M  V30 12347 H 1159.67 -3.72904 3.14315 0
M  V30 12348 H 1158.68 -2.33409 4.97796 0
M  V30 12349 H 1159.9 -2.95047 6.11657 0
M  V30 12350 H 1157.85 -4.63885 4.6384 0
M  V30 12351 H 1157.77 -4.17114 6.30517 0
M  V30 12352 H 1159.04 -5.23559 5.775 0
M  V30 12353 N 1163.26 -1.53291 -0.366026 0
M  V30 12354 C 1164.19 -1.82675 -1.45437 0
M  V30 12355 C 1165.18 -0.680227 -1.55907 0
M  V30 12356 O 1166.36 -0.930032 -1.70482 0
M  V30 12357 C 1163.49 -2.01626 -2.8278 0
M  V30 12358 C 1162.44 -3.17391 -2.87135 0
M  V30 12359 C 1161.77 -3.21634 -4.27148 0
M  V30 12360 C 1163.07 -4.5599 -2.54697 0
M  V30 12361 H 1164.76 -2.73818 -1.21096 0
M  V30 12362 H 1162.31 -1.31754 -0.581108 0
M  V30 12363 H 1164.26 -2.20765 -3.58944 0
M  V30 12364 H 1162.99 -1.07193 -3.08508 0
M  V30 12365 H 1161.65 -2.98071 -2.13422 0
M  V30 12366 H 1161.29 -2.2484 -4.49951 0
M  V30 12367 H 1160.99 -3.99414 -4.30978 0
M  V30 12368 H 1162.52 -3.42957 -5.05186 0
M  V30 12369 H 1163.93 -4.75294 -3.20575 0
M  V30 12370 H 1162.33 -5.36008 -2.69844 0
M  V30 12371 H 1163.4 -4.61133 -1.49949 0
M  V30 12372 O 1164.78 0.512 -1.53169 0
M  V30 12373 H 1165.47 1.16699 -1.546 0
M  V30 END ATOM
M  V30 BEGIN BOND
M  V30 END BOND
M  V30 END CTAB
M  END
$$$$
