drugbank_target|Q8II92 Deoxyuridine 5'-triphosphate nucleotidohydrolase, putative (DB04685)
 OpenBabel12092120303D

  0  0  0     0  0            999 V3000
M  V30 BEGIN CTAB
M  V30 COUNTS 2758 2781 0 0 0
M  V30 BEGIN ATOM
M  V30 1 H -0.908 1.98254 -0.117106 0
M  V30 2 N 0 1.576 0 0
M  V30 3 C 0.933 2.03868 1.02534 0
M  V30 4 C 1.911 0.928543 1.3348 0
M  V30 5 O 3.095 1.19667 1.45644 0
M  V30 6 C 0.222 2.43627 2.35294 0
M  V30 7 C -0.732 3.65373 2.2001 0
M  V30 8 S 0.101 5.13292 1.52614 0
M  V30 9 C 1.257 5.56322 2.86805 0
M  V30 10 H 1.49 2.90518 0.631377 0
M  V30 11 H -0.977 1.52953 0.210867 0
M  V30 12 H 0.981 2.67203 3.11629 0
M  V30 13 H -0.358 1.57376 2.7183 0
M  V30 14 H -1.165 3.90944 3.18086 0
M  V30 15 H -1.563 3.418 1.51819 0
M  V30 16 H 0.729 5.58782 3.83104 0
M  V30 17 H 1.672 6.56266 2.65933 0
M  V30 18 H 2.08 4.83886 2.90714 0
M  V30 19 N 1.4781 -0.272755 1.55222 0
M  V30 20 C 2.4281 -1.33946 1.84506 0
M  V30 21 C 3.4121 -1.44682 0.70399 0
M  V30 22 O 4.6041 -1.48358 0.965338 0
M  V30 23 C 1.7331 -2.69968 2.12067 0
M  V30 24 C 0.8191 -2.63341 3.32434 0
M  V30 25 N 1.2101 -2.26335 4.52334 0
M  V30 26 C -0.4919 -2.94402 3.35028 0
M  V30 27 C 0.2091 -2.29705 5.34425 0
M  V30 28 N -0.8149 -2.68188 4.72838 0
M  V30 29 H 2.9871 -1.04343 2.74754 0
M  V30 30 H 0.5011 -0.481389 1.55101 0
M  V30 31 H 2.4981 -3.46916 2.31202 0
M  V30 32 H 1.1581 -3.00459 1.23103 0
M  V30 33 H 2.1691 -1.98309 4.78429 0
M  V30 34 H -1.1539 -3.29603 2.56257 0
M  V30 35 H 0.2361 -2.03653 6.40293 0
M  V30 36 N 2.9562 -1.48159 -0.537278 0
M  V30 37 C 3.8862 -1.65029 -1.6519 0
M  V30 38 C 4.8672 -0.499281 -1.62607 0
M  V30 39 O 6.0522 -0.730972 -1.79918 0
M  V30 40 C 3.1822 -1.68303 -3.03795 0
M  V30 41 C 2.1362 -2.8283 -3.21234 0
M  V30 42 C 1.4622 -2.71189 -4.60826 0
M  V30 43 C 2.7622 -4.24211 -3.04701 0
M  V30 44 H 4.4562 -2.58341 -1.51328 0
M  V30 45 H 2.0022 -1.24325 -0.726585 0
M  V30 46 H 3.9552 -1.78693 -3.81637 0
M  V30 47 H 2.6792 -0.715635 -3.18663 0
M  V30 48 H 1.3382 -2.71983 -2.45807 0
M  V30 49 H 0.9862 -1.72435 -4.7252 0
M  V30 50 H 0.6862 -3.48035 -4.7344 0
M  V30 51 H 2.2102 -2.83537 -5.40777 0
M  V30 52 H 3.6242 -4.3593 -3.72341 0
M  V30 53 H 2.0212 -5.01998 -3.28813 0
M  V30 54 H 3.0912 -4.41184 -2.01209 0
M  V30 55 N 4.4343 0.785586 -1.36625 0
M  V30 56 C 5.3813 1.89838 -1.31264 0
M  V30 57 C 6.3513 1.65115 -0.180633 0
M  V30 58 O 7.5363 1.87222 -0.36777 0
M  V30 59 C 4.6763 3.26706 -1.11163 0
M  V30 60 C 3.7893 3.63476 -2.33472 0
M  V30 61 C 2.9243 4.89481 -2.06353 0
M  V30 62 C 1.9633 5.18941 -3.24602 0
M  V30 63 N 1.1003 6.36131 -2.97123 0
M  V30 64 H 5.9403 1.93756 -2.26413 0
M  V30 65 H 3.4773 0.947454 -1.12524 0
M  V30 66 H 5.4353 4.05639 -0.975337 0
M  V30 67 H 4.0653 3.222 -0.196674 0
M  V30 68 H 3.1173 2.79636 -2.57891 0
M  V30 69 H 4.4293 3.81193 -3.21704 0
M  V30 70 H 3.5833 5.76288 -1.89675 0
M  V30 71 H 2.3223 4.73841 -1.15437 0
M  V30 72 H 1.3273 4.30615 -3.41834 0
M  V30 73 H 2.5523 5.36498 -4.16349 0
M  V30 74 H 0.4983 6.21875 -2.08823 0
M  V30 75 H 0.4153 6.54198 -3.78894 0
M  V30 76 H 1.6833 7.2591 -2.84033 0
M  V30 77 N 5.9124 1.20967 1.01018 0
M  V30 78 C 7.1614 1.01796 1.74128 0
M  V30 79 C 7.4744 -0.449691 1.90361 0
M  V30 80 O 8.6804 -0.76068 2.60626 0
M  V30 81 C 7.1364 1.7727 3.13215 0
M  V30 82 C 6.7444 3.28171 3.04972 0
M  V30 83 C 8.4884 1.66489 3.90489 0
M  V30 84 C 6.3954 3.96156 4.39107 0
M  V30 85 H 5.3254 0.377276 0.652824 0
M  V30 86 H 7.9764 1.44651 1.12909 0
M  V30 87 H 6.3584 1.27205 3.75013 0
M  V30 88 H 7.5324 3.85499 2.52443 0
M  V30 89 H 5.8474 3.39437 2.41188 0
M  V30 90 H 8.4444 2.14617 4.89738 0
M  V30 91 H 8.7874 0.6222 4.11624 0
M  V30 92 H 9.3204 2.14003 3.35332 0
M  V30 93 H 6.0594 5.00604 4.23174 0
M  V30 94 H 5.5794 3.43617 4.91617 0
M  V30 95 H 7.2584 4.00774 5.07926 0
M  V30 96 N 7.3905 -1.2043 1.01659 0
M  V30 97 C 8.6365 -1.90079 0.706963 0
M  V30 98 C 8.9695 -1.78648 -0.761474 0
M  V30 99 O 8.2445 -1.17069 -1.55323 0
M  V30 100 C 8.5275 -3.41469 1.14327 0
M  V30 101 C 8.3805 -3.61833 2.67201 0
M  V30 102 C 9.6995 -4.34261 0.714529 0
M  V30 103 H 6.8185 -0.690254 0.2583 0
M  V30 104 H 9.4605 -1.41826 1.26433 0
M  V30 105 H 7.6105 -3.82696 0.669056 0
M  V30 106 H 9.2825 -3.2986 3.22475 0
M  V30 107 H 7.5255 -3.05304 3.08175 0
M  V30 108 H 8.1965 -4.67955 2.92783 0
M  V30 109 H 10.6725 -4.00682 1.12221 0
M  V30 110 H 9.5485 -5.38806 1.04784 0
M  V30 111 H 9.8095 -4.40431 -0.383799 0
M  V30 112 N 8.8686 -0.792821 -1.36206 0
M  V30 113 C 10.1086 -0.372238 -2.00982 0
M  V30 114 C 10.4726 1.03749 -1.61555 0
M  V30 115 O 11.6736 1.55934 -2.18948 0
M  V30 116 C 9.9446 -0.534566 -3.5338 0
M  V30 117 S 11.5036 -0.202365 -4.38333 0
M  V30 118 H 8.3216 -0.142044 -0.696667 0
M  V30 119 H 10.9236 -1.03206 -1.66039 0
M  V30 120 H 9.6276 -1.5608 -3.79562 0
M  V30 121 H 9.1586 0.141065 -3.93147 0
M  V30 122 H 11.1736 0.994869 -4.86124 0
M  V30 123 N 10.3467 1.47872 -0.545128 0
M  V30 124 C 11.2767 2.32661 0.197793 0
M  V30 125 C 12.2577 1.43041 0.920504 0
M  V30 126 O 13.4427 1.71912 0.90333 0
M  V30 127 C 10.5727 3.24569 1.23582 0
M  V30 128 C 9.5267 4.23333 0.630323 0
M  V30 129 C 8.8527 5.0448 1.77211 0
M  V30 130 C 10.1527 5.20704 -0.407974 0
M  V30 131 H 11.8467 2.95024 -0.510045 0
M  V30 132 H 9.3927 1.4187 -0.246731 0
M  V30 133 H 11.3457 3.8272 1.76362 0
M  V30 134 H 10.0697 2.60236 1.97344 0
M  V30 135 H 8.7287 3.6639 0.123922 0
M  V30 136 H 8.3767 4.36561 2.49847 0
M  V30 137 H 8.0767 5.71339 1.37281 0
M  V30 138 H 9.6007 5.65487 2.3034 0
M  V30 139 H 11.0147 5.7329 0.033305 0
M  V30 140 H 9.4117 5.95699 -0.725486 0
M  V30 141 H 10.4817 4.66917 -1.30828 0
M  V30 142 N 11.8248 0.280983 1.55075 0
M  V30 143 C 13.0498 -0.340154 2.04592 0
M  V30 144 C 13.4748 -1.48246 1.15779 0
M  V30 145 O 12.8328 -1.80614 0.15761 0
M  V30 146 C 12.8808 -0.793104 3.5177 0
M  V30 147 O 11.9848 -1.89981 3.66034 0
M  V30 148 H 11.3258 -0.0694289 0.66036 0
M  V30 149 H 13.8558 0.416993 2.00306 0
M  V30 150 H 13.8658 -1.08729 3.93245 0
M  V30 151 H 12.5408 0.0426163 4.15878 0
M  V30 152 H 11.1178 -1.60771 3.36463 0
M  V30 153 N 13.3029 -1.57598 0.00835791 0
M  V30 154 C 14.5799 -1.82172 -0.712235 0
M  V30 155 C 14.9599 -0.887873 -1.9152 0
M  V30 156 O 14.3079 0.06146 -2.28417 0
M  V30 157 C 14.5179 -3.30875 -1.11008 0
M  V30 158 C 15.8659 -3.96826 -1.51044 0
M  V30 159 O 16.8899 -3.35248 -1.20364 0
M  V30 160 O 15.7489 -5.05318 -2.08125 0
M  V30 161 H 12.8429 -0.750435 -0.347529 0
M  V30 162 H 15.3889 -1.69665 0.0344523 0
M  V30 163 H 14.1609 -3.90481 -0.252982 0
M  V30 164 H 13.7839 -3.48412 -1.9156 0
M  V30 165 N 14.781 0.264519 -1.55364 0
M  V30 166 C 15.691 1.34902 -1.91934 0
M  V30 167 C 16.707 1.53595 -0.817593 0
M  V30 168 O 17.883 1.67558 -1.11742 0
M  V30 169 C 14.948 2.68676 -2.19121 0
M  V30 170 C 14.009 2.58657 -3.4263 0
M  V30 171 C 13.242 3.86051 -3.68511 0
M  V30 172 O 13.465 4.87126 -2.96757 0
M  V30 173 O 12.399 3.85744 -4.62045 0
M  V30 174 H 16.225 1.06883 -2.8427 0
M  V30 175 H 13.81 0.463775 -1.42019 0
M  V30 176 H 15.692 3.47759 -2.37995 0
M  V30 177 H 14.367 2.96463 -1.29966 0
M  V30 178 H 13.274 1.7792 -3.29082 0
M  V30 179 H 14.607 2.35818 -4.32031 0
M  V30 180 N 16.2591 1.48442 0.529413 0
M  V30 181 C 17.5051 1.5672 1.28711 0
M  V30 182 C 17.8381 0.2406 1.92704 0
M  V30 183 O 17.1131 -0.753454 1.79313 0
M  V30 184 C 17.3961 2.70587 2.37603 0
M  V30 185 C 17.2491 4.12953 1.78297 0
M  V30 186 C 18.5681 2.80212 3.39366 0
M  V30 187 H 15.6871 0.570474 0.466613 0
M  V30 188 H 18.3291 1.80617 0.589706 0
M  V30 189 H 16.4791 2.50342 2.97088 0
M  V30 190 H 18.1511 4.44639 1.22858 0
M  V30 191 H 16.3941 4.19927 1.0883 0
M  V30 192 H 17.0651 4.88448 2.57144 0
M  V30 193 H 19.5411 2.98553 2.89836 0
M  V30 194 H 18.4171 3.61611 4.12951 0
M  V30 195 H 18.6781 1.88393 3.99951 0
M  V30 196 N 17.7372 -0.778329 1.37039 0
M  V30 197 C 19.1532 -1.07796 1.17695 0
M  V30 198 C 19.3532 -2.01498 0.00860115 0
M  V30 199 O 18.4092 -2.43901 -0.653352 0
M  V30 200 C 19.7222 -1.68178 2.49272 0
M  V30 201 C 21.2702 -1.80467 2.55735 0
M  V30 202 C 21.7452 -2.44263 3.87427 0
M  V30 203 N 23.2362 -2.51721 3.88833 0
M  V30 204 C 23.9712 -3.01919 4.87476 0
M  V30 205 N 23.4672 -3.5234 5.96513 0
M  V30 206 N 25.2602 -3.00733 4.74885 0
M  V30 207 H 17.4112 -0.156032 2.11826 0
M  V30 208 H 19.6742 -0.131844 0.938787 0
M  V30 209 H 19.3802 -1.06796 3.35093 0
M  V30 210 H 19.2542 -2.67554 2.65885 0
M  V30 211 H 21.6412 -2.40984 1.70325 0
M  V30 212 H 21.7222 -0.798656 2.43013 0
M  V30 213 H 21.3662 -1.84388 4.73248 0
M  V30 214 H 21.2962 -3.45458 3.9745 0
M  V30 215 H 23.7872 -2.1603 3.10063 0
M  V30 216 H 24.1002 -3.89027 6.67741 0
M  V30 217 H 22.4452 -3.50462 6.00168 0
M  V30 218 H 25.6362 -2.60638 3.88826 0
M  V30 219 H 25.8092 -3.39545 5.51918 0
M  V30 220 N 19.2153 -1.21501 -1.00376 0
M  V30 221 C 20.1253 -0.991447 -2.12621 0
M  V30 222 C 21.1413 0.0568446 -1.73907 0
M  V30 223 O 22.3173 -0.13348 -2.00957 0
M  V30 224 C 19.3823 -0.560312 -3.42142 0
M  V30 225 C 18.4433 -1.68096 -3.95022 0
M  V30 226 C 17.6763 -1.2703 -5.18362 0
M  V30 227 O 17.8993 -0.144438 -5.70217 0
M  V30 228 O 16.8333 -2.08269 -5.64719 0
M  V30 229 H 20.6593 -1.93158 -2.34358 0
M  V30 230 H 18.2443 -0.999999 -1.10997 0
M  V30 231 H 20.1263 -0.329724 -4.20108 0
M  V30 232 H 18.8013 0.351089 -3.2179 0
M  V30 233 H 17.7083 -1.96597 -3.18278 0
M  V30 234 H 19.0413 -2.56983 -4.19786 0
M  V30 235 N 20.6934 1.19889 -1.02296 0
M  V30 236 C 21.6264 2.21639 -0.543282 0
M  V30 237 C 22.6044 1.57275 0.412698 0
M  V30 238 O 23.7884 1.85568 0.331198 0
M  V30 239 C 20.9154 3.38057 0.208571 0
M  V30 240 C 19.9614 4.20751 -0.697933 0
M  V30 241 S 20.7944 4.89529 -2.17075 0
M  V30 242 C 21.9504 6.09363 -1.42923 0
M  V30 243 H 22.1834 2.61984 -1.40541 0
M  V30 244 H 19.7164 1.30041 -0.832387 0
M  V30 245 H 21.6744 4.05539 0.63624 0
M  V30 246 H 20.3354 2.96159 1.04635 0
M  V30 247 H 19.5284 5.03862 -0.117831 0
M  V30 248 H 19.1304 3.58556 -1.06366 0
M  V30 249 H 21.4224 6.73742 -0.712637 0
M  V30 250 H 22.3654 6.71845 -2.23673 0
M  V30 251 H 22.7734 5.56798 -0.929327 0
M  V30 252 N 22.1715 0.800033 1.35784 0
M  V30 253 C 23.4015 0.389041 2.02904 0
M  V30 254 C 23.8095 -1.0027 1.60445 0
M  V30 255 O 23.1525 -1.65633 0.794453 0
M  V30 256 C 23.2145 0.385495 3.57427 0
M  V30 257 C 22.8785 1.72662 4.23127 0
M  V30 258 C 23.8755 2.68385 4.4527 0
M  V30 259 C 21.5605 2.00883 4.60381 0
M  V30 260 C 23.5545 3.90517 5.03761 0
M  V30 261 C 21.2415 3.2328 5.18588 0
M  V30 262 C 22.2395 4.17915 5.40218 0
M  V30 263 O 21.9275 5.38153 5.97199 0
M  V30 264 H 21.6595 0.157032 0.657508 0
M  V30 265 H 24.2135 1.08311 1.74522 0
M  V30 266 H 22.4435 -0.365128 3.84972 0
M  V30 267 H 24.1325 -0.00228296 4.059 0
M  V30 268 H 24.8985 2.47872 4.16874 0
M  V30 269 H 20.7775 1.28037 4.42863 0
M  V30 270 H 24.3215 4.64395 5.2056 0
M  V30 271 H 20.2185 3.43667 5.4641 0
M  V30 272 H 20.9865 5.3936 6.15656 0
M  V30 273 N 23.6496 -1.47581 0.552962 0
M  V30 274 C 24.5966 -2.29957 -0.197108 0
M  V30 275 C 25.5666 -1.38799 -0.912359 0
M  V30 276 O 26.7516 -1.67761 -0.908888 0
M  V30 277 C 23.8916 -3.22672 -1.22379 0
M  V30 278 C 23.0046 -4.28919 -0.515038 0
M  V30 279 C 22.1396 -5.0879 -1.52664 0
M  V30 280 C 21.1786 -6.06815 -0.802631 0
M  V30 281 N 20.3156 -6.7966 -1.76086 0
M  V30 282 H 25.1556 -2.93578 0.511486 0
M  V30 283 H 22.6926 -1.4471 0.264067 0
M  V30 284 H 24.6506 -3.74845 -1.83159 0
M  V30 285 H 23.2806 -2.60925 -1.90047 0
M  V30 286 H 22.3326 -3.79835 0.207192 0
M  V30 287 H 23.6446 -4.98773 0.0523425 0
M  V30 288 H 22.7986 -5.65091 -2.20809 0
M  V30 289 H 21.5376 -4.38828 -2.12794 0
M  V30 290 H 20.5426 -5.49695 -0.107238 0
M  V30 291 H 21.7676 -6.78784 -0.207135 0
M  V30 292 H 19.7136 -6.12432 -2.35081 0
M  V30 293 H 19.6306 -7.45669 -1.24552 0
M  V30 294 H 20.8986 -7.40538 -2.43359 0
M  V30 295 N 25.1277 -0.289203 -1.54924 0
M  V30 296 C 26.0757 0.607966 -2.24514 0
M  V30 297 C 27.0697 1.14655 -1.24702 0
M  V30 298 O 28.2757 1.09856 -1.4259 0
M  V30 299 H 24.6507 0.21464 -0.720718 0
M  V30 300 H 26.6217 -0.00164182 -2.984 0
M  V30 301 C 25.3707 1.77406 -2.99036 0
M  V30 302 H 24.6937 1.36884 -3.75637 0
M  V30 303 H 26.1337 2.37814 -3.51028 0
M  V30 304 C 24.5927 2.67107 -2.05318 0
M  V30 305 O 25.1227 3.6787 -1.61353 0
M  V30 306 N 23.3287 2.34582 -1.71521 0
M  V30 307 H 22.8757 1.52688 -2.07471 0
M  V30 308 H 22.8337 2.94867 -1.0909 0
M  V30 309 N 26.6058 1.57591 -0.0167156 0
M  V30 310 C 27.5558 2.05953 0.978137 0
M  V30 311 C 28.5398 0.957532 1.29306 0
M  V30 312 O 29.7318 1.22119 1.28125 0
M  V30 313 C 26.8608 2.58006 2.26468 0
M  V30 314 C 25.9468 3.75113 1.97867 0
M  V30 315 N 26.3378 4.86187 1.39486 0
M  V30 316 C 24.6358 3.83363 2.27924 0
M  V30 317 C 25.3368 5.67502 1.27735 0
M  V30 318 N 24.3128 5.14023 1.76866 0
M  V30 319 H 28.1148 2.89236 0.521522 0
M  V30 320 H 25.6288 1.61301 0.188596 0
M  V30 321 H 27.6258 2.90937 2.98599 0
M  V30 322 H 26.2858 1.76148 2.72767 0
M  V30 323 H 27.2968 5.06695 1.07147 0
M  V30 324 H 23.9738 3.1239 2.76982 0
M  V30 325 H 25.3638 6.66791 0.826978 0
M  V30 326 N 28.0839 -0.256276 1.55502 0
M  V30 327 C 29.0309 -1.31714 1.89526 0
M  V30 328 C 30.0009 -1.4828 0.748479 0
M  V30 329 O 31.1859 -1.62416 1.00128 0
M  V30 330 C 28.3259 -2.66933 2.18725 0
M  V30 331 C 27.4389 -2.58452 3.4616 0
M  V30 332 C 26.5739 -3.85961 3.64976 0
M  V30 333 C 25.6129 -3.72059 4.86044 0
M  V30 334 N 24.7499 -4.9144 5.01429 0
M  V30 335 H 29.5899 -1.01998 2.80001 0
M  V30 336 H 27.1269 -0.492413 1.38613 0
M  V30 337 H 29.0849 -3.4563 2.33657 0
M  V30 338 H 27.7149 -2.94816 1.31466 0
M  V30 339 H 26.7669 -1.71374 3.3961 0
M  V30 340 H 28.0789 -2.44085 4.34999 0
M  V30 341 H 27.2329 -4.73101 3.79816 0
M  V30 342 H 25.9719 -4.03215 2.74353 0
M  V30 343 H 24.9769 -2.83302 4.7119 0
M  V30 344 H 26.2019 -3.56309 5.78118 0
M  V30 345 H 24.1479 -5.09072 4.13741 0
M  V30 346 H 24.0649 -4.79668 5.84341 0
M  V30 347 H 25.3329 -5.80104 5.20672 0
M  V30 348 N 29.562 -1.4872 -0.521534 0
M  V30 349 C 30.79 -1.60843 -1.30142 0
M  V30 350 C 31.205 -0.271897 -1.86832 0
M  V30 351 O 30.562 0.739969 -1.66825 0
M  V30 352 C 30.613 -2.66155 -2.4463 0
M  V30 353 O 30.334 -3.94623 -1.90275 0
M  V30 354 C 31.835 -2.88795 -3.36322 0
M  V30 355 H 29.055 -0.542075 -0.395468 0
M  V30 356 H 31.599 -1.94609 -0.628285 0
M  V30 357 H 29.754 -2.35224 -3.07812 0
M  V30 358 H 30.168 -4.52468 -2.65279 0
M  V30 359 H 31.642 -3.66264 -4.12983 0
M  V30 360 H 32.119 -1.97934 -3.9207 0
M  V30 361 H 32.725 -3.21063 -2.78924 0
M  V30 362 N 31.0401 0.771051 -1.3745 0
M  V30 363 C 31.9901 1.87456 -1.29785 0
M  V30 364 C 32.9741 1.59827 -0.185541 0
M  V30 365 O 34.1661 1.71945 -0.419997 0
M  V30 366 C 31.2951 3.24935 -1.1078 0
M  V30 367 C 30.3811 3.58514 -2.26558 0
M  V30 368 N 30.7721 3.6327 -3.5195 0
M  V30 369 C 29.0701 3.88683 -2.18727 0
M  V30 370 C 29.7711 3.93616 -4.283 0
M  V30 371 N 28.7471 4.09551 -3.57448 0
M  V30 372 H 32.5491 1.89386 -2.24745 0
M  V30 373 H 30.0631 0.967531 -1.30432 0
M  V30 374 H 32.0601 4.03881 -1.03374 0
M  V30 375 H 30.7201 3.24268 -0.16738 0
M  V30 376 H 31.7311 3.45458 -3.85848 0
M  V30 377 H 28.4081 3.95834 -1.32746 0
M  V30 378 H 29.7981 4.04066 -5.36824 0
M  V30 379 N 32.5182 1.22032 0.997298 0
M  V30 380 C 33.4682 0.953838 2.07089 0
M  V30 381 C 34.4522 -0.0938669 1.60626 0
M  V30 382 O 35.6442 0.116078 1.76619 0
M  V30 383 C 32.7732 0.528726 3.39204 0
M  V30 384 C 31.8592 1.61092 3.92314 0
M  V30 385 N 32.2502 2.83768 4.18699 0
M  V30 386 C 30.5482 1.48158 4.20672 0
M  V30 387 C 31.2492 3.53715 4.61802 0
M  V30 388 N 30.2252 2.81174 4.65233 0
M  V30 389 H 34.0272 1.88577 2.25424 0
M  V30 390 H 31.5412 1.11719 1.17867 0
M  V30 391 H 33.5382 0.31915 4.15677 0
M  V30 392 H 32.1982 -0.39635 3.22272 0
M  V30 393 H 33.2092 3.20238 4.07023 0
M  V30 394 H 29.8862 0.622369 4.12835 0
M  V30 395 H 31.2762 4.58793 4.90875 0
M  V30 396 N 33.9963 -1.19345 1.0293 0
M  V30 397 C 34.9063 -2.26245 0.620515 0
M  V30 398 C 35.9223 -1.70486 -0.347928 0
M  V30 399 O 37.0983 -2.00347 -0.205704 0
M  V30 400 C 34.1633 -3.46693 -0.0218957 0
M  V30 401 C 33.2243 -4.17632 0.994102 0
M  V30 402 C 32.4573 -5.32329 0.382253 0
M  V30 403 O 32.6803 -5.64552 -0.814676 0
M  V30 404 O 31.6143 -5.91664 1.10531 0
M  V30 405 H 35.4403 -2.63453 1.51083 0
M  V30 406 H 33.0253 -1.26207 0.799513 0
M  V30 407 H 34.9073 -4.19683 -0.380072 0
M  V30 408 H 33.5823 -3.11333 -0.886209 0
M  V30 409 H 32.4893 -3.4676 1.40387 0
M  V30 410 H 33.8223 -4.56964 1.8288 0
M  V30 411 N 35.4744 -0.807222 -1.35358 0
M  V30 412 C 36.7224 -0.387122 -1.98358 0
M  V30 413 C 37.0434 1.04942 -1.64354 0
M  V30 414 O 36.3134 1.72615 -0.926339 0
M  V30 415 H 34.8934 -0.140154 -0.733734 0
M  V30 416 H 37.5554 -1.0332 -1.6526 0
M  V30 417 H 36.6514 -0.493352 -3.08176 0
M  V30 418 N 36.9525 1.47285 -0.560781 0
M  V30 419 C 38.2295 1.9558 0.0277798 0
M  V30 420 C 38.6095 1.5034 1.48192 0
M  V30 421 O 37.9575 0.743882 2.16052 0
M  V30 422 C 38.1675 3.48789 -0.121418 0
M  V30 423 C 39.5155 4.24594 0.0220912 0
M  V30 424 O 40.5395 3.56166 -0.0491439 0
M  V30 425 O 39.3985 5.46217 0.175958 0
M  V30 426 H 36.4925 0.824663 0.0621342 0
M  V30 427 H 39.0385 1.5767 -0.627556 0
M  V30 428 H 37.8105 3.74533 -1.13316 0
M  V30 429 H 37.4335 3.93473 0.571366 0
M  V30 430 N 38.4306 0.297415 1.54768 0
M  V30 431 C 39.6556 -0.318435 2.04941 0
M  V30 432 C 40.0806 -1.4701 1.17345 0
M  V30 433 O 39.4386 -1.80436 0.176758 0
M  V30 434 C 39.4866 -0.755749 3.52592 0
M  V30 435 O 38.5906 -1.86088 3.68028 0
M  V30 436 H 37.9316 -0.062421 0.661059 0
M  V30 437 H 40.4616 0.438215 1.99852 0
M  V30 438 H 40.4716 -1.04552 3.94376 0
M  V30 439 H 39.1466 0.0867233 4.1581 0
M  V30 440 H 37.7236 -1.57193 3.38149 0
M  V30 441 N 39.9087 -1.5758 0.0250728 0
M  V30 442 C 41.1567 -1.91255 -0.653151 0
M  V30 443 C 41.4777 -0.901691 -1.729 0
M  V30 444 O 40.7477 0.0573785 -1.95816 0
M  V30 445 H 39.3277 -0.705942 -0.244243 0
M  V30 446 H 41.9897 -1.94767 0.0719209 0
M  V30 447 H 41.0857 -2.91752 -1.10847 0
M  V30 448 N 41.3868 0.248026 -1.55636 0
M  V30 449 C 42.3168 1.31079 -1.93237 0
M  V30 450 C 43.2978 1.50264 -0.797174 0
M  V30 451 O 44.4828 1.62891 -1.05737 0
M  V30 452 C 41.6128 2.66575 -2.22609 0
M  V30 453 C 40.5668 2.62087 -3.3837 0
M  V30 454 C 39.8928 4.01369 -3.53281 0
M  V30 455 C 41.1928 2.19171 -4.7409 0
M  V30 456 H 42.8868 0.998556 -2.82257 0
M  V30 457 H 40.4328 0.47891 -1.35803 0
M  V30 458 H 42.3858 3.41057 -2.47503 0
M  V30 459 H 41.1098 2.99432 -1.30414 0
M  V30 460 H 39.7688 1.90063 -3.13483 0
M  V30 461 H 39.4168 4.31489 -2.58508 0
M  V30 462 H 39.1168 3.99254 -4.31127 0
M  V30 463 H 40.6408 4.77552 -3.80495 0
M  V30 464 H 42.0548 2.83384 -4.98363 0
M  V30 465 H 40.4518 2.2817 -5.5503 0
M  V30 466 H 41.5218 1.14336 -4.71227 0
M  V30 467 N 42.8649 1.48995 0.513639 0
M  V30 468 C 44.1419 1.48338 1.27495 0
M  V30 469 C 44.5219 0.204065 2.10111 0
M  V30 470 O 43.8699 -0.813881 2.13514 0
M  V30 471 C 44.0799 2.75498 2.14247 0
M  V30 472 C 45.4279 3.24484 2.73852 0
M  V30 473 O 46.4519 2.76528 2.24523 0
M  V30 474 O 45.3109 4.07974 3.6362 0
M  V30 475 H 42.4049 0.593149 0.576284 0
M  V30 476 H 44.9509 1.61246 0.528948 0
M  V30 477 H 43.7229 3.60109 1.53092 0
M  V30 478 H 43.3459 2.6539 2.96064 0
M  V30 479 N 44.343 -0.763751 1.37857 0
M  V30 480 C 45.273 -1.89103 1.36975 0
M  V30 481 C 46.254 -1.68439 0.237152 0
M  V30 482 O 47.439 -1.8918 0.438713 0
M  V30 483 C 44.569 -3.26496 1.18395 0
M  V30 484 C 43.523 -3.61741 2.28751 0
M  V30 485 C 42.849 -4.97762 1.95286 0
M  V30 486 C 44.149 -3.67665 3.70972 0
M  V30 487 H 45.843 -1.90099 2.31307 0
M  V30 488 H 43.389 -0.91319 1.11341 0
M  V30 489 H 45.342 -4.05003 1.16406 0
M  V30 490 H 44.066 -3.25955 0.205215 0
M  V30 491 H 42.725 -2.85547 2.29909 0
M  V30 492 H 42.373 -4.93769 0.959221 0
M  V30 493 H 42.073 -5.22313 2.69189 0
M  V30 494 H 43.597 -5.7866 1.94898 0
M  V30 495 H 45.011 -4.36307 3.719 0
M  V30 496 H 43.408 -4.03718 4.43995 0
M  V30 497 H 44.478 -2.68134 4.0402 0
M  V30 498 N 45.8211 -1.22559 -0.990812 0
M  V30 499 C 47.0681 -1.05141 -1.73065 0
M  V30 500 C 47.3961 0.413191 -1.9006 0
M  V30 501 O 46.6511 1.32257 -1.44245 0
M  V30 502 C 46.9501 -1.71011 -3.13831 0
M  V30 503 C 46.6161 -3.20911 -3.16745 0
M  V30 504 C 45.2781 -3.61812 -3.17247 0
M  V30 505 C 47.6301 -4.16846 -3.12872 0
M  V30 506 C 44.9581 -4.97127 -3.1158 0
M  V30 507 C 47.3101 -5.5214 -3.08746 0
M  V30 508 C 45.9741 -5.92419 -3.07565 0
M  V30 509 H 45.2441 -0.384738 -0.633291 0
M  V30 510 H 47.8911 -1.5235 -1.16025 0
M  V30 511 H 46.1961 -1.16133 -3.74193 0
M  V30 512 H 47.8931 -1.55023 -3.69823 0
M  V30 513 H 44.4831 -2.88344 -3.17105 0
M  V30 514 H 48.6671 -3.86263 -3.11632 0
M  V30 515 H 43.9231 -5.27562 -3.09012 0
M  V30 516 H 48.0971 -6.26201 -3.04705 0
M  V30 517 H 45.7241 -6.97236 -3.02929 0
M  V30 518 N 47.2992 1.18797 -1.03562 0
M  V30 519 C 48.5482 1.87978 -0.731235 0
M  V30 520 C 48.8612 1.80911 0.743671 0
M  V30 521 O 50.0672 2.45407 1.16137 0
M  V30 522 C 48.5232 3.3721 -1.25768 0
M  V30 523 C 48.1312 3.52818 -2.76085 0
M  V30 524 C 49.8752 4.11825 -1.0296 0
M  V30 525 C 47.7822 4.9598 -3.22114 0
M  V30 526 H 46.7122 0.704063 -0.269835 0
M  V30 527 H 49.3632 1.34266 -1.25079 0
M  V30 528 H 47.7452 3.90359 -0.666011 0
M  V30 529 H 48.9192 3.09965 -3.40966 0
M  V30 530 H 47.2342 2.91602 -2.97249 0
M  V30 531 H 49.8312 5.17411 -1.34869 0
M  V30 532 H 50.1742 4.16287 0.0333546 0
M  V30 533 H 50.7072 3.64833 -1.58562 0
M  V30 534 H 47.4462 4.96684 -4.27768 0
M  V30 535 H 46.9662 5.39569 -2.61965 0
M  V30 536 H 48.6452 5.6467 -3.15844 0
M  V30 537 N 48.7773 0.814389 1.34928 0
M  V30 538 C 50.0233 0.399013 1.98836 0
M  V30 539 C 50.3563 -1.03314 1.64438 0
M  V30 540 O 49.6313 -1.71811 0.911659 0
M  V30 541 C 49.9143 0.591629 3.55207 0
M  V30 542 C 49.7673 2.06928 3.99376 0
M  V30 543 C 51.0863 0.022199 4.40094 0
M  V30 544 H 48.2053 0.146451 0.722303 0
M  V30 545 H 50.8473 1.02537 1.59957 0
M  V30 546 H 48.9973 0.0584441 3.88456 0
M  V30 547 H 50.6693 2.66544 3.76499 0
M  V30 548 H 48.9123 2.56287 3.49999 0
M  V30 549 H 49.5833 2.1549 5.08201 0
M  V30 550 H 52.0593 0.477643 4.13349 0
M  V30 551 H 50.9353 0.186832 5.48582 0
M  V30 552 H 51.1963 -1.07215 4.28902 0
M  V30 553 N 50.2554 -1.46986 0.568584 0
M  V30 554 C 51.2024 -2.30153 -0.172707 0
M  V30 555 C 52.1724 -1.39759 -0.897586 0
M  V30 556 O 53.3574 -1.68716 -0.891044 0
M  V30 557 C 50.4974 -3.23952 -1.1895 0
M  V30 558 C 49.6104 -4.29441 -0.469517 0
M  V30 559 C 48.7454 -5.1038 -1.47259 0
M  V30 560 C 47.7844 -6.07632 -0.738225 0
M  V30 561 N 46.9214 -6.8149 -1.68868 0
M  V30 562 H 51.7614 -2.93019 0.542596 0
M  V30 563 H 49.2984 -1.44422 0.279401 0
M  V30 564 H 51.2564 -3.76767 -1.79173 0
M  V30 565 H 49.8864 -2.62926 -1.87269 0
M  V30 566 H 48.9384 -3.79594 0.247467 0
M  V30 567 H 50.2504 -4.98689 0.105241 0
M  V30 568 H 49.4044 -5.67402 -2.14803 0
M  V30 569 H 48.1434 -4.4106 -2.08128 0
M  V30 570 H 47.1484 -5.49778 -0.0489293 0
M  V30 571 H 48.3734 -6.78966 -0.135129 0
M  V30 572 H 46.3194 -6.14891 -2.28573 0
M  V30 573 H 46.2364 -7.46948 -1.16636 0
M  V30 574 H 47.5044 -7.43078 -2.3549 0
M  V30 575 N 51.7335 -0.305618 -1.54608 0
M  V30 576 C 53.0105 0.355652 -1.92339 0
M  V30 577 C 53.3905 1.71324 -1.23335 0
M  V30 578 O 52.7385 2.25473 -0.370702 0
M  V30 579 C 52.9485 0.46572 -3.45879 0
M  V30 580 C 54.2965 0.734426 -4.182 0
M  V30 581 O 55.3205 0.54935 -3.51938 0
M  V30 582 O 54.1795 1.09024 -5.35515 0
M  V30 583 H 51.2735 0.199666 -0.802535 0
M  V30 584 H 53.8195 -0.354017 -1.65966 0
M  V30 585 H 52.5915 -0.488461 -3.88239 0
M  V30 586 H 52.2145 1.22367 -3.78301 0
M  V30 587 N 53.2116 1.57565 -0.0334293 0
M  V30 588 C 54.1216 2.13943 0.962572 0
M  V30 589 C 55.1376 1.09276 1.35406 0
M  V30 590 O 56.3136 1.41355 1.4346 0
M  V30 591 C 53.3786 2.65887 2.22497 0
M  V30 592 C 52.4396 3.85286 1.8935 0
M  V30 593 C 51.6726 4.34743 3.09571 0
M  V30 594 O 51.8956 3.83352 4.22371 0
M  V30 595 O 50.8296 5.26538 2.91618 0
M  V30 596 H 54.6556 2.99333 0.513169 0
M  V30 597 H 52.2406 1.4822 0.18743 0
M  V30 598 H 54.1226 2.99346 2.96598 0
M  V30 599 H 52.7976 1.83578 2.6661 0
M  V30 600 H 51.7046 3.56746 1.1262 0
M  V30 601 H 53.0376 4.68771 1.5005 0
M  V30 602 N 54.6897 -0.239769 1.55765 0
M  V30 603 C 55.9357 -0.968234 1.78194 0
M  V30 604 C 56.2687 -1.84701 0.599938 0
M  V30 605 O 55.5437 -1.9031 -0.401524 0
M  V30 606 C 55.8267 -1.8227 3.10564 0
M  V30 607 C 55.6797 -0.971633 4.3918 0
M  V30 608 C 56.9987 -2.80388 3.39221 0
M  V30 609 H 54.1177 -0.350572 0.648281 0
M  V30 610 H 56.7597 -0.238259 1.885 0
M  V30 611 H 54.9097 -2.44507 3.01908 0
M  V30 612 H 56.5817 -0.367408 4.59835 0
M  V30 613 H 54.8247 -0.276276 4.32919 0
M  V30 614 H 55.4957 -1.60346 5.28198 0
M  V30 615 H 57.9717 -2.28287 3.47885 0
M  V30 616 H 56.8477 -3.3729 4.33044 0
M  V30 617 H 57.1087 -3.57212 2.60484 0
M  V30 618 N 56.1678 -1.49265 -0.50573 0
M  V30 619 C 57.0978 -1.68495 -1.61653 0
M  V30 620 C 58.0788 -0.53366 -1.61512 0
M  V30 621 O 59.2638 -0.76897 -1.78327 0
M  V30 622 C 56.3938 -1.74709 -3.00157 0
M  V30 623 C 55.3478 -2.89581 -3.15162 0
M  V30 624 C 54.6738 -2.80903 -4.5497 0
M  V30 625 C 55.9738 -4.30578 -2.95634 0
M  V30 626 H 57.6678 -2.61493 -1.45814 0
M  V30 627 H 55.2138 -1.25838 -0.70005 0
M  V30 628 H 57.1668 -1.86748 -3.77761 0
M  V30 629 H 55.8908 -0.783067 -3.17074 0
M  V30 630 H 54.5498 -2.77136 -2.39982 0
M  V30 631 H 54.1978 -1.82419 -4.68756 0
M  V30 632 H 53.8978 -3.57999 -4.65951 0
M  V30 633 H 55.4218 -2.94944 -5.34641 0
M  V30 634 H 56.8358 -4.4373 -3.63011 0
M  V30 635 H 55.2328 -5.0886 -3.18091 0
M  V30 636 H 56.3028 -4.45352 -1.91806 0
M  V30 637 N 57.6459 0.756429 -1.3826 0
M  V30 638 C 58.5929 1.87011 -1.35261 0
M  V30 639 C 59.5629 1.64695 -0.215616 0
M  V30 640 O 60.7479 1.864 -0.407399 0
M  V30 641 C 57.8879 3.24275 -1.18068 0
M  V30 642 C 57.0009 3.58442 -2.41129 0
M  V30 643 C 56.1359 4.84994 -2.16689 0
M  V30 644 C 55.1749 5.11939 -3.35537 0
M  V30 645 N 54.3119 6.29685 -3.10549 0
M  V30 646 H 59.1519 1.8891 -2.30472 0
M  V30 647 H 56.6889 0.923373 -1.14509 0
M  V30 648 H 58.6469 4.03479 -1.06116 0
M  V30 649 H 57.2769 3.21711 -0.264973 0
M  V30 650 H 56.3289 2.74103 -2.63764 0
M  V30 651 H 57.6409 3.74283 -3.29717 0
M  V30 652 H 56.7949 5.72135 -2.01857 0
M  V30 653 H 55.5339 4.71286 -1.25462 0
M  V30 654 H 54.5389 4.23268 -3.50891 0
M  V30 655 H 55.7639 5.27546 -4.27635 0
M  V30 656 H 53.7099 6.17306 -2.21967 0
M  V30 657 H 53.6269 6.46014 -3.92686 0
M  V30 658 H 54.8949 7.19722 -2.99367 0
M  V30 659 N 59.124 1.23083 0.984299 0
M  V30 660 C 60.535 1.05609 1.5396 0
M  V30 661 C 60.886 -0.377793 1.92528 0
M  V30 662 O 60.011 -1.26398 1.75649 0
M  V30 663 C 60.606 1.91087 2.7977 0
M  V30 664 C 59.165 1.77885 3.31713 0
M  V30 665 C 58.312 1.87028 2.04733 0
M  V30 666 H 61.263 1.36802 0.804419 0
M  V30 667 H 61.284 1.43336 3.5247 0
M  V30 668 H 60.796 2.9544 2.51668 0
M  V30 669 H 58.897 0.762995 3.64704 0
M  V30 670 H 59.01 2.61047 4.01735 0
M  V30 671 H 57.374 1.30565 2.18689 0
M  V30 672 H 58.157 2.92929 1.79017 0
M  V30 673 N 60.6021 -1.18246 1.0419 0
M  V30 674 C 61.5491 -2.2192 0.634037 0
M  V30 675 C 62.5191 -1.62179 -0.358765 0
M  V30 676 O 63.7041 -1.89122 -0.252466 0
M  V30 677 C 60.8441 -3.451 0.00445535 0
M  V30 678 C 59.9571 -4.19174 1.04487 0
M  V30 679 C 59.0921 -5.29813 0.383676 0
M  V30 680 C 58.1311 -5.9566 1.4091 0
M  V30 681 N 57.2681 -6.97834 0.772784 0
M  V30 682 H 62.1081 -2.56164 1.52263 0
M  V30 683 H 59.6451 -1.25843 0.761701 0
M  V30 684 H 61.6031 -4.15485 -0.377919 0
M  V30 685 H 60.2331 -3.11472 -0.847652 0
M  V30 686 H 59.2851 -3.47604 1.54518 0
M  V30 687 H 60.5971 -4.64267 1.82368 0
M  V30 688 H 59.7511 -6.06677 -0.0528366 0
M  V30 689 H 58.4901 -4.85825 -0.427208 0
M  V30 690 H 57.4951 -5.17535 1.85574 0
M  V30 691 H 58.7201 -6.4173 2.22171 0
M  V30 692 H 56.6661 -6.55998 -0.0177708 0
M  V30 693 H 56.5831 -7.41186 1.48928 0
M  V30 694 H 57.8511 -7.78665 0.36071 0
M  V30 695 N 62.0802 -0.821533 -1.34494 0
M  V30 696 C 63.3052 -0.420873 -2.03085 0
M  V30 697 C 63.7302 0.964915 -1.61465 0
M  V30 698 O 63.0882 1.62763 -0.798607 0
M  V30 699 C 63.1362 -0.529414 -3.56693 0
M  V30 700 O 62.2402 0.451302 -4.09923 0
M  V30 701 H 61.5812 -0.173489 -0.640935 0
M  V30 702 H 64.1112 -1.11157 -1.71771 0
M  V30 703 H 64.1212 -0.404671 -4.05988 0
M  V30 704 H 62.7962 -1.54014 -3.86332 0
M  V30 705 H 61.3732 0.285558 -3.71805 0
M  V30 706 N 63.5583 1.46682 -0.576371 0
M  V30 707 C 64.7863 2.06798 -0.0649635 0
M  V30 708 C 65.2013 1.42612 1.23723 0
M  V30 709 O 64.5583 0.529203 1.74659 0
M  V30 710 C 64.6093 3.6132 0.114202 0
M  V30 711 O 64.3303 4.23104 -1.13644 0
M  V30 712 C 65.8313 4.38349 0.66069 0
M  V30 713 H 63.0513 0.668778 -0.0545616 0
M  V30 714 H 65.5953 1.88404 -0.795237 0
M  V30 715 H 63.7503 3.79162 0.794673 0
M  V30 716 H 64.1643 5.15894 -0.946253 0
M  V30 717 H 65.6383 5.47081 0.73526 0
M  V30 718 H 66.1153 4.05953 1.67627 0
M  V30 719 H 66.7213 4.25297 0.0152951 0
M  V30 720 N 65.0364 0.313813 1.54444 0
M  V30 721 C 66.2644 -0.293918 2.04802 0
M  V30 722 C 66.6794 -1.46537 1.19047 0
M  V30 723 O 66.0364 -1.81182 0.218939 0
M  V30 724 C 66.0874 -0.737806 3.53891 0
M  V30 725 O 65.8084 0.387038 4.36387 0
M  V30 726 C 67.3094 -1.40936 4.203 0
M  V30 727 H 64.5294 -0.0620057 0.668129 0
M  V30 728 H 67.0734 0.457169 1.99324 0
M  V30 729 H 65.2284 -1.43889 3.59687 0
M  V30 730 H 65.6424 0.0391274 5.24485 0
M  V30 731 H 67.1164 -1.67099 5.26101 0
M  V30 732 H 67.5934 -2.35355 3.70816 0
M  V30 733 H 68.1994 -0.751117 4.18615 0
M  V30 734 N 66.5145 -1.57545 0.0417849 0
M  V30 735 C 67.7615 -1.92317 -0.634082 0
M  V30 736 C 68.0895 -0.919334 -1.71402 0
M  V30 737 O 67.3445 0.0698253 -1.95575 0
M  V30 738 C 67.6435 -3.33794 -1.27735 0
M  V30 739 C 67.3095 -4.49716 -0.326543 0
M  V30 740 C 65.9715 -4.81156 -0.0648814 0
M  V30 741 C 68.3235 -5.20182 0.325623 0
M  V30 742 C 65.6515 -5.80414 0.856539 0
M  V30 743 C 68.0035 -6.20424 1.23518 0
M  V30 744 C 66.6675 -6.50298 1.5056 0
M  V30 745 H 65.9375 -0.703736 -0.232027 0
M  V30 746 H 68.5845 -1.91205 0.106259 0
M  V30 747 H 66.8895 -3.31228 -2.09274 0
M  V30 748 H 68.5865 -3.57975 -1.80707 0
M  V30 749 H 65.1765 -4.25176 -0.540665 0
M  V30 750 H 69.3605 -4.96112 0.136546 0
M  V30 751 H 64.6165 -6.019 1.07363 0
M  V30 752 H 68.7905 -6.74141 1.74664 0
M  V30 753 H 66.4175 -7.27025 2.22123 0
M  V30 754 N 67.9926 0.231505 -1.5589 0
M  V30 755 C 69.2386 0.95877 -1.78705 0
M  V30 756 C 69.5716 1.8438 -0.609725 0
M  V30 757 O 68.8466 1.90521 0.391426 0
M  V30 758 C 69.1296 1.8062 -3.11526 0
M  V30 759 C 68.9826 0.948328 -4.39689 0
M  V30 760 C 70.3016 2.78585 -3.40703 0
M  V30 761 H 67.4206 0.347129 -0.650131 0
M  V30 762 H 70.0626 0.228259 -1.88624 0
M  V30 763 H 68.2126 2.42902 -3.03201 0
M  V30 764 H 69.8846 0.343016 -4.60023 0
M  V30 765 H 68.1276 0.253314 -4.3306 0
M  V30 766 H 68.7986 1.57543 -5.29041 0
M  V30 767 H 71.2746 2.26439 -3.49091 0
M  V30 768 H 70.1506 3.34988 -4.34826 0
M  V30 769 H 70.4116 3.55825 -2.62375 0
M  V30 770 N 69.4707 1.49531 0.497807 0
M  V30 771 C 70.4177 1.66436 1.59899 0
M  V30 772 C 71.3877 0.505793 1.58212 0
M  V30 773 O 72.5727 0.733202 1.7615 0
M  V30 774 C 69.7127 1.7399 2.98029 0
M  V30 775 C 68.8257 3.01172 3.09708 0
M  V30 776 C 67.9607 2.99686 4.38591 0
M  V30 777 C 66.9997 4.21434 4.43914 0
M  V30 778 N 66.1367 4.1784 5.64229 0
M  V30 779 H 70.9767 2.60459 1.44793 0
M  V30 780 H 68.5137 1.29137 0.704423 0
M  V30 781 H 70.4717 1.76352 3.78095 0
M  V30 782 H 69.1017 0.834301 3.11832 0
M  V30 783 H 68.1537 3.08408 2.22685 0
M  V30 784 H 69.4657 3.91165 3.09502 0
M  V30 785 H 68.6197 3.00628 5.2698 0
M  V30 786 H 67.3587 2.07477 4.41367 0
M  V30 787 H 66.3637 4.20733 3.53926 0
M  V30 788 H 67.5887 5.14839 4.42851 0
M  V30 789 H 65.5347 3.28469 5.67841 0
M  V30 790 H 65.4517 5.01571 5.65652 0
M  V30 791 H 66.7197 4.22889 6.54817 0
M  V30 792 N 70.9488 -0.749086 1.3866 0
M  V30 793 C 71.8788 -1.8764 1.38973 0
M  V30 794 C 72.8598 -1.68178 0.255004 0
M  V30 795 O 74.0448 -1.88704 0.458754 0
M  V30 796 C 71.1748 -3.25222 1.21851 0
M  V30 797 C 70.1288 -3.59295 2.32575 0
M  V30 798 C 69.4548 -4.95663 2.00555 0
M  V30 799 C 70.7548 -3.63709 3.7485 0
M  V30 800 H 72.4488 -1.87635 2.3331 0
M  V30 801 H 69.9948 -0.901329 1.12303 0
M  V30 802 H 71.9478 -4.03746 1.20695 0
M  V30 803 H 70.6718 -3.25719 0.239775 0
M  V30 804 H 69.3308 -2.83093 2.32925 0
M  V30 805 H 68.9788 -4.92724 1.01154 0
M  V30 806 H 68.6788 -5.19429 2.74714 0
M  V30 807 H 70.2028 -5.7656 2.01024 0
M  V30 808 H 71.6168 -4.32338 3.76506 0
M  V30 809 H 70.0138 -3.98986 4.48252 0
M  V30 810 H 71.0838 -2.63834 4.06841 0
M  V30 811 N 72.4269 -1.23603 -0.977757 0
M  V30 812 C 73.6749 -1.06759 -1.71601 0
M  V30 813 C 73.9959 0.395929 -1.90938 0
M  V30 814 O 73.2659 1.28356 -1.47992 0
M  V30 815 H 71.8459 -0.392062 -0.635843 0
M  V30 816 H 74.5079 -1.55362 -1.1768 0
M  V30 817 H 73.6039 -1.55763 -2.70452 0
M  V30 818 N 73.905 1.17692 -1.04816 0
M  V30 819 C 75.154 1.87192 -0.751132 0
M  V30 820 C 75.467 1.8169 0.724441 0
M  V30 821 O 76.673 2.46625 1.13527 0
M  V30 822 C 75.129 3.35857 -1.29338 0
M  V30 823 C 74.737 3.4987 -2.79812 0
M  V30 824 C 76.481 4.10709 -1.07322 0
M  V30 825 C 74.388 4.92536 -3.27356 0
M  V30 826 H 73.318 0.701162 -0.277288 0
M  V30 827 H 75.969 1.32932 -1.26496 0
M  V30 828 H 74.351 3.89631 -0.707376 0
M  V30 829 H 75.525 3.06332 -3.44235 0
M  V30 830 H 73.84 2.88433 -3.00325 0
M  V30 831 H 76.437 5.15952 -1.4035 0
M  V30 832 H 76.78 4.16299 -0.0108001 0
M  V30 833 H 77.313 3.6313 -1.62423 0
M  V30 834 H 74.052 4.92119 -4.33012 0
M  V30 835 H 73.572 5.3676 -2.67673 0
M  V30 836 H 75.251 5.61288 -3.21815 0
M  V30 837 N 75.3831 0.828654 1.34056 0
M  V30 838 C 76.3301 0.252567 2.29414 0
M  V30 839 C 77.3001 -0.62588 1.53857 0
M  V30 840 O 78.4851 -0.566312 1.82202 0
M  V30 841 C 75.6251 -0.574831 3.40279 0
M  V30 842 C 74.7381 0.326499 4.30764 0
M  V30 843 C 73.8731 -0.511016 5.28736 0
M  V30 844 C 72.9121 0.389342 6.1086 0
M  V30 845 N 72.0491 -0.409439 7.00905 0
M  V30 846 H 76.8891 1.07108 2.78086 0
M  V30 847 H 74.4261 0.539677 1.36843 0
M  V30 848 H 76.3841 -1.06992 4.03248 0
M  V30 849 H 75.0141 -1.35841 2.92826 0
M  V30 850 H 74.0661 0.939837 3.68607 0
M  V30 851 H 75.3781 1.01857 4.88289 0
M  V30 852 H 74.5321 -1.07035 5.97184 0
M  V30 853 H 73.2711 -1.23657 4.71763 0
M  V30 854 H 72.2761 0.960769 5.4134 0
M  V30 855 H 73.5011 1.1131 6.69916 0
M  V30 856 H 71.4471 -1.11856 6.46393 0
M  V30 857 H 71.3641 0.224126 7.55668 0
M  V30 858 H 72.6321 -0.951336 7.73673 0
M  V30 859 N 76.8612 -1.46375 0.584142 0
M  V30 860 C 77.8242 -2.28784 -0.138108 0
M  V30 861 C 78.8242 -1.38471 -0.817462 0
M  V30 862 O 80.0142 -1.60833 -0.669199 0
M  V30 863 C 77.1462 -3.18892 -1.20503 0
M  V30 864 H 78.3392 -2.94117 0.586127 0
M  V30 865 H 75.8922 -1.52509 0.342171 0
M  V30 866 H 76.6272 -2.58309 -1.96079 0
M  V30 867 H 76.4122 -3.85388 -0.722384 0
M  V30 868 H 77.9022 -3.80914 -1.71155 0
M  V30 869 N 78.3393 -0.321999 -1.54275 0
M  V30 870 C 79.5883 0.281931 -1.9972 0
M  V30 871 C 79.9013 1.53369 -1.21397 0
M  V30 872 O 81.1073 2.21352 -1.57211 0
M  V30 873 C 79.5633 0.5529 -3.55628 0
M  V30 874 C 79.1713 -0.681721 -4.42783 0
M  V30 875 C 80.9153 1.11687 -4.09544 0
M  V30 876 C 78.8223 -0.382742 -5.9016 0
M  V30 877 H 77.7523 0.109124 -0.746062 0
M  V30 878 H 80.4033 -0.43398 -1.78294 0
M  V30 879 H 78.7853 1.32896 -3.73035 0
M  V30 880 H 79.9593 -1.45723 -4.37151 0
M  V30 881 H 78.2743 -1.1658 -3.99748 0
M  V30 882 H 80.8713 1.35515 -5.17242 0
M  V30 883 H 81.2143 2.06575 -3.61431 0
M  V30 884 H 81.7473 0.402032 -3.95763 0
M  V30 885 H 78.4863 -1.30076 -6.42464 0
M  V30 886 H 78.0063 0.355094 -5.98748 0
M  V30 887 H 79.6853 0.00800157 -6.47 0
M  V30 888 N 79.8174 1.5752 -0.0501392 0
M  V30 889 C 80.7804 2.1037 0.909786 0
M  V30 890 C 81.7804 1.02308 1.24056 0
M  V30 891 O 82.9704 1.28385 1.17741 0
M  V30 892 C 80.1024 2.58708 2.21998 0
M  V30 893 H 81.2954 2.96479 0.451665 0
M  V30 894 H 78.8484 1.55038 0.198248 0
M  V30 895 H 79.5834 1.75989 2.72394 0
M  V30 896 H 79.3684 3.37675 1.99295 0
M  V30 897 H 80.8584 2.99747 2.9076 0
M  V30 898 N 81.2955 -0.223234 1.56011 0
M  V30 899 C 82.2255 -1.27988 1.95298 0
M  V30 900 C 83.2065 -1.48976 0.820979 0
M  V30 901 O 84.3915 -1.61188 1.08315 0
M  V30 902 C 81.5215 -2.63 2.26822 0
M  V30 903 C 80.4755 -2.56671 3.42497 0
M  V30 904 C 79.8015 -3.95697 3.59622 0
M  V30 905 C 81.1015 -2.11601 4.77517 0
M  V30 906 H 82.7955 -0.953525 2.8381 0
M  V30 907 H 80.3415 -0.457244 1.36548 0
M  V30 908 H 82.2945 -3.37077 2.52898 0
M  V30 909 H 81.0185 -2.9732 1.35161 0
M  V30 910 H 79.6775 -1.85051 3.16467 0
M  V30 911 H 79.3255 -4.27322 2.6534 0
M  V30 912 H 79.0255 -3.92345 4.37424 0
M  V30 913 H 80.5495 -4.71438 3.88044 0
M  V30 914 H 81.9635 -2.7542 5.02809 0
M  V30 915 H 80.3605 -2.19311 5.5859 0
M  V30 916 H 81.4305 -1.06824 4.72987 0
M  V30 917 N 82.7736 -1.49793 -0.48987 0
M  V30 918 C 83.7056 -1.63413 -1.60713 0
M  V30 919 C 84.7186 -0.516329 -1.54395 0
M  V30 920 O 85.9076 -0.788812 -1.60125 0
M  V30 921 C 83.0076 -1.58516 -2.99543 0
M  V30 922 C 82.1806 -2.86016 -3.30928 0
M  V30 923 C 81.2396 -2.74018 -4.49222 0
M  V30 924 O 80.2656 -3.47964 -4.50455 0
M  V30 925 N 81.4676 -1.86309 -5.4979 0
M  V30 926 H 84.2326 -2.59777 -1.49452 0
M  V30 927 H 81.7936 -1.47022 -0.677955 0
M  V30 928 H 83.7856 -1.48128 -3.76617 0
M  V30 929 H 82.3556 -0.69965 -3.0467 0
M  V30 930 H 81.5756 -3.10672 -2.42645 0
M  V30 931 H 82.8636 -3.70521 -3.487 0
M  V30 932 H 82.2616 -1.2551 -5.51601 0
M  V30 933 H 80.8186 -1.81837 -6.25922 0
M  V30 934 N 84.2517 0.741722 -1.39055 0
M  V30 935 C 85.4817 1.52876 -1.3897 0
M  V30 936 C 85.8897 1.8919 0.0193266 0
M  V30 937 O 85.2327 1.54138 0.999356 0
M  V30 938 C 85.2947 2.84929 -2.19216 0
M  V30 939 C 84.9587 2.71086 -3.67915 0
M  V30 940 C 85.9557 2.40084 -4.61146 0
M  V30 941 C 83.6407 2.88168 -4.11418 0
M  V30 942 C 85.6347 2.26335 -5.95862 0
M  V30 943 C 83.3217 2.74037 -5.46211 0
M  V30 944 C 84.3197 2.43166 -6.38247 0
M  V30 945 O 84.0077 2.29115 -7.70559 0
M  V30 946 H 83.7397 0.479252 -0.476753 0
M  V30 947 H 86.2937 0.924751 -1.83405 0
M  V30 948 H 84.5237 3.47564 -1.69518 0
M  V30 949 H 86.2127 3.46509 -2.11392 0
M  V30 950 H 86.9787 2.26545 -4.28838 0
M  V30 951 H 82.8577 3.11191 -3.40119 0
M  V30 952 H 86.4017 2.0216 -6.67665 0
M  V30 953 H 82.2987 2.87153 -5.78112 0
M  V30 954 H 83.0667 2.44237 -7.81211 0
M  V30 955 N 85.7298 1.2412 0.971189 0
M  V30 956 C 86.6768 1.0305 2.06517 0
M  V30 957 C 87.6468 -0.0550666 1.66009 0
M  V30 958 O 88.8318 0.0988688 1.90544 0
M  V30 959 C 85.9718 0.637653 3.39158 0
M  V30 960 C 85.0848 1.79633 3.92882 0
M  V30 961 C 84.2198 1.34939 5.13775 0
M  V30 962 C 83.2588 2.47823 5.59687 0
M  V30 963 N 82.3958 2.04022 6.71803 0
M  V30 964 H 87.2358 1.96685 2.23873 0
M  V30 965 H 84.7728 0.979694 1.09729 0
M  V30 966 H 86.7308 0.390931 4.15364 0
M  V30 967 H 85.3608 -0.261693 3.21737 0
M  V30 968 H 84.4128 2.15681 3.13346 0
M  V30 969 H 85.7248 2.64466 4.22918 0
M  V30 970 H 84.8788 1.06134 5.97345 0
M  V30 971 H 83.6178 0.471557 4.85415 0
M  V30 972 H 82.6228 2.77392 4.74693 0
M  V30 973 H 83.8478 3.36158 5.90063 0
M  V30 974 H 81.7938 1.18632 6.45184 0
M  V30 975 H 81.7108 2.82409 7.01271 0
M  V30 976 H 82.9788 1.78347 7.58823 0
M  V30 977 N 87.2079 -1.17134 1.05439 0
M  V30 978 C 88.4329 -1.91913 0.786396 0
M  V30 979 C 88.8579 -1.7643 -0.652234 0
M  V30 980 O 88.2159 -1.08372 -1.45345 0
M  V30 981 C 88.2639 -3.40921 1.17497 0
M  V30 982 O 87.3679 -4.11244 0.308589 0
M  V30 983 H 86.7089 -0.598215 0.288158 0
M  V30 984 H 89.2389 -1.48457 1.4079 0
M  V30 985 H 89.2489 -3.91668 1.14281 0
M  V30 986 H 87.9239 -3.5151 2.22292 0
M  V30 987 H 86.5009 -3.70731 0.40157 0
M  V30 988 N 88.686 -0.835752 -1.33615 0
M  V30 989 C 89.634 -0.255238 -2.31195 0
M  V30 990 C 90.628 0.61107 -1.57995 0
M  V30 991 O 91.834 0.500979 -1.72888 0
M  V30 992 H 88.209 -0.0638085 -0.749288 0
M  V30 993 H 90.18 -1.09283 -2.77669 0
M  V30 994 C 88.929 0.55754 -3.43201 0
M  V30 995 H 88.252 -0.0997553 -3.99676 0
M  V30 996 H 89.692 0.929622 -4.13683 0
M  V30 997 C 88.151 1.73515 -2.88781 0
M  V30 998 O 88.681 2.83376 -2.84712 0
M  V30 999 N 86.887 1.55603 -2.4543 0
M  V30 1000 H 86.434 0.662354 -2.48939 0
M  V30 1001 H 86.392 2.34545 -2.09371 0
M  V30 1002 N 90.1641 1.46063 -0.591896 0
M  V30 1003 C 91.3941 2.06418 -0.0867676 0
M  V30 1004 C 91.8021 1.43975 1.22751 0
M  V30 1005 O 91.1451 0.542531 1.75506 0
M  V30 1006 C 91.2071 3.59213 0.143725 0
M  V30 1007 C 90.8711 4.439 -1.08635 0
M  V30 1008 C 91.8681 4.79864 -2.00067 0
M  V30 1009 C 89.5531 4.84896 -1.31077 0
M  V30 1010 C 91.5471 5.55661 -3.12282 0
M  V30 1011 C 89.2341 5.6045 -2.43596 0
M  V30 1012 C 90.2321 5.95747 -3.34027 0
M  V30 1013 O 89.9201 6.69772 -4.4459 0
M  V30 1014 H 89.6521 0.673443 -0.0587447 0
M  V30 1015 H 92.2061 1.88539 -0.814994 0
M  V30 1016 H 90.4361 3.75433 0.926668 0
M  V30 1017 H 92.1251 4.01463 0.5985 0
M  V30 1018 H 92.8911 4.48763 -1.83947 0
M  V30 1019 H 88.7701 4.56867 -0.61594 0
M  V30 1020 H 92.3141 5.8313 -3.82891 0
M  V30 1021 H 88.2111 5.90965 -2.59674 0
M  V30 1022 H 88.9791 6.88207 -4.43073 0
M  V30 1023 N 91.6422 0.330177 1.54103 0
M  V30 1024 C 92.8722 -0.271784 2.04805 0
M  V30 1025 C 93.2802 -1.45816 1.20559 0
M  V30 1026 O 92.6232 -1.82247 0.2306 0
M  V30 1027 C 92.6852 -0.763238 3.51305 0
M  V30 1028 C 92.3492 0.301705 4.56003 0
M  V30 1029 C 93.3462 1.13999 5.07248 0
M  V30 1030 C 91.0312 0.451793 5.00264 0
M  V30 1031 C 93.0252 2.11402 6.01322 0
M  V30 1032 C 90.7122 1.42924 5.94151 0
M  V30 1033 C 91.7102 2.25882 6.44567 0
M  V30 1034 O 91.3982 3.21965 7.3661 0
M  V30 1035 H 91.1302 -0.058693 0.673447 0
M  V30 1036 H 93.6842 0.476395 1.99799 0
M  V30 1037 H 91.9142 -1.56244 3.5373 0
M  V30 1038 H 93.6032 -1.28427 3.85047 0
M  V30 1039 H 94.3692 1.03505 4.73827 0
M  V30 1040 H 90.2482 -0.184044 4.60632 0
M  V30 1041 H 93.7922 2.76192 6.40596 0
M  V30 1042 H 89.6892 1.53479 6.26988 0
M  V30 1043 H 90.4572 3.17281 7.54503 0
M  V30 1044 N 93.1203 -1.57491 0.0584922 0
M  V30 1045 C 94.3503 -1.9701 -0.622134 0
M  V30 1046 C 94.7583 -0.935034 -1.6448 0
M  V30 1047 O 94.1013 0.0882904 -1.83488 0
M  V30 1048 C 94.1633 -3.32794 -1.35972 0
M  V30 1049 C 93.8273 -4.54343 -0.492043 0
M  V30 1050 C 94.8243 -5.19323 0.244901 0
M  V30 1051 C 92.5093 -5.00534 -0.420821 0
M  V30 1052 C 94.5033 -6.28835 1.04143 0
M  V30 1053 C 92.1903 -6.09921 0.379389 0
M  V30 1054 C 93.1883 -6.73933 1.10919 0
M  V30 1055 O 92.8763 -7.81216 1.89623 0
M  V30 1056 H 92.6083 -0.653127 -0.174359 0
M  V30 1057 H 95.1623 -2.05029 0.123418 0
M  V30 1058 H 93.3923 -3.21351 -2.15105 0
M  V30 1059 H 95.0813 -3.5701 -1.93129 0
M  V30 1060 H 95.8473 -4.8459 0.19939 0
M  V30 1061 H 91.7263 -4.50496 -0.978474 0
M  V30 1062 H 95.2703 -6.7873 1.61157 0
M  V30 1063 H 91.1673 -6.44089 0.426512 0
M  V30 1064 H 91.9353 -7.98029 1.81913 0
M  V30 1065 N 94.5984 0.214957 -1.56127 0
M  V30 1066 C 95.5454 1.26642 -1.92952 0
M  V30 1067 C 96.5154 1.46244 -0.78753 0
M  V30 1068 O 97.7004 1.59704 -1.04399 0
M  V30 1069 C 94.8404 2.6104 -2.25726 0
M  V30 1070 C 93.9534 2.49183 -3.52891 0
M  V30 1071 C 93.0884 3.76149 -3.7508 0
M  V30 1072 C 92.1274 3.59041 -4.95738 0
M  V30 1073 N 91.2644 4.77972 -5.14283 0
M  V30 1074 H 96.1044 0.945384 -2.82607 0
M  V30 1075 H 93.6414 0.455489 -1.3987 0
M  V30 1076 H 95.5994 3.39313 -2.42739 0
M  V30 1077 H 94.2294 2.91227 -1.39236 0
M  V30 1078 H 93.2814 1.6231 -3.44034 0
M  V30 1079 H 94.5934 2.32466 -4.41318 0
M  V30 1080 H 93.7474 4.62865 -3.92226 0
M  V30 1081 H 92.4864 3.95799 -2.84947 0
M  V30 1082 H 91.4914 2.7071 -4.78535 0
M  V30 1083 H 92.7164 3.40856 -5.87362 0
M  V30 1084 H 90.6624 4.97923 -4.27093 0
M  V30 1085 H 90.5794 4.64006 -5.96853 0
M  V30 1086 H 91.8474 5.66096 -5.35869 0
M  V30 1087 N 96.0765 1.50051 0.48192 0
M  V30 1088 C 97.3165 1.62128 1.24474 0
M  V30 1089 C 97.6805 0.309742 1.89485 0
M  V30 1090 O 98.8815 0.305854 2.67054 0
M  V30 1091 C 97.1525 2.76151 2.26882 0
M  V30 1092 S 98.7115 3.08297 3.12247 0
M  V30 1093 H 95.5295 0.571661 0.422759 0
M  V30 1094 H 98.1315 1.87791 0.54359 0
M  V30 1095 H 96.8355 3.69942 1.77683 0
M  V30 1096 H 96.3665 2.52541 3.0164 0
M  V30 1097 H 98.3815 2.51287 4.27866 0
M  V30 1098 N 97.5546 -0.734337 1.39446 0
M  V30 1099 C 98.4646 -1.87879 1.40495 0
M  V30 1100 C 99.4806 -1.714 0.299672 0
M  V30 1101 O 100.657 -1.93991 0.541249 0
M  V30 1102 C 97.7216 -3.23477 1.24754 0
M  V30 1103 C 96.7826 -3.52344 2.45259 0
M  V30 1104 C 96.0156 -4.81473 2.30259 0
M  V30 1105 O 96.2386 -5.55237 1.30643 0
M  V30 1106 O 95.1726 -5.10254 3.19256 0
M  V30 1107 H 98.9986 -1.89949 2.36966 0
M  V30 1108 H 96.5836 -0.882243 1.20569 0
M  V30 1109 H 98.4656 -4.04509 1.18111 0
M  V30 1110 H 97.1406 -3.22176 0.313781 0
M  V30 1111 H 96.0476 -2.71396 2.57478 0
M  V30 1112 H 97.3806 -3.58426 3.37331 0
M  V30 1113 N 99.0327 -1.24633 -0.964593 0
M  V30 1114 C 99.9797 -1.04144 -2.05968 0
M  V30 1115 C 100.95 0.046262 -1.66036 0
M  V30 1116 O 102.135 -0.108972 -1.90489 0
M  V30 1117 C 99.2747 -0.65563 -3.38815 0
M  V30 1118 C 98.3877 -1.81714 -3.91923 0
M  V30 1119 C 97.5227 -1.37662 -5.13052 0
M  V30 1120 C 96.5617 -2.50788 -5.58365 0
M  V30 1121 N 95.6987 -2.07582 -6.70712 0
M  V30 1122 H 100.539 -1.9787 -2.22827 0
M  V30 1123 H 98.0757 -0.9855 -1.09208 0
M  V30 1124 H 100.034 -0.412954 -4.15151 0
M  V30 1125 H 98.6637 0.244627 -3.21872 0
M  V30 1126 H 97.7157 -2.1734 -3.12198 0
M  V30 1127 H 99.0277 -2.66705 -4.21509 0
M  V30 1128 H 98.1817 -1.093 -5.96773 0
M  V30 1129 H 96.9207 -0.497293 -4.85158 0
M  V30 1130 H 95.9257 -2.79906 -4.73215 0
M  V30 1131 H 97.1507 -3.39283 -5.88272 0
M  V30 1132 H 95.0967 -1.22051 -6.44546 0
M  V30 1133 H 95.0137 -2.86125 -6.99763 0
M  V30 1134 H 96.2817 -1.82369 -7.57867 0
M  V30 1135 N 100.511 1.16574 -1.06058 0
M  V30 1136 C 101.736 1.91493 -0.796562 0
M  V30 1137 C 102.161 1.76773 0.642868 0
M  V30 1138 O 101.519 1.09142 1.44768 0
M  V30 1139 C 101.567 3.40293 -1.19303 0
M  V30 1140 O 100.671 4.11074 -0.330394 0
M  V30 1141 H 100.012 0.596678 -0.291326 0
M  V30 1142 H 102.542 1.47708 -1.41575 0
M  V30 1143 H 102.552 3.91057 -1.16356 0
M  V30 1144 H 101.227 3.50326 -2.24153 0
M  V30 1145 H 99.8038 3.70513 -0.421225 0
M  V30 1146 N 101.989 0.842826 1.3317 0
M  V30 1147 C 102.899 0.281444 2.32906 0
M  V30 1148 C 103.915 -0.594587 1.63526 0
M  V30 1149 O 105.091 -0.49777 1.95152 0
M  V30 1150 C 102.156 -0.530929 3.42611 0
M  V30 1151 C 101.217 0.369843 4.27704 0
M  V30 1152 C 100.45 -0.403853 5.3217 0
M  V30 1153 O 100.673 -1.63513 5.46461 0
M  V30 1154 O 99.6069 0.224199 6.01482 0
M  V30 1155 H 103.433 1.10744 2.82789 0
M  V30 1156 H 101.018 0.60545 1.36582 0
M  V30 1157 H 102.9 -0.992437 4.09547 0
M  V30 1158 H 101.575 -1.33392 2.94938 0
M  V30 1159 H 100.482 0.879275 3.6362 0
M  V30 1160 H 101.815 1.13771 4.78871 0
M  V30 1161 N 103.467 -1.45747 0.599634 0
M  V30 1162 C 104.415 -2.322 -0.136426 0
M  V30 1163 C 105.409 -1.45497 -0.867583 0
M  V30 1164 O 106.615 -1.62027 -0.78405 0
M  V30 1165 H 102.99 -0.749368 -0.0628588 0
M  V30 1166 H 104.961 -2.92072 0.611281 0
M  V30 1167 C 103.71 -3.28974 -1.12567 0
M  V30 1168 H 103.033 -3.9568 -0.572484 0
M  V30 1169 H 104.473 -3.92212 -1.61077 0
M  V30 1170 C 102.932 -2.55561 -2.19523 0
M  V30 1171 O 103.462 -2.33111 -3.27143 0
M  V30 1172 N 101.668 -2.15832 -1.94589 0
M  V30 1173 H 101.215 -2.3429 -1.07078 0
M  V30 1174 H 101.173 -1.67034 -2.66359 0
M  V30 1175 N 104.945 -0.338344 -1.53925 0
M  V30 1176 C 105.892 0.520845 -2.24846 0
M  V30 1177 C 106.862 1.09976 -1.24477 0
M  V30 1178 O 108.047 1.13735 -1.53196 0
M  V30 1179 C 105.187 1.6685 -3.02084 0
M  V30 1180 C 104.3 1.11739 -4.17299 0
M  V30 1181 C 103.435 2.23193 -4.82036 0
M  V30 1182 C 102.474 1.65407 -5.89328 0
M  V30 1183 N 101.611 2.70582 -6.47866 0
M  V30 1184 H 106.451 -0.0904881 -2.97863 0
M  V30 1185 H 103.988 -0.0564282 -1.46992 0
M  V30 1186 H 105.946 2.34407 -3.45122 0
M  V30 1187 H 104.576 2.2509 -2.31375 0
M  V30 1188 H 103.628 0.332919 -3.7894 0
M  V30 1189 H 104.94 0.654677 -4.94485 0
M  V30 1190 H 104.094 2.98626 -5.28117 0
M  V30 1191 H 102.833 2.72807 -4.04262 0
M  V30 1192 H 101.838 0.884779 -5.42634 0
M  V30 1193 H 103.063 1.16652 -6.69006 0
M  V30 1194 H 101.009 3.1946 -5.72959 0
M  V30 1195 H 100.926 2.28917 -7.20509 0
M  V30 1196 H 102.194 3.45799 -6.98601 0
M  V30 1197 N 106.423 1.57458 -0.0668435 0
M  V30 1198 C 107.37 2.12439 0.902122 0
M  V30 1199 C 108.34 1.03565 1.2986 0
M  V30 1200 O 109.525 1.312 1.38532 0
M  V30 1201 C 106.665 2.6865 2.16614 0
M  V30 1202 C 105.778 3.91663 1.82274 0
M  V30 1203 C 104.913 4.36134 3.0325 0
M  V30 1204 C 103.952 5.51808 2.64904 0
M  V30 1205 N 103.089 5.9126 3.78624 0
M  V30 1206 H 107.929 2.94934 0.426382 0
M  V30 1207 H 105.466 1.4575 0.198819 0
M  V30 1208 H 107.424 2.99346 2.90599 0
M  V30 1209 H 106.054 1.88928 2.61737 0
M  V30 1210 H 105.106 3.6746 0.983719 0
M  V30 1211 H 106.418 4.75693 1.50059 0
M  V30 1212 H 105.572 4.68465 3.85519 0
M  V30 1213 H 104.311 3.50948 3.38655 0
M  V30 1214 H 103.316 5.19133 1.81055 0
M  V30 1215 H 104.541 6.38722 2.30675 0
M  V30 1216 H 102.487 5.09024 4.138 0
M  V30 1217 H 102.404 6.70018 3.5016 0
M  V30 1218 H 103.672 6.28212 4.61486 0
M  V30 1219 N 107.901 -0.206675 1.56239 0
M  V30 1220 C 108.848 -1.25617 1.93621 0
M  V30 1221 C 109.818 -1.45824 0.795274 0
M  V30 1222 O 111.003 -1.59148 1.05245 0
M  V30 1223 C 108.143 -2.59839 2.27107 0
M  V30 1224 C 107.256 -2.47308 3.54207 0
M  V30 1225 C 106.391 -3.74155 3.7707 0
M  V30 1226 C 105.43 -3.56407 4.97635 0
M  V30 1227 N 104.567 -4.75238 5.1681 0
M  V30 1228 H 109.407 -0.930383 2.83104 0
M  V30 1229 H 106.944 -0.448065 1.4011 0
M  V30 1230 H 108.902 -3.38021 2.44535 0
M  V30 1231 H 107.532 -2.90485 1.40778 0
M  V30 1232 H 106.584 -1.60483 3.4489 0
M  V30 1233 H 107.896 -2.30122 4.42544 0
M  V30 1234 H 107.05 -4.60778 3.94675 0
M  V30 1235 H 105.789 -3.94282 2.87042 0
M  V30 1236 H 104.794 -2.68168 4.79964 0
M  V30 1237 H 106.019 -3.37736 5.89161 0
M  V30 1238 H 103.965 -4.95651 4.29728 0
M  V30 1239 H 103.882 -4.60835 5.99306 0
M  V30 1240 H 105.15 -5.63246 5.38864 0
M  V30 1241 N 109.379 -1.50304 -0.473955 0
M  V30 1242 C 110.656 -1.51667 -1.23518 0
M  V30 1243 C 111.036 -0.259701 -2.09496 0
M  V30 1244 O 110.384 0.756986 -2.15597 0
M  V30 1245 C 110.594 -2.81082 -2.06868 0
M  V30 1246 C 111.942 -3.31631 -2.65153 0
M  V30 1247 O 112.966 -2.82384 -2.17113 0
M  V30 1248 O 111.825 -4.17471 -3.52675 0
M  V30 1249 H 108.919 -0.60822 -0.560355 0
M  V30 1250 H 111.465 -1.62592 -0.486011 0
M  V30 1251 H 110.237 -3.64041 -1.4349 0
M  V30 1252 H 109.86 -2.73146 -2.88924 0
M  V30 1253 N 110.857 0.726932 -1.39834 0
M  V30 1254 C 112.134 1.47902 -1.28001 0
M  V30 1255 C 112.514 2.1083 0.106789 0
M  V30 1256 O 111.862 1.99242 1.11869 0
M  V30 1257 C 112.072 2.52392 -2.41038 0
M  V30 1258 C 113.42 3.18546 -2.80737 0
M  V30 1259 O 114.444 2.62708 -2.40547 0
M  V30 1260 O 113.303 4.19604 -3.50135 0
M  V30 1261 H 110.397 0.657163 -0.502062 0
M  V30 1262 H 112.943 0.760071 -1.51727 0
M  V30 1263 H 111.715 2.04329 -3.33715 0
M  V30 1264 H 111.338 3.31837 -2.19021 0
M  V30 1265 N 112.336 1.25143 0.95797 0
M  V30 1266 C 113.613 1.00472 1.67823 0
M  V30 1267 C 113.993 -0.470056 2.058 0
M  V30 1268 O 113.341 -1.44663 1.76875 0
M  V30 1269 C 113.551 1.9372 2.90299 0
M  V30 1270 C 114.899 2.21371 3.62326 0
M  V30 1271 O 115.923 1.91451 3.00375 0
M  V30 1272 O 114.782 2.72231 4.7387 0
M  V30 1273 H 111.876 0.380752 0.734137 0
M  V30 1274 H 114.422 1.36283 1.01119 0
M  V30 1275 H 113.194 2.93316 2.59001 0
M  V30 1276 H 112.817 1.58286 3.64735 0
M  V30 1277 N 113.814 -1.1601 1.06675 0
M  V30 1278 C 114.761 -2.20525 0.680967 0
M  V30 1279 C 115.731 -1.62904 -0.324283 0
M  V30 1280 O 116.916 -1.89615 -0.212294 0
M  V30 1281 C 114.056 -3.45013 0.0776551 0
M  V30 1282 C 113.169 -4.16863 1.13355 0
M  V30 1283 C 112.304 -5.2888 0.49597 0
M  V30 1284 C 111.343 -5.92537 1.53513 0
M  V30 1285 N 110.48 -6.96038 0.920631 0
M  V30 1286 H 115.32 -2.52876 1.57663 0
M  V30 1287 H 112.857 -1.24199 0.788223 0
M  V30 1288 H 114.815 -4.16193 -0.289704 0
M  V30 1289 H 113.445 -3.132 -0.781393 0
M  V30 1290 H 112.497 -3.44248 1.61857 0
M  V30 1291 H 113.809 -4.60294 1.92174 0
M  V30 1292 H 112.963 -6.06653 0.0758604 0
M  V30 1293 H 111.702 -4.86622 -0.324062 0
M  V30 1294 H 110.707 -5.13482 1.9651 0
M  V30 1295 H 111.932 -6.36873 2.35733 0
M  V30 1296 H 109.878 -6.55888 0.12138 0
M  V30 1297 H 109.795 -7.3786 1.64616 0
M  V30 1298 H 111.063 -7.77725 0.525795 0
M  V30 1299 N 115.292 -0.849877 -1.32721 0
M  V30 1300 C 116.517 -0.463856 -2.02146 0
M  V30 1301 C 116.942 0.930449 -1.63476 0
M  V30 1302 O 116.3 1.61033 -0.832952 0
M  V30 1303 C 116.348 -0.604955 -3.55489 0
M  V30 1304 O 115.452 0.36425 -4.10788 0
M  V30 1305 H 114.793 -0.187046 -0.637111 0
M  V30 1306 H 117.323 -1.14775 -1.69375 0
M  V30 1307 H 117.333 -0.490696 -4.05038 0
M  V30 1308 H 116.008 -1.62174 -3.82978 0
M  V30 1309 H 114.585 0.206628 -3.72327 0
M  V30 1310 N 116.77 1.45427 -0.607355 0
M  V30 1311 C 117.718 2.32269 0.12411 0
M  V30 1312 C 118.712 1.45955 0.859854 0
M  V30 1313 O 119.918 1.6244 0.775447 0
M  V30 1314 H 116.293 0.749691 0.0588839 0
M  V30 1315 H 118.264 2.91743 -0.626762 0
M  V30 1316 C 117.013 3.29567 1.1082 0
M  V30 1317 H 116.336 3.95978 0.551492 0
M  V30 1318 H 117.776 3.93061 1.58995 0
M  V30 1319 C 116.235 2.56722 2.18164 0
M  V30 1320 O 116.765 2.34842 3.25902 0
M  V30 1321 N 114.971 2.16861 1.93442 0
M  V30 1322 H 114.518 2.34855 1.05834 0
M  V30 1323 H 114.476 1.68444 2.65469 0
M  V30 1324 N 118.248 0.346503 1.53744 0
M  V30 1325 C 119.497 -0.250122 2.00143 0
M  V30 1326 C 119.81 -1.51418 1.23822 0
M  V30 1327 O 121.016 -2.18823 1.60713 0
M  V30 1328 C 119.472 -0.496252 3.56462 0
M  V30 1329 C 119.08 0.752077 4.41642 0
M  V30 1330 C 120.824 -1.05157 4.11269 0
M  V30 1331 C 118.731 0.476583 5.89477 0
M  V30 1332 H 117.661 -0.0972409 0.747703 0
M  V30 1333 H 120.312 0.46229 1.77581 0
M  V30 1334 H 118.694 -1.26944 3.75102 0
M  V30 1335 H 119.868 1.5266 4.34778 0
M  V30 1336 H 118.183 1.22925 3.97842 0
M  V30 1337 H 120.78 -1.27269 5.19333 0
M  V30 1338 H 121.123 -2.00799 3.64672 0
M  V30 1339 H 121.656 -0.339019 3.96353 0
M  V30 1340 H 118.395 1.4028 6.40314 0
M  V30 1341 H 117.915 -0.259794 5.99237 0
M  V30 1342 H 119.594 0.0949315 6.4693 0
M  V30 1343 N 119.726 -1.57421 0.075193 0
M  V30 1344 C 120.972 -1.93905 -0.594025 0
M  V30 1345 C 121.305 -0.955701 -1.69056 0
M  V30 1346 O 120.58 0.0145373 -1.94495 0
M  V30 1347 C 120.863 -3.40638 -1.1678 0
M  V30 1348 C 120.716 -4.49733 -0.0776792 0
M  V30 1349 C 122.035 -3.88259 -2.07228 0
M  V30 1350 H 119.154 -0.705105 -0.214466 0
M  V30 1351 H 121.796 -1.8947 0.141854 0
M  V30 1352 H 119.946 -3.44549 -1.79494 0
M  V30 1353 H 121.618 -4.57942 0.555573 0
M  V30 1354 H 119.861 -4.29751 0.591286 0
M  V30 1355 H 120.532 -5.49549 -0.519603 0
M  V30 1356 H 123.008 -3.86376 -1.54445 0
M  V30 1357 H 121.884 -4.91533 -2.44308 0
M  V30 1358 H 122.145 -3.26396 -2.98191 0
M  V30 1359 N 121.204 0.198386 -1.56346 0
M  V30 1360 C 122.152 1.26538 -1.95169 0
M  V30 1361 C 123.146 1.47295 -0.836685 0
M  V30 1362 O 124.352 1.48195 -1.02167 0
M  V30 1363 H 120.727 0.424744 -0.620561 0
M  V30 1364 H 122.698 0.910904 -2.84157 0
M  V30 1365 C 121.447 2.6035 -2.30463 0
M  V30 1366 H 120.77 2.45192 -3.15786 0
M  V30 1367 H 122.21 3.33762 -2.61494 0
M  V30 1368 C 120.669 3.17096 -1.13806 0
M  V30 1369 O 121.199 3.99588 -0.41135 0
M  V30 1370 N 119.405 2.75795 -0.915736 0
M  V30 1371 H 118.952 2.08816 -1.50843 0
M  V30 1372 H 118.91 3.14101 -0.136979 0
M  V30 1373 N 122.682 1.50554 0.465978 0
M  V30 1374 C 123.91 1.65563 1.24083 0
M  V30 1375 C 124.325 0.341051 1.85694 0
M  V30 1376 O 123.682 -0.677543 1.69457 0
M  V30 1377 C 123.733 2.75051 2.34583 0
M  V30 1378 O 123.454 4.01413 1.75497 0
M  V30 1379 C 124.955 3.01078 3.25372 0
M  V30 1380 H 122.175 0.55638 0.375077 0
M  V30 1381 H 124.719 1.96807 0.555624 0
M  V30 1382 H 122.874 2.46486 2.9887 0
M  V30 1383 H 123.288 4.62002 2.48303 0
M  V30 1384 H 124.762 3.81339 3.99105 0
M  V30 1385 H 125.239 2.12349 3.84453 0
M  V30 1386 H 125.845 3.31194 2.66816 0
M  V30 1387 N 124.16 -0.719506 1.40217 0
M  V30 1388 C 125.385 -1.51371 1.4178 0
M  V30 1389 C 125.81 -1.88091 0.0182355 0
M  V30 1390 O 125.168 -1.52997 -0.972707 0
M  V30 1391 C 125.216 -2.768 2.31115 0
M  V30 1392 O 124.32 -3.73349 1.7517 0
M  V30 1393 H 123.661 -0.456529 0.482159 0
M  V30 1394 H 126.191 -0.88644 1.844 0
M  V30 1395 H 126.201 -3.25371 2.46167 0
M  V30 1396 H 124.876 -2.49407 3.3282 0
M  V30 1397 H 123.453 -3.32179 1.69444 0
M  V30 1398 N 125.638 -1.25649 -0.95132 0
M  V30 1399 C 126.885 -1.10594 -1.69633 0
M  V30 1400 C 127.213 0.352515 -1.91279 0
M  V30 1401 O 126.468 1.27601 -1.4838 0
M  V30 1402 C 126.767 -1.80909 -3.08231 0
M  V30 1403 C 126.433 -3.30825 -3.06375 0
M  V30 1404 C 125.095 -3.71722 -3.05576 0
M  V30 1405 C 127.447 -4.26589 -2.99452 0
M  V30 1406 C 124.775 -5.06788 -2.95606 0
M  V30 1407 C 127.127 -5.61683 -2.91024 0
M  V30 1408 C 125.791 -6.01904 -2.88562 0
M  V30 1409 H 125.061 -0.404691 -0.620731 0
M  V30 1410 H 127.708 -1.55964 -1.11119 0
M  V30 1411 H 126.013 -1.27979 -3.70309 0
M  V30 1412 H 127.71 -1.6671 -3.64704 0
M  V30 1413 H 124.3 -2.98287 -3.07771 0
M  V30 1414 H 128.484 -3.95982 -2.99185 0
M  V30 1415 H 123.74 -5.37126 -2.92071 0
M  V30 1416 H 127.914 -6.35578 -2.84629 0
M  V30 1417 H 125.541 -7.06521 -2.80593 0
M  V30 1418 N 127.117 1.15442 -1.07289 0
M  V30 1419 C 128.047 2.22312 -0.714107 0
M  V30 1420 C 129.028 1.67467 0.298155 0
M  V30 1421 O 130.213 1.93445 0.171048 0
M  V30 1422 C 127.343 3.47124 -0.110448 0
M  V30 1423 C 126.297 4.14926 -1.04979 0
M  V30 1424 C 125.623 5.33807 -0.308924 0
M  V30 1425 C 126.923 4.64762 -2.38314 0
M  V30 1426 H 128.617 2.5258 -1.6076 0
M  V30 1427 H 126.163 1.21404 -0.77441 0
M  V30 1428 H 128.116 4.21124 0.152482 0
M  V30 1429 H 126.84 3.16187 0.81812 0
M  V30 1430 H 125.499 3.42866 -1.29764 0
M  V30 1431 H 125.147 4.99126 0.623084 0
M  V30 1432 H 124.847 5.80113 -0.935036 0
M  V30 1433 H 126.371 6.10576 -0.0537771 0
M  V30 1434 H 127.785 5.30292 -2.1786 0
M  V30 1435 H 126.182 5.21728 -2.96514 0
M  V30 1436 H 127.252 3.80434 -3.00663 0
M  V30 1437 N 128.595 0.856903 1.32268 0
M  V30 1438 C 129.525 0.31858 2.31316 0
M  V30 1439 C 130.506 -0.583487 1.59779 0
M  V30 1440 O 131.691 -0.503259 1.87566 0
M  V30 1441 C 128.821 -0.491979 3.43798 0
M  V30 1442 C 127.775 0.315849 4.26833 0
M  V30 1443 C 127.101 -0.619586 5.31098 0
M  V30 1444 C 128.401 1.54282 4.98993 0
M  V30 1445 H 130.095 1.14621 2.76591 0
M  V30 1446 H 127.641 0.552613 1.32974 0
M  V30 1447 H 129.594 -0.879012 4.1213 0
M  V30 1448 H 128.318 -1.35299 2.97257 0
M  V30 1449 H 126.977 0.684664 3.6015 0
M  V30 1450 H 126.625 -1.47751 4.8081 0
M  V30 1451 H 126.325 -0.0830621 5.87541 0
M  V30 1452 H 127.849 -1.00375 6.02293 0
M  V30 1453 H 129.263 1.22796 5.59995 0
M  V30 1454 H 127.66 2.01745 5.65172 0
M  V30 1455 H 128.73 2.30285 4.26728 0
M  V30 1456 N 130.073 -1.45103 0.615059 0
M  V30 1457 C 131.32 -2.02183 0.113179 0
M  V30 1458 C 131.648 -1.48249 -1.25906 0
M  V30 1459 O 130.903 -0.650265 -1.84581 0
M  V30 1460 C 131.202 -3.57386 0.0318797 0
M  V30 1461 C 130.868 -4.30505 1.34077 0
M  V30 1462 C 129.53 -4.50197 1.69929 0
M  V30 1463 C 131.882 -4.72238 2.20546 0
M  V30 1464 C 129.21 -5.08881 2.91988 0
M  V30 1465 C 131.562 -5.32272 3.41861 0
M  V30 1466 C 130.226 -5.50187 3.77956 0
M  V30 1467 H 129.496 -0.739842 0.0414151 0
M  V30 1468 H 132.143 -1.74073 0.798168 0
M  V30 1469 H 130.448 -3.84817 -0.736409 0
M  V30 1470 H 132.145 -3.99264 -0.372712 0
M  V30 1471 H 128.735 -4.15496 1.05173 0
M  V30 1472 H 132.919 -4.56751 1.94146 0
M  V30 1473 H 128.175 -5.20939 3.2005 0
M  V30 1474 H 132.349 -5.63563 4.09109 0
M  V30 1475 H 129.976 -5.95427 4.72622 0
M  V30 1476 N 131.551 -0.354651 -1.53558 0
M  V30 1477 C 132.962 0.126902 -1.86268 0
M  V30 1478 C 133.313 1.49075 -1.27558 0
M  V30 1479 O 132.438 2.08105 -0.5934 0
M  V30 1480 C 133.033 0.237046 -3.3797 0
M  V30 1481 C 131.592 0.662842 -3.70518 0
M  V30 1482 C 130.739 -0.196652 -2.76602 0
M  V30 1483 H 133.69 -0.573849 -1.47962 0
M  V30 1484 H 133.711 1.06259 -3.65362 0
M  V30 1485 H 133.223 -0.755725 -3.80671 0
M  V30 1486 H 131.324 1.66424 -3.33367 0
M  V30 1487 H 131.437 0.445034 -4.77029 0
M  V30 1488 H 129.801 0.332763 -2.52517 0
M  V30 1489 H 130.584 -1.18676 -3.22135 0
M  V30 1490 N 133.029 1.57378 -0.0835403 0
M  V30 1491 C 134.445 1.57246 0.273109 0
M  V30 1492 C 134.645 1.09385 1.69225 0
M  V30 1493 O 133.701 0.765051 2.40631 0
M  V30 1494 C 135.014 3.00614 0.0720628 0
M  V30 1495 C 136.562 3.12684 0.1407 0
M  V30 1496 C 137.037 4.57989 -0.0322094 0
M  V30 1497 N 138.528 4.63194 0.0230085 0
M  V30 1498 C 139.263 5.73335 -0.0861941 0
M  V30 1499 N 138.759 6.9235 -0.24958 0
M  V30 1500 N 140.552 5.62093 -0.0282886 0
M  V30 1501 H 132.703 1.86801 -1.0109 0
M  V30 1502 H 134.966 0.861687 -0.395222 0
M  V30 1503 H 134.672 3.39786 -0.907662 0
M  V30 1504 H 134.546 3.68193 0.81936 0
M  V30 1505 H 136.933 2.73391 1.11092 0
M  V30 1506 H 137.014 2.47719 -0.637896 0
M  V30 1507 H 136.658 4.97973 -0.999247 0
M  V30 1508 H 136.588 5.21 0.765937 0
M  V30 1509 H 139.079 3.77613 0.14722 0
M  V30 1510 H 139.392 7.72117 -0.324733 0
M  V30 1511 H 137.737 6.94415 -0.285097 0
M  V30 1512 H 140.928 4.67997 0.0981408 0
M  V30 1513 H 141.101 6.47895 -0.116845 0
M  V30 1514 N 134.507 -0.190092 1.56449 0
M  V30 1515 C 135.732 -0.929864 1.85387 0
M  V30 1516 C 136.157 -1.7585 0.667704 0
M  V30 1517 O 135.515 -1.77198 -0.383459 0
M  V30 1518 C 135.563 -1.79773 3.12593 0
M  V30 1519 O 134.667 -2.89713 2.93496 0
M  V30 1520 H 134.008 -0.261574 0.610307 0
M  V30 1521 H 136.538 -0.193896 2.03679 0
M  V30 1522 H 136.548 -2.20139 3.43515 0
M  V30 1523 H 135.223 -1.18892 3.98544 0
M  V30 1524 H 133.8 -2.53065 2.73884 0
M  V30 1525 N 135.985 -1.50799 -0.457987 0
M  V30 1526 C 137.21 -1.66496 -1.23668 0
M  V30 1527 C 137.635 -0.353288 -1.84752 0
M  V30 1528 O 136.993 0.684346 -1.67888 0
M  V30 1529 C 137.041 -2.76763 -2.3116 0
M  V30 1530 O 136.145 -2.38928 -3.36136 0
M  V30 1531 H 135.486 -0.555828 -0.363252 0
M  V30 1532 H 138.016 -1.9725 -0.543474 0
M  V30 1533 H 138.026 -3.00232 -2.76269 0
M  V30 1534 H 136.701 -3.71954 -1.86073 0
M  V30 1535 H 135.278 -2.25953 -2.96647 0
M  V30 1536 N 137.463 0.71206 -1.40597 0
M  V30 1537 C 138.712 1.46754 -1.38369 0
M  V30 1538 C 139.025 1.95598 0.0097839 0
M  V30 1539 O 140.231 2.71059 0.154677 0
M  V30 1540 C 138.687 2.65289 -2.43207 0
M  V30 1541 C 138.295 2.23301 -3.88382 0
M  V30 1542 C 140.039 3.43008 -2.50091 0
M  V30 1543 C 137.946 3.38696 -4.84808 0
M  V30 1544 H 136.876 0.55118 -0.514506 0
M  V30 1545 H 139.527 0.774616 -1.66349 0
M  V30 1546 H 137.909 3.36769 -2.08332 0
M  V30 1547 H 139.083 1.59218 -4.32419 0
M  V30 1548 H 137.398 1.58618 -3.85006 0
M  V30 1549 H 139.995 4.28881 -3.1932 0
M  V30 1550 H 140.338 3.87065 -1.53253 0
M  V30 1551 H 140.871 2.78574 -2.83974 0
M  V30 1552 H 137.61 2.99668 -5.82992 0
M  V30 1553 H 137.13 4.01683 -4.45433 0
M  V30 1554 H 138.809 4.04712 -5.04794 0
M  V30 1555 N 138.941 1.26152 0.944643 0
M  V30 1556 C 140.166 1.14363 1.7302 0
M  V30 1557 C 140.591 -0.29772 1.85729 0
M  V30 1558 O 139.949 -1.2157 1.34501 0
M  V30 1559 C 139.997 1.81378 3.11664 0
M  V30 1560 O 139.101 1.10022 3.97453 0
M  V30 1561 H 138.442 0.398694 0.53098 0
M  V30 1562 H 140.972 1.66906 1.18337 0
M  V30 1563 H 140.982 1.88064 3.62072 0
M  V30 1564 H 139.657 2.86237 3.0173 0
M  V30 1565 H 138.234 1.11287 3.55907 0
M  V30 1566 N 140.419 -1.14872 1.07899 0
M  V30 1567 C 141.366 -2.19791 0.704319 0
M  V30 1568 C 142.336 -1.63238 -0.306987 0
M  V30 1569 O 143.521 -1.8983 -0.192171 0
M  V30 1570 C 140.661 -3.44911 0.114244 0
M  V30 1571 C 139.774 -4.15637 1.1777 0
M  V30 1572 C 138.909 -5.28324 0.552037 0
M  V30 1573 C 137.948 -5.90875 1.59789 0
M  V30 1574 N 137.085 -6.95022 0.994404 0
M  V30 1575 H 141.925 -2.5119 1.60336 0
M  V30 1576 H 139.462 -1.23356 0.801352 0
M  V30 1577 H 141.42 -4.16477 -0.245544 0
M  V30 1578 H 140.05 -3.14011 -0.74813 0
M  V30 1579 H 139.102 -3.42512 1.65499 0
M  V30 1580 H 140.414 -4.5823 1.97046 0
M  V30 1581 H 139.568 -6.06538 0.1402 0
M  V30 1582 H 138.307 -4.86939 -0.272431 0
M  V30 1583 H 137.312 -5.11369 2.01945 0
M  V30 1584 H 138.537 -6.34337 2.42474 0
M  V30 1585 H 136.483 -6.55722 0.190939 0
M  V30 1586 H 136.4 -7.36073 1.72432 0
M  V30 1587 H 137.668 -7.77123 0.608253 0
M  V30 1588 N 141.898 -0.863906 -1.31812 0
M  V30 1589 C 143.126 -0.486111 -2.01108 0
M  V30 1590 C 143.541 0.919755 -1.64882 0
M  V30 1591 O 142.898 1.60162 -0.874893 0
M  V30 1592 C 142.949 -0.626435 -3.56031 0
M  V30 1593 O 142.67 -1.97693 -3.90959 0
M  V30 1594 C 144.171 -0.248857 -4.42601 0
M  V30 1595 H 141.391 -0.190052 -0.643523 0
M  V30 1596 H 143.935 -1.1634 -1.68182 0
M  V30 1597 H 142.09 0.00322717 -3.874 0
M  V30 1598 H 142.504 -1.98034 -4.85678 0
M  V30 1599 H 143.978 -0.398016 -5.50563 0
M  V30 1600 H 144.455 0.811489 -4.31638 0
M  V30 1601 H 145.061 -0.853971 -4.16638 0
M  V30 1602 N 143.376 1.44774 -0.622745 0
M  V30 1603 C 144.787 1.85546 -0.207226 0
M  V30 1604 C 145.138 1.52093 1.23944 0
M  V30 1605 O 144.263 0.95492 1.94191 0
M  V30 1606 C 144.858 3.36781 -0.369313 0
M  V30 1607 C 143.417 3.76399 -0.00836847 0
M  V30 1608 C 142.564 2.68664 -0.686651 0
M  V30 1609 H 145.515 1.3536 -0.828454 0
M  V30 1610 H 145.536 3.78453 0.394162 0
M  V30 1611 H 145.048 3.61098 -1.42231 0
M  V30 1612 H 143.149 3.57698 1.04322 0
M  V30 1613 H 143.262 4.7732 -0.412584 0
M  V30 1614 H 141.626 2.54404 -0.122777 0
M  V30 1615 H 142.409 2.95815 -1.74208 0
M  V30 1616 N 144.854 0.36279 1.53368 0
M  V30 1617 C 145.784 -0.476976 2.28576 0
M  V30 1618 C 146.765 -1.08631 1.30894 0
M  V30 1619 O 147.95 -1.10409 1.59761 0
M  V30 1620 C 145.08 -1.61828 3.07293 0
M  V30 1621 C 144.034 -1.13633 4.1264 0
M  V30 1622 C 143.36 -2.36766 4.79423 0
M  V30 1623 C 144.66 -0.223061 5.21823 0
M  V30 1624 H 146.354 0.150474 2.99022 0
M  V30 1625 H 143.9 0.0738103 1.43811 0
M  V30 1626 H 145.853 -2.21237 3.58653 0
M  V30 1627 H 144.577 -2.27292 2.34533 0
M  V30 1628 H 143.236 -0.564945 3.62221 0
M  V30 1629 H 142.884 -3.0068 4.03238 0
M  V30 1630 H 142.584 -2.05192 5.50609 0
M  V30 1631 H 144.108 -2.96865 5.33576 0
M  V30 1632 H 145.522 -0.724545 5.68703 0
M  V30 1633 H 143.919 0.001678 6.001 0
M  V30 1634 H 144.989 0.735553 4.79289 0
M  V30 1635 N 146.332 -1.57332 0.0918853 0
M  V30 1636 C 147.748 -1.57389 -0.264766 0
M  V30 1637 C 147.948 -1.10281 -1.68643 0
M  V30 1638 O 147.004 -0.777801 -2.40222 0
M  V30 1639 C 148.317 -3.00648 -0.0561195 0
M  V30 1640 C 149.865 -3.12754 -0.124116 0
M  V30 1641 C 150.34 -4.57965 0.0564972 0
M  V30 1642 N 151.831 -4.632 0.00155611 0
M  V30 1643 C 152.566 -5.73281 0.116598 0
M  V30 1644 N 152.062 -6.92208 0.286294 0
M  V30 1645 N 153.855 -5.6207 0.0580973 0
M  V30 1646 H 146.006 -1.86262 1.02079 0
M  V30 1647 H 148.269 -0.859579 0.399786 0
M  V30 1648 H 147.975 -3.393 0.925669 0
M  V30 1649 H 147.849 -3.68623 -0.799823 0
M  V30 1650 H 150.236 -2.73976 -1.09641 0
M  V30 1651 H 150.317 -2.47377 0.651024 0
M  V30 1652 H 149.961 -4.97436 1.02564 0
M  V30 1653 H 149.891 -5.21399 -0.738297 0
M  V30 1654 H 152.382 -3.77686 -0.127192 0
M  V30 1655 H 152.695 -7.71934 0.365676 0
M  V30 1656 H 151.04 -6.94254 0.32192 0
M  V30 1657 H 154.231 -4.68043 -0.0733204 0
M  V30 1658 H 154.404 -6.47824 0.151203 0
M  V30 1659 N 147.81 0.181792 -1.56548 0
M  V30 1660 C 148.74 1.22765 -1.98623 0
M  V30 1661 C 149.721 1.46747 -0.860189 0
M  V30 1662 O 150.906 1.58259 -1.12551 0
M  V30 1663 C 148.036 2.56894 -2.33715 0
M  V30 1664 C 146.99 2.475 -3.49182 0
M  V30 1665 C 146.316 3.86023 -3.69986 0
M  V30 1666 C 147.616 1.98866 -4.82959 0
M  V30 1667 H 149.31 0.877942 -2.86239 0
M  V30 1668 H 146.856 0.42088 -1.37712 0
M  V30 1669 H 148.809 3.30253 -2.61746 0
M  V30 1670 H 147.533 2.93632 -1.42997 0
M  V30 1671 H 146.192 1.76596 -3.21262 0
M  V30 1672 H 145.84 4.20136 -2.76576 0
M  V30 1673 H 145.54 3.80609 -4.47672 0
M  V30 1674 H 147.064 4.60984 -4.00407 0
M  V30 1675 H 148.478 2.61992 -5.09934 0
M  V30 1676 H 146.875 2.04424 -5.64208 0
M  V30 1677 H 147.945 0.942465 -4.75653 0
M  V30 1678 N 149.288 1.51039 0.449983 0
M  V30 1679 C 150.251 1.70863 1.5277 0
M  V30 1680 C 151.251 0.578846 1.5002 0
M  V30 1681 O 152.441 0.846213 1.52266 0
M  V30 1682 C 149.573 1.75341 2.9235 0
M  V30 1683 H 150.766 2.67034 1.36502 0
M  V30 1684 H 148.319 1.40838 0.677812 0
M  V30 1685 H 149.054 0.809383 3.14037 0
M  V30 1686 H 148.839 2.57436 2.95752 0
M  V30 1687 H 150.329 1.92559 3.70555 0
M  V30 1688 N 150.766 -0.704594 1.40972 0
M  V30 1689 C 151.714 -1.83994 1.42299 0
M  V30 1690 C 152.708 -1.66684 0.302111 0
M  V30 1691 O 153.914 -1.73655 0.473697 0
M  V30 1692 H 150.289 -0.606171 0.44504 0
M  V30 1693 H 152.26 -1.79992 2.38003 0
M  V30 1694 C 151.009 -3.21946 1.31323 0
M  V30 1695 H 150.332 -3.35878 2.16855 0
M  V30 1696 H 151.772 -4.01491 1.36311 0
M  V30 1697 C 150.231 -3.36891 0.0245977 0
M  V30 1698 O 150.761 -3.90687 -0.934153 0
M  V30 1699 N 148.967 -2.90559 -0.0485243 0
M  V30 1700 H 148.514 -2.46968 0.732419 0
M  V30 1701 H 148.472 -3.00937 -0.910171 0
M  V30 1702 N 152.244 -1.26651 -0.937939 0
M  V30 1703 C 153.469 -1.15279 -1.72411 0
M  V30 1704 C 153.894 0.287866 -1.85884 0
M  V30 1705 O 153.252 1.20855 -1.35143 0
M  V30 1706 C 153.3 -1.83028 -3.10698 0
M  V30 1707 O 152.404 -1.12128 -3.96864 0
M  V30 1708 H 151.745 -0.401504 -0.528858 0
M  V30 1709 H 154.275 -1.67531 -1.1745 0
M  V30 1710 H 154.285 -1.89981 -3.6107 0
M  V30 1711 H 152.96 -2.87833 -3.00208 0
M  V30 1712 H 151.537 -1.13173 -3.55312 0
M  V30 1713 N 153.722 1.14298 -1.08507 0
M  V30 1714 C 154.971 1.84708 -0.810305 0
M  V30 1715 C 155.284 1.83903 0.666271 0
M  V30 1716 O 156.49 2.50112 1.05624 0
M  V30 1717 C 154.946 3.31572 -1.39957 0
M  V30 1718 C 154.554 3.40791 -2.90801 0
M  V30 1719 C 156.298 4.07087 -1.20334 0
M  V30 1720 C 154.205 4.81872 -3.4286 0
M  V30 1721 H 153.135 0.691985 -0.299454 0
M  V30 1722 H 155.786 1.28841 -1.30661 0
M  V30 1723 H 154.168 3.87183 -0.830976 0
M  V30 1724 H 155.342 2.95225 -3.53806 0
M  V30 1725 H 153.657 2.78732 -3.0935 0
M  V30 1726 H 156.254 5.11225 -1.56693 0
M  V30 1727 H 156.597 4.16054 -0.143237 0
M  V30 1728 H 157.13 3.57779 -1.73893 0
M  V30 1729 H 153.869 4.78094 -4.48449 0
M  V30 1730 H 153.389 5.27972 -2.84615 0
M  V30 1731 H 155.068 5.50765 -3.39509 0
M  V30 1732 N 155.201 0.870884 1.31352 0
M  V30 1733 C 156.449 0.48132 1.96285 0
M  V30 1734 C 156.77 -0.969813 1.69173 0
M  V30 1735 O 156.04 -1.67998 1.00764 0
M  V30 1736 H 154.62 0.175002 0.726212 0
M  V30 1737 H 157.282 1.11087 1.60143 0
M  V30 1738 H 156.378 0.639825 3.05471 0
M  V30 1739 N 156.679 -1.44442 0.630414 0
M  V30 1740 C 157.609 -2.33418 -0.0618083 0
M  V30 1741 C 158.59 -1.48165 -0.835541 0
M  V30 1742 O 159.775 -1.76886 -0.801564 0
M  V30 1743 C 156.905 -3.31222 -1.04449 0
M  V30 1744 C 155.859 -4.26288 -0.382436 0
M  V30 1745 C 155.185 -5.13954 -1.47497 0
M  V30 1746 C 156.485 -5.1744 0.710865 0
M  V30 1747 H 158.179 -2.91548 0.681184 0
M  V30 1748 H 155.725 -1.40191 0.329026 0
M  V30 1749 H 157.678 -3.92351 -1.53748 0
M  V30 1750 H 156.402 -2.71299 -1.81836 0
M  V30 1751 H 155.061 -3.6649 0.0899054 0
M  V30 1752 H 154.709 -4.50385 -2.2397 0
M  V30 1753 H 154.409 -5.7837 -1.03737 0
M  V30 1754 H 155.933 -5.77955 -1.96979 0
M  V30 1755 H 157.347 -5.72509 0.300996 0
M  V30 1756 H 155.744 -5.90455 1.07156 0
M  V30 1757 H 156.814 -4.58496 1.57829 0
M  V30 1758 N 158.157 -0.370918 -1.53173 0
M  V30 1759 C 159.406 0.218249 -2.00516 0
M  V30 1760 C 159.719 1.49429 -1.26215 0
M  V30 1761 O 160.925 2.16239 -1.64174 0
M  V30 1762 C 159.381 0.43948 -3.57207 0
M  V30 1763 C 158.989 -0.822244 -4.4039 0
M  V30 1764 C 160.733 0.986012 -4.1289 0
M  V30 1765 C 158.64 -0.570304 -5.88644 0
M  V30 1766 H 157.57 0.0853333 -0.749156 0
M  V30 1767 H 160.221 -0.490483 -1.76823 0
M  V30 1768 H 158.603 1.20961 -3.77074 0
M  V30 1769 H 159.777 -1.59557 -4.32294 0
M  V30 1770 H 158.092 -1.29238 -3.95836 0
M  V30 1771 H 160.689 1.18991 -5.21292 0
M  V30 1772 H 161.032 1.94972 -3.6782 0
M  V30 1773 H 161.565 0.27592 -3.96842 0
M  V30 1774 H 158.304 -1.50449 -6.38001 0
M  V30 1775 H 157.824 0.164427 -5.99575 0
M  V30 1776 H 159.503 -0.19784 -6.46697 0
M  V30 1777 N 159.635 1.57281 -0.100228 0
M  V30 1778 C 160.912 1.86014 0.604812 0
M  V30 1779 C 161.292 0.998025 1.86018 0
M  V30 1780 O 160.64 0.0718184 2.28387 0
M  V30 1781 C 160.85 3.36784 0.915278 0
M  V30 1782 C 162.198 4.04957 1.27651 0
M  V30 1783 O 163.222 3.41695 1.00613 0
M  V30 1784 O 162.081 5.16593 1.7831 0
M  V30 1785 H 159.175 0.76942 0.303185 0
M  V30 1786 H 161.721 1.69176 -0.133313 0
M  V30 1787 H 160.493 3.91292 0.0248896 0
M  V30 1788 H 160.116 3.58987 1.70921 0
M  V30 1789 N 161.113 -0.173488 1.56642 0
M  V30 1790 C 162.076 -1.19859 1.95362 0
M  V30 1791 C 163.076 -1.37296 0.83704 0
M  V30 1792 O 164.266 -1.34739 1.10413 0
M  V30 1793 C 161.398 -2.56405 2.24654 0
M  V30 1794 H 162.591 -0.867062 2.87092 0
M  V30 1795 H 160.144 -0.415853 1.50666 0
M  V30 1796 H 160.879 -2.94576 1.35631 0
M  V30 1797 H 160.664 -2.45115 3.06041 0
M  V30 1798 H 162.154 -3.30287 2.5554 0
M  V30 1799 N 162.591 -1.51276 -0.441967 0
M  V30 1800 C 163.839 -1.63392 -1.18943 0
M  V30 1801 C 164.16 -0.350159 -1.9183 0
M  V30 1802 O 163.43 0.633784 -1.85364 0
M  V30 1803 H 162.01 -0.602164 -0.442049 0
M  V30 1804 H 164.672 -1.88186 -0.507165 0
M  V30 1805 H 163.768 -2.45934 -1.92154 0
M  V30 1806 N 164.069 0.697108 -1.41344 0
M  V30 1807 C 165.299 1.48377 -1.43763 0
M  V30 1808 C 165.707 1.89156 -0.0408726 0
M  V30 1809 O 165.05 1.57239 0.949812 0
M  V30 1810 C 165.112 2.7781 -2.2817 0
M  V30 1811 C 164.776 2.59244 -3.76353 0
M  V30 1812 C 165.773 2.25292 -4.68551 0
M  V30 1813 C 163.458 2.74933 -4.20378 0
M  V30 1814 C 165.452 2.07264 -6.02761 0
M  V30 1815 C 163.139 2.56521 -5.54653 0
M  V30 1816 C 164.137 2.22737 -6.4566 0
M  V30 1817 O 163.825 2.04485 -7.77458 0
M  V30 1818 H 163.557 0.463842 -0.491759 0
M  V30 1819 H 166.111 0.865934 -1.86255 0
M  V30 1820 H 164.341 3.41995 -1.8049 0
M  V30 1821 H 166.03 3.39608 -2.22309 0
M  V30 1822 H 166.796 2.12787 -4.35829 0
M  V30 1823 H 162.675 3.00213 -3.49848 0
M  V30 1824 H 166.219 1.80817 -6.73759 0
M  V30 1825 H 162.116 2.68616 -5.86955 0
M  V30 1826 H 162.884 2.1926 -7.88586 0
M  V30 1827 N 165.547 1.27147 0.931209 0
M  V30 1828 C 166.963 1.04475 1.20653 0
M  V30 1829 C 167.163 -0.223885 2.00252 0
M  V30 1830 O 166.219 -0.930332 2.34736 0
M  V30 1831 C 167.532 2.28209 1.95809 0
M  V30 1832 C 169.08 2.33211 2.08762 0
M  V30 1833 C 169.555 3.56665 2.87323 0
M  V30 1834 N 171.046 3.57201 2.94892 0
M  V30 1835 C 171.781 4.49395 3.56134 0
M  V30 1836 N 171.277 5.51889 4.18796 0
M  V30 1837 N 173.07 4.37026 3.53504 0
M  V30 1838 H 165.221 2.08612 0.399333 0
M  V30 1839 H 167.484 0.917312 0.239253 0
M  V30 1840 H 167.19 3.20538 1.44736 0
M  V30 1841 H 167.064 2.33247 2.96438 0
M  V30 1842 H 169.451 1.41391 2.59023 0
M  V30 1843 H 169.532 2.32178 1.07364 0
M  V30 1844 H 169.176 4.4882 2.37746 0
M  V30 1845 H 169.106 3.54948 3.88998 0
M  V30 1846 H 171.597 2.83074 2.50354 0
M  V30 1847 H 171.91 6.18409 4.63454 0
M  V30 1848 H 170.255 5.55735 4.17353 0
M  V30 1849 H 173.446 3.56166 3.03749 0
M  V30 1850 H 173.619 5.09067 4.00942 0
M  V30 1851 N 167.025 -1.13721 1.09112 0
M  V30 1852 C 168.273 -1.84559 0.823562 0
M  V30 1853 C 168.594 -1.83754 -0.652658 0
M  V30 1854 O 167.864 -1.29102 -1.47342 0
M  V30 1855 H 166.444 -0.683376 0.301673 0
M  V30 1856 H 169.106 -1.37771 1.37859 0
M  V30 1857 H 168.202 -2.8917 1.17419 0
M  V30 1858 N 168.503 -0.877838 -1.30888 0
M  V30 1859 C 169.413 -0.343096 -2.32078 0
M  V30 1860 C 170.429 0.551022 -1.65045 0
M  V30 1861 O 171.605 0.445854 -1.96403 0
M  V30 1862 C 168.67 0.439905 -3.43898 0
M  V30 1863 C 167.731 -0.483111 -4.26573 0
M  V30 1864 C 166.964 0.262616 -5.33053 0
M  V30 1865 O 167.187 1.48967 -5.50604 0
M  V30 1866 O 166.121 -0.383593 -6.00676 0
M  V30 1867 H 169.947 -1.18203 -2.79753 0
M  V30 1868 H 167.532 -0.64145 -1.34929 0
M  V30 1869 H 169.414 0.883504 -4.12034 0
M  V30 1870 H 168.089 1.25526 -2.98371 0
M  V30 1871 H 166.996 -0.975374 -3.61161 0
M  V30 1872 H 168.329 -1.26427 -4.75686 0
M  V30 1873 N 169.982 1.44106 -0.638065 0
M  V30 1874 C 171.231 2.01194 -0.142744 0
M  V30 1875 C 171.544 1.50835 1.24532 0
M  V30 1876 O 172.75 2.00096 1.83504 0
M  V30 1877 C 171.206 3.59319 -0.20442 0
M  V30 1878 C 170.814 4.18674 -1.59423 0
M  V30 1879 C 172.558 4.23854 0.234079 0
M  V30 1880 C 170.465 5.69045 -1.61065 0
M  V30 1881 H 169.395 0.752367 -0.0495998 0
M  V30 1882 H 172.046 1.65246 -0.797881 0
M  V30 1883 H 170.428 3.92598 0.517946 0
M  V30 1884 H 171.602 3.96921 -2.34074 0
M  V30 1885 H 169.917 3.66453 -1.97741 0
M  V30 1886 H 172.514 5.34155 0.241443 0
M  V30 1887 H 172.857 3.96688 1.2627 0
M  V30 1888 H 173.39 3.95403 -0.436025 0
M  V30 1889 H 170.129 6.00956 -2.61787 0
M  V30 1890 H 169.649 5.929 -0.90718 0
M  V30 1891 H 171.328 6.32809 -1.34766 0
M  V30 1892 N 171.46 0.379036 1.52974 0
M  V30 1893 C 172.709 -0.207612 2.00629 0
M  V30 1894 C 173.022 -1.48758 1.27006 0
M  V30 1895 O 174.228 -2.15365 1.65318 0
M  V30 1896 C 172.684 -0.42053 3.57435 0
M  V30 1897 C 172.292 0.845587 4.39948 0
M  V30 1898 C 174.036 -0.964102 4.13407 0
M  V30 1899 C 171.943 0.601513 5.88333 0
M  V30 1900 H 170.873 -0.0813591 0.749598 0
M  V30 1901 H 173.524 0.499853 1.76561 0
M  V30 1902 H 171.906 -1.18959 3.7771 0
M  V30 1903 H 173.08 1.61848 4.31442 0
M  V30 1904 H 171.395 1.31336 3.95145 0
M  V30 1905 H 173.992 -1.16225 5.21916 0
M  V30 1906 H 174.335 -1.93019 3.68849 0
M  V30 1907 H 174.868 -0.25487 3.96983 0
M  V30 1908 H 171.607 1.53831 6.37194 0
M  V30 1909 H 171.127 -0.132628 5.99653 0
M  V30 1910 H 172.806 0.232134 6.46583 0
M  V30 1911 N 172.938 -1.57226 0.108567 0
M  V30 1912 C 173.901 -2.13602 -0.831082 0
M  V30 1913 C 174.901 -1.06841 -1.20173 0
M  V30 1914 O 176.091 -1.32666 -1.12895 0
M  V30 1915 C 173.223 -2.66769 -2.12243 0
M  V30 1916 H 174.416 -2.97951 -0.341317 0
M  V30 1917 H 171.969 -1.55667 -0.14057 0
M  V30 1918 H 172.704 -1.85977 -2.65675 0
M  V30 1919 H 172.489 -3.44839 -1.86625 0
M  V30 1920 H 173.979 -3.10332 -2.79435 0
M  V30 1921 N 174.416 0.165178 -1.56732 0
M  V30 1922 C 175.379 1.18822 -1.95995 0
M  V30 1923 C 176.379 1.3685 -0.84431 0
M  V30 1924 O 177.569 1.34152 -1.11126 0
M  V30 1925 C 174.701 2.5521 -2.26011 0
M  V30 1926 H 175.894 0.851825 -2.87548 0
M  V30 1927 H 173.447 0.407857 -1.50885 0
M  V30 1928 H 174.182 2.93852 -1.37191 0
M  V30 1929 H 173.967 2.43489 -3.07336 0
M  V30 1930 H 175.457 3.28927 -2.57288 0
M  V30 1931 N 175.894 1.51508 0.433938 0
M  V30 1932 C 176.824 1.76016 1.53429 0
M  V30 1933 C 177.805 0.610112 1.58782 0
M  V30 1934 O 178.99 0.853177 1.74455 0
M  V30 1935 C 176.12 1.88831 2.9148 0
M  V30 1936 C 175.074 3.04288 3.00987 0
M  V30 1937 C 174.4 3.0229 4.4105 0
M  V30 1938 C 175.7 4.44193 2.74754 0
M  V30 1939 H 177.394 2.68152 1.33171 0
M  V30 1940 H 174.94 1.29035 0.639214 0
M  V30 1941 H 176.893 2.04559 3.6842 0
M  V30 1942 H 175.617 0.933455 3.12976 0
M  V30 1943 H 174.276 2.8827 2.26486 0
M  V30 1944 H 173.924 2.04576 4.59519 0
M  V30 1945 H 173.624 3.79822 4.4834 0
M  V30 1946 H 175.148 3.20116 5.1996 0
M  V30 1947 H 176.562 4.60544 3.41426 0
M  V30 1948 H 174.959 5.23457 2.9345 0
M  V30 1949 H 176.029 4.53996 1.70339 0
M  V30 1950 N 177.372 -0.689602 1.41712 0
M  V30 1951 C 178.649 -1.44457 1.31877 0
M  V30 1952 C 179.029 -2.11039 -0.0508537 0
M  V30 1953 O 178.377 -2.02138 -1.06547 0
M  V30 1954 C 178.587 -2.45913 2.47645 0
M  V30 1955 C 179.935 -3.10991 2.89084 0
M  V30 1956 O 180.959 -2.56238 2.47428 0
M  V30 1957 O 179.818 -4.10174 3.61137 0
M  V30 1958 H 176.912 -0.64362 0.519309 0
M  V30 1959 H 179.458 -0.719576 1.53689 0
M  V30 1960 H 178.23 -1.95409 3.39015 0
M  V30 1961 H 177.853 -3.25913 2.27742 0
M  V30 1962 N 178.85 -1.27639 -0.924453 0
M  V30 1963 C 179.798 -1.10485 -2.04685 0
M  V30 1964 C 180.792 -0.0270421 -1.69378 0
M  V30 1965 O 181.998 -0.185008 -1.79047 0
M  V30 1966 H 178.373 -0.340546 -0.670472 0
M  V30 1967 H 180.344 -2.05566 -2.16298 0
M  V30 1968 C 179.093 -0.772229 -3.39016 0
M  V30 1969 H 178.416 -1.59351 -3.66671 0
M  V30 1970 H 179.856 -0.692097 -4.18313 0
M  V30 1971 C 178.315 0.523554 -3.32807 0
M  V30 1972 O 178.845 1.55702 -3.70297 0
M  V30 1973 N 177.051 0.520363 -2.85903 0
M  V30 1974 H 176.598 -0.32107 -2.55591 0
M  V30 1975 H 176.556 1.38742 -2.82131 0
M  V30 1976 N 180.328 1.1314 -1.09713 0
M  V30 1977 C 181.556 1.88321 -0.856898 0
M  V30 1978 C 181.971 1.79276 0.592073 0
M  V30 1979 O 181.328 1.16142 1.40774 0
M  V30 1980 C 181.379 3.37812 -1.28706 0
M  V30 1981 O 181.1 3.46627 -2.67921 0
M  V30 1982 C 182.601 4.29952 -1.07964 0
M  V30 1983 H 179.821 0.596094 -0.308079 0
M  V30 1984 H 182.365 1.43205 -1.45988 0
M  V30 1985 H 180.52 3.805 -0.727912 0
M  V30 1986 H 180.934 4.39579 -2.8613 0
M  V30 1987 H 182.408 5.33159 -1.42986 0
M  V30 1988 H 182.885 4.39196 -0.0176577 0
M  V30 1989 H 183.491 3.93036 -1.62489 0
M  V30 1990 N 181.806 0.884767 1.30421 0
M  V30 1991 C 183.031 0.517288 2.00845 0
M  V30 1992 C 183.456 -0.886779 1.65885 0
M  V30 1993 O 182.814 -1.58768 0.875354 0
M  V30 1994 C 182.862 0.698994 3.5376 0
M  V30 1995 O 181.966 -0.255208 4.1161 0
M  V30 1996 H 181.307 0.203872 0.631927 0
M  V30 1997 H 183.837 1.19225 1.66272 0
M  V30 1998 H 183.847 0.597912 4.03595 0
M  V30 1999 H 182.522 1.72271 3.78544 0
M  V30 2000 H 181.099 -0.10784 3.72744 0
M  V30 2001 N 183.284 -1.43765 0.645699 0
M  V30 2002 C 184.561 -1.9541 0.0862963 0
M  V30 2003 C 184.941 -1.58725 -1.39175 0
M  V30 2004 O 184.289 -0.868581 -2.11348 0
M  V30 2005 C 184.499 -3.47488 0.324565 0
M  V30 2006 C 185.847 -4.24001 0.225497 0
M  V30 2007 O 186.871 -3.55274 0.256715 0
M  V30 2008 O 185.73 -5.46313 0.142801 0
M  V30 2009 H 182.824 -0.826882 -0.0139483 0
M  V30 2010 H 185.37 -1.53743 0.718415 0
M  V30 2011 H 184.142 -3.67289 1.3496 0
M  V30 2012 H 183.765 -3.96135 -0.340987 0
M  V30 2013 N 184.763 -0.387143 -1.52771 0
M  V30 2014 C 185.695 0.484089 -2.2403 0
M  V30 2015 C 186.708 1.02849 -1.26198 0
M  V30 2016 O 187.897 0.931186 -1.52286 0
M  V30 2017 C 184.997 1.68337 -2.94136 0
M  V30 2018 C 184.17 1.26672 -4.18656 0
M  V30 2019 C 183.229 2.33045 -4.7178 0
M  V30 2020 O 182.255 1.94541 -5.34923 0
M  V30 2021 N 183.457 3.64929 -4.5145 0
M  V30 2022 H 186.222 -0.126404 -2.99433 0
M  V30 2023 H 183.783 -0.213392 -1.60488 0
M  V30 2024 H 185.775 2.39019 -3.26577 0
M  V30 2025 H 184.345 2.20025 -2.22053 0
M  V30 2026 H 183.565 0.388878 -3.92277 0
M  V30 2027 H 184.853 0.964964 -4.99566 0
M  V30 2028 H 184.251 3.98974 -4.01044 0
M  V30 2029 H 182.808 4.31651 -4.88386 0
M  V30 2030 N 186.241 1.57166 -0.116904 0
M  V30 2031 C 187.151 2.18745 0.847812 0
M  V30 2032 C 188.167 1.163 1.29423 0
M  V30 2033 O 189.343 1.48761 1.35765 0
M  V30 2034 C 186.408 2.77307 2.0809 0
M  V30 2035 C 185.469 3.94781 1.68661 0
M  V30 2036 C 184.702 4.50541 2.86091 0
M  V30 2037 O 184.925 4.05202 4.01456 0
M  V30 2038 O 183.859 5.41256 2.63298 0
M  V30 2039 H 187.685 3.01632 0.353778 0
M  V30 2040 H 185.27 1.49005 0.108599 0
M  V30 2041 H 187.152 3.14647 2.80313 0
M  V30 2042 H 185.827 1.97452 2.56504 0
M  V30 2043 H 184.734 3.62214 0.935518 0
M  V30 2044 H 186.067 4.76065 1.24991 0
M  V30 2045 N 187.719 -0.156864 1.56817 0
M  V30 2046 C 188.949 -0.885031 1.86684 0
M  V30 2047 C 189.357 -1.75696 0.701954 0
M  V30 2048 O 188.7 -1.80569 -0.337732 0
M  V30 2049 C 188.762 -1.80092 3.11138 0
M  V30 2050 C 188.426 -1.10714 4.43386 0
M  V30 2051 C 189.423 -0.465714 5.1781 0
M  V30 2052 C 187.108 -1.09959 4.90117 0
M  V30 2053 C 189.102 0.174002 6.37162 0
M  V30 2054 C 186.789 -0.456055 6.09396 0
M  V30 2055 C 187.787 0.179622 6.82764 0
M  V30 2056 O 187.475 0.812975 7.99779 0
M  V30 2057 H 187.207 -0.261813 0.623242 0
M  V30 2058 H 189.761 -0.157383 2.04796 0
M  V30 2059 H 187.991 -2.56926 2.89009 0
M  V30 2060 H 189.68 -2.40018 3.27332 0
M  V30 2061 H 190.446 -0.463427 4.82781 0
M  V30 2062 H 186.325 -1.58378 4.3294 0
M  V30 2063 H 189.869 0.670765 6.94368 0
M  V30 2064 H 185.766 -0.455975 6.43888 0
M  V30 2065 H 186.534 0.71366 8.15383 0
M  V30 2066 N 189.197 -1.51736 -0.425897 0
M  V30 2067 C 190.147 -1.70258 -1.51645 0
M  V30 2068 C 191.131 -0.556488 -1.5097 0
M  V30 2069 O 192.323 -0.812879 -1.5723 0
M  V30 2070 C 189.452 -1.84143 -2.89735 0
M  V30 2071 C 188.538 -3.04572 -2.95122 0
M  V30 2072 N 188.929 -4.2756 -2.70233 0
M  V30 2073 C 187.227 -3.04061 -3.26286 0
M  V30 2074 C 187.928 -5.08908 -2.81757 0
M  V30 2075 N 186.904 -4.43797 -3.13919 0
M  V30 2076 H 190.706 -2.63004 -1.31172 0
M  V30 2077 H 188.22 -1.4954 -0.633375 0
M  V30 2078 H 190.217 -1.95525 -3.68206 0
M  V30 2079 H 188.877 -0.925857 -3.1122 0
M  V30 2080 H 189.888 -4.56315 -2.44943 0
M  V30 2081 H 186.565 -2.22179 -3.53473 0
M  V30 2082 H 187.955 -6.16843 -2.66372 0
M  V30 2083 N 190.675 0.682077 -1.42076 0
M  V30 2084 C 191.924 1.43786 -1.41451 0
M  V30 2085 C 192.237 1.95574 -0.0317074 0
M  V30 2086 O 193.443 2.71326 0.0971462 0
M  V30 2087 C 191.899 2.60071 -2.48779 0
M  V30 2088 C 191.507 2.15013 -3.93031 0
M  V30 2089 C 193.251 3.37626 -2.57311 0
M  V30 2090 C 191.158 3.28336 -4.91883 0
M  V30 2091 H 190.088 0.540143 -0.526082 0
M  V30 2092 H 192.739 0.739157 -1.67955 0
M  V30 2093 H 191.121 3.32275 -2.15429 0
M  V30 2094 H 192.295 1.5001 -4.35699 0
M  V30 2095 H 190.61 1.50416 -3.88284 0
M  V30 2096 H 193.207 4.22012 -3.28345 0
M  V30 2097 H 193.55 3.83727 -1.61429 0
M  V30 2098 H 194.083 2.72488 -2.89819 0
M  V30 2099 H 190.822 2.87234 -5.89217 0
M  V30 2100 H 190.342 3.92145 -4.53853 0
M  V30 2101 H 192.021 3.93913 -5.13265 0
M  V30 2102 N 192.153 1.28127 0.917671 0
M  V30 2103 C 193.1 1.11717 2.0196 0
M  V30 2104 C 194.07 0.0153929 1.66093 0
M  V30 2105 O 195.255 0.179596 1.89953 0
M  V30 2106 C 192.395 0.780927 3.36148 0
M  V30 2107 C 191.508 1.96135 3.84909 0
M  V30 2108 C 190.643 1.56609 5.0759 0
M  V30 2109 C 189.682 2.71339 5.48673 0
M  V30 2110 N 188.819 2.32332 6.62545 0
M  V30 2111 H 193.659 2.06003 2.15329 0
M  V30 2112 H 191.196 1.02535 1.05475 0
M  V30 2113 H 193.154 0.56675 4.13333 0
M  V30 2114 H 191.784 -0.124998 3.22558 0
M  V30 2115 H 190.836 2.28777 3.03916 0
M  V30 2116 H 192.148 2.82165 4.1132 0
M  V30 2117 H 191.302 1.31374 5.92305 0
M  V30 2118 H 190.041 0.677014 4.82978 0
M  V30 2119 H 189.046 2.97276 4.62501 0
M  V30 2120 H 190.271 3.60882 5.75274 0
M  V30 2121 H 188.217 1.45889 6.39572 0
M  V30 2122 H 188.134 3.11899 6.88662 0
M  V30 2123 H 189.402 2.10371 7.50576 0
M  V30 2124 N 193.631 -1.12557 1.10312 0
M  V30 2125 C 194.578 -2.18247 0.750781 0
M  V30 2126 C 195.548 -1.63853 -0.272293 0
M  V30 2127 O 196.733 -1.90195 -0.151862 0
M  V30 2128 C 193.873 -3.44591 0.187379 0
M  V30 2129 C 192.986 -4.13046 1.2656 0
M  V30 2130 C 192.121 -5.27034 0.663978 0
M  V30 2131 C 191.16 -5.87353 1.72287 0
M  V30 2132 N 190.297 -6.92757 1.1416 0
M  V30 2133 H 195.137 -2.47732 1.65628 0
M  V30 2134 H 192.674 -1.21629 0.827337 0
M  V30 2135 H 194.632 -4.16904 -0.157148 0
M  V30 2136 H 193.262 -3.15527 -0.681355 0
M  V30 2137 H 192.314 -3.38924 1.72727 0
M  V30 2138 H 193.626 -4.53947 2.06721 0
M  V30 2139 H 192.78 -6.06104 0.268824 0
M  V30 2140 H 191.519 -4.87407 -0.169082 0
M  V30 2141 H 190.524 -5.06971 2.12746 0
M  V30 2142 H 191.749 -6.29051 2.55875 0
M  V30 2143 H 189.695 -6.5517 0.329984 0
M  V30 2144 H 189.612 -7.3225 1.88007 0
M  V30 2145 H 190.88 -7.75658 0.772956 0
M  V30 2146 N 195.109 -0.891671 -1.2995 0
M  V30 2147 C 196.057 -0.353066 -2.29905 0
M  V30 2148 C 197.051 0.543509 -1.60444 0
M  V30 2149 O 198.257 0.4272 -1.74857 0
M  V30 2150 H 194.632 -0.095531 -0.745907 0
M  V30 2151 H 196.603 -1.20961 -2.72784 0
M  V30 2152 C 195.352 0.411475 -3.45257 0
M  V30 2153 H 194.675 -0.269182 -3.98893 0
M  V30 2154 H 196.115 0.753328 -4.17254 0
M  V30 2155 C 194.574 1.6111 -2.9588 0
M  V30 2156 O 195.104 2.71045 -2.96475 0
M  V30 2157 N 193.31 1.45054 -2.51809 0
M  V30 2158 H 192.857 0.556175 -2.51524 0
M  V30 2159 H 192.815 2.25453 -2.1913 0
M  V30 2160 N 196.587 1.43421 -0.653314 0
M  V30 2161 C 197.864 1.95361 -0.0966581 0
M  V30 2162 C 198.244 1.59461 1.38331 0
M  V30 2163 O 197.592 0.879777 2.10884 0
M  V30 2164 C 197.802 3.47311 -0.342988 0
M  V30 2165 C 199.15 4.23875 -0.24798 0
M  V30 2166 O 200.174 3.55133 -0.275553 0
M  V30 2167 O 199.033 5.4623 -0.171771 0
M  V30 2168 H 196.127 0.826945 0.00956291 0
M  V30 2169 H 198.673 1.5336 -0.726558 0
M  V30 2170 H 197.445 3.66569 -1.36906 0
M  V30 2171 H 197.068 3.9631 0.319975 0
M  V30 2172 N 198.065 0.39524 1.52563 0
M  V30 2173 C 199.012 -0.437036 2.26624 0
M  V30 2174 C 199.982 -1.05281 1.28472 0
M  V30 2175 O 201.167 -1.07971 1.57311 0
M  V30 2176 C 198.307 -1.55524 3.08069 0
M  V30 2177 C 197.42 -0.961745 4.21158 0
M  V30 2178 C 196.555 -2.05149 4.89987 0
M  V30 2179 C 195.594 -1.4342 5.95061 0
M  V30 2180 N 194.731 -2.46351 6.57462 0
M  V30 2181 H 199.571 0.200976 2.97322 0
M  V30 2182 H 197.108 0.110944 1.46681 0
M  V30 2183 H 199.066 -2.21437 3.53584 0
M  V30 2184 H 197.696 -2.16348 2.3957 0
M  V30 2185 H 196.748 -0.192048 3.79915 0
M  V30 2186 H 198.06 -0.470701 4.96574 0
M  V30 2187 H 197.214 -2.78819 5.38837 0
M  V30 2188 H 195.953 -2.57615 4.14109 0
M  V30 2189 H 194.958 -0.682774 5.45544 0
M  V30 2190 H 196.183 -0.917416 6.72875 0
M  V30 2191 H 194.129 -2.97975 5.8442 0
M  V30 2192 H 194.046 -2.02019 7.28508 0
M  V30 2193 H 195.314 -3.19633 7.10954 0
M  V30 2194 N 199.544 -1.57102 0.125237 0
M  V30 2195 C 200.474 -2.18659 -0.819174 0
M  V30 2196 C 201.455 -1.12843 -1.27281 0
M  V30 2197 O 202.64 -1.41104 -1.33429 0
M  V30 2198 C 199.77 -2.79096 -2.06695 0
M  V30 2199 C 198.724 -3.90548 -1.75088 0
M  V30 2200 C 198.05 -4.37821 -3.06948 0
M  V30 2201 C 199.35 -5.12356 -1.01435 0
M  V30 2202 H 201.044 -2.9783 -0.306202 0
M  V30 2203 H 198.59 -1.4326 -0.145839 0
M  V30 2204 H 200.543 -3.2082 -2.73226 0
M  V30 2205 H 199.267 -1.97223 -2.60328 0
M  V30 2206 H 197.926 -3.49409 -1.10944 0
M  V30 2207 H 197.574 -3.52799 -3.58527 0
M  V30 2208 H 197.274 -5.12982 -2.86571 0
M  V30 2209 H 198.798 -4.822 -3.74587 0
M  V30 2210 H 200.212 -5.5106 -1.58132 0
M  V30 2211 H 198.609 -5.9314 -0.911319 0
M  V30 2212 H 199.679 -4.849 -0.00218681 0
M  V30 2213 N 201.022 0.148545 -1.56898 0
M  V30 2214 C 202.268 0.862694 -1.83536 0
M  V30 2215 C 202.601 1.80889 -0.706604 0
M  V30 2216 O 201.876 1.92328 0.289885 0
M  V30 2217 C 202.159 1.63853 -3.20662 0
M  V30 2218 C 202.012 0.713925 -4.44098 0
M  V30 2219 C 203.331 2.60133 -3.54991 0
M  V30 2220 H 200.45 0.312179 -0.667618 0
M  V30 2221 H 203.092 0.127953 -1.89569 0
M  V30 2222 H 201.242 2.26489 -3.1565 0
M  V30 2223 H 202.914 0.098686 -4.61194 0
M  V30 2224 H 201.157 0.0234019 -4.33794 0
M  V30 2225 H 201.828 1.29278 -5.36648 0
M  V30 2226 H 204.304 2.07616 -3.60603 0
M  V30 2227 H 203.18 3.11468 -4.51972 0
M  V30 2228 H 203.441 3.41417 -2.80868 0
M  V30 2229 N 202.5 1.5196 0.417844 0
M  V30 2230 C 203.432 1.70895 1.52733 0
M  V30 2231 C 204.445 0.589405 1.51756 0
M  V30 2232 O 205.634 0.864312 1.56179 0
M  V30 2233 C 202.734 1.72627 2.91639 0
M  V30 2234 C 201.907 3.01479 3.16905 0
M  V30 2235 C 200.966 2.95139 4.35637 0
M  V30 2236 O 199.992 3.69059 4.3334 0
M  V30 2237 N 201.194 2.12328 5.40275 0
M  V30 2238 H 203.959 2.66612 1.36888 0
M  V30 2239 H 201.52 1.50089 0.607037 0
M  V30 2240 H 203.512 1.65928 3.6912 0
M  V30 2241 H 202.082 0.844216 3.00985 0
M  V30 2242 H 201.302 3.21895 2.27546 0
M  V30 2243 H 202.59 3.86736 3.30625 0
M  V30 2244 H 201.988 1.51685 5.44985 0
M  V30 2245 H 200.545 2.11494 6.16534 0
M  V30 2246 N 203.978 -0.674533 1.42435 0
M  V30 2247 C 204.908 -1.80009 1.48724 0
M  V30 2248 C 205.889 -1.6659 0.343793 0
M  V30 2249 O 207.074 -1.86007 0.558137 0
M  V30 2250 C 204.204 -3.18306 1.38919 0
M  V30 2251 C 203.158 -3.46461 2.51294 0
M  V30 2252 C 202.484 -4.84335 2.26547 0
M  V30 2253 C 203.784 -3.43328 3.93603 0
M  V30 2254 H 205.478 -1.75004 2.42928 0
M  V30 2255 H 203.024 -0.840533 1.16923 0
M  V30 2256 H 204.977 -3.9678 1.41927 0
M  V30 2257 H 203.701 -3.2399 0.412094 0
M  V30 2258 H 202.36 -2.70348 2.47604 0
M  V30 2259 H 202.008 -4.86669 1.2713 0
M  V30 2260 H 201.708 -5.04136 3.01861 0
M  V30 2261 H 203.232 -5.65094 2.31304 0
M  V30 2262 H 204.646 -4.11772 3.98894 0
M  V30 2263 H 203.043 -3.74664 4.68771 0
M  V30 2264 H 204.113 -2.41897 4.20255 0
M  V30 2265 N 205.456 -1.28612 -0.910864 0
M  V30 2266 C 206.702 -1.16106 -1.66274 0
M  V30 2267 C 207.035 0.289113 -1.92036 0
M  V30 2268 O 206.31 1.21 -1.52281 0
M  V30 2269 C 206.593 -1.96309 -3.01885 0
M  V30 2270 C 206.446 -3.49405 -2.8326 0
M  V30 2271 C 207.765 -1.78076 -4.02463 0
M  V30 2272 H 204.884 -0.423152 -0.603417 0
M  V30 2273 H 207.526 -1.57961 -1.05586 0
M  V30 2274 H 205.676 -1.60742 -3.53687 0
M  V30 2275 H 207.348 -3.94894 -2.38446 0
M  V30 2276 H 205.591 -3.74893 -2.18261 0
M  V30 2277 H 206.262 -4.00784 -3.79574 0
M  V30 2278 H 208.738 -2.0912 -3.59733 0
M  V30 2279 H 207.614 -2.36561 -4.95308 0
M  V30 2280 H 207.875 -0.733008 -4.35981 0
M  V30 2281 N 206.934 1.1197 -1.10907 0
M  V30 2282 C 208.159 1.87942 -0.877064 0
M  V30 2283 C 208.584 1.79341 0.567314 0
M  V30 2284 O 207.942 1.15184 1.40009 0
M  V30 2285 C 207.99 3.34926 -1.33629 0
M  V30 2286 O 207.094 4.09303 -0.504447 0
M  V30 2287 H 206.435 0.583785 -0.316371 0
M  V30 2288 H 208.965 1.4157 -1.47712 0
M  V30 2289 H 208.975 3.8577 -1.32837 0
M  V30 2290 H 207.65 3.40504 -2.3881 0
M  V30 2291 H 206.227 3.68393 -0.577993 0
M  V30 2292 N 208.412 0.89855 1.29475 0
M  V30 2293 C 209.659 0.523882 1.95606 0
M  V30 2294 C 209.987 -0.929608 1.70847 0
M  V30 2295 O 209.242 -1.67401 1.01367 0
M  V30 2296 C 209.541 0.761398 3.49195 0
M  V30 2297 C 209.207 2.19207 3.94029 0
M  V30 2298 C 207.869 2.58326 4.05982 0
M  V30 2299 C 210.221 3.12379 4.17216 0
M  V30 2300 C 207.549 3.898 4.38489 0
M  V30 2301 C 209.901 4.43401 4.51197 0
M  V30 2302 C 208.565 4.82394 4.61359 0
M  V30 2303 H 207.835 0.191702 0.715773 0
M  V30 2304 H 210.482 1.13699 1.54094 0
M  V30 2305 H 208.787 0.0653622 3.91745 0
M  V30 2306 H 210.484 0.450904 3.98457 0
M  V30 2307 H 207.074 1.87846 3.85242 0
M  V30 2308 H 211.258 2.83371 4.07449 0
M  V30 2309 H 206.514 4.19734 4.44559 0
M  V30 2310 H 210.688 5.15623 4.68087 0
M  V30 2311 H 208.315 5.84306 4.86303 0
M  V30 2312 N 209.89 -1.43072 0.660911 0
M  V30 2313 C 211.118 -2.06067 0.185422 0
M  V30 2314 C 211.533 -1.49582 -1.15198 0
M  V30 2315 O 210.89 -0.630134 -1.71276 0
M  V30 2316 C 210.941 -3.61371 0.0966523 0
M  V30 2317 O 210.662 -4.15758 1.38119 0
M  V30 2318 C 212.163 -4.41455 -0.403996 0
M  V30 2319 H 209.383 -0.664459 0.0934604 0
M  V30 2320 H 211.927 -1.83447 0.90373 0
M  V30 2321 H 210.082 -3.8315 -0.572259 0
M  V30 2322 H 210.496 -5.09499 1.24542 0
M  V30 2323 H 211.97 -5.50437 -0.415045 0
M  V30 2324 H 212.447 -4.15036 -1.43674 0
M  V30 2325 H 213.053 -4.24663 0.232691 0
M  V30 2326 N 211.368 -0.403325 -1.52352 0
M  V30 2327 C 212.616 0.174003 -2.0135 0
M  V30 2328 C 212.937 1.46139 -1.29106 0
M  V30 2329 O 212.207 1.91448 -0.415253 0
M  V30 2330 H 210.787 0.0672911 -0.743963 0
M  V30 2331 H 213.449 -0.538235 -1.87321 0
M  V30 2332 H 212.545 0.374254 -3.09848 0
M  V30 2333 N 212.846 1.57033 -0.133567 0
M  V30 2334 C 213.756 2.19632 0.824564 0
M  V30 2335 C 214.772 1.17666 1.28182 0
M  V30 2336 O 215.948 1.50193 1.3418 0
M  V30 2337 C 213.013 2.79499 2.05137 0
M  V30 2338 C 212.074 3.96548 1.64464 0
M  V30 2339 C 211.307 4.5355 2.81297 0
M  V30 2340 O 211.53 4.09438 3.97136 0
M  V30 2341 O 210.464 5.44018 2.57542 0
M  V30 2342 H 214.29 3.01991 0.321766 0
M  V30 2343 H 211.875 1.49112 0.0927889 0
M  V30 2344 H 213.757 3.17602 2.7696 0
M  V30 2345 H 212.432 2.00162 2.54395 0
M  V30 2346 H 211.339 3.63186 0.897048 0
M  V30 2347 H 212.672 4.77364 1.19934 0
M  V30 2348 N 214.325 -0.140222 1.56975 0
M  V30 2349 C 215.736 -0.699596 1.73097 0
M  V30 2350 C 216.087 -1.8134 0.749022 0
M  V30 2351 O 215.212 -2.16241 -0.0828503 0
M  V30 2352 C 215.807 -1.27582 3.1386 0
M  V30 2353 C 214.366 -1.78169 3.31561 0
M  V30 2354 C 213.513 -0.672855 2.69013 0
M  V30 2355 H 216.464 0.0855115 1.58469 0
M  V30 2356 H 216.485 -2.14561 3.14235 0
M  V30 2357 H 215.997 -0.464955 3.85305 0
M  V30 2358 H 214.098 -2.61801 2.65124 0
M  V30 2359 H 214.211 -1.90574 4.39566 0
M  V30 2360 H 212.575 -1.10118 2.29665 0
M  V30 2361 H 213.358 0.126679 3.43066 0
M  V30 2362 N 215.803 -1.52179 -0.40978 0
M  V30 2363 C 216.733 -1.78435 -1.5061 0
M  V30 2364 C 217.714 -0.635295 -1.57791 0
M  V30 2365 O 218.899 -0.880823 -1.73076 0
M  V30 2366 C 216.029 -1.93444 -2.88439 0
M  V30 2367 C 214.983 -3.09038 -2.96108 0
M  V30 2368 C 214.309 -3.09268 -4.36185 0
M  V30 2369 C 215.609 -4.48508 -2.67652 0
M  V30 2370 H 217.303 -2.70237 -1.28889 0
M  V30 2371 H 214.849 -1.30036 -0.618605 0
M  V30 2372 H 216.802 -2.10394 -3.65119 0
M  V30 2373 H 215.526 -0.983129 -3.11452 0
M  V30 2374 H 214.185 -2.91837 -2.21872 0
M  V30 2375 H 213.833 -2.11861 -4.56206 0
M  V30 2376 H 213.533 -3.86907 -4.42241 0
M  V30 2377 H 215.057 -3.28348 -5.14801 0
M  V30 2378 H 216.471 -4.65918 -3.34056 0
M  V30 2379 H 214.868 -5.28059 -2.85085 0
M  V30 2380 H 215.938 -4.56649 -1.63095 0
M  V30 2381 N 217.281 0.66697 -1.42791 0
M  V30 2382 C 218.506 1.46004 -1.47301 0
M  V30 2383 C 218.931 1.87894 -0.0880317 0
M  V30 2384 O 218.289 1.56502 0.915253 0
M  V30 2385 C 218.337 2.68031 -2.41229 0
M  V30 2386 O 217.441 3.6659 -1.88906 0
M  V30 2387 H 216.782 0.43832 -0.49877 0
M  V30 2388 H 219.312 0.817391 -1.87563 0
M  V30 2389 H 219.322 3.1601 -2.58073 0
M  V30 2390 H 217.997 2.36883 -3.41847 0
M  V30 2391 H 216.574 3.25661 -1.81656 0
M  V30 2392 N 218.759 1.29093 0.90403 0
M  V30 2393 C 220.006 1.16813 1.65411 0
M  V30 2394 C 220.334 -0.28128 1.92455 0
M  V30 2395 O 219.589 -1.22006 1.53013 0
M  V30 2396 C 219.888 1.92224 3.01305 0
M  V30 2397 C 219.554 3.41968 2.93885 0
M  V30 2398 C 218.216 3.82807 2.91569 0
M  V30 2399 C 220.568 4.37409 2.83413 0
M  V30 2400 C 217.896 5.1741 2.76594 0
M  V30 2401 C 220.248 5.72097 2.69977 0
M  V30 2402 C 218.912 6.12199 2.66024 0
M  V30 2403 H 218.182 0.42745 0.605283 0
M  V30 2404 H 220.829 1.59981 1.05254 0
M  V30 2405 H 219.134 1.41635 3.65304 0
M  V30 2406 H 220.831 1.80131 3.58265 0
M  V30 2407 H 217.421 3.09504 2.96488 0
M  V30 2408 H 221.605 4.06813 2.84283 0
M  V30 2409 H 216.861 5.47596 2.71935 0
M  V30 2410 H 221.035 6.45704 2.60844 0
M  V30 2411 H 218.662 7.16448 2.54178 0
M  V30 2412 N 220.237 -1.11381 1.11499 0
M  V30 2413 C 221.147 -2.21019 0.786628 0
M  V30 2414 C 222.163 -1.72597 -0.220507 0
M  V30 2415 O 223.339 -2.01321 -0.0565251 0
M  V30 2416 C 220.404 -3.459 0.235333 0
M  V30 2417 C 219.465 -4.09107 1.30115 0
M  V30 2418 C 218.698 -5.28027 0.776068 0
M  V30 2419 O 218.921 -5.6904 -0.393661 0
M  V30 2420 O 217.855 -5.81835 1.54114 0
M  V30 2421 H 221.681 -2.51521 1.70209 0
M  V30 2422 H 219.266 -1.19928 0.890928 0
M  V30 2423 H 221.148 -4.21346 -0.067715 0
M  V30 2424 H 219.823 -3.17049 -0.652828 0
M  V30 2425 H 218.73 -3.35391 1.65722 0
M  V30 2426 H 220.063 -4.42139 2.16273 0
M  V30 2427 N 221.715 -0.905404 -1.28997 0
M  V30 2428 C 222.645 -0.404212 -2.29975 0
M  V30 2429 C 223.626 0.523784 -1.61835 0
M  V30 2430 O 224.811 0.433298 -1.89304 0
M  V30 2431 C 221.941 0.364042 -3.45387 0
M  V30 2432 C 220.895 -0.474048 -4.25367 0
M  V30 2433 C 220.221 0.422045 -5.33032 0
M  V30 2434 C 221.521 -1.72696 -4.92923 0
M  V30 2435 H 223.215 -1.24807 -2.72146 0
M  V30 2436 H 220.761 -0.601585 -1.30832 0
M  V30 2437 H 222.714 0.725447 -4.15109 0
M  V30 2438 H 221.438 1.24174 -3.02074 0
M  V30 2439 H 220.097 -0.81786 -3.57361 0
M  V30 2440 H 219.745 1.29804 -4.85963 0
M  V30 2441 H 219.445 -0.135057 -5.87445 0
M  V30 2442 H 220.969 0.779517 -6.05604 0
M  V30 2443 H 222.383 -1.43495 -5.55051 0
M  V30 2444 H 220.78 -2.22582 -5.57295 0
M  V30 2445 H 221.85 -2.45964 -4.17887 0
M  V30 2446 N 223.193 1.4272 -0.668489 0
M  V30 2447 C 224.439 2.01923 -0.188419 0
M  V30 2448 C 224.772 1.52704 1.19979 0
M  V30 2449 O 224.047 0.726566 1.8042 0
M  V30 2450 C 224.33 3.59451 -0.216085 0
M  V30 2451 C 224.183 4.18864 -1.6393 0
M  V30 2452 C 225.502 4.37903 0.439179 0
M  V30 2453 H 222.621 0.733674 -0.0699412 0
M  V30 2454 H 225.263 1.69822 -0.852076 0
M  V30 2455 H 223.413 3.86929 0.349012 0
M  V30 2456 H 225.085 4.02362 -2.25616 0
M  V30 2457 H 223.328 3.74933 -2.18193 0
M  V30 2458 H 223.999 5.27987 -1.61039 0
M  V30 2459 H 226.475 4.16079 -0.0417878 0
M  V30 2460 H 225.351 5.47519 0.389157 0
M  V30 2461 H 225.612 4.15303 1.51577 0
M  V30 2462 N 224.671 0.411399 1.52136 0
M  V30 2463 C 225.581 -0.419774 2.30814 0
M  V30 2464 C 226.597 -1.0515 1.38634 0
M  V30 2465 O 227.773 -1.05252 1.71709 0
M  V30 2466 C 224.838 -1.52019 3.11594 0
M  V30 2467 C 223.899 -0.91129 4.19516 0
M  V30 2468 C 223.132 -1.95927 4.96436 0
M  V30 2469 O 223.355 -3.17775 4.73683 0
M  V30 2470 O 222.289 -1.56423 5.81219 0
M  V30 2471 H 226.115 0.221805 3.02889 0
M  V30 2472 H 223.7 0.174547 1.48377 0
M  V30 2473 H 225.582 -2.15898 3.61892 0
M  V30 2474 H 224.257 -2.14633 2.42311 0
M  V30 2475 H 223.164 -0.235157 3.7336 0
M  V30 2476 H 224.497 -0.32904 4.91099 0
M  V30 2477 N 226.149 -1.5696 0.141893 0
M  V30 2478 C 227.059 -2.20066 -0.812905 0
M  V30 2479 C 228.075 -1.18344 -1.27557 0
M  V30 2480 O 229.251 -1.50902 -1.33381 0
M  V30 2481 C 226.316 -2.80583 -2.03652 0
M  V30 2482 C 225.377 -3.97414 -1.62359 0
M  V30 2483 C 224.61 -4.55036 -2.78887 0
M  V30 2484 O 224.833 -4.11538 -3.94959 0
M  V30 2485 O 223.767 -5.45376 -2.54653 0
M  V30 2486 H 227.593 -3.02157 -0.305746 0
M  V30 2487 H 225.178 -1.49159 -0.0848799 0
M  V30 2488 H 227.06 -3.19067 -2.75272 0
M  V30 2489 H 225.735 -2.01508 -2.5333 0
M  V30 2490 H 224.642 -3.63656 -0.877775 0
M  V30 2491 H 225.975 -4.77994 -1.17401 0
M  V30 2492 N 227.627 0.131896 -1.57047 0
M  V30 2493 C 228.557 1.16384 -2.02428 0
M  V30 2494 C 229.538 1.43936 -0.90644 0
M  V30 2495 O 230.723 1.54599 -1.17528 0
M  V30 2496 C 227.853 2.49328 -2.4177 0
M  V30 2497 C 226.807 2.36266 -3.56879 0
M  V30 2498 C 226.133 3.74057 -3.8208 0
M  V30 2499 C 227.433 1.834 -4.89042 0
M  V30 2500 H 229.127 0.786433 -2.88887 0
M  V30 2501 H 226.673 0.376855 -1.38981 0
M  V30 2502 H 228.626 3.21759 -2.7212 0
M  V30 2503 H 227.35 2.88934 -1.52266 0
M  V30 2504 H 226.009 1.66286 -3.26718 0
M  V30 2505 H 225.657 4.11125 -2.89803 0
M  V30 2506 H 225.357 3.66174 -4.59554 0
M  V30 2507 H 226.881 4.48012 -4.1487 0
M  V30 2508 H 228.295 2.45636 -5.18011 0
M  V30 2509 H 226.692 1.8637 -5.70426 0
M  V30 2510 H 227.762 0.790662 -4.7841 0
M  V30 2511 N 229.106 1.52395 0.401703 0
M  V30 2512 C 230.383 1.57387 1.16141 0
M  V30 2513 C 230.763 0.359359 2.08019 0
M  V30 2514 O 230.111 -0.65326 2.18963 0
M  V30 2515 C 230.321 2.90631 1.93221 0
M  V30 2516 C 231.669 3.43904 2.49028 0
M  V30 2517 O 232.693 2.92421 2.03393 0
M  V30 2518 O 231.552 4.33823 3.32356 0
M  V30 2519 H 228.646 0.634262 0.530698 0
M  V30 2520 H 231.192 1.64725 0.407883 0
M  V30 2521 H 229.964 3.70473 1.25958 0
M  V30 2522 H 229.587 2.8662 2.75563 0
M  V30 2523 N 230.584 -0.659388 1.43143 0
M  V30 2524 C 231.494 -1.80167 1.50256 0
M  V30 2525 C 232.51 -1.69571 0.390106 0
M  V30 2526 O 233.686 -1.90849 0.643319 0
M  V30 2527 C 230.751 -3.16409 1.41725 0
M  V30 2528 C 229.812 -3.38848 2.63591 0
M  V30 2529 C 229.045 -4.68591 2.55458 0
M  V30 2530 O 229.268 -5.47532 1.59891 0
M  V30 2531 O 228.202 -4.92614 3.45854 0
M  V30 2532 H 232.028 -1.77121 2.46702 0
M  V30 2533 H 229.613 -0.817092 1.25076 0
M  V30 2534 H 231.495 -3.9768 1.39387 0
M  V30 2535 H 230.17 -3.20059 0.484118 0
M  V30 2536 H 229.077 -2.57366 2.71502 0
M  V30 2537 H 230.41 -3.4004 3.55856 0
M  V30 2538 N 232.062 -1.29571 -0.897171 0
M  V30 2539 C 233.29 -1.20583 -1.68129 0
M  V30 2540 C 233.705 0.233181 -1.87354 0
M  V30 2541 O 233.062 1.15579 -1.41236 0
M  V30 2542 C 233.113 -1.91772 -3.06441 0
M  V30 2543 O 232.834 -3.30053 -2.88091 0
M  V30 2544 C 234.335 -1.89291 -4.00854 0
M  V30 2545 H 231.555 -0.417826 -0.525036 0
M  V30 2546 H 234.099 -1.70987 -1.12177 0
M  V30 2547 H 232.254 -1.45196 -3.59161 0
M  V30 2548 H 232.668 -3.65942 -3.75748 0
M  V30 2549 H 234.142 -2.43662 -4.95311 0
M  V30 2550 H 234.619 -0.869014 -4.30517 0
M  V30 2551 H 235.225 -2.35622 -3.54066 0
M  V30 2552 N 233.54 1.10788 -1.12088 0
M  V30 2553 C 234.765 1.87002 -0.896949 0
M  V30 2554 C 235.19 1.79933 0.548261 0
M  V30 2555 O 234.548 1.16662 1.38779 0
M  V30 2556 C 234.596 3.3349 -1.37174 0
M  V30 2557 O 233.7 4.08745 -0.547831 0
M  V30 2558 H 233.041 0.580397 -0.322545 0
M  V30 2559 H 235.571 1.39996 -1.49206 0
M  V30 2560 H 235.581 3.84339 -1.36922 0
M  V30 2561 H 234.256 3.37951 -2.42408 0
M  V30 2562 H 232.833 3.6776 -0.617034 0
M  V30 2563 N 235.018 0.912232 1.28515 0
M  V30 2564 C 236.434 0.610159 1.47476 0
M  V30 2565 C 236.634 -0.844955 1.82928 0
M  V30 2566 O 235.69 -1.62416 1.93332 0
M  V30 2567 C 237.003 1.54675 2.57868 0
M  V30 2568 C 238.551 1.55331 2.71738 0
M  V30 2569 C 239.026 2.47649 3.85272 0
M  V30 2570 N 240.517 2.45767 3.92623 0
M  V30 2571 C 241.252 3.13896 4.79851 0
M  V30 2572 N 240.748 3.9135 5.71679 0
M  V30 2573 N 242.541 3.02991 4.73448 0
M  V30 2574 H 234.692 1.85318 1.03783 0
M  V30 2575 H 236.955 0.794777 0.516753 0
M  V30 2576 H 236.661 2.5841 2.38574 0
M  V30 2577 H 236.535 1.27671 3.54937 0
M  V30 2578 H 238.922 0.52335 2.90422 0
M  V30 2579 H 239.003 1.86378 1.75205 0
M  V30 2580 H 238.647 3.50745 3.67342 0
M  V30 2581 H 238.577 2.13904 4.81199 0
M  V30 2582 H 241.068 1.89503 3.26951 0
M  V30 2583 H 241.381 4.40359 6.35062 0
M  V30 2584 H 239.726 3.95455 5.71524 0
M  V30 2585 H 242.917 2.41987 4.007 0
M  V30 2586 H 243.09 3.5636 5.41213 0
M  V30 2587 N 236.496 -1.42363 0.676048 0
M  V30 2588 C 237.744 -2.01123 0.198437 0
M  V30 2589 C 238.065 -1.53731 -1.19966 0
M  V30 2590 O 237.335 -0.759518 -1.80577 0
M  V30 2591 H 235.915 -0.743678 0.0703721 0
M  V30 2592 H 238.577 -1.74263 0.872837 0
M  V30 2593 H 237.673 -3.11454 0.200686 0
M  V30 2594 N 237.974 -0.419461 -1.51915 0
M  V30 2595 C 238.884 0.407528 -2.31033 0
M  V30 2596 C 239.9 1.04413 -1.3919 0
M  V30 2597 O 241.076 1.0434 -1.72265 0
M  V30 2598 C 238.141 1.50365 -3.12396 0
M  V30 2599 C 237.202 0.889029 -4.19994 0
M  V30 2600 C 236.435 1.93291 -4.97468 0
M  V30 2601 O 236.658 3.15259 -4.75361 0
M  V30 2602 O 235.592 1.53339 -5.8204 0
M  V30 2603 H 239.418 -0.237865 -3.02767 0
M  V30 2604 H 237.003 -0.182413 -1.48282 0
M  V30 2605 H 238.885 2.13975 -3.63032 0
M  V30 2606 H 237.56 2.13345 -2.43445 0
M  V30 2607 H 236.467 0.215353 -3.7348 0
M  V30 2608 H 237.8 0.302991 -4.91267 0
M  V30 2609 N 239.452 1.56882 -0.150215 0
M  V30 2610 C 240.7 1.9584 0.499105 0
M  V30 2611 C 241.021 1.03623 1.65188 0
M  V30 2612 O 240.291 0.0984084 1.95653 0
M  V30 2613 H 238.871 0.723119 0.187373 0
M  V30 2614 H 241.533 1.9358 -0.226466 0
M  V30 2615 H 240.629 2.99638 0.873122 0
M  V30 2616 N 240.93 -0.123565 1.57115 0
M  V30 2617 C 242.178 -0.83051 1.84247 0
M  V30 2618 C 242.499 -1.80629 0.73471 0
M  V30 2619 O 241.769 -1.94403 -0.241688 0
M  V30 2620 H 240.349 -0.309694 0.679778 0
M  V30 2621 H 243.011 -0.111976 1.94578 0
M  V30 2622 H 242.107 -1.37852 2.80006 0
M  V30 2623 N 242.408 -1.52605 -0.393616 0
M  V30 2624 C 243.655 -1.67424 -1.1391 0
M  V30 2625 C 243.983 -0.411859 -1.90089 0
M  V30 2626 O 243.238 0.605626 -1.86093 0
M  V30 2627 C 243.537 -2.85721 -2.14705 0
M  V30 2628 C 243.203 -4.23342 -1.55218 0
M  V30 2629 C 241.865 -4.60771 -1.3872 0
M  V30 2630 C 244.217 -5.09041 -1.11924 0
M  V30 2631 C 241.545 -5.81563 -0.774689 0
M  V30 2632 C 243.897 -6.30452 -0.520853 0
M  V30 2633 C 242.561 -6.66617 -0.343134 0
M  V30 2634 H 241.831 -0.612648 -0.416826 0
M  V30 2635 H 244.478 -1.8674 -0.424315 0
M  V30 2636 H 242.783 -2.60803 -2.92385 0
M  V30 2637 H 244.48 -2.94382 -2.72288 0
M  V30 2638 H 241.07 -3.93855 -1.69045 0
M  V30 2639 H 245.254 -4.80695 -1.23473 0
M  V30 2640 H 240.51 -6.08196 -0.625154 0
M  V30 2641 H 244.684 -6.96175 -0.177065 0
M  V30 2642 H 242.311 -7.60083 0.133571 0
M  V30 2643 N 243.887 0.651787 -1.4349 0
M  V30 2644 C 245.135 1.40888 -1.44897 0
M  V30 2645 C 245.456 1.94856 -0.0749086 0
M  V30 2646 O 244.726 1.74518 0.889956 0
M  V30 2647 H 243.306 0.522887 -0.533478 0
M  V30 2648 H 245.968 0.768609 -1.79104 0
M  V30 2649 H 245.064 2.25052 -2.16236 0
M  V30 2650 N 245.365 1.30045 0.890287 0
M  V30 2651 C 246.59 1.21598 1.68014 0
M  V30 2652 C 247.015 -0.218678 1.86825 0
M  V30 2653 O 246.373 -1.15756 1.39536 0
M  V30 2654 C 246.421 1.94434 3.03691 0
M  V30 2655 O 245.525 1.2678 3.92429 0
M  V30 2656 H 244.866 0.420856 0.513592 0
M  V30 2657 H 247.396 1.71775 1.11151 0
M  V30 2658 H 247.406 2.03251 3.5377 0
M  V30 2659 H 246.081 2.98777 2.89318 0
M  V30 2660 H 244.658 1.26282 3.50866 0
M  V30 2661 N 246.843 -1.10192 1.12674 0
M  V30 2662 C 248.071 -1.85983 0.906527 0
M  V30 2663 C 248.486 -1.80783 -0.544333 0
M  V30 2664 O 247.843 -1.19834 -1.37645 0
M  V30 2665 C 247.894 -3.34281 1.37618 0
M  V30 2666 O 247.615 -3.39401 2.77017 0
M  V30 2667 C 249.116 -4.26938 1.19325 0
M  V30 2668 H 246.336 -0.587716 0.323775 0
M  V30 2669 H 248.88 -1.39284 1.49734 0
M  V30 2670 H 247.035 -3.78436 0.828539 0
M  V30 2671 H 247.449 -4.31838 2.97684 0
M  V30 2672 H 248.923 -5.29181 1.57071 0
M  V30 2673 H 249.4 -4.38995 0.134097 0
M  V30 2674 H 250.006 -3.8859 1.72852 0
M  V30 2675 N 248.321 -0.919034 -1.28029 0
M  V30 2676 C 249.546 -0.570357 -1.99403 0
M  V30 2677 C 249.971 0.842486 -1.68178 0
M  V30 2678 O 249.329 1.56391 -0.917141 0
M  V30 2679 C 249.377 -0.792541 -3.51783 0
M  V30 2680 O 248.481 0.145988 -4.12142 0
M  V30 2681 H 247.822 -0.220555 -0.6263 0
M  V30 2682 H 250.352 -1.23592 -1.63053 0
M  V30 2683 H 250.362 -0.704708 -4.01868 0
M  V30 2684 H 249.037 -1.82247 -3.73844 0
M  V30 2685 H 247.614 0.00897528 -3.72899 0
M  V30 2686 N 249.799 1.42003 -0.683588 0
M  V30 2687 C 250.747 2.326 0.000815408 0
M  V30 2688 C 251.741 1.50308 0.781278 0
M  V30 2689 O 252.947 1.66322 0.688251 0
M  V30 2690 H 249.322 0.751758 0.0190616 0
M  V30 2691 H 251.293 2.88011 -0.780528 0
M  V30 2692 C 250.042 3.34978 0.93195 0
M  V30 2693 H 249.365 3.98345 0.340817 0
M  V30 2694 H 250.805 4.00936 1.37936 0
M  V30 2695 C 249.264 2.67925 2.04249 0
M  V30 2696 O 249.794 2.51788 3.12995 0
M  V30 2697 N 248 2.2681 1.81675 0
M  V30 2698 H 247.547 2.40135 0.932363 0
M  V30 2699 H 247.505 1.8228 2.56167 0
M  V30 2700 N 251.277 0.427512 1.51691 0
M  V30 2701 C 252.225 -0.403359 2.29076 0
M  V30 2702 C 253.219 -1.02962 1.34518 0
M  V30 2703 O 254.425 -0.965715 1.51901 0
M  V30 2704 H 250.8 -0.148879 0.737115 0
M  V30 2705 H 252.771 0.270295 2.97173 0
M  V30 2706 C 251.52 -1.49763 3.13794 0
M  V30 2707 H 250.843 -1.02508 3.86435 0
M  V30 2708 H 252.283 -2.05244 3.71014 0
M  V30 2709 C 250.742 -2.47536 2.28533 0
M  V30 2710 O 251.272 -3.51848 1.93819 0
M  V30 2711 N 249.478 -2.18187 1.91945 0
M  V30 2712 H 249.025 -1.33389 2.20375 0
M  V30 2713 H 248.983 -2.83848 1.35195 0
M  V30 2714 N 252.755 -1.56801 0.158532 0
M  V30 2715 C 253.702 -2.17337 -0.776729 0
M  V30 2716 C 254.672 -1.1096 -1.23601 0
M  V30 2717 O 255.857 -1.39054 -1.30647 0
M  V30 2718 C 252.997 -2.80822 -2.00582 0
M  V30 2719 C 252.11 -4.01624 -1.59129 0
M  V30 2720 C 251.245 -4.53072 -2.77306 0
M  V30 2721 C 250.284 -5.66314 -2.32282 0
M  V30 2722 N 249.421 -6.12329 -3.43508 0
M  V30 2723 H 254.261 -2.96918 -0.253701 0
M  V30 2724 H 251.798 -1.46661 -0.113504 0
M  V30 2725 H 253.756 -3.15779 -2.72652 0
M  V30 2726 H 252.386 -2.03866 -2.50277 0
M  V30 2727 H 251.438 -3.72571 -0.767806 0
M  V30 2728 H 252.75 -4.83633 -1.2207 0
M  V30 2729 H 251.904 -4.90145 -3.57551 0
M  V30 2730 H 250.643 -3.70095 -3.17617 0
M  V30 2731 H 249.648 -5.28806 -1.5048 0
M  V30 2732 H 250.873 -6.51085 -1.93043 0
M  V30 2733 H 248.819 -5.32284 -3.83418 0
M  V30 2734 H 248.736 -6.89293 -3.105 0
M  V30 2735 H 250.004 -6.5405 -4.24075 0
M  V30 2736 N 254.233 0.115231 -1.57178 0
M  V30 2737 C 255.463 0.835224 -1.88964 0
M  V30 2738 C 255.871 1.73774 -0.74829 0
M  V30 2739 O 255.214 1.81401 0.289739 0
M  V30 2740 C 255.276 1.7178 -3.15804 0
M  V30 2741 C 254.94 0.989198 -4.46166 0
M  V30 2742 C 255.937 0.328263 -5.18863 0
M  V30 2743 C 253.622 0.969256 -4.9286 0
M  V30 2744 C 255.616 -0.342873 -6.36477 0
M  V30 2745 C 253.303 0.294324 -6.10391 0
M  V30 2746 C 254.301 -0.360582 -6.82048 0
M  V30 2747 O 253.989 -1.02474 -7.97342 0
M  V30 2748 H 253.721 0.245197 -0.629964 0
M  V30 2749 H 256.275 0.10303 -2.05141 0
M  V30 2750 H 254.505 2.49173 -2.95719 0
M  V30 2751 H 256.194 2.31255 -3.33581 0
M  V30 2752 H 256.96 0.335263 -4.8384 0
M  V30 2753 H 252.839 1.46844 -4.36987 0
M  V30 2754 H 256.383 -0.854629 -6.92345 0
M  V30 2755 H 252.28 0.285099 -6.4487 0
M  V30 2756 H 253.048 -0.929594 -8.13204 0
M  V30 2757 O 255.75 1.59401 0.259507 0
M  V30 2758 H 256.441 1.71327 0.903706 0
M  V30 END ATOM
M  V30 BEGIN BOND
M  V30 END BOND
M  V30 END CTAB
M  END
$$$$
