drugbank_target|P0AC41 Succinate dehydrogenase flavoprotein subunit (DB04631; DB07671; DB08690)
 OpenBabel12092120303D

  0  0  0     0  0            999 V3000
M  V30 BEGIN CTAB
M  V30 COUNTS 8948 9037 0 0 0
M  V30 BEGIN ATOM
M  V30 1 H -0.908 1.98254 -0.117106 0
M  V30 2 N 0 1.576 0 0
M  V30 3 C 0.933 2.03868 1.02534 0
M  V30 4 C 1.911 0.928543 1.3348 0
M  V30 5 O 3.095 1.19667 1.45644 0
M  V30 6 C 0.222 2.43627 2.35294 0
M  V30 7 C -0.732 3.65373 2.2001 0
M  V30 8 S 0.101 5.13292 1.52614 0
M  V30 9 C 1.257 5.56322 2.86805 0
M  V30 10 H 1.49 2.90518 0.631377 0
M  V30 11 H -0.977 1.52953 0.210867 0
M  V30 12 H 0.981 2.67203 3.11629 0
M  V30 13 H -0.358 1.57376 2.7183 0
M  V30 14 H -1.165 3.90944 3.18086 0
M  V30 15 H -1.563 3.418 1.51819 0
M  V30 16 H 0.729 5.58782 3.83104 0
M  V30 17 H 1.672 6.56266 2.65933 0
M  V30 18 H 2.08 4.83886 2.90714 0
M  V30 19 N 1.4781 -0.272755 1.55222 0
M  V30 20 C 2.4251 -1.33716 1.88119 0
M  V30 21 C 3.3951 -1.49066 0.73271 0
M  V30 22 O 4.5801 -1.63469 0.984002 0
M  V30 23 C 1.7201 -2.69238 2.15882 0
M  V30 24 C 0.8331 -2.62108 3.43399 0
M  V30 25 C -0.0319 -3.89811 3.60861 0
M  V30 26 C -0.9929 -3.77193 4.8207 0
M  V30 27 N -1.8559 -4.9673 4.96189 0
M  V30 28 H 2.9841 -1.04962 2.78903 0
M  V30 29 H 0.5211 -0.507088 1.38083 0
M  V30 30 H 2.4791 -3.48089 2.29978 0
M  V30 31 H 1.1091 -2.96194 1.28331 0
M  V30 32 H 0.1611 -1.74967 3.37773 0
M  V30 33 H 1.4731 -2.48685 4.32386 0
M  V30 34 H 0.6271 -4.77103 3.74777 0
M  V30 35 H -0.6339 -4.06102 2.7006 0
M  V30 36 H -1.6289 -2.88284 4.68159 0
M  V30 37 H -0.4039 -3.62421 5.74307 0
M  V30 38 H -2.4579 -5.13431 4.08319 0
M  V30 39 H -2.5409 -4.85839 5.79221 0
M  V30 40 H -1.2729 -5.85594 5.1449 0
M  V30 41 N 2.9562 -1.48159 -0.537278 0
M  V30 42 C 3.8862 -1.65029 -1.6519 0
M  V30 43 C 4.8672 -0.499281 -1.62607 0
M  V30 44 O 6.0522 -0.730972 -1.79918 0
M  V30 45 C 3.1822 -1.68303 -3.03795 0
M  V30 46 C 2.1362 -2.8283 -3.21234 0
M  V30 47 C 1.4622 -2.71189 -4.60826 0
M  V30 48 C 2.7622 -4.24211 -3.04701 0
M  V30 49 H 4.4562 -2.58341 -1.51328 0
M  V30 50 H 2.0022 -1.24325 -0.726585 0
M  V30 51 H 3.9552 -1.78693 -3.81637 0
M  V30 52 H 2.6792 -0.715635 -3.18663 0
M  V30 53 H 1.3382 -2.71983 -2.45807 0
M  V30 54 H 0.9862 -1.72435 -4.7252 0
M  V30 55 H 0.6862 -3.48035 -4.7344 0
M  V30 56 H 2.2102 -2.83537 -5.40777 0
M  V30 57 H 3.6242 -4.3593 -3.72341 0
M  V30 58 H 2.0212 -5.01998 -3.28813 0
M  V30 59 H 3.0912 -4.41184 -2.01209 0
M  V30 60 N 4.4343 0.785586 -1.36625 0
M  V30 61 C 5.8453 1.36101 -1.27803 0
M  V30 62 C 6.1963 1.96035 0.0804875 0
M  V30 63 O 5.3213 1.92834 0.982042 0
M  V30 64 C 5.9163 2.47442 -2.31426 0
M  V30 65 C 4.4753 3.00789 -2.26281 0
M  V30 66 C 3.6223 1.73896 -2.15999 0
M  V30 67 H 6.5733 0.586928 -1.47448 0
M  V30 68 H 6.5943 3.2656 -1.95291 0
M  V30 69 H 6.1063 2.03791 -3.30289 0
M  V30 70 H 4.2073 3.48851 -1.30896 0
M  V30 71 H 4.3203 3.57343 -3.19128 0
M  V30 72 H 2.6843 1.9628 -1.62316 0
M  V30 73 H 3.4673 1.32368 -3.16755 0
M  V30 74 N 5.9124 1.20967 1.01018 0
M  V30 75 C 7.1584 1.02526 1.74975 0
M  V30 76 C 7.4914 -0.4408 1.89131 0
M  V30 77 O 6.7664 -1.32718 1.42184 0
M  V30 78 C 7.0494 1.71699 3.1653 0
M  V30 79 C 6.9024 3.25791 3.10129 0
M  V30 80 C 8.2214 1.45531 4.15342 0
M  V30 81 H 5.3404 0.373863 0.635134 0
M  V30 82 H 7.9824 1.49071 1.17805 0
M  V30 83 H 6.1324 1.32128 3.65341 0
M  V30 84 H 7.8044 3.74697 2.69072 0
M  V30 85 H 6.0474 3.56363 2.47362 0
M  V30 86 H 6.7184 3.69353 4.10222 0
M  V30 87 H 9.1944 1.79872 3.75213 0
M  V30 88 H 8.0704 1.96453 5.1254 0
M  V30 89 H 8.3314 0.384237 4.40427 0
M  V30 90 N 7.3905 -1.2043 1.01659 0
M  V30 91 C 8.8065 -1.41852 0.731442 0
M  V30 92 C 9.0065 -1.89358 -0.688898 0
M  V30 93 O 8.0625 -2.06247 -1.45666 0
M  V30 94 C 9.3755 -2.44019 1.75714 0
M  V30 95 C 10.9235 -2.57785 1.77527 0
M  V30 96 C 11.3985 -3.63194 2.79023 0
M  V30 97 N 12.8895 -3.70678 2.77763 0
M  V30 98 C 13.6245 -4.51897 3.52954 0
M  V30 99 N 13.1205 -5.36921 4.37821 0
M  V30 100 N 14.9135 -4.4643 3.41551 0
M  V30 101 H 7.0645 -0.879093 1.93354 0
M  V30 102 H 9.3275 -0.448425 0.835236 0
M  V30 103 H 9.0335 -2.1611 2.77469 0
M  V30 104 H 8.9075 -3.43007 1.56927 0
M  V30 105 H 11.2945 -2.85023 0.764569 0
M  V30 106 H 11.3755 -1.58992 2.00387 0
M  V30 107 H 11.0195 -3.36699 3.80258 0
M  V30 108 H 10.9495 -4.61609 2.53425 0
M  V30 109 H 13.4405 -3.09944 2.16201 0
M  V30 110 H 13.7535 -5.95981 4.91962 0
M  V30 111 H 12.0985 -5.36424 4.41899 0
M  V30 112 H 15.2895 -3.79042 2.74672 0
M  V30 113 H 15.4625 -5.09491 4.00404 0
M  V30 114 N 8.8686 -0.792821 -1.36206 0
M  V30 115 C 9.7786 -0.194808 -2.3379 0
M  V30 116 C 10.7946 0.654869 -1.61206 0
M  V30 117 O 11.9706 0.569856 -1.9317 0
M  V30 118 C 9.0356 0.657721 -3.40404 0
M  V30 119 C 8.0966 -0.210849 -4.28782 0
M  V30 120 C 7.3296 0.601086 -5.30304 0
M  V30 121 O 7.5526 1.83682 -5.40016 0
M  V30 122 O 6.4866 -0.000808277 -6.019 0
M  V30 123 H 10.3126 -1.00172 -2.86704 0
M  V30 124 H 7.8976 -0.554341 -1.38735 0
M  V30 125 H 9.7796 1.14375 -4.05581 0
M  V30 126 H 8.4546 1.44247 -2.89784 0
M  V30 127 H 7.3616 -0.743714 -3.66633 0
M  V30 128 H 8.6946 -0.959195 -4.82763 0
M  V30 129 N 10.3467 1.47872 -0.545128 0
M  V30 130 C 11.5937 2.02493 -0.0165858 0
M  V30 131 C 11.9217 1.42073 1.32836 0
M  V30 132 O 11.1767 0.561459 1.87473 0
M  V30 133 C 11.4757 3.57131 0.13867 0
M  V30 134 C 11.1417 4.36411 -1.13384 0
M  V30 135 C 9.8037 4.57792 -1.48256 0
M  V30 136 C 12.1557 4.82223 -1.97764 0
M  V30 137 C 9.4837 5.22233 -2.67376 0
M  V30 138 C 11.8357 5.47977 -3.16076 0
M  V30 139 C 10.4997 5.67593 -3.51275 0
M  V30 140 H 9.7697 0.740975 -0.00606918 0
M  V30 141 H 12.4167 1.77683 -0.714207 0
M  V30 142 H 10.7217 3.80865 0.919172 0
M  V30 143 H 12.4187 3.97031 0.562782 0
M  V30 144 H 9.0087 4.2004 -0.852297 0
M  V30 145 H 13.1927 4.65493 -1.72132 0
M  V30 146 H 8.4487 5.35616 -2.94831 0
M  V30 147 H 12.6227 5.8244 -3.81755 0
M  V30 148 H 10.2497 6.17298 -4.43675 0
M  V30 149 N 11.8248 0.280983 1.55075 0
M  V30 150 C 13.1018 -0.386207 1.91749 0
M  V30 151 C 13.4818 -1.73264 1.20594 0
M  V30 152 O 12.8298 -2.26034 0.334784 0
M  V30 153 C 13.0398 -0.520687 3.45094 0
M  V30 154 C 14.3878 -0.800865 4.16979 0
M  V30 155 O 15.4118 -0.605271 3.5102 0
M  V30 156 O 14.2708 -1.1753 5.33712 0
M  V30 157 H 11.3648 -0.212408 0.799257 0
M  V30 158 H 13.9108 0.327568 1.66509 0
M  V30 159 H 12.6828 0.426633 3.88967 0
M  V30 160 H 12.3058 -1.2837 3.76307 0
M  V30 161 N 13.3029 -1.57598 0.00835791 0
M  V30 162 C 14.2659 -2.07884 -0.965242 0
M  V30 163 C 15.2659 -0.989825 -1.26725 0
M  V30 164 O 16.4559 -1.25218 -1.21104 0
M  V30 165 C 13.5879 -2.52731 -2.28779 0
M  V30 166 H 14.7809 -2.95178 -0.530112 0
M  V30 167 H 12.3339 -1.54458 -0.239283 0
M  V30 168 H 13.0689 -1.68705 -2.76964 0
M  V30 169 H 12.8539 -3.32272 -2.08177 0
M  V30 170 H 14.3439 -2.91933 -2.98605 0
M  V30 171 N 14.781 0.264519 -1.55364 0
M  V30 172 C 16.027 0.99646 -1.76631 0
M  V30 173 C 16.36 1.85632 -0.570478 0
M  V30 174 O 15.635 1.89647 0.43175 0
M  V30 175 C 15.918 1.87187 -3.07625 0
M  V30 176 C 15.771 1.04138 -4.37579 0
M  V30 177 C 17.09 2.85749 -3.34717 0
M  V30 178 H 14.209 0.360841 -0.642622 0
M  V30 179 H 16.851 0.268218 -1.88097 0
M  V30 180 H 15.001 2.49279 -2.9798 0
M  V30 181 H 16.673 0.440517 -4.59192 0
M  V30 182 H 14.916 0.345115 -4.32425 0
M  V30 183 H 15.587 1.68729 -5.2558 0
M  V30 184 H 18.063 2.33793 -3.4421 0
M  V30 185 H 16.939 3.44136 -4.27623 0
M  V30 186 H 17.2 3.61311 -2.54768 0
M  V30 187 N 16.2591 1.48442 0.529413 0
M  V30 188 C 17.5051 1.5672 1.28711 0
M  V30 189 C 17.8381 0.2406 1.92704 0
M  V30 190 O 17.1131 -0.753454 1.79313 0
M  V30 191 C 17.3961 2.70587 2.37603 0
M  V30 192 C 17.2491 4.12953 1.78297 0
M  V30 193 C 18.5681 2.80212 3.39366 0
M  V30 194 H 15.6871 0.570474 0.466613 0
M  V30 195 H 18.3291 1.80617 0.589706 0
M  V30 196 H 16.4791 2.50342 2.97088 0
M  V30 197 H 18.1511 4.44639 1.22858 0
M  V30 198 H 16.3941 4.19927 1.0883 0
M  V30 199 H 17.0651 4.88448 2.57144 0
M  V30 200 H 19.5411 2.98553 2.89836 0
M  V30 201 H 18.4171 3.61611 4.12951 0
M  V30 202 H 18.6781 1.88393 3.99951 0
M  V30 203 N 17.7372 -0.778329 1.37039 0
M  V30 204 C 18.9862 -1.53189 1.3121 0
M  V30 205 C 19.2992 -1.95328 -0.103095 0
M  V30 206 O 20.5052 -2.70012 -0.283826 0
M  V30 207 C 18.9612 -2.76591 2.30272 0
M  V30 208 C 18.5692 -2.41577 3.77286 0
M  V30 209 C 20.3132 -3.5455 2.33441 0
M  V30 210 C 18.2202 -3.61441 4.68096 0
M  V30 211 H 17.1502 -0.5751 0.487622 0
M  V30 212 H 19.8012 -0.853101 1.62464 0
M  V30 213 H 18.1832 -3.46326 1.92027 0
M  V30 214 H 19.3572 -1.79668 4.2433 0
M  V30 215 H 17.6722 -1.76806 3.76999 0
M  V30 216 H 20.2692 -4.43628 2.98493 0
M  V30 217 H 20.6122 -3.93936 1.34611 0
M  V30 218 H 21.1452 -2.91805 2.7036 0
M  V30 219 H 17.8842 -3.27142 5.6803 0
M  V30 220 H 17.4042 -4.22478 4.25761 0
M  V30 221 H 19.0832 -4.28335 4.8491 0
M  V30 222 N 19.2153 -1.21501 -1.00376 0
M  V30 223 C 20.4633 -1.03095 -1.73827 0
M  V30 224 C 20.7843 0.436341 -1.90055 0
M  V30 225 O 20.0543 1.31466 -1.45236 0
M  V30 226 H 18.6343 -0.378487 -0.644016 0
M  V30 227 H 21.2963 -1.52831 -1.20949 0
M  V30 228 H 20.3923 -1.49991 -2.73695 0
M  V30 229 N 20.6934 1.19889 -1.02296 0
M  V30 230 C 21.6564 2.21116 -0.603351 0
M  V30 231 C 22.6564 1.5738 0.329884 0
M  V30 232 O 23.8464 1.73802 0.117702 0
M  V30 233 C 20.9784 3.40696 0.117992 0
M  V30 234 H 22.1714 2.59754 -1.49893 0
M  V30 235 H 19.7244 1.33463 -0.813468 0
M  V30 236 H 20.4594 3.07569 1.0282 0
M  V30 237 H 20.2444 3.88188 -0.552511 0
M  V30 238 H 21.7344 4.15692 0.398696 0
M  V30 239 N 22.1715 0.800033 1.35784 0
M  V30 240 C 23.4195 0.376597 1.9856 0
M  V30 241 C 23.7405 -1.05812 1.63795 0
M  V30 242 O 23.0105 -1.73103 0.917171 0
M  V30 243 H 21.5905 0.136261 0.734467 0
M  V30 244 H 24.2525 1.02442 1.65806 0
M  V30 245 H 23.3485 0.477002 3.08433 0
M  V30 246 N 23.6496 -1.47581 0.552962 0
M  V30 247 C 24.8976 -2.02082 0.0272703 0
M  V30 248 C 25.2186 -1.4301 -1.32563 0
M  V30 249 O 24.4886 -0.603745 -1.86365 0
M  V30 250 H 23.0686 -0.746966 0.00709182 0
M  V30 251 H 25.7306 -1.81033 0.722008 0
M  V30 252 H 24.8266 -3.12034 -0.0639951 0
M  V30 253 N 25.1277 -0.289203 -1.54924 0
M  V30 254 C 26.0907 0.579144 -2.21762 0
M  V30 255 C 27.0907 1.07047 -1.1999 0
M  V30 256 O 28.2807 0.968384 -1.44803 0
M  V30 257 C 25.4127 1.80055 -2.8947 0
M  V30 258 H 26.6057 -0.00464908 -2.999 0
M  V30 259 H 24.1587 -0.0399306 -1.56249 0
M  V30 260 H 24.8937 2.42449 -2.15381 0
M  V30 261 H 24.6787 1.45602 -3.64064 0
M  V30 262 H 26.1687 2.41773 -3.40493 0
M  V30 263 N 26.6058 1.57591 -0.0167156 0
M  V30 264 C 27.8538 1.90906 0.663285 0
M  V30 265 C 28.1748 0.892509 1.73376 0
M  V30 266 O 27.4448 -0.0677623 1.95783 0
M  V30 267 H 26.0248 0.704637 0.247983 0
M  V30 268 H 28.6868 1.94803 -0.0615909 0
M  V30 269 H 27.7828 2.9116 1.12393 0
M  V30 270 N 28.0839 -0.256276 1.55502 0
M  V30 271 C 29.0169 -1.34321 1.84481 0
M  V30 272 C 29.9949 -1.46802 0.699131 0
M  V30 273 O 31.1789 -1.63165 0.943904 0
M  V30 274 C 28.3059 -2.71779 2.02123 0
M  V30 275 C 27.3519 -2.76496 3.24734 0
M  V30 276 S 28.1849 -2.3405 4.81644 0
M  V30 277 C 29.3409 -3.73452 5.02279 0
M  V30 278 H 29.5739 -1.09539 2.76385 0
M  V30 279 H 27.1069 -0.45678 1.47489 0
M  V30 280 H 29.0649 -3.50932 2.12972 0
M  V30 281 H 27.7259 -2.93803 1.11078 0
M  V30 282 H 26.9189 -3.77424 3.34016 0
M  V30 283 H 26.5209 -2.05379 3.12563 0
M  V30 284 H 28.8129 -4.6887 4.89047 0
M  V30 285 H 29.7559 -3.6911 6.04287 0
M  V30 286 H 30.1639 -3.6553 4.30172 0
M  V30 287 N 29.562 -1.4872 -0.521534 0
M  V30 288 C 30.978 -1.35028 -0.850855 0
M  V30 289 C 31.178 -0.367712 -1.98116 0
M  V30 290 O 30.234 0.208037 -2.51642 0
M  V30 291 C 31.547 -2.75263 -1.21041 0
M  V30 292 C 33.095 -2.83813 -1.31981 0
M  V30 293 C 33.57 -4.24769 -1.71276 0
M  V30 294 N 35.061 -4.27482 -1.78363 0
M  V30 295 C 35.796 -5.33494 -2.1017 0
M  V30 296 N 35.292 -6.49775 -2.40343 0
M  V30 297 N 37.085 -5.20894 -2.11248 0
M  V30 298 H 29.236 -2.11214 0.22413 0
M  V30 299 H 31.499 -0.947252 0.0376439 0
M  V30 300 H 31.205 -3.48765 -0.453415 0
M  V30 301 H 31.079 -3.09327 -2.15863 0
M  V30 302 H 33.466 -2.10561 -2.06756 0
M  V30 303 H 33.547 -2.53358 -0.352596 0
M  V30 304 H 33.191 -4.9854 -0.970588 0
M  V30 305 H 33.121 -4.52673 -2.69062 0
M  V30 306 H 35.612 -3.43611 -1.57288 0
M  V30 307 H 35.925 -7.26402 -2.63743 0
M  V30 308 H 34.27 -6.53035 -2.37844 0
M  V30 309 H 37.461 -4.29065 -1.87139 0
M  V30 310 H 37.634 -6.03612 -2.35704 0
M  V30 311 N 31.0401 0.771051 -1.3745 0
M  V30 312 C 32.0031 1.86598 -1.33093 0
M  V30 313 C 33.0031 1.59076 -0.234845 0
M  V30 314 O 34.1931 1.67145 -0.490732 0
M  V30 315 C 31.3251 3.23747 -1.06773 0
M  V30 316 H 32.5181 1.91873 -2.30488 0
M  V30 317 H 30.0711 0.970876 -1.2249 0
M  V30 318 H 30.8061 3.24148 -0.099129 0
M  V30 319 H 30.5911 3.45115 -1.86112 0
M  V30 320 H 32.0811 4.03824 -1.06377 0
M  V30 321 N 32.5182 1.22032 0.997298 0
M  V30 322 C 33.4812 0.987909 2.06816 0
M  V30 323 C 34.4812 -0.0440084 1.6074 0
M  V30 324 O 35.6712 0.194053 1.73116 0
M  V30 325 C 32.8032 0.49132 3.37341 0
M  V30 326 H 33.9962 1.93803 2.28868 0
M  V30 327 H 31.5492 1.03838 1.16822 0
M  V30 328 H 32.2842 -0.463364 3.20973 0
M  V30 329 H 32.0692 1.23575 3.72118 0
M  V30 330 H 33.5592 0.348824 4.16141 0
M  V30 331 N 33.9963 -1.19345 1.0293 0
M  V30 332 C 34.9263 -2.2481 0.631105 0
M  V30 333 C 35.9073 -1.66245 -0.360104 0
M  V30 334 O 37.0923 -1.92677 -0.242726 0
M  V30 335 C 34.2223 -3.47295 -0.0184607 0
M  V30 336 C 33.1763 -4.18536 0.895073 0
M  V30 337 C 32.5023 -5.34586 0.110592 0
M  V30 338 C 33.8023 -4.73287 2.209 0
M  V30 339 H 35.4963 -2.58372 1.51275 0
M  V30 340 H 33.0423 -1.24194 0.728818 0
M  V30 341 H 34.9953 -4.20268 -0.308675 0
M  V30 342 H 33.7193 -3.12933 -0.934907 0
M  V30 343 H 32.3783 -3.47446 1.16949 0
M  V30 344 H 32.0263 -4.96469 -0.807902 0
M  V30 345 H 31.7263 -5.83183 0.719087 0
M  V30 346 H 33.2503 -6.10355 -0.172871 0
M  V30 347 H 34.6643 -5.38013 1.98028 0
M  V30 348 H 33.0613 -5.32373 2.76946 0
M  V30 349 H 34.1313 -3.91331 2.86336 0
M  V30 350 N 35.4744 -0.807222 -1.35358 0
M  V30 351 C 36.4064 -0.175717 -2.28525 0
M  V30 352 C 37.4194 0.625354 -1.5031 0
M  V30 353 O 38.6084 0.457611 -1.72535 0
M  V30 354 C 35.7084 0.773471 -3.29956 0
M  V30 355 C 34.8814 0.0186296 -4.37396 0
M  V30 356 C 33.9404 0.886395 -5.18681 0
M  V30 357 O 32.9664 0.337106 -5.68201 0
M  V30 358 N 34.1684 2.20839 -5.36852 0
M  V30 359 H 36.9334 -0.976091 -2.83359 0
M  V30 360 H 34.4944 -0.662737 -1.47714 0
M  V30 361 H 36.4864 1.35824 -3.81227 0
M  V30 362 H 35.0564 1.47465 -2.75632 0
M  V30 363 H 34.2764 -0.747349 -3.87051 0
M  V30 364 H 35.5644 -0.501577 -5.06322 0
M  V30 365 H 34.9624 2.67858 -4.98265 0
M  V30 366 H 33.5194 2.74237 -5.91301 0
M  V30 367 N 36.9525 1.47285 -0.560781 0
M  V30 368 C 38.2015 2.01668 -0.035895 0
M  V30 369 C 38.5145 1.44021 1.32353 0
M  V30 370 O 39.7205 1.90088 1.93853 0
M  V30 371 C 38.1765 3.59897 -0.0136659 0
M  V30 372 C 37.7845 4.26536 -1.37006 0
M  V30 373 C 39.5285 4.22017 0.458425 0
M  V30 374 C 37.4355 5.76782 -1.30675 0
M  V30 375 H 36.3655 0.753938 -0.00964879 0
M  V30 376 H 39.0165 1.69243 -0.709166 0
M  V30 377 H 37.3985 3.89301 0.725325 0
M  V30 378 H 38.5725 4.0877 -2.12705 0
M  V30 379 H 36.8875 3.76419 -1.78038 0
M  V30 380 H 39.4845 5.32124 0.524247 0
M  V30 381 H 39.8275 3.89437 1.4712 0
M  V30 382 H 40.3605 3.97159 -0.225818 0
M  V30 383 H 37.0995 6.13988 -2.29564 0
M  V30 384 H 36.6195 5.96875 -0.591622 0
M  V30 385 H 38.2985 6.39063 -1.01033 0
M  V30 386 N 38.4306 0.297415 1.54768 0
M  V30 387 C 39.6556 -0.318435 2.04941 0
M  V30 388 C 40.0806 -1.4701 1.17345 0
M  V30 389 O 39.4386 -1.80436 0.176758 0
M  V30 390 C 39.4866 -0.755749 3.52592 0
M  V30 391 O 38.5906 -1.86088 3.68028 0
M  V30 392 H 37.9316 -0.062421 0.661059 0
M  V30 393 H 40.4616 0.438215 1.99852 0
M  V30 394 H 40.4716 -1.04552 3.94376 0
M  V30 395 H 39.1466 0.0867233 4.1581 0
M  V30 396 H 37.7236 -1.57193 3.38149 0
M  V30 397 N 39.9087 -1.5758 0.0250728 0
M  V30 398 C 40.8407 -2.06869 -0.986796 0
M  V30 399 C 41.8537 -0.991332 -1.29137 0
M  V30 400 O 43.0427 -1.26761 -1.25674 0
M  V30 401 C 40.1427 -2.47486 -2.31525 0
M  V30 402 C 39.3157 -3.78253 -2.19643 0
M  V30 403 C 38.3747 -4.05464 -3.35388 0
M  V30 404 O 37.4007 -4.75774 -3.12454 0
M  V30 405 N 38.6027 -3.55321 -4.59051 0
M  V30 406 H 41.3677 -2.94302 -0.566276 0
M  V30 407 H 38.9287 -1.6109 -0.161776 0
M  V30 408 H 40.9207 -2.62785 -3.07776 0
M  V30 409 H 39.4907 -1.65441 -2.65232 0
M  V30 410 H 38.7107 -3.7279 -1.28144 0
M  V30 411 H 39.9987 -4.63936 -2.08903 0
M  V30 412 H 39.3967 -2.98431 -4.80578 0
M  V30 413 H 37.9537 -3.75905 -5.32483 0
M  V30 414 N 41.3868 0.248026 -1.55636 0
M  V30 415 C 42.6118 0.998028 -1.81808 0
M  V30 416 C 43.0368 1.78207 -0.601979 0
M  V30 417 O 42.3948 1.75653 0.448961 0
M  V30 418 C 42.4428 1.9125 -3.05705 0
M  V30 419 O 41.5468 3.00406 -2.82542 0
M  V30 420 H 40.8878 0.284045 -0.600179 0
M  V30 421 H 43.4178 0.269357 -2.02819 0
M  V30 422 H 43.4278 2.32737 -3.35108 0
M  V30 423 H 42.1028 1.33602 -3.93857 0
M  V30 424 H 40.6798 2.63056 -2.64303 0
M  V30 425 N 42.8649 1.48995 0.513639 0
M  V30 426 C 44.1129 1.57531 1.26604 0
M  V30 427 C 44.4339 0.258236 1.93283 0
M  V30 428 O 43.7039 -0.721502 1.8213 0
M  V30 429 H 42.2839 0.580387 0.470276 0
M  V30 430 H 44.9459 1.85552 0.596373 0
M  V30 431 H 44.0419 2.36486 2.03669 0
M  V30 432 N 44.343 -0.763751 1.37857 0
M  V30 433 C 45.275 -1.88664 1.30148 0
M  V30 434 C 46.288 -1.61365 0.215685 0
M  V30 435 O 47.477 -1.72134 0.472459 0
M  V30 436 C 44.577 -3.24075 0.991396 0
M  V30 437 C 43.75 -3.78958 2.18426 0
M  V30 438 C 42.809 -4.92862 1.8432 0
M  V30 439 O 41.835 -5.08027 2.56704 0
M  V30 440 N 43.037 -5.75071 0.792081 0
M  V30 441 H 45.802 -1.95791 2.26905 0
M  V30 442 H 43.363 -0.943226 1.31586 0
M  V30 443 H 45.355 -3.97804 0.743935 0
M  V30 444 H 43.925 -3.12399 0.112122 0
M  V30 445 H 43.145 -2.96913 2.59299 0
M  V30 446 H 44.433 -4.12357 2.98058 0
M  V30 447 H 43.831 -5.65375 0.191595 0
M  V30 448 H 42.388 -6.48991 0.60449 0
M  V30 449 N 45.8211 -1.22559 -0.990812 0
M  V30 450 C 47.0491 -1.07779 -1.76611 0
M  V30 451 C 47.4641 0.371513 -1.85109 0
M  V30 452 O 46.8211 1.25737 -1.32274 0
M  V30 453 C 46.8721 -1.68512 -3.19822 0
M  V30 454 O 46.5931 -3.07774 -3.1178 0
M  V30 455 C 48.0941 -1.59035 -4.13791 0
M  V30 456 H 45.3141 -0.377729 -0.554583 0
M  V30 457 H 47.8581 -1.62195 -1.24551 0
M  V30 458 H 46.0131 -1.18154 -3.68942 0
M  V30 459 H 46.4271 -3.37062 -4.01858 0
M  V30 460 H 47.9011 -2.0625 -5.1202 0
M  V30 461 H 48.3781 -0.547273 -4.35777 0
M  V30 462 H 48.9841 -2.08709 -3.70568 0
M  V30 463 N 47.2992 1.18797 -1.03562 0
M  V30 464 C 48.5392 1.90346 -0.744832 0
M  V30 465 C 48.9032 1.78231 0.713972 0
M  V30 466 O 50.1042 2.44441 1.11813 0
M  V30 467 C 48.3752 3.36942 -1.19184 0
M  V30 468 S 49.9342 4.26638 -1.02593 0
M  V30 469 H 46.7522 0.657343 -0.270963 0
M  V30 470 H 49.3542 1.43579 -1.32685 0
M  V30 471 H 48.0582 3.43287 -2.24905 0
M  V30 472 H 47.5892 3.88745 -0.603397 0
M  V30 473 H 49.6042 4.96164 0.0596033 0
M  V30 474 N 48.7773 0.814389 1.34928 0
M  V30 475 C 49.7403 0.235759 2.27984 0
M  V30 476 C 50.7403 -0.581412 1.49921 0
M  V30 477 O 51.9303 -0.398758 1.69575 0
M  V30 478 C 49.0623 -0.670433 3.34242 0
M  V30 479 H 50.2553 1.05659 2.80671 0
M  V30 480 H 47.8083 0.585614 1.44915 0
M  V30 481 H 48.5433 -1.51466 2.86755 0
M  V30 482 H 48.3283 -0.0860822 3.92005 0
M  V30 483 H 49.8183 -1.06935 4.03676 0
M  V30 484 N 50.2554 -1.46986 0.568584 0
M  V30 485 C 51.1854 -2.32946 -0.160753 0
M  V30 486 C 52.1664 -1.44487 -0.897631 0
M  V30 487 O 53.3514 -1.73327 -0.875867 0
M  V30 488 C 50.4814 -3.26494 -1.18403 0
M  V30 489 C 49.4354 -4.24282 -0.562895 0
M  V30 490 C 48.7614 -5.07236 -1.69163 0
M  V30 491 C 50.0614 -5.19989 0.490761 0
M  V30 492 H 51.7554 -2.94175 0.556916 0
M  V30 493 H 49.3014 -1.4146 0.26927 0
M  V30 494 H 51.2544 -3.85477 -1.70251 0
M  V30 495 H 49.9784 -2.63343 -1.93179 0
M  V30 496 H 48.6374 -3.66541 -0.0656164 0
M  V30 497 H 48.2854 -4.4048 -2.42871 0
M  V30 498 H 47.9854 -5.7345 -1.28174 0
M  V30 499 H 49.5094 -5.6908 -2.21314 0
M  V30 500 H 50.9234 -5.73271 0.0579047 0
M  V30 501 H 49.3204 -5.94469 0.820165 0
M  V30 502 H 50.3904 -4.64777 1.3824 0
M  V30 503 N 51.7335 -0.305618 -1.54608 0
M  V30 504 C 52.6635 0.561482 -2.26649 0
M  V30 505 C 53.6445 1.13415 -1.26772 0
M  V30 506 O 54.8295 1.16262 -1.55553 0
M  V30 507 C 51.9595 1.73122 -3.01075 0
M  V30 508 C 50.9135 1.2887 -4.08138 0
M  V30 509 C 50.2395 2.54396 -4.70305 0
M  V30 510 C 51.5395 0.416578 -5.20636 0
M  V30 511 H 53.2335 -0.0393902 -2.99374 0
M  V30 512 H 50.7795 -0.020385 -1.43986 0
M  V30 513 H 52.7325 2.34396 -3.50195 0
M  V30 514 H 51.4565 2.3584 -2.25936 0
M  V30 515 H 50.1155 0.698991 -3.59875 0
M  V30 516 H 49.7635 3.15439 -3.918 0
M  V30 517 H 49.4635 2.25486 -5.42614 0
M  V30 518 H 50.9875 3.16464 -5.2219 0
M  V30 519 H 52.4015 0.935116 -5.65622 0
M  V30 520 H 50.7985 0.221046 -5.99693 0
M  V30 521 H 51.8685 -0.557162 -4.81688 0
M  V30 522 N 53.2116 1.57565 -0.0334293 0
M  V30 523 C 54.4366 1.96689 0.657895 0
M  V30 524 C 54.8616 0.910057 1.64619 0
M  V30 525 O 54.2196 -0.128598 1.80843 0
M  V30 526 C 54.2676 3.34905 1.33683 0
M  V30 527 O 53.3716 3.31574 2.45219 0
M  V30 528 H 52.7126 0.641205 0.172489 0
M  V30 529 H 55.2426 2.04372 -0.0965621 0
M  V30 530 H 55.2526 3.71234 1.69262 0
M  V30 531 H 53.9276 4.11366 0.612411 0
M  V30 532 H 52.5046 3.06968 2.11719 0
M  V30 533 N 54.6897 -0.239769 1.55765 0
M  V30 534 C 55.6367 -1.29696 1.90913 0
M  V30 535 C 56.6067 -1.47478 0.764164 0
M  V30 536 O 57.7917 -1.61345 1.01845 0
M  V30 537 C 54.9317 -2.64598 2.21544 0
M  V30 538 C 54.0447 -2.54765 3.48882 0
M  V30 539 C 53.1797 -3.82069 3.69049 0
M  V30 540 C 52.2187 -3.66883 4.89963 0
M  V30 541 N 51.3557 -4.86094 5.06614 0
M  V30 542 H 56.1957 -0.990224 2.81067 0
M  V30 543 H 53.7327 -0.477684 1.39128 0
M  V30 544 H 55.6907 -3.43132 2.3731 0
M  V30 545 H 54.3207 -2.93405 1.34585 0
M  V30 546 H 53.3727 -1.67763 3.41409 0
M  V30 547 H 54.6847 -2.39457 4.37563 0
M  V30 548 H 53.8387 -4.69046 3.84812 0
M  V30 549 H 52.5777 -4.00282 2.78614 0
M  V30 550 H 51.5827 -2.78289 4.74168 0
M  V30 551 H 52.8077 -3.50157 5.81865 0
M  V30 552 H 50.7537 -5.04655 4.19117 0
M  V30 553 H 50.6707 -4.73443 5.89396 0
M  V30 554 H 51.9387 -5.74549 5.26795 0
M  V30 555 N 56.1678 -1.49265 -0.50573 0
M  V30 556 C 57.4138 -1.58748 -1.26202 0
M  V30 557 C 57.7468 -0.271227 -1.92297 0
M  V30 558 O 57.0218 0.724831 -1.80489 0
M  V30 559 C 57.3048 -2.74332 -2.33268 0
M  V30 560 C 57.1578 -4.15737 -1.71705 0
M  V30 561 C 58.4768 -2.85576 -3.34865 0
M  V30 562 H 55.5958 -0.577826 -0.457478 0
M  V30 563 H 58.2378 -1.81532 -0.560897 0
M  V30 564 H 56.3878 -2.55036 -2.93068 0
M  V30 565 H 58.0598 -4.46537 -1.15769 0
M  V30 566 H 56.3028 -4.21605 -1.02135 0
M  V30 567 H 56.9738 -4.92477 -2.49341 0
M  V30 568 H 59.4498 -3.03127 -2.8505 0
M  V30 569 H 58.3258 -3.68135 -4.07146 0
M  V30 570 H 58.5868 -1.94732 -3.96903 0
M  V30 571 N 57.6459 0.756429 -1.3826 0
M  V30 572 C 58.8929 1.51547 -1.34312 0
M  V30 573 C 59.2209 1.94382 0.0677144 0
M  V30 574 O 58.4759 1.65514 1.04421 0
M  V30 575 C 58.7749 2.78313 -2.24224 0
M  V30 576 C 58.4409 2.54455 -3.72241 0
M  V30 577 C 57.1029 2.47657 -4.12576 0
M  V30 578 C 59.4549 2.3354 -4.65949 0
M  V30 579 C 56.7829 2.17956 -5.44713 0
M  V30 580 C 59.1349 2.05359 -5.9834 0
M  V30 581 C 57.7989 1.97016 -6.37762 0
M  V30 582 H 57.0689 0.55455 -0.491482 0
M  V30 583 H 59.7159 0.870039 -1.70595 0
M  V30 584 H 58.0209 3.47492 -1.80987 0
M  V30 585 H 59.7179 3.36259 -2.18474 0
M  V30 586 H 56.3079 2.60616 -3.40261 0
M  V30 587 H 60.4919 2.37772 -4.35635 0
M  V30 588 H 55.7479 2.10003 -5.74203 0
M  V30 589 H 59.9219 1.88179 -6.70494 0
M  V30 590 H 57.5489 1.73766 -7.40074 0
M  V30 591 N 59.124 1.23083 0.984299 0
M  V30 592 C 60.535 1.05609 1.5396 0
M  V30 593 C 60.886 -0.377793 1.92528 0
M  V30 594 O 60.011 -1.26398 1.75649 0
M  V30 595 C 60.606 1.91087 2.7977 0
M  V30 596 C 59.165 1.77885 3.31713 0
M  V30 597 C 58.312 1.87028 2.04733 0
M  V30 598 H 61.263 1.36802 0.804419 0
M  V30 599 H 61.284 1.43336 3.5247 0
M  V30 600 H 60.796 2.9544 2.51668 0
M  V30 601 H 58.897 0.762995 3.64704 0
M  V30 602 H 59.01 2.61047 4.01735 0
M  V30 603 H 57.374 1.30565 2.18689 0
M  V30 604 H 58.157 2.92929 1.79017 0
M  V30 605 N 60.6021 -1.18246 1.0419 0
M  V30 606 C 61.8301 -1.92195 0.766072 0
M  V30 607 C 62.2451 -1.76247 -0.676933 0
M  V30 608 O 61.6021 -1.09293 -1.46155 0
M  V30 609 C 61.6531 -3.43568 1.12442 0
M  V30 610 O 61.3741 -3.59015 2.51078 0
M  V30 611 C 62.8751 -4.34613 0.873275 0
M  V30 612 H 60.0951 -0.610114 0.279288 0
M  V30 613 H 62.6391 -1.50007 1.38989 0
M  V30 614 H 60.7941 -3.8354 0.545542 0
M  V30 615 H 61.2081 -4.5273 2.64831 0
M  V30 616 H 62.6821 -5.39374 1.17385 0
M  V30 617 H 63.1591 -4.38781 -0.191909 0
M  V30 618 H 63.7651 -4.00341 1.43551 0
M  V30 619 N 62.0802 -0.821533 -1.34494 0
M  V30 620 C 63.4962 -0.507117 -1.51329 0
M  V30 621 C 63.6962 0.968964 -1.76673 0
M  V30 622 O 62.7522 1.75348 -1.81685 0
M  V30 623 C 64.0652 -1.36544 -2.67911 0
M  V30 624 C 65.6132 -1.36242 -2.81793 0
M  V30 625 C 66.0882 -2.2052 -4.01416 0
M  V30 626 N 67.5792 -2.18136 -4.08621 0
M  V30 627 C 68.3142 -2.80095 -5.00334 0
M  V30 628 N 67.8102 -3.51039 -5.9728 0
M  V30 629 N 69.6032 -2.69656 -4.93196 0
M  V30 630 H 61.7542 -1.77729 -1.16302 0
M  V30 631 H 64.0172 -0.757291 -0.570276 0
M  V30 632 H 63.7232 -2.41361 -2.55808 0
M  V30 633 H 63.5972 -1.02917 -3.62888 0
M  V30 634 H 65.9842 -0.322041 -2.93338 0
M  V30 635 H 66.0652 -1.73866 -1.87628 0
M  V30 636 H 65.7092 -3.24607 -3.90631 0
M  V30 637 H 65.6392 -1.80247 -4.94791 0
M  V30 638 H 68.1302 -1.6653 -3.39229 0
M  V30 639 H 68.4432 -3.95565 -6.63889 0
M  V30 640 H 66.7882 -3.55145 -5.97409 0
M  V30 641 H 69.9792 -2.13808 -4.16418 0
M  V30 642 H 70.1522 -3.1823 -5.64476 0
M  V30 643 N 63.5583 1.46682 -0.576371 0
M  V30 644 C 64.7833 2.07304 -0.0630475 0
M  V30 645 C 65.2083 1.42329 1.2298 0
M  V30 646 O 64.5663 0.504865 1.74129 0
M  V30 647 C 64.6143 3.60472 0.095895 0
M  V30 648 O 63.7183 3.95927 1.15394 0
M  V30 649 H 63.0593 0.661288 -0.0599463 0
M  V30 650 H 65.5893 1.88417 -0.797511 0
M  V30 651 H 65.5993 4.06865 0.304071 0
M  V30 652 H 64.2743 4.07157 -0.84828 0
M  V30 653 H 62.8513 3.61252 0.924724 0
M  V30 654 N 65.0364 0.313813 1.54444 0
M  V30 655 C 65.9864 -0.571898 2.20711 0
M  V30 656 C 66.9704 -1.08913 1.18435 0
M  V30 657 O 68.1624 -1.02777 1.44104 0
M  V30 658 C 65.2914 -1.7371 2.96108 0
M  V30 659 C 64.3774 -1.23522 4.05713 0
M  V30 660 N 64.7684 -0.452288 5.03774 0
M  V30 661 C 63.0664 -1.51482 4.19487 0
M  V30 662 C 63.7674 -0.183438 5.81411 0
M  V30 663 N 62.7434 -0.766845 5.38164 0
M  V30 664 H 66.5454 0.0336802 2.93881 0
M  V30 665 H 64.0594 0.119192 1.61962 0
M  V30 666 H 66.0564 -2.38329 3.4206 0
M  V30 667 H 64.7164 -2.34625 2.24458 0
M  V30 668 H 65.7274 -0.0960131 5.17811 0
M  V30 669 H 62.4044 -2.13053 3.59047 0
M  V30 670 H 63.7944 0.446216 6.70417 0
M  V30 671 N 66.5145 -1.57545 0.0417849 0
M  V30 672 C 67.7425 -1.96624 -0.643928 0
M  V30 673 C 68.1575 -0.918897 -1.64929 0
M  V30 674 O 67.5145 0.0979323 -1.82237 0
M  V30 675 C 67.5655 -3.35781 -1.33914 0
M  V30 676 O 67.2865 -4.365 -0.374048 0
M  V30 677 C 68.7875 -3.89566 -2.1155 0
M  V30 678 H 66.0075 -0.647316 -0.176702 0
M  V30 679 H 68.5515 -2.04229 0.105304 0
M  V30 680 H 66.7065 -3.29357 -2.03968 0
M  V30 681 H 67.1205 -5.17248 -0.869179 0
M  V30 682 H 68.5945 -4.89242 -2.55628 0
M  V30 683 H 69.0715 -3.24488 -2.9598 0
M  V30 684 H 69.6775 -3.99298 -1.46427 0
M  V30 685 N 67.9926 0.231505 -1.5589 0
M  V30 686 C 69.2386 0.95877 -1.78705 0
M  V30 687 C 69.5716 1.8438 -0.609725 0
M  V30 688 O 68.8466 1.90521 0.391426 0
M  V30 689 C 69.1296 1.8062 -3.11526 0
M  V30 690 C 68.9826 0.948328 -4.39689 0
M  V30 691 C 70.3016 2.78585 -3.40703 0
M  V30 692 H 67.4206 0.347129 -0.650131 0
M  V30 693 H 70.0626 0.228259 -1.88624 0
M  V30 694 H 68.2126 2.42902 -3.03201 0
M  V30 695 H 69.8846 0.343016 -4.60023 0
M  V30 696 H 68.1276 0.253314 -4.3306 0
M  V30 697 H 68.7986 1.57543 -5.29041 0
M  V30 698 H 71.2746 2.26439 -3.49091 0
M  V30 699 H 70.1506 3.34988 -4.34826 0
M  V30 700 H 70.4116 3.55825 -2.62375 0
M  V30 701 N 69.4707 1.49531 0.497807 0
M  V30 702 C 70.6957 1.63159 1.28039 0
M  V30 703 C 71.1207 0.30418 1.85624 0
M  V30 704 O 70.4787 -0.728618 1.66015 0
M  V30 705 C 70.5267 2.70537 2.38416 0
M  V30 706 O 69.6307 2.29931 3.42353 0
M  V30 707 H 68.9717 0.546001 0.377861 0
M  V30 708 H 71.5017 1.9574 0.59558 0
M  V30 709 H 71.5117 2.92802 2.84132 0
M  V30 710 H 70.1867 3.6689 1.95869 0
M  V30 711 H 68.7637 2.18009 3.02533 0
M  V30 712 N 70.9488 -0.749086 1.3866 0
M  V30 713 C 71.9118 -1.84457 1.36045 0
M  V30 714 C 72.9118 -1.58682 0.260122 0
M  V30 715 O 74.1018 -1.66343 0.517261 0
M  V30 716 C 71.2338 -3.22008 1.11911 0
M  V30 717 H 72.4268 -1.88182 2.33512 0
M  V30 718 H 69.9798 -0.951266 1.24019 0
M  V30 719 H 70.7148 -3.2395 0.150686 0
M  V30 720 H 70.4998 -3.42111 1.91579 0
M  V30 721 H 71.9898 -4.0208 1.12788 0
M  V30 722 N 72.4269 -1.23603 -0.977757 0
M  V30 723 C 73.3589 -0.977369 -2.07317 0
M  V30 724 C 74.3719 0.0495845 -1.62724 0
M  V30 725 O 75.5609 -0.186261 -1.77526 0
M  V30 726 C 72.6609 -0.451216 -3.35883 0
M  V30 727 C 71.8339 -1.53896 -4.09432 0
M  V30 728 C 70.8929 -1.01721 -5.16274 0
M  V30 729 O 69.9189 -1.70676 -5.43009 0
M  V30 730 N 71.1209 0.153594 -5.80297 0
M  V30 731 H 73.8859 -1.92047 -2.30082 0
M  V30 732 H 71.4469 -1.14497 -1.14465 0
M  V30 733 H 73.4389 -0.0871574 -4.04606 0
M  V30 734 H 72.0089 0.397368 -3.10064 0
M  V30 735 H 71.2289 -2.07566 -3.35127 0
M  V30 736 H 72.5169 -2.27037 -4.55337 0
M  V30 737 H 71.9149 0.730323 -5.60966 0
M  V30 738 H 70.4719 0.458892 -6.50183 0
M  V30 739 N 73.905 1.17692 -1.04816 0
M  V30 740 C 75.153 1.87488 -0.754497 0
M  V30 741 C 75.474 1.81205 0.720407 0
M  V30 742 O 74.744 1.23544 1.52032 0
M  V30 743 H 73.324 0.694101 -0.276102 0
M  V30 744 H 75.986 1.42793 -1.32651 0
M  V30 745 H 75.082 2.93328 -1.06606 0
M  V30 746 N 75.3831 0.828654 1.34056 0
M  V30 747 C 76.6311 0.41863 1.97717 0
M  V30 748 C 76.9521 -1.02314 1.66002 0
M  V30 749 O 76.2221 -1.71119 0.953683 0
M  V30 750 H 74.8021 0.151809 0.731412 0
M  V30 751 H 77.4641 1.05936 1.63596 0
M  V30 752 H 76.5601 0.542318 3.07352 0
M  V30 753 N 76.8612 -1.46375 0.584142 0
M  V30 754 C 78.1102 -2.01585 0.0679741 0
M  V30 755 C 78.4232 -1.46109 -1.30045 0
M  V30 756 O 79.6292 -1.93148 -1.90804 0
M  V30 757 C 78.0852 -3.5983 0.0709207 0
M  V30 758 C 77.6932 -4.24303 1.43775 0
M  V30 759 C 79.4372 -4.22693 -0.391228 0
M  V30 760 C 77.3442 -5.74631 1.39834 0
M  V30 761 H 76.2742 -0.753689 0.0216421 0
M  V30 762 H 78.9252 -1.68093 0.736001 0
M  V30 763 H 77.3072 -3.90405 -0.663299 0
M  V30 764 H 78.4812 -4.05335 2.19181 0
M  V30 765 H 76.7962 -3.73539 1.84004 0
M  V30 766 H 79.3932 -5.3289 -0.439524 0
M  V30 767 H 79.7362 -3.91728 -1.40906 0
M  V30 768 H 80.2692 -3.96749 0.288974 0
M  V30 769 H 77.0082 -6.10258 2.39303 0
M  V30 770 H 76.5282 -5.95858 0.686505 0
M  V30 771 H 78.2072 -6.37375 1.11187 0
M  V30 772 N 78.3393 -0.321999 -1.54275 0
M  V30 773 C 79.5673 0.283052 -2.04955 0
M  V30 774 C 79.9823 1.45904 -1.19823 0
M  V30 775 O 79.3393 1.81063 -0.228545 0
M  V30 776 C 79.3903 0.719028 -3.54277 0
M  V30 777 O 79.1113 -0.410175 -4.36176 0
M  V30 778 C 80.6123 1.38705 -4.21041 0
M  V30 779 H 77.8323 0.0584616 -0.668448 0
M  V30 780 H 80.3763 -0.467734 -1.99079 0
M  V30 781 H 78.5313 1.41979 -3.60445 0
M  V30 782 H 78.9453 -0.0669416 -5.24457 0
M  V30 783 H 80.4193 1.64306 -5.2698 0
M  V30 784 H 80.8963 2.33385 -3.72059 0
M  V30 785 H 81.5023 0.728906 -4.19007 0
M  V30 786 N 79.8174 1.5752 -0.0501392 0
M  V30 787 C 81.0634 1.92936 0.624798 0
M  V30 788 C 81.3964 0.928685 1.70555 0
M  V30 789 O 80.6714 -0.0454779 1.94447 0
M  V30 790 C 80.9544 3.38737 1.22185 0
M  V30 791 C 80.8074 4.49552 0.149218 0
M  V30 792 C 82.1264 3.84913 2.13378 0
M  V30 793 H 79.2454 0.701604 0.225657 0
M  V30 794 H 81.8874 1.89671 -0.111693 0
M  V30 795 H 80.0374 3.4165 1.84953 0
M  V30 796 H 81.7094 4.58768 -0.482648 0
M  V30 797 H 79.9524 4.30638 -0.522841 0
M  V30 798 H 80.6234 5.48653 0.606966 0
M  V30 799 H 83.0994 3.8387 1.60572 0
M  V30 800 H 81.9754 4.87584 2.52097 0
M  V30 801 H 82.2364 3.21611 3.03346 0
M  V30 802 N 81.2955 -0.223234 1.56011 0
M  V30 803 C 82.2585 -1.26014 1.9145 0
M  V30 804 C 83.2585 -1.3989 0.792937 0
M  V30 805 O 84.4485 -1.38184 1.0607 0
M  V30 806 C 81.5805 -2.63422 2.16383 0
M  V30 807 H 82.7735 -0.95796 2.84189 0
M  V30 808 H 80.3265 -0.463576 1.49267 0
M  V30 809 H 81.0615 -2.98741 1.2619 0
M  V30 810 H 80.8465 -2.54728 2.98088 0
M  V30 811 H 82.3365 -3.38249 2.44903 0
M  V30 812 N 82.7736 -1.49793 -0.48987 0
M  V30 813 C 83.7036 -1.70201 -1.59856 0
M  V30 814 C 84.6846 -0.55076 -1.60937 0
M  V30 815 O 85.8696 -0.787841 -1.77501 0
M  V30 816 C 82.9996 -1.77882 -2.98287 0
M  V30 817 C 81.9536 -2.92907 -3.12073 0
M  V30 818 C 81.2796 -2.85712 -4.51965 0
M  V30 819 C 82.5796 -4.3369 -2.91051 0
M  V30 820 H 84.2736 -2.63025 -1.43032 0
M  V30 821 H 81.8196 -1.26574 -0.686664 0
M  V30 822 H 83.7726 -1.90744 -3.75759 0
M  V30 823 H 82.4966 -0.816653 -3.16225 0
M  V30 824 H 81.1556 -2.79665 -2.37029 0
M  V30 825 H 80.8036 -1.8738 -4.66795 0
M  V30 826 H 80.5036 -3.62921 -4.62128 0
M  V30 827 H 82.0276 -3.00598 -5.31482 0
M  V30 828 H 83.4416 -4.47555 -3.58284 0
M  V30 829 H 81.8386 -5.12205 -3.12675 0
M  V30 830 H 82.9086 -4.47362 -1.87071 0
M  V30 831 N 84.2517 0.741722 -1.39055 0
M  V30 832 C 85.4997 1.49818 -1.35643 0
M  V30 833 C 85.8207 1.94938 0.0491642 0
M  V30 834 O 85.0907 1.68505 0.999141 0
M  V30 835 H 83.6707 0.555755 -0.499144 0
M  V30 836 H 86.3327 0.880957 -1.73854 0
M  V30 837 H 85.4287 2.38348 -2.01486 0
M  V30 838 N 85.7298 1.2412 0.971189 0
M  V30 839 C 86.6778 1.02812 2.08644 0
M  V30 840 C 87.6718 -0.0358403 1.69362 0
M  V30 841 O 88.8778 0.118429 1.7961 0
M  V30 842 H 85.2528 0.315428 0.682649 0
M  V30 843 H 87.2238 1.97397 2.23779 0
M  V30 844 C 85.9728 0.645874 3.41649 0
M  V30 845 H 85.2958 1.45632 3.72332 0
M  V30 846 H 86.7358 0.536366 4.20594 0
M  V30 847 C 85.1948 -0.646713 3.30635 0
M  V30 848 O 85.7248 -1.69338 3.64263 0
M  V30 849 N 83.9308 -0.626115 2.83775 0
M  V30 850 H 83.4778 0.225988 2.56607 0
M  V30 851 H 83.4358 -1.49117 2.76788 0
M  V30 852 N 87.2079 -1.17134 1.05439 0
M  V30 853 C 88.4359 -1.91372 0.786414 0
M  V30 854 C 88.8509 -1.76955 -0.658202 0
M  V30 855 O 88.2079 -1.10838 -1.44987 0
M  V30 856 C 88.2589 -3.42356 1.1608 0
M  V30 857 O 87.9799 -3.56332 2.54871 0
M  V30 858 C 89.4809 -4.33663 0.919322 0
M  V30 859 H 86.7009 -0.607118 0.285743 0
M  V30 860 H 89.2449 -1.48525 1.40572 0
M  V30 861 H 87.3999 -3.82939 0.586191 0
M  V30 862 H 87.8139 -4.49896 2.69618 0
M  V30 863 H 89.2879 -5.38099 1.231 0
M  V30 864 H 89.7649 -4.38959 -0.145359 0
M  V30 865 H 90.3709 -3.98796 1.47789 0
M  V30 866 N 88.686 -0.835752 -1.33615 0
M  V30 867 C 89.636 -0.238856 -2.26745 0
M  V30 868 C 90.62 0.604343 -1.49119 0
M  V30 869 O 91.812 0.456822 -1.71003 0
M  V30 870 C 88.941 0.587725 -3.38232 0
M  V30 871 C 88.027 -0.266811 -4.2326 0
M  V30 872 N 88.418 -1.34403 -4.87616 0
M  V30 873 C 86.716 -0.0533131 -4.45968 0
M  V30 874 C 87.417 -1.86819 -5.50884 0
M  V30 875 N 86.393 -1.17013 -5.30857 0
M  V30 876 H 90.195 -1.06266 -2.74016 0
M  V30 877 H 87.709 -0.679881 -1.47483 0
M  V30 878 H 89.706 1.03161 -4.03935 0
M  V30 879 H 88.366 1.40954 -2.9251 0
M  V30 880 H 89.377 -1.7269 -4.88261 0
M  V30 881 H 86.054 0.735312 -4.10974 0
M  V30 882 H 87.444 -2.7701 -6.1214 0
M  V30 883 N 90.1641 1.46063 -0.591896 0
M  V30 884 C 91.0741 2.34192 0.13831 0
M  V30 885 C 92.0901 1.50305 0.876608 0
M  V30 886 O 93.2661 1.8315 0.837728 0
M  V30 887 C 90.3311 3.27656 1.13326 0
M  V30 888 C 89.3921 4.27445 0.39863 0
M  V30 889 C 88.6251 5.16443 1.34618 0
M  V30 890 O 88.8481 5.08553 2.58321 0
M  V30 891 O 87.7821 5.95843 0.851768 0
M  V30 892 H 91.6081 2.98002 -0.58552 0
M  V30 893 H 89.1931 1.45188 -0.352239 0
M  V30 894 H 91.0751 3.85291 1.70671 0
M  V30 895 H 89.7501 2.6643 1.83839 0
M  V30 896 H 88.6571 3.73471 -0.216895 0
M  V30 897 H 89.9901 4.91482 -0.265709 0
M  V30 898 N 91.6422 0.330177 1.54103 0
M  V30 899 C 92.9192 -0.325007 1.92881 0
M  V30 900 C 93.2992 -1.6934 1.26045 0
M  V30 901 O 92.6472 -2.24855 0.406526 0
M  V30 902 C 92.8572 -0.410634 3.46576 0
M  V30 903 C 94.2052 -0.667801 4.19316 0
M  V30 904 O 95.2292 -0.49329 3.52768 0
M  V30 905 O 94.0882 -1.00491 5.37181 0
M  V30 906 H 91.1822 -0.186873 0.80561 0
M  V30 907 H 93.7282 0.380376 1.65382 0
M  V30 908 H 92.5002 0.550164 3.87413 0
M  V30 909 H 92.1232 -1.16333 3.802 0
M  V30 910 N 93.1203 -1.57491 0.0584922 0
M  V30 911 C 94.0683 -2.13148 -0.931168 0
M  V30 912 C 95.0623 -1.06507 -1.31729 0
M  V30 913 O 96.2683 -1.24906 -1.29609 0
M  V30 914 H 92.6433 -0.68137 -0.31818 0
M  V30 915 H 94.6143 -2.95187 -0.436707 0
M  V30 916 C 93.3633 -2.69732 -2.19408 0
M  V30 917 H 92.6863 -3.51454 -1.90578 0
M  V30 918 H 94.1263 -3.12287 -2.86798 0
M  V30 919 C 92.5853 -1.63855 -2.94369 0
M  V30 920 O 93.1153 -1.05565 -3.87581 0
M  V30 921 N 91.3213 -1.35202 -2.57233 0
M  V30 922 H 90.8683 -1.82791 -1.81508 0
M  V30 923 H 90.8263 -0.645922 -3.07693 0
M  V30 924 N 94.5984 0.214957 -1.56127 0
M  V30 925 C 95.8444 0.935325 -1.80619 0
M  V30 926 C 96.1994 1.81706 -0.632507 0
M  V30 927 O 95.4924 1.87931 0.373182 0
M  V30 928 C 95.6864 1.80314 -3.0858 0
M  V30 929 C 95.5154 1.00691 -4.38282 0
M  V30 930 C 94.2854 0.699211 -5.00439 0
M  V30 931 C 96.4834 0.369057 -5.12974 0
M  V30 932 N 94.4654 -0.117734 -6.13787 0
M  V30 933 C 95.8364 -0.310981 -6.1922 0
M  V30 934 C 97.8914 0.282759 -4.97096 0
M  V30 935 C 96.5944 -1.06907 -7.11311 0
M  V30 936 C 98.6204 -0.461881 -5.89594 0
M  V30 937 C 97.9824 -1.13044 -6.9527 0
M  V30 938 H 94.0814 0.322307 -0.71249 0
M  V30 939 H 96.6654 0.205649 -1.93611 0
M  V30 940 H 94.8364 2.50458 -2.96859 0
M  V30 941 H 96.5684 2.46148 -3.21237 0
M  V30 942 H 93.3234 1.01884 -4.62511 0
M  V30 943 H 93.7474 -0.515235 -6.75037 0
M  V30 944 H 98.3894 0.785292 -4.15443 0
M  V30 945 H 96.1074 -1.5831 -7.92442 0
M  V30 946 H 99.6934 -0.529746 -5.79383 0
M  V30 947 H 98.5734 -1.69742 -7.65609 0
M  V30 948 N 96.0765 1.50051 0.48192 0
M  V30 949 C 96.9865 1.7089 1.60728 0
M  V30 950 C 98.0025 0.591788 1.63627 0
M  V30 951 O 99.1785 0.868817 1.81696 0
M  V30 952 C 96.2435 1.78855 2.97005 0
M  V30 953 C 95.3045 3.02537 3.04581 0
M  V30 954 C 94.5375 3.10112 4.34357 0
M  V30 955 O 94.7605 2.24765 5.24249 0
M  V30 956 O 93.6945 4.02747 4.47301 0
M  V30 957 H 97.5205 2.66264 1.46072 0
M  V30 958 H 95.1055 1.34018 0.660264 0
M  V30 959 H 96.9875 1.86336 3.77964 0
M  V30 960 H 95.6625 0.866628 3.11883 0
M  V30 961 H 94.5695 3.00563 2.22739 0
M  V30 962 H 95.9025 3.94272 2.94636 0
M  V30 963 N 97.5546 -0.734337 1.39446 0
M  V30 964 C 98.8006 -1.49505 1.37913 0
M  V30 965 C 99.1556 -1.92384 -0.0248416 0
M  V30 966 O 98.4486 -1.6395 -0.991506 0
M  V30 967 C 98.6426 -2.74711 2.28623 0
M  V30 968 C 98.4716 -2.44075 3.777 0
M  V30 969 C 97.2416 -2.36338 4.46623 0
M  V30 970 C 99.4396 -2.09574 4.69663 0
M  V30 971 N 97.4216 -1.9818 5.81032 0
M  V30 972 C 98.7926 -1.81865 5.92727 0
M  V30 973 C 100.848 -1.96048 4.57678 0
M  V30 974 C 99.5506 -1.41992 7.05146 0
M  V30 975 C 101.577 -1.57579 5.7002 0
M  V30 976 C 100.939 -1.30754 6.92158 0
M  V30 977 H 97.0376 -0.545896 0.55993 0
M  V30 978 H 99.6216 -0.853373 1.75002 0
M  V30 979 H 97.7926 -3.36657 1.93692 0
M  V30 980 H 99.5246 -3.40916 2.18078 0
M  V30 981 H 96.2796 -2.53456 4.00071 0
M  V30 982 H 96.7036 -1.81691 6.52163 0
M  V30 983 H 101.346 -2.15455 3.63784 0
M  V30 984 H 99.0636 -1.21327 7.9894 0
M  V30 985 H 102.65 -1.47718 5.62735 0
M  V30 986 H 101.53 -1.01432 7.77612 0
M  V30 987 N 99.0327 -1.24633 -0.964593 0
M  V30 988 C 99.9827 -1.00841 -2.04487 0
M  V30 989 C 100.967 0.0512468 -1.60818 0
M  V30 990 O 102.159 -0.162865 -1.76249 0
M  V30 991 C 99.2877 -0.618474 -3.37683 0
M  V30 992 C 98.3737 -1.71437 -3.87905 0
M  V30 993 N 98.7647 -2.9477 -4.11029 0
M  V30 994 C 97.0627 -1.5926 -4.16596 0
M  V30 995 C 97.7637 -3.65834 -4.52261 0
M  V30 996 N 96.7397 -2.9341 -4.57615 0
M  V30 997 H 100.542 -1.94487 -2.20345 0
M  V30 998 H 98.0557 -1.14805 -1.14863 0
M  V30 999 H 100.053 -0.429247 -4.14684 0
M  V30 1000 H 98.7127 0.310766 -3.23209 0
M  V30 1001 H 99.7237 -3.30917 -3.9839 0
M  V30 1002 H 96.4007 -0.731606 -4.1104 0
M  V30 1003 H 97.7907 -4.71646 -4.78539 0
M  V30 1004 N 100.511 1.16574 -1.06058 0
M  V30 1005 C 101.444 2.19798 -0.61352 0
M  V30 1006 C 102.422 1.58509 0.362453 0
M  V30 1007 O 103.606 1.86527 0.271994 0
M  V30 1008 C 100.733 3.3855 0.100915 0
M  V30 1009 C 99.7788 4.18317 -0.831438 0
M  V30 1010 S 100.612 4.82375 -2.32539 0
M  V30 1011 C 101.768 6.04508 -1.62238 0
M  V30 1012 H 102.001 2.5738 -1.48805 0
M  V30 1013 H 99.5338 1.27327 -0.873338 0
M  V30 1014 H 101.492 4.07358 0.506898 0
M  V30 1015 H 100.153 2.99338 0.951604 0
M  V30 1016 H 99.3458 5.03232 -0.278071 0
M  V30 1017 H 98.9478 3.5499 -1.17719 0
M  V30 1018 H 101.24 6.71133 -0.926622 0
M  V30 1019 H 102.183 6.64389 -2.44934 0
M  V30 1020 H 102.591 5.53559 -1.106 0
M  V30 1021 N 101.989 0.842826 1.3317 0
M  V30 1022 C 103.219 0.453397 2.01564 0
M  V30 1023 C 103.627 -0.951147 1.63554 0
M  V30 1024 O 102.97 -1.63021 0.846746 0
M  V30 1025 C 103.032 0.499013 3.5602 0
M  V30 1026 C 102.696 1.86037 4.1742 0
M  V30 1027 C 103.693 2.82416 4.36506 0
M  V30 1028 C 101.378 2.15428 4.53757 0
M  V30 1029 C 103.372 4.06346 4.91082 0
M  V30 1030 C 101.059 3.39615 5.0804 0
M  V30 1031 C 102.057 4.3489 5.26649 0
M  V30 1032 O 101.745 5.5688 5.79776 0
M  V30 1033 H 101.477 0.177871 0.652179 0
M  V30 1034 H 104.031 1.13808 1.70988 0
M  V30 1035 H 102.261 -0.242467 3.85939 0
M  V30 1036 H 103.95 0.126852 4.05702 0
M  V30 1037 H 104.716 2.6101 4.08777 0
M  V30 1038 H 100.595 1.42061 4.38565 0
M  V30 1039 H 104.139 4.80722 5.05522 0
M  V30 1040 H 100.036 3.60876 5.352 0
M  V30 1041 H 100.804 5.58674 5.98185 0
M  V30 1042 N 103.467 -1.45747 0.599634 0
M  V30 1043 C 104.744 -1.95585 0.0240846 0
M  V30 1044 C 105.124 -1.54217 -1.44154 0
M  V30 1045 O 104.472 -0.800903 -2.14004 0
M  V30 1046 C 104.682 -3.48344 0.21385 0
M  V30 1047 C 106.03 -4.24504 0.0904902 0
M  V30 1048 O 107.054 -3.55911 0.143558 0
M  V30 1049 O 105.913 -5.46491 -0.0310766 0
M  V30 1050 H 103.007 -0.82602 -0.0402478 0
M  V30 1051 H 105.553 -1.55951 0.669139 0
M  V30 1052 H 104.325 -3.71397 1.23206 0
M  V30 1053 H 103.948 -3.9485 -0.466842 0
M  V30 1054 N 104.945 -0.338344 -1.53925 0
M  V30 1055 C 106.173 0.261298 -2.05243 0
M  V30 1056 C 106.588 1.44625 -1.21363 0
M  V30 1057 O 105.945 1.80811 -0.247736 0
M  V30 1058 C 105.996 0.681412 -3.5502 0
M  V30 1059 O 105.717 -0.456414 -4.35716 0
M  V30 1060 C 107.218 1.34232 -4.22489 0
M  V30 1061 H 104.438 0.0513685 -0.669031 0
M  V30 1062 H 106.982 -0.488822 -1.98572 0
M  V30 1063 H 105.137 1.38148 -3.61931 0
M  V30 1064 H 105.551 -0.122564 -5.24357 0
M  V30 1065 H 107.025 1.58708 -5.28693 0
M  V30 1066 H 107.502 2.29426 -3.74514 0
M  V30 1067 H 108.108 0.684424 -4.19757 0
M  V30 1068 N 106.423 1.57458 -0.0668435 0
M  V30 1069 C 107.669 1.93587 0.6043 0
M  V30 1070 C 108.002 0.946722 1.69561 0
M  V30 1071 O 107.277 -0.0248516 1.94484 0
M  V30 1072 C 107.56 3.40014 1.18585 0
M  V30 1073 C 107.413 4.49685 0.101529 0
M  V30 1074 C 108.732 3.87154 2.09284 0
M  V30 1075 H 105.851 0.703958 0.218202 0
M  V30 1076 H 108.493 1.89542 -0.131804 0
M  V30 1077 H 106.643 3.43592 1.81319 0
M  V30 1078 H 108.315 4.5823 -0.531279 0
M  V30 1079 H 106.558 4.30059 -0.568487 0
M  V30 1080 H 107.229 5.49266 0.54874 0
M  V30 1081 H 109.705 3.85551 1.56491 0
M  V30 1082 H 108.581 4.90231 2.46911 0
M  V30 1083 H 108.842 3.2481 2.99918 0
M  V30 1084 N 107.901 -0.206675 1.56239 0
M  V30 1085 C 108.848 -1.25617 1.93621 0
M  V30 1086 C 109.818 -1.45824 0.795274 0
M  V30 1087 O 111.003 -1.59148 1.05245 0
M  V30 1088 C 108.143 -2.59839 2.27107 0
M  V30 1089 C 107.256 -2.47308 3.54207 0
M  V30 1090 C 106.391 -3.74155 3.7707 0
M  V30 1091 C 105.43 -3.56407 4.97635 0
M  V30 1092 N 104.567 -4.75238 5.1681 0
M  V30 1093 H 109.407 -0.930383 2.83104 0
M  V30 1094 H 106.944 -0.448065 1.4011 0
M  V30 1095 H 108.902 -3.38021 2.44535 0
M  V30 1096 H 107.532 -2.90485 1.40778 0
M  V30 1097 H 106.584 -1.60483 3.4489 0
M  V30 1098 H 107.896 -2.30122 4.42544 0
M  V30 1099 H 107.05 -4.60778 3.94675 0
M  V30 1100 H 105.789 -3.94282 2.87042 0
M  V30 1101 H 104.794 -2.68168 4.79964 0
M  V30 1102 H 106.019 -3.37736 5.89161 0
M  V30 1103 H 103.965 -4.95651 4.29728 0
M  V30 1104 H 103.882 -4.60835 5.99306 0
M  V30 1105 H 105.15 -5.63246 5.38864 0
M  V30 1106 N 109.379 -1.50304 -0.473955 0
M  V30 1107 C 110.627 -1.60832 -1.22382 0
M  V30 1108 C 110.948 -0.30939 -1.9253 0
M  V30 1109 O 110.218 0.67296 -1.83978 0
M  V30 1110 H 108.798 -0.592652 -0.454723 0
M  V30 1111 H 111.46 -1.87068 -0.546968 0
M  V30 1112 H 110.556 -2.41803 -1.97327 0
M  V30 1113 N 110.857 0.726932 -1.39834 0
M  V30 1114 C 112.082 1.52121 -1.40976 0
M  V30 1115 C 112.507 1.88098 -0.00826029 0
M  V30 1116 O 111.865 1.52479 0.980807 0
M  V30 1117 C 111.913 2.78021 -2.29644 0
M  V30 1118 O 111.017 3.74272 -1.73188 0
M  V30 1119 H 110.358 0.45908 -0.479731 0
M  V30 1120 H 112.888 0.896207 -1.83927 0
M  V30 1121 H 112.898 3.26671 -2.44438 0
M  V30 1122 H 111.573 2.51169 -3.31492 0
M  V30 1123 H 110.15 3.33073 -1.6768 0
M  V30 1124 N 112.336 1.25143 0.95797 0
M  V30 1125 C 113.613 1.00472 1.67823 0
M  V30 1126 C 113.993 -0.470056 2.058 0
M  V30 1127 O 113.341 -1.44663 1.76875 0
M  V30 1128 C 113.551 1.9372 2.90299 0
M  V30 1129 C 114.899 2.21371 3.62326 0
M  V30 1130 O 115.923 1.91451 3.00375 0
M  V30 1131 O 114.782 2.72231 4.7387 0
M  V30 1132 H 111.876 0.380752 0.734137 0
M  V30 1133 H 114.422 1.36283 1.01119 0
M  V30 1134 H 113.194 2.93316 2.59001 0
M  V30 1135 H 112.817 1.58286 3.64735 0
M  V30 1136 N 113.814 -1.1601 1.06675 0
M  V30 1137 C 115.044 -1.90251 0.805497 0
M  V30 1138 C 115.452 -1.77891 -0.64431 0
M  V30 1139 O 114.795 -1.12383 -1.45313 0
M  V30 1140 C 114.857 -3.41419 1.12576 0
M  V30 1141 C 114.521 -3.77564 2.57477 0
M  V30 1142 C 115.518 -3.79161 3.55715 0
M  V30 1143 C 113.203 -4.08079 2.92877 0
M  V30 1144 C 115.197 -4.10767 4.8739 0
M  V30 1145 C 112.884 -4.39351 4.24751 0
M  V30 1146 C 113.882 -4.40675 5.21818 0
M  V30 1147 O 113.57 -4.71202 6.51325 0
M  V30 1148 H 113.302 -0.610018 0.291297 0
M  V30 1149 H 115.856 -1.47958 1.4247 0
M  V30 1150 H 114.086 -3.84079 0.449503 0
M  V30 1151 H 115.775 -3.9694 0.84814 0
M  V30 1152 H 116.541 -3.55693 3.29708 0
M  V30 1153 H 112.42 -4.06211 2.17976 0
M  V30 1154 H 115.964 -4.11715 5.63148 0
M  V30 1155 H 111.861 -4.62285 4.50514 0
M  V30 1156 H 112.629 -4.88996 6.56373 0
M  V30 1157 N 115.292 -0.849877 -1.32721 0
M  V30 1158 C 116.541 -0.447175 -1.96681 0
M  V30 1159 C 116.854 1.00135 -1.68025 0
M  V30 1160 O 118.06 1.50926 -2.25685 0
M  V30 1161 C 116.516 -0.7487 -3.52026 0
M  V30 1162 C 116.124 -2.21264 -3.89546 0
M  V30 1163 C 117.868 -0.413487 -4.22481 0
M  V30 1164 C 115.775 -2.45763 -5.37917 0
M  V30 1165 H 114.705 -0.163486 -0.736063 0
M  V30 1166 H 117.356 -1.03999 -1.51183 0
M  V30 1167 H 115.738 -0.0853727 -3.95908 0
M  V30 1168 H 116.912 -2.91736 -3.56689 0
M  V30 1169 H 115.227 -2.5119 -3.32103 0
M  V30 1170 H 117.824 -0.574017 -5.3161 0
M  V30 1171 H 118.167 0.644492 -4.11281 0
M  V30 1172 H 118.7 -1.03251 -3.84167 0
M  V30 1173 H 115.439 -3.50168 -5.54132 0
M  V30 1174 H 114.959 -1.79864 -5.72197 0
M  V30 1175 H 116.638 -2.29471 -6.0494 0
M  V30 1176 N 116.77 1.45427 -0.607355 0
M  V30 1177 C 118.018 2.01841 -0.102253 0
M  V30 1178 C 118.339 1.47832 1.27164 0
M  V30 1179 O 117.609 0.672497 1.83995 0
M  V30 1180 H 116.189 0.746188 -0.0348101 0
M  V30 1181 H 118.851 1.78229 -0.7887 0
M  V30 1182 H 117.947 3.12057 -0.0518585 0
M  V30 1183 N 118.248 0.346503 1.53744 0
M  V30 1184 C 119.525 -0.304532 1.93215 0
M  V30 1185 C 119.905 -1.67993 1.27834 0
M  V30 1186 O 119.253 -2.24411 0.430352 0
M  V30 1187 C 119.463 -0.373852 3.46992 0
M  V30 1188 C 120.811 -0.62329 4.2 0
M  V30 1189 O 121.835 -0.455847 3.53271 0
M  V30 1190 O 120.694 -0.947879 5.38217 0
M  V30 1191 H 117.788 -0.178318 0.807547 0
M  V30 1192 H 120.334 0.397895 1.64969 0
M  V30 1193 H 119.106 0.591224 3.86808 0
M  V30 1194 H 118.729 -1.12294 3.81413 0
M  V30 1195 N 119.726 -1.57421 0.075193 0
M  V30 1196 C 120.658 -2.09904 -0.920483 0
M  V30 1197 C 121.671 -1.03191 -1.25918 0
M  V30 1198 O 122.86 -1.30695 -1.21577 0
M  V30 1199 C 119.96 -2.54726 -2.23534 0
M  V30 1200 C 119.133 -3.8505 -2.07498 0
M  V30 1201 C 118.192 -4.15929 -3.22319 0
M  V30 1202 O 117.218 -4.85474 -2.9716 0
M  V30 1203 N 118.42 -3.69745 -4.47514 0
M  V30 1204 H 121.185 -2.95954 -0.472359 0
M  V30 1205 H 118.746 -1.61523 -0.110444 0
M  V30 1206 H 120.738 -2.72443 -2.9926 0
M  V30 1207 H 119.308 -1.73795 -2.59835 0
M  V30 1208 H 118.528 -3.76679 -1.16219 0
M  V30 1209 H 119.816 -4.70348 -1.94038 0
M  V30 1210 H 119.214 -3.13569 -4.7084 0
M  V30 1211 H 117.771 -3.92655 -5.20255 0
M  V30 1212 N 121.204 0.198386 -1.56346 0
M  V30 1213 C 122.481 0.944982 -1.71258 0
M  V30 1214 C 122.861 2.0151 -0.629048 0
M  V30 1215 O 122.209 2.25639 0.360473 0
M  V30 1216 C 122.419 1.5344 -3.1346 0
M  V30 1217 C 123.767 2.01778 -3.73591 0
M  V30 1218 O 124.791 1.63288 -3.16568 0
M  V30 1219 O 123.65 2.72594 -4.73661 0
M  V30 1220 H 120.744 0.442939 -0.69838 0
M  V30 1221 H 123.29 0.188342 -1.68652 0
M  V30 1222 H 122.062 0.762869 -3.83792 0
M  V30 1223 H 121.685 2.35596 -3.20282 0
M  V30 1224 N 122.682 1.50554 0.465978 0
M  V30 1225 C 123.645 1.69233 1.54574 0
M  V30 1226 C 124.645 0.562901 1.50626 0
M  V30 1227 O 125.835 0.830016 1.53155 0
M  V30 1228 C 122.967 1.7223 2.94193 0
M  V30 1229 H 124.16 2.65571 1.39327 0
M  V30 1230 H 121.713 1.40111 0.692711 0
M  V30 1231 H 122.448 0.77603 3.14878 0
M  V30 1232 H 122.233 2.54285 2.98466 0
M  V30 1233 H 123.723 1.88618 3.72576 0
M  V30 1234 N 124.16 -0.719506 1.40217 0
M  V30 1235 C 125.409 -1.47486 1.37589 0
M  V30 1236 C 125.722 -1.9559 -0.0201568 0
M  V30 1237 O 126.928 -2.70973 -0.169049 0
M  V30 1238 C 125.384 -2.66575 2.41796 0
M  V30 1239 C 124.992 -2.25358 3.87192 0
M  V30 1240 C 126.736 -3.4433 2.48269 0
M  V30 1241 C 124.643 -3.41262 4.83005 0
M  V30 1242 H 123.573 -0.553901 0.511576 0
M  V30 1243 H 126.224 -0.783427 1.65936 0
M  V30 1244 H 124.606 -3.3787 2.06543 0
M  V30 1245 H 125.78 -1.61509 4.31569 0
M  V30 1246 H 124.095 -1.60657 3.84159 0
M  V30 1247 H 126.692 -4.30569 3.17041 0
M  V30 1248 H 127.035 -3.87872 1.51198 0
M  V30 1249 H 127.568 -2.80076 2.82493 0
M  V30 1250 H 124.307 -3.02755 5.81394 0
M  V30 1251 H 123.827 -4.0404 4.43297 0
M  V30 1252 H 125.506 -4.07383 5.02641 0
M  V30 1253 N 125.638 -1.25649 -0.95132 0
M  V30 1254 C 126.548 -1.08073 -2.08224 0
M  V30 1255 C 127.564 -0.0169666 -1.73992 0
M  V30 1256 O 128.74 -0.218593 -2.0021 0
M  V30 1257 C 125.805 -0.704922 -3.39458 0
M  V30 1258 C 124.866 -1.84699 -3.87537 0
M  V30 1259 C 124.099 -1.48902 -5.12508 0
M  V30 1260 O 124.322 -0.386156 -5.69091 0
M  V30 1261 O 123.256 -2.32033 -5.55378 0
M  V30 1262 H 127.082 -2.02924 -2.25954 0
M  V30 1263 H 124.667 -1.04618 -1.06656 0
M  V30 1264 H 126.549 -0.507609 -4.18332 0
M  V30 1265 H 125.224 0.214291 -3.2299 0
M  V30 1266 H 124.131 -2.09919 -3.09653 0
M  V30 1267 H 125.464 -2.74557 -4.08509 0
M  V30 1268 N 127.117 1.15442 -1.07289 0
M  V30 1269 C 128.347 1.89821 -0.815576 0
M  V30 1270 C 128.755 1.7823 0.634867 0
M  V30 1271 O 128.098 1.13152 1.44715 0
M  V30 1272 C 128.16 3.40817 -1.14385 0
M  V30 1273 C 127.824 3.76193 -2.59476 0
M  V30 1274 C 128.821 3.77269 -3.57721 0
M  V30 1275 C 126.506 4.0652 -2.95037 0
M  V30 1276 C 128.5 4.08176 -4.89562 0
M  V30 1277 C 126.187 4.37092 -4.27076 0
M  V30 1278 C 127.185 4.37902 -5.24148 0
M  V30 1279 O 126.873 4.67741 -6.53815 0
M  V30 1280 H 126.605 0.608465 -0.294528 0
M  V30 1281 H 129.159 1.472 -1.43252 0
M  V30 1282 H 127.389 3.83835 -0.469865 0
M  V30 1283 H 129.078 3.96485 -0.869179 0
M  V30 1284 H 129.844 3.5394 -3.3159 0
M  V30 1285 H 125.723 4.05049 -2.20128 0
M  V30 1286 H 129.267 4.08723 -5.65324 0
M  V30 1287 H 125.164 4.59889 -4.5296 0
M  V30 1288 H 125.932 4.85509 -6.58957 0
M  V30 1289 N 128.595 0.856903 1.32268 0
M  V30 1290 C 129.528 0.247937 2.26849 0
M  V30 1291 C 130.506 -0.615382 1.50505 0
M  V30 1292 O 131.69 -0.571689 1.79622 0
M  V30 1293 C 128.817 -0.650093 3.32403 0
M  V30 1294 C 127.863 0.140138 4.2627 0
M  V30 1295 S 128.696 1.51004 5.13769 0
M  V30 1296 C 129.852 0.61778 6.22844 0
M  V30 1297 H 130.085 1.04971 2.78152 0
M  V30 1298 H 127.618 0.654665 1.39834 0
M  V30 1299 H 129.576 -1.16256 3.93694 0
M  V30 1300 H 128.237 -1.4257 2.7988 0
M  V30 1301 H 127.43 -0.543945 5.01056 0
M  V30 1302 H 127.032 0.584267 3.69408 0
M  V30 1303 H 129.324 -0.177053 6.77269 0
M  V30 1304 H 130.267 1.33636 6.95375 0
M  V30 1305 H 130.675 0.191124 5.64176 0
M  V30 1306 N 130.073 -1.45103 0.615059 0
M  V30 1307 C 131.313 -2.04069 0.116282 0
M  V30 1308 C 131.677 -1.4721 -1.2326 0
M  V30 1309 O 132.878 -1.97577 -1.82255 0
M  V30 1310 C 131.149 -3.57298 0.085482 0
M  V30 1311 S 132.708 -4.37394 -0.351015 0
M  V30 1312 H 129.526 -0.709006 0.0532183 0
M  V30 1313 H 132.128 -1.77709 0.81484 0
M  V30 1314 H 130.832 -3.9619 1.0706 0
M  V30 1315 H 130.363 -3.88244 -0.634835 0
M  V30 1316 H 132.378 -4.69734 -1.59889 0
M  V30 1317 N 131.551 -0.354651 -1.53558 0
M  V30 1318 C 132.498 0.496968 -2.25386 0
M  V30 1319 C 133.468 1.0865 -1.25636 0
M  V30 1320 O 134.653 1.12104 -1.54394 0
M  V30 1321 C 131.793 1.63637 -3.03837 0
M  V30 1322 C 130.906 1.07307 -4.18461 0
M  V30 1323 C 130.041 2.18068 -4.84376 0
M  V30 1324 C 129.08 1.59147 -5.91049 0
M  V30 1325 N 128.217 2.63695 -6.50699 0
M  V30 1326 H 133.057 -0.122075 -2.9775 0
M  V30 1327 H 130.594 -0.0720154 -1.46924 0
M  V30 1328 H 132.552 2.30734 -3.47589 0
M  V30 1329 H 131.182 2.22623 -2.33749 0
M  V30 1330 H 130.234 0.292708 -3.79272 0
M  V30 1331 H 131.546 0.602193 -4.95152 0
M  V30 1332 H 130.7 2.93007 -5.31255 0
M  V30 1333 H 129.439 2.68504 -4.07133 0
M  V30 1334 H 128.444 0.827175 -5.43542 0
M  V30 1335 H 129.669 1.09549 -6.70206 0
M  V30 1336 H 127.615 3.13365 -5.76315 0
M  V30 1337 H 127.532 2.21263 -7.22896 0
M  V30 1338 H 128.8 3.3837 -7.02229 0
M  V30 1339 N 133.029 1.57378 -0.0835403 0
M  V30 1340 C 134.257 1.98263 0.59157 0
M  V30 1341 C 134.672 0.962302 1.62435 0
M  V30 1342 O 134.029 -0.049581 1.82433 0
M  V30 1343 C 134.08 3.39214 1.24965 0
M  V30 1344 O 133.801 4.37339 0.258186 0
M  V30 1345 C 135.302 3.95038 2.01147 0
M  V30 1346 H 132.522 0.651773 0.159477 0
M  V30 1347 H 135.066 2.03878 -0.159415 0
M  V30 1348 H 133.221 3.34649 1.95164 0
M  V30 1349 H 133.635 5.19371 0.731734 0
M  V30 1350 H 135.109 4.95848 2.42567 0
M  V30 1351 H 135.586 3.32222 2.87272 0
M  V30 1352 H 136.192 4.0304 1.35789 0
M  V30 1353 N 134.507 -0.190092 1.56449 0
M  V30 1354 C 135.755 -0.907908 1.80559 0
M  V30 1355 C 136.076 -1.83583 0.657438 0
M  V30 1356 O 135.346 -1.93203 -0.323924 0
M  V30 1357 H 133.926 -0.338247 0.666032 0
M  V30 1358 H 136.588 -0.194403 1.93928 0
M  V30 1359 H 135.684 -1.49604 2.73907 0
M  V30 1360 N 135.985 -1.50799 -0.457987 0
M  V30 1361 C 137.396 -1.55152 -1.0385 0
M  V30 1362 C 137.747 -0.362719 -1.92818 0
M  V30 1363 O 136.872 0.522915 -2.09987 0
M  V30 1364 C 137.467 -2.81173 -1.89017 0
M  V30 1365 C 136.026 -2.88164 -2.42154 0
M  V30 1366 C 135.173 -2.49591 -1.20829 0
M  V30 1367 H 138.124 -1.56874 -0.240068 0
M  V30 1368 H 138.145 -2.63769 -2.74238 0
M  V30 1369 H 137.657 -3.67677 -1.24238 0
M  V30 1370 H 135.758 -2.06042 -3.10447 0
M  V30 1371 H 135.871 -3.91356 -2.76364 0
M  V30 1372 H 134.235 -2.02322 -1.54719 0
M  V30 1373 H 135.018 -3.38418 -0.576927 0
M  V30 1374 N 137.463 0.71206 -1.40597 0
M  V30 1375 C 138.373 1.8562 -1.43466 0
M  V30 1376 C 139.389 1.70902 -0.326902 0
M  V30 1377 O 140.565 1.93105 -0.572043 0
M  V30 1378 C 137.63 3.21451 -1.29884 0
M  V30 1379 C 136.691 3.48398 -2.50833 0
M  V30 1380 C 135.924 4.77749 -2.3789 0
M  V30 1381 O 136.147 5.53089 -1.39459 0
M  V30 1382 O 135.081 5.05111 -3.27333 0
M  V30 1383 H 138.907 1.86155 -2.39958 0
M  V30 1384 H 136.492 0.86295 -1.21957 0
M  V30 1385 H 138.374 4.02579 -1.24531 0
M  V30 1386 H 137.049 3.21636 -0.364997 0
M  V30 1387 H 135.956 2.67265 -2.61763 0
M  V30 1388 H 137.289 3.53014 -3.4299 0
M  V30 1389 N 138.941 1.26152 0.944643 0
M  V30 1390 C 139.904 1.07474 2.0244 0
M  V30 1391 C 140.904 0.0242064 1.60782 0
M  V30 1392 O 142.094 0.267302 1.72137 0
M  V30 1393 C 139.226 0.633956 3.34953 0
M  V30 1394 H 140.419 2.03336 2.20442 0
M  V30 1395 H 137.972 1.087 1.12312 0
M  V30 1396 H 138.707 -0.326811 3.22649 0
M  V30 1397 H 138.492 1.39247 3.66542 0
M  V30 1398 H 139.982 0.52501 4.14287 0
M  V30 1399 N 140.419 -1.14872 1.07899 0
M  V30 1400 C 141.668 -1.85135 0.800499 0
M  V30 1401 C 141.981 -1.83547 -0.676014 0
M  V30 1402 O 143.187 -2.49548 -1.06948 0
M  V30 1403 C 141.643 -3.3231 1.38197 0
M  V30 1404 C 141.251 -3.42329 2.8899 0
M  V30 1405 C 142.995 -4.0772 1.18174 0
M  V30 1406 C 140.902 -4.83684 3.403 0
M  V30 1407 H 139.832 -0.693563 0.29578 0
M  V30 1408 H 142.483 -1.29532 1.29976 0
M  V30 1409 H 140.865 -3.87618 0.810431 0
M  V30 1410 H 142.039 -2.97097 3.52236 0
M  V30 1411 H 140.354 -2.80369 3.07867 0
M  V30 1412 H 142.951 -5.12049 1.5398 0
M  V30 1413 H 143.294 -4.16124 0.12117 0
M  V30 1414 H 143.827 -3.58696 1.71994 0
M  V30 1415 H 140.566 -4.80465 4.45907 0
M  V30 1416 H 140.086 -5.29474 2.81811 0
M  V30 1417 H 141.765 -5.52558 3.36584 0
M  V30 1418 N 141.898 -0.863906 -1.31812 0
M  V30 1419 C 142.828 -0.330843 -2.31144 0
M  V30 1420 C 143.809 0.575005 -1.60087 0
M  V30 1421 O 144.994 0.493304 -1.8783 0
M  V30 1422 C 142.124 0.47374 -3.44054 0
M  V30 1423 C 141.078 -0.338481 -4.26659 0
M  V30 1424 C 140.404 0.591412 -5.31419 0
M  V30 1425 C 141.704 -1.56926 -4.98168 0
M  V30 1426 H 143.398 -1.16086 -2.75979 0
M  V30 1427 H 140.944 -0.559657 -1.32679 0
M  V30 1428 H 142.897 0.857143 -4.12591 0
M  V30 1429 H 141.621 1.33721 -2.9797 0
M  V30 1430 H 140.28 -0.703754 -3.59782 0
M  V30 1431 H 139.928 1.45199 -4.81587 0
M  V30 1432 H 139.628 0.0519022 -5.87577 0
M  V30 1433 H 141.152 0.97179 -6.02817 0
M  V30 1434 H 142.566 -1.25764 -5.59336 0
M  V30 1435 H 140.963 -2.04739 -5.64094 0
M  V30 1436 H 142.033 -2.32544 -4.25501 0
M  V30 1437 N 143.376 1.44774 -0.622745 0
M  V30 1438 C 144.286 2.34433 0.0886031 0
M  V30 1439 C 145.302 1.52131 0.844529 0
M  V30 1440 O 146.478 1.84886 0.798691 0
M  V30 1441 C 143.543 3.29986 1.0635 0
M  V30 1442 C 142.604 4.28195 0.307873 0
M  V30 1443 C 141.837 5.19183 1.23633 0
M  V30 1444 O 142.06 5.13918 2.47476 0
M  V30 1445 O 140.994 5.97515 0.725189 0
M  V30 1446 H 144.82 2.96693 -0.648599 0
M  V30 1447 H 142.405 1.44408 -0.382957 0
M  V30 1448 H 144.287 3.88825 1.6246 0
M  V30 1449 H 142.962 2.70269 1.78146 0
M  V30 1450 H 141.869 3.72927 -0.296064 0
M  V30 1451 H 143.202 4.90808 -0.3699 0
M  V30 1452 N 144.854 0.36279 1.53368 0
M  V30 1453 C 145.784 -0.476976 2.28576 0
M  V30 1454 C 146.765 -1.08631 1.30894 0
M  V30 1455 O 147.95 -1.10409 1.59761 0
M  V30 1456 C 145.08 -1.61828 3.07293 0
M  V30 1457 C 144.034 -1.13633 4.1264 0
M  V30 1458 C 143.36 -2.36766 4.79423 0
M  V30 1459 C 144.66 -0.223061 5.21823 0
M  V30 1460 H 146.354 0.150474 2.99022 0
M  V30 1461 H 143.9 0.0738103 1.43811 0
M  V30 1462 H 145.853 -2.21237 3.58653 0
M  V30 1463 H 144.577 -2.27292 2.34533 0
M  V30 1464 H 143.236 -0.564945 3.62221 0
M  V30 1465 H 142.884 -3.0068 4.03238 0
M  V30 1466 H 142.584 -2.05192 5.50609 0
M  V30 1467 H 144.108 -2.96865 5.33576 0
M  V30 1468 H 145.522 -0.724545 5.68703 0
M  V30 1469 H 143.919 0.001678 6.001 0
M  V30 1470 H 144.989 0.735553 4.79289 0
M  V30 1471 N 146.332 -1.57332 0.0918853 0
M  V30 1472 C 147.242 -2.17368 -0.882505 0
M  V30 1473 C 148.258 -1.14226 -1.31257 0
M  V30 1474 O 149.434 -1.46582 -1.38115 0
M  V30 1475 C 146.499 -2.73962 -2.12476 0
M  V30 1476 C 145.56 -3.92048 -1.7492 0
M  V30 1477 C 144.793 -4.45933 -2.93223 0
M  V30 1478 O 145.016 -3.98764 -4.07852 0
M  V30 1479 O 143.95 -5.36999 -2.71875 0
M  V30 1480 H 147.776 -3.01031 -0.40172 0
M  V30 1481 H 145.361 -1.48813 -0.132291 0
M  V30 1482 H 147.243 -3.10147 -2.85283 0
M  V30 1483 H 145.918 -1.93347 -2.59613 0
M  V30 1484 H 144.825 -3.6068 -0.993025 0
M  V30 1485 H 146.158 -4.74017 -1.32548 0
M  V30 1486 N 147.81 0.181792 -1.56548 0
M  V30 1487 C 148.76 1.22961 -1.92002 0
M  V30 1488 C 149.744 1.40331 -0.787146 0
M  V30 1489 O 150.936 1.42478 -1.05019 0
M  V30 1490 C 148.065 2.57144 -2.27446 0
M  V30 1491 C 147.151 2.43512 -3.47222 0
M  V30 1492 N 147.542 1.99577 -4.64761 0
M  V30 1493 C 145.84 2.74368 -3.51622 0
M  V30 1494 C 146.541 1.98156 -5.46909 0
M  V30 1495 N 145.517 2.40164 -4.8767 0
M  V30 1496 H 149.319 0.881462 -2.8037 0
M  V30 1497 H 146.833 0.390141 -1.57644 0
M  V30 1498 H 148.83 3.32847 -2.51035 0
M  V30 1499 H 147.49 2.92771 -1.40411 0
M  V30 1500 H 148.501 1.70078 -4.89177 0
M  V30 1501 H 145.178 3.14102 -2.75038 0
M  V30 1502 H 146.568 1.65975 -6.51077 0
M  V30 1503 N 149.288 1.51039 0.449983 0
M  V30 1504 C 150.221 1.66105 1.56474 0
M  V30 1505 C 151.199 0.508776 1.54435 0
M  V30 1506 O 152.383 0.731005 1.73749 0
M  V30 1507 C 149.51 1.66304 2.9506 0
M  V30 1508 C 148.556 2.87346 3.15174 0
M  V30 1509 S 149.389 4.4835 2.92818 0
M  V30 1510 C 150.545 4.51274 4.33708 0
M  V30 1511 H 150.778 2.60397 1.43459 0
M  V30 1512 H 148.311 1.40565 0.638805 0
M  V30 1513 H 150.269 1.67103 3.74949 0
M  V30 1514 H 148.93 0.732108 3.05449 0
M  V30 1515 H 148.123 2.83849 4.16468 0
M  V30 1516 H 147.725 2.84223 2.43091 0
M  V30 1517 H 150.017 4.26136 5.26701 0
M  V30 1518 H 150.96 5.53017 4.42242 0
M  V30 1519 H 151.368 3.80738 4.16772 0
M  V30 1520 N 150.766 -0.704594 1.40972 0
M  V30 1521 C 152.014 -1.46169 1.39568 0
M  V30 1522 C 152.335 -1.95 0.00253745 0
M  V30 1523 O 151.605 -1.71095 -0.954114 0
M  V30 1524 H 150.185 -0.542326 0.513704 0
M  V30 1525 H 152.847 -0.834553 1.76128 0
M  V30 1526 H 151.943 -2.32922 2.07735 0
M  V30 1527 N 152.244 -1.26651 -0.937939 0
M  V30 1528 C 153.174 -1.10993 -2.05433 0
M  V30 1529 C 154.155 -0.0142161 -1.70094 0
M  V30 1530 O 155.34 -0.186837 -1.93299 0
M  V30 1531 C 152.47 -0.745561 -3.39203 0
M  V30 1532 C 151.424 -1.79337 -3.88616 0
M  V30 1533 C 150.75 -1.28324 -5.19073 0
M  V30 1534 C 152.05 -3.19553 -4.13138 0
M  V30 1535 H 153.744 -2.0438 -2.1879 0
M  V30 1536 H 151.29 -0.984041 -1.05131 0
M  V30 1537 H 153.243 -0.622888 -4.16771 0
M  V30 1538 H 151.967 0.22401 -3.25831 0
M  V30 1539 H 150.626 -1.90477 -3.13231 0
M  V30 1540 H 150.274 -0.303414 -5.02084 0
M  V30 1541 H 149.974 -1.98369 -5.53103 0
M  V30 1542 H 151.498 -1.1733 -5.99221 0
M  V30 1543 H 152.912 -3.11471 -4.81309 0
M  V30 1544 H 151.309 -3.87218 -4.58457 0
M  V30 1545 H 152.379 -3.65368 -3.18801 0
M  V30 1546 N 153.722 1.14298 -1.08507 0
M  V30 1547 C 155.133 1.66926 -0.836227 0
M  V30 1548 C 155.484 1.85576 0.63686 0
M  V30 1549 O 154.609 1.56767 1.49175 0
M  V30 1550 C 155.204 3.03219 -1.51142 0
M  V30 1551 C 153.763 3.52876 -1.30979 0
M  V30 1552 C 152.91 2.2833 -1.57356 0
M  V30 1553 H 155.861 0.983491 -1.24552 0
M  V30 1554 H 155.882 3.68726 -0.939211 0
M  V30 1555 H 155.394 2.89612 -2.58353 0
M  V30 1556 H 153.495 3.71703 -0.258429 0
M  V30 1557 H 153.608 4.33586 -2.03814 0
M  V30 1558 H 151.972 2.34454 -0.995164 0
M  V30 1559 H 152.755 2.17298 -2.65775 0
M  V30 1560 N 155.201 0.870884 1.31352 0
M  V30 1561 C 156.448 0.482273 1.96673 0
M  V30 1562 C 156.776 -0.965638 1.68836 0
M  V30 1563 O 156.031 -1.69514 0.977937 0
M  V30 1564 C 156.33 0.687157 3.50732 0
M  V30 1565 C 155.996 2.108 3.9859 0
M  V30 1566 C 154.658 2.49656 4.1137 0
M  V30 1567 C 157.01 3.03459 4.23748 0
M  V30 1568 C 154.338 3.80412 4.46659 0
M  V30 1569 C 156.69 4.3373 4.60501 0
M  V30 1570 C 155.354 4.725 4.71487 0
M  V30 1571 H 154.624 0.176476 0.719679 0
M  V30 1572 H 157.271 1.10405 1.56471 0
M  V30 1573 H 155.576 -0.0177476 3.91796 0
M  V30 1574 H 157.273 0.366284 3.99324 0
M  V30 1575 H 153.863 1.79633 3.8914 0
M  V30 1576 H 158.047 2.74665 4.13368 0
M  V30 1577 H 153.303 4.1021 4.53362 0
M  V30 1578 H 157.477 5.05578 4.78919 0
M  V30 1579 H 155.104 5.73859 4.98588 0
M  V30 1580 N 156.679 -1.44442 0.630414 0
M  V30 1581 C 157.904 -2.06927 0.139944 0
M  V30 1582 C 158.329 -1.46795 -1.17613 0
M  V30 1583 O 157.687 -0.569144 -1.72135 0
M  V30 1584 C 157.735 -3.6058 0.0379581 0
M  V30 1585 O 156.839 -3.99937 -1.0062 0
M  V30 1586 H 156.18 -0.658608 0.0844483 0
M  V30 1587 H 158.71 -1.85327 0.866891 0
M  V30 1588 H 158.72 -4.07714 -0.152856 0
M  V30 1589 H 157.395 -4.03728 0.998809 0
M  V30 1590 H 155.972 -3.64436 -0.79001 0
M  V30 1591 N 158.157 -0.370918 -1.53173 0
M  V30 1592 C 159.573 -0.0200818 -1.59587 0
M  V30 1593 C 159.773 1.46279 -1.38581 0
M  V30 1594 O 158.829 2.22506 -1.19363 0
M  V30 1595 C 160.142 -0.4808 -2.96831 0
M  V30 1596 C 161.69 -0.435477 -3.09956 0
M  V30 1597 C 162.165 -0.872092 -4.4962 0
M  V30 1598 N 163.656 -0.827364 -4.55751 0
M  V30 1599 C 164.391 -1.13683 -5.62018 0
M  V30 1600 N 163.887 -1.51584 -6.76014 0
M  V30 1601 N 165.68 -1.05927 -5.52029 0
M  V30 1602 H 157.831 -1.33652 -1.65079 0
M  V30 1603 H 160.094 -0.546634 -0.774529 0
M  V30 1604 H 159.8 -1.51577 -3.1736 0
M  V30 1605 H 159.674 0.129796 -3.76977 0
M  V30 1606 H 162.061 0.590371 -2.89134 0
M  V30 1607 H 162.142 -1.08164 -2.31806 0
M  V30 1608 H 161.786 -1.89608 -4.71181 0
M  V30 1609 H 161.716 -0.203127 -5.26208 0
M  V30 1610 H 164.207 -0.548216 -3.73902 0
M  V30 1611 H 164.52 -1.73609 -7.53047 0
M  V30 1612 H 162.865 -1.55454 -6.77391 0
M  V30 1613 H 166.056 -0.762321 -4.61851 0
M  V30 1614 H 166.229 -1.30378 -6.34749 0
M  V30 1615 N 159.635 1.57281 -0.100228 0
M  V30 1616 C 160.565 2.17328 0.853857 0
M  V30 1617 C 161.546 1.10804 1.2906 0
M  V30 1618 O 162.731 1.38963 1.35657 0
M  V30 1619 C 159.861 2.75772 2.11109 0
M  V30 1620 C 158.815 3.87713 1.81279 0
M  V30 1621 C 158.141 4.32882 3.13874 0
M  V30 1622 C 159.441 5.10677 1.09574 0
M  V30 1623 H 161.135 2.97305 0.353545 0
M  V30 1624 H 158.681 1.43009 0.168612 0
M  V30 1625 H 160.634 3.16433 2.78296 0
M  V30 1626 H 159.358 1.93057 2.63432 0
M  V30 1627 H 158.017 3.476 1.16489 0
M  V30 1628 H 157.665 3.47051 3.64095 0
M  V30 1629 H 157.365 5.08358 2.94696 0
M  V30 1630 H 158.889 4.7618 3.82211 0
M  V30 1631 H 160.303 5.48474 1.66879 0
M  V30 1632 H 158.7 5.91615 1.00557 0
M  V30 1633 H 159.77 4.84835 0.0793299 0
M  V30 1634 N 161.113 -0.173488 1.56642 0
M  V30 1635 C 162.39 -0.917617 1.7274 0
M  V30 1636 C 162.77 -2.00484 0.661027 0
M  V30 1637 O 162.118 -2.26184 -0.32453 0
M  V30 1638 C 162.328 -1.48433 3.15862 0
M  V30 1639 C 163.676 -1.95809 3.76754 0
M  V30 1640 O 164.7 -1.58231 3.19126 0
M  V30 1641 O 163.559 -2.65024 4.77938 0
M  V30 1642 H 160.653 -0.431772 0.705338 0
M  V30 1643 H 163.199 -0.161487 1.6893 0
M  V30 1644 H 161.971 -0.701715 3.84957 0
M  V30 1645 H 161.594 -2.30471 3.23989 0
M  V30 1646 N 162.591 -1.51276 -0.441967 0
M  V30 1647 C 163.868 -1.54252 -1.20273 0
M  V30 1648 C 164.248 -0.30408 -2.08898 0
M  V30 1649 O 163.596 0.711084 -2.17154 0
M  V30 1650 C 163.806 -2.85406 -2.00859 0
M  V30 1651 C 165.154 -3.37181 -2.58059 0
M  V30 1652 O 166.178 -2.86925 -2.11074 0
M  V30 1653 O 165.037 -4.24858 -3.43741 0
M  V30 1654 H 162.131 -0.619969 -0.547328 0
M  V30 1655 H 164.677 -1.63586 -0.451413 0
M  V30 1656 H 163.449 -3.67003 -1.35736 0
M  V30 1657 H 163.072 -2.79213 -2.83065 0
M  V30 1658 N 164.069 0.697108 -1.41344 0
M  V30 1659 C 165.317 1.45426 -1.40341 0
M  V30 1660 C 165.638 1.94996 -0.0128787 0
M  V30 1661 O 164.908 1.71599 0.945027 0
M  V30 1662 H 163.488 0.539594 -0.516573 0
M  V30 1663 H 166.15 0.825201 -1.76569 0
M  V30 1664 H 165.246 2.31817 -2.08967 0
M  V30 1665 N 165.547 1.27147 0.931209 0
M  V30 1666 C 166.963 1.04475 1.20653 0
M  V30 1667 C 167.163 -0.223885 2.00252 0
M  V30 1668 O 166.219 -0.930332 2.34736 0
M  V30 1669 C 167.532 2.28209 1.95809 0
M  V30 1670 C 169.08 2.33211 2.08762 0
M  V30 1671 C 169.555 3.56665 2.87323 0
M  V30 1672 N 171.046 3.57201 2.94892 0
M  V30 1673 C 171.781 4.49395 3.56134 0
M  V30 1674 N 171.277 5.51889 4.18796 0
M  V30 1675 N 173.07 4.37026 3.53504 0
M  V30 1676 H 165.221 2.08612 0.399333 0
M  V30 1677 H 167.484 0.917312 0.239253 0
M  V30 1678 H 167.19 3.20538 1.44736 0
M  V30 1679 H 167.064 2.33247 2.96438 0
M  V30 1680 H 169.451 1.41391 2.59023 0
M  V30 1681 H 169.532 2.32178 1.07364 0
M  V30 1682 H 169.176 4.4882 2.37746 0
M  V30 1683 H 169.106 3.54948 3.88998 0
M  V30 1684 H 171.597 2.83074 2.50354 0
M  V30 1685 H 171.91 6.18409 4.63454 0
M  V30 1686 H 170.255 5.55735 4.17353 0
M  V30 1687 H 173.446 3.56166 3.03749 0
M  V30 1688 H 173.619 5.09067 4.00942 0
M  V30 1689 N 167.025 -1.13721 1.09112 0
M  V30 1690 C 168.274 -1.84275 0.82009 0
M  V30 1691 C 168.587 -1.84253 -0.656509 0
M  V30 1692 O 169.793 -2.50668 -1.04296 0
M  V30 1693 C 168.249 -3.30825 1.41714 0
M  V30 1694 C 167.857 -3.39244 2.92605 0
M  V30 1695 C 169.601 -4.06443 1.22492 0
M  V30 1696 C 167.508 -4.80047 3.45411 0
M  V30 1697 H 166.438 -0.690387 0.30312 0
M  V30 1698 H 169.089 -1.28146 1.31343 0
M  V30 1699 H 167.471 -3.86737 0.851498 0
M  V30 1700 H 168.645 -2.93344 3.55367 0
M  V30 1701 H 166.96 -2.77088 3.10823 0
M  V30 1702 H 169.557 -5.10387 1.59402 0
M  V30 1703 H 169.9 -4.15972 0.165299 0
M  V30 1704 H 170.433 -3.56852 1.75788 0
M  V30 1705 H 167.172 -4.75709 4.50978 0
M  V30 1706 H 166.692 -5.26455 2.87411 0
M  V30 1707 H 168.371 -5.48957 3.42425 0
M  V30 1708 N 168.503 -0.877838 -1.30888 0
M  V30 1709 C 169.733 -0.506678 -2.00291 0
M  V30 1710 C 170.141 0.907449 -1.66018 0
M  V30 1711 O 169.484 1.60719 -0.88967 0
M  V30 1712 C 169.546 -0.59323 -3.54572 0
M  V30 1713 C 169.21 -1.97038 -4.12341 0
M  V30 1714 C 170.207 -2.93889 -4.28865 0
M  V30 1715 C 167.892 -2.27383 -4.47886 0
M  V30 1716 C 169.886 -4.19224 -4.80136 0
M  V30 1717 C 167.573 -3.52965 -4.98857 0
M  V30 1718 C 168.571 -4.48701 -5.14934 0
M  V30 1719 O 168.259 -5.72056 -5.64808 0
M  V30 1720 H 167.991 -0.1951 -0.647234 0
M  V30 1721 H 170.545 -1.18301 -1.6791 0
M  V30 1722 H 168.775 0.140057 -3.86446 0
M  V30 1723 H 170.464 -0.234372 -4.05223 0
M  V30 1724 H 171.23 -2.71756 -4.01714 0
M  V30 1725 H 167.109 -1.53639 -4.34645 0
M  V30 1726 H 170.653 -4.93956 -4.92599 0
M  V30 1727 H 166.55 -3.74939 -5.25443 0
M  V30 1728 H 167.318 -5.74337 -5.83163 0
M  V30 1729 N 169.982 1.44106 -0.638065 0
M  V30 1730 C 170.914 2.28976 0.101205 0
M  V30 1731 C 171.927 1.4167 0.802088 0
M  V30 1732 O 173.116 1.65755 0.662375 0
M  V30 1733 C 170.216 3.18217 1.16581 0
M  V30 1734 C 169.389 4.33978 0.546066 0
M  V30 1735 C 168.448 5.04202 1.50554 0
M  V30 1736 O 167.474 5.59986 1.01999 0
M  V30 1737 N 168.676 5.06296 2.8398 0
M  V30 1738 H 171.441 2.93064 -0.627186 0
M  V30 1739 H 169.002 1.54629 -0.479731 0
M  V30 1740 H 170.994 3.62061 1.80815 0
M  V30 1741 H 169.564 2.55833 1.79634 0
M  V30 1742 H 168.784 3.93239 -0.275046 0
M  V30 1743 H 170.072 5.08675 0.112793 0
M  V30 1744 H 169.47 4.62319 3.26002 0
M  V30 1745 H 168.027 5.53907 3.43556 0
M  V30 1746 N 171.46 0.379036 1.52974 0
M  V30 1747 C 172.876 0.0285448 1.59574 0
M  V30 1748 C 173.076 -1.45542 1.39355 0
M  V30 1749 O 172.132 -2.2187 1.20541 0
M  V30 1750 C 173.445 0.496535 2.96572 0
M  V30 1751 C 174.993 0.451909 3.0972 0
M  V30 1752 C 175.468 0.895924 4.49152 0
M  V30 1753 N 176.959 0.851522 4.55306 0
M  V30 1754 C 177.694 1.16661 5.61407 0
M  V30 1755 N 177.19 1.55166 6.752 0
M  V30 1756 N 178.983 1.08853 5.51459 0
M  V30 1757 H 171.134 1.34525 1.64367 0
M  V30 1758 H 173.397 0.550733 0.771619 0
M  V30 1759 H 173.103 1.53258 3.16552 0
M  V30 1760 H 172.977 -0.109802 3.7704 0
M  V30 1761 H 175.364 -0.575029 2.89443 0
M  V30 1762 H 175.445 1.09392 2.3123 0
M  V30 1763 H 175.089 1.92104 4.70168 0
M  V30 1764 H 175.019 0.23103 5.26093 0
M  V30 1765 H 177.51 0.568038 3.73606 0
M  V30 1766 H 177.823 1.776 7.52116 0
M  V30 1767 H 176.168 1.59044 6.76557 0
M  V30 1768 H 179.359 0.786803 4.6144 0
M  V30 1769 H 179.532 1.33742 6.34048 0
M  V30 1770 N 172.938 -1.57226 0.108567 0
M  V30 1771 C 174.349 -1.8195 -0.418464 0
M  V30 1772 C 174.7 -1.02508 -1.67292 0
M  V30 1773 O 173.825 -0.258496 -2.14851 0
M  V30 1774 C 174.42 -3.30028 -0.765979 0
M  V30 1775 C 172.979 -3.55469 -1.23769 0
M  V30 1776 C 172.126 -2.7625 -0.241106 0
M  V30 1777 H 175.077 -1.55149 0.33384 0
M  V30 1778 H 175.098 -3.44086 -1.62434 0
M  V30 1779 H 174.61 -3.87821 0.147219 0
M  V30 1780 H 172.711 -3.03022 -2.16814 0
M  V30 1781 H 172.824 -4.6408 -1.19022 0
M  V30 1782 H 171.188 -2.44133 -0.72602 0
M  V30 1783 H 171.971 -3.36797 0.665007 0
M  V30 1784 N 174.416 0.165178 -1.56732 0
M  V30 1785 C 175.663 0.880807 -1.8234 0
M  V30 1786 C 175.991 1.81977 -0.686621 0
M  V30 1787 O 175.246 1.92971 0.325697 0
M  V30 1788 C 175.545 1.70405 -3.1416 0
M  V30 1789 C 175.211 0.913475 -4.4155 0
M  V30 1790 C 173.873 0.695303 -4.7615 0
M  V30 1791 C 176.225 0.359349 -5.1996 0
M  V30 1792 C 173.553 -0.0879947 -5.86634 0
M  V30 1793 C 175.905 -0.410893 -6.31264 0
M  V30 1794 C 174.569 -0.639808 -6.64427 0
M  V30 1795 H 173.839 0.32231 -0.667231 0
M  V30 1796 H 176.486 0.145402 -1.90947 0
M  V30 1797 H 174.791 2.50903 -3.00923 0
M  V30 1798 H 176.488 2.26091 -3.31186 0
M  V30 1799 H 173.078 1.09357 -4.14414 0
M  V30 1800 H 177.262 0.515228 -4.93618 0
M  V30 1801 H 172.518 -0.27503 -6.10781 0
M  V30 1802 H 176.692 -0.847494 -6.91224 0
M  V30 1803 H 174.319 -1.24864 -7.49875 0
M  V30 1804 N 175.894 1.51508 0.433938 0
M  V30 1805 C 177.142 1.6402 1.18075 0
M  V30 1806 C 177.463 0.360328 1.91642 0
M  V30 1807 O 176.733 -0.623945 1.85698 0
M  V30 1808 H 175.313 0.6045 0.43885 0
M  V30 1809 H 177.975 1.88452 0.497178 0
M  V30 1810 H 177.071 2.46949 1.90847 0
M  V30 1811 N 177.372 -0.689602 1.41712 0
M  V30 1812 C 178.62 -1.4468 1.4111 0
M  V30 1813 C 178.941 -1.94986 0.0232196 0
M  V30 1814 O 178.211 -1.72097 -0.935913 0
M  V30 1815 H 176.791 -0.536847 0.519427 0
M  V30 1816 H 179.453 -0.815825 1.77004 0
M  V30 1817 H 178.549 -2.30706 2.10193 0
M  V30 1818 N 178.85 -1.27639 -0.924453 0
M  V30 1819 C 179.782 -1.06442 -2.02985 0
M  V30 1820 C 180.795 -0.0194771 -1.62788 0
M  V30 1821 O 181.984 -0.261388 -1.76576 0
M  V30 1822 C 179.084 -0.59327 -3.33667 0
M  V30 1823 C 178.257 -1.71123 -4.02537 0
M  V30 1824 C 177.316 -1.23527 -5.11495 0
M  V30 1825 O 176.342 -1.93553 -5.35281 0
M  V30 1826 N 177.544 -0.0926678 -5.80426 0
M  V30 1827 H 180.309 -2.01633 -2.2173 0
M  V30 1828 H 177.87 -1.19248 -1.09505 0
M  V30 1829 H 179.862 -0.258686 -4.03872 0
M  V30 1830 H 178.432 0.265502 -3.1147 0
M  V30 1831 H 177.652 -2.21593 -3.26022 0
M  V30 1832 H 178.94 -2.46145 -4.45298 0
M  V30 1833 H 178.338 0.491741 -5.63559 0
M  V30 1834 H 176.895 0.182714 -6.51544 0
M  V30 1835 N 180.328 1.1314 -1.09713 0
M  V30 1836 C 181.553 1.88862 -0.857081 0
M  V30 1837 C 181.978 1.78729 0.586304 0
M  V30 1838 O 181.336 1.13692 1.41222 0
M  V30 1839 C 181.384 3.36325 -1.30069 0
M  V30 1840 O 180.488 4.09815 -0.461007 0
M  V30 1841 H 179.829 0.587108 -0.310162 0
M  V30 1842 H 182.359 1.43129 -1.46203 0
M  V30 1843 H 182.369 3.87157 -1.28738 0
M  V30 1844 H 181.044 3.43017 -2.35185 0
M  V30 1845 H 179.621 3.68986 -0.538888 0
M  V30 1846 N 181.806 0.884767 1.30421 0
M  V30 1847 C 182.753 0.349642 2.28136 0
M  V30 1848 C 183.723 -0.560061 1.56373 0
M  V30 1849 O 184.908 -0.488524 1.8444 0
M  V30 1850 C 182.048 -0.42999 3.42411 0
M  V30 1851 C 181.161 0.508907 4.28992 0
M  V30 1852 C 180.296 -0.286301 5.30428 0
M  V30 1853 C 179.335 0.648079 6.08659 0
M  V30 1854 N 178.472 -0.111792 7.02011 0
M  V30 1855 H 183.312 1.18807 2.73293 0
M  V30 1856 H 180.849 0.597231 1.3443 0
M  V30 1857 H 182.807 -0.897923 4.07423 0
M  V30 1858 H 181.437 -1.23299 2.98324 0
M  V30 1859 H 180.489 1.09533 3.64289 0
M  V30 1860 H 181.801 1.22475 4.8353 0
M  V30 1861 H 180.955 -0.816098 6.01186 0
M  V30 1862 H 179.694 -1.03536 4.76583 0
M  V30 1863 H 178.699 1.18951 5.36778 0
M  V30 1864 H 179.924 1.39623 6.64592 0
M  V30 1865 H 177.87 -0.843395 6.50556 0
M  V30 1866 H 177.787 0.544429 7.54037 0
M  V30 1867 H 179.055 -0.622339 7.77012 0
M  V30 1868 N 183.284 -1.43765 0.645699 0
M  V30 1869 C 184.232 -2.32516 -0.0624849 0
M  V30 1870 C 185.226 -1.48183 -0.820855 0
M  V30 1871 O 186.432 -1.64439 -0.732106 0
M  V30 1872 H 182.807 -0.750989 -0.0389864 0
M  V30 1873 H 184.778 -2.89979 0.703892 0
M  V30 1874 C 183.527 -3.32389 -1.02044 0
M  V30 1875 H 182.85 -3.97301 -0.446312 0
M  V30 1876 H 184.29 -3.97138 -1.48517 0
M  V30 1877 C 182.749 -2.62416 -2.11281 0
M  V30 1878 O 183.279 -2.434 -3.19561 0
M  V30 1879 N 181.485 -2.21913 -1.87624 0
M  V30 1880 H 181.032 -2.37578 -0.995703 0
M  V30 1881 H 180.99 -1.75424 -2.6091 0
M  V30 1882 N 184.763 -0.387143 -1.52771 0
M  V30 1883 C 186.01 0.195735 -2.01552 0
M  V30 1884 C 186.338 1.46995 -1.27369 0
M  V30 1885 O 185.593 1.92325 -0.361879 0
M  V30 1886 C 185.892 0.512209 -3.53711 0
M  V30 1887 C 185.558 -0.670202 -4.45891 0
M  V30 1888 C 184.22 -0.994586 -4.70809 0
M  V30 1889 C 186.572 -1.46134 -5.00294 0
M  V30 1890 C 183.9 -2.11169 -5.4738 0
M  V30 1891 C 186.252 -2.56903 -5.78086 0
M  V30 1892 C 184.916 -2.89852 -6.01284 0
M  V30 1893 H 184.186 0.0716246 -0.73753 0
M  V30 1894 H 186.833 -0.524046 -1.8419 0
M  V30 1895 H 185.138 1.31329 -3.69134 0
M  V30 1896 H 186.835 0.975804 -3.88946 0
M  V30 1897 H 183.425 -0.407366 -4.2666 0
M  V30 1898 H 187.609 -1.22397 -4.80971 0
M  V30 1899 H 182.865 -2.3707 -5.63567 0
M  V30 1900 H 187.039 -3.18608 -6.19243 0
M  V30 1901 H 184.666 -3.76533 -6.60399 0
M  V30 1902 N 186.241 1.57166 -0.116904 0
M  V30 1903 C 187.489 1.94737 0.540533 0
M  V30 1904 C 187.81 1.00096 1.67349 0
M  V30 1905 O 187.08 0.0568854 1.95817 0
M  V30 1906 H 185.66 0.718981 0.202669 0
M  V30 1907 H 188.322 1.94017 -0.185353 0
M  V30 1908 H 187.418 2.97719 0.936483 0
M  V30 1909 N 187.719 -0.156864 1.56817 0
M  V30 1910 C 188.967 -0.869404 1.82444 0
M  V30 1911 C 189.288 -1.82147 0.69623 0
M  V30 1912 O 188.558 -1.93847 -0.28287 0
M  V30 1913 H 187.138 -0.324043 0.673056 0
M  V30 1914 H 189.8 -0.153224 1.94297 0
M  V30 1915 H 188.896 -1.43761 2.77019 0
M  V30 1916 N 189.197 -1.51736 -0.425897 0
M  V30 1917 C 190.107 -1.76738 -1.54275 0
M  V30 1918 C 191.123 -0.65211 -1.61318 0
M  V30 1919 O 192.299 -0.935654 -1.78346 0
M  V30 1920 C 189.364 -1.89755 -2.90162 0
M  V30 1921 C 188.425 -3.13633 -2.93143 0
M  V30 1922 C 187.658 -3.2602 -4.22548 0
M  V30 1923 O 187.881 -2.44067 -5.15546 0
M  V30 1924 O 186.815 -4.19071 -4.32046 0
M  V30 1925 H 190.641 -2.71502 -1.36089 0
M  V30 1926 H 188.226 -1.36376 -0.610069 0
M  V30 1927 H 190.108 -2.00236 -3.70788 0
M  V30 1928 H 188.783 -0.981785 -3.08452 0
M  V30 1929 H 187.69 -3.08622 -2.11431 0
M  V30 1930 H 189.023 -4.04936 -2.798 0
M  V30 1931 N 190.675 0.682077 -1.42076 0
M  V30 1932 C 191.607 1.80755 -1.40926 0
M  V30 1933 C 192.62 1.59833 -0.309398 0
M  V30 1934 O 193.809 1.69087 -0.572014 0
M  V30 1935 C 190.909 3.17744 -1.17865 0
M  V30 1936 C 190.082 3.65578 -2.40149 0
M  V30 1937 C 189.141 4.81277 -2.12742 0
M  V30 1938 O 188.167 4.92197 -2.85887 0
M  V30 1939 N 189.369 5.69474 -1.12602 0
M  V30 1940 H 192.134 1.82229 -2.37935 0
M  V30 1941 H 189.695 0.864903 -1.36861 0
M  V30 1942 H 191.687 3.9279 -0.9746 0
M  V30 1943 H 190.257 3.11214 -0.294068 0
M  V30 1944 H 189.477 2.81291 -2.76169 0
M  V30 1945 H 190.765 3.94278 -3.21593 0
M  V30 1946 H 190.163 5.63297 -0.520899 0
M  V30 1947 H 188.72 6.44363 -0.981842 0
M  V30 1948 N 192.153 1.28127 0.917671 0
M  V30 1949 C 193.116 1.11744 2.00115 0
M  V30 1950 C 194.116 0.0583052 1.60694 0
M  V30 1951 O 195.306 0.303755 1.71531 0
M  V30 1952 C 192.438 0.704862 3.33533 0
M  V30 1953 H 193.631 2.07966 2.16079 0
M  V30 1954 H 191.184 1.11058 1.09981 0
M  V30 1955 H 191.919 -0.258299 3.2327 0
M  V30 1956 H 191.704 1.4699 3.63505 0
M  V30 1957 H 193.194 0.612768 4.1308 0
M  V30 1958 N 193.631 -1.12557 1.10312 0
M  V30 1959 C 194.594 -2.16434 0.75424 0
M  V30 1960 C 195.594 -1.59278 -0.220685 0
M  V30 1961 O 196.784 -1.742 0.00230591 0
M  V30 1962 C 193.916 -3.40699 0.116987 0
M  V30 1963 H 195.109 -2.48811 1.67431 0
M  V30 1964 H 192.662 -1.27542 0.903475 0
M  V30 1965 H 193.397 -3.13921 -0.813877 0
M  V30 1966 H 193.182 -3.83459 0.818613 0
M  V30 1967 H 194.672 -4.17451 -0.111387 0
M  V30 1968 N 195.109 -0.891671 -1.2995 0
M  V30 1969 C 196.525 -0.58662 -1.48428 0
M  V30 1970 C 196.725 0.873951 -1.81561 0
M  V30 1971 O 195.781 1.65471 -1.90724 0
M  V30 1972 C 197.094 -1.50553 -2.60296 0
M  V30 1973 C 198.642 -1.50988 -2.74175 0
M  V30 1974 C 199.117 -2.41488 -3.89163 0
M  V30 1975 N 200.608 -2.39489 -3.96483 0
M  V30 1976 C 201.343 -3.06223 -4.84784 0
M  V30 1977 N 200.839 -3.82206 -5.77833 0
M  V30 1978 N 202.632 -2.95421 -4.78208 0
M  V30 1979 H 194.783 -1.83644 -1.06718 0
M  V30 1980 H 197.046 -0.786455 -0.529332 0
M  V30 1981 H 196.752 -2.54581 -2.42654 0
M  V30 1982 H 196.626 -1.22008 -3.56923 0
M  V30 1983 H 199.013 -0.47708 -2.91218 0
M  V30 1984 H 199.094 -1.83567 -1.78148 0
M  V30 1985 H 198.738 -3.44857 -3.72876 0
M  V30 1986 H 198.668 -2.06222 -4.84541 0
M  V30 1987 H 201.159 -1.84278 -3.29924 0
M  V30 1988 H 201.472 -4.302 -6.41988 0
M  V30 1989 H 199.817 -3.86313 -5.77743 0
M  V30 1990 H 203.008 -2.35581 -4.04499 0
M  V30 1991 H 203.181 -3.47704 -5.46814 0
M  V30 1992 N 196.587 1.43421 -0.653314 0
M  V30 1993 C 197.815 2.06163 -0.174491 0
M  V30 1994 C 198.23 1.48969 1.1599 0
M  V30 1995 O 197.587 0.621042 1.71608 0
M  V30 1996 C 197.638 3.61417 -0.0774865 0
M  V30 1997 O 197.359 4.16485 -1.35912 0
M  V30 1998 C 198.86 4.41235 0.427402 0
M  V30 1999 H 196.08 0.664946 -0.0899353 0
M  V30 2000 H 198.624 1.83924 -0.893988 0
M  V30 2001 H 196.779 3.82841 0.59257 0
M  V30 2002 H 197.193 5.10153 -1.21839 0
M  V30 2003 H 198.667 5.5021 0.44423 0
M  V30 2004 H 199.144 4.14268 1.45873 0
M  V30 2005 H 199.75 4.2478 -0.210167 0
M  V30 2006 N 198.065 0.39524 1.52563 0
M  V30 2007 C 199.028 -0.425001 2.25225 0
M  V30 2008 C 200.028 -0.985266 1.27079 0
M  V30 2009 O 201.218 -0.866332 1.5113 0
M  V30 2010 C 198.35 -1.59686 3.01186 0
M  V30 2011 H 199.543 0.211233 2.99155 0
M  V30 2012 H 197.096 0.147472 1.55603 0
M  V30 2013 H 197.831 -2.27035 2.31572 0
M  V30 2014 H 197.616 -1.20176 3.73229 0
M  V30 2015 H 199.106 -2.17743 3.5634 0
M  V30 2016 N 199.544 -1.57102 0.125237 0
M  V30 2017 C 200.507 -2.14471 -0.80838 0
M  V30 2018 C 201.507 -1.0811 -1.19033 0
M  V30 2019 O 202.697 -1.33856 -1.11482 0
M  V30 2020 C 199.829 -2.69005 -2.09402 0
M  V30 2021 H 201.022 -2.98297 -0.309696 0
M  V30 2022 H 198.575 -1.55807 -0.124051 0
M  V30 2023 H 199.31 -1.88785 -2.63687 0
M  V30 2024 H 199.095 -3.46799 -1.82957 0
M  V30 2025 H 200.585 -3.13278 -2.76128 0
M  V30 2026 N 201.022 0.148545 -1.56898 0
M  V30 2027 C 201.985 1.16736 -1.97244 0
M  V30 2028 C 202.985 1.35947 -0.858777 0
M  V30 2029 O 204.175 1.32966 -1.12542 0
M  V30 2030 C 201.307 2.52798 -2.28705 0
M  V30 2031 H 202.5 0.821279 -2.88435 0
M  V30 2032 H 200.053 0.391831 -1.51309 0
M  V30 2033 H 200.788 2.92381 -1.403 0
M  V30 2034 H 200.573 2.40216 -3.09901 0
M  V30 2035 H 202.063 3.26179 -2.60762 0
M  V30 2036 N 202.5 1.5196 0.417844 0
M  V30 2037 C 203.463 1.74065 1.49111 0
M  V30 2038 C 204.463 0.610537 1.48758 0
M  V30 2039 O 205.653 0.87832 1.50437 0
M  V30 2040 C 202.785 1.81502 2.88565 0
M  V30 2041 H 203.978 2.69869 1.30807 0
M  V30 2042 H 201.531 1.42244 0.647785 0
M  V30 2043 H 202.266 0.875813 3.1225 0
M  V30 2044 H 202.051 2.63651 2.90225 0
M  V30 2045 H 203.541 2.00376 3.66387 0
M  V30 2046 N 203.978 -0.674533 1.42435 0
M  V30 2047 C 205.255 -1.4305 1.33402 0
M  V30 2048 C 205.635 -2.11081 -0.0284674 0
M  V30 2049 O 204.983 -2.03257 -1.04397 0
M  V30 2050 C 205.193 -2.43272 2.50239 0
M  V30 2051 C 206.541 -3.07907 2.92367 0
M  V30 2052 O 207.565 -2.53599 2.50132 0
M  V30 2053 O 206.424 -4.0632 3.65467 0
M  V30 2054 H 203.518 -0.638076 0.526106 0
M  V30 2055 H 206.064 -0.703235 1.54443 0
M  V30 2056 H 204.836 -1.91803 3.41068 0
M  V30 2057 H 204.459 -3.23479 2.31186 0
M  V30 2058 N 205.456 -1.28612 -0.910864 0
M  V30 2059 C 206.872 -1.06381 -1.18976 0
M  V30 2060 C 207.072 0.191998 -2.00583 0
M  V30 2061 O 206.128 0.892869 -2.36187 0
M  V30 2062 C 207.441 -2.31295 -1.92154 0
M  V30 2063 C 208.989 -2.36503 -2.05025 0
M  V30 2064 C 209.464 -3.61191 -2.81612 0
M  V30 2065 N 210.955 -3.61847 -2.89172 0
M  V30 2066 C 211.69 -4.55004 -3.4894 0
M  V30 2067 N 211.186 -5.58482 -4.09963 0
M  V30 2068 N 212.979 -4.42594 -3.46506 0
M  V30 2069 H 205.13 -2.09221 -0.366094 0
M  V30 2070 H 207.393 -0.921003 -0.224629 0
M  V30 2071 H 207.099 -3.228 -1.39618 0
M  V30 2072 H 206.973 -2.37934 -2.9269 0
M  V30 2073 H 209.36 -1.45494 -2.5674 0
M  V30 2074 H 209.441 -2.33857 -1.03657 0
M  V30 2075 H 209.085 -4.52545 -2.30576 0
M  V30 2076 H 209.015 -3.61092 -3.83302 0
M  V30 2077 H 211.506 -2.87022 -2.45819 0
M  V30 2078 H 211.819 -6.25704 -4.53557 0
M  V30 2079 H 210.164 -5.62305 -4.08459 0
M  V30 2080 H 213.355 -3.60953 -2.98045 0
M  V30 2081 H 213.528 -5.15381 -3.92793 0
M  V30 2082 N 206.934 1.1197 -1.10907 0
M  V30 2083 C 208.162 1.87402 -0.876824 0
M  V30 2084 C 208.577 1.79894 0.573025 0
M  V30 2085 O 207.934 1.17629 1.39534 0
M  V30 2086 C 207.985 3.36428 -1.32282 0
M  V30 2087 O 207.706 3.43765 -2.71582 0
M  V30 2088 C 209.207 4.28783 -1.12518 0
M  V30 2089 H 206.427 0.592793 -0.314384 0
M  V30 2090 H 208.971 1.41649 -1.47499 0
M  V30 2091 H 207.126 3.79706 -0.768229 0
M  V30 2092 H 207.54 4.3652 -2.90776 0
M  V30 2093 H 209.014 5.31613 -1.48633 0
M  V30 2094 H 209.491 4.39153 -0.0642394 0
M  V30 2095 H 210.097 3.91291 -1.66648 0
M  V30 2096 N 208.412 0.89855 1.29475 0
M  V30 2097 C 209.66 0.522847 1.9522 0
M  V30 2098 C 209.981 -0.93371 1.71192 0
M  V30 2099 O 209.251 -1.65823 1.04305 0
M  V30 2100 H 207.831 0.190366 0.722336 0
M  V30 2101 H 210.493 1.14459 1.5775 0
M  V30 2102 H 209.589 0.704476 3.04045 0
M  V30 2103 N 209.89 -1.43072 0.660911 0
M  V30 2104 C 210.84 -2.27948 -0.04847 0
M  V30 2105 C 211.824 -1.40325 -0.787246 0
M  V30 2106 O 213.016 -1.63893 -0.668446 0
M  V30 2107 C 210.145 -3.28143 -1.00881 0
M  V30 2108 C 209.231 -4.23252 -0.268108 0
M  V30 2109 N 209.622 -5.00656 0.719528 0
M  V30 2110 C 207.92 -4.43092 -0.508493 0
M  V30 2111 C 208.621 -5.70019 1.15988 0
M  V30 2112 N 207.597 -5.41364 0.492584 0
M  V30 2113 H 211.399 -2.85213 0.709279 0
M  V30 2114 H 208.913 -1.54869 0.488822 0
M  V30 2115 H 210.91 -3.87736 -1.53188 0
M  V30 2116 H 209.57 -2.7244 -1.76654 0
M  V30 2117 H 210.581 -5.06115 1.09855 0
M  V30 2118 H 207.258 -3.98449 -1.24679 0
M  V30 2119 H 208.648 -6.4214 1.97751 0
M  V30 2120 N 211.368 -0.403325 -1.52352 0
M  V30 2121 C 212.331 0.413051 -2.25447 0
M  V30 2122 C 213.331 0.978513 -1.276 0
M  V30 2123 O 214.521 0.858305 -1.51587 0
M  V30 2124 C 211.653 1.58087 -3.02029 0
M  V30 2125 H 212.846 -0.227094 -2.99039 0
M  V30 2126 H 210.399 -0.155722 -1.55522 0
M  V30 2127 H 211.134 2.25804 -2.32772 0
M  V30 2128 H 210.919 1.18195 -3.73861 0
M  V30 2129 H 212.409 2.1585 -3.57489 0
M  V30 2130 N 212.846 1.57033 -0.133567 0
M  V30 2131 C 213.776 2.1909 0.807567 0
M  V30 2132 C 214.757 1.13517 1.26681 0
M  V30 2133 O 215.942 1.41809 1.32679 0
M  V30 2134 C 213.072 2.80188 2.05212 0
M  V30 2135 C 212.026 3.91471 1.73015 0
M  V30 2136 C 211.352 4.39443 3.04622 0
M  V30 2137 C 212.652 5.12886 0.987168 0
M  V30 2138 H 214.346 2.97988 0.290403 0
M  V30 2139 H 211.892 1.43335 0.138239 0
M  V30 2140 H 213.845 3.22264 2.71521 0
M  V30 2141 H 212.569 1.98601 2.59278 0
M  V30 2142 H 211.228 3.49993 1.0909 0
M  V30 2143 H 210.876 3.54695 3.56651 0
M  V30 2144 H 210.576 5.14495 2.83847 0
M  V30 2145 H 212.1 4.8418 3.72024 0
M  V30 2146 H 213.514 5.51891 1.55208 0
M  V30 2147 H 211.911 5.93615 0.87985 0
M  V30 2148 H 212.981 4.84894 -0.0235286 0
M  V30 2149 N 214.325 -0.140222 1.56975 0
M  V30 2150 C 215.255 -1.17456 2.01808 0
M  V30 2151 C 216.236 -1.44415 0.898794 0
M  V30 2152 O 217.421 -1.5522 1.16707 0
M  V30 2153 C 214.551 -2.50607 2.40444 0
M  V30 2154 C 213.505 -2.38155 3.55621 0
M  V30 2155 C 212.831 -3.76078 3.80091 0
M  V30 2156 C 214.131 -1.85991 4.88062 0
M  V30 2157 H 215.825 -0.801743 2.88466 0
M  V30 2158 H 213.371 -0.38422 1.38779 0
M  V30 2159 H 215.324 -3.23197 2.7041 0
M  V30 2160 H 214.048 -2.89737 1.50732 0
M  V30 2161 H 212.707 -1.68016 3.25832 0
M  V30 2162 H 212.355 -4.12656 2.87618 0
M  V30 2163 H 212.055 -3.68606 4.57606 0
M  V30 2164 H 213.579 -4.50206 4.12488 0
M  V30 2165 H 214.993 -2.4838 5.16701 0
M  V30 2166 H 213.39 -1.89393 5.6943 0
M  V30 2167 H 214.46 -0.816023 4.77984 0
M  V30 2168 N 215.803 -1.52179 -0.40978 0
M  V30 2169 C 216.753 -1.71857 -1.49831 0
M  V30 2170 C 217.737 -0.572469 -1.50372 0
M  V30 2171 O 218.929 -0.829509 -1.56359 0
M  V30 2172 C 216.058 -1.87206 -2.87765 0
M  V30 2173 C 215.144 -3.07685 -2.91875 0
M  V30 2174 N 215.535 -4.30403 -2.65683 0
M  V30 2175 C 213.833 -3.07505 -3.23043 0
M  V30 2176 C 214.534 -5.11868 -2.76344 0
M  V30 2177 N 213.51 -4.47101 -3.09195 0
M  V30 2178 H 217.312 -2.64381 -1.28375 0
M  V30 2179 H 214.826 -1.50203 -0.617479 0
M  V30 2180 H 216.823 -1.99419 -3.66111 0
M  V30 2181 H 215.483 -0.958814 -3.10221 0
M  V30 2182 H 216.494 -4.58887 -2.4009 0
M  V30 2183 H 213.171 -2.25915 -3.51096 0
M  V30 2184 H 214.561 -6.19634 -2.59814 0
M  V30 2185 N 217.281 0.66697 -1.42791 0
M  V30 2186 C 218.509 1.45505 -1.47091 0
M  V30 2187 C 218.924 1.8861 -0.0845873 0
M  V30 2188 O 218.281 1.58632 0.90234 0
M  V30 2189 C 218.332 2.69906 -2.40485 0
M  V30 2190 O 218.053 2.28608 -3.73725 0
M  V30 2191 C 219.554 3.63396 -2.53886 0
M  V30 2192 H 216.774 0.447459 -0.500022 0
M  V30 2193 H 219.318 0.818866 -1.8739 0
M  V30 2194 H 217.473 3.29696 -2.03419 0
M  V30 2195 H 217.887 3.08997 -4.23817 0
M  V30 2196 H 219.361 4.47387 -3.2334 0
M  V30 2197 H 219.838 4.09824 -1.57927 0
M  V30 2198 H 220.444 3.09495 -2.91706 0
M  V30 2199 N 218.759 1.29093 0.90403 0
M  V30 2200 C 219.689 1.16401 2.02418 0
M  V30 2201 C 220.67 0.0593085 1.69997 0
M  V30 2202 O 221.855 0.238021 1.92736 0
M  V30 2203 C 218.985 0.835233 3.37107 0
M  V30 2204 C 217.939 1.89578 3.83724 0
M  V30 2205 C 217.265 1.42041 5.15489 0
M  V30 2206 C 218.565 3.30394 4.04521 0
M  V30 2207 H 220.259 2.10109 2.13295 0
M  V30 2208 H 217.805 1.01157 1.02486 0
M  V30 2209 H 219.758 0.733169 4.14973 0
M  V30 2210 H 218.482 -0.137543 3.2631 0
M  V30 2211 H 217.141 1.98715 3.08071 0
M  V30 2212 H 216.789 0.436426 5.01103 0
M  V30 2213 H 216.489 2.12964 5.4765 0
M  V30 2214 H 218.013 1.33176 5.959 0
M  V30 2215 H 219.427 3.24123 4.72882 0
M  V30 2216 H 217.824 3.99237 4.48029 0
M  V30 2217 H 218.894 3.73692 3.09002 0
M  V30 2218 N 220.237 -1.11381 1.11499 0
M  V30 2219 C 221.467 -1.86663 0.885464 0
M  V30 2220 C 221.875 -1.80464 -0.568281 0
M  V30 2221 O 221.218 -1.18445 -1.40415 0
M  V30 2222 C 221.28 -3.36337 1.26956 0
M  V30 2223 C 220.944 -3.66304 2.73259 0
M  V30 2224 C 221.941 -3.63733 3.71476 0
M  V30 2225 C 219.626 -3.9529 3.09921 0
M  V30 2226 C 221.62 -3.89725 5.04374 0
M  V30 2227 C 219.307 -4.20941 4.43004 0
M  V30 2228 C 220.305 -4.18147 5.40039 0
M  V30 2229 O 219.993 -4.43153 6.70724 0
M  V30 2230 H 219.725 -0.597114 0.316908 0
M  V30 2231 H 222.279 -1.41782 1.48617 0
M  V30 2232 H 220.509 -3.81826 0.611999 0
M  V30 2233 H 222.198 -3.92986 1.01573 0
M  V30 2234 H 222.964 -3.41389 3.44498 0
M  V30 2235 H 218.843 -3.966 2.35009 0
M  V30 2236 H 222.387 -3.8746 5.80104 0
M  V30 2237 H 218.284 -4.42761 4.69716 0
M  V30 2238 H 219.052 -4.60717 6.76522 0
M  V30 2239 N 221.715 -0.905404 -1.28997 0
M  V30 2240 C 222.647 -0.344748 -2.26592 0
M  V30 2241 C 223.66 0.512135 -1.54535 0
M  V30 2242 O 224.849 0.328368 -1.75454 0
M  V30 2243 C 221.949 0.526587 -3.34784 0
M  V30 2244 C 221.122 -0.305871 -4.36329 0
M  V30 2245 C 220.181 0.499209 -5.23827 0
M  V30 2246 O 219.207 -0.0853004 -5.69136 0
M  V30 2247 N 220.409 1.80408 -5.51755 0
M  V30 2248 H 223.174 -1.18359 -2.75338 0
M  V30 2249 H 220.735 -0.770481 -1.42391 0
M  V30 2250 H 222.727 1.07171 -3.90252 0
M  V30 2251 H 221.297 1.26613 -2.85811 0
M  V30 2252 H 220.517 -1.0324 -3.80441 0
M  V30 2253 H 221.805 -0.875773 -5.01206 0
M  V30 2254 H 221.203 2.3016 -5.16762 0
M  V30 2255 H 219.76 2.29621 -6.10014 0
M  V30 2256 N 223.193 1.4272 -0.668489 0
M  V30 2257 C 224.125 2.2914 0.052613 0
M  V30 2258 C 225.138 1.43339 0.771857 0
M  V30 2259 O 226.327 1.67123 0.627067 0
M  V30 2260 C 223.427 3.20618 1.09804 0
M  V30 2261 C 222.6 4.35039 0.45389 0
M  V30 2262 C 221.659 5.07282 1.39825 0
M  V30 2263 O 220.685 5.62024 0.900978 0
M  V30 2264 N 221.887 5.12206 2.73176 0
M  V30 2265 H 224.652 2.91668 -0.689209 0
M  V30 2266 H 222.213 1.53577 -0.512422 0
M  V30 2267 H 224.205 3.65815 1.73094 0
M  V30 2268 H 222.775 2.59585 1.74167 0
M  V30 2269 H 221.995 3.92567 -0.358396 0
M  V30 2270 H 223.283 5.088 0.00486972 0
M  V30 2271 H 222.681 4.6913 3.16122 0
M  V30 2272 H 221.238 5.61069 3.31729 0
M  V30 2273 N 224.671 0.411399 1.52136 0
M  V30 2274 C 225.619 -0.427633 2.28635 0
M  V30 2275 C 226.613 -1.04383 1.33419 0
M  V30 2276 O 227.819 -0.981772 1.50868 0
M  V30 2277 H 224.194 -0.156689 0.735495 0
M  V30 2278 H 226.165 0.238761 2.97443 0
M  V30 2279 C 224.914 -1.53082 3.12188 0
M  V30 2280 H 224.237 -1.06601 3.85326 0
M  V30 2281 H 225.677 -2.09167 3.68816 0
M  V30 2282 C 224.136 -2.49946 2.25895 0
M  V30 2283 O 224.666 -3.53884 1.90076 0
M  V30 2284 N 222.872 -2.2021 1.8962 0
M  V30 2285 H 222.419 -1.35719 2.18948 0
M  V30 2286 H 222.377 -2.85266 1.32176 0
M  V30 2287 N 226.149 -1.5696 0.141893 0
M  V30 2288 C 227.079 -2.19516 -0.795936 0
M  V30 2289 C 228.06 -1.14187 -1.26077 0
M  V30 2290 O 229.245 -1.42511 -1.31925 0
M  V30 2291 C 226.375 -2.81272 -2.03723 0
M  V30 2292 C 225.329 -3.92384 -1.70936 0
M  V30 2293 C 224.655 -4.41052 -3.02287 0
M  V30 2294 C 225.955 -5.13403 -0.959954 0
M  V30 2295 H 227.649 -2.98138 -0.274596 0
M  V30 2296 H 225.195 -1.43406 -0.130636 0
M  V30 2297 H 227.148 -3.237 -2.69808 0
M  V30 2298 H 225.872 -1.99973 -2.58221 0
M  V30 2299 H 224.531 -3.50566 -1.07232 0
M  V30 2300 H 224.179 -3.56582 -3.54765 0
M  V30 2301 H 223.879 -5.15993 -2.81114 0
M  V30 2302 H 225.403 -4.86146 -3.69451 0
M  V30 2303 H 226.817 -5.52706 -1.52279 0
M  V30 2304 H 225.214 -5.94073 -0.848357 0
M  V30 2305 H 226.284 -4.84875 0.0492434 0
M  V30 2306 N 227.627 0.131896 -1.57047 0
M  V30 2307 C 228.574 1.16236 -1.99393 0
M  V30 2308 C 229.544 1.41863 -0.863943 0
M  V30 2309 O 230.729 1.53946 -1.12718 0
M  V30 2310 C 227.869 2.48708 -2.39245 0
M  V30 2311 C 226.982 2.30127 -3.65603 0
M  V30 2312 C 226.117 3.55738 -3.94492 0
M  V30 2313 C 225.156 3.32259 -5.14073 0
M  V30 2314 N 224.293 4.50039 -5.38896 0
M  V30 2315 H 229.133 0.794251 -2.87221 0
M  V30 2316 H 226.67 0.380707 -1.42088 0
M  V30 2317 H 228.628 3.25969 -2.60384 0
M  V30 2318 H 227.258 2.83437 -1.54478 0
M  V30 2319 H 226.31 1.43845 -3.52154 0
M  V30 2320 H 227.622 2.08746 -4.5302 0
M  V30 2321 H 226.776 4.41423 -4.1621 0
M  V30 2322 H 225.515 3.80138 -3.05526 0
M  V30 2323 H 224.52 2.44963 -4.92212 0
M  V30 2324 H 225.745 3.09242 -6.04604 0
M  V30 2325 H 223.691 4.74584 -4.52886 0
M  V30 2326 H 223.608 4.31716 -6.2061 0
M  V30 2327 H 224.876 5.36895 -5.65123 0
M  V30 2328 N 229.106 1.52395 0.401703 0
M  V30 2329 C 230.054 1.7689 1.51039 0
M  V30 2330 C 231.048 0.636298 1.56996 0
M  V30 2331 O 232.254 0.818507 1.60314 0
M  V30 2332 H 228.629 0.559502 0.502456 0
M  V30 2333 H 230.6 2.69757 1.27568 0
M  V30 2334 C 229.349 1.94331 2.88324 0
M  V30 2335 H 228.672 2.80905 2.84486 0
M  V30 2336 H 230.112 2.15466 3.65172 0
M  V30 2337 C 228.571 0.712396 3.29282 0
M  V30 2338 O 229.101 -0.116218 4.01532 0
M  V30 2339 N 227.307 0.546154 2.85422 0
M  V30 2340 H 226.854 1.22156 2.26794 0
M  V30 2341 H 226.812 -0.276113 3.13185 0
M  V30 2342 N 230.584 -0.659388 1.43143 0
M  V30 2343 C 231.534 -1.7655 1.44271 0
M  V30 2344 C 232.518 -1.57847 0.311961 0
M  V30 2345 O 233.71 -1.68064 0.555306 0
M  V30 2346 C 230.839 -3.15104 1.36251 0
M  V30 2347 C 229.925 -3.39377 2.54331 0
M  V30 2348 N 230.316 -3.34153 3.79704 0
M  V30 2349 C 228.614 -3.70072 2.48922 0
M  V30 2350 C 229.315 -3.58337 4.58225 0
M  V30 2351 N 228.291 -3.79851 3.88863 0
M  V30 2352 H 232.093 -1.70928 2.39083 0
M  V30 2353 H 229.607 -0.860823 1.37708 0
M  V30 2354 H 231.604 -3.94389 1.35141 0
M  V30 2355 H 230.264 -3.21913 0.424531 0
M  V30 2356 H 231.275 -3.13704 4.1208 0
M  V30 2357 H 227.952 -3.84034 1.63781 0
M  V30 2358 H 229.342 -3.60129 5.67236 0
M  V30 2359 N 232.062 -1.29571 -0.897171 0
M  V30 2360 C 233.29 -1.20583 -1.68129 0
M  V30 2361 C 233.705 0.233181 -1.87354 0
M  V30 2362 O 233.062 1.15579 -1.41236 0
M  V30 2363 C 233.113 -1.91772 -3.06441 0
M  V30 2364 O 232.834 -3.30053 -2.88091 0
M  V30 2365 C 234.335 -1.89291 -4.00854 0
M  V30 2366 H 231.555 -0.417826 -0.525036 0
M  V30 2367 H 234.099 -1.70987 -1.12177 0
M  V30 2368 H 232.254 -1.45196 -3.59161 0
M  V30 2369 H 232.668 -3.65942 -3.75748 0
M  V30 2370 H 234.142 -2.43662 -4.95311 0
M  V30 2371 H 234.619 -0.869014 -4.30517 0
M  V30 2372 H 235.225 -2.35622 -3.54066 0
M  V30 2373 N 233.54 1.10788 -1.12088 0
M  V30 2374 C 234.768 1.86461 -0.896651 0
M  V30 2375 C 235.183 1.80492 0.553912 0
M  V30 2376 O 234.54 1.19102 1.38278 0
M  V30 2377 C 234.591 3.35006 -1.35843 0
M  V30 2378 O 234.312 3.40866 -2.75213 0
M  V30 2379 C 235.813 4.27565 -1.1706 0
M  V30 2380 H 233.033 0.589425 -0.320654 0
M  V30 2381 H 235.577 1.40076 -1.48993 0
M  V30 2382 H 233.732 3.7887 -0.808458 0
M  V30 2383 H 234.146 4.33411 -2.9539 0
M  V30 2384 H 235.62 5.30007 -1.54263 0
M  V30 2385 H 236.097 4.3906 -0.110814 0
M  V30 2386 H 236.703 3.89501 -1.70789 0
M  V30 2387 N 235.018 0.912232 1.28515 0
M  V30 2388 C 236.267 0.540504 1.94323 0
M  V30 2389 C 236.58 -0.920044 1.72611 0
M  V30 2390 O 237.786 -1.39986 2.32629 0
M  V30 2391 C 236.242 0.915803 3.48053 0
M  V30 2392 C 235.85 2.39598 3.78546 0
M  V30 2393 C 237.594 0.614588 4.20027 0
M  V30 2394 C 235.501 2.71148 5.25578 0
M  V30 2395 H 234.431 0.198418 0.727424 0
M  V30 2396 H 237.082 1.11094 1.46049 0
M  V30 2397 H 235.464 0.274168 3.9505 0
M  V30 2398 H 236.638 3.08422 3.42364 0
M  V30 2399 H 234.953 2.66749 3.1974 0
M  V30 2400 H 237.55 0.827002 5.28266 0
M  V30 2401 H 237.893 -0.447531 4.13887 0
M  V30 2402 H 238.426 1.21462 3.78803 0
M  V30 2403 H 235.165 3.76207 5.36794 0
M  V30 2404 H 234.685 2.0696 5.62963 0
M  V30 2405 H 236.364 2.58072 5.93302 0
M  V30 2406 N 236.496 -1.42363 0.676048 0
M  V30 2407 C 237.743 -2.01522 0.19883 0
M  V30 2408 C 238.071 -1.53456 -1.19505 0
M  V30 2409 O 237.326 -0.727967 -1.81657 0
M  V30 2410 C 237.625 -3.56929 0.183431 0
M  V30 2411 C 237.291 -4.24431 1.52215 0
M  V30 2412 C 235.953 -4.42585 1.8887 0
M  V30 2413 C 238.305 -4.62459 2.40377 0
M  V30 2414 C 235.633 -4.96039 3.13309 0
M  V30 2415 C 237.985 -5.17294 3.64129 0
M  V30 2416 C 236.649 -5.33661 4.00951 0
M  V30 2417 H 235.919 -0.737419 0.0727571 0
M  V30 2418 H 238.566 -1.70531 0.871281 0
M  V30 2419 H 236.871 -3.87594 -0.572532 0
M  V30 2420 H 238.568 -4.00486 -0.203035 0
M  V30 2421 H 235.158 -4.10661 1.22701 0
M  V30 2422 H 239.342 -4.48105 2.13343 0
M  V30 2423 H 234.598 -5.06896 3.41857 0
M  V30 2424 H 238.772 -5.45704 4.32644 0
M  V30 2425 H 236.399 -5.74845 4.9745 0
M  V30 2426 N 237.974 -0.419461 -1.51915 0
M  V30 2427 C 239.199 0.154572 -2.06823 0
M  V30 2428 C 239.624 1.3722 -1.28656 0
M  V30 2429 O 238.982 1.78461 -0.319583 0
M  V30 2430 C 239.03 0.473172 -3.57482 0
M  V30 2431 O 238.134 1.56255 -3.81652 0
M  V30 2432 H 237.475 0.0096924 -0.663929 0
M  V30 2433 H 240.005 -0.595642 -1.95738 0
M  V30 2434 H 240.015 0.728825 -4.01438 0
M  V30 2435 H 238.69 -0.416873 -4.13805 0
M  V30 2436 H 237.267 1.29825 -3.49571 0
M  V30 2437 N 239.452 1.56882 -0.150215 0
M  V30 2438 C 240.362 2.20494 0.801222 0
M  V30 2439 C 241.378 1.19019 1.26927 0
M  V30 2440 O 242.554 1.51607 1.32579 0
M  V30 2441 C 239.619 2.81659 2.02161 0
M  V30 2442 C 238.68 3.9827 1.60249 0
M  V30 2443 C 237.913 4.56508 2.7647 0
M  V30 2444 O 238.136 4.13627 3.92771 0
M  V30 2445 O 237.07 5.46719 2.51757 0
M  V30 2446 H 240.896 3.02315 0.289717 0
M  V30 2447 H 238.481 1.49202 0.0769684 0
M  V30 2448 H 240.363 3.20522 2.73576 0
M  V30 2449 H 239.038 2.02849 2.52258 0
M  V30 2450 H 237.945 3.64117 0.858477 0
M  V30 2451 H 239.278 4.78609 1.14864 0
M  V30 2452 N 240.93 -0.123565 1.57115 0
M  V30 2453 C 242.176 -0.828428 1.85765 0
M  V30 2454 C 242.531 -1.77709 0.737371 0
M  V30 2455 O 241.824 -1.89787 -0.262978 0
M  V30 2456 C 242.018 -1.62016 3.18568 0
M  V30 2457 C 241.847 -0.749663 4.43407 0
M  V30 2458 C 240.617 -0.406251 5.03664 0
M  V30 2459 C 242.815 -0.0693505 5.14253 0
M  V30 2460 N 240.797 0.475389 6.12057 0
M  V30 2461 C 242.168 0.671474 6.16353 0
M  V30 2462 C 244.223 0.00754393 4.97899 0
M  V30 2463 C 242.926 1.48197 7.03868 0
M  V30 2464 C 244.952 0.804845 5.85898 0
M  V30 2465 C 244.314 1.53388 6.87497 0
M  V30 2466 H 240.413 -0.280219 0.73007 0
M  V30 2467 H 242.997 -0.0924183 1.94481 0
M  V30 2468 H 241.168 -2.32724 3.10957 0
M  V30 2469 H 242.9 -2.27 3.35042 0
M  V30 2470 H 239.655 -0.747446 4.67665 0
M  V30 2471 H 240.079 0.907924 6.70884 0
M  V30 2472 H 244.721 -0.541741 4.19315 0
M  V30 2473 H 242.439 2.04242 7.81864 0
M  V30 2474 H 246.025 0.866642 5.75309 0
M  V30 2475 H 244.905 2.1409 7.5441 0
M  V30 2476 N 242.408 -1.52605 -0.393616 0
M  V30 2477 C 243.638 -1.71046 -1.15874 0
M  V30 2478 C 244.046 -0.426483 -1.84331 0
M  V30 2479 O 243.389 0.608513 -1.73329 0
M  V30 2480 C 243.451 -2.80118 -2.25332 0
M  V30 2481 C 243.115 -4.21381 -1.76881 0
M  V30 2482 C 244.112 -5.04697 -1.24808 0
M  V30 2483 C 241.797 -4.67683 -1.83244 0
M  V30 2484 C 243.791 -6.32393 -0.797387 0
M  V30 2485 C 241.478 -5.95364 -1.37787 0
M  V30 2486 C 242.476 -6.77549 -0.861208 0
M  V30 2487 O 242.164 -8.02837 -0.413252 0
M  V30 2488 H 241.896 -0.576155 -0.353583 0
M  V30 2489 H 244.45 -2.00018 -0.467123 0
M  V30 2490 H 242.68 -2.46557 -2.97904 0
M  V30 2491 H 244.369 -2.87006 -2.87023 0
M  V30 2492 H 245.135 -4.70111 -1.19252 0
M  V30 2493 H 241.014 -4.03805 -2.22401 0
M  V30 2494 H 244.558 -6.9649 -0.393437 0
M  V30 2495 H 240.455 -6.29455 -1.43026 0
M  V30 2496 H 241.223 -8.16749 -0.53515 0
M  V30 2497 N 243.887 0.651787 -1.4349 0
M  V30 2498 C 244.85 1.74647 -1.48429 0
M  V30 2499 C 245.85 1.56513 -0.368817 0
M  V30 2500 O 247.04 1.62385 -0.630623 0
M  V30 2501 C 244.172 3.13533 -1.33827 0
M  V30 2502 H 245.365 1.71649 -2.4592 0
M  V30 2503 H 242.918 0.863573 -1.30277 0
M  V30 2504 H 243.653 3.22142 -0.37349 0
M  V30 2505 H 243.438 3.28101 -2.14691 0
M  V30 2506 H 244.928 3.93356 -1.40218 0
M  V30 2507 N 245.365 1.30045 0.890287 0
M  V30 2508 C 246.295 1.18541 2.01172 0
M  V30 2509 C 247.276 0.0773356 1.69924 0
M  V30 2510 O 248.461 0.25845 1.92473 0
M  V30 2511 C 245.591 0.870941 3.36202 0
M  V30 2512 C 244.545 1.93637 3.81692 0
M  V30 2513 C 243.871 1.475 5.13953 0
M  V30 2514 C 245.171 3.34666 4.00994 0
M  V30 2515 H 246.865 2.12359 2.11054 0
M  V30 2516 H 244.411 1.02238 1.01407 0
M  V30 2517 H 246.364 0.777141 4.14172 0
M  V30 2518 H 245.088 -0.102926 3.26438 0
M  V30 2519 H 243.747 2.01972 3.05946 0
M  V30 2520 H 243.395 0.489551 5.00612 0
M  V30 2521 H 243.095 2.1876 5.4536 0
M  V30 2522 H 244.619 1.39489 5.94454 0
M  V30 2523 H 246.033 3.2912 4.69417 0
M  V30 2524 H 244.43 4.03966 4.43769 0
M  V30 2525 H 245.5 3.76949 3.05021 0
M  V30 2526 N 246.843 -1.10192 1.12674 0
M  V30 2527 C 248.12 -1.78717 0.794965 0
M  V30 2528 C 248.5 -1.98628 -0.714853 0
M  V30 2529 O 247.848 -1.58135 -1.64941 0
M  V30 2530 C 248.058 -3.11546 1.5729 0
M  V30 2531 C 249.406 -3.86382 1.76052 0
M  V30 2532 O 250.43 -3.21274 1.53823 0
M  V30 2533 O 249.289 -5.03246 2.13087 0
M  V30 2534 H 246.383 -0.774702 0.289423 0
M  V30 2535 H 248.929 -1.16819 1.23091 0
M  V30 2536 H 247.701 -2.92489 2.59935 0
M  V30 2537 H 247.324 -3.81164 1.13137 0
M  V30 2538 N 248.321 -0.919034 -1.28029 0
M  V30 2539 C 249.251 -0.428581 -2.29533 0
M  V30 2540 C 250.232 0.50659 -1.62381 0
M  V30 2541 O 251.417 0.413195 -1.89753 0
M  V30 2542 C 248.547 0.327388 -3.45753 0
M  V30 2543 C 247.501 -0.519137 -4.2484 0
M  V30 2544 C 246.827 0.365486 -5.33449 0
M  V30 2545 C 248.127 -1.77914 -4.91064 0
M  V30 2546 H 249.821 -1.27687 -2.70807 0
M  V30 2547 H 247.367 -0.615428 -1.30186 0
M  V30 2548 H 249.32 0.681378 -4.15855 0
M  V30 2549 H 248.044 1.20963 -3.03374 0
M  V30 2550 H 246.703 -0.855717 -3.56473 0
M  V30 2551 H 246.351 1.24642 -4.87312 0
M  V30 2552 H 246.051 -0.197356 -5.87268 0
M  V30 2553 H 247.575 0.715241 -6.06396 0
M  V30 2554 H 248.989 -1.49374 -5.53498 0
M  V30 2555 H 247.386 -2.2848 -5.54903 0
M  V30 2556 H 248.456 -2.50382 -4.15255 0
M  V30 2557 N 249.799 1.42003 -0.683588 0
M  V30 2558 C 251.045 2.01712 -0.209825 0
M  V30 2559 C 251.378 1.53968 1.18353 0
M  V30 2560 O 250.653 0.745661 1.79639 0
M  V30 2561 C 250.936 3.59202 -0.254197 0
M  V30 2562 C 250.789 4.17102 -1.68363 0
M  V30 2563 C 252.108 4.38344 0.392709 0
M  V30 2564 H 249.227 0.732891 -0.0777189 0
M  V30 2565 H 251.869 1.68909 -0.87004 0
M  V30 2566 H 250.019 3.87278 0.307954 0
M  V30 2567 H 251.691 3.99946 -2.29871 0
M  V30 2568 H 249.934 3.72597 -2.22157 0
M  V30 2569 H 250.605 5.26249 -1.6663 0
M  V30 2570 H 253.081 4.16011 -0.0859162 0
M  V30 2571 H 251.957 5.47901 0.331063 0
M  V30 2572 H 252.218 4.16887 1.47164 0
M  V30 2573 N 251.277 0.427512 1.51691 0
M  V30 2574 C 252.224 -0.388867 2.275 0
M  V30 2575 C 253.194 -1.02532 1.30677 0
M  V30 2576 O 254.379 -1.0461 1.59566 0
M  V30 2577 C 251.519 -1.48954 3.11298 0
M  V30 2578 C 250.632 -0.872194 4.23104 0
M  V30 2579 C 249.767 -1.94709 4.94228 0
M  V30 2580 C 248.806 -1.30766 5.97969 0
M  V30 2581 N 247.943 -2.32349 6.62539 0
M  V30 2582 H 252.783 0.263997 2.96828 0
M  V30 2583 H 250.32 0.142033 1.46413 0
M  V30 2584 H 252.278 -2.13887 3.58201 0
M  V30 2585 H 250.908 -2.11217 2.44105 0
M  V30 2586 H 249.96 -0.111419 3.80237 0
M  V30 2587 H 251.272 -0.365264 4.97461 0
M  V30 2588 H 250.426 -2.67327 5.44629 0
M  V30 2589 H 249.165 -2.48773 4.1948 0
M  V30 2590 H 248.17 -0.566902 5.4687 0
M  V30 2591 H 249.395 -0.774483 6.74669 0
M  V30 2592 H 247.341 -2.85511 5.90609 0
M  V30 2593 H 247.258 -1.8652 7.3263 0
M  V30 2594 H 248.526 -3.04481 7.17574 0
M  V30 2595 N 252.755 -1.56801 0.158532 0
M  V30 2596 C 253.703 -2.18638 -0.793729 0
M  V30 2597 C 254.697 -1.14669 -1.24689 0
M  V30 2598 O 255.903 -1.32895 -1.21403 0
M  V30 2599 H 252.278 -0.700226 -0.274204 0
M  V30 2600 H 254.249 -2.97367 -0.248095 0
M  V30 2601 C 252.998 -2.83139 -2.0181 0
M  V30 2602 H 252.321 -3.62863 -1.67841 0
M  V30 2603 H 253.761 -3.29894 -2.66357 0
M  V30 2604 C 252.22 -1.82244 -2.83353 0
M  V30 2605 O 252.75 -1.3 -3.80083 0
M  V30 2606 N 250.956 -1.51288 -2.48114 0
M  V30 2607 H 250.503 -1.93964 -1.69516 0
M  V30 2608 H 250.461 -0.840296 -3.02963 0
M  V30 2609 N 254.233 0.115231 -1.57178 0
M  V30 2610 C 255.165 1.16694 -1.97269 0
M  V30 2611 C 256.178 1.37445 -0.872502 0
M  V30 2612 O 257.367 1.36454 -1.15077 0
M  V30 2613 C 254.467 2.52627 -2.25905 0
M  V30 2614 C 253.64 2.52427 -3.57211 0
M  V30 2615 C 252.699 3.70134 -3.74016 0
M  V30 2616 O 251.725 3.53546 -4.46087 0
M  V30 2617 N 252.927 4.88844 -3.13068 0
M  V30 2618 H 255.692 0.82588 -2.88096 0
M  V30 2619 H 253.253 0.304461 -1.59011 0
M  V30 2620 H 255.245 3.29937 -2.34359 0
M  V30 2621 H 253.815 2.789 -1.41186 0
M  V30 2622 H 253.035 1.60805 -3.5991 0
M  V30 2623 H 254.323 2.49353 -4.43509 0
M  V30 2624 H 253.721 5.05225 -2.54489 0
M  V30 2625 H 252.278 5.63817 -3.27037 0
M  V30 2626 N 255.711 1.52812 0.385517 0
M  V30 2627 C 256.988 1.5861 1.14465 0
M  V30 2628 C 257.368 0.381402 2.07626 0
M  V30 2629 O 256.716 -0.629999 2.19643 0
M  V30 2630 C 256.926 2.92664 1.90128 0
M  V30 2631 C 258.274 3.46526 2.45367 0
M  V30 2632 O 259.298 2.94562 2.0028 0
M  V30 2633 O 258.157 4.37323 3.27736 0
M  V30 2634 H 255.251 0.639855 0.523941 0
M  V30 2635 H 257.797 1.65149 0.390389 0
M  V30 2636 H 256.569 3.71788 1.22022 0
M  V30 2637 H 256.192 2.89527 2.72507 0
M  V30 2638 N 257.189 -0.644168 1.43834 0
M  V30 2639 C 258.437 -1.40117 1.45642 0
M  V30 2640 C 258.758 -1.94814 0.0852413 0
M  V30 2641 O 258.028 -1.74988 -0.880688 0
M  V30 2642 H 256.608 -0.52005 0.536243 0
M  V30 2643 H 259.27 -0.7591 1.7951 0
M  V30 2644 H 258.366 -2.23902 2.17427 0
M  V30 2645 N 258.668 -1.30515 -0.883378 0
M  V30 2646 C 259.631 -1.1701 -1.97082 0
M  V30 2647 C 260.631 -0.10089 -1.60483 0
M  V30 2648 O 261.821 -0.349127 -1.70666 0
M  V30 2649 C 258.953 -0.793045 -3.31547 0
M  V30 2650 H 260.146 -2.13622 -2.10489 0
M  V30 2651 H 257.699 -1.13935 -1.06998 0
M  V30 2652 H 258.434 0.172499 -3.23841 0
M  V30 2653 H 258.219 -1.56576 -3.5948 0
M  V30 2654 H 259.709 -0.722073 -4.1131 0
M  V30 2655 N 260.146 1.09593 -1.13257 0
M  V30 2656 C 261.392 1.82003 -0.89458 0
M  V30 2657 C 261.725 1.85402 0.577906 0
M  V30 2658 O 261 1.32099 1.42759 0
M  V30 2659 C 261.283 3.28237 -1.48096 0
M  V30 2660 C 261.136 3.3312 -3.02244 0
M  V30 2661 C 262.455 4.24871 -1.14774 0
M  V30 2662 H 259.574 0.66077 -0.326424 0
M  V30 2663 H 262.216 1.28389 -1.40058 0
M  V30 2664 H 260.366 3.74024 -1.05062 0
M  V30 2665 H 262.038 2.95748 -3.54021 0
M  V30 2666 H 260.281 2.72756 -3.37323 0
M  V30 2667 H 260.952 4.3613 -3.38371 0
M  V30 2668 H 263.428 3.87361 -1.51957 0
M  V30 2669 H 262.304 5.25532 -1.58452 0
M  V30 2670 H 262.565 4.42058 -0.0611849 0
M  V30 2671 N 261.624 0.925811 1.2754 0
M  V30 2672 C 262.87 0.566092 1.94739 0
M  V30 2673 C 263.203 -0.890057 1.72603 0
M  V30 2674 O 262.478 -1.63467 1.05399 0
M  V30 2675 C 262.761 0.89054 3.48915 0
M  V30 2676 C 262.614 2.4003 3.80402 0
M  V30 2677 C 263.933 0.395101 4.38323 0
M  V30 2678 H 261.052 0.20714 0.707292 0
M  V30 2679 H 263.694 1.15725 1.50691 0
M  V30 2680 H 261.844 0.387452 3.86563 0
M  V30 2681 H 263.516 2.97494 3.52555 0
M  V30 2682 H 261.759 2.85028 3.2702 0
M  V30 2683 H 262.43 2.57785 4.8811 0
M  V30 2684 H 264.906 0.826241 4.07814 0
M  V30 2685 H 263.782 0.651086 5.45025 0
M  V30 2686 H 264.043 -0.704798 4.36446 0
M  V30 2687 N 263.102 -1.41638 0.69111 0
M  V30 2688 C 264.35 -2.00902 0.219758 0
M  V30 2689 C 264.671 -1.54994 -1.18329 0
M  V30 2690 O 263.941 -0.778628 -1.79762 0
M  V30 2691 H 262.521 -0.74289 0.0782558 0
M  V30 2692 H 265.183 -1.73327 0.891271 0
M  V30 2693 H 264.279 -3.11224 0.233708 0
M  V30 2694 N 264.58 -0.43555 -1.51462 0
M  V30 2695 C 265.82 0.130708 -2.03982 0
M  V30 2696 C 266.184 1.40117 -1.31268 0
M  V30 2697 O 267.385 2.04755 -1.74152 0
M  V30 2698 C 265.656 0.346102 -3.5572 0
M  V30 2699 S 267.215 0.876022 -4.29967 0
M  V30 2700 H 264.033 0.0326881 -0.710248 0
M  V30 2701 H 266.635 -0.594544 -1.8624 0
M  V30 2702 H 265.339 -0.584911 -4.0621 0
M  V30 2703 H 264.87 1.09849 -3.77752 0
M  V30 2704 H 266.885 2.15379 -4.47019 0
M  V30 2705 N 266.058 1.56714 -0.166846 0
M  V30 2706 C 267.286 2.0112 0.485644 0
M  V30 2707 C 267.701 1.04705 1.57106 0
M  V30 2708 O 267.058 0.0471923 1.82439 0
M  V30 2709 C 267.109 3.45361 1.06808 0
M  V30 2710 O 266.83 4.38092 0.0259995 0
M  V30 2711 C 268.331 4.05145 1.79924 0
M  V30 2712 H 265.551 0.65931 0.124704 0
M  V30 2713 H 268.095 2.02746 -0.267262 0
M  V30 2714 H 266.25 3.44524 1.7715 0
M  V30 2715 H 266.664 5.22519 0.455398 0
M  V30 2716 H 268.138 5.08009 2.15942 0
M  V30 2717 H 268.615 3.46982 2.69258 0
M  V30 2718 H 269.221 4.09672 1.14234 0
M  V30 2719 N 267.536 -0.106894 1.57237 0
M  V30 2720 C 268.499 -1.11466 2.0027 0
M  V30 2721 C 269.499 -1.33623 0.894519 0
M  V30 2722 O 270.689 -1.29935 1.16028 0
M  V30 2723 C 267.821 -2.46646 2.35327 0
M  V30 2724 H 269.014 -0.744516 2.90512 0
M  V30 2725 H 266.567 -0.351576 1.52295 0
M  V30 2726 H 267.302 -2.88558 1.48003 0
M  V30 2727 H 267.087 -2.31915 3.16161 0
M  V30 2728 H 268.577 -3.19151 2.69318 0
M  V30 2729 N 269.014 -1.53014 -0.377408 0
M  V30 2730 C 269.944 -1.81589 -1.46791 0
M  V30 2731 C 270.925 -0.668622 -1.56408 0
M  V30 2732 O 272.11 -0.917337 -1.71168 0
M  V30 2733 C 269.24 -1.99519 -2.8427 0
M  V30 2734 C 268.194 -3.15249 -2.89486 0
M  V30 2735 C 267.52 -3.18451 -4.29527 0
M  V30 2736 C 268.82 -4.54084 -2.58079 0
M  V30 2737 H 270.514 -2.7291 -1.23127 0
M  V30 2738 H 268.06 -1.31319 -0.590883 0
M  V30 2739 H 270.013 -2.18092 -3.60575 0
M  V30 2740 H 268.737 -1.04897 -3.09296 0
M  V30 2741 H 267.396 -2.96477 -2.15631 0
M  V30 2742 H 267.044 -2.2149 -4.5161 0
M  V30 2743 H 266.744 -3.962 -4.33934 0
M  V30 2744 H 268.268 -3.39193 -5.07721 0
M  V30 2745 H 269.682 -4.72899 -3.24098 0
M  V30 2746 H 268.079 -5.33987 -2.7382 0
M  V30 2747 H 269.149 -4.60006 -1.53372 0
M  V30 2748 N 270.492 0.636531 -1.44174 0
M  V30 2749 C 271.732 1.40781 -1.48189 0
M  V30 2750 C 272.096 1.91688 -0.10944 0
M  V30 2751 O 273.297 2.68789 -0.0242741 0
M  V30 2752 C 271.568 2.54575 -2.50851 0
M  V30 2753 S 273.127 3.4284 -2.73873 0
M  V30 2754 H 269.945 0.480345 -0.524204 0
M  V30 2755 H 272.547 0.737416 -1.81059 0
M  V30 2756 H 271.251 2.15478 -3.49281 0
M  V30 2757 H 270.782 3.26447 -2.19536 0
M  V30 2758 H 272.797 4.51846 -2.05059 0
M  V30 2759 N 271.97 1.30982 0.876444 0
M  V30 2760 C 273.219 1.19658 1.62373 0
M  V30 2761 C 273.532 -0.245636 1.94052 0
M  V30 2762 O 274.738 -0.48049 2.67214 0
M  V30 2763 C 273.194 2.09433 2.92687 0
M  V30 2764 C 272.802 3.58613 2.68516 0
M  V30 2765 C 274.546 2.06893 3.70669 0
M  V30 2766 C 272.453 4.40416 3.94699 0
M  V30 2767 H 271.383 0.444268 0.609214 0
M  V30 2768 H 274.034 1.55791 0.969605 0
M  V30 2769 H 272.416 1.66191 3.59439 0
M  V30 2770 H 273.59 4.10058 2.10212 0
M  V30 2771 H 271.905 3.63063 2.03898 0
M  V30 2772 H 274.502 2.65258 4.64265 0
M  V30 2773 H 274.845 1.05448 4.02724 0
M  V30 2774 H 275.378 2.48301 3.10792 0
M  V30 2775 H 272.117 5.42591 3.67798 0
M  V30 2776 H 271.637 3.93731 4.52477 0
M  V30 2777 H 273.316 4.52294 4.62644 0
M  V30 2778 N 273.449 -1.08991 1.13837 0
M  V30 2779 C 274.359 -2.19301 0.833333 0
M  V30 2780 C 275.375 -1.73026 -0.183847 0
M  V30 2781 O 276.551 -2.01395 -0.0138092 0
M  V30 2782 C 273.616 -3.45323 0.308651 0
M  V30 2783 C 272.677 -4.06255 1.38764 0
M  V30 2784 C 271.91 -5.26262 0.887896 0
M  V30 2785 O 272.133 -5.69747 -0.27287 0
M  V30 2786 O 271.067 -5.78435 1.66421 0
M  V30 2787 H 274.893 -2.47854 1.75506 0
M  V30 2788 H 272.478 -1.18012 0.916166 0
M  V30 2789 H 274.36 -4.21394 0.0216739 0
M  V30 2790 H 273.035 -3.18362 -0.585431 0
M  V30 2791 H 271.942 -3.318 1.72799 0
M  V30 2792 H 273.275 -4.37452 2.25602 0
M  V30 2793 N 274.927 -0.932562 -1.27047 0
M  V30 2794 C 276.155 -0.592031 -1.98249 0
M  V30 2795 C 276.57 0.831062 -1.69525 0
M  V30 2796 O 275.927 1.55299 -0.958561 0
M  V30 2797 C 275.978 -0.814279 -3.5221 0
M  V30 2798 O 275.699 -2.18139 -3.7993 0
M  V30 2799 C 277.2 -0.483121 -4.4066 0
M  V30 2800 H 274.42 -0.223896 -0.632544 0
M  V30 2801 H 276.964 -1.25091 -1.61779 0
M  V30 2802 H 275.119 -0.20213 -3.86872 0
M  V30 2803 H 275.533 -2.235 -4.74498 0
M  V30 2804 H 277.007 -0.689298 -5.47679 0
M  V30 2805 H 277.484 0.581546 -4.35333 0
M  V30 2806 H 278.09 -1.07362 -4.11526 0
M  V30 2807 N 276.405 1.4127 -0.698611 0
M  V30 2808 C 277.653 2.00782 -0.230409 0
M  V30 2809 C 277.974 1.5562 1.17505 0
M  V30 2810 O 277.244 0.78815 1.79346 0
M  V30 2811 H 275.824 0.742464 -0.0821944 0
M  V30 2812 H 278.486 1.72852 -0.90045 0
M  V30 2813 H 277.582 3.11095 -0.25021 0
M  V30 2814 N 277.883 0.443576 1.51229 0
M  V30 2815 C 278.793 -0.370721 2.31652 0
M  V30 2816 C 279.809 -1.02186 1.40833 0
M  V30 2817 O 280.985 -1.01586 1.73903 0
M  V30 2818 C 278.05 -1.45376 3.14749 0
M  V30 2819 C 277.111 -0.822099 4.21355 0
M  V30 2820 C 276.344 -1.85353 5.0048 0
M  V30 2821 O 276.567 -3.07656 4.80316 0
M  V30 2822 O 275.501 -1.4406 5.84406 0
M  V30 2823 H 279.327 0.286002 3.0235 0
M  V30 2824 H 276.912 0.20598 1.47973 0
M  V30 2825 H 278.794 -2.08173 3.66391 0
M  V30 2826 H 277.469 -2.09445 2.46809 0
M  V30 2827 H 276.376 -0.155909 3.73775 0
M  V30 2828 H 277.709 -0.224797 4.91686 0
M  V30 2829 N 279.361 -1.56624 0.175154 0
M  V30 2830 C 280.607 -1.9729 -0.469506 0
M  V30 2831 C 280.94 -1.06128 -1.62636 0
M  V30 2832 O 280.215 -0.109183 -1.94193 0
M  V30 2833 C 280.498 -3.47375 -0.948804 0
M  V30 2834 C 280.351 -4.49317 0.208491 0
M  V30 2835 C 281.67 -4.00652 -1.82116 0
M  V30 2836 H 278.789 -0.717317 -0.16919 0
M  V30 2837 H 281.431 -1.88184 0.262062 0
M  V30 2838 H 279.581 -3.55267 -1.57219 0
M  V30 2839 H 281.253 -4.53482 0.845682 0
M  V30 2840 H 279.496 -4.25121 0.863395 0
M  V30 2841 H 280.167 -5.51741 -0.169059 0
M  V30 2842 H 282.643 -3.95416 -1.2956 0
M  V30 2843 H 281.519 -5.06075 -2.12554 0
M  V30 2844 H 281.78 -3.44699 -2.7683 0
M  V30 2845 N 280.839 0.0985539 -1.57292 0
M  V30 2846 C 282.085 0.803867 -1.86188 0
M  V30 2847 C 282.418 1.78549 -0.763794 0
M  V30 2848 O 281.693 1.93153 0.22855 0
M  V30 2849 C 281.976 1.53568 -3.25713 0
M  V30 2850 C 281.829 0.572277 -4.46145 0
M  V30 2851 C 283.148 2.48708 -3.63087 0
M  V30 2852 H 280.267 0.290781 -0.677211 0
M  V30 2853 H 282.909 0.0675783 -1.8988 0
M  V30 2854 H 281.059 2.16332 -3.22696 0
M  V30 2855 H 282.731 -0.0480894 -4.61275 0
M  V30 2856 H 280.974 -0.114618 -4.33649 0
M  V30 2857 H 281.645 1.12139 -5.40489 0
M  V30 2858 H 284.121 1.96039 -3.67026 0
M  V30 2859 H 282.997 2.96932 -4.61652 0
M  V30 2860 H 283.258 3.32309 -2.91588 0
M  V30 2861 N 282.317 1.53212 0.369288 0
M  V30 2862 C 283.547 1.72868 1.13139 0
M  V30 2863 C 283.955 0.455754 1.83629 0
M  V30 2864 O 283.298 -0.580861 1.74275 0
M  V30 2865 C 283.36 2.83667 2.20847 0
M  V30 2866 C 283.024 4.24142 1.70155 0
M  V30 2867 C 284.021 5.06619 1.16763 0
M  V30 2868 C 281.706 4.70539 1.7578 0
M  V30 2869 C 283.7 6.33581 0.696678 0
M  V30 2870 C 281.387 5.97481 1.28297 0
M  V30 2871 C 282.385 6.78833 0.753307 0
M  V30 2872 O 282.073 8.03393 0.285475 0
M  V30 2873 H 281.805 0.581707 0.344373 0
M  V30 2874 H 284.359 2.00736 0.435243 0
M  V30 2875 H 282.589 2.51265 2.93944 0
M  V30 2876 H 284.278 2.91536 2.82421 0
M  V30 2877 H 285.044 4.71948 1.11758 0
M  V30 2878 H 280.923 4.07293 2.15949 0
M  V30 2879 H 284.467 6.97027 0.282581 0
M  V30 2880 H 280.364 6.31651 1.32994 0
M  V30 2881 H 281.132 8.17497 0.405145 0
M  V30 2882 N 283.795 -0.628877 1.44509 0
M  V30 2883 C 285.042 -1.38839 1.47411 0
M  V30 2884 C 285.37 -1.94202 0.10757 0
M  V30 2885 O 284.625 -1.74243 -0.890947 0
M  V30 2886 C 284.924 -2.56995 2.48371 0
M  V30 2887 C 284.59 -2.19908 3.93639 0
M  V30 2888 C 283.252 -2.09506 4.33198 0
M  V30 2889 C 285.604 -1.9064 4.85083 0
M  V30 2890 C 282.932 -1.68028 5.62124 0
M  V30 2891 C 285.284 -1.50655 6.14399 0
M  V30 2892 C 283.948 -1.38796 6.5291 0
M  V30 2893 H 283.218 -0.508048 0.539414 0
M  V30 2894 H 285.865 -0.712913 1.77735 0
M  V30 2895 H 284.17 -3.29786 2.11538 0
M  V30 2896 H 285.867 -3.15223 2.47861 0
M  V30 2897 H 282.457 -2.28922 3.62343 0
M  V30 2898 H 286.641 -1.97585 4.55273 0
M  V30 2899 H 281.897 -1.57452 5.90778 0
M  V30 2900 H 286.071 -1.27048 6.84713 0
M  V30 2901 H 283.698 -1.06429 7.52713 0
M  V30 2902 N 285.273 -1.31445 -0.869486 0
M  V30 2903 C 286.22 -1.19135 -1.97675 0
M  V30 2904 C 287.19 -0.0770266 -1.65921 0
M  V30 2905 O 288.375 -0.249972 -1.89155 0
M  V30 2906 C 285.515 -0.905149 -3.33018 0
M  V30 2907 C 284.628 -2.10285 -3.77365 0
M  V30 2908 C 283.763 -1.75339 -5.01427 0
M  V30 2909 C 282.802 -2.91515 -5.38224 0
M  V30 2910 N 281.939 -2.56762 -6.53466 0
M  V30 2911 H 286.779 -2.13853 -2.07535 0
M  V30 2912 H 284.316 -1.06379 -1.01597 0
M  V30 2913 H 286.274 -0.719765 -4.10944 0
M  V30 2914 H 284.904 0.00519624 -3.228 0
M  V30 2915 H 283.956 -2.39899 -2.95216 0
M  V30 2916 H 285.268 -2.97237 -4.00564 0
M  V30 2917 H 284.422 -1.53266 -5.87022 0
M  V30 2918 H 283.161 -0.855801 -4.80133 0
M  V30 2919 H 282.166 -3.14237 -4.51149 0
M  V30 2920 H 283.391 -3.81985 -5.61484 0
M  V30 2921 H 281.337 -1.69526 -6.33717 0
M  V30 2922 H 281.254 -3.37243 -6.76612 0
M  V30 2923 H 282.522 -2.38083 -7.42251 0
M  V30 2924 N 286.751 1.08385 -1.14413 0
M  V30 2925 C 287.714 2.13486 -0.834048 0
M  V30 2926 C 288.714 1.59988 0.161418 0
M  V30 2927 O 289.904 1.74071 -0.0669575 0
M  V30 2928 C 287.036 3.4003 -0.243354 0
M  V30 2929 H 288.229 2.42425 -1.7655 0
M  V30 2930 H 285.782 1.24101 -0.950189 0
M  V30 2931 H 286.517 3.16726 0.696807 0
M  V30 2932 H 286.302 3.80157 -0.960367 0
M  V30 2933 H 287.792 4.17577 -0.0436242 0
M  V30 2934 N 288.23 0.939286 1.26551 0
M  V30 2935 C 289.646 0.641304 1.46149 0
M  V30 2936 C 289.846 -0.805964 1.84679 0
M  V30 2937 O 288.902 -1.58278 1.96734 0
M  V30 2938 C 290.215 1.6011 2.54529 0
M  V30 2939 C 291.763 1.6106 2.68382 0
M  V30 2940 C 292.238 2.55765 3.79932 0
M  V30 2941 N 293.729 2.5404 3.87322 0
M  V30 2942 C 294.464 3.24004 4.73085 0
M  V30 2943 N 293.96 4.03388 5.63249 0
M  V30 2944 N 295.753 3.12965 4.66914 0
M  V30 2945 H 287.904 1.87478 0.998285 0
M  V30 2946 H 290.167 0.805559 0.499779 0
M  V30 2947 H 289.873 2.63412 2.33039 0
M  V30 2948 H 289.747 1.35171 3.52149 0
M  V30 2949 H 292.134 0.584835 2.89247 0
M  V30 2950 H 292.215 1.90053 1.71212 0
M  V30 2951 H 291.859 3.58458 3.5982 0
M  V30 2952 H 291.789 2.24063 4.76554 0
M  V30 2953 H 294.28 1.96396 3.22858 0
M  V30 2954 H 294.593 4.5373 6.25579 0
M  V30 2955 H 292.938 4.07489 5.63008 0
M  V30 2956 H 296.129 2.50432 3.95476 0
M  V30 2957 H 296.302 3.67759 5.33533 0
M  V30 2958 N 289.708 -1.40897 0.706093 0
M  V30 2959 C 290.671 -2.29131 0.0562841 0
M  V30 2960 C 291.671 -1.44901 -0.697166 0
M  V30 2961 O 292.861 -1.65926 -0.530484 0
M  V30 2962 C 289.993 -3.27957 -0.93043 0
M  V30 2963 H 291.186 -2.88091 0.833284 0
M  V30 2964 H 288.739 -1.4906 0.470192 0
M  V30 2965 H 289.474 -2.73997 -1.73482 0
M  V30 2966 H 289.259 -3.90124 -0.393166 0
M  V30 2967 H 290.749 -3.94049 -1.38256 0
M  V30 2968 N 291.186 -0.45159 -1.50991 0
M  V30 2969 C 292.414 0.108334 -2.06616 0
M  V30 2970 C 292.829 1.35224 -1.31757 0
M  V30 2971 O 292.186 1.78475 -0.381174 0
M  V30 2972 C 292.237 0.41619 -3.59096 0
M  V30 2973 O 291.958 -0.778361 -4.3113 0
M  V30 2974 C 293.459 1.02523 -4.31282 0
M  V30 2975 H 290.679 0.00159995 -0.670998 0
M  V30 2976 H 293.223 -0.634771 -1.94399 0
M  V30 2977 H 291.378 1.10921 -3.71181 0
M  V30 2978 H 291.792 -0.511181 -5.22003 0
M  V30 2979 H 293.266 1.19053 -5.39009 0
M  V30 2980 H 293.743 2.01013 -3.905 0
M  V30 2981 H 294.349 0.371173 -4.23677 0
M  V30 2982 N 292.664 1.56529 -0.183458 0
M  V30 2983 C 293.91 1.97537 0.459036 0
M  V30 2984 C 294.243 1.06989 1.62071 0
M  V30 2985 O 293.518 0.11948 1.94133 0
M  V30 2986 C 293.801 3.47874 0.930368 0
M  V30 2987 C 293.654 4.492 -0.232317 0
M  V30 2988 C 294.973 4.01612 1.79989 0
M  V30 2989 H 292.092 0.718204 0.165383 0
M  V30 2990 H 294.734 1.88042 -0.272038 0
M  V30 2991 H 292.884 3.56095 1.55333 0
M  V30 2992 H 294.556 4.53027 -0.86972 0
M  V30 2993 H 292.799 4.24657 -0.885928 0
M  V30 2994 H 293.47 5.51823 0.139796 0
M  V30 2995 H 295.946 3.96097 1.27461 0
M  V30 2996 H 294.822 5.07195 2.09867 0
M  V30 2997 H 295.083 3.46163 2.74998 0
M  V30 2998 N 294.142 -0.090211 1.57342 0
M  V30 2999 C 295.072 -1.10976 2.05443 0
M  V30 3000 C 296.053 -1.41482 0.944284 0
M  V30 3001 O 297.238 -1.51428 1.21586 0
M  V30 3002 C 294.368 -2.42831 2.48295 0
M  V30 3003 C 293.322 -2.26721 3.63018 0
M  V30 3004 C 292.648 -3.63796 3.91863 0
M  V30 3005 C 293.948 -1.7037 4.93732 0
M  V30 3006 H 295.642 -0.709564 2.9087 0
M  V30 3007 H 293.188 -0.339874 1.39932 0
M  V30 3008 H 295.141 -3.14431 2.80555 0
M  V30 3009 H 293.865 -2.84795 1.59873 0
M  V30 3010 H 292.524 -1.57565 3.31012 0
M  V30 3011 H 292.172 -4.03297 3.00601 0
M  V30 3012 H 291.872 -3.53861 4.69101 0
M  V30 3013 H 293.396 -4.36855 4.26603 0
M  V30 3014 H 294.81 -2.31816 5.24342 0
M  V30 3015 H 293.207 -1.71181 5.75167 0
M  V30 3016 H 294.277 -0.663542 4.80339 0
M  V30 3017 N 295.62 -1.53406 -0.361157 0
M  V30 3018 C 296.583 -1.79479 -1.42548 0
M  V30 3019 C 297.583 -0.665327 -1.4639 0
M  V30 3020 O 298.773 -0.933549 -1.47073 0
M  V30 3021 C 295.905 -1.92087 -2.8163 0
M  V30 3022 H 297.098 -2.74538 -1.20701 0
M  V30 3023 H 294.651 -1.4455 -0.594546 0
M  V30 3024 H 295.386 -0.991099 -3.08784 0
M  V30 3025 H 295.171 -2.74241 -2.80239 0
M  V30 3026 H 296.661 -2.13836 -3.58697 0
M  V30 3027 N 297.098 0.621204 -1.44841 0
M  V30 3028 C 298.326 1.40752 -1.51646 0
M  V30 3029 C 298.741 1.88246 -0.144549 0
M  V30 3030 O 298.098 1.61422 0.851416 0
M  V30 3031 C 298.149 2.62119 -2.4895 0
M  V30 3032 O 297.87 2.16602 -3.80808 0
M  V30 3033 C 299.371 3.55135 -2.65319 0
M  V30 3034 H 296.591 0.431325 -0.514004 0
M  V30 3035 H 299.135 0.758835 -1.899 0
M  V30 3036 H 297.29 3.23058 -2.13805 0
M  V30 3037 H 297.704 2.95358 -4.33433 0
M  V30 3038 H 299.178 4.36874 -3.37409 0
M  V30 3039 H 299.655 4.04592 -1.70886 0
M  V30 3040 H 300.261 3.00058 -3.01405 0
M  V30 3041 N 298.576 1.31904 0.862503 0
M  V30 3042 C 299.824 1.21776 1.61292 0
M  V30 3043 C 300.145 -0.222413 1.93727 0
M  V30 3044 O 299.415 -1.1451 1.58947 0
M  V30 3045 H 297.995 0.447717 0.597962 0
M  V30 3046 H 300.657 1.65326 1.03215 0
M  V30 3047 H 299.753 1.7948 2.5533 0
M  V30 3048 N 300.054 -1.07777 1.14986 0
M  V30 3049 C 301.302 -1.79934 0.920235 0
M  V30 3050 C 301.623 -1.86955 -0.554336 0
M  V30 3051 O 300.893 -1.36731 -1.40291 0
M  V30 3052 H 299.473 -0.666424 0.337473 0
M  V30 3053 H 302.135 -1.3027 1.44968 0
M  V30 3054 H 301.231 -2.82539 1.32583 0
M  V30 3055 N 301.532 -0.945985 -1.26051 0
M  V30 3056 C 302.495 -0.463897 -2.24456 0
M  V30 3057 C 303.495 0.427655 -1.55009 0
M  V30 3058 O 304.685 0.226157 -1.72726 0
M  V30 3059 C 301.817 0.330812 -3.39291 0
M  V30 3060 H 303.01 -1.33357 -2.68619 0
M  V30 3061 H 300.563 -0.728416 -1.38289 0
M  V30 3062 H 301.298 1.21852 -3.00537 0
M  V30 3063 H 301.083 -0.308679 -3.90883 0
M  V30 3064 H 302.573 0.657865 -4.12386 0
M  V30 3065 N 303.011 1.40521 -0.713556 0
M  V30 3066 C 304.259 2.00527 -0.251692 0
M  V30 3067 C 304.58 1.56857 1.15848 0
M  V30 3068 O 303.85 0.807127 1.785 0
M  V30 3069 H 302.43 0.741551 -0.0900646 0
M  V30 3070 H 305.092 1.71887 -0.918733 0
M  V30 3071 H 304.188 3.10813 -0.283192 0
M  V30 3072 N 304.489 0.459591 1.5075 0
M  V30 3073 C 305.905 0.113092 1.59199 0
M  V30 3074 C 306.105 -1.37951 1.46874 0
M  V30 3075 O 305.161 -2.15168 1.32132 0
M  V30 3076 C 306.474 0.653043 2.93523 0
M  V30 3077 C 308.022 0.615449 3.0689 0
M  V30 3078 C 308.497 1.13275 4.43771 0
M  V30 3079 N 309.988 1.09167 4.50152 0
M  V30 3080 C 310.723 1.46256 5.54434 0
M  V30 3081 N 310.219 1.90739 6.66026 0
M  V30 3082 N 312.012 1.37932 5.44914 0
M  V30 3083 H 304.163 1.43049 1.57005 0
M  V30 3084 H 306.426 0.590861 0.741341 0
M  V30 3085 H 306.132 1.69822 3.07983 0
M  V30 3086 H 306.006 0.0902132 3.77092 0
M  V30 3087 H 308.393 -0.420793 2.92084 0
M  V30 3088 H 308.474 1.21495 2.25106 0
M  V30 3089 H 308.118 2.16757 4.59324 0
M  V30 3090 H 308.048 0.509576 5.24129 0
M  V30 3091 H 310.539 0.76528 3.7007 0
M  V30 3092 H 310.852 2.17218 7.41644 0
M  V30 3093 H 309.197 1.94683 6.67176 0
M  V30 3094 H 312.388 1.0303 4.56621 0
M  V30 3095 H 312.561 1.67164 6.26067 0
M  V30 3096 N 305.967 -1.56429 0.191757 0
M  V30 3097 C 307.216 -1.9666 -0.448088 0
M  V30 3098 C 307.529 -1.08136 -1.62991 0
M  V30 3099 O 308.735 -1.38135 -2.33733 0
M  V30 3100 C 307.191 -3.49753 -0.848585 0
M  V30 3101 C 306.799 -4.46935 0.308764 0
M  V30 3102 C 308.543 -3.9876 -1.4557 0
M  V30 3103 C 306.45 -5.91293 -0.112506 0
M  V30 3104 H 305.38 -0.734312 -0.171179 0
M  V30 3105 H 308.031 -1.81301 0.283242 0
M  V30 3106 H 306.413 -3.60604 -1.63649 0
M  V30 3107 H 307.587 -4.47813 1.08627 0
M  V30 3108 H 305.902 -4.08102 0.827158 0
M  V30 3109 H 308.499 -5.04086 -1.78328 0
M  V30 3110 H 308.842 -3.42875 -2.36099 0
M  V30 3111 H 309.375 -3.9101 -0.731836 0
M  V30 3112 H 306.114 -6.51097 0.758514 0
M  V30 3113 H 305.634 -5.93676 -0.854941 0
M  V30 3114 H 307.313 -6.44663 -0.549448 0
M  V30 3115 N 307.445 0.0818655 -1.57387 0
M  V30 3116 C 308.675 0.794954 -1.90694 0
M  V30 3117 C 309.083 1.72147 -0.784982 0
M  V30 3118 O 308.426 1.81974 0.251196 0
M  V30 3119 C 308.488 1.65042 -3.19376 0
M  V30 3120 C 308.152 0.894337 -4.48164 0
M  V30 3121 C 309.149 0.21813 -5.19442 0
M  V30 3122 C 306.834 0.864495 -4.94805 0
M  V30 3123 C 308.828 -0.477802 -6.35607 0
M  V30 3124 C 306.515 0.164785 -6.10878 0
M  V30 3125 C 307.513 -0.505173 -6.81129 0
M  V30 3126 O 307.201 -1.19363 -7.94989 0
M  V30 3127 H 306.933 0.231779 -0.635023 0
M  V30 3128 H 309.487 0.059493 -2.05314 0
M  V30 3129 H 307.717 2.42844 -3.00938 0
M  V30 3130 H 309.406 2.24127 -3.38411 0
M  V30 3131 H 310.172 0.232558 -4.84442 0
M  V30 3132 H 306.051 1.37542 -4.40004 0
M  V30 3133 H 309.595 -1.00129 -6.90377 0
M  V30 3134 H 305.492 0.148249 -6.4533 0
M  V30 3135 H 306.26 -1.10188 -8.11049 0
M  V30 3136 N 308.923 1.53595 0.353017 0
M  V30 3137 C 309.855 1.77219 1.45348 0
M  V30 3138 C 310.868 0.65324 1.49119 0
M  V30 3139 O 312.057 0.929775 1.52373 0
M  V30 3140 C 309.157 1.84841 2.84055 0
M  V30 3141 C 308.33 3.14649 3.03833 0
M  V30 3142 C 307.389 3.13351 4.22727 0
M  V30 3143 O 306.415 3.87107 4.17297 0
M  V30 3144 N 307.617 2.35052 5.30783 0
M  V30 3145 H 310.382 2.72178 1.25457 0
M  V30 3146 H 307.943 1.52528 0.542833 0
M  V30 3147 H 309.935 1.81435 3.61751 0
M  V30 3148 H 308.505 0.971114 2.97133 0
M  V30 3149 H 307.725 3.31256 2.13689 0
M  V30 3150 H 309.013 4.00411 3.13925 0
M  V30 3151 H 308.411 1.74663 5.38061 0
M  V30 3152 H 306.968 2.37453 6.07009 0
M  V30 3153 N 310.401 -0.613514 1.45168 0
M  V30 3154 C 311.626 -1.40437 1.52618 0
M  V30 3155 C 312.051 -1.87438 0.157707 0
M  V30 3156 O 311.409 -1.59791 -0.856537 0
M  V30 3157 C 311.457 -2.58894 2.51011 0
M  V30 3158 O 310.561 -3.59326 2.02382 0
M  V30 3159 H 309.902 -0.419506 0.514695 0
M  V30 3160 H 312.432 -0.747215 1.90467 0
M  V30 3161 H 312.442 -3.06214 2.69624 0
M  V30 3162 H 311.117 -2.24032 3.50403 0
M  V30 3163 H 309.694 -3.18695 1.93618 0
M  V30 3164 N 311.879 -1.3236 -0.855495 0
M  V30 3165 C 313.107 -1.2587 -1.64208 0
M  V30 3166 C 313.522 0.173457 -1.88002 0
M  V30 3167 O 312.879 1.11027 -1.44842 0
M  V30 3168 C 312.93 -2.01424 -3.00184 0
M  V30 3169 O 312.651 -3.39051 -2.77445 0
M  V30 3170 C 314.152 -2.01948 -3.94629 0
M  V30 3171 H 311.372 -0.434318 -0.511477 0
M  V30 3172 H 313.916 -1.74469 -1.0668 0
M  V30 3173 H 312.071 -1.56549 -3.5436 0
M  V30 3174 H 312.485 -3.77711 -3.63916 0
M  V30 3175 H 313.959 -2.59297 -4.87308 0
M  V30 3176 H 314.436 -1.00554 -4.27534 0
M  V30 3177 H 315.042 -2.46767 -3.4639 0
M  V30 3178 N 313.357 1.07166 -1.15556 0
M  V30 3179 C 314.585 1.83514 -0.955519 0
M  V30 3180 C 315 1.82163 0.49621 0
M  V30 3181 O 314.357 1.23441 1.34419 0
M  V30 3182 C 314.408 3.30515 -1.46432 0
M  V30 3183 O 314.129 3.31937 -2.85918 0
M  V30 3184 C 315.63 4.23625 -1.30603 0
M  V30 3185 H 312.85 0.578926 -0.339244 0
M  V30 3186 H 315.394 1.35265 -1.53374 0
M  V30 3187 H 313.549 3.76106 -0.928584 0
M  V30 3188 H 313.963 4.23794 -3.09029 0
M  V30 3189 H 315.437 5.24831 -1.71047 0
M  V30 3190 H 315.914 4.38485 -0.250441 0
M  V30 3191 H 316.52 3.83871 -1.83094 0
M  V30 3192 N 314.835 0.952656 1.25548 0
M  V30 3193 C 315.783 0.462354 2.27958 0
M  V30 3194 C 316.777 -0.46634 1.62855 0
M  V30 3195 O 317.983 -0.343287 1.76696 0
M  V30 3196 H 314.358 0.13101 0.7405 0
M  V30 3197 H 316.329 1.33839 2.66702 0
M  V30 3198 C 315.078 -0.24628 3.46827 0
M  V30 3199 H 314.401 0.459192 3.97154 0
M  V30 3200 H 315.841 -0.553393 4.20373 0
M  V30 3201 C 314.3 -1.4681 3.0323 0
M  V30 3202 O 314.83 -2.56591 3.09069 0
M  V30 3203 N 313.036 -1.32874 2.58443 0
M  V30 3204 H 312.583 -0.435536 2.53891 0
M  V30 3205 H 312.541 -2.14742 2.29637 0
M  V30 3206 N 316.313 -1.40141 0.720998 0
M  V30 3207 C 317.276 -2.29058 0.0805834 0
M  V30 3208 C 318.276 -1.45632 -0.681758 0
M  V30 3209 O 319.466 -1.6648 -0.512856 0
M  V30 3210 C 316.598 -3.28925 -0.895593 0
M  V30 3211 H 317.791 -2.87191 0.863793 0
M  V30 3212 H 315.344 -1.48553 0.485975 0
M  V30 3213 H 316.079 -2.75822 -1.70566 0
M  V30 3214 H 315.864 -3.90519 -0.351766 0
M  V30 3215 H 317.354 -3.95494 -1.34069 0
M  V30 3216 N 317.792 -0.46758 -1.50504 0
M  V30 3217 C 318.742 0.34698 -2.25344 0
M  V30 3218 C 319.726 0.964469 -1.2879 0
M  V30 3219 O 320.918 0.8776 -1.53711 0
M  V30 3220 C 318.047 1.43042 -3.1208 0
M  V30 3221 C 317.133 0.82084 -4.16081 0
M  V30 3222 N 317.524 -0.0567602 -5.05768 0
M  V30 3223 C 315.822 1.08517 -4.32597 0
M  V30 3224 C 316.523 -0.402343 -5.80307 0
M  V30 3225 N 315.499 0.221607 -5.43148 0
M  V30 3226 H 319.301 -0.329129 -2.92051 0
M  V30 3227 H 316.815 -0.281508 -1.59942 0
M  V30 3228 H 318.812 2.02712 -3.64299 0
M  V30 3229 H 317.472 2.10856 -2.46921 0
M  V30 3230 H 318.483 -0.425349 -5.1615 0
M  V30 3231 H 315.16 1.75855 -3.78657 0
M  V30 3232 H 316.55 -1.11834 -6.62528 0
M  V30 3233 N 319.27 1.56325 -0.20005 0
M  V30 3234 C 320.519 1.96895 0.437652 0
M  V30 3235 C 320.832 1.08999 1.62415 0
M  V30 3236 O 322.038 1.39372 2.32997 0
M  V30 3237 C 320.494 3.50198 0.830025 0
M  V30 3238 C 320.102 4.46765 -0.332461 0
M  V30 3239 C 321.846 3.99526 1.43453 0
M  V30 3240 C 319.753 5.91344 0.0811468 0
M  V30 3241 H 318.683 0.735209 0.167282 0
M  V30 3242 H 321.334 1.81148 -0.292853 0
M  V30 3243 H 319.716 3.61467 1.61734 0
M  V30 3244 H 320.89 4.47231 -1.11 0
M  V30 3245 H 319.205 4.07657 -0.848789 0
M  V30 3246 H 321.802 5.05025 1.75652 0
M  V30 3247 H 322.145 3.44122 2.34277 0
M  V30 3248 H 322.678 3.91393 0.71109 0
M  V30 3249 H 319.417 6.50685 -0.793033 0
M  V30 3250 H 318.937 5.94121 0.823445 0
M  V30 3251 H 320.616 6.44945 0.515252 0
M  V30 3252 N 320.748 -0.0735177 1.57428 0
M  V30 3253 C 321.696 -1.10628 2.04607 0
M  V30 3254 C 322.69 -1.40181 0.951088 0
M  V30 3255 O 323.896 -1.39608 1.1362 0
M  V30 3256 H 320.271 -0.374088 0.652351 0
M  V30 3257 H 322.242 -0.682218 2.90497 0
M  V30 3258 C 320.991 -2.41212 2.50423 0
M  V30 3259 H 320.314 -2.19322 3.34272 0
M  V30 3260 H 321.754 -3.11927 2.87189 0
M  V30 3261 C 320.213 -3.0705 1.38644 0
M  V30 3262 O 320.743 -3.95056 0.727582 0
M  V30 3263 N 318.949 -2.67645 1.132 0
M  V30 3264 H 318.496 -1.96169 1.66959 0
M  V30 3265 H 318.454 -3.1202 0.386147 0
M  V30 3266 N 322.226 -1.5378 -0.344866 0
M  V30 3267 C 323.454 -1.74899 -1.10534 0
M  V30 3268 C 323.869 -0.487534 -1.82397 0
M  V30 3269 O 323.226 0.540741 -1.74305 0
M  V30 3270 C 323.277 -2.92822 -2.11984 0
M  V30 3271 O 322.998 -4.14089 -1.43044 0
M  V30 3272 C 324.499 -3.25982 -3.00417 0
M  V30 3273 H 321.719 -0.584426 -0.329678 0
M  V30 3274 H 324.263 -2.006 -0.397474 0
M  V30 3275 H 322.418 -2.69457 -2.78338 0
M  V30 3276 H 322.832 -4.80272 -2.10805 0
M  V30 3277 H 324.306 -4.11848 -3.67539 0
M  V30 3278 H 324.783 -2.42228 -3.66363 0
M  V30 3279 H 325.389 -3.51349 -2.39654 0
M  V30 3280 N 323.704 0.605807 -1.45491 0
M  V30 3281 C 324.952 1.36207 -1.49305 0
M  V30 3282 C 325.273 1.94519 -0.136863 0
M  V30 3283 O 324.543 1.77261 0.833983 0
M  V30 3284 H 323.123 0.50565 -0.549843 0
M  V30 3285 H 325.785 0.711239 -1.81459 0
M  V30 3286 H 324.881 2.18058 -2.23287 0
M  V30 3287 N 325.182 1.32811 0.848464 0
M  V30 3288 C 326.459 1.14334 1.58704 0
M  V30 3289 C 326.839 -0.293948 2.09043 0
M  V30 3290 O 326.187 -1.29153 1.88499 0
M  V30 3291 C 326.397 2.17626 2.72837 0
M  V30 3292 C 327.745 2.51282 3.42261 0
M  V30 3293 O 328.769 2.16219 2.83068 0
M  V30 3294 O 327.628 3.11413 4.49093 0
M  V30 3295 H 324.722 0.441601 0.699226 0
M  V30 3296 H 327.268 1.44362 0.892053 0
M  V30 3297 H 326.04 3.14211 2.3321 0
M  V30 3298 H 325.663 1.88628 3.50008 0
M  V30 3299 N 326.66 -1.06551 1.16123 0
M  V30 3300 C 327.908 -1.78947 0.939267 0
M  V30 3301 C 328.229 -1.87532 -0.534476 0
M  V30 3302 O 327.499 -1.38211 -1.38833 0
M  V30 3303 H 326.079 -0.662807 0.344523 0
M  V30 3304 H 328.741 -1.28725 1.46342 0
M  V30 3305 H 327.837 -2.81117 1.35572 0
M  V30 3306 N 328.138 -0.959301 -1.25041 0
M  V30 3307 C 329.384 -0.617525 -1.9317 0
M  V30 3308 C 329.717 0.843981 -1.74902 0
M  V30 3309 O 328.992 1.60615 -1.09696 0
M  V30 3310 C 329.275 -0.982736 -3.46431 0
M  V30 3311 C 329.128 -2.50032 -3.73904 0
M  V30 3312 C 330.447 -0.511176 -4.37121 0
M  V30 3313 H 327.566 -0.22582 -0.701552 0
M  V30 3314 H 330.208 -1.19679 -1.4757 0
M  V30 3315 H 328.358 -0.489806 -3.854 0
M  V30 3316 H 330.03 -3.06737 -3.44544 0
M  V30 3317 H 328.273 -2.93598 -3.19348 0
M  V30 3318 H 328.944 -2.70635 -4.81103 0
M  V30 3319 H 331.42 -0.934075 -4.0548 0
M  V30 3320 H 330.296 -0.795361 -5.43107 0
M  V30 3321 H 330.557 0.588834 -4.38161 0
M  V30 3322 N 329.616 1.39756 -0.72842 0
M  V30 3323 C 330.864 2.00248 -0.272946 0
M  V30 3324 C 331.185 1.58077 1.14178 0
M  V30 3325 O 330.455 0.826014 1.77634 0
M  V30 3326 H 329.035 0.740554 -0.0979247 0
M  V30 3327 H 331.697 1.70903 -0.936912 0
M  V30 3328 H 330.793 3.10495 -0.316142 0
M  V30 3329 N 331.094 0.475555 1.50254 0
M  V30 3330 C 332.027 -0.362381 2.25304 0
M  V30 3331 C 333.005 -0.992393 1.28803 0
M  V30 3332 O 334.189 -1.02746 1.58036 0
M  V30 3333 C 331.316 -1.50813 3.03271 0
M  V30 3334 C 330.362 -0.995044 4.1473 0
M  V30 3335 S 331.195 0.0938436 5.35418 0
M  V30 3336 C 332.351 -1.05567 6.16933 0
M  V30 3337 H 332.584 0.274686 2.96028 0
M  V30 3338 H 330.117 0.260495 1.52187 0
M  V30 3339 H 332.075 -2.16476 3.48781 0
M  V30 3340 H 330.736 -2.11672 2.32064 0
M  V30 3341 H 329.929 -1.85293 4.68703 0
M  V30 3342 H 329.531 -0.416052 3.71679 0
M  V30 3343 H 331.823 -1.96636 6.48337 0
M  V30 3344 H 332.766 -0.555109 7.05921 0
M  V30 3345 H 333.174 -1.31151 5.49053 0
M  V30 3346 N 332.573 -1.56217 0.208337 0
M  V30 3347 C 333.536 -2.18455 -0.693557 0
M  V30 3348 C 334.536 -1.14268 -1.13135 0
M  V30 3349 O 335.726 -1.39577 -1.0423 0
M  V30 3350 C 332.858 -2.79727 -1.94848 0
M  V30 3351 H 334.051 -2.99519 -0.15114 0
M  V30 3352 H 331.604 -1.56245 -0.041287 0
M  V30 3353 H 332.339 -2.02497 -2.53309 0
M  V30 3354 H 332.124 -3.56009 -1.64316 0
M  V30 3355 H 333.614 -3.27475 -2.59133 0
M  V30 3356 N 334.051 0.0651679 -1.57465 0
M  V30 3357 C 335.3 0.761916 -1.86756 0
M  V30 3358 C 335.613 1.78406 -0.801925 0
M  V30 3359 O 336.819 2.53084 -0.982885 0
M  V30 3360 C 335.275 1.40603 -3.31299 0
M  V30 3361 C 334.883 0.422115 -4.46007 0
M  V30 3362 C 336.627 2.08476 -3.69781 0
M  V30 3363 C 334.534 1.07252 -5.81593 0
M  V30 3364 H 333.464 0.288308 -0.696702 0
M  V30 3365 H 336.115 0.015344 -1.83494 0
M  V30 3366 H 334.497 2.20109 -3.29193 0
M  V30 3367 H 335.671 -0.343613 -4.59517 0
M  V30 3368 H 333.986 -0.152527 -4.16121 0
M  V30 3369 H 336.583 2.57925 -4.68379 0
M  V30 3370 H 336.926 2.88712 -2.99919 0
M  V30 3371 H 337.459 1.35792 -3.73905 0
M  V30 3372 H 334.198 0.310342 -6.54765 0
M  V30 3373 H 333.718 1.80895 -5.71872 0
M  V30 3374 H 335.397 1.59043 -6.27148 0
M  V30 3375 N 335.529 1.53961 0.336706 0
M  V30 3376 C 336.945 1.44378 0.680241 0
M  V30 3377 C 337.145 0.606034 1.9217 0
M  V30 3378 O 336.201 0.099688 2.52303 0
M  V30 3379 C 337.514 2.87945 0.8665 0
M  V30 3380 C 339.062 2.97763 0.964682 0
M  V30 3381 C 339.537 4.42453 1.18321 0
M  V30 3382 N 341.028 4.46008 1.25025 0
M  V30 3383 C 341.763 5.55102 1.43697 0
M  V30 3384 N 341.259 6.7419 1.59498 0
M  V30 3385 N 343.052 5.42727 1.463 0
M  V30 3386 H 335.203 2.06918 -0.479455 0
M  V30 3387 H 337.466 0.935634 -0.152619 0
M  V30 3388 H 337.172 3.51691 0.0256937 0
M  V30 3389 H 337.046 3.33293 1.76623 0
M  V30 3390 H 339.433 2.34153 1.796 0
M  V30 3391 H 339.514 2.55766 0.041708 0
M  V30 3392 H 339.158 5.06645 0.356788 0
M  V30 3393 H 339.088 4.82048 2.11985 0
M  V30 3394 H 341.579 3.60196 1.14312 0
M  V30 3395 H 341.892 7.53095 1.734 0
M  V30 3396 H 340.237 6.77123 1.56621 0
M  V30 3397 H 343.428 4.48647 1.33543 0
M  V30 3398 H 343.601 6.27806 1.6051 0
M  V30 3399 N 337.007 -0.598083 1.45811 0
M  V30 3400 C 337.97 -1.69018 1.54808 0
M  V30 3401 C 338.97 -1.55037 0.426652 0
M  V30 3402 O 340.16 -1.59932 0.690456 0
M  V30 3403 C 337.292 -3.0835 1.45371 0
M  V30 3404 H 338.485 -1.62403 2.52121 0
M  V30 3405 H 336.038 -0.814626 1.33392 0
M  V30 3406 H 336.773 -3.20534 0.492793 0
M  V30 3407 H 336.558 -3.19907 2.26721 0
M  V30 3408 H 338.048 -3.8788 1.54721 0
M  V30 3409 N 338.485 -1.33259 -0.841409 0
M  V30 3410 C 339.733 -1.24326 -1.59334 0
M  V30 3411 C 340.054 0.191564 -1.94057 0
M  V30 3412 O 339.324 1.11967 -1.60749 0
M  V30 3413 H 337.904 -0.457174 -0.590763 0
M  V30 3414 H 340.566 -1.66947 -1.00571 0
M  V30 3415 H 339.662 -1.8352 -2.52442 0
M  V30 3416 N 339.963 1.05934 -1.16686 0
M  V30 3417 C 341.209 1.79065 -0.95203 0
M  V30 3418 C 341.542 1.87147 0.518629 0
M  V30 3419 O 340.817 1.36574 1.38484 0
M  V30 3420 C 341.1 3.23359 -1.58464 0
M  V30 3421 C 340.953 3.23336 -3.12689 0
M  V30 3422 C 342.272 4.21004 -1.28232 0
M  V30 3423 H 339.391 0.65005 -0.34728 0
M  V30 3424 H 342.033 1.23868 -1.44072 0
M  V30 3425 H 340.183 3.70493 -1.16908 0
M  V30 3426 H 341.855 2.84336 -3.6325 0
M  V30 3427 H 340.098 2.61886 -3.4583 0
M  V30 3428 H 340.769 4.25144 -3.52075 0
M  V30 3429 H 343.245 3.8233 -1.64203 0
M  V30 3430 H 342.121 5.20225 -1.75092 0
M  V30 3431 H 342.382 4.41639 -0.201791 0
M  V30 3432 N 341.441 0.965919 1.2453 0
M  V30 3433 C 342.852 0.665929 1.7442 0
M  V30 3434 C 343.203 -0.818407 1.78316 0
M  V30 3435 O 342.328 -1.64037 1.41141 0
M  V30 3436 C 342.923 1.20211 3.16757 0
M  V30 3437 C 341.482 0.952059 3.6416 0
M  V30 3438 C 340.629 1.33848 2.42858 0
M  V30 3439 H 343.58 1.14144 1.10258 0
M  V30 3440 H 343.601 0.567544 3.76244 0
M  V30 3441 H 343.113 2.28244 3.13889 0
M  V30 3442 H 341.214 -0.112821 3.72429 0
M  V30 3443 H 341.327 1.59645 4.51719 0
M  V30 3444 H 339.691 0.756864 2.43195 0
M  V30 3445 H 340.474 2.42827 2.42673 0
M  V30 3446 N 342.919 -1.39368 0.735821 0
M  V30 3447 C 344.165 -2.00794 0.284544 0
M  V30 3448 C 344.498 -1.58255 -1.12557 0
M  V30 3449 O 343.773 -0.811819 -1.76748 0
M  V30 3450 C 344.056 -3.58011 0.387337 0
M  V30 3451 C 343.909 -4.10566 1.83728 0
M  V30 3452 C 345.228 -4.395 -0.22975 0
M  V30 3453 H 342.347 -0.729501 0.104866 0
M  V30 3454 H 344.989 -1.65564 0.93213 0
M  V30 3455 H 343.139 -3.88154 -0.164006 0
M  V30 3456 H 344.811 -3.91139 2.44556 0
M  V30 3457 H 343.054 -3.64095 2.35833 0
M  V30 3458 H 343.725 -5.19702 1.86047 0
M  V30 3459 H 346.201 -4.15406 0.240257 0
M  V30 3460 H 345.077 -5.48752 -0.127485 0
M  V30 3461 H 345.338 -4.22062 -1.3159 0
M  V30 3462 N 344.397 -0.483516 -1.5 0
M  V30 3463 C 345.329 0.340634 -2.26655 0
M  V30 3464 C 346.342 0.946152 -1.32483 0
M  V30 3465 O 347.531 0.832453 -1.579 0
M  V30 3466 C 344.631 1.4929 -3.04246 0
M  V30 3467 C 343.804 0.997903 -4.25865 0
M  V30 3468 C 342.863 2.02569 -4.85646 0
M  V30 3469 O 341.889 1.60128 -5.46212 0
M  V30 3470 N 343.091 3.3548 -4.73744 0
M  V30 3471 H 345.856 -0.316577 -2.98023 0
M  V30 3472 H 343.417 -0.315024 -1.58806 0
M  V30 3473 H 345.409 2.17766 -3.41116 0
M  V30 3474 H 343.979 2.05458 -2.35597 0
M  V30 3475 H 343.199 0.138617 -3.93956 0
M  V30 3476 H 344.487 0.645305 -5.04691 0
M  V30 3477 H 343.885 3.72661 -4.25605 0
M  V30 3478 H 342.442 3.99718 -5.14848 0
M  V30 3479 N 345.875 1.56104 -0.216619 0
M  V30 3480 C 347.152 1.89988 0.465165 0
M  V30 3481 C 347.532 1.13326 1.78102 0
M  V30 3482 O 346.88 0.241033 2.27225 0
M  V30 3483 C 347.09 3.42646 0.662939 0
M  V30 3484 C 348.438 4.13311 0.972602 0
M  V30 3485 O 349.462 3.48217 0.749901 0
M  V30 3486 O 348.321 5.28396 1.39499 0
M  V30 3487 H 345.415 0.78979 0.245276 0
M  V30 3488 H 347.961 1.67721 -0.258436 0
M  V30 3489 H 346.733 3.90399 -0.26543 0
M  V30 3490 H 346.356 3.70677 1.43821 0
M  V30 3491 N 347.353 -0.0568162 1.57498 0
M  V30 3492 C 348.286 -1.09817 2.00039 0
M  V30 3493 C 349.264 -1.3674 0.879819 0
M  V30 3494 O 350.448 -1.49863 1.14338 0
M  V30 3495 C 347.575 -2.43924 2.34986 0
M  V30 3496 C 346.621 -2.33039 3.57204 0
M  V30 3497 S 347.454 -1.7102 5.07457 0
M  V30 3498 C 348.61 -3.06674 5.45621 0
M  V30 3499 H 348.843 -0.735701 2.88053 0
M  V30 3500 H 346.376 -0.265871 1.52094 0
M  V30 3501 H 348.334 -3.2106 2.55795 0
M  V30 3502 H 346.995 -2.77327 1.47474 0
M  V30 3503 H 346.188 -3.31973 3.79223 0
M  V30 3504 H 345.79 -1.64043 3.36104 0
M  V30 3505 H 348.082 -4.03 5.44608 0
M  V30 3506 H 349.025 -2.8942 6.46252 0
M  V30 3507 H 349.433 -3.07969 4.73091 0
M  V30 3508 N 348.832 -1.54138 -0.328536 0
M  V30 3509 C 349.742 -1.86192 -1.42723 0
M  V30 3510 C 350.758 -0.753382 -1.56844 0
M  V30 3511 O 351.934 -1.04718 -1.72035 0
M  V30 3512 C 348.999 -2.07824 -2.77507 0
M  V30 3513 C 348.06 -3.31641 -2.72603 0
M  V30 3514 C 347.293 -3.52232 -4.00959 0
M  V30 3515 O 347.516 -2.7636 -4.9898 0
M  V30 3516 O 346.45 -4.45699 -4.0452 0
M  V30 3517 H 350.276 -2.79608 -1.18547 0
M  V30 3518 H 347.861 -1.3998 -0.522104 0
M  V30 3519 H 349.743 -2.23411 -3.57303 0
M  V30 3520 H 348.418 -1.17596 -3.01584 0
M  V30 3521 H 347.325 -3.21444 -1.91376 0
M  V30 3522 H 348.658 -4.2191 -2.53481 0
M  V30 3523 N 350.31 0.590341 -1.46126 0
M  V30 3524 C 351.243 1.71434 -1.50617 0
M  V30 3525 C 352.221 1.58543 -0.360948 0
M  V30 3526 O 353.405 1.79865 -0.563985 0
M  V30 3527 C 350.532 3.09422 -1.37753 0
M  V30 3528 C 349.578 3.40854 -2.5636 0
M  V30 3529 S 350.411 3.33773 -4.18755 0
M  V30 3530 C 351.567 4.74312 -4.08386 0
M  V30 3531 H 351.8 1.67364 -2.45717 0
M  V30 3532 H 349.333 0.76845 -1.33919 0
M  V30 3533 H 351.291 3.8903 -1.31018 0
M  V30 3534 H 349.952 3.10989 -0.440949 0
M  V30 3535 H 349.145 4.41368 -2.43332 0
M  V30 3536 H 348.747 2.68798 -2.60046 0
M  V30 3537 H 351.039 5.64522 -3.74595 0
M  V30 3538 H 351.982 4.92397 -5.08872 0
M  V30 3539 H 352.39 4.50803 -3.3976 0
M  V30 3540 N 351.788 1.33704 0.83433 0
M  V30 3541 C 353.034 1.26612 1.59188 0
M  V30 3542 C 353.389 -0.165439 1.91687 0
M  V30 3543 O 352.682 -1.10873 1.56262 0
M  V30 3544 C 352.876 2.07926 2.90692 0
M  V30 3545 C 352.705 3.58844 2.71038 0
M  V30 3546 C 351.475 4.28148 2.68361 0
M  V30 3547 C 353.673 4.53082 2.43353 0
M  V30 3548 N 351.655 5.64987 2.40132 0
M  V30 3549 C 353.026 5.77843 2.24716 0
M  V30 3550 C 355.081 4.42119 2.28987 0
M  V30 3551 C 353.784 6.92877 1.9317 0
M  V30 3552 C 355.81 5.56973 1.98835 0
M  V30 3553 C 355.172 6.80745 1.81012 0
M  V30 3554 H 351.271 0.518517 0.585375 0
M  V30 3555 H 353.855 1.68294 0.979044 0
M  V30 3556 H 352.026 1.68558 3.49918 0
M  V30 3557 H 353.758 1.92568 3.55949 0
M  V30 3558 H 350.513 3.80469 2.82029 0
M  V30 3559 H 350.937 6.37133 2.28889 0
M  V30 3560 H 355.579 3.47058 2.41477 0
M  V30 3561 H 353.297 7.87931 1.79418 0
M  V30 3562 H 356.883 5.50428 1.88468 0
M  V30 3563 H 355.763 7.68115 1.58017 0
M  V30 3564 N 353.266 -1.05314 1.17247 0
M  V30 3565 C 354.198 -2.13023 0.845812 0
M  V30 3566 C 355.211 -1.62096 -0.151246 0
M  V30 3567 O 356.4 -1.78343 0.0748818 0
M  V30 3568 C 353.5 -3.38047 0.240292 0
M  V30 3569 C 352.673 -4.18255 1.27991 0
M  V30 3570 C 351.732 -5.21625 0.692375 0
M  V30 3571 O 350.758 -5.52619 1.36385 0
M  V30 3572 N 351.96 -5.78201 -0.516178 0
M  V30 3573 H 354.725 -2.41642 1.77283 0
M  V30 3574 H 352.286 -1.21401 1.07115 0
M  V30 3575 H 354.278 -4.04359 -0.16603 0
M  V30 3576 H 352.848 -3.06972 -0.590487 0
M  V30 3577 H 352.068 -3.47451 1.86203 0
M  V30 3578 H 353.356 -4.68643 1.98119 0
M  V30 3579 H 352.754 -5.55301 -1.07969 0
M  V30 3580 H 351.311 -6.4604 -0.86458 0
M  V30 3581 N 354.744 -0.972509 -1.24016 0
M  V30 3582 C 355.991 -0.637034 -1.92219 0
M  V30 3583 C 356.319 0.828418 -1.75976 0
M  V30 3584 O 355.574 1.61206 -1.10955 0
M  V30 3585 C 355.873 -0.963694 -3.44162 0
M  V30 3586 C 355.539 -2.41807 -3.80579 0
M  V30 3587 C 354.201 -2.81556 -3.9023 0
M  V30 3588 C 356.553 -3.36172 -3.98293 0
M  V30 3589 C 353.881 -4.14702 -4.15017 0
M  V30 3590 C 356.233 -4.68952 -4.24578 0
M  V30 3591 C 354.897 -5.08472 -4.32449 0
M  V30 3592 H 354.167 -0.233107 -0.703379 0
M  V30 3593 H 356.814 -1.2249 -1.47202 0
M  V30 3594 H 355.119 -0.29365 -3.90698 0
M  V30 3595 H 356.816 -0.682449 -3.9515 0
M  V30 3596 H 353.406 -2.09988 -3.73635 0
M  V30 3597 H 357.59 -3.06644 -3.90234 0
M  V30 3598 H 352.846 -4.4494 -4.19331 0
M  V30 3599 H 357.02 -5.42037 -4.37229 0
M  V30 3600 H 354.647 -6.11665 -4.51409 0
M  V30 3601 N 356.222 1.38976 -0.743202 0
M  V30 3602 C 357.172 2.27843 -0.084513 0
M  V30 3603 C 358.156 1.44677 0.704094 0
M  V30 3604 O 359.348 1.67511 0.571755 0
M  V30 3605 C 356.477 3.33466 0.815781 0
M  V30 3606 C 355.563 4.24095 0.0208844 0
M  V30 3607 N 355.954 4.95609 -1.0102 0
M  V30 3608 C 354.252 4.45303 0.249293 0
M  V30 3609 C 354.953 5.62287 -1.49024 0
M  V30 3610 N 353.929 5.37571 -0.807377 0
M  V30 3611 H 357.731 2.80593 -0.87436 0
M  V30 3612 H 355.245 1.51755 -0.578283 0
M  V30 3613 H 357.242 3.96008 1.30321 0
M  V30 3614 H 355.902 2.82276 1.6047 0
M  V30 3615 H 356.913 4.98849 -1.39176 0
M  V30 3616 H 353.59 4.0504 1.01237 0
M  V30 3617 H 354.98 6.29519 -2.34853 0
M  V30 3618 N 357.7 0.491464 1.49741 0
M  V30 3619 C 359.111 0.0413169 1.86654 0
M  V30 3620 C 359.462 -1.36985 1.40462 0
M  V30 3621 O 358.587 -2.01917 0.778354 0
M  V30 3622 C 359.182 0.0682023 3.38731 0
M  V30 3623 C 357.741 -0.32656 3.74981 0
M  V30 3624 C 356.888 0.444888 2.73708 0
M  V30 3625 H 359.839 0.704733 1.42194 0
M  V30 3626 H 359.86 -0.729322 3.73445 0
M  V30 3627 H 359.372 1.09539 3.72321 0
M  V30 3628 H 357.473 -1.35734 3.46997 0
M  V30 3629 H 357.586 -0.013741 4.79098 0
M  V30 3630 H 355.95 -0.104062 2.54487 0
M  V30 3631 H 356.733 1.47197 3.10142 0
M  V30 3632 N 359.178 -1.55987 0.224894 0
M  V30 3633 C 360.406 -2.02784 -0.410665 0
M  V30 3634 C 360.821 -1.10464 -1.53112 0
M  V30 3635 O 360.178 -0.114871 -1.82138 0
M  V30 3636 C 360.229 -3.49087 -0.939165 0
M  V30 3637 O 359.95 -4.37887 0.136614 0
M  V30 3638 C 361.451 -4.11543 -1.64763 0
M  V30 3639 H 358.671 -0.663484 -0.100148 0
M  V30 3640 H 361.215 -2.01614 0.342326 0
M  V30 3641 H 359.37 -3.50861 -1.64242 0
M  V30 3642 H 359.784 -5.23849 -0.261155 0
M  V30 3643 H 361.258 -5.15673 -1.96939 0
M  V30 3644 H 361.735 -3.56736 -2.56195 0
M  V30 3645 H 362.341 -4.13629 -0.989503 0
M  V30 3646 N 360.656 0.0484629 -1.57525 0
M  V30 3647 C 361.904 0.741657 -1.88 0
M  V30 3648 C 362.225 1.76918 -0.820054 0
M  V30 3649 O 361.495 1.95335 0.148661 0
M  V30 3650 H 360.075 0.276908 -0.69378 0
M  V30 3651 H 362.737 0.019013 -1.94891 0
M  V30 3652 H 361.833 1.24336 -2.86264 0
M  V30 3653 N 362.134 1.5431 0.320358 0
M  V30 3654 C 363.383 1.7188 1.05546 0
M  V30 3655 C 363.696 0.501143 1.89071 0
M  V30 3656 O 364.902 0.558258 2.65699 0
M  V30 3657 C 363.358 3.04025 1.92605 0
M  V30 3658 C 362.966 4.33207 1.14176 0
M  V30 3659 C 364.71 3.30959 2.65832 0
M  V30 3660 C 362.617 5.56412 2.00399 0
M  V30 3661 H 361.547 0.640547 0.397763 0
M  V30 3662 H 364.198 1.80802 0.313522 0
M  V30 3663 H 362.58 2.89019 2.7071 0
M  V30 3664 H 363.754 4.58989 0.40819 0
M  V30 3665 H 362.069 4.13062 0.526165 0
M  V30 3666 H 364.666 4.20203 3.30656 0
M  V30 3667 H 365.009 2.48979 3.33639 0
M  V30 3668 H 365.542 3.46847 1.94787 0
M  V30 3669 H 362.281 6.41004 1.37094 0
M  V30 3670 H 361.801 5.34844 2.7148 0
M  V30 3671 H 363.48 5.92938 2.58908 0
M  V30 3672 N 363.613 -0.582584 1.46437 0
M  V30 3673 C 364.576 -1.67366 1.56592 0
M  V30 3674 C 365.576 -1.54575 0.443072 0
M  V30 3675 O 366.766 -1.59191 0.707381 0
M  V30 3676 C 363.898 -3.06791 1.48634 0
M  V30 3677 H 365.091 -1.5972 2.5383 0
M  V30 3678 H 362.644 -0.800432 1.34249 0
M  V30 3679 H 363.379 -3.19993 0.526763 0
M  V30 3680 H 363.164 -3.17484 2.30101 0
M  V30 3681 H 364.654 -3.86218 1.58826 0
M  V30 3682 N 365.091 -1.34144 -0.827227 0
M  V30 3683 C 366.339 -1.26009 -1.58007 0
M  V30 3684 C 366.66 0.170971 -1.94249 0
M  V30 3685 O 365.93 1.10256 -1.61927 0
M  V30 3686 H 364.51 -0.463414 -0.585881 0
M  V30 3687 H 367.172 -1.68005 -0.987951 0
M  V30 3688 H 366.268 -1.86187 -2.50481 0
M  V30 3689 N 366.569 1.04691 -1.17803 0
M  V30 3690 C 367.532 2.10724 -0.901545 0
M  V30 3691 C 368.532 1.6042 0.110437 0
M  V30 3692 O 369.722 1.7377 -0.122303 0
M  V30 3693 C 366.854 3.39084 -0.351409 0
M  V30 3694 H 368.047 2.36686 -1.84174 0
M  V30 3695 H 365.6 1.21015 -0.98919 0
M  V30 3696 H 366.335 3.18782 0.59569 0
M  V30 3697 H 366.12 3.76909 -1.08083 0
M  V30 3698 H 367.61 4.17227 -0.176451 0
M  V30 3699 N 368.047 0.979072 1.23499 0
M  V30 3700 C 369.295 0.645941 1.91499 0
M  V30 3701 C 369.616 -0.822948 1.76784 0
M  V30 3702 O 368.886 -1.58854 1.14639 0
M  V30 3703 H 367.466 0.235919 0.708767 0
M  V30 3704 H 370.128 1.2426 1.50152 0
M  V30 3705 H 369.224 0.896411 2.9895 0
M  V30 3706 N 369.525 -1.3858 0.750561 0
M  V30 3707 C 370.771 -2.00481 0.305825 0
M  V30 3708 C 371.104 -1.5944 -1.10872 0
M  V30 3709 O 370.379 -0.83052 -1.75877 0
M  V30 3710 C 370.662 -3.5758 0.425287 0
M  V30 3711 C 370.515 -4.08594 1.88072 0
M  V30 3712 C 371.834 -4.39719 -0.183122 0
M  V30 3713 H 368.953 -0.728348 0.112598 0
M  V30 3714 H 371.595 -1.64566 0.949638 0
M  V30 3715 H 369.745 -3.88306 -0.122828 0
M  V30 3716 H 371.417 -3.88523 2.48691 0
M  V30 3717 H 369.66 -3.61574 2.39681 0
M  V30 3718 H 370.331 -5.177 1.91548 0
M  V30 3719 H 372.807 -4.15128 0.284303 0
M  V30 3720 H 371.683 -5.48856 -0.0692757 0
M  V30 3721 H 371.944 -4.23434 -1.27106 0
M  V30 3722 N 371.003 -0.499398 -1.49478 0
M  V30 3723 C 371.933 0.269244 -2.31943 0
M  V30 3724 C 372.914 0.964054 -1.40143 0
M  V30 3725 O 374.099 0.955767 -1.69052 0
M  V30 3726 C 371.229 1.33504 -3.20615 0
M  V30 3727 C 370.183 0.760202 -4.21195 0
M  V30 3728 C 369.509 1.9264 -4.98792 0
M  V30 3729 C 370.809 -0.247661 -5.21712 0
M  V30 3730 H 372.503 -0.419082 -2.96452 0
M  V30 3731 H 370.049 -0.202988 -1.42562 0
M  V30 3732 H 372.002 1.88048 -3.77115 0
M  V30 3733 H 370.726 2.05253 -2.54045 0
M  V30 3734 H 369.385 0.23653 -3.65836 0
M  V30 3735 H 369.033 2.63154 -4.28671 0
M  V30 3736 H 368.733 1.54785 -5.66847 0
M  V30 3737 H 370.257 2.4762 -5.58137 0
M  V30 3738 H 371.671 0.209579 -5.72917 0
M  V30 3739 H 370.068 -0.541962 -5.97648 0
M  V30 3740 H 371.138 -1.16409 -4.7072 0
M  V30 3741 N 372.481 1.55866 -0.233164 0
M  V30 3742 C 373.727 1.98897 0.395959 0
M  V30 3743 C 374.06 1.12091 1.58585 0
M  V30 3744 O 373.335 0.181182 1.93654 0
M  V30 3745 C 373.618 3.50658 0.819224 0
M  V30 3746 C 373.471 4.48233 -0.375109 0
M  V30 3747 C 374.79 4.07135 1.67121 0
M  V30 3748 H 371.909 0.723102 0.142451 0
M  V30 3749 H 374.551 1.87082 -0.331725 0
M  V30 3750 H 372.701 3.60857 1.43925 0
M  V30 3751 H 374.373 4.50031 -1.01341 0
M  V30 3752 H 372.616 4.21624 -1.02058 0
M  V30 3753 H 373.287 5.51988 -0.0358328 0
M  V30 3754 H 375.763 3.99952 1.14795 0
M  V30 3755 H 374.639 5.13615 1.93625 0
M  V30 3756 H 374.9 3.54736 2.63846 0
M  V30 3757 N 373.959 -0.0401083 1.57549 0
M  V30 3758 C 375.187 -0.745196 1.93014 0
M  V30 3759 C 375.602 -1.6948 0.831984 0
M  V30 3760 O 374.959 -1.81482 -0.192463 0
M  V30 3761 C 375.01 -1.51176 3.28372 0
M  V30 3762 O 374.731 -0.600284 4.33968 0
M  V30 3763 C 376.232 -2.315 3.78051 0
M  V30 3764 H 373.452 -0.210088 0.637263 0
M  V30 3765 H 375.996 -0.000924689 2.045 0
M  V30 3766 H 374.151 -2.20801 3.18317 0
M  V30 3767 H 374.565 -1.13669 5.12035 0
M  V30 3768 H 376.039 -2.80697 4.75303 0
M  V30 3769 H 376.516 -3.12436 3.08675 0
M  V30 3770 H 377.122 -1.66971 3.91153 0
M  V30 3771 N 375.437 -1.54477 -0.31217 0
M  V30 3772 C 376.347 -1.87695 -1.4074 0
M  V30 3773 C 377.363 -0.769975 -1.56036 0
M  V30 3774 O 378.539 -1.06537 -1.70915 0
M  V30 3775 C 375.604 -2.10755 -2.75287 0
M  V30 3776 C 374.665 -3.34514 -2.69071 0
M  V30 3777 C 373.898 -3.56465 -3.97201 0
M  V30 3778 O 374.121 -2.81637 -4.96021 0
M  V30 3779 O 373.055 -4.49964 -3.9977 0
M  V30 3780 H 376.881 -2.80849 -1.15574 0
M  V30 3781 H 374.466 -1.40526 -0.507228 0
M  V30 3782 H 376.348 -2.27188 -3.54913 0
M  V30 3783 H 375.023 -1.20788 -3.0032 0
M  V30 3784 H 373.93 -3.23456 -1.87955 0
M  V30 3785 H 375.263 -4.24575 -2.48992 0
M  V30 3786 N 376.915 0.57481 -1.46744 0
M  V30 3787 C 378.163 1.33009 -1.52161 0
M  V30 3788 C 378.484 1.94185 -0.178092 0
M  V30 3789 O 377.754 1.7899 0.796196 0
M  V30 3790 H 376.334 0.493873 -0.560445 0
M  V30 3791 H 378.996 0.672589 -1.82927 0
M  V30 3792 H 378.092 2.13273 -2.27862 0
M  V30 3793 N 378.394 1.34581 0.820102 0
M  V30 3794 C 379.634 1.28448 1.58998 0
M  V30 3795 C 379.998 -0.142883 1.91468 0
M  V30 3796 O 381.199 -0.328422 2.66786 0
M  V30 3797 C 379.47 2.153 2.85273 0
M  V30 3798 S 381.029 2.26548 3.75794 0
M  V30 3799 H 377.847 0.456685 0.54494 0
M  V30 3800 H 380.449 1.69825 0.968487 0
M  V30 3801 H 379.153 3.18008 2.59421 0
M  V30 3802 H 378.684 1.7483 3.52417 0
M  V30 3803 H 380.699 1.44034 4.74835 0
M  V30 3804 N 379.872 -1.04064 1.18357 0
M  V30 3805 C 381.288 -1.2947 0.933258 0
M  V30 3806 C 381.488 -1.97466 -0.401169 0
M  V30 3807 O 380.544 -2.25528 -1.13549 0
M  V30 3808 C 381.857 -2.15337 2.09882 0
M  V30 3809 C 383.405 -2.28683 2.13712 0
M  V30 3810 C 383.88 -3.17917 3.29686 0
M  V30 3811 N 385.371 -3.25504 3.29547 0
M  V30 3812 C 386.106 -3.94706 4.15926 0
M  V30 3813 N 385.602 -4.66239 5.12439 0
M  V30 3814 N 387.395 -3.90986 4.0384 0
M  V30 3815 H 379.546 -0.583359 2.04232 0
M  V30 3816 H 381.809 -0.319921 0.892387 0
M  V30 3817 H 381.515 -1.72682 3.06389 0
M  V30 3818 H 381.389 -3.16015 2.05947 0
M  V30 3819 H 383.776 -2.70575 1.17784 0
M  V30 3820 H 383.857 -1.27596 2.21705 0
M  V30 3821 H 383.501 -2.76736 4.25887 0
M  V30 3822 H 383.431 -4.19036 3.1893 0
M  V30 3823 H 385.922 -2.74547 2.59677 0
M  V30 3824 H 386.235 -5.16638 5.74722 0
M  V30 3825 H 384.58 -4.65143 5.16398 0
M  V30 3826 H 387.771 -3.34234 3.27727 0
M  V30 3827 H 387.944 -4.44646 4.71375 0
M  V30 3828 N 381.35 -0.985608 -1.22978 0
M  V30 3829 C 382.598 -0.656087 -1.91154 0
M  V30 3830 C 382.919 0.813561 -1.77218 0
M  V30 3831 O 382.189 1.58244 -1.1548 0
M  V30 3832 H 380.769 -0.239674 -0.707506 0
M  V30 3833 H 383.431 -1.25054 -1.49491 0
M  V30 3834 H 382.527 -0.912253 -2.9847 0
M  V30 3835 N 382.828 1.3818 -0.7579 0
M  V30 3836 C 383.738 2.3421 -0.135247 0
M  V30 3837 C 384.754 1.59487 0.695683 0
M  V30 3838 O 385.93 1.91657 0.618832 0
M  V30 3839 C 382.995 3.3862 0.744139 0
M  V30 3840 C 382.056 4.2918 -0.101658 0
M  V30 3841 C 381.289 5.28603 0.735851 0
M  V30 3842 O 381.512 5.35166 1.97366 0
M  V30 3843 O 380.446 6.01707 0.152372 0
M  V30 3844 H 384.272 2.8916 -0.928436 0
M  V30 3845 H 381.857 1.40101 -0.518855 0
M  V30 3846 H 383.739 4.02539 1.2466 0
M  V30 3847 H 382.414 2.86019 1.51575 0
M  V30 3848 H 381.321 3.68407 -0.650167 0
M  V30 3849 H 382.654 4.85048 -0.836024 0
M  V30 3850 N 384.306 0.507319 1.49211 0
M  V30 3851 C 385.554 -0.0348839 2.0207 0
M  V30 3852 C 385.875 -1.36898 1.38866 0
M  V30 3853 O 385.145 -1.88133 0.546151 0
M  V30 3854 H 383.725 -0.0158812 0.746831 0
M  V30 3855 H 386.387 0.665998 1.83168 0
M  V30 3856 H 385.483 -0.159917 3.1169 0
M  V30 3857 N 385.784 -1.5574 0.241426 0
M  V30 3858 C 387.032 -1.98417 -0.384075 0
M  V30 3859 C 387.353 -1.13078 -1.58866 0
M  V30 3860 O 386.623 -0.212312 -1.94746 0
M  V30 3861 H 385.203 -0.732813 -0.144894 0
M  V30 3862 H 387.865 -1.9193 0.338943 0
M  V30 3863 H 386.961 -3.04219 -0.696939 0
M  V30 3864 N 387.262 0.0317525 -1.57568 0
M  V30 3865 C 388.492 0.733884 -1.93126 0
M  V30 3866 C 388.9 1.69563 -0.839352 0
M  V30 3867 O 388.243 1.82681 0.193175 0
M  V30 3868 C 388.305 1.54798 -3.24465 0
M  V30 3869 C 387.969 0.751304 -4.50782 0
M  V30 3870 C 388.966 0.0527632 -5.19873 0
M  V30 3871 C 386.651 0.706639 -4.97305 0
M  V30 3872 C 388.645 -0.679774 -6.33765 0
M  V30 3873 C 386.332 -0.0296449 -6.11093 0
M  V30 3874 C 387.33 -0.721614 -6.79177 0
M  V30 3875 O 387.018 -1.44595 -7.90789 0
M  V30 3876 H 386.75 0.211459 -0.642076 0
M  V30 3877 H 389.304 -0.00585615 -2.05399 0
M  V30 3878 H 387.534 2.33147 -3.08512 0
M  V30 3879 H 389.223 2.13247 -3.4537 0
M  V30 3880 H 389.989 0.0783188 -4.84937 0
M  V30 3881 H 385.868 1.23474 -4.44157 0
M  V30 3882 H 389.412 -1.22042 -6.86842 0
M  V30 3883 H 385.309 -0.0571331 -6.45475 0
M  V30 3884 H 386.077 -1.35935 -8.07133 0
M  V30 3885 N 388.74 1.54641 0.303973 0
M  V30 3886 C 389.67 1.88386 1.3796 0
M  V30 3887 C 390.651 0.742485 1.5304 0
M  V30 3888 O 391.836 0.997959 1.66597 0
M  V30 3889 C 388.966 2.12854 2.74427 0
M  V30 3890 C 387.92 3.28702 2.74115 0
M  V30 3891 C 387.246 3.38582 4.13844 0
M  V30 3892 C 388.546 4.65881 2.3612 0
M  V30 3893 H 390.24 2.78474 1.09966 0
M  V30 3894 H 387.786 1.33988 0.527556 0
M  V30 3895 H 389.739 2.35047 3.49758 0
M  V30 3896 H 388.463 1.19535 3.03939 0
M  V30 3897 H 387.122 3.06428 2.0124 0
M  V30 3898 H 386.77 2.42784 4.40528 0
M  V30 3899 H 386.47 4.16453 4.14537 0
M  V30 3900 H 387.994 3.63031 4.90959 0
M  V30 3901 H 389.408 4.87823 3.01167 0
M  V30 3902 H 387.805 5.46444 2.48031 0
M  V30 3903 H 388.875 4.66799 1.3125 0
M  V30 3904 N 390.218 -0.567019 1.47046 0
M  V30 3905 C 391.148 -1.68482 1.61667 0
M  V30 3906 C 392.129 -1.6358 0.466418 0
M  V30 3907 O 393.314 -1.81354 0.694574 0
M  V30 3908 C 390.444 -3.07124 1.62148 0
M  V30 3909 C 389.398 -3.26867 2.76301 0
M  V30 3910 C 388.724 -4.66196 2.61849 0
M  V30 3911 C 390.024 -3.13186 4.17986 0
M  V30 3912 H 391.718 -1.56502 2.5524 0
M  V30 3913 H 389.264 -0.751486 1.22836 0
M  V30 3914 H 391.217 -3.8516 1.70968 0
M  V30 3915 H 389.941 -3.2004 0.651287 0
M  V30 3916 H 388.6 -2.51237 2.66975 0
M  V30 3917 H 388.248 -4.75898 1.62879 0
M  V30 3918 H 387.948 -4.80356 3.38425 0
M  V30 3919 H 389.472 -5.46379 2.72584 0
M  V30 3920 H 390.886 -3.81049 4.2834 0
M  V30 3921 H 389.283 -3.3886 4.95272 0
M  V30 3922 H 390.353 -2.10057 4.3704 0
M  V30 3923 N 391.696 -1.35014 -0.812953 0
M  V30 3924 C 392.644 -1.27435 -1.94585 0
M  V30 3925 C 393.638 -0.170494 -1.6854 0
M  V30 3926 O 394.844 -0.336085 -1.76835 0
M  V30 3927 H 391.219 -0.396144 -0.639198 0
M  V30 3928 H 393.19 -2.23158 -1.98098 0
M  V30 3929 C 391.939 -1.05677 -3.31252 0
M  V30 3930 H 391.262 -1.89853 -3.51846 0
M  V30 3931 H 392.702 -1.04413 -4.10943 0
M  V30 3932 C 391.161 0.239615 -3.36047 0
M  V30 3933 O 391.691 1.23759 -3.8216 0
M  V30 3934 N 389.897 0.276186 -2.89285 0
M  V30 3935 H 389.444 -0.53653 -2.51951 0
M  V30 3936 H 389.402 1.14332 -2.92875 0
M  V30 3937 N 393.175 1.03435 -1.18907 0
M  V30 3938 C 394.122 2.11591 -0.921837 0
M  V30 3939 C 395.092 1.65499 0.141226 0
M  V30 3940 O 396.277 1.908 0.000242829 0
M  V30 3941 C 393.417 3.42012 -0.460616 0
M  V30 3942 C 392.53 4.01682 -1.58982 0
M  V30 3943 C 391.665 5.20091 -1.08069 0
M  V30 3944 C 390.704 5.71805 -2.18416 0
M  V30 3945 N 389.841 6.81494 -1.68849 0
M  V30 3946 H 394.681 2.33787 -1.8479 0
M  V30 3947 H 392.218 1.1467 -0.921373 0
M  V30 3948 H 394.176 4.16834 -0.174642 0
M  V30 3949 H 392.806 3.19944 0.428467 0
M  V30 3950 H 391.858 3.24127 -1.99113 0
M  V30 3951 H 393.17 4.36084 -2.4214 0
M  V30 3952 H 392.324 6.02051 -0.749615 0
M  V30 3953 H 391.063 4.87209 -0.218771 0
M  V30 3954 H 390.068 4.88461 -2.5236 0
M  V30 3955 H 391.293 6.06728 -3.05054 0
M  V30 3956 H 389.239 6.50475 -0.849572 0
M  V30 3957 H 389.156 7.14994 -2.45601 0
M  V30 3958 H 390.424 7.67063 -1.38689 0
M  V30 3959 N 394.653 0.992116 1.22453 0
M  V30 3960 C 395.603 0.512969 2.22155 0
M  V30 3961 C 396.587 -0.418416 1.55364 0
M  V30 3962 O 397.779 -0.245363 1.75291 0
M  V30 3963 C 394.908 -0.171822 3.4287 0
M  V30 3964 C 393.994 0.779822 4.16869 0
M  V30 3965 N 394.385 1.92734 4.6764 0
M  V30 3966 C 392.683 0.59554 4.42006 0
M  V30 3967 C 393.384 2.52458 5.24061 0
M  V30 3968 N 392.36 1.80735 5.12675 0
M  V30 3969 H 396.162 1.38817 2.5905 0
M  V30 3970 H 393.676 0.854277 1.38115 0
M  V30 3971 H 395.673 -0.532469 4.13486 0
M  V30 3972 H 394.333 -1.04317 3.07487 0
M  V30 3973 H 395.344 2.30816 4.63621 0
M  V30 3974 H 392.021 -0.229805 4.16867 0
M  V30 3975 H 393.411 3.49433 5.73887 0
M  V30 3976 N 396.131 -1.37776 0.765217 0
M  V30 3977 C 397.379 -1.99454 0.325943 0
M  V30 3978 C 397.7 -1.61049 -1.09947 0
M  V30 3979 O 396.97 -0.872821 -1.75381 0
M  V30 3980 H 395.55 -0.737697 0.117525 0
M  V30 3981 H 398.212 -1.68359 0.981895 0
M  V30 3982 H 397.308 -3.09547 0.398353 0
M  V30 3983 N 397.609 -0.515225 -1.4894 0
M  V30 3984 C 398.519 0.259774 -2.33157 0
M  V30 3985 C 399.535 0.953501 -1.45548 0
M  V30 3986 O 400.711 0.931735 -1.78552 0
M  V30 3987 C 397.776 1.30193 -3.21326 0
M  V30 3988 C 396.837 0.620129 -4.24797 0
M  V30 3989 C 396.07 1.61263 -5.08753 0
M  V30 3990 O 396.293 2.84389 -4.94448 0
M  V30 3991 O 395.227 1.16013 -5.90614 0
M  V30 3992 H 399.053 -0.429932 -3.00641 0
M  V30 3993 H 396.638 -0.276346 -1.46822 0
M  V30 3994 H 398.52 1.90455 -3.75905 0
M  V30 3995 H 397.195 1.97431 -2.56521 0
M  V30 3996 H 396.102 -0.0226019 -3.74093 0
M  V30 3997 H 397.435 -0.0100493 -4.92199 0
M  V30 3998 N 399.087 1.5561 -0.249682 0
M  V30 3999 C 400.503 1.59254 0.105103 0
M  V30 4000 C 400.703 1.26685 1.56694 0
M  V30 4001 O 399.759 1.0155 2.31179 0
M  V30 4002 C 401.072 2.99687 -0.246592 0
M  V30 4003 C 402.62 3.12416 -0.191118 0
M  V30 4004 C 403.095 4.55074 -0.516885 0
M  V30 4005 N 404.586 4.60835 -0.467489 0
M  V30 4006 C 405.321 5.69201 -0.69268 0
M  V30 4007 N 404.817 6.85817 -0.981146 0
M  V30 4008 N 406.61 5.58635 -0.623198 0
M  V30 4009 H 398.761 1.75049 -1.20298 0
M  V30 4010 H 401.024 0.815003 -0.484225 0
M  V30 4011 H 400.73 3.28267 -1.26228 0
M  V30 4012 H 400.604 3.74798 0.424962 0
M  V30 4013 H 402.991 2.83615 0.815247 0
M  V30 4014 H 403.072 2.39573 -0.896563 0
M  V30 4015 H 402.716 4.84596 -1.52082 0
M  V30 4016 H 402.646 5.26181 0.210068 0
M  V30 4017 H 405.137 3.7705 -0.253373 0
M  V30 4018 H 405.45 7.64341 -1.14032 0
M  V30 4019 H 403.795 6.87494 -1.01865 0
M  V30 4020 H 406.986 4.66406 -0.397863 0
M  V30 4021 H 407.159 6.43017 -0.802093 0
M  V30 4022 N 400.565 -0.0233959 1.57583 0
M  V30 4023 C 401.812 -0.713063 1.8953 0
M  V30 4024 C 402.14 -1.75056 0.847673 0
M  V30 4025 O 401.395 -1.95119 -0.150636 0
M  V30 4026 C 401.694 -1.41428 3.28227 0
M  V30 4027 C 401.36 -0.512222 4.47981 0
M  V30 4028 C 400.022 -0.263785 4.80476 0
M  V30 4029 C 402.374 0.110248 5.21083 0
M  V30 4030 C 399.702 0.615804 5.83459 0
M  V30 4031 C 402.054 0.977573 6.25001 0
M  V30 4032 C 400.718 1.23542 6.55968 0
M  V30 4033 H 399.988 -0.260928 0.69354 0
M  V30 4034 H 402.635 0.0271047 1.91481 0
M  V30 4035 H 400.94 -2.22791 3.22291 0
M  V30 4036 H 402.637 -1.95355 3.50196 0
M  V30 4037 H 399.227 -0.716013 4.22577 0
M  V30 4038 H 403.411 -0.0687137 4.96252 0
M  V30 4039 H 398.667 0.82382 6.05824 0
M  V30 4040 H 402.841 1.46638 6.80786 0
M  V30 4041 H 400.468 1.91871 7.35588 0
M  V30 4042 N 402.043 -1.548 -0.295768 0
M  V30 4043 C 402.976 -1.81003 -1.38972 0
M  V30 4044 C 403.954 -0.661544 -1.48534 0
M  V30 4045 O 405.138 -0.902074 -1.65514 0
M  V30 4046 C 402.265 -1.95141 -2.76835 0
M  V30 4047 C 401.311 -3.17592 -2.84671 0
M  V30 4048 S 402.144 -4.75531 -2.46232 0
M  V30 4049 C 403.3 -4.92613 -3.86114 0
M  V30 4050 H 403.533 -2.73507 -1.16537 0
M  V30 4051 H 401.066 -1.46278 -0.494168 0
M  V30 4052 H 403.024 -2.03972 -3.56238 0
M  V30 4053 H 401.685 -1.03565 -2.96535 0
M  V30 4054 H 400.878 -3.24303 -3.85803 0
M  V30 4055 H 400.48 -3.07235 -2.13267 0
M  V30 4056 H 402.772 -4.76957 -4.81164 0
M  V30 4057 H 403.715 -5.94698 -3.8437 0
M  V30 4058 H 404.123 -4.2073 -3.76359 0
M  V30 4059 N 403.521 0.559213 -1.47345 0
M  V30 4060 C 404.431 1.69388 -1.62311 0
M  V30 4061 C 405.447 1.6648 -0.505993 0
M  V30 4062 O 406.623 1.85964 -0.773262 0
M  V30 4063 C 403.688 3.05894 -1.63185 0
M  V30 4064 C 402.749 3.19885 -2.86307 0
M  V30 4065 C 401.982 4.49879 -2.87131 0
M  V30 4066 O 402.205 5.35217 -1.97229 0
M  V30 4067 O 401.139 4.67618 -3.78968 0
M  V30 4068 H 404.965 1.59706 -2.58317 0
M  V30 4069 H 402.55 0.728989 -1.30407 0
M  V30 4070 H 404.432 3.87133 -1.66451 0
M  V30 4071 H 403.107 3.15964 -0.70345 0
M  V30 4072 H 402.014 2.38052 -2.88587 0
M  V30 4073 H 403.347 3.14718 -3.78435 0
M  V30 4074 N 404.999 1.35443 0.805782 0
M  V30 4075 C 406.415 1.15499 1.10146 0
M  V30 4076 C 406.615 -0.0319975 2.01475 0
M  V30 4077 O 405.671 -0.70236 2.42535 0
M  V30 4078 C 406.984 2.45833 1.73166 0
M  V30 4079 C 408.532 2.52047 1.85583 0
M  V30 4080 C 409.007 3.82427 2.52019 0
M  V30 4081 N 410.498 3.83682 2.59504 0
M  V30 4082 C 411.233 4.81294 3.11679 0
M  V30 4083 N 410.729 5.89294 3.64287 0
M  V30 4084 N 412.522 4.6873 3.1024 0
M  V30 4085 H 404.673 2.11469 0.198678 0
M  V30 4086 H 406.936 0.93594 0.150731 0
M  V30 4087 H 406.642 3.32874 1.13526 0
M  V30 4088 H 406.516 2.6044 2.72857 0
M  V30 4089 H 408.903 1.65435 2.44367 0
M  V30 4090 H 408.984 2.41354 0.847455 0
M  V30 4091 H 408.628 4.69437 1.93885 0
M  V30 4092 H 408.558 3.90409 3.53395 0
M  V30 4093 H 411.049 3.05648 2.22234 0
M  V30 4094 H 411.362 6.59768 4.02401 0
M  V30 4095 H 409.707 5.92985 3.62483 0
M  V30 4096 H 412.898 3.83496 2.68419 0
M  V30 4097 H 413.071 5.44965 3.50596 0
M  V30 4098 N 406.477 -1.02803 1.19454 0
M  V30 4099 C 407.707 -1.79581 1.02149 0
M  V30 4100 C 408.115 -1.84182 -0.432851 0
M  V30 4101 O 407.458 -1.28534 -1.31243 0
M  V30 4102 C 407.52 -3.25993 1.51554 0
M  V30 4103 C 407.184 -3.45025 2.99678 0
M  V30 4104 C 408.181 -3.35175 3.97434 0
M  V30 4105 C 405.866 -3.71212 3.38389 0
M  V30 4106 C 407.86 -3.51238 5.31893 0
M  V30 4107 C 405.547 -3.8692 4.73008 0
M  V30 4108 C 406.545 -3.76936 5.69569 0
M  V30 4109 O 406.233 -3.92179 7.01748 0
M  V30 4110 H 405.965 -0.571962 0.360327 0
M  V30 4111 H 408.519 -1.30367 1.58725 0
M  V30 4112 H 406.749 -3.76235 0.893543 0
M  V30 4113 H 408.438 -3.84368 1.30444 0
M  V30 4114 H 409.204 -3.14895 3.68872 0
M  V30 4115 H 405.083 -3.78075 2.6378 0
M  V30 4116 H 408.627 -3.43362 6.07247 0
M  V30 4117 H 404.524 -4.06699 5.01265 0
M  V30 4118 H 405.292 -4.09265 7.08833 0
M  V30 4119 N 407.956 -0.998596 -1.21925 0
M  V30 4120 C 408.919 -0.558679 -2.22287 0
M  V30 4121 C 409.919 0.361525 -1.56683 0
M  V30 4122 O 411.109 0.152695 -1.73529 0
M  V30 4123 C 408.241 0.18661 -3.40389 0
M  V30 4124 H 409.434 -1.4463 -2.62721 0
M  V30 4125 H 406.987 -0.786413 -1.35075 0
M  V30 4126 H 407.722 1.08996 -3.05435 0
M  V30 4127 H 407.507 -0.474188 -3.89222 0
M  V30 4128 H 408.997 0.482367 -4.14805 0
M  V30 4129 N 409.434 1.37368 -0.772513 0
M  V30 4130 C 410.845 1.8231 -0.402493 0
M  V30 4131 C 411.196 1.6436 1.07146 0
M  V30 4132 O 410.321 1.15514 1.82991 0
M  V30 4133 C 410.916 3.30979 -0.723776 0
M  V30 4134 C 409.475 3.74195 -0.406802 0
M  V30 4135 C 408.622 2.59885 -0.967218 0
M  V30 4136 H 411.573 1.25829 -0.967099 0
M  V30 4137 H 411.594 3.80499 -0.00870832 0
M  V30 4138 H 411.106 3.44011 -1.7966 0
M  V30 4139 H 409.207 3.66732 0.658673 0
M  V30 4140 H 409.32 4.7027 -0.915588 0
M  V30 4141 H 407.684 2.51674 -0.391416 0
M  V30 4142 H 408.467 2.7571 -2.04546 0
M  V30 4143 N 410.912 0.523116 1.48665 0
M  V30 4144 C 411.86 -0.256859 2.31177 0
M  V30 4145 C 412.854 -0.94199 1.40794 0
M  V30 4146 O 414.06 -0.867157 1.57735 0
M  V30 4147 H 410.435 -0.1017 0.745091 0
M  V30 4148 H 412.406 0.458739 2.94853 0
M  V30 4149 C 411.155 -1.29503 3.22683 0
M  V30 4150 H 410.478 -0.777248 3.92172 0
M  V30 4151 H 411.918 -1.81233 3.83315 0
M  V30 4152 C 410.377 -2.32501 2.43813 0
M  V30 4153 O 410.907 -3.3881 2.15803 0
M  V30 4154 N 409.113 -2.05538 2.05432 0
M  V30 4155 H 408.66 -1.19104 2.28412 0
M  V30 4156 H 408.618 -2.74676 1.52973 0
M  V30 4157 N 412.39 -1.55475 0.257931 0
M  V30 4158 C 413.353 -2.20551 -0.623706 0
M  V30 4159 C 414.353 -1.17809 -1.09443 0
M  V30 4160 O 415.543 -1.42823 -0.997362 0
M  V30 4161 C 412.675 -2.85784 -1.8585 0
M  V30 4162 H 413.868 -2.99848 -0.0557743 0
M  V30 4163 H 411.421 -1.56298 0.0084422 0
M  V30 4164 H 412.156 -2.10453 -2.46739 0
M  V30 4165 H 411.941 -3.61057 -1.52907 0
M  V30 4166 H 413.431 -3.35553 -2.48584 0
M  V30 4167 N 413.868 0.0150385 -1.57593 0
M  V30 4168 C 414.815 1.01126 -2.07466 0
M  V30 4169 C 415.785 1.35064 -0.966794 0
M  V30 4170 O 416.97 1.4516 -1.23827 0
M  V30 4171 C 414.11 2.30276 -2.57035 0
M  V30 4172 C 413.223 2.02373 -3.81666 0
M  V30 4173 C 412.358 3.25496 -4.19793 0
M  V30 4174 C 411.397 2.93211 -5.37303 0
M  V30 4175 N 410.534 4.08826 -5.70794 0
M  V30 4176 H 415.374 0.57901 -2.92321 0
M  V30 4177 H 412.911 0.27426 -1.44521 0
M  V30 4178 H 414.869 3.05757 -2.83846 0
M  V30 4179 H 413.499 2.71197 -1.75077 0
M  V30 4180 H 412.551 1.17327 -3.61854 0
M  V30 4181 H 413.863 1.74567 -4.67256 0
M  V30 4182 H 413.017 4.09333 -4.47807 0
M  V30 4183 H 411.756 3.56428 -3.32882 0
M  V30 4184 H 410.761 2.07777 -5.09027 0
M  V30 4185 H 411.986 2.63542 -6.25877 0
M  V30 4186 H 409.932 4.39682 -4.86842 0
M  V30 4187 H 409.849 3.84491 -6.50924 0
M  V30 4188 H 411.117 4.93496 -6.03392 0
M  V30 4189 N 415.346 1.54954 0.287554 0
M  V30 4190 C 416.623 1.65569 1.04146 0
M  V30 4191 C 417.003 0.512672 2.0478 0
M  V30 4192 O 416.351 -0.489038 2.23205 0
M  V30 4193 C 416.561 3.04163 1.71131 0
M  V30 4194 C 417.909 3.61429 2.22832 0
M  V30 4195 O 418.933 3.06702 1.81141 0
M  V30 4196 O 417.792 4.57281 2.9926 0
M  V30 4197 H 414.886 0.671881 0.482188 0
M  V30 4198 H 417.432 1.67297 0.28457 0
M  V30 4199 H 416.204 3.78796 0.981303 0
M  V30 4200 H 415.827 3.06271 2.53543 0
M  V30 4201 N 416.824 -0.551391 1.4764 0
M  V30 4202 C 417.754 -1.66757 1.63445 0
M  V30 4203 C 418.735 -1.63077 0.483742 0
M  V30 4204 O 419.92 -1.80607 0.71377 0
M  V30 4205 C 417.05 -3.05387 1.65396 0
M  V30 4206 C 416.004 -3.23918 2.79752 0
M  V30 4207 C 415.33 -4.63393 2.66779 0
M  V30 4208 C 416.63 -3.08735 4.21284 0
M  V30 4209 H 418.324 -1.53786 2.56886 0
M  V30 4210 H 415.87 -0.738415 1.23626 0
M  V30 4211 H 417.823 -3.83325 1.75043 0
M  V30 4212 H 416.547 -3.19332 0.685195 0
M  V30 4213 H 415.206 -2.48391 2.69625 0
M  V30 4214 H 414.854 -4.74144 1.67918 0
M  V30 4215 H 414.554 -4.7674 3.43501 0
M  V30 4216 H 416.078 -5.43458 2.78364 0
M  V30 4217 H 417.492 -3.76484 4.32357 0
M  V30 4218 H 415.889 -3.33588 4.98838 0
M  V30 4219 H 416.959 -2.0541 4.39243 0
M  V30 4220 N 418.302 -1.35869 -0.798587 0
M  V30 4221 C 419.265 -1.29307 -1.89242 0
M  V30 4222 C 420.265 -0.202747 -1.59517 0
M  V30 4223 O 421.455 -0.456957 -1.681 0
M  V30 4224 C 418.587 -1.00229 -3.25833 0
M  V30 4225 H 419.78 -2.26576 -1.96478 0
M  V30 4226 H 417.333 -1.20509 -0.995358 0
M  V30 4227 H 418.068 -0.033801 -3.24282 0
M  V30 4228 H 417.853 -1.79121 -3.48795 0
M  V30 4229 H 419.343 -0.98219 -4.05885 0
M  V30 4230 N 419.78 1.02168 -1.19998 0
M  V30 4231 C 421.028 1.75338 -1.00504 0
M  V30 4232 C 421.349 1.89387 0.464506 0
M  V30 4233 O 420.619 1.43268 1.33608 0
M  V30 4234 H 419.199 0.649564 -0.368885 0
M  V30 4235 H 421.861 1.23205 -1.51018 0
M  V30 4236 H 420.957 2.75892 -1.45912 0
M  V30 4237 N 421.258 1.00505 1.21394 0
M  V30 4238 C 422.674 0.717873 1.42544 0
M  V30 4239 C 422.874 -0.706936 1.88692 0
M  V30 4240 O 421.93 -1.47627 2.04847 0
M  V30 4241 C 423.243 1.73377 2.45684 0
M  V30 4242 C 424.791 1.75059 2.59467 0
M  V30 4243 C 425.266 2.75545 3.6584 0
M  V30 4244 N 426.757 2.74213 3.73311 0
M  V30 4245 C 427.492 3.48626 4.55245 0
M  V30 4246 N 426.988 4.32678 5.41075 0
M  V30 4247 N 428.781 3.37276 4.49668 0
M  V30 4248 H 420.932 1.92506 0.897503 0
M  V30 4249 H 423.195 0.830919 0.456375 0
M  V30 4250 H 422.901 2.75395 2.18748 0
M  V30 4251 H 422.775 1.53647 3.44489 0
M  V30 4252 H 425.162 0.737337 2.8574 0
M  V30 4253 H 425.243 1.98861 1.60897 0
M  V30 4254 H 424.887 3.77028 3.40313 0
M  V30 4255 H 424.817 2.49009 4.64007 0
M  V30 4256 H 427.308 2.13234 3.11993 0
M  V30 4257 H 427.621 4.86253 6.00648 0
M  V30 4258 H 425.966 4.3676 5.40616 0
M  V30 4259 H 429.157 2.71043 3.81646 0
M  V30 4260 H 429.33 3.95524 5.13288 0
M  V30 4261 N 422.737 -1.36956 0.779787 0
M  V30 4262 C 424.014 -1.93697 0.272156 0
M  V30 4263 C 424.394 -1.71267 -1.23413 0
M  V30 4264 O 423.742 -1.06607 -2.02107 0
M  V30 4265 C 423.952 -3.42812 0.654291 0
M  V30 4266 C 425.3 -4.19921 0.628602 0
M  V30 4267 O 426.324 -3.51209 0.594172 0
M  V30 4268 O 425.183 -5.42465 0.662864 0
M  V30 4269 H 422.277 -0.824447 0.0649286 0
M  V30 4270 H 424.823 -1.46196 0.861682 0
M  V30 4271 H 423.595 -3.52754 1.69353 0
M  V30 4272 H 423.218 -3.97582 0.0381369 0
M  V30 4273 N 424.215 -0.530993 -1.48385 0
M  V30 4274 C 425.461 0.00274135 -2.028 0
M  V30 4275 C 425.794 1.33838 -1.40716 0
M  V30 4276 O 425.069 1.86465 -0.553277 0
M  V30 4277 C 425.352 0.123676 -3.59888 0
M  V30 4278 C 425.205 -1.2372 -4.3245 0
M  V30 4279 C 426.524 0.849967 -4.31814 0
M  V30 4280 H 423.643 -0.000477758 -0.737 0
M  V30 4281 H 426.285 -0.688217 -1.77098 0
M  V30 4282 H 424.435 0.712157 -3.81917 0
M  V30 4283 H 426.107 -1.86687 -4.21836 0
M  V30 4284 H 424.35 -1.81882 -3.93829 0
M  V30 4285 H 425.021 -1.10557 -5.40815 0
M  V30 4286 H 427.497 0.350572 -4.14621 0
M  V30 4287 H 426.373 0.903486 -5.41413 0
M  V30 4288 H 426.634 1.90047 -3.99167 0
M  V30 4289 N 425.693 1.55336 -0.266172 0
M  V30 4290 C 426.939 1.99692 0.353681 0
M  V30 4291 C 427.272 1.1543 1.56172 0
M  V30 4292 O 426.547 0.222218 1.93226 0
M  V30 4293 C 426.83 3.52316 0.74466 0
M  V30 4294 C 426.683 4.47337 -0.470101 0
M  V30 4295 C 428.002 4.10588 1.58447 0
M  V30 4296 H 425.121 0.725961 0.12708 0
M  V30 4297 H 427.763 1.86336 -0.371333 0
M  V30 4298 H 425.913 3.63829 1.36239 0
M  V30 4299 H 427.585 4.4778 -1.10864 0
M  V30 4300 H 425.828 4.19364 -1.10978 0
M  V30 4301 H 426.499 5.51788 -0.15291 0
M  V30 4302 H 428.975 4.02297 1.06286 0
M  V30 4303 H 427.851 5.17607 1.82686 0
M  V30 4304 H 428.112 3.60253 2.56262 0
M  V30 4305 N 427.171 -0.0066808 1.57599 0
M  V30 4306 C 428.134 -0.985035 2.06953 0
M  V30 4307 C 429.134 -1.27663 0.977687 0
M  V30 4308 O 430.324 -1.22293 1.24057 0
M  V30 4309 C 427.456 -2.3118 2.50536 0
M  V30 4310 H 428.649 -0.558255 2.94658 0
M  V30 4311 H 426.202 -0.254011 1.54222 0
M  V30 4312 H 426.937 -2.78561 1.66054 0
M  V30 4313 H 426.722 -2.11338 3.3027 0
M  V30 4314 H 428.212 -3.01377 2.8907 0
M  V30 4315 N 428.649 -1.55105 -0.279332 0
M  V30 4316 C 430.065 -1.46803 -0.626187 0
M  V30 4317 C 430.265 -0.676939 -1.89789 0
M  V30 4318 O 429.321 -0.19326 -2.51759 0
M  V30 4319 C 430.634 -2.90962 -0.759034 0
M  V30 4320 C 432.182 -3.01138 -0.853504 0
M  V30 4321 C 432.657 -4.46539 -1.01818 0
M  V30 4322 N 434.148 -4.50341 -1.08386 0
M  V30 4323 C 434.883 -5.60053 -1.22996 0
M  V30 4324 N 434.379 -6.79645 -1.34366 0
M  V30 4325 N 436.172 -5.47783 -1.26056 0
M  V30 4326 H 428.323 -2.04996 0.555921 0
M  V30 4327 H 430.586 -0.929325 0.187239 0
M  V30 4328 H 430.292 -3.51544 0.104852 0
M  V30 4329 H 430.166 -3.39619 -1.64131 0
M  V30 4330 H 432.553 -2.40658 -1.70786 0
M  V30 4331 H 432.634 -2.55745 0.0532466 0
M  V30 4332 H 432.278 -5.0762 -0.168504 0
M  V30 4333 H 432.208 -4.89583 -1.93948 0
M  V30 4334 H 434.699 -3.64191 -1.00864 0
M  V30 4335 H 435.012 -7.59012 -1.4533 0
M  V30 4336 H 433.357 -6.82469 -1.31382 0
M  V30 4337 H 436.548 -4.53294 -1.168 0
M  V30 4338 H 436.721 -6.33331 -1.37098 0
M  V30 4339 N 430.127 0.543554 -1.4793 0
M  V30 4340 C 431.352 1.32995 -1.59145 0
M  V30 4341 C 431.777 1.86472 -0.246956 0
M  V30 4342 O 431.135 1.63696 0.779324 0
M  V30 4343 C 431.183 2.46623 -2.63077 0
M  V30 4344 O 430.287 3.49261 -2.19295 0
M  V30 4345 H 429.628 0.394472 -0.534124 0
M  V30 4346 H 432.158 0.655489 -1.93816 0
M  V30 4347 H 432.168 2.93001 -2.83926 0
M  V30 4348 H 430.843 2.07059 -3.60693 0
M  V30 4349 H 429.42 3.09094 -2.08603 0
M  V30 4350 N 431.605 1.3629 0.791371 0
M  V30 4351 C 432.854 1.29742 1.54434 0
M  V30 4352 C 433.167 -0.121729 1.95221 0
M  V30 4353 O 434.373 -0.309579 2.69729 0
M  V30 4354 C 432.829 2.27623 2.78776 0
M  V30 4355 C 432.437 3.74963 2.45166 0
M  V30 4356 C 434.181 2.30047 3.56761 0
M  V30 4357 C 432.088 4.64626 3.65891 0
M  V30 4358 H 431.018 0.482113 0.579727 0
M  V30 4359 H 433.669 1.61642 0.868565 0
M  V30 4360 H 432.051 1.88714 3.48142 0
M  V30 4361 H 433.225 4.22596 1.83709 0
M  V30 4362 H 431.54 3.75295 1.80396 0
M  V30 4363 H 434.137 2.94247 4.46456 0
M  V30 4364 H 434.48 1.30846 3.95203 0
M  V30 4365 H 435.013 2.67563 2.94372 0
M  V30 4366 H 431.752 5.64883 3.32547 0
M  V30 4367 H 431.272 4.2171 4.26521 0
M  V30 4368 H 432.951 4.80801 4.32943 0
M  V30 4369 N 433.083 -1.0153 1.20538 0
M  V30 4370 C 434.016 -2.09759 0.898695 0
M  V30 4371 C 434.994 -1.61909 -0.149733 0
M  V30 4372 O 436.178 -1.88486 -0.0230293 0
M  V30 4373 C 433.305 -3.36913 0.347512 0
M  V30 4374 C 432.351 -4.03655 1.37713 0
M  V30 4375 S 433.184 -4.47402 2.94265 0
M  V30 4376 C 434.34 -5.77756 2.40726 0
M  V30 4377 H 434.573 -2.3545 1.81523 0
M  V30 4378 H 432.106 -1.14665 1.03399 0
M  V30 4379 H 434.064 -4.10484 0.0360518 0
M  V30 4380 H 432.725 -3.09291 -0.547546 0
M  V30 4381 H 431.918 -4.9514 0.940872 0
M  V30 4382 H 431.52 -3.36313 1.63614 0
M  V30 4383 H 433.812 -6.52994 1.80569 0
M  V30 4384 H 434.755 -6.2618 3.30612 0
M  V30 4385 H 435.163 -5.34081 1.82806 0
M  V30 4386 N 434.561 -1.01147 -1.20859 0
M  V30 4387 C 435.81 -0.693214 -1.89413 0
M  V30 4388 C 436.123 0.779969 -1.79376 0
M  V30 4389 O 437.329 1.21057 -2.43017 0
M  V30 4390 C 435.785 -1.18949 -3.39675 0
M  V30 4391 C 435.393 -2.68921 -3.58309 0
M  V30 4392 C 437.137 -0.94642 -4.13815 0
M  V30 4393 C 435.044 -3.12056 -5.0237 0
M  V30 4394 H 433.974 -0.255595 -0.709357 0
M  V30 4395 H 436.625 -1.22349 -1.36759 0
M  V30 4396 H 435.007 -0.587228 -3.91622 0
M  V30 4397 H 436.181 -3.34652 -3.16772 0
M  V30 4398 H 434.496 -2.91314 -2.97532 0
M  V30 4399 H 437.093 -1.24417 -5.20023 0
M  V30 4400 H 437.436 0.117219 -4.16135 0
M  V30 4401 H 437.969 -1.5118 -3.67953 0
M  V30 4402 H 434.708 -4.17674 -5.05202 0
M  V30 4403 H 434.228 -2.51041 -5.44737 0
M  V30 4404 H 435.907 -3.04403 -5.70918 0
M  V30 4405 N 436.039 1.36541 -0.78704 0
M  V30 4406 C 436.949 2.3387 -0.184896 0
M  V30 4407 C 437.965 1.60927 0.661697 0
M  V30 4408 O 439.141 1.92927 0.57804 0
M  V30 4409 C 436.206 3.40122 0.672145 0
M  V30 4410 C 435.267 4.28867 -0.19267 0
M  V30 4411 C 434.5 5.30045 0.623561 0
M  V30 4412 O 434.723 5.39232 1.8597 0
M  V30 4413 O 433.657 6.01895 0.0247068 0
M  V30 4414 H 437.483 2.87126 -0.989562 0
M  V30 4415 H 435.068 1.38969 -0.548455 0
M  V30 4416 H 436.95 4.05093 1.16094 0
M  V30 4417 H 435.625 2.89169 1.45474 0
M  V30 4418 H 434.532 3.66945 -0.728166 0
M  V30 4419 H 435.865 4.83165 -0.938722 0
M  V30 4420 N 437.518 0.538854 1.48102 0
M  V30 4421 C 438.767 0.0059532 2.01699 0
M  V30 4422 C 439.08 -1.34476 1.42041 0
M  V30 4423 O 440.286 -1.96653 1.87189 0
M  V30 4424 C 438.742 -0.0397627 3.59878 0
M  V30 4425 C 438.35 1.30659 4.28523 0
M  V30 4426 C 440.094 -0.521024 4.2129 0
M  V30 4427 C 438.001 1.22098 5.78659 0
M  V30 4428 H 436.931 -0.00154456 0.753998 0
M  V30 4429 H 439.582 0.683963 1.70277 0
M  V30 4430 H 437.964 -0.783037 3.88181 0
M  V30 4431 H 439.138 2.06613 4.11883 0
M  V30 4432 H 437.453 1.7243 3.79021 0
M  V30 4433 H 440.05 -0.603184 5.31287 0
M  V30 4434 H 440.393 -1.52885 3.8721 0
M  V30 4435 H 440.926 0.166834 3.9745 0
M  V30 4436 H 437.665 2.20424 6.17328 0
M  V30 4437 H 437.185 0.50295 5.97688 0
M  V30 4438 H 438.864 0.915345 6.40492 0
M  V30 4439 N 438.996 -1.55193 0.274407 0
M  V30 4440 C 440.412 -1.59401 -0.0797543 0
M  V30 4441 C 440.612 -1.29162 -1.54659 0
M  V30 4442 O 439.668 -1.05215 -2.29534 0
M  V30 4443 C 440.981 -2.99257 0.294238 0
M  V30 4444 C 442.529 -3.12072 0.240796 0
M  V30 4445 C 443.004 -4.54194 0.589218 0
M  V30 4446 N 444.495 -4.60033 0.540744 0
M  V30 4447 C 445.23 -5.68027 0.783147 0
M  V30 4448 N 444.726 -6.8417 1.09013 0
M  V30 4449 N 446.519 -5.57572 0.711993 0
M  V30 4450 H 438.67 -1.73113 1.23067 0
M  V30 4451 H 440.933 -0.807197 0.497129 0
M  V30 4452 H 440.639 -3.26217 1.31435 0
M  V30 4453 H 440.513 -3.75427 -0.365281 0
M  V30 4454 H 442.9 -2.84877 -0.770024 0
M  V30 4455 H 442.981 -2.38117 0.934563 0
M  V30 4456 H 442.625 -4.82115 1.59772 0
M  V30 4457 H 442.555 -5.26448 -0.126331 0
M  V30 4458 H 445.046 -3.76599 0.313327 0
M  V30 4459 H 445.359 -7.6243 1.26178 0
M  V30 4460 H 443.704 -6.85787 1.12789 0
M  V30 4461 H 446.895 -4.65714 0.472014 0
M  V30 4462 H 447.068 -6.41659 0.90429 0
M  V30 4463 N 440.474 -0.00167713 -1.576 0
M  V30 4464 C 441.384 1.00548 -2.1196 0
M  V30 4465 C 442.4 1.3758 -1.06526 0
M  V30 4466 O 443.576 1.46278 -1.38436 0
M  V30 4467 C 440.641 2.27809 -2.6135 0
M  V30 4468 C 439.702 1.97074 -3.81393 0
M  V30 4469 C 438.935 3.18267 -4.28417 0
M  V30 4470 O 439.158 4.30009 -3.74765 0
M  V30 4471 O 438.092 3.02167 -5.20556 0
M  V30 4472 H 441.918 0.573373 -2.98238 0
M  V30 4473 H 439.503 0.217255 -1.47812 0
M  V30 4474 H 441.385 3.02568 -2.93309 0
M  V30 4475 H 440.06 2.70254 -1.78169 0
M  V30 4476 H 438.967 1.19785 -3.54404 0
M  V30 4477 H 440.3 1.59464 -4.65652 0
M  V30 4478 N 441.952 1.55251 0.271103 0
M  V30 4479 C 443.2 1.75599 1.00047 0
M  V30 4480 C 443.521 0.561188 1.8675 0
M  V30 4481 O 442.791 -0.423846 1.9126 0
M  V30 4482 H 441.371 0.647562 0.372387 0
M  V30 4483 H 444.033 1.92656 0.294876 0
M  V30 4484 H 443.129 2.65766 1.6363 0
M  V30 4485 N 443.43 -0.535701 1.48216 0
M  V30 4486 C 444.846 -0.863701 1.3421 0
M  V30 4487 C 445.046 -1.98458 0.34879 0
M  V30 4488 O 444.102 -2.51432 -0.23204 0
M  V30 4489 C 445.415 -1.23662 2.74095 0
M  V30 4490 C 446.963 -1.34683 2.82541 0
M  V30 4491 C 447.438 -1.75322 4.23115 0
M  V30 4492 N 448.929 -1.82434 4.2576 0
M  V30 4493 C 449.664 -2.15252 5.31464 0
M  V30 4494 N 449.16 -2.46533 6.47452 0
M  V30 4495 N 450.953 -2.16209 5.18855 0
M  V30 4496 H 443.104 0.203965 2.11418 0
M  V30 4497 H 445.367 0.0286033 0.947568 0
M  V30 4498 H 445.073 -0.486674 3.48316 0
M  V30 4499 H 444.947 -2.18805 3.07253 0
M  V30 4500 H 447.334 -2.08756 2.08579 0
M  V30 4501 H 447.415 -0.376756 2.5301 0
M  V30 4502 H 447.059 -1.01812 4.97591 0
M  V30 4503 H 446.989 -2.7337 4.50085 0
M  V30 4504 H 449.48 -1.6056 3.42095 0
M  V30 4505 H 449.793 -2.70662 7.23852 0
M  V30 4506 H 448.138 -2.44065 6.50736 0
M  V30 4507 H 451.329 -1.91224 4.2726 0
M  V30 4508 H 451.502 -2.41453 6.01335 0
M  V30 4509 N 444.908 -1.36708 -0.784132 0
M  V30 4510 C 446.156 -1.30972 -1.53918 0
M  V30 4511 C 446.477 0.109086 -1.94695 0
M  V30 4512 O 445.747 1.05048 -1.65353 0
M  V30 4513 H 444.327 -0.481819 -0.570841 0
M  V30 4514 H 446.989 -1.71063 -0.934002 0
M  V30 4515 H 446.085 -1.94061 -2.44431 0
M  V30 4516 N 446.386 1.0089 -1.21074 0
M  V30 4517 C 447.626 1.76142 -1.03699 0
M  V30 4518 C 447.99 1.87292 0.422587 0
M  V30 4519 O 449.191 2.59068 0.716752 0
M  V30 4520 C 447.462 3.13805 -1.7106 0
M  V30 4521 S 449.021 4.04996 -1.68889 0
M  V30 4522 H 445.839 0.606113 -0.371683 0
M  V30 4523 H 448.441 1.20744 -1.53756 0
M  V30 4524 H 447.145 3.0332 -2.76451 0
M  V30 4525 H 446.676 3.74276 -1.21166 0
M  V30 4526 H 448.691 4.90842 -0.727211 0
M  V30 4527 N 447.864 1.01787 1.20321 0
M  V30 4528 C 449.141 0.622978 1.85414 0
M  V30 4529 C 449.521 -0.898887 1.91006 0
M  V30 4530 O 448.869 -1.79112 1.41884 0
M  V30 4531 C 449.079 1.27226 3.24984 0
M  V30 4532 C 450.427 1.3885 4.01255 0
M  V30 4533 O 451.451 1.22857 3.34342 0
M  V30 4534 O 450.31 1.64705 5.2109 0
M  V30 4535 H 447.404 0.215116 0.798533 0
M  V30 4536 H 449.95 1.11533 1.27901 0
M  V30 4537 H 448.722 2.31209 3.15687 0
M  V30 4538 H 448.345 0.767069 3.90131 0
M  V30 4539 N 449.342 -1.36122 0.79427 0
M  V30 4540 C 450.59 -1.98718 0.368177 0
M  V30 4541 C 450.911 -1.63345 -1.06506 0
M  V30 4542 O 450.181 -0.909825 -1.73491 0
M  V30 4543 H 448.761 -0.735038 0.133146 0
M  V30 4544 H 451.423 -1.66239 1.01739 0
M  V30 4545 H 450.519 -3.08633 0.463923 0
M  V30 4546 N 450.82 -0.546701 -1.47814 0
M  V30 4547 C 452.231 -0.110564 -1.86372 0
M  V30 4548 C 452.582 1.31678 -1.45449 0
M  V30 4549 O 451.707 1.98889 -0.852758 0
M  V30 4550 C 452.302 -0.193873 -3.38245 0
M  V30 4551 C 450.861 0.187164 -3.75934 0
M  V30 4552 C 450.008 -0.546166 -2.71868 0
M  V30 4553 H 452.959 -0.757022 -1.39481 0
M  V30 4554 H 452.98 0.590218 -3.75895 0
M  V30 4555 H 452.492 -1.23282 -3.67999 0
M  V30 4556 H 450.593 1.22762 -3.51796 0
M  V30 4557 H 450.706 -0.164083 -4.78819 0
M  V30 4558 H 449.07 0.00953904 -2.54698 0
M  V30 4559 H 449.853 -1.58606 -3.04465 0
M  V30 4560 N 452.299 1.55045 -0.282633 0
M  V30 4561 C 453.545 2.0078 0.325436 0
M  V30 4562 C 453.9 1.1676 1.52921 0
M  V30 4563 O 453.193 0.231475 1.90197 0
M  V30 4564 C 453.387 3.49422 0.750938 0
M  V30 4565 C 453.216 4.47827 -0.410056 0
M  V30 4566 C 451.986 4.97288 -0.896239 0
M  V30 4567 C 454.184 4.98903 -1.24902 0
M  V30 4568 N 452.166 5.79508 -2.02591 0
M  V30 4569 C 453.537 5.78644 -2.22646 0
M  V30 4570 C 455.592 4.81126 -1.2815 0
M  V30 4571 C 454.295 6.42502 -3.23393 0
M  V30 4572 C 456.321 5.45789 -2.27745 0
M  V30 4573 C 455.683 6.25348 -3.24222 0
M  V30 4574 H 451.782 0.77747 0.08405 0
M  V30 4575 H 454.366 1.90369 -0.408368 0
M  V30 4576 H 452.537 3.60159 1.45395 0
M  V30 4577 H 454.269 3.81978 1.33698 0
M  V30 4578 H 451.024 4.71219 -0.474277 0
M  V30 4579 H 451.448 6.25308 -2.59459 0
M  V30 4580 H 456.09 4.19215 -0.549397 0
M  V30 4581 H 453.808 7.03558 -3.97533 0
M  V30 4582 H 457.394 5.33972 -2.31009 0
M  V30 4583 H 456.274 6.74498 -4.00027 0
M  V30 4584 N 453.777 0.010035 1.57597 0
M  V30 4585 C 455.025 -0.671371 1.90623 0
M  V30 4586 C 455.346 -1.73753 0.885151 0
M  V30 4587 O 454.616 -1.95752 -0.0760611 0
M  V30 4588 H 453.196 -0.250968 0.703579 0
M  V30 4589 H 455.858 0.0533325 1.94827 0
M  V30 4590 H 454.954 -1.13626 2.90681 0
M  V30 4591 N 455.255 -1.55392 -0.262866 0
M  V30 4592 C 456.666 -1.67079 -0.833158 0
M  V30 4593 C 457.017 -0.604539 -1.86654 0
M  V30 4594 O 456.142 0.252138 -2.14926 0
M  V30 4595 C 456.737 -3.02891 -1.51797 0
M  V30 4596 C 455.296 -3.16571 -2.03617 0
M  V30 4597 C 454.443 -2.62909 -0.881701 0
M  V30 4598 H 457.394 -1.58652 -0.0389986 0
M  V30 4599 H 457.415 -2.96445 -2.38538 0
M  V30 4600 H 456.927 -3.80473 -0.765619 0
M  V30 4601 H 455.028 -2.43782 -2.81782 0
M  V30 4602 H 455.141 -4.23271 -2.24452 0
M  V30 4603 H 453.505 -2.20324 -1.27786 0
M  V30 4604 H 454.288 -3.43003 -0.14269 0
M  V30 4605 N 456.733 0.527833 -1.48498 0
M  V30 4606 C 457.683 1.62844 -1.5958 0
M  V30 4607 C 458.667 1.54397 -0.452809 0
M  V30 4608 O 459.859 1.62381 -0.704364 0
M  V30 4609 C 456.988 3.01557 -1.64067 0
M  V30 4610 C 456.074 3.151 -2.83853 0
M  V30 4611 N 456.465 2.9861 -4.08247 0
M  V30 4612 C 454.763 3.46158 -2.8123 0
M  V30 4613 C 455.464 3.15626 -4.88626 0
M  V30 4614 N 454.44 3.43298 -4.21483 0
M  V30 4615 H 458.242 1.48708 -2.53502 0
M  V30 4616 H 455.756 0.733343 -1.44899 0
M  V30 4617 H 457.753 3.8062 -1.70101 0
M  V30 4618 H 456.413 3.16783 -0.712636 0
M  V30 4619 H 457.424 2.75329 -4.3865 0
M  V30 4620 H 454.101 3.67728 -1.97692 0
M  V30 4621 H 455.491 3.07596 -5.97356 0
M  V30 4622 N 458.211 1.37122 0.776871 0
M  V30 4623 C 459.174 1.32301 1.8716 0
M  V30 4624 C 460.174 0.228099 1.59174 0
M  V30 4625 O 461.364 0.483642 1.67352 0
M  V30 4626 C 458.496 1.054 3.24197 0
M  V30 4627 H 459.689 2.29673 1.92848 0
M  V30 4628 H 457.242 1.22077 0.97606 0
M  V30 4629 H 457.977 0.0853872 3.24188 0
M  V30 4630 H 457.762 1.84648 3.45901 0
M  V30 4631 H 459.252 1.04664 4.04271 0
M  V30 4632 N 459.689 -1.00246 1.21608 0
M  V30 4633 C 460.636 -2.09073 0.977613 0
M  V30 4634 C 461.606 -1.65815 -0.097297 0
M  V30 4635 O 462.791 -1.90734 0.0503445 0
M  V30 4636 C 459.931 -3.40671 0.551133 0
M  V30 4637 C 459.044 -3.97326 1.69576 0
M  V30 4638 C 458.179 -5.17043 1.2182 0
M  V30 4639 C 457.218 -5.65813 2.335 0
M  V30 4640 N 456.355 -6.76778 1.86859 0
M  V30 4641 H 461.195 -2.28806 1.90924 0
M  V30 4642 H 458.732 -1.12186 0.951452 0
M  V30 4643 H 460.69 -4.16225 0.285097 0
M  V30 4644 H 459.32 -3.20967 -0.343489 0
M  V30 4645 H 458.372 -3.18734 2.07637 0
M  V30 4646 H 459.684 -4.29511 2.53617 0
M  V30 4647 H 458.838 -5.99852 0.908975 0
M  V30 4648 H 457.577 -4.86458 0.347869 0
M  V30 4649 H 456.582 -4.81599 2.65222 0
M  V30 4650 H 457.807 -5.98427 3.21033 0
M  V30 4651 H 455.753 -6.47994 1.02174 0
M  V30 4652 H 455.67 -7.08231 2.64471 0
M  V30 4653 H 456.938 -7.63116 1.58978 0
M  V30 4654 N 461.167 -1.02423 -1.1978 0
M  V30 4655 C 462.097 -0.62157 -2.25075 0
M  V30 4656 C 463.078 0.367148 -1.6609 0
M  V30 4657 O 464.263 0.250892 -1.92573 0
M  V30 4658 C 461.393 0.0331826 -3.47284 0
M  V30 4659 C 460.347 -0.877323 -4.18912 0
M  V30 4660 C 459.673 -0.0879296 -5.34628 0
M  V30 4661 C 460.973 -2.18892 -4.74219 0
M  V30 4662 H 462.667 -1.50179 -2.59011 0
M  V30 4663 H 460.213 -0.723547 -1.24502 0
M  V30 4664 H 462.166 0.326488 -4.20133 0
M  V30 4665 H 460.89 0.948164 -3.12534 0
M  V30 4666 H 459.549 -1.15475 -3.47938 0
M  V30 4667 H 459.197 0.828941 -4.96123 0
M  V30 4668 H 458.897 -0.694359 -5.83483 0
M  V30 4669 H 460.421 0.198743 -6.10276 0
M  V30 4670 H 461.835 -1.95746 -5.38847 0
M  V30 4671 H 460.232 -2.74686 -5.33542 0
M  V30 4672 H 461.302 -2.84674 -3.92541 0
M  V30 4673 N 462.645 1.35699 -0.801477 0
M  V30 4674 C 463.592 2.29876 -0.206294 0
M  V30 4675 C 464.562 1.52565 0.656752 0
M  V30 4676 O 465.747 1.81024 0.602906 0
M  V30 4677 C 462.887 3.39052 0.643272 0
M  V30 4678 C 462 4.31335 -0.239644 0
M  V30 4679 C 461.135 5.27599 0.61744 0
M  V30 4680 C 460.174 6.11521 -0.26619 0
M  V30 4681 N 459.311 6.99938 0.550571 0
M  V30 4682 H 464.151 2.80187 -1.01484 0
M  V30 4683 H 461.688 1.37902 -0.511997 0
M  V30 4684 H 463.646 4.0101 1.15094 0
M  V30 4685 H 462.276 2.9003 1.41713 0
M  V30 4686 H 461.328 3.70426 -0.865381 0
M  V30 4687 H 462.64 4.90243 -0.919985 0
M  V30 4688 H 461.794 5.94906 1.19045 0
M  V30 4689 H 460.533 4.69176 1.33137 0
M  V30 4690 H 459.538 5.43166 -0.851507 0
M  V30 4691 H 460.763 6.72022 -0.9779 0
M  V30 4692 H 458.709 6.44008 1.24856 0
M  V30 4693 H 458.626 7.55966 -0.071832 0
M  V30 4694 H 459.894 7.71599 1.10702 0
M  V30 4695 N 464.123 0.554532 1.47522 0
M  V30 4696 C 465.053 -0.182974 2.32782 0
M  V30 4697 C 466.034 -0.911377 1.43624 0
M  V30 4698 O 467.219 -0.892366 1.72483 0
M  V30 4699 C 464.349 -1.21513 3.25349 0
M  V30 4700 C 463.303 -0.603355 4.23726 0
M  V30 4701 C 462.629 -1.73995 5.05598 0
M  V30 4702 C 463.929 0.441121 5.20434 0
M  V30 4703 H 465.623 0.52882 2.94693 0
M  V30 4704 H 463.169 0.255759 1.41711 0
M  V30 4705 H 465.122 -1.73922 3.83835 0
M  V30 4706 H 463.846 -1.95683 2.61487 0
M  V30 4707 H 462.505 -0.10059 3.66462 0
M  V30 4708 H 462.153 -2.47063 4.38143 0
M  V30 4709 H 461.853 -1.3364 5.72201 0
M  V30 4710 H 463.377 -2.26735 5.66942 0
M  V30 4711 H 464.791 0.00319931 5.733 0
M  V30 4712 H 463.188 0.763402 5.95224 0
M  V30 4713 H 464.258 1.33799 4.66075 0
M  V30 4714 N 465.601 -1.54893 0.290851 0
M  V30 4715 C 466.878 -1.91991 -0.373989 0
M  V30 4716 C 467.258 -1.21694 -1.72493 0
M  V30 4717 O 466.606 -0.34917 -2.25816 0
M  V30 4718 C 466.816 -3.45419 -0.498703 0
M  V30 4719 C 468.164 -4.1748 -0.774298 0
M  V30 4720 O 469.188 -3.51398 -0.582908 0
M  V30 4721 O 468.047 -5.3445 -1.14129 0
M  V30 4722 H 465.141 -0.800593 -0.207315 0
M  V30 4723 H 467.687 -1.66297 0.338164 0
M  V30 4724 H 466.459 -3.88688 0.451392 0
M  V30 4725 H 466.082 -3.77117 -1.25972 0
M  V30 4726 N 467.08 -0.0183926 -1.57589 0
M  V30 4727 C 468.03 0.975944 -2.06057 0
M  V30 4728 C 469.014 1.29204 -0.958908 0
M  V30 4729 O 470.206 1.27995 -1.22255 0
M  V30 4730 C 467.335 2.26194 -2.58247 0
M  V30 4731 C 466.421 1.97467 -3.75323 0
M  V30 4732 N 466.812 1.38968 -4.86335 0
M  V30 4733 C 465.11 2.27515 -3.83605 0
M  V30 4734 C 465.811 1.27131 -5.67638 0
M  V30 4735 N 464.787 1.76319 -5.14211 0
M  V30 4736 H 468.589 0.518444 -2.89291 0
M  V30 4737 H 466.103 0.18688 -1.61321 0
M  V30 4738 H 468.1 2.98289 -2.91255 0
M  V30 4739 H 466.76 2.7258 -1.76438 0
M  V30 4740 H 467.771 1.06608 -5.06809 0
M  V30 4741 H 464.448 2.76649 -3.12684 0
M  V30 4742 H 465.838 0.819882 -6.66879 0
M  V30 4743 N 468.558 1.5553 0.254621 0
M  V30 4744 C 469.488 1.9268 1.31897 0
M  V30 4745 C 470.469 0.790797 1.506 0
M  V30 4746 O 471.654 1.05045 1.63337 0
M  V30 4747 C 468.784 2.21477 2.67517 0
M  V30 4748 C 467.738 3.37256 2.63519 0
M  V30 4749 C 467.064 3.51576 4.02862 0
M  V30 4750 C 468.364 4.73157 2.21179 0
M  V30 4751 H 470.058 2.81832 1.01051 0
M  V30 4752 H 467.604 1.35599 0.484662 0
M  V30 4753 H 469.557 2.46055 3.42104 0
M  V30 4754 H 468.281 1.29144 2.99982 0
M  V30 4755 H 466.94 3.12675 1.9139 0
M  V30 4756 H 466.588 2.56676 4.32581 0
M  V30 4757 H 466.288 4.2943 4.01078 0
M  V30 4758 H 467.812 3.78467 4.79161 0
M  V30 4759 H 469.226 4.97158 2.85494 0
M  V30 4760 H 467.623 5.54058 2.30521 0
M  V30 4761 H 468.693 4.70739 1.16332 0
M  V30 4762 N 470.036 -0.519951 1.48776 0
M  V30 4763 C 471.284 -1.2727 1.56993 0
M  V30 4764 C 471.605 -1.9339 0.25004 0
M  V30 4765 O 470.875 -1.81822 -0.729216 0
M  V30 4766 H 469.455 -0.472732 0.578389 0
M  V30 4767 H 472.117 -0.604234 1.85297 0
M  V30 4768 H 471.213 -2.04669 2.3562 0
M  V30 4769 N 471.514 -1.37532 -0.769588 0
M  V30 4770 C 472.461 -1.3347 -1.88293 0
M  V30 4771 C 473.431 -0.199891 -1.64893 0
M  V30 4772 O 474.616 -0.389594 -1.8678 0
M  V30 4773 C 471.756 -1.14968 -3.25387 0
M  V30 4774 C 470.869 -2.37698 -3.60727 0
M  V30 4775 C 470.004 -2.12051 -4.8704 0
M  V30 4776 C 469.043 -3.30636 -5.15117 0
M  V30 4777 N 468.18 -3.04527 -6.3262 0
M  V30 4778 H 473.02 -2.28658 -1.911 0
M  V30 4779 H 470.557 -1.13622 -0.934257 0
M  V30 4780 H 472.515 -1.02261 -4.04473 0
M  V30 4781 H 471.145 -0.234263 -3.21949 0
M  V30 4782 H 470.197 -2.61137 -2.76608 0
M  V30 4783 H 471.509 -3.26131 -3.77413 0
M  V30 4784 H 470.663 -1.96388 -5.74035 0
M  V30 4785 H 469.402 -1.20959 -4.72462 0
M  V30 4786 H 468.407 -3.46836 -4.26597 0
M  V30 4787 H 469.632 -4.22582 -5.31603 0
M  V30 4788 H 467.578 -2.16067 -6.19396 0
M  V30 4789 H 467.495 -3.86503 -6.49732 0
M  V30 4790 H 468.763 -2.92485 -7.22546 0
M  V30 4791 N 472.992 0.995999 -1.22138 0
M  V30 4792 C 473.902 2.11985 -1.00496 0
M  V30 4793 C 474.918 1.7394 0.0457701 0
M  V30 4794 O 476.094 2.00868 -0.146273 0
M  V30 4795 C 473.159 3.41779 -0.582086 0
M  V30 4796 C 472.22 3.93943 -1.70608 0
M  V30 4797 C 471.453 5.17542 -1.30328 0
M  V30 4798 O 471.676 5.70114 -0.180743 0
M  V30 4799 O 470.61 5.63382 -2.11861 0
M  V30 4800 H 474.436 2.33123 -1.94647 0
M  V30 4801 H 472.021 1.10358 -1.00705 0
M  V30 4802 H 473.903 4.1989 -0.356467 0
M  V30 4803 H 472.578 3.22007 0.330592 0
M  V30 4804 H 471.485 3.17019 -1.98619 0
M  V30 4805 H 472.818 4.18141 -2.59651 0
M  V30 4806 N 474.47 1.03057 1.19235 0
M  V30 4807 C 475.716 0.729098 1.89241 0
M  V30 4808 C 476.049 -0.740573 1.79525 0
M  V30 4809 O 475.324 -1.53946 1.18874 0
M  V30 4810 C 475.607 1.18304 3.40112 0
M  V30 4811 C 475.46 2.71406 3.5869 0
M  V30 4812 C 476.779 0.765161 4.33397 0
M  V30 4813 H 473.898 0.266338 0.687192 0
M  V30 4814 H 476.54 1.28079 1.40341 0
M  V30 4815 H 474.69 0.713672 3.81889 0
M  V30 4816 H 476.362 3.26303 3.26074 0
M  V30 4817 H 474.605 3.11717 3.01687 0
M  V30 4818 H 475.276 2.98225 4.64506 0
M  V30 4819 H 477.752 1.16889 3.99345 0
M  V30 4820 H 476.628 1.11065 5.37546 0
M  V30 4821 H 476.889 -0.332372 4.40849 0
M  V30 4822 N 475.948 -1.35272 0.808662 0
M  V30 4823 C 476.878 -2.32315 0.234981 0
M  V30 4824 C 477.859 -1.57572 -0.64071 0
M  V30 4825 O 479.044 -1.8563 -0.570551 0
M  V30 4826 C 476.174 -3.41801 -0.615601 0
M  V30 4827 C 475.128 -4.27694 0.161767 0
M  V30 4828 C 474.454 -5.28519 -0.810649 0
M  V30 4829 C 475.754 -5.04231 1.36193 0
M  V30 4830 H 477.448 -2.80543 1.04575 0
M  V30 4831 H 474.994 -1.3488 0.504315 0
M  V30 4832 H 476.947 -4.08693 -1.02702 0
M  V30 4833 H 475.671 -2.92186 -1.45928 0
M  V30 4834 H 474.33 -3.62384 0.554382 0
M  V30 4835 H 473.978 -4.75171 -1.64988 0
M  V30 4836 H 473.678 -5.8686 -0.294822 0
M  V30 4837 H 475.202 -5.98283 -1.22023 0
M  V30 4838 H 476.616 -5.64058 1.02528 0
M  V30 4839 H 475.013 -5.72077 1.81239 0
M  V30 4840 H 476.083 -4.34753 2.14751 0
M  V30 4841 N 477.426 -0.562348 -1.47226 0
M  V30 4842 C 478.336 0.185466 -2.33866 0
M  V30 4843 C 479.352 0.906713 -1.48508 0
M  V30 4844 O 480.528 0.874458 -1.81425 0
M  V30 4845 C 477.593 1.19904 -3.25306 0
M  V30 4846 C 476.654 0.484669 -4.26555 0
M  V30 4847 C 475.887 1.44996 -5.13626 0
M  V30 4848 O 476.11 2.68515 -5.03245 0
M  V30 4849 O 475.044 0.971642 -5.94006 0
M  V30 4850 H 478.87 -0.525361 -2.99121 0
M  V30 4851 H 476.455 -0.322916 -1.45868 0
M  V30 4852 H 478.337 1.78399 -3.81774 0
M  V30 4853 H 477.012 1.8917 -2.62672 0
M  V30 4854 H 475.919 -0.141605 -3.73832 0
M  V30 4855 H 477.252 -0.166634 -4.91918 0
M  V30 4856 N 478.904 1.54736 -0.299062 0
M  V30 4857 C 480.129 2.04975 0.316254 0
M  V30 4858 C 480.554 1.17501 1.46885 0
M  V30 4859 O 479.912 0.178678 1.80417 0
M  V30 4860 C 479.96 3.52672 0.751997 0
M  V30 4861 O 479.064 3.68226 1.85697 0
M  V30 4862 H 478.405 0.661126 0.0617175 0
M  V30 4863 H 480.935 1.99805 -0.440341 0
M  V30 4864 H 480.945 3.94488 1.04133 0
M  V30 4865 H 479.62 4.158 -0.0911482 0
M  V30 4866 H 478.197 3.38316 1.56834 0
M  V30 4867 N 480.382 0.0267497 1.57577 0
M  V30 4868 C 481.798 -0.32962 1.56159 0
M  V30 4869 C 481.998 -1.73059 1.03213 0
M  V30 4870 O 481.054 -2.43233 0.677804 0
M  V30 4871 C 482.367 -0.18039 3.00158 0
M  V30 4872 C 483.915 -0.253334 3.11973 0
M  V30 4873 C 484.39 -0.132921 4.57807 0
M  V30 4874 N 485.881 -0.189979 4.6281 0
M  V30 4875 C 486.616 -0.120554 5.73273 0
M  V30 4876 N 486.112 -0.000180315 6.928 0
M  V30 4877 N 487.905 -0.174369 5.61829 0
M  V30 4878 H 480.056 0.942896 1.90324 0
M  V30 4879 H 482.319 0.3639 0.875375 0
M  V30 4880 H 482.025 0.784576 3.42837 0
M  V30 4881 H 481.899 -0.951565 3.65 0
M  V30 4882 H 484.286 -1.20876 2.69208 0
M  V30 4883 H 484.367 0.548177 2.49857 0
M  V30 4884 H 484.011 0.819073 5.01252 0
M  V30 4885 H 483.941 -0.953264 5.179 0
M  V30 4886 H 486.432 -0.283257 3.76837 0
M  V30 4887 H 486.745 0.0461666 7.72786 0
M  V30 4888 H 485.09 0.034569 6.94991 0
M  V30 4889 H 488.281 -0.266794 4.67339 0
M  V30 4890 H 488.454 -0.116802 6.47895 0
M  V30 4891 N 481.861 -1.55662 -0.24637 0
M  V30 4892 C 482.791 -1.93377 -1.30873 0
M  V30 4893 C 483.772 -0.798773 -1.50179 0
M  V30 4894 O 484.957 -1.0591 -1.62778 0
M  V30 4895 C 482.087 -2.22893 -2.66338 0
M  V30 4896 C 481.041 -3.38649 -2.61727 0
M  V30 4897 C 480.367 -3.53708 -4.00992 0
M  V30 4898 C 481.667 -4.74323 -2.18666 0
M  V30 4899 H 483.361 -2.82363 -0.995552 0
M  V30 4900 H 480.907 -1.35854 -0.477464 0
M  V30 4901 H 482.86 -2.47866 -3.40794 0
M  V30 4902 H 481.584 -1.30733 -2.99293 0
M  V30 4903 H 480.243 -3.13685 -1.89729 0
M  V30 4904 H 479.891 -2.58967 -4.31214 0
M  V30 4905 H 479.591 -4.31551 -3.98795 0
M  V30 4906 H 481.115 -3.81003 -4.77147 0
M  V30 4907 H 482.529 -4.98665 -2.82854 0
M  V30 4908 H 480.926 -5.55273 -2.27579 0
M  V30 4909 H 481.996 -4.71349 -1.13834 0
M  V30 4910 N 483.339 0.512053 -1.4905 0
M  V30 4911 C 484.75 1.09376 -1.51307 0
M  V30 4912 C 485.101 1.94 -0.292971 0
M  V30 4913 O 484.226 2.07965 0.598277 0
M  V30 4914 C 484.821 1.99031 -2.74176 0
M  V30 4915 C 483.38 2.52385 -2.79247 0
M  V30 4916 C 482.527 1.29749 -2.45073 0
M  V30 4917 H 485.478 0.296467 -1.55906 0
M  V30 4918 H 485.499 2.83569 -2.53711 0
M  V30 4919 H 485.011 1.37412 -3.62959 0
M  V30 4920 H 483.112 3.17673 -1.94716 0
M  V30 4921 H 483.225 2.90293 -3.81139 0
M  V30 4922 H 481.589 1.61912 -1.96612 0
M  V30 4923 H 482.372 0.698555 -3.36118 0
M  V30 4924 N 484.817 1.37938 0.762283 0
M  V30 4925 C 486.065 1.33404 1.51815 0
M  V30 4926 C 486.386 -0.0780975 1.94844 0
M  V30 4927 O 485.656 -1.02405 1.67003 0
M  V30 4928 H 484.236 0.490839 0.563104 0
M  V30 4929 H 486.898 1.72527 0.906669 0
M  V30 4930 H 485.994 1.97926 2.41313 0
M  V30 4931 N 486.295 -0.989507 1.22664 0
M  V30 4932 C 487.544 -1.72375 1.04737 0
M  V30 4933 C 487.857 -1.91096 -0.417316 0
M  V30 4934 O 489.063 -2.6188 -0.716334 0
M  V30 4935 C 487.519 -3.10161 1.82561 0
M  V30 4936 C 487.127 -2.99358 3.333 0
M  V30 4937 C 488.871 -3.87607 1.73093 0
M  V30 4938 C 486.778 -4.32319 4.03552 0
M  V30 4939 H 485.708 -0.646326 0.388302 0
M  V30 4940 H 488.359 -1.10437 1.46546 0
M  V30 4941 H 486.741 -3.728 1.33552 0
M  V30 4942 H 487.915 -2.45863 3.89728 0
M  V30 4943 H 486.23 -2.35392 3.43481 0
M  V30 4944 H 488.827 -4.86025 2.22899 0
M  V30 4945 H 489.17 -4.10509 0.691976 0
M  V30 4946 H 489.703 -3.31652 2.19663 0
M  V30 4947 H 486.442 -4.14616 5.07714 0
M  V30 4948 H 485.962 -4.85714 3.51911 0
M  V30 4949 H 487.641 -5.01051 4.09337 0
M  V30 4950 N 487.773 -1.03688 -1.18687 0
M  V30 4951 C 488.703 -0.645407 -2.24403 0
M  V30 4952 C 489.684 0.349511 -1.66471 0
M  V30 4953 O 490.869 0.230453 -1.92828 0
M  V30 4954 C 487.999 -0.00365337 -3.473 0
M  V30 4955 C 486.953 -0.921705 -4.17958 0
M  V30 4956 C 486.279 -0.144629 -5.34504 0
M  V30 4957 C 487.579 -2.23909 -4.71871 0
M  V30 4958 H 489.273 -1.52917 -2.57404 0
M  V30 4959 H 486.819 -0.736711 -1.23728 0
M  V30 4960 H 488.772 0.281908 -4.20456 0
M  V30 4961 H 487.496 0.914963 -3.13522 0
M  V30 4962 H 486.155 -1.19159 -3.46694 0
M  V30 4963 H 485.803 0.776274 -4.96974 0
M  V30 4964 H 485.503 -0.756206 -5.82714 0
M  V30 4965 H 487.027 0.134004 -6.10453 0
M  V30 4966 H 488.441 -2.0145 -5.36741 0
M  V30 4967 H 486.838 -2.8033 -5.30599 0
M  V30 4968 H 487.908 -2.88822 -3.895 0
M  V30 4969 N 489.251 1.34841 -0.815825 0
M  V30 4970 C 490.161 2.33425 -0.234462 0
M  V30 4971 C 491.177 1.62295 0.627413 0
M  V30 4972 O 492.353 1.94109 0.536987 0
M  V30 4973 C 489.418 3.41471 0.599849 0
M  V30 4974 C 488.479 4.28362 -0.283596 0
M  V30 4975 C 487.712 5.31248 0.51099 0
M  V30 4976 O 487.935 5.43056 1.7449 0
M  V30 4977 O 486.869 6.01812 -0.10297 0
M  V30 4978 H 490.695 2.84962 -1.05024 0
M  V30 4979 H 488.28 1.37774 -0.577809 0
M  V30 4980 H 490.162 4.07464 1.07475 0
M  V30 4981 H 488.837 2.9219 1.39308 0
M  V30 4982 H 487.744 3.65318 -0.805836 0
M  V30 4983 H 489.077 4.81066 -1.041 0
M  V30 4984 N 490.729 0.570148 1.46925 0
M  V30 4985 C 491.659 -0.158274 2.32963 0
M  V30 4986 C 492.64 -0.896093 1.44583 0
M  V30 4987 O 493.825 -0.874022 1.7342 0
M  V30 4988 C 490.955 -1.18055 3.26619 0
M  V30 4989 C 489.909 -0.558379 4.24342 0
M  V30 4990 C 489.235 -1.68623 5.07415 0
M  V30 4991 C 490.535 0.496295 5.19937 0
M  V30 4992 H 492.229 0.560046 2.94115 0
M  V30 4993 H 489.775 0.270775 1.41431 0
M  V30 4994 H 491.728 -1.69841 3.85658 0
M  V30 4995 H 490.452 -1.92899 2.63548 0
M  V30 4996 H 489.111 -0.0617157 3.66548 0
M  V30 4997 H 488.759 -2.42402 4.40738 0
M  V30 4998 H 488.459 -1.27564 5.73586 0
M  V30 4999 H 489.983 -2.20709 5.69315 0
M  V30 5000 H 491.397 0.0640052 5.73264 0
M  V30 5001 H 489.794 0.82649 5.94381 0
M  V30 5002 H 490.864 1.38735 4.6463 0
M  V30 5003 N 492.207 -1.54576 0.307264 0
M  V30 5004 C 493.432 -2.05139 -0.305379 0
M  V30 5005 C 493.857 -1.18278 -1.46259 0
M  V30 5006 O 493.215 -0.188243 -1.8032 0
M  V30 5007 C 493.263 -3.53066 -0.733283 0
M  V30 5008 O 492.367 -3.69206 -1.83741 0
M  V30 5009 H 491.708 -0.661444 -0.0582105 0
M  V30 5010 H 494.238 -1.99569 0.450931 0
M  V30 5011 H 494.248 -3.95034 -1.02039 0
M  V30 5012 H 492.923 -4.15746 0.113198 0
M  V30 5013 H 491.5 -3.39143 -1.55037 0
M  V30 5014 N 493.685 -0.035106 -1.57561 0
M  V30 5015 C 495.101 0.321334 -1.56332 0
M  V30 5016 C 495.301 1.72509 -1.04129 0
M  V30 5017 O 494.357 2.4287 -0.690694 0
M  V30 5018 C 495.67 0.164469 -3.0025 0
M  V30 5019 C 497.218 0.236786 -3.12103 0
M  V30 5020 C 497.693 0.10864 -4.57871 0
M  V30 5021 N 499.184 0.165433 -4.62904 0
M  V30 5022 C 499.919 0.0901506 -5.73329 0
M  V30 5023 N 499.415 -0.0365606 -6.9279 0
M  V30 5024 N 501.208 0.144572 -5.61914 0
M  V30 5025 H 493.359 -0.952976 -1.89821 0
M  V30 5026 H 495.622 -0.368537 -0.873432 0
M  V30 5027 H 495.328 -0.802746 -3.42416 0
M  V30 5028 H 495.202 0.932194 -3.655 0
M  V30 5029 H 497.589 1.19446 -2.69845 0
M  V30 5030 H 497.67 -0.561419 -2.49563 0
M  V30 5031 H 497.314 -0.845644 -5.00811 0
M  V30 5032 H 497.244 0.925786 -5.18398 0
M  V30 5033 H 499.735 0.263269 -3.76982 0
M  V30 5034 H 500.048 -0.0871487 -7.72751 0
M  V30 5035 H 498.393 -0.0714256 -6.94963 0
M  V30 5036 H 501.584 0.242006 -4.67474 0
M  V30 5037 H 501.757 0.0824413 -6.47948 0
M  V30 5038 N 495.163 1.55791 0.238111 0
M  V30 5039 C 496.391 1.82098 0.982233 0
M  V30 5040 C 496.806 0.612025 1.78605 0
M  V30 5041 O 496.163 -0.419381 1.77616 0
M  V30 5042 C 496.214 3.0673 1.91309 0
M  V30 5043 O 495.935 4.2296 1.14179 0
M  V30 5044 C 497.436 3.45903 2.77248 0
M  V30 5045 H 494.656 0.605748 0.288635 0
M  V30 5046 H 497.2 2.02862 0.258341 0
M  V30 5047 H 495.355 2.87991 2.59114 0
M  V30 5048 H 495.769 4.93653 1.7722 0
M  V30 5049 H 497.243 4.36189 3.38295 0
M  V30 5050 H 497.72 2.66891 3.48806 0
M  V30 5051 H 498.326 3.67024 2.14881 0
M  V30 5052 N 496.642 -0.504142 1.49319 0
M  V30 5053 C 497.889 -1.25846 1.58647 0
M  V30 5054 C 498.217 -1.92592 0.27177 0
M  V30 5055 O 497.472 -1.81167 -0.74007 0
M  V30 5056 C 497.771 -2.35021 2.69258 0
M  V30 5057 C 497.437 -1.85755 4.1086 0
M  V30 5058 C 496.099 -1.72038 4.49395 0
M  V30 5059 C 498.451 -1.48844 4.99495 0
M  V30 5060 C 495.779 -1.19783 5.74342 0
M  V30 5061 C 498.131 -0.980422 6.24956 0
M  V30 5062 C 496.795 -0.829622 6.62324 0
M  V30 5063 H 496.065 -0.460505 0.580531 0
M  V30 5064 H 498.712 -0.559716 1.83138 0
M  V30 5065 H 497.017 -3.10672 2.38726 0
M  V30 5066 H 498.714 -2.93083 2.73685 0
M  V30 5067 H 495.304 -1.9739 3.80441 0
M  V30 5068 H 499.488 -1.5829 4.70381 0
M  V30 5069 H 494.744 -1.06817 6.01997 0
M  V30 5070 H 498.918 -0.685608 6.93017 0
M  V30 5071 H 496.545 -0.42253 7.59025 0
M  V30 5072 N 498.12 -1.38341 -0.754957 0
M  V30 5073 C 499.083 -1.35262 -1.85032 0
M  V30 5074 C 500.083 -0.253393 -1.58791 0
M  V30 5075 O 501.273 -0.510205 -1.66561 0
M  V30 5076 C 498.405 -1.10544 -3.22479 0
M  V30 5077 H 499.598 -2.32712 -1.8917 0
M  V30 5078 H 497.151 -1.23614 -0.956515 0
M  V30 5079 H 497.886 -0.136952 -3.24011 0
M  V30 5080 H 497.671 -1.90127 -3.4292 0
M  V30 5081 H 499.161 -1.11082 -4.02555 0
M  V30 5082 N 499.598 0.982988 -1.23187 0
M  V30 5083 C 500.548 2.05962 -0.977942 0
M  V30 5084 C 501.532 1.60725 0.0751148 0
M  V30 5085 O 502.724 1.76471 -0.136683 0
M  V30 5086 C 499.853 3.38564 -0.568276 0
M  V30 5087 C 498.939 3.90407 -1.6566 0
M  V30 5088 N 499.33 4.15359 -2.88635 0
M  V30 5089 C 497.628 4.18915 -1.53058 0
M  V30 5090 C 498.329 4.57642 -3.5908 0
M  V30 5091 N 497.305 4.6192 -2.86584 0
M  V30 5092 H 501.107 2.23208 -1.91195 0
M  V30 5093 H 498.621 1.16555 -1.13087 0
M  V30 5094 H 500.618 4.15276 -0.36764 0
M  V30 5095 H 499.278 3.22712 0.358713 0
M  V30 5096 H 500.289 4.03258 -3.24966 0
M  V30 5097 H 496.966 4.12081 -0.670506 0
M  V30 5098 H 498.356 4.85488 -4.6449 0
M  V30 5099 N 501.076 1.04316 1.18135 0
M  V30 5100 C 502.322 0.749128 1.88457 0
M  V30 5101 C 502.655 -0.72149 1.803 0
M  V30 5102 O 501.93 -1.52676 1.205 0
M  V30 5103 C 502.213 1.21905 3.38838 0
M  V30 5104 C 502.066 2.75195 3.55792 0
M  V30 5105 C 503.385 0.811085 4.32561 0
M  V30 5106 H 500.504 0.273611 0.684329 0
M  V30 5107 H 503.146 1.29561 1.38975 0
M  V30 5108 H 501.296 0.754137 3.8111 0
M  V30 5109 H 502.968 3.29743 3.22595 0
M  V30 5110 H 501.211 3.14899 2.98364 0
M  V30 5111 H 501.882 3.03135 4.61317 0
M  V30 5112 H 504.358 1.21118 3.98082 0
M  V30 5113 H 503.234 1.16761 5.36338 0
M  V30 5114 H 503.495 -0.285596 4.41177 0
M  V30 5115 N 502.554 -1.34406 0.822964 0
M  V30 5116 C 503.831 -1.92733 0.333641 0
M  V30 5117 C 504.211 -1.75107 -1.17901 0
M  V30 5118 O 503.559 -1.12983 -1.98613 0
M  V30 5119 C 503.769 -3.40557 0.763023 0
M  V30 5120 C 505.117 -4.17709 0.761879 0
M  V30 5121 O 506.141 -3.49141 0.705606 0
M  V30 5122 O 505 -5.40082 0.835109 0
M  V30 5123 H 502.094 -0.821964 0.0911249 0
M  V30 5124 H 504.64 -1.4338 0.907757 0
M  V30 5125 H 503.412 -3.47187 1.8049 0
M  V30 5126 H 503.035 -3.97259 0.164605 0
M  V30 5127 N 504.032 -0.577932 -1.46621 0
M  V30 5128 C 505.443 -0.150071 -1.86096 0
M  V30 5129 C 505.794 1.28563 -1.48209 0
M  V30 5130 O 504.919 1.97036 -0.894754 0
M  V30 5131 C 505.514 -0.265576 -3.37758 0
M  V30 5132 C 504.073 0.10738 -3.76247 0
M  V30 5133 C 503.22 -0.603711 -2.70649 0
M  V30 5134 H 506.171 -0.786438 -1.37844 0
M  V30 5135 H 506.192 0.510352 -3.77062 0
M  V30 5136 H 505.704 -1.3106 -3.65301 0
M  V30 5137 H 503.805 1.15272 -3.54321 0
M  V30 5138 H 503.918 -0.26561 -4.78363 0
M  V30 5139 H 502.282 -0.0444884 -2.54661 0
M  V30 5140 H 503.065 -1.65029 -3.01032 0
M  V30 5141 N 505.51 1.54411 -0.315457 0
M  V30 5142 C 506.756 2.00716 0.289972 0
M  V30 5143 C 507.089 1.2034 1.5242 0
M  V30 5144 O 506.364 0.283579 1.92422 0
M  V30 5145 C 506.647 3.54507 0.632196 0
M  V30 5146 C 506.5 4.45615 -0.61218 0
M  V30 5147 C 507.819 4.15421 1.45305 0
M  V30 5148 H 504.938 0.729637 0.10392 0
M  V30 5149 H 507.58 1.8506 -0.430427 0
M  V30 5150 H 505.73 3.67979 1.24595 0
M  V30 5151 H 507.402 4.44026 -1.25053 0
M  V30 5152 H 505.645 4.15621 -1.24264 0
M  V30 5153 H 506.316 5.51022 -0.328379 0
M  V30 5154 H 508.792 4.05474 0.934331 0
M  V30 5155 H 507.668 5.23157 1.66127 0
M  V30 5156 H 507.929 3.68223 2.44671 0
M  V30 5157 N 506.988 0.0434614 1.5754 0
M  V30 5158 C 507.935 -0.93356 2.11077 0
M  V30 5159 C 508.905 -1.31383 1.01626 0
M  V30 5160 O 510.09 -1.40465 1.29129 0
M  V30 5161 C 507.23 -2.20578 2.65404 0
M  V30 5162 C 506.343 -1.88068 3.88914 0
M  V30 5163 C 505.478 -3.09691 4.31584 0
M  V30 5164 C 504.517 -2.73067 5.47815 0
M  V30 5165 N 503.654 -3.87359 5.85574 0
M  V30 5166 H 508.494 -0.470118 2.94268 0
M  V30 5167 H 506.031 -0.220434 1.45439 0
M  V30 5168 H 507.989 -2.95011 2.94999 0
M  V30 5169 H 506.619 -2.64513 1.85021 0
M  V30 5170 H 505.671 -1.03816 3.6596 0
M  V30 5171 H 506.983 -1.57104 4.73413 0
M  V30 5172 H 506.137 -3.92431 4.62691 0
M  V30 5173 H 504.876 -3.43827 3.45882 0
M  V30 5174 H 503.881 -1.88742 5.16388 0
M  V30 5175 H 505.106 -2.40131 6.35227 0
M  V30 5176 H 503.052 -4.21311 5.02825 0
M  V30 5177 H 502.969 -3.60068 6.64746 0
M  V30 5178 H 504.237 -4.70761 6.21292 0
M  V30 5179 N 508.466 -1.55915 -0.229846 0
M  V30 5180 C 509.376 -1.94891 -1.30593 0
M  V30 5181 C 510.392 -0.851604 -1.51736 0
M  V30 5182 O 511.568 -1.15447 -1.65027 0
M  V30 5183 C 508.633 -2.25052 -2.63728 0
M  V30 5184 C 507.694 -3.48306 -2.5096 0
M  V30 5185 C 506.927 -3.77019 -3.77747 0
M  V30 5186 O 507.15 -3.07534 -4.80395 0
M  V30 5187 O 506.084 -4.70523 -3.75356 0
M  V30 5188 H 509.91 -2.86581 -1.00525 0
M  V30 5189 H 507.495 -1.43017 -0.432025 0
M  V30 5190 H 509.377 -2.45682 -3.42372 0
M  V30 5191 H 508.052 -1.36538 -2.93495 0
M  V30 5192 H 506.959 -3.32964 -1.70546 0
M  V30 5193 H 508.292 -4.37177 -2.26136 0
M  V30 5194 N 509.944 0.496216 -1.49584 0
M  V30 5195 C 511.355 1.07765 -1.52459 0
M  V30 5196 C 511.706 1.93679 -0.31353 0
M  V30 5197 O 510.831 2.08588 0.576186 0
M  V30 5198 C 511.426 1.96111 -2.76271 0
M  V30 5199 C 509.985 2.49409 -2.81908 0
M  V30 5200 C 509.132 1.27142 -2.46435 0
M  V30 5201 H 512.083 0.279914 -1.56212 0
M  V30 5202 H 512.104 2.80862 -2.56704 0
M  V30 5203 H 511.616 1.33555 -3.64396 0
M  V30 5204 H 509.717 3.1559 -1.98074 0
M  V30 5205 H 509.83 2.86234 -3.84196 0
M  V30 5206 H 508.194 1.59818 -1.98319 0
M  V30 5207 H 508.977 0.662866 -3.3684 0
M  V30 5208 N 511.423 1.38739 0.74761 0
M  V30 5209 C 512.672 1.3459 1.50228 0
M  V30 5210 C 512.985 -0.0595592 1.95509 0
M  V30 5211 O 514.191 -0.22361 2.70578 0
M  V30 5212 C 512.647 2.36377 2.71393 0
M  V30 5213 C 512.255 3.82573 2.33113 0
M  V30 5214 C 513.999 2.41281 3.49262 0
M  V30 5215 C 511.906 4.76032 3.50924 0
M  V30 5216 H 510.836 0.500312 0.564096 0
M  V30 5217 H 513.487 1.64324 0.8167 0
M  V30 5218 H 511.869 1.99694 3.41962 0
M  V30 5219 H 513.043 4.28227 1.70171 0
M  V30 5220 H 511.358 3.80844 1.68365 0
M  V30 5221 H 513.955 3.08301 4.36869 0
M  V30 5222 H 514.298 1.43353 3.9084 0
M  V30 5223 H 514.831 2.76793 2.85711 0
M  V30 5224 H 511.57 5.75177 3.14408 0
M  V30 5225 H 511.09 4.35066 4.12889 0
M  V30 5226 H 512.769 4.94331 4.17427 0
M  V30 5227 N 512.901 -0.976442 1.23707 0
M  V30 5228 C 514.312 -1.53284 1.06587 0
M  V30 5229 C 514.663 -1.92765 -0.365526 0
M  V30 5230 O 513.788 -1.7645 -1.25277 0
M  V30 5231 C 514.383 -2.78548 1.92864 0
M  V30 5232 C 512.942 -3.30574 1.79994 0
M  V30 5233 C 512.089 -2.03538 1.88328 0
M  V30 5234 H 515.04 -0.795692 1.37311 0
M  V30 5235 H 515.061 -3.5155 1.45577 0
M  V30 5236 H 514.573 -2.49782 2.97037 0
M  V30 5237 H 512.674 -3.64211 0.786202 0
M  V30 5238 H 512.787 -4.00065 2.636 0
M  V30 5239 H 511.151 -2.17853 1.31954 0
M  V30 5240 H 511.934 -1.77149 2.94063 0
M  V30 5241 N 514.379 -1.04941 -1.1758 0
M  V30 5242 C 515.625 -0.759112 -1.88057 0
M  V30 5243 C 515.958 0.711918 -1.8068 0
M  V30 5244 O 515.233 1.52035 -1.21308 0
M  V30 5245 C 515.516 -1.237 -3.38187 0
M  V30 5246 C 515.369 -2.77078 -3.54327 0
M  V30 5247 C 516.688 -0.834014 -4.32125 0
M  V30 5248 H 513.807 -0.277237 -0.682868 0
M  V30 5249 H 516.449 -1.30296 -1.38286 0
M  V30 5250 H 514.599 -0.774337 -3.80705 0
M  V30 5251 H 516.271 -3.31449 -3.20842 0
M  V30 5252 H 514.514 -3.16477 -2.96689 0
M  V30 5253 H 515.185 -3.05577 -4.59703 0
M  V30 5254 H 517.661 -1.23228 -3.97434 0
M  V30 5255 H 516.537 -1.19603 -5.35711 0
M  V30 5256 H 516.798 0.262195 -4.41322 0
M  V30 5257 N 515.857 1.33968 -0.830081 0
M  V30 5258 C 517.106 1.97323 -0.417928 0
M  V30 5259 C 517.419 1.6652 1.02618 0
M  V30 5260 O 518.625 2.2342 1.54259 0
M  V30 5261 C 517.081 3.53099 -0.696359 0
M  V30 5262 C 516.689 3.92788 -2.15457 0
M  V30 5263 C 518.433 4.23049 -0.350724 0
M  V30 5264 C 516.34 5.41506 -2.37751 0
M  V30 5265 H 515.27 0.738409 -0.152541 0
M  V30 5266 H 517.921 1.52711 -1.01744 0
M  V30 5267 H 516.303 3.95991 -0.0265904 0
M  V30 5268 H 517.477 3.6098 -2.86408 0
M  V30 5269 H 515.792 3.35795 -2.46232 0
M  V30 5270 H 518.389 5.32403 -0.495036 0
M  V30 5271 H 518.732 4.10279 0.705476 0
M  V30 5272 H 519.265 3.85657 -0.975362 0
M  V30 5273 H 516.004 5.5927 -3.41903 0
M  V30 5274 H 515.524 5.74804 -1.7135 0
M  V30 5275 H 517.203 6.0828 -2.20465 0
M  V30 5276 N 517.335 0.585699 1.46312 0
M  V30 5277 C 518.746 0.159938 1.86014 0
M  V30 5278 C 519.097 -1.27775 1.48889 0
M  V30 5279 O 518.222 -1.96559 0.90519 0
M  V30 5280 C 518.817 0.283485 3.37612 0
M  V30 5281 C 517.376 -0.0874256 3.76298 0
M  V30 5282 C 516.523 0.618055 2.70325 0
M  V30 5283 H 519.474 0.793737 1.37425 0
M  V30 5284 H 519.495 -0.490348 3.77327 0
M  V30 5285 H 519.007 1.32995 3.64601 0
M  V30 5286 H 517.108 -1.13391 3.54927 0
M  V30 5287 H 517.221 0.290975 4.78216 0
M  V30 5288 H 515.585 0.057993 2.54634 0
M  V30 5289 H 516.368 1.66623 3.00153 0
M  V30 5290 N 518.813 -1.54241 0.323641 0
M  V30 5291 C 520.041 -2.04985 -0.280871 0
M  V30 5292 C 520.456 -1.19978 -1.45777 0
M  V30 5293 O 519.813 -0.230471 -1.81039 0
M  V30 5294 C 519.864 -3.54353 -0.715258 0
M  V30 5295 O 519.585 -4.36132 0.414817 0
M  V30 5296 C 521.086 -4.21189 -1.38257 0
M  V30 5297 H 518.306 -0.66851 -0.0577502 0
M  V30 5298 H 520.85 -1.99029 0.469852 0
M  V30 5299 H 519.005 -3.60596 -1.41596 0
M  V30 5300 H 519.419 -5.2445 0.0725227 0
M  V30 5301 H 520.893 -5.27154 -1.63745 0
M  V30 5302 H 521.37 -3.72307 -2.32989 0
M  V30 5303 H 521.976 -4.19085 -0.724447 0
M  V30 5304 N 520.291 -0.0518155 -1.57515 0
M  V30 5305 C 521.531 0.625712 -1.94587 0
M  V30 5306 C 521.895 1.6797 -0.930053 0
M  V30 5307 O 523.096 2.41135 -1.18774 0
M  V30 5308 C 521.367 1.20574 -3.36447 0
M  V30 5309 S 522.926 1.90118 -3.95475 0
M  V30 5310 H 519.744 0.205434 -0.680675 0
M  V30 5311 H 522.346 -0.120906 -1.95126 0
M  V30 5312 H 521.05 0.426521 -4.08178 0
M  V30 5313 H 520.581 1.98916 -3.39405 0
M  V30 5314 H 522.596 3.18184 -3.80753 0
M  V30 5315 N 521.769 1.56035 0.221574 0
M  V30 5316 C 522.719 1.8881 1.27807 0
M  V30 5317 C 523.703 0.751177 1.42289 0
M  V30 5318 O 524.895 1.01359 1.45104 0
M  V30 5319 C 522.024 2.20828 2.6285 0
M  V30 5320 C 521.11 3.40912 2.52269 0
M  V30 5321 N 521.501 4.59531 2.1134 0
M  V30 5322 C 519.799 3.44526 2.83228 0
M  V30 5323 C 520.5 5.41689 2.1201 0
M  V30 5324 N 519.476 4.814 2.52497 0
M  V30 5325 H 523.278 2.78036 0.952529 0
M  V30 5326 H 520.792 1.566 0.430134 0
M  V30 5327 H 522.789 2.42483 3.39127 0
M  V30 5328 H 521.449 1.32914 2.9625 0
M  V30 5329 H 522.46 4.8469 1.82472 0
M  V30 5330 H 519.137 2.66956 3.21 0
M  V30 5331 H 520.527 6.46643 1.82491 0
M  V30 5332 N 523.247 -0.488276 1.49845 0
M  V30 5333 C 524.477 -1.26344 1.63465 0
M  V30 5334 C 524.885 -1.86637 0.310379 0
M  V30 5335 O 524.228 -1.69184 -0.715712 0
M  V30 5336 C 524.29 -2.42407 2.65479 0
M  V30 5337 C 523.954 -2.02886 4.09495 0
M  V30 5338 C 524.951 -1.56124 4.95904 0
M  V30 5339 C 522.636 -2.12131 4.55308 0
M  V30 5340 C 524.63 -1.19129 6.26169 0
M  V30 5341 C 522.317 -1.74747 5.85582 0
M  V30 5342 C 523.315 -1.28322 6.70837 0
M  V30 5343 O 523.003 -0.914491 7.98682 0
M  V30 5344 H 522.735 -0.388921 0.552916 0
M  V30 5345 H 525.289 -0.591288 1.96705 0
M  V30 5346 H 523.519 -3.12739 2.27445 0
M  V30 5347 H 525.208 -3.04409 2.68495 0
M  V30 5348 H 525.974 -1.48417 4.61733 0
M  V30 5349 H 521.853 -2.47217 3.89107 0
M  V30 5350 H 525.397 -0.828211 6.92666 0
M  V30 5351 H 521.294 -1.82109 6.19279 0
M  V30 5352 H 522.062 -1.04485 8.11804 0
M  V30 5353 N 524.725 -1.39134 -0.740242 0
M  V30 5354 C 525.658 -1.3182 -1.86276 0
M  V30 5355 C 526.636 -0.192794 -1.61453 0
M  V30 5356 O 527.82 -0.372365 -1.84786 0
M  V30 5357 C 524.947 -1.04564 -3.22155 0
M  V30 5358 C 523.993 -2.19224 -3.65846 0
M  V30 5359 S 524.826 -3.81466 -3.75824 0
M  V30 5360 C 525.982 -3.56425 -5.14502 0
M  V30 5361 H 526.215 -2.26822 -1.92195 0
M  V30 5362 H 523.748 -1.25127 -0.904576 0
M  V30 5363 H 525.706 -0.895228 -4.00619 0
M  V30 5364 H 524.367 -0.112578 -3.13898 0
M  V30 5365 H 523.56 -1.95732 -4.6444 0
M  V30 5366 H 523.162 -2.30441 -2.94572 0
M  V30 5367 H 525.454 -3.13366 -6.00673 0
M  V30 5368 H 526.397 -4.54462 -5.43019 0
M  V30 5369 H 526.805 -2.90641 -4.8393 0
M  V30 5370 N 526.204 0.969867 -1.24223 0
M  V30 5371 C 527.137 2.06279 -0.975926 0
M  V30 5372 C 528.115 1.62353 0.0895385 0
M  V30 5373 O 529.299 1.88442 -0.0469418 0
M  V30 5374 C 526.426 3.35391 -0.472315 0
M  V30 5375 C 525.472 3.98266 -1.526 0
M  V30 5376 S 526.305 4.36172 -3.10667 0
M  V30 5377 C 527.461 5.68423 -2.62003 0
M  V30 5378 H 527.694 2.28551 -1.90137 0
M  V30 5379 H 525.227 1.10748 -1.07584 0
M  V30 5380 H 527.185 4.10068 -0.188376 0
M  V30 5381 H 525.846 3.1111 0.432378 0
M  V30 5382 H 525.039 4.91307 -1.12399 0
M  V30 5383 H 524.641 3.30009 -1.75983 0
M  V30 5384 H 526.933 6.45842 -2.0468 0
M  V30 5385 H 527.876 6.13478 -3.53625 0
M  V30 5386 H 528.284 5.26928 -2.02502 0
M  V30 5387 N 527.682 1.05563 1.17022 0
M  V30 5388 C 528.93 0.76642 1.87004 0
M  V30 5389 C 529.251 -0.708854 1.8166 0
M  V30 5390 O 528.521 -1.51242 1.2451 0
M  V30 5391 H 527.101 0.280516 0.692329 0
M  V30 5392 H 529.763 1.33557 1.41945 0
M  V30 5393 H 528.859 1.08472 2.92644 0
M  V30 5394 N 529.16 -1.33526 0.837174 0
M  V30 5395 C 530.408 -1.97446 0.431211 0
M  V30 5396 C 530.729 -1.6665 -1.01255 0
M  V30 5397 O 529.999 -0.964559 -1.70508 0
M  V30 5398 H 528.579 -0.73043 0.156463 0
M  V30 5399 H 531.241 -1.62918 1.06976 0
M  V30 5400 H 530.337 -3.07001 0.561877 0
M  V30 5401 N 530.638 -0.59345 -1.46 0
M  V30 5402 C 531.887 -0.0808084 -2.01538 0
M  V30 5403 C 532.2 1.29112 -1.46934 0
M  V30 5404 O 533.406 1.8957 -1.94359 0
M  V30 5405 C 531.862 -0.0938311 -3.59778 0
M  V30 5406 C 531.47 -1.46474 -4.23379 0
M  V30 5407 C 533.214 0.364306 -4.22934 0
M  V30 5408 C 531.121 -1.4349 -5.73729 0
M  V30 5409 H 530.051 -0.0264407 -0.753536 0
M  V30 5410 H 532.702 -0.746689 -1.67621 0
M  V30 5411 H 531.084 0.638427 -3.9082 0
M  V30 5412 H 532.258 -2.21758 -4.03931 0
M  V30 5413 H 530.573 -1.86379 -3.7236 0
M  V30 5414 H 533.17 0.405584 -5.3316 0
M  V30 5415 H 533.513 1.38409 -3.92618 0
M  V30 5416 H 534.046 -0.31423 -3.96557 0
M  V30 5417 H 530.785 -2.43184 -6.08722 0
M  V30 5418 H 530.305 -0.724431 -5.95409 0
M  V30 5419 H 531.984 -1.15243 -6.36654 0
M  V30 5420 N 532.116 1.54067 -0.331816 0
M  V30 5421 C 533.527 1.86059 0.15454 0
M  V30 5422 C 533.878 1.25331 1.50952 0
M  V30 5423 O 533.003 0.562441 2.08963 0
M  V30 5424 C 533.598 3.37581 0.287192 0
M  V30 5425 C 532.157 3.69493 0.717773 0
M  V30 5426 C 531.304 2.76863 -0.155569 0
M  V30 5427 H 534.255 1.48797 -0.55182 0
M  V30 5428 H 534.276 3.63744 1.11671 0
M  V30 5429 H 533.788 3.81751 -0.699131 0
M  V30 5430 H 531.889 3.3086 1.71354 0
M  V30 5431 H 532.002 4.76315 0.5158 0
M  V30 5432 H 530.366 2.51995 0.370213 0
M  V30 5433 H 531.149 3.23861 -1.13881 0
M  V30 5434 N 533.594 0.0601682 1.57485 0
M  V30 5435 C 534.822 -0.620937 1.97363 0
M  V30 5436 C 535.237 -1.63846 0.938082 0
M  V30 5437 O 534.594 -1.82339 -0.0766578 0
M  V30 5438 C 534.645 -1.29987 3.37321 0
M  V30 5439 O 534.366 -0.323081 4.36907 0
M  V30 5440 C 535.867 -2.06989 3.92008 0
M  V30 5441 H 533.087 -0.169135 0.649334 0
M  V30 5442 H 535.631 0.129132 2.04092 0
M  V30 5443 H 533.786 -2.0011 3.31715 0
M  V30 5444 H 534.2 -0.808754 5.18227 0
M  V30 5445 H 535.674 -2.49901 4.92192 0
M  V30 5446 H 536.151 -2.92173 3.2792 0
M  V30 5447 H 536.757 -1.41757 4.0098 0
M  V30 5448 N 535.072 -1.5615 -0.213296 0
M  V30 5449 C 536.019 -1.93086 -1.26437 0
M  V30 5450 C 536.989 -0.789086 -1.4616 0
M  V30 5451 O 538.174 -1.04569 -1.59593 0
M  V30 5452 C 535.314 -2.26003 -2.608 0
M  V30 5453 C 534.427 -3.53156 -2.48807 0
M  V30 5454 C 533.562 -3.7548 -3.7575 0
M  V30 5455 C 532.601 -4.96119 -3.58514 0
M  V30 5456 N 531.738 -5.14791 -4.77425 0
M  V30 5457 H 536.578 -2.82707 -0.942376 0
M  V30 5458 H 534.115 -1.39919 -0.454001 0
M  V30 5459 H 536.073 -2.431 -3.39055 0
M  V30 5460 H 534.703 -1.39546 -2.91079 0
M  V30 5461 H 533.755 -3.44207 -1.61944 0
M  V30 5462 H 535.067 -4.41565 -2.31996 0
M  V30 5463 H 534.221 -3.92718 -4.62447 0
M  V30 5464 H 532.96 -2.85368 -3.95495 0
M  V30 5465 H 531.965 -4.78823 -2.70201 0
M  V30 5466 H 533.19 -5.87724 -3.40231 0
M  V30 5467 H 531.136 -4.27623 -4.97468 0
M  V30 5468 H 531.053 -5.97347 -4.63371 0
M  V30 5469 H 532.321 -5.36471 -5.65525 0
M  V30 5470 N 536.55 0.480323 -1.50102 0
M  V30 5471 C 537.796 1.23489 -1.60867 0
M  V30 5472 C 538.129 1.91809 -0.303827 0
M  V30 5473 O 537.404 1.81694 0.694092 0
M  V30 5474 C 537.687 2.28578 -2.78252 0
M  V30 5475 C 537.54 1.64624 -4.18592 0
M  V30 5476 C 538.859 3.2997 -2.91218 0
M  V30 5477 H 535.978 0.447605 -0.585507 0
M  V30 5478 H 538.62 0.530005 -1.82458 0
M  V30 5479 H 536.77 2.88697 -2.59974 0
M  V30 5480 H 538.442 1.08173 -4.48438 0
M  V30 5481 H 536.685 0.949645 -4.23278 0
M  V30 5482 H 537.356 2.40946 -4.96638 0
M  V30 5483 H 539.832 2.79864 -3.07921 0
M  V30 5484 H 538.708 4.00839 -3.74993 0
M  V30 5485 H 538.969 3.93541 -2.0144 0
M  V30 5486 N 538.028 1.39524 0.732853 0
M  V30 5487 C 539.256 1.40143 1.52209 0
M  V30 5488 C 539.671 -0.00348836 1.888 0
M  V30 5489 O 539.028 -0.975357 1.5425 0
M  V30 5490 C 539.079 2.27632 2.8083 0
M  V30 5491 O 538.8 3.62654 2.45792 0
M  V30 5492 C 540.301 2.36658 3.74844 0
M  V30 5493 H 537.521 0.478604 0.470297 0
M  V30 5494 H 540.065 1.83366 0.905388 0
M  V30 5495 H 538.22 1.87818 3.38826 0
M  V30 5496 H 538.634 4.08941 3.28431 0
M  V30 5497 H 540.108 3.02118 4.61984 0
M  V30 5498 H 540.585 1.38638 4.16745 0
M  V30 5499 H 541.191 2.76951 3.22766 0
M  V30 5500 N 539.506 -0.963266 1.24736 0
M  V30 5501 C 540.754 -1.70343 1.08755 0
M  V30 5502 C 541.075 -1.91387 -0.373619 0
M  V30 5503 O 540.345 -1.4948 -1.2662 0
M  V30 5504 H 538.925 -0.631224 0.399456 0
M  V30 5505 H 541.587 -1.15859 1.56725 0
M  V30 5506 H 540.683 -2.68616 1.58909 0
M  V30 5507 N 540.985 -1.06182 -1.16461 0
M  V30 5508 C 541.917 -0.629584 -2.20383 0
M  V30 5509 C 542.93 0.311834 -1.59786 0
M  V30 5510 O 544.119 0.103 -1.78203 0
M  V30 5511 C 541.219 0.0973695 -3.3876 0
M  V30 5512 C 540.392 -0.857252 -4.28917 0
M  V30 5513 C 539.451 -0.169749 -5.25926 0
M  V30 5514 O 538.477 -0.807044 -5.6345 0
M  V30 5515 N 539.679 1.08911 -5.70192 0
M  V30 5516 H 542.444 -1.52352 -2.58087 0
M  V30 5517 H 540.005 -0.944993 -1.31459 0
M  V30 5518 H 541.997 0.567676 -4.00699 0
M  V30 5519 H 540.567 0.893093 -2.99571 0
M  V30 5520 H 539.787 -1.50696 -3.64259 0
M  V30 5521 H 541.075 -1.50489 -4.86035 0
M  V30 5522 H 540.473 1.62703 -5.41797 0
M  V30 5523 H 539.03 1.50331 -6.34227 0
M  V30 5524 N 542.463 1.3308 -0.844243 0
M  V30 5525 C 543.426 2.27403 -0.286485 0
M  V30 5526 C 544.426 1.51179 0.547872 0
M  V30 5527 O 545.616 1.70421 0.360886 0
M  V30 5528 C 542.748 3.35653 0.595813 0
M  V30 5529 H 543.941 2.78248 -1.11885 0
M  V30 5530 H 541.494 1.43574 -0.617749 0
M  V30 5531 H 542.229 2.90058 1.4504 0
M  V30 5532 H 542.014 3.921 -0.00125994 0
M  V30 5533 H 543.504 4.05958 0.979168 0
M  V30 5534 N 543.941 0.601185 1.45683 0
M  V30 5535 C 544.871 -0.108824 2.33246 0
M  V30 5536 C 545.852 -0.865223 1.46451 0
M  V30 5537 O 547.037 -0.83704 1.75235 0
M  V30 5538 C 544.167 -1.11101 3.2905 0
M  V30 5539 C 543.121 -0.468244 4.25431 0
M  V30 5540 C 542.447 -1.57822 5.10878 0
M  V30 5541 C 543.747 0.606469 5.18767 0
M  V30 5542 H 545.441 0.622306 2.92861 0
M  V30 5543 H 542.987 0.300714 1.40825 0
M  V30 5544 H 544.94 -1.61622 3.89174 0
M  V30 5545 H 543.664 -1.87265 2.67581 0
M  V30 5546 H 542.323 0.0160484 3.66596 0
M  V30 5547 H 541.971 -2.32998 4.45781 0
M  V30 5548 H 541.671 -1.15369 5.76163 0
M  V30 5549 H 543.195 -2.08583 5.73869 0
M  V30 5550 H 544.609 0.185589 5.73 0
M  V30 5551 H 543.006 0.952381 5.92494 0
M  V30 5552 H 544.076 1.48559 4.61582 0
M  V30 5553 N 545.419 -1.53889 0.339982 0
M  V30 5554 C 546.647 -2.05271 -0.259114 0
M  V30 5555 C 547.062 -1.21517 -1.44496 0
M  V30 5556 O 546.419 -0.24966 -1.80784 0
M  V30 5557 C 546.47 -3.55092 -0.677634 0
M  V30 5558 O 546.191 -4.35667 0.461051 0
M  V30 5559 C 547.692 -4.22631 -1.33782 0
M  V30 5560 H 544.912 -0.669085 -0.0506566 0
M  V30 5561 H 547.456 -1.9852 0.490935 0
M  V30 5562 H 545.611 -3.62077 -1.37763 0
M  V30 5563 H 546.025 -5.24343 0.128144 0
M  V30 5564 H 547.499 -5.28861 -1.58145 0
M  V30 5565 H 547.976 -3.74758 -2.29027 0
M  V30 5566 H 548.582 -4.19829 -0.679957 0
M  V30 5567 N 546.897 -0.0685191 -1.57451 0
M  V30 5568 C 548.143 0.602239 -1.93652 0
M  V30 5569 C 548.476 1.6946 -0.948526 0
M  V30 5570 O 547.751 1.94487 0.022782 0
M  V30 5571 C 548.034 1.18223 -3.4014 0
M  V30 5572 C 547.887 0.0967431 -4.49696 0
M  V30 5573 C 549.206 2.08872 -3.87377 0
M  V30 5574 H 546.325 0.217453 -0.70419 0
M  V30 5575 H 548.967 -0.133821 -1.89528 0
M  V30 5576 H 547.117 1.80953 -3.43785 0
M  V30 5577 H 548.789 -0.536155 -4.58174 0
M  V30 5578 H 547.032 -0.573063 -4.29998 0
M  V30 5579 H 547.703 0.542894 -5.49324 0
M  V30 5580 H 550.179 1.56081 -3.85717 0
M  V30 5581 H 549.055 2.46389 -4.90493 0
M  V30 5582 H 549.316 2.99572 -3.25129 0
M  V30 5583 N 548.375 1.56261 0.205012 0
M  V30 5584 C 549.323 1.94631 1.27364 0
M  V30 5585 C 550.317 0.830434 1.47649 0
M  V30 5586 O 551.523 1.01538 1.48627 0
M  V30 5587 H 547.898 0.618755 0.427371 0
M  V30 5588 H 549.869 2.83768 0.922941 0
M  V30 5589 C 548.618 2.29358 2.61324 0
M  V30 5590 H 547.941 3.14744 2.46528 0
M  V30 5591 H 549.381 2.60076 3.34868 0
M  V30 5592 C 547.84 1.12461 3.17575 0
M  V30 5593 O 548.37 0.394407 3.99759 0
M  V30 5594 N 546.576 0.904036 2.7618 0
M  V30 5595 H 546.123 1.49956 2.09454 0
M  V30 5596 H 546.081 0.123662 3.14157 0
M  V30 5597 N 549.853 -0.472356 1.50355 0
M  V30 5598 C 550.763 -1.59637 1.7191 0
M  V30 5599 C 551.779 -1.63247 0.602195 0
M  V30 5600 O 552.955 -1.81139 0.880369 0
M  V30 5601 C 550.02 -2.9586 1.80742 0
M  V30 5602 C 549.081 -3.02649 3.04471 0
M  V30 5603 C 548.314 -4.32374 3.12872 0
M  V30 5604 O 548.537 -5.22807 2.28099 0
M  V30 5605 O 547.471 -4.44728 4.05587 0
M  V30 5606 H 551.297 -1.44373 2.67189 0
M  V30 5607 H 548.882 -0.651717 1.34436 0
M  V30 5608 H 550.764 -3.7677 1.88739 0
M  V30 5609 H 549.439 -3.11325 0.88647 0
M  V30 5610 H 548.346 -2.20821 3.01975 0
M  V30 5611 H 549.679 -2.92119 3.9614 0
M  V30 5612 N 551.331 -1.39911 -0.725443 0
M  V30 5613 C 552.278 -1.39393 -1.83952 0
M  V30 5614 C 553.248 -0.252249 -1.64173 0
M  V30 5615 O 554.433 -0.44882 -1.85446 0
M  V30 5616 C 551.573 -1.25262 -3.21564 0
M  V30 5617 C 550.686 -2.49054 -3.52982 0
M  V30 5618 C 549.821 -2.27439 -4.80047 0
M  V30 5619 C 548.86 -3.46857 -5.04338 0
M  V30 5620 N 547.997 -3.24499 -6.22611 0
M  V30 5621 H 552.837 -2.34622 -1.83729 0
M  V30 5622 H 550.374 -1.16537 -0.897636 0
M  V30 5623 H 552.332 -1.15077 -4.01015 0
M  V30 5624 H 550.962 -0.33657 -3.21041 0
M  V30 5625 H 550.014 -2.69805 -2.6816 0
M  V30 5626 H 551.326 -3.37973 -3.66846 0
M  V30 5627 H 550.48 -2.14551 -5.67497 0
M  V30 5628 H 549.219 -1.35929 -4.68374 0
M  V30 5629 H 548.224 -3.60232 -4.15346 0
M  V30 5630 H 549.449 -4.3928 -5.17889 0
M  V30 5631 H 547.395 -2.35663 -6.12208 0
M  V30 5632 H 547.312 -4.06978 -6.37106 0
M  V30 5633 H 548.58 -3.15325 -7.12875 0
M  V30 5634 N 552.809 0.956637 -1.25245 0
M  V30 5635 C 554.057 1.69764 -1.09657 0
M  V30 5636 C 554.378 1.91583 0.363464 0
M  V30 5637 O 553.648 1.50149 1.25825 0
M  V30 5638 H 552.228 0.629097 -0.402798 0
M  V30 5639 H 554.89 1.15026 -1.57337 0
M  V30 5640 H 553.986 2.67769 -1.60331 0
M  V30 5641 N 554.287 1.06798 1.15896 0
M  V30 5642 C 555.197 0.694564 2.24083 0
M  V30 5643 C 556.213 -0.291687 1.71538 0
M  V30 5644 O 557.389 -0.139723 2.00915 0
M  V30 5645 C 554.454 0.0921014 3.46578 0
M  V30 5646 C 553.515 1.13087 4.14137 0
M  V30 5647 C 552.748 0.557064 5.30785 0
M  V30 5648 O 552.971 -0.628623 5.66925 0
M  V30 5649 O 551.905 1.29924 5.8771 0
M  V30 5650 H 555.731 1.59663 2.58344 0
M  V30 5651 H 553.316 0.840575 1.2351 0
M  V30 5652 H 555.198 -0.241884 4.20705 0
M  V30 5653 H 553.873 -0.78337 3.14078 0
M  V30 5654 H 552.78 1.51712 3.41957 0
M  V30 5655 H 554.113 1.97805 4.50704 0
M  V30 5656 N 555.766 -1.3263 0.851289 0
M  V30 5657 C 557.043 -1.91982 0.374448 0
M  V30 5658 C 557.423 -1.77568 -1.14161 0
M  V30 5659 O 556.771 -1.1717 -1.96172 0
M  V30 5660 C 556.981 -3.38862 0.835088 0
M  V30 5661 C 558.329 -4.15999 0.850309 0
M  V30 5662 O 559.353 -3.47566 0.779505 0
M  V30 5663 O 558.212 -5.38189 0.949481 0
M  V30 5664 H 555.306 -0.819846 0.10854 0
M  V30 5665 H 557.852 -1.41422 0.937966 0
M  V30 5666 H 556.624 -3.43281 1.87814 0
M  V30 5667 H 556.247 -3.96821 0.248833 0
M  V30 5668 N 557.244 -0.608902 -1.45362 0
M  V30 5669 C 558.49 -0.104762 -2.02529 0
M  V30 5670 C 558.823 1.26191 -1.47613 0
M  V30 5671 O 558.098 1.8327 -0.65134 0
M  V30 5672 C 558.381 -0.0672661 -3.60037 0
M  V30 5673 C 558.234 -1.4647 -4.25284 0
M  V30 5674 C 559.553 0.619877 -4.35713 0
M  V30 5675 H 556.672 -0.0395438 -0.735938 0
M  V30 5676 H 559.314 -0.781126 -1.73201 0
M  V30 5677 H 557.464 0.50871 -3.85155 0
M  V30 5678 H 559.136 -2.08785 -4.11347 0
M  V30 5679 H 557.379 -2.02502 -3.83634 0
M  V30 5680 H 558.05 -1.39069 -5.34195 0
M  V30 5681 H 560.526 0.130297 -4.15896 0
M  V30 5682 H 559.402 0.615224 -5.45441 0
M  V30 5683 H 559.663 1.68621 -4.0868 0
M  V30 5684 N 558.722 1.53707 -0.348139 0
M  V30 5685 C 559.968 2.01286 0.247332 0
M  V30 5686 C 560.301 1.23546 1.49834 0
M  V30 5687 O 559.576 0.324331 1.91777 0
M  V30 5688 C 559.859 3.55768 0.556858 0
M  V30 5689 C 559.712 4.44216 -0.706564 0
M  V30 5690 C 561.031 4.1841 1.3646 0
M  V30 5691 H 558.15 0.731677 0.0884201 0
M  V30 5692 H 560.792 1.84106 -0.469584 0
M  V30 5693 H 558.942 3.70539 1.16761 0
M  V30 5694 H 560.614 4.41274 -1.34444 0
M  V30 5695 H 558.857 4.12892 -1.33052 0
M  V30 5696 H 559.528 5.50202 -0.445186 0
M  V30 5697 H 562.004 4.07365 0.848113 0
M  V30 5698 H 560.88 5.26563 1.54992 0
M  V30 5699 H 561.141 3.7333 2.36805 0
M  V30 5700 N 560.2 0.0768682 1.57412 0
M  V30 5701 C 561.446 -0.591961 1.93968 0
M  V30 5702 C 561.779 -1.68954 0.9575 0
M  V30 5703 O 561.054 -1.94496 -0.0124675 0
M  V30 5704 C 561.337 -1.16418 3.40762 0
M  V30 5705 C 561.19 -0.0728933 4.49741 0
M  V30 5706 C 562.509 -2.06814 3.88479 0
M  V30 5707 H 559.628 -0.213716 0.705333 0
M  V30 5708 H 562.27 0.14387 1.89455 0
M  V30 5709 H 560.42 -1.79128 3.4474 0
M  V30 5710 H 562.092 0.560446 4.57883 0
M  V30 5711 H 560.335 0.595859 4.29688 0
M  V30 5712 H 561.006 -0.513755 5.49604 0
M  V30 5713 H 563.482 -1.54033 3.8654 0
M  V30 5714 H 562.358 -2.43785 4.91793 0
M  V30 5715 H 562.619 -2.97844 3.26713 0
M  V30 5716 N 561.678 -1.56367 -0.196722 0
M  V30 5717 C 563.089 -1.70462 -0.761545 0
M  V30 5718 C 563.44 -0.683161 -1.83922 0
M  V30 5719 O 562.565 0.160753 -2.15802 0
M  V30 5720 C 563.16 -3.09057 -1.38814 0
M  V30 5721 C 561.719 -3.24922 -1.90007 0
M  V30 5722 C 560.866 -2.66412 -0.769399 0
M  V30 5723 H 563.817 -1.58675 0.0283263 0
M  V30 5724 H 563.838 -3.06296 -2.2575 0
M  V30 5725 H 563.35 -3.83378 -0.603559 0
M  V30 5726 H 561.451 -2.55514 -2.71189 0
M  V30 5727 H 561.564 -4.3241 -2.06297 0
M  V30 5728 H 559.928 -2.25546 -1.18326 0
M  V30 5729 H 560.711 -3.433 0.00291773 0
M  V30 5730 N 563.156 0.464375 -1.50603 0
M  V30 5731 C 564.404 1.21356 -1.61608 0
M  V30 5732 C 564.725 1.92329 -0.321643 0
M  V30 5733 O 563.995 1.84403 0.661232 0
M  V30 5734 H 562.575 0.45094 -0.595535 0
M  V30 5735 H 565.237 0.535046 -1.87412 0
M  V30 5736 H 564.333 1.95783 -2.43054 0
M  V30 5737 N 564.634 1.40294 0.718013 0
M  V30 5738 C 565.564 1.43118 1.84498 0
M  V30 5739 C 566.545 0.292403 1.67568 0
M  V30 5740 O 567.73 0.500675 1.87635 0
M  V30 5741 C 564.86 1.29065 3.22427 0
M  V30 5742 C 563.814 2.40521 3.54025 0
M  V30 5743 C 563.14 2.11546 4.91073 0
M  V30 5744 C 564.44 3.82859 3.55269 0
M  V30 5745 H 566.134 2.37432 1.82391 0
M  V30 5746 H 563.68 1.14283 0.87609 0
M  V30 5747 H 565.633 1.29658 4.00957 0
M  V30 5748 H 564.357 0.312271 3.25104 0
M  V30 5749 H 563.016 2.39173 2.77834 0
M  V30 5750 H 562.664 1.12104 4.90348 0
M  V30 5751 H 562.364 2.86216 5.1318 0
M  V30 5752 H 563.888 2.13817 5.71939 0
M  V30 5753 H 565.302 3.86044 4.23843 0
M  V30 5754 H 563.699 4.57029 3.88902 0
M  V30 5755 H 564.769 4.12617 2.54706 0
M  V30 5756 N 566.112 -0.949982 1.2575 0
M  V30 5757 C 567.359 -1.69515 1.10774 0
M  V30 5758 C 567.687 -1.91316 -0.350479 0
M  V30 5759 O 566.942 -1.48515 -1.27443 0
M  V30 5760 C 567.241 -3.08039 1.81237 0
M  V30 5761 C 566.907 -3.06023 3.31151 0
M  V30 5762 C 565.569 -3.0518 3.72047 0
M  V30 5763 C 567.921 -2.98998 4.26907 0
M  V30 5764 C 565.249 -2.95067 5.07102 0
M  V30 5765 C 567.601 -2.90426 5.61992 0
M  V30 5766 C 566.265 -2.87922 6.0221 0
M  V30 5767 H 565.535 -0.6203 0.405351 0
M  V30 5768 H 568.182 -1.10953 1.56082 0
M  V30 5769 H 566.487 -3.70172 1.28373 0
M  V30 5770 H 568.184 -3.64526 1.67098 0
M  V30 5771 H 564.774 -3.07453 2.98614 0
M  V30 5772 H 568.958 -2.98764 3.963 0
M  V30 5773 H 564.214 -2.915 5.37436 0
M  V30 5774 H 568.388 -2.83952 6.35881 0
M  V30 5775 H 566.015 -2.79841 7.06819 0
M  V30 5776 N 567.59 -1.07411 -1.15328 0
M  V30 5777 C 568.553 -0.698914 -2.18284 0
M  V30 5778 C 569.553 0.261149 -1.58665 0
M  V30 5779 O 570.743 0.0420277 -1.74149 0
M  V30 5780 C 567.875 -0.0302427 -3.40887 0
M  V30 5781 H 569.068 -1.61045 -2.52991 0
M  V30 5782 H 566.621 -0.870724 -1.298 0
M  V30 5783 H 567.356 0.893505 -3.11748 0
M  V30 5784 H 567.141 -0.720759 -3.85419 0
M  V30 5785 H 568.631 0.21759 -4.17033 0
M  V30 5786 N 569.068 1.32177 -0.85831 0
M  V30 5787 C 570.314 1.97417 -0.46417 0
M  V30 5788 C 570.647 1.67746 0.978514 0
M  V30 5789 O 569.922 0.967654 1.68721 0
M  V30 5790 C 570.205 3.53069 -0.708094 0
M  V30 5791 C 570.058 3.92357 -2.19946 0
M  V30 5792 C 571.377 4.39783 -0.166881 0
M  V30 5793 H 568.496 0.717097 -0.17012 0
M  V30 5794 H 571.138 1.56499 -1.07741 0
M  V30 5795 H 569.288 3.88054 -0.186128 0
M  V30 5796 H 570.96 3.67533 -2.78779 0
M  V30 5797 H 569.203 3.41384 -2.67656 0
M  V30 5798 H 569.874 5.00841 -2.32082 0
M  V30 5799 H 572.35 4.11556 -0.613285 0
M  V30 5800 H 571.226 5.47671 -0.367093 0
M  V30 5801 H 571.487 4.32196 0.930559 0
M  V30 5802 N 570.547 0.616602 1.45037 0
M  V30 5803 C 571.795 0.115103 2.01772 0
M  V30 5804 C 572.116 -1.2622 1.48639 0
M  V30 5805 O 571.386 -1.83563 0.684199 0
M  V30 5806 H 569.966 0.0395607 0.745952 0
M  V30 5807 H 572.628 0.800032 1.77723 0
M  V30 5808 H 571.724 0.0717274 3.12018 0
M  V30 5809 N 572.025 -1.5352 0.356285 0
M  V30 5810 C 572.935 -2.29151 -0.502712 0
M  V30 5811 C 573.951 -1.34753 -1.1008 0
M  V30 5812 O 575.127 -1.67803 -1.11374 0
M  V30 5813 C 572.192 -3.05911 -1.63154 0
M  V30 5814 C 571.253 -4.15958 -1.06194 0
M  V30 5815 C 570.486 -4.8905 -2.13696 0
M  V30 5816 O 570.709 -4.61919 -3.34645 0
M  V30 5817 O 569.643 -5.75202 -1.77275 0
M  V30 5818 H 573.469 -3.03492 0.112466 0
M  V30 5819 H 571.054 -1.4891 0.120942 0
M  V30 5820 H 572.936 -3.53874 -2.28804 0
M  V30 5821 H 571.611 -2.34415 -2.23229 0
M  V30 5822 H 570.518 -3.7227 -0.369603 0
M  V30 5823 H 571.851 -4.89593 -0.505872 0
M  V30 5824 N 573.503 -0.0852151 -1.57369 0
M  V30 5825 C 574.752 0.580443 -1.93168 0
M  V30 5826 C 575.065 1.6995 -0.968319 0
M  V30 5827 O 576.271 2.42564 -1.21963 0
M  V30 5828 C 574.727 1.08386 -3.43192 0
M  V30 5829 C 574.335 -0.00491388 -4.48 0
M  V30 5830 C 576.079 1.72281 -3.87968 0
M  V30 5831 C 573.986 0.513299 -5.89168 0
M  V30 5832 H 572.916 0.22059 -0.72101 0
M  V30 5833 H 575.567 -0.159621 -1.82804 0
M  V30 5834 H 573.949 1.8773 -3.48674 0
M  V30 5835 H 575.123 -0.780032 -4.5415 0
M  V30 5836 H 573.438 -0.548453 -4.12772 0
M  V30 5837 H 576.035 2.12108 -4.9083 0
M  V30 5838 H 576.378 2.58811 -3.26071 0
M  V30 5839 H 576.911 0.995359 -3.85146 0
M  V30 5840 H 573.65 -0.315153 -6.54742 0
M  V30 5841 H 573.17 1.25564 -5.8651 0
M  V30 5842 H 574.849 0.985433 -6.39451 0
M  V30 5843 N 574.981 1.5647 0.188427 0
M  V30 5844 C 575.944 1.9421 1.21718 0
M  V30 5845 C 576.944 0.823901 1.38089 0
M  V30 5846 O 578.134 1.09122 1.35787 0
M  V30 5847 C 575.266 2.22197 2.58537 0
M  V30 5848 H 576.459 2.86252 0.894418 0
M  V30 5849 H 574.012 1.50263 0.430211 0
M  V30 5850 H 574.747 1.32814 2.95856 0
M  V30 5851 H 574.532 3.03688 2.48025 0
M  V30 5852 H 576.022 2.52376 3.3271 0
M  V30 5853 N 576.459 -0.456382 1.50847 0
M  V30 5854 C 577.699 -1.21704 1.64218 0
M  V30 5855 C 578.063 -1.88932 0.341859 0
M  V30 5856 O 579.264 -2.66497 0.351137 0
M  V30 5857 C 577.535 -2.22162 2.79962 0
M  V30 5858 S 579.094 -3.0697 3.13552 0
M  V30 5859 H 575.912 -0.412995 0.578754 0
M  V30 5860 H 578.514 -0.511637 1.88686 0
M  V30 5861 H 577.218 -1.71379 3.72904 0
M  V30 5862 H 576.749 -2.9731 2.57624 0
M  V30 5863 H 578.764 -4.23539 2.58513 0
M  V30 5864 N 577.937 -1.40673 -0.710563 0
M  V30 5865 C 579.183 -1.39428 -1.47267 0
M  V30 5866 C 579.516 0.00182129 -1.942 0
M  V30 5867 O 578.791 0.971387 -1.68506 0
M  V30 5868 C 579.074 -2.38812 -2.6952 0
M  V30 5869 C 578.927 -3.87467 -2.28449 0
M  V30 5870 C 580.246 -2.3566 -3.71689 0
M  V30 5871 H 577.365 -0.507768 -0.534173 0
M  V30 5872 H 580.007 -1.71843 -0.810547 0
M  V30 5873 H 578.157 -2.113 -3.26013 0
M  V30 5874 H 579.829 -4.25825 -1.77399 0
M  V30 5875 H 578.072 -4.03058 -1.60395 0
M  V30 5876 H 578.743 -4.5253 -3.16103 0
M  V30 5877 H 581.219 -2.6004 -3.24836 0
M  V30 5878 H 580.095 -3.07237 -4.54859 0
M  V30 5879 H 580.356 -1.36996 -4.20339 0
M  V30 5880 N 579.415 0.9433 -1.26252 0
M  V30 5881 C 580.64 1.72898 -1.14547 0
M  V30 5882 C 581.065 1.85761 0.295743 0
M  V30 5883 O 580.423 1.3463 1.21427 0
M  V30 5884 C 580.471 3.11471 -1.8171 0
M  V30 5885 O 579.575 3.97336 -1.10445 0
M  V30 5886 H 578.916 0.530555 -0.399259 0
M  V30 5887 H 581.446 1.18159 -1.67032 0
M  V30 5888 H 581.456 3.61872 -1.88449 0
M  V30 5889 H 580.131 3.01425 -2.86558 0
M  V30 5890 H 578.708 3.55788 -1.11666 0
M  V30 5891 N 580.893 1.08022 1.14757 0
M  V30 5892 C 582.139 0.808705 1.85978 0
M  V30 5893 C 582.472 -0.663764 1.82504 0
M  V30 5894 O 581.747 -1.48765 1.25296 0
M  V30 5895 C 582.03 1.32623 3.34788 0
M  V30 5896 C 581.883 2.86375 3.46856 0
M  V30 5897 C 583.202 0.948291 4.29762 0
M  V30 5898 H 580.321 0.295244 0.675278 0
M  V30 5899 H 582.963 1.33917 1.34783 0
M  V30 5900 H 581.113 0.875002 3.78518 0
M  V30 5901 H 582.785 3.39839 3.11941 0
M  V30 5902 H 581.028 3.24232 2.88194 0
M  V30 5903 H 581.699 3.17658 4.51439 0
M  V30 5904 H 584.175 1.33722 3.94028 0
M  V30 5905 H 583.051 1.33765 5.32352 0
M  V30 5906 H 583.312 -0.145094 4.41862 0
M  V30 5907 N 582.371 -1.3172 0.865308 0
M  V30 5908 C 583.321 -2.26157 0.289305 0
M  V30 5909 C 584.305 -1.50428 -0.570977 0
M  V30 5910 O 585.497 -1.71978 -0.418617 0
M  V30 5911 C 582.626 -3.39457 -0.512237 0
M  V30 5912 C 581.712 -4.22561 0.361028 0
M  V30 5913 N 582.103 -4.84501 1.45231 0
M  V30 5914 C 580.401 -4.45739 0.152641 0
M  V30 5915 C 581.102 -5.46586 1.99043 0
M  V30 5916 N 580.078 -5.28119 1.28809 0
M  V30 5917 H 583.88 -2.71581 1.12344 0
M  V30 5918 H 581.394 -1.45932 0.712565 0
M  V30 5919 H 583.391 -4.06133 -0.941379 0
M  V30 5920 H 582.051 -2.95577 -1.34404 0
M  V30 5921 H 583.062 -4.84293 1.83524 0
M  V30 5922 H 579.739 -4.1251 -0.643583 0
M  V30 5923 H 581.129 -6.05817 2.90577 0
M  V30 5924 N 583.85 -0.624285 -1.44708 0
M  V30 5925 C 585.098 -0.125802 -2.01708 0
M  V30 5926 C 585.418 1.2543 -1.49306 0
M  V30 5927 O 584.689 1.83198 -0.693924 0
M  V30 5928 H 583.269 -0.0435161 -0.745731 0
M  V30 5929 H 585.931 -0.809446 -1.77296 0
M  V30 5930 H 585.027 -0.0882734 -3.11975 0
M  V30 5931 N 585.328 1.53329 -0.364422 0
M  V30 5932 C 586.291 2.24323 0.470292 0
M  V30 5933 C 587.291 1.25068 1.01067 0
M  V30 5934 O 588.481 1.49354 0.896605 0
M  V30 5935 C 585.613 2.97908 1.65722 0
M  V30 5936 H 586.806 2.9952 -0.150917 0
M  V30 5937 H 584.359 1.55868 -0.116092 0
M  V30 5938 H 585.094 2.2695 2.31655 0
M  V30 5939 H 584.879 3.70732 1.27671 0
M  V30 5940 H 586.369 3.5188 2.24878 0
M  V30 5941 N 586.806 0.0935595 1.57322 0
M  V30 5942 C 587.754 -0.883457 2.15169 0
M  V30 5943 C 588.748 -1.29324 1.09415 0
M  V30 5944 O 589.954 -1.26795 1.27762 0
M  V30 5945 H 586.329 -0.302923 0.688289 0
M  V30 5946 H 588.3 -0.370845 2.96087 0
M  V30 5947 C 587.049 -2.13345 2.74552 0
M  V30 5948 H 586.372 -1.82702 3.55612 0
M  V30 5949 H 587.812 -2.7977 3.18598 0
M  V30 5950 C 586.271 -2.90646 1.70371 0
M  V30 5951 O 586.801 -3.85133 1.14173 0
M  V30 5952 N 585.007 -2.54157 1.40899 0
M  V30 5953 H 584.554 -1.77391 1.86789 0
M  V30 5954 H 584.512 -3.06178 0.714301 0
M  V30 5955 N 588.284 -1.56567 -0.180126 0
M  V30 5956 C 589.7 -1.50488 -0.531559 0
M  V30 5957 C 589.9 -0.796267 -1.851 0
M  V30 5958 O 588.956 -0.352978 -2.50021 0
M  V30 5959 C 590.269 -2.95201 -0.572456 0
M  V30 5960 C 591.817 -3.05957 -0.660264 0
M  V30 5961 C 592.292 -4.5211 -0.732135 0
M  V30 5962 N 593.783 -4.56322 -0.795262 0
M  V30 5963 C 594.518 -5.66742 -0.871296 0
M  V30 5964 N 594.014 -6.86815 -0.908708 0
M  V30 5965 N 595.807 -5.54691 -0.909639 0
M  V30 5966 H 587.958 -2.01045 0.685165 0
M  V30 5967 H 590.221 -0.915536 0.245962 0
M  V30 5968 H 589.927 -3.50165 0.328208 0
M  V30 5969 H 589.801 -3.49369 -1.422 0
M  V30 5970 H 592.188 -2.51032 -1.55136 0
M  V30 5971 H 592.269 -2.54888 0.215783 0
M  V30 5972 H 591.913 -5.07664 0.154664 0
M  V30 5973 H 591.843 -5.00926 -1.6242 0
M  V30 5974 H 594.334 -3.69868 -0.77499 0
M  V30 5975 H 594.647 -7.66718 -0.967654 0
M  V30 5976 H 592.992 -6.89443 -0.877132 0
M  V30 5977 H 596.183 -4.59804 -0.877353 0
M  V30 5978 H 596.356 -6.40768 -0.965434 0
M  V30 5979 N 589.762 0.448376 -1.51087 0
M  V30 5980 C 590.692 1.55102 -1.74544 0
M  V30 5981 C 591.673 1.59357 -0.594932 0
M  V30 5982 O 592.858 1.75261 -0.836491 0
M  V30 5983 C 589.988 2.93268 -1.86041 0
M  V30 5984 C 588.942 3.03877 -3.01402 0
M  V30 5985 C 588.268 4.43914 -2.98068 0
M  V30 5986 C 589.568 2.7898 -4.41551 0
M  V30 5987 H 591.262 1.35724 -2.66869 0
M  V30 5988 H 588.808 0.651498 -1.28419 0
M  V30 5989 H 590.761 3.70356 -2.01034 0
M  V30 5990 H 589.485 3.13853 -0.903548 0
M  V30 5991 H 588.144 2.29227 -2.86096 0
M  V30 5992 H 587.792 4.6145 -2.00182 0
M  V30 5993 H 587.492 4.51944 -3.75527 0
M  V30 5994 H 589.016 5.22991 -3.1514 0
M  V30 5995 H 590.43 3.45805 -4.57265 0
M  V30 5996 H 588.827 2.98431 -5.20633 0
M  V30 5997 H 589.897 1.74663 -4.5235 0
M  V30 5998 N 591.24 1.41047 0.703093 0
M  V30 5999 C 592.488 1.39723 1.4602 0
M  V30 6000 C 592.809 0.00461257 1.94999 0
M  V30 6001 O 592.079 -0.952292 1.71196 0
M  V30 6002 H 590.659 0.514281 0.541779 0
M  V30 6003 H 593.321 1.76217 0.832678 0
M  V30 6004 H 592.417 2.07982 2.32701 0
M  V30 6005 N 592.718 -0.936591 1.26751 0
M  V30 6006 C 593.966 -1.67998 1.12343 0
M  V30 6007 C 594.287 -1.92137 -0.332938 0
M  V30 6008 O 593.557 -1.52132 -1.23421 0
M  V30 6009 H 592.137 -0.622609 0.412756 0
M  V30 6010 H 594.799 -1.12509 1.59147 0
M  V30 6011 H 593.895 -2.65185 1.64571 0
M  V30 6012 N 594.196 -1.08629 -1.14182 0
M  V30 6013 C 595.144 -0.71284 -2.21408 0
M  V30 6014 C 596.138 0.282457 -1.67029 0
M  V30 6015 O 597.344 0.144783 -1.79417 0
M  V30 6016 H 593.719 -0.212497 -0.721352 0
M  V30 6017 H 595.69 -1.6265 -2.50175 0
M  V30 6018 C 594.439 -0.140704 -3.47415 0
M  V30 6019 H 593.762 -0.897739 -3.8959 0
M  V30 6020 H 595.202 0.0827677 -4.23919 0
M  V30 6021 C 593.661 1.122 -3.17668 0
M  V30 6022 O 594.191 2.20652 -3.35672 0
M  V30 6023 N 592.397 1.03328 -2.71609 0
M  V30 6024 H 591.944 0.150666 -2.57159 0
M  V30 6025 H 591.902 1.8789 -2.52081 0
M  V30 6026 N 595.674 1.31259 -0.872281 0
M  V30 6027 C 596.899 2.0133 -0.498099 0
M  V30 6028 C 597.324 1.65031 0.902568 0
M  V30 6029 O 596.682 0.860164 1.59596 0
M  V30 6030 C 596.73 3.54411 -0.665205 0
M  V30 6031 O 595.834 4.11347 0.294473 0
M  V30 6032 H 595.175 0.633844 -0.197832 0
M  V30 6033 H 597.705 1.67402 -1.17633 0
M  V30 6034 H 597.715 4.04147 -0.559373 0
M  V30 6035 H 596.39 3.80171 -1.68651 0
M  V30 6036 H 594.967 3.72624 0.143403 0
M  V30 6037 N 597.152 0.631951 1.44375 0
M  V30 6038 C 598.082 -0.0593243 2.33425 0
M  V30 6039 C 599.063 -0.833964 1.48253 0
M  V30 6040 O 600.248 -0.799682 1.76971 0
M  V30 6041 C 597.378 -1.04096 3.31333 0
M  V30 6042 C 596.332 -0.377899 4.26328 0
M  V30 6043 C 595.658 -1.4695 5.14111 0
M  V30 6044 C 596.958 0.716371 5.17364 0
M  V30 6045 H 598.652 0.684287 2.91475 0
M  V30 6046 H 596.198 0.330518 1.40156 0
M  V30 6047 H 598.151 -1.53331 3.92514 0
M  V30 6048 H 596.875 -1.81547 2.71493 0
M  V30 6049 H 595.534 0.0938054 3.6648 0
M  V30 6050 H 595.182 -2.2349 4.50623 0
M  V30 6051 H 594.882 -1.03121 5.78481 0
M  V30 6052 H 596.406 -1.96363 5.78164 0
M  V30 6053 H 597.82 0.307089 5.72477 0
M  V30 6054 H 596.217 1.07784 5.90341 0
M  V30 6055 H 597.287 1.58316 4.58327 0
M  V30 6056 N 598.631 -1.53133 0.372548 0
M  V30 6057 C 599.561 -2.28876 -0.462412 0
M  V30 6058 C 600.542 -1.31583 -1.07796 0
M  V30 6059 O 601.727 -1.60461 -1.09389 0
M  V30 6060 C 598.857 -3.08317 -1.59868 0
M  V30 6061 C 597.811 -4.13355 -1.11003 0
M  V30 6062 C 597.137 -4.8092 -2.33708 0
M  V30 6063 C 598.437 -5.21955 -0.18983 0
M  V30 6064 H 600.131 -2.9892 0.169511 0
M  V30 6065 H 597.677 -1.43761 0.0829658 0
M  V30 6066 H 599.63 -3.60055 -2.18949 0
M  V30 6067 H 598.354 -2.35976 -2.25794 0
M  V30 6068 H 597.013 -3.62573 -0.541869 0
M  V30 6069 H 596.661 -4.05144 -2.98106 0
M  V30 6070 H 596.361 -5.51904 -2.01682 0
M  V30 6071 H 597.885 -5.35455 -2.93462 0
M  V30 6072 H 599.299 -5.69153 -0.688319 0
M  V30 6073 H 597.696 -6.00087 0.0398887 0
M  V30 6074 H 598.766 -4.78811 0.766057 0
M  V30 6075 N 600.109 -0.101901 -1.5727 0
M  V30 6076 C 601.386 0.602832 -1.86079 0
M  V30 6077 C 601.766 1.85912 -1 0
M  V30 6078 O 601.114 2.28379 -0.0742488 0
M  V30 6079 C 601.324 0.911694 -3.36881 0
M  V30 6080 C 602.672 1.2722 -4.05093 0
M  V30 6081 O 603.696 1.0025 -3.41802 0
M  V30 6082 O 602.555 1.7776 -5.16782 0
M  V30 6083 H 599.649 0.302366 -0.769743 0
M  V30 6084 H 602.195 -0.135113 -1.69161 0
M  V30 6085 H 600.967 0.0207256 -3.91295 0
M  V30 6086 H 600.59 1.70538 -3.59169 0
M  V30 6087 N 601.587 1.56661 0.17182 0
M  V30 6088 C 602.517 1.99401 1.21498 0
M  V30 6089 C 603.498 0.869516 1.46197 0
M  V30 6090 O 604.683 1.13556 1.57539 0
M  V30 6091 C 601.813 2.35346 2.55401 0
M  V30 6092 C 600.767 3.5075 2.45272 0
M  V30 6093 C 600.093 3.72437 3.8366 0
M  V30 6094 C 601.393 4.84216 1.95787 0
M  V30 6095 H 603.087 2.86792 0.859699 0
M  V30 6096 H 600.633 1.37977 0.412103 0
M  V30 6097 H 602.586 2.63843 3.2858 0
M  V30 6098 H 601.31 1.44864 2.92715 0
M  V30 6099 H 599.969 3.2238 1.74547 0
M  V30 6100 H 599.617 2.79246 4.18367 0
M  V30 6101 H 599.317 4.50087 3.77751 0
M  V30 6102 H 600.841 4.03334 4.58426 0
M  V30 6103 H 602.255 5.11592 2.5874 0
M  V30 6104 H 600.652 5.65498 2.00827 0
M  V30 6105 H 601.722 4.76243 0.912159 0
M  V30 6106 N 603.065 -0.440357 1.51323 0
M  V30 6107 C 604.311 -1.19181 1.64085 0
M  V30 6108 C 604.644 -1.90936 0.354575 0
M  V30 6109 O 603.919 -1.8347 -0.645675 0
M  V30 6110 C 604.202 -2.2112 2.84215 0
M  V30 6111 C 604.055 -1.53468 4.22809 0
M  V30 6112 C 605.374 -3.22133 2.99864 0
M  V30 6113 H 602.493 -0.431924 0.597169 0
M  V30 6114 H 605.135 -0.481443 1.83799 0
M  V30 6115 H 603.285 -2.81703 2.67537 0
M  V30 6116 H 604.957 -0.962455 4.51148 0
M  V30 6117 H 603.2 -0.837086 4.25647 0
M  V30 6118 H 603.871 -2.27694 5.02852 0
M  V30 6119 H 606.347 -2.71601 3.15233 0
M  V30 6120 H 605.223 -3.90756 3.85488 0
M  V30 6121 H 605.484 -3.88061 2.11804 0
M  V30 6122 N 604.543 -1.41418 -0.695603 0
M  V30 6123 C 605.789 -1.40982 -1.4578 0
M  V30 6124 C 606.122 -0.0187763 -1.94191 0
M  V30 6125 O 605.397 0.95346 -1.69527 0
M  V30 6126 C 605.68 -2.41657 -2.66972 0
M  V30 6127 C 605.533 -3.89869 -2.24327 0
M  V30 6128 C 606.852 -2.39589 -3.69168 0
M  V30 6129 H 603.971 -0.513405 -0.528757 0
M  V30 6130 H 606.613 -1.72693 -0.792275 0
M  V30 6131 H 604.763 -2.14746 -3.23754 0
M  V30 6132 H 606.435 -4.27683 -1.72872 0
M  V30 6133 H 604.678 -4.04737 -1.56111 0
M  V30 6134 H 605.349 -4.55857 -3.11285 0
M  V30 6135 H 607.825 -2.63471 -3.2206 0
M  V30 6136 H 606.701 -3.12044 -4.51575 0
M  V30 6137 H 606.962 -1.41447 -4.18862 0
M  V30 6138 N 606.021 0.929856 -1.27246 0
M  V30 6139 C 607.268 1.67731 -1.13457 0
M  V30 6140 C 607.596 1.9185 0.319998 0
M  V30 6141 O 606.851 1.50524 1.25064 0
M  V30 6142 C 607.15 3.05116 -1.86115 0
M  V30 6143 C 606.816 3.00715 -3.35978 0
M  V30 6144 C 605.478 2.99222 -3.76855 0
M  V30 6145 C 607.83 2.92168 -4.3161 0
M  V30 6146 C 605.158 2.86962 -5.11732 0
M  V30 6147 C 607.51 2.81449 -5.66542 0
M  V30 6148 C 606.174 2.78305 -6.06715 0
M  V30 6149 H 605.444 0.613772 -0.415168 0
M  V30 6150 H 608.091 1.08456 -1.57827 0
M  V30 6151 H 606.396 3.68083 -1.34246 0
M  V30 6152 H 608.093 3.61822 -1.72876 0
M  V30 6153 H 604.683 3.02664 -3.03468 0
M  V30 6154 H 608.867 2.92421 -4.01003 0
M  V30 6155 H 604.123 2.82913 -5.42006 0
M  V30 6156 H 608.297 2.738 -6.40317 0
M  V30 6157 H 605.924 2.68561 -7.11181 0
M  V30 6158 N 607.499 1.09233 1.13605 0
M  V30 6159 C 608.747 0.825525 1.84471 0
M  V30 6160 C 609.068 -0.650702 1.83823 0
M  V30 6161 O 608.338 -1.47204 1.29259 0
M  V30 6162 H 606.918 0.3024 0.683054 0
M  V30 6163 H 609.58 1.38006 1.37624 0
M  V30 6164 H 608.676 1.17727 2.89045 0
M  V30 6165 N 608.977 -1.30795 0.87923 0
M  V30 6166 C 610.393 -1.48981 0.57243 0
M  V30 6167 C 610.593 -1.80719 -0.891236 0
M  V30 6168 O 609.649 -1.89136 -1.67283 0
M  V30 6169 C 610.962 -2.61721 1.48063 0
M  V30 6170 C 612.51 -2.75603 1.48365 0
M  V30 6171 C 612.985 -3.91449 2.37763 0
M  V30 6172 N 614.476 -3.98751 2.35695 0
M  V30 6173 C 615.211 -4.87684 3.01583 0
M  V30 6174 N 614.707 -5.81454 3.76674 0
M  V30 6175 N 616.5 -4.81005 2.90844 0
M  V30 6176 H 608.651 -1.08465 1.82617 0
M  V30 6177 H 610.914 -0.536813 0.781368 0
M  V30 6178 H 610.62 -2.45073 2.52254 0
M  V30 6179 H 610.494 -3.58071 1.18596 0
M  V30 6180 H 612.881 -2.9166 0.44927 0
M  V30 6181 H 612.962 -1.79891 1.81859 0
M  V30 6182 H 612.606 -3.76149 3.41283 0
M  V30 6183 H 612.536 -4.86487 2.01589 0
M  V30 6184 H 615.027 -3.31668 1.81121 0
M  V30 6185 H 615.34 -6.46063 4.24054 0
M  V30 6186 H 613.685 -5.81403 3.80782 0
M  V30 6187 H 616.876 -4.06728 2.31711 0
M  V30 6188 H 617.049 -5.50107 3.42471 0
M  V30 6189 N 610.455 -0.639598 -1.44038 0
M  V30 6190 C 611.418 0.0506628 -2.29144 0
M  V30 6191 C 612.418 0.764001 -1.41491 0
M  V30 6192 O 613.608 0.607309 -1.63271 0
M  V30 6193 C 610.74 1.0824 -3.2326 0
M  V30 6194 H 611.933 -0.697987 -2.91664 0
M  V30 6195 H 609.486 -0.400146 -1.51091 0
M  V30 6196 H 610.221 1.86075 -2.65606 0
M  V30 6197 H 610.006 0.574725 -3.87865 0
M  V30 6198 H 611.496 1.56487 -3.87171 0
M  V30 6199 N 611.933 1.52934 -0.380664 0
M  V30 6200 C 612.896 2.24809 0.446473 0
M  V30 6201 C 613.896 1.26133 0.997347 0
M  V30 6202 O 615.086 1.50297 0.880714 0
M  V30 6203 C 612.218 2.99649 1.62553 0
M  V30 6204 H 613.411 2.99343 -0.182677 0
M  V30 6205 H 610.964 1.55736 -0.132618 0
M  V30 6206 H 611.699 2.29395 2.29235 0
M  V30 6207 H 611.484 3.72066 1.23732 0
M  V30 6208 H 612.974 3.54246 2.21133 0
M  V30 6209 N 613.412 0.11024 1.57214 0
M  V30 6210 C 614.66 -0.548783 1.94506 0
M  V30 6211 C 614.981 -1.67772 0.99386 0
M  V30 6212 O 614.251 -1.9584 0.0485841 0
M  V30 6213 H 612.831 -0.205715 0.718116 0
M  V30 6214 H 615.493 0.177127 1.94093 0
M  V30 6215 H 614.589 -0.949096 2.97319 0
M  V30 6216 N 614.89 -1.56749 -0.16351 0
M  V30 6217 C 615.82 -2.00042 -1.20438 0
M  V30 6218 C 616.801 -0.877256 -1.45733 0
M  V30 6219 O 617.986 -1.1439 -1.56935 0
M  V30 6220 C 615.116 -2.36697 -2.54149 0
M  V30 6221 C 614.07 -3.52046 -2.43408 0
M  V30 6222 C 613.396 -3.74466 -3.81679 0
M  V30 6223 C 614.696 -4.85247 -1.93216 0
M  V30 6224 H 616.39 -2.87244 -0.844477 0
M  V30 6225 H 613.936 -1.38194 -0.40478 0
M  V30 6226 H 615.889 -2.65582 -3.27176 0
M  V30 6227 H 614.613 -1.46414 -2.91943 0
M  V30 6228 H 613.272 -3.23301 -1.72834 0
M  V30 6229 H 612.92 -2.81461 -4.1688 0
M  V30 6230 H 612.62 -4.52084 -3.75359 0
M  V30 6231 H 614.144 -4.0576 -4.5628 0
M  V30 6232 H 615.558 -5.12957 -2.56023 0
M  V30 6233 H 613.955 -5.66556 -1.97825 0
M  V30 6234 H 615.025 -4.7672 -0.88689 0
M  V30 6235 N 616.368 0.432326 -1.51554 0
M  V30 6236 C 617.318 1.52366 -1.69614 0
M  V30 6237 C 618.302 1.51205 -0.550083 0
M  V30 6238 O 619.494 1.57573 -0.806206 0
M  V30 6239 C 616.623 2.90513 -1.82913 0
M  V30 6240 C 615.709 2.9641 -3.03318 0
M  V30 6241 N 616.1 2.72043 -4.26411 0
M  V30 6242 C 614.398 3.27572 -3.02675 0
M  V30 6243 C 615.099 2.83912 -5.07709 0
M  V30 6244 N 614.075 3.15798 -4.42462 0
M  V30 6245 H 617.877 1.32285 -2.62446 0
M  V30 6246 H 615.391 0.639708 -1.4927 0
M  V30 6247 H 617.388 3.69032 -1.93962 0
M  V30 6248 H 616.048 3.1161 -0.912655 0
M  V30 6249 H 617.059 2.46876 -4.55272 0
M  V30 6250 H 613.736 3.54411 -2.20678 0
M  V30 6251 H 615.126 2.68984 -6.15709 0
M  V30 6252 N 617.846 1.41785 0.688094 0
M  V30 6253 C 618.776 1.47 1.8142 0
M  V30 6254 C 619.757 0.327881 1.6691 0
M  V30 6255 O 620.942 0.540362 1.86531 0
M  V30 6256 C 618.072 1.35876 3.19617 0
M  V30 6257 C 617.026 2.47976 3.48844 0
M  V30 6258 C 616.352 2.21915 4.86475 0
M  V30 6259 C 617.652 3.90309 3.47068 0
M  V30 6260 H 619.346 2.41247 1.77314 0
M  V30 6261 H 616.892 1.16116 0.851651 0
M  V30 6262 H 618.845 1.38134 3.98117 0
M  V30 6263 H 617.569 0.38116 3.24368 0
M  V30 6264 H 616.228 2.45013 2.72698 0
M  V30 6265 H 615.876 1.2248 4.8786 0
M  V30 6266 H 615.576 2.97037 5.06994 0
M  V30 6267 H 617.1 2.25901 5.67275 0
M  V30 6268 H 618.514 3.94947 4.1556 0
M  V30 6269 H 616.911 4.65175 3.7912 0
M  V30 6270 H 617.981 4.17927 2.45896 0
M  V30 6271 N 619.324 -0.923095 1.27737 0
M  V30 6272 C 620.256 -2.02871 1.06658 0
M  V30 6273 C 621.269 -1.62786 0.0212095 0
M  V30 6274 O 622.458 -1.76548 0.263267 0
M  V30 6275 C 619.558 -3.33603 0.59682 0
M  V30 6276 C 618.731 -4.02354 1.71551 0
M  V30 6277 C 617.79 -5.11364 1.24071 0
M  V30 6278 O 616.816 -5.35075 1.94123 0
M  V30 6279 N 618.018 -5.80416 0.0988444 0
M  V30 6280 H 620.783 -2.21515 2.01869 0
M  V30 6281 H 618.344 -1.09378 1.19365 0
M  V30 6282 H 620.336 -4.03845 0.262984 0
M  V30 6283 H 618.906 -3.11499 -0.262187 0
M  V30 6284 H 618.126 -3.25786 2.2194 0
M  V30 6285 H 619.414 -4.45035 2.46619 0
M  V30 6286 H 618.812 -5.63611 -0.485743 0
M  V30 6287 H 617.369 -6.51563 -0.17578 0
M  V30 6288 N 620.802 -1.09834 -1.13024 0
M  V30 6289 C 621.712 -0.753731 -2.22162 0
M  V30 6290 C 622.728 0.246105 -1.72251 0
M  V30 6291 O 623.904 0.0864051 -2.01215 0
M  V30 6292 C 620.969 -0.183958 -3.46212 0
M  V30 6293 C 620.03 -1.24028 -4.10993 0
M  V30 6294 C 619.263 -0.697597 -5.29121 0
M  V30 6295 O 619.486 0.478092 -5.68393 0
M  V30 6296 O 618.42 -1.4546 -5.84059 0
M  V30 6297 H 622.246 -1.66456 -2.5402 0
M  V30 6298 H 619.831 -0.873026 -1.21238 0
M  V30 6299 H 621.713 0.130257 -4.21199 0
M  V30 6300 H 620.388 0.699823 -3.16045 0
M  V30 6301 H 619.295 -1.60725 -3.37814 0
M  V30 6302 H 620.628 -2.09685 -4.45301 0
M  V30 6303 N 622.28 1.30327 -0.886154 0
M  V30 6304 C 623.505 2.0079 -0.519425 0
M  V30 6305 C 623.93 1.65979 0.885013 0
M  V30 6306 O 623.288 0.877043 1.58675 0
M  V30 6307 C 623.336 3.53686 -0.702758 0
M  V30 6308 O 622.44 4.11637 0.250828 0
M  V30 6309 H 621.781 0.63171 -0.204544 0
M  V30 6310 H 624.311 1.66145 -1.19402 0
M  V30 6311 H 624.321 4.03531 -0.602207 0
M  V30 6312 H 622.996 3.78361 -1.72673 0
M  V30 6313 H 621.573 3.72755 0.103873 0
M  V30 6314 N 623.758 0.647228 1.43697 0
M  V30 6315 C 625.007 0.155552 2.01099 0
M  V30 6316 C 625.32 -1.23569 1.51624 0
M  V30 6317 O 626.526 -1.82226 2.01261 0
M  V30 6318 C 624.982 0.227296 3.59182 0
M  V30 6319 C 624.59 1.62086 4.17651 0
M  V30 6320 C 626.334 -0.207085 4.23995 0
M  V30 6321 C 624.241 1.64685 5.68008 0
M  V30 6322 H 623.171 0.0543895 0.752036 0
M  V30 6323 H 625.822 0.808386 1.64734 0
M  V30 6324 H 624.204 -0.492937 3.9292 0
M  V30 6325 H 625.378 2.36597 3.95422 0
M  V30 6326 H 623.693 2.0007 3.65186 0
M  V30 6327 H 626.29 -0.207426 5.34298 0
M  V30 6328 H 626.633 -1.23742 3.97484 0
M  V30 6329 H 627.166 0.461193 3.95118 0
M  V30 6330 H 623.905 2.65608 5.99277 0
M  V30 6331 H 623.425 0.944914 5.9231 0
M  V30 6332 H 625.104 1.38792 6.31938 0
M  V30 6333 N 625.236 -1.5273 0.388769 0
M  V30 6334 C 626.199 -2.25043 -0.434544 0
M  V30 6335 C 627.199 -1.26661 -0.990644 0
M  V30 6336 O 628.389 -1.50762 -0.872731 0
M  V30 6337 C 625.521 -3.00507 -1.60961 0
M  V30 6338 H 626.714 -2.99242 0.198549 0
M  V30 6339 H 624.267 -1.55664 0.140875 0
M  V30 6340 H 625.002 -2.30607 -2.28015 0
M  V30 6341 H 624.787 -3.72716 -1.21757 0
M  V30 6342 H 626.277 -3.55413 -2.19251 0
M  V30 6343 N 626.714 -0.118576 -1.57153 0
M  V30 6344 C 627.624 0.845484 -2.18835 0
M  V30 6345 C 628.64 1.29299 -1.16438 0
M  V30 6346 O 629.816 1.35607 -1.48905 0
M  V30 6347 C 626.881 2.07795 -2.77529 0
M  V30 6348 C 625.942 1.6824 -3.9496 0
M  V30 6349 C 625.175 2.85612 -4.50845 0
M  V30 6350 O 625.398 4.01025 -4.05629 0
M  V30 6351 O 624.332 2.62721 -5.41536 0
M  V30 6352 H 628.158 0.350568 -3.0167 0
M  V30 6353 H 625.743 0.107013 -1.49016 0
M  V30 6354 H 627.625 2.79978 -3.14945 0
M  V30 6355 H 626.3 2.56294 -1.97725 0
M  V30 6356 H 625.207 0.931663 -3.62313 0
M  V30 6357 H 626.54 1.24484 -4.76198 0
M  V30 6358 N 628.193 1.56834 0.155195 0
M  V30 6359 C 629.125 1.94235 1.21677 0
M  V30 6360 C 630.138 0.83724 1.39621 0
M  V30 6361 O 631.327 1.11567 1.39338 0
M  V30 6362 C 628.427 2.19402 2.58294 0
M  V30 6363 C 627.6 3.50671 2.61436 0
M  V30 6364 C 626.659 3.64475 3.79532 0
M  V30 6365 O 625.685 4.36945 3.64784 0
M  V30 6366 N 626.887 3.00526 4.96653 0
M  V30 6367 H 629.652 2.85901 0.898932 0
M  V30 6368 H 627.213 1.58185 0.34483 0
M  V30 6369 H 629.205 2.25886 3.35794 0
M  V30 6370 H 627.775 1.34042 2.82403 0
M  V30 6371 H 626.995 3.55702 1.69912 0
M  V30 6372 H 628.283 4.3702 2.60559 0
M  V30 6373 H 627.681 2.41549 5.11538 0
M  V30 6374 H 626.238 3.12583 5.71958 0
M  V30 6375 N 629.671 -0.424282 1.51781 0
M  V30 6376 C 630.919 -1.17028 1.64769 0
M  V30 6377 C 631.24 -1.91409 0.372523 0
M  V30 6378 O 630.51 -1.86091 -0.612108 0
M  V30 6379 H 629.09 -0.434992 0.607282 0
M  V30 6380 H 631.752 -0.485169 1.88765 0
M  V30 6381 H 630.848 -1.8927 2.4816 0
M  V30 6382 N 631.149 -1.42148 -0.680565 0
M  V30 6383 C 632.112 -1.4488 -1.77602 0
M  V30 6384 C 633.112 -0.337209 -1.57224 0
M  V30 6385 O 634.302 -0.597778 -1.63622 0
M  V30 6386 C 631.434 -1.27483 -3.16166 0
M  V30 6387 H 632.627 -2.42412 -1.76568 0
M  V30 6388 H 630.18 -1.28511 -0.889645 0
M  V30 6389 H 630.915 -0.30851 -3.22829 0
M  V30 6390 H 630.7 -2.08037 -3.3236 0
M  V30 6391 H 632.19 -1.32265 -3.96101 0
M  V30 6392 N 632.627 0.916307 -1.28225 0
M  V30 6393 C 633.557 2.0352 -1.14464 0
M  V30 6394 C 634.538 1.70045 -0.0430844 0
M  V30 6395 O 635.723 1.92954 -0.219619 0
M  V30 6396 C 632.853 3.37889 -0.803027 0
M  V30 6397 C 631.807 3.85516 -1.85908 0
M  V30 6398 C 631.133 5.1682 -1.37116 0
M  V30 6399 C 632.433 4.07655 -3.26519 0
M  V30 6400 H 634.127 2.1529 -2.08064 0
M  V30 6401 H 631.673 1.03446 -1.00174 0
M  V30 6402 H 633.626 4.15654 -0.693537 0
M  V30 6403 H 632.35 3.26164 0.168674 0
M  V30 6404 H 631.009 3.09953 -1.95767 0
M  V30 6405 H 630.657 5.01497 -0.38859 0
M  V30 6406 H 630.357 5.49657 -2.07728 0
M  V30 6407 H 631.881 5.97143 -1.27484 0
M  V30 6408 H 633.295 4.75953 -3.19596 0
M  V30 6409 H 631.692 4.51818 -3.94943 0
M  V30 6410 H 632.762 3.12553 -3.70727 0
M  V30 6411 N 634.105 1.10431 1.1244 0
M  V30 6412 C 635.521 0.836096 1.35947 0
M  V30 6413 C 635.721 -0.544475 1.94004 0
M  V30 6414 O 634.777 -1.29735 2.16622 0
M  V30 6415 C 636.09 1.93575 2.30107 0
M  V30 6416 C 637.638 1.9642 2.43697 0
M  V30 6417 C 638.113 3.05559 3.41171 0
M  V30 6418 N 639.604 3.04865 3.48728 0
M  V30 6419 C 640.339 3.85954 4.24061 0
M  V30 6420 N 639.835 4.76977 5.02458 0
M  V30 6421 N 641.628 3.74172 4.19466 0
M  V30 6422 H 633.779 1.9942 0.731124 0
M  V30 6423 H 636.042 0.866607 0.384312 0
M  V30 6424 H 635.748 2.92943 1.94621 0
M  V30 6425 H 635.622 1.8229 3.30227 0
M  V30 6426 H 638.009 0.97685 2.78463 0
M  V30 6427 H 638.09 2.11782 1.43465 0
M  V30 6428 H 637.734 4.04513 3.07135 0
M  V30 6429 H 637.664 2.87438 4.41234 0
M  V30 6430 H 640.155 2.38908 2.92799 0
M  V30 6431 H 640.468 5.35409 5.57277 0
M  V30 6432 H 638.813 4.81006 5.01655 0
M  V30 6433 H 642.004 3.02412 3.57302 0
M  V30 6434 H 642.177 4.37602 4.77921 0
M  V30 6435 N 635.583 -1.29855 0.893053 0
M  V30 6436 C 636.86 -1.90694 0.435336 0
M  V30 6437 C 637.24 -1.8111 -1.08454 0
M  V30 6438 O 636.588 -1.23352 -1.92345 0
M  V30 6439 C 636.798 -3.36033 0.942472 0
M  V30 6440 C 638.146 -4.13083 0.982226 0
M  V30 6441 O 639.17 -3.4491 0.889686 0
M  V30 6442 O 638.029 -5.34896 1.12022 0
M  V30 6443 H 635.123 -0.815978 0.134567 0
M  V30 6444 H 637.669 -1.38367 0.982484 0
M  V30 6445 H 636.441 -3.37132 1.9864 0
M  V30 6446 H 636.064 -3.95828 0.374952 0
M  V30 6447 N 637.061 -0.65484 -1.43351 0
M  V30 6448 C 638.024 0.0263562 -2.29185 0
M  V30 6449 C 639.024 0.748951 -1.42293 0
M  V30 6450 O 640.214 0.589957 -1.63906 0
M  V30 6451 C 637.346 1.04806 -3.2439 0
M  V30 6452 H 638.539 -0.728883 -2.90908 0
M  V30 6453 H 636.092 -0.416149 -1.50658 0
M  V30 6454 H 636.827 1.83247 -2.67565 0
M  V30 6455 H 636.612 0.533554 -3.88453 0
M  V30 6456 H 638.102 1.52372 -3.88809 0
M  V30 6457 N 638.539 1.52521 -0.396863 0
M  V30 6458 C 639.764 2.06571 0.185258 0
M  V30 6459 C 640.189 1.26605 1.39115 0
M  V30 6460 O 639.547 0.293055 1.78916 0
M  V30 6461 C 639.595 3.5674 0.526189 0
M  V30 6462 O 638.699 3.7929 1.61903 0
M  V30 6463 H 638.04 0.663712 0.0195474 0
M  V30 6464 H 640.57 1.966 -0.566519 0
M  V30 6465 H 640.58 4.00311 0.788338 0
M  V30 6466 H 639.255 4.14379 -0.355397 0
M  V30 6467 H 637.832 3.47605 1.35 0
M  V30 6468 N 640.017 0.126909 1.57088 0
M  V30 6469 C 640.927 -0.833867 2.1928 0
M  V30 6470 C 641.943 -1.2868 1.17122 0
M  V30 6471 O 643.119 -1.34815 1.49622 0
M  V30 6472 C 640.184 -2.0632 2.78627 0
M  V30 6473 C 639.245 -1.66143 3.95847 0
M  V30 6474 C 638.478 -2.83217 4.52354 0
M  V30 6475 O 638.701 -3.98868 4.0775 0
M  V30 6476 O 637.635 -2.59846 5.42922 0
M  V30 6477 H 641.461 -0.334564 3.01852 0
M  V30 6478 H 639.046 -0.0991091 1.49071 0
M  V30 6479 H 640.928 -2.78304 3.16425 0
M  V30 6480 H 639.603 -2.55242 1.99082 0
M  V30 6481 H 638.51 -0.912435 3.62802 0
M  V30 6482 H 639.843 -1.21957 4.76852 0
M  V30 6483 N 641.495 -1.56914 -0.146875 0
M  V30 6484 C 642.72 -1.87881 -0.878386 0
M  V30 6485 C 643.145 -0.715945 -1.73942 0
M  V30 6486 O 642.503 0.334447 -1.78189 0
M  V30 6487 C 642.551 -3.17431 -1.71084 0
M  V30 6488 O 641.655 -3.01374 -2.81509 0
M  V30 6489 H 640.996 -0.617289 -0.244644 0
M  V30 6490 H 643.526 -2.04136 -0.137654 0
M  V30 6491 H 643.536 -3.49455 -2.10582 0
M  V30 6492 H 642.211 -4.01671 -1.07856 0
M  V30 6493 H 640.788 -2.80758 -2.45416 0
M  V30 6494 N 642.974 0.416227 -1.52004 0
M  V30 6495 C 644.251 1.17637 -1.56272 0
M  V30 6496 C 644.631 2.08352 -0.339493 0
M  V30 6497 O 643.979 2.1833 0.674124 0
M  V30 6498 C 644.189 1.95986 -2.88774 0
M  V30 6499 C 645.537 2.52299 -3.41512 0
M  V30 6500 O 646.561 2.06174 -2.90467 0
M  V30 6501 O 645.42 3.3648 -4.30631 0
M  V30 6502 H 642.514 0.536726 -0.629169 0
M  V30 6503 H 645.06 0.423583 -1.64329 0
M  V30 6504 H 643.832 1.29487 -3.69254 0
M  V30 6505 H 643.455 2.78285 -2.83978 0
M  V30 6506 N 644.452 1.42507 0.673017 0
M  V30 6507 C 645.698 1.43284 1.43519 0
M  V30 6508 C 646.031 0.049668 1.94136 0
M  V30 6509 O 645.306 -0.926369 1.71022 0
M  V30 6510 C 645.589 2.45874 2.63093 0
M  V30 6511 C 645.442 3.93388 2.18096 0
M  V30 6512 C 646.761 2.45431 3.6531 0
M  V30 6513 H 643.88 0.521752 0.520522 0
M  V30 6514 H 646.522 1.73932 0.764701 0
M  V30 6515 H 644.672 2.19869 3.20296 0
M  V30 6516 H 646.344 4.30379 1.66046 0
M  V30 6517 H 644.587 4.07169 1.49652 0
M  V30 6518 H 645.258 4.60752 3.03993 0
M  V30 6519 H 647.734 2.68561 3.17827 0
M  V30 6520 H 646.61 3.19189 4.46553 0
M  V30 6521 H 646.871 1.48092 4.16559 0
M  V30 6522 N 645.93 -0.909495 1.28709 0
M  V30 6523 C 646.84 -2.04558 1.14861 0
M  V30 6524 C 647.856 -1.73842 0.0741621 0
M  V30 6525 O 649.032 -1.99383 0.2843 0
M  V30 6526 C 646.097 -3.36957 0.816148 0
M  V30 6527 C 645.158 -3.81255 1.97341 0
M  V30 6528 C 644.391 -5.07335 1.65671 0
M  V30 6529 O 644.614 -5.67514 0.573053 0
M  V30 6530 O 643.548 -5.47449 2.50167 0
M  V30 6531 H 647.374 -2.19161 2.10243 0
M  V30 6532 H 644.959 -1.03159 1.08068 0
M  V30 6533 H 646.841 -4.16436 0.644873 0
M  V30 6534 H 645.516 -3.2352 -0.107983 0
M  V30 6535 H 644.423 -3.02584 2.19986 0
M  V30 6536 H 645.756 -3.99261 2.87839 0
M  V30 6537 N 647.408 -1.11026 -1.11852 0
M  V30 6538 C 648.371 -0.768006 -2.1595 0
M  V30 6539 C 649.371 0.210538 -1.59416 0
M  V30 6540 O 650.561 -0.0133978 -1.74195 0
M  V30 6541 C 647.693 -0.138678 -3.40618 0
M  V30 6542 H 648.886 -1.69012 -2.4774 0
M  V30 6543 H 646.439 -0.911578 -1.26964 0
M  V30 6544 H 647.174 0.793872 -3.14433 0
M  V30 6545 H 646.959 -0.843012 -3.8293 0
M  V30 6546 H 648.449 0.0848039 -4.17514 0
M  V30 6547 N 648.886 1.2938 -0.899927 0
M  V30 6548 C 650.111 2.00228 -0.540692 0
M  V30 6549 C 650.536 1.66909 0.867359 0
M  V30 6550 O 649.894 0.893824 1.57735 0
M  V30 6551 C 649.942 3.52921 -0.740232 0
M  V30 6552 O 649.046 4.11879 0.207154 0
M  V30 6553 H 648.387 0.629505 -0.211233 0
M  V30 6554 H 650.917 1.6487 -1.21158 0
M  V30 6555 H 650.927 4.0287 -0.644973 0
M  V30 6556 H 649.602 3.76508 -1.76677 0
M  V30 6557 H 648.179 3.72845 0.0643315 0
M  V30 6558 N 650.364 0.662433 1.43002 0
M  V30 6559 C 651.294 -0.00979809 2.33498 0
M  V30 6560 C 652.275 -0.802329 1.49989 0
M  V30 6561 O 653.46 -0.761964 1.78627 0
M  V30 6562 C 650.59 -0.970446 3.33466 0
M  V30 6563 C 649.544 -0.287383 4.27034 0
M  V30 6564 C 648.87 -1.36012 5.17112 0
M  V30 6565 C 650.17 0.82595 5.15728 0
M  V30 6566 H 651.864 0.745959 2.89958 0
M  V30 6567 H 649.41 0.360172 1.39423 0
M  V30 6568 H 651.363 -1.44971 3.95679 0
M  V30 6569 H 650.087 -1.75748 2.75282 0
M  V30 6570 H 648.746 0.17152 3.66199 0
M  V30 6571 H 648.394 -2.13882 4.55262 0
M  V30 6572 H 648.094 -0.908276 5.80538 0
M  V30 6573 H 649.618 -1.84056 5.82199 0
M  V30 6574 H 651.032 0.42845 5.71697 0
M  V30 6575 H 649.429 1.20282 5.87922 0
M  V30 6576 H 650.499 1.68003 4.54866 0
M  V30 6577 N 651.842 -1.52309 0.404946 0
M  V30 6578 C 653.119 -1.94237 -0.230544 0
M  V30 6579 C 653.499 -1.34154 -1.6299 0
M  V30 6580 O 652.847 -0.515713 -2.22604 0
M  V30 6581 C 653.057 -3.48166 -0.241106 0
M  V30 6582 C 654.405 -4.22074 -0.462488 0
M  V30 6583 O 655.429 -3.54754 -0.320644 0
M  V30 6584 O 654.288 -5.41443 -0.741708 0
M  V30 6585 H 651.382 -0.813766 -0.147358 0
M  V30 6586 H 653.928 -1.6333 0.460587 0
M  V30 6587 H 652.7 -3.84269 0.738467 0
M  V30 6588 H 652.323 -3.85422 -0.97651 0
M  V30 6589 N 653.32 -0.135238 -1.57019 0
M  V30 6590 C 654.736 0.221262 -1.58059 0
M  V30 6591 C 654.936 1.65538 -1.14889 0
M  V30 6592 O 653.992 2.37985 -0.843751 0
M  V30 6593 C 655.305 -0.0268114 -3.00688 0
M  V30 6594 C 656.853 0.0378206 -3.12977 0
M  V30 6595 C 657.328 -0.182769 -4.57635 0
M  V30 6596 N 658.819 -0.129292 -4.6302 0
M  V30 6597 C 659.554 -0.274648 -5.72742 0
M  V30 6598 N 659.05 -0.477075 -6.91155 0
M  V30 6599 N 660.843 -0.213077 -5.61696 0
M  V30 6600 H 652.994 -1.07177 -1.83376 0
M  V30 6601 H 655.257 -0.423338 -0.848227 0
M  V30 6602 H 654.963 -1.01889 -3.36618 0
M  V30 6603 H 654.837 0.697863 -3.70688 0
M  V30 6604 H 657.224 1.02043 -2.76896 0
M  V30 6605 H 657.305 -0.718996 -2.45487 0
M  V30 6606 H 656.949 -1.16243 -4.94419 0
M  V30 6607 H 656.879 0.59423 -5.23237 0
M  V30 6608 H 659.37 0.0229896 -3.77893 0
M  V30 6609 H 659.683 -0.578413 -7.70632 0
M  V30 6610 H 658.028 -0.513252 -6.93102 0
M  V30 6611 H 661.219 -0.0557796 -4.68067 0
M  V30 6612 H 661.392 -0.329796 -6.4716 0
M  V30 6613 N 654.798 1.5699 0.138552 0
M  V30 6614 C 655.728 2.01933 1.17241 0
M  V30 6615 C 656.709 0.90033 1.44319 0
M  V30 6616 O 657.894 1.16872 1.55095 0
M  V30 6617 C 655.024 2.40711 2.50351 0
M  V30 6618 C 653.978 3.55874 2.37776 0
M  V30 6619 C 653.304 3.80491 3.75674 0
M  V30 6620 C 654.604 4.8826 1.85472 0
M  V30 6621 H 656.298 2.88551 0.798672 0
M  V30 6622 H 653.844 1.3882 0.382743 0
M  V30 6623 H 655.797 2.70754 3.22909 0
M  V30 6624 H 654.521 1.5104 2.89576 0
M  V30 6625 H 653.18 3.2601 1.67669 0
M  V30 6626 H 652.828 2.88057 4.12349 0
M  V30 6627 H 652.528 4.57998 3.68119 0
M  V30 6628 H 654.052 4.12967 4.49767 0
M  V30 6629 H 655.466 5.16965 2.4783 0
M  V30 6630 H 653.863 5.69631 1.88787 0
M  V30 6631 H 654.933 4.78071 0.810935 0
M  V30 6632 N 656.276 -0.40816 1.52223 0
M  V30 6633 C 657.224 -1.51788 1.76248 0
M  V30 6634 C 658.218 -1.57264 0.629638 0
M  V30 6635 O 659.424 -1.60659 0.811704 0
M  V30 6636 H 655.799 -0.504823 0.557367 0
M  V30 6637 H 657.77 -1.2871 2.69214 0
M  V30 6638 C 656.519 -2.89145 1.93107 0
M  V30 6639 H 655.842 -2.85674 2.79697 0
M  V30 6640 H 657.282 -3.66082 2.13916 0
M  V30 6641 C 655.741 -3.29581 0.698431 0
M  V30 6642 O 656.271 -4.01479 -0.133238 0
M  V30 6643 N 654.477 -2.85651 0.53405 0
M  V30 6644 H 654.024 -2.2731 1.21194 0
M  V30 6645 H 653.982 -3.13065 -0.289387 0
M  V30 6646 N 657.755 -1.42862 -0.66545 0
M  V30 6647 C 659.171 -1.25993 -0.979687 0
M  V30 6648 C 659.371 -0.170831 -2.00775 0
M  V30 6649 O 658.427 0.454827 -2.4837 0
M  V30 6650 C 659.74 -2.62005 -1.47559 0
M  V30 6651 C 661.288 -2.69437 -1.59288 0
M  V30 6652 C 661.763 -4.05838 -2.12272 0
M  V30 6653 N 663.254 -4.0784 -2.19592 0
M  V30 6654 C 663.989 -5.10205 -2.61684 0
M  V30 6655 N 663.485 -6.22949 -3.03161 0
M  V30 6656 N 665.278 -4.9756 -2.61516 0
M  V30 6657 H 657.429 -2.12395 0.0150493 0
M  V30 6658 H 659.692 -0.946355 -0.0558187 0
M  V30 6659 H 659.398 -3.42605 -0.794654 0
M  V30 6660 H 659.272 -2.86566 -2.45275 0
M  V30 6661 H 661.659 -1.89178 -2.26486 0
M  V30 6662 H 661.74 -2.48655 -0.600374 0
M  V30 6663 H 661.384 -4.86559 -1.4568 0
M  V30 6664 H 661.314 -4.23977 -3.12331 0
M  V30 6665 H 663.805 -3.26452 -1.90361 0
M  V30 6666 H 664.118 -6.96899 -3.33993 0
M  V30 6667 H 662.463 -6.2644 -3.00995 0
M  V30 6668 H 665.654 -4.08551 -2.28481 0
M  V30 6669 H 665.827 -5.77468 -2.93999 0
M  V30 6670 N 659.233 0.902656 -1.29189 0
M  V30 6671 C 660.479 1.6555 -1.18172 0
M  V30 6672 C 660.834 1.90569 0.264788 0
M  V30 6673 O 660.127 1.50292 1.1884 0
M  V30 6674 C 660.321 3.011 -1.92545 0
M  V30 6675 C 660.15 2.89312 -3.4428 0
M  V30 6676 C 658.92 2.90239 -4.1363 0
M  V30 6677 C 661.118 2.6656 -4.3983 0
M  V30 6678 N 659.1 2.69156 -5.5175 0
M  V30 6679 C 660.471 2.54429 -5.6539 0
M  V30 6680 C 662.526 2.51644 -4.29627 0
M  V30 6681 C 661.229 2.289 -6.81907 0
M  V30 6682 C 663.255 2.27498 -5.45892 0
M  V30 6683 C 662.617 2.16129 -6.70423 0
M  V30 6684 H 658.716 0.611519 -0.48741 0
M  V30 6685 H 661.3 1.06514 -1.62981 0
M  V30 6686 H 659.471 3.58202 -1.50154 0
M  V30 6687 H 661.203 3.65471 -1.73818 0
M  V30 6688 H 657.958 3.01412 -3.65305 0
M  V30 6689 H 658.382 2.61676 -6.24383 0
M  V30 6690 H 663.024 2.59178 -3.34045 0
M  V30 6691 H 660.742 2.20104 -7.77547 0
M  V30 6692 H 664.328 2.16805 -5.39895 0
M  V30 6693 H 663.208 1.97703 -7.5887 0
M  V30 6694 N 660.711 1.11618 1.11262 0
M  V30 6695 C 661.659 0.771291 2.1944 0
M  V30 6696 C 662.653 -0.238073 1.67719 0
M  V30 6697 O 663.859 -0.0971628 1.79738 0
M  V30 6698 H 660.234 0.231548 0.715465 0
M  V30 6699 H 662.205 1.69226 2.45775 0
M  V30 6700 C 660.954 0.232765 3.4692 0
M  V30 6701 H 660.277 1.00072 3.87073 0
M  V30 6702 H 661.717 0.0296561 4.2399 0
M  V30 6703 C 660.176 -1.03738 3.20531 0
M  V30 6704 O 660.706 -2.11675 3.41404 0
M  V30 6705 N 658.912 -0.960906 2.74253 0
M  V30 6706 H 658.459 -0.0824323 2.57468 0
M  V30 6707 H 658.417 -1.8114 2.56974 0
M  V30 6708 N 662.189 -1.289 0.906776 0
M  V30 6709 C 663.137 -2.29477 0.379873 0
M  V30 6710 C 664.131 -1.61068 -0.524747 0
M  V30 6711 O 665.337 -1.75344 -0.406765 0
M  V30 6712 H 661.712 -0.744742 0.10423 0
M  V30 6713 H 663.683 -2.71353 1.24137 0
M  V30 6714 C 662.432 -3.45713 -0.371154 0
M  V30 6715 H 661.755 -3.98551 0.315716 0
M  V30 6716 H 663.195 -4.18105 -0.704581 0
M  V30 6717 C 661.654 -2.9774 -1.57646 0
M  V30 6718 O 662.184 -2.99618 -2.67567 0
M  V30 6719 N 660.39 -2.53485 -1.42105 0
M  V30 6720 H 659.937 -2.52156 -0.526783 0
M  V30 6721 H 659.895 -2.21747 -2.22881 0
M  V30 6722 N 663.667 -0.670007 -1.42649 0
M  V30 6723 C 664.615 0.0230106 -2.32589 0
M  V30 6724 C 665.609 0.795585 -1.49555 0
M  V30 6725 O 666.815 0.70409 -1.65658 0
M  V30 6726 H 663.19 0.0262342 -0.751542 0
M  V30 6727 H 665.161 -0.753009 -2.88743 0
M  V30 6728 C 663.91 0.963872 -3.34073 0
M  V30 6729 H 663.233 0.378813 -3.98001 0
M  V30 6730 H 664.673 1.41755 -3.99602 0
M  V30 6731 C 663.132 2.06797 -2.65964 0
M  V30 6732 O 663.662 3.15383 -2.48789 0
M  V30 6733 N 661.868 1.83831 -2.25066 0
M  V30 6734 H 661.415 0.955235 -2.39234 0
M  V30 6735 H 661.373 2.57895 -1.79827 0
M  V30 6736 N 665.145 1.52092 -0.413018 0
M  V30 6737 C 666.561 1.59471 -0.0640836 0
M  V30 6738 C 666.761 1.42562 1.42402 0
M  V30 6739 O 665.817 1.25453 2.19129 0
M  V30 6740 C 667.13 2.95392 -0.562474 0
M  V30 6741 C 668.678 3.08637 -0.520788 0
M  V30 6742 C 669.153 4.47044 -0.995752 0
M  V30 6743 N 670.644 4.53296 -0.952732 0
M  V30 6744 C 671.379 5.58669 -1.29138 0
M  V30 6745 N 670.875 6.71576 -1.70168 0
M  V30 6746 N 672.668 5.48898 -1.2111 0
M  V30 6747 H 664.819 1.6133 -1.38153 0
M  V30 6748 H 667.082 0.75916 -0.567785 0
M  V30 6749 H 666.788 3.13059 -1.60271 0
M  V30 6750 H 666.662 3.77191 0.0257875 0
M  V30 6751 H 669.049 2.90652 0.510412 0
M  V30 6752 H 669.13 2.28735 -1.14515 0
M  V30 6753 H 668.774 4.65773 -2.0253 0
M  V30 6754 H 668.704 5.25448 -0.348162 0
M  V30 6755 H 671.195 3.72248 -0.651119 0
M  V30 6756 H 671.508 7.47973 -1.9431 0
M  V30 6757 H 669.853 6.72847 -1.74075 0
M  V30 6758 H 673.044 4.59573 -0.889396 0
M  V30 6759 H 673.217 6.30912 -1.47833 0
M  V30 6760 N 666.623 0.143563 1.56945 0
M  V30 6761 C 667.571 -0.814556 2.17871 0
M  V30 6762 C 668.565 -1.25778 1.13474 0
M  V30 6763 O 669.771 -1.22666 1.31731 0
M  V30 6764 H 666.146 -0.280873 0.697578 0
M  V30 6765 H 668.117 -0.276459 2.97117 0
M  V30 6766 C 666.866 -2.04503 2.81201 0
M  V30 6767 H 666.189 -1.71296 3.61245 0
M  V30 6768 H 667.629 -2.69493 3.27337 0
M  V30 6769 C 666.088 -2.85079 1.79532 0
M  V30 6770 O 666.618 -3.81306 1.26368 0
M  V30 6771 N 664.824 -2.49546 1.48913 0
M  V30 6772 H 664.371 -1.71359 1.92338 0
M  V30 6773 H 664.329 -3.03751 0.811348 0
M  V30 6774 N 668.101 -1.57061 -0.130224 0
M  V30 6775 C 669.349 -1.83893 -0.838313 0
M  V30 6776 C 669.67 -0.727046 -1.80939 0
M  V30 6777 O 668.94 0.249927 -1.94299 0
M  V30 6778 H 667.52 -0.67846 -0.312573 0
M  V30 6779 H 670.182 -1.94529 -0.120224 0
M  V30 6780 H 669.278 -2.79419 -1.39038 0
M  V30 6781 N 669.579 0.400081 -1.52437 0
M  V30 6782 C 670.489 1.51253 -1.79331 0
M  V30 6783 C 671.505 1.60188 -0.679396 0
M  V30 6784 O 672.681 1.76733 -0.965791 0
M  V30 6785 C 669.746 2.869 -1.94652 0
M  V30 6786 C 668.807 2.87777 -3.18564 0
M  V30 6787 C 668.04 4.16954 -3.33145 0
M  V30 6788 O 668.263 5.11329 -2.52783 0
M  V30 6789 O 667.197 4.2487 -4.26343 0
M  V30 6790 H 671.023 1.31461 -2.73773 0
M  V30 6791 H 668.608 0.586834 -1.37392 0
M  V30 6792 H 670.49 3.67336 -2.065 0
M  V30 6793 H 669.165 3.06741 -1.034 0
M  V30 6794 H 668.072 2.06162 -3.12167 0
M  V30 6795 H 669.405 2.72886 -4.09627 0
M  V30 6796 N 671.057 1.43213 0.657864 0
M  V30 6797 C 672.334 1.35063 1.41483 0
M  V30 6798 C 672.714 -0.0038314 2.111 0
M  V30 6799 O 672.062 -1.02018 2.04462 0
M  V30 6800 C 672.272 2.53061 2.40335 0
M  V30 6801 C 673.62 2.9594 3.04474 0
M  V30 6802 O 674.644 2.53074 2.50663 0
M  V30 6803 O 673.503 3.70184 4.02027 0
M  V30 6804 H 670.597 0.533517 0.631893 0
M  V30 6805 H 673.143 1.55253 0.685162 0
M  V30 6806 H 671.915 3.43283 1.87809 0
M  V30 6807 H 671.538 2.34945 3.20759 0
M  V30 6808 N 672.536 -0.895792 1.29666 0
M  V30 6809 C 673.947 -1.46195 1.1612 0
M  V30 6810 C 674.298 -1.94699 -0.242195 0
M  V30 6811 O 673.423 -1.8406 -1.13802 0
M  V30 6812 C 674.018 -2.65718 2.10189 0
M  V30 6813 C 672.577 -3.18458 2.00653 0
M  V30 6814 C 671.724 -1.91149 2.00891 0
M  V30 6815 H 674.675 -0.706756 1.42094 0
M  V30 6816 H 674.696 -3.4158 1.6764 0
M  V30 6817 H 674.208 -2.30386 3.12321 0
M  V30 6818 H 672.309 -3.58474 1.01623 0
M  V30 6819 H 672.422 -3.82491 2.88509 0
M  V30 6820 H 670.786 -2.09021 1.45542 0
M  V30 6821 H 671.569 -1.58089 3.04734 0
M  V30 6822 N 674.014 -1.12206 -1.10668 0
M  V30 6823 C 675.26 -0.877172 -1.82848 0
M  V30 6824 C 675.593 0.595571 -1.84842 0
M  V30 6825 O 674.868 1.44013 -1.30731 0
M  V30 6826 C 675.151 -1.44957 -3.29635 0
M  V30 6827 C 675.004 -2.99051 -3.35989 0
M  V30 6828 C 676.323 -1.10714 -4.25946 0
M  V30 6829 H 673.442 -0.320103 -0.663854 0
M  V30 6830 H 676.084 -1.38827 -1.2972 0
M  V30 6831 H 674.234 -1.01488 -3.7501 0
M  V30 6832 H 675.906 -3.51182 -2.99113 0
M  V30 6833 H 674.149 -3.34705 -2.75962 0
M  V30 6834 H 674.82 -3.34194 -4.39339 0
M  V30 6835 H 677.296 -1.48254 -3.88793 0
M  V30 6836 H 676.172 -1.5343 -5.2702 0
M  V30 6837 H 676.433 -0.019 -4.42096 0
M  V30 6838 N 675.492 1.28418 -0.913599 0
M  V30 6839 C 676.455 2.25564 -0.406624 0
M  V30 6840 C 677.455 1.5387 0.466965 0
M  V30 6841 O 678.645 1.72094 0.270042 0
M  V30 6842 C 675.777 3.38339 0.417053 0
M  V30 6843 H 676.97 2.71926 -1.26477 0
M  V30 6844 H 674.523 1.40098 -0.692986 0
M  V30 6845 H 675.258 2.97339 1.29461 0
M  V30 6846 H 675.043 3.91542 -0.209102 0
M  V30 6847 H 676.533 4.10578 0.762602 0
M  V30 6848 N 676.97 0.677563 1.42291 0
M  V30 6849 C 678.219 0.198173 2.00724 0
M  V30 6850 C 678.532 -1.20325 1.54211 0
M  V30 6851 O 679.738 -1.77916 2.05081 0
M  V30 6852 C 678.194 0.303432 3.58619 0
M  V30 6853 C 677.802 1.70909 4.14119 0
M  V30 6854 C 679.546 -0.117103 4.24338 0
M  V30 6855 C 677.453 1.76696 5.64387 0
M  V30 6856 H 676.383 0.070329 0.750713 0
M  V30 6857 H 679.034 0.843147 1.62982 0
M  V30 6858 H 677.416 -0.409482 3.93877 0
M  V30 6859 H 678.59 2.44931 3.90315 0
M  V30 6860 H 676.905 2.07771 3.6086 0
M  V30 6861 H 679.502 -0.0940471 5.34617 0
M  V30 6862 H 679.845 -1.15283 4.00019 0
M  V30 6863 H 680.378 0.5449 3.9405 0
M  V30 6864 H 677.117 2.7826 5.93508 0
M  V30 6865 H 676.637 1.07034 5.90173 0
M  V30 6866 H 678.316 1.52166 6.28852 0
M  V30 6867 N 678.448 -1.51871 0.421078 0
M  V30 6868 C 679.864 -1.59435 0.0725398 0
M  V30 6869 C 680.064 -1.43315 -1.41644 0
M  V30 6870 O 679.12 -1.26614 -2.18461 0
M  V30 6871 C 680.433 -2.9509 0.578132 0
M  V30 6872 C 681.981 -3.08356 0.537149 0
M  V30 6873 C 682.456 -4.4651 1.01945 0
M  V30 6874 N 683.947 -4.52784 0.976758 0
M  V30 6875 C 684.682 -5.57976 1.32099 0
M  V30 6876 N 684.178 -6.70664 1.73727 0
M  V30 6877 N 685.971 -5.48248 1.2402 0
M  V30 6878 H 678.122 -1.60595 1.39007 0
M  V30 6879 H 680.385 -0.756138 0.571803 0
M  V30 6880 H 680.091 -3.12205 1.61929 0
M  V30 6881 H 679.965 -3.772 -0.00578374 0
M  V30 6882 H 682.352 -2.90919 -0.494991 0
M  V30 6883 H 682.433 -2.28125 1.15727 0
M  V30 6884 H 682.077 -4.64692 2.04997 0
M  V30 6885 H 682.007 -5.25256 0.376023 0
M  V30 6886 H 684.498 -3.71898 0.670851 0
M  V30 6887 H 684.811 -7.46932 1.98274 0
M  V30 6888 H 683.156 -6.71914 1.77641 0
M  V30 6889 H 686.347 -4.59095 0.913756 0
M  V30 6890 H 686.52 -6.30119 1.51176 0
M  V30 6891 N 679.926 -0.151884 -1.56866 0
M  V30 6892 C 680.873 0.785936 -2.17006 0
M  V30 6893 C 681.843 1.2407 -1.10435 0
M  V30 6894 O 683.028 1.31235 -1.38499 0
M  V30 6895 C 680.168 2.01771 -2.79969 0
M  V30 6896 C 679.281 1.6083 -4.00946 0
M  V30 6897 C 678.416 2.79224 -4.51893 0
M  V30 6898 C 677.455 2.3468 -5.65324 0
M  V30 6899 N 676.592 3.461 -6.10867 0
M  V30 6900 H 681.432 0.266286 -2.96808 0
M  V30 6901 H 678.969 0.11972 -1.46612 0
M  V30 6902 H 680.927 2.73989 -3.14621 0
M  V30 6903 H 679.557 2.51139 -2.02803 0
M  V30 6904 H 678.609 0.783592 -3.72242 0
M  V30 6905 H 679.921 1.24119 -4.83111 0
M  V30 6906 H 679.075 3.59625 -4.88625 0
M  V30 6907 H 677.814 3.19183 -3.68746 0
M  V30 6908 H 676.819 1.52721 -5.28163 0
M  V30 6909 H 678.044 1.95801 -6.5026 0
M  V30 6910 H 675.99 3.85671 -5.30654 0
M  V30 6911 H 675.907 3.1342 -6.87971 0
M  V30 6912 H 677.175 4.26844 -6.52246 0
M  V30 6913 N 681.404 1.57128 0.121893 0
M  V30 6914 C 682.367 1.99197 1.13372 0
M  V30 6915 C 683.367 0.881728 1.3447 0
M  V30 6916 O 684.557 1.14783 1.31036 0
M  V30 6917 C 681.689 2.32963 2.4888 0
M  V30 6918 H 682.882 2.89788 0.772204 0
M  V30 6919 H 680.435 1.51952 0.366093 0
M  V30 6920 H 681.17 1.45243 2.89957 0
M  V30 6921 H 680.955 3.13934 2.34921 0
M  V30 6922 H 682.445 2.66261 3.21706 0
M  V30 6923 N 682.882 -0.391992 1.52647 0
M  V30 6924 C 683.812 -1.48517 1.8018 0
M  V30 6925 C 684.793 -1.57039 0.653667 0
M  V30 6926 O 685.978 -1.72036 0.900962 0
M  V30 6927 C 683.108 -2.86161 1.96797 0
M  V30 6928 C 682.062 -2.92481 3.12472 0
M  V30 6929 C 681.388 -4.32546 3.14338 0
M  V30 6930 C 682.688 -2.624 4.51601 0
M  V30 6931 H 684.382 -1.25726 2.71723 0
M  V30 6932 H 681.928 -0.603387 1.30749 0
M  V30 6933 H 683.881 -3.62639 2.14641 0
M  V30 6934 H 682.605 -3.10283 1.01941 0
M  V30 6935 H 681.264 -2.18451 2.94406 0
M  V30 6936 H 680.912 -4.53703 2.1717 0
M  V30 6937 H 680.612 -4.37695 3.92042 0
M  V30 6938 H 682.136 -5.10934 3.34333 0
M  V30 6939 H 683.55 -3.28596 4.69785 0
M  V30 6940 H 681.947 -2.78903 5.3135 0
M  V30 6941 H 683.017 -1.57754 4.58521 0
M  V30 6942 N 684.36 -1.4356 -0.65026 0
M  V30 6943 C 685.292 -1.44918 -1.77571 0
M  V30 6944 C 686.305 -0.344925 -1.59104 0
M  V30 6945 O 687.494 -0.609537 -1.6777 0
M  V30 6946 C 684.594 -1.24914 -3.15039 0
M  V30 6947 C 683.767 -2.48232 -3.60138 0
M  V30 6948 C 682.826 -2.23409 -4.76419 0
M  V30 6949 O 681.852 -2.9678 -4.85706 0
M  V30 6950 N 683.054 -1.25259 -5.66825 0
M  V30 6951 H 685.819 -2.41935 -1.76883 0
M  V30 6952 H 683.38 -1.38754 -0.834202 0
M  V30 6953 H 685.372 -1.06185 -3.90521 0
M  V30 6954 H 683.942 -0.363319 -3.10481 0
M  V30 6955 H 683.162 -2.82366 -2.75069 0
M  V30 6956 H 684.45 -3.30296 -3.87017 0
M  V30 6957 H 683.848 -0.646246 -5.61997 0
M  V30 6958 H 682.405 -1.12513 -6.42016 0
M  V30 6959 N 685.838 0.888903 -1.30139 0
M  V30 6960 C 686.748 2.02705 -1.18101 0
M  V30 6961 C 687.764 1.73702 -0.101809 0
M  V30 6962 O 688.94 1.98906 -0.315984 0
M  V30 6963 C 686.005 3.35616 -0.869651 0
M  V30 6964 C 685.066 3.78067 -2.03381 0
M  V30 6965 C 684.299 5.04635 -1.73721 0
M  V30 6966 O 684.522 5.66531 -0.663267 0
M  V30 6967 O 683.456 5.43399 -2.58845 0
M  V30 6968 H 687.282 2.15788 -2.13704 0
M  V30 6969 H 684.867 1.01426 -1.09695 0
M  V30 6970 H 686.749 4.15358 -0.711043 0
M  V30 6971 H 685.424 3.23651 0.0565002 0
M  V30 6972 H 684.331 2.99046 -2.24772 0
M  V30 6973 H 685.664 3.94631 -2.94155 0
M  V30 6974 N 687.317 1.12792 1.10072 0
M  V30 6975 C 688.557 0.895691 1.8373 0
M  V30 6976 C 688.921 -0.568131 1.83402 0
M  V30 6977 O 690.122 -0.917666 2.52651 0
M  V30 6978 C 688.393 1.4593 3.2625 0
M  V30 6979 S 689.952 1.36615 4.16991 0
M  V30 6980 H 686.77 0.323017 0.633389 0
M  V30 6981 H 689.372 1.43816 1.32428 0
M  V30 6982 H 688.076 2.51818 3.24062 0
M  V30 6983 H 687.607 0.914478 3.82624 0
M  V30 6984 H 689.622 0.340131 4.95033 0
M  V30 6985 N 688.795 -1.27931 0.920396 0
M  V30 6986 C 689.728 -2.2537 0.358285 0
M  V30 6987 C 690.706 -1.53328 -0.541242 0
M  V30 6988 O 691.89 -1.82196 -0.483399 0
M  V30 6989 C 689.017 -3.35178 -0.487193 0
M  V30 6990 C 688.063 -4.25079 0.347881 0
M  V30 6991 S 688.896 -5.05792 1.75883 0
M  V30 6992 C 690.052 -6.19089 0.920832 0
M  V30 6993 H 690.285 -2.72701 1.18413 0
M  V30 6994 H 687.818 -1.36474 0.722088 0
M  V30 6995 H 689.776 -3.98895 -0.96916 0
M  V30 6996 H 688.437 -2.865 -1.28749 0
M  V30 6997 H 687.63 -5.03113 -0.298912 0
M  V30 6998 H 687.232 -3.66119 0.763748 0
M  V30 6999 H 689.524 -6.77326 0.15349 0
M  V30 7000 H 690.467 -6.8803 1.67394 0
M  V30 7001 H 690.875 -5.62573 0.466069 0
M  V30 7002 N 690.273 -0.685099 -1.4193 0
M  V30 7003 C 691.205 0.0258679 -2.29185 0
M  V30 7004 C 692.218 0.755076 -1.44231 0
M  V30 7005 O 693.407 0.60752 -1.67844 0
M  V30 7006 C 690.507 1.06055 -3.21878 0
M  V30 7007 C 689.68 0.403088 -4.35539 0
M  V30 7008 C 688.739 1.33895 -5.0888 0
M  V30 7009 O 687.765 0.835326 -5.63037 0
M  V30 7010 N 688.967 2.6718 -5.15359 0
M  V30 7011 H 691.732 -0.723201 -2.90843 0
M  V30 7012 H 689.293 -0.53031 -1.52968 0
M  V30 7013 H 691.285 1.68813 -3.6781 0
M  V30 7014 H 689.855 1.71126 -2.616 0
M  V30 7015 H 689.075 -0.404185 -3.92122 0
M  V30 7016 H 690.363 -0.0545098 -5.08771 0
M  V30 7017 H 689.761 3.10626 -4.72788 0
M  V30 7018 H 688.318 3.25159 -5.64903 0
M  V30 7019 N 691.751 1.51645 -0.429126 0
M  V30 7020 C 692.701 2.24388 0.404217 0
M  V30 7021 C 693.685 1.26294 0.996933 0
M  V30 7022 O 694.877 1.51428 0.916434 0
M  V30 7023 C 692.006 3.08338 1.50938 0
M  V30 7024 C 691.092 4.13857 0.926464 0
M  V30 7025 N 691.483 5.05749 0.0719732 0
M  V30 7026 C 689.781 4.29695 1.19491 0
M  V30 7027 C 690.482 5.81143 -0.254528 0
M  V30 7028 N 689.458 5.42408 0.359763 0
M  V30 7029 H 693.26 2.92794 -0.254697 0
M  V30 7030 H 690.774 1.60606 -0.240712 0
M  V30 7031 H 692.771 3.59022 2.11918 0
M  V30 7032 H 691.431 2.41475 2.17072 0
M  V30 7033 H 692.442 5.17066 -0.293854 0
M  V30 7034 H 689.119 3.74059 1.85434 0
M  V30 7035 H 690.509 6.65159 -0.949365 0
M  V30 7036 N 693.229 0.160201 1.56784 0
M  V30 7037 C 694.177 -0.791402 2.18723 0
M  V30 7038 C 695.171 -1.24567 1.14801 0
M  V30 7039 O 696.377 -1.21262 1.33025 0
M  V30 7040 H 692.752 -0.273458 0.700517 0
M  V30 7041 H 694.723 -0.244931 2.97393 0
M  V30 7042 C 693.472 -2.01509 2.83354 0
M  V30 7043 H 692.795 -1.67454 3.63041 0
M  V30 7044 H 694.235 -2.66006 3.30177 0
M  V30 7045 C 692.694 -2.83159 1.82545 0
M  V30 7046 O 693.224 -3.79944 1.30405 0
M  V30 7047 N 691.43 -2.47953 1.51552 0
M  V30 7048 H 690.977 -1.69309 1.94144 0
M  V30 7049 H 690.935 -3.02873 0.843519 0
M  V30 7050 N 694.707 -1.5719 -0.113559 0
M  V30 7051 C 695.954 -1.85138 -0.820382 0
M  V30 7052 C 696.282 -0.74608 -1.79622 0
M  V30 7053 O 695.537 0.262077 -1.93937 0
M  V30 7054 C 695.836 -3.19593 -1.59984 0
M  V30 7055 C 695.502 -4.44315 -0.767809 0
M  V30 7056 C 694.164 -4.78179 -0.538379 0
M  V30 7057 C 696.516 -5.2086 -0.188203 0
M  V30 7058 C 693.844 -5.86028 0.28082 0
M  V30 7059 C 696.196 -6.29572 0.618217 0
M  V30 7060 C 694.86 -6.61964 0.857912 0
M  V30 7061 H 694.13 -0.677467 -0.300199 0
M  V30 7062 H 696.777 -1.91322 -0.0825443 0
M  V30 7063 H 695.082 -3.0901 -2.40874 0
M  V30 7064 H 696.779 -3.3844 -2.1508 0
M  V30 7065 H 693.369 -4.17786 -0.956724 0
M  V30 7066 H 697.553 -4.95045 -0.352658 0
M  V30 7067 H 692.809 -6.09547 0.475693 0
M  V30 7068 H 696.983 -6.88064 1.0743 0
M  V30 7069 H 694.61 -7.45365 1.49451 0
M  V30 7070 N 696.185 0.383891 -1.52853 0
M  V30 7071 C 697.41 1.154 -1.7233 0
M  V30 7072 C 697.835 1.82809 -0.44298 0
M  V30 7073 O 697.193 1.71026 0.601645 0
M  V30 7074 C 697.241 2.17386 -2.87708 0
M  V30 7075 O 696.345 3.24082 -2.55038 0
M  V30 7076 H 695.686 0.335709 -0.572883 0
M  V30 7077 H 698.216 0.44662 -1.99666 0
M  V30 7078 H 698.226 2.61296 -3.1335 0
M  V30 7079 H 696.901 1.6771 -3.80587 0
M  V30 7080 H 695.478 2.85273 -2.40153 0
M  V30 7081 N 697.663 1.43903 0.642637 0
M  V30 7082 C 698.909 1.46296 1.40447 0
M  V30 7083 C 699.242 0.0908361 1.93987 0
M  V30 7084 O 698.517 -0.889884 1.72949 0
M  V30 7085 C 698.8 2.51399 2.57819 0
M  V30 7086 C 698.653 3.97926 2.09702 0
M  V30 7087 C 699.972 2.53125 3.60022 0
M  V30 7088 H 697.091 0.532676 0.509338 0
M  V30 7089 H 699.733 1.75515 0.727635 0
M  V30 7090 H 697.883 2.26614 3.1556 0
M  V30 7091 H 699.555 4.33804 1.5688 0
M  V30 7092 H 697.798 4.10252 1.40982 0
M  V30 7093 H 698.469 4.67096 2.94152 0
M  V30 7094 H 700.945 2.75242 3.12059 0
M  V30 7095 H 699.821 3.28589 4.39682 0
M  V30 7096 H 700.082 1.56895 4.13324 0
M  V30 7097 N 699.141 -0.881989 1.30609 0
M  V30 7098 C 700.388 -1.63405 1.19604 0
M  V30 7099 C 700.716 -1.92905 -0.248574 0
M  V30 7100 O 699.971 -1.55062 -1.19391 0
M  V30 7101 C 700.27 -2.97999 1.97311 0
M  V30 7102 C 699.936 -2.88039 3.46907 0
M  V30 7103 C 698.598 -2.85029 3.877 0
M  V30 7104 C 700.95 -2.75948 4.42156 0
M  V30 7105 C 698.278 -2.67772 5.2203 0
M  V30 7106 C 700.63 -2.60228 5.76597 0
M  V30 7107 C 699.294 -2.55595 6.16626 0
M  V30 7108 H 698.564 -0.597941 0.437662 0
M  V30 7109 H 701.211 -1.02524 1.61744 0
M  V30 7110 H 699.516 -3.62847 1.47815 0
M  V30 7111 H 701.213 -3.55156 1.86186 0
M  V30 7112 H 697.803 -2.91192 3.14492 0
M  V30 7113 H 701.987 -2.77337 4.1158 0
M  V30 7114 H 697.243 -2.62601 5.52133 0
M  V30 7115 H 701.417 -2.49847 6.50038 0
M  V30 7116 H 699.044 -2.41981 7.20659 0
M  V30 7117 N 700.619 -1.13374 -1.09472 0
M  V30 7118 C 702.035 -0.871846 -1.33682 0
M  V30 7119 C 702.235 0.492847 -1.9538 0
M  V30 7120 O 701.291 1.23946 -2.19985 0
M  V30 7121 C 702.604 -1.99608 -2.24893 0
M  V30 7122 C 704.152 -2.02812 -2.38404 0
M  V30 7123 C 704.627 -3.14497 -3.3295 0
M  V30 7124 N 706.118 -3.14004 -3.40523 0
M  V30 7125 C 706.853 -3.97061 -4.13679 0
M  V30 7126 N 706.349 -4.90131 -4.89636 0
M  V30 7127 N 708.142 -3.85162 -4.09398 0
M  V30 7128 H 700.293 -2.01288 -0.677995 0
M  V30 7129 H 702.556 -0.876492 -0.361201 0
M  V30 7130 H 702.262 -2.98 -1.86786 0
M  V30 7131 H 702.136 -1.90981 -3.25278 0
M  V30 7132 H 704.523 -1.05034 -2.75775 0
M  V30 7133 H 704.604 -2.15511 -1.37799 0
M  V30 7134 H 704.248 -4.12514 -2.96302 0
M  V30 7135 H 704.178 -2.99035 -4.33458 0
M  V30 7136 H 706.669 -2.46587 -2.86362 0
M  V30 7137 H 706.982 -5.49996 -5.42885 0
M  V30 7138 H 705.327 -4.94138 -4.88726 0
M  V30 7139 H 708.518 -3.11779 -3.49158 0
M  V30 7140 H 708.691 -4.5012 -4.6615 0
M  V30 7141 N 702.098 1.27442 -0.927168 0
M  V30 7142 C 703.008 2.30599 -0.431448 0
M  V30 7143 C 704.024 1.67028 0.48761 0
M  V30 7144 O 705.2 1.97962 0.370546 0
M  V30 7145 C 702.265 3.45327 0.308292 0
M  V30 7146 C 701.326 4.24418 -0.645615 0
M  V30 7147 C 700.559 5.33667 0.0589164 0
M  V30 7148 O 700.782 5.5589 1.27838 0
M  V30 7149 O 699.716 5.98774 -0.612638 0
M  V30 7150 H 703.542 2.75036 -1.28797 0
M  V30 7151 H 701.127 1.32382 -0.692495 0
M  V30 7152 H 703.009 4.15107 0.725555 0
M  V30 7153 H 701.684 3.02945 1.14043 0
M  V30 7154 H 700.591 3.57174 -1.11255 0
M  V30 7155 H 701.924 4.70512 -1.44496 0
M  V30 7156 N 703.576 0.692616 1.41565 0
M  V30 7157 C 704.824 0.221896 2.00878 0
M  V30 7158 C 705.145 -1.18164 1.5512 0
M  V30 7159 O 704.415 -1.79679 0.78054 0
M  V30 7160 H 702.995 0.0790463 0.742806 0
M  V30 7161 H 705.657 0.893115 1.73232 0
M  V30 7162 H 704.753 0.23702 3.11199 0
M  V30 7163 N 705.054 -1.51416 0.437162 0
M  V30 7164 C 706.331 -1.94682 -0.189292 0
M  V30 7165 C 706.711 -1.37581 -1.60108 0
M  V30 7166 O 706.059 -0.562815 -2.2146 0
M  V30 7167 C 706.269 -3.48599 -0.167201 0
M  V30 7168 C 707.617 -4.2296 -0.372856 0
M  V30 7169 O 708.641 -3.55354 -0.245323 0
M  V30 7170 O 707.5 -5.42895 -0.626693 0
M  V30 7171 H 704.594 -0.816708 -0.130063 0
M  V30 7172 H 707.14 -1.62316 0.495128 0
M  V30 7173 H 705.912 -3.82616 0.81981 0
M  V30 7174 H 705.535 -3.87406 -0.894537 0
M  V30 7175 N 706.532 -0.168513 -1.56696 0
M  V30 7176 C 707.495 0.748928 -2.16619 0
M  V30 7177 C 708.495 1.16007 -1.11351 0
M  V30 7178 O 709.685 1.07748 -1.3688 0
M  V30 7179 C 706.817 2.01904 -2.74677 0
M  V30 7180 H 708.01 0.227317 -2.99037 0
M  V30 7181 H 705.563 0.0810372 -1.5609 0
M  V30 7182 H 706.298 2.58381 -1.95985 0
M  V30 7183 H 706.083 1.73323 -3.51712 0
M  V30 7184 H 707.573 2.67383 -3.20774 0
M  V30 7185 N 708.01 1.57248 0.105221 0
M  V30 7186 C 708.943 1.96567 1.15916 0
M  V30 7187 C 709.921 0.837355 1.39381 0
M  V30 7188 O 711.105 1.09676 1.53308 0
M  V30 7189 C 708.232 2.27375 2.51035 0
M  V30 7190 C 707.278 3.49869 2.43913 0
M  V30 7191 S 708.111 5.01958 1.86543 0
M  V30 7192 C 709.267 5.35932 3.23307 0
M  V30 7193 H 709.5 2.85655 0.823931 0
M  V30 7194 H 707.033 1.51204 0.312515 0
M  V30 7195 H 708.991 2.45801 3.28774 0
M  V30 7196 H 707.652 1.38876 2.81731 0
M  V30 7197 H 706.845 3.68835 3.43477 0
M  V30 7198 H 706.447 3.30901 1.743 0
M  V30 7199 H 708.739 5.31958 4.19556 0
M  V30 7200 H 709.682 6.37047 3.09155 0
M  V30 7201 H 710.09 4.63397 3.22372 0
M  V30 7202 N 709.488 -0.375779 1.53054 0
M  V30 7203 C 710.451 -1.44254 1.7811 0
M  V30 7204 C 711.451 -1.47018 0.651328 0
M  V30 7205 O 712.641 -1.47957 0.919472 0
M  V30 7206 C 709.773 -2.8345 1.89391 0
M  V30 7207 H 710.966 -1.23316 2.73374 0
M  V30 7208 H 708.519 -0.608312 1.43977 0
M  V30 7209 H 709.254 -3.09716 0.961589 0
M  V30 7210 H 709.039 -2.82844 2.71555 0
M  V30 7211 H 710.529 -3.60722 2.10404 0
M  V30 7212 N 710.966 -1.44241 -0.634997 0
M  V30 7213 C 711.913 -1.5081 -1.74714 0
M  V30 7214 C 712.883 -0.356147 -1.62237 0
M  V30 7215 O 714.068 -0.565848 -1.82216 0
M  V30 7216 C 711.208 -1.45458 -3.12947 0
M  V30 7217 C 710.321 -2.70998 -3.36428 0
M  V30 7218 C 709.456 -2.57507 -4.64611 0
M  V30 7219 C 708.495 -3.78229 -4.81258 0
M  V30 7220 N 707.632 -3.63438 -6.00714 0
M  V30 7221 H 712.472 -2.45832 -1.68436 0
M  V30 7222 H 710.009 -1.2201 -0.821706 0
M  V30 7223 H 711.967 -1.40347 -3.92885 0
M  V30 7224 H 710.597 -0.540058 -3.1825 0
M  V30 7225 H 709.649 -2.86312 -2.50458 0
M  V30 7226 H 710.961 -3.60619 -3.44609 0
M  V30 7227 H 710.115 -2.50207 -5.52703 0
M  V30 7228 H 708.854 -1.65441 -4.58782 0
M  V30 7229 H 707.859 -3.85918 -3.91596 0
M  V30 7230 H 709.084 -4.71327 -4.88904 0
M  V30 7231 H 707.03 -2.7412 -5.95982 0
M  V30 7232 H 706.947 -4.46672 -6.09934 0
M  V30 7233 H 708.215 -3.60022 -6.91378 0
M  V30 7234 N 712.444 0.87505 -1.31075 0
M  V30 7235 C 713.692 1.62447 -1.20231 0
M  V30 7236 C 714.013 1.93506 0.240888 0
M  V30 7237 O 713.283 1.57847 1.16022 0
M  V30 7238 H 711.863 0.602207 -0.441991 0
M  V30 7239 H 714.525 1.04788 -1.64334 0
M  V30 7240 H 713.621 2.57031 -1.77036 0
M  V30 7241 N 713.922 1.13953 1.08869 0
M  V30 7242 C 714.852 0.844824 2.17681 0
M  V30 7243 C 715.833 -0.198213 1.68941 0
M  V30 7244 O 717.018 -0.0559073 1.9412 0
M  V30 7245 C 714.148 0.316325 3.45856 0
M  V30 7246 C 713.102 1.29426 4.07962 0
M  V30 7247 C 712.428 0.625275 5.31031 0
M  V30 7248 C 713.728 2.65484 4.49795 0
M  V30 7249 H 715.422 1.75471 2.42591 0
M  V30 7250 H 712.968 0.845116 1.16592 0
M  V30 7251 H 714.921 0.0977876 4.21287 0
M  V30 7252 H 713.645 -0.628972 3.20486 0
M  V30 7253 H 712.304 1.49889 3.34558 0
M  V30 7254 H 711.952 -0.325678 5.01945 0
M  V30 7255 H 711.652 1.27777 5.73539 0
M  V30 7256 H 713.176 0.416152 6.0918 0
M  V30 7257 H 714.59 2.48957 5.16424 0
M  V30 7258 H 712.987 3.26963 5.03205 0
M  V30 7259 H 714.057 3.22717 3.61914 0
M  V30 7260 N 715.4 -1.26948 0.933913 0
M  V30 7261 C 716.31 -2.30366 0.443671 0
M  V30 7262 C 717.326 -1.67284 -0.478745 0
M  V30 7263 O 718.502 -1.98156 -0.360043 0
M  V30 7264 C 715.567 -3.45485 -0.289974 0
M  V30 7265 C 714.628 -4.24069 0.668114 0
M  V30 7266 C 713.861 -5.33691 -0.0306138 0
M  V30 7267 O 714.084 -5.5656 -1.24888 0
M  V30 7268 O 713.018 -5.98441 0.644384 0
M  V30 7269 H 716.844 -2.74349 1.30254 0
M  V30 7270 H 714.429 -1.32012 0.699506 0
M  V30 7271 H 716.311 -4.15486 -0.70353 0
M  V30 7272 H 714.986 -3.03546 -1.12435 0
M  V30 7273 H 713.893 -3.56579 1.13147 0
M  V30 7274 H 715.226 -4.69739 1.46989 0
M  V30 7275 N 716.879 -0.700114 -1.41195 0
M  V30 7276 C 717.811 0.00155823 -2.292 0
M  V30 7277 C 718.824 0.739736 -1.45023 0
M  V30 7278 O 720.013 0.589684 -1.68478 0
M  V30 7279 C 717.113 1.02635 -3.22985 0
M  V30 7280 C 716.286 0.356871 -4.35942 0
M  V30 7281 C 715.345 1.28491 -5.10271 0
M  V30 7282 O 714.371 0.775562 -5.63892 0
M  V30 7283 N 715.573 2.61699 -5.18164 0
M  V30 7284 H 718.338 -0.754008 -2.9006 0
M  V30 7285 H 715.899 -0.546504 -1.52397 0
M  V30 7286 H 717.891 1.64902 -3.6958 0
M  V30 7287 H 716.461 1.68341 -2.63401 0
M  V30 7288 H 715.681 -0.445753 -3.91672 0
M  V30 7289 H 716.969 -0.108469 -5.08684 0
M  V30 7290 H 716.367 3.05594 -4.76056 0
M  V30 7291 H 714.924 3.19149 -5.6832 0
M  V30 7292 N 718.357 1.51182 -0.445186 0
M  V30 7293 C 719.287 2.30821 0.352686 0
M  V30 7294 C 720.268 1.36576 1.01395 0
M  V30 7295 O 721.453 1.65497 1.01609 0
M  V30 7296 C 718.583 3.15593 1.44976 0
M  V30 7297 C 717.537 4.1818 0.911553 0
M  V30 7298 C 716.863 4.91523 2.10497 0
M  V30 7299 C 718.163 5.22266 -0.059418 0
M  V30 7300 H 719.857 2.97771 -0.311936 0
M  V30 7301 H 717.403 1.43201 -0.151461 0
M  V30 7302 H 719.356 3.70091 2.01521 0
M  V30 7303 H 718.08 2.4648 2.14278 0
M  V30 7304 H 716.739 3.64746 0.368264 0
M  V30 7305 H 716.387 4.18906 2.78437 0
M  V30 7306 H 716.087 5.60898 1.7512 0
M  V30 7307 H 717.611 5.48847 2.6758 0
M  V30 7308 H 719.025 5.71789 0.415985 0
M  V30 7309 H 717.422 5.99213 -0.326152 0
M  V30 7310 H 718.492 4.7461 -0.993631 0
M  V30 7311 N 719.835 0.176821 1.56605 0
M  V30 7312 C 720.782 -0.751312 2.18229 0
M  V30 7313 C 721.752 -1.22297 1.12395 0
M  V30 7314 O 722.937 -1.29015 1.40569 0
M  V30 7315 C 720.077 -1.97291 2.83143 0
M  V30 7316 C 719.19 -1.54431 4.03454 0
M  V30 7317 C 718.325 -2.72 4.56278 0
M  V30 7318 C 717.364 -2.25657 5.68986 0
M  V30 7319 N 716.501 -3.36338 6.16296 0
M  V30 7320 H 721.341 -0.219033 2.97194 0
M  V30 7321 H 718.878 -0.0963803 1.46784 0
M  V30 7322 H 720.836 -2.68949 3.1894 0
M  V30 7323 H 719.466 -2.4788 2.06773 0
M  V30 7324 H 718.518 -0.724273 3.73441 0
M  V30 7325 H 719.83 -1.16417 4.85024 0
M  V30 7326 H 718.984 -3.51806 4.94285 0
M  V30 7327 H 717.723 -3.13277 3.73777 0
M  V30 7328 H 716.728 -1.44299 5.30526 0
M  V30 7329 H 717.953 -1.85432 6.53293 0
M  V30 7330 H 715.899 -3.7718 5.36723 0
M  V30 7331 H 715.816 -3.02435 6.9287 0
M  V30 7332 H 717.084 -4.16413 6.58954 0
M  V30 7333 N 721.313 -1.57302 -0.09688 0
M  V30 7334 C 722.559 -1.86273 -0.801885 0
M  V30 7335 C 722.892 -0.765694 -1.78468 0
M  V30 7336 O 722.167 0.226495 -1.93177 0
M  V30 7337 C 722.45 -3.25876 -1.53221 0
M  V30 7338 C 722.303 -4.46205 -0.567529 0
M  V30 7339 C 723.622 -3.63352 -2.48321 0
M  V30 7340 H 720.741 -0.67752 -0.29006 0
M  V30 7341 H 723.383 -1.89887 -0.0655577 0
M  V30 7342 H 721.533 -3.22926 -2.15988 0
M  V30 7343 H 723.205 -4.6127 0.0529982 0
M  V30 7344 H 721.448 -4.33636 0.119233 0
M  V30 7345 H 722.119 -5.40608 -1.11564 0
M  V30 7346 H 724.595 -3.67234 -1.95648 0
M  V30 7347 H 723.471 -4.61968 -2.9644 0
M  V30 7348 H 723.732 -2.91941 -3.31998 0
M  V30 7349 N 722.791 0.367657 -1.53252 0
M  V30 7350 C 724.04 1.10782 -1.68554 0
M  V30 7351 C 724.353 1.90523 -0.442765 0
M  V30 7352 O 725.559 2.6729 -0.47629 0
M  V30 7353 C 724.015 2.01863 -2.97959 0
M  V30 7354 C 723.623 1.27443 -4.29491 0
M  V30 7355 C 725.367 2.75883 -3.22628 0
M  V30 7356 C 723.274 2.17414 -5.49987 0
M  V30 7357 H 722.204 0.417272 -0.628013 0
M  V30 7358 H 724.855 0.368971 -1.79752 0
M  V30 7359 H 723.237 2.7947 -2.80558 0
M  V30 7360 H 724.411 0.549138 -4.57516 0
M  V30 7361 H 722.726 0.652935 -4.11249 0
M  V30 7362 H 725.323 3.43421 -4.09837 0
M  V30 7363 H 725.666 3.41138 -2.38601 0
M  V30 7364 H 726.199 2.0536 -3.40693 0
M  V30 7365 H 722.938 1.5674 -6.36485 0
M  V30 7366 H 722.458 2.87799 -5.26243 0
M  V30 7367 H 724.137 2.77019 -5.84696 0
M  V30 7368 N 724.269 1.44576 0.627338 0
M  V30 7369 C 725.685 1.28546 0.945938 0
M  V30 7370 C 725.885 0.224003 2.00251 0
M  V30 7371 O 724.941 -0.388817 2.49488 0
M  V30 7372 C 726.254 2.65825 1.40561 0
M  V30 7373 C 727.802 2.73566 1.52088 0
M  V30 7374 C 728.277 4.11323 2.01438 0
M  V30 7375 N 729.768 4.13519 2.08702 0
M  V30 7376 C 730.503 5.16964 2.48065 0
M  V30 7377 N 729.999 6.30768 2.86538 0
M  V30 7378 N 731.792 5.04319 2.48232 0
M  V30 7379 H 723.943 2.1228 -0.0713567 0
M  V30 7380 H 726.206 0.947503 0.0307081 0
M  V30 7381 H 725.912 3.44591 0.703539 0
M  V30 7382 H 725.786 2.92969 2.37591 0
M  V30 7383 H 728.173 1.95116 2.21391 0
M  V30 7384 H 728.254 2.50159 0.534237 0
M  V30 7385 H 727.898 4.9025 1.32729 0
M  V30 7386 H 727.828 4.32109 3.0098 0
M  V30 7387 H 730.319 3.31385 1.81638 0
M  V30 7388 H 730.632 7.0551 3.15398 0
M  V30 7389 H 728.977 6.342 2.84281 0
M  V30 7390 H 732.168 4.14465 2.17569 0
M  V30 7391 H 732.341 5.85059 2.78585 0
M  V30 7392 N 725.747 -0.868086 1.31537 0
M  V30 7393 C 726.657 -2.00801 1.21311 0
M  V30 7394 C 727.673 -1.73518 0.129431 0
M  V30 7395 O 728.849 -1.98378 0.347588 0
M  V30 7396 C 725.914 -3.3419 0.922935 0
M  V30 7397 C 724.975 -3.74783 2.0937 0
M  V30 7398 C 724.208 -5.01807 1.81728 0
M  V30 7399 O 724.431 -5.65404 0.753313 0
M  V30 7400 O 723.365 -5.39213 2.67457 0
M  V30 7401 H 727.191 -2.12361 2.17109 0
M  V30 7402 H 724.776 -0.996684 1.11295 0
M  V30 7403 H 726.658 -4.14174 0.777033 0
M  V30 7404 H 725.333 -3.237 -0.00500301 0
M  V30 7405 H 724.24 -2.95432 2.29501 0
M  V30 7406 H 725.573 -3.89902 3.00396 0
M  V30 7407 N 727.225 -1.14528 -1.08264 0
M  V30 7408 C 728.641 -0.885976 -1.3275 0
M  V30 7409 C 728.841 0.472096 -1.95892 0
M  V30 7410 O 727.897 1.21606 -2.21288 0
M  V30 7411 C 729.21 -2.01982 -2.22764 0
M  V30 7412 C 730.758 -2.05329 -2.36239 0
M  V30 7413 C 731.233 -3.1801 -3.29596 0
M  V30 7414 N 732.724 -3.17598 -3.37173 0
M  V30 7415 C 733.459 -4.01426 -4.09444 0
M  V30 7416 N 732.955 -4.95297 -4.8441 0
M  V30 7417 N 734.748 -3.89482 -4.0529 0
M  V30 7418 H 726.899 -2.01996 -0.656607 0
M  V30 7419 H 729.162 -0.880274 -0.351884 0
M  V30 7420 H 728.868 -2.99964 -1.83615 0
M  V30 7421 H 728.742 -1.94421 -3.23234 0
M  V30 7422 H 731.129 -1.07953 -2.74646 0
M  V30 7423 H 731.21 -2.1696 -1.35506 0
M  V30 7424 H 730.854 -4.15633 -2.9191 0
M  V30 7425 H 730.784 -3.03616 -4.30261 0
M  V30 7426 H 733.275 -2.4961 -2.83731 0
M  V30 7427 H 733.588 -5.55723 -5.37021 0
M  V30 7428 H 731.933 -4.99293 -4.83457 0
M  V30 7429 H 735.124 -3.15465 -3.45832 0
M  V30 7430 H 735.297 -4.55039 -4.6135 0
M  V30 7431 N 728.703 1.26451 -0.940633 0
M  V30 7432 C 729.633 2.28773 -0.467479 0
M  V30 7433 C 730.614 1.63218 0.478955 0
M  V30 7434 O 731.799 1.90427 0.380929 0
M  V30 7435 C 728.929 3.46259 0.268656 0
M  V30 7436 C 727.883 4.23898 -0.591171 0
M  V30 7437 C 727.209 5.33993 0.274891 0
M  V30 7438 C 728.509 4.87974 -1.86223 0
M  V30 7439 H 730.203 2.68601 -1.32265 0
M  V30 7440 H 727.749 1.29123 -0.637436 0
M  V30 7441 H 729.702 4.16951 0.610696 0
M  V30 7442 H 728.426 3.05383 1.15796 0
M  V30 7443 H 727.085 3.54969 -0.916098 0
M  V30 7444 H 726.733 4.89358 1.16353 0
M  V30 7445 H 726.433 5.86849 -0.297006 0
M  V30 7446 H 727.957 6.07523 0.612213 0
M  V30 7447 H 729.371 5.50883 -1.58747 0
M  V30 7448 H 727.768 5.50945 -2.37866 0
M  V30 7449 H 728.838 4.10945 -2.57394 0
M  V30 7450 N 730.181 0.707592 1.40822 0
M  V30 7451 C 731.128 0.0499029 2.30746 0
M  V30 7452 C 732.098 -0.758718 1.47759 0
M  V30 7453 O 733.283 -0.724299 1.76518 0
M  V30 7454 C 730.423 -0.871756 3.33908 0
M  V30 7455 C 729.536 -0.0534655 4.31967 0
M  V30 7456 C 728.671 -0.973869 5.22197 0
M  V30 7457 C 727.71 -0.149194 6.11918 0
M  V30 7458 N 726.847 -1.02404 6.94592 0
M  V30 7459 H 731.687 0.822461 2.86426 0
M  V30 7460 H 729.224 0.417285 1.41057 0
M  V30 7461 H 731.182 -1.42028 3.9228 0
M  V30 7462 H 729.812 -1.61058 2.7975 0
M  V30 7463 H 728.864 0.612142 3.75442 0
M  V30 7464 H 730.176 0.585354 4.95353 0
M  V30 7465 H 729.33 -1.59121 5.85462 0
M  V30 7466 H 728.069 -1.64652 4.59065 0
M  V30 7467 H 727.074 0.481137 5.47691 0
M  V30 7468 H 728.299 0.519841 6.77107 0
M  V30 7469 H 726.245 -1.6825 6.34057 0
M  V30 7470 H 726.162 -0.441076 7.54712 0
M  V30 7471 H 727.43 -1.62782 7.62314 0
M  V30 7472 N 731.66 -1.50943 0.453197 0
M  V30 7473 C 732.608 -2.29728 -0.364419 0
M  V30 7474 C 733.602 -1.36246 -1.00664 0
M  V30 7475 O 734.808 -1.53518 -0.939794 0
M  V30 7476 H 731.183 -0.739536 -0.136347 0
M  V30 7477 H 733.154 -2.96672 0.320696 0
M  V30 7478 C 731.903 -3.1629 -1.44415 0
M  V30 7479 H 731.226 -3.88119 -0.959343 0
M  V30 7480 H 732.666 -3.74444 -1.98917 0
M  V30 7481 C 731.125 -2.32702 -2.43622 0
M  V30 7482 O 731.655 -1.99763 -3.48508 0
M  V30 7483 N 729.861 -1.95621 -2.14897 0
M  V30 7484 H 729.408 -2.22607 -1.29629 0
M  V30 7485 H 729.366 -1.39993 -2.81513 0
M  V30 7486 N 733.138 -0.185124 -1.56509 0
M  V30 7487 C 734.101 0.72591 -2.17401 0
M  V30 7488 C 735.101 1.14819 -1.12575 0
M  V30 7489 O 736.291 1.0629 -1.38015 0
M  V30 7490 C 733.423 1.98979 -2.76803 0
M  V30 7491 H 734.616 0.195588 -2.99262 0
M  V30 7492 H 732.169 0.0644772 -1.56167 0
M  V30 7493 H 732.904 2.56287 -1.98714 0
M  V30 7494 H 732.689 1.69583 -3.53531 0
M  V30 7495 H 734.179 2.63966 -3.23592 0
M  V30 7496 N 734.616 1.57351 0.0885366 0
M  V30 7497 C 736.032 1.53331 0.442916 0
M  V30 7498 C 736.232 0.902831 1.80142 0
M  V30 7499 O 735.288 0.498147 2.47537 0
M  V30 7500 C 736.601 2.98036 0.399372 0
M  V30 7501 C 738.149 3.09286 0.480759 0
M  V30 7502 C 738.624 4.5561 0.467296 0
M  V30 7503 N 740.115 4.60182 0.52786 0
M  V30 7504 C 740.85 5.70857 0.539388 0
M  V30 7505 N 740.346 6.90944 0.506729 0
M  V30 7506 N 742.139 5.59051 0.584691 0
M  V30 7507 H 734.29 1.96709 -0.801215 0
M  V30 7508 H 736.553 0.899639 -0.298922 0
M  V30 7509 H 736.259 3.47656 -0.531806 0
M  V30 7510 H 736.133 3.57066 1.21589 0
M  V30 7511 H 738.52 2.5965 1.40236 0
M  V30 7512 H 738.601 2.53197 -0.364023 0
M  V30 7513 H 738.245 5.05899 -0.450384 0
M  V30 7514 H 738.175 5.09544 1.32938 0
M  V30 7515 H 740.666 3.73757 0.558028 0
M  V30 7516 H 740.979 7.71055 0.518989 0
M  V30 7517 H 739.324 6.93384 0.473675 0
M  V30 7518 H 742.515 4.64138 0.607781 0
M  V30 7519 H 742.688 6.45307 0.590206 0
M  V30 7520 N 736.094 -0.359525 1.53444 0
M  V30 7521 C 737.024 -1.44662 1.8329 0
M  V30 7522 C 738.005 -1.55617 0.68683 0
M  V30 7523 O 739.19 -1.70086 0.93725 0
M  V30 7524 C 736.32 -2.81923 2.02822 0
M  V30 7525 C 735.274 -2.85787 3.18606 0
M  V30 7526 C 734.6 -4.25781 3.23442 0
M  V30 7527 C 735.9 -2.52762 4.57065 0
M  V30 7528 H 737.594 -1.19934 2.74329 0
M  V30 7529 H 735.14 -0.575517 1.31999 0
M  V30 7530 H 737.093 -3.58005 2.22285 0
M  V30 7531 H 735.817 -3.08051 1.085 0
M  V30 7532 H 734.476 -2.12157 2.98973 0
M  V30 7533 H 734.124 -4.48994 2.26745 0
M  V30 7534 H 733.824 -4.29281 4.01238 0
M  V30 7535 H 735.348 -5.03727 3.45096 0
M  V30 7536 H 736.762 -3.18557 4.76649 0
M  V30 7537 H 735.159 -2.67569 5.37147 0
M  V30 7538 H 736.229 -1.47993 4.61764 0
M  V30 7539 N 737.572 -1.44907 -0.619662 0
M  V30 7540 C 738.849 -1.38766 -1.37852 0
M  V30 7541 C 739.229 -0.0521393 -2.11036 0
M  V30 7542 O 738.577 0.965613 -2.07095 0
M  V30 7543 C 738.787 -2.59344 -2.33541 0
M  V30 7544 C 740.135 -3.03909 -2.96521 0
M  V30 7545 O 741.159 -2.59631 -2.43865 0
M  V30 7546 O 740.018 -3.80713 -3.92071 0
M  V30 7547 H 737.112 -0.550083 -0.617525 0
M  V30 7548 H 739.658 -1.57015 -0.643759 0
M  V30 7549 H 738.43 -3.48142 -1.78642 0
M  V30 7550 H 738.053 -2.43367 -3.14417 0
M  V30 7551 N 739.05 0.861098 -1.31996 0
M  V30 7552 C 740.327 1.59788 -1.12814 0
M  V30 7553 C 740.707 2.08753 0.313882 0
M  V30 7554 O 740.055 1.87258 1.30946 0
M  V30 7555 C 740.265 2.74901 -2.15012 0
M  V30 7556 C 741.613 3.44643 -2.48004 0
M  V30 7557 O 742.637 2.85119 -2.13508 0
M  V30 7558 O 741.496 4.52044 -3.07113 0
M  V30 7559 H 738.59 0.703408 -0.434909 0
M  V30 7560 H 741.136 0.905788 -1.43505 0
M  V30 7561 H 739.908 2.36198 -3.11971 0
M  V30 7562 H 739.531 3.51792 -1.85279 0
M  V30 7563 N 740.528 1.15101 1.07655 0
M  V30 7564 C 741.756 0.947731 1.83918 0
M  V30 7565 C 742.171 -0.503927 1.81951 0
M  V30 7566 O 741.528 -1.34941 1.2287 0
M  V30 7567 C 741.579 1.4503 3.31132 0
M  V30 7568 O 741.3 2.84508 3.33146 0
M  V30 7569 C 742.801 1.28806 4.24174 0
M  V30 7570 H 740.021 0.336786 0.580358 0
M  V30 7571 H 742.565 1.52799 1.35914 0
M  V30 7572 H 740.72 0.912632 3.76497 0
M  V30 7573 H 741.134 3.0723 4.251 0
M  V30 7574 H 742.608 1.6882 5.25551 0
M  V30 7575 H 743.085 0.231851 4.38588 0
M  V30 7576 H 743.691 1.81465 3.84643 0
M  V30 7577 N 742.006 -1.2595 0.947325 0
M  V30 7578 C 743.231 -1.98083 0.614633 0
M  V30 7579 C 743.656 -1.70013 -0.804815 0
M  V30 7580 O 743.014 -0.95175 -1.54309 0
M  V30 7581 C 743.062 -3.4993 0.870706 0
M  V30 7582 O 742.166 -4.12364 -0.0541451 0
M  V30 7583 H 741.507 -0.621232 0.234451 0
M  V30 7584 H 744.037 -1.60259 1.27193 0
M  V30 7585 H 744.047 -4.00198 0.794051 0
M  V30 7586 H 742.722 -3.69691 1.90529 0
M  V30 7587 H 741.299 -3.72826 0.0740917 0
M  V30 7588 N 743.484 -0.715051 -1.40445 0
M  V30 7589 C 744.709 -0.26254 -2.05732 0
M  V30 7590 C 745.134 1.08691 -1.53519 0
M  V30 7591 O 744.492 1.68453 -0.670328 0
M  V30 7592 C 744.54 -0.25195 -3.59719 0
M  V30 7593 O 743.644 0.766998 -4.05205 0
M  V30 7594 H 742.985 -0.123398 -0.652433 0
M  V30 7595 H 745.515 -0.975382 -1.79854 0
M  V30 7596 H 745.525 -0.0894537 -4.07902 0
M  V30 7597 H 744.2 -1.23672 -3.97087 0
M  V30 7598 H 742.777 0.572269 -3.68483 0
M  V30 7599 N 744.962 1.50701 -0.461195 0
M  V30 7600 C 745.872 2.32069 0.343661 0
M  V30 7601 C 746.888 1.42016 1.00535 0
M  V30 7602 O 748.064 1.75077 0.995498 0
M  V30 7603 C 745.129 3.16424 1.41692 0
M  V30 7604 C 744.19 4.22286 0.772869 0
M  V30 7605 C 743.423 5.02609 1.79499 0
M  V30 7606 O 743.646 4.83874 3.0203 0
M  V30 7607 O 742.58 5.86047 1.3723 0
M  V30 7608 H 746.406 3.01996 -0.321268 0
M  V30 7609 H 743.991 1.47723 -0.223235 0
M  V30 7610 H 745.873 3.68795 2.03883 0
M  V30 7611 H 744.548 2.49236 2.0655 0
M  V30 7612 H 743.455 3.73931 0.112277 0
M  V30 7613 H 744.788 4.91915 0.167399 0
M  V30 7614 N 746.441 0.193421 1.56409 0
M  V30 7615 C 747.688 -0.445789 1.97532 0
M  V30 7616 C 748.016 -1.61744 1.08024 0
M  V30 7617 O 747.271 -1.95338 0.118982 0
M  V30 7618 C 747.57 -0.949718 3.44551 0
M  V30 7619 C 747.236 0.108383 4.5077 0
M  V30 7620 C 745.898 0.399126 4.79542 0
M  V30 7621 C 748.25 0.825423 5.14622 0
M  V30 7622 C 745.578 1.41192 5.69457 0
M  V30 7623 C 747.93 1.82735 6.05632 0
M  V30 7624 C 746.594 2.12531 6.32761 0
M  V30 7625 H 745.864 -0.163126 0.722822 0
M  V30 7626 H 748.511 0.290035 1.89291 0
M  V30 7627 H 746.816 -1.76378 3.49854 0
M  V30 7628 H 748.513 -1.45367 3.73724 0
M  V30 7629 H 745.103 -0.128392 4.28408 0
M  V30 7630 H 749.287 0.61403 4.92487 0
M  V30 7631 H 744.543 1.6487 5.88751 0
M  V30 7632 H 748.717 2.3882 6.5417 0
M  V30 7633 H 746.344 2.91155 7.02234 0
M  V30 7634 N 747.919 -1.57396 -0.0801906 0
M  V30 7635 C 748.867 -2.04136 -1.11495 0
M  V30 7636 C 749.861 -0.945137 -1.40583 0
M  V30 7637 O 751.067 -1.13028 -1.40088 0
M  V30 7638 H 747.442 -0.65076 -0.37685 0
M  V30 7639 H 749.413 -2.90205 -0.694526 0
M  V30 7640 C 748.162 -2.49399 -2.42272 0
M  V30 7641 H 747.485 -3.33339 -2.20737 0
M  V30 7642 H 748.925 -2.85864 -3.13142 0
M  V30 7643 C 747.384 -1.37341 -3.07635 0
M  V30 7644 O 747.914 -0.710829 -3.95361 0
M  V30 7645 N 746.12 -1.12064 -2.68123 0
M  V30 7646 H 745.667 -1.66126 -1.96875 0
M  V30 7647 H 745.625 -0.372916 -3.12181 0
M  V30 7648 N 749.397 0.351382 -1.53633 0
M  V30 7649 C 750.625 1.11275 -1.74429 0
M  V30 7650 C 751.04 1.82602 -0.479798 0
M  V30 7651 O 750.397 1.74074 0.548125 0
M  V30 7652 C 750.448 2.13223 -2.91921 0
M  V30 7653 O 750.169 1.44798 -4.13479 0
M  V30 7654 C 751.67 3.01797 -3.24706 0
M  V30 7655 H 748.89 0.332153 -0.583023 0
M  V30 7656 H 751.434 0.405974 -2.0043 0
M  V30 7657 H 749.589 2.79477 -2.68274 0
M  V30 7658 H 750.003 2.12839 -4.79374 0
M  V30 7659 H 751.477 3.69282 -4.10286 0
M  V30 7660 H 751.954 3.67387 -2.40673 0
M  V30 7661 H 752.56 2.41141 -3.5033 0
M  V30 7662 N 750.875 1.45233 0.611969 0
M  V30 7663 C 751.807 1.49575 1.73666 0
M  V30 7664 C 752.82 0.386987 1.58134 0
M  V30 7665 O 754.009 0.653804 1.66095 0
M  V30 7666 C 751.109 1.33223 3.11617 0
M  V30 7667 C 750.282 2.57694 3.5343 0
M  V30 7668 C 749.341 2.35962 4.70328 0
M  V30 7669 O 748.367 3.09553 4.77667 0
M  V30 7670 N 749.569 1.40243 5.63305 0
M  V30 7671 H 752.334 2.46539 1.70407 0
M  V30 7672 H 749.895 1.40917 0.79712 0
M  V30 7673 H 751.887 1.16502 3.87569 0
M  V30 7674 H 750.457 0.44551 3.09409 0
M  V30 7675 H 749.677 2.8956 2.67486 0
M  V30 7676 H 750.965 3.40441 3.78124 0
M  V30 7677 H 750.363 0.795023 5.60086 0
M  V30 7678 H 748.92 1.29496 6.38807 0
M  V30 7679 N 752.353 -0.854086 1.3245 0
M  V30 7680 C 753.769 -1.14238 1.11453 0
M  V30 7681 C 753.969 -2.01228 -0.10461 0
M  V30 7682 O 753.025 -2.39845 -0.789339 0
M  V30 7683 C 754.338 -1.81916 2.39431 0
M  V30 7684 C 755.886 -1.94549 2.45193 0
M  V30 7685 C 756.361 -2.65642 3.73093 0
M  V30 7686 N 757.852 -2.73167 3.74078 0
M  V30 7687 C 758.587 -3.28828 4.69744 0
M  V30 7688 N 758.083 -3.85295 5.75778 0
M  V30 7689 N 759.876 -3.26936 4.57241 0
M  V30 7690 H 752.027 -0.274786 2.10615 0
M  V30 7691 H 754.29 -0.184375 0.929898 0
M  V30 7692 H 753.996 -1.25452 3.28565 0
M  V30 7693 H 753.87 -2.82068 2.50434 0
M  V30 7694 H 756.257 -2.50172 1.56518 0
M  V30 7695 H 756.338 -0.933914 2.38142 0
M  V30 7696 H 755.982 -2.10683 4.62142 0
M  V30 7697 H 755.912 -3.6724 3.77415 0
M  V30 7698 H 758.403 -2.33108 2.97438 0
M  V30 7699 H 758.716 -4.25925 6.44832 0
M  V30 7700 H 757.061 -3.83625 5.79531 0
M  V30 7701 H 760.252 -2.8207 3.7357 0
M  V30 7702 H 760.425 -3.70014 5.31971 0
M  V30 7703 N 753.831 -1.1567 -1.07043 0
M  V30 7704 C 755.077 -0.9349 -1.79965 0
M  V30 7705 C 755.41 0.536464 -1.86643 0
M  V30 7706 O 754.685 1.39781 -1.35247 0
M  V30 7707 C 754.968 -1.55371 -3.24857 0
M  V30 7708 C 754.821 -3.09589 -3.26305 0
M  V30 7709 C 756.14 -1.24209 -4.22209 0
M  V30 7710 H 753.259 -0.341061 -0.653335 0
M  V30 7711 H 755.901 -1.42883 -1.25237 0
M  V30 7712 H 754.051 -1.13368 -3.71591 0
M  V30 7713 H 755.723 -3.60521 -2.87789 0
M  V30 7714 H 753.966 -3.43315 -2.65174 0
M  V30 7715 H 754.637 -3.48002 -4.28484 0
M  V30 7716 H 757.113 -1.60548 -3.8388 0
M  V30 7717 H 755.989 -1.70119 -5.21872 0
M  V30 7718 H 756.25 -0.15964 -4.41812 0
M  V30 7719 N 755.309 1.25446 -0.953992 0
M  V30 7720 C 756.219 2.29632 -0.480264 0
M  V30 7721 C 757.235 1.68025 0.452071 0
M  V30 7722 O 758.411 1.98703 0.328472 0
M  V30 7723 C 755.476 3.45903 0.234974 0
M  V30 7724 C 754.537 4.22953 -0.735495 0
M  V30 7725 C 753.77 5.33672 -0.0542957 0
M  V30 7726 O 753.993 5.58477 1.16018 0
M  V30 7727 O 752.927 5.9734 -0.739509 0
M  V30 7728 H 756.753 2.72242 -1.34602 0
M  V30 7729 H 754.338 1.30883 -0.720419 0
M  V30 7730 H 756.22 4.16552 0.637341 0
M  V30 7731 H 754.895 3.05296 1.07592 0
M  V30 7732 H 753.802 3.54734 -1.18806 0
M  V30 7733 H 755.135 4.67341 -1.54444 0
M  V30 7734 N 756.787 0.722489 1.40064 0
M  V30 7735 C 758.027 0.269491 2.02616 0
M  V30 7736 C 758.391 -1.11835 1.56067 0
M  V30 7737 O 759.592 -1.66873 2.1073 0
M  V30 7738 C 757.863 0.354066 3.55642 0
M  V30 7739 S 759.422 -0.0209309 4.38795 0
M  V30 7740 H 756.24 0.106412 0.702992 0
M  V30 7741 H 758.842 0.946237 1.71075 0
M  V30 7742 H 757.546 1.36565 3.87012 0
M  V30 7743 H 757.077 -0.340925 3.9192 0
M  V30 7744 H 759.092 -1.24093 4.80432 0
M  V30 7745 N 758.265 -1.50454 0.469181 0
M  V30 7746 C 759.195 -2.31353 -0.31592 0
M  V30 7747 C 760.176 -1.38172 -0.992094 0
M  V30 7748 O 761.361 -1.67093 -0.989633 0
M  V30 7749 C 758.491 -3.1786 -1.39937 0
M  V30 7750 C 757.445 -4.19578 -0.844909 0
M  V30 7751 C 756.771 -4.9481 -2.0265 0
M  V30 7752 C 758.071 -5.22106 0.142499 0
M  V30 7753 H 759.765 -2.97237 0.359269 0
M  V30 7754 H 757.311 -1.42942 0.174224 0
M  V30 7755 H 759.264 -3.7325 -1.95607 0
M  V30 7756 H 757.988 -2.49858 -2.1033 0
M  V30 7757 H 756.647 -3.65285 -0.310189 0
M  V30 7758 H 756.295 -4.23282 -2.71737 0
M  V30 7759 H 755.995 -5.63613 -1.66174 0
M  V30 7760 H 757.519 -5.53035 -2.58815 0
M  V30 7761 H 758.933 -5.72378 -0.324966 0
M  V30 7762 H 757.33 -5.98618 0.421441 0
M  V30 7763 H 758.4 -4.7297 1.06901 0
M  V30 7764 N 759.743 -0.201713 -1.56304 0
M  V30 7765 C 760.653 0.728296 -2.23009 0
M  V30 7766 C 761.669 1.22945 -1.23128 0
M  V30 7767 O 762.845 1.27523 -1.55884 0
M  V30 7768 C 759.91 1.92792 -2.88153 0
M  V30 7769 C 758.971 1.47068 -4.03323 0
M  V30 7770 C 758.204 2.61312 -4.65351 0
M  V30 7771 O 758.427 3.7896 -4.26317 0
M  V30 7772 O 757.361 2.33646 -5.54701 0
M  V30 7773 H 761.187 0.190166 -3.03104 0
M  V30 7774 H 758.772 0.0278725 -1.49374 0
M  V30 7775 H 760.654 2.6289 -3.29343 0
M  V30 7776 H 759.329 2.45452 -2.11033 0
M  V30 7777 H 758.236 0.738299 -3.66742 0
M  V30 7778 H 759.569 0.990666 -4.82127 0
M  V30 7779 N 761.222 1.57436 0.0718424 0
M  V30 7780 C 762.152 2.06724 1.08571 0
M  V30 7781 C 763.133 0.960731 1.40371 0
M  V30 7782 O 764.318 1.23345 1.49999 0
M  V30 7783 C 761.448 2.51112 2.39916 0
M  V30 7784 C 760.402 3.65639 2.22469 0
M  V30 7785 C 759.728 3.96082 3.59198 0
M  V30 7786 C 761.028 4.95687 1.64596 0
M  V30 7787 H 762.722 2.91679 0.675569 0
M  V30 7788 H 760.268 1.40319 0.32352 0
M  V30 7789 H 762.221 2.84206 3.11135 0
M  V30 7790 H 760.945 1.63186 2.8291 0
M  V30 7791 H 759.604 3.32828 1.53691 0
M  V30 7792 H 759.252 3.05287 3.99761 0
M  V30 7793 H 758.952 4.73199 3.48362 0
M  V30 7794 H 760.476 4.31672 4.31847 0
M  V30 7795 H 761.89 5.27011 2.25681 0
M  V30 7796 H 760.287 5.77126 1.64457 0
M  V30 7797 H 761.357 4.8108 0.60744 0
M  V30 7798 N 762.7 -0.34323 1.53817 0
M  V30 7799 C 763.977 -1.10047 1.61706 0
M  V30 7800 C 764.357 -2.06495 0.438514 0
M  V30 7801 O 763.705 -2.21297 -0.569188 0
M  V30 7802 C 763.915 -1.81985 2.97796 0
M  V30 7803 C 765.263 -2.35717 3.53161 0
M  V30 7804 O 766.287 -1.9208 2.99973 0
M  V30 7805 O 765.146 -3.15551 4.46195 0
M  V30 7806 H 762.24 -0.506096 0.654061 0
M  V30 7807 H 764.786 -0.344697 1.66162 0
M  V30 7808 H 763.558 -1.11722 3.75012 0
M  V30 7809 H 763.181 -2.64419 2.96931 0
M  V30 7810 N 764.178 -1.45556 -0.604258 0
M  V30 7811 C 765.126 -1.5482 -1.7359 0
M  V30 7812 C 766.12 -0.417966 -1.64163 0
M  V30 7813 O 767.326 -0.594007 -1.69916 0
M  V30 7814 H 763.701 -0.486352 -0.573556 0
M  V30 7815 H 765.672 -2.5001 -1.62903 0
M  V30 7816 C 764.421 -1.53521 -3.11972 0
M  V30 7817 H 763.744 -2.39818 -3.19886 0
M  V30 7818 H 765.184 -1.64061 -3.90973 0
M  V30 7819 C 763.643 -0.260191 -3.35894 0
M  V30 7820 O 764.173 0.658582 -3.96265 0
M  V30 7821 N 762.379 -0.154839 -2.90187 0
M  V30 7822 H 761.926 -0.903378 -2.4124 0
M  V30 7823 H 761.884 0.697437 -3.06567 0
M  V30 7824 N 765.656 0.84705 -1.32902 0
M  V30 7825 C 766.586 1.97166 -1.25091 0
M  V30 7826 C 767.567 1.69578 -0.133161 0
M  V30 7827 O 768.752 1.91519 -0.321591 0
M  V30 7828 C 765.882 3.33157 -0.981006 0
M  V30 7829 C 764.836 3.75119 -2.06082 0
M  V30 7830 C 764.162 5.08826 -1.64318 0
M  V30 7831 C 765.462 3.89774 -3.47669 0
M  V30 7832 H 767.156 2.03958 -2.19184 0
M  V30 7833 H 764.702 0.979907 -1.05517 0
M  V30 7834 H 766.655 4.11393 -0.912891 0
M  V30 7835 H 765.379 3.266 -0.00445559 0
M  V30 7836 H 764.038 2.9914 -2.11921 0
M  V30 7837 H 763.686 4.98732 -0.653876 0
M  V30 7838 H 763.386 5.37873 -2.36572 0
M  V30 7839 H 764.91 5.89546 -1.58958 0
M  V30 7840 H 766.324 4.58343 -3.44376 0
M  V30 7841 H 764.721 4.30248 -4.18338 0
M  V30 7842 H 765.791 2.92463 -3.86773 0
M  V30 7843 N 767.134 1.16236 1.06428 0
M  V30 7844 C 768.067 0.81119 2.13295 0
M  V30 7845 C 769.045 -0.216555 1.61151 0
M  V30 7846 O 770.229 -0.100949 1.88229 0
M  V30 7847 C 767.356 0.207901 3.38061 0
M  V30 7848 C 766.402 1.20904 4.09004 0
M  V30 7849 S 767.235 2.75513 4.59187 0
M  V30 7850 C 768.391 2.1663 5.87216 0
M  V30 7851 H 768.624 1.71632 2.42755 0
M  V30 7852 H 766.157 0.985693 1.18842 0
M  V30 7853 H 768.115 -0.133715 4.10282 0
M  V30 7854 H 766.776 -0.67497 3.06762 0
M  V30 7855 H 765.969 0.735326 4.98607 0
M  V30 7856 H 765.571 1.49567 3.42791 0
M  V30 7857 H 767.863 1.53413 6.59902 0
M  V30 7858 H 768.806 3.04437 6.39315 0
M  V30 7859 H 769.214 1.60565 5.41183 0
M  V30 7860 N 768.612 -1.24939 0.960631 0
M  V30 7861 C 769.522 -2.29374 0.492435 0
M  V30 7862 C 770.538 -1.68262 -0.443154 0
M  V30 7863 O 771.714 -1.98875 -0.31793 0
M  V30 7864 C 768.779 -3.46023 -0.216626 0
M  V30 7865 C 767.84 -4.22557 0.757915 0
M  V30 7866 C 767.073 -5.33636 0.0825969 0
M  V30 7867 O 767.296 -5.59084 -1.13054 0
M  V30 7868 O 766.23 -5.96939 0.771177 0
M  V30 7869 H 770.056 -2.71525 1.36044 0
M  V30 7870 H 767.641 -1.30499 0.72735 0
M  V30 7871 H 769.523 -4.16885 -0.615241 0
M  V30 7872 H 768.198 -3.05862 -1.05971 0
M  V30 7873 H 767.105 -3.54099 1.20685 0
M  V30 7874 H 768.438 -4.66516 1.5692 0
M  V30 7875 N 770.09 -0.729906 -1.39679 0
M  V30 7876 C 771.318 -0.285709 -2.04918 0
M  V30 7877 C 771.733 1.07765 -1.55023 0
M  V30 7878 O 771.09 1.67999 -0.712923 0
M  V30 7879 C 771.141 -0.272793 -3.60469 0
M  V30 7880 O 770.862 -1.58233 -4.08527 0
M  V30 7881 C 772.363 0.188199 -4.429 0
M  V30 7882 H 769.583 -0.125758 -0.65911 0
M  V30 7883 H 772.127 -0.992129 -1.78821 0
M  V30 7884 H 770.282 0.384699 -3.85485 0
M  V30 7885 H 770.696 -1.49245 -5.02818 0
M  V30 7886 H 772.17 0.14608 -5.51807 0
M  V30 7887 H 772.647 1.2326 -4.21549 0
M  V30 7888 H 773.253 -0.439541 -4.23023 0
M  V30 7889 N 771.568 1.50203 -0.477153 0
M  V30 7890 C 772.531 2.27194 0.302599 0
M  V30 7891 C 773.531 1.32221 0.915112 0
M  V30 7892 O 774.721 1.55593 0.783348 0
M  V30 7893 C 771.853 3.0938 1.43167 0
M  V30 7894 H 773.046 2.97575 -0.372678 0
M  V30 7895 H 770.599 1.54578 -0.231392 0
M  V30 7896 H 771.334 2.43509 2.14182 0
M  V30 7897 H 771.119 3.79181 0.998197 0
M  V30 7898 H 772.609 3.67592 1.98157 0
M  V30 7899 N 773.046 0.209999 1.56195 0
M  V30 7900 C 774.276 -0.429373 2.02089 0
M  V30 7901 C 774.684 -1.54703 1.0892 0
M  V30 7902 O 774.027 -1.83485 0.0889535 0
M  V30 7903 C 774.089 -1.03266 3.44349 0
M  V30 7904 C 773.753 -0.0518873 4.56971 0
M  V30 7905 C 774.75 0.744249 5.14545 0
M  V30 7906 C 772.435 0.0635185 5.0226 0
M  V30 7907 C 774.429 1.64261 6.15871 0
M  V30 7908 C 772.116 0.965423 6.03426 0
M  V30 7909 C 773.114 1.75352 6.60106 0
M  V30 7910 O 772.802 2.64029 7.59305 0
M  V30 7911 H 772.534 -0.110604 0.66689 0
M  V30 7912 H 775.088 0.320436 2.02885 0
M  V30 7913 H 773.318 -1.83134 3.40586 0
M  V30 7914 H 775.007 -1.57823 3.73961 0
M  V30 7915 H 775.773 0.665476 4.80413 0
M  V30 7916 H 771.652 -0.539762 4.57829 0
M  V30 7917 H 775.196 2.25819 6.60039 0
M  V30 7918 H 771.093 1.04526 6.36981 0
M  V30 7919 H 771.861 2.57974 7.76783 0
M  V30 7920 N 774.524 -1.57472 -0.0634922 0
M  V30 7921 C 775.487 -2.03268 -1.059 0
M  V30 7922 C 776.487 -0.931028 -1.31105 0
M  V30 7923 O 777.677 -1.19567 -1.26686 0
M  V30 7924 C 774.809 -2.42039 -2.40062 0
M  V30 7925 H 776.002 -2.92454 -0.664119 0
M  V30 7926 H 773.555 -1.53206 -0.309444 0
M  V30 7927 H 774.29 -1.55904 -2.84367 0
M  V30 7928 H 774.075 -3.22437 -2.23108 0
M  V30 7929 H 775.565 -2.78017 -3.11603 0
M  V30 7930 N 776.003 0.335068 -1.53997 0
M  V30 7931 C 777.231 1.09418 -1.756 0
M  V30 7932 C 777.646 1.82083 -0.499138 0
M  V30 7933 O 777.003 1.74646 0.529631 0
M  V30 7934 C 777.054 2.10115 -2.94166 0
M  V30 7935 O 776.775 1.40404 -4.14992 0
M  V30 7936 C 778.276 2.98336 -3.27888 0
M  V30 7937 H 775.496 0.32595 -0.586513 0
M  V30 7938 H 778.04 0.384693 -2.00849 0
M  V30 7939 H 776.195 2.76616 -2.71224 0
M  V30 7940 H 776.609 2.07743 -4.81605 0
M  V30 7941 H 778.083 3.6491 -4.1418 0
M  V30 7942 H 778.56 3.64814 -2.44556 0
M  V30 7943 H 779.166 2.37412 -3.52868 0
M  V30 7944 N 777.481 1.45874 0.596531 0
M  V30 7945 C 778.444 1.54988 1.68853 0
M  V30 7946 C 779.444 0.428302 1.54991 0
M  V30 7947 O 780.634 0.692158 1.59859 0
M  V30 7948 C 777.766 1.457 3.08195 0
M  V30 7949 H 778.959 2.52294 1.62135 0
M  V30 7950 H 776.512 1.33479 0.813206 0
M  V30 7951 H 777.247 0.496204 3.20481 0
M  V30 7952 H 777.032 2.27061 3.19665 0
M  V30 7953 H 778.522 1.55133 3.87716 0
M  V30 7954 N 778.959 -0.83999 1.33349 0
M  V30 7955 C 780.205 -1.59753 1.24927 0
M  V30 7956 C 780.538 -1.93318 -0.184855 0
M  V30 7957 O 779.813 -1.586 -1.12589 0
M  V30 7958 C 780.096 -2.90829 2.12345 0
M  V30 7959 C 779.949 -2.63953 3.6421 0
M  V30 7960 C 781.268 -3.92246 1.99577 0
M  V30 7961 H 778.387 -0.579654 0.45516 0
M  V30 7962 H 781.029 -0.968909 1.63439 0
M  V30 7963 H 779.179 -3.44478 1.79631 0
M  V30 7964 H 780.851 -2.16745 4.07209 0
M  V30 7965 H 779.094 -1.97671 3.86146 0
M  V30 7966 H 779.765 -3.57348 4.20721 0
M  V30 7967 H 782.241 -3.479 2.28265 0
M  V30 7968 H 781.117 -4.81793 2.62996 0
M  V30 7969 H 781.378 -4.3138 0.967673 0
M  V30 7970 N 780.437 -1.16799 -1.0581 0
M  V30 7971 C 781.662 -0.977402 -1.82925 0
M  V30 7972 C 782.087 0.469514 -1.82146 0
M  V30 7973 O 781.445 1.33576 -1.22585 0
M  V30 7974 C 781.493 -1.51543 -3.27211 0
M  V30 7975 O 780.597 -0.725021 -4.05977 0
M  V30 7976 H 779.938 -0.347474 -0.565825 0
M  V30 7977 H 782.468 -1.55151 -1.33376 0
M  V30 7978 H 782.478 -1.53502 -3.78023 0
M  V30 7979 H 781.153 -2.56872 -3.27093 0
M  V30 7980 H 779.73 -0.77634 -3.64729 0
M  V30 7981 N 781.915 1.24427 -0.967243 0
M  V30 7982 C 782.878 2.23637 -0.501927 0
M  V30 7983 C 783.878 1.55712 0.401283 0
M  V30 7984 O 785.068 1.73085 0.196808 0
M  V30 7985 C 782.2 3.39804 0.273176 0
M  V30 7986 H 783.393 2.66317 -1.37897 0
M  V30 7987 H 780.946 1.37033 -0.751783 0
M  V30 7988 H 781.681 3.02562 1.16733 0
M  V30 7989 H 781.466 3.90303 -0.37498 0
M  V30 7990 H 782.956 4.13443 0.587776 0
M  V30 7991 N 783.393 0.737304 1.3929 0
M  V30 7992 C 784.341 0.0879867 2.32434 0
M  V30 7993 C 785.335 -0.723324 1.53181 0
M  V30 7994 O 786.541 -0.624251 1.68829 0
M  V30 7995 H 782.916 0.00965277 0.751938 0
M  V30 7996 H 784.887 0.889915 2.84821 0
M  V30 7997 C 783.636 -0.803384 3.38291 0
M  V30 7998 H 782.959 -0.18849 3.99355 0
M  V30 7999 H 784.399 -1.22528 4.0591 0
M  V30 8000 C 782.858 -1.93872 2.75527 0
M  V30 8001 O 783.388 -3.03154 2.63553 0
M  V30 8002 N 781.594 -1.72883 2.3358 0
M  V30 8003 H 781.141 -0.840005 2.43519 0
M  V30 8004 H 781.099 -2.49021 1.91927 0
M  V30 8005 N 784.871 -1.49948 0.485112 0
M  V30 8006 C 786.118 -2.02396 -0.0650059 0
M  V30 8007 C 786.446 -1.36606 -1.38452 0
M  V30 8008 O 785.701 -0.485476 -1.89583 0
M  V30 8009 C 786 -3.56282 -0.282434 0
M  V30 8010 C 785.666 -4.40625 0.957106 0
M  V30 8011 C 784.328 -4.63393 1.29692 0
M  V30 8012 C 786.68 -4.89799 1.78176 0
M  V30 8013 C 784.008 -5.3258 2.4612 0
M  V30 8014 C 786.36 -5.60266 2.93743 0
M  V30 8015 C 785.024 -5.81284 3.28124 0
M  V30 8016 H 784.294 -0.740618 -0.0237873 0
M  V30 8017 H 786.941 -1.80416 0.642044 0
M  V30 8018 H 785.246 -3.76853 -1.07186 0
M  V30 8019 H 786.943 -3.94442 -0.722276 0
M  V30 8020 H 783.533 -4.23133 0.682384 0
M  V30 8021 H 787.717 -4.7205 1.53239 0
M  V30 8022 H 782.973 -5.47059 2.73014 0
M  V30 8023 H 787.147 -5.97347 3.5798 0
M  V30 8024 H 784.774 -6.34671 4.18446 0
M  V30 8025 N 786.349 -0.21828 -1.56081 0
M  V30 8026 C 787.765 0.137168 -1.59009 0
M  V30 8027 C 787.965 1.59215 -1.23503 0
M  V30 8028 O 787.021 2.33178 -0.968716 0
M  V30 8029 C 788.334 -0.186162 -3.00123 0
M  V30 8030 C 789.882 -0.128135 -3.12738 0
M  V30 8031 C 790.357 -0.425094 -4.56023 0
M  V30 8032 N 791.848 -0.374547 -4.61683 0
M  V30 8033 C 792.583 -0.57786 -5.70481 0
M  V30 8034 N 792.079 -0.842771 -6.87655 0
M  V30 8035 N 793.872 -0.510521 -5.59777 0
M  V30 8036 H 786.023 -1.16746 -1.77437 0
M  V30 8037 H 788.286 -0.467706 -0.824594 0
M  V30 8038 H 787.992 -1.19589 -3.30744 0
M  V30 8039 H 787.866 0.500388 -3.73866 0
M  V30 8040 H 790.253 0.872224 -2.81915 0
M  V30 8041 H 790.334 -0.848112 -2.41331 0
M  V30 8042 H 789.978 -1.42288 -4.87562 0
M  V30 8043 H 789.908 0.316038 -5.25651 0
M  V30 8044 H 792.399 -0.177356 -3.77484 0
M  V30 8045 H 792.712 -0.986095 -7.66483 0
M  V30 8046 H 791.057 -0.879929 -6.89407 0
M  V30 8047 H 794.248 -0.303813 -4.67113 0
M  V30 8048 H 794.421 -0.672378 -6.44502 0
M  V30 8049 N 787.827 1.57504 0.0551401 0
M  V30 8050 C 789.055 1.92294 0.76358 0
M  V30 8051 C 789.47 0.815774 1.70266 0
M  V30 8052 O 788.827 -0.209772 1.8129 0
M  V30 8053 C 788.878 3.26914 1.54302 0
M  V30 8054 O 788.599 4.33375 0.641666 0
M  V30 8055 C 790.1 3.75825 2.35097 0
M  V30 8056 H 787.32 0.635229 0.216159 0
M  V30 8057 H 789.864 2.0449 0.0204385 0
M  V30 8058 H 788.019 3.16196 2.23828 0
M  V30 8059 H 788.433 5.10927 1.1855 0
M  V30 8060 H 789.907 4.72603 2.8522 0
M  V30 8061 H 790.384 3.0568 3.15367 0
M  V30 8062 H 790.99 3.89542 1.70696 0
M  V30 8063 N 789.305 -0.326896 1.54172 0
M  V30 8064 C 790.215 -1.42525 1.86343 0
M  V30 8065 C 791.231 -1.56764 0.75505 0
M  V30 8066 O 792.407 -1.71924 1.04901 0
M  V30 8067 C 789.472 -2.77286 2.08119 0
M  V30 8068 C 788.533 -2.7225 3.31931 0
M  V30 8069 C 787.766 -4.00584 3.52659 0
M  V30 8070 O 787.989 -4.98686 2.76891 0
M  V30 8071 O 786.923 -4.04045 4.46129 0
M  V30 8072 H 790.749 -1.18249 2.79734 0
M  V30 8073 H 788.334 -0.520614 1.40036 0
M  V30 8074 H 790.216 -3.57065 2.23791 0
M  V30 8075 H 788.891 -3.01459 1.17917 0
M  V30 8076 H 787.798 -1.91033 3.21647 0
M  V30 8077 H 789.131 -2.53032 4.2218 0
M  V30 8078 N 790.784 -1.46188 -0.588786 0
M  V30 8079 C 792.009 -1.5498 -1.37826 0
M  V30 8080 C 792.434 -0.189498 -1.87143 0
M  V30 8081 O 791.792 0.829293 -1.61222 0
M  V30 8082 C 791.84 -2.55369 -2.54596 0
M  V30 8083 O 790.944 -2.08452 -3.55839 0
M  V30 8084 H 790.285 -0.521741 -0.41071 0
M  V30 8085 H 792.815 -1.91708 -0.714779 0
M  V30 8086 H 792.825 -2.74782 -3.01594 0
M  V30 8087 H 791.5 -3.54155 -2.18052 0
M  V30 8088 H 790.077 -1.98999 -3.15363 0
M  V30 8089 N 792.262 0.832906 -1.33792 0
M  V30 8090 C 793.678 1.1245 -1.13257 0
M  V30 8091 C 793.878 2.01369 0.0725832 0
M  V30 8092 O 792.934 2.41071 0.751082 0
M  V30 8093 C 794.247 1.78084 -2.42294 0
M  V30 8094 C 795.795 1.90624 -2.48257 0
M  V30 8095 C 796.27 2.59673 -3.77271 0
M  V30 8096 N 797.761 2.67181 -3.78376 0
M  V30 8097 C 798.496 3.21313 -4.74916 0
M  V30 8098 N 797.992 3.76086 -5.81835 0
M  V30 8099 N 799.785 3.19621 -4.62384 0
M  V30 8100 H 791.936 0.241244 -2.11026 0
M  V30 8101 H 794.199 0.169557 -0.932713 0
M  V30 8102 H 793.905 1.20209 -3.30519 0
M  V30 8103 H 793.779 2.78049 -2.5489 0
M  V30 8104 H 796.166 2.4765 -1.60478 0
M  V30 8105 H 796.247 0.89591 -2.39598 0
M  V30 8106 H 795.891 2.03304 -4.65435 0
M  V30 8107 H 795.821 3.61189 -3.8321 0
M  V30 8108 H 798.312 2.28346 -3.01108 0
M  V30 8109 H 798.625 4.15612 -6.51526 0
M  V30 8110 H 796.97 3.74357 -5.85561 0
M  V30 8111 H 800.161 2.76091 -3.7801 0
M  V30 8112 H 800.334 3.61504 -5.37791 0
M  V30 8113 N 793.74 1.17359 1.05189 0
M  V30 8114 C 794.988 0.960087 1.77839 0
M  V30 8115 C 795.309 -0.512554 1.88143 0
M  V30 8116 O 794.579 -1.3721 1.39822 0
M  V30 8117 H 793.159 0.352234 0.658741 0
M  V30 8118 H 795.821 1.47834 1.27008 0
M  V30 8119 H 794.917 1.38843 2.79516 0
M  V30 8120 N 795.218 -1.23913 0.973828 0
M  V30 8121 C 796.181 -2.23367 0.51378 0
M  V30 8122 C 797.181 -1.55923 -0.39302 0
M  V30 8123 O 798.371 -1.73187 -0.187626 0
M  V30 8124 C 795.503 -3.39944 -0.255152 0
M  V30 8125 H 796.696 -2.65581 1.39307 0
M  V30 8126 H 794.249 -1.36632 0.759039 0
M  V30 8127 H 794.984 -3.03177 -1.15127 0
M  V30 8128 H 794.769 -3.90098 0.395673 0
M  V30 8129 H 796.259 -4.13749 -0.565842 0
M  V30 8130 N 796.696 -0.74468 -1.38897 0
M  V30 8131 C 797.646 -0.0869375 -2.27834 0
M  V30 8132 C 798.63 0.702553 -1.44751 0
M  V30 8133 O 799.822 0.569972 -1.67572 0
M  V30 8134 C 796.951 0.812232 -3.33553 0
M  V30 8135 C 796.037 0.0163713 -4.24097 0
M  V30 8136 N 796.428 -1.01547 -4.95502 0
M  V30 8137 C 794.726 0.244554 -4.45329 0
M  V30 8138 C 795.427 -1.49622 -5.62128 0
M  V30 8139 N 794.403 -0.813097 -5.37485 0
M  V30 8140 H 798.205 -0.877345 -2.80499 0
M  V30 8141 H 795.719 -0.579898 -1.51694 0
M  V30 8142 H 797.716 1.299 -3.96146 0
M  V30 8143 H 796.376 1.60169 -2.82446 0
M  V30 8144 H 797.387 -1.39707 -4.98701 0
M  V30 8145 H 794.064 1.00806 -4.05147 0
M  V30 8146 H 795.454 -2.35523 -6.29268 0
M  V30 8147 N 798.174 1.49689 -0.493057 0
M  V30 8148 C 799.399 2.07331 0.0535114 0
M  V30 8149 C 799.824 1.35196 1.30781 0
M  V30 8150 O 799.182 0.406246 1.7669 0
M  V30 8151 C 799.23 3.59364 0.29825 0
M  V30 8152 O 798.334 3.88819 1.37454 0
M  V30 8153 H 797.675 0.663612 -0.0227018 0
M  V30 8154 H 800.205 1.926 -0.690402 0
M  V30 8155 H 800.215 4.04515 0.532159 0
M  V30 8156 H 798.89 4.1128 -0.618207 0
M  V30 8157 H 797.467 3.55487 1.12621 0
M  V30 8158 N 799.652 0.226554 1.55963 0
M  V30 8159 C 801.068 -0.128733 1.5908 0
M  V30 8160 C 801.268 -1.58558 1.24345 0
M  V30 8161 O 800.324 -2.32661 0.981069 0
M  V30 8162 C 801.637 0.202076 3.0002 0
M  V30 8163 C 803.185 0.144718 3.12665 0
M  V30 8164 C 803.66 0.449272 4.55791 0
M  V30 8165 N 805.151 0.399026 4.61478 0
M  V30 8166 C 805.886 0.608106 5.70166 0
M  V30 8167 N 805.382 0.879227 6.87198 0
M  V30 8168 N 807.175 0.5402 5.59498 0
M  V30 8169 H 799.326 1.17686 1.76816 0
M  V30 8170 H 801.589 0.472072 0.822102 0
M  V30 8171 H 801.295 1.21341 3.30105 0
M  V30 8172 H 801.169 -0.480554 3.74126 0
M  V30 8173 H 803.556 -0.857261 2.82374 0
M  V30 8174 H 803.637 0.860899 2.40878 0
M  V30 8175 H 803.281 1.44871 4.86801 0
M  V30 8176 H 803.211 -0.288157 5.25811 0
M  V30 8177 H 805.702 0.197372 3.77384 0
M  V30 8178 H 806.015 1.02673 7.65949 0
M  V30 8179 H 804.36 0.916477 6.88931 0
M  V30 8180 H 807.551 0.328581 4.66945 0
M  V30 8181 H 807.724 0.706548 6.44137 0
M  V30 8182 N 801.13 -1.57531 -0.0467866 0
M  V30 8183 C 802.377 -1.88451 -0.74112 0
M  V30 8184 C 802.705 -0.821592 -1.76296 0
M  V30 8185 O 801.96 0.179585 -1.94874 0
M  V30 8186 C 802.259 -3.26091 -1.46285 0
M  V30 8187 C 801.925 -4.47171 -0.578669 0
M  V30 8188 C 800.587 -4.80032 -0.335083 0
M  V30 8189 C 802.939 -5.2119 0.0328809 0
M  V30 8190 C 800.267 -5.84309 0.529121 0
M  V30 8191 C 802.619 -6.26383 0.884684 0
M  V30 8192 C 801.283 -6.57729 1.1379 0
M  V30 8193 H 800.553 -0.68959 -0.271195 0
M  V30 8194 H 803.2 -1.915 -0.00132378 0
M  V30 8195 H 801.505 -3.18948 -2.27551 0
M  V30 8196 H 803.202 -3.47258 -2.00532 0
M  V30 8197 H 799.792 -4.21467 -0.778666 0
M  V30 8198 H 803.976 -4.96096 -0.142375 0
M  V30 8199 H 799.232 -6.06981 0.733794 0
M  V30 8200 H 803.406 -6.82888 1.36516 0
M  V30 8201 H 801.033 -7.38355 1.80929 0
M  V30 8202 N 802.608 0.318715 -1.54344 0
M  V30 8203 C 803.885 1.07461 -1.63437 0
M  V30 8204 C 804.265 2.05771 -0.47131 0
M  V30 8205 O 803.613 2.22175 0.53391 0
M  V30 8206 C 803.823 1.77224 -3.00654 0
M  V30 8207 C 805.171 2.30069 -3.56866 0
M  V30 8208 O 806.195 1.87284 -3.0299 0
M  V30 8209 O 805.054 3.08412 -4.51159 0
M  V30 8210 H 802.148 0.495627 -0.66203 0
M  V30 8211 H 804.694 0.318218 -1.6669 0
M  V30 8212 H 803.466 1.05742 -3.76742 0
M  V30 8213 H 803.089 2.59662 -3.01101 0
M  V30 8214 N 804.086 1.46499 0.581025 0
M  V30 8215 C 805.333 1.51896 1.33918 0
M  V30 8216 C 805.661 0.171361 1.93744 0
M  V30 8217 O 804.916 -0.833178 1.77078 0
M  V30 8218 C 805.215 2.56686 2.48691 0
M  V30 8219 C 804.881 4.00656 2.06847 0
M  V30 8220 C 803.543 4.39852 1.9515 0
M  V30 8221 C 805.895 4.91089 1.74589 0
M  V30 8222 C 803.223 5.67345 1.49456 0
M  V30 8223 C 805.575 6.1902 1.30373 0
M  V30 8224 C 804.239 6.57121 1.17255 0
M  V30 8225 H 803.509 0.555826 0.490039 0
M  V30 8226 H 806.156 1.79983 0.654092 0
M  V30 8227 H 804.461 2.22266 3.22653 0
M  V30 8228 H 806.158 2.58091 3.06904 0
M  V30 8229 H 802.748 3.69674 2.16886 0
M  V30 8230 H 806.932 4.61523 1.8251 0
M  V30 8231 H 802.188 5.95635 1.37944 0
M  V30 8232 H 806.362 6.8852 1.04467 0
M  V30 8233 H 803.989 7.55805 0.816236 0
M  V30 8234 N 805.565 -0.825799 1.34232 0
M  V30 8235 C 806.976 -1.39835 1.23706 0
M  V30 8236 C 807.327 -1.95709 -0.138649 0
M  V30 8237 O 806.452 -1.89833 -1.03886 0
M  V30 8238 C 807.047 -2.54203 2.23978 0
M  V30 8239 C 805.606 -3.07374 2.17251 0
M  V30 8240 C 804.753 -1.80232 2.10741 0
M  V30 8241 H 807.704 -0.630442 1.4564 0
M  V30 8242 H 807.725 -3.32214 1.8551 0
M  V30 8243 H 807.237 -2.13506 3.24094 0
M  V30 8244 H 805.338 -3.52583 1.20483 0
M  V30 8245 H 805.451 -3.6666 3.08379 0
M  V30 8246 H 803.815 -2.01012 1.56417 0
M  V30 8247 H 804.598 -1.41713 3.12686 0
M  V30 8248 N 807.043 -1.17915 -1.04565 0
M  V30 8249 C 808.32 -0.881187 -1.74627 0
M  V30 8250 C 808.7 0.617123 -2.01878 0
M  V30 8251 O 808.048 1.57032 -1.65991 0
M  V30 8252 C 808.258 -1.72299 -3.03503 0
M  V30 8253 C 809.606 -1.94688 -3.77335 0
M  V30 8254 O 810.63 -1.6931 -3.13389 0
M  V30 8255 O 809.489 -2.37379 -4.92253 0
M  V30 8256 H 806.583 -0.326864 -0.759664 0
M  V30 8257 H 809.129 -1.28642 -1.10676 0
M  V30 8258 H 807.901 -2.73891 -2.79462 0
M  V30 8259 H 807.524 -1.31593 -3.75192 0
M  V30 8260 N 808.521 1.23394 -0.980386 0
M  V30 8261 C 809.937 1.43961 -0.689008 0
M  V30 8262 C 810.137 1.87229 0.744809 0
M  V30 8263 O 809.193 2.01831 1.51725 0
M  V30 8264 C 810.506 2.49128 -1.68392 0
M  V30 8265 C 812.054 2.62941 -1.69796 0
M  V30 8266 C 812.529 3.71317 -2.68118 0
M  V30 8267 N 814.02 3.7876 -2.66636 0
M  V30 8268 C 814.755 4.62176 -3.39383 0
M  V30 8269 N 814.251 5.49682 -4.21688 0
M  V30 8270 N 816.044 4.56372 -3.28147 0
M  V30 8271 H 808.195 0.936106 -1.90659 0
M  V30 8272 H 810.458 0.473023 -0.821555 0
M  V30 8273 H 810.164 2.24252 -2.70931 0
M  V30 8274 H 810.038 3.47514 -1.46675 0
M  V30 8275 H 812.425 2.87168 -0.679617 0
M  V30 8276 H 812.506 1.64871 -1.95579 0
M  V30 8277 H 812.15 3.4784 -3.70095 0
M  V30 8278 H 812.08 4.68929 -2.3961 0
M  V30 8279 H 814.571 3.16226 -2.06904 0
M  V30 8280 H 814.884 6.10323 -4.74053 0
M  V30 8281 H 813.229 5.49306 -4.25779 0
M  V30 8282 H 816.42 3.87029 -2.63299 0
M  V30 8283 H 816.593 5.21153 -3.85102 0
M  V30 8284 N 809.999 0.752036 1.385 0
M  V30 8285 C 811.276 0.233075 1.94206 0
M  V30 8286 C 811.656 -1.26838 1.68746 0
M  V30 8287 O 811.004 -2.04214 1.02513 0
M  V30 8288 C 811.214 0.58509 3.44061 0
M  V30 8289 C 812.562 0.543871 4.21102 0
M  V30 8290 O 813.586 0.523291 3.52335 0
M  V30 8291 O 812.445 0.553436 5.4369 0
M  V30 8292 H 809.539 0.0483049 0.825588 0
M  V30 8293 H 812.085 0.832053 1.47902 0
M  V30 8294 H 810.857 1.62212 3.56094 0
M  V30 8295 H 810.48 -0.0419738 3.97578 0
M  V30 8296 N 811.477 -1.49425 0.500989 0
M  V30 8297 C 812.754 -1.9531 -0.106551 0
M  V30 8298 C 813.134 -1.44248 -1.54129 0
M  V30 8299 O 812.482 -0.656237 -2.18874 0
M  V30 8300 C 812.692 -3.48995 -0.0191972 0
M  V30 8301 C 814.04 -4.24161 -0.193129 0
M  V30 8302 O 815.064 -3.56075 -0.0943843 0
M  V30 8303 O 813.923 -5.45064 -0.395869 0
M  V30 8304 H 811.017 -0.82149 -0.0953068 0
M  V30 8305 H 813.563 -1.6007 0.563526 0
M  V30 8306 H 812.335 -3.78794 0.981353 0
M  V30 8307 H 811.958 -3.90852 -0.72942 0
M  V30 8308 N 812.955 -0.234822 -1.55841 0
M  V30 8309 C 813.865 0.680828 -2.24504 0
M  V30 8310 C 814.881 1.20306 -1.25708 0
M  V30 8311 O 816.057 1.24188 -1.58554 0
M  V30 8312 C 813.122 1.86636 -2.92178 0
M  V30 8313 C 812.183 1.3848 -4.06352 0
M  V30 8314 C 811.416 2.51382 -4.70789 0
M  V30 8315 O 811.639 3.69831 -4.34259 0
M  V30 8316 O 810.573 2.21828 -5.59532 0
M  V30 8317 H 814.399 0.12583 -3.03439 0
M  V30 8318 H 811.984 -0.00381817 -1.494 0
M  V30 8319 H 813.866 2.55845 -3.34845 0
M  V30 8320 H 812.541 2.40921 -2.16192 0
M  V30 8321 H 811.448 0.660341 -3.68226 0
M  V30 8322 H 812.781 0.888177 -4.8412 0
M  V30 8323 N 814.433 1.57553 0.0384317 0
M  V30 8324 C 815.381 2.07021 1.06043 0
M  V30 8325 C 816.375 0.982078 1.38028 0
M  V30 8326 O 817.581 1.16702 1.37042 0
M  V30 8327 H 813.956 0.660522 0.359464 0
M  V30 8328 H 815.927 2.91944 0.617339 0
M  V30 8329 C 814.676 2.55734 2.35574 0
M  V30 8330 H 813.999 3.39074 2.11822 0
M  V30 8331 H 815.439 2.94066 3.05452 0
M  V30 8332 C 813.898 1.45449 3.03885 0
M  V30 8333 O 814.428 0.815402 3.93337 0
M  V30 8334 N 812.634 1.19134 2.65058 0
M  V30 8335 H 812.181 1.71288 1.92401 0
M  V30 8336 H 812.139 0.455554 3.11082 0
M  V30 8337 N 815.911 -0.310526 1.54511 0
M  V30 8338 C 817.157 -1.04459 1.74528 0
M  V30 8339 C 817.512 -1.85251 0.519613 0
M  V30 8340 O 816.805 -1.85281 -0.488001 0
M  V30 8341 C 816.999 -1.98942 2.96912 0
M  V30 8342 C 816.828 -1.27442 4.31264 0
M  V30 8343 C 815.598 -1.00552 4.95194 0
M  V30 8344 C 817.796 -0.683695 5.09735 0
M  V30 8345 N 815.778 -0.259797 6.1335 0
M  V30 8346 C 817.149 -0.0702549 6.1996 0
M  V30 8347 C 819.204 -0.587799 4.94418 0
M  V30 8348 C 817.907 0.629791 7.16538 0
M  V30 8349 C 819.933 0.0985719 5.91318 0
M  V30 8350 C 819.295 0.700902 7.00904 0
M  V30 8351 H 815.394 -0.365496 0.69133 0
M  V30 8352 H 817.978 -0.324277 1.91981 0
M  V30 8353 H 816.149 -2.68233 2.80902 0
M  V30 8354 H 817.881 -2.6543 3.05498 0
M  V30 8355 H 814.636 -1.30123 4.55374 0
M  V30 8356 H 815.06 0.099301 6.76927 0
M  V30 8357 H 819.702 -1.03919 4.0983 0
M  V30 8358 H 817.42 1.09298 8.00674 0
M  V30 8359 H 821.006 0.172585 5.81544 0
M  V30 8360 H 819.886 1.22357 7.74596 0
M  V30 8361 N 817.389 -1.46805 -0.573248 0
M  V30 8362 C 818.319 -1.60951 -1.69165 0
M  V30 8363 C 819.3 -0.45948 -1.63777 0
M  V30 8364 O 820.485 -0.68688 -1.81647 0
M  V30 8365 C 817.615 -1.60844 -3.07809 0
M  V30 8366 C 816.569 -2.74913 -3.28035 0
M  V30 8367 C 815.895 -2.59871 -4.67302 0
M  V30 8368 C 817.195 -4.16654 -3.14955 0
M  V30 8369 H 818.889 -2.54574 -1.57582 0
M  V30 8370 H 816.435 -1.22516 -0.756686 0
M  V30 8371 H 818.388 -1.69334 -3.85881 0
M  V30 8372 H 817.112 -0.637714 -3.20314 0
M  V30 8373 H 815.771 -2.65908 -2.52366 0
M  V30 8374 H 815.419 -1.60861 -4.76585 0
M  V30 8375 H 815.119 -3.36386 -4.81786 0
M  V30 8376 H 816.643 -2.70265 -5.4753 0
M  V30 8377 H 818.057 -4.26721 -3.82861 0
M  V30 8378 H 816.454 -4.93831 -3.40956 0
M  V30 8379 H 817.524 -4.36146 -2.11908 0
M  V30 8380 N 818.867 0.818669 -1.34668 0
M  V30 8381 C 820.107 1.58862 -1.28617 0
M  V30 8382 C 820.471 1.91483 0.140845 0
M  V30 8383 O 821.672 2.66821 0.325583 0
M  V30 8384 C 819.943 2.85044 -2.15604 0
M  V30 8385 S 821.502 3.75553 -2.26948 0
M  V30 8386 H 818.32 0.544454 -0.457265 0
M  V30 8387 H 820.922 0.966679 -1.69928 0
M  V30 8388 H 819.626 2.59083 -3.18284 0
M  V30 8389 H 819.157 3.52231 -1.75205 0
M  V30 8390 H 821.172 4.74682 -1.44539 0
M  V30 8391 N 820.346 1.18468 1.03938 0
M  V30 8392 C 821.296 0.880799 2.103 0
M  V30 8393 C 822.28 -0.150008 1.60199 0
M  V30 8394 O 823.472 0.054213 1.76917 0
M  V30 8395 C 820.601 0.409723 3.40846 0
M  V30 8396 C 819.687 1.47267 3.9771 0
M  V30 8397 N 820.078 2.68945 4.28371 0
M  V30 8398 C 818.376 1.33349 4.25598 0
M  V30 8399 C 819.077 3.37341 4.73894 0
M  V30 8400 N 818.053 2.64725 4.74786 0
M  V30 8401 H 821.855 1.80574 2.31884 0
M  V30 8402 H 819.369 1.07527 1.21703 0
M  V30 8403 H 821.366 0.17352 4.16539 0
M  V30 8404 H 820.026 -0.508862 3.20688 0
M  V30 8405 H 821.037 3.05801 4.17978 0
M  V30 8406 H 817.714 0.477548 4.1476 0
M  V30 8407 H 819.104 4.41338 5.06627 0
M  V30 8408 N 821.824 -1.22873 0.986916 0
M  V30 8409 C 823.049 -1.96028 0.677341 0
M  V30 8410 C 823.474 -1.72487 -0.750319 0
M  V30 8411 O 822.832 -1.00036 -1.51203 0
M  V30 8412 C 822.88 -3.46983 0.981593 0
M  V30 8413 O 821.984 -4.12328 0.0770729 0
M  V30 8414 H 821.325 -0.613458 0.254096 0
M  V30 8415 H 823.855 -1.56132 1.32227 0
M  V30 8416 H 823.865 -3.9747 0.920969 0
M  V30 8417 H 822.54 -3.63442 2.02194 0
M  V30 8418 H 821.117 -3.72402 0.192666 0
M  V30 8419 N 823.302 -0.75937 -1.38099 0
M  V30 8420 C 824.232 -0.151077 -2.33011 0
M  V30 8421 C 825.213 0.697099 -1.5516 0
M  V30 8422 O 826.398 0.637101 -1.83452 0
M  V30 8423 C 823.528 0.738423 -3.39359 0
M  V30 8424 C 822.482 -0.0074741 -4.27999 0
M  V30 8425 C 821.808 1.00066 -5.25253 0
M  V30 8426 C 823.108 -1.17926 -5.08813 0
M  V30 8427 H 824.802 -0.943933 -2.84131 0
M  V30 8428 H 822.348 -0.455362 -1.36611 0
M  V30 8429 H 824.301 1.17369 -4.04725 0
M  V30 8430 H 823.025 1.56366 -2.86735 0
M  V30 8431 H 821.684 -0.423379 -3.64147 0
M  V30 8432 H 821.332 1.82012 -4.68914 0
M  V30 8433 H 821.032 0.506199 -5.85416 0
M  V30 8434 H 822.556 1.43512 -5.93495 0
M  V30 8435 H 823.97 -0.821262 -5.67387 0
M  V30 8436 H 822.367 -1.60497 -5.78239 0
M  V30 8437 H 823.437 -1.98938 -4.42212 0
M  V30 8438 N 824.78 1.49157 -0.508906 0
M  V30 8439 C 826.01 2.06579 0.0293308 0
M  V30 8440 C 826.418 1.36852 1.30645 0
M  V30 8441 O 825.761 0.443079 1.78276 0
M  V30 8442 C 825.823 3.57838 0.345296 0
M  V30 8443 C 825.487 4.49302 -0.835256 0
M  V30 8444 C 826.484 4.90345 -1.72793 0
M  V30 8445 C 824.169 4.91494 -1.0363 0
M  V30 8446 C 826.163 5.72327 -2.80573 0
M  V30 8447 C 823.85 5.7325 -2.11726 0
M  V30 8448 C 824.848 6.13572 -3.00032 0
M  V30 8449 O 824.536 6.93691 -4.06261 0
M  V30 8450 H 824.268 0.675679 -0.0208193 0
M  V30 8451 H 826.822 1.9282 -0.707789 0
M  V30 8452 H 825.052 3.69634 1.13612 0
M  V30 8453 H 826.741 3.97467 0.823089 0
M  V30 8454 H 827.507 4.58388 -1.58446 0
M  V30 8455 H 823.386 4.59605 -0.358308 0
M  V30 8456 H 826.93 6.03719 -3.49527 0
M  V30 8457 H 822.827 6.0462 -2.26065 0
M  V30 8458 H 823.595 7.12011 -4.03711 0
M  V30 8459 N 826.258 0.243083 1.55714 0
M  V30 8460 C 827.188 -0.652336 2.24203 0
M  V30 8461 C 828.169 -1.1843 1.221 0
M  V30 8462 O 829.354 -1.22435 1.50743 0
M  V30 8463 C 826.484 -1.85111 2.93856 0
M  V30 8464 C 825.438 -1.45208 4.02615 0
M  V30 8465 C 824.764 -2.73137 4.59674 0
M  V30 8466 C 826.064 -0.625988 5.18535 0
M  V30 8467 H 827.758 -0.0812504 2.9929 0
M  V30 8468 H 825.304 -0.0376388 1.43951 0
M  V30 8469 H 827.257 -2.48314 3.40468 0
M  V30 8470 H 825.981 -2.44751 2.16251 0
M  V30 8471 H 824.64 -0.843406 3.56766 0
M  V30 8472 H 824.288 -3.30967 3.78774 0
M  V30 8473 H 823.988 -2.47163 5.33089 0
M  V30 8474 H 825.512 -3.37245 5.09017 0
M  V30 8475 H 826.926 -1.16223 5.61396 0
M  V30 8476 H 825.323 -0.462465 5.98315 0
M  V30 8477 H 826.393 0.362652 4.83542 0
M  V30 8478 N 827.736 -1.57571 -0.0300757 0
M  V30 8479 C 829.147 -1.77567 -0.576802 0
M  V30 8480 C 829.498 -0.874034 -1.75656 0
M  V30 8481 O 828.623 -0.0686124 -2.16291 0
M  V30 8482 C 829.218 -3.22016 -1.05315 0
M  V30 8483 C 827.777 -3.43212 -1.5454 0
M  V30 8484 C 826.924 -2.73061 -0.483033 0
M  V30 8485 H 829.875 -1.57483 0.196151 0
M  V30 8486 H 829.896 -3.28474 -1.92055 0
M  V30 8487 H 829.408 -3.87613 -0.194298 0
M  V30 8488 H 827.509 -2.82788 -2.42615 0
M  V30 8489 H 827.622 -4.5182 -1.5936 0
M  V30 8490 H 825.986 -2.36805 -0.937835 0
M  V30 8491 H 826.769 -3.4134 0.366341 0
M  V30 8492 N 829.214 0.302327 -1.54673 0
M  V30 8493 C 830.124 1.39542 -1.88587 0
M  V30 8494 C 831.14 1.55543 -0.779895 0
M  V30 8495 O 832.316 1.70233 -1.07623 0
M  V30 8496 C 829.381 2.7394 -2.12504 0
M  V30 8497 C 828.442 2.66935 -3.3622 0
M  V30 8498 C 827.675 3.94923 -3.58987 0
M  V30 8499 O 827.898 4.94218 -2.84789 0
M  V30 8500 O 826.832 3.96896 -4.52501 0
M  V30 8501 H 830.658 1.13784 -2.81579 0
M  V30 8502 H 828.243 0.49827 -1.40846 0
M  V30 8503 H 830.125 3.5346 -2.29443 0
M  V30 8504 H 828.8 2.99544 -1.22698 0
M  V30 8505 H 827.707 1.85892 -3.24646 0
M  V30 8506 H 829.04 2.46283 -4.26152 0
M  V30 8507 N 830.692 1.47107 0.565454 0
M  V30 8508 C 831.917 1.57153 1.35343 0
M  V30 8509 C 832.342 0.219247 1.86818 0
M  V30 8510 O 831.7 -0.803539 1.62521 0
M  V30 8511 C 831.748 2.59387 2.50501 0
M  V30 8512 O 830.852 2.14086 3.52478 0
M  V30 8513 H 830.193 0.528209 0.402357 0
M  V30 8514 H 832.723 1.92821 0.684189 0
M  V30 8515 H 832.733 2.79546 2.97184 0
M  V30 8516 H 831.408 3.57579 2.12391 0
M  V30 8517 H 829.985 2.03991 3.12157 0
M  V30 8518 N 832.17 -0.811516 1.35101 0
M  V30 8519 C 833.08 -1.95475 1.29718 0
M  V30 8520 C 834.096 -1.72813 0.202909 0
M  V30 8521 O 835.272 -1.96725 0.431414 0
M  V30 8522 C 832.337 -3.29975 1.06385 0
M  V30 8523 C 831.398 -3.65566 2.25077 0
M  V30 8524 C 830.631 -4.93648 2.02848 0
M  V30 8525 O 830.854 -5.617 0.992442 0
M  V30 8526 O 829.788 -5.27384 2.90087 0
M  V30 8527 H 833.614 -2.02961 2.25921 0
M  V30 8528 H 831.199 -0.948583 1.15422 0
M  V30 8529 H 833.081 -4.10506 0.951999 0
M  V30 8530 H 831.756 -3.2343 0.132294 0
M  V30 8531 H 830.663 -2.85432 2.41825 0
M  V30 8532 H 831.996 -3.7681 3.16662 0
M  V30 8533 N 833.648 -1.19017 -1.03309 0
M  V30 8534 C 834.873 -1.01598 -1.80811 0
M  V30 8535 C 835.298 0.430773 -1.83101 0
M  V30 8536 O 834.656 1.30946 -1.25391 0
M  V30 8537 C 834.704 -1.5845 -3.23923 0
M  V30 8538 O 833.808 -0.810972 -4.04348 0
M  V30 8539 H 833.149 -0.359398 -0.558327 0
M  V30 8540 H 835.679 -1.57945 -1.30055 0
M  V30 8541 H 835.689 -1.61486 -3.74682 0
M  V30 8542 H 834.364 -2.63752 -3.21571 0
M  V30 8543 H 832.941 -0.85353 -3.63 0
M  V30 8544 N 835.127 1.22348 -0.993418 0
M  V30 8545 C 836.06 2.22898 -0.489073 0
M  V30 8546 C 837.038 1.56222 0.450927 0
M  V30 8547 O 838.222 1.84705 0.376351 0
M  V30 8548 C 835.349 3.37448 0.290946 0
M  V30 8549 C 834.395 4.22328 -0.595123 0
M  V30 8550 S 835.228 4.94677 -2.05072 0
M  V30 8551 C 836.384 6.12667 -1.28021 0
M  V30 8552 H 836.617 2.65333 -1.34111 0
M  V30 8553 H 834.15 1.32032 -0.800429 0
M  V30 8554 H 836.108 4.03867 0.734944 0
M  V30 8555 H 834.769 2.93519 1.11826 0
M  V30 8556 H 833.962 5.04 0.00507413 0
M  V30 8557 H 833.564 3.61043 -0.975906 0
M  V30 8558 H 835.856 6.75279 -0.548129 0
M  V30 8559 H 836.799 6.771 -2.07223 0
M  V30 8560 H 837.207 5.58898 -0.793272 0
M  V30 8561 N 836.605 0.766683 1.37694 0
M  V30 8562 C 837.833 0.339939 2.04088 0
M  V30 8563 C 838.248 -1.03617 1.57826 0
M  V30 8564 O 837.605 -1.6605 0.757214 0
M  V30 8565 C 837.656 0.368269 3.59619 0
M  V30 8566 O 837.377 1.69009 4.04188 0
M  V30 8567 C 838.878 -0.0707053 4.43244 0
M  V30 8568 H 836.098 0.143189 0.655544 0
M  V30 8569 H 838.642 1.03919 1.76128 0
M  V30 8570 H 836.797 -0.282359 3.8637 0
M  V30 8571 H 837.211 1.62523 4.98685 0
M  V30 8572 H 838.685 0.000273538 5.52 0
M  V30 8573 H 839.162 -1.1204 4.24669 0
M  V30 8574 H 839.768 0.551543 4.21709 0
M  V30 8575 N 838.083 -1.48885 0.516809 0
M  V30 8576 C 839.499 -1.58651 0.173788 0
M  V30 8577 C 839.699 -1.52033 -1.32243 0
M  V30 8578 O 838.755 -1.40251 -2.09967 0
M  V30 8579 C 840.068 -2.90816 0.764628 0
M  V30 8580 C 841.616 -3.04316 0.732164 0
M  V30 8581 C 842.091 -4.39123 1.30135 0
M  V30 8582 N 843.582 -4.45656 1.26273 0
M  V30 8583 C 844.317 -5.48446 1.67317 0
M  V30 8584 N 843.813 -6.58258 2.16028 0
M  V30 8585 N 845.606 -5.39251 1.58635 0
M  V30 8586 H 837.757 -1.5143 1.48939 0
M  V30 8587 H 840.02 -0.718243 0.618733 0
M  V30 8588 H 839.726 -3.01275 1.81456 0
M  V30 8589 H 839.6 -3.76473 0.234113 0
M  V30 8590 H 841.987 -2.93478 -0.308975 0
M  V30 8591 H 842.068 -2.20303 1.3 0
M  V30 8592 H 841.712 -4.50714 2.34135 0
M  V30 8593 H 841.642 -5.21801 0.709305 0
M  V30 8594 H 844.133 -3.66879 0.906006 0
M  V30 8595 H 844.446 -7.32811 2.45374 0
M  V30 8596 H 842.791 -6.59257 2.20013 0
M  V30 8597 H 845.982 -4.52354 1.20387 0
M  V30 8598 H 846.155 -6.19229 1.90944 0
M  V30 8599 N 839.561 -0.251338 -1.55583 0
M  V30 8600 C 840.977 0.103409 -1.59265 0
M  V30 8601 C 841.177 1.56559 -1.26852 0
M  V30 8602 O 840.233 2.31071 -1.01796 0
M  V30 8603 C 841.546 -0.249781 -2.99661 0
M  V30 8604 C 843.094 -0.194442 -3.12395 0
M  V30 8605 C 843.569 -0.521728 -4.55019 0
M  V30 8606 N 845.06 -0.472393 -4.60785 0
M  V30 8607 C 845.795 -0.698737 -5.69127 0
M  V30 8608 N 845.291 -0.988443 -6.85713 0
M  V30 8609 N 847.084 -0.629143 -5.58568 0
M  V30 8610 H 839.235 -1.20484 -1.74921 0
M  V30 8611 H 841.498 -0.485092 -0.814488 0
M  V30 8612 H 841.204 -1.26577 -3.28133 0
M  V30 8613 H 841.078 0.420973 -3.74844 0
M  V30 8614 H 843.465 0.812229 -2.83702 0
M  V30 8615 H 843.546 -0.899111 -2.39478 0
M  V30 8616 H 843.19 -1.52597 -4.84434 0
M  V30 8617 H 843.12 0.204468 -5.26203 0
M  V30 8618 H 845.611 -0.257386 -3.77022 0
M  V30 8619 H 845.924 -1.14846 -7.64219 0
M  V30 8620 H 844.269 -1.02596 -6.87386 0
M  V30 8621 H 847.46 -0.402826 -4.66364 0
M  V30 8622 H 847.633 -0.808935 -6.42931 0
M  V30 8623 N 841.039 1.57585 0.0217189 0
M  V30 8624 C 842.264 1.94267 0.726309 0
M  V30 8625 C 842.689 0.851904 1.67703 0
M  V30 8626 O 842.047 -0.191792 1.80283 0
M  V30 8627 C 842.095 3.30023 1.45318 0
M  V30 8628 O 841.199 3.22791 2.5667 0
M  V30 8629 H 840.54 0.634777 0.194818 0
M  V30 8630 H 843.07 2.04585 -0.0249985 0
M  V30 8631 H 843.08 3.65084 1.82147 0
M  V30 8632 H 841.755 4.08972 0.755962 0
M  V30 8633 H 840.332 2.99373 2.2233 0
M  V30 8634 N 842.517 -0.29412 1.54831 0
M  V30 8635 C 843.763 -1.02999 1.74697 0
M  V30 8636 C 844.096 -1.86687 0.534949 0
M  V30 8637 O 843.371 -1.88789 -0.467863 0
M  V30 8638 C 843.654 -1.93024 3.03996 0
M  V30 8639 C 843.507 -1.1247 4.35512 0
M  V30 8640 C 844.826 -2.92085 3.29203 0
M  V30 8641 H 841.945 -0.373039 0.635618 0
M  V30 8642 H 844.587 -0.304065 1.87551 0
M  V30 8643 H 842.737 -2.5492 2.93169 0
M  V30 8644 H 844.409 -0.528067 4.58268 0
M  V30 8645 H 842.652 -0.427574 4.31688 0
M  V30 8646 H 843.323 -1.78728 5.22265 0
M  V30 8647 H 845.799 -2.40319 3.39685 0
M  V30 8648 H 844.675 -3.52234 4.20978 0
M  V30 8649 H 844.936 -3.66107 2.47827 0
M  V30 8650 N 843.995 -1.47404 -0.557645 0
M  V30 8651 C 844.943 -1.60265 -1.68576 0
M  V30 8652 C 845.937 -0.469982 -1.6275 0
M  V30 8653 O 847.143 -0.647764 -1.67941 0
M  V30 8654 H 843.518 -0.504353 -0.557792 0
M  V30 8655 H 845.489 -2.55066 -1.54867 0
M  V30 8656 C 844.238 -1.63369 -3.0693 0
M  V30 8657 H 843.561 -2.49874 -3.12095 0
M  V30 8658 H 845.001 -1.76417 -3.85556 0
M  V30 8659 C 843.46 -0.366921 -3.34896 0
M  V30 8660 O 843.99 0.53218 -3.98159 0
M  V30 8661 N 842.196 -0.247082 -2.89548 0
M  V30 8662 H 841.743 -0.979669 -2.38244 0
M  V30 8663 H 841.701 0.599552 -3.0863 0
M  V30 8664 N 845.473 0.80434 -1.35529 0
M  V30 8665 C 846.406 1.92222 -1.22987 0
M  V30 8666 C 847.384 1.62177 -0.117269 0
M  V30 8667 O 848.568 1.86321 -0.285761 0
M  V30 8668 C 845.695 3.26682 -0.894223 0
M  V30 8669 C 844.741 3.75674 -2.01919 0
M  V30 8670 S 845.574 3.93209 -3.6352 0
M  V30 8671 C 846.73 5.30568 -3.32037 0
M  V30 8672 H 846.963 2.02567 -2.1761 0
M  V30 8673 H 844.496 0.961961 -1.20771 0
M  V30 8674 H 846.454 4.04359 -0.707371 0
M  V30 8675 H 845.115 3.14082 0.0339729 0
M  V30 8676 H 844.308 4.73065 -1.73854 0
M  V30 8677 H 843.91 3.05001 -2.16449 0
M  V30 8678 H 846.202 6.14637 -2.85004 0
M  V30 8679 H 847.145 5.63628 -4.28636 0
M  V30 8680 H 847.553 4.96961 -2.6775 0
M  V30 8681 N 846.951 1.19563 1.02676 0
M  V30 8682 C 847.861 0.950691 2.14474 0
M  V30 8683 C 848.877 -0.0900219 1.73767 0
M  V30 8684 O 850.053 0.0951063 2.01175 0
M  V30 8685 C 847.118 0.494917 3.43149 0
M  V30 8686 C 846.179 1.60527 3.98158 0
M  V30 8687 C 845.412 1.17115 5.20692 0
M  V30 8688 O 845.635 0.0355937 5.70389 0
M  V30 8689 O 844.569 1.97454 5.68591 0
M  V30 8690 H 848.395 1.88651 2.38001 0
M  V30 8691 H 845.98 0.978635 1.12885 0
M  V30 8692 H 847.862 0.249492 4.20661 0
M  V30 8693 H 846.537 -0.412434 3.21062 0
M  V30 8694 H 845.444 1.90487 3.21971 0
M  V30 8695 H 846.777 2.48925 4.24614 0
M  V30 8696 N 848.429 -1.21819 0.999893 0
M  V30 8697 C 849.84 -1.72517 0.713775 0
M  V30 8698 C 850.191 -1.80505 -0.768922 0
M  V30 8699 O 849.316 -1.45611 -1.60083 0
M  V30 8700 C 849.911 -3.13321 1.28901 0
M  V30 8701 C 848.47 -3.61396 1.05212 0
M  V30 8702 C 847.617 -2.39074 1.40494 0
M  V30 8703 H 850.568 -1.07068 1.17141 0
M  V30 8704 H 850.589 -3.74535 0.671084 0
M  V30 8705 H 850.101 -3.07475 2.36814 0
M  V30 8706 H 848.202 -3.72599 -0.0100732 0
M  V30 8707 H 848.315 -4.47145 1.72042 0
M  V30 8708 H 846.679 -2.41015 0.823642 0
M  V30 8709 H 847.462 -2.35884 2.49427 0
M  V30 8710 N 849.908 -0.773975 -1.37286 0
M  V30 8711 C 850.855 -0.159938 -2.30245 0
M  V30 8712 C 851.825 0.687356 -1.51211 0
M  V30 8713 O 853.01 0.639255 -1.79773 0
M  V30 8714 C 850.15 0.711452 -3.37687 0
M  V30 8715 C 849.263 -0.152692 -4.3173 0
M  V30 8716 C 848.398 0.723613 -5.26248 0
M  V30 8717 C 847.437 -0.14293 -6.11933 0
M  V30 8718 N 846.574 0.691479 -6.98687 0
M  V30 8719 H 851.414 -0.958182 -2.82175 0
M  V30 8720 H 848.951 -0.48411 -1.38906 0
M  V30 8721 H 850.909 1.2315 -3.9861 0
M  V30 8722 H 849.539 1.47528 -2.87116 0
M  V30 8723 H 848.591 -0.790574 -3.72094 0
M  V30 8724 H 849.903 -0.821027 -4.91997 0
M  V30 8725 H 849.057 1.31006 -5.92387 0
M  V30 8726 H 847.796 1.42562 -4.66398 0
M  V30 8727 H 846.801 -0.7419 -5.44771 0
M  V30 8728 H 848.026 -0.842305 -6.73856 0
M  V30 8729 H 845.972 1.37806 -6.41362 0
M  V30 8730 H 845.889 0.0804911 -7.55957 0
M  V30 8731 H 847.157 1.26225 -7.69212 0
M  V30 8732 N 851.386 1.48609 -0.524698 0
M  V30 8733 C 852.316 2.32366 0.229837 0
M  V30 8734 C 853.297 1.41759 0.940129 0
M  V30 8735 O 854.482 1.7065 0.926936 0
M  V30 8736 C 851.612 3.22835 1.28043 0
M  V30 8737 C 850.566 4.22424 0.688603 0
M  V30 8738 C 849.892 5.0199 1.84146 0
M  V30 8739 C 851.192 5.21217 -0.336176 0
M  V30 8740 H 852.886 2.95698 -0.469339 0
M  V30 8741 H 850.432 1.42197 -0.227156 0
M  V30 8742 H 852.385 3.80253 1.8162 0
M  V30 8743 H 851.109 2.57492 2.00912 0
M  V30 8744 H 849.768 3.66185 0.174402 0
M  V30 8745 H 849.416 4.33076 2.5584 0
M  V30 8746 H 849.116 5.69392 1.45142 0
M  V30 8747 H 850.64 5.62259 2.38111 0
M  V30 8748 H 852.054 5.7319 0.112307 0
M  V30 8749 H 850.451 5.96642 -0.643324 0
M  V30 8750 H 851.521 4.68676 -1.24381 0
M  V30 8751 N 852.864 0.259585 1.55447 0
M  V30 8752 C 854.28 -0.094961 1.59317 0
M  V30 8753 C 854.48 -1.55884 1.2768 0
M  V30 8754 O 853.536 -2.30528 1.0302 0
M  V30 8755 C 854.849 0.265669 2.99524 0
M  V30 8756 C 856.397 0.211007 3.12288 0
M  V30 8757 C 856.872 0.545851 4.54736 0
M  V30 8758 N 858.363 0.496823 4.60528 0
M  V30 8759 C 859.098 0.728909 5.68748 0
M  V30 8760 N 858.594 1.02479 6.85179 0
M  V30 8761 N 860.387 0.658756 5.58226 0
M  V30 8762 H 852.538 1.2141 1.7428 0
M  V30 8763 H 854.801 0.489404 0.811904 0
M  V30 8764 H 854.507 1.28316 3.27457 0
M  V30 8765 H 854.381 -0.401089 3.75061 0
M  V30 8766 H 856.768 -0.797172 2.84129 0
M  V30 8767 H 856.849 0.911799 2.38998 0
M  V30 8768 H 856.493 1.55164 4.83618 0
M  V30 8769 H 856.423 -0.17656 5.26304 0
M  V30 8770 H 858.914 0.277376 3.76881 0
M  V30 8771 H 859.227 1.18897 7.63599 0
M  V30 8772 H 857.572 1.0624 6.86832 0
M  V30 8773 H 860.763 0.427553 4.66143 0
M  V30 8774 H 860.936 0.84302 6.42493 0
M  V30 8775 N 854.342 -1.57594 -0.0133615 0
M  V30 8776 C 855.753 -1.78168 -0.557937 0
M  V30 8777 C 856.104 -0.892616 -1.74719 0
M  V30 8778 O 855.229 -0.0915491 -2.16206 0
M  V30 8779 C 855.824 -3.23115 -1.01894 0
M  V30 8780 C 854.383 -3.44831 -1.50892 0
M  V30 8781 C 853.53 -2.73558 -0.454044 0
M  V30 8782 H 856.481 -1.57266 0.212843 0
M  V30 8783 H 856.502 -3.30493 -1.8856 0
M  V30 8784 H 856.014 -3.87798 -0.153175 0
M  V30 8785 H 854.115 -2.85345 -2.39602 0
M  V30 8786 H 854.228 -4.53485 -1.54559 0
M  V30 8787 H 852.592 -2.37787 -0.912666 0
M  V30 8788 H 853.375 -3.40932 0.402524 0
M  V30 8789 N 855.82 0.285905 -1.54985 0
M  V30 8790 C 856.783 1.33625 -1.86218 0
M  V30 8791 C 857.783 1.42971 -0.735936 0
M  V30 8792 O 858.973 1.42345 -1.00417 0
M  V30 8793 C 856.105 2.71926 -2.05595 0
M  V30 8794 H 857.298 1.07167 -2.80099 0
M  V30 8795 H 854.851 0.523335 -1.47278 0
M  V30 8796 H 855.586 3.03583 -1.14053 0
M  V30 8797 H 855.371 2.6653 -2.87583 0
M  V30 8798 H 856.861 3.47841 -2.31077 0
M  V30 8799 N 857.298 1.47698 0.54982 0
M  V30 8800 C 858.545 1.54702 1.30665 0
M  V30 8801 C 858.873 0.212418 1.93337 0
M  V30 8802 O 858.128 -0.79543 1.78805 0
M  V30 8803 C 858.427 2.61903 2.4319 0
M  V30 8804 C 858.093 4.04953 1.98302 0
M  V30 8805 C 856.755 4.43893 1.85776 0
M  V30 8806 C 859.107 4.94682 1.64133 0
M  V30 8807 C 856.435 5.70387 1.37388 0
M  V30 8808 C 858.787 6.21646 1.17214 0
M  V30 8809 C 857.451 6.5946 1.0329 0
M  V30 8810 H 856.721 0.566096 0.478139 0
M  V30 8811 H 859.368 1.8133 0.615767 0
M  V30 8812 H 857.673 2.2906 3.17866 0
M  V30 8813 H 859.37 2.64543 3.0136 0
M  V30 8814 H 855.96 3.74191 2.08995 0
M  V30 8815 H 860.144 4.65291 1.72679 0
M  V30 8816 H 855.4 5.98427 1.25278 0
M  V30 8817 H 859.574 6.90581 0.898391 0
M  V30 8818 H 857.201 7.57367 0.655735 0
M  V30 8819 N 858.776 -0.797141 1.35954 0
M  V30 8820 C 860.187 -1.37179 1.26644 0
M  V30 8821 C 860.538 -1.9596 -0.0971046 0
M  V30 8822 O 859.663 -1.91994 -0.998355 0
M  V30 8823 C 860.258 -2.49395 2.2932 0
M  V30 8824 C 858.817 -3.02697 2.23722 0
M  V30 8825 C 857.964 -1.75721 2.14517 0
M  V30 8826 H 860.915 -0.599407 1.46945 0
M  V30 8827 H 860.936 -3.28204 1.92515 0
M  V30 8828 H 860.448 -2.06584 3.2855 0
M  V30 8829 H 858.549 -3.49948 1.27934 0
M  V30 8830 H 858.662 -3.60036 3.16087 0
M  V30 8831 H 857.026 -1.97649 1.60646 0
M  V30 8832 H 857.809 -1.35049 3.15621 0
M  V30 8833 N 860.254 -1.20106 -1.0204 0
M  V30 8834 C 861.665 -1.00992 -1.57027 0
M  V30 8835 C 862.016 0.434782 -1.91322 0
M  V30 8836 O 861.141 1.31557 -1.71819 0
M  V30 8837 C 861.736 -1.82697 -2.85319 0
M  V30 8838 C 860.295 -1.67959 -3.36848 0
M  V30 8839 C 859.442 -1.80868 -2.10195 0
M  V30 8840 H 862.393 -1.34354 -0.844676 0
M  V30 8841 H 862.414 -1.32809 -3.5657 0
M  V30 8842 H 861.926 -2.87839 -2.60328 0
M  V30 8843 H 860.027 -0.654389 -3.66809 0
M  V30 8844 H 860.14 -2.49006 -4.09308 0
M  V30 8845 H 858.504 -1.24015 -2.22469 0
M  V30 8846 H 859.287 -2.87486 -1.87635 0
M  V30 8847 N 861.732 1.21287 -1.00634 0
M  V30 8848 C 862.679 2.23705 -0.567876 0
M  V30 8849 C 863.649 1.61043 0.406753 0
M  V30 8850 O 864.834 1.88289 0.308499 0
M  V30 8851 C 861.974 3.44961 0.097996 0
M  V30 8852 C 861.087 4.22091 -0.919972 0
M  V30 8853 C 860.222 5.30718 -0.226222 0
M  V30 8854 C 859.261 5.99581 -1.23165 0
M  V30 8855 N 858.398 6.99821 -0.565278 0
M  V30 8856 H 863.238 2.60571 -1.44592 0
M  V30 8857 H 860.775 1.28049 -0.724006 0
M  V30 8858 H 862.733 4.1418 0.501097 0
M  V30 8859 H 861.363 3.08818 0.939744 0
M  V30 8860 H 860.415 3.52038 -1.44131 0
M  V30 8861 H 861.727 4.69476 -1.68505 0
M  V30 8862 H 860.881 6.06253 0.232917 0
M  V30 8863 H 859.62 4.84343 0.571247 0
M  V30 8864 H 858.625 5.22816 -1.70128 0
M  V30 8865 H 859.85 6.48042 -2.03022 0
M  V30 8866 H 857.796 6.55656 0.212508 0
M  V30 8867 H 857.713 7.4528 -1.26858 0
M  V30 8868 H 858.981 7.79393 -0.129389 0
M  V30 8869 N 863.21 0.781244 1.36873 0
M  V30 8870 C 864.459 0.34652 1.98701 0
M  V30 8871 C 864.772 -1.08555 1.62712 0
M  V30 8872 O 865.978 -1.62213 2.17713 0
M  V30 8873 C 864.434 0.568611 3.5538 0
M  V30 8874 C 864.042 2.01156 4.003 0
M  V30 8875 C 865.786 0.197983 4.24038 0
M  V30 8876 C 863.693 2.18074 5.49725 0
M  V30 8877 H 862.623 0.125821 0.743428 0
M  V30 8878 H 865.274 0.961721 1.56279 0
M  V30 8879 H 863.656 -0.116185 3.9583 0
M  V30 8880 H 864.83 2.73209 3.71071 0
M  V30 8881 H 863.145 2.33967 3.44454 0
M  V30 8882 H 865.742 0.302778 5.33842 0
M  V30 8883 H 866.085 -0.852927 4.07469 0
M  V30 8884 H 866.618 0.835696 3.88923 0
M  V30 8885 H 863.357 3.21519 5.71232 0
M  V30 8886 H 862.877 1.50517 5.80607 0
M  V30 8887 H 864.556 1.98393 6.15832 0
M  V30 8888 N 864.689 -1.48329 0.532571 0
M  V30 8889 C 866.105 -1.58458 0.190605 0
M  V30 8890 C 866.305 -1.53427 -1.30623 0
M  V30 8891 O 865.361 -1.4247 -2.08467 0
M  V30 8892 C 866.674 -2.89989 0.79543 0
M  V30 8893 C 868.222 -3.03523 0.7644 0
M  V30 8894 C 868.697 -4.37718 1.34785 0
M  V30 8895 N 870.188 -4.44292 1.30993 0
M  V30 8896 C 870.923 -5.4664 1.73124 0
M  V30 8897 N 870.419 -6.5593 2.22997 0
M  V30 8898 N 872.212 -5.37538 1.64346 0
M  V30 8899 H 864.363 -1.49842 1.50537 0
M  V30 8900 H 866.626 -0.71164 0.626316 0
M  V30 8901 H 866.332 -2.99333 1.84642 0
M  V30 8902 H 866.206 -3.76203 0.27403 0
M  V30 8903 H 868.593 -2.93789 -0.277831 0
M  V30 8904 H 868.674 -2.18912 1.3233 0
M  V30 8905 H 868.318 -4.48206 2.38902 0
M  V30 8906 H 868.248 -5.21019 0.764609 0
M  V30 8907 H 870.739 -3.65897 0.944868 0
M  V30 8908 H 871.052 -7.30167 2.53133 0
M  V30 8909 H 869.397 -6.56886 2.26992 0
M  V30 8910 H 872.588 -4.51052 1.25178 0
M  V30 8911 H 872.761 -6.17169 1.97501 0
M  V30 8912 N 866.167 -0.267825 -1.55308 0
M  V30 8913 C 867.395 0.354587 -2.03839 0
M  V30 8914 C 867.81 1.50007 -1.14644 0
M  V30 8915 O 867.167 1.81752 -0.165055 0
M  V30 8916 C 867.218 0.84254 -3.51544 0
M  V30 8917 O 866.939 -0.257318 -4.37344 0
M  V30 8918 C 868.44 1.53351 -4.15931 0
M  V30 8919 H 865.66 0.0818131 -0.665994 0
M  V30 8920 H 868.204 -0.397795 -2.00594 0
M  V30 8921 H 866.359 1.54503 -3.55257 0
M  V30 8922 H 866.773 0.116593 -5.2437 0
M  V30 8923 H 868.247 1.82643 -5.20908 0
M  V30 8924 H 868.724 2.4626 -3.63666 0
M  V30 8925 H 869.33 0.87506 -4.162 0
M  V30 8926 N 867.645 1.57599 0.00500368 0
M  V30 8927 C 868.875 1.94344 0.700998 0
M  V30 8928 C 869.283 0.868011 1.68114 0
M  V30 8929 O 868.626 -0.16214 1.82983 0
M  V30 8930 C 868.688 3.27046 1.49268 0
M  V30 8931 C 868.352 4.51992 0.674684 0
M  V30 8932 C 869.349 5.19888 -0.0354833 0
M  V30 8933 C 867.034 4.98432 0.622129 0
M  V30 8934 C 869.028 6.3252 -0.787246 0
M  V30 8935 C 866.715 6.10954 -0.133362 0
M  V30 8936 C 867.713 6.77855 -0.836788 0
M  V30 8937 O 867.401 7.88221 -1.57996 0
M  V30 8938 H 867.133 0.645572 0.20053 0
M  V30 8939 H 869.687 2.0536 -0.040718 0
M  V30 8940 H 867.917 3.12424 2.27877 0
M  V30 8941 H 869.606 3.4894 2.07355 0
M  V30 8942 H 870.372 4.85 -0.00400159 0
M  V30 8943 H 866.251 4.46189 1.15917 0
M  V30 8944 H 869.795 6.84671 -1.33683 0
M  V30 8945 H 865.692 6.45285 -0.166682 0
M  V30 8946 H 866.46 8.0471 -1.49615 0
M  V30 8947 O 869.162 -0.147371 1.60826 0
M  V30 8948 H 869.853 -0.78165 1.77228 0
M  V30 END ATOM
M  V30 BEGIN BOND
M  V30 END BOND
M  V30 END CTAB
M  END
$$$$
