drugbank_target|Q9Y478 5'-AMP-activated protein kinase subunit beta-1 (DB00131; DB00945; DB12010)
 OpenBabel12092119273D

  0  0  0     0  0            999 V3000
M  V30 BEGIN CTAB
M  V30 COUNTS 4236 4296 0 0 0
M  V30 BEGIN ATOM
M  V30 1 H -0.908 1.98254 -0.117106 0
M  V30 2 N 0 1.576 0 0
M  V30 3 C 0.933 2.03868 1.02534 0
M  V30 4 C 1.911 0.928543 1.3348 0
M  V30 5 O 3.095 1.19667 1.45644 0
M  V30 6 C 0.222 2.43627 2.35294 0
M  V30 7 C -0.732 3.65373 2.2001 0
M  V30 8 S 0.101 5.13292 1.52614 0
M  V30 9 C 1.257 5.56322 2.86805 0
M  V30 10 H 1.49 2.90518 0.631377 0
M  V30 11 H -0.977 1.52953 0.210867 0
M  V30 12 H 0.981 2.67203 3.11629 0
M  V30 13 H -0.358 1.57376 2.7183 0
M  V30 14 H -1.165 3.90944 3.18086 0
M  V30 15 H -1.563 3.418 1.51819 0
M  V30 16 H 0.729 5.58782 3.83104 0
M  V30 17 H 1.672 6.56266 2.65933 0
M  V30 18 H 2.08 4.83886 2.90714 0
M  V30 19 N 1.4781 -0.272755 1.55222 0
M  V30 20 C 2.7261 -1.00234 1.75492 0
M  V30 21 C 3.0471 -1.8681 0.5592 0
M  V30 22 O 2.3171 -1.91215 -0.425882 0
M  V30 23 H 0.8971 -0.373076 0.647166 0
M  V30 24 H 3.5591 -0.296926 1.92625 0
M  V30 25 H 2.6551 -1.63913 2.65592 0
M  V30 26 N 2.9562 -1.48159 -0.537278 0
M  V30 27 C 3.9042 -1.62573 -1.66352 0
M  V30 28 C 4.8982 -0.492366 -1.62087 0
M  V30 29 O 6.1042 -0.670847 -1.67032 0
M  V30 30 H 2.4792 -0.511992 -0.550789 0
M  V30 31 H 4.4502 -2.57176 -1.51337 0
M  V30 32 C 3.1992 -1.67583 -3.04649 0
M  V30 33 H 2.5222 -2.54151 -3.08622 0
M  V30 34 H 3.9622 -1.81713 -3.83088 0
M  V30 35 C 2.4212 -0.413039 -3.34358 0
M  V30 36 O 2.9512 0.477259 -3.98855 0
M  V30 37 N 1.1572 -0.286961 -2.8918 0
M  V30 38 H 0.7042 -1.01241 -2.36871 0
M  V30 39 H 0.6622 0.556963 -3.09427 0
M  V30 40 N 4.4343 0.785586 -1.36625 0
M  V30 41 C 5.6623 1.57448 -1.3423 0
M  V30 42 C 6.0773 1.88649 0.0755653 0
M  V30 43 O 5.4343 1.50414 1.03354 0
M  V30 44 C 5.4853 2.89316 -2.16745 0
M  V30 45 O 5.2063 2.59459 -3.53005 0
M  V30 46 C 6.7073 3.83606 -2.22174 0
M  V30 47 H 3.9273 0.488226 -0.4603 0
M  V30 48 H 6.4713 0.974733 -1.79775 0
M  V30 49 H 4.6263 3.4575 -1.74745 0
M  V30 50 H 5.0403 3.43804 -3.96105 0
M  V30 51 H 6.5143 4.73181 -2.8426 0
M  V30 52 H 6.9913 4.21734 -1.22627 0
M  V30 53 H 7.5973 3.33104 -2.64427 0
M  V30 54 N 5.9124 1.20967 1.01018 0
M  V30 55 C 7.1374 1.0503 1.78839 0
M  V30 56 C 7.5624 -0.395752 1.8389 0
M  V30 57 O 6.9204 -1.28529 1.27867 0
M  V30 58 C 6.9684 1.64602 3.2084 0
M  V30 59 O 6.0724 0.887988 4.02726 0
M  V30 60 H 5.4134 0.369987 0.551367 0
M  V30 61 H 7.9434 1.60399 1.27018 0
M  V30 62 H 7.9534 1.68607 3.71532 0
M  V30 63 H 6.6284 2.69841 3.16479 0
M  V30 64 H 5.2054 0.922648 3.61305 0
M  V30 65 N 7.3905 -1.2043 1.01659 0
M  V30 66 C 8.6155 -1.94318 0.724942 0
M  V30 67 C 9.0405 -1.74266 -0.708034 0
M  V30 68 O 8.3985 -1.03694 -1.48719 0
M  V30 69 C 8.4465 -3.44486 1.06591 0
M  V30 70 O 7.5505 -4.12017 0.177599 0
M  V30 71 H 6.8915 -0.60708 0.26898 0
M  V30 72 H 9.4215 -1.52861 1.35995 0
M  V30 73 H 9.4315 -3.95106 1.01762 0
M  V30 74 H 8.1065 -3.58404 2.10997 0
M  V30 75 H 6.6835 -3.71821 0.283421 0
M  V30 76 N 8.8686 -0.792821 -1.36206 0
M  V30 77 C 9.7786 -0.194808 -2.3379 0
M  V30 78 C 10.7946 0.654869 -1.61206 0
M  V30 79 O 11.9706 0.569856 -1.9317 0
M  V30 80 C 9.0356 0.657721 -3.40404 0
M  V30 81 C 8.0966 -0.210849 -4.28782 0
M  V30 82 C 7.3296 0.601086 -5.30304 0
M  V30 83 O 7.5526 1.83682 -5.40016 0
M  V30 84 O 6.4866 -0.000808277 -6.019 0
M  V30 85 H 10.3126 -1.00172 -2.86704 0
M  V30 86 H 7.8976 -0.554341 -1.38735 0
M  V30 87 H 9.7796 1.14375 -4.05581 0
M  V30 88 H 8.4546 1.44247 -2.89784 0
M  V30 89 H 7.3616 -0.743714 -3.66633 0
M  V30 90 H 8.6946 -0.959195 -4.82763 0
M  V30 91 N 10.3467 1.47872 -0.545128 0
M  V30 92 C 11.7627 1.5829 -0.204032 0
M  V30 93 C 11.9627 1.54529 1.29317 0
M  V30 94 O 11.0187 1.44232 2.07252 0
M  V30 95 C 12.3317 2.89304 -0.819987 0
M  V30 96 C 13.8797 3.02864 -0.790105 0
M  V30 97 C 14.3547 4.3656 -1.38491 0
M  V30 98 N 15.8457 4.43165 -1.34755 0
M  V30 99 C 16.5807 5.45153 -1.77753 0
M  V30 100 N 16.0767 6.54016 -2.2855 0
M  V30 101 N 17.8697 5.36125 -1.68897 0
M  V30 102 H 10.0207 1.4856 -1.51802 0
M  V30 103 H 12.2837 0.706305 -0.632327 0
M  V30 104 H 11.9897 2.97757 -1.87173 0
M  V30 105 H 11.8637 3.75957 -0.305915 0
M  V30 106 H 14.2507 2.94014 0.252913 0
M  V30 107 H 14.3317 2.17782 -1.34181 0
M  V30 108 H 13.9757 4.46164 -2.42693 0
M  V30 109 H 13.9057 5.20353 -0.808754 0
M  V30 110 H 16.3967 3.65083 -0.975855 0
M  V30 111 H 16.7097 7.27994 -2.59314 0
M  V30 112 H 15.0547 6.54938 -2.32553 0
M  V30 113 H 18.2457 4.49975 -1.28998 0
M  V30 114 H 18.4187 6.15472 -2.02726 0
M  V30 115 N 11.8248 0.280983 1.55075 0
M  V30 116 C 12.7878 -0.590896 2.21452 0
M  V30 117 C 13.7878 -1.07682 1.19421 0
M  V30 118 O 14.9778 -0.97605 1.44288 0
M  V30 119 C 12.1098 -1.81587 2.88511 0
M  V30 120 H 13.3028 -0.0112554 2.99898 0
M  V30 121 H 10.8558 0.0316438 1.56268 0
M  V30 122 H 11.5908 -2.43587 2.14093 0
M  V30 123 H 11.3758 -1.4753 3.63287 0
M  V30 124 H 12.8658 -2.43575 3.39206 0
M  V30 125 N 13.3029 -1.57598 0.00835791 0
M  V30 126 C 14.2659 -2.07884 -0.965242 0
M  V30 127 C 15.2659 -0.989825 -1.26725 0
M  V30 128 O 16.4559 -1.25218 -1.21104 0
M  V30 129 C 13.5879 -2.52731 -2.28779 0
M  V30 130 H 14.7809 -2.95178 -0.530112 0
M  V30 131 H 12.3339 -1.54458 -0.239283 0
M  V30 132 H 13.0689 -1.68705 -2.76964 0
M  V30 133 H 12.8539 -3.32272 -2.08177 0
M  V30 134 H 14.3439 -2.91933 -2.98605 0
M  V30 135 N 14.781 0.264519 -1.55364 0
M  V30 136 C 15.711 1.33121 -1.91836 0
M  V30 137 C 16.692 1.51101 -0.781192 0
M  V30 138 O 17.877 1.64003 -1.04003 0
M  V30 139 C 15.007 2.68921 -2.19769 0
M  V30 140 C 13.961 2.65661 -3.35571 0
M  V30 141 C 13.287 4.05093 -3.49004 0
M  V30 142 C 14.587 2.24187 -4.71739 0
M  V30 143 H 16.281 1.02844 -2.81182 0
M  V30 144 H 13.827 0.493286 -1.35287 0
M  V30 145 H 15.78 3.43663 -2.43872 0
M  V30 146 H 14.504 3.00799 -1.27231 0
M  V30 147 H 13.163 1.93377 -3.1145 0
M  V30 148 H 12.811 4.34206 -2.53917 0
M  V30 149 H 12.511 4.03804 -4.26868 0
M  V30 150 H 14.035 4.81561 -3.75408 0
M  V30 151 H 15.449 2.88654 -4.9533 0
M  V30 152 H 13.846 2.34044 -5.52579 0
M  V30 153 H 14.916 1.19327 -4.69988 0
M  V30 154 N 16.2591 1.48442 0.529413 0
M  V30 155 C 17.1691 1.6569 1.66084 0
M  V30 156 C 18.1851 0.539432 1.65427 0
M  V30 157 O 19.3611 0.810572 1.84368 0
M  V30 158 C 16.4261 1.69315 3.02545 0
M  V30 159 C 15.4871 2.92694 3.14052 0
M  V30 160 C 14.7201 2.96137 4.44003 0
M  V30 161 O 14.9431 2.07973 5.31134 0
M  V30 162 O 13.8771 3.88312 4.59888 0
M  V30 163 H 17.7031 2.61483 1.54469 0
M  V30 164 H 15.2881 1.3185 0.702567 0
M  V30 165 H 17.1701 1.74217 3.83701 0
M  V30 166 H 15.8451 0.766966 3.14483 0
M  V30 167 H 14.7521 2.93324 2.32189 0
M  V30 168 H 16.0851 3.84699 3.0703 0
M  V30 169 N 17.7372 -0.778329 1.37039 0
M  V30 170 C 19.1532 -1.07796 1.17695 0
M  V30 171 C 19.3532 -2.01498 0.00860115 0
M  V30 172 O 18.4092 -2.43901 -0.653352 0
M  V30 173 C 19.7222 -1.68178 2.49272 0
M  V30 174 C 21.2702 -1.80467 2.55735 0
M  V30 175 C 21.7452 -2.44263 3.87427 0
M  V30 176 N 23.2362 -2.51721 3.88833 0
M  V30 177 C 23.9712 -3.01919 4.87476 0
M  V30 178 N 23.4672 -3.5234 5.96513 0
M  V30 179 N 25.2602 -3.00733 4.74885 0
M  V30 180 H 17.4112 -0.156032 2.11826 0
M  V30 181 H 19.6742 -0.131844 0.938787 0
M  V30 182 H 19.3802 -1.06796 3.35093 0
M  V30 183 H 19.2542 -2.67554 2.65885 0
M  V30 184 H 21.6412 -2.40984 1.70325 0
M  V30 185 H 21.7222 -0.798656 2.43013 0
M  V30 186 H 21.3662 -1.84388 4.73248 0
M  V30 187 H 21.2962 -3.45458 3.9745 0
M  V30 188 H 23.7872 -2.1603 3.10063 0
M  V30 189 H 24.1002 -3.89027 6.67741 0
M  V30 190 H 22.4452 -3.50462 6.00168 0
M  V30 191 H 25.6362 -2.60638 3.88826 0
M  V30 192 H 25.8092 -3.39545 5.51918 0
M  V30 193 N 19.2153 -1.21501 -1.00376 0
M  V30 194 C 20.1653 -0.942843 -2.07592 0
M  V30 195 C 21.1493 0.102384 -1.60574 0
M  V30 196 O 22.3413 -0.10671 -1.76678 0
M  V30 197 C 19.4703 -0.510729 -3.3948 0
M  V30 198 C 18.5563 -1.59009 -3.93163 0
M  V30 199 N 18.9473 -2.81544 -4.20198 0
M  V30 200 C 17.2453 -1.45925 -4.21452 0
M  V30 201 C 17.9463 -3.51261 -4.63671 0
M  V30 202 N 16.9223 -2.78703 -4.66718 0
M  V30 203 H 20.7243 -1.87378 -2.26421 0
M  V30 204 H 18.2383 -1.11093 -1.18458 0
M  V30 205 H 20.2353 -0.297101 -4.1584 0
M  V30 206 H 18.8953 0.413436 -3.22057 0
M  V30 207 H 19.9063 -3.18075 -4.08716 0
M  V30 208 H 16.5833 -0.600467 -4.13159 0
M  V30 209 H 17.9733 -4.56183 -4.93302 0
M  V30 210 N 20.6934 1.19889 -1.02296 0
M  V30 211 C 21.9414 1.89046 -0.714558 0
M  V30 212 C 22.2624 1.79636 0.758681 0
M  V30 213 O 21.5324 1.20292 1.54618 0
M  V30 214 H 20.1124 0.699802 -0.261317 0
M  V30 215 H 22.7744 1.45574 -1.29592 0
M  V30 216 H 21.8704 2.95524 -1.0036 0
M  V30 217 N 22.1715 0.800033 1.35784 0
M  V30 218 C 23.4195 0.376597 1.9856 0
M  V30 219 C 23.7405 -1.05812 1.63795 0
M  V30 220 O 23.0105 -1.73103 0.917171 0
M  V30 221 H 21.5905 0.136261 0.734467 0
M  V30 222 H 24.2525 1.02442 1.65806 0
M  V30 223 H 23.3485 0.477002 3.08433 0
M  V30 224 N 23.6496 -1.47581 0.552962 0
M  V30 225 C 24.5996 -2.26961 -0.217423 0
M  V30 226 C 25.5836 -1.34099 -0.889168 0
M  V30 227 O 26.7756 -1.58483 -0.788176 0
M  V30 228 C 23.9046 -3.19756 -1.24944 0
M  V30 229 C 22.9906 -4.20097 -0.581327 0
M  V30 230 N 23.3816 -5.04614 0.346171 0
M  V30 231 C 21.6796 -4.38099 -0.835767 0
M  V30 232 C 22.3806 -5.77052 0.733854 0
M  V30 233 N 21.3566 -5.43526 0.0896567 0
M  V30 234 H 25.1586 -2.89688 0.495761 0
M  V30 235 H 22.6726 -1.58068 0.372597 0
M  V30 236 H 24.6696 -3.75305 -1.81527 0
M  V30 237 H 23.3296 -2.58585 -1.96376 0
M  V30 238 H 24.3406 -5.12869 0.720098 0
M  V30 239 H 21.0176 -3.88102 -1.53892 0
M  V30 240 H 22.4076 -6.5504 1.49574 0
M  V30 241 N 25.1277 -0.289203 -1.54924 0
M  V30 242 C 26.0747 0.592115 -2.23075 0
M  V30 243 C 27.0447 1.13881 -1.20915 0
M  V30 244 O 28.2297 1.18551 -1.495 0
M  V30 245 C 25.3697 1.76376 -2.96623 0
M  V30 246 C 24.4827 1.24959 -4.13533 0
M  V30 247 C 23.6177 2.38416 -4.74691 0
M  V30 248 C 22.6567 1.84072 -5.83767 0
M  V30 249 N 21.7937 2.91057 -6.38929 0
M  V30 250 H 26.6337 0.00432038 -2.98 0
M  V30 251 H 24.1707 -0.00963529 -1.47097 0
M  V30 252 H 26.1287 2.45268 -3.3749 0
M  V30 253 H 24.7587 2.32337 -2.24097 0
M  V30 254 H 23.8107 0.453307 -3.77689 0
M  V30 255 H 25.1227 0.811662 -4.92152 0
M  V30 256 H 24.2767 3.15276 -5.18349 0
M  V30 257 H 23.0157 2.8553 -3.95378 0
M  V30 258 H 22.0207 1.05697 -5.39545 0
M  V30 259 H 23.2457 1.37877 -6.64956 0
M  V30 260 H 21.1917 3.37526 -5.62505 0
M  V30 261 H 21.1087 2.51724 -7.12861 0
M  V30 262 H 22.3767 3.6785 -6.87246 0
M  V30 263 N 26.6058 1.57591 -0.0167156 0
M  V30 264 C 27.8338 1.95575 0.675128 0
M  V30 265 C 28.2488 0.892542 1.6637 0
M  V30 266 O 27.6058 -0.126912 1.82058 0
M  V30 267 C 27.6568 3.33608 1.39239 0
M  V30 268 O 27.3778 4.3585 0.443444 0
M  V30 269 C 28.8788 3.86151 2.17721 0
M  V30 270 H 26.0988 0.644423 0.186978 0
M  V30 271 H 28.6428 2.0437 -0.0728 0
M  V30 272 H 26.7978 3.2607 2.09182 0
M  V30 273 H 27.2118 5.158 0.951358 0
M  V30 274 H 28.6858 4.85114 2.63379 0
M  V30 275 H 29.1628 3.19738 3.01105 0
M  V30 276 H 29.7688 3.96918 1.52761 0
M  V30 277 N 28.0839 -0.256276 1.55502 0
M  V30 278 C 29.4949 -0.826068 1.67431 0
M  V30 279 C 29.8459 -1.86396 0.612446 0
M  V30 280 O 28.9709 -2.15031 -0.243025 0
M  V30 281 C 29.5659 -1.50512 3.03532 0
M  V30 282 C 28.1249 -2.02273 3.17431 0
M  V30 283 C 27.2719 -0.870548 2.63281 0
M  V30 284 H 30.2229 -0.0322728 1.58667 0
M  V30 285 H 30.2439 -2.37279 2.97454 0
M  V30 286 H 29.7559 -0.749484 3.80794 0
M  V30 287 H 27.8569 -2.80746 2.44974 0
M  V30 288 H 27.9699 -2.22655 4.24219 0
M  V30 289 H 26.3339 -1.26851 2.20864 0
M  V30 290 H 27.1169 -0.128149 3.43061 0
M  V30 291 N 29.562 -1.4872 -0.521534 0
M  V30 292 C 30.978 -1.35028 -0.850855 0
M  V30 293 C 31.178 -0.367712 -1.98116 0
M  V30 294 O 30.234 0.208037 -2.51642 0
M  V30 295 C 31.547 -2.75263 -1.21041 0
M  V30 296 C 33.095 -2.83813 -1.31981 0
M  V30 297 C 33.57 -4.24769 -1.71276 0
M  V30 298 N 35.061 -4.27482 -1.78363 0
M  V30 299 C 35.796 -5.33494 -2.1017 0
M  V30 300 N 35.292 -6.49775 -2.40343 0
M  V30 301 N 37.085 -5.20894 -2.11248 0
M  V30 302 H 29.236 -2.11214 0.22413 0
M  V30 303 H 31.499 -0.947252 0.0376439 0
M  V30 304 H 31.205 -3.48765 -0.453415 0
M  V30 305 H 31.079 -3.09327 -2.15863 0
M  V30 306 H 33.466 -2.10561 -2.06756 0
M  V30 307 H 33.547 -2.53358 -0.352596 0
M  V30 308 H 33.191 -4.9854 -0.970588 0
M  V30 309 H 33.121 -4.52673 -2.69062 0
M  V30 310 H 35.612 -3.43611 -1.57288 0
M  V30 311 H 35.925 -7.26402 -2.63743 0
M  V30 312 H 34.27 -6.53035 -2.37844 0
M  V30 313 H 37.461 -4.29065 -1.87139 0
M  V30 314 H 37.634 -6.03612 -2.35704 0
M  V30 315 N 31.0401 0.771051 -1.3745 0
M  V30 316 C 32.4561 1.07171 -1.18265 0
M  V30 317 C 32.6561 2.01491 -0.019287 0
M  V30 318 O 31.7121 2.44244 0.640408 0
M  V30 319 C 33.0251 1.66854 -2.50161 0
M  V30 320 C 34.5731 1.79109 -2.56689 0
M  V30 321 C 35.0481 2.42205 -3.88717 0
M  V30 322 N 36.5391 2.49655 -3.90162 0
M  V30 323 C 37.2741 2.9933 -4.8907 0
M  V30 324 N 36.7701 3.49172 -5.98374 0
M  V30 325 N 38.5631 2.9821 -4.76474 0
M  V30 326 H 30.7141 0.144796 -2.11906 0
M  V30 327 H 32.9771 0.126863 -0.939473 0
M  V30 328 H 32.6831 1.05017 -3.35655 0
M  V30 329 H 32.5571 2.6614 -2.673 0
M  V30 330 H 34.9441 2.40077 -1.71601 0
M  V30 331 H 35.0251 0.785757 -2.43433 0
M  V30 332 H 34.6691 1.81875 -4.74219 0
M  V30 333 H 34.5991 3.43345 -3.99276 0
M  V30 334 H 37.0901 2.14383 -3.11205 0
M  V30 335 H 37.4031 3.8548 -6.69795 0
M  V30 336 H 35.7481 3.47275 -6.02018 0
M  V30 337 H 38.9391 2.58572 -3.90203 0
M  V30 338 H 39.1121 3.36613 -5.53711 0
M  V30 339 N 32.5182 1.22032 0.997298 0
M  V30 340 C 33.7952 0.950823 1.70935 0
M  V30 341 C 34.1752 -0.535292 2.042 0
M  V30 342 O 33.5232 -1.50217 1.72183 0
M  V30 343 C 33.7332 1.84386 2.96315 0
M  V30 344 C 35.0812 2.09732 3.69185 0
M  V30 345 O 36.1052 1.81798 3.06314 0
M  V30 346 O 34.9642 2.57018 4.82291 0
M  V30 347 H 32.0582 0.357204 0.745878 0
M  V30 348 H 34.6042 1.32997 1.05404 0
M  V30 349 H 33.3762 2.84928 2.68201 0
M  V30 350 H 32.9992 1.46602 3.69586 0
M  V30 351 N 33.9963 -1.19345 1.0293 0
M  V30 352 C 35.2213 -1.93538 0.745511 0
M  V30 353 C 35.6463 -1.75007 -0.689511 0
M  V30 354 O 35.0043 -1.05265 -1.47611 0
M  V30 355 C 35.0523 -3.43336 1.10239 0
M  V30 356 O 34.1563 -4.11806 0.221289 0
M  V30 357 H 33.4973 -0.604193 0.275404 0
M  V30 358 H 36.0273 -1.5141 1.37609 0
M  V30 359 H 36.0373 -3.94004 1.05947 0
M  V30 360 H 34.7123 -3.56146 2.14786 0
M  V30 361 H 33.2893 -3.715 0.322842 0
M  V30 362 N 35.4744 -0.807222 -1.35358 0
M  V30 363 C 36.6994 -0.399309 -2.0352 0
M  V30 364 C 37.1244 0.981986 -1.60433 0
M  V30 365 O 36.4824 1.63601 -0.781299 0
M  V30 366 C 36.5304 -0.491552 -3.57234 0
M  V30 367 O 35.6344 0.494754 -4.09421 0
M  V30 368 H 34.9754 -0.166682 -0.642739 0
M  V30 369 H 37.5054 -1.09328 -1.72941 0
M  V30 370 H 37.5154 -0.361588 -4.06395 0
M  V30 371 H 36.1904 -1.49907 -3.87944 0
M  V30 372 H 34.7674 0.324977 -3.71481 0
M  V30 373 N 36.9525 1.47285 -0.560781 0
M  V30 374 C 38.2005 2.02064 -0.0379868 0
M  V30 375 C 38.5215 1.43711 1.31803 0
M  V30 376 O 37.7915 0.61362 1.86042 0
M  V30 377 H 36.3715 0.746918 -0.0110531 0
M  V30 378 H 39.0335 1.80648 -0.731598 0
M  V30 379 H 38.1295 3.12064 0.0474463 0
M  V30 380 N 38.4306 0.297415 1.54768 0
M  V30 381 C 39.6786 -0.312295 1.99673 0
M  V30 382 C 39.9996 -1.54686 1.18732 0
M  V30 383 O 39.2696 -1.93854 0.282382 0
M  V30 384 H 37.8496 -0.118381 0.73756 0
M  V30 385 H 40.5116 0.407915 1.90583 0
M  V30 386 H 39.6076 -0.586813 3.06534 0
M  V30 387 N 39.9087 -1.5758 0.0250728 0
M  V30 388 C 41.1367 -1.9593 -0.664747 0
M  V30 389 C 41.5517 -0.901352 -1.65895 0
M  V30 390 O 40.9087 0.117255 -1.82123 0
M  V30 391 C 40.9597 -3.34342 -1.37468 0
M  V30 392 O 40.6807 -4.36079 -0.420324 0
M  V30 393 C 42.1817 -3.873 -2.1567 0
M  V30 394 H 39.4017 -0.645405 -0.183557 0
M  V30 395 H 41.9457 -2.04329 0.0836372 0
M  V30 396 H 40.1007 -3.27175 -2.0745 0
M  V30 397 H 40.5147 -5.16297 -0.923991 0
M  V30 398 H 41.9887 -4.86504 -2.60803 0
M  V30 399 H 42.4657 -3.21331 -2.99405 0
M  V30 400 H 43.0717 -3.97723 -1.50654 0
M  V30 401 N 41.3868 0.248026 -1.55636 0
M  V30 402 C 42.3338 1.30707 -1.90222 0
M  V30 403 C 43.3038 1.47881 -0.756332 0
M  V30 404 O 44.4888 1.61883 -1.00988 0
M  V30 405 C 41.6288 2.65769 -2.20138 0
M  V30 406 C 40.7418 2.56612 -3.47526 0
M  V30 407 C 39.8768 3.8402 -3.67017 0
M  V30 408 C 38.9158 3.69476 -4.8801 0
M  V30 409 N 38.0528 4.88774 -5.04029 0
M  V30 410 H 42.8928 1.00512 -2.80538 0
M  V30 411 H 40.4298 0.485055 -1.38873 0
M  V30 412 H 42.3878 3.44386 -2.35487 0
M  V30 413 H 41.0178 2.94115 -1.33027 0
M  V30 414 H 40.0698 1.69571 -3.40514 0
M  V30 415 H 41.3818 2.41774 -4.36287 0
M  V30 416 H 40.5358 4.7108 -3.8232 0
M  V30 417 H 39.2748 4.01754 -2.76487 0
M  V30 418 H 38.2798 2.80799 -4.72686 0
M  V30 419 H 39.5048 3.53238 -5.8 0
M  V30 420 H 37.4508 5.0687 -4.16435 0
M  V30 421 H 37.3678 4.76562 -5.86877 0
M  V30 422 H 38.6358 5.77335 -5.23741 0
M  V30 423 N 42.8649 1.48995 0.513639 0
M  V30 424 C 44.1419 1.48338 1.27495 0
M  V30 425 C 44.5219 0.204065 2.10111 0
M  V30 426 O 43.8699 -0.813881 2.13514 0
M  V30 427 C 44.0799 2.75498 2.14247 0
M  V30 428 C 45.4279 3.24484 2.73852 0
M  V30 429 O 46.4519 2.76528 2.24523 0
M  V30 430 O 45.3109 4.07974 3.6362 0
M  V30 431 H 42.4049 0.593149 0.576284 0
M  V30 432 H 44.9509 1.61246 0.528948 0
M  V30 433 H 43.7229 3.60109 1.53092 0
M  V30 434 H 43.3459 2.6539 2.96064 0
M  V30 435 N 44.343 -0.763751 1.37857 0
M  V30 436 C 45.591 -1.51957 1.33243 0
M  V30 437 C 45.912 -1.94835 -0.0801709 0
M  V30 438 O 45.182 -1.66894 -1.02582 0
M  V30 439 H 43.762 -0.563626 0.49024 0
M  V30 440 H 46.424 -0.908504 1.7243 0
M  V30 441 H 45.52 -2.41523 1.97669 0
M  V30 442 N 45.8211 -1.22559 -0.990812 0
M  V30 443 C 47.0981 -0.959875 -1.70428 0
M  V30 444 C 47.4781 0.524455 -2.04481 0
M  V30 445 O 46.8261 1.49302 -1.72977 0
M  V30 446 C 47.0361 -1.85955 -2.95333 0
M  V30 447 C 48.3841 -2.11687 -3.68068 0
M  V30 448 O 49.4081 -1.8342 -3.05345 0
M  V30 449 O 48.2671 -2.59572 -4.80921 0
M  V30 450 H 45.3611 -0.361154 -0.743974 0
M  V30 451 H 47.9071 -1.33554 -1.04697 0
M  V30 452 H 46.6791 -2.86346 -2.66687 0
M  V30 453 H 46.3021 -1.4856 -3.68803 0
M  V30 454 N 47.2992 1.18797 -1.03562 0
M  V30 455 C 48.7152 1.40671 -0.753917 0
M  V30 456 C 48.9152 1.9043 0.658686 0
M  V30 457 O 47.9712 2.08538 1.42366 0
M  V30 458 C 49.2842 2.41192 -1.79574 0
M  V30 459 C 50.8322 2.54928 -1.81606 0
M  V30 460 C 51.3072 3.58709 -2.84766 0
M  V30 461 N 52.7982 3.66212 -2.83625 0
M  V30 462 C 53.5332 4.46225 -3.60098 0
M  V30 463 N 53.0292 5.29888 -4.46308 0
M  V30 464 N 54.8222 4.40939 -3.4861 0
M  V30 465 H 46.9732 0.848221 -1.94728 0
M  V30 466 H 49.2362 0.435081 -0.842264 0
M  V30 467 H 48.9422 2.11669 -2.80872 0
M  V30 468 H 48.8162 3.40467 -1.62365 0
M  V30 469 H 51.2032 2.83771 -0.809817 0
M  V30 470 H 51.2842 1.55784 -2.02891 0
M  V30 471 H 50.9282 3.30607 -3.85566 0
M  V30 472 H 50.8582 4.57519 -2.60737 0
M  V30 473 H 53.3492 3.06466 -2.21105 0
M  V30 474 H 53.6622 5.88078 -5.01382 0
M  V30 475 H 52.0072 5.29326 -4.50377 0
M  V30 476 H 55.1982 3.74624 -2.80668 0
M  V30 477 H 55.3712 5.03056 -4.08459 0
M  V30 478 N 48.7773 0.814389 1.34928 0
M  V30 479 C 50.1883 0.458364 1.80986 0
M  V30 480 C 50.5393 -1.02042 1.67577 0
M  V30 481 O 49.6643 -1.79352 1.21086 0
M  V30 482 C 50.2593 0.825212 3.28597 0
M  V30 483 C 48.8183 0.521677 3.72767 0
M  V30 484 C 47.9653 1.04668 2.56788 0
M  V30 485 H 50.9163 1.00533 1.22795 0
M  V30 486 H 50.9373 0.12571 3.80292 0
M  V30 487 H 50.4493 1.90154 3.38324 0
M  V30 488 H 48.5503 -0.545589 3.68584 0
M  V30 489 H 48.6633 1.05977 4.67232 0
M  V30 490 H 47.0273 0.468622 2.50352 0
M  V30 491 H 47.8103 2.12927 2.6929 0
M  V30 492 N 50.2554 -1.46986 0.568584 0
M  V30 493 C 51.2024 -2.30153 -0.172707 0
M  V30 494 C 52.1724 -1.39759 -0.897586 0
M  V30 495 O 53.3574 -1.68716 -0.891044 0
M  V30 496 C 50.4974 -3.23952 -1.1895 0
M  V30 497 C 49.6104 -4.29441 -0.469517 0
M  V30 498 C 48.7454 -5.1038 -1.47259 0
M  V30 499 C 47.7844 -6.07632 -0.738225 0
M  V30 500 N 46.9214 -6.8149 -1.68868 0
M  V30 501 H 51.7614 -2.93019 0.542596 0
M  V30 502 H 49.2984 -1.44422 0.279401 0
M  V30 503 H 51.2564 -3.76767 -1.79173 0
M  V30 504 H 49.8864 -2.62926 -1.87269 0
M  V30 505 H 48.9384 -3.79594 0.247467 0
M  V30 506 H 50.2504 -4.98689 0.105241 0
M  V30 507 H 49.4044 -5.67402 -2.14803 0
M  V30 508 H 48.1434 -4.4106 -2.08128 0
M  V30 509 H 47.1484 -5.49778 -0.0489293 0
M  V30 510 H 48.3734 -6.78966 -0.135129 0
M  V30 511 H 46.3194 -6.14891 -2.28573 0
M  V30 512 H 46.2364 -7.46948 -1.16636 0
M  V30 513 H 47.5044 -7.43078 -2.3549 0
M  V30 514 N 51.7335 -0.305618 -1.54608 0
M  V30 515 C 52.9825 0.303098 -1.9941 0
M  V30 516 C 53.2955 1.54648 -1.19764 0
M  V30 517 O 54.5015 2.23007 -1.54855 0
M  V30 518 C 52.9575 0.590588 -3.55021 0
M  V30 519 C 52.5655 -0.634719 -4.43481 0
M  V30 520 C 54.3095 1.16025 -4.08336 0
M  V30 521 C 52.2165 -0.320126 -5.90533 0
M  V30 522 H 51.1465 0.117031 -0.744862 0
M  V30 523 H 53.7975 -0.415045 -1.78745 0
M  V30 524 H 52.1795 1.36845 -3.71604 0
M  V30 525 H 53.3535 -1.41079 -4.38672 0
M  V30 526 H 51.6685 -1.12333 -4.00962 0
M  V30 527 H 54.2655 1.40994 -5.15776 0
M  V30 528 H 54.6085 2.10397 -3.5922 0
M  V30 529 H 55.1415 0.443985 -3.95315 0
M  V30 530 H 51.8805 -1.23254 -6.43808 0
M  V30 531 H 51.4005 0.418579 -5.98338 0
M  V30 532 H 53.0795 0.0766241 -6.46955 0
M  V30 533 N 53.2116 1.57565 -0.0334293 0
M  V30 534 C 54.1416 2.13511 0.945265 0
M  V30 535 C 55.1226 1.05231 1.33643 0
M  V30 536 O 56.3076 1.33084 1.41429 0
M  V30 537 C 53.4376 2.6657 2.22616 0
M  V30 538 C 52.3916 3.79676 1.97561 0
M  V30 539 C 51.7176 4.1918 3.31952 0
M  V30 540 C 53.0176 5.0557 1.31135 0
M  V30 541 H 54.7116 2.95538 0.479325 0
M  V30 542 H 52.2576 1.42166 0.229115 0
M  V30 543 H 54.2106 3.04344 2.91466 0
M  V30 544 H 52.9346 1.8171 2.71384 0
M  V30 545 H 51.5936 3.42347 1.31127 0
M  V30 546 H 51.2416 3.31296 3.78487 0
M  V30 547 H 50.9416 4.95402 3.15992 0
M  V30 548 H 52.4656 4.59541 4.02063 0
M  V30 549 H 53.8796 5.40903 1.89992 0
M  V30 550 H 52.2766 5.86818 1.25559 0
M  V30 551 H 53.3466 4.84062 0.284894 0
M  V30 552 N 54.6897 -0.239769 1.55765 0
M  V30 553 C 55.6227 -1.32356 1.85895 0
M  V30 554 C 56.6007 -1.46053 0.714662 0
M  V30 555 O 57.7847 -1.62154 0.961157 0
M  V30 556 C 54.9117 -2.6962 2.04994 0
M  V30 557 C 53.9577 -2.73036 3.27648 0
M  V30 558 S 54.7907 -2.28929 4.84099 0
M  V30 559 C 55.9467 -3.68103 5.06212 0
M  V30 560 H 56.1797 -1.06601 2.77531 0
M  V30 561 H 53.7127 -0.441112 1.47965 0
M  V30 562 H 55.6707 -3.48653 2.16682 0
M  V30 563 H 54.3317 -2.92609 1.14188 0
M  V30 564 H 53.5247 -3.7386 3.38 0
M  V30 565 H 53.1267 -2.02052 3.14723 0
M  V30 566 H 55.4187 -4.63656 4.93993 0
M  V30 567 H 56.3617 -3.6268 6.08168 0
M  V30 568 H 56.7697 -3.60947 4.34025 0
M  V30 569 N 56.1678 -1.49265 -0.50573 0
M  V30 570 C 57.4448 -1.49012 -1.26707 0
M  V30 571 C 57.8248 -0.215205 -2.1 0
M  V30 572 O 57.1728 0.802547 -2.13943 0
M  V30 573 C 57.3828 -2.7663 -2.12783 0
M  V30 574 C 58.7308 -3.25932 -2.72127 0
M  V30 575 O 59.7548 -2.77715 -2.23054 0
M  V30 576 O 58.6138 -4.09897 -3.61451 0
M  V30 577 H 55.7078 -0.596197 -0.57313 0
M  V30 578 H 58.2538 -1.61524 -0.52039 0
M  V30 579 H 57.0258 -3.60916 -1.5118 0
M  V30 580 H 56.6488 -2.66956 -2.94653 0
M  V30 581 N 57.6459 0.756429 -1.3826 0
M  V30 582 C 58.8709 1.55077 -1.37717 0
M  V30 583 C 59.2959 1.88073 0.03164 0
M  V30 584 O 58.6539 1.50364 1.01293 0
M  V30 585 C 58.7019 2.8283 -2.23695 0
M  V30 586 O 57.8059 3.77862 -1.6521 0
M  V30 587 H 57.1469 0.469152 -0.469885 0
M  V30 588 H 59.6769 0.935019 -1.81985 0
M  V30 589 H 59.6869 3.31783 -2.37453 0
M  V30 590 H 58.3619 2.58144 -3.2609 0
M  V30 591 H 56.9389 3.36555 -1.60578 0
M  V30 592 N 59.124 1.23083 0.984299 0
M  V30 593 C 60.535 1.05609 1.5396 0
M  V30 594 C 60.886 -0.377793 1.92528 0
M  V30 595 O 60.011 -1.26398 1.75649 0
M  V30 596 C 60.606 1.91087 2.7977 0
M  V30 597 C 59.165 1.77885 3.31713 0
M  V30 598 C 58.312 1.87028 2.04733 0
M  V30 599 H 61.263 1.36802 0.804419 0
M  V30 600 H 61.284 1.43336 3.5247 0
M  V30 601 H 60.796 2.9544 2.51668 0
M  V30 602 H 58.897 0.762995 3.64704 0
M  V30 603 H 59.01 2.61047 4.01735 0
M  V30 604 H 57.374 1.30565 2.18689 0
M  V30 605 H 58.157 2.92929 1.79017 0
M  V30 606 N 60.6021 -1.18246 1.0419 0
M  V30 607 C 61.5121 -2.25574 0.644476 0
M  V30 608 C 62.5281 -1.70845 -0.329826 0
M  V30 609 O 63.7041 -2.00554 -0.184443 0
M  V30 610 C 60.7691 -3.46697 0.014877 0
M  V30 611 C 59.8301 -4.16554 1.03834 0
M  V30 612 C 59.0631 -5.31894 0.438692 0
M  V30 613 O 59.2861 -5.65385 -0.754752 0
M  V30 614 O 58.2201 -5.90459 1.168 0
M  V30 615 H 62.0461 -2.61836 1.53869 0
M  V30 616 H 59.6311 -1.25352 0.812854 0
M  V30 617 H 61.5131 -4.20062 -0.335538 0
M  V30 618 H 60.1881 -3.12255 -0.853138 0
M  V30 619 H 59.0951 -3.45251 1.44057 0
M  V30 620 H 60.4281 -4.54998 1.87716 0
M  V30 621 N 62.0802 -0.821533 -1.34494 0
M  V30 622 C 63.3572 -0.33159 -1.92769 0
M  V30 623 C 63.7372 1.18088 -1.74981 0
M  V30 624 O 63.0852 1.98733 -1.12772 0
M  V30 625 C 63.2952 -0.759398 -3.40638 0
M  V30 626 C 64.6432 -0.757433 -4.1779 0
M  V30 627 O 65.6672 -0.70189 -3.49216 0
M  V30 628 O 64.5262 -0.829361 -5.4017 0
M  V30 629 H 61.6202 -0.0902502 -0.822061 0
M  V30 630 H 64.1662 -0.906231 -1.43477 0
M  V30 631 H 62.9382 -1.8012 -3.47379 0
M  V30 632 H 62.5612 -0.160378 -3.97276 0
M  V30 633 N 63.5583 1.46682 -0.576371 0
M  V30 634 C 64.5213 2.28707 0.150239 0
M  V30 635 C 65.5213 1.38035 0.824794 0
M  V30 636 O 66.7113 1.60476 0.677719 0
M  V30 637 C 63.8433 3.18248 1.22192 0
M  V30 638 H 65.0363 2.94423 -0.570521 0
M  V30 639 H 62.5893 1.52688 -0.334078 0
M  V30 640 H 63.3243 2.57265 1.97447 0
M  V30 641 H 63.1093 3.85 0.742812 0
M  V30 642 H 64.5993 3.80001 1.73172 0
M  V30 643 N 65.0364 0.313813 1.54444 0
M  V30 644 C 66.3134 -0.345447 1.92525 0
M  V30 645 C 66.6934 -1.70667 1.24242 0
M  V30 646 O 66.0414 -2.25273 0.382654 0
M  V30 647 C 66.2514 -0.44737 3.46121 0
M  V30 648 C 67.5994 -0.712238 4.18584 0
M  V30 649 O 68.6234 -0.530678 3.52225 0
M  V30 650 O 67.4824 -1.06183 5.36085 0
M  V30 651 H 64.5764 -0.195407 0.803583 0
M  V30 652 H 67.1224 0.362813 1.65776 0
M  V30 653 H 65.8944 0.509043 3.87975 0
M  V30 654 H 65.5174 -1.20359 3.78945 0
M  V30 655 N 66.5145 -1.57545 0.0417849 0
M  V30 656 C 67.4445 -2.14009 -0.933929 0
M  V30 657 C 68.4255 -1.05938 -1.33083 0
M  V30 658 O 69.6105 -1.33833 -1.40721 0
M  V30 659 C 66.7405 -2.67747 -2.21199 0
M  V30 660 C 65.6945 -3.80718 -1.95544 0
M  V30 661 C 65.0205 -4.20935 -3.29724 0
M  V30 662 C 66.3205 -5.06258 -1.28452 0
M  V30 663 H 68.0145 -2.95788 -0.463645 0
M  V30 664 H 65.5605 -1.42285 -0.221573 0
M  V30 665 H 67.5135 -3.05886 -2.89848 0
M  V30 666 H 66.2375 -1.83147 -2.70416 0
M  V30 667 H 64.8965 -3.43037 -1.2931 0
M  V30 668 H 64.5445 -3.33298 -3.76724 0
M  V30 669 H 64.2445 -4.9707 -3.13361 0
M  V30 670 H 65.7685 -4.61666 -3.9962 0
M  V30 671 H 67.1825 -5.41903 -1.8712 0
M  V30 672 H 65.5795 -5.87475 -1.22445 0
M  V30 673 H 66.6495 -4.84207 -0.259219 0
M  V30 674 N 67.9926 0.231505 -1.5589 0
M  V30 675 C 69.2396 0.957352 -1.78441 0
M  V30 676 C 69.5676 1.84726 -0.60882 0
M  V30 677 O 68.8226 1.91416 0.40725 0
M  V30 678 C 69.1216 1.83577 -3.0665 0
M  V30 679 C 68.7876 1.09993 -4.37278 0
M  V30 680 C 67.4496 0.896629 -4.72773 0
M  V30 681 C 69.8016 0.579558 -5.17968 0
M  V30 682 C 67.1296 0.160896 -5.86479 0
M  V30 683 C 69.4816 -0.142783 -6.32439 0
M  V30 684 C 68.1456 -0.357427 -6.66542 0
M  V30 685 H 67.4156 0.35032 -0.65296 0
M  V30 686 H 70.0626 0.226259 -1.90159 0
M  V30 687 H 68.3676 2.63441 -2.90011 0
M  V30 688 H 70.0646 2.39934 -3.21298 0
M  V30 689 H 66.6546 1.26835 -4.09403 0
M  V30 690 H 70.8386 0.724125 -4.90989 0
M  V30 691 H 66.0946 -0.0157293 -6.11398 0
M  V30 692 H 70.2686 -0.553559 -6.94196 0
M  V30 693 H 67.8956 -0.929466 -7.54497 0
M  V30 694 N 69.4707 1.49531 0.497807 0
M  V30 695 C 70.4207 1.62829 1.59596 0
M  V30 696 C 71.4047 0.483824 1.53453 0
M  V30 697 O 72.5967 0.736937 1.60929 0
M  V30 698 C 69.7257 1.7011 2.98191 0
M  V30 699 C 68.8117 2.90144 3.09317 0
M  V30 700 N 69.2027 4.1418 2.90324 0
M  V30 701 C 67.5007 2.88148 3.40422 0
M  V30 702 C 68.2017 4.94886 3.05717 0
M  V30 703 N 67.1777 4.28314 3.34736 0
M  V30 704 H 70.9797 2.56446 1.4357 0
M  V30 705 H 68.4937 1.46347 0.704001 0
M  V30 706 H 70.4907 1.77735 3.77115 0
M  V30 707 H 69.1507 0.776315 3.15283 0
M  V30 708 H 70.1617 4.44109 2.66436 0
M  V30 709 H 66.8387 2.05061 3.63671 0
M  V30 710 H 68.2287 6.03432 2.95499 0
M  V30 711 N 70.9488 -0.749086 1.3866 0
M  V30 712 C 72.1738 -1.54344 1.38538 0
M  V30 713 C 72.5988 -1.88088 -0.0216655 0
M  V30 714 O 71.9568 -1.50899 -1.00494 0
M  V30 715 C 72.0048 -2.8164 2.25192 0
M  V30 716 O 71.1088 -3.7698 1.67212 0
M  V30 717 H 70.4498 -0.466654 0.472367 0
M  V30 718 H 72.9798 -0.925355 1.82478 0
M  V30 719 H 72.9898 -3.30519 2.3921 0
M  V30 720 H 71.6648 -2.56411 3.27454 0
M  V30 721 H 70.2418 -3.35699 1.6236 0
M  V30 722 N 72.4269 -1.23603 -0.977757 0
M  V30 723 C 73.3369 -1.03632 -2.1047 0
M  V30 724 C 74.3529 0.0199435 -1.73989 0
M  V30 725 O 75.5289 -0.176076 -2.00629 0
M  V30 726 C 72.5939 -0.63276 -3.40877 0
M  V30 727 C 71.6549 -1.76437 -3.91367 0
M  V30 728 C 70.8879 -1.37997 -5.15551 0
M  V30 729 O 71.1109 -0.265357 -5.69782 0
M  V30 730 O 70.0449 -2.20201 -5.60174 0
M  V30 731 H 73.8709 -1.98086 -2.30208 0
M  V30 732 H 71.4559 -1.02332 -1.08851 0
M  V30 733 H 73.3379 -0.418761 -4.19314 0
M  V30 734 H 72.0129 0.282754 -3.22463 0
M  V30 735 H 70.9199 -2.03304 -3.14036 0
M  V30 736 H 72.2529 -2.6583 -4.14241 0
M  V30 737 N 73.905 1.17692 -1.04816 0
M  V30 738 C 74.815 2.25229 -0.65643 0
M  V30 739 C 75.831 1.71018 0.320761 0
M  V30 740 O 77.007 2.00649 0.173805 0
M  V30 741 C 74.072 3.46684 -0.0332629 0
M  V30 742 C 73.133 4.15997 -1.06042 0
M  V30 743 C 72.366 5.31654 -0.466893 0
M  V30 744 O 72.589 5.65777 0.724758 0
M  V30 745 O 71.523 5.89831 -1.1993 0
M  V30 746 H 75.349 2.61016 -1.55255 0
M  V30 747 H 72.934 1.24919 -0.81949 0
M  V30 748 H 74.816 4.20234 0.313256 0
M  V30 749 H 73.491 3.12703 0.836566 0
M  V30 750 H 72.398 3.44482 -1.45886 0
M  V30 751 H 73.731 4.53996 -1.90127 0
M  V30 752 N 75.3831 0.828654 1.34056 0
M  V30 753 C 76.6321 0.415828 1.97367 0
M  V30 754 C 76.9451 -1.02796 1.6641 0
M  V30 755 O 78.1511 -1.54497 2.23255 0
M  V30 756 C 76.6071 0.692601 3.53173 0
M  V30 757 C 76.2151 2.15038 3.93017 0
M  V30 758 C 77.9591 0.346222 4.23086 0
M  V30 759 C 75.8661 2.37174 5.41758 0
M  V30 760 H 74.7961 0.151755 0.738571 0
M  V30 761 H 77.4471 1.01581 1.52819 0
M  V30 762 H 75.8291 0.0223764 3.95994 0
M  V30 763 H 77.0031 2.86024 3.61285 0
M  V30 764 H 75.3181 2.45875 3.36057 0
M  V30 765 H 77.9151 0.48937 5.32456 0
M  V30 766 H 78.2581 -0.709842 4.10204 0
M  V30 767 H 78.7911 0.971258 3.85761 0
M  V30 768 H 75.5301 3.41308 5.59633 0
M  V30 769 H 75.0501 1.70738 5.74986 0
M  V30 770 H 76.7291 2.19818 6.08514 0
M  V30 771 N 76.8612 -1.46375 0.584142 0
M  V30 772 C 77.8082 -2.30323 -0.148286 0
M  V30 773 C 78.7782 -1.40703 -0.882713 0
M  V30 774 O 79.9632 -1.69651 -0.873099 0
M  V30 775 C 77.1032 -3.25196 -1.15507 0
M  V30 776 C 76.2162 -4.29915 -0.423943 0
M  V30 777 C 75.3512 -5.11914 -1.41838 0
M  V30 778 C 74.3902 -6.08381 -0.673736 0
M  V30 779 N 73.5272 -6.83242 -1.6163 0
M  V30 780 H 78.3672 -2.92427 0.573644 0
M  V30 781 H 75.9042 -1.44118 0.294703 0
M  V30 782 H 77.8622 -3.78646 -1.75166 0
M  V30 783 H 76.4922 -2.64898 -1.8447 0
M  V30 784 H 75.5442 -3.7931 0.287714 0
M  V30 785 H 76.8562 -4.98549 0.158128 0
M  V30 786 H 76.0102 -5.69648 -2.08773 0
M  V30 787 H 74.7492 -4.43243 -2.03438 0
M  V30 788 H 73.7542 -5.49799 0.00938483 0
M  V30 789 H 74.9792 -6.79071 -0.0631082 0
M  V30 790 H 72.9252 -6.1728 -2.22038 0
M  V30 791 H 72.8422 -7.48144 -1.08707 0
M  V30 792 H 74.1102 -7.45534 -2.27596 0
M  V30 793 N 78.3393 -0.321999 -1.54275 0
M  V30 794 C 79.3023 0.531975 -2.22941 0
M  V30 795 C 80.3023 1.04478 -1.22234 0
M  V30 796 O 81.4923 0.937452 -1.46825 0
M  V30 797 C 78.6243 1.73874 -2.93224 0
M  V30 798 H 79.8173 -0.0682612 -2.99822 0
M  V30 799 H 77.3703 -0.0730644 -1.56129 0
M  V30 800 H 78.1053 2.37825 -2.20476 0
M  V30 801 H 77.8903 1.37847 -3.6707 0
M  V30 802 H 79.3803 2.34496 -3.45545 0
M  V30 803 N 79.8174 1.5752 -0.0501392 0
M  V30 804 C 81.2284 1.80271 0.485705 0
M  V30 805 C 81.5794 0.96228 1.70981 0
M  V30 806 O 80.7044 0.178578 2.15662 0
M  V30 807 C 81.2994 3.26957 0.887938 0
M  V30 808 C 79.8584 3.5063 1.36877 0
M  V30 809 C 79.0054 2.75165 0.343468 0
M  V30 810 H 81.9564 1.56281 -0.276028 0
M  V30 811 H 81.9774 3.37821 1.75093 0
M  V30 812 H 81.4894 3.881 -0.0031809 0
M  V30 813 H 79.5904 2.94766 2.27911 0
M  V30 814 H 79.7034 4.59343 1.36164 0
M  V30 815 H 78.0674 2.4127 0.816128 0
M  V30 816 H 78.8504 3.39034 -0.539548 0
M  V30 817 N 81.2955 -0.223234 1.56011 0
M  V30 818 C 82.2055 -1.29766 1.95443 0
M  V30 819 C 83.2215 -1.51373 0.858028 0
M  V30 820 O 84.3975 -1.64536 1.16146 0
M  V30 821 C 81.4625 -2.62772 2.26167 0
M  V30 822 C 80.5235 -2.49482 3.49367 0
M  V30 823 C 79.7565 -3.76145 3.78616 0
M  V30 824 O 79.9795 -4.79087 3.09568 0
M  V30 825 O 78.9135 -3.73358 4.72109 0
M  V30 826 H 82.7395 -0.99309 2.87004 0
M  V30 827 H 80.3245 -0.425958 1.43199 0
M  V30 828 H 82.2065 -3.41327 2.47131 0
M  V30 829 H 80.8815 -2.92913 1.37781 0
M  V30 830 H 79.7885 -1.69133 3.33684 0
M  V30 831 H 81.1215 -2.2428 4.38131 0
M  V30 832 N 82.7736 -1.49793 -0.48987 0
M  V30 833 C 83.7206 -1.67281 -1.59014 0
M  V30 834 C 84.6906 -0.514177 -1.57941 0
M  V30 835 O 85.8756 -0.742533 -1.75759 0
M  V30 836 C 83.0156 -1.75569 -2.97102 0
M  V30 837 C 82.1286 -3.0281 -3.08107 0
M  V30 838 C 81.2636 -3.02008 -4.36995 0
M  V30 839 C 80.3026 -4.23782 -4.41673 0
M  V30 840 N 79.4396 -4.20826 -5.62005 0
M  V30 841 H 84.2796 -2.61224 -1.43409 0
M  V30 842 H 81.8166 -1.29508 -0.697565 0
M  V30 843 H 83.7746 -1.78354 -3.77155 0
M  V30 844 H 82.4046 -0.850827 -3.11385 0
M  V30 845 H 81.4566 -3.09584 -2.21047 0
M  V30 846 H 82.7686 -3.92801 -3.07423 0
M  V30 847 H 81.9226 -3.03418 -5.25378 0
M  V30 848 H 80.6616 -2.09815 -4.4026 0
M  V30 849 H 79.6666 -4.22604 -3.5169 0
M  V30 850 H 80.8916 -5.17181 -4.40115 0
M  V30 851 H 78.8376 -3.31476 -5.66091 0
M  V30 852 H 78.7546 -5.04564 -5.62984 0
M  V30 853 H 80.0226 -4.26355 -6.52565 0
M  V30 854 N 84.2517 0.741722 -1.39055 0
M  V30 855 C 85.1617 1.88621 -1.39496 0
M  V30 856 C 86.1777 1.71557 -0.290578 0
M  V30 857 O 87.3537 1.94275 -0.530954 0
M  V30 858 C 84.4187 3.24134 -1.23037 0
M  V30 859 C 83.4797 3.5364 -2.43387 0
M  V30 860 C 82.7127 4.82687 -2.27703 0
M  V30 861 O 82.9357 5.55922 -1.27696 0
M  V30 862 O 81.8697 5.1194 -3.16545 0
M  V30 863 H 85.6957 1.91203 -2.35956 0
M  V30 864 H 83.2807 0.888625 -1.20099 0
M  V30 865 H 85.1627 4.0513 -1.15964 0
M  V30 866 H 83.8377 3.22337 -0.296691 0
M  V30 867 H 82.7447 2.72758 -2.56035 0
M  V30 868 H 84.0777 3.60209 -3.35425 0
M  V30 869 N 85.7298 1.2412 0.971189 0
M  V30 870 C 86.6398 1.04747 2.09917 0
M  V30 871 C 87.6558 -0.0107162 1.73997 0
M  V30 872 O 88.8318 0.186714 2.00533 0
M  V30 873 C 85.8968 0.650828 3.40537 0
M  V30 874 C 84.9578 1.7851 3.90426 0
M  V30 875 C 84.1908 1.40729 5.14812 0
M  V30 876 O 84.4138 0.29557 5.69634 0
M  V30 877 O 83.3478 2.23168 5.58999 0
M  V30 878 H 87.1738 1.99304 2.29154 0
M  V30 879 H 84.7588 1.02908 1.08307 0
M  V30 880 H 86.6408 0.440992 4.19086 0
M  V30 881 H 85.3158 -0.265649 3.22608 0
M  V30 882 H 84.2228 2.04966 3.12953 0
M  V30 883 H 85.5558 2.68023 4.12825 0
M  V30 884 N 87.2079 -1.17134 1.05439 0
M  V30 885 C 88.4549 -1.87456 0.765942 0
M  V30 886 C 88.7829 -1.81189 -0.707153 0
M  V30 887 O 88.0379 -1.21633 -1.5331 0
M  V30 888 C 88.3369 -3.36833 1.19491 0
M  V30 889 C 88.0029 -3.63301 2.67063 0
M  V30 890 C 86.6649 -3.70234 3.07376 0
M  V30 891 C 89.0169 -3.74575 3.62413 0
M  V30 892 C 86.3449 -3.85933 4.41896 0
M  V30 893 C 88.6969 -3.91793 4.9667 0
M  V30 894 C 87.3609 -3.96966 5.36633 0
M  V30 895 H 86.6309 -0.685948 0.280278 0
M  V30 896 H 89.2779 -1.38556 1.32192 0
M  V30 897 H 87.5829 -3.87807 0.557969 0
M  V30 898 H 89.2799 -3.89611 0.948893 0
M  V30 899 H 85.8699 -3.58532 2.34846 0
M  V30 900 H 90.0539 -3.68537 3.32406 0
M  V30 901 H 85.3099 -3.88187 4.72357 0
M  V30 902 H 89.4839 -3.99458 5.70444 0
M  V30 903 H 87.1109 -4.08883 6.40874 0
M  V30 904 N 88.686 -0.835752 -1.33615 0
M  V30 905 C 89.616 -0.281739 -2.31794 0
M  V30 906 C 90.597 0.608833 -1.58831 0
M  V30 907 O 91.782 0.533035 -1.86741 0
M  V30 908 C 88.912 0.546612 -3.42971 0
M  V30 909 C 87.866 -0.247904 -4.27281 0
M  V30 910 C 87.192 0.704001 -5.30045 0
M  V30 911 C 88.492 -1.46324 -5.01385 0
M  V30 912 H 90.186 -1.10206 -2.78379 0
M  V30 913 H 87.732 -0.531388 -1.33837 0
M  V30 914 H 89.685 0.944467 -4.1068 0
M  V30 915 H 88.409 1.40011 -2.95067 0
M  V30 916 H 87.068 -0.627281 -3.61194 0
M  V30 917 H 86.716 1.55381 -4.78399 0
M  V30 918 H 86.416 0.176524 -5.87335 0
M  V30 919 H 87.94 1.09944 -6.0062 0
M  V30 920 H 89.354 -1.13871 -5.61877 0
M  V30 921 H 87.751 -1.92728 -5.6831 0
M  V30 922 H 88.821 -2.23467 -4.30338 0
M  V30 923 N 90.1641 1.46063 -0.591896 0
M  V30 924 C 91.1271 2.28854 0.125973 0
M  V30 925 C 92.1271 1.38903 0.810107 0
M  V30 926 O 93.3171 1.61186 0.66066 0
M  V30 927 C 90.4491 3.19526 1.1881 0
M  V30 928 H 91.6421 2.93802 -0.601717 0
M  V30 929 H 89.1951 1.52325 -0.350254 0
M  V30 930 H 89.9301 2.59345 1.94707 0
M  V30 931 H 89.7151 3.85766 0.701936 0
M  V30 932 H 91.2051 3.81817 1.69132 0
M  V30 933 N 91.6422 0.330177 1.54103 0
M  V30 934 C 92.8882 -0.263542 2.01685 0
M  V30 935 C 93.2432 -1.49258 1.21408 0
M  V30 936 O 92.5362 -1.89395 0.289852 0
M  V30 937 C 92.7302 -0.643134 3.51566 0
M  V30 938 C 92.5592 0.547571 4.46354 0
M  V30 939 C 91.3292 1.04873 4.94297 0
M  V30 940 C 93.5272 1.40184 4.94826 0
M  V30 941 N 91.5092 2.20316 5.73005 0
M  V30 942 C 92.8802 2.40335 5.71524 0
M  V30 943 C 94.9352 1.42884 4.76958 0
M  V30 944 C 93.6382 3.42998 6.32254 0
M  V30 945 C 95.6642 2.44421 5.38528 0
M  V30 946 C 95.0262 3.43298 6.15082 0
M  V30 947 H 91.1252 -0.0601026 0.779687 0
M  V30 948 H 93.7092 0.466714 1.89023 0
M  V30 949 H 91.8802 -1.34251 3.6446 0
M  V30 950 H 93.6122 -1.21889 3.85908 0
M  V30 951 H 90.3672 0.618956 4.69538 0
M  V30 952 H 90.7912 2.78565 6.17034 0
M  V30 953 H 95.4332 0.678049 4.17328 0
M  V30 954 H 93.1512 4.1898 6.91 0
M  V30 955 H 96.7372 2.4732 5.26616 0
M  V30 956 H 95.6172 4.20579 6.61878 0
M  V30 957 N 93.1203 -1.57491 0.0584922 0
M  V30 958 C 94.0523 -2.08916 -0.942694 0
M  V30 959 C 95.0653 -1.0185 -1.27006 0
M  V30 960 O 96.2543 -1.29398 -1.22957 0
M  V30 961 C 93.3543 -2.52341 -2.26224 0
M  V30 962 C 92.5273 -3.82827 -2.1157 0
M  V30 963 C 91.5863 -4.12487 -3.26712 0
M  V30 964 O 90.6123 -4.82295 -3.02292 0
M  V30 965 N 91.8143 -3.64978 -4.5141 0
M  V30 966 H 94.5793 -2.95437 -0.503722 0
M  V30 967 H 92.1403 -1.61397 -0.12757 0
M  V30 968 H 94.1323 -2.69254 -3.02133 0
M  V30 969 H 92.7023 -1.7103 -2.61663 0
M  V30 970 H 91.9223 -3.75425 -1.20208 0
M  V30 971 H 93.2103 -4.68263 -1.99015 0
M  V30 972 H 92.6083 -3.08558 -4.7414 0
M  V30 973 H 91.1653 -3.87115 -5.2439 0
M  V30 974 N 94.5984 0.214957 -1.56127 0
M  V30 975 C 95.5484 1.27006 -1.8935 0
M  V30 976 C 96.5324 1.41969 -0.757202 0
M  V30 977 O 97.7244 1.44673 -1.01973 0
M  V30 978 C 94.8534 2.61911 -2.2194 0
M  V30 979 C 93.9394 2.50822 -3.41978 0
M  V30 980 N 94.3304 2.09391 -4.60423 0
M  V30 981 C 92.6284 2.81765 -3.45723 0
M  V30 982 C 93.3294 2.09712 -5.42582 0
M  V30 983 N 92.3054 2.50454 -4.82466 0
M  V30 984 H 96.1074 0.940734 -2.78437 0
M  V30 985 H 93.6214 0.423492 -1.56781 0
M  V30 986 H 95.6184 3.38096 -2.43919 0
M  V30 987 H 94.2784 2.95684 -1.34169 0
M  V30 988 H 95.2894 1.80416 -4.85459 0
M  V30 989 H 91.9664 3.19865 -2.68314 0
M  V30 990 H 93.3564 1.79748 -6.4741 0
M  V30 991 N 96.0765 1.50051 0.48192 0
M  V30 992 C 97.3535 1.51009 1.2432 0
M  V30 993 C 97.7335 0.248587 2.09631 0
M  V30 994 O 97.0815 -0.768409 2.15192 0
M  V30 995 C 97.2915 2.79981 2.08355 0
M  V30 996 C 98.6395 3.3022 2.66908 0
M  V30 997 O 99.6635 2.81228 2.18607 0
M  V30 998 O 98.5225 4.15595 3.54884 0
M  V30 999 H 95.6165 0.605239 0.563573 0
M  V30 1000 H 98.1625 1.62332 0.494627 0
M  V30 1001 H 96.9345 3.63275 1.45419 0
M  V30 1002 H 96.5575 2.7161 2.90368 0
M  V30 1003 N 97.5546 -0.734337 1.39446 0
M  V30 1004 C 98.4846 -1.86155 1.40955 0
M  V30 1005 C 99.4656 -1.67898 0.272827 0
M  V30 1006 O 100.651 -1.88207 0.478743 0
M  V30 1007 C 97.7806 -3.23912 1.25294 0
M  V30 1008 C 96.7346 -3.56808 2.36373 0
M  V30 1009 C 96.0606 -4.93508 2.058 0
M  V30 1010 C 97.3606 -3.59713 3.78687 0
M  V30 1011 H 99.0546 -1.8515 2.35287 0
M  V30 1012 H 96.6006 -0.889367 1.13253 0
M  V30 1013 H 98.5536 -4.02443 1.2497 0
M  V30 1014 H 97.2776 -3.25446 0.274308 0
M  V30 1015 H 95.9366 -2.80606 2.35914 0
M  V30 1016 H 95.5846 -4.91623 1.06374 0
M  V30 1017 H 95.2846 -5.16486 2.80208 0
M  V30 1018 H 96.8086 -5.74396 2.07128 0
M  V30 1019 H 98.2226 -4.2832 3.81071 0
M  V30 1020 H 96.6196 -3.94209 4.52459 0
M  V30 1021 H 97.6896 -2.59504 4.09617 0
M  V30 1022 N 99.0327 -1.24633 -0.964593 0
M  V30 1023 C 99.9427 -1.05859 -2.09359 0
M  V30 1024 C 100.959 0.00148855 -1.74 0
M  V30 1025 O 102.135 -0.197346 -2.00431 0
M  V30 1026 C 99.1997 -0.668879 -3.40187 0
M  V30 1027 C 98.2607 -1.80578 -3.89474 0
M  V30 1028 C 97.4937 -1.43457 -5.14058 0
M  V30 1029 O 97.7167 -0.325775 -5.69469 0
M  V30 1030 O 96.6507 -2.2613 -5.57807 0
M  V30 1031 H 100.477 -2.00516 -2.28094 0
M  V30 1032 H 98.0617 -1.03481 -1.0776 0
M  V30 1033 H 99.9437 -0.463211 -4.18846 0
M  V30 1034 H 98.6187 0.248536 -3.22744 0
M  V30 1035 H 97.5257 -2.06623 -3.11862 0
M  V30 1036 H 98.8587 -2.70208 -4.11398 0
M  V30 1037 N 100.511 1.16574 -1.06058 0
M  V30 1038 C 101.757 1.87324 -0.777022 0
M  V30 1039 C 102.09 1.81351 0.694645 0
M  V30 1040 O 101.365 1.22753 1.50871 0
M  V30 1041 C 101.648 3.36991 -1.26922 0
M  V30 1042 C 101.501 3.51667 -2.80447 0
M  V30 1043 C 102.82 4.3131 -0.87521 0
M  V30 1044 H 99.9388 0.680191 -0.28374 0
M  V30 1045 H 102.581 1.37036 -1.3161 0
M  V30 1046 H 100.731 3.79949 -0.81063 0
M  V30 1047 H 102.403 3.17664 -3.34495 0
M  V30 1048 H 100.646 2.93656 -3.19294 0
M  V30 1049 H 101.317 4.56766 -3.0995 0
M  V30 1050 H 103.793 3.9624 -1.27014 0
M  V30 1051 H 102.669 5.34545 -1.2471 0
M  V30 1052 H 102.93 4.41552 0.220071 0
M  V30 1053 N 101.989 0.842826 1.3317 0
M  V30 1054 C 102.937 0.267495 2.31057 0
M  V30 1055 C 103.931 -0.602682 1.58316 0
M  V30 1056 O 105.137 -0.491803 1.73151 0
M  V30 1057 H 101.512 0.0677813 0.748939 0
M  V30 1058 H 103.483 1.10754 2.77085 0
M  V30 1059 C 102.232 -0.539331 3.43492 0
M  V30 1060 H 101.555 0.12095 3.99617 0
M  V30 1061 H 102.995 -0.90767 4.14171 0
M  V30 1062 C 101.454 -1.71981 2.89697 0
M  V30 1063 O 101.984 -2.81862 2.86211 0
M  V30 1064 N 100.19 -1.54299 2.46252 0
M  V30 1065 H 99.7369 -0.649143 2.49287 0
M  V30 1066 H 99.6949 -2.33431 2.10612 0
M  V30 1067 N 103.467 -1.45747 0.599634 0
M  V30 1068 C 104.744 -1.95585 0.0240846 0
M  V30 1069 C 105.124 -1.54217 -1.44154 0
M  V30 1070 O 104.472 -0.800903 -2.14004 0
M  V30 1071 C 104.682 -3.48344 0.21385 0
M  V30 1072 C 106.03 -4.24504 0.0904902 0
M  V30 1073 O 107.054 -3.55911 0.143558 0
M  V30 1074 O 105.913 -5.46491 -0.0310766 0
M  V30 1075 H 103.007 -0.82602 -0.0402478 0
M  V30 1076 H 105.553 -1.55951 0.669139 0
M  V30 1077 H 104.325 -3.71397 1.23206 0
M  V30 1078 H 103.948 -3.9485 -0.466842 0
M  V30 1079 N 104.945 -0.338344 -1.53925 0
M  V30 1080 C 105.892 0.520845 -2.24846 0
M  V30 1081 C 106.862 1.09976 -1.24477 0
M  V30 1082 O 108.047 1.13735 -1.53196 0
M  V30 1083 C 105.187 1.6685 -3.02084 0
M  V30 1084 C 104.3 1.11739 -4.17299 0
M  V30 1085 C 103.435 2.23193 -4.82036 0
M  V30 1086 C 102.474 1.65407 -5.89328 0
M  V30 1087 N 101.611 2.70582 -6.47866 0
M  V30 1088 H 106.451 -0.0904881 -2.97863 0
M  V30 1089 H 103.988 -0.0564282 -1.46992 0
M  V30 1090 H 105.946 2.34407 -3.45122 0
M  V30 1091 H 104.576 2.2509 -2.31375 0
M  V30 1092 H 103.628 0.332919 -3.7894 0
M  V30 1093 H 104.94 0.654677 -4.94485 0
M  V30 1094 H 104.094 2.98626 -5.28117 0
M  V30 1095 H 102.833 2.72807 -4.04262 0
M  V30 1096 H 101.838 0.884779 -5.42634 0
M  V30 1097 H 103.063 1.16652 -6.69006 0
M  V30 1098 H 101.009 3.1946 -5.72959 0
M  V30 1099 H 100.926 2.28917 -7.20509 0
M  V30 1100 H 102.194 3.45799 -6.98601 0
M  V30 1101 N 106.423 1.57458 -0.0668435 0
M  V30 1102 C 107.386 2.11323 0.887422 0
M  V30 1103 C 108.386 1.03618 1.22964 0
M  V30 1104 O 109.576 1.29626 1.16373 0
M  V30 1105 C 106.708 2.61048 2.19242 0
M  V30 1106 H 107.901 2.96942 0.420194 0
M  V30 1107 H 105.454 1.55239 0.181793 0
M  V30 1108 H 106.189 1.78868 2.70512 0
M  V30 1109 H 105.974 3.39769 1.95702 0
M  V30 1110 H 107.464 3.02814 2.87565 0
M  V30 1111 N 107.901 -0.206675 1.56239 0
M  V30 1112 C 109.312 -0.772383 1.69974 0
M  V30 1113 C 109.663 -1.84353 0.671436 0
M  V30 1114 O 108.788 -2.15695 -0.174491 0
M  V30 1115 C 109.383 -1.40779 3.08167 0
M  V30 1116 C 107.942 -1.92072 3.23706 0
M  V30 1117 C 107.089 -0.786347 2.65917 0
M  V30 1118 H 110.04 0.0182223 1.5869 0
M  V30 1119 H 110.061 -2.27696 3.04852 0
M  V30 1120 H 109.573 -0.627958 3.82986 0
M  V30 1121 H 107.674 -2.7281 2.53782 0
M  V30 1122 H 107.787 -2.09046 4.31087 0
M  V30 1123 H 106.151 -1.1976 2.24788 0
M  V30 1124 H 106.934 -0.0189416 3.43295 0
M  V30 1125 N 109.379 -1.50304 -0.473955 0
M  V30 1126 C 110.342 -1.6841 -1.55469 0
M  V30 1127 C 111.342 -0.554905 -1.50922 0
M  V30 1128 O 112.532 -0.821882 -1.53593 0
M  V30 1129 C 109.664 -1.70667 -2.95102 0
M  V30 1130 H 110.857 -2.64828 -1.40733 0
M  V30 1131 H 108.41 -1.39742 -0.700132 0
M  V30 1132 H 109.145 -0.75932 -3.15285 0
M  V30 1133 H 108.93 -2.52698 -2.9981 0
M  V30 1134 H 110.42 -1.8664 -3.73571 0
M  V30 1135 N 110.857 0.726932 -1.39834 0
M  V30 1136 C 111.789 1.85147 -1.35104 0
M  V30 1137 C 112.802 1.60736 -0.258392 0
M  V30 1138 O 113.991 1.70821 -0.517931 0
M  V30 1139 C 111.091 3.21332 -1.07697 0
M  V30 1140 C 110.264 3.73033 -2.28396 0
M  V30 1141 C 109.323 4.87802 -1.97322 0
M  V30 1142 O 108.349 5.01043 -2.70083 0
M  V30 1143 N 109.551 5.72768 -0.944273 0
M  V30 1144 H 112.316 1.89706 -2.32017 0
M  V30 1145 H 109.877 0.908006 -1.3404 0
M  V30 1146 H 111.869 3.95691 -0.849144 0
M  V30 1147 H 110.439 3.11992 -0.194909 0
M  V30 1148 H 109.659 2.89934 -2.6708 0
M  V30 1149 H 110.947 4.0431 -3.08887 0
M  V30 1150 H 110.345 5.64669 -0.341427 0
M  V30 1151 H 108.902 6.4716 -0.776346 0
M  V30 1152 N 112.336 1.25143 0.95797 0
M  V30 1153 C 113.299 1.05321 2.03569 0
M  V30 1154 C 114.299 0.007152 1.60798 0
M  V30 1155 O 115.489 0.24903 1.72411 0
M  V30 1156 C 112.621 0.598394 3.35607 0
M  V30 1157 H 113.814 2.00986 2.22586 0
M  V30 1158 H 111.367 1.07502 1.13459 0
M  V30 1159 H 112.102 -0.361014 3.22284 0
M  V30 1160 H 111.887 1.35351 3.67998 0
M  V30 1161 H 113.377 0.48104 4.1482 0
M  V30 1162 N 113.814 -1.1601 1.06675 0
M  V30 1163 C 115.23 -1.38622 0.790948 0
M  V30 1164 C 115.43 -1.92109 -0.607965 0
M  V30 1165 O 114.486 -2.12239 -1.36787 0
M  V30 1166 C 115.799 -2.36347 1.85905 0
M  V30 1167 C 117.347 -2.50023 1.88301 0
M  V30 1168 C 117.822 -3.51033 2.94176 0
M  V30 1169 N 119.313 -3.58563 2.93235 0
M  V30 1170 C 120.048 -4.36521 3.71803 0
M  V30 1171 N 119.544 -5.17869 4.602 0
M  V30 1172 N 121.337 -4.31541 3.60178 0
M  V30 1173 H 113.488 -0.796294 1.96908 0
M  V30 1174 H 115.751 -0.412597 0.853503 0
M  V30 1175 H 115.457 -2.04147 2.86386 0
M  V30 1176 H 115.331 -3.36042 1.71334 0
M  V30 1177 H 117.718 -2.81524 0.884769 0
M  V30 1178 H 117.799 -1.5035 2.06951 0
M  V30 1179 H 117.443 -3.20268 3.94196 0
M  V30 1180 H 117.373 -4.50445 2.72776 0
M  V30 1181 H 119.864 -3.00496 2.29152 0
M  V30 1182 H 120.177 -5.74578 5.16797 0
M  V30 1183 H 118.522 -5.17199 4.64253 0
M  V30 1184 H 121.713 -3.67051 2.90502 0
M  V30 1185 H 121.886 -4.9205 4.21653 0
M  V30 1186 N 115.292 -0.849877 -1.32721 0
M  V30 1187 C 116.703 -0.506188 -1.79707 0
M  V30 1188 C 117.054 0.975627 -1.70223 0
M  V30 1189 O 116.179 1.76078 -1.25799 0
M  V30 1190 C 116.774 -0.912044 -3.26293 0
M  V30 1191 C 115.333 -0.620326 -3.71253 0
M  V30 1192 C 114.48 -1.11439 -2.53922 0
M  V30 1193 H 117.431 -1.03754 -1.20087 0
M  V30 1194 H 117.452 -0.226493 -3.79825 0
M  V30 1195 H 116.964 -1.99057 -3.33164 0
M  V30 1196 H 115.065 0.447674 -3.69901 0
M  V30 1197 H 115.178 -1.18327 -4.64258 0
M  V30 1198 H 113.542 -0.534834 -2.49021 0
M  V30 1199 H 114.325 -2.19992 -2.6355 0
M  V30 1200 N 116.77 1.45427 -0.607355 0
M  V30 1201 C 117.998 2.06614 -0.108814 0
M  V30 1202 C 118.413 1.45204 1.2067 0
M  V30 1203 O 117.77 0.566132 1.73497 0
M  V30 1204 C 117.821 3.61481 0.0375347 0
M  V30 1205 O 117.542 4.20598 -1.22593 0
M  V30 1206 C 119.043 4.39652 0.567561 0
M  V30 1207 H 116.263 0.66747 -0.0687351 0
M  V30 1208 H 118.807 1.86675 -0.835022 0
M  V30 1209 H 116.962 3.80762 0.714068 0
M  V30 1210 H 117.376 5.1377 -1.05547 0
M  V30 1211 H 118.85 5.48518 0.61905 0
M  V30 1212 H 119.327 4.09417 1.58978 0
M  V30 1213 H 119.933 4.25234 -0.0749202 0
M  V30 1214 N 118.248 0.346503 1.53744 0
M  V30 1215 C 119.494 -0.249473 2.0126 0
M  V30 1216 C 119.827 -1.49965 1.23386 0
M  V30 1217 O 119.102 -1.91811 0.32229 0
M  V30 1218 C 119.385 -0.560643 3.55709 0
M  V30 1219 C 119.238 0.701836 4.44291 0
M  V30 1220 C 120.557 -1.36905 4.18264 0
M  V30 1221 H 117.676 -0.0891987 0.731582 0
M  V30 1222 H 120.318 0.467624 1.84156 0
M  V30 1223 H 118.468 -1.17156 3.70414 0
M  V30 1224 H 120.14 1.33974 4.41417 0
M  V30 1225 H 118.383 1.32612 4.13033 0
M  V30 1226 H 119.054 0.43933 5.50249 0
M  V30 1227 H 121.53 -0.852448 4.07275 0
M  V30 1228 H 120.406 -1.55553 5.26398 0
M  V30 1229 H 120.667 -2.37203 3.73078 0
M  V30 1230 N 119.726 -1.57421 0.075193 0
M  V30 1231 C 120.973 -1.93618 -0.593146 0
M  V30 1232 C 121.301 -0.955484 -1.69413 0
M  V30 1233 O 120.556 0.0283251 -1.9568 0
M  V30 1234 C 120.855 -3.36428 -1.20626 0
M  V30 1235 C 120.521 -4.50307 -0.231078 0
M  V30 1236 C 119.183 -4.81186 0.0371936 0
M  V30 1237 C 121.535 -5.19374 0.435888 0
M  V30 1238 C 118.863 -5.78466 0.979461 0
M  V30 1239 C 121.215 -6.17665 1.3665 0
M  V30 1240 C 119.879 -6.46958 1.6432 0
M  V30 1241 H 119.149 -0.708499 -0.217047 0
M  V30 1242 H 121.796 -1.90937 0.146793 0
M  V30 1243 H 120.101 -3.35592 -2.02201 0
M  V30 1244 H 121.798 -3.61727 -1.73073 0
M  V30 1245 H 118.388 -4.26227 -0.450357 0
M  V30 1246 H 122.572 -4.95711 0.241748 0
M  V30 1247 H 117.828 -5.99487 1.20106 0
M  V30 1248 H 122.002 -6.70284 1.88924 0
M  V30 1249 H 119.629 -7.2215 2.37494 0
M  V30 1250 N 121.204 0.198386 -1.56346 0
M  V30 1251 C 122.62 0.549085 -1.49857 0
M  V30 1252 C 122.82 1.86016 -0.774611 0
M  V30 1253 O 121.876 2.50416 -0.323776 0
M  V30 1254 C 123.189 0.606868 -2.94512 0
M  V30 1255 C 124.737 0.695925 -3.05165 0
M  V30 1256 C 125.212 0.784848 -4.51225 0
M  V30 1257 N 126.703 0.848463 -4.55363 0
M  V30 1258 C 127.438 0.937378 -5.65686 0
M  V30 1259 N 126.934 0.9888 -6.85707 0
M  V30 1260 N 128.727 0.974312 -5.53592 0
M  V30 1261 H 120.878 -0.661655 -2.01831 0
M  V30 1262 H 123.141 -0.235261 -0.918344 0
M  V30 1263 H 122.847 -0.28732 -3.50524 0
M  V30 1264 H 122.721 1.46268 -3.47686 0
M  V30 1265 H 125.108 1.58055 -2.49204 0
M  V30 1266 H 125.189 -0.186022 -2.55123 0
M  V30 1267 H 124.833 -0.0954072 -5.0781 0
M  V30 1268 H 124.763 1.68255 -4.98997 0
M  V30 1269 H 127.254 0.818103 -3.68938 0
M  V30 1270 H 127.567 1.05707 -7.65536 0
M  V30 1271 H 125.912 0.957534 -6.88372 0
M  V30 1272 H 129.103 0.930954 -4.58749 0
M  V30 1273 H 129.276 1.04015 -6.39597 0
M  V30 1274 N 122.682 1.50554 0.465978 0
M  V30 1275 C 123.928 1.63006 1.21658 0
M  V30 1276 C 124.283 0.328613 1.89573 0
M  V30 1277 O 123.576 -0.673813 1.79361 0
M  V30 1278 C 123.77 2.75152 2.28093 0
M  V30 1279 C 123.599 4.16075 1.7062 0
M  V30 1280 C 122.369 4.82408 1.50368 0
M  V30 1281 C 124.567 5.00145 1.1983 0
M  V30 1282 N 122.549 6.07532 0.881924 0
M  V30 1283 C 123.92 6.16035 0.700083 0
M  V30 1284 C 125.975 4.85882 1.08733 0
M  V30 1285 C 124.678 7.19228 0.101835 0
M  V30 1286 C 126.704 5.89257 0.503016 0
M  V30 1287 C 126.066 7.04398 0.0152005 0
M  V30 1288 H 122.165 0.650596 0.433877 0
M  V30 1289 H 124.749 1.8769 0.517746 0
M  V30 1290 H 122.92 2.52181 2.95397 0
M  V30 1291 H 124.652 2.76935 2.95109 0
M  V30 1292 H 121.407 4.39788 1.75737 0
M  V30 1293 H 121.831 6.7443 0.589312 0
M  V30 1294 H 126.473 3.97144 1.4504 0
M  V30 1295 H 124.191 8.07637 -0.273426 0
M  V30 1296 H 127.777 5.80286 0.419451 0
M  V30 1297 H 126.657 7.83021 -0.429856 0
M  V30 1298 N 124.16 -0.719506 1.40217 0
M  V30 1299 C 125.388 -1.50864 1.41589 0
M  V30 1300 C 125.803 -1.88794 0.0145275 0
M  V30 1301 O 125.16 -1.55174 -0.960594 0
M  V30 1302 C 125.211 -2.78646 2.30302 0
M  V30 1303 O 124.932 -2.42321 3.64983 0
M  V30 1304 C 126.433 -3.72569 2.40224 0
M  V30 1305 H 123.653 -0.465709 0.48307 0
M  V30 1306 H 126.197 -0.88785 1.84221 0
M  V30 1307 H 124.352 -3.37019 1.91042 0
M  V30 1308 H 124.766 -3.24514 4.12057 0
M  V30 1309 H 126.24 -4.5908 3.06512 0
M  V30 1310 H 126.717 -4.15403 1.42608 0
M  V30 1311 H 127.323 -3.20109 2.80019 0
M  V30 1312 N 125.638 -1.25649 -0.95132 0
M  V30 1313 C 126.886 -1.10375 -1.69298 0
M  V30 1314 C 127.207 0.355339 -1.91735 0
M  V30 1315 O 126.477 1.25188 -1.50681 0
M  V30 1316 H 125.057 -0.405461 -0.627384 0
M  V30 1317 H 127.719 -1.57823 -1.14358 0
M  V30 1318 H 126.815 -1.61465 -2.67087 0
M  V30 1319 N 127.117 1.15442 -1.07289 0
M  V30 1320 C 128.365 1.85845 -0.794096 0
M  V30 1321 C 128.686 1.82692 0.681809 0
M  V30 1322 O 127.956 1.26741 1.49377 0
M  V30 1323 H 126.536 0.688089 -0.290763 0
M  V30 1324 H 129.198 1.39947 -1.3565 0
M  V30 1325 H 128.294 2.91001 -1.12804 0
M  V30 1326 N 128.595 0.856903 1.32268 0
M  V30 1327 C 129.843 0.460474 1.96784 0
M  V30 1328 C 130.164 -0.987701 1.68135 0
M  V30 1329 O 129.434 -1.69058 0.989765 0
M  V30 1330 H 128.014 0.167289 0.728027 0
M  V30 1331 H 130.676 1.09383 1.61312 0
M  V30 1332 H 129.772 0.60739 3.06133 0
M  V30 1333 N 130.073 -1.45103 0.615059 0
M  V30 1334 C 131.02 -2.30586 -0.0993978 0
M  V30 1335 C 131.99 -1.42544 -0.852669 0
M  V30 1336 O 133.175 -1.71465 -0.836917 0
M  V30 1337 C 130.315 -3.27572 -1.08583 0
M  V30 1338 C 129.428 -4.30717 -0.332656 0
M  V30 1339 C 128.563 -5.14807 -1.30947 0
M  V30 1340 C 127.602 -6.09673 -0.544538 0
M  V30 1341 N 126.739 -6.86517 -1.47101 0
M  V30 1342 H 131.579 -2.91144 0.635542 0
M  V30 1343 H 129.116 -1.4346 0.325206 0
M  V30 1344 H 131.074 -3.82276 -1.67095 0
M  V30 1345 H 129.704 -2.68751 -1.78809 0
M  V30 1346 H 128.756 -3.78615 0.368107 0
M  V30 1347 H 130.068 -4.98102 0.263842 0
M  V30 1348 H 129.222 -5.73948 -1.96643 0
M  V30 1349 H 127.961 -4.47458 -1.9399 0
M  V30 1350 H 126.966 -5.49656 0.126003 0
M  V30 1351 H 128.191 -6.79052 0.080947 0
M  V30 1352 H 126.137 -6.21851 -2.08895 0
M  V30 1353 H 126.054 -7.50281 -0.928137 0
M  V30 1354 H 127.322 -7.50194 -2.11731 0
M  V30 1355 N 131.551 -0.354651 -1.53558 0
M  V30 1356 C 132.461 0.50515 -2.29097 0
M  V30 1357 C 133.477 1.10223 -1.34636 0
M  V30 1358 O 134.653 1.11553 -1.67684 0
M  V30 1359 C 131.718 1.63479 -3.05738 0
M  V30 1360 C 130.779 1.06636 -4.15845 0
M  V30 1361 C 130.012 2.14217 -4.88822 0
M  V30 1362 O 130.235 3.35137 -4.61562 0
M  V30 1363 O 129.169 1.77887 -5.75013 0
M  V30 1364 H 132.995 -0.109237 -3.03503 0
M  V30 1365 H 130.58 -0.119357 -1.48922 0
M  V30 1366 H 132.462 2.2918 -3.5363 0
M  V30 1367 H 131.137 2.23478 -2.34178 0
M  V30 1368 H 130.044 0.373565 -3.7223 0
M  V30 1369 H 131.377 0.511081 -4.89539 0
M  V30 1370 N 133.029 1.57378 -0.0835403 0
M  V30 1371 C 134.275 1.94217 0.583733 0
M  V30 1372 C 134.608 0.964653 1.68547 0
M  V30 1373 O 133.883 -0.00422258 1.945 0
M  V30 1374 C 134.166 3.41253 1.14972 0
M  V30 1375 C 134.019 4.49768 0.0538277 0
M  V30 1376 C 135.338 3.89352 2.05166 0
M  V30 1377 H 132.457 0.706233 0.210724 0
M  V30 1378 H 135.099 1.89392 -0.1519 0
M  V30 1379 H 133.249 3.45496 1.77665 0
M  V30 1380 H 134.921 4.57641 -0.579851 0
M  V30 1381 H 133.164 4.29432 -0.614068 0
M  V30 1382 H 133.835 5.49817 0.490452 0
M  V30 1383 H 136.311 3.87189 1.52393 0
M  V30 1384 H 135.187 4.92822 2.41698 0
M  V30 1385 H 135.448 3.27973 2.96456 0
M  V30 1386 N 134.507 -0.190092 1.56449 0
M  V30 1387 C 135.737 -0.92443 1.84764 0
M  V30 1388 C 136.145 -1.77146 0.664529 0
M  V30 1389 O 135.488 -1.79812 -0.375957 0
M  V30 1390 C 135.55 -1.86651 3.07248 0
M  V30 1391 C 135.214 -1.20094 4.40938 0
M  V30 1392 C 136.211 -0.575445 5.16706 0
M  V30 1393 C 133.896 -1.2033 4.87674 0
M  V30 1394 C 135.89 0.0388111 6.37388 0
M  V30 1395 C 133.577 -0.585214 6.08291 0
M  V30 1396 C 134.575 0.0347578 6.82991 0
M  V30 1397 O 134.263 0.643147 8.01323 0
M  V30 1398 H 133.995 -0.274974 0.617548 0
M  V30 1399 H 136.549 -0.200788 2.04416 0
M  V30 1400 H 134.779 -2.62998 2.83494 0
M  V30 1401 H 136.468 -2.46907 3.22167 0
M  V30 1402 H 137.234 -0.565728 4.81689 0
M  V30 1403 H 133.113 -1.67526 4.29484 0
M  V30 1404 H 136.657 0.523329 6.95634 0
M  V30 1405 H 132.554 -0.592451 6.42775 0
M  V30 1406 H 133.322 0.540545 8.16713 0
M  V30 1407 N 135.985 -1.50799 -0.457987 0
M  V30 1408 C 136.915 -1.73553 -1.5621 0
M  V30 1409 C 137.896 -0.584774 -1.59732 0
M  V30 1410 O 139.081 -0.825314 -1.7579 0
M  V30 1411 C 136.211 -1.84169 -2.94447 0
M  V30 1412 C 135.165 -2.99461 -3.0579 0
M  V30 1413 C 134.491 -2.95235 -4.45803 0
M  V30 1414 C 135.791 -4.39766 -2.81786 0
M  V30 1415 H 137.485 -2.66 -1.37421 0
M  V30 1416 H 135.031 -1.28002 -0.659662 0
M  V30 1417 H 136.984 -1.98672 -3.71628 0
M  V30 1418 H 135.708 -0.883545 -3.14422 0
M  V30 1419 H 134.367 -2.8463 -2.31044 0
M  V30 1420 H 134.015 -1.97239 -4.62715 0
M  V30 1421 H 133.715 -3.72642 -4.54326 0
M  V30 1422 H 135.239 -3.11803 -5.24987 0
M  V30 1423 H 136.653 -4.55054 -3.4871 0
M  V30 1424 H 135.05 -5.18722 -3.0174 0
M  V30 1425 H 136.12 -4.51229 -1.7754 0
M  V30 1426 N 137.463 0.71206 -1.40597 0
M  V30 1427 C 138.688 1.50617 -1.42581 0
M  V30 1428 C 139.113 1.88079 -0.0282102 0
M  V30 1429 O 138.471 1.53511 0.964579 0
M  V30 1430 C 138.519 2.7557 -2.3258 0
M  V30 1431 O 137.623 3.72414 -1.77148 0
M  V30 1432 H 136.964 0.453966 -0.484573 0
M  V30 1433 H 139.494 0.876649 -1.84868 0
M  V30 1434 H 139.504 3.2406 -2.47889 0
M  V30 1435 H 138.179 2.47639 -3.34138 0
M  V30 1436 H 136.756 3.31276 -1.71204 0
M  V30 1437 N 138.941 1.26152 0.944643 0
M  V30 1438 C 140.189 1.11271 1.6871 0
M  V30 1439 C 140.51 -0.345166 1.91921 0
M  V30 1440 O 139.78 -1.24387 1.51343 0
M  V30 1441 H 138.36 0.408783 0.625224 0
M  V30 1442 H 141.022 1.58427 1.1352 0
M  V30 1443 H 140.118 1.62879 2.66227 0
M  V30 1444 N 140.419 -1.14872 1.07899 0
M  V30 1445 C 141.644 -1.90202 0.826926 0
M  V30 1446 C 142.069 -1.77774 -0.614664 0
M  V30 1447 O 141.427 -1.11431 -1.43013 0
M  V30 1448 C 141.475 -3.38352 1.24702 0
M  V30 1449 O 140.579 -4.10497 0.39575 0
M  V30 1450 H 139.92 -0.591968 0.300782 0
M  V30 1451 H 142.45 -1.45437 1.43907 0
M  V30 1452 H 142.46 -3.89156 1.22563 0
M  V30 1453 H 141.135 -3.46715 2.29698 0
M  V30 1454 H 139.712 -3.69796 0.480117 0
M  V30 1455 N 141.898 -0.863906 -1.31812 0
M  V30 1456 C 143.145 -0.471836 -1.96926 0
M  V30 1457 C 143.473 0.974578 -1.68322 0
M  V30 1458 O 142.728 1.7003 -0.968933 0
M  V30 1459 C 143.027 -0.668547 -3.51091 0
M  V30 1460 C 142.693 -2.08683 -3.99703 0
M  V30 1461 C 141.355 -2.47471 -4.12688 0
M  V30 1462 C 143.707 -3.01207 -4.25351 0
M  V30 1463 C 141.035 -3.78037 -4.4867 0
M  V30 1464 C 143.387 -4.31282 -4.62794 0
M  V30 1465 C 142.051 -4.69992 -4.73987 0
M  V30 1466 H 141.321 -0.172657 -0.720604 0
M  V30 1467 H 143.968 -1.09573 -1.57054 0
M  V30 1468 H 142.273 0.0385252 -3.91781 0
M  V30 1469 H 143.97 -0.345102 -3.99512 0
M  V30 1470 H 140.56 -1.77566 -3.90087 0
M  V30 1471 H 144.744 -2.72469 -4.14819 0
M  V30 1472 H 140 -4.078 -4.55532 0
M  V30 1473 H 144.174 -5.03031 -4.81594 0
M  V30 1474 H 141.801 -5.71207 -5.01624 0
M  V30 1475 N 143.376 1.44774 -0.622745 0
M  V30 1476 C 144.324 2.32387 0.0994683 0
M  V30 1477 C 145.318 1.46859 0.844326 0
M  V30 1478 O 146.524 1.63254 0.758174 0
M  V30 1479 H 142.899 0.750273 0.0509291 0
M  V30 1480 H 144.87 2.91062 -0.65767 0
M  V30 1481 C 143.619 3.30723 1.07319 0
M  V30 1482 H 142.942 3.96541 0.509462 0
M  V30 1483 H 144.382 3.94725 1.54817 0
M  V30 1484 C 142.841 2.59021 2.15429 0
M  V30 1485 O 143.371 2.38286 3.23393 0
M  V30 1486 N 141.577 2.189 1.91131 0
M  V30 1487 H 141.124 2.35964 1.03337 0
M  V30 1488 H 141.082 1.71251 2.63668 0
M  V30 1489 N 144.854 0.36279 1.53368 0
M  V30 1490 C 145.802 -0.500155 2.27159 0
M  V30 1491 C 146.796 -1.08575 1.3003 0
M  V30 1492 O 148.002 -1.02927 1.47668 0
M  V30 1493 H 144.377 -0.180009 0.730138 0
M  V30 1494 H 146.348 0.14401 2.98052 0
M  V30 1495 C 145.097 -1.62937 3.07159 0
M  V30 1496 H 144.42 -1.18806 3.8174 0
M  V30 1497 H 145.86 -2.20795 3.61975 0
M  V30 1498 C 144.319 -2.57007 2.17829 0
M  V30 1499 O 144.849 -3.59752 1.78721 0
M  V30 1500 N 143.055 -2.26131 1.82518 0
M  V30 1501 H 142.602 -1.42616 2.14519 0
M  V30 1502 H 142.56 -2.89327 1.23034 0
M  V30 1503 N 146.332 -1.57332 0.0918853 0
M  V30 1504 C 147.578 -1.95328 -0.567313 0
M  V30 1505 C 147.933 -0.972866 -1.65991 0
M  V30 1506 O 147.226 0.00166256 -1.916 0
M  V30 1507 C 147.42 -3.37689 -1.17051 0
M  V30 1508 C 147.249 -4.49489 -0.137875 0
M  V30 1509 C 146.019 -5.04498 0.284515 0
M  V30 1510 C 148.217 -5.10393 0.63271 0
M  V30 1511 N 146.199 -5.99853 1.30576 0
M  V30 1512 C 147.57 -6.01435 1.50587 0
M  V30 1513 C 149.625 -4.93143 0.68658 0
M  V30 1514 C 148.328 -6.77077 2.42815 0
M  V30 1515 C 150.354 -5.69445 1.59645 0
M  V30 1516 C 149.716 -6.60151 2.45725 0
M  V30 1517 H 145.815 -0.761467 -0.178023 0
M  V30 1518 H 148.399 -1.93924 0.173706 0
M  V30 1519 H 146.57 -3.39793 -1.88136 0
M  V30 1520 H 148.302 -3.62872 -1.79181 0
M  V30 1521 H 145.057 -4.73489 -0.102593 0
M  V30 1522 H 145.481 -6.52231 1.81449 0
M  V30 1523 H 150.123 -4.22785 0.035244 0
M  V30 1524 H 147.841 -7.46699 3.08975 0
M  V30 1525 H 151.427 -5.58112 1.64323 0
M  V30 1526 H 150.307 -7.18159 3.14987 0
M  V30 1527 N 147.81 0.181792 -1.56548 0
M  V30 1528 C 149.035 0.920019 -1.85877 0
M  V30 1529 C 149.46 1.75494 -0.677021 0
M  V30 1530 O 148.818 1.77399 0.374056 0
M  V30 1531 C 148.866 1.78112 -3.13542 0
M  V30 1532 O 147.97 2.88152 -2.95029 0
M  V30 1533 H 147.311 0.258334 -0.611686 0
M  V30 1534 H 149.841 0.183092 -2.03779 0
M  V30 1535 H 149.851 2.18314 -3.44678 0
M  V30 1536 H 148.526 1.16777 -3.99169 0
M  V30 1537 H 147.103 2.51609 -2.75222 0
M  V30 1538 N 149.288 1.51039 0.449983 0
M  V30 1539 C 150.235 1.71439 1.54523 0
M  V30 1540 C 151.205 0.555871 1.56522 0
M  V30 1541 O 152.39 0.788871 1.73728 0
M  V30 1542 C 149.53 1.83384 2.92343 0
M  V30 1543 C 148.643 3.10873 2.9997 0
M  V30 1544 C 147.778 3.13488 4.28834 0
M  V30 1545 C 146.817 4.35343 4.30282 0
M  V30 1546 N 145.954 4.35579 5.5065 0
M  V30 1547 H 150.794 2.64934 1.36433 0
M  V30 1548 H 148.331 1.31312 0.662982 0
M  V30 1549 H 150.289 1.88291 3.72293 0
M  V30 1550 H 148.919 0.933086 3.0902 0
M  V30 1551 H 147.971 3.15336 2.12761 0
M  V30 1552 H 149.283 4.00814 2.96901 0
M  V30 1553 H 148.437 3.17241 5.17149 0
M  V30 1554 H 147.176 2.21414 4.34543 0
M  V30 1555 H 146.181 4.3178 3.40362 0
M  V30 1556 H 147.406 5.28668 4.26248 0
M  V30 1557 H 145.352 3.46369 5.57104 0
M  V30 1558 H 145.269 5.19313 5.49409 0
M  V30 1559 H 146.537 4.43507 6.41032 0
M  V30 1560 N 150.766 -0.704594 1.40972 0
M  V30 1561 C 151.696 -1.83124 1.44872 0
M  V30 1562 C 152.677 -1.67281 0.30838 0
M  V30 1563 O 153.862 -1.87149 0.518556 0
M  V30 1564 C 150.992 -3.21181 1.32136 0
M  V30 1565 C 149.946 -3.51714 2.43888 0
M  V30 1566 C 149.272 -4.89032 2.16222 0
M  V30 1567 C 150.572 -3.516 3.86232 0
M  V30 1568 H 152.266 -1.80117 2.39161 0
M  V30 1569 H 149.812 -0.865145 1.15114 0
M  V30 1570 H 151.765 -3.99702 1.33479 0
M  V30 1571 H 150.489 -3.24791 0.343279 0
M  V30 1572 H 149.148 -2.75539 2.41813 0
M  V30 1573 H 148.796 -4.89256 1.16778 0
M  V30 1574 H 148.496 -5.10426 2.911 0
M  V30 1575 H 150.02 -5.69873 2.19265 0
M  V30 1576 H 151.434 -4.2014 3.9007 0
M  V30 1577 H 149.831 -3.84523 4.60719 0
M  V30 1578 H 150.901 -2.50757 4.15029 0
M  V30 1579 N 152.244 -1.26651 -0.937939 0
M  V30 1580 C 153.655 -1.1125 -1.49934 0
M  V30 1581 C 154.006 0.306077 -1.93798 0
M  V30 1582 O 153.131 1.19792 -1.80219 0
M  V30 1583 C 153.726 -2.01339 -2.72485 0
M  V30 1584 C 152.285 -1.90074 -3.24883 0
M  V30 1585 C 151.432 -1.94498 -1.97651 0
M  V30 1586 H 154.383 -1.39693 -0.753091 0
M  V30 1587 H 154.404 -1.56319 -3.46907 0
M  V30 1588 H 153.916 -3.04577 -2.40529 0
M  V30 1589 H 152.017 -0.897827 -3.61621 0
M  V30 1590 H 152.13 -2.75778 -3.9177 0
M  V30 1591 H 150.494 -1.38591 -2.13693 0
M  V30 1592 H 151.277 -2.99372 -1.68022 0
M  V30 1593 N 153.722 1.14298 -1.08507 0
M  V30 1594 C 154.652 2.21542 -0.737646 0
M  V30 1595 C 155.633 1.67773 0.280377 0
M  V30 1596 O 156.818 1.93616 0.150521 0
M  V30 1597 C 153.948 3.46988 -0.147259 0
M  V30 1598 C 152.902 4.13789 -1.09374 0
M  V30 1599 C 152.228 5.33449 -0.365524 0
M  V30 1600 C 153.528 4.62208 -2.4323 0
M  V30 1601 H 155.222 2.5086 -1.6343 0
M  V30 1602 H 152.768 1.20576 -0.787243 0
M  V30 1603 H 154.721 4.21262 0.107808 0
M  V30 1604 H 153.445 3.17037 0.784538 0
M  V30 1605 H 152.104 3.4147 -1.33393 0
M  V30 1606 H 151.752 4.99759 0.57011 0
M  V30 1607 H 151.452 5.79088 -0.996512 0
M  V30 1608 H 152.976 6.10485 -0.118534 0
M  V30 1609 H 154.39 5.27952 -2.23472 0
M  V30 1610 H 152.787 5.18553 -3.02031 0
M  V30 1611 H 153.857 3.77224 -3.04681 0
M  V30 1612 N 155.201 0.870884 1.31352 0
M  V30 1613 C 156.429 0.49677 2.00848 0
M  V30 1614 C 156.844 -0.910998 1.65367 0
M  V30 1615 O 156.201 -1.59696 0.883374 0
M  V30 1616 C 156.252 0.645308 3.55694 0
M  V30 1617 O 155.973 1.99764 3.89905 0
M  V30 1618 C 157.474 0.272326 4.42463 0
M  V30 1619 H 154.694 0.193462 0.642506 0
M  V30 1620 H 157.238 1.1723 1.67563 0
M  V30 1621 H 155.393 0.0173176 3.87396 0
M  V30 1622 H 155.807 2.00607 4.84621 0
M  V30 1623 H 157.281 0.427208 5.50344 0
M  V30 1624 H 157.758 -0.788587 4.32062 0
M  V30 1625 H 158.364 0.876054 4.1618 0
M  V30 1626 N 156.679 -1.44442 0.630414 0
M  V30 1627 C 158.095 -1.56832 0.295973 0
M  V30 1628 C 158.295 -1.61806 -1.20088 0
M  V30 1629 O 157.351 -1.5607 -1.9849 0
M  V30 1630 C 158.664 -2.84031 0.987264 0
M  V30 1631 C 160.212 -2.97742 0.96534 0
M  V30 1632 C 160.687 -4.27743 1.63708 0
M  V30 1633 N 162.178 -4.34555 1.60364 0
M  V30 1634 C 162.913 -5.33862 2.09234 0
M  V30 1635 N 162.409 -6.39578 2.66292 0
M  V30 1636 N 164.202 -5.25366 1.99867 0
M  V30 1637 H 156.353 -1.39457 1.60205 0
M  V30 1638 H 158.616 -0.668237 0.672431 0
M  V30 1639 H 158.322 -2.86338 2.04215 0
M  V30 1640 H 158.196 -3.73534 0.524588 0
M  V30 1641 H 160.583 -2.94989 -0.0810639 0
M  V30 1642 H 160.664 -2.09589 1.4665 0
M  V30 1643 H 160.308 -4.31255 2.68293 0
M  V30 1644 H 160.238 -5.14752 1.11076 0
M  V30 1645 H 162.729 -3.58772 1.18705 0
M  V30 1646 H 163.042 -7.11637 3.01317 0
M  V30 1647 H 161.387 -6.40265 2.70343 0
M  V30 1648 H 164.578 -4.41688 1.55013 0
M  V30 1649 H 164.751 -6.02606 2.38265 0
M  V30 1650 N 158.157 -0.370918 -1.53173 0
M  V30 1651 C 159.382 0.220293 -2.06227 0
M  V30 1652 C 159.807 1.41243 -1.24225 0
M  V30 1653 O 159.165 1.79387 -0.262645 0
M  V30 1654 C 159.213 0.586663 -3.55796 0
M  V30 1655 O 158.317 1.68317 -3.76488 0
M  V30 1656 H 157.658 0.0308099 -0.663285 0
M  V30 1657 H 160.188 -0.533068 -1.97534 0
M  V30 1658 H 160.198 0.85617 -3.98916 0
M  V30 1659 H 158.873 -0.285013 -4.14922 0
M  V30 1660 H 157.45 1.40881 -3.45264 0
M  V30 1661 N 159.635 1.57281 -0.100228 0
M  V30 1662 C 160.585 2.10848 0.86759 0
M  V30 1663 C 161.569 1.02473 1.24049 0
M  V30 1664 O 162.761 1.28739 1.21471 0
M  V30 1665 C 159.89 2.69648 2.12474 0
M  V30 1666 C 158.976 3.85074 1.77704 0
M  V30 1667 N 159.367 4.92897 1.13518 0
M  V30 1668 C 157.665 3.94905 2.07282 0
M  V30 1669 C 158.366 5.73475 0.974735 0
M  V30 1670 N 157.342 5.22675 1.4937 0
M  V30 1671 H 161.144 2.91594 0.367471 0
M  V30 1672 H 158.658 1.62074 0.102829 0
M  V30 1673 H 160.655 3.06356 2.82757 0
M  V30 1674 H 159.315 1.90359 2.63047 0
M  V30 1675 H 160.326 5.11662 0.801381 0
M  V30 1676 H 157.003 3.26633 2.60033 0
M  V30 1677 H 158.393 6.70238 0.472364 0
M  V30 1678 N 161.113 -0.173488 1.56642 0
M  V30 1679 C 162.061 -1.23417 1.97157 0
M  V30 1680 C 163.055 -1.45946 0.860013 0
M  V30 1681 O 164.261 -1.46551 1.04512 0
M  V30 1682 H 160.636 -0.414818 0.62724 0
M  V30 1683 H 162.607 -0.865582 2.8557 0
M  V30 1684 C 161.356 -2.5665 2.34576 0
M  V30 1685 H 160.679 -2.40137 3.19647 0
M  V30 1686 H 162.119 -3.2956 2.6677 0
M  V30 1687 C 160.578 -3.15245 1.18836 0
M  V30 1688 O 161.108 -3.98883 0.474869 0
M  V30 1689 N 159.314 -2.74303 0.959497 0
M  V30 1690 H 158.861 -2.0639 1.54146 0
M  V30 1691 H 158.819 -3.13844 0.186932 0
M  V30 1692 N 162.591 -1.51276 -0.441967 0
M  V30 1693 C 163.539 -1.72823 -1.55676 0
M  V30 1694 C 164.533 -0.59445 -1.58627 0
M  V30 1695 O 165.739 -0.775715 -1.62427 0
M  V30 1696 H 162.114 -0.545983 -0.517113 0
M  V30 1697 H 164.085 -2.6628 -1.34675 0
M  V30 1698 C 162.834 -1.86619 -2.93375 0
M  V30 1699 H 162.157 -2.73264 -2.91834 0
M  V30 1700 H 163.597 -2.05709 -3.70756 0
M  V30 1701 C 162.056 -0.624842 -3.31055 0
M  V30 1702 O 162.586 0.222636 -4.01083 0
M  V30 1703 N 160.792 -0.470288 -2.86769 0
M  V30 1704 H 160.339 -1.161 -2.29953 0
M  V30 1705 H 160.297 0.359051 -3.12343 0
M  V30 1706 N 164.069 0.697108 -1.41344 0
M  V30 1707 C 165.316 1.45714 -1.40619 0
M  V30 1708 C 165.644 1.94494 -0.0147907 0
M  V30 1709 O 164.899 1.69794 0.973066 0
M  V30 1710 C 165.198 2.68553 -2.35826 0
M  V30 1711 C 164.864 2.38438 -3.82698 0
M  V30 1712 C 163.526 2.29936 -4.22709 0
M  V30 1713 C 165.878 2.13567 -4.75435 0
M  V30 1714 C 163.206 1.94656 -5.53467 0
M  V30 1715 C 165.558 1.79797 -6.06511 0
M  V30 1716 C 164.222 1.69789 -6.45545 0
M  V30 1717 H 163.492 0.533206 -0.51456 0
M  V30 1718 H 166.139 0.796901 -1.74131 0
M  V30 1719 H 164.444 3.39503 -1.95563 0
M  V30 1720 H 166.141 3.2669 -2.32539 0
M  V30 1721 H 162.731 2.4595 -3.51008 0
M  V30 1722 H 166.915 2.19082 -4.45328 0
M  V30 1723 H 162.171 1.8546 -5.82593 0
M  V30 1724 H 166.345 1.59572 -6.77872 0
M  V30 1725 H 163.972 1.4222 -7.46778 0
M  V30 1726 N 165.547 1.27147 0.931209 0
M  V30 1727 C 166.793 1.13446 1.68101 0
M  V30 1728 C 167.126 -0.319628 1.91552 0
M  V30 1729 O 166.401 -1.23407 1.50336 0
M  V30 1730 C 166.684 1.91482 3.0497 0
M  V30 1731 C 166.537 3.44855 2.88782 0
M  V30 1732 C 167.856 1.71651 4.05246 0
M  V30 1733 H 164.975 0.413498 0.610072 0
M  V30 1734 H 167.617 1.56261 1.08086 0
M  V30 1735 H 165.767 1.55095 3.56199 0
M  V30 1736 H 167.439 3.9105 2.44698 0
M  V30 1737 H 165.682 3.71373 2.24198 0
M  V30 1738 H 166.353 3.94694 3.85902 0
M  V30 1739 H 168.829 2.0337 3.63015 0
M  V30 1740 H 167.705 2.28651 4.99009 0
M  V30 1741 H 167.966 0.663555 4.37092 0
M  V30 1742 N 167.025 -1.13721 1.09112 0
M  V30 1743 C 167.988 -2.17222 0.731241 0
M  V30 1744 C 168.988 -1.59035 -0.237566 0
M  V30 1745 O 170.178 -1.74192 -0.0161704 0
M  V30 1746 C 167.31 -3.40804 0.0808443 0
M  V30 1747 H 168.503 -2.50573 1.64783 0
M  V30 1748 H 166.056 -1.28493 0.889897 0
M  V30 1749 H 166.791 -3.1304 -0.847127 0
M  V30 1750 H 166.576 -3.84306 0.777896 0
M  V30 1751 H 168.066 -4.1731 -0.155657 0
M  V30 1752 N 168.503 -0.877838 -1.30888 0
M  V30 1753 C 169.752 -0.488793 -1.95688 0
M  V30 1754 C 170.065 0.965485 -1.70111 0
M  V30 1755 O 171.271 1.46104 -2.28836 0
M  V30 1756 C 169.727 -0.823201 -3.50359 0
M  V30 1757 C 169.335 -2.29477 -3.84765 0
M  V30 1758 C 171.079 -0.503009 -4.21509 0
M  V30 1759 C 168.986 -2.57118 -5.32583 0
M  V30 1760 H 167.916 -0.179062 -0.732429 0
M  V30 1761 H 170.567 -1.07183 -1.48943 0
M  V30 1762 H 168.949 -0.169331 -3.95638 0
M  V30 1763 H 170.123 -2.99236 -3.5042 0
M  V30 1764 H 168.438 -2.58178 -3.267 0
M  V30 1765 H 171.035 -0.68665 -5.30273 0
M  V30 1766 H 171.378 0.557109 -4.12555 0
M  V30 1767 H 171.911 -1.11376 -3.8189 0
M  V30 1768 H 168.65 -3.61843 -5.4658 0
M  V30 1769 H 168.17 -1.91961 -5.68253 0
M  V30 1770 H 169.849 -2.42251 -5.99936 0
M  V30 1771 N 169.982 1.44106 -0.638065 0
M  V30 1772 C 170.912 2.33448 0.0494287 0
M  V30 1773 C 171.893 1.48606 0.827672 0
M  V30 1774 O 173.078 1.77308 0.792173 0
M  V30 1775 C 170.208 3.31771 1.02691 0
M  V30 1776 C 169.162 4.26485 0.359823 0
M  V30 1777 C 168.488 5.14729 1.44769 0
M  V30 1778 C 169.788 5.17056 -0.738296 0
M  V30 1779 H 171.482 2.91183 -0.696636 0
M  V30 1780 H 169.028 1.40014 -0.336456 0
M  V30 1781 H 170.981 3.93161 1.51666 0
M  V30 1782 H 169.705 2.7226 1.80395 0
M  V30 1783 H 168.364 3.66437 -0.10934 0
M  V30 1784 H 168.012 4.51566 2.21578 0
M  V30 1785 H 167.712 5.78913 1.00668 0
M  V30 1786 H 169.236 5.78991 1.93911 0
M  V30 1787 H 170.65 5.72342 -0.331354 0
M  V30 1788 H 169.047 5.89879 -1.10286 0
M  V30 1789 H 170.117 4.57652 -1.60258 0
M  V30 1790 N 171.46 0.379036 1.52974 0
M  V30 1791 C 172.737 -0.263479 1.93817 0
M  V30 1792 C 173.117 -1.65244 1.31368 0
M  V30 1793 O 172.465 -2.23448 0.477856 0
M  V30 1794 C 172.675 -0.300166 3.47707 0
M  V30 1795 C 174.023 -0.534061 4.21228 0
M  V30 1796 O 175.047 -0.38081 3.54159 0
M  V30 1797 O 173.906 -0.833501 5.40106 0
M  V30 1798 H 171 -0.161149 0.811147 0
M  V30 1799 H 173.546 0.432798 1.64088 0
M  V30 1800 H 172.318 0.673138 3.85467 0
M  V30 1801 H 171.941 -1.04179 3.83709 0
M  V30 1802 N 172.938 -1.57226 0.108567 0
M  V30 1803 C 173.868 -2.17778 -0.84232 0
M  V30 1804 C 174.849 -1.11487 -1.2847 0
M  V30 1805 O 176.034 -1.39681 -1.34918 0
M  V30 1806 C 173.164 -2.76888 -2.09644 0
M  V30 1807 C 172.118 -3.88669 -1.79221 0
M  V30 1808 C 171.444 -4.34541 -3.11574 0
M  V30 1809 C 172.744 -5.11251 -1.06864 0
M  V30 1810 H 174.438 -2.97489 -0.337774 0
M  V30 1811 H 171.984 -1.43097 -0.161025 0
M  V30 1812 H 173.937 -3.17904 -2.76614 0
M  V30 1813 H 172.661 -1.94451 -2.62405 0
M  V30 1814 H 171.32 -3.48213 -1.14644 0
M  V30 1815 H 170.968 -3.48977 -3.62249 0
M  V30 1816 H 170.668 -5.09914 -2.91996 0
M  V30 1817 H 172.192 -4.782 -3.7968 0
M  V30 1818 H 173.606 -5.49352 -1.63968 0
M  V30 1819 H 172.003 -5.9214 -0.974178 0
M  V30 1820 H 173.073 -4.8487 -0.0536168 0
M  V30 1821 N 174.416 0.165178 -1.56732 0
M  V30 1822 C 175.827 0.727046 -1.71962 0
M  V30 1823 C 176.178 1.82508 -0.720078 0
M  V30 1824 O 175.303 2.16082 0.117242 0
M  V30 1825 C 175.898 1.32559 -3.11791 0
M  V30 1826 C 174.457 1.83422 -3.28684 0
M  V30 1827 C 173.604 0.715567 -2.67908 0
M  V30 1828 H 176.555 -0.0602896 -1.58585 0
M  V30 1829 H 176.576 2.19533 -3.10782 0
M  V30 1830 H 176.088 0.526195 -3.84516 0
M  V30 1831 H 174.189 2.65986 -2.60926 0
M  V30 1832 H 174.302 1.97543 -4.36478 0
M  V30 1833 H 172.666 1.13758 -2.27884 0
M  V30 1834 H 173.449 -0.0720836 -3.43224 0
M  V30 1835 N 175.894 1.51508 0.433938 0
M  V30 1836 C 176.804 1.75917 1.5521 0
M  V30 1837 C 177.82 0.643545 1.61662 0
M  V30 1838 O 178.996 0.926183 1.7884 0
M  V30 1839 C 176.061 1.88213 2.91164 0
M  V30 1840 C 175.122 3.12074 2.94802 0
M  V30 1841 C 174.355 3.23774 4.24271 0
M  V30 1842 O 174.578 2.4133 5.16833 0
M  V30 1843 O 173.512 4.16774 4.34262 0
M  V30 1844 H 177.338 2.70777 1.37527 0
M  V30 1845 H 174.923 1.36051 0.617293 0
M  V30 1846 H 176.805 1.98267 3.71845 0
M  V30 1847 H 175.48 0.965413 3.08968 0
M  V30 1848 H 174.387 3.07497 2.13065 0
M  V30 1849 H 175.72 4.03446 2.81943 0
M  V30 1850 N 177.372 -0.689602 1.41712 0
M  V30 1851 C 178.62 -1.4468 1.4111 0
M  V30 1852 C 178.941 -1.94986 0.0232196 0
M  V30 1853 O 178.211 -1.72097 -0.935913 0
M  V30 1854 H 176.791 -0.536847 0.519427 0
M  V30 1855 H 179.453 -0.815825 1.77004 0
M  V30 1856 H 178.549 -2.30706 2.10193 0
M  V30 1857 N 178.85 -1.27639 -0.924453 0
M  V30 1858 C 179.76 -1.12466 -2.05885 0
M  V30 1859 C 180.776 -0.053869 -1.73917 0
M  V30 1860 O 181.952 -0.261012 -1.99702 0
M  V30 1861 C 179.017 -0.776768 -3.37886 0
M  V30 1862 C 178.078 -1.92878 -3.83532 0
M  V30 1863 C 177.311 -1.59739 -5.09234 0
M  V30 1864 O 177.534 -0.506782 -5.68144 0
M  V30 1865 O 176.468 -2.43761 -5.50331 0
M  V30 1866 H 180.294 -2.07671 -2.21599 0
M  V30 1867 H 177.879 -1.06857 -1.04413 0
M  V30 1868 H 179.761 -0.596229 -4.17161 0
M  V30 1869 H 178.436 0.145732 -3.23372 0
M  V30 1870 H 177.343 -2.1644 -3.0513 0
M  V30 1871 H 178.676 -2.8316 -4.02593 0
M  V30 1872 N 180.328 1.1314 -1.09713 0
M  V30 1873 C 181.278 2.16709 -0.708593 0
M  V30 1874 C 182.262 1.58471 0.278523 0
M  V30 1875 O 183.454 1.76779 0.088427 0
M  V30 1876 C 180.583 3.43039 -0.133923 0
M  V30 1877 C 179.669 4.08277 -1.14763 0
M  V30 1878 N 180.06 4.48637 -2.33577 0
M  V30 1879 C 178.358 4.34954 -0.986446 0
M  V30 1880 C 179.059 4.9952 -2.98085 0
M  V30 1881 N 178.035 4.94561 -2.25632 0
M  V30 1882 H 181.837 2.45672 -1.61315 0
M  V30 1883 H 179.351 1.29967 -0.973775 0
M  V30 1884 H 181.348 4.16583 0.162465 0
M  V30 1885 H 180.008 3.15549 0.765447 0
M  V30 1886 H 181.019 4.41246 -2.7115 0
M  V30 1887 H 177.696 4.17258 -0.142008 0
M  V30 1888 H 179.086 5.40521 -3.99108 0
M  V30 1889 N 181.806 0.884767 1.30421 0
M  V30 1890 C 182.738 0.308655 2.27112 0
M  V30 1891 C 183.751 -0.536655 1.53701 0
M  V30 1892 O 184.94 -0.35624 1.74909 0
M  V30 1893 C 182.04 -0.579782 3.33904 0
M  V30 1894 C 181.213 0.236417 4.36761 0
M  V30 1895 C 180.272 -0.582482 5.22966 0
M  V30 1896 O 179.298 -0.00525502 5.692 0
M  V30 1897 N 180.5 -1.89163 5.48815 0
M  V30 1898 H 183.265 1.13964 2.77186 0
M  V30 1899 H 180.826 0.747731 1.43599 0
M  V30 1900 H 182.818 -1.13366 3.88497 0
M  V30 1901 H 181.388 -1.31144 2.83761 0
M  V30 1902 H 180.608 0.97174 3.82035 0
M  V30 1903 H 181.896 0.795924 5.02536 0
M  V30 1904 H 181.294 -2.38352 5.13035 0
M  V30 1905 H 179.851 -2.39296 6.06284 0
M  V30 1906 N 183.284 -1.43765 0.645699 0
M  V30 1907 C 184.514 -2.05953 0.163318 0
M  V30 1908 C 184.922 -1.48432 -1.17322 0
M  V30 1909 O 184.265 -0.607295 -1.73371 0
M  V30 1910 C 184.327 -3.59499 -0.0103065 0
M  V30 1911 C 183.991 -4.39563 1.25035 0
M  V30 1912 C 184.988 -4.72108 2.17739 0
M  V30 1913 C 182.673 -4.79697 1.48983 0
M  V30 1914 C 184.667 -5.43688 3.3269 0
M  V30 1915 C 182.354 -5.51023 2.64229 0
M  V30 1916 C 183.352 -5.8294 3.55908 0
M  V30 1917 O 183.04 -6.5281 4.69142 0
M  V30 1918 H 182.772 -0.670798 0.0836986 0
M  V30 1919 H 185.326 -1.85384 0.884407 0
M  V30 1920 H 183.556 -3.78613 -0.78669 0
M  V30 1921 H 185.245 -4.03408 -0.449087 0
M  V30 1922 H 186.011 -4.41627 2.00476 0
M  V30 1923 H 181.89 -4.54266 0.785078 0
M  V30 1924 H 185.434 -5.68517 4.04269 0
M  V30 1925 H 181.331 -5.8092 2.81429 0
M  V30 1926 H 182.099 -6.71288 4.6831 0
M  V30 1927 N 184.763 -0.387143 -1.52771 0
M  V30 1928 C 185.71 0.449048 -2.26389 0
M  V30 1929 C 186.68 1.05961 -1.27912 0
M  V30 1930 O 187.865 1.08804 -1.56737 0
M  V30 1931 C 185.005 1.57155 -3.0724 0
M  V30 1932 C 184.118 0.984066 -4.20643 0
M  V30 1933 C 183.253 2.07745 -4.88892 0
M  V30 1934 C 182.292 1.46574 -5.94292 0
M  V30 1935 N 181.429 2.49834 -6.56146 0
M  V30 1936 H 186.269 -0.185205 -2.97424 0
M  V30 1937 H 183.806 -0.103164 -1.46738 0
M  V30 1938 H 185.764 2.23309 -3.52405 0
M  V30 1939 H 184.394 2.17615 -2.38419 0
M  V30 1940 H 183.446 0.212193 -3.79808 0
M  V30 1941 H 184.758 0.497029 -4.96318 0
M  V30 1942 H 183.912 2.81673 -5.3735 0
M  V30 1943 H 182.651 2.59807 -4.12737 0
M  V30 1944 H 181.656 0.711696 -5.45174 0
M  V30 1945 H 182.881 0.953088 -6.72379 0
M  V30 1946 H 180.827 3.0107 -5.82832 0
M  V30 1947 H 180.744 2.05879 -7.27427 0
M  V30 1948 H 182.012 3.23399 -7.09249 0
M  V30 1949 N 186.241 1.57166 -0.116904 0
M  V30 1950 C 187.488 1.95123 0.541603 0
M  V30 1951 C 187.816 1.00006 1.6682 0
M  V30 1952 O 187.071 0.0235658 1.95686 0
M  V30 1953 C 187.37 3.39508 1.11664 0
M  V30 1954 C 187.036 4.50762 0.111606 0
M  V30 1955 C 185.698 4.80918 -0.164758 0
M  V30 1956 C 188.05 5.18036 -0.573438 0
M  V30 1957 C 185.378 5.75666 -1.13249 0
M  V30 1958 C 187.73 6.13824 -1.52978 0
M  V30 1959 C 186.394 6.42374 -1.81415 0
M  V30 1960 H 185.664 0.714005 0.198187 0
M  V30 1961 H 188.311 1.9048 -0.197365 0
M  V30 1962 H 186.616 3.40835 1.93232 0
M  V30 1963 H 188.313 3.66189 1.63422 0
M  V30 1964 H 184.903 4.27272 0.337192 0
M  V30 1965 H 189.087 4.94896 -0.373092 0
M  V30 1966 H 184.343 5.96092 -1.35958 0
M  V30 1967 H 188.517 6.65039 -2.06629 0
M  V30 1968 H 186.144 7.15599 -2.56557 0
M  V30 1969 N 187.719 -0.156864 1.56817 0
M  V30 1970 C 188.966 -0.871125 1.82805 0
M  V30 1971 C 189.294 -1.81611 0.696262 0
M  V30 1972 O 188.549 -1.93141 -0.315459 0
M  V30 1973 C 188.848 -1.68737 3.1506 0
M  V30 1974 C 188.514 -0.890045 4.42028 0
M  V30 1975 C 187.176 -0.670042 4.76512 0
M  V30 1976 C 189.528 -0.331769 5.20143 0
M  V30 1977 C 186.856 0.119104 5.86579 0
M  V30 1978 C 189.208 0.444365 6.31037 0
M  V30 1979 C 187.872 0.675035 6.64078 0
M  V30 1980 H 187.142 -0.318767 0.668931 0
M  V30 1981 H 189.789 -0.135274 1.91022 0
M  V30 1982 H 188.094 -2.49304 3.0225 0
M  V30 1983 H 189.791 -2.24331 3.3238 0
M  V30 1984 H 186.381 -1.07157 4.14988 0
M  V30 1985 H 190.565 -0.489043 4.93885 0
M  V30 1986 H 185.821 0.307417 6.10627 0
M  V30 1987 H 189.995 0.884139 6.90765 0
M  V30 1988 H 187.622 1.28839 7.49203 0
M  V30 1989 N 189.197 -1.51736 -0.425897 0
M  V30 1990 C 190.443 -1.65214 -1.1761 0
M  V30 1991 C 190.776 -0.372778 -1.90589 0
M  V30 1992 O 190.051 0.628139 -1.84078 0
M  V30 1993 C 190.334 -2.86312 -2.18398 0
M  V30 1994 C 190.187 -4.24254 -1.49426 0
M  V30 1995 C 191.506 -3.02925 -3.19256 0
M  V30 1996 H 188.625 -0.601263 -0.426206 0
M  V30 1997 H 191.267 -1.8425 -0.463882 0
M  V30 1998 H 189.417 -2.70213 -2.79137 0
M  V30 1999 H 191.089 -4.52046 -0.919362 0
M  V30 2000 H 189.332 -4.26426 -0.796432 0
M  V30 2001 H 190.003 -5.05001 -2.22885 0
M  V30 2002 H 192.479 -3.1781 -2.68581 0
M  V30 2003 H 191.355 -3.89199 -3.8706 0
M  V30 2004 H 191.616 -2.15497 -3.86023 0
M  V30 2005 N 190.675 0.682077 -1.42076 0
M  V30 2006 C 191.952 1.43755 -1.32642 0
M  V30 2007 C 192.332 2.11063 0.0396611 0
M  V30 2008 O 191.68 2.02701 1.05474 0
M  V30 2009 C 191.89 2.44596 -2.48946 0
M  V30 2010 C 193.238 3.09454 -2.9073 0
M  V30 2011 O 194.262 2.54922 -2.48783 0
M  V30 2012 O 193.121 4.08253 -3.63307 0
M  V30 2013 H 190.215 0.640857 -0.522715 0
M  V30 2014 H 192.761 0.711415 -1.54068 0
M  V30 2015 H 191.533 1.93609 -3.40046 0
M  V30 2016 H 191.156 3.24701 -2.29467 0
M  V30 2017 N 192.153 1.28127 0.917671 0
M  V30 2018 C 193.401 1.14825 1.66312 0
M  V30 2019 C 193.722 -0.304379 1.9261 0
M  V30 2020 O 192.992 -1.21149 1.53947 0
M  V30 2021 H 191.572 0.421953 0.616413 0
M  V30 2022 H 194.234 1.608 1.10134 0
M  V30 2023 H 193.33 1.68489 2.62712 0
M  V30 2024 N 193.631 -1.12557 1.10312 0
M  V30 2025 C 194.563 -2.17971 0.708625 0
M  V30 2026 C 195.576 -1.60806 -0.254027 0
M  V30 2027 O 196.765 -1.78458 -0.0386891 0
M  V30 2028 C 193.865 -3.38891 0.0248198 0
M  V30 2029 C 193.038 -4.25548 1.01132 0
M  V30 2030 C 192.097 -5.24972 0.35924 0
M  V30 2031 O 191.123 -5.60174 1.00965 0
M  V30 2032 N 192.325 -5.73747 -0.882847 0
M  V30 2033 H 195.09 -2.52427 1.61557 0
M  V30 2034 H 192.651 -1.27967 0.991771 0
M  V30 2035 H 194.643 -4.02485 -0.422852 0
M  V30 2036 H 193.213 -3.02596 -0.784514 0
M  V30 2037 H 192.433 -3.58589 1.6373 0
M  V30 2038 H 193.721 -4.80294 1.67914 0
M  V30 2039 H 193.119 -5.4731 -1.43065 0
M  V30 2040 H 191.676 -6.39234 -1.27369 0
M  V30 2041 N 195.109 -0.891671 -1.2995 0
M  V30 2042 C 196.355 -0.523649 -1.96544 0
M  V30 2043 C 196.71 0.918394 -1.69066 0
M  V30 2044 O 196.003 1.64122 -0.988659 0
M  V30 2045 C 196.197 -0.742868 -3.49594 0
M  V30 2046 C 196.026 -2.20467 -3.9195 0
M  V30 2047 C 194.796 -2.85055 -4.17219 0
M  V30 2048 C 196.994 -3.17912 -4.04273 0
M  V30 2049 N 194.976 -4.21762 -4.46083 0
M  V30 2050 C 196.347 -4.39712 -4.37097 0
M  V30 2051 C 198.402 -3.1361 -3.86721 0
M  V30 2052 C 197.105 -5.5776 -4.54199 0
M  V30 2053 C 199.131 -4.30936 -4.05028 0
M  V30 2054 C 198.493 -5.51504 -4.38204 0
M  V30 2055 H 194.592 -0.241072 -0.743914 0
M  V30 2056 H 197.176 -1.15081 -1.5705 0
M  V30 2057 H 195.347 -0.14515 -3.88129 0
M  V30 2058 H 197.079 -0.341081 -4.0326 0
M  V30 2059 H 193.834 -2.35889 -4.10674 0
M  V30 2060 H 194.258 -4.92382 -4.64638 0
M  V30 2061 H 198.9 -2.21489 -3.60142 0
M  V30 2062 H 196.618 -6.50379 -4.79618 0
M  V30 2063 H 200.204 -4.29085 -3.92909 0
M  V30 2064 H 199.084 -6.40778 -4.52077 0
M  V30 2065 N 196.587 1.43421 -0.653314 0
M  V30 2066 C 197.815 2.06163 -0.174491 0
M  V30 2067 C 198.23 1.48969 1.1599 0
M  V30 2068 O 197.587 0.621042 1.71608 0
M  V30 2069 C 197.638 3.61417 -0.0774865 0
M  V30 2070 O 197.359 4.16485 -1.35912 0
M  V30 2071 C 198.86 4.41235 0.427402 0
M  V30 2072 H 196.08 0.664946 -0.0899353 0
M  V30 2073 H 198.624 1.83924 -0.893988 0
M  V30 2074 H 196.779 3.82841 0.59257 0
M  V30 2075 H 197.193 5.10153 -1.21839 0
M  V30 2076 H 198.667 5.5021 0.44423 0
M  V30 2077 H 199.144 4.14268 1.45873 0
M  V30 2078 H 199.75 4.2478 -0.210167 0
M  V30 2079 N 198.065 0.39524 1.52563 0
M  V30 2080 C 199.015 -0.4541 2.23432 0
M  V30 2081 C 199.999 -1.02482 1.24042 0
M  V30 2082 O 201.191 -0.949938 1.49349 0
M  V30 2083 C 198.32 -1.57769 3.049 0
M  V30 2084 C 197.406 -1.01842 4.1169 0
M  V30 2085 N 197.797 -0.184613 5.05463 0
M  V30 2086 C 196.095 -1.29033 4.26927 0
M  V30 2087 C 196.796 0.125013 5.81566 0
M  V30 2088 N 195.772 -0.480498 5.41472 0
M  V30 2089 H 199.574 0.189413 2.93289 0
M  V30 2090 H 197.088 0.204877 1.61102 0
M  V30 2091 H 199.085 -2.19862 3.54212 0
M  V30 2092 H 197.745 -2.22397 2.36579 0
M  V30 2093 H 198.756 0.178602 5.17592 0
M  V30 2094 H 195.433 -1.93721 3.69836 0
M  V30 2095 H 196.823 0.800962 6.67109 0
M  V30 2096 N 199.544 -1.57102 0.125237 0
M  V30 2097 C 200.821 -1.86953 -0.575142 0
M  V30 2098 C 201.201 -1.02749 -1.84407 0
M  V30 2099 O 200.549 -0.108144 -2.28244 0
M  V30 2100 C 200.759 -3.38198 -0.861583 0
M  V30 2101 C 202.107 -4.06937 -1.21192 0
M  V30 2102 O 203.131 -3.43252 -0.951645 0
M  V30 2103 O 201.99 -5.19364 -1.70068 0
M  V30 2104 H 199.084 -0.774147 -0.290906 0
M  V30 2105 H 201.63 -1.68942 0.160211 0
M  V30 2106 H 200.402 -3.91282 0.0373647 0
M  V30 2107 H 200.025 -3.61661 -1.65188 0
M  V30 2108 N 201.022 0.148545 -1.56898 0
M  V30 2109 C 202.433 0.708766 -1.72723 0
M  V30 2110 C 202.784 1.81734 -0.739395 0
M  V30 2111 O 201.909 2.16194 0.0943169 0
M  V30 2112 C 202.504 1.29245 -3.13179 0
M  V30 2113 C 201.063 1.79925 -3.30611 0
M  V30 2114 C 200.21 0.687111 -2.68652 0
M  V30 2115 H 203.161 -0.0771063 -1.58513 0
M  V30 2116 H 203.182 2.16224 -3.13093 0
M  V30 2117 H 202.694 0.485382 -3.85053 0
M  V30 2118 H 200.795 2.63203 -2.63732 0
M  V30 2119 H 200.908 1.92903 -4.38549 0
M  V30 2120 H 199.272 1.11335 -2.29078 0
M  V30 2121 H 200.055 -0.108483 -3.43129 0
M  V30 2122 N 202.5 1.5196 0.417844 0
M  V30 2123 C 203.725 1.69717 1.1921 0
M  V30 2124 C 204.15 0.402148 1.83751 0
M  V30 2125 O 203.508 -0.639593 1.69643 0
M  V30 2126 C 203.556 2.82794 2.2374 0
M  V30 2127 O 202.66 2.47756 3.29683 0
M  V30 2128 H 202.001 0.565263 0.348387 0
M  V30 2129 H 204.531 1.98621 0.490985 0
M  V30 2130 H 204.541 3.07452 2.68212 0
M  V30 2131 H 203.216 3.76756 1.76146 0
M  V30 2132 H 201.793 2.33739 2.90552 0
M  V30 2133 N 203.978 -0.674533 1.42435 0
M  V30 2134 C 204.888 -1.81751 1.48337 0
M  V30 2135 C 205.904 -1.69975 0.372099 0
M  V30 2136 O 207.08 -1.91521 0.62304 0
M  V30 2137 C 204.145 -3.17895 1.38361 0
M  V30 2138 C 203.206 -3.41625 2.59982 0
M  V30 2139 C 202.439 -4.71274 2.50473 0
M  V30 2140 O 202.662 -5.49197 1.54075 0
M  V30 2141 O 201.596 -4.96254 3.4061 0
M  V30 2142 H 205.422 -1.79728 2.44809 0
M  V30 2143 H 203.007 -0.830312 1.24202 0
M  V30 2144 H 204.889 -3.99136 1.35161 0
M  V30 2145 H 203.564 -3.20555 0.450144 0
M  V30 2146 H 202.471 -2.60231 2.68757 0
M  V30 2147 H 203.804 -3.43796 3.52229 0
M  V30 2148 N 205.456 -1.28612 -0.910864 0
M  V30 2149 C 206.867 -1.14406 -1.47541 0
M  V30 2150 C 207.218 0.264901 -1.94403 0
M  V30 2151 O 206.343 1.15942 -1.82719 0
M  V30 2152 C 206.938 -2.07073 -2.68153 0
M  V30 2153 C 205.497 -1.96923 -3.20778 0
M  V30 2154 C 204.644 -1.98646 -1.93481 0
M  V30 2155 H 207.595 -1.41259 -0.723291 0
M  V30 2156 H 207.616 -1.63642 -3.43514 0
M  V30 2157 H 207.128 -3.09611 -2.34015 0
M  V30 2158 H 205.229 -0.97433 -3.59635 0
M  V30 2159 H 205.342 -2.84026 -3.85832 0
M  V30 2160 H 203.706 -1.43093 -2.10705 0
M  V30 2161 H 204.489 -3.02868 -1.61634 0
M  V30 2162 N 206.934 1.1197 -1.10907 0
M  V30 2163 C 208.183 1.82947 -0.849302 0
M  V30 2164 C 208.496 1.85275 0.627112 0
M  V30 2165 O 209.702 2.52296 1.00295 0
M  V30 2166 C 208.158 3.28529 -1.46959 0
M  V30 2167 C 207.766 3.34546 -2.97965 0
M  V30 2168 C 209.51 4.04443 -1.28942 0
M  V30 2169 C 207.417 4.74491 -3.53004 0
M  V30 2170 H 206.347 0.685477 -0.314065 0
M  V30 2171 H 208.998 1.2604 -1.33365 0
M  V30 2172 H 207.38 3.85333 -0.912917 0
M  V30 2173 H 208.554 2.87654 -3.59989 0
M  V30 2174 H 206.869 2.72108 -3.15192 0
M  V30 2175 H 209.466 5.07787 -1.67502 0
M  V30 2176 H 209.809 4.15656 -0.231456 0
M  V30 2177 H 210.342 3.5401 -1.81443 0
M  V30 2178 H 207.081 4.68474 -4.58489 0
M  V30 2179 H 206.601 5.21816 -2.9575 0
M  V30 2180 H 208.28 5.4344 -3.51115 0
M  V30 2181 N 208.412 0.89855 1.29475 0
M  V30 2182 C 209.658 0.524658 1.95896 0
M  V30 2183 C 209.991 -0.926468 1.70676 0
M  V30 2184 O 209.266 -1.65665 1.01908 0
M  V30 2185 C 209.549 0.81633 3.50725 0
M  V30 2186 C 209.402 2.31907 3.85408 0
M  V30 2187 C 210.721 0.302038 4.39062 0
M  V30 2188 H 207.84 0.19209 0.711527 0
M  V30 2189 H 210.482 1.12502 1.53112 0
M  V30 2190 H 208.632 0.305369 3.87298 0
M  V30 2191 H 210.304 2.89949 3.58786 0
M  V30 2192 H 208.547 2.78027 3.32992 0
M  V30 2193 H 209.218 2.47373 4.93468 0
M  V30 2194 H 211.694 0.739551 4.09475 0
M  V30 2195 H 210.57 0.535331 5.46283 0
M  V30 2196 H 210.831 -0.797216 4.34853 0
M  V30 2197 N 209.89 -1.43072 0.660911 0
M  V30 2198 C 211.118 -2.06067 0.185422 0
M  V30 2199 C 211.533 -1.49582 -1.15198 0
M  V30 2200 O 210.89 -0.630134 -1.71276 0
M  V30 2201 C 210.941 -3.61371 0.0966523 0
M  V30 2202 O 210.662 -4.15758 1.38119 0
M  V30 2203 C 212.163 -4.41455 -0.403996 0
M  V30 2204 H 209.383 -0.664459 0.0934604 0
M  V30 2205 H 211.927 -1.83447 0.90373 0
M  V30 2206 H 210.082 -3.8315 -0.572259 0
M  V30 2207 H 210.496 -5.09499 1.24542 0
M  V30 2208 H 211.97 -5.50437 -0.415045 0
M  V30 2209 H 212.447 -4.15036 -1.43674 0
M  V30 2210 H 213.053 -4.24663 0.232691 0
M  V30 2211 N 211.368 -0.403325 -1.52352 0
M  V30 2212 C 212.593 0.176499 -2.06648 0
M  V30 2213 C 213.018 1.38577 -1.27193 0
M  V30 2214 O 212.376 1.7879 -0.300637 0
M  V30 2215 C 212.424 0.511061 -3.5696 0
M  V30 2216 O 211.528 1.60294 -3.79973 0
M  V30 2217 H 210.869 0.0167337 -0.663789 0
M  V30 2218 H 213.399 -0.574848 -1.96359 0
M  V30 2219 H 213.409 0.771362 -4.00642 0
M  V30 2220 H 212.084 -0.37296 -4.14224 0
M  V30 2221 H 210.661 1.33526 -3.48174 0
M  V30 2222 N 212.846 1.57033 -0.133567 0
M  V30 2223 C 213.778 2.13176 0.841944 0
M  V30 2224 C 214.791 1.07794 1.22001 0
M  V30 2225 O 215.98 1.35117 1.16643 0
M  V30 2226 C 213.08 2.62847 2.13926 0
M  V30 2227 C 212.253 3.92486 1.93064 0
M  V30 2228 C 211.312 4.27605 3.0666 0
M  V30 2229 O 210.338 4.96168 2.78937 0
M  V30 2230 N 211.54 3.861 4.33483 0
M  V30 2231 H 214.305 2.97503 0.362192 0
M  V30 2232 H 211.866 1.61821 0.05042 0
M  V30 2233 H 213.858 2.83363 2.88942 0
M  V30 2234 H 212.428 1.83319 2.53205 0
M  V30 2235 H 211.648 3.80732 1.02159 0
M  V30 2236 H 212.936 4.77225 1.76447 0
M  V30 2237 H 212.334 3.30828 4.58878 0
M  V30 2238 H 210.891 4.11694 5.05323 0
M  V30 2239 N 214.325 -0.140222 1.56975 0
M  V30 2240 C 215.255 -1.17456 2.01808 0
M  V30 2241 C 216.236 -1.44415 0.898794 0
M  V30 2242 O 217.421 -1.5522 1.16707 0
M  V30 2243 C 214.551 -2.50607 2.40444 0
M  V30 2244 C 213.505 -2.38155 3.55621 0
M  V30 2245 C 212.831 -3.76078 3.80091 0
M  V30 2246 C 214.131 -1.85991 4.88062 0
M  V30 2247 H 215.825 -0.801743 2.88466 0
M  V30 2248 H 213.371 -0.38422 1.38779 0
M  V30 2249 H 215.324 -3.23197 2.7041 0
M  V30 2250 H 214.048 -2.89737 1.50732 0
M  V30 2251 H 212.707 -1.68016 3.25832 0
M  V30 2252 H 212.355 -4.12656 2.87618 0
M  V30 2253 H 212.055 -3.68606 4.57606 0
M  V30 2254 H 213.579 -4.50206 4.12488 0
M  V30 2255 H 214.993 -2.4838 5.16701 0
M  V30 2256 H 213.39 -1.89393 5.6943 0
M  V30 2257 H 214.46 -0.816023 4.77984 0
M  V30 2258 N 215.803 -1.52179 -0.40978 0
M  V30 2259 C 217.051 -1.65878 -1.15451 0
M  V30 2260 C 217.372 -0.390771 -1.91044 0
M  V30 2261 O 216.642 0.594323 -1.86667 0
M  V30 2262 H 215.222 -0.611405 -0.429177 0
M  V30 2263 H 217.884 -1.89219 -0.467134 0
M  V30 2264 H 216.98 -2.49954 -1.86894 0
M  V30 2265 N 217.281 0.66697 -1.42791 0
M  V30 2266 C 218.509 1.45505 -1.47091 0
M  V30 2267 C 218.924 1.8861 -0.0845873 0
M  V30 2268 O 218.281 1.58632 0.90234 0
M  V30 2269 C 218.332 2.69906 -2.40485 0
M  V30 2270 O 218.053 2.28608 -3.73725 0
M  V30 2271 C 219.554 3.63396 -2.53886 0
M  V30 2272 H 216.774 0.447459 -0.500022 0
M  V30 2273 H 219.318 0.818866 -1.8739 0
M  V30 2274 H 217.473 3.29696 -2.03419 0
M  V30 2275 H 217.887 3.08997 -4.23817 0
M  V30 2276 H 219.361 4.47387 -3.2334 0
M  V30 2277 H 219.838 4.09824 -1.57927 0
M  V30 2278 H 220.444 3.09495 -2.91706 0
M  V30 2279 N 218.759 1.29093 0.90403 0
M  V30 2280 C 220.005 1.16986 1.65656 0
M  V30 2281 C 220.338 -0.278925 1.92186 0
M  V30 2282 O 219.613 -1.2019 1.5292 0
M  V30 2283 C 219.896 1.97908 3.0084 0
M  V30 2284 C 219.749 3.50903 2.81403 0
M  V30 2285 C 221.068 1.80208 4.01513 0
M  V30 2286 H 218.187 0.426346 0.601164 0
M  V30 2287 H 220.829 1.58518 1.04747 0
M  V30 2288 H 218.979 1.62616 3.52829 0
M  V30 2289 H 220.651 3.96153 2.36348 0
M  V30 2290 H 218.894 3.76045 2.1627 0
M  V30 2291 H 219.565 4.02791 3.77443 0
M  V30 2292 H 222.041 2.11025 3.58619 0
M  V30 2293 H 220.917 2.39184 4.94047 0
M  V30 2294 H 221.178 0.756119 4.35586 0
M  V30 2295 N 220.237 -1.11381 1.11499 0
M  V30 2296 C 221.185 -2.19522 0.768956 0
M  V30 2297 C 222.179 -1.67693 -0.239857 0
M  V30 2298 O 223.385 -1.79727 -0.0990755 0
M  V30 2299 H 219.76 -0.715711 0.230786 0
M  V30 2300 H 221.731 -2.45954 1.68964 0
M  V30 2301 C 220.48 -3.46945 0.229073 0
M  V30 2302 H 219.803 -3.8718 0.996596 0
M  V30 2303 H 221.243 -4.23993 0.0251441 0
M  V30 2304 C 219.702 -3.2042 -1.04079 0
M  V30 2305 O 220.232 -3.41178 -2.12038 0
M  V30 2306 N 218.438 -2.74151 -0.963823 0
M  V30 2307 H 217.985 -2.57459 -0.0851722 0
M  V30 2308 H 217.943 -2.56781 -1.81414 0
M  V30 2309 N 221.715 -0.905404 -1.28997 0
M  V30 2310 C 222.663 -0.377431 -2.29517 0
M  V30 2311 C 223.657 0.526461 -1.61012 0
M  V30 2312 O 224.863 0.40863 -1.753 0
M  V30 2313 H 221.238 -0.103437 -0.744852 0
M  V30 2314 H 223.209 -1.23848 -2.71485 0
M  V30 2315 C 221.958 0.374833 -3.45674 0
M  V30 2316 H 221.281 -0.311474 -3.98585 0
M  V30 2317 H 222.721 0.70903 -4.1803 0
M  V30 2318 C 221.18 1.57963 -2.97572 0
M  V30 2319 O 221.71 2.67886 -2.99333 0
M  V30 2320 N 219.916 1.42375 -2.53333 0
M  V30 2321 H 219.463 0.529466 -2.521 0
M  V30 2322 H 219.421 2.23117 -2.21509 0
M  V30 2323 N 223.193 1.4272 -0.668489 0
M  V30 2324 C 224.442 2.00846 -0.185389 0
M  V30 2325 C 224.755 1.53442 1.21305 0
M  V30 2326 O 225.961 2.03944 1.79218 0
M  V30 2327 C 224.417 3.58805 -0.280591 0
M  V30 2328 C 224.025 4.15198 -1.68268 0
M  V30 2329 C 225.769 4.24255 0.14412 0
M  V30 2330 C 223.676 5.655 -1.73099 0
M  V30 2331 H 222.606 0.751145 -0.0655475 0
M  V30 2332 H 225.257 1.63516 -0.832752 0
M  V30 2333 H 223.639 3.93608 0.434553 0
M  V30 2334 H 224.813 3.91866 -2.42441 0
M  V30 2335 H 223.128 3.62176 -2.05469 0
M  V30 2336 H 225.725 5.34547 0.128086 0
M  V30 2337 H 226.068 3.99277 1.17827 0
M  V30 2338 H 226.601 3.94389 -0.519798 0
M  V30 2339 H 223.34 5.95268 -2.74475 0
M  V30 2340 H 222.86 5.90842 -1.03274 0
M  V30 2341 H 224.539 6.29808 -1.48158 0
M  V30 2342 N 224.671 0.411399 1.52136 0
M  V30 2343 C 225.92 -0.165009 2.01024 0
M  V30 2344 C 226.233 -1.4603 1.30133 0
M  V30 2345 O 227.439 -2.1181 1.69849 0
M  V30 2346 C 225.895 -0.344618 3.58246 0
M  V30 2347 C 225.503 0.938716 4.38055 0
M  V30 2348 C 227.247 -0.876195 4.15359 0
M  V30 2349 C 225.154 0.726172 5.86925 0
M  V30 2350 H 224.084 -0.0654407 0.751155 0
M  V30 2351 H 226.735 0.537192 1.75461 0
M  V30 2352 H 225.117 -1.10921 3.80148 0
M  V30 2353 H 226.291 1.70963 4.27912 0
M  V30 2354 H 224.606 1.39688 3.92271 0
M  V30 2355 H 227.203 -1.05128 5.24263 0
M  V30 2356 H 227.546 -1.85152 3.7286 0
M  V30 2357 H 228.079 -0.170607 3.97434 0
M  V30 2358 H 224.818 1.67312 6.33788 0
M  V30 2359 H 224.338 -0.00540283 5.998 0
M  V30 2360 H 226.017 0.369231 6.45946 0
M  V30 2361 N 226.149 -1.5696 0.141893 0
M  V30 2362 C 227.081 -2.13619 -0.830627 0
M  V30 2363 C 228.094 -1.08439 -1.21428 0
M  V30 2364 O 229.283 -1.35734 -1.15925 0
M  V30 2365 C 226.383 -2.63978 -2.12529 0
M  V30 2366 C 225.556 -3.93504 -1.9098 0
M  V30 2367 C 224.615 -4.29225 -3.04388 0
M  V30 2368 O 223.641 -4.97641 -2.76302 0
M  V30 2369 N 224.843 -3.88393 -4.31429 0
M  V30 2370 H 227.608 -2.97691 -0.34641 0
M  V30 2371 H 225.169 -1.61846 -0.0418375 0
M  V30 2372 H 227.161 -2.84891 -2.87436 0
M  V30 2373 H 225.731 -1.84659 -2.52229 0
M  V30 2374 H 224.951 -3.81269 -1.00139 0
M  V30 2375 H 226.239 -4.78154 -1.73914 0
M  V30 2376 H 225.637 -3.33257 -4.57117 0
M  V30 2377 H 224.194 -4.14368 -5.03133 0
M  V30 2378 N 227.627 0.131896 -1.57047 0
M  V30 2379 C 228.873 0.843179 -1.84441 0
M  V30 2380 C 229.206 1.80129 -0.725749 0
M  V30 2381 O 228.481 1.92624 0.269469 0
M  V30 2382 C 228.764 1.60442 -3.22382 0
M  V30 2383 C 228.617 0.666782 -4.4483 0
M  V30 2384 C 229.936 2.56354 -3.5773 0
M  V30 2385 H 227.055 0.305081 -0.670891 0
M  V30 2386 H 229.697 0.107839 -1.89694 0
M  V30 2387 H 227.847 2.23128 -3.18035 0
M  V30 2388 H 229.519 0.0497646 -4.61273 0
M  V30 2389 H 227.762 -0.022609 -4.33794 0
M  V30 2390 H 228.433 1.23579 -5.37989 0
M  V30 2391 H 230.909 2.0378 -3.62785 0
M  V30 2392 H 229.785 3.06657 -4.5525 0
M  V30 2393 H 230.046 3.38419 -2.84473 0
M  V30 2394 N 229.106 1.52395 0.401703 0
M  V30 2395 C 230.053 1.76268 1.48991 0
M  V30 2396 C 231.023 0.605386 1.54675 0
M  V30 2397 O 232.208 0.843742 1.7113 0
M  V30 2398 C 229.348 1.92592 2.86361 0
M  V30 2399 C 228.461 3.20259 2.89928 0
M  V30 2400 C 227.596 3.26972 4.18644 0
M  V30 2401 C 226.635 4.48812 4.16214 0
M  V30 2402 N 225.772 4.52877 5.36514 0
M  V30 2403 H 230.612 2.6914 1.27935 0
M  V30 2404 H 228.149 1.33355 0.620871 0
M  V30 2405 H 230.107 2.0004 3.66115 0
M  V30 2406 H 228.737 1.03093 3.05895 0
M  V30 2407 H 227.789 3.21945 2.02621 0
M  V30 2408 H 229.101 4.10056 2.83999 0
M  V30 2409 H 228.255 3.33533 5.06794 0
M  V30 2410 H 226.994 2.35126 4.27278 0
M  V30 2411 H 225.999 4.4239 3.26453 0
M  V30 2412 H 227.224 5.41961 4.09213 0
M  V30 2413 H 225.17 3.63917 5.45802 0
M  V30 2414 H 225.087 5.36529 5.32609 0
M  V30 2415 H 226.355 4.63676 6.26597 0
M  V30 2416 N 230.584 -0.659388 1.43143 0
M  V30 2417 C 231.531 -1.77249 1.47822 0
M  V30 2418 C 232.501 -1.62818 0.328558 0
M  V30 2419 O 233.686 -1.83151 0.534838 0
M  V30 2420 C 230.826 -3.15371 1.40126 0
M  V30 2421 C 229.939 -3.4098 2.65249 0
M  V30 2422 C 229.074 -4.68915 2.49584 0
M  V30 2423 C 228.113 -4.87608 3.70006 0
M  V30 2424 N 227.25 -6.06796 3.53189 0
M  V30 2425 H 232.09 -1.72584 2.42938 0
M  V30 2426 H 229.627 -0.842297 1.20598 0
M  V30 2427 H 231.585 -3.9521 1.33659 0
M  V30 2428 H 230.215 -3.19121 0.485964 0
M  V30 2429 H 229.267 -2.55282 2.8202 0
M  V30 2430 H 230.579 -3.50681 3.54717 0
M  V30 2431 H 229.733 -5.56871 2.4079 0
M  V30 2432 H 228.472 -4.61524 1.5763 0
M  V30 2433 H 227.477 -3.9809 3.79215 0
M  V30 2434 H 228.702 -4.96834 4.62961 0
M  V30 2435 H 226.648 -6.00549 2.63965 0
M  V30 2436 H 226.565 -6.17428 4.36255 0
M  V30 2437 H 227.833 -6.9739 3.48236 0
M  V30 2438 N 232.062 -1.29571 -0.897171 0
M  V30 2439 C 233.29 -1.20583 -1.68129 0
M  V30 2440 C 233.705 0.233181 -1.87354 0
M  V30 2441 O 233.062 1.15579 -1.41236 0
M  V30 2442 C 233.113 -1.91772 -3.06441 0
M  V30 2443 O 232.834 -3.30053 -2.88091 0
M  V30 2444 C 234.335 -1.89291 -4.00854 0
M  V30 2445 H 231.555 -0.417826 -0.525036 0
M  V30 2446 H 234.099 -1.70987 -1.12177 0
M  V30 2447 H 232.254 -1.45196 -3.59161 0
M  V30 2448 H 232.668 -3.65942 -3.75748 0
M  V30 2449 H 234.142 -2.43662 -4.95311 0
M  V30 2450 H 234.619 -0.869014 -4.30517 0
M  V30 2451 H 235.225 -2.35622 -3.54066 0
M  V30 2452 N 233.54 1.10788 -1.12088 0
M  V30 2453 C 234.817 1.79136 -0.785476 0
M  V30 2454 C 235.197 1.98246 0.725377 0
M  V30 2455 O 234.545 1.57258 1.65778 0
M  V30 2456 C 234.755 3.12375 -1.55636 0
M  V30 2457 C 236.103 3.8731 -1.74001 0
M  V30 2458 O 237.127 3.22085 -1.52117 0
M  V30 2459 O 235.986 5.04369 -2.10415 0
M  V30 2460 H 233.08 0.776226 -0.285311 0
M  V30 2461 H 235.626 1.1747 -1.2247 0
M  V30 2462 H 234.398 2.93863 -2.5838 0
M  V30 2463 H 234.021 3.81758 -1.11114 0
M  V30 2464 N 235.018 0.912232 1.28515 0
M  V30 2465 C 236.265 0.544599 1.95039 0
M  V30 2466 C 236.593 -0.911435 1.71823 0
M  V30 2467 O 235.848 -1.66317 1.03137 0
M  V30 2468 C 236.147 0.798392 3.48368 0
M  V30 2469 C 235.813 2.23374 3.91682 0
M  V30 2470 C 234.475 2.62617 4.03219 0
M  V30 2471 C 236.827 3.16786 4.13879 0
M  V30 2472 C 234.155 3.94429 4.3433 0
M  V30 2473 C 236.507 4.48161 4.46469 0
M  V30 2474 C 235.171 4.8726 4.56217 0
M  V30 2475 H 234.441 0.199283 0.7137 0
M  V30 2476 H 237.088 1.15327 1.52879 0
M  V30 2477 H 235.393 0.106908 3.91654 0
M  V30 2478 H 237.09 0.493141 3.97956 0
M  V30 2479 H 233.68 1.91922 3.83228 0
M  V30 2480 H 237.864 2.87677 4.0442 0
M  V30 2481 H 233.12 4.24426 4.40082 0
M  V30 2482 H 237.294 5.20559 4.62592 0
M  V30 2483 H 234.921 5.89431 4.80078 0
M  V30 2484 N 236.496 -1.42363 0.676048 0
M  V30 2485 C 237.406 -2.346 -0.00153389 0
M  V30 2486 C 238.422 -1.5516 -0.787485 0
M  V30 2487 O 239.598 -1.87723 -0.729521 0
M  V30 2488 C 236.663 -3.33705 -0.940298 0
M  V30 2489 C 235.724 -4.29042 -0.148739 0
M  V30 2490 C 234.957 -5.23413 -1.04279 0
M  V30 2491 O 235.18 -5.22749 -2.28232 0
M  V30 2492 O 234.114 -5.99795 -0.502925 0
M  V30 2493 H 237.94 -2.94082 0.758268 0
M  V30 2494 H 235.525 -1.42888 0.436289 0
M  V30 2495 H 237.407 -3.94586 -1.47917 0
M  V30 2496 H 236.082 -2.76695 -1.67993 0
M  V30 2497 H 234.989 -3.71571 0.43427 0
M  V30 2498 H 236.322 -4.89097 0.551805 0
M  V30 2499 N 237.974 -0.419461 -1.51915 0
M  V30 2500 C 239.22 0.153166 -2.02221 0
M  V30 2501 C 239.553 1.43907 -1.30401 0
M  V30 2502 O 238.828 1.90055 -0.413438 0
M  V30 2503 C 239.111 0.390291 -3.57979 0
M  V30 2504 C 238.964 -0.913014 -4.40436 0
M  V30 2505 C 240.283 1.16794 -4.2432 0
M  V30 2506 H 237.402 0.0541924 -0.735005 0
M  V30 2507 H 240.044 -0.554955 -1.81715 0
M  V30 2508 H 238.194 0.993491 -3.75582 0
M  V30 2509 H 239.866 -1.54882 -4.34522 0
M  V30 2510 H 238.109 -1.52168 -4.06236 0
M  V30 2511 H 238.78 -0.701361 -5.47526 0
M  V30 2512 H 241.256 0.657161 -4.10878 0
M  V30 2513 H 240.132 1.3026 -5.3322 0
M  V30 2514 H 240.393 2.19132 -3.83971 0
M  V30 2515 N 239.452 1.56882 -0.150215 0
M  V30 2516 C 240.699 1.96228 0.500093 0
M  V30 2517 C 241.027 1.03522 1.64661 0
M  V30 2518 O 240.282 0.0650683 1.95592 0
M  V30 2519 C 240.581 3.41801 1.04437 0
M  V30 2520 C 240.247 4.50897 0.0159671 0
M  V30 2521 C 238.909 4.8046 -0.266731 0
M  V30 2522 C 241.261 5.16703 -0.683192 0
M  V30 2523 C 238.589 5.73135 -1.25434 0
M  V30 2524 C 240.941 6.10441 -1.65964 0
M  V30 2525 C 239.605 6.38382 -1.95 0
M  V30 2526 H 238.875 0.718048 0.182997 0
M  V30 2527 H 241.522 1.90019 -0.237724 0
M  V30 2528 H 239.827 3.44857 1.85959 0
M  V30 2529 H 241.524 3.69573 1.55618 0
M  V30 2530 H 238.114 4.27891 0.246485 0
M  V30 2531 H 242.298 4.93993 -0.477983 0
M  V30 2532 H 237.554 5.93074 -1.48571 0
M  V30 2533 H 241.728 6.60507 -2.20689 0
M  V30 2534 H 239.355 7.09996 -2.71679 0
M  V30 2535 N 240.93 -0.123565 1.57115 0
M  V30 2536 C 242.207 -0.862196 1.75572 0
M  V30 2537 C 242.587 -1.98279 0.724475 0
M  V30 2538 O 241.935 -2.27102 -0.252407 0
M  V30 2539 C 242.145 -1.38309 3.20424 0
M  V30 2540 C 243.493 -1.83724 3.82793 0
M  V30 2541 O 244.517 -1.47999 3.23998 0
M  V30 2542 O 243.376 -2.49685 4.86127 0
M  V30 2543 H 240.47 -0.409113 0.718718 0
M  V30 2544 H 243.016 -0.107661 1.69358 0
M  V30 2545 H 241.788 -0.578889 3.86994 0
M  V30 2546 H 241.411 -2.20046 3.31158 0
M  V30 2547 N 242.408 -1.52605 -0.393616 0
M  V30 2548 C 243.371 -1.76415 -1.46323 0
M  V30 2549 C 244.371 -0.634126 -1.47768 0
M  V30 2550 O 245.561 -0.902142 -1.4902 0
M  V30 2551 C 242.693 -1.8607 -2.85641 0
M  V30 2552 H 243.886 -2.71916 -1.26498 0
M  V30 2553 H 241.439 -1.43257 -0.625073 0
M  V30 2554 H 242.174 -0.925378 -3.10817 0
M  V30 2555 H 241.959 -2.68235 -2.85993 0
M  V30 2556 H 243.449 -2.06179 -3.63153 0
M  V30 2557 N 243.887 0.651787 -1.4349 0
M  V30 2558 C 244.817 1.77621 -1.51569 0
M  V30 2559 C 245.798 1.66022 -0.370253 0
M  V30 2560 O 246.983 1.85095 -0.587658 0
M  V30 2561 C 244.113 3.16056 -1.43966 0
M  V30 2562 C 243.067 3.4242 -2.56774 0
M  V30 2563 C 242.393 4.8067 -2.34223 0
M  V30 2564 C 243.693 3.37023 -3.99015 0
M  V30 2565 H 245.387 1.71117 -2.45681 0
M  V30 2566 H 242.933 0.821825 -1.18246 0
M  V30 2567 H 244.886 3.94472 -1.48221 0
M  V30 2568 H 243.61 3.23293 -0.463586 0
M  V30 2569 H 242.269 2.66375 -2.51873 0
M  V30 2570 H 241.917 4.84585 -1.34856 0
M  V30 2571 H 241.617 4.9927 -3.09844 0
M  V30 2572 H 243.141 5.61342 -2.40265 0
M  V30 2573 H 244.555 4.05374 -4.05395 0
M  V30 2574 H 242.952 3.67159 -4.74673 0
M  V30 2575 H 244.022 2.3518 -4.2405 0
M  V30 2576 N 245.365 1.30045 0.890287 0
M  V30 2577 C 246.298 1.10301 1.99772 0
M  V30 2578 C 247.276 0.0121631 1.62595 0
M  V30 2579 O 248.46 0.16469 1.87779 0
M  V30 2580 C 245.587 0.681125 3.31781 0
M  V30 2581 C 244.633 1.77206 3.87944 0
M  V30 2582 S 245.466 3.37335 4.15891 0
M  V30 2583 C 246.622 2.97036 5.50927 0
M  V30 2584 H 246.855 2.04057 2.16213 0
M  V30 2585 H 244.388 1.14299 1.03804 0
M  V30 2586 H 246.346 0.444439 4.08087 0
M  V30 2587 H 245.007 -0.236981 3.13205 0
M  V30 2588 H 244.2 1.42903 4.83316 0
M  V30 2589 H 243.802 1.96275 3.18358 0
M  V30 2590 H 246.094 2.44666 6.31779 0
M  V30 2591 H 247.037 3.91296 5.90164 0
M  V30 2592 H 247.445 2.35057 5.13233 0
M  V30 2593 N 246.843 -1.10192 1.12674 0
M  V30 2594 C 248.089 -1.82475 0.884915 0
M  V30 2595 C 248.422 -1.85093 -0.58773 0
M  V30 2596 O 247.697 -1.3134 -1.43457 0
M  V30 2597 C 247.98 -3.29018 1.46353 0
M  V30 2598 C 247.833 -3.34718 3.00473 0
M  V30 2599 C 249.152 -4.25473 1.12519 0
M  V30 2600 H 246.271 -0.662492 0.322915 0
M  V30 2601 H 248.913 -1.2913 1.39375 0
M  V30 2602 H 247.063 -3.74576 1.03077 0
M  V30 2603 H 248.735 -2.97622 3.52447 0
M  V30 2604 H 246.978 -2.74541 3.35872 0
M  V30 2605 H 247.649 -4.37918 3.36053 0
M  V30 2606 H 250.125 -3.88161 1.499 0
M  V30 2607 H 249.001 -5.26365 1.55663 0
M  V30 2608 H 249.262 -4.42084 0.0377407 0
M  V30 2609 N 248.321 -0.919034 -1.28029 0
M  V30 2610 C 249.598 -0.473668 -1.89778 0
M  V30 2611 C 249.978 1.04783 -1.83259 0
M  V30 2612 O 249.326 1.8982 -1.27202 0
M  V30 2613 C 249.536 -1.00998 -3.34066 0
M  V30 2614 C 250.884 -1.06525 -4.1102 0
M  V30 2615 O 251.908 -0.958996 -3.43048 0
M  V30 2616 O 250.767 -1.22776 -5.3253 0
M  V30 2617 H 247.861 -0.15098 -0.813101 0
M  V30 2618 H 250.407 -1.01016 -1.36359 0
M  V30 2619 H 249.179 -2.05392 -3.33061 0
M  V30 2620 H 248.802 -0.454626 -3.94992 0
M  V30 2621 N 249.799 1.42003 -0.683588 0
M  V30 2622 C 251.024 2.06265 -0.216647 0
M  V30 2623 C 251.449 1.51059 1.12083 0
M  V30 2624 O 250.807 0.632638 1.69904 0
M  V30 2625 C 250.855 3.60191 -0.171759 0
M  V30 2626 O 249.959 4.03396 0.857069 0
M  V30 2627 H 249.3 0.65502 -0.108834 0
M  V30 2628 H 251.83 1.81982 -0.935077 0
M  V30 2629 H 251.84 4.08 0.0014303 0
M  V30 2630 H 250.515 3.99743 -1.14796 0
M  V30 2631 H 249.092 3.67117 0.654208 0
M  V30 2632 N 251.277 0.427512 1.51691 0
M  V30 2633 C 252.209 -0.424521 2.25234 0
M  V30 2634 C 253.222 -0.994671 1.2888 0
M  V30 2635 O 254.411 -0.890483 1.54702 0
M  V30 2636 C 251.511 -1.60479 2.98496 0
M  V30 2637 C 250.684 -1.15527 4.21868 0
M  V30 2638 C 249.743 -2.20454 4.77793 0
M  V30 2639 O 248.769 -1.8029 5.39893 0
M  V30 2640 N 249.971 -3.52831 4.60967 0
M  V30 2641 H 252.736 0.205749 2.98993 0
M  V30 2642 H 250.297 0.255867 1.59865 0
M  V30 2643 H 252.289 -2.30276 3.32799 0
M  V30 2644 H 250.859 -2.14061 2.27809 0
M  V30 2645 H 250.079 -0.284736 3.9317 0
M  V30 2646 H 251.367 -0.832173 5.01949 0
M  V30 2647 H 250.765 -3.88201 4.11481 0
M  V30 2648 H 249.322 -4.18551 4.99658 0
M  V30 2649 N 252.755 -1.56801 0.158532 0
M  V30 2650 C 253.702 -2.17337 -0.776729 0
M  V30 2651 C 254.672 -1.1096 -1.23601 0
M  V30 2652 O 255.857 -1.39054 -1.30647 0
M  V30 2653 C 252.997 -2.80822 -2.00582 0
M  V30 2654 C 252.11 -4.01624 -1.59129 0
M  V30 2655 C 251.245 -4.53072 -2.77306 0
M  V30 2656 C 250.284 -5.66314 -2.32282 0
M  V30 2657 N 249.421 -6.12329 -3.43508 0
M  V30 2658 H 254.261 -2.96918 -0.253701 0
M  V30 2659 H 251.798 -1.46661 -0.113504 0
M  V30 2660 H 253.756 -3.15779 -2.72652 0
M  V30 2661 H 252.386 -2.03866 -2.50277 0
M  V30 2662 H 251.438 -3.72571 -0.767806 0
M  V30 2663 H 252.75 -4.83633 -1.2207 0
M  V30 2664 H 251.904 -4.90145 -3.57551 0
M  V30 2665 H 250.643 -3.70095 -3.17617 0
M  V30 2666 H 249.648 -5.28806 -1.5048 0
M  V30 2667 H 250.873 -6.51085 -1.93043 0
M  V30 2668 H 248.819 -5.32284 -3.83418 0
M  V30 2669 H 248.736 -6.89293 -3.105 0
M  V30 2670 H 250.004 -6.5405 -4.24075 0
M  V30 2671 N 254.233 0.115231 -1.57178 0
M  V30 2672 C 255.473 0.828199 -1.8687 0
M  V30 2673 C 255.837 1.76873 -0.747002 0
M  V30 2674 O 257.038 2.52354 -0.925785 0
M  V30 2675 C 255.309 1.55515 -3.21792 0
M  V30 2676 S 256.868 2.30917 -3.73125 0
M  V30 2677 H 253.686 0.27634 -0.655101 0
M  V30 2678 H 256.288 0.0863469 -1.95309 0
M  V30 2679 H 254.992 0.856248 -4.01368 0
M  V30 2680 H 254.523 2.3373 -3.16439 0
M  V30 2681 H 256.538 3.56705 -3.44929 0
M  V30 2682 N 255.711 1.52812 0.385517 0
M  V30 2683 C 256.936 1.72207 1.15583 0
M  V30 2684 C 257.361 0.441034 1.82857 0
M  V30 2685 O 256.719 -0.603465 1.70962 0
M  V30 2686 C 256.767 2.87476 2.17692 0
M  V30 2687 O 255.871 2.54693 3.24354 0
M  V30 2688 H 255.212 0.572526 0.336319 0
M  V30 2689 H 257.742 1.99618 0.448744 0
M  V30 2690 H 257.752 3.13072 2.6163 0
M  V30 2691 H 256.427 3.80408 1.68115 0
M  V30 2692 H 255.004 2.3985 2.85529 0
M  V30 2693 N 257.189 -0.644168 1.43834 0
M  V30 2694 C 258.466 -1.40188 1.36406 0
M  V30 2695 C 258.846 -2.11094 0.0163124 0
M  V30 2696 O 258.194 -2.05426 -1.00062 0
M  V30 2697 C 258.404 -2.3791 2.55343 0
M  V30 2698 C 259.752 -3.01637 2.98832 0
M  V30 2699 O 260.776 -2.48237 2.55455 0
M  V30 2700 O 259.635 -3.98477 3.74003 0
M  V30 2701 H 256.729 -0.626773 0.539523 0
M  V30 2702 H 259.275 -0.670317 1.559 0
M  V30 2703 H 258.047 -1.84525 3.4506 0
M  V30 2704 H 257.67 -3.18503 2.37995 0
M  V30 2705 N 258.668 -1.30515 -0.883378 0
M  V30 2706 C 259.914 -1.19607 -1.63774 0
M  V30 2707 C 260.247 0.248314 -1.92606 0
M  V30 2708 O 259.522 1.17742 -1.54813 0
M  V30 2709 C 259.805 -2.02669 -2.97653 0
M  V30 2710 C 259.658 -3.55335 -2.75784 0
M  V30 2711 C 260.977 -1.86573 -3.98596 0
M  V30 2712 H 258.096 -0.435856 -0.594305 0
M  V30 2713 H 260.738 -1.60165 -1.02212 0
M  V30 2714 H 258.888 -1.68208 -3.50197 0
M  V30 2715 H 260.56 -3.99863 -2.30016 0
M  V30 2716 H 258.803 -3.79438 -2.1026 0
M  V30 2717 H 259.474 -4.08745 -3.70988 0
M  V30 2718 H 261.95 -2.16703 -3.55217 0
M  V30 2719 H 260.826 -2.47014 -4.90179 0
M  V30 2720 H 261.087 -0.825321 -4.34328 0
M  V30 2721 N 260.146 1.09593 -1.13257 0
M  V30 2722 C 261.371 1.8604 -0.916732 0
M  V30 2723 C 261.796 1.80504 0.529146 0
M  V30 2724 O 261.154 1.18127 1.37534 0
M  V30 2725 C 261.202 3.32017 -1.40703 0
M  V30 2726 O 260.306 4.08141 -0.591153 0
M  V30 2727 H 259.647 0.576943 -0.328683 0
M  V30 2728 H 262.177 1.38405 -1.50682 0
M  V30 2729 H 262.187 3.82865 -1.4099 0
M  V30 2730 H 260.862 3.35361 -2.45979 0
M  V30 2731 H 259.439 3.67084 -0.656005 0
M  V30 2732 N 261.624 0.925811 1.2754 0
M  V30 2733 C 262.534 0.428993 2.30644 0
M  V30 2734 C 263.55 -0.489387 1.66976 0
M  V30 2735 O 264.726 -0.372653 1.97922 0
M  V30 2736 C 261.791 -0.311967 3.45294 0
M  V30 2737 C 260.852 0.641098 4.24486 0
M  V30 2738 C 260.085 -0.0645955 5.33661 0
M  V30 2739 O 260.308 -1.28429 5.55754 0
M  V30 2740 O 259.242 0.606265 5.98839 0
M  V30 2741 H 263.068 1.28504 2.75173 0
M  V30 2742 H 260.653 0.691086 1.32455 0
M  V30 2743 H 262.535 -0.729972 4.15029 0
M  V30 2744 H 261.21 -1.14365 3.02824 0
M  V30 2745 H 260.117 1.10874 3.57292 0
M  V30 2746 H 261.45 1.43995 4.70666 0
M  V30 2747 N 263.102 -1.41638 0.69111 0
M  V30 2748 C 264.032 -2.3347 0.037248 0
M  V30 2749 C 265.013 -1.51575 -0.771947 0
M  V30 2750 O 266.198 -1.80126 -0.72582 0
M  V30 2751 C 263.328 -3.35354 -0.903064 0
M  V30 2752 C 262.282 -4.27526 -0.201288 0
M  V30 2753 C 261.608 -5.19747 -1.25565 0
M  V30 2754 C 262.908 -5.13959 0.929689 0
M  V30 2755 H 264.602 -2.88397 0.804227 0
M  V30 2756 H 262.148 -1.38669 0.388189 0
M  V30 2757 H 264.101 -3.98519 -1.36969 0
M  V30 2758 H 262.825 -2.78767 -1.70166 0
M  V30 2759 H 261.484 -3.65779 0.245265 0
M  V30 2760 H 261.132 -4.59479 -2.04666 0
M  V30 2761 H 260.832 -5.8225 -0.791128 0
M  V30 2762 H 262.356 -5.85789 -1.72288 0
M  V30 2763 H 263.77 -5.70718 0.543546 0
M  V30 2764 H 262.167 -5.85379 1.32103 0
M  V30 2765 H 263.237 -4.51389 1.77133 0
M  V30 2766 N 264.58 -0.43555 -1.51462 0
M  V30 2767 C 265.805 0.132627 -2.06976 0
M  V30 2768 C 266.23 1.35848 -1.30104 0
M  V30 2769 O 265.588 1.78112 -0.338493 0
M  V30 2770 C 265.636 0.43523 -3.57964 0
M  V30 2771 O 264.74 1.52198 -3.83288 0
M  V30 2772 H 264.081 0.00265 -0.663995 0
M  V30 2773 H 266.611 -0.616369 -1.95095 0
M  V30 2774 H 266.621 0.686206 -4.02188 0
M  V30 2775 H 265.296 -0.460739 -4.1334 0
M  V30 2776 H 263.873 1.2611 -3.50928 0
M  V30 2777 N 266.058 1.56714 -0.166846 0
M  V30 2778 C 267.283 2.01557 0.488833 0
M  V30 2779 C 267.708 1.0463 1.56314 0
M  V30 2780 O 267.066 0.0251304 1.81283 0
M  V30 2781 C 267.114 3.4503 1.04818 0
M  V30 2782 O 266.218 3.51163 2.16236 0
M  V30 2783 H 265.559 0.653516 0.117526 0
M  V30 2784 H 268.089 2.02818 -0.269421 0
M  V30 2785 H 268.099 3.84243 1.37191 0
M  V30 2786 H 266.774 4.15077 0.261572 0
M  V30 2787 H 265.351 3.23807 1.84942 0
M  V30 2788 N 267.536 -0.106894 1.57237 0
M  V30 2789 C 268.761 -0.830287 1.90055 0
M  V30 2790 C 269.186 -1.72064 0.75998 0
M  V30 2791 O 268.544 -1.78982 -0.288991 0
M  V30 2792 C 268.592 -1.6295 3.21683 0
M  V30 2793 O 267.696 -2.73748 3.08441 0
M  V30 2794 H 267.037 -0.228855 0.623315 0
M  V30 2795 H 269.567 -0.085658 2.04421 0
M  V30 2796 H 269.577 -2.01621 3.54701 0
M  V30 2797 H 268.252 -0.975989 4.04286 0
M  V30 2798 H 266.829 -2.38192 2.86913 0
M  V30 2799 N 269.014 -1.53014 -0.377408 0
M  V30 2800 C 270.425 -1.60438 -0.954798 0
M  V30 2801 C 270.776 -0.464418 -1.90624 0
M  V30 2802 O 269.901 0.41087 -2.12464 0
M  V30 2803 C 270.496 -2.90797 -1.73847 0
M  V30 2804 C 269.055 -3.00595 -2.26538 0
M  V30 2805 C 268.202 -2.55645 -1.07429 0
M  V30 2806 H 271.153 -1.57926 -0.156575 0
M  V30 2807 H 271.174 -2.77935 -2.5987 0
M  V30 2808 H 270.686 -3.73746 -1.04574 0
M  V30 2809 H 268.787 -2.22208 -2.99089 0
M  V30 2810 H 268.9 -4.05456 -2.5523 0
M  V30 2811 H 267.264 -2.10239 -1.43777 0
M  V30 2812 H 268.047 -3.41 -0.396728 0
M  V30 2813 N 270.492 0.636531 -1.44174 0
M  V30 2814 C 271.903 1.21806 -1.41493 0
M  V30 2815 C 272.254 1.95785 -0.1275 0
M  V30 2816 O 271.379 2.02147 0.772376 0
M  V30 2817 C 271.974 2.21551 -2.56321 0
M  V30 2818 C 270.533 2.75143 -2.56853 0
M  V30 2819 C 269.68 1.50052 -2.33195 0
M  V30 2820 H 272.631 0.427531 -1.52833 0
M  V30 2821 H 272.652 3.0405 -2.28765 0
M  V30 2822 H 272.164 1.67679 -3.50008 0
M  V30 2823 H 270.265 3.33033 -1.67093 0
M  V30 2824 H 270.378 3.2155 -3.55165 0
M  V30 2825 H 268.742 1.77993 -1.82183 0
M  V30 2826 H 269.525 0.980903 -3.28988 0
M  V30 2827 N 271.97 1.30982 0.876444 0
M  V30 2828 C 273.218 1.20058 1.62575 0
M  V30 2829 C 273.539 -0.242947 1.93481 0
M  V30 2830 O 272.809 -1.1619 1.57724 0
M  V30 2831 H 271.389 0.44135 0.602677 0
M  V30 2832 H 274.051 1.64222 1.04962 0
M  V30 2833 H 273.147 1.76762 2.57219 0
M  V30 2834 N 273.449 -1.08991 1.13837 0
M  V30 2835 C 274.86 -1.62746 0.914917 0
M  V30 2836 C 275.211 -1.88403 -0.547594 0
M  V30 2837 O 274.336 -1.63706 -1.41525 0
M  V30 2838 C 274.931 -2.95662 1.65437 0
M  V30 2839 C 273.49 -3.46225 1.47666 0
M  V30 2840 C 272.637 -2.20562 1.6807 0
M  V30 2841 H 275.588 -0.922946 1.29102 0
M  V30 2842 H 275.609 -3.63825 1.11407 0
M  V30 2843 H 275.121 -2.76956 2.71877 0
M  V30 2844 H 273.222 -3.70046 0.435478 0
M  V30 2845 H 273.335 -4.23368 2.24268 0
M  V30 2846 H 271.699 -2.29439 1.10589 0
M  V30 2847 H 272.482 -2.0437 2.7584 0
M  V30 2848 N 274.927 -0.932562 -1.27047 0
M  V30 2849 C 276.157 -0.591173 -1.97961 0
M  V30 2850 C 276.565 0.836219 -1.69717 0
M  V30 2851 O 275.908 1.56801 -0.957036 0
M  V30 2852 C 275.97 -0.743082 -3.51736 0
M  V30 2853 C 275.634 -2.1435 -4.03613 0
M  V30 2854 C 276.631 -3.11815 -4.16014 0
M  V30 2855 C 274.316 -2.46175 -4.37839 0
M  V30 2856 C 276.31 -4.39211 -4.61923 0
M  V30 2857 C 273.997 -3.73806 -4.83438 0
M  V30 2858 C 274.995 -4.70137 -4.95439 0
M  V30 2859 O 274.683 -5.95496 -5.40037 0
M  V30 2860 H 274.415 -0.222375 -0.638377 0
M  V30 2861 H 276.969 -1.25317 -1.62742 0
M  V30 2862 H 275.199 -0.0239739 -3.86693 0
M  V30 2863 H 276.888 -0.40603 -4.03864 0
M  V30 2864 H 277.654 -2.88549 -3.89826 0
M  V30 2865 H 273.533 -1.71936 -4.27737 0
M  V30 2866 H 277.077 -5.14404 -4.71205 0
M  V30 2867 H 272.974 -3.96888 -5.09068 0
M  V30 2868 H 273.742 -5.98554 -5.58279 0
M  V30 2869 N 276.405 1.4127 -0.698611 0
M  V30 2870 C 277.355 2.27997 -0.0119836 0
M  V30 2871 C 278.339 1.42363 0.749765 0
M  V30 2872 O 279.531 1.65607 0.624758 0
M  V30 2873 C 276.66 3.30702 0.921458 0
M  V30 2874 C 275.746 4.23814 0.155796 0
M  V30 2875 N 276.137 4.98572 -0.852015 0
M  V30 2876 C 274.435 4.44284 0.390836 0
M  V30 2877 C 275.136 5.66744 -1.3106 0
M  V30 2878 N 274.112 5.39867 -0.635944 0
M  V30 2879 H 277.914 2.83232 -0.784649 0
M  V30 2880 H 275.428 1.53518 -0.529711 0
M  V30 2881 H 277.425 3.91661 1.42854 0
M  V30 2882 H 276.085 2.77028 1.69369 0
M  V30 2883 H 277.096 5.03024 -1.23235 0
M  V30 2884 H 273.773 4.01614 1.14071 0
M  V30 2885 H 275.163 6.36672 -2.14707 0
M  V30 2886 N 277.883 0.443576 1.51229 0
M  V30 2887 C 278.815 -0.400608 2.25672 0
M  V30 2888 C 279.828 -0.980945 1.29928 0
M  V30 2889 O 281.017 -0.874024 1.55638 0
M  V30 2890 C 278.117 -1.57304 3.00181 0
M  V30 2891 C 277.29 -1.11046 4.23069 0
M  V30 2892 C 276.349 -2.15374 4.80105 0
M  V30 2893 O 275.375 -1.74554 5.41774 0
M  V30 2894 N 276.577 -3.47922 4.64683 0
M  V30 2895 H 279.342 0.23745 2.98758 0
M  V30 2896 H 276.903 0.272809 1.59585 0
M  V30 2897 H 278.895 -2.26733 3.35223 0
M  V30 2898 H 277.465 -2.11632 2.30066 0
M  V30 2899 H 276.685 -0.243019 3.9345 0
M  V30 2900 H 277.973 -0.778888 5.02803 0
M  V30 2901 H 277.371 -3.83815 4.15575 0
M  V30 2902 H 275.928 -4.13228 5.0407 0
M  V30 2903 N 279.361 -1.56624 0.175154 0
M  V30 2904 C 280.271 -2.21741 -0.766042 0
M  V30 2905 C 281.287 -1.21023 -1.25018 0
M  V30 2906 O 282.463 -1.53697 -1.3015 0
M  V30 2907 C 279.528 -2.84839 -1.97655 0
M  V30 2908 C 278.589 -4.00769 -1.53892 0
M  V30 2909 C 277.822 -4.60849 -2.69173 0
M  V30 2910 O 278.045 -4.19823 -3.86141 0
M  V30 2911 O 276.979 -5.50655 -2.43028 0
M  V30 2912 H 280.805 -3.02738 -0.241585 0
M  V30 2913 H 278.39 -1.49305 -0.053222 0
M  V30 2914 H 280.272 -3.24834 -2.68442 0
M  V30 2915 H 278.947 -2.06836 -2.48999 0
M  V30 2916 H 277.854 -3.65436 -0.80044 0
M  V30 2917 H 279.187 -4.80376 -1.07236 0
M  V30 2918 N 280.839 0.0985539 -1.57292 0
M  V30 2919 C 282.25 0.653457 -1.74891 0
M  V30 2920 C 282.601 1.7929 -0.796838 0
M  V30 2921 O 281.726 2.16385 0.0254886 0
M  V30 2922 C 282.321 1.19216 -3.17133 0
M  V30 2923 C 280.88 1.69316 -3.36168 0
M  V30 2924 C 280.027 0.601294 -2.70702 0
M  V30 2925 H 282.978 -0.127497 -1.58187 0
M  V30 2926 H 282.999 2.06154 -3.19814 0
M  V30 2927 H 282.511 0.362635 -3.86402 0
M  V30 2928 H 280.612 2.5468 -2.71972 0
M  V30 2929 H 280.725 1.78853 -4.44464 0
M  V30 2930 H 279.089 1.0399 -2.32504 0
M  V30 2931 H 279.872 -0.217592 -3.4261 0
M  V30 2932 N 282.317 1.53212 0.369288 0
M  V30 2933 C 283.547 1.72868 1.13139 0
M  V30 2934 C 283.955 0.455754 1.83629 0
M  V30 2935 O 283.298 -0.580861 1.74275 0
M  V30 2936 C 283.36 2.83667 2.20847 0
M  V30 2937 C 283.024 4.24142 1.70155 0
M  V30 2938 C 284.021 5.06619 1.16763 0
M  V30 2939 C 281.706 4.70539 1.7578 0
M  V30 2940 C 283.7 6.33581 0.696678 0
M  V30 2941 C 281.387 5.97481 1.28297 0
M  V30 2942 C 282.385 6.78833 0.753307 0
M  V30 2943 O 282.073 8.03393 0.285475 0
M  V30 2944 H 281.805 0.581707 0.344373 0
M  V30 2945 H 284.359 2.00736 0.435243 0
M  V30 2946 H 282.589 2.51265 2.93944 0
M  V30 2947 H 284.278 2.91536 2.82421 0
M  V30 2948 H 285.044 4.71948 1.11758 0
M  V30 2949 H 280.923 4.07293 2.15949 0
M  V30 2950 H 284.467 6.97027 0.282581 0
M  V30 2951 H 280.364 6.31651 1.32994 0
M  V30 2952 H 281.132 8.17497 0.405145 0
M  V30 2953 N 283.795 -0.628877 1.44509 0
M  V30 2954 C 285.041 -1.39045 1.47629 0
M  V30 2955 C 285.374 -1.93892 0.109343 0
M  V30 2956 O 284.649 -1.7379 -0.87334 0
M  V30 2957 C 284.932 -2.55408 2.53848 0
M  V30 2958 C 284.785 -2.05896 3.99909 0
M  V30 2959 C 286.104 -3.5759 2.56549 0
M  V30 2960 H 283.223 -0.504232 0.537512 0
M  V30 2961 H 285.865 -0.710854 1.76201 0
M  V30 2962 H 284.015 -3.13384 2.29615 0
M  V30 2963 H 285.687 -1.52734 4.35282 0
M  V30 2964 H 283.93 -1.37061 4.11578 0
M  V30 2965 H 284.601 -2.89681 4.69882 0
M  V30 2966 H 287.077 -3.09419 2.78207 0
M  V30 2967 H 285.953 -4.36527 3.32769 0
M  V30 2968 H 286.214 -4.11808 1.60832 0
M  V30 2969 N 285.273 -1.31445 -0.869486 0
M  V30 2970 C 286.513 -1.22458 -1.63656 0
M  V30 2971 C 286.877 0.213846 -1.90805 0
M  V30 2972 O 288.078 0.427212 -2.65383 0
M  V30 2973 C 286.349 -2.04564 -2.93067 0
M  V30 2974 S 287.908 -2.12445 -3.83944 0
M  V30 2975 H 284.726 -0.436145 -0.561514 0
M  V30 2976 H 287.328 -1.66114 -1.03085 0
M  V30 2977 H 286.032 -3.0816 -2.71045 0
M  V30 2978 H 285.563 -1.6163 -3.58663 0
M  V30 2979 H 287.578 -1.26312 -4.79854 0
M  V30 2980 N 286.751 1.08385 -1.14413 0
M  V30 2981 C 287.698 2.15311 -0.831265 0
M  V30 2982 C 288.668 1.64751 0.211292 0
M  V30 2983 O 289.853 1.90627 0.0811674 0
M  V30 2984 C 286.993 3.43658 -0.315143 0
M  V30 2985 C 286.106 4.08064 -1.41802 0
M  V30 2986 C 285.241 5.24207 -0.859126 0
M  V30 2987 C 284.28 5.80554 -1.93967 0
M  V30 2988 N 283.417 6.88042 -1.39793 0
M  V30 2989 H 288.257 2.41415 -1.74708 0
M  V30 2990 H 285.794 1.18474 -0.871909 0
M  V30 2991 H 287.752 4.172 0.00230884 0
M  V30 2992 H 286.382 3.17839 0.56378 0
M  V30 2993 H 285.434 3.3228 -1.85187 0
M  V30 2994 H 286.746 4.45962 -2.23427 0
M  V30 2995 H 285.9 6.04689 -0.49359 0
M  V30 2996 H 284.639 4.87699 -0.011932 0
M  V30 2997 H 283.644 4.98725 -2.31415 0
M  V30 2998 H 284.869 6.19121 -2.79046 0
M  V30 2999 H 282.815 6.53493 -0.572919 0
M  V30 3000 H 282.732 7.24767 -2.15054 0
M  V30 3001 H 284 7.72255 -1.0603 0
M  V30 3002 N 288.23 0.939286 1.26551 0
M  V30 3003 C 289.641 0.628782 1.75793 0
M  V30 3004 C 289.992 -0.856046 1.7654 0
M  V30 3005 O 289.117 -1.66994 1.3763 0
M  V30 3006 C 289.712 1.13465 3.19235 0
M  V30 3007 C 288.271 0.874601 3.66098 0
M  V30 3008 C 287.418 1.28667 2.45642 0
M  V30 3009 H 290.369 1.1178 1.12654 0
M  V30 3010 H 290.39 0.487609 3.77363 0
M  V30 3011 H 289.902 2.21535 3.1866 0
M  V30 3012 H 288.003 -0.191793 3.72106 0
M  V30 3013 H 288.116 1.50028 4.55004 0
M  V30 3014 H 286.48 0.705109 2.44745 0
M  V30 3015 H 287.263 2.37625 2.47769 0
M  V30 3016 N 289.708 -1.40897 0.706093 0
M  V30 3017 C 290.618 -2.3455 0.0482286 0
M  V30 3018 C 291.634 -1.56796 -0.754396 0
M  V30 3019 O 292.81 -1.89228 -0.689538 0
M  V30 3020 C 289.875 -3.35625 -0.869303 0
M  V30 3021 C 288.936 -4.29261 -0.0576994 0
M  V30 3022 C 288.169 -5.25508 -0.931531 0
M  V30 3023 O 288.392 -5.27472 -2.17092 0
M  V30 3024 O 287.326 -6.00727 -0.375587 0
M  V30 3025 H 291.152 -2.92407 0.820476 0
M  V30 3026 H 288.737 -1.4193 0.4665 0
M  V30 3027 H 290.619 -3.97635 -1.39514 0
M  V30 3028 H 289.294 -2.80196 -1.62086 0
M  V30 3029 H 288.201 -3.70566 0.512988 0
M  V30 3030 H 289.534 -4.87817 0.655426 0
M  V30 3031 N 291.186 -0.45159 -1.50991 0
M  V30 3032 C 292.096 0.358431 -2.31846 0
M  V30 3033 C 293.112 1.01438 -1.41373 0
M  V30 3034 O 294.288 1.00663 -1.74439 0
M  V30 3035 C 291.353 1.43704 -3.15515 0
M  V30 3036 C 290.414 0.799742 -4.21785 0
M  V30 3037 C 289.647 1.82696 -5.01456 0
M  V30 3038 O 289.87 3.05105 -4.81941 0
M  V30 3039 O 288.804 1.40958 -5.85162 0
M  V30 3040 H 292.63 -0.302032 -3.02194 0
M  V30 3041 H 290.215 -0.213825 -1.47862 0
M  V30 3042 H 292.097 2.06227 -3.67489 0
M  V30 3043 H 290.772 2.08133 -2.47916 0
M  V30 3044 H 289.679 0.136084 -3.73852 0
M  V30 3045 H 291.012 0.198718 -4.91799 0
M  V30 3046 N 292.664 1.56529 -0.183458 0
M  V30 3047 C 294.08 1.58664 0.172554 0
M  V30 3048 C 294.28 1.19925 1.61926 0
M  V30 3049 O 293.336 0.916534 2.35278 0
M  V30 3050 C 294.649 3.00463 -0.119262 0
M  V30 3051 C 296.197 3.12945 -0.0584396 0
M  V30 3052 C 296.672 4.56857 -0.323408 0
M  V30 3053 N 298.163 4.62403 -0.271612 0
M  V30 3054 C 298.898 5.71626 -0.450639 0
M  V30 3055 N 298.394 6.89362 -0.689384 0
M  V30 3056 N 300.187 5.60775 -0.385701 0
M  V30 3057 H 292.338 1.79994 -1.12765 0
M  V30 3058 H 294.601 0.834808 -0.449222 0
M  V30 3059 H 294.307 3.33326 -1.12192 0
M  V30 3060 H 294.181 3.72659 0.583544 0
M  V30 3061 H 296.568 2.79902 0.934805 0
M  V30 3062 H 296.649 2.4316 -0.794144 0
M  V30 3063 H 296.293 4.9061 -1.31392 0
M  V30 3064 H 296.223 5.24816 0.43305 0
M  V30 3065 H 298.714 3.77785 -0.0932256 0
M  V30 3066 H 299.027 7.68489 -0.815113 0
M  V30 3067 H 297.372 6.91196 -0.726142 0
M  V30 3068 H 300.563 4.67674 -0.199687 0
M  V30 3069 H 300.736 6.4584 -0.528646 0
M  V30 3070 N 294.142 -0.090211 1.57342 0
M  V30 3071 C 295.389 -0.792807 1.86335 0
M  V30 3072 C 295.717 -1.78494 0.772662 0
M  V30 3073 O 294.972 -1.94305 -0.233258 0
M  V30 3074 C 295.271 -1.55222 3.21933 0
M  V30 3075 C 294.937 -0.701765 4.45406 0
M  V30 3076 C 293.599 -0.467334 4.78925 0
M  V30 3077 C 295.951 -0.11086 5.21082 0
M  V30 3078 C 293.279 0.367785 5.85546 0
M  V30 3079 C 295.631 0.711609 6.28585 0
M  V30 3080 C 294.295 0.956086 6.60617 0
M  V30 3081 H 293.565 -0.290109 0.681849 0
M  V30 3082 H 296.212 -0.0541332 1.91423 0
M  V30 3083 H 294.517 -2.3626 3.12551 0
M  V30 3084 H 296.214 -2.10032 3.41595 0
M  V30 3085 H 292.804 -0.894598 4.1916 0
M  V30 3086 H 296.988 -0.279129 4.95514 0
M  V30 3087 H 292.244 0.566128 6.08773 0
M  V30 3088 H 296.418 1.17632 6.86393 0
M  V30 3089 H 294.045 1.60499 7.43064 0
M  V30 3090 N 295.62 -1.53406 -0.361157 0
M  V30 3091 C 297.036 -1.43277 -0.703124 0
M  V30 3092 C 297.236 -0.575384 -1.9311 0
M  V30 3093 O 296.292 -0.0595362 -2.5243 0
M  V30 3094 C 297.605 -2.8653 -0.9122 0
M  V30 3095 C 299.153 -2.96191 -1.01193 0
M  V30 3096 C 299.628 -4.40514 -1.25345 0
M  V30 3097 N 301.119 -4.43962 -1.32105 0
M  V30 3098 C 301.854 -5.52746 -1.5251 0
M  V30 3099 N 301.35 -6.71567 -1.70203 0
M  V30 3100 N 303.143 -5.40331 -1.54916 0
M  V30 3101 H 295.294 -2.07654 0.446475 0
M  V30 3102 H 297.557 -0.937944 0.137715 0
M  V30 3103 H 297.263 -3.51605 -0.0816414 0
M  V30 3104 H 297.137 -3.30441 -1.81903 0
M  V30 3105 H 299.524 -2.31266 -1.83303 0
M  V30 3106 H 299.605 -2.55667 -0.0823929 0
M  V30 3107 H 299.249 -5.06014 -0.437346 0
M  V30 3108 H 299.179 -4.78614 -2.19627 0
M  V30 3109 H 301.67 -3.58332 -1.20028 0
M  V30 3110 H 301.983 -7.50241 -1.85359 0
M  V30 3111 H 300.328 -6.74545 -1.67373 0
M  V30 3112 H 303.519 -4.46465 -1.40663 0
M  V30 3113 H 303.692 -6.25173 -1.70477 0
M  V30 3114 N 297.098 0.621204 -1.44841 0
M  V30 3115 C 298.061 1.71459 -1.521 0
M  V30 3116 C 299.061 1.55696 -0.401933 0
M  V30 3117 O 300.251 1.61011 -0.664925 0
M  V30 3118 C 297.383 3.10624 -1.40447 0
M  V30 3119 H 298.576 1.66394 -2.49506 0
M  V30 3120 H 296.129 0.835745 -1.3208 0
M  V30 3121 H 296.864 3.21277 -0.441737 0
M  V30 3122 H 296.649 3.23473 -2.21602 0
M  V30 3123 H 298.139 3.90293 -1.4853 0
M  V30 3124 N 298.576 1.31904 0.862503 0
M  V30 3125 C 299.987 1.19803 1.43193 0
M  V30 3126 C 300.338 -0.192567 1.95253 0
M  V30 3127 O 299.463 -1.09081 1.86896 0
M  V30 3128 C 300.058 2.16883 2.60283 0
M  V30 3129 C 298.617 2.08692 3.13248 0
M  V30 3130 C 297.764 2.05691 1.85975 0
M  V30 3131 H 300.715 1.43846 0.670365 0
M  V30 3132 H 300.736 1.76278 3.37204 0
M  V30 3133 H 300.248 3.18083 2.22363 0
M  V30 3134 H 298.349 1.10713 3.55771 0
M  V30 3135 H 298.462 2.9815 3.75025 0
M  V30 3136 H 296.826 1.50814 2.05249 0
M  V30 3137 H 297.609 3.08659 1.50282 0
M  V30 3138 N 300.054 -1.07777 1.14986 0
M  V30 3139 C 301.465 -1.61766 0.932127 0
M  V30 3140 C 301.816 -1.88974 -0.527581 0
M  V30 3141 O 300.941 -1.65198 -1.39781 0
M  V30 3142 C 301.536 -2.93891 1.68563 0
M  V30 3143 C 300.095 -3.44639 1.5133 0
M  V30 3144 C 299.242 -2.18767 1.704 0
M  V30 3145 H 302.193 -0.909201 1.30074 0
M  V30 3146 H 302.214 -3.62623 1.15259 0
M  V30 3147 H 301.726 -2.74057 2.74799 0
M  V30 3148 H 299.827 -3.69564 0.474702 0
M  V30 3149 H 299.94 -4.20966 2.28746 0
M  V30 3150 H 298.304 -2.28253 1.13016 0
M  V30 3151 H 299.087 -2.01433 2.77992 0
M  V30 3152 N 301.532 -0.945985 -1.26051 0
M  V30 3153 C 302.781 -0.591836 -1.92822 0
M  V30 3154 C 303.094 0.873956 -1.7499 0
M  V30 3155 O 304.3 1.33769 -2.36259 0
M  V30 3156 C 302.756 -1.00776 -3.45503 0
M  V30 3157 C 302.364 -2.4955 -3.7206 0
M  V30 3158 C 304.108 -0.725735 -4.1825 0
M  V30 3159 C 302.015 -2.84988 -5.18205 0
M  V30 3160 H 300.945 -0.217635 -0.721908 0
M  V30 3161 H 303.596 -1.14927 -1.43052 0
M  V30 3162 H 301.978 -0.378812 -3.94184 0
M  V30 3163 H 303.152 -3.1739 -3.34066 0
M  V30 3164 H 301.467 -2.75133 -3.12555 0
M  V30 3165 H 304.064 -0.966771 -5.25887 0
M  V30 3166 H 304.407 0.337639 -4.14929 0
M  V30 3167 H 304.94 -1.31463 -3.7545 0
M  V30 3168 H 301.679 -3.90307 -5.26631 0
M  V30 3169 H 301.199 -2.21813 -5.57278 0
M  V30 3170 H 302.878 -2.73712 -5.86252 0
M  V30 3171 N 303.011 1.40521 -0.713556 0
M  V30 3172 C 303.941 2.33381 -0.0743864 0
M  V30 3173 C 304.922 1.52784 0.747735 0
M  V30 3174 O 306.107 1.81258 0.697071 0
M  V30 3175 C 303.237 3.36748 0.849598 0
M  V30 3176 C 302.191 4.27793 0.133247 0
M  V30 3177 C 301.517 5.21679 1.17281 0
M  V30 3178 C 302.817 5.12415 -1.01134 0
M  V30 3179 H 304.511 2.87081 -0.850007 0
M  V30 3180 H 302.057 1.38034 -0.410201 0
M  V30 3181 H 304.01 4.00648 1.30612 0
M  V30 3182 H 302.734 2.81439 1.65709 0
M  V30 3183 H 301.393 3.65342 -0.303426 0
M  V30 3184 H 301.041 4.62677 1.9733 0
M  V30 3185 H 300.741 5.83435 0.698397 0
M  V30 3186 H 302.265 5.88456 1.62947 0
M  V30 3187 H 303.679 5.69781 -0.634274 0
M  V30 3188 H 302.076 5.83203 -1.41399 0
M  V30 3189 H 303.146 4.48514 -1.84292 0
M  V30 3190 N 304.489 0.459591 1.5075 0
M  V30 3191 C 305.9 0.00171547 1.867 0
M  V30 3192 C 306.251 -1.39934 1.37525 0
M  V30 3193 O 305.376 -2.03523 0.735349 0
M  V30 3194 C 305.971 -0.00366298 3.388 0
M  V30 3195 C 304.53 -0.406026 3.74204 0
M  V30 3196 C 303.677 0.38673 2.7459 0
M  V30 3197 H 306.628 0.674413 1.43657 0
M  V30 3198 H 306.649 -0.808371 3.71814 0
M  V30 3199 H 306.161 1.01617 3.74561 0
M  V30 3200 H 304.262 -1.43063 3.4404 0
M  V30 3201 H 304.375 -0.115362 4.78961 0
M  V30 3202 H 302.739 -0.158019 2.54209 0
M  V30 3203 H 303.522 1.40585 3.13194 0
M  V30 3204 N 305.967 -1.56429 0.191757 0
M  V30 3205 C 307.378 -1.83912 -0.321428 0
M  V30 3206 C 307.729 -1.11231 -1.61623 0
M  V30 3207 O 306.854 -0.37202 -2.13178 0
M  V30 3208 C 307.449 -3.33624 -0.589961 0
M  V30 3209 C 306.008 -3.6153 -1.04753 0
M  V30 3210 C 305.155 -2.7714 -0.0943327 0
M  V30 3211 H 308.106 -1.53161 0.415612 0
M  V30 3212 H 308.127 -3.52213 -1.43966 0
M  V30 3213 H 307.639 -3.86495 0.352588 0
M  V30 3214 H 305.74 -3.14089 -2.00447 0
M  V30 3215 H 305.853 -4.69737 -0.942549 0
M  V30 3216 H 304.217 -2.47638 -0.595589 0
M  V30 3217 H 305 -3.32799 0.842601 0
M  V30 3218 N 307.445 0.0818655 -1.57387 0
M  V30 3219 C 308.395 1.10501 -1.99433 0
M  V30 3220 C 309.379 1.35041 -0.874798 0
M  V30 3221 O 310.571 1.35511 -1.13868 0
M  V30 3222 C 307.7 2.42159 -2.43339 0
M  V30 3223 C 306.786 2.20937 -3.62005 0
M  V30 3224 N 307.177 1.69616 -4.76512 0
M  V30 3225 C 305.475 2.51451 -3.68359 0
M  V30 3226 C 306.176 1.62973 -5.58404 0
M  V30 3227 N 305.152 2.08664 -5.01956 0
M  V30 3228 H 308.954 0.701373 -2.85408 0
M  V30 3229 H 306.468 0.289096 -1.59806 0
M  V30 3230 H 308.465 3.16208 -2.71695 0
M  V30 3231 H 307.125 2.83249 -1.58746 0
M  V30 3232 H 308.136 1.38624 -4.99003 0
M  V30 3233 H 304.813 2.95975 -2.94457 0
M  V30 3234 H 306.203 1.24233 -6.60315 0
M  V30 3235 N 308.923 1.53595 0.353017 0
M  V30 3236 C 309.853 1.83902 1.43883 0
M  V30 3237 C 310.834 0.693421 1.55324 0
M  V30 3238 O 312.019 0.944452 1.69687 0
M  V30 3239 C 309.149 2.04016 2.8106 0
M  V30 3240 C 308.103 3.19814 2.84434 0
M  V30 3241 C 307.429 3.25244 4.24406 0
M  V30 3242 C 308.729 4.58133 2.50822 0
M  V30 3243 H 310.423 2.74835 1.1877 0
M  V30 3244 H 307.969 1.32242 0.569917 0
M  V30 3245 H 309.922 2.238 3.57059 0
M  V30 3246 H 308.646 1.09804 3.07588 0
M  V30 3247 H 307.305 2.9987 2.10887 0
M  V30 3248 H 306.953 2.28646 4.48029 0
M  V30 3249 H 306.653 4.03054 4.27576 0
M  V30 3250 H 308.177 3.47228 5.0226 0
M  V30 3251 H 309.591 4.77995 3.16534 0
M  V30 3252 H 307.988 5.38276 2.6529 0
M  V30 3253 H 309.058 4.62387 1.46034 0
M  V30 3254 N 310.401 -0.613514 1.45168 0
M  V30 3255 C 311.331 -1.7354 1.56225 0
M  V30 3256 C 312.312 -1.64981 0.41414 0
M  V30 3257 O 313.497 -1.83472 0.636526 0
M  V30 3258 C 310.627 -3.12128 1.52295 0
M  V30 3259 C 309.581 -3.35491 2.65762 0
M  V30 3260 C 308.907 -4.74291 2.46885 0
M  V30 3261 C 310.207 -3.26325 4.0781 0
M  V30 3262 H 311.901 -1.64543 2.50132 0
M  V30 3263 H 309.447 -0.790185 1.20383 0
M  V30 3264 H 311.4 -3.90404 1.58628 0
M  V30 3265 H 310.124 -3.2195 0.549139 0
M  V30 3266 H 308.783 -2.59603 2.58847 0
M  V30 3267 H 308.431 -4.80839 1.47657 0
M  V30 3268 H 308.131 -4.9088 3.22972 0
M  V30 3269 H 309.655 -5.54775 2.55063 0
M  V30 3270 H 311.069 -3.94483 4.16 0
M  V30 3271 H 309.466 -3.54445 4.8424 0
M  V30 3272 H 310.536 -2.23855 4.30136 0
M  V30 3273 N 311.879 -1.3236 -0.855495 0
M  V30 3274 C 312.811 -1.17052 -1.97057 0
M  V30 3275 C 313.824 -0.10574 -1.62456 0
M  V30 3276 O 315.013 -0.354619 -1.74942 0
M  V30 3277 C 312.113 -0.769305 -3.30053 0
M  V30 3278 C 311.286 -1.9222 -3.929 0
M  V30 3279 C 310.345 -1.50466 -5.04228 0
M  V30 3280 O 309.371 -2.21655 -5.24269 0
M  V30 3281 N 310.573 -0.400209 -5.79119 0
M  V30 3282 H 313.338 -2.13103 -2.1073 0
M  V30 3283 H 310.899 -1.24885 -1.0303 0
M  V30 3284 H 312.891 -0.472407 -4.01933 0
M  V30 3285 H 311.461 0.100025 -3.1244 0
M  V30 3286 H 310.681 -2.38563 -3.13817 0
M  V30 3287 H 311.969 -2.69403 -4.31624 0
M  V30 3288 H 311.367 0.192319 -5.65373 0
M  V30 3289 H 309.924 -0.162912 -6.51596 0
M  V30 3290 N 313.357 1.07166 -1.15556 0
M  V30 3291 C 314.603 1.80065 -0.932984 0
M  V30 3292 C 314.936 1.86586 0.53845 0
M  V30 3293 O 314.211 1.35098 1.39924 0
M  V30 3294 C 314.494 3.25022 -1.55025 0
M  V30 3295 C 314.347 3.26634 -3.09242 0
M  V30 3296 C 315.666 4.22341 -1.2376 0
M  V30 3297 H 312.785 0.653697 -0.340366 0
M  V30 3298 H 315.427 1.25389 -1.4275 0
M  V30 3299 H 313.577 3.71712 -1.12972 0
M  V30 3300 H 315.249 2.88173 -3.60214 0
M  V30 3301 H 313.492 2.65539 -3.43033 0
M  V30 3302 H 314.163 4.28854 -3.47546 0
M  V30 3303 H 316.639 3.8405 -1.60139 0
M  V30 3304 H 315.515 5.22053 -1.69564 0
M  V30 3305 H 315.776 4.41828 -0.154938 0
M  V30 3306 N 314.835 0.952656 1.25548 0
M  V30 3307 C 316.084 0.602053 1.92505 0
M  V30 3308 C 316.397 -0.864663 1.75451 0
M  V30 3309 O 317.603 -1.32514 2.36965 0
M  V30 3310 C 316.059 1.02607 3.44963 0
M  V30 3311 C 315.667 2.51519 3.70732 0
M  V30 3312 C 317.411 0.747905 4.1786 0
M  V30 3313 C 315.318 2.87732 5.16686 0
M  V30 3314 H 314.248 0.22146 0.720744 0
M  V30 3315 H 316.899 1.15684 1.42441 0
M  V30 3316 H 315.281 0.399712 3.93978 0
M  V30 3317 H 316.455 3.19157 3.32378 0
M  V30 3318 H 314.77 2.76786 3.11092 0
M  V30 3319 H 317.367 0.994647 5.25367 0
M  V30 3320 H 317.71 -0.315629 4.15102 0
M  V30 3321 H 318.243 1.33452 3.74747 0
M  V30 3322 H 314.982 3.93095 5.24554 0
M  V30 3323 H 314.502 2.24765 5.56094 0
M  V30 3324 H 316.181 2.76817 5.84792 0
M  V30 3325 N 316.313 -1.40141 0.720998 0
M  V30 3326 C 317.243 -2.33339 0.0867621 0
M  V30 3327 C 318.224 -1.53178 -0.739622 0
M  V30 3328 O 319.409 -1.81625 -0.687449 0
M  V30 3329 C 316.539 -3.37194 -0.831728 0
M  V30 3330 C 315.493 -4.27857 -0.110558 0
M  V30 3331 C 314.819 -5.22294 -1.14513 0
M  V30 3332 C 316.119 -5.11872 1.0385 0
M  V30 3333 H 317.813 -2.86626 0.865219 0
M  V30 3334 H 315.359 -1.37814 0.417516 0
M  V30 3335 H 317.312 -4.01335 -1.28485 0
M  V30 3336 H 316.036 -2.82314 -1.64214 0
M  V30 3337 H 314.695 -3.65176 0.322797 0
M  V30 3338 H 314.343 -4.63717 -1.94874 0
M  V30 3339 H 314.043 -5.83797 -0.667446 0
M  V30 3340 H 315.567 -5.89312 -1.59824 0
M  V30 3341 H 316.981 -5.69436 0.664482 0
M  V30 3342 H 315.378 -5.82445 1.4449 0
M  V30 3343 H 316.448 -4.4753 1.86668 0
M  V30 3344 N 317.792 -0.46758 -1.50504 0
M  V30 3345 C 318.74 0.342482 -2.30065 0
M  V30 3346 C 319.734 0.993596 -1.37201 0
M  V30 3347 O 320.94 0.925102 -1.54408 0
M  V30 3348 H 317.315 0.129283 -0.740803 0
M  V30 3349 H 319.286 -0.34899 -2.96352 0
M  V30 3350 C 318.035 1.4139 -3.17654 0
M  V30 3351 H 317.358 0.922264 -3.89017 0
M  V30 3352 H 318.798 1.95335 -3.76325 0
M  V30 3353 C 317.257 2.4139 -2.35016 0
M  V30 3354 O 317.787 3.46586 -2.03079 0
M  V30 3355 N 315.993 2.13021 -1.97662 0
M  V30 3356 H 315.54 1.27499 -2.23834 0
M  V30 3357 H 315.498 2.80164 -1.42673 0
M  V30 3358 N 319.27 1.56325 -0.20005 0
M  V30 3359 C 320.217 2.1932 0.718833 0
M  V30 3360 C 321.187 1.14198 1.20615 0
M  V30 3361 O 322.372 1.42469 1.26914 0
M  V30 3362 C 319.512 2.86041 1.93066 0
M  V30 3363 C 318.625 4.05702 1.48425 0
M  V30 3364 C 317.76 4.60266 2.65196 0
M  V30 3365 C 316.799 5.72273 2.17185 0
M  V30 3366 N 315.936 6.21221 3.27152 0
M  V30 3367 H 320.776 2.97486 0.17489 0
M  V30 3368 H 318.313 1.46911 0.0745794 0
M  V30 3369 H 320.271 3.22897 2.64184 0
M  V30 3370 H 318.901 2.1043 2.44783 0
M  V30 3371 H 317.953 3.74475 0.668755 0
M  V30 3372 H 319.265 4.86699 1.09204 0
M  V30 3373 H 318.419 4.99453 3.4443 0
M  V30 3374 H 317.158 3.78386 3.07693 0
M  V30 3375 H 316.163 5.3261 1.36407 0
M  V30 3376 H 317.388 6.55974 1.75713 0
M  V30 3377 H 315.334 5.42263 3.69171 0
M  V30 3378 H 315.251 6.97284 2.92116 0
M  V30 3379 H 316.519 6.65063 4.06585 0
M  V30 3380 N 320.748 -0.0735177 1.57428 0
M  V30 3381 C 322.025 -0.805903 1.78226 0
M  V30 3382 C 322.405 -1.95874 0.787189 0
M  V30 3383 O 321.753 -2.2779 -0.180029 0
M  V30 3384 C 321.963 -1.28045 3.24662 0
M  V30 3385 C 323.311 -1.71453 3.88444 0
M  V30 3386 O 324.335 -1.37616 3.28543 0
M  V30 3387 O 323.194 -2.34093 4.93825 0
M  V30 3388 H 320.288 -0.386041 0.73137 0
M  V30 3389 H 322.834 -0.0537269 1.69615 0
M  V30 3390 H 321.606 -0.455476 3.8864 0
M  V30 3391 H 321.229 -2.094 3.37991 0
M  V30 3392 N 322.226 -1.5378 -0.344866 0
M  V30 3393 C 323.454 -1.74899 -1.10534 0
M  V30 3394 C 323.869 -0.487534 -1.82397 0
M  V30 3395 O 323.226 0.540741 -1.74305 0
M  V30 3396 C 323.277 -2.92822 -2.11984 0
M  V30 3397 O 322.998 -4.14089 -1.43044 0
M  V30 3398 C 324.499 -3.25982 -3.00417 0
M  V30 3399 H 321.719 -0.584426 -0.329678 0
M  V30 3400 H 324.263 -2.006 -0.397474 0
M  V30 3401 H 322.418 -2.69457 -2.78338 0
M  V30 3402 H 322.832 -4.80272 -2.10805 0
M  V30 3403 H 324.306 -4.11848 -3.67539 0
M  V30 3404 H 324.783 -2.42228 -3.66363 0
M  V30 3405 H 325.389 -3.51349 -2.39654 0
M  V30 3406 N 323.704 0.605807 -1.45491 0
M  V30 3407 C 324.952 1.36207 -1.49305 0
M  V30 3408 C 325.273 1.94519 -0.136863 0
M  V30 3409 O 324.543 1.77261 0.833983 0
M  V30 3410 H 323.123 0.50565 -0.549843 0
M  V30 3411 H 325.785 0.711239 -1.81459 0
M  V30 3412 H 324.881 2.18058 -2.23287 0
M  V30 3413 N 325.182 1.32811 0.848464 0
M  V30 3414 C 326.431 1.23075 1.59798 0
M  V30 3415 C 326.744 -0.204419 1.94529 0
M  V30 3416 O 327.95 -0.423701 2.68173 0
M  V30 3417 C 326.406 2.15594 2.88179 0
M  V30 3418 C 326.014 3.64228 2.60849 0
M  V30 3419 C 327.758 2.14709 3.66197 0
M  V30 3420 C 325.665 4.48689 3.85269 0
M  V30 3421 H 324.595 0.457091 0.599653 0
M  V30 3422 H 327.246 1.57813 0.936342 0
M  V30 3423 H 325.628 1.73778 3.55833 0
M  V30 3424 H 326.802 4.14424 2.01467 0
M  V30 3425 H 325.117 3.67306 1.96151 0
M  V30 3426 H 327.714 2.75046 4.58534 0
M  V30 3427 H 328.057 1.13966 4.00397 0
M  V30 3428 H 328.59 2.54837 3.05455 0
M  V30 3429 H 325.329 5.5027 3.56207 0
M  V30 3430 H 324.849 4.03241 4.44024 0
M  V30 3431 H 326.528 4.62006 4.52946 0
M  V30 3432 N 326.66 -1.06551 1.16123 0
M  V30 3433 C 327.885 -1.83544 0.965735 0
M  V30 3434 C 328.31 -1.81843 -0.481102 0
M  V30 3435 O 327.668 -1.21732 -1.34354 0
M  V30 3436 C 327.716 -3.28169 1.49457 0
M  V30 3437 O 326.82 -4.0643 0.699157 0
M  V30 3438 H 326.161 -0.568026 0.343864 0
M  V30 3439 H 328.691 -1.34362 1.54299 0
M  V30 3440 H 328.701 -3.78992 1.51092 0
M  V30 3441 H 327.376 -3.28722 2.54784 0
M  V30 3442 H 325.953 -3.65216 0.7531 0
M  V30 3443 N 328.138 -0.959301 -1.25041 0
M  V30 3444 C 329.378 -0.624343 -1.94631 0
M  V30 3445 C 329.742 0.82403 -1.73418 0
M  V30 3446 O 330.943 1.26881 -2.3697 0
M  V30 3447 C 329.214 -0.978805 -3.43736 0
M  V30 3448 S 330.773 -0.757127 -4.32219 0
M  V30 3449 H 327.591 -0.229327 -0.673001 0
M  V30 3450 H 330.193 -1.23447 -1.51595 0
M  V30 3451 H 328.897 -2.02997 -3.56679 0
M  V30 3452 H 328.428 -0.359117 -3.91757 0
M  V30 3453 H 330.443 0.369759 -4.9482 0
M  V30 3454 N 329.616 1.39756 -0.72842 0
M  V30 3455 C 330.893 1.94574 -0.200079 0
M  V30 3456 C 331.273 1.66569 1.29684 0
M  V30 3457 O 330.621 0.990326 2.05924 0
M  V30 3458 C 330.831 3.45004 -0.526608 0
M  V30 3459 C 332.179 4.21965 -0.472318 0
M  V30 3460 O 333.203 3.53173 -0.463413 0
M  V30 3461 O 332.062 5.44552 -0.461075 0
M  V30 3462 H 329.156 0.826289 -0.0342851 0
M  V30 3463 H 331.702 1.49293 -0.806829 0
M  V30 3464 H 330.474 3.58796 -1.56144 0
M  V30 3465 H 330.097 3.97449 0.109449 0
M  V30 3466 N 331.094 0.475555 1.50254 0
M  V30 3467 C 332.505 0.0215174 1.86688 0
M  V30 3468 C 332.856 -1.38467 1.39001 0
M  V30 3469 O 331.981 -2.02732 0.756894 0
M  V30 3470 C 332.576 0.0322715 3.38785 0
M  V30 3471 C 331.135 -0.366314 3.74613 0
M  V30 3472 C 330.282 0.415832 2.74164 0
M  V30 3473 H 333.233 0.689612 1.42934 0
M  V30 3474 H 333.254 -0.76889 3.7265 0
M  V30 3475 H 332.766 1.05584 3.73462 0
M  V30 3476 H 330.867 -1.39406 3.45538 0
M  V30 3477 H 330.98 -0.064555 4.79057 0
M  V30 3478 H 329.344 -0.131048 2.54363 0
M  V30 3479 H 330.127 1.43899 3.11686 0
M  V30 3480 N 332.573 -1.56217 0.208337 0
M  V30 3481 C 333.536 -2.18455 -0.693557 0
M  V30 3482 C 334.536 -1.14268 -1.13135 0
M  V30 3483 O 335.726 -1.39577 -1.0423 0
M  V30 3484 C 332.858 -2.79727 -1.94848 0
M  V30 3485 H 334.051 -2.99519 -0.15114 0
M  V30 3486 H 331.604 -1.56245 -0.041287 0
M  V30 3487 H 332.339 -2.02497 -2.53309 0
M  V30 3488 H 332.124 -3.56009 -1.64316 0
M  V30 3489 H 333.614 -3.27475 -2.59133 0
M  V30 3490 N 334.051 0.0651679 -1.57465 0
M  V30 3491 C 334.981 1.07693 -2.07182 0
M  V30 3492 C 335.962 1.39962 -0.966673 0
M  V30 3493 O 337.147 1.49475 -1.2398 0
M  V30 3494 C 334.277 2.3885 -2.52127 0
M  V30 3495 C 333.231 2.20917 -3.66579 0
M  V30 3496 C 332.557 3.57515 -3.97601 0
M  V30 3497 C 333.857 1.62493 -4.9638 0
M  V30 3498 H 335.551 0.663199 -2.91962 0
M  V30 3499 H 333.097 0.317569 -1.40455 0
M  V30 3500 H 335.05 3.09928 -2.85522 0
M  V30 3501 H 333.774 2.82215 -1.64384 0
M  V30 3502 H 332.433 1.52279 -3.33477 0
M  V30 3503 H 332.081 3.98463 -3.06979 0
M  V30 3504 H 331.781 3.46353 -4.74672 0
M  V30 3505 H 333.305 4.30013 -4.33499 0
M  V30 3506 H 334.719 2.23445 -5.27963 0
M  V30 3507 H 333.116 1.62009 -5.77818 0
M  V30 3508 H 334.186 0.587041 -4.81333 0
M  V30 3509 N 335.529 1.53961 0.336706 0
M  V30 3510 C 336.459 1.85417 1.41925 0
M  V30 3511 C 337.44 0.709856 1.5458 0
M  V30 3512 O 338.625 0.962396 1.68676 0
M  V30 3513 C 335.755 2.06985 2.78881 0
M  V30 3514 C 334.709 3.22813 2.81026 0
M  V30 3515 C 334.035 3.29727 4.20932 0
M  V30 3516 C 335.335 4.60767 2.45949 0
M  V30 3517 H 337.029 2.76079 1.15848 0
M  V30 3518 H 334.575 1.32839 0.555859 0
M  V30 3519 H 336.528 2.27575 3.54665 0
M  V30 3520 H 335.252 1.13061 3.06406 0
M  V30 3521 H 333.911 3.0209 2.07695 0
M  V30 3522 H 333.559 2.33385 4.45579 0
M  V30 3523 H 333.259 4.07566 4.23277 0
M  V30 3524 H 334.783 3.52536 4.98549 0
M  V30 3525 H 336.197 4.81325 3.11446 0
M  V30 3526 H 334.594 5.4106 2.59566 0
M  V30 3527 H 335.664 4.6391 1.41122 0
M  V30 3528 N 337.007 -0.598083 1.45811 0
M  V30 3529 C 338.418 -1.18011 1.44673 0
M  V30 3530 C 338.769 -1.95378 0.179364 0
M  V30 3531 O 337.894 -2.04124 -0.718509 0
M  V30 3532 C 338.489 -2.14677 2.62105 0
M  V30 3533 C 337.048 -2.68236 2.64057 0
M  V30 3534 C 336.195 -1.43816 2.37091 0
M  V30 3535 H 339.146 -0.38686 1.53913 0
M  V30 3536 H 339.167 -2.97878 2.36746 0
M  V30 3537 H 338.679 -1.5834 3.5433 0
M  V30 3538 H 336.78 -3.28486 1.75864 0
M  V30 3539 H 336.893 -3.12021 3.63566 0
M  V30 3540 H 335.257 -1.731 1.86838 0
M  V30 3541 H 336.04 -0.893333 3.31473 0
M  V30 3542 N 338.485 -1.33259 -0.841409 0
M  V30 3543 C 339.395 -1.25332 -1.98316 0
M  V30 3544 C 340.411 -0.164364 -1.73222 0
M  V30 3545 O 341.587 -0.387486 -1.97637 0
M  V30 3546 C 338.652 -0.990078 -3.32262 0
M  V30 3547 C 337.713 -2.16879 -3.70489 0
M  V30 3548 C 336.946 -1.91801 -4.98044 0
M  V30 3549 O 337.169 -0.867075 -5.63771 0
M  V30 3550 O 336.103 -2.78267 -5.33714 0
M  V30 3551 H 339.929 -2.21344 -2.07944 0
M  V30 3552 H 337.514 -1.1328 -0.974058 0
M  V30 3553 H 339.396 -0.860321 -4.12524 0
M  V30 3554 H 338.071 -0.0602155 -3.23644 0
M  V30 3555 H 336.978 -2.35407 -2.90748 0
M  V30 3556 H 338.311 -3.0819 -3.8377 0
M  V30 3557 N 339.963 1.05934 -1.16686 0
M  V30 3558 C 341.374 1.60263 -0.957745 0
M  V30 3559 C 341.725 1.89789 0.49745 0
M  V30 3560 O 340.85 1.67401 1.37135 0
M  V30 3561 C 341.445 2.91172 -1.73218 0
M  V30 3562 C 340.004 3.42188 -1.56794 0
M  V30 3563 C 339.151 2.16028 -1.73859 0
M  V30 3564 H 342.102 0.888392 -1.31504 0
M  V30 3565 H 342.123 3.60744 -1.21014 0
M  V30 3566 H 341.635 2.6965 -2.79124 0
M  V30 3567 H 339.736 3.68762 -0.533437 0
M  V30 3568 H 339.849 4.17273 -2.35414 0
M  V30 3569 H 338.213 2.26426 -1.16633 0
M  V30 3570 H 338.996 1.96985 -2.81161 0
M  V30 3571 N 341.441 0.965919 1.2453 0
M  V30 3572 C 342.389 0.486506 2.27455 0
M  V30 3573 C 343.383 -0.449041 1.6334 0
M  V30 3574 O 344.589 -0.324527 1.7705 0
M  V30 3575 H 340.964 0.138857 0.739069 0
M  V30 3576 H 342.935 1.3666 2.65267 0
M  V30 3577 C 341.684 -0.209481 3.47068 0
M  V30 3578 H 341.007 0.50129 3.96645 0
M  V30 3579 H 342.447 -0.508775 4.20936 0
M  V30 3580 C 340.906 -1.43586 3.0477 0
M  V30 3581 O 341.436 -2.53299 3.11773 0
M  V30 3582 N 339.642 -1.30126 2.59838 0
M  V30 3583 H 339.189 -0.408583 2.54339 0
M  V30 3584 H 339.147 -2.12294 2.31902 0
M  V30 3585 N 342.919 -1.39368 0.735821 0
M  V30 3586 C 343.869 -2.27885 0.0724287 0
M  V30 3587 C 344.853 -1.44301 -0.711756 0
M  V30 3588 O 346.045 -1.67206 -0.58063 0
M  V30 3589 C 343.174 -3.33029 -0.833454 0
M  V30 3590 C 342.26 -4.24078 -0.0433749 0
M  V30 3591 N 342.651 -4.96138 0.983903 0
M  V30 3592 C 340.949 -4.45164 -0.272905 0
M  V30 3593 C 341.65 -5.63069 1.4604 0
M  V30 3594 N 340.626 -5.37991 0.778857 0
M  V30 3595 H 344.428 -2.81052 0.859467 0
M  V30 3596 H 341.942 -1.5206 0.570227 0
M  V30 3597 H 343.939 -3.95311 -1.32419 0
M  V30 3598 H 342.599 -2.81421 -1.61964 0
M  V30 3599 H 343.61 -4.9958 1.36528 0
M  V30 3600 H 340.287 -4.04497 -1.03383 0
M  V30 3601 H 341.677 -6.30755 2.31511 0
M  V30 3602 N 344.397 -0.483516 -1.5 0
M  V30 3603 C 345.643 0.0672592 -2.02688 0
M  V30 3604 C 345.976 1.38247 -1.36387 0
M  V30 3605 O 345.251 1.88131 -0.493675 0
M  V30 3606 C 345.534 0.238109 -3.59312 0
M  V30 3607 C 345.387 -1.099 -4.36168 0
M  V30 3608 C 346.706 0.986916 -4.28892 0
M  V30 3609 H 343.825 0.0229696 -0.736642 0
M  V30 3610 H 346.467 -0.631527 -1.79197 0
M  V30 3611 H 344.617 0.8333 -3.79458 0
M  V30 3612 H 346.289 -1.73172 -4.27562 0
M  V30 3613 H 344.532 -1.69261 -3.99416 0
M  V30 3614 H 345.203 -0.932954 -5.44059 0
M  V30 3615 H 347.679 0.482302 -4.13295 0
M  V30 3616 H 346.555 1.07527 -5.38265 0
M  V30 3617 H 346.816 2.0265 -3.92919 0
M  V30 3618 N 345.875 1.56104 -0.216619 0
M  V30 3619 C 346.808 2.16026 0.735395 0
M  V30 3620 C 347.786 1.1032 1.1945 0
M  V30 3621 O 348.97 1.38549 1.27814 0
M  V30 3622 C 346.097 2.73656 1.99575 0
M  V30 3623 C 345.143 3.92146 1.67702 0
M  V30 3624 S 345.976 5.29397 0.806145 0
M  V30 3625 C 347.132 5.90463 2.07617 0
M  V30 3626 H 347.365 2.96439 0.226072 0
M  V30 3627 H 344.898 1.544 -0.00136639 0
M  V30 3628 H 346.856 3.075 2.71945 0
M  V30 3629 H 345.517 1.93245 2.47619 0
M  V30 3630 H 344.71 4.30954 2.61332 0
M  V30 3631 H 344.312 3.59423 1.03398 0
M  V30 3632 H 346.604 6.06136 3.02664 0
M  V30 3633 H 347.547 6.86589 1.73207 0
M  V30 3634 H 347.955 5.19252 2.21445 0
M  V30 3635 N 347.353 -0.0568162 1.57498 0
M  V30 3636 C 348.283 -1.06593 2.0775 0
M  V30 3637 C 349.264 -1.39448 0.974082 0
M  V30 3638 O 350.449 -1.48815 1.24771 0
M  V30 3639 C 347.579 -2.37509 2.5339 0
M  V30 3640 C 346.533 -2.1897 3.67745 0
M  V30 3641 C 345.859 -3.55402 3.99492 0
M  V30 3642 C 347.159 -1.59859 4.97235 0
M  V30 3643 H 348.853 -0.647706 2.9231 0
M  V30 3644 H 346.399 -0.310116 1.40621 0
M  V30 3645 H 348.352 -3.08409 2.87162 0
M  V30 3646 H 347.076 -2.8134 1.65878 0
M  V30 3647 H 345.735 -1.50508 3.3428 0
M  V30 3648 H 345.383 -3.9683 3.09088 0
M  V30 3649 H 345.083 -3.43831 4.76502 0
M  V30 3650 H 346.607 -4.27708 4.35773 0
M  V30 3651 H 348.021 -2.20642 5.29141 0
M  V30 3652 H 346.418 -1.58942 5.78669 0
M  V30 3653 H 347.488 -0.561506 4.81638 0
M  V30 3654 N 348.832 -1.54138 -0.328536 0
M  V30 3655 C 349.78 -1.83894 -1.42428 0
M  V30 3656 C 350.774 -0.710478 -1.53781 0
M  V30 3657 O 351.98 -0.894062 -1.56226 0
M  V30 3658 H 348.355 -0.582837 -0.475189 0
M  V30 3659 H 350.326 -2.75537 -1.14552 0
M  V30 3660 C 349.075 -2.07866 -2.78724 0
M  V30 3661 H 348.398 -2.94158 -2.7076 0
M  V30 3662 H 349.838 -2.32644 -3.54476 0
M  V30 3663 C 348.297 -0.868689 -3.25508 0
M  V30 3664 O 348.827 -0.0754908 -4.01629 0
M  V30 3665 N 347.033 -0.681711 -2.82491 0
M  V30 3666 H 346.58 -1.32838 -2.20708 0
M  V30 3667 H 346.538 0.126374 -3.14146 0
M  V30 3668 N 350.31 0.590341 -1.46126 0
M  V30 3669 C 351.26 1.69466 -1.5253 0
M  V30 3670 C 352.244 1.56179 -0.386917 0
M  V30 3671 O 353.436 1.65223 -0.634858 0
M  V30 3672 C 350.565 3.08245 -1.5113 0
M  V30 3673 C 349.651 3.26856 -2.70233 0
M  V30 3674 N 350.042 3.15657 -3.95214 0
M  V30 3675 C 348.34 3.57775 -2.66296 0
M  V30 3676 C 349.041 3.36066 -4.74799 0
M  V30 3677 N 348.017 3.60865 -4.06543 0
M  V30 3678 H 351.819 1.59326 -2.46966 0
M  V30 3679 H 349.333 0.79414 -1.41659 0
M  V30 3680 H 351.33 3.87492 -1.53804 0
M  V30 3681 H 349.99 3.19521 -0.577636 0
M  V30 3682 H 351.001 2.93686 -4.26578 0
M  V30 3683 H 347.678 3.75782 -1.81918 0
M  V30 3684 H 349.068 3.32655 -5.83772 0
M  V30 3685 N 351.788 1.33704 0.83433 0
M  V30 3686 C 352.718 1.26967 1.95963 0
M  V30 3687 C 353.699 0.149337 1.69443 0
M  V30 3688 O 354.884 0.339852 1.91203 0
M  V30 3689 C 352.014 1.01275 3.32206 0
M  V30 3690 C 350.968 2.09652 3.73136 0
M  V30 3691 C 350.294 1.69166 5.07235 0
M  V30 3692 C 351.594 3.51372 3.86439 0
M  V30 3693 H 353.288 2.2112 2.01857 0
M  V30 3694 H 350.834 1.06447 0.969793 0
M  V30 3695 H 352.787 0.952106 4.10503 0
M  V30 3696 H 351.511 0.0356203 3.26581 0
M  V30 3697 H 350.17 2.14766 2.97104 0
M  V30 3698 H 349.818 0.701437 4.98085 0
M  V30 3699 H 349.518 2.41694 5.35591 0
M  V30 3700 H 351.042 1.64576 5.88003 0
M  V30 3701 H 352.456 3.48734 4.55036 0
M  V30 3702 H 350.853 4.22425 4.26236 0
M  V30 3703 H 351.923 3.89546 2.88759 0
M  V30 3704 N 353.266 -1.05314 1.17247 0
M  V30 3705 C 354.496 -1.81707 0.983166 0
M  V30 3706 C 354.904 -1.83222 -0.471822 0
M  V30 3707 O 354.247 -1.25721 -1.3394 0
M  V30 3708 C 354.309 -3.29134 1.44606 0
M  V30 3709 C 353.973 -3.51304 2.92292 0
M  V30 3710 C 354.97 -3.4353 3.90235 0
M  V30 3711 C 352.655 -3.78306 3.30439 0
M  V30 3712 C 354.649 -3.62442 5.24323 0
M  V30 3713 C 352.336 -3.96866 4.64694 0
M  V30 3714 C 353.334 -3.88933 5.61445 0
M  V30 3715 O 353.022 -4.06976 6.93272 0
M  V30 3716 H 352.754 -0.579476 0.348114 0
M  V30 3717 H 355.308 -1.33705 1.55924 0
M  V30 3718 H 353.538 -3.78046 0.813537 0
M  V30 3719 H 355.227 -3.87049 1.22262 0
M  V30 3720 H 355.993 -3.22648 3.62109 0
M  V30 3721 H 351.872 -3.83585 2.55702 0
M  V30 3722 H 355.416 -3.56165 5.99827 0
M  V30 3723 H 351.313 -4.1724 4.92525 0
M  V30 3724 H 352.081 -4.24209 6.99992 0
M  V30 3725 N 354.744 -0.972509 -1.24016 0
M  V30 3726 C 355.707 -0.511403 -2.23422 0
M  V30 3727 C 356.707 0.394679 -1.55881 0
M  V30 3728 O 357.897 0.189469 -1.73167 0
M  V30 3729 C 355.029 0.258769 -3.39916 0
M  V30 3730 H 356.222 -1.39024 -2.6573 0
M  V30 3731 H 353.775 -0.757585 -1.36713 0
M  V30 3732 H 354.51 1.1545 -3.03054 0
M  V30 3733 H 354.295 -0.391522 -3.9014 0
M  V30 3734 H 355.785 0.570244 -4.13688 0
M  V30 3735 N 356.222 1.38976 -0.743202 0
M  V30 3736 C 357.152 2.33171 -0.123873 0
M  V30 3737 C 358.133 1.54336 0.71516 0
M  V30 3738 O 359.318 1.82696 0.658467 0
M  V30 3739 C 356.448 3.38474 0.777978 0
M  V30 3740 C 355.402 4.27979 0.0424758 0
M  V30 3741 C 354.728 5.2405 1.06189 0
M  V30 3742 C 356.028 5.10155 -1.1198 0
M  V30 3743 H 357.722 2.85213 -0.910709 0
M  V30 3744 H 355.268 1.37133 -0.439388 0
M  V30 3745 H 357.221 4.03328 1.22084 0
M  V30 3746 H 355.945 2.84891 1.59702 0
M  V30 3747 H 354.604 3.64616 -0.380853 0
M  V30 3748 H 354.252 4.66758 1.87472 0
M  V30 3749 H 353.952 5.84785 0.574485 0
M  V30 3750 H 355.476 5.9178 1.50428 0
M  V30 3751 H 356.89 5.68307 -0.75499 0
M  V30 3752 H 355.287 5.80073 -1.53738 0
M  V30 3753 H 356.357 4.44504 -1.93764 0
M  V30 3754 N 357.7 0.491464 1.49741 0
M  V30 3755 C 358.925 -0.0557177 2.07325 0
M  V30 3756 C 359.35 -1.30925 1.35056 0
M  V30 3757 O 358.708 -1.76733 0.404365 0
M  V30 3758 C 358.756 -0.302074 3.59333 0
M  V30 3759 O 357.86 -1.37868 3.88672 0
M  V30 3760 H 357.201 0.0219956 0.663636 0
M  V30 3761 H 359.731 0.688352 1.92673 0
M  V30 3762 H 359.741 -0.536464 4.04458 0
M  V30 3763 H 358.416 0.61383 4.11345 0
M  V30 3764 H 356.993 -1.12999 3.55367 0
M  V30 3765 N 359.178 -1.55987 0.224894 0
M  V30 3766 C 360.427 -1.97566 -0.406273 0
M  V30 3767 C 360.74 -1.11569 -1.6066 0
M  V30 3768 O 361.946 -1.43062 -2.3075 0
M  V30 3769 C 360.402 -3.51474 -0.774207 0
M  V30 3770 C 360.01 -4.46179 0.403496 0
M  V30 3771 C 361.754 -4.01758 -1.37079 0
M  V30 3772 C 359.661 -5.91399 0.0129412 0
M  V30 3773 H 358.591 -0.737777 -0.155565 0
M  V30 3774 H 361.242 -1.80659 0.321635 0
M  V30 3775 H 359.624 -3.63994 -1.55963 0
M  V30 3776 H 360.798 -4.45409 1.18101 0
M  V30 3777 H 359.113 -4.06255 0.913536 0
M  V30 3778 H 361.71 -5.07756 -1.67596 0
M  V30 3779 H 362.053 -3.47805 -2.28773 0
M  V30 3780 H 362.586 -3.92475 -0.648733 0
M  V30 3781 H 359.325 -6.49341 0.896451 0
M  V30 3782 H 358.845 -5.95356 -0.728821 0
M  V30 3783 H 360.524 -6.45683 -0.412582 0
M  V30 3784 N 360.656 0.0484629 -1.57525 0
M  V30 3785 C 361.603 1.05504 -2.05275 0
M  V30 3786 C 362.573 1.37084 -0.937927 0
M  V30 3787 O 363.758 1.47754 -1.2072 0
M  V30 3788 C 360.898 2.35676 -2.52093 0
M  V30 3789 C 360.011 2.10423 -3.77288 0
M  V30 3790 C 359.146 3.34327 -4.12794 0
M  V30 3791 C 358.185 3.04542 -5.30962 0
M  V30 3792 N 357.322 4.20841 -5.61994 0
M  V30 3793 H 362.162 0.640885 -2.91027 0
M  V30 3794 H 359.699 0.304854 -1.43906 0
M  V30 3795 H 361.657 3.11709 -2.77297 0
M  V30 3796 H 360.287 2.7485 -1.69285 0
M  V30 3797 H 359.339 1.24976 -3.59284 0
M  V30 3798 H 360.651 1.84438 -4.63448 0
M  V30 3799 H 359.805 4.1874 -4.39024 0
M  V30 3800 H 358.544 3.63408 -3.25247 0
M  V30 3801 H 357.549 2.18528 -5.04505 0
M  V30 3802 H 358.774 2.76758 -6.20146 0
M  V30 3803 H 356.72 4.4991 -4.77406 0
M  V30 3804 H 356.637 3.98212 -6.42622 0
M  V30 3805 H 357.905 5.06184 -5.92789 0
M  V30 3806 N 362.134 1.5431 0.320358 0
M  V30 3807 C 363.411 1.63322 1.07635 0
M  V30 3808 C 363.791 0.46912 2.05821 0
M  V30 3809 O 363.139 -0.536274 2.22118 0
M  V30 3810 C 363.349 3.00465 1.77544 0
M  V30 3811 C 364.697 3.56621 2.30449 0
M  V30 3812 O 365.721 3.02791 1.87606 0
M  V30 3813 O 364.58 4.5083 3.08892 0
M  V30 3814 H 361.674 0.661502 0.496331 0
M  V30 3815 H 364.22 1.66656 0.319992 0
M  V30 3816 H 362.992 3.76629 1.06143 0
M  V30 3817 H 362.615 3.00824 2.59982 0
M  V30 3818 N 363.613 -0.582584 1.46437 0
M  V30 3819 C 364.861 -1.33814 1.51453 0
M  V30 3820 C 365.182 -1.94277 0.167792 0
M  V30 3821 O 364.452 -1.78566 -0.805677 0
M  V30 3822 H 363.032 -0.496838 0.557818 0
M  V30 3823 H 365.694 -0.682281 1.82568 0
M  V30 3824 H 364.79 -2.14479 2.26728 0
M  V30 3825 N 365.091 -1.34144 -0.827227 0
M  V30 3826 C 366.337 -1.26446 -1.58554 0
M  V30 3827 C 366.67 0.1664 -1.93486 0
M  V30 3828 O 365.945 1.1107 -1.59667 0
M  V30 3829 C 366.228 -2.15111 -2.8879 0
M  V30 3830 C 366.081 -3.66712 -2.60465 0
M  V30 3831 C 367.4 -2.03311 -3.90324 0
M  V30 3832 H 364.519 -0.46067 -0.575284 0
M  V30 3833 H 367.161 -1.64356 -0.953269 0
M  V30 3834 H 365.311 -1.8291 -3.42748 0
M  V30 3835 H 366.983 -4.09259 -2.1285 0
M  V30 3836 H 365.226 -3.88014 -1.93978 0
M  V30 3837 H 365.897 -4.24112 -3.53317 0
M  V30 3838 H 368.373 -2.31574 -3.45706 0
M  V30 3839 H 367.249 -2.67582 -4.79261 0
M  V30 3840 H 367.51 -1.00879 -4.30437 0
M  V30 3841 N 366.569 1.04691 -1.17803 0
M  V30 3842 C 367.502 2.12068 -0.842765 0
M  V30 3843 C 368.48 1.61455 0.192608 0
M  V30 3844 O 369.664 1.88359 0.072995 0
M  V30 3845 C 366.791 3.37715 -0.258063 0
M  V30 3846 C 365.837 4.07164 -1.26962 0
M  V30 3847 S 366.67 4.55047 -2.82299 0
M  V30 3848 C 367.826 5.83935 -2.25323 0
M  V30 3849 H 368.059 2.4018 -1.75217 0
M  V30 3850 H 365.592 1.17366 -1.00323 0
M  V30 3851 H 367.55 4.10435 0.0727935 0
M  V30 3852 H 366.211 3.0773 0.629357 0
M  V30 3853 H 365.404 4.9746 -0.809263 0
M  V30 3854 H 365.006 3.40533 -1.54639 0
M  V30 3855 H 367.298 6.57552 -1.63192 0
M  V30 3856 H 368.241 6.34725 -3.13894 0
M  V30 3857 H 368.649 5.3874 -1.68582 0
M  V30 3858 N 368.047 0.979072 1.23499 0
M  V30 3859 C 369.293 0.648178 1.92163 0
M  V30 3860 C 369.626 -0.816049 1.76222 0
M  V30 3861 O 368.901 -1.58849 1.12237 0
M  V30 3862 C 369.184 1.03773 3.44824 0
M  V30 3863 C 369.037 2.55948 3.69879 0
M  V30 3864 C 370.356 0.580653 4.36253 0
M  V30 3865 H 367.475 0.236952 0.69787 0
M  V30 3866 H 370.117 1.22012 1.45647 0
M  V30 3867 H 368.267 0.551058 3.84572 0
M  V30 3868 H 369.939 3.12179 3.3962 0
M  V30 3869 H 368.182 2.98641 3.14636 0
M  V30 3870 H 368.853 2.78255 4.76737 0
M  V30 3871 H 371.329 0.998465 4.03943 0
M  V30 3872 H 370.205 0.881663 5.41773 0
M  V30 3873 H 370.466 -0.519052 4.39042 0
M  V30 3874 N 369.525 -1.3858 0.750561 0
M  V30 3875 C 370.455 -2.33102 0.136237 0
M  V30 3876 C 371.436 -1.54713 -0.706965 0
M  V30 3877 O 372.621 -1.83043 -0.648769 0
M  V30 3878 C 369.751 -3.38882 -0.760017 0
M  V30 3879 C 368.705 -4.27995 -0.0197785 0
M  V30 3880 C 368.031 -5.24605 -1.03408 0
M  V30 3881 C 369.331 -5.09554 1.14684 0
M  V30 3882 H 371.025 -2.84726 0.925822 0
M  V30 3883 H 368.571 -1.36898 0.446654 0
M  V30 3884 H 370.524 -4.0397 -1.19943 0
M  V30 3885 H 369.248 -2.85734 -1.58189 0
M  V30 3886 H 367.907 -3.64409 0.400184 0
M  V30 3887 H 367.555 -4.67746 -1.84994 0
M  V30 3888 H 367.255 -5.85081 -0.543464 0
M  V30 3889 H 368.779 -5.9257 -1.47288 0
M  V30 3890 H 370.193 -5.67899 0.785118 0
M  V30 3891 H 368.59 -5.7925 1.56812 0
M  V30 3892 H 369.66 -4.4347 1.96118 0
M  V30 3893 N 371.003 -0.499398 -1.49478 0
M  V30 3894 C 372.228 0.044722 -2.07352 0
M  V30 3895 C 372.653 1.30207 -1.35749 0
M  V30 3896 O 372.011 1.76516 -0.413732 0
M  V30 3897 C 372.059 0.283013 -3.59488 0
M  V30 3898 O 371.163 1.35804 -3.89398 0
M  V30 3899 H 370.504 -0.0255147 -0.66351 0
M  V30 3900 H 373.034 -0.698561 -1.92305 0
M  V30 3901 H 373.044 0.515007 -4.04737 0
M  V30 3902 H 371.719 -0.635636 -4.11014 0
M  V30 3903 H 370.296 1.11113 -3.55961 0
M  V30 3904 N 372.481 1.55866 -0.233164 0
M  V30 3905 C 373.444 2.1953 0.658715 0
M  V30 3906 C 374.444 1.16053 1.11303 0
M  V30 3907 O 375.634 1.41218 1.01996 0
M  V30 3908 C 372.766 2.82791 1.90373 0
M  V30 3909 H 373.959 2.99721 0.10347 0
M  V30 3910 H 371.512 1.56291 0.0164245 0
M  V30 3911 H 372.247 2.06501 2.50056 0
M  V30 3912 H 372.032 3.58578 1.58632 0
M  V30 3913 H 373.522 3.31556 2.53891 0
M  V30 3914 N 373.959 -0.0401083 1.57549 0
M  V30 3915 C 375.187 -0.745196 1.93014 0
M  V30 3916 C 375.602 -1.6948 0.831984 0
M  V30 3917 O 374.959 -1.81482 -0.192463 0
M  V30 3918 C 375.01 -1.51176 3.28372 0
M  V30 3919 O 374.731 -0.600284 4.33968 0
M  V30 3920 C 376.232 -2.315 3.78051 0
M  V30 3921 H 373.452 -0.210088 0.637263 0
M  V30 3922 H 375.996 -0.000924689 2.045 0
M  V30 3923 H 374.151 -2.20801 3.18317 0
M  V30 3924 H 374.565 -1.13669 5.12035 0
M  V30 3925 H 376.039 -2.80697 4.75303 0
M  V30 3926 H 376.516 -3.12436 3.08675 0
M  V30 3927 H 377.122 -1.66971 3.91153 0
M  V30 3928 N 375.437 -1.54477 -0.31217 0
M  V30 3929 C 376.387 -1.81037 -1.38598 0
M  V30 3930 C 377.371 -0.666941 -1.46426 0
M  V30 3931 O 378.563 -0.927269 -1.50767 0
M  V30 3932 C 375.692 -2.05127 -2.75277 0
M  V30 3933 C 374.778 -3.25624 -2.71716 0
M  V30 3934 N 375.169 -4.46428 -2.37773 0
M  V30 3935 C 373.467 -3.27427 -3.02833 0
M  V30 3936 C 374.168 -5.28406 -2.43232 0
M  V30 3937 N 373.144 -4.6586 -2.80135 0
M  V30 3938 H 376.946 -2.7201 -1.11301 0
M  V30 3939 H 374.46 -1.53826 -0.520705 0
M  V30 3940 H 376.457 -2.22299 -3.52688 0
M  V30 3941 H 375.117 -1.15416 -3.03495 0
M  V30 3942 H 376.128 -4.73227 -2.1042 0
M  V30 3943 H 372.805 -2.47786 -3.36018 0
M  V30 3944 H 374.195 -6.34903 -2.19882 0
M  V30 3945 N 376.915 0.57481 -1.46744 0
M  V30 3946 C 378.331 0.898981 -1.31873 0
M  V30 3947 C 378.531 1.99313 -0.29605 0
M  V30 3948 O 377.587 2.50728 0.298621 0
M  V30 3949 C 378.9 1.30886 -2.7072 0
M  V30 3950 C 380.448 1.42127 -2.78871 0
M  V30 3951 C 380.923 1.86478 -4.18318 0
M  V30 3952 N 382.414 1.93658 -4.20774 0
M  V30 3953 C 383.149 2.29267 -5.2557 0
M  V30 3954 N 382.645 2.63612 -6.40688 0
M  V30 3955 N 384.438 2.29889 -5.1294 0
M  V30 3956 H 376.589 -0.147839 -2.11885 0
M  V30 3957 H 378.852 -0.00347013 -0.947994 0
M  V30 3958 H 378.558 0.578853 -3.46904 0
M  V30 3959 H 378.432 2.26874 -3.01343 0
M  V30 3960 H 380.819 2.14213 -2.0297 0
M  V30 3961 H 380.9 0.443705 -2.51922 0
M  V30 3962 H 380.544 1.14968 -4.94717 0
M  V30 3963 H 380.474 2.85207 -4.42679 0
M  V30 3964 H 382.965 1.69574 -3.37718 0
M  V30 3965 H 383.278 2.89759 -7.16421 0
M  V30 3966 H 381.623 2.61232 -6.44036 0
M  V30 3967 H 384.814 2.02485 -4.22039 0
M  V30 3968 H 384.987 2.57312 -5.94722 0
M  V30 3969 N 378.394 1.34581 0.820102 0
M  V30 3970 C 379.624 1.29991 1.6058 0
M  V30 3971 C 380.032 -0.127588 1.88769 0
M  V30 3972 O 379.375 -1.08595 1.48165 0
M  V30 3973 C 379.437 2.02548 2.9701 0
M  V30 3974 C 379.101 3.51794 2.91701 0
M  V30 3975 C 380.098 4.46647 2.66087 0
M  V30 3976 C 377.783 3.94249 3.11245 0
M  V30 3977 C 379.777 5.81929 2.60071 0
M  V30 3978 C 377.464 5.2963 3.04853 0
M  V30 3979 C 378.462 6.23282 2.793 0
M  V30 3980 O 378.15 7.56181 2.72847 0
M  V30 3981 H 377.882 0.448539 0.505756 0
M  V30 3982 H 380.436 1.77811 1.02822 0
M  V30 3983 H 378.666 1.49345 3.56697 0
M  V30 3984 H 380.355 1.91211 3.58041 0
M  V30 3985 H 381.121 4.15168 2.5072 0
M  V30 3986 H 377 3.21749 3.30149 0
M  V30 3987 H 380.544 6.54999 2.40046 0
M  V30 3988 H 376.441 5.60727 3.19774 0
M  V30 3989 H 377.209 7.6595 2.88553 0
M  V30 3990 N 379.872 -1.04064 1.18357 0
M  V30 3991 C 380.819 -2.12077 0.910603 0
M  V30 3992 C 381.789 -1.65421 -0.15 0
M  V30 3993 O 382.974 -1.90797 -0.0103614 0
M  V30 3994 C 380.114 -3.42252 0.442472 0
M  V30 3995 C 379.227 -4.0252 1.5685 0
M  V30 3996 C 378.362 -5.20657 1.05309 0
M  V30 3997 C 377.401 -5.72955 2.1538 0
M  V30 3998 N 376.538 -6.8238 1.65233 0
M  V30 3999 H 381.378 -2.34764 1.83548 0
M  V30 4000 H 378.915 -1.15157 0.915279 0
M  V30 4001 H 380.873 -4.16921 0.152534 0
M  V30 4002 H 379.503 -3.19712 -0.445428 0
M  V30 4003 H 378.555 -3.25178 1.97391 0
M  V30 4004 H 379.867 -4.37362 2.39824 0
M  V30 4005 H 379.021 -6.0244 0.717677 0
M  V30 4006 H 377.76 -4.87318 0.19293 0
M  V30 4007 H 376.765 -4.89793 2.49766 0
M  V30 4008 H 377.99 -6.08337 3.01832 0
M  V30 4009 H 375.936 -6.50917 0.815064 0
M  V30 4010 H 375.853 -7.16286 2.41805 0
M  V30 4011 H 377.121 -7.67788 1.34619 0
M  V30 4012 N 381.35 -0.985608 -1.22978 0
M  V30 4013 C 382.297 -0.529825 -2.24636 0
M  V30 4014 C 383.267 0.434028 -1.60329 0
M  V30 4015 O 384.452 0.340414 -1.87739 0
M  V30 4016 C 381.592 0.156533 -3.44745 0
M  V30 4017 C 380.705 -0.848197 -4.23591 0
M  V30 4018 C 379.84 -0.136109 -5.31026 0
M  V30 4019 C 378.879 -1.1297 -6.01585 0
M  V30 4020 N 378.016 -0.446415 -7.00679 0
M  V30 4021 H 382.856 -1.40148 -2.62988 0
M  V30 4022 H 380.393 -0.702168 -1.29259 0
M  V30 4023 H 382.351 0.571324 -4.1327 0
M  V30 4024 H 380.981 0.992025 -3.07179 0
M  V30 4025 H 380.033 -1.38135 -3.54433 0
M  V30 4026 H 381.345 -1.60512 -4.72268 0
M  V30 4027 H 380.499 0.335784 -6.0577 0
M  V30 4028 H 379.238 0.653373 -4.83304 0
M  V30 4029 H 378.243 -1.6123 -5.25628 0
M  V30 4030 H 379.468 -1.91993 -6.51395 0
M  V30 4031 H 377.414 0.323763 -6.55201 0
M  V30 4032 H 377.331 -1.1419 -7.47326 0
M  V30 4033 H 378.599 0.00291697 -7.795 0
M  V30 4034 N 382.828 1.3818 -0.7579 0
M  V30 4035 C 383.775 2.30416 -0.133057 0
M  V30 4036 C 384.745 1.50398 0.704957 0
M  V30 4037 O 385.93 1.79014 0.660192 0
M  V30 4038 C 383.07 3.36834 0.750813 0
M  V30 4039 C 382.183 4.31879 -0.102297 0
M  V30 4040 C 381.318 5.25368 0.784979 0
M  V30 4041 C 380.357 6.12058 -0.0715046 0
M  V30 4042 N 379.494 6.97832 0.772972 0
M  V30 4043 H 384.334 2.83274 -0.925186 0
M  V30 4044 H 381.871 1.39461 -0.467866 0
M  V30 4045 H 383.829 3.97145 1.27794 0
M  V30 4046 H 382.459 2.85374 1.50868 0
M  V30 4047 H 381.511 3.72991 -0.747095 0
M  V30 4048 H 382.823 4.92921 -0.763552 0
M  V30 4049 H 381.977 5.90818 1.37911 0
M  V30 4050 H 380.716 4.64703 1.47996 0
M  V30 4051 H 379.721 5.456 -0.678272 0
M  V30 4052 H 380.946 6.74793 -0.763606 0
M  V30 4053 H 378.892 6.3971 1.45282 0
M  V30 4054 H 378.809 7.55812 0.168709 0
M  V30 4055 H 380.077 7.67687 1.35194 0
M  V30 4056 N 384.306 0.507319 1.49211 0
M  V30 4057 C 385.536 -0.0315292 2.06576 0
M  V30 4058 C 385.944 -1.30791 1.36713 0
M  V30 4059 O 385.287 -1.78324 0.441181 0
M  V30 4060 C 385.349 -0.349104 3.57801 0
M  V30 4061 C 385.013 0.830475 4.49391 0
M  V30 4062 C 386.01 1.72271 4.90529 0
M  V30 4063 C 383.695 1.03107 4.91604 0
M  V30 4064 C 385.689 2.79964 5.72625 0
M  V30 4065 C 383.376 2.11116 5.73475 0
M  V30 4066 C 384.374 2.99379 6.1389 0
M  V30 4067 O 384.062 4.05523 6.94123 0
M  V30 4068 H 383.794 0.0201002 0.675701 0
M  V30 4069 H 386.348 0.705737 1.92895 0
M  V30 4070 H 384.578 -1.14005 3.69513 0
M  V30 4071 H 386.267 -0.827319 3.97379 0
M  V30 4072 H 387.033 1.57958 4.58557 0
M  V30 4073 H 382.912 0.353417 4.59643 0
M  V30 4074 H 386.456 3.48884 6.04091 0
M  V30 4075 H 382.353 2.25421 6.0486 0
M  V30 4076 H 383.121 4.02953 7.1244 0
M  V30 4077 N 385.784 -1.5574 0.241426 0
M  V30 4078 C 387.03 -1.99104 -0.385406 0
M  V30 4079 C 387.363 -1.1293 -1.57988 0
M  V30 4080 O 386.638 -0.191449 -1.93555 0
M  V30 4081 C 386.921 -3.51087 -0.800616 0
M  V30 4082 C 386.774 -4.48028 0.398874 0
M  V30 4083 C 388.093 -4.08015 -1.64959 0
M  V30 4084 H 385.212 -0.723848 -0.138614 0
M  V30 4085 H 387.854 -1.86903 0.341642 0
M  V30 4086 H 386.004 -3.61615 -1.4201 0
M  V30 4087 H 387.676 -4.49487 1.03726 0
M  V30 4088 H 385.919 -4.21077 1.04293 0
M  V30 4089 H 386.59 -5.51962 0.0651056 0
M  V30 4090 H 389.066 -4.00555 -1.12672 0
M  V30 4091 H 387.942 -5.14635 -1.90898 0
M  V30 4092 H 388.203 -3.56131 -2.61961 0
M  V30 4093 N 387.262 0.0317525 -1.57568 0
M  V30 4094 C 388.49 0.734949 -1.93407 0
M  V30 4095 C 388.905 1.69036 -0.84096 0
M  V30 4096 O 388.262 1.81582 0.182836 0
M  V30 4097 C 388.313 1.49432 -3.29169 0
M  V30 4098 O 388.034 0.577261 -4.3428 0
M  V30 4099 C 389.535 2.29492 -3.79273 0
M  V30 4100 H 386.755 0.206706 -0.638368 0
M  V30 4101 H 389.299 -0.00992046 -2.04498 0
M  V30 4102 H 387.454 2.1911 -3.19483 0
M  V30 4103 H 387.868 1.10952 -5.1263 0
M  V30 4104 H 389.342 2.78172 -4.76785 0
M  V30 4105 H 389.819 3.10794 -3.10328 0
M  V30 4106 H 390.425 1.64894 -3.92033 0
M  V30 4107 N 388.74 1.54641 0.303973 0
M  V30 4108 C 389.968 1.77768 1.05858 0
M  V30 4109 C 390.383 0.535722 1.8104 0
M  V30 4110 O 389.74 -0.494337 1.75677 0
M  V30 4111 C 389.791 2.9834 2.04146 0
M  V30 4112 O 389.512 4.17736 1.32015 0
M  V30 4113 C 391.013 3.33832 2.91669 0
M  V30 4114 H 388.233 0.592961 0.314067 0
M  V30 4115 H 390.777 2.01583 0.344149 0
M  V30 4116 H 388.932 2.76742 2.71096 0
M  V30 4117 H 389.346 4.85693 1.97998 0
M  V30 4118 H 390.82 4.21448 3.56491 0
M  V30 4119 H 391.297 2.51857 3.59812 0
M  V30 4120 H 391.903 3.57579 2.30254 0
M  V30 4121 N 390.218 -0.567019 1.47046 0
M  V30 4122 C 391.148 -1.68482 1.61667 0
M  V30 4123 C 392.129 -1.6358 0.466418 0
M  V30 4124 O 393.314 -1.81354 0.694574 0
M  V30 4125 C 390.444 -3.07124 1.62148 0
M  V30 4126 C 389.398 -3.26867 2.76301 0
M  V30 4127 C 388.724 -4.66196 2.61849 0
M  V30 4128 C 390.024 -3.13186 4.17986 0
M  V30 4129 H 391.718 -1.56502 2.5524 0
M  V30 4130 H 389.264 -0.751486 1.22836 0
M  V30 4131 H 391.217 -3.8516 1.70968 0
M  V30 4132 H 389.941 -3.2004 0.651287 0
M  V30 4133 H 388.6 -2.51237 2.66975 0
M  V30 4134 H 388.248 -4.75898 1.62879 0
M  V30 4135 H 387.948 -4.80356 3.38425 0
M  V30 4136 H 389.472 -5.46379 2.72584 0
M  V30 4137 H 390.886 -3.81049 4.2834 0
M  V30 4138 H 389.283 -3.3886 4.95272 0
M  V30 4139 H 390.353 -2.10057 4.3704 0
M  V30 4140 N 391.696 -1.35014 -0.812953 0
M  V30 4141 C 392.626 -1.30069 -1.93919 0
M  V30 4142 C 393.607 -0.176275 -1.69184 0
M  V30 4143 O 394.792 -0.370227 -1.90638 0
M  V30 4144 C 391.922 -1.06547 -3.30552 0
M  V30 4145 C 390.876 -2.15561 -3.69753 0
M  V30 4146 C 390.202 -1.77214 -5.04479 0
M  V30 4147 C 391.502 -3.57476 -3.808 0
M  V30 4148 H 393.196 -2.24303 -1.98314 0
M  V30 4149 H 390.742 -1.07977 -0.952736 0
M  V30 4150 H 392.695 -1.01729 -4.08937 0
M  V30 4151 H 391.419 -0.0875719 -3.26483 0
M  V30 4152 H 390.078 -2.19466 -2.9365 0
M  V30 4153 H 389.726 -0.780589 -4.96906 0
M  V30 4154 H 389.426 -2.50184 -5.31678 0
M  V30 4155 H 390.95 -1.7391 -5.8531 0
M  V30 4156 H 392.364 -3.55929 -4.4943 0
M  V30 4157 H 390.761 -4.29152 -4.19462 0
M  V30 4158 H 391.831 -3.94091 -2.82525 0
M  V30 4159 N 393.175 1.03435 -1.18907 0
M  V30 4160 C 394.405 1.8012 -1.01195 0
M  V30 4161 C 394.813 1.8395 0.442613 0
M  V30 4162 O 394.156 1.27836 1.31923 0
M  V30 4163 C 394.218 3.26792 -1.49823 0
M  V30 4164 C 393.882 3.46609 -2.97844 0
M  V30 4165 C 394.879 3.37278 -3.95651 0
M  V30 4166 C 392.564 3.73001 -3.36416 0
M  V30 4167 C 394.558 3.54054 -5.30023 0
M  V30 4168 C 392.245 3.89423 -4.70949 0
M  V30 4169 C 393.243 3.79951 -5.67562 0
M  V30 4170 O 392.931 3.95895 -6.99659 0
M  V30 4171 H 392.663 0.573865 -0.357289 0
M  V30 4172 H 395.217 1.31207 -1.58031 0
M  V30 4173 H 393.447 3.76703 -0.873578 0
M  V30 4174 H 395.136 3.85055 -1.28404 0
M  V30 4175 H 395.902 3.16846 -3.67197 0
M  V30 4176 H 391.781 3.79469 -2.61772 0
M  V30 4177 H 395.325 3.46577 -6.05417 0
M  V30 4178 H 391.222 4.09351 -4.99101 0
M  V30 4179 H 391.99 4.13019 -7.06653 0
M  V30 4180 N 394.653 0.992116 1.22453 0
M  V30 4181 C 395.6 0.541731 2.24352 0
M  V30 4182 C 396.57 -0.425519 1.60557 0
M  V30 4183 O 397.755 -0.330453 1.87917 0
M  V30 4184 C 394.895 -0.138248 3.44823 0
M  V30 4185 C 394.008 0.870649 4.23136 0
M  V30 4186 C 393.143 0.164269 5.30946 0
M  V30 4187 C 392.182 1.16159 6.00977 0
M  V30 4188 N 391.319 0.483568 7.00433 0
M  V30 4189 H 396.159 1.41541 2.62241 0
M  V30 4190 H 393.696 0.709013 1.28885 0
M  V30 4191 H 395.654 -0.5494 4.13567 0
M  V30 4192 H 394.284 -0.975721 3.077 0
M  V30 4193 H 393.336 1.40013 3.53696 0
M  V30 4194 H 394.648 1.63014 4.7141 0
M  V30 4195 H 393.802 -0.303653 6.0594 0
M  V30 4196 H 392.541 -0.627733 4.83643 0
M  V30 4197 H 391.546 1.64015 5.24766 0
M  V30 4198 H 392.771 1.95445 6.50368 0
M  V30 4199 H 390.717 -0.289012 6.55363 0
M  V30 4200 H 390.634 1.18152 7.4671 0
M  V30 4201 H 391.902 0.0384219 7.79491 0
M  V30 4202 N 396.131 -1.37776 0.765217 0
M  V30 4203 C 397.542 -1.82521 0.392819 0
M  V30 4204 C 397.893 -1.63789 -1.08017 0
M  V30 4205 O 397.018 -1.14542 -1.83601 0
M  V30 4206 C 397.613 -3.31358 0.706214 0
M  V30 4207 C 396.172 -3.74406 0.386952 0
M  V30 4208 C 395.319 -2.60394 0.953422 0
M  V30 4209 H 398.27 -1.2634 0.960412 0
M  V30 4210 H 398.291 -3.80498 -0.0114706 0
M  V30 4211 H 397.803 -3.44959 1.77833 0
M  V30 4212 H 395.904 -3.66377 -0.678112 0
M  V30 4213 H 396.017 -4.70749 0.890636 0
M  V30 4214 H 394.381 -2.51878 0.378064 0
M  V30 4215 H 395.164 -2.76791 2.03081 0
M  V30 4216 N 397.609 -0.515225 -1.4894 0
M  V30 4217 C 398.858 0.0261361 -2.01683 0
M  V30 4218 C 399.171 1.36719 -1.39883 0
M  V30 4219 O 400.377 1.99606 -1.84037 0
M  V30 4220 C 398.833 0.0970111 -3.59769 0
M  V30 4221 C 398.441 -1.23825 -4.30548 0
M  V30 4222 C 400.185 0.587981 -4.20408 0
M  V30 4223 C 398.092 -1.12877 -5.80528 0
M  V30 4224 H 397.022 0.0135398 -0.753878 0
M  V30 4225 H 399.673 -0.656787 -1.71343 0
M  V30 4226 H 398.055 0.844694 -3.86886 0
M  V30 4227 H 399.229 -2.00034 -4.15118 0
M  V30 4228 H 397.544 -1.66379 -3.81716 0
M  V30 4229 H 400.141 0.68763 -5.3026 0
M  V30 4230 H 400.484 1.59026 -3.84729 0
M  V30 4231 H 401.017 -0.103582 -3.97665 0
M  V30 4232 H 397.756 -2.10575 -6.20756 0
M  V30 4233 H 397.276 -0.407799 -5.98412 0
M  V30 4234 H 398.955 -0.813332 -6.41868 0
M  V30 4235 O 399.126 1.56684 -0.391475 0
M  V30 4236 H 399.817 1.93093 0.153177 0
M  V30 END ATOM
M  V30 BEGIN BOND
M  V30 END BOND
M  V30 END CTAB
M  END
$$$$
