drugbank_target|Q93LE9 Peptide deformylase (DB04310)
 OpenBabel12092120423D

  0  0  0     0  0            999 V3000
M  V30 BEGIN CTAB
M  V30 COUNTS 2855 2883 0 0 0
M  V30 BEGIN ATOM
M  V30 1 H -0.908 1.98254 -0.117106 0
M  V30 2 N 0 1.576 0 0
M  V30 3 C 0.933 2.03868 1.02534 0
M  V30 4 C 1.911 0.928543 1.3348 0
M  V30 5 O 3.095 1.19667 1.45644 0
M  V30 6 C 0.222 2.43627 2.35294 0
M  V30 7 C -0.732 3.65373 2.2001 0
M  V30 8 S 0.101 5.13292 1.52614 0
M  V30 9 C 1.257 5.56322 2.86805 0
M  V30 10 H 1.49 2.90518 0.631377 0
M  V30 11 H -0.977 1.52953 0.210867 0
M  V30 12 H 0.981 2.67203 3.11629 0
M  V30 13 H -0.358 1.57376 2.7183 0
M  V30 14 H -1.165 3.90944 3.18086 0
M  V30 15 H -1.563 3.418 1.51819 0
M  V30 16 H 0.729 5.58782 3.83104 0
M  V30 17 H 1.672 6.56266 2.65933 0
M  V30 18 H 2.08 4.83886 2.90714 0
M  V30 19 N 1.4781 -0.272755 1.55222 0
M  V30 20 C 2.7031 -1.02683 1.80197 0
M  V30 21 C 3.1281 -1.79142 0.573551 0
M  V30 22 O 2.4861 -1.74917 -0.476849 0
M  V30 23 C 2.5341 -1.9609 3.02624 0
M  V30 24 O 1.6381 -3.04863 2.77727 0
M  V30 25 H 0.9791 -0.293557 0.595584 0
M  V30 26 H 3.5091 -0.30159 2.02365 0
M  V30 27 H 3.5191 -2.38039 3.31363 0
M  V30 28 H 2.1941 -1.39851 3.91682 0
M  V30 29 H 0.7711 -2.67228 2.60084 0
M  V30 30 N 2.9562 -1.48159 -0.537278 0
M  V30 31 C 4.2022 -1.56035 -1.29541 0
M  V30 32 C 4.5352 -0.230377 -1.92829 0
M  V30 33 O 3.8102 0.762952 -1.78911 0
M  V30 34 C 4.0932 -2.69323 -2.39034 0
M  V30 35 C 3.9462 -4.12002 -1.80485 0
M  V30 36 C 5.2652 -2.78408 -3.40847 0
M  V30 37 H 2.3842 -0.567992 -0.469632 0
M  V30 38 H 5.0262 -1.80302 -0.599277 0
M  V30 39 H 3.1762 -2.48763 -2.98412 0
M  V30 40 H 4.8482 -4.43981 -1.25215 0
M  V30 41 H 3.0912 -4.19344 -1.11055 0
M  V30 42 H 3.7622 -4.87077 -2.59731 0
M  V30 43 H 6.2382 -2.97012 -2.91416 0
M  V30 44 H 5.1142 -3.59416 -4.14863 0
M  V30 45 H 5.3752 -1.86269 -4.00944 0
M  V30 46 N 4.4343 0.785586 -1.36625 0
M  V30 47 C 5.8503 1.08419 -1.17122 0
M  V30 48 C 6.0503 2.015 0.00208491 0
M  V30 49 O 5.1063 2.43551 0.666278 0
M  V30 50 C 6.4193 1.69498 -2.48377 0
M  V30 51 C 7.9673 1.81821 -2.54775 0
M  V30 52 C 8.4423 2.46315 -3.86126 0
M  V30 53 N 9.9333 2.53779 -3.87492 0
M  V30 54 C 10.6683 3.045 -4.85868 0
M  V30 55 N 10.1643 3.55499 -5.94637 0
M  V30 56 N 11.9573 3.03247 -4.73284 0
M  V30 57 H 4.1083 0.167264 -2.1174 0
M  V30 58 H 6.3713 0.13682 -0.938075 0
M  V30 59 H 6.0773 1.08571 -3.34522 0
M  V30 60 H 5.9513 2.6896 -2.64462 0
M  V30 61 H 8.3383 2.41884 -1.69045 0
M  V30 62 H 8.4193 0.811532 -2.42586 0
M  V30 63 H 8.0633 1.86895 -4.72263 0
M  V30 64 H 7.9933 3.47561 -3.95612 0
M  V30 65 H 10.4843 2.17672 -3.08913 0
M  V30 66 H 10.7973 3.92562 -6.65669 0
M  V30 67 H 9.1423 3.5364 -5.98301 0
M  V30 68 H 12.3333 2.62696 -3.87438 0
M  V30 69 H 12.5063 3.42467 -5.50109 0
M  V30 70 N 5.9124 1.20967 1.01018 0
M  V30 71 C 6.8594 0.964281 2.09691 0
M  V30 72 C 7.8294 -0.107853 1.65749 0
M  V30 73 O 9.0144 0.0381987 1.90762 0
M  V30 74 C 6.1544 0.52943 3.41015 0
M  V30 75 C 5.2674 1.67043 3.98398 0
M  V30 76 C 4.4024 1.18525 5.17808 0
M  V30 77 C 3.4414 2.29892 5.67288 0
M  V30 78 N 2.5784 1.82546 6.77954 0
M  V30 79 H 7.4184 1.89463 2.30017 0
M  V30 80 H 4.9554 0.944289 1.1279 0
M  V30 81 H 6.9134 0.258588 4.16398 0
M  V30 82 H 5.5434 -0.363919 3.20742 0
M  V30 83 H 4.5954 2.05603 3.20049 0
M  V30 84 H 5.9074 2.50877 4.31117 0
M  V30 85 H 5.0614 0.870762 6.00419 0
M  V30 86 H 3.8004 0.316887 4.86669 0
M  V30 87 H 2.8054 2.6215 4.83278 0
M  V30 88 H 4.0304 3.17216 6.00459 0
M  V30 89 H 1.9764 0.980454 6.48632 0
M  V30 90 H 1.8934 2.59956 7.09901 0
M  V30 91 H 3.1614 1.54115 7.64113 0
M  V30 92 N 7.3905 -1.2043 1.01659 0
M  V30 93 C 8.6395 -1.89118 0.701237 0
M  V30 94 C 8.9525 -1.79705 -0.772358 0
M  V30 95 O 10.1585 -2.43528 -1.20026 0
M  V30 96 C 8.6145 -3.39168 1.20388 0
M  V30 97 C 8.2225 -3.57166 2.70438 0
M  V30 98 C 9.9665 -4.1341 0.963953 0
M  V30 99 C 7.8735 -5.01042 3.14183 0
M  V30 100 H 6.8035 -0.708267 0.2586 0
M  V30 101 H 9.4545 -1.36239 1.22927 0
M  V30 102 H 7.8365 -3.91369 0.603824 0
M  V30 103 H 9.0105 -3.15351 3.35992 0
M  V30 104 H 7.3255 -2.96294 2.92572 0
M  V30 105 H 9.9225 -5.19491 1.26621 0
M  V30 106 H 10.2655 -4.16181 -0.099578 0
M  V30 107 H 10.7985 -3.67309 1.52738 0
M  V30 108 H 7.5375 -5.03426 4.19812 0
M  V30 109 H 7.0575 -5.43668 2.53348 0
M  V30 110 H 8.7365 -5.69623 3.0682 0
M  V30 111 N 8.8686 -0.792821 -1.36206 0
M  V30 112 C 9.7986 -0.207853 -2.32573 0
M  V30 113 C 10.7796 0.659055 -1.56813 0
M  V30 114 O 11.9646 0.592176 -1.84951 0
M  V30 115 C 9.0946 0.655449 -3.41059 0
M  V30 116 C 8.0486 -0.111842 -4.27854 0
M  V30 117 C 7.3746 0.872274 -5.27537 0
M  V30 118 C 8.6746 -1.30299 -5.05786 0
M  V30 119 H 10.3686 -1.01294 -2.81744 0
M  V30 120 H 7.9146 -0.48854 -1.3546 0
M  V30 121 H 9.8676 1.07464 -4.07467 0
M  V30 122 H 8.5916 1.49328 -2.90463 0
M  V30 123 H 7.2506 -0.512053 -3.63006 0
M  V30 124 H 6.8986 1.70523 -4.73214 0
M  V30 125 H 6.5986 0.363291 -5.86476 0
M  V30 126 H 8.1226 1.28996 -5.96818 0
M  V30 127 H 9.5366 -0.959379 -5.65216 0
M  V30 128 H 7.9336 -1.7455 -5.74154 0
M  V30 129 H 9.0036 -2.09663 -4.37229 0
M  V30 130 N 10.3467 1.47872 -0.545128 0
M  V30 131 C 11.7627 1.5829 -0.204032 0
M  V30 132 C 11.9627 1.54529 1.29317 0
M  V30 133 O 11.0187 1.44232 2.07252 0
M  V30 134 C 12.3317 2.89304 -0.819987 0
M  V30 135 C 13.8797 3.02864 -0.790105 0
M  V30 136 C 14.3547 4.3656 -1.38491 0
M  V30 137 N 15.8457 4.43165 -1.34755 0
M  V30 138 C 16.5807 5.45153 -1.77753 0
M  V30 139 N 16.0767 6.54016 -2.2855 0
M  V30 140 N 17.8697 5.36125 -1.68897 0
M  V30 141 H 10.0207 1.4856 -1.51802 0
M  V30 142 H 12.2837 0.706305 -0.632327 0
M  V30 143 H 11.9897 2.97757 -1.87173 0
M  V30 144 H 11.8637 3.75957 -0.305915 0
M  V30 145 H 14.2507 2.94014 0.252913 0
M  V30 146 H 14.3317 2.17782 -1.34181 0
M  V30 147 H 13.9757 4.46164 -2.42693 0
M  V30 148 H 13.9057 5.20353 -0.808754 0
M  V30 149 H 16.3967 3.65083 -0.975855 0
M  V30 150 H 16.7097 7.27994 -2.59314 0
M  V30 151 H 15.0547 6.54938 -2.32553 0
M  V30 152 H 18.2457 4.49975 -1.28998 0
M  V30 153 H 18.4187 6.15472 -2.02726 0
M  V30 154 N 11.8248 0.280983 1.55075 0
M  V30 155 C 12.7578 -0.645439 2.18882 0
M  V30 156 C 13.7358 -1.14786 1.15165 0
M  V30 157 O 14.9198 -1.21975 1.43716 0
M  V30 158 C 12.0468 -1.88088 2.81674 0
M  V30 159 C 11.0928 -1.51343 3.98745 0
M  V30 160 S 11.9258 -0.586548 5.32278 0
M  V30 161 C 13.0818 -1.83024 5.98543 0
M  V30 162 H 13.3148 -0.1033 2.9712 0
M  V30 163 H 10.8478 0.0652099 1.54262 0
M  V30 164 H 12.8058 -2.58997 3.18482 0
M  V30 165 H 11.4668 -2.39417 2.03318 0
M  V30 166 H 10.6598 -2.43289 4.41392 0
M  V30 167 H 10.2618 -0.884477 3.63391 0
M  V30 168 H 12.5538 -2.77342 6.18133 0
M  V30 169 H 13.4968 -1.44668 6.93164 0
M  V30 170 H 13.9048 -1.99785 5.27964 0
M  V30 171 N 13.3029 -1.57598 0.00835791 0
M  V30 172 C 14.5509 -1.90551 -0.6734 0
M  V30 173 C 14.8719 -0.883301 -1.73847 0
M  V30 174 O 14.1419 0.0781442 -1.95744 0
M  V30 175 H 12.7219 -0.703312 -0.251717 0
M  V30 176 H 15.3839 -1.94833 0.0512592 0
M  V30 177 H 14.4799 -2.9056 -1.13935 0
M  V30 178 N 14.781 0.264519 -1.55364 0
M  V30 179 C 16.058 1.01677 -1.67096 0
M  V30 180 C 16.438 2.03996 -0.543015 0
M  V30 181 O 15.786 2.23907 0.45585 0
M  V30 182 C 15.996 1.66596 -3.0667 0
M  V30 183 C 17.344 2.17442 -3.64697 0
M  V30 184 O 18.368 1.76568 -3.09358 0
M  V30 185 O 17.227 2.92439 -4.61673 0
M  V30 186 H 14.321 0.472161 -0.678965 0
M  V30 187 H 16.867 0.259703 -1.67701 0
M  V30 188 H 15.639 0.924962 -3.80211 0
M  V30 189 H 15.262 2.48968 -3.10001 0
M  V30 190 N 16.2591 1.48442 0.529413 0
M  V30 191 C 17.6701 1.5002 1.11134 0
M  V30 192 C 18.0211 0.27031 1.94329 0
M  V30 193 O 17.1461 -0.622507 2.07253 0
M  V30 194 C 17.7411 2.71834 2.02217 0
M  V30 195 C 16.3001 2.76283 2.55627 0
M  V30 196 C 15.4471 2.43542 1.326 0
M  V30 197 H 18.3981 1.5555 0.314641 0
M  V30 198 H 18.4191 2.50384 2.8651 0
M  V30 199 H 17.9311 3.61331 1.41639 0
M  V30 200 H 16.0321 1.90995 3.19924 0
M  V30 201 H 16.1451 3.77725 2.94721 0
M  V30 202 H 14.5091 1.94709 1.64196 0
M  V30 203 H 15.2921 3.3528 0.737734 0
M  V30 204 N 17.7372 -0.778329 1.37039 0
M  V30 205 C 18.9862 -1.53189 1.3121 0
M  V30 206 C 19.2992 -1.95328 -0.103095 0
M  V30 207 O 20.5052 -2.70012 -0.283826 0
M  V30 208 C 18.9612 -2.76591 2.30272 0
M  V30 209 C 18.5692 -2.41577 3.77286 0
M  V30 210 C 20.3132 -3.5455 2.33441 0
M  V30 211 C 18.2202 -3.61441 4.68096 0
M  V30 212 H 17.1502 -0.5751 0.487622 0
M  V30 213 H 19.8012 -0.853101 1.62464 0
M  V30 214 H 18.1832 -3.46326 1.92027 0
M  V30 215 H 19.3572 -1.79668 4.2433 0
M  V30 216 H 17.6722 -1.76806 3.76999 0
M  V30 217 H 20.2692 -4.43628 2.98493 0
M  V30 218 H 20.6122 -3.93936 1.34611 0
M  V30 219 H 21.1452 -2.91805 2.7036 0
M  V30 220 H 17.8842 -3.27142 5.6803 0
M  V30 221 H 17.4042 -4.22478 4.25761 0
M  V30 222 H 19.0832 -4.28335 4.8491 0
M  V30 223 N 19.2153 -1.21501 -1.00376 0
M  V30 224 C 20.1453 -0.999478 -2.11028 0
M  V30 225 C 21.1263 0.0759671 -1.6993 0
M  V30 226 O 22.3113 -0.0841106 -1.94018 0
M  V30 227 C 19.4413 -0.564709 -3.42678 0
M  V30 228 C 18.3953 -1.58486 -3.97576 0
M  V30 229 C 17.7213 -1.00628 -5.25146 0
M  V30 230 C 19.0213 -2.97204 -4.29496 0
M  V30 231 H 20.7153 -1.92495 -2.29317 0
M  V30 232 H 18.2613 -0.92693 -1.102 0
M  V30 233 H 20.2143 -0.401091 -4.19487 0
M  V30 234 H 18.9383 0.396411 -3.24185 0
M  V30 235 H 17.5973 -1.73606 -3.22888 0
M  V30 236 H 17.2453 -0.0368439 -5.02987 0
M  V30 237 H 16.9453 -1.68771 -5.62841 0
M  V30 238 H 18.4693 -0.854015 -6.04598 0
M  V30 239 H 19.8833 -2.8552 -4.97143 0
M  V30 240 H 18.2803 -3.62372 -4.78338 0
M  V30 241 H 19.3503 -3.47956 -3.3772 0
M  V30 242 N 20.6934 1.19889 -1.02296 0
M  V30 243 C 22.1094 1.41462 -0.738954 0
M  V30 244 C 22.3094 1.89721 0.678846 0
M  V30 245 O 21.3654 2.07016 1.4457 0
M  V30 246 C 22.6784 2.43083 -1.77005 0
M  V30 247 C 24.2264 2.5684 -1.78892 0
M  V30 248 C 24.7014 3.61709 -2.80945 0
M  V30 249 N 26.1924 3.69199 -2.79725 0
M  V30 250 C 26.9274 4.50019 -3.55345 0
M  V30 251 N 26.4234 5.34592 -4.40662 0
M  V30 252 N 28.2164 4.44612 -3.43914 0
M  V30 253 H 20.3674 0.868827 -1.93817 0
M  V30 254 H 22.6304 0.44399 -0.837602 0
M  V30 255 H 22.3364 2.14636 -2.78612 0
M  V30 256 H 22.2104 3.4217 -1.58744 0
M  V30 257 H 24.5974 2.84614 -0.779674 0
M  V30 258 H 24.6784 1.57927 -2.01228 0
M  V30 259 H 24.3224 3.34678 -3.82038 0
M  V30 260 H 24.2524 4.60259 -2.5587 0
M  V30 261 H 26.7434 3.08794 -2.17842 0
M  V30 262 H 27.0564 5.93363 -4.95116 0
M  V30 263 H 25.4014 5.34073 -4.44737 0
M  V30 264 H 28.5924 3.7758 -2.76679 0
M  V30 265 H 28.7654 5.0736 -4.031 0
M  V30 266 N 22.1715 0.800033 1.35784 0
M  V30 267 C 23.1185 0.203848 2.29898 0
M  V30 268 C 24.0885 -0.658375 1.52495 0
M  V30 269 O 25.2735 -0.604832 1.8096 0
M  V30 270 C 22.4135 -0.64688 3.38983 0
M  V30 271 C 21.5265 0.235054 4.3136 0
M  V30 272 C 20.6615 -0.623054 5.27533 0
M  V30 273 C 19.7005 0.259682 6.11549 0
M  V30 274 N 18.8375 -0.558019 6.99879 0
M  V30 275 H 23.6775 1.01186 2.80295 0
M  V30 276 H 21.2145 0.51053 1.37957 0
M  V30 277 H 23.1725 -1.15521 4.00887 0
M  V30 278 H 21.8025 -1.42021 2.89879 0
M  V30 279 H 20.8545 0.861438 3.70518 0
M  V30 280 H 22.1665 0.914768 4.9034 0
M  V30 281 H 21.3205 -1.19678 5.94779 0
M  V30 282 H 20.0595 -1.33636 4.69034 0
M  V30 283 H 19.0645 0.845726 5.43256 0
M  V30 284 H 20.2895 0.970748 6.72126 0
M  V30 285 H 18.2355 -1.25542 6.43875 0
M  V30 286 H 18.1525 0.0637872 7.55973 0
M  V30 287 H 19.4205 -1.11523 7.71481 0
M  V30 288 N 23.6496 -1.47581 0.552962 0
M  V30 289 C 24.8986 -2.01684 0.0251995 0
M  V30 290 C 25.2116 -1.43317 -1.33115 0
M  V30 291 O 26.4176 -1.89057 -1.94858 0
M  V30 292 C 24.8736 -3.599 -0.00542052 0
M  V30 293 C 24.4816 -4.27257 1.34742 0
M  V30 294 C 26.2256 -4.21768 -0.4808 0
M  V30 295 C 24.1326 -5.77467 1.27614 0
M  V30 296 H 23.0626 -0.753979 0.00565033 0
M  V30 297 H 25.7136 -1.69616 0.70018 0
M  V30 298 H 24.0956 -3.88911 -0.745961 0
M  V30 299 H 25.2696 -4.09893 2.10534 0
M  V30 300 H 23.5846 -3.77358 1.76039 0
M  V30 301 H 26.1816 -5.31838 -0.55246 0
M  V30 302 H 26.5246 -3.88651 -1.49184 0
M  V30 303 H 27.0576 -3.97273 0.204752 0
M  V30 304 H 23.7966 -6.15196 2.26304 0
M  V30 305 H 23.3166 -5.9718 0.55996 0
M  V30 306 H 24.9956 -6.3959 0.976421 0
M  V30 307 N 25.1277 -0.289203 -1.54924 0
M  V30 308 C 26.3527 0.329299 -2.04769 0
M  V30 309 C 26.7777 1.4763 -1.16564 0
M  V30 310 O 26.1357 1.80527 -0.167186 0
M  V30 311 C 26.1837 0.774438 -3.52186 0
M  V30 312 O 25.2877 1.88038 -3.67036 0
M  V30 313 H 24.6287 0.0659259 -0.660719 0
M  V30 314 H 27.1587 -0.42761 -2.00082 0
M  V30 315 H 27.1687 1.06642 -3.93816 0
M  V30 316 H 25.8437 -0.0646707 -4.1585 0
M  V30 317 H 24.4207 1.58985 -3.3731 0
M  V30 318 N 26.6058 1.57591 -0.0167156 0
M  V30 319 C 27.5158 2.1291 0.98521 0
M  V30 320 C 28.5318 1.07834 1.36557 0
M  V30 321 O 29.7078 1.39826 1.44951 0
M  V30 322 C 26.7728 2.63512 2.25305 0
M  V30 323 C 25.8338 3.83256 1.93426 0
M  V30 324 C 25.0668 4.31435 3.14165 0
M  V30 325 O 25.2898 3.78851 4.26413 0
M  V30 326 O 24.2238 5.23416 2.97186 0
M  V30 327 H 28.0498 2.98772 0.544888 0
M  V30 328 H 25.6348 1.48012 0.203141 0
M  V30 329 H 27.5168 2.96183 2.99756 0
M  V30 330 H 26.1918 1.8074 2.68542 0
M  V30 331 H 25.0988 3.55531 1.16398 0
M  V30 332 H 26.4318 4.67153 1.55013 0
M  V30 333 N 28.0839 -0.256276 1.55502 0
M  V30 334 C 29.4949 -0.826068 1.67431 0
M  V30 335 C 29.8459 -1.86396 0.612446 0
M  V30 336 O 28.9709 -2.15031 -0.243025 0
M  V30 337 C 29.5659 -1.50512 3.03532 0
M  V30 338 C 28.1249 -2.02273 3.17431 0
M  V30 339 C 27.2719 -0.870548 2.63281 0
M  V30 340 H 30.2229 -0.0322728 1.58667 0
M  V30 341 H 30.2439 -2.37279 2.97454 0
M  V30 342 H 29.7559 -0.749484 3.80794 0
M  V30 343 H 27.8569 -2.80746 2.44974 0
M  V30 344 H 27.9699 -2.22655 4.24219 0
M  V30 345 H 26.3339 -1.26851 2.20864 0
M  V30 346 H 27.1169 -0.128149 3.43061 0
M  V30 347 N 29.562 -1.4872 -0.521534 0
M  V30 348 C 30.808 -1.574 -1.27879 0
M  V30 349 C 31.141 -0.250817 -1.92573 0
M  V30 350 O 30.416 0.743934 -1.79711 0
M  V30 351 C 30.699 -2.71843 -2.36164 0
M  V30 352 C 30.552 -4.13893 -1.76105 0
M  V30 353 C 31.871 -2.82008 -3.37875 0
M  V30 354 H 28.99 -0.572941 -0.463581 0
M  V30 355 H 31.632 -1.80927 -0.580119 0
M  V30 356 H 29.782 -2.51914 -2.95756 0
M  V30 357 H 31.454 -4.45284 -1.20499 0
M  V30 358 H 29.697 -4.20498 -1.06601 0
M  V30 359 H 30.368 -4.89804 -2.5455 0
M  V30 360 H 32.844 -3.00086 -2.88249 0
M  V30 361 H 31.72 -3.63796 -4.11028 0
M  V30 362 H 31.981 -1.90511 -3.98946 0
M  V30 363 N 31.0401 0.771051 -1.3745 0
M  V30 364 C 32.2681 1.56015 -1.35893 0
M  V30 365 C 32.6831 1.88718 0.0555523 0
M  V30 366 O 32.0401 1.51502 1.01752 0
M  V30 367 C 32.0911 2.87001 -2.19801 0
M  V30 368 O 31.8121 2.557 -3.55738 0
M  V30 369 C 33.3131 3.81228 -2.26231 0
M  V30 370 H 30.5331 0.483317 -0.465453 0
M  V30 371 H 33.0771 0.955611 -1.80799 0
M  V30 372 H 31.2321 3.43877 -1.78402 0
M  V30 373 H 31.6461 3.39584 -3.99729 0
M  V30 374 H 33.1201 4.70139 -2.89263 0
M  V30 375 H 33.5971 4.20409 -1.27093 0
M  V30 376 H 34.2031 3.30281 -2.67945 0
M  V30 377 N 32.5182 1.22032 0.997298 0
M  V30 378 C 33.4282 1.00271 2.12092 0
M  V30 379 C 34.4442 -0.047621 1.73935 0
M  V30 380 O 35.6202 0.144136 2.00884 0
M  V30 381 C 32.6852 0.578449 3.4184 0
M  V30 382 C 31.7462 1.70189 3.94125 0
M  V30 383 C 30.9792 1.29778 5.17681 0
M  V30 384 O 31.2022 0.174676 5.70132 0
M  V30 385 O 30.1362 2.11261 5.63607 0
M  V30 386 H 33.9622 1.94398 2.3333 0
M  V30 387 H 31.5472 1.00587 1.10465 0
M  V30 388 H 33.4292 0.351998 4.19927 0
M  V30 389 H 32.1042 -0.334019 3.21972 0
M  V30 390 H 31.0112 1.98282 3.1723 0
M  V30 391 H 32.3442 2.59206 4.18417 0
M  V30 392 N 33.9963 -1.19345 1.0293 0
M  V30 393 C 35.2733 -1.84811 0.640642 0
M  V30 394 C 35.6533 -1.91855 -0.88062 0
M  V30 395 O 35.0013 -1.43587 -1.7775 0
M  V30 396 C 35.2113 -3.23755 1.30321 0
M  V30 397 C 36.5593 -3.99912 1.42673 0
M  V30 398 O 37.5833 -3.33155 1.26041 0
M  V30 399 O 36.4423 -5.19494 1.6967 0
M  V30 400 H 33.5363 -0.796443 0.222726 0
M  V30 401 H 36.0823 -1.26831 1.12748 0
M  V30 402 H 34.8543 -3.13466 2.34211 0
M  V30 403 H 34.4773 -3.89381 0.804261 0
M  V30 404 N 35.4744 -0.807222 -1.35358 0
M  V30 405 C 36.3844 -0.219594 -2.3357 0
M  V30 406 C 37.4004 0.637734 -1.61892 0
M  V30 407 O 38.5764 0.549336 -1.93763 0
M  V30 408 C 35.6414 0.62158 -3.41083 0
M  V30 409 C 34.7024 -0.256315 -4.28534 0
M  V30 410 C 33.9354 0.544807 -5.30912 0
M  V30 411 O 34.1584 1.77944 -5.41934 0
M  V30 412 O 33.0924 -0.0646478 -6.01865 0
M  V30 413 H 36.9184 -1.03208 -2.85625 0
M  V30 414 H 34.5034 -0.569025 -1.38139 0
M  V30 415 H 36.3854 1.10067 -4.06772 0
M  V30 416 H 35.0604 1.41165 -2.91297 0
M  V30 417 H 33.9674 -0.782559 -3.65823 0
M  V30 418 H 35.3004 -1.01034 -4.81719 0
M  V30 419 N 36.9525 1.47285 -0.560781 0
M  V30 420 C 38.2015 2.01668 -0.035895 0
M  V30 421 C 38.5145 1.44021 1.32353 0
M  V30 422 O 39.7205 1.90088 1.93853 0
M  V30 423 C 38.1765 3.59897 -0.0136659 0
M  V30 424 C 37.7845 4.26536 -1.37006 0
M  V30 425 C 39.5285 4.22017 0.458425 0
M  V30 426 C 37.4355 5.76782 -1.30675 0
M  V30 427 H 36.3655 0.753938 -0.00964879 0
M  V30 428 H 39.0165 1.69243 -0.709166 0
M  V30 429 H 37.3985 3.89301 0.725325 0
M  V30 430 H 38.5725 4.0877 -2.12705 0
M  V30 431 H 36.8875 3.76419 -1.78038 0
M  V30 432 H 39.4845 5.32124 0.524247 0
M  V30 433 H 39.8275 3.89437 1.4712 0
M  V30 434 H 40.3605 3.97159 -0.225818 0
M  V30 435 H 37.0995 6.13988 -2.29564 0
M  V30 436 H 36.6195 5.96875 -0.591622 0
M  V30 437 H 38.2985 6.39063 -1.01033 0
M  V30 438 N 38.4306 0.297415 1.54768 0
M  V30 439 C 39.3626 -0.613881 2.20826 0
M  V30 440 C 40.3756 -1.10032 1.19987 0
M  V30 441 O 41.5646 -1.01839 1.46598 0
M  V30 442 C 38.6646 -1.852 2.83821 0
M  V30 443 C 37.8376 -1.50865 4.10559 0
M  V30 444 C 36.8966 -2.60154 4.57391 0
M  V30 445 O 35.9226 -2.25398 5.2267 0
M  V30 446 N 37.1246 -3.90629 4.29406 0
M  V30 447 H 39.8896 -0.048389 2.99661 0
M  V30 448 H 37.4506 0.11946 1.61459 0
M  V30 449 H 39.4426 -2.57652 3.12086 0
M  V30 450 H 38.0126 -2.32597 2.08847 0
M  V30 451 H 37.2326 -0.616925 3.89343 0
M  V30 452 H 38.5206 -1.25458 4.9309 0
M  V30 453 H 37.9186 -4.21677 3.77101 0
M  V30 454 H 36.4756 -4.59391 4.62388 0
M  V30 455 N 39.9087 -1.5758 0.0250728 0
M  V30 456 C 41.1367 -1.9593 -0.664747 0
M  V30 457 C 41.5517 -0.901352 -1.65895 0
M  V30 458 O 40.9087 0.117255 -1.82123 0
M  V30 459 C 40.9597 -3.34342 -1.37468 0
M  V30 460 O 40.6807 -4.36079 -0.420324 0
M  V30 461 C 42.1817 -3.873 -2.1567 0
M  V30 462 H 39.4017 -0.645405 -0.183557 0
M  V30 463 H 41.9457 -2.04329 0.0836372 0
M  V30 464 H 40.1007 -3.27175 -2.0745 0
M  V30 465 H 40.5147 -5.16297 -0.923991 0
M  V30 466 H 41.9887 -4.86504 -2.60803 0
M  V30 467 H 42.4657 -3.21331 -2.99405 0
M  V30 468 H 43.0717 -3.97723 -1.50654 0
M  V30 469 N 41.3868 0.248026 -1.55636 0
M  V30 470 C 42.3338 1.30707 -1.90222 0
M  V30 471 C 43.3038 1.47881 -0.756332 0
M  V30 472 O 44.4888 1.61883 -1.00988 0
M  V30 473 C 41.6288 2.65769 -2.20138 0
M  V30 474 C 40.7418 2.56612 -3.47526 0
M  V30 475 C 39.8768 3.8402 -3.67017 0
M  V30 476 C 38.9158 3.69476 -4.8801 0
M  V30 477 N 38.0528 4.88774 -5.04029 0
M  V30 478 H 42.8928 1.00512 -2.80538 0
M  V30 479 H 40.4298 0.485055 -1.38873 0
M  V30 480 H 42.3878 3.44386 -2.35487 0
M  V30 481 H 41.0178 2.94115 -1.33027 0
M  V30 482 H 40.0698 1.69571 -3.40514 0
M  V30 483 H 41.3818 2.41774 -4.36287 0
M  V30 484 H 40.5358 4.7108 -3.8232 0
M  V30 485 H 39.2748 4.01754 -2.76487 0
M  V30 486 H 38.2798 2.80799 -4.72686 0
M  V30 487 H 39.5048 3.53238 -5.8 0
M  V30 488 H 37.4508 5.0687 -4.16435 0
M  V30 489 H 37.3678 4.76562 -5.86877 0
M  V30 490 H 38.6358 5.77335 -5.23741 0
M  V30 491 N 42.8649 1.48995 0.513639 0
M  V30 492 C 43.7749 1.67443 1.64317 0
M  V30 493 C 44.7909 0.556947 1.64846 0
M  V30 494 O 45.9669 0.830082 1.83498 0
M  V30 495 C 43.0319 1.72515 3.00732 0
M  V30 496 C 42.0929 2.96009 3.1093 0
M  V30 497 C 41.3259 3.00829 4.40837 0
M  V30 498 O 41.5489 2.13594 5.28898 0
M  V30 499 O 40.4829 3.93168 4.55744 0
M  V30 500 H 44.3089 2.63106 1.51687 0
M  V30 501 H 41.8939 1.32588 0.688543 0
M  V30 502 H 43.7759 1.78277 3.81831 0
M  V30 503 H 42.4509 0.800278 3.13651 0
M  V30 504 H 41.3579 2.9577 2.29065 0
M  V30 505 H 42.6909 3.87934 3.02933 0
M  V30 506 N 44.343 -0.763751 1.37857 0
M  V30 507 C 45.59 -1.52257 1.33506 0
M  V30 508 C 45.918 -1.94343 -0.078022 0
M  V30 509 O 45.173 -1.64958 -1.05297 0
M  V30 510 C 45.472 -2.79499 2.22745 0
M  V30 511 C 45.138 -2.56426 3.70886 0
M  V30 512 C 43.8 -2.49842 4.11257 0
M  V30 513 C 46.152 -2.36008 4.64704 0
M  V30 514 C 43.48 -2.20841 5.43549 0
M  V30 515 C 45.832 -2.0853 5.97242 0
M  V30 516 C 44.496 -2.00396 6.36709 0
M  V30 517 H 43.766 -0.557149 0.488534 0
M  V30 518 H 46.413 -0.879073 1.70131 0
M  V30 519 H 44.718 -3.48447 1.79142 0
M  V30 520 H 46.415 -3.37413 2.16688 0
M  V30 521 H 43.005 -2.62416 3.38874 0
M  V30 522 H 47.189 -2.40079 4.34368 0
M  V30 523 H 42.445 -2.13045 5.73081 0
M  V30 524 H 46.619 -1.91732 6.69486 0
M  V30 525 H 44.246 -1.77688 7.39142 0
M  V30 526 N 45.8211 -1.22559 -0.990812 0
M  V30 527 C 46.7681 -0.997519 -2.0813 0
M  V30 528 C 47.7381 0.0814702 -1.659 0
M  V30 529 O 48.9231 -0.0685424 -1.90677 0
M  V30 530 C 46.0631 -0.583615 -3.40129 0
M  V30 531 C 45.1761 -1.7336 -3.9569 0
M  V30 532 C 44.3111 -1.26748 -5.15857 0
M  V30 533 C 43.3501 -2.38888 -5.63559 0
M  V30 534 N 42.4871 -1.93308 -6.74964 0
M  V30 535 H 47.3271 -1.93099 -2.26973 0
M  V30 536 H 44.8641 -0.962114 -1.11273 0
M  V30 537 H 46.8221 -0.324801 -4.15934 0
M  V30 538 H 45.4521 0.312845 -3.2128 0
M  V30 539 H 44.5041 -2.10669 -3.16738 0
M  V30 540 H 45.8161 -2.57704 -4.27071 0
M  V30 541 H 44.9701 -0.966173 -5.98957 0
M  V30 542 H 43.7091 -0.394272 -4.86104 0
M  V30 543 H 42.7141 -2.69805 -4.79046 0
M  V30 544 H 43.9391 -3.26728 -5.95336 0
M  V30 545 H 41.8851 -1.08352 -6.4699 0
M  V30 546 H 41.8021 -2.71217 -7.05675 0
M  V30 547 H 43.0701 -1.66252 -7.61564 0
M  V30 548 N 47.2992 1.18797 -1.03562 0
M  V30 549 C 48.2462 2.22253 -0.622259 0
M  V30 550 C 49.2162 1.61987 0.36736 0
M  V30 551 O 50.4012 1.88986 0.262492 0
M  V30 552 C 47.5412 3.45097 0.0138462 0
M  V30 553 C 46.6542 4.19722 -1.02263 0
M  V30 554 C 45.7892 5.30009 -0.355573 0
M  V30 555 C 44.8282 5.96399 -1.37749 0
M  V30 556 N 43.9652 6.98234 -0.735766 0
M  V30 557 H 48.8052 2.56968 -1.50903 0
M  V30 558 H 46.3422 1.26245 -0.755017 0
M  V30 559 H 48.3002 4.15279 0.399948 0
M  V30 560 H 46.9302 3.11018 0.864158 0
M  V30 561 H 45.9822 3.48418 -1.52673 0
M  V30 562 H 47.2942 4.65227 -1.79903 0
M  V30 563 H 46.4482 6.0664 0.0850095 0
M  V30 564 H 45.1872 4.85592 0.452967 0
M  V30 565 H 44.1922 5.18512 -1.82826 0
M  V30 566 H 45.4172 6.42899 -2.18764 0
M  V30 567 H 43.3632 6.55979 0.0525597 0
M  V30 568 H 43.2802 7.41965 -1.44995 0
M  V30 569 H 44.5482 7.78845 -0.31941 0
M  V30 570 N 48.7773 0.814389 1.34928 0
M  V30 571 C 49.7073 0.244827 2.32213 0
M  V30 572 C 50.6883 -0.634024 1.57842 0
M  V30 573 O 51.8733 -0.562676 1.8587 0
M  V30 574 C 49.0033 -0.601106 3.42058 0
M  V30 575 C 47.9573 0.179896 4.27622 0
M  V30 576 C 47.2833 -0.788237 5.28858 0
M  V30 577 C 48.5833 1.38329 5.03649 0
M  V30 578 H 50.2773 1.05763 2.80097 0
M  V30 579 H 47.8233 0.510029 1.34665 0
M  V30 580 H 49.7763 -1.00968 4.09125 0
M  V30 581 H 48.5003 -1.44688 2.92802 0
M  V30 582 H 47.1593 0.569739 3.62146 0
M  V30 583 H 46.8073 -1.62973 4.75866 0
M  V30 584 H 46.5073 -0.269942 5.8698 0
M  V30 585 H 48.0313 -1.19485 5.98795 0
M  V30 586 H 49.4453 1.04918 5.63618 0
M  V30 587 H 47.8423 1.83662 5.71304 0
M  V30 588 H 48.9123 2.16592 4.33839 0
M  V30 589 N 50.2554 -1.46986 0.568584 0
M  V30 590 C 51.5044 -2.01646 0.0465894 0
M  V30 591 C 51.8174 -1.44721 -1.31587 0
M  V30 592 O 53.0234 -1.91113 -1.92842 0
M  V30 593 C 51.4794 -3.59885 0.032752 0
M  V30 594 C 51.0874 -4.25804 1.39266 0
M  V30 595 C 52.8314 -4.22255 -0.436038 0
M  V30 596 C 50.7384 -5.76081 1.33732 0
M  V30 597 H 49.6684 -0.753876 0.013647 0
M  V30 598 H 52.3194 -1.68864 0.718131 0
M  V30 599 H 50.7014 -3.8968 -0.704669 0
M  V30 600 H 51.8754 -4.07637 2.1487 0
M  V30 601 H 50.1904 -3.7547 1.80032 0
M  V30 602 H 52.7874 -5.32394 -0.49602 0
M  V30 603 H 53.1304 -3.90212 -1.45053 0
M  V30 604 H 53.6634 -3.97033 0.246877 0
M  V30 605 H 50.4024 -6.12761 2.32817 0
M  V30 606 H 49.9224 -5.96553 0.623267 0
M  V30 607 H 51.6014 -6.38518 1.0442 0
M  V30 608 N 51.7335 -0.305618 -1.54608 0
M  V30 609 C 53.1495 0.0476228 -1.59529 0
M  V30 610 C 53.3495 1.52025 -1.32252 0
M  V30 611 O 52.4055 2.27368 -1.09818 0
M  V30 612 C 53.7185 -0.354471 -2.98603 0
M  V30 613 C 55.2665 -0.303622 -3.11524 0
M  V30 614 C 55.7415 -0.680608 -4.52915 0
M  V30 615 N 57.2325 -0.63332 -4.5885 0
M  V30 616 C 57.9675 -0.897432 -5.66334 0
M  V30 617 N 57.4635 -1.22775 -6.81834 0
M  V30 618 N 59.2565 -0.824186 -5.56025 0
M  V30 619 H 51.4075 -1.2653 -1.70599 0
M  V30 620 H 53.6705 -0.513291 -0.797017 0
M  V30 621 H 53.3765 -1.3798 -3.23503 0
M  V30 622 H 53.2505 0.289568 -3.76087 0
M  V30 623 H 55.6375 0.712472 -2.8637 0
M  V30 624 H 55.7185 -0.982348 -2.36185 0
M  V30 625 H 55.3625 -1.69453 -4.78799 0
M  V30 626 H 55.2925 0.0202385 -5.26596 0
M  V30 627 H 57.7835 -0.389138 -3.75891 0
M  V30 628 H 58.0965 -1.41513 -7.59733 0
M  V30 629 H 56.4415 -1.26583 -6.83375 0
M  V30 630 H 59.6325 -0.565748 -4.64669 0
M  V30 631 H 59.8055 -1.03338 -6.39707 0
M  V30 632 N 53.2116 1.57565 -0.0334293 0
M  V30 633 C 54.4886 1.83282 0.683163 0
M  V30 634 C 54.8686 0.91823 1.90084 0
M  V30 635 O 54.2166 -0.025113 2.28486 0
M  V30 636 C 54.4266 3.32599 1.0573 0
M  V30 637 C 55.7746 3.99179 1.44711 0
M  V30 638 O 56.7986 3.3712 1.15015 0
M  V30 639 O 55.6576 5.08565 2.0006 0
M  V30 640 H 52.7516 0.755869 0.335546 0
M  V30 641 H 55.2976 1.69589 -0.0614402 0
M  V30 642 H 54.0696 3.90834 0.190828 0
M  V30 643 H 53.6926 3.51415 1.85993 0
M  V30 644 N 54.6897 -0.239769 1.55765 0
M  V30 645 C 55.6227 -1.32356 1.85895 0
M  V30 646 C 56.6007 -1.46053 0.714662 0
M  V30 647 O 57.7847 -1.62154 0.961157 0
M  V30 648 C 54.9117 -2.6962 2.04994 0
M  V30 649 C 53.9577 -2.73036 3.27648 0
M  V30 650 S 54.7907 -2.28929 4.84099 0
M  V30 651 C 55.9467 -3.68103 5.06212 0
M  V30 652 H 56.1797 -1.06601 2.77531 0
M  V30 653 H 53.7127 -0.441112 1.47965 0
M  V30 654 H 55.6707 -3.48653 2.16682 0
M  V30 655 H 54.3317 -2.92609 1.14188 0
M  V30 656 H 53.5247 -3.7386 3.38 0
M  V30 657 H 53.1267 -2.02052 3.14723 0
M  V30 658 H 55.4187 -4.63656 4.93993 0
M  V30 659 H 56.3617 -3.6268 6.08168 0
M  V30 660 H 56.7697 -3.60947 4.34025 0
M  V30 661 N 56.1678 -1.49265 -0.50573 0
M  V30 662 C 57.4148 -1.58513 -1.26015 0
M  V30 663 C 57.7428 -0.26972 -1.92621 0
M  V30 664 O 56.9978 0.741997 -1.81088 0
M  V30 665 C 57.2968 -2.69008 -2.35308 0
M  V30 666 C 56.9628 -4.10662 -1.86192 0
M  V30 667 C 55.6248 -4.49212 -1.72516 0
M  V30 668 C 57.9768 -4.99336 -1.49375 0
M  V30 669 C 55.3048 -5.74214 -1.20394 0
M  V30 670 C 57.6568 -6.24852 -0.987072 0
M  V30 671 C 56.3208 -6.62236 -0.836669 0
M  V30 672 H 55.5908 -0.580041 -0.461122 0
M  V30 673 H 58.2378 -1.83078 -0.561665 0
M  V30 674 H 56.5428 -2.38396 -3.10926 0
M  V30 675 H 58.2398 -2.73373 -2.93374 0
M  V30 676 H 54.8298 -3.8023 -1.97795 0
M  V30 677 H 59.0138 -4.70212 -1.5879 0
M  V30 678 H 54.2698 -6.01883 -1.07458 0
M  V30 679 H 58.4438 -6.92944 -0.692983 0
M  V30 680 H 56.0708 -7.58979 -0.430607 0
M  V30 681 N 57.6459 0.756429 -1.3826 0
M  V30 682 C 58.9229 1.50584 -1.24835 0
M  V30 683 C 59.3029 2.10556 0.151485 0
M  V30 684 O 58.6509 1.96825 1.1607 0
M  V30 685 C 58.8609 2.57448 -2.3563 0
M  V30 686 C 60.2089 3.24429 -2.73917 0
M  V30 687 O 61.2329 2.67751 -2.34921 0
M  V30 688 O 60.0919 4.26937 -3.41156 0
M  V30 689 H 57.1859 0.667664 -0.48801 0
M  V30 690 H 59.7319 0.792083 -1.5008 0
M  V30 691 H 58.5039 2.11362 -3.29305 0
M  V30 692 H 58.1269 3.36408 -2.11933 0
M  V30 693 N 59.124 1.23083 0.984299 0
M  V30 694 C 60.352 1.08714 1.76037 0
M  V30 695 C 60.767 -0.361691 1.85303 0
M  V30 696 O 60.124 -1.25034 1.32939 0
M  V30 697 C 60.175 1.70206 3.18923 0
M  V30 698 O 59.896 3.09423 3.10144 0
M  V30 699 C 61.397 1.61227 4.12941 0
M  V30 700 H 58.617 0.380664 0.552572 0
M  V30 701 H 61.161 1.62853 1.23689 0
M  V30 702 H 59.316 1.20109 3.6831 0
M  V30 703 H 59.73 3.39188 4.00065 0
M  V30 704 H 61.204 2.08962 5.10919 0
M  V30 705 H 61.681 0.570375 4.35481 0
M  V30 706 H 62.287 2.10671 3.69456 0
M  V30 707 N 60.6021 -1.18246 1.0419 0
M  V30 708 C 61.5351 -2.20746 0.578474 0
M  V30 709 C 62.5131 -1.57912 -0.387624 0
M  V30 710 O 63.6971 -1.86071 -0.301634 0
M  V30 711 C 60.8241 -3.38346 -0.154762 0
M  V30 712 C 59.8701 -4.19587 0.764782 0
M  V30 713 S 60.7031 -4.86014 2.24835 0
M  V30 714 C 61.8591 -6.07012 1.526 0
M  V30 715 H 62.0921 -2.59715 1.44691 0
M  V30 716 H 59.6251 -1.287 0.85297 0
M  V30 717 H 61.5831 -4.065 -0.571641 0
M  V30 718 H 60.2441 -2.97786 -0.999105 0
M  V30 719 H 59.4371 -5.03611 0.197976 0
M  V30 720 H 59.0391 -3.56818 1.12057 0
M  V30 721 H 61.3311 -6.72523 0.819733 0
M  V30 722 H 62.2741 -6.68202 2.34333 0
M  V30 723 H 62.6821 -5.55249 1.01779 0
M  V30 724 N 62.0802 -0.821533 -1.34494 0
M  V30 725 C 63.4962 -0.507117 -1.51329 0
M  V30 726 C 63.6962 0.968964 -1.76673 0
M  V30 727 O 62.7522 1.75348 -1.81685 0
M  V30 728 C 64.0652 -1.36544 -2.67911 0
M  V30 729 C 65.6132 -1.36242 -2.81793 0
M  V30 730 C 66.0882 -2.2052 -4.01416 0
M  V30 731 N 67.5792 -2.18136 -4.08621 0
M  V30 732 C 68.3142 -2.80095 -5.00334 0
M  V30 733 N 67.8102 -3.51039 -5.9728 0
M  V30 734 N 69.6032 -2.69656 -4.93196 0
M  V30 735 H 61.7542 -1.77729 -1.16302 0
M  V30 736 H 64.0172 -0.757291 -0.570276 0
M  V30 737 H 63.7232 -2.41361 -2.55808 0
M  V30 738 H 63.5972 -1.02917 -3.62888 0
M  V30 739 H 65.9842 -0.322041 -2.93338 0
M  V30 740 H 66.0652 -1.73866 -1.87628 0
M  V30 741 H 65.7092 -3.24607 -3.90631 0
M  V30 742 H 65.6392 -1.80247 -4.94791 0
M  V30 743 H 68.1302 -1.6653 -3.39229 0
M  V30 744 H 68.4432 -3.95565 -6.63889 0
M  V30 745 H 66.7882 -3.55145 -5.97409 0
M  V30 746 H 69.9792 -2.13808 -4.16418 0
M  V30 747 H 70.1522 -3.1823 -5.64476 0
M  V30 748 N 63.5583 1.46682 -0.576371 0
M  V30 749 C 64.5083 2.27278 0.181288 0
M  V30 750 C 65.4923 1.35497 0.867721 0
M  V30 751 O 66.6843 1.59717 0.762863 0
M  V30 752 C 63.8133 3.21703 1.19841 0
M  V30 753 C 62.8993 4.20969 0.51442 0
M  V30 754 N 63.2903 5.03999 -0.426407 0
M  V30 755 C 61.5883 4.39373 0.765963 0
M  V30 756 C 62.2893 5.75812 -0.825565 0
M  V30 757 N 61.2653 5.43315 -0.176116 0
M  V30 758 H 65.0673 2.88863 -0.541785 0
M  V30 759 H 62.5813 1.57455 -0.397697 0
M  V30 760 H 64.5783 3.78145 1.75533 0
M  V30 761 H 63.2383 2.61677 1.92238 0
M  V30 762 H 64.2493 5.11659 -0.8016 0
M  V30 763 H 60.9263 3.90502 1.47698 0
M  V30 764 H 62.3163 6.52577 -1.59976 0
M  V30 765 N 65.0364 0.313813 1.54444 0
M  V30 766 C 65.9994 -0.54379 2.22656 0
M  V30 767 C 66.9994 -1.05124 1.21678 0
M  V30 768 O 68.1894 -0.945225 1.46325 0
M  V30 769 C 65.3214 -1.75427 2.92298 0
M  V30 770 H 66.5144 0.0523599 2.99854 0
M  V30 771 H 64.0674 0.0647834 1.56166 0
M  V30 772 H 64.8024 -2.38991 2.19211 0
M  V30 773 H 64.5874 -1.39791 3.66334 0
M  V30 774 H 66.0774 -2.36325 3.44297 0
M  V30 775 N 66.5145 -1.57545 0.0417849 0
M  V30 776 C 67.4245 -2.14451 -0.951213 0
M  V30 777 C 68.4405 -1.09992 -1.34825 0
M  V30 778 O 69.6165 -1.42114 -1.42708 0
M  V30 779 C 66.6815 -2.67063 -2.21084 0
M  V30 780 C 65.7425 -3.86284 -1.87304 0
M  V30 781 C 64.9755 -4.36378 -3.07261 0
M  V30 782 O 65.1985 -3.85587 -4.20332 0
M  V30 783 O 64.1325 -5.28077 -2.88822 0
M  V30 784 H 67.9585 -2.99601 -0.497287 0
M  V30 785 H 65.5435 -1.48317 -0.179567 0
M  V30 786 H 67.4255 -3.00914 -2.95006 0
M  V30 787 H 66.1005 -1.84989 -2.65633 0
M  V30 788 H 65.0075 -3.57338 -1.10727 0
M  V30 789 H 66.3405 -4.6956 -1.47562 0
M  V30 790 N 67.9926 0.231505 -1.5589 0
M  V30 791 C 69.2406 0.955461 -1.78088 0
M  V30 792 C 69.5616 1.85262 -0.608533 0
M  V30 793 O 68.8316 1.92277 0.375035 0
M  V30 794 H 67.4116 0.355787 -0.656829 0
M  V30 795 H 70.0736 0.245751 -1.93344 0
M  V30 796 H 69.1696 1.56814 -2.69844 0
M  V30 797 N 69.4707 1.49531 0.497807 0
M  V30 798 C 70.7167 1.59415 1.25358 0
M  V30 799 C 71.0497 0.281422 1.9215 0
M  V30 800 O 70.3247 -0.715249 1.80871 0
M  V30 801 C 70.6077 2.75566 2.3181 0
M  V30 802 C 70.4607 4.16642 1.69498 0
M  V30 803 C 71.7797 2.87347 3.33346 0
M  V30 804 H 68.8987 0.580244 0.454408 0
M  V30 805 H 71.5407 1.81827 0.551262 0
M  V30 806 H 69.6907 2.56587 2.91711 0
M  V30 807 H 71.3627 4.47145 1.13399 0
M  V30 808 H 69.6057 4.22141 0.998978 0
M  V30 809 H 70.2767 4.93792 2.46725 0
M  V30 810 H 72.7527 3.04634 2.83438 0
M  V30 811 H 71.6287 3.70289 4.05188 0
M  V30 812 H 71.8897 1.96834 3.95865 0
M  V30 813 N 70.9488 -0.749086 1.3866 0
M  V30 814 C 72.1968 -1.50535 1.34847 0
M  V30 815 C 72.5178 -1.94909 -0.0595016 0
M  V30 816 O 71.7878 -1.67973 -1.00806 0
M  V30 817 H 70.3678 -0.558395 0.49619 0
M  V30 818 H 73.0298 -0.890165 1.73384 0
M  V30 819 H 72.1258 -2.39413 2.00219 0
M  V30 820 N 72.4269 -1.23603 -0.977757 0
M  V30 821 C 73.3569 -1.04401 -2.0886 0
M  V30 822 C 74.3379 0.0399052 -1.70053 0
M  V30 823 O 75.5229 -0.125246 -1.93796 0
M  V30 824 C 72.6529 -0.637269 -3.41403 0
M  V30 825 C 71.6069 -1.66883 -3.94124 0
M  V30 826 C 70.9329 -1.11745 -5.22893 0
M  V30 827 C 72.2329 -3.06247 -4.23096 0
M  V30 828 H 73.9269 -1.97316 -2.25182 0
M  V30 829 H 71.4729 -0.950096 -1.08209 0
M  V30 830 H 73.4259 -0.48998 -4.18542 0
M  V30 831 H 72.1499 0.327557 -3.24953 0
M  V30 832 H 70.8089 -1.80416 -3.19133 0
M  V30 833 H 70.4569 -0.143527 -5.02795 0
M  V30 834 H 70.1569 -1.80672 -5.59134 0
M  V30 835 H 71.6809 -0.982067 -6.02651 0
M  V30 836 H 73.0949 -2.96001 -4.90975 0
M  V30 837 H 71.4919 -3.72436 -4.70544 0
M  V30 838 H 72.5619 -3.55041 -3.30263 0
M  V30 839 N 73.905 1.17692 -1.04816 0
M  V30 840 C 74.868 2.19787 -0.650117 0
M  V30 841 C 75.868 1.58044 0.296427 0
M  V30 842 O 77.058 1.74012 0.0808097 0
M  V30 843 C 74.19 3.40869 0.0456987 0
M  V30 844 H 75.383 2.56516 -1.5537 0
M  V30 845 H 72.936 1.31708 -0.841594 0
M  V30 846 H 73.671 3.09681 0.962726 0
M  V30 847 H 73.456 3.86928 -0.634727 0
M  V30 848 H 74.946 4.16445 0.310432 0
M  V30 849 N 75.3831 0.828654 1.34056 0
M  V30 850 C 76.3461 0.259927 2.27721 0
M  V30 851 C 77.3461 -0.565478 1.50529 0
M  V30 852 O 78.5361 -0.38075 1.69988 0
M  V30 853 C 75.6681 -0.634944 3.34935 0
M  V30 854 H 76.8611 1.0863 2.79534 0
M  V30 855 H 74.4141 0.600951 1.44285 0
M  V30 856 H 75.1491 -1.48416 2.88346 0
M  V30 857 H 74.9341 -0.0444999 3.92075 0
M  V30 858 H 76.4241 -1.02648 4.04788 0
M  V30 859 N 76.8612 -1.46375 0.584142 0
M  V30 860 C 78.2722 -1.86031 0.157959 0
M  V30 861 C 78.6232 -1.48753 -1.27933 0
M  V30 862 O 77.7482 -0.903098 -1.96655 0
M  V30 863 C 78.3432 -3.37642 0.279892 0
M  V30 864 C 76.9022 -3.76289 -0.09143 0
M  V30 865 C 76.0492 -2.7039 0.615178 0
M  V30 866 H 79.0002 -1.37509 0.792274 0
M  V30 867 H 79.0212 -3.77275 -0.494364 0
M  V30 868 H 78.5332 -3.64742 1.32607 0
M  V30 869 H 76.6342 -3.54806 -1.13769 0
M  V30 870 H 76.7472 -4.78246 0.285886 0
M  V30 871 H 75.1112 -2.5464 0.0552833 0
M  V30 872 H 75.8942 -3.0033 1.66303 0
M  V30 873 N 78.3393 -0.321999 -1.54275 0
M  V30 874 C 79.2713 0.578671 -2.21775 0
M  V30 875 C 80.2843 1.08109 -1.21722 0
M  V30 876 O 81.4733 0.994938 -1.482 0
M  V30 877 C 78.5733 1.80661 -2.86731 0
M  V30 878 C 77.7463 1.44314 -4.12907 0
M  V30 879 C 76.8053 2.52845 -4.61472 0
M  V30 880 O 75.8313 2.17054 -5.2619 0
M  V30 881 N 77.0333 3.83748 -4.35566 0
M  V30 882 H 79.7983 0.000709447 -2.997 0
M  V30 883 H 77.3593 -0.145132 -1.61248 0
M  V30 884 H 79.3513 2.52655 -3.16145 0
M  V30 885 H 77.9213 2.29245 -2.12521 0
M  V30 886 H 77.1413 0.554906 -3.90275 0
M  V30 887 H 78.4293 1.17598 -4.95023 0
M  V30 888 H 77.8273 4.15625 -3.83761 0
M  V30 889 H 76.3843 4.51977 -4.69638 0
M  V30 890 N 79.8174 1.5752 -0.0501392 0
M  V30 891 C 81.0664 1.91827 0.623328 0
M  V30 892 C 81.3794 0.930222 1.72065 0
M  V30 893 O 82.5854 1.1653 2.4522 0
M  V30 894 C 81.0414 3.40692 1.16003 0
M  V30 895 C 80.6494 4.479 0.0948811 0
M  V30 896 C 82.3934 3.84034 1.80881 0
M  V30 897 C 80.3004 5.87879 0.644411 0
M  V30 898 H 79.2304 0.715918 0.236596 0
M  V30 899 H 81.8814 1.83115 -0.118861 0
M  V30 900 H 80.2634 3.44405 1.9545 0
M  V30 901 H 81.4374 4.55775 -0.678675 0
M  V30 902 H 79.7524 4.13892 -0.45637 0
M  V30 903 H 82.3494 4.85984 2.22988 0
M  V30 904 H 82.6924 3.20225 2.6601 0
M  V30 905 H 83.2254 3.82833 1.0809 0
M  V30 906 H 79.9644 6.55282 -0.169229 0
M  V30 907 H 79.4844 5.83567 1.38598 0
M  V30 908 H 81.1634 6.37098 1.12763 0
M  V30 909 N 81.2955 -0.223234 1.56011 0
M  V30 910 C 82.5435 -0.946003 1.78592 0
M  V30 911 C 82.8645 -1.84936 0.618349 0
M  V30 912 O 82.1345 -1.92473 -0.364833 0
M  V30 913 H 80.7145 -0.352298 0.658707 0
M  V30 914 H 83.3765 -0.235494 1.93472 0
M  V30 915 H 82.4725 -1.55381 2.70672 0
M  V30 916 N 82.7736 -1.49793 -0.48987 0
M  V30 917 C 84.0226 -1.59085 -1.23995 0
M  V30 918 C 84.3356 -0.287907 -1.9347 0
M  V30 919 O 85.5416 -0.259506 -2.70257 0
M  V30 920 C 83.9976 -2.80736 -2.252 0
M  V30 921 C 83.6056 -4.17833 -1.61614 0
M  V30 922 C 85.3496 -2.99364 -3.00967 0
M  V30 923 C 83.2566 -5.30693 -2.60996 0
M  V30 924 H 82.1866 -0.592372 -0.466488 0
M  V30 925 H 84.8376 -1.76197 -0.51252 0
M  V30 926 H 83.2196 -2.57142 -3.01154 0
M  V30 927 H 84.3936 -4.51608 -0.915774 0
M  V30 928 H 82.7086 -4.04656 -0.981977 0
M  V30 929 H 85.3056 -3.80851 -3.75308 0
M  V30 930 H 85.6486 -2.10356 -3.59244 0
M  V30 931 H 86.1816 -3.2305 -2.32128 0
M  V30 932 H 82.9206 -6.21796 -2.07485 0
M  V30 933 H 82.4406 -5.01359 -3.2924 0
M  V30 934 H 84.1196 -5.6049 -3.23202 0
M  V30 935 N 84.2517 0.741722 -1.39055 0
M  V30 936 C 85.1817 1.869 -1.39966 0
M  V30 937 C 86.1627 1.6804 -0.26392 0
M  V30 938 O 87.3477 1.88458 -0.468755 0
M  V30 939 C 84.4777 3.24572 -1.23574 0
M  V30 940 C 83.4317 3.58056 -2.34477 0
M  V30 941 C 82.7577 4.94593 -2.0318 0
M  V30 942 C 84.0577 3.61716 -3.76774 0
M  V30 943 H 85.7517 1.86395 -2.34302 0
M  V30 944 H 83.2977 0.895361 -1.1278 0
M  V30 945 H 85.2507 4.031 -1.22834 0
M  V30 946 H 83.9747 3.25587 -0.257045 0
M  V30 947 H 82.6337 2.81854 -2.34423 0
M  V30 948 H 82.2817 4.92181 -1.03765 0
M  V30 949 H 81.9817 5.17964 -2.77465 0
M  V30 950 H 83.5057 5.75486 -2.04079 0
M  V30 951 H 84.9197 4.30335 -3.78794 0
M  V30 952 H 83.3167 3.96603 -4.50362 0
M  V30 953 H 84.3867 2.61672 -4.08235 0
M  V30 954 N 85.7298 1.2412 0.971189 0
M  V30 955 C 86.6768 1.0305 2.06517 0
M  V30 956 C 87.6468 -0.0550666 1.66009 0
M  V30 957 O 88.8318 0.0988688 1.90544 0
M  V30 958 C 85.9718 0.637653 3.39158 0
M  V30 959 C 85.0848 1.79633 3.92882 0
M  V30 960 C 84.2198 1.34939 5.13775 0
M  V30 961 C 83.2588 2.47823 5.59687 0
M  V30 962 N 82.3958 2.04022 6.71803 0
M  V30 963 H 87.2358 1.96685 2.23873 0
M  V30 964 H 84.7728 0.979694 1.09729 0
M  V30 965 H 86.7308 0.390931 4.15364 0
M  V30 966 H 85.3608 -0.261693 3.21737 0
M  V30 967 H 84.4128 2.15681 3.13346 0
M  V30 968 H 85.7248 2.64466 4.22918 0
M  V30 969 H 84.8788 1.06134 5.97345 0
M  V30 970 H 83.6178 0.471557 4.85415 0
M  V30 971 H 82.6228 2.77392 4.74693 0
M  V30 972 H 83.8478 3.36158 5.90063 0
M  V30 973 H 81.7938 1.18632 6.45184 0
M  V30 974 H 81.7108 2.82409 7.01271 0
M  V30 975 H 82.9788 1.78347 7.58823 0
M  V30 976 N 87.2079 -1.17134 1.05439 0
M  V30 977 C 88.1399 -2.2078 0.615539 0
M  V30 978 C 89.1529 -1.59584 -0.322001 0
M  V30 979 O 90.3419 -1.78133 -0.114344 0
M  V30 980 C 87.4419 -3.38691 -0.118938 0
M  V30 981 C 86.6149 -4.29454 0.829924 0
M  V30 982 C 85.6739 -5.26024 0.136258 0
M  V30 983 O 84.6999 -5.63952 0.77115 0
M  V30 984 N 85.9019 -5.69487 -1.1254 0
M  V30 985 H 88.6669 -2.59052 1.50705 0
M  V30 986 H 86.2279 -1.32058 0.936603 0
M  V30 987 H 88.2199 -4.00329 -0.593179 0
M  V30 988 H 86.7899 -2.98996 -0.91215 0
M  V30 989 H 86.0099 -3.65211 1.48373 0
M  V30 990 H 87.2979 -4.86984 1.47392 0
M  V30 991 H 86.6959 -5.4075 -1.6615 0
M  V30 992 H 85.2529 -6.33257 -1.54366 0
M  V30 993 N 88.686 -0.835752 -1.33615 0
M  V30 994 C 89.935 -0.426289 -1.97144 0
M  V30 995 C 90.248 1.01912 -1.66953 0
M  V30 996 O 91.454 1.53311 -2.24072 0
M  V30 997 C 89.91 -0.711321 -3.52801 0
M  V30 998 C 89.518 -2.1712 -3.91871 0
M  V30 999 C 91.262 -0.368654 -4.22896 0
M  V30 1000 C 89.169 -2.40044 -5.40493 0
M  V30 1001 H 88.099 -0.15567 -0.737755 0
M  V30 1002 H 90.75 -1.0239 -1.52278 0
M  V30 1003 H 89.132 -0.0433766 -3.95976 0
M  V30 1004 H 90.306 -2.87936 -3.59763 0
M  V30 1005 H 88.621 -2.47654 -3.34749 0
M  V30 1006 H 91.218 -0.517601 -5.32189 0
M  V30 1007 H 91.561 0.688078 -4.10574 0
M  V30 1008 H 92.094 -0.991702 -3.8524 0
M  V30 1009 H 88.833 -3.44271 -5.57815 0
M  V30 1010 H 88.353 -1.73785 -5.74072 0
M  V30 1011 H 90.032 -2.23042 -6.0734 0
M  V30 1012 N 90.1641 1.46063 -0.591896 0
M  V30 1013 C 91.4101 2.02638 -0.0811191 0
M  V30 1014 C 91.7431 1.4613 1.27905 0
M  V30 1015 O 91.0181 0.629908 1.84017 0
M  V30 1016 C 91.3011 3.60091 -0.0252436 0
M  V30 1017 C 91.1541 4.26965 -1.41496 0
M  V30 1018 C 92.4731 4.3496 0.670685 0
M  V30 1019 H 89.5921 0.73635 -0.0309524 0
M  V30 1020 H 92.2341 1.741 -0.760859 0
M  V30 1021 H 90.3841 3.84535 0.553624 0
M  V30 1022 H 92.0561 4.13756 -2.0397 0
M  V30 1023 H 90.2991 3.85971 -1.98011 0
M  V30 1024 H 90.9701 5.35781 -1.32825 0
M  V30 1025 H 93.4461 4.15716 0.178825 0
M  V30 1026 H 92.3221 5.44686 0.678837 0
M  V30 1027 H 92.5831 4.06685 1.73379 0
M  V30 1028 N 91.6422 0.330177 1.54103 0
M  V30 1029 C 92.8882 -0.270806 2.00984 0
M  V30 1030 C 93.2212 -1.51265 1.21789 0
M  V30 1031 O 92.4962 -1.92142 0.301927 0
M  V30 1032 C 92.7792 -0.598339 3.55094 0
M  V30 1033 C 92.6322 0.654674 4.4501 0
M  V30 1034 C 93.9512 -1.41334 4.16789 0
M  V30 1035 H 91.0702 -0.0969531 0.730595 0
M  V30 1036 H 93.7122 0.448066 1.84641 0
M  V30 1037 H 91.8622 -1.21078 3.69151 0
M  V30 1038 H 93.5342 1.29285 4.42813 0
M  V30 1039 H 91.7772 1.28224 4.14416 0
M  V30 1040 H 92.4482 0.380944 5.50684 0
M  V30 1041 H 94.9242 -0.895597 4.06347 0
M  V30 1042 H 93.8002 -1.61127 5.24718 0
M  V30 1043 H 94.0612 -2.41146 3.70541 0
M  V30 1044 N 93.1203 -1.57491 0.0584922 0
M  V30 1045 C 94.3663 -1.93264 -0.614558 0
M  V30 1046 C 94.6993 -0.937717 -1.7006 0
M  V30 1047 O 93.9743 0.0351652 -1.94468 0
M  V30 1048 C 94.2573 -3.3938 -1.20386 0
M  V30 1049 C 94.1103 -4.49625 -0.125375 0
M  V30 1050 C 95.4293 -3.86039 -2.11334 0
M  V30 1051 H 92.5483 -0.702791 -0.221933 0
M  V30 1052 H 95.1903 -1.8961 0.12175 0
M  V30 1053 H 93.3403 -3.42626 -1.83139 0
M  V30 1054 H 95.0123 -4.58506 0.506971 0
M  V30 1055 H 93.2553 -4.30354 0.545672 0
M  V30 1056 H 93.9263 -5.48967 -0.577861 0
M  V30 1057 H 96.4023 -3.84716 -1.58534 0
M  V30 1058 H 95.2783 -4.88914 -2.49507 0
M  V30 1059 H 95.5393 -3.23215 -3.01636 0
M  V30 1060 N 94.5984 0.214957 -1.56127 0
M  V30 1061 C 95.8464 0.936518 -1.79091 0
M  V30 1062 C 96.1674 1.84606 -0.628148 0
M  V30 1063 O 95.4374 1.92664 0.35462 0
M  V30 1064 H 94.0174 0.3488 -0.660566 0
M  V30 1065 H 96.6794 0.22523 -1.93594 0
M  V30 1066 H 95.7754 1.53943 -2.71492 0
M  V30 1067 N 96.0765 1.50051 0.48192 0
M  V30 1068 C 97.3015 1.64508 1.26301 0
M  V30 1069 C 97.7265 0.323851 1.85291 0
M  V30 1070 O 97.0845 -0.710969 1.66778 0
M  V30 1071 C 97.1325 2.7305 2.35533 0
M  V30 1072 O 96.2365 2.3355 3.39895 0
M  V30 1073 H 95.5775 0.549978 0.372048 0
M  V30 1074 H 98.1075 1.9636 0.574786 0
M  V30 1075 H 98.1175 2.95799 2.8101 0
M  V30 1076 H 96.7925 3.68946 1.91967 0
M  V30 1077 H 95.3695 2.21205 3.00204 0
M  V30 1078 N 97.5546 -0.734337 1.39446 0
M  V30 1079 C 98.4646 -1.87879 1.40495 0
M  V30 1080 C 99.4806 -1.714 0.299672 0
M  V30 1081 O 100.657 -1.93991 0.541249 0
M  V30 1082 C 97.7216 -3.23477 1.24754 0
M  V30 1083 C 96.7826 -3.52344 2.45259 0
M  V30 1084 C 96.0156 -4.81473 2.30259 0
M  V30 1085 O 96.2386 -5.55237 1.30643 0
M  V30 1086 O 95.1726 -5.10254 3.19256 0
M  V30 1087 H 98.9986 -1.89949 2.36966 0
M  V30 1088 H 96.5836 -0.882243 1.20569 0
M  V30 1089 H 98.4656 -4.04509 1.18111 0
M  V30 1090 H 97.1406 -3.22176 0.313781 0
M  V30 1091 H 96.0476 -2.71396 2.57478 0
M  V30 1092 H 97.3806 -3.58426 3.37331 0
M  V30 1093 N 99.0327 -1.24633 -0.964593 0
M  V30 1094 C 100.31 -0.995809 -1.68354 0
M  V30 1095 C 100.69 0.480964 -2.05548 0
M  V30 1096 O 100.038 1.45599 -1.76105 0
M  V30 1097 C 100.248 -1.92177 -2.91323 0
M  V30 1098 C 101.596 -2.19446 -3.63495 0
M  V30 1099 O 102.62 -1.89855 -3.01386 0
M  V30 1100 O 101.479 -2.69714 -4.75307 0
M  V30 1101 H 98.5727 -0.376854 -0.736146 0
M  V30 1102 H 101.119 -1.35745 -1.0184 0
M  V30 1103 H 99.8907 -2.91938 -2.60553 0
M  V30 1104 H 99.5137 -1.56349 -3.65569 0
M  V30 1105 N 100.511 1.16574 -1.06058 0
M  V30 1106 C 101.459 2.22941 -0.663343 0
M  V30 1107 C 102.453 1.66358 0.319593 0
M  V30 1108 O 103.659 1.7905 0.184713 0
M  V30 1109 H 100.034 0.725907 -0.196376 0
M  V30 1110 H 102.005 2.53736 -1.57037 0
M  V30 1111 C 100.754 3.47642 -0.0632808 0
M  V30 1112 H 100.077 3.91493 -0.810733 0
M  V30 1113 H 101.517 4.2363 0.177177 0
M  V30 1114 C 99.9758 3.1509 1.19248 0
M  V30 1115 O 100.506 3.30673 2.28075 0
M  V30 1116 N 98.7118 2.6924 1.09353 0
M  V30 1117 H 98.2588 2.5676 0.207912 0
M  V30 1118 H 98.2168 2.47833 1.93458 0
M  V30 1119 N 101.989 0.842826 1.3317 0
M  V30 1120 C 102.899 0.281444 2.32906 0
M  V30 1121 C 103.915 -0.594587 1.63526 0
M  V30 1122 O 105.091 -0.49777 1.95152 0
M  V30 1123 C 102.156 -0.530929 3.42611 0
M  V30 1124 C 101.217 0.369843 4.27704 0
M  V30 1125 C 100.45 -0.403853 5.3217 0
M  V30 1126 O 100.673 -1.63513 5.46461 0
M  V30 1127 O 99.6069 0.224199 6.01482 0
M  V30 1128 H 103.433 1.10744 2.82789 0
M  V30 1129 H 101.018 0.60545 1.36582 0
M  V30 1130 H 102.9 -0.992437 4.09547 0
M  V30 1131 H 101.575 -1.33392 2.94938 0
M  V30 1132 H 100.482 0.879275 3.6362 0
M  V30 1133 H 101.815 1.13771 4.78871 0
M  V30 1134 N 103.467 -1.45747 0.599634 0
M  V30 1135 C 104.883 -1.57424 0.26264 0
M  V30 1136 C 105.083 -1.59222 -1.23493 0
M  V30 1137 O 104.139 -1.51825 -2.01756 0
M  V30 1138 C 105.452 -2.86061 0.926795 0
M  V30 1139 C 107 -2.99722 0.901967 0
M  V30 1140 C 107.475 -4.31119 1.54598 0
M  V30 1141 N 108.966 -4.37858 1.5111 0
M  V30 1142 C 109.701 -5.3818 1.97863 0
M  V30 1143 N 109.197 -6.45083 2.52666 0
M  V30 1144 N 110.99 -5.29487 1.88679 0
M  V30 1145 H 103.141 -1.42823 1.57211 0
M  V30 1146 H 105.404 -0.68235 0.658105 0
M  V30 1147 H 105.11 -2.90605 1.98095 0
M  V30 1148 H 104.984 -3.74563 0.445238 0
M  V30 1149 H 107.371 -2.9475 -0.143617 0
M  V30 1150 H 107.452 -2.12652 1.42171 0
M  V30 1151 H 107.096 -4.36849 2.59085 0
M  V30 1152 H 107.026 -5.16992 1.00132 0
M  V30 1153 H 109.517 -3.61209 1.11068 0
M  V30 1154 H 109.83 -7.17869 2.86155 0
M  V30 1155 H 108.175 -6.45856 2.56701 0
M  V30 1156 H 111.366 -4.44877 1.4561 0
M  V30 1157 H 111.539 -6.07524 2.25429 0
M  V30 1158 N 104.945 -0.338344 -1.53925 0
M  V30 1159 C 106.175 0.260919 -2.04946 0
M  V30 1160 C 106.583 1.45174 -1.2133 0
M  V30 1161 O 105.926 1.82122 -0.240262 0
M  V30 1162 C 105.988 0.744596 -3.51704 0
M  V30 1163 C 105.652 -0.325883 -4.55837 0
M  V30 1164 C 106.649 -1.16687 -5.06636 0
M  V30 1165 C 104.334 -0.478317 -5.00017 0
M  V30 1166 C 106.328 -2.14588 -6.00192 0
M  V30 1167 C 104.015 -1.46073 -5.93385 0
M  V30 1168 C 105.013 -2.29297 -6.4336 0
M  V30 1169 O 104.701 -3.25867 -7.34892 0
M  V30 1170 H 104.433 0.0551207 -0.673749 0
M  V30 1171 H 106.987 -0.486984 -1.99544 0
M  V30 1172 H 105.217 1.54366 -3.54553 0
M  V30 1173 H 106.906 1.26383 -3.85723 0
M  V30 1174 H 107.672 -1.06016 -4.73271 0
M  V30 1175 H 103.551 0.159613 -4.60724 0
M  V30 1176 H 107.095 -2.79585 -6.39123 0
M  V30 1177 H 102.992 -1.56802 -6.26166 0
M  V30 1178 H 103.76 -3.21278 -7.5281 0
M  V30 1179 N 106.423 1.57458 -0.0668435 0
M  V30 1180 C 107.834 1.80776 0.466558 0
M  V30 1181 C 108.185 0.980361 1.69951 0
M  V30 1182 O 107.31 0.201441 2.1546 0
M  V30 1183 C 107.905 3.27881 0.85321 0
M  V30 1184 C 106.464 3.52062 1.3315 0
M  V30 1185 C 105.611 2.75513 0.314264 0
M  V30 1186 H 108.562 1.5598 -0.292588 0
M  V30 1187 H 108.583 3.39659 1.715 0
M  V30 1188 H 108.095 3.88075 -0.0443439 0
M  V30 1189 H 106.196 2.97167 2.24772 0
M  V30 1190 H 106.309 4.60762 1.31285 0
M  V30 1191 H 104.673 2.42123 0.790492 0
M  V30 1192 H 105.456 3.38442 -0.575477 0
M  V30 1193 N 107.901 -0.206675 1.56239 0
M  V30 1194 C 109.149 -0.927007 1.79586 0
M  V30 1195 C 109.47 -1.8427 0.637929 0
M  V30 1196 O 108.74 -1.92849 -0.344398 0
M  V30 1197 H 107.32 -0.345292 0.662407 0
M  V30 1198 H 109.982 -0.21496 1.93711 0
M  V30 1199 H 109.078 -1.52501 2.72305 0
M  V30 1200 N 109.379 -1.50304 -0.473955 0
M  V30 1201 C 110.607 -1.64902 -1.24959 0
M  V30 1202 C 111.022 -0.331198 -1.85872 0
M  V30 1203 O 110.379 0.68652 -1.69095 0
M  V30 1204 C 110.43 -2.73803 -2.36038 0
M  V30 1205 O 110.151 -4.00477 -1.77624 0
M  V30 1206 C 111.652 -2.99349 -3.26964 0
M  V30 1207 H 108.872 -0.554383 -0.378022 0
M  V30 1208 H 111.416 -1.9651 -0.566054 0
M  V30 1209 H 109.571 -2.44898 -3.00173 0
M  V30 1210 H 109.985 -4.60678 -2.5075 0
M  V30 1211 H 111.459 -3.79217 -4.01121 0
M  V30 1212 H 111.936 -2.10307 -3.85574 0
M  V30 1213 H 112.542 -3.29774 -2.68569 0
M  V30 1214 N 110.857 0.726932 -1.39834 0
M  V30 1215 C 112.268 1.30558 -1.3346 0
M  V30 1216 C 112.619 1.962 -0.00273003 0
M  V30 1217 O 111.744 1.96826 0.899371 0
M  V30 1218 C 112.339 2.37404 -2.41713 0
M  V30 1219 C 110.898 2.90921 -2.38835 0
M  V30 1220 C 110.045 1.64578 -2.2318 0
M  V30 1221 H 112.996 0.523862 -1.49804 0
M  V30 1222 H 113.017 3.17984 -2.08966 0
M  V30 1223 H 112.529 1.89599 -3.38635 0
M  V30 1224 H 110.63 3.42985 -1.45575 0
M  V30 1225 H 110.743 3.43487 -3.33997 0
M  V30 1226 H 109.107 1.89219 -1.70494 0
M  V30 1227 H 109.89 1.18814 -3.22084 0
M  V30 1228 N 112.336 1.25143 0.95797 0
M  V30 1229 C 113.613 1.00472 1.67823 0
M  V30 1230 C 113.993 -0.470056 2.058 0
M  V30 1231 O 113.341 -1.44663 1.76875 0
M  V30 1232 C 113.551 1.9372 2.90299 0
M  V30 1233 C 114.899 2.21371 3.62326 0
M  V30 1234 O 115.923 1.91451 3.00375 0
M  V30 1235 O 114.782 2.72231 4.7387 0
M  V30 1236 H 111.876 0.380752 0.734137 0
M  V30 1237 H 114.422 1.36283 1.01119 0
M  V30 1238 H 113.194 2.93316 2.59001 0
M  V30 1239 H 112.817 1.58286 3.64735 0
M  V30 1240 N 113.814 -1.1601 1.06675 0
M  V30 1241 C 115.06 -1.86909 0.786945 0
M  V30 1242 C 115.393 -1.81717 -0.685018 0
M  V30 1243 O 114.668 -1.23551 -1.50218 0
M  V30 1244 C 114.951 -3.36313 1.28707 0
M  V30 1245 C 114.804 -3.50175 2.82308 0
M  V30 1246 C 116.123 -4.3084 0.898071 0
M  V30 1247 H 113.242 -0.678677 0.287343 0
M  V30 1248 H 115.884 -1.36336 1.32334 0
M  V30 1249 H 114.034 -3.79513 0.830768 0
M  V30 1250 H 115.706 -3.15886 3.36175 0
M  V30 1251 H 113.949 -2.91959 3.20847 0
M  V30 1252 H 114.62 -4.55116 3.12368 0
M  V30 1253 H 117.096 -3.95561 1.29114 0
M  V30 1254 H 115.972 -5.33876 1.27543 0
M  V30 1255 H 116.233 -4.41662 -0.196651 0
M  V30 1256 N 115.292 -0.849877 -1.32721 0
M  V30 1257 C 116.703 -0.506188 -1.79707 0
M  V30 1258 C 117.054 0.975627 -1.70223 0
M  V30 1259 O 116.179 1.76078 -1.25799 0
M  V30 1260 C 116.774 -0.912044 -3.26293 0
M  V30 1261 C 115.333 -0.620326 -3.71253 0
M  V30 1262 C 114.48 -1.11439 -2.53922 0
M  V30 1263 H 117.431 -1.03754 -1.20087 0
M  V30 1264 H 117.452 -0.226493 -3.79825 0
M  V30 1265 H 116.964 -1.99057 -3.33164 0
M  V30 1266 H 115.065 0.447674 -3.69901 0
M  V30 1267 H 115.178 -1.18327 -4.64258 0
M  V30 1268 H 113.542 -0.534834 -2.49021 0
M  V30 1269 H 114.325 -2.19992 -2.6355 0
M  V30 1270 N 116.77 1.45427 -0.607355 0
M  V30 1271 C 117.68 2.34325 0.113463 0
M  V30 1272 C 118.696 1.51226 0.860617 0
M  V30 1273 O 119.872 1.84029 0.818255 0
M  V30 1274 C 116.937 3.28839 1.09844 0
M  V30 1275 C 115.998 4.27844 0.353271 0
M  V30 1276 C 115.231 5.17842 1.29133 0
M  V30 1277 O 115.454 5.11264 2.52913 0
M  V30 1278 O 114.388 5.96713 0.788523 0
M  V30 1279 H 118.214 2.97364 -0.617094 0
M  V30 1280 H 115.799 1.44807 -0.367619 0
M  V30 1281 H 117.681 3.8708 1.66575 0
M  V30 1282 H 116.356 2.68365 1.81003 0
M  V30 1283 H 115.263 3.7322 -0.256494 0
M  V30 1284 H 116.596 4.91173 -0.317822 0
M  V30 1285 N 118.248 0.346503 1.53744 0
M  V30 1286 C 119.664 -0.00530975 1.59599 0
M  V30 1287 C 119.864 -1.48465 1.36236 0
M  V30 1288 O 118.92 -2.24376 1.15808 0
M  V30 1289 C 120.233 0.433516 2.97559 0
M  V30 1290 C 121.781 0.386111 3.10609 0
M  V30 1291 C 122.256 0.800451 4.50951 0
M  V30 1292 N 123.747 0.754753 4.5701 0
M  V30 1293 C 124.482 1.04727 5.63755 0
M  V30 1294 N 123.978 1.4081 6.7834 0
M  V30 1295 N 125.771 0.971316 5.53644 0
M  V30 1296 H 117.922 1.31009 1.67184 0
M  V30 1297 H 120.185 0.534242 0.783128 0
M  V30 1298 H 119.891 1.46509 3.19731 0
M  V30 1299 H 119.765 -0.189753 3.76722 0
M  V30 1300 H 122.152 -0.636295 2.88158 0
M  V30 1301 H 122.233 1.04462 2.33498 0
M  V30 1302 H 121.877 1.82088 4.74137 0
M  V30 1303 H 121.807 0.119386 5.26465 0
M  V30 1304 H 124.298 0.488662 3.74727 0
M  V30 1305 H 124.611 1.61607 7.55714 0
M  V30 1306 H 122.956 1.44657 6.79779 0
M  V30 1307 H 126.147 0.688748 4.63005 0
M  V30 1308 H 126.32 1.20263 6.36742 0
M  V30 1309 N 119.726 -1.57421 0.075193 0
M  V30 1310 C 120.975 -1.92794 -0.592731 0
M  V30 1311 C 121.288 -0.957478 -1.70563 0
M  V30 1312 O 122.494 -1.20417 -2.43335 0
M  V30 1313 C 120.95 -3.42495 -1.10569 0
M  V30 1314 C 120.558 -4.47994 -0.0236121 0
M  V30 1315 C 122.302 -3.86864 -1.74748 0
M  V30 1316 C 120.209 -5.88829 -0.550803 0
M  V30 1317 H 119.139 -0.719591 -0.225177 0
M  V30 1318 H 121.79 -1.82902 0.147978 0
M  V30 1319 H 120.172 -3.47471 -1.89947 0
M  V30 1320 H 121.346 -4.54637 0.751099 0
M  V30 1321 H 119.661 -4.13113 0.522159 0
M  V30 1322 H 122.258 -4.8947 -2.15229 0
M  V30 1323 H 122.601 -3.24417 -2.60882 0
M  V30 1324 H 123.134 -3.84504 -1.01986 0
M  V30 1325 H 119.873 -6.54929 0.273457 0
M  V30 1326 H 119.393 -5.85698 -1.29296 0
M  V30 1327 H 121.072 -6.38811 -1.02613 0
M  V30 1328 N 121.204 0.198386 -1.56346 0
M  V30 1329 C 122.453 0.917451 -1.79627 0
M  V30 1330 C 122.766 1.8456 -0.64784 0
M  V30 1331 O 123.972 2.60504 -0.764859 0
M  V30 1332 C 122.428 1.68175 -3.18191 0
M  V30 1333 C 122.036 0.798589 -4.40825 0
M  V30 1334 C 123.78 2.39065 -3.50782 0
M  V30 1335 C 121.687 1.56157 -5.70411 0
M  V30 1336 H 120.617 0.346317 -0.669762 0
M  V30 1337 H 123.268 0.170801 -1.82703 0
M  V30 1338 H 121.65 2.47216 -3.09354 0
M  V30 1339 H 122.824 0.0470665 -4.60776 0
M  V30 1340 H 121.139 0.200686 -4.15916 0
M  V30 1341 H 123.736 2.96692 -4.44835 0
M  V30 1342 H 124.079 3.13091 -2.74371 0
M  V30 1343 H 124.612 1.66993 -3.61052 0
M  V30 1344 H 121.351 0.864142 -6.49779 0
M  V30 1345 H 120.871 2.2871 -5.54483 0
M  V30 1346 H 122.55 2.11622 -6.11412 0
M  V30 1347 N 122.682 1.50554 0.465978 0
M  V30 1348 C 123.612 1.72722 1.57128 0
M  V30 1349 C 124.593 0.576294 1.6004 0
M  V30 1350 O 125.778 0.81598 1.76225 0
M  V30 1351 C 122.908 1.82605 2.95419 0
M  V30 1352 C 121.862 2.97835 3.07373 0
M  V30 1353 C 121.188 2.92867 4.47363 0
M  V30 1354 C 122.488 4.38265 2.84114 0
M  V30 1355 H 124.182 2.65267 1.38829 0
M  V30 1356 H 121.728 1.2765 0.666441 0
M  V30 1357 H 123.681 1.96698 3.72677 0
M  V30 1358 H 122.405 0.866858 3.14886 0
M  V30 1359 H 121.064 2.83401 2.3255 0
M  V30 1360 H 120.712 1.94783 4.63755 0
M  V30 1361 H 120.412 3.70227 4.56296 0
M  V30 1362 H 121.936 3.09015 5.26633 0
M  V30 1363 H 123.35 4.53198 3.51118 0
M  V30 1364 H 121.747 5.17115 3.04487 0
M  V30 1365 H 122.817 4.50281 1.7993 0
M  V30 1366 N 124.16 -0.719506 1.40217 0
M  V30 1367 C 125.108 -1.85493 1.40339 0
M  V30 1368 C 126.102 -1.66995 0.284415 0
M  V30 1369 O 127.308 -1.74148 0.455252 0
M  V30 1370 H 123.683 -0.610857 0.438586 0
M  V30 1371 H 125.654 -1.82506 2.36081 0
M  V30 1372 C 124.403 -3.23321 1.27901 0
M  V30 1373 H 123.726 -3.38159 2.1328 0
M  V30 1374 H 125.166 -4.02914 1.32045 0
M  V30 1375 C 123.625 -3.36898 -0.0111355 0
M  V30 1376 O 124.155 -3.89674 -0.975538 0
M  V30 1377 N 122.361 -2.90492 -0.0793393 0
M  V30 1378 H 121.908 -2.47731 0.706183 0
M  V30 1379 H 121.866 -2.99955 -0.942038 0
M  V30 1380 N 125.638 -1.25649 -0.95132 0
M  V30 1381 C 127.049 -1.09654 -1.51106 0
M  V30 1382 C 127.4 0.326615 -1.93462 0
M  V30 1383 O 126.525 1.21697 -1.78938 0
M  V30 1384 C 127.12 -1.98437 -2.74605 0
M  V30 1385 C 125.679 -1.86618 -3.2688 0
M  V30 1386 C 124.826 -1.9239 -1.99703 0
M  V30 1387 H 127.777 -1.38887 -0.767865 0
M  V30 1388 H 127.798 -1.5263 -3.48546 0
M  V30 1389 H 127.31 -3.02009 -2.43746 0
M  V30 1390 H 125.411 -0.859421 -3.62553 0
M  V30 1391 H 125.524 -2.71607 -3.94673 0
M  V30 1392 H 123.888 -1.36317 -2.15151 0
M  V30 1393 H 124.671 -2.97573 -1.71188 0
M  V30 1394 N 127.117 1.15442 -1.07289 0
M  V30 1395 C 128.363 1.86489 -0.796846 0
M  V30 1396 C 128.696 1.82078 0.675371 0
M  V30 1397 O 127.971 1.24346 1.4956 0
M  V30 1398 C 128.254 3.35626 -1.30489 0
M  V30 1399 C 128.107 3.48673 -2.84161 0
M  V30 1400 C 129.426 4.30357 -0.920907 0
M  V30 1401 H 126.545 0.677144 -0.290939 0
M  V30 1402 H 129.187 1.35633 -1.33056 0
M  V30 1403 H 127.337 3.79068 -0.850883 0
M  V30 1404 H 129.009 3.14099 -3.37846 0
M  V30 1405 H 127.252 2.90253 -3.22391 0
M  V30 1406 H 127.923 4.53453 -3.14777 0
M  V30 1407 H 130.399 3.94871 -1.3121 0
M  V30 1408 H 129.275 5.33193 -1.30372 0
M  V30 1409 H 129.536 4.4176 0.173226 0
M  V30 1410 N 128.595 0.856903 1.32268 0
M  V30 1411 C 129.844 0.457599 1.96441 0
M  V30 1412 C 130.157 -0.992426 1.68553 0
M  V30 1413 O 131.363 -1.49727 2.26482 0
M  V30 1414 C 129.819 0.767358 3.51624 0
M  V30 1415 C 129.427 2.23326 3.88367 0
M  V30 1416 C 131.171 0.435887 4.22256 0
M  V30 1417 C 129.078 2.48613 5.36606 0
M  V30 1418 H 128.008 0.167387 0.735185 0
M  V30 1419 H 130.659 1.048 1.5063 0
M  V30 1420 H 129.041 0.106367 3.95857 0
M  V30 1421 H 130.215 2.93623 3.55137 0
M  V30 1422 H 128.53 2.52948 3.30766 0
M  V30 1423 H 131.127 0.602202 5.31298 0
M  V30 1424 H 131.47 -0.622672 4.11617 0
M  V30 1425 H 132.003 1.05286 3.83614 0
M  V30 1426 H 128.742 3.53101 5.52268 0
M  V30 1427 H 128.262 1.82896 5.71235 0
M  V30 1428 H 129.941 2.32676 6.03714 0
M  V30 1429 N 130.073 -1.45103 0.615059 0
M  V30 1430 C 131.301 -2.06553 0.11977 0
M  V30 1431 C 131.716 -1.45842 -1.19898 0
M  V30 1432 O 131.073 -0.575325 -1.73194 0
M  V30 1433 C 131.124 -3.61495 -0.018364 0
M  V30 1434 O 130.845 -4.19942 1.24822 0
M  V30 1435 C 132.346 -4.39947 -0.544237 0
M  V30 1436 H 129.566 -0.667096 0.0722739 0
M  V30 1437 H 132.11 -1.8623 0.84491 0
M  V30 1438 H 130.265 -3.81135 -0.693865 0
M  V30 1439 H 130.679 -5.13204 1.0827 0
M  V30 1440 H 132.153 -5.48838 -0.589953 0
M  V30 1441 H 132.63 -4.10255 -1.56805 0
M  V30 1442 H 133.236 -4.25188 0.0974703 0
M  V30 1443 N 131.551 -0.354651 -1.53558 0
M  V30 1444 C 132.962 0.126902 -1.86268 0
M  V30 1445 C 133.313 1.49075 -1.27558 0
M  V30 1446 O 132.438 2.08105 -0.5934 0
M  V30 1447 C 133.033 0.237046 -3.3797 0
M  V30 1448 C 131.592 0.662842 -3.70518 0
M  V30 1449 C 130.739 -0.196652 -2.76602 0
M  V30 1450 H 133.69 -0.573849 -1.47962 0
M  V30 1451 H 133.711 1.06259 -3.65362 0
M  V30 1452 H 133.223 -0.755725 -3.80671 0
M  V30 1453 H 131.324 1.66424 -3.33367 0
M  V30 1454 H 131.437 0.445034 -4.77029 0
M  V30 1455 H 129.801 0.332763 -2.52517 0
M  V30 1456 H 130.584 -1.18676 -3.22135 0
M  V30 1457 N 133.029 1.57378 -0.0835403 0
M  V30 1458 C 133.959 2.1641 0.87686 0
M  V30 1459 C 134.94 1.09429 1.30228 0
M  V30 1460 O 136.125 1.37516 1.37124 0
M  V30 1461 C 133.255 2.73517 2.14022 0
M  V30 1462 C 132.209 3.85769 1.85381 0
M  V30 1463 C 131.535 4.29529 3.18448 0
M  V30 1464 C 132.835 5.09486 1.14984 0
M  V30 1465 H 134.529 2.96914 0.385059 0
M  V30 1466 H 132.075 1.42823 0.18377 0
M  V30 1467 H 134.028 3.13463 2.81636 0
M  V30 1468 H 132.752 1.90252 2.65465 0
M  V30 1469 H 131.411 3.46345 1.20169 0
M  V30 1470 H 131.059 3.43169 3.67755 0
M  V30 1471 H 130.759 5.05204 3.00071 0
M  V30 1472 H 132.283 4.72099 3.8724 0
M  V30 1473 H 133.697 5.46674 1.72687 0
M  V30 1474 H 132.094 5.90515 1.06826 0
M  V30 1475 H 133.164 4.84724 0.130749 0
M  V30 1476 N 134.507 -0.190092 1.56449 0
M  V30 1477 C 135.735 -0.925772 1.85033 0
M  V30 1478 C 136.15 -1.76638 0.666658 0
M  V30 1479 O 135.507 -1.78822 -0.364565 0
M  V30 1480 C 135.558 -1.81786 3.12468 0
M  V30 1481 O 135.279 -1.01118 4.26271 0
M  V30 1482 C 136.78 -2.6648 3.54265 0
M  V30 1483 H 134 -0.269872 0.614337 0
M  V30 1484 H 136.544 -0.195837 2.0356 0
M  V30 1485 H 134.699 -2.50136 2.95822 0
M  V30 1486 H 135.113 -1.61956 4.98869 0
M  V30 1487 H 136.587 -3.24722 4.46385 0
M  V30 1488 H 137.064 -3.40434 2.77491 0
M  V30 1489 H 137.67 -2.03493 3.73458 0
M  V30 1490 N 135.985 -1.50799 -0.457987 0
M  V30 1491 C 136.932 -1.70617 -1.5543 0
M  V30 1492 C 137.902 -0.547562 -1.56815 0
M  V30 1493 O 139.087 -0.779647 -1.74144 0
M  V30 1494 C 136.227 -1.81831 -2.93311 0
M  V30 1495 C 135.34 -3.09278 -3.01615 0
M  V30 1496 C 134.475 -3.11209 -4.30491 0
M  V30 1497 C 133.514 -4.33055 -4.32585 0
M  V30 1498 N 132.651 -4.32652 -5.52952 0
M  V30 1499 H 137.491 -2.64207 -1.37836 0
M  V30 1500 H 135.028 -1.30959 -0.669937 0
M  V30 1501 H 136.986 -1.86314 -3.73287 0
M  V30 1502 H 135.616 -0.916685 -3.0951 0
M  V30 1503 H 134.668 -3.14203 -2.1443 0
M  V30 1504 H 135.98 -3.99233 -2.99022 0
M  V30 1505 H 135.134 -3.14494 -5.18824 0
M  V30 1506 H 133.873 -2.19106 -4.35711 0
M  V30 1507 H 132.878 -4.29969 -3.42647 0
M  V30 1508 H 134.103 -5.264 -4.29046 0
M  V30 1509 H 132.049 -3.43409 -5.58933 0
M  V30 1510 H 131.966 -5.16392 -5.52155 0
M  V30 1511 H 133.234 -4.40101 -6.43375 0
M  V30 1512 N 137.463 0.71206 -1.40597 0
M  V30 1513 C 138.74 1.46536 -1.29563 0
M  V30 1514 C 139.12 2.10931 0.0844217 0
M  V30 1515 O 138.468 2.00418 1.0975 0
M  V30 1516 C 138.678 2.49821 -2.43701 0
M  V30 1517 C 140.026 3.15551 -2.841 0
M  V30 1518 O 141.05 2.60142 -2.4332 0
M  V30 1519 O 139.909 4.15867 -3.54566 0
M  V30 1520 H 137.003 0.651801 -0.509004 0
M  V30 1521 H 139.549 0.743935 -1.52524 0
M  V30 1522 H 138.321 2.00778 -3.35863 0
M  V30 1523 H 137.944 3.29495 -2.22528 0
M  V30 1524 N 138.941 1.26152 0.944643 0
M  V30 1525 C 140.169 1.14259 1.72489 0
M  V30 1526 C 140.584 -0.302555 1.8636 0
M  V30 1527 O 139.941 -1.20741 1.36849 0
M  V30 1528 C 139.992 1.80266 3.13347 0
M  V30 1529 O 139.713 3.19133 3.00143 0
M  V30 1530 C 141.214 1.74283 4.07603 0
M  V30 1531 H 138.434 0.398051 0.540181 0
M  V30 1532 H 140.978 1.66706 1.18446 0
M  V30 1533 H 139.133 1.31766 3.64303 0
M  V30 1534 H 139.547 3.51744 3.89071 0
M  V30 1535 H 141.021 2.25111 5.04013 0
M  V30 1536 H 141.498 0.708631 4.33446 0
M  V30 1537 H 142.104 2.22319 3.62567 0
M  V30 1538 N 140.419 -1.14872 1.07899 0
M  V30 1539 C 141.644 -1.90202 0.826926 0
M  V30 1540 C 142.069 -1.77774 -0.614664 0
M  V30 1541 O 141.427 -1.11431 -1.43013 0
M  V30 1542 C 141.475 -3.38352 1.24702 0
M  V30 1543 O 140.579 -4.10497 0.39575 0
M  V30 1544 H 139.92 -0.591968 0.300782 0
M  V30 1545 H 142.45 -1.45437 1.43907 0
M  V30 1546 H 142.46 -3.89156 1.22563 0
M  V30 1547 H 141.135 -3.46715 2.29698 0
M  V30 1548 H 139.712 -3.69796 0.480117 0
M  V30 1549 N 141.898 -0.863906 -1.31812 0
M  V30 1550 C 143.146 -0.470904 -1.96537 0
M  V30 1551 C 143.467 0.978771 -1.68657 0
M  V30 1552 O 142.737 1.6853 -0.998717 0
M  V30 1553 H 141.317 -0.171148 -0.72713 0
M  V30 1554 H 143.979 -1.10236 -1.60729 0
M  V30 1555 H 143.075 -0.623616 -3.05806 0
M  V30 1556 N 143.376 1.44774 -0.622745 0
M  V30 1557 C 144.623 2.02121 -0.1239 0
M  V30 1558 C 144.951 1.48915 1.25118 0
M  V30 1559 O 144.206 0.660045 1.84233 0
M  V30 1560 C 144.505 3.57364 -0.0508323 0
M  V30 1561 C 144.171 4.29787 -1.36358 0
M  V30 1562 C 142.833 4.4929 -1.72314 0
M  V30 1563 C 145.185 4.71062 -2.23048 0
M  V30 1564 C 142.513 5.07325 -2.94682 0
M  V30 1565 C 144.865 5.30452 -3.44679 0
M  V30 1566 C 143.529 5.48175 -3.80868 0
M  V30 1567 H 142.799 0.739612 -0.0453381 0
M  V30 1568 H 145.446 1.73648 -0.807389 0
M  V30 1569 H 143.751 3.85202 0.715991 0
M  V30 1570 H 145.448 3.99456 0.351533 0
M  V30 1571 H 142.038 4.14932 -1.07375 0
M  V30 1572 H 146.222 4.55715 -1.96565 0
M  V30 1573 H 141.478 5.19235 -3.22809 0
M  V30 1574 H 145.652 5.61385 -4.12092 0
M  V30 1575 H 143.279 5.92912 -4.75773 0
M  V30 1576 N 144.854 0.36279 1.53368 0
M  V30 1577 C 146.1 -0.220702 2.02199 0
M  V30 1578 C 146.455 -1.46649 1.24546 0
M  V30 1579 O 145.748 -1.88737 0.32996 0
M  V30 1580 C 145.942 -0.568417 3.52851 0
M  V30 1581 C 145.771 0.642126 4.45092 0
M  V30 1582 C 144.541 1.15335 4.91961 0
M  V30 1583 C 146.739 1.50649 4.91741 0
M  V30 1584 N 144.721 2.3242 5.68202 0
M  V30 1585 C 146.092 2.52404 5.66297 0
M  V30 1586 C 148.147 1.52969 4.73819 0
M  V30 1587 C 146.85 3.56331 6.24836 0
M  V30 1588 C 148.876 2.55789 5.33222 0
M  V30 1589 C 148.238 3.56268 6.07662 0
M  V30 1590 H 144.337 -0.0435508 0.780786 0
M  V30 1591 H 146.921 0.506704 1.87991 0
M  V30 1592 H 145.092 -1.2649 3.67226 0
M  V30 1593 H 146.824 -1.13676 3.88407 0
M  V30 1594 H 143.579 0.718412 4.68119 0
M  V30 1595 H 144.003 2.91591 6.10986 0
M  V30 1596 H 148.645 0.766418 4.15795 0
M  V30 1597 H 146.363 4.33543 6.81958 0
M  V30 1598 H 149.949 2.58435 5.21251 0
M  V30 1599 H 148.829 4.34524 6.52808 0
M  V30 1600 N 146.332 -1.57332 0.0918853 0
M  V30 1601 C 147.242 -2.17368 -0.882505 0
M  V30 1602 C 148.258 -1.14226 -1.31257 0
M  V30 1603 O 149.434 -1.46582 -1.38115 0
M  V30 1604 C 146.499 -2.73962 -2.12476 0
M  V30 1605 C 145.56 -3.92048 -1.7492 0
M  V30 1606 C 144.793 -4.45933 -2.93223 0
M  V30 1607 O 145.016 -3.98764 -4.07852 0
M  V30 1608 O 143.95 -5.36999 -2.71875 0
M  V30 1609 H 147.776 -3.01031 -0.40172 0
M  V30 1610 H 145.361 -1.48813 -0.132291 0
M  V30 1611 H 147.243 -3.10147 -2.85283 0
M  V30 1612 H 145.918 -1.93347 -2.59613 0
M  V30 1613 H 144.825 -3.6068 -0.993025 0
M  V30 1614 H 146.158 -4.74017 -1.32548 0
M  V30 1615 N 147.81 0.181792 -1.56548 0
M  V30 1616 C 149.058 0.89832 -1.81038 0
M  V30 1617 C 149.379 1.83232 -0.667164 0
M  V30 1618 O 148.649 1.93372 0.313673 0
M  V30 1619 H 147.229 0.33471 -0.667816 0
M  V30 1620 H 149.891 0.184116 -1.94028 0
M  V30 1621 H 148.987 1.4815 -2.74696 0
M  V30 1622 N 149.288 1.51039 0.449983 0
M  V30 1623 C 150.528 1.64732 1.21007 0
M  V30 1624 C 150.892 0.349865 1.88785 0
M  V30 1625 O 152.093 0.362431 2.66345 0
M  V30 1626 C 150.364 2.80902 2.20973 0
M  V30 1627 S 151.923 3.14851 3.05638 0
M  V30 1628 H 148.741 0.5805 0.410538 0
M  V30 1629 H 151.343 1.88901 0.503634 0
M  V30 1630 H 150.047 3.73627 1.69796 0
M  V30 1631 H 149.578 2.58882 2.96215 0
M  V30 1632 H 151.593 2.60306 4.22439 0
M  V30 1633 N 150.766 -0.704594 1.40972 0
M  V30 1634 C 151.696 -1.83124 1.44872 0
M  V30 1635 C 152.677 -1.67281 0.30838 0
M  V30 1636 O 153.862 -1.87149 0.518556 0
M  V30 1637 C 150.992 -3.21181 1.32136 0
M  V30 1638 C 149.946 -3.51714 2.43888 0
M  V30 1639 C 149.272 -4.89032 2.16222 0
M  V30 1640 C 150.572 -3.516 3.86232 0
M  V30 1641 H 152.266 -1.80117 2.39161 0
M  V30 1642 H 149.812 -0.865145 1.15114 0
M  V30 1643 H 151.765 -3.99702 1.33479 0
M  V30 1644 H 150.489 -3.24791 0.343279 0
M  V30 1645 H 149.148 -2.75539 2.41813 0
M  V30 1646 H 148.796 -4.89256 1.16778 0
M  V30 1647 H 148.496 -5.10426 2.911 0
M  V30 1648 H 150.02 -5.69873 2.19265 0
M  V30 1649 H 151.434 -4.2014 3.9007 0
M  V30 1650 H 149.831 -3.84523 4.60719 0
M  V30 1651 H 150.901 -2.50757 4.15029 0
M  V30 1652 N 152.244 -1.26651 -0.937939 0
M  V30 1653 C 153.469 -1.15279 -1.72411 0
M  V30 1654 C 153.894 0.287866 -1.85884 0
M  V30 1655 O 153.252 1.20855 -1.35143 0
M  V30 1656 C 153.3 -1.83028 -3.10698 0
M  V30 1657 O 152.404 -1.12128 -3.96864 0
M  V30 1658 H 151.745 -0.401504 -0.528858 0
M  V30 1659 H 154.275 -1.67531 -1.1745 0
M  V30 1660 H 154.285 -1.89981 -3.6107 0
M  V30 1661 H 152.96 -2.87833 -3.00208 0
M  V30 1662 H 151.537 -1.13173 -3.55312 0
M  V30 1663 N 153.722 1.14298 -1.08507 0
M  V30 1664 C 154.968 1.85633 -0.816581 0
M  V30 1665 C 155.301 1.82784 0.656021 0
M  V30 1666 O 154.576 1.25926 1.48233 0
M  V30 1667 C 154.859 3.34223 -1.34041 0
M  V30 1668 C 154.712 3.45639 -2.87843 0
M  V30 1669 C 156.031 4.29356 -0.9665 0
M  V30 1670 H 153.15 0.67402 -0.298104 0
M  V30 1671 H 155.792 1.34214 -1.34487 0
M  V30 1672 H 153.942 3.78144 -0.89104 0
M  V30 1673 H 155.614 3.10498 -3.41158 0
M  V30 1674 H 153.857 2.86817 -3.25451 0
M  V30 1675 H 154.528 4.50089 -3.19569 0
M  V30 1676 H 157.004 3.93457 -1.35391 0
M  V30 1677 H 155.88 5.3178 -1.3602 0
M  V30 1678 H 156.141 4.41919 0.126362 0
M  V30 1679 N 155.201 0.870884 1.31352 0
M  V30 1680 C 156.612 0.534714 1.78879 0
M  V30 1681 C 156.963 -0.948423 1.71754 0
M  V30 1682 O 156.088 -1.74055 1.28584 0
M  V30 1683 C 156.683 0.963839 3.24801 0
M  V30 1684 C 155.242 0.679311 3.70219 0
M  V30 1685 C 154.389 1.15465 2.52117 0
M  V30 1686 H 157.34 1.05651 1.18421 0
M  V30 1687 H 157.361 0.286892 3.79417 0
M  V30 1688 H 156.873 2.04332 3.29955 0
M  V30 1689 H 154.974 -0.388769 3.70566 0
M  V30 1690 H 155.087 1.25698 4.62317 0
M  V30 1691 H 153.451 0.574383 2.48139 0
M  V30 1692 H 154.234 2.24157 2.60016 0
M  V30 1693 N 156.679 -1.44442 0.630414 0
M  V30 1694 C 157.927 -2.01653 0.134351 0
M  V30 1695 C 158.248 -1.49836 -1.24796 0
M  V30 1696 O 157.518 -0.701684 -1.82902 0
M  V30 1697 H 156.098 -0.74554 0.0466769 0
M  V30 1698 H 158.76 -1.76952 0.816955 0
M  V30 1699 H 157.856 -3.11935 0.101498 0
M  V30 1700 N 158.157 -0.370918 -1.53173 0
M  V30 1701 C 159.09 0.516727 -2.22273 0
M  V30 1702 C 160.068 1.07877 -1.21661 0
M  V30 1703 O 161.252 1.13389 -1.50583 0
M  V30 1704 C 158.379 1.71346 -2.92161 0
M  V30 1705 C 157.425 1.27838 -4.0689 0
M  V30 1706 S 158.258 0.275217 -5.34792 0
M  V30 1707 C 159.414 1.47816 -6.08195 0
M  V30 1708 H 159.647 -0.0701054 -2.97217 0
M  V30 1709 H 157.18 -0.155038 -1.5362 0
M  V30 1710 H 159.138 2.39988 -3.3304 0
M  V30 1711 H 157.799 2.27156 -2.16931 0
M  V30 1712 H 156.992 2.17141 -4.54825 0
M  V30 1713 H 156.594 0.671105 -3.6793 0
M  V30 1714 H 158.886 2.40831 -6.33251 0
M  V30 1715 H 159.829 1.04008 -7.0042 0
M  V30 1716 H 160.237 1.68663 -5.38714 0
M  V30 1717 N 159.635 1.57281 -0.100228 0
M  V30 1718 C 161.051 1.57527 0.256416 0
M  V30 1719 C 161.251 1.11173 1.68056 0
M  V30 1720 O 160.307 0.79053 2.39806 0
M  V30 1721 C 161.62 3.00673 0.0401747 0
M  V30 1722 C 163.168 3.12815 0.107528 0
M  V30 1723 C 163.643 4.57929 -0.0807834 0
M  V30 1724 N 165.134 4.63193 -0.0261207 0
M  V30 1725 C 165.869 5.73212 -0.146999 0
M  V30 1726 N 165.365 6.92047 -0.322999 0
M  V30 1727 N 167.158 5.62031 -0.0879044 0
M  V30 1728 H 159.309 1.85718 -1.03065 0
M  V30 1729 H 161.572 0.857446 -0.404339 0
M  V30 1730 H 161.278 3.38804 -0.943649 0
M  V30 1731 H 161.152 3.69042 0.780262 0
M  V30 1732 H 163.539 2.74554 1.08186 0
M  V30 1733 H 163.62 2.47028 -0.664134 0
M  V30 1734 H 163.264 4.96886 -1.05201 0
M  V30 1735 H 163.194 5.21783 0.710635 0
M  V30 1736 H 165.685 3.77748 0.107161 0
M  V30 1737 H 165.998 7.7173 -0.406608 0
M  V30 1738 H 164.343 6.94074 -0.358733 0
M  V30 1739 H 167.534 4.68075 0.048498 0
M  V30 1740 H 167.707 6.47734 -0.185557 0
M  V30 1741 N 161.113 -0.173488 1.56642 0
M  V30 1742 C 162.361 -0.888706 1.81512 0
M  V30 1743 C 162.682 -1.82875 0.676872 0
M  V30 1744 O 161.952 -1.93536 -0.303414 0
M  V30 1745 H 160.532 -0.331164 0.669582 0
M  V30 1746 H 163.194 -0.173823 1.94123 0
M  V30 1747 H 162.29 -1.46691 2.75478 0
M  V30 1748 N 162.591 -1.51276 -0.441967 0
M  V30 1749 C 163.821 -1.67273 -1.21257 0
M  V30 1750 C 164.229 -0.367624 -1.85594 0
M  V30 1751 O 163.572 0.663349 -1.71305 0
M  V30 1752 C 163.634 -2.72807 -2.34129 0
M  V30 1753 C 163.298 -4.1554 -1.90198 0
M  V30 1754 C 164.295 -5.00471 -1.40801 0
M  V30 1755 C 161.98 -4.61616 -1.9803 0
M  V30 1756 C 163.974 -6.29536 -0.998174 0
M  V30 1757 C 161.661 -5.90679 -1.56658 0
M  V30 1758 C 162.659 -6.74466 -1.07633 0
M  V30 1759 O 162.347 -8.01116 -0.668459 0
M  V30 1760 H 162.079 -0.564614 -0.371734 0
M  V30 1761 H 164.633 -1.9843 -0.530521 0
M  V30 1762 H 162.863 -2.36954 -3.05597 0
M  V30 1763 H 164.552 -2.77729 -2.96009 0
M  V30 1764 H 165.318 -4.66079 -1.34148 0
M  V30 1765 H 161.197 -3.96526 -2.35135 0
M  V30 1766 H 164.741 -6.94885 -0.61482 0
M  V30 1767 H 160.638 -6.24586 -1.62979 0
M  V30 1768 H 161.406 -8.14633 -0.794722 0
M  V30 1769 N 164.069 0.697108 -1.41344 0
M  V30 1770 C 165.315 1.4593 -1.40827 0
M  V30 1771 C 165.648 1.94193 -0.0167098 0
M  V30 1772 O 164.923 1.69425 0.955263 0
M  V30 1773 C 165.206 2.67229 -2.41373 0
M  V30 1774 C 165.059 2.24741 -3.8963 0
M  V30 1775 C 166.378 3.69423 -2.39196 0
M  V30 1776 H 163.497 0.529303 -0.512842 0
M  V30 1777 H 166.139 0.794112 -1.72609 0
M  V30 1778 H 164.289 3.23982 -2.14401 0
M  V30 1779 H 165.961 1.73327 -4.27499 0
M  V30 1780 H 164.204 1.56542 -4.0457 0
M  V30 1781 H 164.875 3.1177 -4.55525 0
M  V30 1782 H 167.351 3.2234 -2.63128 0
M  V30 1783 H 166.227 4.51907 -3.11563 0
M  V30 1784 H 166.488 4.19012 -1.41001 0
M  V30 1785 N 165.547 1.27147 0.931209 0
M  V30 1786 C 166.457 1.11372 2.06478 0
M  V30 1787 C 167.473 0.044645 1.73943 0
M  V30 1788 O 168.649 0.250417 1.99837 0
M  V30 1789 C 165.714 0.758838 3.38294 0
M  V30 1790 C 164.775 1.90841 3.84549 0
M  V30 1791 C 164.008 1.57036 5.10074 0
M  V30 1792 O 164.231 0.476645 5.68405 0
M  V30 1793 O 163.165 2.40839 5.51616 0
M  V30 1794 H 166.991 2.06493 2.22698 0
M  V30 1795 H 164.576 1.06301 1.04978 0
M  V30 1796 H 166.458 0.574098 4.17471 0
M  V30 1797 H 165.133 -0.162879 3.2329 0
M  V30 1798 H 164.04 2.14819 3.06274 0
M  V30 1799 H 165.373 2.81021 4.04089 0
M  V30 1800 N 167.025 -1.13721 1.09112 0
M  V30 1801 C 168.441 -1.36914 0.820174 0
M  V30 1802 C 168.641 -1.93356 -0.567079 0
M  V30 1803 O 167.697 -2.15093 -1.32255 0
M  V30 1804 C 169.01 -2.3235 1.90877 0
M  V30 1805 C 170.558 -2.45973 1.93562 0
M  V30 1806 C 171.033 -3.44714 3.01556 0
M  V30 1807 N 172.524 -3.52263 3.00775 0
M  V30 1808 C 173.259 -4.28536 3.80978 0
M  V30 1809 N 172.755 -5.07991 4.71081 0
M  V30 1810 N 174.548 -4.23804 3.69251 0
M  V30 1811 H 166.699 -0.754348 1.98553 0
M  V30 1812 H 168.962 -0.3944 0.862063 0
M  V30 1813 H 168.668 -1.98027 2.90651 0
M  V30 1814 H 168.542 -3.32332 1.78424 0
M  V30 1815 H 170.929 -2.79584 0.944286 0
M  V30 1816 H 171.01 -1.45926 2.10093 0
M  V30 1817 H 170.654 -3.11835 4.00901 0
M  V30 1818 H 170.584 -4.44558 2.82269 0
M  V30 1819 H 173.075 -2.95567 2.35475 0
M  V30 1820 H 173.388 -5.63487 5.28869 0
M  V30 1821 H 171.733 -5.07235 4.75119 0
M  V30 1822 H 174.924 -3.60806 2.98222 0
M  V30 1823 H 175.097 -4.82995 4.31995 0
M  V30 1824 N 168.503 -0.877838 -1.30888 0
M  V30 1825 C 169.914 -0.544193 -1.78593 0
M  V30 1826 C 170.265 0.939301 -1.72254 0
M  V30 1827 O 169.39 1.7337 -1.29505 0
M  V30 1828 C 169.985 -0.98105 -3.24285 0
M  V30 1829 C 168.544 -0.698935 -3.69854 0
M  V30 1830 C 167.691 -1.168 -2.51502 0
M  V30 1831 H 170.642 -1.06278 -1.17859 0
M  V30 1832 H 170.663 -0.307009 -3.79259 0
M  V30 1833 H 170.175 -2.06079 -3.28866 0
M  V30 1834 H 168.276 0.369112 -3.70767 0
M  V30 1835 H 168.389 -1.28148 -4.61644 0
M  V30 1836 H 166.753 -0.587535 -2.47831 0
M  V30 1837 H 167.536 -2.25533 -2.58824 0
M  V30 1838 N 169.982 1.44106 -0.638065 0
M  V30 1839 C 170.93 2.3248 0.0748149 0
M  V30 1840 C 171.924 1.47746 0.828702 0
M  V30 1841 O 173.13 1.64049 0.740816 0
M  V30 1842 H 169.505 0.750771 0.0429686 0
M  V30 1843 H 171.476 2.90348 -0.688504 0
M  V30 1844 C 170.225 3.31843 1.03805 0
M  V30 1845 H 169.548 3.97059 0.467375 0
M  V30 1846 H 170.988 3.96345 1.50622 0
M  V30 1847 C 169.447 2.61291 2.1267 0
M  V30 1848 O 169.977 2.41702 3.20847 0
M  V30 1849 N 168.183 2.20915 1.88798 0
M  V30 1850 H 167.73 2.37047 1.00829 0
M  V30 1851 H 167.688 1.74038 2.61836 0
M  V30 1852 N 171.46 0.379036 1.52974 0
M  V30 1853 C 172.392 -0.495963 2.2377 0
M  V30 1854 C 173.405 -1.03517 1.25651 0
M  V30 1855 O 174.594 -0.939249 1.51791 0
M  V30 1856 C 171.694 -1.69894 2.93239 0
M  V30 1857 C 170.867 -1.2889 4.17979 0
M  V30 1858 C 169.926 -2.35543 4.70538 0
M  V30 1859 O 168.952 -1.97375 5.33883 0
M  V30 1860 N 170.154 -3.67318 4.49508 0
M  V30 1861 H 172.919 0.110523 2.99496 0
M  V30 1862 H 170.48 0.204878 1.60598 0
M  V30 1863 H 172.472 -2.40747 3.25304 0
M  V30 1864 H 171.042 -2.212 2.20883 0
M  V30 1865 H 170.262 -0.409676 3.92065 0
M  V30 1866 H 171.55 -0.991443 4.99047 0
M  V30 1867 H 170.948 -4.01095 3.98923 0
M  V30 1868 H 169.505 -4.34235 4.8609 0
M  V30 1869 N 172.938 -1.57226 0.108567 0
M  V30 1870 C 174.187 -1.94008 -0.551703 0
M  V30 1871 C 174.5 -0.993442 -1.68494 0
M  V30 1872 O 175.706 -1.25551 -2.40726 0
M  V30 1873 C 174.162 -3.44763 -1.03279 0
M  V30 1874 C 173.77 -4.47943 0.0714193 0
M  V30 1875 C 175.514 -3.90483 -1.66503 0
M  V30 1876 C 173.421 -5.89865 -0.425779 0
M  V30 1877 H 172.351 -0.724206 -0.209863 0
M  V30 1878 H 175.002 -1.82547 0.186741 0
M  V30 1879 H 173.384 -3.51422 -1.82533 0
M  V30 1880 H 174.558 -4.52942 0.847365 0
M  V30 1881 H 172.873 -4.11913 0.609669 0
M  V30 1882 H 175.47 -4.93925 -2.04798 0
M  V30 1883 H 175.813 -3.29877 -2.53942 0
M  V30 1884 H 176.346 -3.86581 -0.938074 0
M  V30 1885 H 173.085 -6.54202 0.412316 0
M  V30 1886 H 172.605 -5.88309 -1.16843 0
M  V30 1887 H 174.284 -6.40844 -0.890397 0
M  V30 1888 N 174.416 0.165178 -1.56732 0
M  V30 1889 C 175.832 0.517174 -1.50988 0
M  V30 1890 C 176.032 1.84331 -0.813894 0
M  V30 1891 O 175.088 2.49672 -0.37682 0
M  V30 1892 C 176.401 0.544261 -2.95733 0
M  V30 1893 C 177.949 0.631039 -3.06573 0
M  V30 1894 C 178.424 0.68896 -4.52788 0
M  V30 1895 N 179.915 0.751683 -4.5706 0
M  V30 1896 C 180.65 0.817177 -5.67547 0
M  V30 1897 N 180.146 0.843129 -6.8765 0
M  V30 1898 N 181.939 0.856668 -5.55534 0
M  V30 1899 H 174.09 -0.704318 -2.00382 0
M  V30 1900 H 176.353 -0.254687 -0.913148 0
M  V30 1901 H 176.059 -0.361607 -3.49836 0
M  V30 1902 H 175.933 1.3886 -3.5071 0
M  V30 1903 H 178.32 1.52733 -2.52501 0
M  V30 1904 H 178.401 -0.240095 -2.54671 0
M  V30 1905 H 178.045 -0.2031 -5.07494 0
M  V30 1906 H 177.975 1.57633 -5.02454 0
M  V30 1907 H 180.466 0.739661 -3.70591 0
M  V30 1908 H 180.779 0.894448 -7.67606 0
M  V30 1909 H 179.124 0.811304 -6.90248 0
M  V30 1910 H 182.315 0.833437 -4.60621 0
M  V30 1911 H 182.488 0.904247 -6.4166 0
M  V30 1912 N 175.894 1.51508 0.433938 0
M  V30 1913 C 176.827 1.67756 1.54704 0
M  V30 1914 C 177.805 0.525127 1.53887 0
M  V30 1915 O 178.989 0.749393 1.72963 0
M  V30 1916 C 176.116 1.69424 2.9328 0
M  V30 1917 C 175.162 2.90673 3.12108 0
M  V30 1918 S 175.995 4.51431 2.88046 0
M  V30 1919 C 177.151 4.55849 4.28897 0
M  V30 1920 H 177.384 2.61904 1.40689 0
M  V30 1921 H 174.917 1.41235 0.62386 0
M  V30 1922 H 176.875 1.7107 3.73156 0
M  V30 1923 H 175.536 0.764464 3.04655 0
M  V30 1924 H 174.729 2.88251 4.13434 0
M  V30 1925 H 174.331 2.86786 2.40062 0
M  V30 1926 H 176.623 4.31699 5.22152 0
M  V30 1927 H 177.566 5.57676 4.36351 0
M  V30 1928 H 177.974 3.85137 4.12711 0
M  V30 1929 N 177.372 -0.689602 1.41712 0
M  V30 1930 C 178.304 -1.815 1.39966 0
M  V30 1931 C 179.317 -1.59995 0.300917 0
M  V30 1932 O 180.506 -1.69387 0.563039 0
M  V30 1933 C 177.606 -3.18364 1.16179 0
M  V30 1934 C 176.779 -3.66847 2.38206 0
M  V30 1935 C 175.838 -4.82398 2.10186 0
M  V30 1936 O 174.864 -4.93706 2.83272 0
M  V30 1937 N 176.066 -5.70064 1.0958 0
M  V30 1938 H 178.831 -1.83488 2.36965 0
M  V30 1939 H 176.392 -0.872149 1.36401 0
M  V30 1940 H 178.384 -3.93301 0.953756 0
M  V30 1941 H 176.954 -3.11365 0.27756 0
M  V30 1942 H 176.174 -2.82751 2.74673 0
M  V30 1943 H 177.462 -3.95978 3.19498 0
M  V30 1944 H 176.86 -5.63565 0.491019 0
M  V30 1945 H 175.417 -6.44874 0.947656 0
M  V30 1946 N 178.85 -1.27639 -0.924453 0
M  V30 1947 C 180.096 -1.15345 -1.67532 0
M  V30 1948 C 180.451 0.297096 -1.90092 0
M  V30 1949 O 179.744 1.21374 -1.48253 0
M  V30 1950 C 179.938 -1.87407 -3.04325 0
M  V30 1951 C 179.767 -3.3932 -2.95114 0
M  V30 1952 C 178.537 -4.08644 -2.97218 0
M  V30 1953 C 180.735 -4.35242 -2.73987 0
M  V30 1954 N 178.717 -5.47102 -2.78482 0
M  V30 1955 C 180.088 -5.6099 -2.63988 0
M  V30 1956 C 182.143 -4.25294 -2.589 0
M  V30 1957 C 180.846 -6.77924 -2.40442 0
M  V30 1958 C 182.872 -5.41952 -2.36731 0
M  V30 1959 C 182.234 -6.66658 -2.27478 0
M  V30 1960 H 178.333 -0.47696 -0.619704 0
M  V30 1961 H 180.917 -1.6115 -1.09265 0
M  V30 1962 H 179.088 -1.44053 -3.60699 0
M  V30 1963 H 180.82 -1.6759 -3.68369 0
M  V30 1964 H 177.575 -3.60136 -3.07569 0
M  V30 1965 H 177.999 -6.19852 -2.72236 0
M  V30 1966 H 182.641 -3.29598 -2.64811 0
M  V30 1967 H 180.359 -7.73699 -2.3327 0
M  V30 1968 H 183.945 -5.36137 -2.25938 0
M  V30 1969 H 182.825 -7.55405 -2.10555 0
M  V30 1970 N 180.328 1.1314 -1.09713 0
M  V30 1971 C 181.261 2.17735 -0.683137 0
M  V30 1972 C 182.239 1.59582 0.311841 0
M  V30 1973 O 183.423 1.87298 0.212514 0
M  V30 1974 C 180.55 3.38699 -0.00684324 0
M  V30 1975 C 179.596 4.1546 -0.964102 0
M  V30 1976 S 180.429 4.74733 -2.47767 0
M  V30 1977 C 181.585 5.9904 -1.81387 0
M  V30 1978 H 181.818 2.52515 -1.56918 0
M  V30 1979 H 179.351 1.24484 -0.913404 0
M  V30 1980 H 181.309 4.08765 0.377044 0
M  V30 1981 H 179.97 3.02214 0.85589 0
M  V30 1982 H 179.163 5.02093 -0.43803 0
M  V30 1983 H 178.765 3.51066 -1.28953 0
M  V30 1984 H 181.057 6.67846 -1.13967 0
M  V30 1985 H 182 6.56261 -2.65947 0
M  V30 1986 H 182.408 5.4976 -1.28155 0
M  V30 1987 N 181.806 0.884767 1.30421 0
M  V30 1988 C 183.083 0.423185 1.90967 0
M  V30 1989 C 183.463 -1.09605 1.80416 0
M  V30 1990 O 182.811 -1.93126 1.22125 0
M  V30 1991 C 183.021 0.921056 3.36627 0
M  V30 1992 C 184.369 0.955903 4.137 0
M  V30 1993 O 185.393 0.867706 3.4547 0
M  V30 1994 O 184.252 1.08614 5.35598 0
M  V30 1995 H 181.346 0.129369 0.816819 0
M  V30 1996 H 183.892 0.973653 1.3899 0
M  V30 1997 H 182.664 1.96489 3.3839 0
M  V30 1998 H 182.287 0.349741 3.96059 0
M  V30 1999 N 183.284 -1.43765 0.645699 0
M  V30 2000 C 184.194 -2.34544 -0.0512957 0
M  V30 2001 C 185.21 -1.53455 -0.82022 0
M  V30 2002 O 186.386 -1.86133 -0.769176 0
M  V30 2003 C 183.451 -3.31636 -1.01087 0
M  V30 2004 C 182.512 -4.2863 -0.239712 0
M  V30 2005 C 181.745 -5.21084 -1.15358 0
M  V30 2006 O 181.968 -5.1779 -2.39269 0
M  V30 2007 O 180.902 -5.98593 -0.630038 0
M  V30 2008 H 184.728 -2.95624 0.695718 0
M  V30 2009 H 182.313 -1.43781 0.405882 0
M  V30 2010 H 184.195 -3.9136 -1.56254 0
M  V30 2011 H 182.87 -2.73069 -1.73824 0
M  V30 2012 H 181.777 -3.72408 0.355356 0
M  V30 2013 H 183.11 -4.90157 0.447936 0
M  V30 2014 N 184.763 -0.387143 -1.52771 0
M  V30 2015 C 185.71 0.449048 -2.26389 0
M  V30 2016 C 186.68 1.05961 -1.27912 0
M  V30 2017 O 187.865 1.08804 -1.56737 0
M  V30 2018 C 185.005 1.57155 -3.0724 0
M  V30 2019 C 184.118 0.984066 -4.20643 0
M  V30 2020 C 183.253 2.07745 -4.88892 0
M  V30 2021 C 182.292 1.46574 -5.94292 0
M  V30 2022 N 181.429 2.49834 -6.56146 0
M  V30 2023 H 186.269 -0.185205 -2.97424 0
M  V30 2024 H 183.806 -0.103164 -1.46738 0
M  V30 2025 H 185.764 2.23309 -3.52405 0
M  V30 2026 H 184.394 2.17615 -2.38419 0
M  V30 2027 H 183.446 0.212193 -3.79808 0
M  V30 2028 H 184.758 0.497029 -4.96318 0
M  V30 2029 H 183.912 2.81673 -5.3735 0
M  V30 2030 H 182.651 2.59807 -4.12737 0
M  V30 2031 H 181.656 0.711696 -5.45174 0
M  V30 2032 H 182.881 0.953088 -6.72379 0
M  V30 2033 H 180.827 3.0107 -5.82832 0
M  V30 2034 H 180.744 2.05879 -7.27427 0
M  V30 2035 H 182.012 3.23399 -7.09249 0
M  V30 2036 N 186.241 1.57166 -0.116904 0
M  V30 2037 C 187.489 1.94737 0.540533 0
M  V30 2038 C 187.81 1.00096 1.67349 0
M  V30 2039 O 187.08 0.0568854 1.95817 0
M  V30 2040 H 185.66 0.718981 0.202669 0
M  V30 2041 H 188.322 1.94017 -0.185353 0
M  V30 2042 H 187.418 2.97719 0.936483 0
M  V30 2043 N 187.719 -0.156864 1.56817 0
M  V30 2044 C 188.667 -1.21319 1.98455 0
M  V30 2045 C 189.661 -1.45025 0.875444 0
M  V30 2046 O 190.867 -1.45435 1.0606 0
M  V30 2047 H 187.242 -0.408142 0.631605 0
M  V30 2048 H 189.213 -0.835244 2.86472 0
M  V30 2049 C 187.962 -2.54148 2.37285 0
M  V30 2050 H 187.285 -2.36733 3.22176 0
M  V30 2051 H 188.725 -3.26712 2.70251 0
M  V30 2052 C 187.184 -3.13967 1.22173 0
M  V30 2053 O 187.714 -3.98357 0.517149 0
M  V30 2054 N 185.92 -2.7327 0.988536 0
M  V30 2055 H 185.467 -2.04744 1.56326 0
M  V30 2056 H 185.425 -3.13628 0.220209 0
M  V30 2057 N 189.197 -1.51736 -0.425897 0
M  V30 2058 C 190.129 -1.70083 -1.53638 0
M  V30 2059 C 191.142 -0.581349 -1.52066 0
M  V30 2060 O 192.331 -0.856017 -1.56635 0
M  V30 2061 C 189.431 -1.71078 -2.9255 0
M  V30 2062 C 188.604 -2.99795 -3.185 0
M  V30 2063 C 187.663 -2.92825 -4.37196 0
M  V30 2064 O 186.689 -3.66756 -4.35291 0
M  V30 2065 N 187.891 -2.0946 -5.41393 0
M  V30 2066 H 190.656 -2.65882 -1.383 0
M  V30 2067 H 188.217 -1.49765 -0.614988 0
M  V30 2068 H 190.209 -1.63969 -3.69995 0
M  V30 2069 H 188.779 -0.828242 -3.01428 0
M  V30 2070 H 187.999 -3.20684 -2.2925 0
M  V30 2071 H 189.287 -3.84977 -3.32671 0
M  V30 2072 H 188.685 -1.48792 -5.45781 0
M  V30 2073 H 187.242 -2.08221 -6.17647 0
M  V30 2074 N 190.675 0.682077 -1.42076 0
M  V30 2075 C 191.922 1.44215 -1.42156 0
M  V30 2076 C 192.25 1.94468 -0.0354186 0
M  V30 2077 O 191.505 1.70816 0.955002 0
M  V30 2078 C 191.804 2.66036 -2.38662 0
M  V30 2079 C 191.47 2.34366 -3.85206 0
M  V30 2080 C 190.132 2.25439 -4.25124 0
M  V30 2081 C 192.484 2.08513 -4.77673 0
M  V30 2082 C 189.812 1.88775 -5.55501 0
M  V30 2083 C 192.164 1.73354 -6.08384 0
M  V30 2084 C 190.828 1.62933 -6.47309 0
M  V30 2085 H 190.098 0.527718 -0.520187 0
M  V30 2086 H 192.745 0.778387 -1.74967 0
M  V30 2087 H 191.05 3.3741 -1.99152 0
M  V30 2088 H 192.747 3.24205 -2.35991 0
M  V30 2089 H 189.337 2.42213 -3.53597 0
M  V30 2090 H 193.521 2.14346 -4.47626 0
M  V30 2091 H 188.777 1.7927 -5.84527 0
M  V30 2092 H 192.951 1.52373 -6.79526 0
M  V30 2093 H 190.578 1.34292 -7.48244 0
M  V30 2094 N 192.153 1.28127 0.917671 0
M  V30 2095 C 193.43 1.05761 1.64542 0
M  V30 2096 C 193.81 -0.404344 2.07191 0
M  V30 2097 O 193.158 -1.38963 1.81388 0
M  V30 2098 C 193.368 2.02857 2.83989 0
M  V30 2099 C 194.716 2.32786 3.551 0
M  V30 2100 O 195.74 2.0091 2.94132 0
M  V30 2101 O 194.599 2.87169 4.64969 0
M  V30 2102 H 191.693 0.403916 0.721652 0
M  V30 2103 H 194.239 1.39431 0.967322 0
M  V30 2104 H 193.011 3.01407 2.49538 0
M  V30 2105 H 192.634 1.69809 3.59514 0
M  V30 2106 N 193.631 -1.12557 1.10312 0
M  V30 2107 C 194.541 -2.21841 0.763142 0
M  V30 2108 C 195.557 -1.72354 -0.238801 0
M  V30 2109 O 196.733 -2.01249 -0.0778746 0
M  V30 2110 C 193.798 -3.46131 0.198632 0
M  V30 2111 C 192.859 -4.10464 1.25769 0
M  V30 2112 C 192.092 -5.28821 0.72002 0
M  V30 2113 O 192.315 -5.6859 -0.453993 0
M  V30 2114 O 191.249 -5.83437 1.47935 0
M  V30 2115 H 195.075 -2.53312 1.67532 0
M  V30 2116 H 192.66 -1.20867 0.878157 0
M  V30 2117 H 194.542 -4.2125 -0.112401 0
M  V30 2118 H 193.217 -3.16338 -0.686419 0
M  V30 2119 H 192.124 -3.3713 1.62156 0
M  V30 2120 H 193.457 -4.44408 2.11571 0
M  V30 2121 N 195.109 -0.891671 -1.2995 0
M  V30 2122 C 196.337 -0.52866 -2.00032 0
M  V30 2123 C 196.752 0.884574 -1.66795 0
M  V30 2124 O 196.109 1.5827 -0.908669 0
M  V30 2125 C 196.16 -0.701814 -3.54622 0
M  V30 2126 O 195.881 -2.05942 -3.86678 0
M  V30 2127 C 197.382 -0.342683 -4.41973 0
M  V30 2128 H 194.602 -0.203659 -0.639347 0
M  V30 2129 H 197.146 -1.19881 -1.65677 0
M  V30 2130 H 195.301 -0.0789468 -3.8732 0
M  V30 2131 H 195.715 -2.08291 -4.81368 0
M  V30 2132 H 197.189 -0.514709 -5.49595 0
M  V30 2133 H 197.666 0.71975 -4.33262 0
M  V30 2134 H 198.272 -0.942154 -4.14733 0
M  V30 2135 N 196.587 1.43421 -0.653314 0
M  V30 2136 C 197.836 2.01032 -0.164076 0
M  V30 2137 C 198.149 1.52147 1.22926 0
M  V30 2138 O 199.355 2.02031 1.81371 0
M  V30 2139 C 197.811 3.59082 -0.24252 0
M  V30 2140 C 197.419 4.1696 -1.63855 0
M  V30 2141 C 199.163 4.24079 0.18911 0
M  V30 2142 C 197.07 5.67304 -1.67092 0
M  V30 2143 H 196 0.751798 -0.0575769 0
M  V30 2144 H 198.651 1.6439 -0.815362 0
M  V30 2145 H 197.033 3.93125 0.476276 0
M  V30 2146 H 198.207 3.94416 -2.38271 0
M  V30 2147 H 196.522 3.64335 -2.01616 0
M  V30 2148 H 199.119 5.34381 0.184775 0
M  V30 2149 H 199.462 3.98005 1.22056 0
M  V30 2150 H 199.995 3.94918 -0.477938 0
M  V30 2151 H 196.734 5.98145 -2.68146 0
M  V30 2152 H 196.254 5.91904 -0.970014 0
M  V30 2153 H 197.933 6.31344 -1.4147 0
M  V30 2154 N 198.065 0.39524 1.52563 0
M  V30 2155 C 199.342 -0.242908 1.94086 0
M  V30 2156 C 199.722 -1.63841 1.33114 0
M  V30 2157 O 199.07 -2.22928 0.501529 0
M  V30 2158 C 199.28 -0.26327 3.48006 0
M  V30 2159 C 200.628 -0.489354 4.21771 0
M  V30 2160 O 201.652 -0.343226 3.54543 0
M  V30 2161 O 200.511 -0.776169 5.4096 0
M  V30 2162 H 197.605 -0.152536 0.812811 0
M  V30 2163 H 200.151 0.450178 1.6362 0
M  V30 2164 H 198.923 0.713985 3.84731 0
M  V30 2165 H 198.546 -1.00103 3.84792 0
M  V30 2166 N 199.544 -1.57102 0.125237 0
M  V30 2167 C 200.792 -1.95021 -0.530198 0
M  V30 2168 C 201.113 -1.00982 -1.66816 0
M  V30 2169 O 200.383 -0.0672693 -1.95784 0
M  V30 2170 H 198.963 -0.720046 -0.198853 0
M  V30 2171 H 201.625 -1.93916 0.19564 0
M  V30 2172 H 200.721 -2.98211 -0.920681 0
M  V30 2173 N 201.022 0.148545 -1.56898 0
M  V30 2174 C 202.252 0.875118 -1.8715 0
M  V30 2175 C 202.66 1.75322 -0.711262 0
M  V30 2176 O 202.003 1.80745 0.328151 0
M  V30 2177 C 202.065 1.7844 -3.12089 0
M  V30 2178 C 201.729 1.08361 -4.43967 0
M  V30 2179 C 202.726 0.438247 -5.1805 0
M  V30 2180 C 200.411 1.07358 -4.90693 0
M  V30 2181 C 202.405 -0.20779 -6.37061 0
M  V30 2182 C 200.092 0.42373 -6.09629 0
M  V30 2183 C 201.09 -0.215829 -6.82659 0
M  V30 2184 O 200.778 -0.855378 -7.99336 0
M  V30 2185 H 200.51 0.258504 -0.624621 0
M  V30 2186 H 203.064 0.14652 -2.04877 0
M  V30 2187 H 201.294 2.55389 -2.90367 0
M  V30 2188 H 202.983 2.38279 -3.286 0
M  V30 2189 H 203.749 0.437817 -4.8302 0
M  V30 2190 H 199.628 1.5608 -4.33774 0
M  V30 2191 H 203.172 -0.70758 -6.94002 0
M  V30 2192 H 199.069 0.421822 -6.4412 0
M  V30 2193 H 199.837 -0.756892 -8.14993 0
M  V30 2194 N 202.5 1.5196 0.417844 0
M  V30 2195 C 203.447 1.74678 1.50852 0
M  V30 2196 C 204.417 0.588947 1.55308 0
M  V30 2197 O 205.602 0.825544 1.72016 0
M  V30 2198 C 202.742 1.89544 2.88387 0
M  V30 2199 C 201.855 3.17166 2.93309 0
M  V30 2200 C 200.99 3.22513 4.22088 0
M  V30 2201 C 200.029 4.44372 4.20951 0
M  V30 2202 N 199.166 4.47161 5.41287 0
M  V30 2203 H 204.006 2.67768 1.30783 0
M  V30 2204 H 201.543 1.32689 0.63498 0
M  V30 2205 H 203.501 1.96146 3.68216 0
M  V30 2206 H 202.131 0.998424 3.06971 0
M  V30 2207 H 201.183 3.19778 2.06024 0
M  V30 2208 H 202.495 4.07021 2.88332 0
M  V30 2209 H 201.649 3.28139 5.10303 0
M  V30 2210 H 200.388 2.30581 4.29748 0
M  V30 2211 H 199.393 4.38902 3.31127 0
M  V30 2212 H 200.618 5.3759 4.14938 0
M  V30 2213 H 198.564 3.58108 5.49632 0
M  V30 2214 H 198.481 5.3085 5.3827 0
M  V30 2215 H 199.749 4.57005 6.3148 0
M  V30 2216 N 203.978 -0.674533 1.42435 0
M  V30 2217 C 204.941 -1.76986 1.45632 0
M  V30 2218 C 205.941 -1.5708 0.343871 0
M  V30 2219 O 207.131 -1.63367 0.604709 0
M  V30 2220 C 204.263 -3.15623 1.28822 0
M  V30 2221 H 205.456 -1.75539 2.43158 0
M  V30 2222 H 203.009 -0.884189 1.28887 0
M  V30 2223 H 203.744 -3.22696 0.322193 0
M  V30 2224 H 203.529 -3.31475 2.09444 0
M  V30 2225 H 205.019 -3.95537 1.33942 0
M  V30 2226 N 205.456 -1.28612 -0.910864 0
M  V30 2227 C 206.705 -1.15311 -1.65488 0
M  V30 2228 C 207.018 0.296999 -1.93332 0
M  V30 2229 O 208.224 0.551168 -2.65847 0
M  V30 2230 C 206.68 -2.01599 -2.98137 0
M  V30 2231 C 206.288 -3.51367 -2.7793 0
M  V30 2232 C 208.032 -1.96993 -3.76024 0
M  V30 2233 C 205.939 -4.29797 -4.06237 0
M  V30 2234 H 204.869 -0.42796 -0.620779 0
M  V30 2235 H 207.52 -1.53166 -1.01057 0
M  V30 2236 H 205.902 -1.56603 -3.63719 0
M  V30 2237 H 207.076 -4.0434 -2.21011 0
M  V30 2238 H 205.391 -3.57529 -2.13452 0
M  V30 2239 H 207.988 -2.52856 -4.71135 0
M  V30 2240 H 208.331 -0.94733 -4.05378 0
M  V30 2241 H 208.864 -2.39973 -3.17266 0
M  V30 2242 H 205.603 -5.32648 -3.82055 0
M  V30 2243 H 205.123 -3.81596 -4.62757 0
M  V30 2244 H 206.802 -4.39869 -4.74473 0
M  V30 2245 N 206.934 1.1197 -1.10907 0
M  V30 2246 C 208.18 1.8386 -0.855773 0
M  V30 2247 C 208.513 1.84134 0.617103 0
M  V30 2248 O 207.788 1.29041 1.45529 0
M  V30 2249 C 208.071 3.31305 -1.411 0
M  V30 2250 C 207.924 3.39456 -2.9511 0
M  V30 2251 C 209.243 4.2721 -1.05736 0
M  V30 2252 H 206.362 0.667545 -0.312334 0
M  V30 2253 H 209.004 1.31331 -1.37303 0
M  V30 2254 H 207.154 3.76169 -0.97105 0
M  V30 2255 H 208.826 3.03191 -3.47668 0
M  V30 2256 H 207.069 2.79849 -3.31462 0
M  V30 2257 H 207.74 4.43209 -3.29044 0
M  V30 2258 H 210.216 3.90497 -1.43706 0
M  V30 2259 H 209.092 5.28775 -1.47269 0
M  V30 2260 H 209.353 4.42088 0.0325958 0
M  V30 2261 N 208.412 0.89855 1.29475 0
M  V30 2262 C 209.642 0.538479 1.99459 0
M  V30 2263 C 210.05 -0.880922 1.67441 0
M  V30 2264 O 209.393 -1.59283 0.915127 0
M  V30 2265 C 209.455 0.649564 3.53583 0
M  V30 2266 C 209.119 2.03573 4.09154 0
M  V30 2267 C 210.116 3.00675 4.24135 0
M  V30 2268 C 207.801 2.3448 4.44212 0
M  V30 2269 C 209.795 4.26809 4.73405 0
M  V30 2270 C 207.482 3.60857 4.93179 0
M  V30 2271 C 208.48 4.56836 5.0773 0
M  V30 2272 O 208.168 5.80969 5.55635 0
M  V30 2273 H 207.9 0.205372 0.644048 0
M  V30 2274 H 210.454 1.20958 1.66007 0
M  V30 2275 H 208.684 -0.0785592 3.8662 0
M  V30 2276 H 210.373 0.29881 4.04799 0
M  V30 2277 H 211.139 2.78112 3.97339 0
M  V30 2278 H 207.018 1.60534 4.32145 0
M  V30 2279 H 210.562 5.0173 4.84678 0
M  V30 2280 H 206.459 3.83251 5.19412 0
M  V30 2281 H 207.227 5.83542 5.73952 0
M  V30 2282 N 209.89 -1.43072 0.660911 0
M  V30 2283 C 210.822 -2.29108 -0.0647641 0
M  V30 2284 C 211.835 -1.42928 -0.779448 0
M  V30 2285 O 213.024 -1.66788 -0.635921 0
M  V30 2286 C 210.124 -3.20032 -1.11503 0
M  V30 2287 C 209.297 -4.34792 -0.476955 0
M  V30 2288 C 208.356 -5.06534 -1.42513 0
M  V30 2289 O 207.382 -5.61538 -0.930771 0
M  V30 2290 N 208.584 -5.1075 -2.75889 0
M  V30 2291 H 211.349 -2.92029 0.673731 0
M  V30 2292 H 208.91 -1.53846 0.50427 0
M  V30 2293 H 210.902 -3.64892 -1.75032 0
M  V30 2294 H 209.472 -2.58658 -1.75541 0
M  V30 2295 H 208.692 -3.92752 0.337572 0
M  V30 2296 H 209.98 -5.0879 -0.0318525 0
M  V30 2297 H 209.378 -4.67447 -3.18606 0
M  V30 2298 H 207.935 -5.59302 -3.347 0
M  V30 2299 N 211.368 -0.403325 -1.52352 0
M  V30 2300 C 212.318 0.442244 -2.2367 0
M  V30 2301 C 213.302 1.01823 -1.24583 0
M  V30 2302 O 214.494 0.942005 -1.49851 0
M  V30 2303 C 211.623 1.5615 -3.05732 0
M  V30 2304 C 210.709 0.996575 -4.12225 0
M  V30 2305 N 211.1 0.157804 -5.05554 0
M  V30 2306 C 209.398 1.26767 -4.27605 0
M  V30 2307 C 210.099 -0.155853 -5.81491 0
M  V30 2308 N 209.075 0.451775 -5.41719 0
M  V30 2309 H 212.877 -0.204964 -2.93184 0
M  V30 2310 H 210.391 -0.213418 -1.60992 0
M  V30 2311 H 212.388 2.17981 -3.55373 0
M  V30 2312 H 211.048 2.21139 -2.37755 0
M  V30 2313 H 212.059 -0.206049 -5.1749 0
M  V30 2314 H 208.736 1.91757 -3.70858 0
M  V30 2315 H 210.126 -0.836329 -6.66675 0
M  V30 2316 N 212.846 1.57033 -0.133567 0
M  V30 2317 C 213.756 2.19632 0.824564 0
M  V30 2318 C 214.772 1.17666 1.28182 0
M  V30 2319 O 215.948 1.50193 1.3418 0
M  V30 2320 C 213.013 2.79499 2.05137 0
M  V30 2321 C 212.074 3.96548 1.64464 0
M  V30 2322 C 211.307 4.5355 2.81297 0
M  V30 2323 O 211.53 4.09438 3.97136 0
M  V30 2324 O 210.464 5.44018 2.57542 0
M  V30 2325 H 214.29 3.01991 0.321766 0
M  V30 2326 H 211.875 1.49112 0.0927889 0
M  V30 2327 H 213.757 3.17602 2.7696 0
M  V30 2328 H 212.432 2.00162 2.54395 0
M  V30 2329 H 211.339 3.63186 0.897048 0
M  V30 2330 H 212.672 4.77364 1.19934 0
M  V30 2331 N 214.325 -0.140222 1.56975 0
M  V30 2332 C 215.565 -0.857823 1.85528 0
M  V30 2333 C 215.929 -1.78039 0.718768 0
M  V30 2334 O 217.13 -2.53795 0.885521 0
M  V30 2335 C 215.401 -1.60615 3.19277 0
M  V30 2336 S 216.96 -2.36824 3.69405 0
M  V30 2337 H 213.778 -0.286727 0.650622 0
M  V30 2338 H 216.38 -0.117408 1.95147 0
M  V30 2339 H 215.084 -0.919994 3.99955 0
M  V30 2340 H 214.615 -2.38735 3.12681 0
M  V30 2341 H 216.63 -3.62148 3.3921 0
M  V30 2342 N 215.803 -1.52179 -0.40978 0
M  V30 2343 C 217.08 -1.56769 -1.16974 0
M  V30 2344 C 217.46 -0.348322 -2.08206 0
M  V30 2345 O 216.808 0.664862 -2.18613 0
M  V30 2346 C 217.018 -2.89603 -1.9476 0
M  V30 2347 C 218.366 -3.42579 -2.50849 0
M  V30 2348 O 219.39 -2.91338 -2.04941 0
M  V30 2349 O 218.249 -4.32054 -3.34652 0
M  V30 2350 H 215.343 -0.631439 -0.534054 0
M  V30 2351 H 217.889 -1.64507 -0.416613 0
M  V30 2352 H 216.661 -3.698 -1.27921 0
M  V30 2353 H 216.284 -2.85155 -2.77079 0
M  V30 2354 N 217.281 0.66697 -1.42791 0
M  V30 2355 C 218.231 1.77313 -1.43332 0
M  V30 2356 C 219.215 1.5801 -0.303586 0
M  V30 2357 O 220.407 1.68356 -0.546385 0
M  V30 2358 C 217.536 3.15822 -1.34578 0
M  V30 2359 C 216.622 3.40721 -2.52528 0
M  V30 2360 N 217.013 3.36162 -3.77927 0
M  V30 2361 C 215.311 3.71387 -2.46956 0
M  V30 2362 C 216.012 3.60762 -4.56318 0
M  V30 2363 N 214.988 3.81908 -3.86843 0
M  V30 2364 H 218.79 1.72193 -2.38174 0
M  V30 2365 H 216.304 0.868114 -1.3725 0
M  V30 2366 H 218.301 3.951 -1.33048 0
M  V30 2367 H 216.961 3.22133 -0.407453 0
M  V30 2368 H 217.972 3.15885 -4.10411 0
M  V30 2369 H 214.649 3.84897 -1.61743 0
M  V30 2370 H 216.039 3.63132 -5.65318 0
M  V30 2371 N 218.759 1.29093 0.90403 0
M  V30 2372 C 219.689 1.16401 2.02418 0
M  V30 2373 C 220.67 0.0593085 1.69997 0
M  V30 2374 O 221.855 0.238021 1.92736 0
M  V30 2375 C 218.985 0.835233 3.37107 0
M  V30 2376 C 217.939 1.89578 3.83724 0
M  V30 2377 C 217.265 1.42041 5.15489 0
M  V30 2378 C 218.565 3.30394 4.04521 0
M  V30 2379 H 220.259 2.10109 2.13295 0
M  V30 2380 H 217.805 1.01157 1.02486 0
M  V30 2381 H 219.758 0.733169 4.14973 0
M  V30 2382 H 218.482 -0.137543 3.2631 0
M  V30 2383 H 217.141 1.98715 3.08071 0
M  V30 2384 H 216.789 0.436426 5.01103 0
M  V30 2385 H 216.489 2.12964 5.4765 0
M  V30 2386 H 218.013 1.33176 5.959 0
M  V30 2387 H 219.427 3.24123 4.72882 0
M  V30 2388 H 217.824 3.99237 4.48029 0
M  V30 2389 H 218.894 3.73692 3.09002 0
M  V30 2390 N 220.237 -1.11381 1.11499 0
M  V30 2391 C 221.169 -2.17207 0.731704 0
M  V30 2392 C 222.182 -1.61066 -0.236957 0
M  V30 2393 O 223.371 -1.78489 -0.0197591 0
M  V30 2394 C 220.471 -3.38846 0.0607624 0
M  V30 2395 C 219.644 -4.24451 1.0564 0
M  V30 2396 C 218.703 -5.24562 0.4149 0
M  V30 2397 O 217.729 -5.59071 1.069 0
M  V30 2398 N 218.931 -5.74651 -0.821943 0
M  V30 2399 H 221.696 -2.50699 1.64225 0
M  V30 2400 H 219.257 -1.26908 1.00529 0
M  V30 2401 H 221.249 -4.02911 -0.380139 0
M  V30 2402 H 219.819 -3.03411 -0.752376 0
M  V30 2403 H 219.039 -3.56833 1.67524 0
M  V30 2404 H 220.327 -4.78486 1.72998 0
M  V30 2405 H 219.725 -5.48797 -1.37252 0
M  V30 2406 H 218.282 -6.40549 -1.20582 0
M  V30 2407 N 221.715 -0.905404 -1.28997 0
M  V30 2408 C 222.963 -0.533192 -1.9494 0
M  V30 2409 C 223.284 0.924618 -1.71685 0
M  V30 2410 O 222.554 1.65268 -1.05183 0
M  V30 2411 H 221.134 -0.194194 -0.721317 0
M  V30 2412 H 223.796 -1.15294 -1.57141 0
M  V30 2413 H 222.892 -0.72059 -3.03667 0
M  V30 2414 N 223.193 1.4272 -0.668489 0
M  V30 2415 C 224.442 2.00846 -0.185389 0
M  V30 2416 C 224.755 1.53442 1.21305 0
M  V30 2417 O 225.961 2.03944 1.79218 0
M  V30 2418 C 224.417 3.58805 -0.280591 0
M  V30 2419 C 224.025 4.15198 -1.68268 0
M  V30 2420 C 225.769 4.24255 0.14412 0
M  V30 2421 C 223.676 5.655 -1.73099 0
M  V30 2422 H 222.606 0.751145 -0.0655475 0
M  V30 2423 H 225.257 1.63516 -0.832752 0
M  V30 2424 H 223.639 3.93608 0.434553 0
M  V30 2425 H 224.813 3.91866 -2.42441 0
M  V30 2426 H 223.128 3.62176 -2.05469 0
M  V30 2427 H 225.725 5.34547 0.128086 0
M  V30 2428 H 226.068 3.99277 1.17827 0
M  V30 2429 H 226.601 3.94389 -0.519798 0
M  V30 2430 H 223.34 5.95268 -2.74475 0
M  V30 2431 H 222.86 5.90842 -1.03274 0
M  V30 2432 H 224.539 6.29808 -1.48158 0
M  V30 2433 N 224.671 0.411399 1.52136 0
M  V30 2434 C 225.601 -0.404015 2.29978 0
M  V30 2435 C 226.582 -1.04412 1.34284 0
M  V30 2436 O 227.767 -1.0527 1.63192 0
M  V30 2437 C 224.897 -1.5197 3.12286 0
M  V30 2438 C 223.851 -1.00448 4.16046 0
M  V30 2439 C 223.177 -2.21393 4.86712 0
M  V30 2440 C 224.477 -0.0569336 5.22269 0
M  V30 2441 H 226.171 0.245529 2.98392 0
M  V30 2442 H 223.717 0.119525 1.43503 0
M  V30 2443 H 225.67 -2.09715 3.6551 0
M  V30 2444 H 224.394 -2.19716 2.41646 0
M  V30 2445 H 223.053 -0.449421 3.63835 0
M  V30 2446 H 222.701 -2.87699 4.12599 0
M  V30 2447 H 222.401 -1.87571 5.56858 0
M  V30 2448 H 223.925 -2.7974 5.4275 0
M  V30 2449 H 225.339 -0.54325 5.7072 0
M  V30 2450 H 223.736 0.192594 5.99791 0
M  V30 2451 H 224.806 0.887663 4.76706 0
M  V30 2452 N 226.149 -1.5696 0.141893 0
M  V30 2453 C 227.379 -2.00031 -0.516828 0
M  V30 2454 C 227.787 -1.02091 -1.59293 0
M  V30 2455 O 227.13 -0.00909657 -1.83698 0
M  V30 2456 C 227.192 -3.39534 -1.1814 0
M  V30 2457 C 226.856 -4.56313 -0.250513 0
M  V30 2458 C 227.853 -5.17295 0.519839 0
M  V30 2459 C 225.538 -5.02061 -0.154907 0
M  V30 2460 C 227.532 -6.2243 1.3733 0
M  V30 2461 C 225.219 -6.07053 0.702161 0
M  V30 2462 C 226.217 -6.67106 1.46487 0
M  V30 2463 O 225.905 -7.70066 2.30767 0
M  V30 2464 H 225.637 -0.661451 -0.139493 0
M  V30 2465 H 228.191 -2.04086 0.231926 0
M  V30 2466 H 226.421 -3.32302 -1.97769 0
M  V30 2467 H 228.11 -3.66745 -1.73933 0
M  V30 2468 H 228.876 -4.82852 0.45598 0
M  V30 2469 H 224.755 -4.5505 -0.7383 0
M  V30 2470 H 228.299 -6.69233 1.96909 0
M  V30 2471 H 224.196 -6.40923 0.76733 0
M  V30 2472 H 224.964 -7.87264 2.23959 0
M  V30 2473 N 227.627 0.131896 -1.57047 0
M  V30 2474 C 228.873 0.843179 -1.84441 0
M  V30 2475 C 229.206 1.80129 -0.725749 0
M  V30 2476 O 228.481 1.92624 0.269469 0
M  V30 2477 C 228.764 1.60442 -3.22382 0
M  V30 2478 C 228.617 0.666782 -4.4483 0
M  V30 2479 C 229.936 2.56354 -3.5773 0
M  V30 2480 H 227.055 0.305081 -0.670891 0
M  V30 2481 H 229.697 0.107839 -1.89694 0
M  V30 2482 H 227.847 2.23128 -3.18035 0
M  V30 2483 H 229.519 0.0497646 -4.61273 0
M  V30 2484 H 227.762 -0.022609 -4.33794 0
M  V30 2485 H 228.433 1.23579 -5.37989 0
M  V30 2486 H 230.909 2.0378 -3.62785 0
M  V30 2487 H 229.785 3.06657 -4.5525 0
M  V30 2488 H 230.046 3.38419 -2.84473 0
M  V30 2489 N 229.106 1.52395 0.401703 0
M  V30 2490 C 230.383 1.57387 1.16141 0
M  V30 2491 C 230.763 0.359359 2.08019 0
M  V30 2492 O 230.111 -0.65326 2.18963 0
M  V30 2493 C 230.321 2.90631 1.93221 0
M  V30 2494 C 231.669 3.43904 2.49028 0
M  V30 2495 O 232.693 2.92421 2.03393 0
M  V30 2496 O 231.552 4.33823 3.32356 0
M  V30 2497 H 228.646 0.634262 0.530698 0
M  V30 2498 H 231.192 1.64725 0.407883 0
M  V30 2499 H 229.964 3.70473 1.25958 0
M  V30 2500 H 229.587 2.8662 2.75563 0
M  V30 2501 N 230.584 -0.659388 1.43143 0
M  V30 2502 C 232 -0.974337 1.26407 0
M  V30 2503 C 232.2 -2.007 0.179341 0
M  V30 2504 O 231.256 -2.4856 -0.444295 0
M  V30 2505 C 232.569 -1.46447 2.62628 0
M  V30 2506 C 234.117 -1.58144 2.7011 0
M  V30 2507 C 234.592 -2.1055 4.06734 0
M  V30 2508 N 236.083 -2.17861 4.08767 0
M  V30 2509 C 236.818 -2.59519 5.1131 0
M  V30 2510 N 236.314 -3.00518 6.24228 0
M  V30 2511 N 238.107 -2.59404 4.98664 0
M  V30 2512 H 230.258 0.0240528 2.12386 0
M  V30 2513 H 232.521 -0.0518065 0.946583 0
M  V30 2514 H 232.227 -0.780123 3.42939 0
M  V30 2515 H 232.101 -2.44058 2.87603 0
M  V30 2516 H 234.488 -2.25682 1.90136 0
M  V30 2517 H 234.569 -0.589828 2.48907 0
M  V30 2518 H 234.213 -1.43616 4.87172 0
M  V30 2519 H 234.143 -3.10531 4.25298 0
M  V30 2520 H 236.634 -1.88975 3.27257 0
M  V30 2521 H 236.947 -3.31036 6.98309 0
M  V30 2522 H 235.292 -2.98337 6.2771 0
M  V30 2523 H 238.483 -2.26747 4.09516 0
M  V30 2524 H 238.656 -2.91548 5.78709 0
M  V30 2525 N 232.062 -1.29571 -0.897171 0
M  V30 2526 C 232.992 -1.17473 -2.01798 0
M  V30 2527 C 233.973 -0.068323 -1.69963 0
M  V30 2528 O 235.158 -0.248239 -1.92607 0
M  V30 2529 C 232.288 -0.853099 -3.36659 0
M  V30 2530 C 231.242 -1.9161 -3.82713 0
M  V30 2531 C 230.568 -1.44773 -5.14728 0
M  V30 2532 C 231.868 -3.32535 -4.02763 0
M  V30 2533 H 233.562 -2.11237 -2.12177 0
M  V30 2534 H 231.108 -1.01699 -1.01948 0
M  V30 2535 H 233.061 -0.755165 -4.14578 0
M  V30 2536 H 231.785 0.120236 -3.26379 0
M  V30 2537 H 230.444 -2.00346 -3.07013 0
M  V30 2538 H 230.092 -0.462995 -5.00865 0
M  V30 2539 H 229.792 -2.15865 -5.46513 0
M  V30 2540 H 231.316 -1.36334 -5.95185 0
M  V30 2541 H 232.73 -3.26626 -4.71156 0
M  V30 2542 H 231.127 -4.01607 -4.45905 0
M  V30 2543 H 232.197 -3.75326 -3.07016 0
M  V30 2544 N 233.54 1.10788 -1.12088 0
M  V30 2545 C 234.487 2.17025 -0.785407 0
M  V30 2546 C 235.457 1.64265 0.246191 0
M  V30 2547 O 236.642 1.90412 0.121584 0
M  V30 2548 C 233.782 3.44249 -0.242177 0
M  V30 2549 C 232.895 4.1098 -1.33115 0
M  V30 2550 C 232.03 5.25911 -0.747741 0
M  V30 2551 C 231.069 5.84538 -1.81609 0
M  V30 2552 N 230.206 6.90853 -1.25167 0
M  V30 2553 H 235.046 2.45066 -1.69548 0
M  V30 2554 H 232.583 1.20297 -0.846582 0
M  V30 2555 H 234.541 4.17101 0.0908026 0
M  V30 2556 H 233.171 3.16571 0.631072 0
M  V30 2557 H 232.223 3.36133 -1.78097 0
M  V30 2558 H 233.535 4.50601 -2.13917 0
M  V30 2559 H 232.689 6.056 -0.365216 0
M  V30 2560 H 231.428 4.87614 0.0915188 0
M  V30 2561 H 230.433 5.03522 -2.20785 0
M  V30 2562 H 231.658 6.249 -2.6585 0
M  V30 2563 H 229.604 6.54562 -0.434174 0
M  V30 2564 H 229.521 7.29166 -1.99633 0
M  V30 2565 H 230.789 7.7433 -0.896259 0
M  V30 2566 N 235.018 0.912232 1.28515 0
M  V30 2567 C 236.295 0.463597 1.90027 0
M  V30 2568 C 236.675 -1.05753 1.82701 0
M  V30 2569 O 236.023 -1.90492 1.26194 0
M  V30 2570 C 236.233 0.992253 3.34597 0
M  V30 2571 C 237.581 1.04344 4.11579 0
M  V30 2572 O 238.605 0.94079 3.43551 0
M  V30 2573 O 237.464 1.1995 5.33174 0
M  V30 2574 H 234.558 0.146666 0.813891 0
M  V30 2575 H 237.104 1.00292 1.36893 0
M  V30 2576 H 235.876 2.03623 3.34146 0
M  V30 2577 H 235.499 0.433672 3.95228 0
M  V30 2578 N 236.496 -1.42363 0.676048 0
M  V30 2579 C 237.724 -2.05859 0.207268 0
M  V30 2580 C 238.139 -1.50796 -1.13605 0
M  V30 2581 O 237.496 -0.648265 -1.70598 0
M  V30 2582 C 237.547 -3.61248 0.134975 0
M  V30 2583 O 237.268 -4.1427 1.42521 0
M  V30 2584 C 238.769 -4.41859 -0.357151 0
M  V30 2585 H 235.989 -0.663431 0.100503 0
M  V30 2586 H 238.533 -1.82479 0.923136 0
M  V30 2587 H 236.688 -3.83735 -0.531588 0
M  V30 2588 H 237.102 -5.0815 1.29939 0
M  V30 2589 H 238.576 -5.50847 -0.356641 0
M  V30 2590 H 239.053 -4.16536 -1.39264 0
M  V30 2591 H 239.659 -4.24392 0.27772 0
M  V30 2592 N 237.974 -0.419461 -1.51915 0
M  V30 2593 C 238.921 0.400927 -2.27291 0
M  V30 2594 C 239.891 1.03224 -1.30131 0
M  V30 2595 O 241.076 1.05455 -1.59009 0
M  V30 2596 C 238.216 1.50603 -3.10504 0
M  V30 2597 C 237.329 0.89462 -4.22635 0
M  V30 2598 C 236.464 1.97328 -4.93189 0
M  V30 2599 C 235.503 1.33935 -5.97267 0
M  V30 2600 N 234.64 2.3586 -6.61298 0
M  V30 2601 H 239.48 -0.248251 -2.96964 0
M  V30 2602 H 237.017 -0.134266 -1.46486 0
M  V30 2603 H 238.975 2.15783 -3.57062 0
M  V30 2604 H 237.605 2.12509 -2.42981 0
M  V30 2605 H 236.657 0.131583 -3.80172 0
M  V30 2606 H 237.969 0.391641 -4.9726 0
M  V30 2607 H 237.123 2.70211 -5.43204 0
M  V30 2608 H 235.862 2.50994 -4.18155 0
M  V30 2609 H 234.867 0.595896 -5.46561 0
M  V30 2610 H 236.092 0.810252 -6.74249 0
M  V30 2611 H 234.038 2.88639 -5.89087 0
M  V30 2612 H 233.955 1.90403 -7.3163 0
M  V30 2613 H 235.223 3.08282 -7.15949 0
M  V30 2614 N 239.452 1.56882 -0.150215 0
M  V30 2615 C 240.382 2.19935 0.784284 0
M  V30 2616 C 241.363 1.14854 1.25469 0
M  V30 2617 O 242.548 1.43209 1.31168 0
M  V30 2618 C 239.678 2.82349 2.02229 0
M  V30 2619 C 238.632 3.93285 1.68853 0
M  V30 2620 C 237.958 4.42649 2.99944 0
M  V30 2621 C 239.258 5.13904 0.932714 0
M  V30 2622 H 240.952 2.9828 0.258781 0
M  V30 2623 H 238.498 1.43473 0.123029 0
M  V30 2624 H 240.451 3.25126 2.68088 0
M  V30 2625 H 239.175 2.0134 2.57157 0
M  V30 2626 H 237.834 3.5113 1.05371 0
M  V30 2627 H 237.482 3.58458 3.52869 0
M  V30 2628 H 237.182 5.17476 2.78374 0
M  V30 2629 H 238.706 4.88099 3.66868 0
M  V30 2630 H 240.12 5.53506 1.49345 0
M  V30 2631 H 238.517 5.94515 0.81684 0
M  V30 2632 H 239.587 4.84842 -0.0749568 0
M  V30 2633 N 240.93 -0.123565 1.57115 0
M  V30 2634 C 242.177 -0.832153 1.84612 0
M  V30 2635 C 242.505 -1.80093 0.734627 0
M  V30 2636 O 241.76 -1.93766 -0.27442 0
M  V30 2637 C 242.059 -1.62016 3.18568 0
M  V30 2638 C 241.725 -0.796084 4.43817 0
M  V30 2639 C 240.387 -0.568816 4.77826 0
M  V30 2640 C 242.739 -0.221364 5.2073 0
M  V30 2641 C 240.067 0.243499 5.86194 0
M  V30 2642 C 242.419 0.578117 6.29953 0
M  V30 2643 C 241.083 0.815744 6.62497 0
M  V30 2644 H 240.353 -0.304507 0.675542 0
M  V30 2645 H 243 -0.0947248 1.91266 0
M  V30 2646 H 241.305 -2.42837 3.0747 0
M  V30 2647 H 243.002 -2.17231 3.37064 0
M  V30 2648 H 239.592 -0.983307 4.17168 0
M  V30 2649 H 243.776 -0.384173 4.94811 0
M  V30 2650 H 239.032 0.436871 6.09837 0
M  V30 2651 H 243.206 1.03046 6.88734 0
M  V30 2652 H 240.833 1.44701 7.46301 0
M  V30 2653 N 242.408 -1.52605 -0.393616 0
M  V30 2654 C 243.656 -1.67093 -1.13685 0
M  V30 2655 C 243.977 -0.411011 -1.90619 0
M  V30 2656 O 243.247 0.574491 -1.87287 0
M  V30 2657 H 241.827 -0.615923 -0.422668 0
M  V30 2658 H 244.489 -1.89704 -0.447039 0
M  V30 2659 H 243.585 -2.51922 -1.84232 0
M  V30 2660 N 243.887 0.651787 -1.4349 0
M  V30 2661 C 245.134 1.41167 -1.45183 0
M  V30 2662 C 245.462 1.94349 -0.0766601 0
M  V30 2663 O 244.717 1.72804 0.918555 0
M  V30 2664 C 245.016 2.60914 -2.44251 0
M  V30 2665 C 244.682 2.26142 -3.9009 0
M  V30 2666 C 243.344 2.16371 -4.2981 0
M  V30 2667 C 245.696 1.98334 -4.81989 0
M  V30 2668 C 243.024 1.7695 -5.5938 0
M  V30 2669 C 245.376 1.6041 -6.11924 0
M  V30 2670 C 244.04 1.49166 -6.5062 0
M  V30 2671 H 243.31 0.516566 -0.531263 0
M  V30 2672 H 245.957 0.741099 -1.76579 0
M  V30 2673 H 244.262 3.3311 -2.06265 0
M  V30 2674 H 245.959 3.19127 -2.42815 0
M  V30 2675 H 242.549 2.34658 -3.58655 0
M  V30 2676 H 246.733 2.04803 -4.52072 0
M  V30 2677 H 241.989 1.66831 -5.88198 0
M  V30 2678 H 246.163 1.37925 -6.82605 0
M  V30 2679 H 243.79 1.1839 -7.50925 0
M  V30 2680 N 245.365 1.30045 0.890287 0
M  V30 2681 C 246.313 1.15873 2.01683 0
M  V30 2682 C 247.307 0.0719403 1.69247 0
M  V30 2683 O 248.513 0.232414 1.78493 0
M  V30 2684 H 244.888 0.358203 0.661207 0
M  V30 2685 H 246.859 2.11229 2.10772 0
M  V30 2686 C 245.608 0.861842 3.36849 0
M  V30 2687 H 244.931 1.69016 3.62317 0
M  V30 2688 H 246.371 0.802762 4.16331 0
M  V30 2689 C 244.83 -0.435132 3.34078 0
M  V30 2690 O 245.36 -1.4583 3.74295 0
M  V30 2691 N 243.566 -0.444377 2.87182 0
M  V30 2692 H 243.113 0.388723 2.5465 0
M  V30 2693 H 243.071 -1.31213 2.85711 0
M  V30 2694 N 246.843 -1.10192 1.12674 0
M  V30 2695 C 247.753 -2.20172 0.810026 0
M  V30 2696 C 248.769 -1.72821 -0.202188 0
M  V30 2697 O 249.945 -2.01369 -0.0351691 0
M  V30 2698 C 247.01 -3.45631 0.272007 0
M  V30 2699 C 246.071 -4.07704 1.34447 0
M  V30 2700 C 245.304 -5.27175 0.832029 0
M  V30 2701 O 245.527 -5.69425 -0.333284 0
M  V30 2702 O 244.461 -5.80168 1.60277 0
M  V30 2703 H 248.287 -2.49701 1.72867 0
M  V30 2704 H 245.872 -1.18977 0.903597 0
M  V30 2705 H 247.754 -4.21394 -0.0230219 0
M  V30 2706 H 246.429 -3.17723 -0.619164 0
M  V30 2707 H 245.336 -3.33614 1.6927 0
M  V30 2708 H 246.669 -4.3982 2.2095 0
M  V30 2709 N 248.321 -0.919034 -1.28029 0
M  V30 2710 C 249.549 -0.570971 -1.98866 0
M  V30 2711 C 249.964 0.848996 -1.68634 0
M  V30 2712 O 249.321 1.56307 -0.942036 0
M  V30 2713 C 249.372 -0.776876 -3.53054 0
M  V30 2714 O 249.093 -2.14097 -3.82222 0
M  V30 2715 C 250.594 -0.436356 -4.41147 0
M  V30 2716 H 247.814 -0.217175 -0.634883 0
M  V30 2717 H 250.358 -1.23368 -1.63097 0
M  V30 2718 H 248.513 -0.161085 -3.87065 0
M  V30 2719 H 248.927 -2.18455 -4.76841 0
M  V30 2720 H 250.401 -0.63117 -5.4838 0
M  V30 2721 H 250.878 0.627686 -4.34692 0
M  V30 2722 H 251.484 -1.02991 -4.12641 0
M  V30 2723 N 249.799 1.42003 -0.683588 0
M  V30 2724 C 250.729 2.33487 -0.024866 0
M  V30 2725 C 251.71 1.51163 0.779975 0
M  V30 2726 O 252.895 1.79739 0.735362 0
M  V30 2727 C 250.025 3.3487 0.920836 0
M  V30 2728 C 248.979 4.27414 0.223958 0
M  V30 2729 C 248.305 5.19074 1.2832 0
M  V30 2730 C 249.605 5.14445 -0.90242 0
M  V30 2731 H 251.299 2.88819 -0.788921 0
M  V30 2732 H 248.845 1.38873 -0.38083 0
M  V30 2733 H 250.798 3.97787 1.39081 0
M  V30 2734 H 249.522 2.77861 1.71642 0
M  V30 2735 H 248.181 3.65904 -0.225864 0
M  V30 2736 H 247.829 4.58387 2.071 0
M  V30 2737 H 247.529 5.81822 0.821995 0
M  V30 2738 H 249.053 5.84867 1.75392 0
M  V30 2739 H 250.467 5.70998 -0.513272 0
M  V30 2740 H 248.864 5.86072 -1.28997 0
M  V30 2741 H 249.934 4.52322 -1.74737 0
M  V30 2742 N 251.277 0.427512 1.51691 0
M  V30 2743 C 252.554 -0.201684 1.94557 0
M  V30 2744 C 252.934 -1.60981 1.36559 0
M  V30 2745 O 252.282 -2.21814 0.548702 0
M  V30 2746 C 252.492 -0.189394 3.48486 0
M  V30 2747 C 253.84 -0.39978 4.22714 0
M  V30 2748 O 254.864 -0.267945 3.55191 0
M  V30 2749 O 253.723 -0.661249 5.42485 0
M  V30 2750 H 250.817 -0.135261 0.815864 0
M  V30 2751 H 253.363 0.484782 1.62628 0
M  V30 2752 H 252.135 0.795431 3.8313 0
M  V30 2753 H 251.758 -0.919187 3.86829 0
M  V30 2754 N 252.755 -1.56801 0.158532 0
M  V30 2755 C 253.98 -2.01295 -0.499516 0
M  V30 2756 C 254.405 -1.03799 -1.56867 0
M  V30 2757 O 253.763 -0.0155162 -1.81293 0
M  V30 2758 C 253.811 -3.44469 -1.06647 0
M  V30 2759 O 252.915 -3.50012 -2.18095 0
M  V30 2760 H 252.256 -0.652884 -0.12099 0
M  V30 2761 H 254.786 -2.02958 0.258661 0
M  V30 2762 H 254.796 -3.8351 -1.39227 0
M  V30 2763 H 253.471 -4.14932 -0.283581 0
M  V30 2764 H 252.048 -3.22822 -1.86656 0
M  V30 2765 N 254.233 0.115231 -1.57178 0
M  V30 2766 C 255.458 0.840354 -1.89612 0
M  V30 2767 C 255.883 1.72464 -0.750845 0
M  V30 2768 O 255.241 1.78826 0.298478 0
M  V30 2769 C 255.289 1.64654 -3.20814 0
M  V30 2770 O 254.393 2.7538 -3.06985 0
M  V30 2771 H 253.734 0.232158 -0.622092 0
M  V30 2772 H 256.264 0.0964977 -2.04372 0
M  V30 2773 H 256.274 2.03499 -3.53627 0
M  V30 2774 H 254.949 0.997416 -4.03763 0
M  V30 2775 H 253.526 2.3971 -2.85646 0
M  V30 2776 N 255.711 1.52812 0.385517 0
M  V30 2777 C 256.661 1.74219 1.47078 0
M  V30 2778 C 257.645 0.59632 1.49442 0
M  V30 2779 O 258.837 0.85428 1.5502 0
M  V30 2780 C 255.966 1.9176 2.84751 0
M  V30 2781 C 255.052 3.12289 2.86943 0
M  V30 2782 N 255.443 4.34575 2.58802 0
M  V30 2783 C 253.741 3.12605 3.1811 0
M  V30 2784 C 254.442 5.162 2.68166 0
M  V30 2785 N 253.418 4.51964 3.02043 0
M  V30 2786 H 257.22 2.6639 1.24152 0
M  V30 2787 H 254.734 1.51166 0.593504 0
M  V30 2788 H 256.731 2.05218 3.62893 0
M  V30 2789 H 255.391 1.00805 3.08656 0
M  V30 2790 H 256.402 4.62649 2.32759 0
M  V30 2791 H 253.079 2.31472 3.47458 0
M  V30 2792 H 254.469 6.23689 2.49923 0
M  V30 2793 N 257.189 -0.644168 1.43834 0
M  V30 2794 C 258.137 -1.77793 1.49974 0
M  V30 2795 C 259.131 -1.65253 0.372536 0
M  V30 2796 O 260.337 -1.7149 0.546924 0
M  V30 2797 H 256.712 -0.58675 0.47035 0
M  V30 2798 H 258.683 -1.69736 2.45423 0
M  V30 2799 C 257.432 -3.16087 1.4486 0
M  V30 2800 H 256.755 -3.26378 2.30905 0
M  V30 2801 H 258.195 -3.95349 1.53217 0
M  V30 2802 C 256.654 -3.36484 0.167463 0
M  V30 2803 O 257.184 -3.94298 -0.767609 0
M  V30 2804 N 255.39 -2.90504 0.0747556 0
M  V30 2805 H 254.937 -2.4364 0.836507 0
M  V30 2806 H 254.895 -3.04527 -0.781714 0
M  V30 2807 N 258.668 -1.30515 -0.883378 0
M  V30 2808 C 259.914 -1.19607 -1.63774 0
M  V30 2809 C 260.247 0.248314 -1.92606 0
M  V30 2810 O 259.522 1.17742 -1.54813 0
M  V30 2811 C 259.805 -2.02669 -2.97653 0
M  V30 2812 C 259.658 -3.55335 -2.75784 0
M  V30 2813 C 260.977 -1.86573 -3.98596 0
M  V30 2814 H 258.096 -0.435856 -0.594305 0
M  V30 2815 H 260.738 -1.60165 -1.02212 0
M  V30 2816 H 258.888 -1.68208 -3.50197 0
M  V30 2817 H 260.56 -3.99863 -2.30016 0
M  V30 2818 H 258.803 -3.79438 -2.1026 0
M  V30 2819 H 259.474 -4.08745 -3.70988 0
M  V30 2820 H 261.95 -2.16703 -3.55217 0
M  V30 2821 H 260.826 -2.47014 -4.90179 0
M  V30 2822 H 261.087 -0.825321 -4.34328 0
M  V30 2823 N 260.146 1.09593 -1.13257 0
M  V30 2824 C 261.076 2.18214 -0.830946 0
M  V30 2825 C 262.057 1.68812 0.208966 0
M  V30 2826 O 263.242 1.9408 0.0682666 0
M  V30 2827 C 260.372 3.46051 -0.294296 0
M  V30 2828 C 259.326 4.08778 -1.26826 0
M  V30 2829 C 258.652 5.31419 -0.591449 0
M  V30 2830 C 259.952 4.51476 -2.62615 0
M  V30 2831 H 261.646 2.43703 -1.73923 0
M  V30 2832 H 259.192 1.17128 -0.837675 0
M  V30 2833 H 261.145 4.2134 -0.0709606 0
M  V30 2834 H 259.869 3.20079 0.649366 0
M  V30 2835 H 258.528 3.35505 -1.47756 0
M  V30 2836 H 258.176 5.01727 0.357633 0
M  V30 2837 H 257.876 5.74341 -1.24123 0
M  V30 2838 H 259.4 6.09433 -0.377355 0
M  V30 2839 H 260.814 5.17999 -2.45663 0
M  V30 2840 H 259.211 5.05277 -3.23752 0
M  V30 2841 H 260.281 3.63962 -3.20406 0
M  V30 2842 N 261.624 0.925811 1.2754 0
M  V30 2843 C 262.901 0.483726 1.89524 0
M  V30 2844 C 263.281 -1.03809 1.83812 0
M  V30 2845 O 262.629 -1.89143 1.28207 0
M  V30 2846 C 262.839 1.02769 3.33526 0
M  V30 2847 C 264.187 1.08703 4.10449 0
M  V30 2848 O 265.211 0.977175 3.42534 0
M  V30 2849 O 264.07 1.25599 5.31871 0
M  V30 2850 H 261.164 0.15529 0.812289 0
M  V30 2851 H 263.71 1.01738 1.35822 0
M  V30 2852 H 262.482 2.07155 3.31967 0
M  V30 2853 H 262.105 0.475567 3.94746 0
M  V30 2854 O 263.141 -1.38545 0.829904 0
M  V30 2855 H 263.832 -1.89212 0.414565 0
M  V30 END ATOM
M  V30 BEGIN BOND
M  V30 END BOND
M  V30 END CTAB
M  END
$$$$
