drugbank_target|Q15759 Mitogen-activated protein kinase 11 (DB05157; DB08896)
 OpenBabel12092120313D

  0  0  0     0  0            999 V3000
M  V30 BEGIN CTAB
M  V30 COUNTS 5809 5877 0 0 0
M  V30 BEGIN ATOM
M  V30 1 H -0.908 1.98254 -0.117106 0
M  V30 2 N 0 1.576 0 0
M  V30 3 C 0.933 2.03868 1.02534 0
M  V30 4 C 1.911 0.928543 1.3348 0
M  V30 5 O 3.095 1.19667 1.45644 0
M  V30 6 C 0.222 2.43627 2.35294 0
M  V30 7 C -0.732 3.65373 2.2001 0
M  V30 8 S 0.101 5.13292 1.52614 0
M  V30 9 C 1.257 5.56322 2.86805 0
M  V30 10 H 1.49 2.90518 0.631377 0
M  V30 11 H -0.977 1.52953 0.210867 0
M  V30 12 H 0.981 2.67203 3.11629 0
M  V30 13 H -0.358 1.57376 2.7183 0
M  V30 14 H -1.165 3.90944 3.18086 0
M  V30 15 H -1.563 3.418 1.51819 0
M  V30 16 H 0.729 5.58782 3.83104 0
M  V30 17 H 1.672 6.56266 2.65933 0
M  V30 18 H 2.08 4.83886 2.90714 0
M  V30 19 N 1.4781 -0.272755 1.55222 0
M  V30 20 C 2.7031 -1.02683 1.80197 0
M  V30 21 C 3.1281 -1.79142 0.573551 0
M  V30 22 O 2.4861 -1.74917 -0.476849 0
M  V30 23 C 2.5341 -1.9609 3.02624 0
M  V30 24 O 1.6381 -3.04863 2.77727 0
M  V30 25 H 0.9791 -0.293557 0.595584 0
M  V30 26 H 3.5091 -0.30159 2.02365 0
M  V30 27 H 3.5191 -2.38039 3.31363 0
M  V30 28 H 2.1941 -1.39851 3.91682 0
M  V30 29 H 0.7711 -2.67228 2.60084 0
M  V30 30 N 2.9562 -1.48159 -0.537278 0
M  V30 31 C 4.2042 -1.55497 -1.29094 0
M  V30 32 C 4.5252 -0.227454 -1.93669 0
M  V30 33 O 3.7952 0.750386 -1.80959 0
M  V30 34 H 2.3752 -0.572832 -0.47945 0
M  V30 35 H 5.0372 -1.84579 -0.625818 0
M  V30 36 H 4.1332 -2.33216 -2.07405 0
M  V30 37 N 4.4343 0.785586 -1.36625 0
M  V30 38 C 5.8453 1.36101 -1.27803 0
M  V30 39 C 6.1963 1.96035 0.0804875 0
M  V30 40 O 5.3213 1.92834 0.982042 0
M  V30 41 C 5.9163 2.47442 -2.31426 0
M  V30 42 C 4.4753 3.00789 -2.26281 0
M  V30 43 C 3.6223 1.73896 -2.15999 0
M  V30 44 H 6.5733 0.586928 -1.47448 0
M  V30 45 H 6.5943 3.2656 -1.95291 0
M  V30 46 H 6.1063 2.03791 -3.30289 0
M  V30 47 H 4.2073 3.48851 -1.30896 0
M  V30 48 H 4.3203 3.57343 -3.19128 0
M  V30 49 H 2.6843 1.9628 -1.62316 0
M  V30 50 H 3.4673 1.32368 -3.16755 0
M  V30 51 N 5.9124 1.20967 1.01018 0
M  V30 52 C 7.3284 0.965905 1.27053 0
M  V30 53 C 7.5284 -0.350785 1.98423 0
M  V30 54 O 6.5844 -1.07773 2.28344 0
M  V30 55 C 7.8974 2.15294 2.09926 0
M  V30 56 C 9.4454 2.19463 2.23171 0
M  V30 57 C 9.9204 3.3767 3.09424 0
M  V30 58 N 11.4114 3.37724 3.17012 0
M  V30 59 C 12.1464 4.25837 3.83993 0
M  V30 60 N 11.6424 5.24138 4.53047 0
M  V30 61 N 13.4354 4.1366 3.80581 0
M  V30 62 H 5.5864 2.0565 0.531194 0
M  V30 63 H 7.8494 0.90024 0.297106 0
M  V30 64 H 7.5554 3.10684 1.64828 0
M  V30 65 H 7.4294 2.13923 3.10672 0
M  V30 66 H 9.8164 1.24632 2.6749 0
M  V30 67 H 9.8974 2.2488 1.21912 0
M  V30 68 H 9.5414 4.32791 2.65808 0
M  V30 69 H 9.4714 3.29491 4.10784 0
M  V30 70 H 11.9624 2.6658 2.6785 0
M  V30 71 H 12.2754 5.87684 5.01844 0
M  V30 72 H 10.6204 5.28068 4.5185 0
M  V30 73 H 13.8114 3.36127 3.25785 0
M  V30 74 H 13.9844 4.82538 4.32505 0
M  V30 75 N 7.3905 -1.2043 1.01659 0
M  V30 76 C 8.3535 -2.21433 0.591616 0
M  V30 77 C 9.3535 -1.57203 -0.338226 0
M  V30 78 O 10.5435 -1.73737 -0.126918 0
M  V30 79 C 7.6755 -3.40628 -0.136058 0
M  V30 80 H 8.8685 -2.60545 1.48514 0
M  V30 81 H 6.4215 -1.33893 0.806379 0
M  V30 82 H 7.1565 -3.07019 -1.04449 0
M  V30 83 H 6.9415 -3.88475 0.531917 0
M  V30 84 H 8.4315 -4.15475 -0.420735 0
M  V30 85 N 8.8686 -0.792821 -1.36206 0
M  V30 86 C 10.1166 -0.366062 -1.98757 0
M  V30 87 C 10.4376 1.0668 -1.63231 0
M  V30 88 O 9.7076 1.73587 -0.907978 0
M  V30 89 H 8.2876 -0.132364 -0.735179 0
M  V30 90 H 10.9496 -1.01562 -1.66347 0
M  V30 91 H 10.0456 -0.460638 -3.08682 0
M  V30 92 N 10.3467 1.47872 -0.545128 0
M  V30 93 C 11.5937 2.02493 -0.0165858 0
M  V30 94 C 11.9217 1.42073 1.32836 0
M  V30 95 O 11.1767 0.561459 1.87473 0
M  V30 96 C 11.4757 3.57131 0.13867 0
M  V30 97 C 11.1417 4.36411 -1.13384 0
M  V30 98 C 9.8037 4.57792 -1.48256 0
M  V30 99 C 12.1557 4.82223 -1.97764 0
M  V30 100 C 9.4837 5.22233 -2.67376 0
M  V30 101 C 11.8357 5.47977 -3.16076 0
M  V30 102 C 10.4997 5.67593 -3.51275 0
M  V30 103 H 9.7697 0.740975 -0.00606918 0
M  V30 104 H 12.4167 1.77683 -0.714207 0
M  V30 105 H 10.7217 3.80865 0.919172 0
M  V30 106 H 12.4187 3.97031 0.562782 0
M  V30 107 H 9.0087 4.2004 -0.852297 0
M  V30 108 H 13.1927 4.65493 -1.72132 0
M  V30 109 H 8.4487 5.35616 -2.94831 0
M  V30 110 H 12.6227 5.8244 -3.81755 0
M  V30 111 H 10.2497 6.17298 -4.43675 0
M  V30 112 N 11.8248 0.280983 1.55075 0
M  V30 113 C 13.0548 -0.336804 2.03836 0
M  V30 114 C 13.4628 -1.49577 1.15859 0
M  V30 115 O 12.8058 -1.82888 0.172503 0
M  V30 116 C 12.8678 -0.874616 3.48699 0
M  V30 117 C 12.5318 0.156478 4.56732 0
M  V30 118 C 13.5288 0.978032 5.10618 0
M  V30 119 C 11.2138 0.292409 5.01448 0
M  V30 120 C 13.2078 1.92165 6.07743 0
M  V30 121 C 10.8948 1.23949 5.98398 0
M  V30 122 C 11.8928 2.05261 6.51427 0
M  V30 123 O 11.5808 2.98367 7.4648 0
M  V30 124 H 11.3128 -0.0800885 0.671239 0
M  V30 125 H 13.8668 0.412589 2.01213 0
M  V30 126 H 12.0968 -1.67418 3.4858 0
M  V30 127 H 13.7858 -1.40612 3.80766 0
M  V30 128 H 14.5518 0.883782 4.7688 0
M  V30 129 H 10.4308 -0.330498 4.59814 0
M  V30 130 H 13.9748 2.55672 6.49059 0
M  V30 131 H 9.8718 1.33454 6.31554 0
M  V30 132 H 10.6398 2.93116 7.64215 0
M  V30 133 N 13.3029 -1.57598 0.00835791 0
M  V30 134 C 14.7189 -1.55764 -0.347822 0
M  V30 135 C 14.9189 -1.01186 -1.74252 0
M  V30 136 O 13.9749 -0.649371 -2.44007 0
M  V30 137 C 15.2879 -2.99927 -0.215407 0
M  V30 138 C 16.8359 -3.11656 -0.289725 0
M  V30 139 C 17.3109 -4.57621 -0.18634 0
M  V30 140 N 18.8019 -4.62557 -0.243978 0
M  V30 141 C 19.5369 -5.73094 -0.18745 0
M  V30 142 N 19.0329 -6.92753 -0.0810331 0
M  V30 143 N 20.8259 -5.61588 -0.239925 0
M  V30 144 H 12.9769 -1.91411 0.92062 0
M  V30 145 H 15.2399 -0.879562 0.353659 0
M  V30 146 H 14.9459 -3.43729 0.744512 0
M  V30 147 H 14.8199 -3.63865 -0.994097 0
M  V30 148 H 17.2069 -2.67779 -1.24009 0
M  V30 149 H 17.2879 -2.5048 0.51898 0
M  V30 150 H 16.9319 -5.02174 0.760519 0
M  V30 151 H 16.8619 -5.16752 -1.01364 0
M  V30 152 H 19.3529 -3.76481 -0.327217 0
M  V30 153 H 19.6659 -7.72787 -0.0440241 0
M  V30 154 H 18.0109 -6.94984 -0.0465419 0
M  V30 155 H 21.2019 -4.66996 -0.321317 0
M  V30 156 H 21.3749 -6.47714 -0.192407 0
M  V30 157 N 14.781 0.264519 -1.55364 0
M  V30 158 C 15.713 1.34965 -1.85248 0
M  V30 159 C 16.726 1.45136 -0.737525 0
M  V30 160 O 17.915 1.46801 -1.01547 0
M  V30 161 C 15.015 2.73008 -2.00797 0
M  V30 162 C 14.188 2.85324 -3.31525 0
M  V30 163 C 13.247 4.04097 -3.37034 0
M  V30 164 O 12.273 3.94455 -4.10358 0
M  V30 165 N 13.475 5.16458 -2.65049 0
M  V30 166 H 16.24 1.09672 -2.78913 0
M  V30 167 H 13.801 0.454635 -1.55386 0
M  V30 168 H 15.793 3.50772 -2.01844 0
M  V30 169 H 14.363 2.91087 -1.1396 0
M  V30 170 H 13.583 1.94377 -3.42945 0
M  V30 171 H 14.871 2.9049 -4.17724 0
M  V30 172 H 14.269 5.27181 -2.05175 0
M  V30 173 H 12.826 5.92422 -2.71809 0
M  V30 174 N 16.2591 1.48442 0.529413 0
M  V30 175 C 17.1691 1.6569 1.66084 0
M  V30 176 C 18.1851 0.539432 1.65427 0
M  V30 177 O 19.3611 0.810572 1.84368 0
M  V30 178 C 16.4261 1.69315 3.02545 0
M  V30 179 C 15.4871 2.92694 3.14052 0
M  V30 180 C 14.7201 2.96137 4.44003 0
M  V30 181 O 14.9431 2.07973 5.31134 0
M  V30 182 O 13.8771 3.88312 4.59888 0
M  V30 183 H 17.7031 2.61483 1.54469 0
M  V30 184 H 15.2881 1.3185 0.702567 0
M  V30 185 H 17.1701 1.74217 3.83701 0
M  V30 186 H 15.8451 0.766966 3.14483 0
M  V30 187 H 14.7521 2.93324 2.32189 0
M  V30 188 H 16.0851 3.84699 3.0703 0
M  V30 189 N 17.7372 -0.778329 1.37039 0
M  V30 190 C 18.6672 -1.90546 1.34962 0
M  V30 191 C 19.6482 -1.68681 0.219274 0
M  V30 192 O 20.8332 -1.89634 0.418624 0
M  V30 193 C 17.9632 -3.27734 1.14925 0
M  V30 194 C 16.9172 -3.64147 2.24902 0
M  V30 195 C 16.2432 -4.99806 1.89996 0
M  V30 196 C 17.5432 -3.71579 3.67051 0
M  V30 197 H 19.2372 -1.92541 2.29277 0
M  V30 198 H 16.7832 -0.924948 1.10366 0
M  V30 199 H 18.7362 -4.06215 1.12104 0
M  V30 200 H 17.4602 -3.26154 0.170631 0
M  V30 201 H 16.1192 -2.8797 2.26868 0
M  V30 202 H 15.7672 -4.94759 0.906796 0
M  V30 203 H 15.4672 -5.25139 2.63634 0
M  V30 204 H 16.9912 -5.80694 1.88749 0
M  V30 205 H 18.4052 -4.40227 3.67251 0
M  V30 206 H 16.8022 -4.08405 4.39688 0
M  V30 207 H 17.8722 -2.72404 4.01154 0
M  V30 208 N 19.2153 -1.21501 -1.00376 0
M  V30 209 C 20.1633 -0.972442 -2.11297 0
M  V30 210 C 21.1573 0.080731 -1.69208 0
M  V30 211 O 22.3633 -0.0707666 -1.79861 0
M  V30 212 H 18.7383 -0.297218 -0.690772 0
M  V30 213 H 20.7093 -1.91394 -2.28934 0
M  V30 214 C 19.4583 -0.555065 -3.43241 0
M  V30 215 H 18.7813 -1.35709 -3.76062 0
M  V30 216 H 20.2213 -0.424664 -4.21868 0
M  V30 217 C 18.6803 0.734147 -3.28804 0
M  V30 218 O 19.2103 1.78937 -3.59645 0
M  V30 219 N 17.4163 0.701133 -2.82015 0
M  V30 220 H 16.9633 -0.157874 -2.57116 0
M  V30 221 H 16.9213 1.56403 -2.72737 0
M  V30 222 N 20.6934 1.19889 -1.02296 0
M  V30 223 C 21.6404 2.22901 -0.598651 0
M  V30 224 C 22.6104 1.61588 0.384521 0
M  V30 225 O 23.7954 1.88697 0.282522 0
M  V30 226 C 20.9354 3.45063 0.0504476 0
M  V30 227 C 20.0484 4.20783 -0.978053 0
M  V30 228 C 19.1834 5.30356 -0.299338 0
M  V30 229 C 18.2224 5.97826 -1.31416 0
M  V30 230 N 17.3594 6.98975 -0.661667 0
M  V30 231 H 22.1994 2.58554 -1.48169 0
M  V30 232 H 19.7364 1.27039 -0.741584 0
M  V30 233 H 21.6944 4.14831 0.443971 0
M  V30 234 H 20.3244 3.10084 0.897097 0
M  V30 235 H 19.3764 3.50018 -1.48969 0
M  V30 236 H 20.6884 4.67109 -1.74958 0
M  V30 237 H 19.8424 6.06516 0.149347 0
M  V30 238 H 18.5814 4.85084 0.504445 0
M  V30 239 H 17.5864 5.20422 -1.77317 0
M  V30 240 H 18.8114 6.45183 -2.11933 0
M  V30 241 H 16.7574 6.55886 0.122132 0
M  V30 242 H 16.6744 7.43461 -1.37117 0
M  V30 243 H 17.9424 7.7914 -0.236785 0
M  V30 244 N 22.1715 0.800033 1.35784 0
M  V30 245 C 23.3995 0.389606 2.03199 0
M  V30 246 C 23.8145 -0.997375 1.60306 0
M  V30 247 O 23.1715 -1.64154 0.797481 0
M  V30 248 C 23.2225 0.455855 3.58614 0
M  V30 249 O 22.9435 1.78815 3.99946 0
M  V30 250 C 24.4445 0.0374032 4.43284 0
M  V30 251 H 21.6645 0.159132 0.651857 0
M  V30 252 H 24.2085 1.08183 1.73541 0
M  V30 253 H 22.3635 -0.188057 3.86943 0
M  V30 254 H 22.7775 1.74636 4.94573 0
M  V30 255 H 24.2515 0.134882 5.51835 0
M  V30 256 H 24.7285 -1.01651 4.27275 0
M  V30 257 H 25.3345 0.654215 4.20238 0
M  V30 258 N 23.6496 -1.47581 0.552962 0
M  V30 259 C 24.8956 -2.02782 0.0273648 0
M  V30 260 C 25.2286 -1.42687 -1.31734 0
M  V30 261 O 24.5036 -0.580897 -1.85623 0
M  V30 262 C 24.7866 -3.60031 -0.0702371 0
M  V30 263 C 24.6396 -4.30566 1.30126 0
M  V30 264 C 25.9586 -4.33028 -0.785771 0
M  V30 265 H 23.0776 -0.736912 0.0114185 0
M  V30 266 H 25.7196 -1.76056 0.714432 0
M  V30 267 H 23.8696 -3.82932 -0.655382 0
M  V30 268 H 25.5416 -4.19018 1.92929 0
M  V30 269 H 23.7846 -3.91086 1.87709 0
M  V30 270 H 24.4556 -5.39114 1.18573 0
M  V30 271 H 26.9316 -4.15095 -0.288982 0
M  V30 272 H 25.8076 -5.42695 -0.823013 0
M  V30 273 H 26.0686 -4.01945 -1.841 0
M  V30 274 N 25.1277 -0.289203 -1.54924 0
M  V30 275 C 26.3737 0.316922 -2.00916 0
M  V30 276 C 26.7287 1.52424 -1.17408 0
M  V30 277 O 26.0217 1.90097 -0.239536 0
M  V30 278 C 26.2157 0.736119 -3.49737 0
M  V30 279 C 26.0447 -0.429036 -4.47649 0
M  V30 280 C 24.8147 -0.917311 -4.96904 0
M  V30 281 C 27.0127 -1.27016 -4.98369 0
M  V30 282 N 24.9947 -2.05046 -5.78644 0
M  V30 283 C 26.3657 -2.25097 -5.77695 0
M  V30 284 C 28.4207 -1.30188 -4.80578 0
M  V30 285 C 27.1237 -3.26114 -6.41126 0
M  V30 286 C 29.1497 -2.30057 -5.44819 0
M  V30 287 C 28.5117 -3.2687 -6.23968 0
M  V30 288 H 24.6107 0.0807535 -0.777819 0
M  V30 289 H 27.1947 -0.416434 -1.90194 0
M  V30 290 H 25.3657 1.43867 -3.60773 0
M  V30 291 H 27.0977 1.32078 -3.82541 0
M  V30 292 H 23.8527 -0.494248 -4.71014 0
M  V30 293 H 24.2767 -2.62108 -6.24202 0
M  V30 294 H 28.9187 -0.567163 -4.18979 0
M  V30 295 H 26.6367 -4.00512 -7.01866 0
M  V30 296 H 30.2227 -2.33271 -5.32988 0
M  V30 297 H 29.1027 -4.02883 -6.72796 0
M  V30 298 N 26.6058 1.57591 -0.0167156 0
M  V30 299 C 27.5158 2.1291 0.98521 0
M  V30 300 C 28.5318 1.07834 1.36557 0
M  V30 301 O 29.7078 1.39826 1.44951 0
M  V30 302 C 26.7728 2.63512 2.25305 0
M  V30 303 C 25.8338 3.83256 1.93426 0
M  V30 304 C 25.0668 4.31435 3.14165 0
M  V30 305 O 25.2898 3.78851 4.26413 0
M  V30 306 O 24.2238 5.23416 2.97186 0
M  V30 307 H 28.0498 2.98772 0.544888 0
M  V30 308 H 25.6348 1.48012 0.203141 0
M  V30 309 H 27.5168 2.96183 2.99756 0
M  V30 310 H 26.1918 1.8074 2.68542 0
M  V30 311 H 25.0988 3.55531 1.16398 0
M  V30 312 H 26.4318 4.67153 1.55013 0
M  V30 313 N 28.0839 -0.256276 1.55502 0
M  V30 314 C 29.3299 -0.987079 1.77157 0
M  V30 315 C 29.6629 -1.85327 0.580315 0
M  V30 316 O 28.9379 -1.89874 -0.421686 0
M  V30 317 C 29.2209 -1.85553 3.08613 0
M  V30 318 C 29.0739 -1.01816 4.38125 0
M  V30 319 C 30.3929 -2.8397 3.36228 0
M  V30 320 H 27.5119 -0.357428 0.644526 0
M  V30 321 H 30.1539 -0.258239 1.88237 0
M  V30 322 H 28.3039 -2.47695 2.99298 0
M  V30 323 H 29.9759 -0.416159 4.59419 0
M  V30 324 H 28.2189 -0.322178 4.32602 0
M  V30 325 H 28.8899 -1.65939 5.26468 0
M  V30 326 H 31.3659 -2.31964 3.45445 0
M  V30 327 H 30.2419 -3.41864 4.29442 0
M  V30 328 H 30.5029 -3.59955 2.56681 0
M  V30 329 N 29.562 -1.4872 -0.521534 0
M  V30 330 C 30.973 -1.50607 -1.10337 0
M  V30 331 C 31.324 -0.280612 -1.94183 0
M  V30 332 O 30.449 0.611507 -2.0758 0
M  V30 333 C 31.044 -2.72903 -2.00772 0
M  V30 334 C 29.603 -2.77634 -2.54158 0
M  V30 335 C 28.75 -2.44241 -1.31307 0
M  V30 336 H 31.701 -1.55714 -0.306388 0
M  V30 337 H 31.722 -2.519 -2.85178 0
M  V30 338 H 31.234 -3.62077 -1.39721 0
M  V30 339 H 29.335 -1.92689 -3.18907 0
M  V30 340 H 29.448 -3.79283 -2.92714 0
M  V30 341 H 27.812 -1.95577 -1.63161 0
M  V30 342 H 28.595 -3.35666 -0.719943 0
M  V30 343 N 31.0401 0.771051 -1.3745 0
M  V30 344 C 31.9721 1.89352 -1.29146 0
M  V30 345 C 32.9851 1.61477 -0.207124 0
M  V30 346 O 34.1741 1.72382 -0.463324 0
M  V30 347 C 31.2741 3.24596 -0.974195 0
M  V30 348 C 30.4471 3.80111 -2.16413 0
M  V30 349 C 29.5061 4.93832 -1.81703 0
M  V30 350 O 28.5321 5.09382 -2.54006 0
M  V30 351 N 29.7341 5.75483 -0.761573 0
M  V30 352 H 32.4991 1.96991 -2.25864 0
M  V30 353 H 30.0601 0.950191 -1.31084 0
M  V30 354 H 32.0521 3.98193 -0.722828 0
M  V30 355 H 30.6221 3.12454 -0.0955527 0
M  V30 356 H 29.8421 2.98284 -2.57721 0
M  V30 357 H 31.1301 4.13932 -2.95867 0
M  V30 358 H 30.5281 5.65469 -0.161609 0
M  V30 359 H 29.0851 6.49302 -0.570064 0
M  V30 360 N 32.5182 1.22032 0.997298 0
M  V30 361 C 33.9342 0.979326 1.26021 0
M  V30 362 C 34.1342 -0.32972 1.98784 0
M  V30 363 O 33.1902 -1.05345 2.29475 0
M  V30 364 C 34.5032 2.17509 2.07631 0
M  V30 365 C 36.0512 2.21817 2.2083 0
M  V30 366 C 36.5262 3.40933 3.05825 0
M  V30 367 N 38.0172 3.41067 3.13412 0
M  V30 368 C 38.7522 4.29885 3.79455 0
M  V30 369 N 38.2482 5.28914 4.47462 0
M  V30 370 N 40.0412 4.17673 3.76173 0
M  V30 371 H 32.1922 2.06202 0.509352 0
M  V30 372 H 34.4552 0.90334 0.287541 0
M  V30 373 H 34.1612 3.12415 1.61524 0
M  V30 374 H 34.0352 2.17206 3.08385 0
M  V30 375 H 36.4222 1.27462 2.66153 0
M  V30 376 H 36.5032 2.2616 1.1952 0
M  V30 377 H 36.1472 4.35586 2.61203 0
M  V30 378 H 36.0772 3.33829 4.07266 0
M  V30 379 H 38.5682 2.69406 2.65007 0
M  V30 380 H 38.8812 5.92973 4.95583 0
M  V30 381 H 37.2262 5.32831 4.46224 0
M  V30 382 H 40.4172 3.39564 3.22202 0
M  V30 383 H 40.5902 4.87098 4.27363 0
M  V30 384 N 33.9963 -1.19345 1.0293 0
M  V30 385 C 34.9263 -2.2481 0.631105 0
M  V30 386 C 35.9073 -1.66245 -0.360104 0
M  V30 387 O 37.0923 -1.92677 -0.242726 0
M  V30 388 C 34.2223 -3.47295 -0.0184607 0
M  V30 389 C 33.1763 -4.18536 0.895073 0
M  V30 390 C 32.5023 -5.34586 0.110592 0
M  V30 391 C 33.8023 -4.73287 2.209 0
M  V30 392 H 35.4963 -2.58372 1.51275 0
M  V30 393 H 33.0423 -1.24194 0.728818 0
M  V30 394 H 34.9953 -4.20268 -0.308675 0
M  V30 395 H 33.7193 -3.12933 -0.934907 0
M  V30 396 H 32.3783 -3.47446 1.16949 0
M  V30 397 H 32.0263 -4.96469 -0.807902 0
M  V30 398 H 31.7263 -5.83183 0.719087 0
M  V30 399 H 33.2503 -6.10355 -0.172871 0
M  V30 400 H 34.6643 -5.38013 1.98028 0
M  V30 401 H 33.0613 -5.32373 2.76946 0
M  V30 402 H 34.1313 -3.91331 2.86336 0
M  V30 403 N 35.4744 -0.807222 -1.35358 0
M  V30 404 C 36.4064 -0.175717 -2.28525 0
M  V30 405 C 37.4194 0.625354 -1.5031 0
M  V30 406 O 38.6084 0.457611 -1.72535 0
M  V30 407 C 35.7084 0.773471 -3.29956 0
M  V30 408 C 34.8814 0.0186296 -4.37396 0
M  V30 409 C 33.9404 0.886395 -5.18681 0
M  V30 410 O 32.9664 0.337106 -5.68201 0
M  V30 411 N 34.1684 2.20839 -5.36852 0
M  V30 412 H 36.9334 -0.976091 -2.83359 0
M  V30 413 H 34.4944 -0.662737 -1.47714 0
M  V30 414 H 36.4864 1.35824 -3.81227 0
M  V30 415 H 35.0564 1.47465 -2.75632 0
M  V30 416 H 34.2764 -0.747349 -3.87051 0
M  V30 417 H 35.5644 -0.501577 -5.06322 0
M  V30 418 H 34.9624 2.67858 -4.98265 0
M  V30 419 H 33.5194 2.74237 -5.91301 0
M  V30 420 N 36.9525 1.47285 -0.560781 0
M  V30 421 C 38.2005 2.02064 -0.0379868 0
M  V30 422 C 38.5215 1.43711 1.31803 0
M  V30 423 O 37.7915 0.61362 1.86042 0
M  V30 424 H 36.3715 0.746918 -0.0110531 0
M  V30 425 H 39.0335 1.80648 -0.731598 0
M  V30 426 H 38.1295 3.12064 0.0474463 0
M  V30 427 N 38.4306 0.297415 1.54768 0
M  V30 428 C 39.3606 -0.573494 2.26348 0
M  V30 429 C 40.3416 -1.14085 1.26169 0
M  V30 430 O 41.5266 -1.17086 1.54934 0
M  V30 431 C 38.6566 -1.74716 3.00153 0
M  V30 432 C 37.6106 -1.31032 4.07449 0
M  V30 433 C 36.9366 -2.56887 4.68949 0
M  V30 434 C 38.2366 -0.444183 5.20408 0
M  V30 435 H 39.9306 0.0235131 2.99391 0
M  V30 436 H 37.4766 0.0127488 1.43994 0
M  V30 437 H 39.4296 -2.3625 3.48947 0
M  V30 438 H 38.1536 -2.37035 2.24682 0
M  V30 439 H 36.8126 -0.718066 3.59499 0
M  V30 440 H 36.4606 -3.17512 3.90122 0
M  V30 441 H 36.1606 -2.2836 5.41411 0
M  V30 442 H 37.6846 -3.19229 5.20505 0
M  V30 443 H 39.0986 -0.9651 5.65118 0
M  V30 444 H 37.4956 -0.252846 5.99567 0
M  V30 445 H 38.5656 0.531609 4.81977 0
M  V30 446 N 39.9087 -1.5758 0.0250728 0
M  V30 447 C 41.3247 -1.56124 -0.331282 0
M  V30 448 C 41.5247 -1.03029 -1.73169 0
M  V30 449 O 40.5807 -0.675215 -2.43305 0
M  V30 450 C 41.8937 -3.00139 -0.183584 0
M  V30 451 C 43.4417 -3.11946 -0.256654 0
M  V30 452 C 43.9167 -4.57793 -0.137792 0
M  V30 453 N 45.4077 -4.6279 -0.194904 0
M  V30 454 C 46.1427 -5.7326 -0.126655 0
M  V30 455 N 45.6387 -6.928 -0.00755288 0
M  V30 456 N 47.4317 -5.61811 -0.180348 0
M  V30 457 H 39.5827 -1.90424 0.94087 0
M  V30 458 H 41.8457 -0.875761 0.362968 0
M  V30 459 H 41.5517 -3.4292 0.780927 0
M  V30 460 H 41.4257 -3.64899 -0.955448 0
M  V30 461 H 43.8127 -2.69079 -1.21162 0
M  V30 462 H 43.8937 -2.49915 0.545517 0
M  V30 463 H 43.5377 -5.01339 0.813739 0
M  V30 464 H 43.4677 -5.17798 -0.958775 0
M  V30 465 H 45.9587 -3.76807 -0.287267 0
M  V30 466 H 46.2717 -7.72791 0.0379428 0
M  V30 467 H 44.6167 -6.94995 0.0271731 0
M  V30 468 H 47.8077 -4.6731 -0.271767 0
M  V30 469 H 47.9807 -6.47882 -0.123697 0
M  V30 470 N 41.3868 0.248026 -1.55636 0
M  V30 471 C 42.7978 0.817177 -1.67866 0
M  V30 472 C 43.1488 1.86069 -0.622322 0
M  V30 473 O 42.2738 2.15157 0.231618 0
M  V30 474 C 42.8688 1.489 -3.04326 0
M  V30 475 C 41.4278 2.00587 -3.185 0
M  V30 476 C 40.5748 0.856573 -2.63739 0
M  V30 477 H 43.5258 0.0238579 -1.58682 0
M  V30 478 H 43.5468 2.35698 -2.98708 0
M  V30 479 H 43.0588 0.729279 -3.81186 0
M  V30 480 H 41.1598 2.79443 -2.4646 0
M  V30 481 H 41.2728 2.20402 -4.25393 0
M  V30 482 H 39.6368 1.25678 -2.21534 0
M  V30 483 H 40.4198 0.109953 -3.43124 0
M  V30 484 N 42.8649 1.48995 0.513639 0
M  V30 485 C 44.1109 1.58076 1.27042 0
M  V30 486 C 44.4439 0.261026 1.92438 0
M  V30 487 O 43.7189 -0.734393 1.80103 0
M  V30 488 C 44.0019 2.73091 2.34719 0
M  V30 489 C 43.8549 4.14821 1.73907 0
M  V30 490 C 45.1739 2.83796 3.36375 0
M  V30 491 H 42.2929 0.575391 0.460536 0
M  V30 492 H 44.9349 1.81232 0.570516 0
M  V30 493 H 43.0849 2.53479 2.94416 0
M  V30 494 H 44.7569 4.45917 1.18135 0
M  V30 495 H 42.9999 4.21058 1.0437 0
M  V30 496 H 43.6709 4.91147 2.51949 0
M  V30 497 H 46.1469 3.01611 2.86653 0
M  V30 498 H 45.0229 3.65971 4.09093 0
M  V30 499 H 45.2839 1.92624 3.9793 0
M  V30 500 N 44.343 -0.763751 1.37857 0
M  V30 501 C 45.591 -1.51957 1.33243 0
M  V30 502 C 45.912 -1.94835 -0.0801709 0
M  V30 503 O 45.182 -1.66894 -1.02582 0
M  V30 504 H 43.762 -0.563626 0.49024 0
M  V30 505 H 46.424 -0.908504 1.7243 0
M  V30 506 H 45.52 -2.41523 1.97669 0
M  V30 507 N 45.8211 -1.22559 -0.990812 0
M  V30 508 C 47.0461 -1.07862 -1.77145 0
M  V30 509 C 47.4711 0.366447 -1.84496 0
M  V30 510 O 46.8291 1.26478 -1.29896 0
M  V30 511 C 46.8771 -1.69686 -3.18181 0
M  V30 512 O 45.9811 -0.951946 -4.01263 0
M  V30 513 H 45.3221 -0.378712 -0.545411 0
M  V30 514 H 47.8521 -1.62399 -1.2445 0
M  V30 515 H 47.8621 -1.74496 -3.68802 0
M  V30 516 H 46.5371 -2.74841 -3.12146 0
M  V30 517 H 45.1141 -0.980011 -3.59792 0
M  V30 518 N 47.2992 1.18797 -1.03562 0
M  V30 519 C 48.5472 1.88278 -0.734569 0
M  V30 520 C 48.8682 1.8043 0.739586 0
M  V30 521 O 48.1382 1.21925 1.53333 0
M  V30 522 H 46.7182 0.696991 -0.268725 0
M  V30 523 H 49.3802 1.44192 -1.31129 0
M  V30 524 H 48.4762 2.94443 -1.03489 0
M  V30 525 N 48.7773 0.814389 1.34928 0
M  V30 526 C 49.7403 0.235759 2.27984 0
M  V30 527 C 50.7403 -0.581412 1.49921 0
M  V30 528 O 51.9303 -0.398758 1.69575 0
M  V30 529 C 49.0623 -0.670433 3.34242 0
M  V30 530 H 50.2553 1.05659 2.80671 0
M  V30 531 H 47.8083 0.585614 1.44915 0
M  V30 532 H 48.5433 -1.51466 2.86755 0
M  V30 533 H 48.3283 -0.0860822 3.92005 0
M  V30 534 H 49.8183 -1.06935 4.03676 0
M  V30 535 N 50.2554 -1.46986 0.568584 0
M  V30 536 C 51.4854 -2.0653 0.0539173 0
M  V30 537 C 51.8934 -1.42004 -1.25026 0
M  V30 538 O 51.2364 -0.514541 -1.76347 0
M  V30 539 C 51.2984 -3.58938 -0.200854 0
M  V30 540 C 50.9624 -4.45572 1.01559 0
M  V30 541 C 51.9594 -4.82986 1.92407 0
M  V30 542 C 49.6444 -4.8692 1.23346 0
M  V30 543 C 51.6384 -5.60559 3.03402 0
M  V30 544 C 49.3254 -5.64255 2.34649 0
M  V30 545 C 50.3234 -6.00986 3.24507 0
M  V30 546 O 50.0114 -6.76761 4.33878 0
M  V30 547 H 49.7434 -0.674292 0.0480234 0
M  V30 548 H 52.2974 -1.89812 0.784896 0
M  V30 549 H 50.5274 -3.73911 -0.986279 0
M  V30 550 H 52.2164 -4.0046 -0.662294 0
M  V30 551 H 52.9824 -4.51633 1.76785 0
M  V30 552 H 48.8614 -4.57789 0.543178 0
M  V30 553 H 52.4054 -5.89147 3.73565 0
M  V30 554 H 48.3024 -5.95021 2.5024 0
M  V30 555 H 49.0704 -6.95168 4.32068 0
M  V30 556 N 51.7335 -0.305618 -1.54608 0
M  V30 557 C 52.9815 0.301701 -1.99835 0
M  V30 558 C 53.3025 1.54054 -1.19551 0
M  V30 559 O 52.5725 1.93702 -0.292658 0
M  V30 560 H 51.1525 0.114468 -0.738178 0
M  V30 561 H 53.8145 -0.418016 -1.90364 0
M  V30 562 H 52.9105 0.570548 -3.06841 0
M  V30 563 N 53.2116 1.57565 -0.0334293 0
M  V30 564 C 54.4366 1.96689 0.657895 0
M  V30 565 C 54.8616 0.910057 1.64619 0
M  V30 566 O 54.2196 -0.128598 1.80843 0
M  V30 567 C 54.2676 3.34905 1.33683 0
M  V30 568 O 53.3716 3.31574 2.45219 0
M  V30 569 H 52.7126 0.641205 0.172489 0
M  V30 570 H 55.2426 2.04372 -0.0965621 0
M  V30 571 H 55.2526 3.71234 1.69262 0
M  V30 572 H 53.9276 4.11366 0.612411 0
M  V30 573 H 52.5046 3.06968 2.11719 0
M  V30 574 N 54.6897 -0.239769 1.55765 0
M  V30 575 C 55.9357 -0.968234 1.78194 0
M  V30 576 C 56.2687 -1.84701 0.599938 0
M  V30 577 O 55.5437 -1.9031 -0.401524 0
M  V30 578 C 55.8267 -1.8227 3.10564 0
M  V30 579 C 55.6797 -0.971633 4.3918 0
M  V30 580 C 56.9987 -2.80388 3.39221 0
M  V30 581 H 54.1177 -0.350572 0.648281 0
M  V30 582 H 56.7597 -0.238259 1.885 0
M  V30 583 H 54.9097 -2.44507 3.01908 0
M  V30 584 H 56.5817 -0.367408 4.59835 0
M  V30 585 H 54.8247 -0.276276 4.32919 0
M  V30 586 H 55.4957 -1.60346 5.28198 0
M  V30 587 H 57.9717 -2.28287 3.47885 0
M  V30 588 H 56.8477 -3.3729 4.33044 0
M  V30 589 H 57.1087 -3.57212 2.60484 0
M  V30 590 N 56.1678 -1.49265 -0.50573 0
M  V30 591 C 57.4078 -1.60128 -1.27038 0
M  V30 592 C 57.7718 -0.279557 -1.89954 0
M  V30 593 O 58.9728 -0.263329 -2.67507 0
M  V30 594 C 57.2438 -2.72507 -2.31246 0
M  V30 595 S 58.8028 -3.0329 -3.17113 0
M  V30 596 H 55.6208 -0.564863 -0.4318 0
M  V30 597 H 58.2228 -1.86902 -0.573397 0
M  V30 598 H 56.9268 -3.67068 -1.83546 0
M  V30 599 H 56.4578 -2.4771 -3.05619 0
M  V30 600 H 58.4728 -2.44448 -4.31809 0
M  V30 601 N 57.6459 0.756429 -1.3826 0
M  V30 602 C 58.8709 1.55077 -1.37717 0
M  V30 603 C 59.2959 1.88073 0.03164 0
M  V30 604 O 58.6539 1.50364 1.01293 0
M  V30 605 C 58.7019 2.8283 -2.23695 0
M  V30 606 O 57.8059 3.77862 -1.6521 0
M  V30 607 H 57.1469 0.469152 -0.469885 0
M  V30 608 H 59.6769 0.935019 -1.81985 0
M  V30 609 H 59.6869 3.31783 -2.37453 0
M  V30 610 H 58.3619 2.58144 -3.2609 0
M  V30 611 H 56.9389 3.36555 -1.60578 0
M  V30 612 N 59.124 1.23083 0.984299 0
M  V30 613 C 60.087 1.00979 2.05757 0
M  V30 614 C 61.087 -0.0269573 1.60777 0
M  V30 615 O 62.277 0.212403 1.729 0
M  V30 616 C 59.409 0.527072 3.36801 0
M  V30 617 H 60.602 1.9622 2.26799 0
M  V30 618 H 58.155 1.05072 1.15714 0
M  V30 619 H 58.89 -0.429294 3.21446 0
M  V30 620 H 58.675 1.27515 3.70786 0
M  V30 621 H 60.165 0.392942 4.15747 0
M  V30 622 N 60.6021 -1.18246 1.0419 0
M  V30 623 C 61.8321 -1.91916 0.764961 0
M  V30 624 C 62.2401 -1.76485 -0.681898 0
M  V30 625 O 61.5831 -1.09275 -1.47664 0
M  V30 626 C 61.6451 -3.4373 1.05309 0
M  V30 627 C 61.3091 -3.8294 2.4941 0
M  V30 628 C 62.3061 -3.86621 3.47592 0
M  V30 629 C 59.9911 -4.142 2.84155 0
M  V30 630 C 61.9851 -4.21013 4.78568 0
M  V30 631 C 59.6721 -4.48262 4.15337 0
M  V30 632 C 60.6701 -4.51645 5.12353 0
M  V30 633 O 60.3581 -4.84911 6.41183 0
M  V30 634 H 60.0901 -0.61606 0.278292 0
M  V30 635 H 62.6441 -1.50947 1.39299 0
M  V30 636 H 60.8741 -3.84946 0.367933 0
M  V30 637 H 62.5631 -3.9865 0.763752 0
M  V30 638 H 63.3291 -3.62607 3.22089 0
M  V30 639 H 59.2081 -4.10743 2.09311 0
M  V30 640 H 62.7521 -4.23568 5.54289 0
M  V30 641 H 58.6491 -4.71737 4.40607 0
M  V30 642 H 59.4171 -5.02809 6.45852 0
M  V30 643 N 62.0802 -0.821533 -1.34494 0
M  V30 644 C 63.3572 -0.33159 -1.92769 0
M  V30 645 C 63.7372 1.18088 -1.74981 0
M  V30 646 O 63.0852 1.98733 -1.12772 0
M  V30 647 C 63.2952 -0.759398 -3.40638 0
M  V30 648 C 64.6432 -0.757433 -4.1779 0
M  V30 649 O 65.6672 -0.70189 -3.49216 0
M  V30 650 O 64.5262 -0.829361 -5.4017 0
M  V30 651 H 61.6202 -0.0902502 -0.822061 0
M  V30 652 H 64.1662 -0.906231 -1.43477 0
M  V30 653 H 62.9382 -1.8012 -3.47379 0
M  V30 654 H 62.5612 -0.160378 -3.97276 0
M  V30 655 N 63.5583 1.46682 -0.576371 0
M  V30 656 C 64.5213 2.28707 0.150239 0
M  V30 657 C 65.5213 1.38035 0.824794 0
M  V30 658 O 66.7113 1.60476 0.677719 0
M  V30 659 C 63.8433 3.18248 1.22192 0
M  V30 660 H 65.0363 2.94423 -0.570521 0
M  V30 661 H 62.5893 1.52688 -0.334078 0
M  V30 662 H 63.3243 2.57265 1.97447 0
M  V30 663 H 63.1093 3.85 0.742812 0
M  V30 664 H 64.5993 3.80001 1.73172 0
M  V30 665 N 65.0364 0.313813 1.54444 0
M  V30 666 C 66.4524 -0.0391619 1.59552 0
M  V30 667 C 66.6524 -1.51322 1.33056 0
M  V30 668 O 65.7084 -2.26782 1.11022 0
M  V30 669 C 67.0214 0.370302 2.98411 0
M  V30 670 C 68.5694 0.320139 3.11358 0
M  V30 671 C 69.0444 0.704617 4.52547 0
M  V30 672 N 70.5354 0.657645 4.58508 0
M  V30 673 C 71.2704 0.927453 5.6585 0
M  V30 674 N 70.7664 1.26389 6.81174 0
M  V30 675 N 72.5594 0.853662 5.5558 0
M  V30 676 H 64.7104 1.27433 1.69925 0
M  V30 677 H 66.9734 0.517511 0.794284 0
M  V30 678 H 66.6794 1.39694 3.22767 0
M  V30 679 H 66.5534 -0.269619 3.76235 0
M  V30 680 H 68.9404 -0.697275 2.86744 0
M  V30 681 H 69.0214 0.99486 2.35661 0
M  V30 682 H 68.6654 1.7199 4.77893 0
M  V30 683 H 68.5954 0.00768843 5.26599 0
M  V30 684 H 71.0864 0.409067 3.75679 0
M  V30 685 H 71.3994 1.4554 7.58972 0
M  V30 686 H 69.7444 1.30206 6.82694 0
M  V30 687 H 72.9354 0.590383 4.64362 0
M  V30 688 H 73.1084 1.0673 6.3915 0
M  V30 689 N 66.5145 -1.57545 0.0417849 0
M  V30 690 C 67.4445 -2.14009 -0.933929 0
M  V30 691 C 68.4255 -1.05938 -1.33083 0
M  V30 692 O 69.6105 -1.33833 -1.40721 0
M  V30 693 C 66.7405 -2.67747 -2.21199 0
M  V30 694 C 65.6945 -3.80718 -1.95544 0
M  V30 695 C 65.0205 -4.20935 -3.29724 0
M  V30 696 C 66.3205 -5.06258 -1.28452 0
M  V30 697 H 68.0145 -2.95788 -0.463645 0
M  V30 698 H 65.5605 -1.42285 -0.221573 0
M  V30 699 H 67.5135 -3.05886 -2.89848 0
M  V30 700 H 66.2375 -1.83147 -2.70416 0
M  V30 701 H 64.8965 -3.43037 -1.2931 0
M  V30 702 H 64.5445 -3.33298 -3.76724 0
M  V30 703 H 64.2445 -4.9707 -3.13361 0
M  V30 704 H 65.7685 -4.61666 -3.9962 0
M  V30 705 H 67.1825 -5.41903 -1.8712 0
M  V30 706 H 65.5795 -5.87475 -1.22445 0
M  V30 707 H 66.6495 -4.84207 -0.259219 0
M  V30 708 N 67.9926 0.231505 -1.5589 0
M  V30 709 C 69.4086 0.580748 -1.48659 0
M  V30 710 C 69.6086 1.87617 -0.73498 0
M  V30 711 O 68.6646 2.51046 -0.270586 0
M  V30 712 C 69.9776 0.669202 -2.93159 0
M  V30 713 C 71.5256 0.760499 -3.03621 0
M  V30 714 C 72.0006 0.880383 -4.49459 0
M  V30 715 N 73.4916 0.944861 -4.53461 0
M  V30 716 C 74.2266 1.05716 -5.63571 0
M  V30 717 N 73.7226 1.13403 -6.83456 0
M  V30 718 N 75.5156 1.09152 -5.514 0
M  V30 719 H 67.6666 -0.618695 -2.03189 0
M  V30 720 H 69.9296 -0.215728 -0.923128 0
M  V30 721 H 69.6356 -0.212904 -3.51055 0
M  V30 722 H 69.5096 1.5361 -3.44505 0
M  V30 723 H 71.8966 1.63305 -2.45796 0
M  V30 724 H 71.9776 -0.131864 -2.5546 0
M  V30 725 H 71.6216 0.0123284 -5.07899 0
M  V30 726 H 71.5516 1.78802 -4.95316 0
M  V30 727 H 74.0426 0.896176 -3.6712 0
M  V30 728 H 74.3556 1.21921 -7.63122 0
M  V30 729 H 72.7006 1.10333 -6.86186 0
M  V30 730 H 75.8916 1.02805 -4.56671 0
M  V30 731 H 76.0646 1.17558 -6.37247 0
M  V30 732 N 69.4707 1.49531 0.497807 0
M  V30 733 C 70.4027 1.62559 1.61578 0
M  V30 734 C 71.4157 0.508134 1.54667 0
M  V30 735 O 72.6047 0.780309 1.60541 0
M  V30 736 C 69.7047 1.56925 3.00379 0
M  V30 737 C 68.8777 2.84257 3.3244 0
M  V30 738 C 67.9367 2.71632 4.50669 0
M  V30 739 O 66.9627 3.4557 4.52294 0
M  V30 740 N 68.1647 1.83391 5.5077 0
M  V30 741 H 70.9297 2.58981 1.50828 0
M  V30 742 H 68.4907 1.4666 0.685743 0
M  V30 743 H 70.4827 1.46129 3.77397 0
M  V30 744 H 69.0527 0.683483 3.05037 0
M  V30 745 H 68.2727 3.09381 2.44289 0
M  V30 746 H 69.5607 3.68666 3.5066 0
M  V30 747 H 68.9587 1.22583 5.52259 0
M  V30 748 H 67.5157 1.78515 6.26878 0
M  V30 749 N 70.9488 -0.749086 1.3866 0
M  V30 750 C 71.8958 -1.86291 1.36251 0
M  V30 751 C 72.8658 -1.64578 0.224347 0
M  V30 752 O 74.0508 -1.86181 0.417279 0
M  V30 753 C 71.1908 -3.23644 1.19786 0
M  V30 754 C 70.3038 -3.57158 2.43027 0
M  V30 755 C 69.4388 -4.83838 2.19258 0
M  V30 756 C 68.4778 -5.10152 3.38247 0
M  V30 757 N 67.6148 -6.28029 3.13884 0
M  V30 758 H 72.4548 -1.87685 2.3147 0
M  V30 759 H 69.9918 -0.917287 1.14997 0
M  V30 760 H 71.9498 -4.0291 1.08254 0
M  V30 761 H 70.5798 -3.21566 0.282031 0
M  V30 762 H 69.6318 -2.72701 2.65214 0
M  V30 763 H 70.9438 -3.7253 3.31697 0
M  V30 764 H 70.0978 -5.71057 2.04888 0
M  V30 765 H 68.8368 -4.70614 1.2796 0
M  V30 766 H 67.8418 -4.21401 3.53131 0
M  V30 767 H 69.0668 -5.25271 4.30427 0
M  V30 768 H 67.0128 -6.1612 2.25238 0
M  V30 769 H 66.9298 -6.43922 3.96106 0
M  V30 770 H 68.1978 -7.18124 3.03179 0
M  V30 771 N 72.4269 -1.23603 -0.977757 0
M  V30 772 C 73.6729 -1.07129 -1.72195 0
M  V30 773 C 74.0059 0.390501 -1.90233 0
M  V30 774 O 73.2809 1.28902 -1.45653 0
M  V30 775 C 73.5639 -1.80031 -3.11867 0
M  V30 776 C 73.4169 -3.33899 -3.01383 0
M  V30 777 C 74.7359 -1.56492 -4.11337 0
M  V30 778 H 71.8549 -0.390571 -0.624999 0
M  V30 779 H 74.4969 -1.52142 -1.13811 0
M  V30 780 H 72.6469 -1.41768 -3.6171 0
M  V30 781 H 74.3189 -3.81699 -2.59043 0
M  V30 782 H 72.5619 -3.62796 -2.37827 0
M  V30 783 H 73.2329 -3.801 -4.00285 0
M  V30 784 H 75.7089 -1.89757 -3.70313 0
M  V30 785 H 74.5849 -2.09973 -5.07151 0
M  V30 786 H 74.8459 -0.500874 -4.39254 0
M  V30 787 N 73.905 1.17692 -1.04816 0
M  V30 788 C 74.868 2.19787 -0.650117 0
M  V30 789 C 75.868 1.58044 0.296427 0
M  V30 790 O 77.058 1.74012 0.0808097 0
M  V30 791 C 74.19 3.40869 0.0456987 0
M  V30 792 H 75.383 2.56516 -1.5537 0
M  V30 793 H 72.936 1.31708 -0.841594 0
M  V30 794 H 73.671 3.09681 0.962726 0
M  V30 795 H 73.456 3.86928 -0.634727 0
M  V30 796 H 74.946 4.16445 0.310432 0
M  V30 797 N 75.3831 0.828654 1.34056 0
M  V30 798 C 76.6291 0.42008 1.98402 0
M  V30 799 C 76.9621 -1.01564 1.65525 0
M  V30 800 O 76.2371 -1.70834 0.929831 0
M  V30 801 C 76.5201 0.62927 3.54559 0
M  V30 802 C 76.3731 2.11152 3.97159 0
M  V30 803 C 77.6921 0.0688756 4.40046 0
M  V30 804 H 74.8111 0.154104 0.720709 0
M  V30 805 H 77.4531 1.04228 1.5886 0
M  V30 806 H 75.6031 0.0996418 3.88372 0
M  V30 807 H 77.2751 2.70522 3.73651 0
M  V30 808 H 75.5181 2.59985 3.47261 0
M  V30 809 H 76.1891 2.20868 5.05887 0
M  V30 810 H 78.6651 0.521458 4.1282 0
M  V30 811 H 77.5411 0.245006 5.48353 0
M  V30 812 H 77.8021 -1.0266 4.30015 0
M  V30 813 N 76.8612 -1.46375 0.584142 0
M  V30 814 C 77.8082 -2.30323 -0.148286 0
M  V30 815 C 78.7782 -1.40703 -0.882713 0
M  V30 816 O 79.9632 -1.69651 -0.873099 0
M  V30 817 C 77.1032 -3.25196 -1.15507 0
M  V30 818 C 76.2162 -4.29915 -0.423943 0
M  V30 819 C 75.3512 -5.11914 -1.41838 0
M  V30 820 C 74.3902 -6.08381 -0.673736 0
M  V30 821 N 73.5272 -6.83242 -1.6163 0
M  V30 822 H 78.3672 -2.92427 0.573644 0
M  V30 823 H 75.9042 -1.44118 0.294703 0
M  V30 824 H 77.8622 -3.78646 -1.75166 0
M  V30 825 H 76.4922 -2.64898 -1.8447 0
M  V30 826 H 75.5442 -3.7931 0.287714 0
M  V30 827 H 76.8562 -4.98549 0.158128 0
M  V30 828 H 76.0102 -5.69648 -2.08773 0
M  V30 829 H 74.7492 -4.43243 -2.03438 0
M  V30 830 H 73.7542 -5.49799 0.00938483 0
M  V30 831 H 74.9792 -6.79071 -0.0631082 0
M  V30 832 H 72.9252 -6.1728 -2.22038 0
M  V30 833 H 72.8422 -7.48144 -1.08707 0
M  V30 834 H 74.1102 -7.45534 -2.27596 0
M  V30 835 N 78.3393 -0.321999 -1.54275 0
M  V30 836 C 79.2863 0.544664 -2.24281 0
M  V30 837 C 80.2563 1.1129 -1.23303 0
M  V30 838 O 81.4413 1.15354 -1.51981 0
M  V30 839 C 78.5813 1.70045 -3.00298 0
M  V30 840 C 77.6943 1.16159 -4.1609 0
M  V30 841 C 76.8293 2.28293 -4.79641 0
M  V30 842 C 75.8683 1.71648 -5.8754 0
M  V30 843 N 75.0053 2.77438 -6.44959 0
M  V30 844 H 79.8453 -0.0588907 -2.97942 0
M  V30 845 H 77.3823 -0.0408345 -1.47043 0
M  V30 846 H 79.3403 2.38054 -3.42616 0
M  V30 847 H 77.9703 2.27531 -2.28975 0
M  V30 848 H 77.0223 0.373092 -3.78566 0
M  V30 849 H 78.3343 0.707087 -4.93763 0
M  V30 850 H 77.4883 3.0421 -5.2492 0
M  V30 851 H 76.2273 2.77079 -4.01346 0
M  V30 852 H 75.2323 0.942282 -5.41665 0
M  V30 853 H 76.4573 1.23741 -6.67731 0
M  V30 854 H 74.4033 3.25519 -5.69538 0
M  V30 855 H 74.3203 2.36547 -7.1804 0
M  V30 856 H 75.5883 3.53189 -6.94894 0
M  V30 857 N 79.8174 1.5752 -0.0501392 0
M  V30 858 C 80.7474 2.14502 0.922566 0
M  V30 859 C 81.7284 1.06642 1.3252 0
M  V30 860 O 82.9134 1.34577 1.4001 0
M  V30 861 C 80.0434 2.68916 2.19776 0
M  V30 862 C 78.9974 3.8175 1.93523 0
M  V30 863 C 78.3234 4.22677 3.27487 0
M  V30 864 C 79.6234 5.06932 1.25765 0
M  V30 865 H 81.3174 2.9603 0.447952 0
M  V30 866 H 78.8634 1.42401 0.214024 0
M  V30 867 H 80.8164 3.07419 2.88222 0
M  V30 868 H 79.5404 1.84578 2.69441 0
M  V30 869 H 78.1994 3.43718 1.27489 0
M  V30 870 H 77.8474 3.35291 3.74952 0
M  V30 871 H 77.5474 4.98725 3.1072 0
M  V30 872 H 79.0714 4.63779 3.97166 0
M  V30 873 H 80.4854 5.42888 1.84244 0
M  V30 874 H 78.8824 5.88116 1.19328 0
M  V30 875 H 79.9524 4.84337 0.233536 0
M  V30 876 N 81.2955 -0.223234 1.56011 0
M  V30 877 C 82.5205 -0.968978 1.83373 0
M  V30 878 C 82.9455 -1.77227 0.630254 0
M  V30 879 O 82.3035 -1.76345 -0.420959 0
M  V30 880 C 82.3515 -1.86363 3.08709 0
M  V30 881 O 81.4555 -2.95873 2.87285 0
M  V30 882 H 80.7965 -0.274461 0.604622 0
M  V30 883 H 83.3265 -0.237056 2.03222 0
M  V30 884 H 83.3365 -2.27376 3.38768 0
M  V30 885 H 82.0115 -1.27319 3.95933 0
M  V30 886 H 80.5885 -2.58818 2.68454 0
M  V30 887 N 82.7736 -1.49793 -0.48987 0
M  V30 888 C 84.1896 -1.36803 -0.822022 0
M  V30 889 C 84.3896 -0.409652 -1.97292 0
M  V30 890 O 83.4456 0.154614 -2.52026 0
M  V30 891 C 84.7586 -2.77768 -1.15175 0
M  V30 892 C 86.3066 -2.86549 -1.25931 0
M  V30 893 C 86.7816 -4.28306 -1.62228 0
M  V30 894 N 88.2726 -4.31169 -1.69256 0
M  V30 895 C 89.0076 -5.37832 -1.98807 0
M  V30 896 N 88.5036 -6.54726 -2.26507 0
M  V30 897 N 90.2966 -5.25258 -2.00152 0
M  V30 898 H 82.4476 -2.10691 0.268881 0
M  V30 899 H 84.7106 -0.946241 0.057728 0
M  V30 900 H 84.4166 -3.49648 -0.379335 0
M  V30 901 H 84.2906 -3.13836 -2.09253 0
M  V30 902 H 86.6776 -2.14899 -2.02243 0
M  V30 903 H 86.7586 -2.54049 -0.298776 0
M  V30 904 H 86.4026 -5.00486 -0.864622 0
M  V30 905 H 86.3326 -4.58279 -2.594 0
M  V30 906 H 88.8236 -3.4687 -1.49965 0
M  V30 907 H 89.1366 -7.31833 -2.48276 0
M  V30 908 H 87.4816 -6.57933 -2.23939 0
M  V30 909 H 90.6726 -4.32938 -1.77996 0
M  V30 910 H 90.8456 -6.08476 -2.22848 0
M  V30 911 N 84.2517 0.741722 -1.39055 0
M  V30 912 C 85.6627 1.31966 -1.32068 0
M  V30 913 C 86.0137 1.96192 0.0180797 0
M  V30 914 O 85.1387 1.95861 0.920196 0
M  V30 915 C 85.7337 2.39954 -2.39181 0
M  V30 916 C 84.2927 2.93438 -2.35735 0
M  V30 917 C 83.4397 1.66936 -2.21422 0
M  V30 918 H 86.3907 0.539721 -1.4924 0
M  V30 919 H 86.4117 3.20182 -2.05581 0
M  V30 920 H 85.9237 1.9318 -3.36605 0
M  V30 921 H 84.0247 3.4451 -1.41929 0
M  V30 922 H 84.1377 3.4701 -3.30335 0
M  V30 923 H 82.5017 1.91016 -1.68478 0
M  V30 924 H 83.2847 1.22224 -3.20806 0
M  V30 925 N 85.7298 1.2412 0.971189 0
M  V30 926 C 86.9768 1.07881 1.71371 0
M  V30 927 C 87.3048 -0.382901 1.90694 0
M  V30 928 O 86.5598 -1.29945 1.46331 0
M  V30 929 C 86.8588 1.75983 3.11071 0
M  V30 930 C 86.5248 3.25909 3.11599 0
M  V30 931 C 85.1868 3.66813 3.11451 0
M  V30 932 C 87.5388 4.21771 3.062 0
M  V30 933 C 84.8668 5.02021 3.03631 0
M  V30 934 C 87.2188 5.56982 2.99923 0
M  V30 935 C 85.8828 5.97237 2.98102 0
M  V30 936 H 85.1528 0.394764 0.62709 0
M  V30 937 H 87.7998 1.54176 1.13587 0
M  V30 938 H 86.1048 1.22072 3.72298 0
M  V30 939 H 87.8018 1.60887 3.6731 0
M  V30 940 H 84.3918 2.93353 3.12477 0
M  V30 941 H 88.5758 3.91172 3.05447 0
M  V30 942 H 83.8318 5.32411 3.0058 0
M  V30 943 H 88.0058 6.30969 2.94704 0
M  V30 944 H 85.6328 7.01967 2.91798 0
M  V30 945 N 87.2079 -1.17134 1.05439 0
M  V30 946 C 88.1399 -2.2078 0.615539 0
M  V30 947 C 89.1529 -1.59584 -0.322001 0
M  V30 948 O 90.3419 -1.78133 -0.114344 0
M  V30 949 C 87.4419 -3.38691 -0.118938 0
M  V30 950 C 86.6149 -4.29454 0.829924 0
M  V30 951 C 85.6739 -5.26024 0.136258 0
M  V30 952 O 84.6999 -5.63952 0.77115 0
M  V30 953 N 85.9019 -5.69487 -1.1254 0
M  V30 954 H 88.6669 -2.59052 1.50705 0
M  V30 955 H 86.2279 -1.32058 0.936603 0
M  V30 956 H 88.2199 -4.00329 -0.593179 0
M  V30 957 H 86.7899 -2.98996 -0.91215 0
M  V30 958 H 86.0099 -3.65211 1.48373 0
M  V30 959 H 87.2979 -4.86984 1.47392 0
M  V30 960 H 86.6959 -5.4075 -1.6615 0
M  V30 961 H 85.2529 -6.33257 -1.54366 0
M  V30 962 N 88.686 -0.835752 -1.33615 0
M  V30 963 C 89.911 -0.442389 -2.02627 0
M  V30 964 C 90.336 0.947735 -1.62479 0
M  V30 965 O 89.694 1.61907 -0.815826 0
M  V30 966 C 89.742 -0.567216 -3.56111 0
M  V30 967 O 88.846 0.407799 -4.10379 0
M  V30 968 H 88.187 -0.180278 -0.639059 0
M  V30 969 H 90.717 -1.12972 -1.70583 0
M  V30 970 H 90.727 -0.447708 -4.05536 0
M  V30 971 H 89.402 -1.58103 -3.84677 0
M  V30 972 H 87.979 0.246107 -3.72087 0
M  V30 973 N 90.1641 1.46063 -0.591896 0
M  V30 974 C 91.0941 2.33172 0.123673 0
M  V30 975 C 92.0751 1.45897 0.87453 0
M  V30 976 O 93.2601 1.74698 0.848181 0
M  V30 977 C 90.3901 3.28336 1.13194 0
M  V30 978 C 89.3441 4.25124 0.495324 0
M  V30 979 C 88.6701 5.09863 1.61071 0
M  V30 980 C 89.9701 5.19143 -0.573425 0
M  V30 981 H 91.6641 2.93252 -0.603646 0
M  V30 982 H 89.2101 1.41014 -0.291741 0
M  V30 983 H 91.1631 3.88137 1.64097 0
M  V30 984 H 89.8871 2.66383 1.88965 0
M  V30 985 H 88.5461 3.66599 0.00729452 0
M  V30 986 H 88.1941 4.44288 2.35832 0
M  V30 987 H 87.8941 5.75417 1.19035 0
M  V30 988 H 89.4181 5.72529 2.12233 0
M  V30 989 H 90.8321 5.73106 -0.1491 0
M  V30 990 H 89.2291 5.93089 -0.914636 0
M  V30 991 H 90.2991 4.62519 -1.45617 0
M  V30 992 N 91.6422 0.330177 1.54103 0
M  V30 993 C 92.8912 -0.271336 1.99867 0
M  V30 994 C 93.2042 -1.52723 1.22209 0
M  V30 995 O 94.4102 -2.20515 1.58383 0
M  V30 996 C 92.8662 -0.534032 3.55916 0
M  V30 997 C 92.4742 0.705193 4.42415 0
M  V30 998 C 94.2182 -1.09514 4.1013 0
M  V30 999 C 92.1252 0.414035 5.89949 0
M  V30 1000 H 91.0552 -0.105166 0.74663 0
M  V30 1001 H 93.7062 0.443429 1.78062 0
M  V30 1002 H 92.0882 -1.30915 3.73734 0
M  V30 1003 H 93.2622 1.4804 4.36372 0
M  V30 1004 H 91.5772 1.18698 3.99124 0
M  V30 1005 H 94.1742 -1.3277 5.17954 0
M  V30 1006 H 94.5172 -2.04656 3.62521 0
M  V30 1007 H 95.0502 -0.381038 3.95971 0
M  V30 1008 H 91.7892 1.33481 6.41766 0
M  V30 1009 H 91.3092 -0.323336 5.98928 0
M  V30 1010 H 92.9882 0.0263105 6.46995 0
M  V30 1011 N 93.1203 -1.57491 0.0584922 0
M  V30 1012 C 94.0703 -2.08474 -0.923188 0
M  V30 1013 C 95.0543 -0.991479 -1.26722 0
M  V30 1014 O 96.2463 -1.25473 -1.24842 0
M  V30 1015 C 93.3753 -2.6392 -2.19548 0
M  V30 1016 C 92.4613 -3.80227 -1.87852 0
M  V30 1017 N 92.8523 -4.89714 -1.26546 0
M  V30 1018 C 91.1503 -3.89271 -2.17679 0
M  V30 1019 C 91.8513 -5.70689 -1.12644 0
M  V30 1020 N 90.8273 -5.18531 -1.63176 0
M  V30 1021 H 94.6293 -2.90517 -0.444653 0
M  V30 1022 H 92.1433 -1.61745 -0.145764 0
M  V30 1023 H 94.1403 -2.98752 -2.9078 0
M  V30 1024 H 92.8003 -1.83318 -2.68001 0
M  V30 1025 H 93.8113 -5.09358 -0.936757 0
M  V30 1026 H 90.4883 -3.19623 -2.68602 0
M  V30 1027 H 91.8783 -6.6875 -0.6499 0
M  V30 1028 N 94.5984 0.214957 -1.56127 0
M  V30 1029 C 95.5614 1.24997 -1.92116 0
M  V30 1030 C 96.5614 1.39467 -0.800344 0
M  V30 1031 O 97.7514 1.37619 -1.06802 0
M  V30 1032 C 94.8834 2.62271 -2.17777 0
M  V30 1033 H 96.0764 0.942875 -2.84693 0
M  V30 1034 H 93.6294 0.455654 -1.49511 0
M  V30 1035 H 94.3644 2.98068 -1.27773 0
M  V30 1036 H 94.1494 2.53143 -2.99434 0
M  V30 1037 H 95.6394 3.36946 -2.46693 0
M  V30 1038 N 96.0765 1.50051 0.48192 0
M  V30 1039 C 97.4925 1.37237 0.814756 0
M  V30 1040 C 97.6925 0.420109 1.97072 0
M  V30 1041 O 96.7485 -0.141246 2.52105 0
M  V30 1042 C 98.0615 2.78375 1.13701 0
M  V30 1043 C 99.6095 2.87213 1.2441 0
M  V30 1044 C 100.084 4.29161 1.59954 0
M  V30 1045 N 101.575 4.32061 1.66967 0
M  V30 1046 C 102.31 5.38879 1.95952 0
M  V30 1047 N 101.806 6.55918 2.23031 0
M  V30 1048 N 103.599 5.26312 1.97363 0
M  V30 1049 H 95.7505 2.10546 -0.28005 0
M  V30 1050 H 98.0135 0.945921 -0.0627454 0
M  V30 1051 H 97.7195 3.49845 0.360787 0
M  V30 1052 H 97.5935 3.14941 2.07586 0
M  V30 1053 H 99.9805 2.15969 2.01101 0
M  V30 1054 H 100.061 2.54204 0.285299 0
M  V30 1055 H 99.7055 5.00938 0.838067 0
M  V30 1056 H 99.6355 4.59648 2.56966 0
M  V30 1057 H 102.126 3.47661 1.48123 0
M  V30 1058 H 102.439 7.33139 2.44391 0
M  V30 1059 H 100.784 6.59112 2.20447 0
M  V30 1060 H 103.975 4.33876 1.75697 0
M  V30 1061 H 104.148 6.09649 2.19618 0
M  V30 1062 N 97.5546 -0.734337 1.39446 0
M  V30 1063 C 98.9706 -1.03997 1.21065 0
M  V30 1064 C 99.1706 -2.01369 0.0727019 0
M  V30 1065 O 98.2266 -2.45856 -0.575426 0
M  V30 1066 C 99.5396 -1.60163 2.54496 0
M  V30 1067 C 101.088 -1.7224 2.61347 0
M  V30 1068 C 101.563 -2.31814 3.95002 0
M  V30 1069 N 103.054 -2.39223 3.96644 0
M  V30 1070 C 103.789 -2.86258 4.96834 0
M  V30 1071 N 103.285 -3.33184 6.07421 0
M  V30 1072 N 105.078 -2.85473 4.84213 0
M  V30 1073 H 97.2286 -0.0885624 2.12215 0
M  V30 1074 H 99.4916 -0.10191 0.942506 0
M  V30 1075 H 99.1976 -0.960811 3.38321 0
M  V30 1076 H 99.0716 -2.5896 2.74262 0
M  V30 1077 H 101.459 -2.35443 1.77906 0
M  V30 1078 H 101.54 -0.720939 2.4543 0
M  V30 1079 H 101.184 -1.69238 4.78875 0
M  V30 1080 H 101.114 -3.32638 4.08239 0
M  V30 1081 H 103.605 -2.06057 3.16779 0
M  V30 1082 H 103.918 -3.67586 6.7978 0
M  V30 1083 H 102.263 -3.31191 6.11013 0
M  V30 1084 H 105.454 -2.48136 3.96921 0
M  V30 1085 H 105.627 -3.21814 5.62441 0
M  V30 1086 N 99.0327 -1.24633 -0.964593 0
M  V30 1087 C 100.261 -1.11501 -1.74285 0
M  V30 1088 C 100.676 0.332165 -1.85855 0
M  V30 1089 O 100.033 1.22903 -1.34911 0
M  V30 1090 C 100.084 -1.75258 -3.16175 0
M  V30 1091 O 99.8047 -3.14318 -3.05182 0
M  V30 1092 C 101.306 -1.67776 -4.10324 0
M  V30 1093 H 98.5257 -0.389407 -0.546446 0
M  V30 1094 H 101.07 -1.64801 -1.21083 0
M  V30 1095 H 99.2247 -1.25954 -3.66353 0
M  V30 1096 H 99.6387 -3.4551 -3.94618 0
M  V30 1097 H 101.113 -2.17064 -5.0753 0
M  V30 1098 H 101.59 -0.639584 -4.34518 0
M  V30 1099 H 102.196 -2.16522 -3.66058 0
M  V30 1100 N 100.511 1.16574 -1.06058 0
M  V30 1101 C 101.741 1.90675 -0.795397 0
M  V30 1102 C 102.149 1.77547 0.653735 0
M  V30 1103 O 101.492 1.11611 1.45907 0
M  V30 1104 C 101.554 3.42011 -1.10764 0
M  V30 1105 C 101.218 3.78924 -2.55471 0
M  V30 1106 C 102.215 3.81042 -3.53699 0
M  V30 1107 C 99.8998 4.09626 -2.90708 0
M  V30 1108 C 101.894 4.13346 -4.85205 0
M  V30 1109 C 99.5808 4.41597 -4.22416 0
M  V30 1110 C 100.579 4.43436 -5.19474 0
M  V30 1111 O 100.267 4.74649 -6.48817 0
M  V30 1112 H 99.9988 0.611554 -0.288058 0
M  V30 1113 H 102.553 1.48711 -1.41683 0
M  V30 1114 H 100.783 3.84312 -0.429128 0
M  V30 1115 H 102.472 3.97384 -0.827077 0
M  V30 1116 H 103.238 3.57437 -3.27817 0
M  V30 1117 H 99.1168 4.07361 -2.15819 0
M  V30 1118 H 102.661 4.14696 -5.60957 0
M  V30 1119 H 98.5578 4.64667 -4.48056 0
M  V30 1120 H 99.3258 4.9247 -6.5377 0
M  V30 1121 N 101.989 0.842826 1.3317 0
M  V30 1122 C 103.405 0.531128 1.50503 0
M  V30 1123 C 103.605 -0.940734 1.78192 0
M  V30 1124 O 102.661 -1.72436 1.84451 0
M  V30 1125 C 103.974 1.40789 2.65705 0
M  V30 1126 C 105.522 1.40708 2.79589 0
M  V30 1127 C 105.997 2.26878 3.97857 0
M  V30 1128 N 107.488 2.24609 4.05099 0
M  V30 1129 C 108.223 2.88019 4.95815 0
M  V30 1130 N 107.719 3.60496 5.9162 0
M  V30 1131 N 109.512 2.77469 4.88843 0
M  V30 1132 H 101.663 1.79557 1.1346 0
M  V30 1133 H 103.926 0.766267 0.558156 0
M  V30 1134 H 103.632 2.454 2.51936 0
M  V30 1135 H 103.506 1.08677 3.61205 0
M  V30 1136 H 105.893 0.368668 2.92788 0
M  V30 1137 H 105.974 1.76829 1.84838 0
M  V30 1138 H 105.618 3.3078 3.85418 0
M  V30 1139 H 105.548 1.88096 4.91861 0
M  V30 1140 H 108.039 1.71906 3.36536 0
M  V30 1141 H 108.352 4.06076 6.57512 0
M  V30 1142 H 106.697 3.64604 5.91683 0
M  V30 1143 H 109.888 2.20406 4.12963 0
M  V30 1144 H 110.061 3.2717 5.59342 0
M  V30 1145 N 103.467 -1.45747 0.599634 0
M  V30 1146 C 104.377 -2.34262 -0.125888 0
M  V30 1147 C 105.393 -1.50768 -0.868625 0
M  V30 1148 O 106.569 -1.83592 -0.828003 0
M  V30 1149 C 103.634 -3.28252 -1.11587 0
M  V30 1150 C 102.695 -4.27651 -0.375956 0
M  V30 1151 C 101.928 -5.1715 -1.31877 0
M  V30 1152 O 102.151 -5.09916 -2.55621 0
M  V30 1153 O 101.085 -5.96286 -0.820157 0
M  V30 1154 H 104.911 -2.97688 0.601315 0
M  V30 1155 H 102.496 -1.44999 0.359934 0
M  V30 1156 H 104.378 -3.86191 -1.68626 0
M  V30 1157 H 103.053 -2.67401 -1.82424 0
M  V30 1158 H 101.96 -3.7335 0.236698 0
M  V30 1159 H 103.293 -4.91334 0.29177 0
M  V30 1160 N 104.945 -0.338344 -1.53925 0
M  V30 1161 C 105.875 0.51328 -2.27789 0
M  V30 1162 C 106.856 1.107 -1.29149 0
M  V30 1163 O 108.041 1.12937 -1.57984 0
M  V30 1164 C 105.171 1.66697 -3.04679 0
M  V30 1165 C 104.125 1.20183 -4.1078 0
M  V30 1166 C 103.451 2.44363 -4.75595 0
M  V30 1167 C 104.751 0.30605 -5.21403 0
M  V30 1168 H 106.445 -0.102883 -2.99223 0
M  V30 1169 H 103.991 -0.0509219 -1.4391 0
M  V30 1170 H 105.944 2.26915 -3.55088 0
M  V30 1171 H 104.668 2.30995 -2.30887 0
M  V30 1172 H 103.327 0.622499 -3.61276 0
M  V30 1173 H 102.975 3.07057 -3.98403 0
M  V30 1174 H 102.675 2.13925 -5.47275 0
M  V30 1175 H 104.199 3.05317 -5.28786 0
M  V30 1176 H 105.613 0.814929 -5.67478 0
M  V30 1177 H 104.01 0.0937929 -6.00027 0
M  V30 1178 H 105.08 -0.65921 -4.80398 0
M  V30 1179 N 106.423 1.57458 -0.0668435 0
M  V30 1180 C 107.839 1.56947 0.289772 0
M  V30 1181 C 108.039 1.07584 1.70376 0
M  V30 1182 O 107.095 0.739486 2.41429 0
M  V30 1183 C 108.408 3.0052 0.103943 0
M  V30 1184 C 109.956 3.12517 0.173857 0
M  V30 1185 C 110.431 4.57997 0.0163682 0
M  V30 1186 N 111.922 4.63144 0.0721352 0
M  V30 1187 C 112.657 5.73394 -0.0253794 0
M  V30 1188 N 112.153 6.92576 -0.176133 0
M  V30 1189 N 113.946 5.62091 0.0313305 0
M  V30 1190 H 106.097 1.87863 -0.991027 0
M  V30 1191 H 108.36 0.86583 -0.38606 0
M  V30 1192 H 108.066 3.40729 -0.871572 0
M  V30 1193 H 107.94 3.67304 0.858366 0
M  V30 1194 H 110.327 2.72197 1.13985 0
M  V30 1195 H 110.408 2.48381 -0.611586 0
M  V30 1196 H 110.052 4.99005 -0.946374 0
M  V30 1197 H 109.982 5.20158 0.821153 0
M  V30 1198 H 112.473 3.77436 0.187263 0
M  V30 1199 H 112.786 7.72418 -0.242821 0
M  V30 1200 H 111.131 6.94678 -0.211429 0
M  V30 1201 H 114.322 4.67867 0.147773 0
M  V30 1202 H 114.495 6.47982 -0.048121 0
M  V30 1203 N 107.901 -0.206675 1.56239 0
M  V30 1204 C 108.831 -1.25909 1.96645 0
M  V30 1205 C 109.812 -1.48097 0.836734 0
M  V30 1206 O 110.997 -1.6003 1.10019 0
M  V30 1207 C 108.127 -2.6058 2.29599 0
M  V30 1208 C 107.081 -2.53024 3.452 0
M  V30 1209 C 106.407 -3.91861 3.63798 0
M  V30 1210 C 107.707 -2.06524 4.79734 0
M  V30 1211 H 109.401 -0.923369 2.84806 0
M  V30 1212 H 106.947 -0.442735 1.37025 0
M  V30 1213 H 108.9 -3.34375 2.56459 0
M  V30 1214 H 107.624 -2.95869 1.38307 0
M  V30 1215 H 106.283 -1.81684 3.18412 0
M  V30 1216 H 105.931 -4.24483 2.69857 0
M  V30 1217 H 105.631 -3.87683 4.4156 0
M  V30 1218 H 107.155 -4.67296 3.93022 0
M  V30 1219 H 108.569 -2.70072 5.05702 0
M  V30 1220 H 106.966 -2.13374 5.60885 0
M  V30 1221 H 108.036 -1.01802 4.74093 0
M  V30 1222 N 109.379 -1.50304 -0.473955 0
M  V30 1223 C 110.309 -1.71886 -1.58042 0
M  V30 1224 C 111.29 -0.567799 -1.60344 0
M  V30 1225 O 112.475 -0.806623 -1.76656 0
M  V30 1226 C 109.605 -1.81036 -2.96384 0
M  V30 1227 C 108.559 -2.962 -3.08949 0
M  V30 1228 C 107.885 -2.9049 -4.48909 0
M  V30 1229 C 109.185 -4.36752 -2.86434 0
M  V30 1230 H 110.879 -2.64527 -1.40234 0
M  V30 1231 H 108.425 -1.27295 -0.673201 0
M  V30 1232 H 110.378 -1.94719 -3.73714 0
M  V30 1233 H 109.102 -0.850147 -3.15341 0
M  V30 1234 H 107.761 -2.82164 -2.3405 0
M  V30 1235 H 107.409 -1.92321 -4.64781 0
M  V30 1236 H 107.109 -3.67802 -4.58253 0
M  V30 1237 H 108.633 -3.06218 -5.28264 0
M  V30 1238 H 110.047 -4.5133 -3.53517 0
M  V30 1239 H 108.444 -5.15493 -3.07225 0
M  V30 1240 H 109.514 -4.49321 -1.82316 0
M  V30 1241 N 110.857 0.726932 -1.39834 0
M  V30 1242 C 111.804 1.841 -1.39197 0
M  V30 1243 C 112.774 1.642 -0.250502 0
M  V30 1244 O 113.959 1.85494 -0.446846 0
M  V30 1245 C 111.099 3.21697 -1.24919 0
M  V30 1246 C 110.212 3.53247 -2.48678 0
M  V30 1247 C 109.347 4.80289 -2.26928 0
M  V30 1248 C 108.386 5.04707 -3.4632 0
M  V30 1249 N 107.523 6.22956 -3.23836 0
M  V30 1250 H 112.363 1.83979 -2.34427 0
M  V30 1251 H 109.9 0.898876 -1.16442 0
M  V30 1252 H 111.858 4.01137 -1.1465 0
M  V30 1253 H 110.488 3.21076 -0.333153 0
M  V30 1254 H 109.54 2.68447 -2.69519 0
M  V30 1255 H 110.852 3.67205 -3.37582 0
M  V30 1256 H 110.006 5.67725 -2.13947 0
M  V30 1257 H 108.745 4.68519 -1.35431 0
M  V30 1258 H 107.75 4.1573 -3.5979 0
M  V30 1259 H 108.975 5.18357 -4.38729 0
M  V30 1260 H 106.921 6.12459 -2.35011 0
M  V30 1261 H 106.838 6.37539 -4.063 0
M  V30 1262 H 108.106 7.1321 -3.14566 0
M  V30 1263 N 112.336 1.25143 0.95797 0
M  V30 1264 C 113.286 1.01924 2.0395 0
M  V30 1265 C 114.27 -0.0427175 1.60843 0
M  V30 1266 O 115.462 0.17221 1.7616 0
M  V30 1267 C 112.591 0.636373 3.3735 0
M  V30 1268 C 111.677 1.73492 3.8699 0
M  V30 1269 N 112.068 2.96945 4.0946 0
M  V30 1270 C 110.366 1.61467 4.15746 0
M  V30 1271 C 111.067 3.68228 4.50315 0
M  V30 1272 N 110.043 2.95833 4.56053 0
M  V30 1273 H 113.845 1.95653 2.19311 0
M  V30 1274 H 111.359 1.15413 1.14253 0
M  V30 1275 H 113.356 0.451233 4.14451 0
M  V30 1276 H 112.016 -0.293621 3.2337 0
M  V30 1277 H 113.027 3.33025 3.96629 0
M  V30 1278 H 109.704 0.753394 4.10646 0
M  V30 1279 H 111.094 4.74178 4.76031 0
M  V30 1280 N 113.814 -1.1601 1.06675 0
M  V30 1281 C 114.744 -2.22688 0.702307 0
M  V30 1282 C 115.725 -1.67306 -0.307032 0
M  V30 1283 O 116.91 -1.93352 -0.181305 0
M  V30 1284 C 114.04 -3.47178 0.092038 0
M  V30 1285 C 112.994 -4.15477 1.02777 0
M  V30 1286 C 112.32 -5.33963 0.28061 0
M  V30 1287 C 113.62 -4.66019 2.35846 0
M  V30 1288 H 115.314 -2.53429 1.59419 0
M  V30 1289 H 112.86 -1.21813 0.767961 0
M  V30 1290 H 114.813 -4.21037 -0.174814 0
M  V30 1291 H 113.537 -3.15749 -0.834877 0
M  V30 1292 H 112.196 -3.43549 1.27944 0
M  V30 1293 H 111.844 -4.98788 -0.649545 0
M  V30 1294 H 111.544 -5.806 0.904258 0
M  V30 1295 H 113.068 -6.10596 0.021396 0
M  V30 1296 H 114.482 -5.3144 2.15045 0
M  V30 1297 H 112.879 -5.23293 2.93743 0
M  V30 1298 H 113.949 -3.82023 2.98641 0
M  V30 1299 N 115.292 -0.849877 -1.32721 0
M  V30 1300 C 116.239 -0.289033 -2.28983 0
M  V30 1301 C 117.209 0.601324 -1.54833 0
M  V30 1302 O 118.394 0.537253 -1.8308 0
M  V30 1303 C 115.534 0.520623 -3.4115 0
M  V30 1304 C 114.647 -0.394989 -4.3019 0
M  V30 1305 C 113.782 0.426834 -5.29482 0
M  V30 1306 C 112.821 -0.486476 -6.10164 0
M  V30 1307 N 111.958 0.297879 -7.01468 0
M  V30 1308 H 116.798 -1.11519 -2.76347 0
M  V30 1309 H 114.335 -0.56138 -1.35967 0
M  V30 1310 H 116.293 1.00563 -4.04899 0
M  V30 1311 H 114.923 1.31165 -2.9495 0
M  V30 1312 H 113.975 -0.99836 -3.67065 0
M  V30 1313 H 115.287 -1.09612 -4.86607 0
M  V30 1314 H 114.441 0.975205 -5.98811 0
M  V30 1315 H 113.18 1.16136 -4.73671 0
M  V30 1316 H 112.185 -1.04677 -5.39743 0
M  V30 1317 H 113.41 -1.21953 -6.6806 0
M  V30 1318 H 111.356 1.01558 -6.48091 0
M  V30 1319 H 111.273 -0.344318 -7.55216 0
M  V30 1320 H 112.541 0.828131 -7.75089 0
M  V30 1321 N 116.77 1.45427 -0.607355 0
M  V30 1322 C 117.72 2.27612 0.133038 0
M  V30 1323 C 118.704 1.37307 0.838785 0
M  V30 1324 O 119.896 1.61299 0.728813 0
M  V30 1325 C 117.025 3.24173 1.12991 0
M  V30 1326 C 116.111 4.21965 0.425011 0
M  V30 1327 N 116.502 5.02982 -0.533217 0
M  V30 1328 C 114.8 4.40899 0.672593 0
M  V30 1329 C 115.501 5.73931 -0.947518 0
M  V30 1330 N 114.477 5.42819 -0.291321 0
M  V30 1331 H 118.279 2.87649 -0.602935 0
M  V30 1332 H 115.793 1.56576 -0.431006 0
M  V30 1333 H 117.79 3.81783 1.67473 0
M  V30 1334 H 116.45 2.65696 1.86644 0
M  V30 1335 H 117.461 5.09843 -0.90995 0
M  V30 1336 H 114.138 3.93547 1.39382 0
M  V30 1337 H 115.528 6.49037 -1.73782 0
M  V30 1338 N 118.248 0.346503 1.53744 0
M  V30 1339 C 119.158 -0.517293 2.28826 0
M  V30 1340 C 120.174 -1.10935 1.3405 0
M  V30 1341 O 121.35 -1.1244 1.6709 0
M  V30 1342 C 118.415 -1.65098 3.04866 0
M  V30 1343 C 117.476 -1.0884 4.15274 0
M  V30 1344 C 116.709 -2.16806 4.87679 0
M  V30 1345 O 116.932 -3.3758 4.59778 0
M  V30 1346 O 115.866 -1.80934 5.74061 0
M  V30 1347 H 119.692 0.0931396 3.03557 0
M  V30 1348 H 117.277 0.111458 1.48984 0
M  V30 1349 H 119.159 -2.31053 3.5241 0
M  V30 1350 H 117.834 -2.24717 2.32989 0
M  V30 1351 H 116.741 -0.3933 3.72027 0
M  V30 1352 H 118.074 -0.537036 4.89261 0
M  V30 1353 N 119.726 -1.57421 0.075193 0
M  V30 1354 C 120.674 -2.14124 -0.908508 0
M  V30 1355 C 121.668 -1.07898 -1.30592 0
M  V30 1356 O 122.874 -1.26273 -1.28277 0
M  V30 1357 H 119.249 -0.684707 -0.310935 0
M  V30 1358 H 121.22 -2.95634 -0.405374 0
M  V30 1359 C 119.969 -2.72044 -2.16535 0
M  V30 1360 H 119.292 -3.53456 -1.86839 0
M  V30 1361 H 120.732 -3.15311 -2.83469 0
M  V30 1362 C 119.191 -1.66968 -2.92615 0
M  V30 1363 O 119.721 -1.0967 -3.86439 0
M  V30 1364 N 117.927 -1.37923 -2.55784 0
M  V30 1365 H 117.474 -1.84706 -1.79559 0
M  V30 1366 H 117.432 -0.67852 -3.06991 0
M  V30 1367 N 121.204 0.198386 -1.56346 0
M  V30 1368 C 122.45 0.920648 -1.80698 0
M  V30 1369 C 122.783 1.83045 -0.648697 0
M  V30 1370 O 122.058 1.91308 0.350925 0
M  V30 1371 C 122.341 1.73971 -3.15287 0
M  V30 1372 C 122.194 0.85485 -4.41602 0
M  V30 1373 C 123.513 2.71296 -3.46535 0
M  V30 1374 H 120.632 0.333261 -0.657348 0
M  V30 1375 H 123.274 0.188198 -1.89066 0
M  V30 1376 H 121.424 2.36416 -3.08285 0
M  V30 1377 H 123.096 0.245362 -4.60647 0
M  V30 1378 H 121.339 0.161398 -4.335 0
M  V30 1379 H 122.01 1.46286 -5.32264 0
M  V30 1380 H 124.486 2.18983 -3.53816 0
M  V30 1381 H 123.362 3.2569 -4.41834 0
M  V30 1382 H 123.623 3.5018 -2.69864 0
M  V30 1383 N 122.682 1.50554 0.465978 0
M  V30 1384 C 123.931 1.61038 1.21448 0
M  V30 1385 C 124.244 0.31865 1.92987 0
M  V30 1386 O 125.45 0.302469 2.6981 0
M  V30 1387 C 123.906 2.84283 2.20706 0
M  V30 1388 C 123.514 4.20352 1.54946 0
M  V30 1389 C 125.258 3.04115 2.96166 0
M  V30 1390 C 123.165 5.34778 2.5252 0
M  V30 1391 H 122.095 0.599718 0.457005 0
M  V30 1392 H 124.746 1.7699 0.484424 0
M  V30 1393 H 123.128 2.61901 2.97025 0
M  V30 1394 H 124.302 4.53008 0.843811 0
M  V30 1395 H 122.617 4.06167 0.917475 0
M  V30 1396 H 125.214 3.86774 3.69202 0
M  V30 1397 H 125.557 2.16045 3.55852 0
M  V30 1398 H 126.09 3.26702 2.26959 0
M  V30 1399 H 122.829 6.25018 1.97566 0
M  V30 1400 H 122.349 5.06534 3.21222 0
M  V30 1401 H 124.028 5.65561 3.14245 0
M  V30 1402 N 124.16 -0.719506 1.40217 0
M  V30 1403 C 125.408 -1.47641 1.3801 0
M  V30 1404 C 125.729 -1.94992 -0.018145 0
M  V30 1405 O 124.999 -1.70073 -0.972207 0
M  V30 1406 H 123.579 -0.547744 0.507923 0
M  V30 1407 H 126.241 -0.853187 1.75233 0
M  V30 1408 H 125.337 -2.35112 2.05253 0
M  V30 1409 N 125.638 -1.25649 -0.95132 0
M  V30 1410 C 126.568 -1.08808 -2.06599 0
M  V30 1411 C 127.549 0.00382547 -1.701 0
M  V30 1412 O 128.734 -0.166325 -1.93486 0
M  V30 1413 C 125.864 -0.709542 -3.39975 0
M  V30 1414 C 124.818 -1.75206 -3.90496 0
M  V30 1415 C 124.144 -1.22811 -5.20405 0
M  V30 1416 C 125.444 -3.15153 -4.16504 0
M  V30 1417 H 127.138 -2.02048 -2.20946 0
M  V30 1418 H 124.684 -0.972835 -1.06169 0
M  V30 1419 H 126.637 -0.578649 -4.17408 0
M  V30 1420 H 125.361 0.258556 -3.25575 0
M  V30 1421 H 124.02 -1.87145 -3.15234 0
M  V30 1422 H 123.668 -0.250145 -5.02378 0
M  V30 1423 H 123.368 -1.92492 -5.55176 0
M  V30 1424 H 124.892 -1.10968 -6.00432 0
M  V30 1425 H 126.306 -3.06349 -4.84586 0
M  V30 1426 H 124.703 -3.82333 -4.62538 0
M  V30 1427 H 125.773 -3.61966 -3.22658 0
M  V30 1428 N 127.117 1.15442 -1.07289 0
M  V30 1429 C 128.047 2.22312 -0.714107 0
M  V30 1430 C 129.028 1.67467 0.298155 0
M  V30 1431 O 130.213 1.93445 0.171048 0
M  V30 1432 C 127.343 3.47124 -0.110448 0
M  V30 1433 C 126.297 4.14926 -1.04979 0
M  V30 1434 C 125.623 5.33807 -0.308924 0
M  V30 1435 C 126.923 4.64762 -2.38314 0
M  V30 1436 H 128.617 2.5258 -1.6076 0
M  V30 1437 H 126.163 1.21404 -0.77441 0
M  V30 1438 H 128.116 4.21124 0.152482 0
M  V30 1439 H 126.84 3.16187 0.81812 0
M  V30 1440 H 125.499 3.42866 -1.29764 0
M  V30 1441 H 125.147 4.99126 0.623084 0
M  V30 1442 H 124.847 5.80113 -0.935036 0
M  V30 1443 H 126.371 6.10576 -0.0537771 0
M  V30 1444 H 127.785 5.30292 -2.1786 0
M  V30 1445 H 126.182 5.21728 -2.96514 0
M  V30 1446 H 127.252 3.80434 -3.00663 0
M  V30 1447 N 128.595 0.856903 1.32268 0
M  V30 1448 C 129.872 0.382583 1.91822 0
M  V30 1449 C 130.252 -1.13407 1.78051 0
M  V30 1450 O 129.6 -1.95673 1.18001 0
M  V30 1451 C 129.81 0.849446 3.38505 0
M  V30 1452 C 131.158 0.867936 4.15634 0
M  V30 1453 O 132.182 0.794232 3.47232 0
M  V30 1454 O 131.041 0.972286 5.37781 0
M  V30 1455 H 128.135 0.112014 0.819379 0
M  V30 1456 H 130.681 0.943952 1.41024 0
M  V30 1457 H 129.453 1.89267 3.42482 0
M  V30 1458 H 129.076 0.265652 3.96712 0
M  V30 1459 N 130.073 -1.45103 0.615059 0
M  V30 1460 C 131.319 -2.02483 0.113347 0
M  V30 1461 C 131.652 -1.48146 -1.25564 0
M  V30 1462 O 130.927 -0.659104 -1.82992 0
M  V30 1463 C 131.21 -3.60005 0.0825278 0
M  V30 1464 C 131.063 -4.2466 1.48271 0
M  V30 1465 C 132.382 -4.35972 -0.601401 0
M  V30 1466 H 129.501 -0.735764 0.0426632 0
M  V30 1467 H 132.143 -1.72868 0.788461 0
M  V30 1468 H 130.293 -3.85367 -0.492378 0
M  V30 1469 H 131.965 -4.10458 2.10527 0
M  V30 1470 H 130.208 -3.82772 2.04127 0
M  V30 1471 H 130.879 -5.336 1.41332 0
M  V30 1472 H 133.355 -4.15947 -0.112666 0
M  V30 1473 H 132.231 -5.45697 -0.592097 0
M  V30 1474 H 132.492 -4.09391 -1.66887 0
M  V30 1475 N 131.551 -0.354651 -1.53558 0
M  V30 1476 C 132.798 0.238443 -2.01091 0
M  V30 1477 C 133.126 1.49663 -1.24222 0
M  V30 1478 O 132.381 1.93049 -0.321003 0
M  V30 1479 C 132.68 0.587121 -3.52545 0
M  V30 1480 C 132.346 -0.575472 -4.47213 0
M  V30 1481 C 131.008 -0.894497 -4.72813 0
M  V30 1482 C 133.36 -1.35489 -5.03281 0
M  V30 1483 C 130.688 -1.99511 -5.51736 0
M  V30 1484 C 133.04 -2.44583 -5.83405 0
M  V30 1485 C 131.704 -2.77033 -6.07296 0
M  V30 1486 H 130.974 0.0872526 -0.735845 0
M  V30 1487 H 133.621 -0.484859 -1.8526 0
M  V30 1488 H 131.926 1.39129 -3.66265 0
M  V30 1489 H 133.623 1.05809 -3.86789 0
M  V30 1490 H 130.213 -0.316774 -4.27428 0
M  V30 1491 H 134.397 -1.12167 -4.83459 0
M  V30 1492 H 129.653 -2.25063 -5.68469 0
M  V30 1493 H 133.827 -3.05401 -6.25862 0
M  V30 1494 H 131.454 -3.6244 -6.68237 0
M  V30 1495 N 133.029 1.57378 -0.0835403 0
M  V30 1496 C 134.257 1.98263 0.59157 0
M  V30 1497 C 134.672 0.962302 1.62435 0
M  V30 1498 O 134.029 -0.049581 1.82433 0
M  V30 1499 C 134.08 3.39214 1.24965 0
M  V30 1500 O 133.801 4.37339 0.258186 0
M  V30 1501 C 135.302 3.95038 2.01147 0
M  V30 1502 H 132.522 0.651773 0.159477 0
M  V30 1503 H 135.066 2.03878 -0.159415 0
M  V30 1504 H 133.221 3.34649 1.95164 0
M  V30 1505 H 133.635 5.19371 0.731734 0
M  V30 1506 H 135.109 4.95848 2.42567 0
M  V30 1507 H 135.586 3.32222 2.87272 0
M  V30 1508 H 136.192 4.0304 1.35789 0
M  V30 1509 N 134.507 -0.190092 1.56449 0
M  V30 1510 C 135.918 -0.754312 1.70784 0
M  V30 1511 C 136.269 -1.83631 0.690951 0
M  V30 1512 O 135.394 -2.15868 -0.151604 0
M  V30 1513 C 135.989 -1.37503 3.09642 0
M  V30 1514 C 134.548 -1.88628 3.25725 0
M  V30 1515 C 133.695 -0.758098 2.66736 0
M  V30 1516 H 136.646 0.0350524 1.58661 0
M  V30 1517 H 136.667 -2.2445 3.0725 0
M  V30 1518 H 136.179 -0.587302 3.83631 0
M  V30 1519 H 134.28 -2.70103 2.56661 0
M  V30 1520 H 134.393 -2.04462 4.3328 0
M  V30 1521 H 132.757 -1.17369 2.26046 0
M  V30 1522 H 133.54 0.0174705 3.43296 0
M  V30 1523 N 135.985 -1.50799 -0.457987 0
M  V30 1524 C 136.948 -1.7005 -1.53674 0
M  V30 1525 C 137.948 -0.570881 -1.50325 0
M  V30 1526 O 139.138 -0.838126 -1.52712 0
M  V30 1527 C 136.27 -1.73788 -2.93276 0
M  V30 1528 H 137.463 -2.66306 -1.37917 0
M  V30 1529 H 135.016 -1.40477 -0.685271 0
M  V30 1530 H 135.751 -0.792717 -3.14462 0
M  V30 1531 H 135.536 -2.55864 -2.97113 0
M  V30 1532 H 137.026 -1.90591 -3.71571 0
M  V30 1533 N 137.463 0.71206 -1.40597 0
M  V30 1534 C 138.691 1.50111 -1.42388 0
M  V30 1535 C 139.106 1.88784 -0.0245395 0
M  V30 1536 O 138.463 1.55681 0.952351 0
M  V30 1537 C 138.514 2.7742 -2.31776 0
M  V30 1538 O 138.235 2.40382 -3.66262 0
M  V30 1539 C 139.736 3.7129 -2.42196 0
M  V30 1540 H 136.956 0.46314 -0.485533 0
M  V30 1541 H 139.5 0.878068 -1.8469 0
M  V30 1542 H 137.655 3.36001 -1.92827 0
M  V30 1543 H 138.069 3.22324 -4.13772 0
M  V30 1544 H 139.543 4.57448 -3.08943 0
M  V30 1545 H 140.02 4.14641 -1.44809 0
M  V30 1546 H 140.626 3.18619 -2.81712 0
M  V30 1547 N 138.941 1.26152 0.944643 0
M  V30 1548 C 140.166 1.14363 1.7302 0
M  V30 1549 C 140.591 -0.29772 1.85729 0
M  V30 1550 O 139.949 -1.2157 1.34501 0
M  V30 1551 C 139.997 1.81378 3.11664 0
M  V30 1552 O 139.101 1.10022 3.97453 0
M  V30 1553 H 138.442 0.398694 0.53098 0
M  V30 1554 H 140.972 1.66906 1.18337 0
M  V30 1555 H 140.982 1.88064 3.62072 0
M  V30 1556 H 139.657 2.86237 3.0173 0
M  V30 1557 H 138.234 1.11287 3.55907 0
M  V30 1558 N 140.419 -1.14872 1.07899 0
M  V30 1559 C 141.668 -1.85135 0.800499 0
M  V30 1560 C 141.981 -1.83547 -0.676014 0
M  V30 1561 O 143.187 -2.49548 -1.06948 0
M  V30 1562 C 141.643 -3.3231 1.38197 0
M  V30 1563 C 141.251 -3.42329 2.8899 0
M  V30 1564 C 142.995 -4.0772 1.18174 0
M  V30 1565 C 140.902 -4.83684 3.403 0
M  V30 1566 H 139.832 -0.693563 0.29578 0
M  V30 1567 H 142.483 -1.29532 1.29976 0
M  V30 1568 H 140.865 -3.87618 0.810431 0
M  V30 1569 H 142.039 -2.97097 3.52236 0
M  V30 1570 H 140.354 -2.80369 3.07867 0
M  V30 1571 H 142.951 -5.12049 1.5398 0
M  V30 1572 H 143.294 -4.16124 0.12117 0
M  V30 1573 H 143.827 -3.58696 1.71994 0
M  V30 1574 H 140.566 -4.80465 4.45907 0
M  V30 1575 H 140.086 -5.29474 2.81811 0
M  V30 1576 H 141.765 -5.52558 3.36584 0
M  V30 1577 N 141.898 -0.863906 -1.31812 0
M  V30 1578 C 142.808 -0.318461 -2.32428 0
M  V30 1579 C 143.824 0.568496 -1.64451 0
M  V30 1580 O 145 0.46666 -1.95919 0
M  V30 1581 C 142.065 0.476355 -3.43412 0
M  V30 1582 C 141.126 -0.43784 -4.27061 0
M  V30 1583 C 140.359 0.319138 -5.32745 0
M  V30 1584 O 140.582 1.54799 -5.48993 0
M  V30 1585 O 139.516 -0.319861 -6.01049 0
M  V30 1586 H 143.342 -1.15229 -2.80991 0
M  V30 1587 H 140.927 -0.627103 -1.35602 0
M  V30 1588 H 142.809 0.927156 -4.11074 0
M  V30 1589 H 141.484 1.28683 -2.97022 0
M  V30 1590 H 140.391 -0.937013 -3.62175 0
M  V30 1591 H 141.724 -1.21375 -4.77 0
M  V30 1592 N 143.376 1.44774 -0.622745 0
M  V30 1593 C 144.653 1.95522 -0.0551974 0
M  V30 1594 C 145.033 1.5649 1.41683 0
M  V30 1595 O 144.381 0.834848 2.12703 0
M  V30 1596 C 144.591 3.4796 -0.269242 0
M  V30 1597 C 145.939 4.24306 -0.158014 0
M  V30 1598 O 146.963 3.55637 -0.200162 0
M  V30 1599 O 145.822 5.46471 -0.0558693 0
M  V30 1600 H 142.916 0.826556 0.0271015 0
M  V30 1601 H 145.462 1.54866 -0.693864 0
M  V30 1602 H 144.234 3.6939 -1.29099 0
M  V30 1603 H 143.857 3.95543 0.403966 0
M  V30 1604 N 144.854 0.36279 1.53368 0
M  V30 1605 C 146.101 -0.227776 2.01215 0
M  V30 1606 C 146.429 -1.49003 1.25014 0
M  V30 1607 O 145.684 -1.92876 0.331236 0
M  V30 1608 C 145.983 -0.568417 3.52851 0
M  V30 1609 C 145.649 0.59918 4.46901 0
M  V30 1610 C 144.311 0.919559 4.72332 0
M  V30 1611 C 146.663 1.38156 5.02556 0
M  V30 1612 C 143.991 2.02434 5.5067 0
M  V30 1613 C 146.343 2.47674 5.821 0
M  V30 1614 C 145.007 2.8025 6.05819 0
M  V30 1615 H 144.277 -0.083349 0.736297 0
M  V30 1616 H 146.924 0.494677 1.85001 0
M  V30 1617 H 145.229 -1.37185 3.66998 0
M  V30 1618 H 146.926 -1.03756 3.87344 0
M  V30 1619 H 143.516 0.339437 4.27254 0
M  V30 1620 H 147.7 1.14729 4.82857 0
M  V30 1621 H 142.956 2.28075 5.67267 0
M  V30 1622 H 147.13 3.08716 6.24234 0
M  V30 1623 H 144.757 3.65979 6.66306 0
M  V30 1624 N 146.332 -1.57332 0.0918853 0
M  V30 1625 C 147.557 -1.98995 -0.584442 0
M  V30 1626 C 147.982 -0.970528 -1.61128 0
M  V30 1627 O 147.34 0.0613904 -1.81196 0
M  V30 1628 C 147.388 -3.39636 -1.21161 0
M  V30 1629 O 146.492 -3.40447 -2.32744 0
M  V30 1630 H 145.833 -0.647165 -0.148572 0
M  V30 1631 H 148.363 -2.03873 0.172347 0
M  V30 1632 H 148.373 -3.7726 -1.55367 0
M  V30 1633 H 147.048 -4.13356 -0.459313 0
M  V30 1634 H 145.625 -3.14614 -2.0018 0
M  V30 1635 N 147.81 0.181792 -1.56548 0
M  V30 1636 C 148.72 1.24538 -1.98815 0
M  V30 1637 C 149.736 1.49045 -0.897861 0
M  V30 1638 O 150.912 1.61399 -1.20467 0
M  V30 1639 C 147.977 2.56683 -2.33055 0
M  V30 1640 C 147.038 2.40131 -3.55859 0
M  V30 1641 C 146.271 3.65975 -3.88456 0
M  V30 1642 O 146.494 4.70711 -3.22161 0
M  V30 1643 O 145.428 3.6071 -4.81842 0
M  V30 1644 H 149.254 0.916647 -2.89536 0
M  V30 1645 H 146.839 0.387842 -1.44278 0
M  V30 1646 H 148.721 3.34655 -2.56094 0
M  V30 1647 H 147.396 2.89157 -1.45498 0
M  V30 1648 H 146.303 1.60226 -3.38051 0
M  V30 1649 H 147.636 2.12585 -4.43924 0
M  V30 1650 N 149.288 1.51039 0.449983 0
M  V30 1651 C 150.534 1.63322 1.20223 0
M  V30 1652 C 150.867 0.34241 1.91158 0
M  V30 1653 O 150.142 -0.657344 1.83055 0
M  V30 1654 C 150.425 2.82801 2.22925 0
M  V30 1655 C 150.278 4.21823 1.56157 0
M  V30 1656 C 151.597 2.97807 3.24035 0
M  V30 1657 H 148.716 0.594407 0.435718 0
M  V30 1658 H 151.358 1.83489 0.493136 0
M  V30 1659 H 149.508 2.65738 2.834 0
M  V30 1660 H 151.18 4.50526 0.991162 0
M  V30 1661 H 149.423 4.25105 0.864172 0
M  V30 1662 H 150.094 5.01391 2.30891 0
M  V30 1663 H 152.57 3.13497 2.73603 0
M  V30 1664 H 151.446 3.82992 3.93202 0
M  V30 1665 H 151.707 2.09328 3.89402 0
M  V30 1666 N 150.766 -0.704594 1.40972 0
M  V30 1667 C 151.996 -1.49138 1.42974 0
M  V30 1668 C 152.404 -1.89175 0.0308406 0
M  V30 1669 O 151.747 -1.56734 -0.958138 0
M  V30 1670 C 151.809 -2.79016 2.26694 0
M  V30 1671 C 151.473 -2.61236 3.74973 0
M  V30 1672 C 152.47 -2.27773 4.67349 0
M  V30 1673 C 150.155 -2.77158 4.18914 0
M  V30 1674 C 152.149 -2.10457 6.01653 0
M  V30 1675 C 149.836 -2.59459 5.53285 0
M  V30 1676 C 150.834 -2.26158 6.4447 0
M  V30 1677 O 150.522 -2.08605 7.76363 0
M  V30 1678 H 150.254 -0.466443 0.489292 0
M  V30 1679 H 152.808 -0.8758 1.85793 0
M  V30 1680 H 151.038 -3.42947 1.78673 0
M  V30 1681 H 152.727 -3.40782 2.20504 0
M  V30 1682 H 153.493 -2.15095 4.34694 0
M  V30 1683 H 149.372 -3.02064 3.48251 0
M  V30 1684 H 152.916 -1.84387 6.72791 0
M  V30 1685 H 148.813 -2.71725 5.85522 0
M  V30 1686 H 149.581 -2.23439 7.87412 0
M  V30 1687 N 152.244 -1.26651 -0.937939 0
M  V30 1688 C 153.174 -1.10993 -2.05433 0
M  V30 1689 C 154.155 -0.0142161 -1.70094 0
M  V30 1690 O 155.34 -0.186837 -1.93299 0
M  V30 1691 C 152.47 -0.745561 -3.39203 0
M  V30 1692 C 151.424 -1.79337 -3.88616 0
M  V30 1693 C 150.75 -1.28324 -5.19073 0
M  V30 1694 C 152.05 -3.19553 -4.13138 0
M  V30 1695 H 153.744 -2.0438 -2.1879 0
M  V30 1696 H 151.29 -0.984041 -1.05131 0
M  V30 1697 H 153.243 -0.622888 -4.16771 0
M  V30 1698 H 151.967 0.22401 -3.25831 0
M  V30 1699 H 150.626 -1.90477 -3.13231 0
M  V30 1700 H 150.274 -0.303414 -5.02084 0
M  V30 1701 H 149.974 -1.98369 -5.53103 0
M  V30 1702 H 151.498 -1.1733 -5.99221 0
M  V30 1703 H 152.912 -3.11471 -4.81309 0
M  V30 1704 H 151.309 -3.87218 -4.58457 0
M  V30 1705 H 152.379 -3.65368 -3.18801 0
M  V30 1706 N 153.722 1.14298 -1.08507 0
M  V30 1707 C 154.968 1.85633 -0.816581 0
M  V30 1708 C 155.301 1.82784 0.656021 0
M  V30 1709 O 154.576 1.25926 1.48233 0
M  V30 1710 C 154.859 3.34223 -1.34041 0
M  V30 1711 C 154.712 3.45639 -2.87843 0
M  V30 1712 C 156.031 4.29356 -0.9665 0
M  V30 1713 H 153.15 0.67402 -0.298104 0
M  V30 1714 H 155.792 1.34214 -1.34487 0
M  V30 1715 H 153.942 3.78144 -0.89104 0
M  V30 1716 H 155.614 3.10498 -3.41158 0
M  V30 1717 H 153.857 2.86817 -3.25451 0
M  V30 1718 H 154.528 4.50089 -3.19569 0
M  V30 1719 H 157.004 3.93457 -1.35391 0
M  V30 1720 H 155.88 5.3178 -1.3602 0
M  V30 1721 H 156.141 4.41919 0.126362 0
M  V30 1722 N 155.201 0.870884 1.31352 0
M  V30 1723 C 156.429 0.49677 2.00848 0
M  V30 1724 C 156.844 -0.910998 1.65367 0
M  V30 1725 O 156.201 -1.59696 0.883374 0
M  V30 1726 C 156.252 0.645308 3.55694 0
M  V30 1727 O 155.973 1.99764 3.89905 0
M  V30 1728 C 157.474 0.272326 4.42463 0
M  V30 1729 H 154.694 0.193462 0.642506 0
M  V30 1730 H 157.238 1.1723 1.67563 0
M  V30 1731 H 155.393 0.0173176 3.87396 0
M  V30 1732 H 155.807 2.00607 4.84621 0
M  V30 1733 H 157.281 0.427208 5.50344 0
M  V30 1734 H 157.758 -0.788587 4.32062 0
M  V30 1735 H 158.364 0.876054 4.1618 0
M  V30 1736 N 156.679 -1.44442 0.630414 0
M  V30 1737 C 157.907 -2.06414 0.141671 0
M  V30 1738 C 158.322 -1.47105 -1.18345 0
M  V30 1739 O 157.679 -0.593662 -1.72574 0
M  V30 1740 C 157.73 -3.61494 0.0199784 0
M  V30 1741 O 157.451 -4.18594 1.29269 0
M  V30 1742 C 158.952 -4.40499 -0.497544 0
M  V30 1743 H 156.172 -0.666292 0.0793452 0
M  V30 1744 H 158.716 -1.85323 0.864614 0
M  V30 1745 H 156.871 -3.8185 -0.653402 0
M  V30 1746 H 157.285 -5.12026 1.13707 0
M  V30 1747 H 158.759 -5.49433 -0.531708 0
M  V30 1748 H 159.236 -4.11895 -1.52445 0
M  V30 1749 H 159.842 -4.25061 0.142562 0
M  V30 1750 N 158.157 -0.370918 -1.53173 0
M  V30 1751 C 159.087 0.464847 -2.28826 0
M  V30 1752 C 160.068 1.07936 -1.31468 0
M  V30 1753 O 161.253 1.0956 -1.60344 0
M  V30 1754 C 158.383 1.60196 -3.08147 0
M  V30 1755 C 157.337 1.11443 -4.13237 0
M  V30 1756 C 156.663 2.3422 -4.80672 0
M  V30 1757 C 157.963 0.195384 -5.21934 0
M  V30 1758 H 159.657 -0.166329 -2.98938 0
M  V30 1759 H 157.203 -0.0814359 -1.4377 0
M  V30 1760 H 159.156 2.19332 -3.59822 0
M  V30 1761 H 157.88 2.26045 -2.35735 0
M  V30 1762 H 156.539 0.545727 -3.62515 0
M  V30 1763 H 156.187 2.98537 -4.04827 0
M  V30 1764 H 155.887 2.02269 -5.51689 0
M  V30 1765 H 157.411 2.94032 -5.35143 0
M  V30 1766 H 158.825 0.694375 -5.69079 0
M  V30 1767 H 157.222 -0.0335027 -6.00091 0
M  V30 1768 H 158.292 -0.760961 -4.78892 0
M  V30 1769 N 159.635 1.57281 -0.100228 0
M  V30 1770 C 160.568 2.09976 0.893612 0
M  V30 1771 C 161.546 1.01155 1.27304 0
M  V30 1772 O 162.73 1.28687 1.37739 0
M  V30 1773 C 159.857 2.58098 2.19324 0
M  V30 1774 C 158.903 3.78626 1.96328 0
M  V30 1775 S 159.736 5.21959 1.19662 0
M  V30 1776 C 160.892 5.73435 2.50844 0
M  V30 1777 H 161.125 2.93946 0.44534 0
M  V30 1778 H 158.658 1.53985 0.113167 0
M  V30 1779 H 160.616 2.8648 2.94005 0
M  V30 1780 H 159.277 1.74344 2.61272 0
M  V30 1781 H 158.47 4.10382 2.92579 0
M  V30 1782 H 158.072 3.50763 1.29775 0
M  V30 1783 H 160.364 5.82015 3.46792 0
M  V30 1784 H 161.307 6.7185 2.23659 0
M  V30 1785 H 161.715 5.01395 2.59352 0
M  V30 1786 N 161.113 -0.173488 1.56642 0
M  V30 1787 C 162.361 -0.888706 1.81512 0
M  V30 1788 C 162.682 -1.82875 0.676872 0
M  V30 1789 O 161.952 -1.93536 -0.303414 0
M  V30 1790 H 160.532 -0.331164 0.669582 0
M  V30 1791 H 163.194 -0.173823 1.94123 0
M  V30 1792 H 162.29 -1.46691 2.75478 0
M  V30 1793 N 162.591 -1.51276 -0.441967 0
M  V30 1794 C 163.554 -1.7167 -1.51862 0
M  V30 1795 C 164.554 -0.586793 -1.49711 0
M  V30 1796 O 165.744 -0.854276 -1.51815 0
M  V30 1797 C 162.876 -1.76889 -2.91416 0
M  V30 1798 H 164.069 -2.67754 -1.35084 0
M  V30 1799 H 161.622 -1.41196 -0.670333 0
M  V30 1800 H 162.357 -0.826026 -3.13604 0
M  V30 1801 H 162.142 -2.59001 -2.94382 0
M  V30 1802 H 163.632 -1.94522 -3.69528 0
M  V30 1803 N 164.069 0.697108 -1.41344 0
M  V30 1804 C 165.346 1.45154 -1.31109 0
M  V30 1805 C 165.726 2.11009 0.0620449 0
M  V30 1806 O 165.074 2.01571 1.07618 0
M  V30 1807 C 165.284 2.47223 -2.46337 0
M  V30 1808 C 166.632 3.1252 -2.87431 0
M  V30 1809 O 167.656 2.57547 -2.46065 0
M  V30 1810 O 166.515 4.12083 -3.58957 0
M  V30 1811 H 163.609 0.646365 -0.515889 0
M  V30 1812 H 166.155 0.727716 -1.53305 0
M  V30 1813 H 164.927 1.97204 -3.37974 0
M  V30 1814 H 164.55 3.27116 -2.2601 0
M  V30 1815 N 165.547 1.27147 0.931209 0
M  V30 1816 C 166.477 1.12081 2.04842 0
M  V30 1817 C 167.458 0.0232364 1.70084 0
M  V30 1818 O 168.643 0.197085 1.93197 0
M  V30 1819 C 165.773 0.76354 3.38803 0
M  V30 1820 C 164.727 1.81396 3.87659 0
M  V30 1821 C 164.053 1.31075 5.18385 0
M  V30 1822 C 165.353 3.21739 4.11438 0
M  V30 1823 H 167.047 2.05537 2.17703 0
M  V30 1824 H 164.593 0.989603 1.04608 0
M  V30 1825 H 166.546 0.644982 4.16435 0
M  V30 1826 H 165.27 -0.206727 3.25945 0
M  V30 1827 H 163.929 1.92136 3.12217 0
M  V30 1828 H 163.577 0.330037 5.01916 0
M  V30 1829 H 163.277 2.013 5.52044 0
M  V30 1830 H 164.801 1.20506 5.98591 0
M  V30 1831 H 166.215 3.14019 4.79651 0
M  V30 1832 H 164.612 3.89644 4.56397 0
M  V30 1833 H 165.682 3.67054 3.16859 0
M  V30 1834 N 167.025 -1.13721 1.09112 0
M  V30 1835 C 167.973 -2.21103 0.722219 0
M  V30 1836 C 168.967 -1.67147 -0.275374 0
M  V30 1837 O 170.173 -1.79477 -0.137176 0
M  V30 1838 H 166.548 -0.720445 0.215553 0
M  V30 1839 H 168.519 -2.49483 1.63709 0
M  V30 1840 C 167.268 -3.47352 0.15543 0
M  V30 1841 H 166.591 -3.89206 0.914246 0
M  V30 1842 H 168.031 -4.2395 -0.0647967 0
M  V30 1843 C 166.49 -3.1814 -1.10852 0
M  V30 1844 O 167.02 -3.36604 -2.19227 0
M  V30 1845 N 165.226 -2.72045 -1.02176 0
M  V30 1846 H 164.773 -2.57221 -0.139764 0
M  V30 1847 H 164.731 -2.52875 -1.8682 0
M  V30 1848 N 168.503 -0.877838 -1.30888 0
M  V30 1849 C 169.451 -0.328662 -2.30266 0
M  V30 1850 C 170.445 0.560496 -1.59859 0
M  V30 1851 O 171.651 0.445722 -1.74394 0
M  V30 1852 H 168.026 -0.0876142 -0.746879 0
M  V30 1853 H 169.997 -1.18061 -2.74051 0
M  V30 1854 C 168.746 0.448071 -3.44801 0
M  V30 1855 H 168.069 -0.226859 -3.99156 0
M  V30 1856 H 169.509 0.797541 -4.16432 0
M  V30 1857 C 167.968 1.64239 -2.94155 0
M  V30 1858 O 168.498 2.74175 -2.93583 0
M  V30 1859 N 166.704 1.47716 -2.50256 0
M  V30 1860 H 166.251 0.582821 -2.5092 0
M  V30 1861 H 166.209 2.27765 -2.16727 0
M  V30 1862 N 169.982 1.44106 -0.638065 0
M  V30 1863 C 171.231 2.01194 -0.142744 0
M  V30 1864 C 171.544 1.50835 1.24532 0
M  V30 1865 O 172.75 2.00096 1.83504 0
M  V30 1866 C 171.206 3.59319 -0.20442 0
M  V30 1867 C 170.814 4.18674 -1.59423 0
M  V30 1868 C 172.558 4.23854 0.234079 0
M  V30 1869 C 170.465 5.69045 -1.61065 0
M  V30 1870 H 169.395 0.752367 -0.0495998 0
M  V30 1871 H 172.046 1.65246 -0.797881 0
M  V30 1872 H 170.428 3.92598 0.517946 0
M  V30 1873 H 171.602 3.96921 -2.34074 0
M  V30 1874 H 169.917 3.66453 -1.97741 0
M  V30 1875 H 172.514 5.34155 0.241443 0
M  V30 1876 H 172.857 3.96688 1.2627 0
M  V30 1877 H 173.39 3.95403 -0.436025 0
M  V30 1878 H 170.129 6.00956 -2.61787 0
M  V30 1879 H 169.649 5.929 -0.90718 0
M  V30 1880 H 171.328 6.32809 -1.34766 0
M  V30 1881 N 171.46 0.379036 1.52974 0
M  V30 1882 C 172.706 -0.206727 2.01744 0
M  V30 1883 C 173.039 -1.47314 1.26539 0
M  V30 1884 O 172.314 -1.91084 0.362903 0
M  V30 1885 C 172.597 -0.485066 3.56818 0
M  V30 1886 C 172.45 0.795919 4.42702 0
M  V30 1887 C 173.769 -1.28003 4.21074 0
M  V30 1888 H 170.888 -0.0736607 0.73331 0
M  V30 1889 H 173.53 0.506581 1.83122 0
M  V30 1890 H 171.68 -1.09272 3.72816 0
M  V30 1891 H 173.352 1.43307 4.38476 0
M  V30 1892 H 171.595 1.41344 4.10127 0
M  V30 1893 H 172.266 0.555947 5.49193 0
M  V30 1894 H 174.742 -0.765867 4.08991 0
M  V30 1895 H 173.618 -1.44352 5.29579 0
M  V30 1896 H 173.879 -2.29236 3.78026 0
M  V30 1897 N 172.938 -1.57226 0.108567 0
M  V30 1898 C 173.885 -2.14756 -0.845481 0
M  V30 1899 C 174.855 -1.06971 -1.27068 0
M  V30 1900 O 176.04 -1.34827 -1.35005 0
M  V30 1901 C 173.18 -2.74298 -2.09415 0
M  V30 1902 C 172.293 -3.96358 -1.71826 0
M  V30 1903 C 171.428 -4.44021 -2.9158 0
M  V30 1904 C 170.467 -5.58637 -2.50181 0
M  V30 1905 N 169.604 -6.01091 -3.62814 0
M  V30 1906 H 174.444 -2.95961 -0.348035 0
M  V30 1907 H 171.981 -1.46226 -0.160106 0
M  V30 1908 H 173.939 -3.06945 -2.82561 0
M  V30 1909 H 172.569 -1.95801 -2.56636 0
M  V30 1910 H 171.621 -3.69939 -0.885947 0
M  V30 1911 H 172.933 -4.79504 -1.37394 0
M  V30 1912 H 172.087 -4.78522 -3.72963 0
M  V30 1913 H 170.826 -3.59803 -3.29231 0
M  V30 1914 H 169.831 -5.23751 -1.67228 0
M  V30 1915 H 171.056 -6.44613 -2.13659 0
M  V30 1916 H 169.002 -5.19817 -4.00158 0
M  V30 1917 H 168.919 -6.79066 -3.32273 0
M  V30 1918 H 170.187 -6.40227 -4.44668 0
M  V30 1919 N 174.416 0.165178 -1.56732 0
M  V30 1920 C 175.656 0.887231 -1.8414 0
M  V30 1921 C 176.02 1.79159 -0.690353 0
M  V30 1922 O 177.221 2.55172 -0.845032 0
M  V30 1923 C 175.492 1.65674 -3.16681 0
M  V30 1924 S 177.051 2.42671 -3.6559 0
M  V30 1925 H 173.869 0.297042 -0.645978 0
M  V30 1926 H 176.471 0.148439 -1.94936 0
M  V30 1927 H 175.175 0.983507 -3.98441 0
M  V30 1928 H 174.706 2.43679 -3.08843 0
M  V30 1929 H 176.721 3.67499 -3.33406 0
M  V30 1930 N 175.894 1.51508 0.433938 0
M  V30 1931 C 176.826 1.69266 1.54537 0
M  V30 1932 C 177.839 0.573276 1.52373 0
M  V30 1933 O 179.028 0.847698 1.57087 0
M  V30 1934 C 176.128 1.69524 2.93453 0
M  V30 1935 C 175.301 2.98101 3.20085 0
M  V30 1936 C 174.36 2.90502 4.38742 0
M  V30 1937 O 173.386 3.64442 4.3723 0
M  V30 1938 N 174.588 2.06586 5.42496 0
M  V30 1939 H 177.353 2.65145 1.39708 0
M  V30 1940 H 174.914 1.49437 0.622922 0
M  V30 1941 H 176.906 1.62004 3.70859 0
M  V30 1942 H 175.476 0.812245 3.01863 0
M  V30 1943 H 174.696 3.19464 2.30947 0
M  V30 1944 H 175.984 3.83207 3.34708 0
M  V30 1945 H 175.382 1.45896 5.46563 0
M  V30 1946 H 173.939 2.04943 6.18742 0
M  V30 1947 N 177.372 -0.689602 1.41712 0
M  V30 1948 C 178.335 -1.78521 1.43746 0
M  V30 1949 C 179.335 -1.57436 0.327191 0
M  V30 1950 O 180.525 -1.64 0.587348 0
M  V30 1951 C 177.657 -3.16971 1.25467 0
M  V30 1952 H 178.85 -1.78108 2.41283 0
M  V30 1953 H 176.403 -0.89781 1.27942 0
M  V30 1954 H 177.138 -3.23019 0.287948 0
M  V30 1955 H 176.923 -3.33678 2.05917 0
M  V30 1956 H 178.413 -3.96935 1.2974 0
M  V30 1957 N 178.85 -1.27639 -0.924453 0
M  V30 1958 C 179.78 -1.13166 -2.04244 0
M  V30 1959 C 180.761 -0.032256 -1.70069 0
M  V30 1960 O 181.946 -0.207328 -1.9309 0
M  V30 1961 C 179.076 -0.781496 -3.38393 0
M  V30 1962 C 178.03 -1.83449 -3.86692 0
M  V30 1963 C 177.356 -1.33822 -5.17683 0
M  V30 1964 C 178.656 -3.23917 -4.09726 0
M  V30 1965 H 180.35 -2.06689 -2.1661 0
M  V30 1966 H 177.896 -0.995136 -1.04082 0
M  V30 1967 H 179.849 -0.667057 -4.16087 0
M  V30 1968 H 178.573 0.189439 -3.2605 0
M  V30 1969 H 177.232 -1.93789 -3.11193 0
M  V30 1970 H 176.88 -0.35665 -5.01734 0
M  V30 1971 H 176.58 -2.04224 -5.50968 0
M  V30 1972 H 178.104 -1.23679 -5.97943 0
M  V30 1973 H 179.518 -3.16559 -4.77978 0
M  V30 1974 H 177.915 -3.92059 -4.54324 0
M  V30 1975 H 178.985 -3.68729 -3.14908 0
M  V30 1976 N 180.328 1.1314 -1.09713 0
M  V30 1977 C 181.553 1.88862 -0.857081 0
M  V30 1978 C 181.978 1.78729 0.586304 0
M  V30 1979 O 181.336 1.13692 1.41222 0
M  V30 1980 C 181.384 3.36325 -1.30069 0
M  V30 1981 O 180.488 4.09815 -0.461007 0
M  V30 1982 H 179.829 0.587108 -0.310162 0
M  V30 1983 H 182.359 1.43129 -1.46203 0
M  V30 1984 H 182.369 3.87157 -1.28738 0
M  V30 1985 H 181.044 3.43017 -2.35185 0
M  V30 1986 H 179.621 3.68986 -0.538888 0
M  V30 1987 N 181.806 0.884767 1.30421 0
M  V30 1988 C 183.083 0.423185 1.90967 0
M  V30 1989 C 183.463 -1.09605 1.80416 0
M  V30 1990 O 182.811 -1.93126 1.22125 0
M  V30 1991 C 183.021 0.921056 3.36627 0
M  V30 1992 C 184.369 0.955903 4.137 0
M  V30 1993 O 185.393 0.867706 3.4547 0
M  V30 1994 O 184.252 1.08614 5.35598 0
M  V30 1995 H 181.346 0.129369 0.816819 0
M  V30 1996 H 183.892 0.973653 1.3899 0
M  V30 1997 H 182.664 1.96489 3.3839 0
M  V30 1998 H 182.287 0.349741 3.96059 0
M  V30 1999 N 183.284 -1.43765 0.645699 0
M  V30 2000 C 184.194 -2.34544 -0.0512957 0
M  V30 2001 C 185.21 -1.53455 -0.82022 0
M  V30 2002 O 186.386 -1.86133 -0.769176 0
M  V30 2003 C 183.451 -3.31636 -1.01087 0
M  V30 2004 C 182.512 -4.2863 -0.239712 0
M  V30 2005 C 181.745 -5.21084 -1.15358 0
M  V30 2006 O 181.968 -5.1779 -2.39269 0
M  V30 2007 O 180.902 -5.98593 -0.630038 0
M  V30 2008 H 184.728 -2.95624 0.695718 0
M  V30 2009 H 182.313 -1.43781 0.405882 0
M  V30 2010 H 184.195 -3.9136 -1.56254 0
M  V30 2011 H 182.87 -2.73069 -1.73824 0
M  V30 2012 H 181.777 -3.72408 0.355356 0
M  V30 2013 H 183.11 -4.90157 0.447936 0
M  V30 2014 N 184.763 -0.387143 -1.52771 0
M  V30 2015 C 185.713 0.465942 -2.23188 0
M  V30 2016 C 186.697 1.03138 -1.23496 0
M  V30 2017 O 187.889 0.957845 -1.48843 0
M  V30 2018 C 185.018 1.59384 -3.04059 0
M  V30 2019 C 184.104 1.04024 -4.11144 0
M  V30 2020 N 184.495 0.211416 -5.05358 0
M  V30 2021 C 182.793 1.31295 -4.26237 0
M  V30 2022 C 183.494 -0.0941698 -5.81624 0
M  V30 2023 N 182.47 0.509207 -5.4121 0
M  V30 2024 H 186.272 -0.173856 -2.93385 0
M  V30 2025 H 183.786 -0.19633 -1.61209 0
M  V30 2026 H 185.783 2.21738 -3.53041 0
M  V30 2027 H 184.443 2.23648 -2.35397 0
M  V30 2028 H 185.454 -0.151151 -5.17679 0
M  V30 2029 H 182.131 1.95679 -3.68803 0
M  V30 2030 H 183.521 -0.765572 -6.67524 0
M  V30 2031 N 186.241 1.57166 -0.116904 0
M  V30 2032 C 187.487 1.95412 0.542405 0
M  V30 2033 C 187.82 1.00019 1.66463 0
M  V30 2034 O 187.095 0.0370346 1.94465 0
M  V30 2035 C 187.378 3.43615 1.07708 0
M  V30 2036 C 187.231 4.49781 -0.0415868 0
M  V30 2037 C 188.55 3.93616 1.96861 0
M  V30 2038 H 185.669 0.710543 0.195696 0
M  V30 2039 H 188.311 1.89027 -0.192038 0
M  V30 2040 H 186.461 3.49187 1.70296 0
M  V30 2041 H 188.133 4.56308 -0.676793 0
M  V30 2042 H 186.376 4.28033 -0.705019 0
M  V30 2043 H 187.047 5.50733 0.373717 0
M  V30 2044 H 189.523 3.90335 1.44146 0
M  V30 2045 H 188.399 4.97838 2.3119 0
M  V30 2046 H 188.66 3.34188 2.89432 0
M  V30 2047 N 187.719 -0.156864 1.56817 0
M  V30 2048 C 188.651 -1.21883 1.94106 0
M  V30 2049 C 189.664 -1.3971 0.835754 0
M  V30 2050 O 190.853 -1.39457 1.11418 0
M  V30 2051 C 187.953 -2.58527 2.19127 0
M  V30 2052 C 187.126 -2.61809 3.50393 0
M  V30 2053 C 186.185 -3.7992 3.64071 0
M  V30 2054 O 185.211 -3.65249 4.36557 0
M  V30 2055 N 186.413 -4.96973 2.99997 0
M  V30 2056 H 189.178 -0.901974 2.85805 0
M  V30 2057 H 186.739 -0.346513 1.58148 0
M  V30 2058 H 188.731 -3.36034 2.25529 0
M  V30 2059 H 187.301 -2.82545 1.33742 0
M  V30 2060 H 186.521 -1.7029 3.5552 0
M  V30 2061 H 187.809 -2.61024 4.36742 0
M  V30 2062 H 187.207 -5.11794 2.41004 0
M  V30 2063 H 185.764 -5.7229 3.11974 0
M  V30 2064 N 189.197 -1.51736 -0.425897 0
M  V30 2065 C 190.444 -1.6497 -1.17436 0
M  V30 2066 C 190.772 -0.371445 -1.9092 0
M  V30 2067 O 190.027 0.644963 -1.84767 0
M  V30 2068 C 190.326 -2.81103 -2.20717 0
M  V30 2069 C 189.992 -4.19954 -1.64162 0
M  V30 2070 C 188.654 -4.57725 -1.48462 0
M  V30 2071 C 191.006 -5.06552 -1.22696 0
M  V30 2072 C 188.334 -5.79789 -0.897873 0
M  V30 2073 C 190.686 -6.29205 -0.654464 0
M  V30 2074 C 189.35 -6.6574 -0.484456 0
M  V30 2075 H 188.62 -0.603668 -0.429727 0
M  V30 2076 H 191.267 -1.85798 -0.463829 0
M  V30 2077 H 189.572 -2.54542 -2.97852 0
M  V30 2078 H 191.269 -2.8854 -2.78471 0
M  V30 2079 H 187.859 -3.90181 -1.77361 0
M  V30 2080 H 192.043 -4.77968 -1.33642 0
M  V30 2081 H 187.299 -6.06733 -0.75402 0
M  V30 2082 H 191.473 -6.95643 -0.324694 0
M  V30 2083 H 189.1 -7.60195 -0.0276833 0
M  V30 2084 N 190.675 0.682077 -1.42076 0
M  V30 2085 C 191.605 1.80796 -1.47767 0
M  V30 2086 C 192.586 1.6677 -0.334954 0
M  V30 2087 O 193.771 1.863 -0.548264 0
M  V30 2088 C 190.901 3.19038 -1.37229 0
M  V30 2089 C 189.855 3.47789 -2.49453 0
M  V30 2090 C 189.181 4.8553 -2.23975 0
M  V30 2091 C 190.481 3.45411 -3.91776 0
M  V30 2092 H 192.175 1.7629 -2.41997 0
M  V30 2093 H 189.721 0.846721 -1.16476 0
M  V30 2094 H 191.674 3.97528 -1.39821 0
M  V30 2095 H 190.398 3.24204 -0.394907 0
M  V30 2096 H 189.057 2.71657 -2.46166 0
M  V30 2097 H 188.705 4.87337 -1.24547 0
M  V30 2098 H 188.405 5.0573 -2.99184 0
M  V30 2099 H 189.929 5.66312 -2.28304 0
M  V30 2100 H 191.343 4.13882 -3.96705 0
M  V30 2101 H 189.74 3.77145 -4.66778 0
M  V30 2102 H 190.81 2.44122 -4.18966 0
M  V30 2103 N 192.153 1.28127 0.917671 0
M  V30 2104 C 193.399 1.15223 1.66888 0
M  V30 2105 C 193.732 -0.299293 1.9188 0
M  V30 2106 O 193.007 -1.21805 1.51637 0
M  V30 2107 C 193.29 1.94706 3.02922 0
M  V30 2108 C 193.143 3.47898 2.85109 0
M  V30 2109 C 194.462 1.75939 4.03402 0
M  V30 2110 H 191.581 0.419946 0.605652 0
M  V30 2111 H 194.223 1.57398 1.06423 0
M  V30 2112 H 192.373 1.58864 3.54534 0
M  V30 2113 H 194.045 3.93624 2.40537 0
M  V30 2114 H 192.288 3.7373 2.20246 0
M  V30 2115 H 192.959 3.98765 3.81694 0
M  V30 2116 H 195.435 2.07209 3.60837 0
M  V30 2117 H 194.311 2.33931 4.96556 0
M  V30 2118 H 194.572 0.709877 4.36364 0
M  V30 2119 N 193.631 -1.12557 1.10312 0
M  V30 2120 C 194.861 -1.87592 0.865617 0
M  V30 2121 C 195.269 -1.79851 -0.587389 0
M  V30 2122 O 194.612 -1.16949 -1.41664 0
M  V30 2123 C 194.674 -3.37665 1.23381 0
M  V30 2124 C 194.338 -3.69181 2.69359 0
M  V30 2125 C 195.335 -3.67652 3.67597 0
M  V30 2126 C 193.02 -3.98555 3.05711 0
M  V30 2127 C 195.014 -3.95053 5.00212 0
M  V30 2128 C 192.701 -4.25616 4.38514 0
M  V30 2129 C 193.699 -4.23851 5.35574 0
M  V30 2130 O 193.387 -4.50242 6.65986 0
M  V30 2131 H 193.119 -0.600442 0.310557 0
M  V30 2132 H 195.673 -1.4335 1.47105 0
M  V30 2133 H 193.903 -3.82454 0.571467 0
M  V30 2134 H 195.592 -3.94041 0.973994 0
M  V30 2135 H 196.358 -3.45024 3.40857 0
M  V30 2136 H 192.237 -3.99071 2.30789 0
M  V30 2137 H 195.781 -3.93591 5.75962 0
M  V30 2138 H 191.678 -4.47718 4.64994 0
M  V30 2139 H 192.446 -4.67867 6.71597 0
M  V30 2140 N 195.109 -0.891671 -1.2995 0
M  V30 2141 C 196.041 -0.320695 -2.26945 0
M  V30 2142 C 197.054 0.528497 -1.53983 0
M  V30 2143 O 198.243 0.346959 -1.75096 0
M  V30 2144 C 195.343 0.562066 -3.34207 0
M  V30 2145 C 194.516 -0.259576 -4.36629 0
M  V30 2146 C 193.575 0.554739 -5.23268 0
M  V30 2147 O 192.601 -0.0249311 -5.69195 0
M  V30 2148 N 193.803 1.8625 -5.4981 0
M  V30 2149 H 196.568 -1.15432 -2.76578 0
M  V30 2150 H 194.129 -0.755336 -1.432 0
M  V30 2151 H 196.121 1.11304 -3.89093 0
M  V30 2152 H 194.691 1.29637 -2.84452 0
M  V30 2153 H 193.911 -0.991986 -3.81514 0
M  V30 2154 H 195.199 -0.822564 -5.02107 0
M  V30 2155 H 194.597 2.35628 -5.14292 0
M  V30 2156 H 193.154 2.36078 -6.07545 0
M  V30 2157 N 196.587 1.43421 -0.653314 0
M  V30 2158 C 197.517 2.33487 0.0246656 0
M  V30 2159 C 198.498 1.49475 0.811863 0
M  V30 2160 O 199.683 1.78139 0.773322 0
M  V30 2161 C 196.813 3.32841 0.99166 0
M  V30 2162 C 195.767 4.26842 0.314568 0
M  V30 2163 C 195.093 5.16236 1.39302 0
M  V30 2164 C 196.393 5.16243 -0.793095 0
M  V30 2165 H 198.087 2.90427 -0.727481 0
M  V30 2166 H 195.633 1.39649 -0.351287 0
M  V30 2167 H 197.586 3.94747 1.47487 0
M  V30 2168 H 196.31 2.74158 1.77497 0
M  V30 2169 H 194.969 3.663 -0.148199 0
M  V30 2170 H 194.617 4.53891 2.16776 0
M  V30 2171 H 194.317 5.79948 0.945223 0
M  V30 2172 H 195.841 5.81015 1.87759 0
M  V30 2173 H 197.255 5.71958 -0.392039 0
M  V30 2174 H 195.652 5.88676 -1.16536 0
M  V30 2175 H 196.722 4.55927 -1.65103 0
M  V30 2176 N 198.065 0.39524 1.52563 0
M  V30 2177 C 198.995 -0.428384 2.29537 0
M  V30 2178 C 199.976 -1.05831 1.33169 0
M  V30 2179 O 201.161 -1.06995 1.62067 0
M  V30 2180 C 198.291 -1.55274 3.10656 0
M  V30 2181 C 197.245 -1.04855 4.14957 0
M  V30 2182 C 196.571 -2.26543 4.84337 0
M  V30 2183 C 197.871 -0.112324 5.22179 0
M  V30 2184 H 199.565 0.213867 2.98635 0
M  V30 2185 H 197.111 0.104298 1.43622 0
M  V30 2186 H 199.064 -2.1358 3.63265 0
M  V30 2187 H 197.788 -2.22266 2.39302 0
M  V30 2188 H 196.447 -0.487985 3.63338 0
M  V30 2189 H 196.095 -2.92059 4.09525 0
M  V30 2190 H 195.795 -1.93466 5.54837 0
M  V30 2191 H 197.319 -2.85481 5.39753 0
M  V30 2192 H 198.733 -0.603752 5.70112 0
M  V30 2193 H 197.13 0.128968 5.99961 0
M  V30 2194 H 198.2 0.837052 4.77621 0
M  V30 2195 N 199.544 -1.57102 0.125237 0
M  V30 2196 C 200.96 -1.57915 -0.231322 0
M  V30 2197 C 201.16 -1.13833 -1.66266 0
M  V30 2198 O 200.216 -0.828581 -2.38518 0
M  V30 2199 C 201.529 -3.00699 0.00766489 0
M  V30 2200 C 203.077 -3.12947 -0.0577483 0
M  V30 2201 C 203.552 -4.57742 0.153626 0
M  V30 2202 N 205.043 -4.63092 0.0998073 0
M  V30 2203 C 205.778 -5.72905 0.238174 0
M  V30 2204 N 205.274 -6.91445 0.433057 0
M  V30 2205 N 207.067 -5.6182 0.177308 0
M  V30 2206 H 199.218 -1.84055 1.06007 0
M  V30 2207 H 201.481 -0.850905 0.417929 0
M  V30 2208 H 201.187 -3.3726 0.997431 0
M  V30 2209 H 201.061 -3.70236 -0.721452 0
M  V30 2210 H 203.448 -2.7624 -1.03804 0
M  V30 2211 H 203.529 -2.4594 0.70335 0
M  V30 2212 H 203.173 -4.95149 1.13092 0
M  V30 2213 H 203.103 -5.22848 -0.627534 0
M  V30 2214 H 205.594 -3.77871 -0.047051 0
M  V30 2215 H 205.907 -7.70985 0.529332 0
M  V30 2216 H 204.252 -6.93415 0.469109 0
M  V30 2217 H 207.443 -4.68093 0.0259748 0
M  V30 2218 H 207.616 -6.47357 0.288582 0
M  V30 2219 N 201.022 0.148545 -1.56898 0
M  V30 2220 C 202.27 0.859717 -1.82902 0
M  V30 2221 C 202.591 1.81775 -0.70588 0
M  V30 2222 O 201.861 1.93994 0.272586 0
M  V30 2223 H 200.441 0.320469 -0.674766 0
M  V30 2224 H 203.103 0.142918 -1.94375 0
M  V30 2225 H 202.199 1.4229 -2.77777 0
M  V30 2226 N 202.5 1.5196 0.417844 0
M  V30 2227 C 203.43 1.77634 1.51554 0
M  V30 2228 C 204.411 0.626918 1.58126 0
M  V30 2229 O 205.596 0.871632 1.7354 0
M  V30 2230 C 202.726 1.91911 2.8946 0
M  V30 2231 C 201.68 3.07463 2.97743 0
M  V30 2232 C 201.006 3.06951 4.37819 0
M  V30 2233 C 202.306 4.47082 2.70027 0
M  V30 2234 H 204 2.6955 1.3032 0
M  V30 2235 H 201.546 1.29706 0.625492 0
M  V30 2236 H 203.499 2.08455 3.6623 0
M  V30 2237 H 202.223 0.966598 3.11969 0
M  V30 2238 H 200.882 2.90656 2.23416 0
M  V30 2239 H 200.53 2.09438 4.57323 0
M  V30 2240 H 200.23 3.84556 4.44286 0
M  V30 2241 H 201.754 3.25613 5.16535 0
M  V30 2242 H 203.168 4.6414 3.36522 0
M  V30 2243 H 201.565 5.2654 2.87881 0
M  V30 2244 H 202.635 4.55777 1.65514 0
M  V30 2245 N 203.978 -0.674533 1.42435 0
M  V30 2246 C 204.925 -1.78807 1.45934 0
M  V30 2247 C 205.895 -1.63157 0.311271 0
M  V30 2248 O 207.08 -1.83707 0.515383 0
M  V30 2249 C 204.22 -3.16839 1.36773 0
M  V30 2250 C 203.333 -3.43774 2.61617 0
M  V30 2251 C 202.468 -4.71536 2.44597 0
M  V30 2252 C 201.507 -4.91505 3.64814 0
M  V30 2253 N 200.644 -6.10508 3.46734 0
M  V30 2254 H 205.484 -1.75151 2.41093 0
M  V30 2255 H 203.021 -0.85504 1.19697 0
M  V30 2256 H 204.979 -3.96606 1.29459 0
M  V30 2257 H 203.609 -3.19619 0.452089 0
M  V30 2258 H 202.661 -2.58259 2.79297 0
M  V30 2259 H 203.973 -3.54423 3.50978 0
M  V30 2260 H 203.127 -5.59393 2.3487 0
M  V30 2261 H 201.866 -4.6317 1.52726 0
M  V30 2262 H 200.871 -4.0209 3.74972 0
M  V30 2263 H 202.096 -5.01716 4.57665 0
M  V30 2264 H 200.042 -6.03315 2.5758 0
M  V30 2265 H 199.959 -6.2202 4.29682 0
M  V30 2266 H 201.227 -7.01044 3.40819 0
M  V30 2267 N 205.456 -1.28612 -0.910864 0
M  V30 2268 C 206.686 -1.1862 -1.69153 0
M  V30 2269 C 207.094 0.257324 -1.87442 0
M  V30 2270 O 206.437 1.18543 -1.40332 0
M  V30 2271 C 206.499 -1.81606 -3.10257 0
M  V30 2272 C 206.163 -3.30864 -3.15243 0
M  V30 2273 C 207.16 -4.27256 -2.96223 0
M  V30 2274 C 204.845 -3.71871 -3.37664 0
M  V30 2275 C 206.839 -5.62631 -2.99541 0
M  V30 2276 C 204.526 -5.07371 -3.40614 0
M  V30 2277 C 205.524 -6.02561 -3.21573 0
M  V30 2278 O 205.212 -7.35589 -3.2429 0
M  V30 2279 H 204.944 -0.412633 -0.535453 0
M  V30 2280 H 207.498 -1.70306 -1.14827 0
M  V30 2281 H 205.728 -1.24418 -3.66138 0
M  V30 2282 H 207.417 -1.66092 -3.70362 0
M  V30 2283 H 208.183 -3.9691 -2.78725 0
M  V30 2284 H 204.062 -2.98241 -3.5153 0
M  V30 2285 H 207.606 -6.36907 -2.84597 0
M  V30 2286 H 203.503 -5.37366 -3.57642 0
M  V30 2287 H 204.271 -7.44252 -3.40633 0
M  V30 2288 N 206.934 1.1197 -1.10907 0
M  V30 2289 C 208.183 1.82947 -0.849302 0
M  V30 2290 C 208.496 1.85275 0.627112 0
M  V30 2291 O 209.702 2.52296 1.00295 0
M  V30 2292 C 208.158 3.28529 -1.46959 0
M  V30 2293 C 207.766 3.34546 -2.97965 0
M  V30 2294 C 209.51 4.04443 -1.28942 0
M  V30 2295 C 207.417 4.74491 -3.53004 0
M  V30 2296 H 206.347 0.685477 -0.314065 0
M  V30 2297 H 208.998 1.2604 -1.33365 0
M  V30 2298 H 207.38 3.85333 -0.912917 0
M  V30 2299 H 208.554 2.87654 -3.59989 0
M  V30 2300 H 206.869 2.72108 -3.15192 0
M  V30 2301 H 209.466 5.07787 -1.67502 0
M  V30 2302 H 209.809 4.15656 -0.231456 0
M  V30 2303 H 210.342 3.5401 -1.81443 0
M  V30 2304 H 207.081 4.68474 -4.58489 0
M  V30 2305 H 206.601 5.21816 -2.9575 0
M  V30 2306 H 208.28 5.4344 -3.51115 0
M  V30 2307 N 208.412 0.89855 1.29475 0
M  V30 2308 C 209.362 0.346767 2.25348 0
M  V30 2309 C 210.346 -0.532509 1.51833 0
M  V30 2310 O 211.538 -0.374714 1.72988 0
M  V30 2311 C 208.667 -0.425681 3.40651 0
M  V30 2312 C 207.753 0.46845 4.21505 0
M  V30 2313 N 208.144 1.57514 4.80648 0
M  V30 2314 C 206.442 0.26603 4.45206 0
M  V30 2315 C 207.143 2.12889 5.41344 0
M  V30 2316 N 206.119 1.42208 5.24669 0
M  V30 2317 H 209.921 1.19219 2.68634 0
M  V30 2318 H 207.435 0.749473 1.44072 0
M  V30 2319 H 209.432 -0.837716 4.08397 0
M  V30 2320 H 208.092 -1.26838 2.98902 0
M  V30 2321 H 209.103 1.95789 4.79465 0
M  V30 2322 H 205.78 -0.538394 4.14014 0
M  V30 2323 H 207.17 3.05901 5.98226 0
M  V30 2324 N 209.89 -1.43072 0.660911 0
M  V30 2325 C 211.115 -2.06584 0.183805 0
M  V30 2326 C 211.54 -1.49257 -1.14472 0
M  V30 2327 O 210.898 -0.605528 -1.70889 0
M  V30 2328 C 210.946 -3.60418 0.114434 0
M  V30 2329 O 210.05 -4.01981 -0.921137 0
M  V30 2330 H 209.391 -0.656669 0.0983994 0
M  V30 2331 H 211.921 -1.83447 0.906006 0
M  V30 2332 H 211.931 -4.07946 -0.0663394 0
M  V30 2333 H 210.606 -4.01519 1.08422 0
M  V30 2334 H 209.183 -3.66029 -0.71253 0
M  V30 2335 N 211.368 -0.403325 -1.52352 0
M  V30 2336 C 212.331 0.413051 -2.25447 0
M  V30 2337 C 213.331 0.978513 -1.276 0
M  V30 2338 O 214.521 0.858305 -1.51587 0
M  V30 2339 C 211.653 1.58087 -3.02029 0
M  V30 2340 H 212.846 -0.227094 -2.99039 0
M  V30 2341 H 210.399 -0.155722 -1.55522 0
M  V30 2342 H 211.134 2.25804 -2.32772 0
M  V30 2343 H 210.919 1.18195 -3.73861 0
M  V30 2344 H 212.409 2.1585 -3.57489 0
M  V30 2345 N 212.846 1.57033 -0.133567 0
M  V30 2346 C 214.094 1.953 0.519848 0
M  V30 2347 C 214.415 1.01866 1.66278 0
M  V30 2348 O 213.685 0.0776513 1.95746 0
M  V30 2349 H 212.265 0.721091 0.195032 0
M  V30 2350 H 214.927 1.93809 -0.205921 0
M  V30 2351 H 214.023 2.98695 0.904854 0
M  V30 2352 N 214.325 -0.140222 1.56975 0
M  V30 2353 C 215.574 -0.850152 1.82908 0
M  V30 2354 C 215.887 -1.82028 0.715892 0
M  V30 2355 O 217.093 -2.57485 0.861016 0
M  V30 2356 C 215.549 -1.5625 3.24213 0
M  V30 2357 C 215.157 -0.63443 4.43485 0
M  V30 2358 C 216.901 -2.25881 3.59413 0
M  V30 2359 C 214.808 -1.34879 5.75814 0
M  V30 2360 H 213.738 -0.321221 0.682153 0
M  V30 2361 H 216.389 -0.102874 1.83211 0
M  V30 2362 H 214.771 -2.35565 3.18316 0
M  V30 2363 H 215.945 0.12398 4.60633 0
M  V30 2364 H 214.26 -0.0461836 4.16374 0
M  V30 2365 H 216.857 -2.79978 4.5554 0
M  V30 2366 H 217.2 -3.02693 2.85802 0
M  V30 2367 H 217.733 -1.53477 3.67001 0
M  V30 2368 H 214.472 -0.622385 6.52539 0
M  V30 2369 H 213.992 -2.07974 5.6259 0
M  V30 2370 H 215.671 -1.88784 6.18845 0
M  V30 2371 N 215.803 -1.52179 -0.40978 0
M  V30 2372 C 217.052 -1.65434 -1.15388 0
M  V30 2373 C 217.365 -0.390056 -1.91671 0
M  V30 2374 O 218.571 -0.402399 -2.68501 0
M  V30 2375 C 217.027 -2.92279 -2.10003 0
M  V30 2376 C 216.635 -4.25813 -1.39239 0
M  V30 2377 C 218.379 -3.14897 -2.84675 0
M  V30 2378 C 216.286 -5.43782 -2.32498 0
M  V30 2379 H 215.216 -0.616267 -0.434432 0
M  V30 2380 H 217.867 -1.78666 -0.418401 0
M  V30 2381 H 216.249 -2.72744 -2.871 0
M  V30 2382 H 217.423 -4.55828 -0.675099 0
M  V30 2383 H 215.738 -4.09292 -0.766097 0
M  V30 2384 H 218.335 -4.0021 -3.54593 0
M  V30 2385 H 218.678 -2.29103 -3.47588 0
M  V30 2386 H 219.211 -3.34901 -2.14677 0
M  V30 2387 H 215.95 -6.3192 -1.74233 0
M  V30 2388 H 215.47 -5.18106 -3.02201 0
M  V30 2389 H 217.149 -5.76834 -2.93038 0
M  V30 2390 N 217.281 0.66697 -1.42791 0
M  V30 2391 C 218.231 1.77313 -1.43332 0
M  V30 2392 C 219.215 1.5801 -0.303586 0
M  V30 2393 O 220.407 1.68356 -0.546385 0
M  V30 2394 C 217.536 3.15822 -1.34578 0
M  V30 2395 C 216.622 3.40721 -2.52528 0
M  V30 2396 N 217.013 3.36162 -3.77927 0
M  V30 2397 C 215.311 3.71387 -2.46956 0
M  V30 2398 C 216.012 3.60762 -4.56318 0
M  V30 2399 N 214.988 3.81908 -3.86843 0
M  V30 2400 H 218.79 1.72193 -2.38174 0
M  V30 2401 H 216.304 0.868114 -1.3725 0
M  V30 2402 H 218.301 3.951 -1.33048 0
M  V30 2403 H 216.961 3.22133 -0.407453 0
M  V30 2404 H 217.972 3.15885 -4.10411 0
M  V30 2405 H 214.649 3.84897 -1.61743 0
M  V30 2406 H 216.039 3.63132 -5.65318 0
M  V30 2407 N 218.759 1.29093 0.90403 0
M  V30 2408 C 220.175 1.07011 1.1841 0
M  V30 2409 C 220.375 -0.181358 2.00682 0
M  V30 2410 O 219.431 -0.880331 2.36657 0
M  V30 2411 C 220.744 2.32311 1.90924 0
M  V30 2412 C 222.292 2.37587 2.03768 0
M  V30 2413 C 222.767 3.62679 2.79693 0
M  V30 2414 N 224.258 3.63376 2.87249 0
M  V30 2415 C 224.993 4.56848 3.46522 0
M  V30 2416 N 224.489 5.60648 4.06996 0
M  V30 2417 N 226.282 4.44426 3.44154 0
M  V30 2418 H 218.433 2.09412 0.354993 0
M  V30 2419 H 220.696 0.922181 0.219742 0
M  V30 2420 H 220.402 3.23536 1.37905 0
M  V30 2421 H 220.276 2.39483 2.91424 0
M  V30 2422 H 222.663 1.46853 2.55965 0
M  V30 2423 H 222.744 2.34403 1.02415 0
M  V30 2424 H 222.388 4.53762 2.28173 0
M  V30 2425 H 222.318 3.63119 3.81381 0
M  V30 2426 H 224.809 2.88321 2.44293 0
M  V30 2427 H 225.122 6.28101 4.50232 0
M  V30 2428 H 223.467 5.64463 4.05471 0
M  V30 2429 H 226.658 3.62529 2.96126 0
M  V30 2430 H 226.831 5.17457 3.90054 0
M  V30 2431 N 220.237 -1.11381 1.11499 0
M  V30 2432 C 221.514 -1.7955 0.775965 0
M  V30 2433 C 221.894 -1.97859 -0.73588 0
M  V30 2434 O 221.242 -1.56376 -1.66609 0
M  V30 2435 C 221.452 -3.13196 1.53977 0
M  V30 2436 C 222.8 -3.88227 1.71944 0
M  V30 2437 O 223.824 -3.22887 1.50407 0
M  V30 2438 O 222.683 -5.05477 2.07738 0
M  V30 2439 H 219.777 -0.777728 0.28119 0
M  V30 2440 H 222.323 -1.18118 1.21845 0
M  V30 2441 H 221.095 -2.95229 2.56818 0
M  V30 2442 H 220.718 -3.82342 1.09088 0
M  V30 2443 N 221.715 -0.905404 -1.28997 0
M  V30 2444 C 222.645 -0.404212 -2.29975 0
M  V30 2445 C 223.626 0.523784 -1.61835 0
M  V30 2446 O 224.811 0.433298 -1.89304 0
M  V30 2447 C 221.941 0.364042 -3.45387 0
M  V30 2448 C 220.895 -0.474048 -4.25367 0
M  V30 2449 C 220.221 0.422045 -5.33032 0
M  V30 2450 C 221.521 -1.72696 -4.92923 0
M  V30 2451 H 223.215 -1.24807 -2.72146 0
M  V30 2452 H 220.761 -0.601585 -1.30832 0
M  V30 2453 H 222.714 0.725447 -4.15109 0
M  V30 2454 H 221.438 1.24174 -3.02074 0
M  V30 2455 H 220.097 -0.81786 -3.57361 0
M  V30 2456 H 219.745 1.29804 -4.85963 0
M  V30 2457 H 219.445 -0.135057 -5.87445 0
M  V30 2458 H 220.969 0.779517 -6.05604 0
M  V30 2459 H 222.383 -1.43495 -5.55051 0
M  V30 2460 H 220.78 -2.22582 -5.57295 0
M  V30 2461 H 221.85 -2.45964 -4.17887 0
M  V30 2462 N 223.193 1.4272 -0.668489 0
M  V30 2463 C 224.14 2.30796 0.0137489 0
M  V30 2464 C 225.11 1.4561 0.799177 0
M  V30 2465 O 226.295 1.74453 0.772702 0
M  V30 2466 C 223.435 3.31377 0.963507 0
M  V30 2467 C 222.548 4.31655 0.172569 0
M  V30 2468 C 221.683 5.19312 1.1175 0
M  V30 2469 C 220.722 6.11274 0.317886 0
M  V30 2470 N 219.859 6.91504 1.2152 0
M  V30 2471 H 224.699 2.88585 -0.743161 0
M  V30 2472 H 222.236 1.42154 -0.378226 0
M  V30 2473 H 224.194 3.88214 1.52792 0
M  V30 2474 H 222.824 2.75202 1.68712 0
M  V30 2475 H 221.876 3.76988 -0.508374 0
M  V30 2476 H 223.188 4.96779 -0.448527 0
M  V30 2477 H 222.342 5.80851 1.75206 0
M  V30 2478 H 221.081 4.5435 1.77249 0
M  V30 2479 H 220.086 5.48809 -0.329918 0
M  V30 2480 H 221.311 6.78283 -0.332917 0
M  V30 2481 H 219.257 6.29176 1.85671 0
M  V30 2482 H 219.174 7.53209 0.649036 0
M  V30 2483 H 220.442 7.57535 1.83742 0
M  V30 2484 N 224.671 0.411399 1.52136 0
M  V30 2485 C 226.082 -0.0576826 1.86611 0
M  V30 2486 C 226.433 -1.44238 1.33003 0
M  V30 2487 O 225.558 -2.05759 0.670228 0
M  V30 2488 C 226.153 -0.111448 3.38617 0
M  V30 2489 C 224.712 -0.52487 3.72723 0
M  V30 2490 C 223.859 0.299176 2.75681 0
M  V30 2491 H 226.81 0.628368 1.4573 0
M  V30 2492 H 226.831 -0.926252 3.69054 0
M  V30 2493 H 226.343 0.896488 3.77604 0
M  V30 2494 H 224.444 -1.53936 3.39315 0
M  V30 2495 H 224.557 -0.267681 4.78352 0
M  V30 2496 H 222.921 -0.238814 2.53578 0
M  V30 2497 H 223.704 1.3055 3.17508 0
M  V30 2498 N 226.149 -1.5696 0.141893 0
M  V30 2499 C 227.374 -2.00754 -0.520838 0
M  V30 2500 C 227.799 -1.0213 -1.57959 0
M  V30 2501 O 227.157 0.00371324 -1.813 0
M  V30 2502 C 227.205 -3.43318 -1.10294 0
M  V30 2503 O 226.309 -3.47679 -2.21795 0
M  V30 2504 H 225.65 -0.651564 -0.127908 0
M  V30 2505 H 228.18 -2.03221 0.23712 0
M  V30 2506 H 228.19 -3.82012 -1.43287 0
M  V30 2507 H 226.865 -4.14608 -0.327574 0
M  V30 2508 H 225.442 -3.20824 -1.9007 0
M  V30 2509 N 227.627 0.131896 -1.57047 0
M  V30 2510 C 228.575 1.18146 -2.0036 0
M  V30 2511 C 229.569 1.43614 -0.898406 0
M  V30 2512 O 230.775 1.43729 -1.08361 0
M  V30 2513 H 227.15 0.398042 -0.638018 0
M  V30 2514 H 229.121 0.789564 -2.87765 0
M  V30 2515 C 227.87 2.50341 -2.41298 0
M  V30 2516 H 227.193 2.31578 -3.25902 0
M  V30 2517 H 228.633 3.22371 -2.75414 0
M  V30 2518 C 227.092 3.11984 -1.27153 0
M  V30 2519 O 227.622 3.97484 -0.580459 0
M  V30 2520 N 225.828 2.71662 -1.03189 0
M  V30 2521 H 225.375 2.02231 -1.59564 0
M  V30 2522 H 225.333 3.13238 -0.270077 0
M  V30 2523 N 229.106 1.52395 0.401703 0
M  V30 2524 C 230.352 1.67065 1.14966 0
M  V30 2525 C 230.685 0.403052 1.89971 0
M  V30 2526 O 229.96 -0.598774 1.85054 0
M  V30 2527 C 230.243 2.8975 2.13815 0
M  V30 2528 C 230.096 4.26578 1.42658 0
M  V30 2529 C 231.415 3.07965 3.14397 0
M  V30 2530 H 228.534 0.607968 0.416587 0
M  V30 2531 H 231.176 1.84965 0.434511 0
M  V30 2532 H 229.326 2.74619 2.74803 0
M  V30 2533 H 230.998 4.53451 0.847329 0
M  V30 2534 H 229.241 4.27639 0.72849 0
M  V30 2535 H 229.912 5.08483 2.14823 0
M  V30 2536 H 232.388 3.22043 2.63491 0
M  V30 2537 H 231.264 3.95308 3.80819 0
M  V30 2538 H 231.525 2.21611 3.82545 0
M  V30 2539 N 230.584 -0.659388 1.43143 0
M  V30 2540 C 231.547 -1.75432 1.47501 0
M  V30 2541 C 232.547 -1.56707 0.360512 0
M  V30 2542 O 233.737 -1.62717 0.622002 0
M  V30 2543 C 230.869 -3.14239 1.32162 0
M  V30 2544 H 232.062 -1.7295 2.45006 0
M  V30 2545 H 229.615 -0.870469 1.29817 0
M  V30 2546 H 230.35 -3.22336 0.356401 0
M  V30 2547 H 230.135 -3.29235 2.12948 0
M  V30 2548 H 231.625 -3.94094 1.3813 0
M  V30 2549 N 232.062 -1.29571 -0.897171 0
M  V30 2550 C 233.308 -1.17863 -1.65034 0
M  V30 2551 C 233.641 0.268729 -1.92332 0
M  V30 2552 O 232.916 1.19378 -1.53555 0
M  V30 2553 C 233.199 -1.995 -2.99786 0
M  V30 2554 C 233.052 -3.5239 -2.79538 0
M  V30 2555 C 234.371 -1.82335 -4.00552 0
M  V30 2556 H 231.49 -0.429528 -0.598895 0
M  V30 2557 H 234.132 -1.59072 -1.03905 0
M  V30 2558 H 232.282 -1.64485 -3.51962 0
M  V30 2559 H 233.954 -3.97401 -2.34244 0
M  V30 2560 H 232.197 -3.77187 -2.14273 0
M  V30 2561 H 232.868 -4.04787 -3.75302 0
M  V30 2562 H 235.344 -2.12924 -3.57495 0
M  V30 2563 H 234.22 -2.41801 -4.92771 0
M  V30 2564 H 234.481 -0.779209 -4.35179 0
M  V30 2565 N 233.54 1.10788 -1.12088 0
M  V30 2566 C 234.488 2.19111 -0.780587 0
M  V30 2567 C 235.482 1.67818 0.230961 0
M  V30 2568 O 236.688 1.79777 0.0895427 0
M  V30 2569 H 233.063 0.714477 -0.234578 0
M  V30 2570 H 235.034 2.45055 -1.70266 0
M  V30 2571 C 233.783 3.46818 -0.24747 0
M  V30 2572 H 233.106 3.86646 -1.01712 0
M  V30 2573 H 234.546 4.23973 -0.0476291 0
M  V30 2574 C 233.005 3.20968 1.02378 0
M  V30 2575 O 233.535 3.42298 2.10226 0
M  V30 2576 N 231.741 2.74658 0.949271 0
M  V30 2577 H 231.288 2.57501 0.0715173 0
M  V30 2578 H 231.246 2.57739 1.80049 0
M  V30 2579 N 235.018 0.912232 1.28515 0
M  V30 2580 C 235.928 0.404506 2.31086 0
M  V30 2581 C 236.944 -0.50707 1.66448 0
M  V30 2582 O 238.12 -0.393624 1.97516 0
M  V30 2583 C 235.185 -0.348572 3.44943 0
M  V30 2584 C 234.246 0.59604 4.25142 0
M  V30 2585 C 233.479 -0.121194 5.33562 0
M  V30 2586 O 233.702 -1.34317 5.5436 0
M  V30 2587 O 232.636 0.542716 5.99448 0
M  V30 2588 H 236.462 1.25579 2.76521 0
M  V30 2589 H 234.047 0.676998 1.33181 0
M  V30 2590 H 235.929 -0.77395 4.14232 0
M  V30 2591 H 234.604 -1.17571 3.01594 0
M  V30 2592 H 233.511 1.07079 3.58448 0
M  V30 2593 H 234.844 1.38995 4.72167 0
M  V30 2594 N 236.496 -1.42363 0.676048 0
M  V30 2595 C 237.773 -1.95183 0.127726 0
M  V30 2596 C 238.153 -1.61641 -1.35777 0
M  V30 2597 O 237.501 -0.913216 -2.09458 0
M  V30 2598 C 237.711 -3.46721 0.398199 0
M  V30 2599 C 239.059 -4.23427 0.315383 0
M  V30 2600 O 240.083 -3.54649 0.332016 0
M  V30 2601 O 238.942 -5.45888 0.25865 0
M  V30 2602 H 236.036 -0.826992 0.00359427 0
M  V30 2603 H 238.582 -1.52184 0.750864 0
M  V30 2604 H 237.354 -3.64344 1.4272 0
M  V30 2605 H 236.977 -3.96769 -0.256885 0
M  V30 2606 N 237.974 -0.419461 -1.51915 0
M  V30 2607 C 239.214 0.152336 -2.03832 0
M  V30 2608 C 239.578 1.41501 -1.29775 0
M  V30 2609 O 240.779 2.06591 -1.7197 0
M  V30 2610 C 239.05 0.383812 -3.55333 0
M  V30 2611 S 240.609 0.921577 -4.29013 0
M  V30 2612 H 237.427 0.0402193 -0.709862 0
M  V30 2613 H 240.029 -0.574758 -1.8686 0
M  V30 2614 H 238.733 -0.541794 -4.06808 0
M  V30 2615 H 238.264 1.13849 -3.76566 0
M  V30 2616 H 240.279 2.20108 -4.4471 0
M  V30 2617 N 239.452 1.56882 -0.150215 0
M  V30 2618 C 240.362 2.20494 0.801222 0
M  V30 2619 C 241.378 1.19019 1.26927 0
M  V30 2620 O 242.554 1.51607 1.32579 0
M  V30 2621 C 239.619 2.81659 2.02161 0
M  V30 2622 C 238.68 3.9827 1.60249 0
M  V30 2623 C 237.913 4.56508 2.7647 0
M  V30 2624 O 238.136 4.13627 3.92771 0
M  V30 2625 O 237.07 5.46719 2.51757 0
M  V30 2626 H 240.896 3.02315 0.289717 0
M  V30 2627 H 238.481 1.49202 0.0769684 0
M  V30 2628 H 240.363 3.20522 2.73576 0
M  V30 2629 H 239.038 2.02849 2.52258 0
M  V30 2630 H 237.945 3.64117 0.858477 0
M  V30 2631 H 239.278 4.78609 1.14864 0
M  V30 2632 N 240.93 -0.123565 1.57115 0
M  V30 2633 C 241.86 -1.15309 2.03042 0
M  V30 2634 C 242.841 -1.43454 0.914061 0
M  V30 2635 O 244.026 -1.53973 1.18347 0
M  V30 2636 C 241.156 -2.48043 2.43089 0
M  V30 2637 C 240.11 -2.3437 3.58127 0
M  V30 2638 C 239.436 -3.72026 3.84059 0
M  V30 2639 C 240.736 -1.80804 4.90007 0
M  V30 2640 H 242.43 -0.771102 2.893 0
M  V30 2641 H 239.976 -0.369479 1.39179 0
M  V30 2642 H 241.929 -3.20311 2.73823 0
M  V30 2643 H 240.653 -2.88122 1.53796 0
M  V30 2644 H 239.312 -1.64551 3.27595 0
M  V30 2645 H 238.96 -4.09582 2.91979 0
M  V30 2646 H 238.66 -3.63732 4.6149 0
M  V30 2647 H 240.184 -4.45806 4.1724 0
M  V30 2648 H 241.598 -2.42886 5.19307 0
M  V30 2649 H 239.995 -1.83343 5.71407 0
M  V30 2650 H 241.065 -0.76528 4.78823 0
M  V30 2651 N 242.408 -1.52605 -0.393616 0
M  V30 2652 C 243.824 -1.41753 -0.733357 0
M  V30 2653 C 244.024 -0.534293 -1.94287 0
M  V30 2654 O 243.08 -0.0059787 -2.52499 0
M  V30 2655 C 244.393 -2.84531 -0.972772 0
M  V30 2656 C 245.941 -2.93978 -1.07453 0
M  V30 2657 C 246.416 -4.37756 -1.3466 0
M  V30 2658 N 247.907 -4.4106 -1.41492 0
M  V30 2659 C 248.642 -5.49387 -1.642 0
M  V30 2660 N 248.138 -6.67806 -1.8441 0
M  V30 2661 N 249.931 -5.36923 -1.66342 0
M  V30 2662 H 242.082 -2.08555 0.402328 0
M  V30 2663 H 244.345 -0.940654 0.117789 0
M  V30 2664 H 244.051 -3.51353 -0.156204 0
M  V30 2665 H 243.925 -3.26508 -1.88871 0
M  V30 2666 H 246.312 -2.27326 -1.88167 0
M  V30 2667 H 246.393 -2.55435 -0.136605 0
M  V30 2668 H 246.037 -5.04972 -0.544581 0
M  V30 2669 H 245.967 -4.73848 -2.2973 0
M  V30 2670 H 248.458 -3.55705 -1.27601 0
M  V30 2671 H 248.771 -7.46141 -2.01231 0
M  V30 2672 H 247.116 -6.70843 -1.81644 0
M  V30 2673 H 250.307 -4.43381 -1.50102 0
M  V30 2674 H 250.48 -6.21416 -1.837 0
M  V30 2675 N 243.887 0.651787 -1.4349 0
M  V30 2676 C 245.136 1.40754 -1.44469 0
M  V30 2677 C 245.449 1.95463 -0.0731845 0
M  V30 2678 O 246.655 2.71471 0.0395721 0
M  V30 2679 C 245.111 2.54735 -2.5424 0
M  V30 2680 C 244.719 2.06628 -3.97504 0
M  V30 2681 C 246.463 3.32092 -2.64414 0
M  V30 2682 C 244.37 3.17829 -4.98737 0
M  V30 2683 H 243.3 0.528862 -0.53742 0
M  V30 2684 H 245.951 0.703365 -1.69485 0
M  V30 2685 H 244.333 3.2763 -2.22428 0
M  V30 2686 H 245.507 1.40734 -4.38783 0
M  V30 2687 H 243.822 1.42146 -3.91387 0
M  V30 2688 H 246.419 4.14952 -3.37223 0
M  V30 2689 H 246.762 3.80217 -1.69532 0
M  V30 2690 H 247.295 2.66279 -2.95534 0
M  V30 2691 H 244.034 2.74671 -5.95177 0
M  V30 2692 H 243.554 3.82429 -4.62069 0
M  V30 2693 H 245.233 3.82937 -5.21505 0
M  V30 2694 N 245.365 1.30045 0.890287 0
M  V30 2695 C 246.295 1.18541 2.01172 0
M  V30 2696 C 247.276 0.0773356 1.69924 0
M  V30 2697 O 248.461 0.25845 1.92473 0
M  V30 2698 C 245.591 0.870941 3.36202 0
M  V30 2699 C 244.545 1.93637 3.81692 0
M  V30 2700 C 243.871 1.475 5.13953 0
M  V30 2701 C 245.171 3.34666 4.00994 0
M  V30 2702 H 246.865 2.12359 2.11054 0
M  V30 2703 H 244.411 1.02238 1.01407 0
M  V30 2704 H 246.364 0.777141 4.14172 0
M  V30 2705 H 245.088 -0.102926 3.26438 0
M  V30 2706 H 243.747 2.01972 3.05946 0
M  V30 2707 H 243.395 0.489551 5.00612 0
M  V30 2708 H 243.095 2.1876 5.4536 0
M  V30 2709 H 244.619 1.39489 5.94454 0
M  V30 2710 H 246.033 3.2912 4.69417 0
M  V30 2711 H 244.43 4.03966 4.43769 0
M  V30 2712 H 245.5 3.76949 3.05021 0
M  V30 2713 N 246.843 -1.10192 1.12674 0
M  V30 2714 C 248.12 -1.78717 0.794965 0
M  V30 2715 C 248.5 -1.98628 -0.714853 0
M  V30 2716 O 247.848 -1.58135 -1.64941 0
M  V30 2717 C 248.058 -3.11546 1.5729 0
M  V30 2718 C 249.406 -3.86382 1.76052 0
M  V30 2719 O 250.43 -3.21274 1.53823 0
M  V30 2720 O 249.289 -5.03246 2.13087 0
M  V30 2721 H 246.383 -0.774702 0.289423 0
M  V30 2722 H 248.929 -1.16819 1.23091 0
M  V30 2723 H 247.701 -2.92489 2.59935 0
M  V30 2724 H 247.324 -3.81164 1.13137 0
M  V30 2725 N 248.321 -0.919034 -1.28029 0
M  V30 2726 C 249.568 -0.554934 -1.94748 0
M  V30 2727 C 249.896 0.90231 -1.72304 0
M  V30 2728 O 249.151 1.65767 -1.04018 0
M  V30 2729 C 249.45 -0.816855 -3.4794 0
M  V30 2730 C 249.116 -2.25448 -3.90492 0
M  V30 2731 C 247.778 -2.64752 -4.01821 0
M  V30 2732 C 250.13 -3.18977 -4.12193 0
M  V30 2733 C 247.458 -3.96727 -4.32232 0
M  V30 2734 C 249.81 -4.50523 -4.44086 0
M  V30 2735 C 248.474 -4.89673 -4.53626 0
M  V30 2736 H 247.744 -0.203065 -0.712633 0
M  V30 2737 H 250.391 -1.16136 -1.52265 0
M  V30 2738 H 248.696 -0.127677 -3.91592 0
M  V30 2739 H 250.393 -0.514238 -3.97689 0
M  V30 2740 H 246.983 -1.93952 -3.82205 0
M  V30 2741 H 251.167 -2.89817 -4.02889 0
M  V30 2742 H 246.423 -4.26754 -4.37825 0
M  V30 2743 H 250.597 -5.23005 -4.59825 0
M  V30 2744 H 248.224 -5.91969 -4.76946 0
M  V30 2745 N 249.799 1.42003 -0.683588 0
M  V30 2746 C 251.047 2.01015 -0.209101 0
M  V30 2747 C 251.368 1.54365 1.19149 0
M  V30 2748 O 250.638 0.769083 1.80172 0
M  V30 2749 H 249.218 0.743294 -0.074315 0
M  V30 2750 H 251.88 1.73798 -0.882066 0
M  V30 2751 H 250.976 3.11343 -0.2172 0
M  V30 2752 N 251.277 0.427512 1.51691 0
M  V30 2753 C 252.207 -0.3796 2.30394 0
M  V30 2754 C 253.188 -1.02982 1.35384 0
M  V30 2755 O 254.373 -1.03534 1.643 0
M  V30 2756 C 251.503 -1.48649 3.1388 0
M  V30 2757 C 250.457 -0.960294 4.17088 0
M  V30 2758 C 249.783 -2.16219 4.89033 0
M  V30 2759 C 251.083 -0.00153679 5.223 0
M  V30 2760 H 252.777 0.277164 2.98114 0
M  V30 2761 H 250.323 0.134739 1.43368 0
M  V30 2762 H 252.276 -2.05826 3.67714 0
M  V30 2763 H 251 -2.1714 2.43962 0
M  V30 2764 H 249.659 -0.410806 3.64291 0
M  V30 2765 H 249.307 -2.83307 4.15628 0
M  V30 2766 H 249.007 -1.81654 5.58816 0
M  V30 2767 H 250.531 -2.73968 5.45687 0
M  V30 2768 H 251.945 -0.482687 5.71264 0
M  V30 2769 H 250.342 0.256199 5.99553 0
M  V30 2770 H 251.412 0.938174 4.75738 0
M  V30 2771 N 252.755 -1.56801 0.158532 0
M  V30 2772 C 253.718 -2.16138 -0.762705 0
M  V30 2773 C 254.718 -1.1061 -1.16713 0
M  V30 2774 O 255.908 -1.36191 -1.08617 0
M  V30 2775 C 253.04 -2.73386 -2.03649 0
M  V30 2776 H 254.233 -2.98886 -0.246354 0
M  V30 2777 H 251.786 -1.56035 -0.0909744 0
M  V30 2778 H 252.521 -1.94335 -2.59623 0
M  V30 2779 H 252.306 -3.50601 -1.75559 0
M  V30 2780 H 253.796 -3.19065 -2.6942 0
M  V30 2781 N 254.233 0.115231 -1.57178 0
M  V30 2782 C 255.649 0.468877 -1.52557 0
M  V30 2783 C 255.849 1.81649 -0.872125 0
M  V30 2784 O 254.905 2.48347 -0.45606 0
M  V30 2785 C 256.218 0.4499 -2.97315 0
M  V30 2786 C 257.766 0.533185 -3.08425 0
M  V30 2787 C 258.241 0.54456 -4.54751 0
M  V30 2788 N 259.732 0.605892 -4.5922 0
M  V30 2789 C 260.467 0.636203 -5.6986 0
M  V30 2790 N 259.963 0.623931 -6.89985 0
M  V30 2791 N 261.756 0.679496 -5.57978 0
M  V30 2792 H 253.907 -0.767712 -1.9804 0
M  V30 2793 H 256.17 -0.283609 -0.904583 0
M  V30 2794 H 255.876 -0.472721 -3.48509 0
M  V30 2795 H 255.75 1.27632 -3.5495 0
M  V30 2796 H 258.137 1.44623 -2.57232 0
M  V30 2797 H 258.218 -0.320995 -2.53778 0
M  V30 2798 H 257.862 -0.364452 -5.06591 0
M  V30 2799 H 257.792 1.41568 -5.07214 0
M  V30 2800 H 260.283 0.621386 -3.72756 0
M  V30 2801 H 260.596 0.649787 -7.70063 0
M  V30 2802 H 258.941 0.591296 -6.9248 0
M  V30 2803 H 262.132 0.686472 -4.63039 0
M  V30 2804 H 262.305 0.69965 -6.44212 0
M  V30 2805 N 255.711 1.52812 0.385517 0
M  V30 2806 C 256.643 1.74096 1.49074 0
M  V30 2807 C 257.656 0.621462 1.50472 0
M  V30 2808 O 258.845 0.897245 1.54311 0
M  V30 2809 C 255.945 1.78774 2.87911 0
M  V30 2810 C 255.118 3.08134 3.10439 0
M  V30 2811 C 254.177 3.04313 4.29278 0
M  V30 2812 O 253.203 3.78168 4.25415 0
M  V30 2813 N 254.405 2.23741 5.35649 0
M  V30 2814 H 257.17 2.69455 1.31202 0
M  V30 2815 H 254.731 1.51343 0.575065 0
M  V30 2816 H 256.723 1.73721 3.65518 0
M  V30 2817 H 255.293 0.907869 2.99126 0
M  V30 2818 H 254.513 3.26649 2.20667 0
M  V30 2819 H 255.801 3.93662 3.22347 0
M  V30 2820 H 255.199 1.63211 5.41645 0
M  V30 2821 H 253.756 2.24524 6.11909 0
M  V30 2822 N 257.189 -0.644168 1.43834 0
M  V30 2823 C 258.152 -1.73857 1.49353 0
M  V30 2824 C 259.152 -1.56315 0.377112 0
M  V30 2825 O 260.342 -1.62048 0.639226 0
M  V30 2826 C 257.474 -3.12819 1.35488 0
M  V30 2827 H 258.667 -1.70342 2.46827 0
M  V30 2828 H 256.22 -0.856652 1.30733 0
M  V30 2829 H 256.955 -3.2194 0.390569 0
M  V30 2830 H 256.74 -3.26958 2.16428 0
M  V30 2831 H 258.23 -3.92606 1.42302 0
M  V30 2832 N 258.668 -1.30515 -0.883378 0
M  V30 2833 C 259.945 -1.10086 -1.6168 0
M  V30 2834 C 260.325 0.349269 -2.08191 0
M  V30 2835 O 259.673 1.34105 -1.85008 0
M  V30 2836 C 259.883 -2.10315 -2.78511 0
M  V30 2837 C 261.231 -2.42119 -3.48803 0
M  V30 2838 O 262.255 -2.08638 -2.88702 0
M  V30 2839 O 261.114 -2.99396 -4.57192 0
M  V30 2840 H 258.208 -0.422907 -0.710689 0
M  V30 2841 H 260.754 -1.41947 -0.930015 0
M  V30 2842 H 259.526 -3.07917 -2.41459 0
M  V30 2843 H 259.149 -1.79282 -3.54886 0
M  V30 2844 N 260.146 1.09593 -1.13257 0
M  V30 2845 C 261.056 2.19739 -0.821691 0
M  V30 2846 C 262.072 1.72926 0.19302 0
M  V30 2847 O 263.248 2.01385 0.0244895 0
M  V30 2848 C 260.313 3.45482 -0.290333 0
M  V30 2849 C 259.374 4.06985 -1.36607 0
M  V30 2850 C 258.607 5.26726 -0.859975 0
M  V30 2851 O 258.83 5.69594 0.303082 0
M  V30 2852 O 257.764 5.7931 -1.63351 0
M  V30 2853 H 261.59 2.48781 -1.74189 0
M  V30 2854 H 259.175 1.18496 -0.909894 0
M  V30 2855 H 261.057 4.214 0.000674022 0
M  V30 2856 H 259.732 3.18047 0.602306 0
M  V30 2857 H 258.639 3.32712 -1.71037 0
M  V30 2858 H 259.972 4.38643 -2.23279 0
M  V30 2859 N 261.624 0.925811 1.2754 0
M  V30 2860 C 262.534 0.428993 2.30644 0
M  V30 2861 C 263.55 -0.489387 1.66976 0
M  V30 2862 O 264.726 -0.372653 1.97922 0
M  V30 2863 C 261.791 -0.311967 3.45294 0
M  V30 2864 C 260.852 0.641098 4.24486 0
M  V30 2865 C 260.085 -0.0645955 5.33661 0
M  V30 2866 O 260.308 -1.28429 5.55754 0
M  V30 2867 O 259.242 0.606265 5.98839 0
M  V30 2868 H 263.068 1.28504 2.75173 0
M  V30 2869 H 260.653 0.691086 1.32455 0
M  V30 2870 H 262.535 -0.729972 4.15029 0
M  V30 2871 H 261.21 -1.14365 3.02824 0
M  V30 2872 H 260.117 1.10874 3.57292 0
M  V30 2873 H 261.45 1.43995 4.70666 0
M  V30 2874 N 263.102 -1.41638 0.69111 0
M  V30 2875 C 264.035 -2.28183 -0.0274913 0
M  V30 2876 C 265.013 -1.41984 -0.792424 0
M  V30 2877 O 266.197 -1.71415 -0.784169 0
M  V30 2878 C 263.324 -3.22135 -1.04628 0
M  V30 2879 C 262.37 -4.24848 -0.375037 0
M  V30 2880 S 263.203 -5.28231 0.879321 0
M  V30 2881 C 264.359 -6.25748 -0.137983 0
M  V30 2882 H 264.592 -2.88782 0.706553 0
M  V30 2883 H 262.125 -1.46709 0.481222 0
M  V30 2884 H 264.083 -3.76797 -1.62894 0
M  V30 2885 H 262.744 -2.6064 -1.75287 0
M  V30 2886 H 261.937 -4.90837 -1.14433 0
M  V30 2887 H 261.539 -3.73758 0.134434 0
M  V30 2888 H 263.831 -6.70188 -0.992659 0
M  V30 2889 H 264.774 -7.06417 0.487867 0
M  V30 2890 H 265.182 -5.62363 -0.490762 0
M  V30 2891 N 264.58 -0.43555 -1.51462 0
M  V30 2892 C 265.808 0.130242 -2.0649 0
M  V30 2893 C 266.223 1.36614 -1.30315 0
M  V30 2894 O 265.58 1.78869 -0.362223 0
M  V30 2895 C 265.631 0.454253 -3.58635 0
M  V30 2896 O 265.352 -0.73259 -4.31931 0
M  V30 2897 C 266.853 1.07091 -4.3017 0
M  V30 2898 H 264.073 0.00871669 -0.670943 0
M  V30 2899 H 266.617 -0.614117 -1.95061 0
M  V30 2900 H 264.772 1.14851 -3.69984 0
M  V30 2901 H 265.186 -0.455787 -5.22516 0
M  V30 2902 H 266.66 1.24764 -5.37716 0
M  V30 2903 H 267.137 2.05144 -3.88346 0
M  V30 2904 H 267.743 0.416089 -4.2326 0
M  V30 2905 N 266.058 1.56714 -0.166846 0
M  V30 2906 C 267.306 1.96358 0.478305 0
M  V30 2907 C 267.627 1.0537 1.6408 0
M  V30 2908 O 266.897 0.119154 1.95537 0
M  V30 2909 H 265.477 0.725065 0.179692 0
M  V30 2910 H 268.139 1.93329 -0.246985 0
M  V30 2911 H 267.235 3.00547 0.841292 0
M  V30 2912 N 267.536 -0.106894 1.57237 0
M  V30 2913 C 268.766 -0.825191 1.89405 0
M  V30 2914 C 269.174 -1.73374 0.757496 0
M  V30 2915 O 268.517 -1.81552 -0.280115 0
M  V30 2916 C 268.579 -1.70102 3.1671 0
M  V30 2917 C 268.243 -0.965523 4.46684 0
M  V30 2918 C 269.24 -0.300741 5.19029 0
M  V30 2919 C 266.925 -0.943105 4.93367 0
M  V30 2920 C 268.919 0.376622 6.36286 0
M  V30 2921 C 266.606 -0.261949 6.10538 0
M  V30 2922 C 267.604 0.396748 6.81847 0
M  V30 2923 O 267.292 1.06701 7.96787 0
M  V30 2924 H 267.024 -0.241852 0.631255 0
M  V30 2925 H 269.578 -0.0921491 2.05193 0
M  V30 2926 H 267.808 -2.47601 2.97036 0
M  V30 2927 H 269.497 -2.29483 3.34802 0
M  V30 2928 H 270.263 -0.309599 4.84011 0
M  V30 2929 H 266.142 -1.44524 4.3776 0
M  V30 2930 H 269.686 0.891334 6.91882 0
M  V30 2931 H 265.583 -0.250896 6.45012 0
M  V30 2932 H 266.351 0.972707 8.127 0
M  V30 2933 N 269.014 -1.53014 -0.377408 0
M  V30 2934 C 270.26 -1.68872 -1.12294 0
M  V30 2935 C 270.593 -0.433224 -1.89306 0
M  V30 2936 O 269.868 0.569258 -1.85983 0
M  V30 2937 C 270.151 -2.93115 -2.09179 0
M  V30 2938 C 270.004 -4.28794 -1.35853 0
M  V30 2939 C 271.323 -3.12928 -3.09458 0
M  V30 2940 H 268.442 -0.614518 -0.406862 0
M  V30 2941 H 271.084 -1.85633 -0.40503 0
M  V30 2942 H 269.234 -2.78956 -2.70399 0
M  V30 2943 H 270.906 -4.54742 -0.775082 0
M  V30 2944 H 269.149 -4.28744 -0.660364 0
M  V30 2945 H 269.82 -5.11837 -2.06706 0
M  V30 2946 H 272.296 -3.26194 -2.58334 0
M  V30 2947 H 271.172 -4.01316 -3.74482 0
M  V30 2948 H 271.433 -2.27669 -3.78971 0
M  V30 2949 N 270.492 0.636531 -1.44174 0
M  V30 2950 C 271.455 1.73063 -1.50273 0
M  V30 2951 C 272.455 1.56113 -0.385397 0
M  V30 2952 O 273.645 1.61707 -0.64781 0
M  V30 2953 C 270.777 3.12096 -1.37145 0
M  V30 2954 H 271.97 1.69031 -2.47727 0
M  V30 2955 H 269.523 0.849706 -1.31186 0
M  V30 2956 H 270.258 3.21728 -0.407636 0
M  V30 2957 H 270.043 3.25805 -2.18159 0
M  V30 2958 H 271.533 3.91846 -1.44382 0
M  V30 2959 N 271.97 1.30982 0.876444 0
M  V30 2960 C 273.198 1.23242 1.6619 0
M  V30 2961 C 273.613 -0.203345 1.87702 0
M  V30 2962 O 272.97 -1.13317 1.43057 0
M  V30 2963 C 273.021 1.96623 3.03351 0
M  V30 2964 O 272.742 3.34594 2.82804 0
M  V30 2965 C 274.243 1.95644 3.97792 0
M  V30 2966 H 271.463 0.426126 0.518322 0
M  V30 2967 H 274.007 1.7275 1.09442 0
M  V30 2968 H 272.162 1.50892 3.56806 0
M  V30 2969 H 272.576 3.71873 3.69879 0
M  V30 2970 H 274.05 2.51511 4.91372 0
M  V30 2971 H 274.527 0.937395 4.2908 0
M  V30 2972 H 275.133 2.41225 3.50272 0
M  V30 2973 N 273.449 -1.08991 1.13837 0
M  V30 2974 C 274.865 -1.33312 0.877506 0
M  V30 2975 C 275.065 -1.95587 -0.48456 0
M  V30 2976 O 274.121 -2.20509 -1.23013 0
M  V30 2977 C 275.434 -2.24045 2.0056 0
M  V30 2978 C 276.982 -2.37542 2.03821 0
M  V30 2979 C 277.457 -3.31614 3.15905 0
M  V30 2980 N 278.948 -3.39189 3.15445 0
M  V30 2981 C 279.683 -4.11992 3.98811 0
M  V30 2982 N 279.179 -4.87553 4.92203 0
M  V30 2983 N 280.972 -4.07762 3.86894 0
M  V30 2984 H 273.123 -0.669456 2.01574 0
M  V30 2985 H 275.386 -0.357482 0.878015 0
M  V30 2986 H 275.092 -1.85521 2.98789 0
M  V30 2987 H 274.966 -3.24466 1.92359 0
M  V30 2988 H 277.353 -2.75327 1.06202 0
M  V30 2989 H 277.434 -1.36884 2.16093 0
M  V30 2990 H 277.078 -2.94551 4.13766 0
M  V30 2991 H 277.008 -4.32186 3.0087 0
M  V30 2992 H 279.499 -2.85314 2.47799 0
M  V30 2993 H 279.812 -5.40549 5.52292 0
M  V30 2994 H 278.157 -4.86627 4.96205 0
M  V30 2995 H 281.348 -3.47833 3.13257 0
M  V30 2996 H 281.521 -4.64238 4.52092 0
M  V30 2997 N 274.927 -0.932562 -1.27047 0
M  V30 2998 C 276.173 -0.585913 -1.94778 0
M  V30 2999 C 276.528 0.864142 -1.71902 0
M  V30 3000 O 275.821 1.60894 -1.04037 0
M  V30 3001 C 276.015 -0.853713 -3.47054 0
M  V30 3002 C 275.844 -2.32825 -3.84737 0
M  V30 3003 C 274.614 -2.98184 -4.07939 0
M  V30 3004 C 276.812 -3.30612 -3.93954 0
M  V30 3005 N 274.794 -4.3574 -4.3244 0
M  V30 3006 C 276.165 -4.53395 -4.22887 0
M  V30 3007 C 278.22 -3.25755 -3.76548 0
M  V30 3008 C 276.923 -5.71927 -4.36224 0
M  V30 3009 C 278.949 -4.43604 -3.91113 0
M  V30 3010 C 278.311 -5.65166 -4.20437 0
M  V30 3011 H 274.41 -0.264617 -0.735868 0
M  V30 3012 H 276.994 -1.20019 -1.53309 0
M  V30 3013 H 275.165 -0.268557 -3.8747 0
M  V30 3014 H 276.897 -0.469202 -4.01971 0
M  V30 3015 H 273.652 -2.48835 -4.02961 0
M  V30 3016 H 274.076 -5.06915 -4.48738 0
M  V30 3017 H 278.718 -2.32835 -3.52913 0
M  V30 3018 H 276.436 -6.65308 -4.58683 0
M  V30 3019 H 280.022 -4.41368 -3.79059 0
M  V30 3020 H 278.902 -6.54836 -4.31462 0
M  V30 3021 N 276.405 1.4127 -0.698611 0
M  V30 3022 C 277.635 2.05205 -0.239644 0
M  V30 3023 C 278.043 1.52684 1.11733 0
M  V30 3024 O 277.386 0.671222 1.70998 0
M  V30 3025 C 277.448 3.59289 -0.123126 0
M  V30 3026 C 277.112 4.34619 -1.41263 0
M  V30 3027 C 278.109 4.63701 -2.35111 0
M  V30 3028 C 275.794 4.73837 -1.66684 0
M  V30 3029 C 277.788 5.30966 -3.52639 0
M  V30 3030 C 275.475 5.40837 -2.84498 0
M  V30 3031 C 276.473 5.69329 -3.77298 0
M  V30 3032 O 276.161 6.34949 -4.93047 0
M  V30 3033 H 275.893 0.66723 -0.108537 0
M  V30 3034 H 278.447 1.81974 -0.952602 0
M  V30 3035 H 276.677 3.81272 0.645628 0
M  V30 3036 H 278.366 4.04797 0.299056 0
M  V30 3037 H 279.132 4.33882 -2.16729 0
M  V30 3038 H 275.011 4.51039 -0.953135 0
M  V30 3039 H 278.555 5.53121 -4.25091 0
M  V30 3040 H 274.452 5.70075 -3.02795 0
M  V30 3041 H 275.22 6.53445 -4.92902 0
M  V30 3042 N 277.883 0.443576 1.51229 0
M  V30 3043 C 279.299 0.0962001 1.5931 0
M  V30 3044 C 279.499 -1.39501 1.45402 0
M  V30 3045 O 278.555 -2.16557 1.29843 0
M  V30 3046 C 279.868 0.621875 2.94199 0
M  V30 3047 C 281.416 0.582865 3.07525 0
M  V30 3048 C 281.891 1.08562 4.44948 0
M  V30 3049 N 283.382 1.04387 4.51284 0
M  V30 3050 C 284.117 1.40368 5.55954 0
M  V30 3051 N 283.613 1.83664 6.68011 0
M  V30 3052 N 285.406 1.32145 5.46346 0
M  V30 3053 H 277.557 1.41376 1.58514 0
M  V30 3054 H 279.82 0.582965 0.747567 0
M  V30 3055 H 279.526 1.66546 3.09767 0
M  V30 3056 H 279.4 0.0502125 3.77167 0
M  V30 3057 H 281.787 -0.451749 2.91622 0
M  V30 3058 H 281.868 1.191 2.26382 0
M  V30 3059 H 281.512 2.11873 4.61598 0
M  V30 3060 H 281.442 0.453956 5.2464 0
M  V30 3061 H 283.933 0.725986 3.70861 0
M  V30 3062 H 284.246 2.0934 7.43906 0
M  V30 3063 H 282.591 1.87596 6.69203 0
M  V30 3064 H 285.782 0.981808 4.57688 0
M  V30 3065 H 285.955 1.60514 6.27805 0
M  V30 3066 N 279.361 -1.56624 0.175154 0
M  V30 3067 C 280.324 -2.16934 -0.739738 0
M  V30 3068 C 281.324 -1.11842 -1.15533 0
M  V30 3069 O 282.514 -1.37335 -1.07167 0
M  V30 3070 C 279.646 -2.75531 -2.00738 0
M  V30 3071 H 280.839 -2.99131 -0.214639 0
M  V30 3072 H 278.392 -1.56123 -0.0744197 0
M  V30 3073 H 279.127 -1.97078 -2.57548 0
M  V30 3074 H 278.912 -3.52444 -1.71831 0
M  V30 3075 H 280.402 -3.21904 -2.66021 0
M  V30 3076 N 280.839 0.0985539 -1.57292 0
M  V30 3077 C 282.25 0.653457 -1.74891 0
M  V30 3078 C 282.601 1.7929 -0.796838 0
M  V30 3079 O 281.726 2.16385 0.0254886 0
M  V30 3080 C 282.321 1.19216 -3.17133 0
M  V30 3081 C 280.88 1.69316 -3.36168 0
M  V30 3082 C 280.027 0.601294 -2.70702 0
M  V30 3083 H 282.978 -0.127497 -1.58187 0
M  V30 3084 H 282.999 2.06154 -3.19814 0
M  V30 3085 H 282.511 0.362635 -3.86402 0
M  V30 3086 H 280.612 2.5468 -2.71972 0
M  V30 3087 H 280.725 1.78853 -4.44464 0
M  V30 3088 H 279.089 1.0399 -2.32504 0
M  V30 3089 H 279.872 -0.217592 -3.4261 0
M  V30 3090 N 282.317 1.53212 0.369288 0
M  V30 3091 C 283.227 1.82342 1.47609 0
M  V30 3092 C 284.243 0.711532 1.58787 0
M  V30 3093 O 285.419 1.0012 1.74751 0
M  V30 3094 C 282.484 2.00393 2.8292 0
M  V30 3095 C 281.545 3.24297 2.81301 0
M  V30 3096 C 280.778 3.41478 4.10157 0
M  V30 3097 O 281.001 2.63033 5.06132 0
M  V30 3098 O 279.935 4.34817 4.16194 0
M  V30 3099 H 283.761 2.76366 1.25918 0
M  V30 3100 H 281.346 1.38547 0.559034 0
M  V30 3101 H 283.228 2.13859 3.63101 0
M  V30 3102 H 281.903 1.09559 3.04596 0
M  V30 3103 H 280.81 3.16257 1.99831 0
M  V30 3104 H 282.143 4.15041 2.64578 0
M  V30 3105 N 283.795 -0.628877 1.44509 0
M  V30 3106 C 285.044 -1.38437 1.4669 0
M  V30 3107 C 285.357 -1.95322 0.104272 0
M  V30 3108 O 286.563 -2.715 0.00362163 0
M  V30 3109 C 285.019 -2.50659 2.5826 0
M  V30 3110 C 284.627 -2.00277 4.0074 0
M  V30 3111 C 286.371 -3.27844 2.69664 0
M  V30 3112 C 284.278 -3.09854 5.0373 0
M  V30 3113 H 283.208 -0.520245 0.545766 0
M  V30 3114 H 285.859 -0.676313 1.70582 0
M  V30 3115 H 284.241 -3.2405 2.27612 0
M  V30 3116 H 285.415 -1.33736 4.40966 0
M  V30 3117 H 283.73 -1.35901 3.93599 0
M  V30 3118 H 286.327 -4.09534 3.43781 0
M  V30 3119 H 286.67 -3.77471 1.75559 0
M  V30 3120 H 287.203 -2.61543 2.99733 0
M  V30 3121 H 283.942 -2.65168 5.99472 0
M  V30 3122 H 283.462 -3.7503 4.68095 0
M  V30 3123 H 285.141 -3.74592 5.27532 0
M  V30 3124 N 285.273 -1.31445 -0.869486 0
M  V30 3125 C 286.206 -1.13465 -1.97992 0
M  V30 3126 C 287.184 -0.0380291 -1.62556 0
M  V30 3127 O 288.368 -0.194544 -1.87493 0
M  V30 3128 C 285.495 -0.733822 -3.30655 0
M  V30 3129 C 284.541 -1.83356 -3.85075 0
M  V30 3130 S 285.374 -3.43909 -4.10472 0
M  V30 3131 C 286.53 -3.05763 -5.46132 0
M  V30 3132 H 286.763 -2.07471 -2.1294 0
M  V30 3133 H 284.296 -1.15936 -1.01972 0
M  V30 3134 H 286.254 -0.509306 -4.07328 0
M  V30 3135 H 284.915 0.187123 -3.13542 0
M  V30 3136 H 284.108 -1.50574 -4.80982 0
M  V30 3137 H 283.71 -2.01315 -3.15195 0
M  V30 3138 H 286.002 -2.54686 -6.27807 0
M  V30 3139 H 286.945 -4.00635 -5.83864 0
M  V30 3140 H 287.353 -2.43192 -5.09429 0
M  V30 3141 N 286.751 1.08385 -1.14413 0
M  V30 3142 C 287.681 2.17321 -0.854044 0
M  V30 3143 C 288.662 1.69024 0.191049 0
M  V30 3144 O 289.847 1.94141 0.0476779 0
M  V30 3145 C 286.977 3.45719 -0.330983 0
M  V30 3146 C 285.931 4.07409 -1.31155 0
M  V30 3147 C 285.257 5.30762 -0.64778 0
M  V30 3148 C 286.557 4.48665 -2.67388 0
M  V30 3149 H 288.251 2.41845 -1.76498 0
M  V30 3150 H 285.797 1.16233 -0.850051 0
M  V30 3151 H 287.75 4.21241 -0.115645 0
M  V30 3152 H 286.474 3.2075 0.615381 0
M  V30 3153 H 285.133 3.33919 -1.51306 0
M  V30 3154 H 284.781 5.02078 0.304398 0
M  V30 3155 H 284.481 5.72992 -1.30207 0
M  V30 3156 H 286.005 6.08998 -0.441972 0
M  V30 3157 H 287.419 5.15364 -2.51143 0
M  V30 3158 H 285.816 5.01814 -3.29093 0
M  V30 3159 H 286.886 3.60543 -3.24248 0
M  V30 3160 N 288.23 0.939286 1.26551 0
M  V30 3161 C 289.178 0.43815 2.28436 0
M  V30 3162 C 290.172 -0.483587 1.62351 0
M  V30 3163 O 291.378 -0.362009 1.76322 0
M  V30 3164 H 287.753 0.123149 0.741848 0
M  V30 3165 H 289.724 1.31002 2.68106 0
M  V30 3166 C 288.473 -0.283052 3.46546 0
M  V30 3167 H 287.796 0.417043 3.97619 0
M  V30 3168 H 289.236 -0.597948 4.19763 0
M  V30 3169 C 287.695 -1.50018 3.01656 0
M  V30 3170 O 288.225 -2.59855 3.0633 0
M  V30 3171 N 286.431 -1.35608 2.57019 0
M  V30 3172 H 285.978 -0.46244 2.53415 0
M  V30 3173 H 285.936 -2.17165 2.27347 0
M  V30 3174 N 289.708 -1.40897 0.706093 0
M  V30 3175 C 290.954 -2.01849 0.250681 0
M  V30 3176 C 291.309 -1.5496 -1.14041 0
M  V30 3177 O 290.602 -0.755566 -1.76073 0
M  V30 3178 C 290.796 -3.5646 0.259099 0
M  V30 3179 C 290.625 -4.18357 1.64947 0
M  V30 3180 C 289.395 -4.522 2.25485 0
M  V30 3181 C 291.593 -4.43856 2.598 0
M  V30 3182 N 289.575 -4.9944 3.56977 0
M  V30 3183 C 290.946 -4.92986 3.75985 0
M  V30 3184 C 293.001 -4.25882 2.57933 0
M  V30 3185 C 291.704 -5.2603 4.90597 0
M  V30 3186 C 293.73 -4.6002 3.71665 0
M  V30 3187 C 293.092 -5.09331 4.86581 0
M  V30 3188 H 289.191 -0.769843 0.137353 0
M  V30 3189 H 291.775 -1.71278 0.925845 0
M  V30 3190 H 289.946 -3.86481 -0.385592 0
M  V30 3191 H 291.678 -4.04144 -0.21213 0
M  V30 3192 H 288.433 -4.3901 1.77671 0
M  V30 3193 H 288.857 -5.27454 4.24407 0
M  V30 3194 H 293.499 -3.86986 1.70298 0
M  V30 3195 H 291.217 -5.63843 5.78884 0
M  V30 3196 H 294.803 -4.47762 3.71484 0
M  V30 3197 H 293.683 -5.35251 5.73129 0
M  V30 3198 N 291.186 -0.45159 -1.50991 0
M  V30 3199 C 292.119 0.398179 -2.24699 0
M  V30 3200 C 293.097 1.01276 -1.27208 0
M  V30 3201 O 294.281 1.05247 -1.56382 0
M  V30 3202 C 291.408 1.55618 -3.00833 0
M  V30 3203 C 290.454 1.0609 -4.13095 0
M  V30 3204 S 291.287 -0.00865136 -5.35499 0
M  V30 3205 C 292.443 1.15369 -6.15175 0
M  V30 3206 H 292.676 -0.227555 -2.96428 0
M  V30 3207 H 290.209 -0.236251 -1.52582 0
M  V30 3208 H 292.167 2.21997 -3.45293 0
M  V30 3209 H 290.828 2.15337 -2.28667 0
M  V30 3210 H 290.021 1.92726 -4.65696 0
M  V30 3211 H 289.623 0.47513 -3.7097 0
M  V30 3212 H 291.915 2.06925 -6.45126 0
M  V30 3213 H 292.858 0.667344 -7.04948 0
M  V30 3214 H 293.266 1.3987 -5.46897 0
M  V30 3215 N 292.664 1.56529 -0.183458 0
M  V30 3216 C 293.614 2.1515 0.754605 0
M  V30 3217 C 294.598 1.08904 1.18443 0
M  V30 3218 O 295.79 1.34997 1.14476 0
M  V30 3219 C 292.919 2.80531 1.97881 0
M  V30 3220 C 292.005 3.93952 1.57043 0
M  V30 3221 N 292.396 4.98221 0.87231 0
M  V30 3222 C 290.694 4.05338 1.86057 0
M  V30 3223 C 291.395 5.77836 0.669377 0
M  V30 3224 N 290.371 5.29858 1.21454 0
M  V30 3225 H 294.173 2.93132 0.212387 0
M  V30 3226 H 291.687 1.62391 0.0167725 0
M  V30 3227 H 293.684 3.20914 2.6612 0
M  V30 3228 H 292.344 2.04035 2.52586 0
M  V30 3229 H 293.355 5.15191 0.529033 0
M  V30 3230 H 290.032 3.39957 2.42354 0
M  V30 3231 H 291.422 6.71799 0.116422 0
M  V30 3232 N 294.142 -0.090211 1.57342 0
M  V30 3233 C 295.372 -0.805055 1.90269 0
M  V30 3234 C 295.78 -1.72561 0.775842 0
M  V30 3235 O 295.123 -1.81839 -0.260843 0
M  V30 3236 C 295.185 -1.66734 3.18497 0
M  V30 3237 C 294.849 -0.918092 4.47683 0
M  V30 3238 C 295.846 -0.245674 5.19319 0
M  V30 3239 C 293.531 -0.890724 4.94339 0
M  V30 3240 C 295.525 0.444088 6.35851 0
M  V30 3241 C 293.212 -0.197179 6.10782 0
M  V30 3242 C 294.21 0.469044 6.81388 0
M  V30 3243 O 293.898 1.15146 7.95611 0
M  V30 3244 H 293.63 -0.235143 0.633785 0
M  V30 3245 H 296.184 -0.0703805 2.05279 0
M  V30 3246 H 294.414 -2.44437 2.99646 0
M  V30 3247 H 296.103 -2.25919 3.37217 0
M  V30 3248 H 296.869 -0.258246 4.84312 0
M  V30 3249 H 292.748 -1.39873 4.39268 0
M  V30 3250 H 296.292 0.964667 6.90898 0
M  V30 3251 H 292.189 -0.18247 6.45242 0
M  V30 3252 H 292.957 1.05885 8.11622 0
M  V30 3253 N 295.62 -1.53406 -0.361157 0
M  V30 3254 C 296.568 -1.80832 -1.46296 0
M  V30 3255 C 297.562 -0.677699 -1.55253 0
M  V30 3256 O 298.768 -0.860723 -1.58087 0
M  V30 3257 H 295.143 -0.572627 -0.487445 0
M  V30 3258 H 297.114 -2.73045 -1.20371 0
M  V30 3259 C 295.863 -2.01907 -2.8307 0
M  V30 3260 H 295.186 -2.88349 -2.76938 0
M  V30 3261 H 296.626 -2.25072 -3.59331 0
M  V30 3262 C 295.085 -0.799449 -3.27277 0
M  V30 3263 O 295.615 0.00971761 -4.01699 0
M  V30 3264 N 293.821 -0.621637 -2.83873 0
M  V30 3265 H 293.368 -1.28126 -2.23476 0
M  V30 3266 H 293.326 0.19298 -3.13807 0
M  V30 3267 N 297.098 0.621204 -1.44841 0
M  V30 3268 C 298.03 1.74615 -1.48466 0
M  V30 3269 C 299.043 1.58377 -0.37691 0
M  V30 3270 O 300.232 1.66508 -0.643215 0
M  V30 3271 C 297.332 3.12459 -1.31236 0
M  V30 3272 C 296.505 3.55064 -2.55438 0
M  V30 3273 C 295.564 4.71821 -2.32963 0
M  V30 3274 O 294.59 4.79628 -3.06505 0
M  V30 3275 N 295.792 5.64186 -1.36654 0
M  V30 3276 H 298.557 1.71973 -2.45449 0
M  V30 3277 H 296.118 0.806077 -1.40407 0
M  V30 3278 H 298.11 3.88302 -1.14032 0
M  V30 3279 H 296.68 3.09686 -0.4258 0
M  V30 3280 H 295.9 2.69324 -2.87851 0
M  V30 3281 H 297.188 3.80284 -3.38026 0
M  V30 3282 H 296.586 5.6058 -0.759344 0
M  V30 3283 H 295.143 6.39618 -1.25425 0
M  V30 3284 N 298.576 1.31904 0.862503 0
M  V30 3285 C 299.804 1.24998 1.64873 0
M  V30 3286 C 300.219 -0.183425 1.87907 0
M  V30 3287 O 299.576 -1.11794 1.44251 0
M  V30 3288 C 299.627 1.99829 3.01248 0
M  V30 3289 O 299.348 3.37575 2.79239 0
M  V30 3290 C 300.849 1.99852 3.95694 0
M  V30 3291 H 298.069 0.431599 0.513773 0
M  V30 3292 H 300.613 1.73901 1.07604 0
M  V30 3293 H 298.768 1.54668 3.55185 0
M  V30 3294 H 299.182 3.75776 3.65914 0
M  V30 3295 H 300.656 2.56709 4.88676 0
M  V30 3296 H 301.133 0.982852 4.28062 0
M  V30 3297 H 301.739 2.44926 3.47694 0
M  V30 3298 N 300.054 -1.07777 1.14986 0
M  V30 3299 C 301.3 -1.80557 0.923422 0
M  V30 3300 C 301.633 -1.86298 -0.548337 0
M  V30 3301 O 300.908 -1.34354 -1.40639 0
M  V30 3302 C 301.191 -3.25839 1.53299 0
M  V30 3303 C 301.044 -3.28269 3.07505 0
M  V30 3304 C 302.363 -4.22991 1.21518 0
M  V30 3305 H 299.482 -0.655493 0.336894 0
M  V30 3306 H 302.124 -1.26144 1.42083 0
M  V30 3307 H 300.274 -3.72306 1.10999 0
M  V30 3308 H 301.946 -2.90079 3.58681 0
M  V30 3309 H 300.189 -2.67355 3.4162 0
M  V30 3310 H 300.86 -4.30691 3.45266 0
M  V30 3311 H 303.336 -3.84894 1.581 0
M  V30 3312 H 302.212 -5.22945 1.66793 0
M  V30 3313 H 302.473 -4.41904 0.131505 0
M  V30 3314 N 301.532 -0.945985 -1.26051 0
M  V30 3315 C 302.809 -0.513816 -1.88731 0
M  V30 3316 C 303.189 1.00872 -1.8544 0
M  V30 3317 O 302.537 1.8708 -1.312 0
M  V30 3318 C 302.747 -1.08062 -3.31849 0
M  V30 3319 C 304.095 -1.1522 -4.08668 0
M  V30 3320 O 305.119 -1.03155 -3.40936 0
M  V30 3321 O 303.978 -1.34044 -5.29806 0
M  V30 3322 H 301.072 -0.168193 -0.809716 0
M  V30 3323 H 303.618 -1.03886 -1.34186 0
M  V30 3324 H 302.39 -2.1241 -3.2863 0
M  V30 3325 H 302.013 -0.538307 -3.93939 0
M  V30 3326 N 303.011 1.40521 -0.713556 0
M  V30 3327 C 304.26 2.00155 -0.249192 0
M  V30 3328 C 304.573 1.57224 1.16362 0
M  V30 3329 O 305.779 2.09542 1.72639 0
M  V30 3330 C 304.235 3.5773 -0.3946 0
M  V30 3331 C 303.843 4.09635 -1.81392 0
M  V30 3332 C 305.587 4.24499 0.00907364 0
M  V30 3333 C 303.494 5.59707 -1.91003 0
M  V30 3334 H 302.424 0.74868 -0.0894114 0
M  V30 3335 H 305.075 1.60784 -0.884352 0
M  V30 3336 H 303.457 3.94792 0.30911 0
M  V30 3337 H 304.631 3.83955 -2.54785 0
M  V30 3338 H 302.946 3.55456 -2.16888 0
M  V30 3339 H 305.543 5.34683 -0.0420404 0
M  V30 3340 H 305.886 4.02824 1.05065 0
M  V30 3341 H 306.419 3.92536 -0.645007 0
M  V30 3342 H 303.158 5.86234 -2.93275 0
M  V30 3343 H 302.678 5.87258 -1.22019 0
M  V30 3344 H 304.357 6.24776 -1.6812 0
M  V30 3345 N 304.489 0.459591 1.5075 0
M  V30 3346 C 305.735 -0.091664 2.03193 0
M  V30 3347 C 306.09 -1.38432 1.3362 0
M  V30 3348 O 305.383 -1.86257 0.449322 0
M  V30 3349 C 305.577 -0.342866 3.55752 0
M  V30 3350 C 305.406 0.923888 4.40107 0
M  V30 3351 C 304.176 1.46388 4.83631 0
M  V30 3352 C 306.374 1.81617 4.81165 0
M  V30 3353 N 304.356 2.68086 5.52271 0
M  V30 3354 C 305.727 2.87907 5.49099 0
M  V30 3355 C 307.782 1.82793 4.63132 0
M  V30 3356 C 306.485 3.95347 6.0091 0
M  V30 3357 C 308.511 2.89182 5.15876 0
M  V30 3358 C 307.873 3.94191 5.83774 0
M  V30 3359 H 303.972 0.00619247 0.781975 0
M  V30 3360 H 306.556 0.625233 1.84388 0
M  V30 3361 H 304.727 -1.0288 3.74527 0
M  V30 3362 H 306.459 -0.887445 3.9485 0
M  V30 3363 H 303.214 1.01466 4.62603 0
M  V30 3364 H 303.638 3.29857 5.91205 0
M  V30 3365 H 308.28 1.0293 4.1008 0
M  V30 3366 H 305.998 4.76035 6.53006 0
M  V30 3367 H 309.584 2.91061 5.0376 0
M  V30 3368 H 308.464 4.75161 6.23853 0
M  V30 3369 N 305.967 -1.56429 0.191757 0
M  V30 3370 C 307.192 -2.02309 -0.456706 0
M  V30 3371 C 307.617 -1.07103 -1.5463 0
M  V30 3372 O 306.975 -0.0539677 -1.8122 0
M  V30 3373 C 307.023 -3.46654 -0.993159 0
M  V30 3374 O 306.127 -3.54559 -2.10622 0
M  V30 3375 H 305.468 -0.655303 -0.107114 0
M  V30 3376 H 307.998 -2.02364 0.301653 0
M  V30 3377 H 308.008 -3.86377 -1.31061 0
M  V30 3378 H 306.683 -4.1544 -0.195504 0
M  V30 3379 H 305.26 -3.26708 -1.79767 0
M  V30 3380 N 307.445 0.0818655 -1.57387 0
M  V30 3381 C 308.691 0.784074 -1.8703 0
M  V30 3382 C 309.024 1.77729 -0.782689 0
M  V30 3383 O 308.299 1.93384 0.208051 0
M  V30 3384 C 308.582 1.50105 -3.27323 0
M  V30 3385 C 308.435 0.524925 -4.46727 0
M  V30 3386 C 309.754 2.44843 -3.65705 0
M  V30 3387 H 306.873 0.283582 -0.680257 0
M  V30 3388 H 309.515 0.0474352 -1.89941 0
M  V30 3389 H 307.665 2.12897 -3.24972 0
M  V30 3390 H 309.337 -0.0970111 -4.61198 0
M  V30 3391 H 307.58 -0.160606 -4.33503 0
M  V30 3392 H 308.251 1.064 -5.41648 0
M  V30 3393 H 310.727 1.92135 -3.69085 0
M  V30 3394 H 309.603 2.92018 -4.64776 0
M  V30 3395 H 309.864 3.29197 -2.95096 0
M  V30 3396 N 308.923 1.53595 0.353017 0
M  V30 3397 C 310.171 1.70049 1.09215 0
M  V30 3398 C 310.492 0.461406 1.89463 0
M  V30 3399 O 309.762 -0.524633 1.88744 0
M  V30 3400 H 308.342 0.626912 0.40619 0
M  V30 3401 H 311.004 1.90822 0.396585 0
M  V30 3402 H 310.1 2.56718 1.77488 0
M  V30 3403 N 310.401 -0.613514 1.45168 0
M  V30 3404 C 311.641 -1.38405 1.5041 0
M  V30 3405 C 312.005 -1.91489 0.139922 0
M  V30 3406 O 313.206 -2.68716 0.067033 0
M  V30 3407 C 311.477 -2.50552 2.5487 0
M  V30 3408 S 313.036 -3.38439 2.79292 0
M  V30 3409 H 309.854 -0.471945 0.531779 0
M  V30 3410 H 312.456 -0.708518 1.82209 0
M  V30 3411 H 311.16 -2.09894 3.52665 0
M  V30 3412 H 310.691 -3.22913 2.24701 0
M  V30 3413 H 312.706 -4.48527 2.12222 0
M  V30 3414 N 311.879 -1.3236 -0.855495 0
M  V30 3415 C 313.128 -1.22226 -1.60448 0
M  V30 3416 C 313.441 0.214733 -1.94418 0
M  V30 3417 O 314.647 0.437917 -2.67945 0
M  V30 3418 C 313.103 -2.14063 -2.89318 0
M  V30 3419 C 312.711 -3.62839 -2.62777 0
M  V30 3420 C 314.455 -2.12764 -3.67331 0
M  V30 3421 C 312.362 -4.4664 -3.87643 0
M  V30 3422 H 311.292 -0.453904 -0.602069 0
M  V30 3423 H 313.943 -1.57314 -0.944698 0
M  V30 3424 H 312.325 -1.71889 -3.5675 0
M  V30 3425 H 313.499 -4.1335 -2.03662 0
M  V30 3426 H 311.814 -3.66261 -1.98096 0
M  V30 3427 H 314.411 -2.72611 -4.59987 0
M  V30 3428 H 314.754 -1.11841 -4.00995 0
M  V30 3429 H 315.287 -2.53214 -3.06802 0
M  V30 3430 H 312.026 -5.48373 -3.5912 0
M  V30 3431 H 311.546 -4.0088 -4.46156 0
M  V30 3432 H 313.225 -4.59597 -4.55389 0
M  V30 3433 N 313.357 1.07166 -1.15556 0
M  V30 3434 C 314.29 2.13808 -0.797593 0
M  V30 3435 C 315.268 1.6101 0.226812 0
M  V30 3436 O 316.452 1.88161 0.112932 0
M  V30 3437 C 313.579 3.38187 -0.186371 0
M  V30 3438 C 312.625 4.09766 -1.18297 0
M  V30 3439 S 313.458 4.60932 -2.72584 0
M  V30 3440 C 314.614 5.88583 -2.12886 0
M  V30 3441 H 314.847 2.43843 -1.70083 0
M  V30 3442 H 312.38 1.19467 -0.978106 0
M  V30 3443 H 314.338 4.10189 0.159837 0
M  V30 3444 H 312.999 3.06326 0.694489 0
M  V30 3445 H 312.192 4.99065 -0.703562 0
M  V30 3446 H 311.794 3.43736 -1.47381 0
M  V30 3447 H 314.086 6.60866 -1.49208 0
M  V30 3448 H 315.029 6.41241 -3.0036 0
M  V30 3449 H 315.437 5.42194 -1.57116 0
M  V30 3450 N 314.835 0.952656 1.25548 0
M  V30 3451 C 315.798 0.475794 2.24207 0
M  V30 3452 C 316.798 -0.419428 1.55234 0
M  V30 3453 O 317.988 -0.216994 1.72843 0
M  V30 3454 C 315.12 -0.312814 3.39462 0
M  V30 3455 H 316.313 1.34779 2.67908 0
M  V30 3456 H 313.866 0.735739 1.37901 0
M  V30 3457 H 314.601 -1.20257 3.01179 0
M  V30 3458 H 314.386 0.329404 3.90714 0
M  V30 3459 H 315.876 -0.635986 4.12729 0
M  V30 3460 N 316.313 -1.40141 0.720998 0
M  V30 3461 C 317.223 -2.34486 0.0731031 0
M  V30 3462 C 318.239 -1.57587 -0.737723 0
M  V30 3463 O 319.415 -1.89949 -0.669429 0
M  V30 3464 C 316.48 -3.36528 -0.833656 0
M  V30 3465 C 315.541 -4.29298 -0.0121673 0
M  V30 3466 C 314.774 -5.26466 -0.875742 0
M  V30 3467 O 314.997 -5.29745 -2.11485 0
M  V30 3468 O 313.931 -6.01092 -0.31185 0
M  V30 3469 H 317.757 -2.9152 0.851444 0
M  V30 3470 H 315.342 -1.41427 0.481527 0
M  V30 3471 H 317.224 -3.99093 -1.35289 0
M  V30 3472 H 315.899 -2.81899 -1.59105 0
M  V30 3473 H 314.806 -3.70001 0.552262 0
M  V30 3474 H 316.139 -4.87094 0.707129 0
M  V30 3475 N 317.792 -0.46758 -1.50504 0
M  V30 3476 C 318.722 0.318381 -2.31319 0
M  V30 3477 C 319.703 0.993564 -1.38066 0
M  V30 3478 O 320.888 0.991411 -1.66987 0
M  V30 3479 C 318.018 1.40275 -3.17711 0
M  V30 3480 C 316.972 0.849373 -4.19487 0
M  V30 3481 C 316.298 2.03177 -4.94594 0
M  V30 3482 C 317.598 -0.136942 -5.2212 0
M  V30 3483 H 319.292 -0.356106 -2.97275 0
M  V30 3484 H 316.838 -0.172703 -1.42961 0
M  V30 3485 H 318.791 1.96004 -3.73042 0
M  V30 3486 H 317.515 2.10596 -2.49634 0
M  V30 3487 H 316.174 0.314076 -3.65252 0
M  V30 3488 H 315.822 2.72187 -4.22993 0
M  V30 3489 H 315.522 1.66774 -5.63436 0
M  V30 3490 H 317.046 2.59403 -5.52759 0
M  V30 3491 H 318.46 0.331056 -5.72343 0
M  V30 3492 H 316.857 -0.41507 -5.98663 0
M  V30 3493 H 317.927 -1.06398 -4.73083 0
M  V30 3494 N 319.27 1.56325 -0.20005 0
M  V30 3495 C 320.2 2.22318 0.713916 0
M  V30 3496 C 321.181 1.18788 1.21752 0
M  V30 3497 O 322.366 1.47309 1.26545 0
M  V30 3498 C 319.496 2.88639 1.93144 0
M  V30 3499 C 318.45 3.98457 1.56255 0
M  V30 3500 C 317.776 4.51967 2.85709 0
M  V30 3501 C 319.076 5.16612 0.768747 0
M  V30 3502 H 320.77 2.98952 0.163755 0
M  V30 3503 H 318.316 1.43792 0.0773219 0
M  V30 3504 H 320.269 3.33491 2.57608 0
M  V30 3505 H 318.993 2.09419 2.50621 0
M  V30 3506 H 317.652 3.54305 0.941471 0
M  V30 3507 H 317.3 3.69503 3.41287 0
M  V30 3508 H 317 5.26071 2.6177 0
M  V30 3509 H 318.524 4.99523 3.51154 0
M  V30 3510 H 319.938 5.57977 1.3166 0
M  V30 3511 H 318.335 5.96812 0.627286 0
M  V30 3512 H 319.405 4.84358 -0.229168 0
M  V30 3513 N 320.748 -0.0735177 1.57428 0
M  V30 3514 C 321.68 -1.11423 2.00294 0
M  V30 3515 C 322.693 -1.35084 0.908637 0
M  V30 3516 O 323.882 -1.33355 1.18654 0
M  V30 3517 C 320.982 -2.46548 2.32523 0
M  V30 3518 C 320.155 -2.42867 3.63778 0
M  V30 3519 C 319.214 -3.60087 3.83697 0
M  V30 3520 O 318.24 -3.41595 4.55304 0
M  V30 3521 N 319.442 -4.80372 3.25919 0
M  V30 3522 H 322.207 -0.749206 2.90184 0
M  V30 3523 H 319.768 -0.262195 1.59763 0
M  V30 3524 H 321.76 -3.23607 2.43024 0
M  V30 3525 H 320.33 -2.75059 1.48531 0
M  V30 3526 H 319.55 -1.51206 3.64047 0
M  V30 3527 H 320.838 -2.37506 4.49965 0
M  V30 3528 H 320.236 -4.983 2.67795 0
M  V30 3529 H 318.793 -5.54948 3.41871 0
M  V30 3530 N 322.226 -1.5378 -0.344866 0
M  V30 3531 C 323.474 -1.70625 -1.08311 0
M  V30 3532 C 323.795 -0.471447 -1.89215 0
M  V30 3533 O 323.065 0.514616 -1.8902 0
M  V30 3534 H 321.645 -0.629058 -0.402859 0
M  V30 3535 H 324.307 -1.9103 -0.386459 0
M  V30 3536 H 323.403 -2.57656 -1.76124 0
M  V30 3537 N 323.704 0.605807 -1.45491 0
M  V30 3538 C 324.651 1.7164 -1.54299 0
M  V30 3539 C 325.621 1.61486 -0.388761 0
M  V30 3540 O 326.806 1.81039 -0.602445 0
M  V30 3541 C 323.946 3.09953 -1.51734 0
M  V30 3542 C 323.059 3.309 -2.77721 0
M  V30 3543 C 322.194 4.59329 -2.66816 0
M  V30 3544 C 321.233 4.7354 -3.87848 0
M  V30 3545 N 320.37 5.9327 -3.75467 0
M  V30 3546 H 325.21 1.63449 -2.49176 0
M  V30 3547 H 322.747 0.796957 -1.23641 0
M  V30 3548 H 324.705 3.89977 -1.48235 0
M  V30 3549 H 323.335 3.17098 -0.604068 0
M  V30 3550 H 322.387 2.44639 -2.913 0
M  V30 3551 H 323.699 3.37274 -3.67488 0
M  V30 3552 H 322.853 5.4755 -2.61292 0
M  V30 3553 H 321.592 4.55355 -1.74651 0
M  V30 3554 H 320.597 3.83741 -3.93729 0
M  V30 3555 H 321.822 4.79309 -4.81082 0
M  V30 3556 H 319.768 5.90338 -2.86072 0
M  V30 3557 H 319.685 6.00811 -4.5887 0
M  V30 3558 H 320.953 6.83984 -3.73879 0
M  V30 3559 N 325.182 1.32811 0.848464 0
M  V30 3560 C 326.145 1.22194 1.9391 0
M  V30 3561 C 327.145 0.143404 1.60159 0
M  V30 3562 O 328.335 0.394253 1.6968 0
M  V30 3563 C 325.467 0.88067 3.29328 0
M  V30 3564 H 326.66 2.19127 2.04752 0
M  V30 3565 H 324.213 1.16731 1.0394 0
M  V30 3566 H 324.948 -0.0865776 3.24184 0
M  V30 3567 H 324.733 1.66052 3.55203 0
M  V30 3568 H 326.223 0.830871 4.09251 0
M  V30 3569 N 326.66 -1.06551 1.16123 0
M  V30 3570 C 327.59 -2.15935 0.88851 0
M  V30 3571 C 328.571 -1.69306 -0.164135 0
M  V30 3572 O 329.756 -1.94193 -0.0167857 0
M  V30 3573 C 326.886 -3.45149 0.385942 0
M  V30 3574 C 325.84 -4.05271 1.3762 0
M  V30 3575 C 325.166 -5.29664 0.732137 0
M  V30 3576 C 326.466 -4.44355 2.74493 0
M  V30 3577 H 328.16 -2.39006 1.80323 0
M  V30 3578 H 325.706 -1.14866 0.868435 0
M  V30 3579 H 327.659 -4.21004 0.182647 0
M  V30 3580 H 326.383 -3.21689 -0.564274 0
M  V30 3581 H 325.042 -3.3147 1.56599 0
M  V30 3582 H 324.69 -5.02499 -0.224483 0
M  V30 3583 H 324.39 -5.70848 1.39307 0
M  V30 3584 H 325.914 -6.08218 0.538802 0
M  V30 3585 H 327.328 -5.11303 2.59311 0
M  V30 3586 H 325.725 -4.96515 3.37035 0
M  V30 3587 H 326.795 -3.55339 3.29943 0
M  V30 3588 N 328.138 -0.959301 -1.25041 0
M  V30 3589 C 329.385 -0.616611 -1.92884 0
M  V30 3590 C 329.713 0.847036 -1.75087 0
M  V30 3591 O 328.968 1.62374 -1.09239 0
M  V30 3592 C 329.267 -0.927136 -3.45165 0
M  V30 3593 C 328.933 -2.37757 -3.83122 0
M  V30 3594 C 327.595 -2.77402 -3.93194 0
M  V30 3595 C 329.947 -3.31929 -4.01836 0
M  V30 3596 C 327.275 -4.10277 -4.19392 0
M  V30 3597 C 329.627 -4.64423 -4.29528 0
M  V30 3598 C 328.291 -5.03857 -4.37818 0
M  V30 3599 H 327.561 -0.225634 -0.705812 0
M  V30 3600 H 330.208 -1.20921 -1.48493 0
M  V30 3601 H 328.513 -0.252195 -3.90987 0
M  V30 3602 H 330.21 -0.6405 -3.95852 0
M  V30 3603 H 326.8 -2.06013 -3.75841 0
M  V30 3604 H 330.984 -3.02488 -3.93465 0
M  V30 3605 H 326.24 -4.40467 -4.24027 0
M  V30 3606 H 330.414 -5.37369 -4.42953 0
M  V30 3607 H 328.041 -6.06843 -4.57871 0
M  V30 3608 N 329.616 1.39756 -0.72842 0
M  V30 3609 C 331.027 1.83498 -0.344289 0
M  V30 3610 C 331.378 1.60868 1.12321 0
M  V30 3611 O 330.503 1.09634 1.86573 0
M  V30 3612 C 331.098 3.33114 -0.618112 0
M  V30 3613 C 329.657 3.753 -0.287549 0
M  V30 3614 C 328.804 2.62831 -0.884048 0
M  V30 3615 H 331.755 1.28842 -0.926578 0
M  V30 3616 H 331.776 3.80334 0.112349 0
M  V30 3617 H 331.288 3.49553 -1.68625 0
M  V30 3618 H 329.389 3.64451 0.775012 0
M  V30 3619 H 329.502 4.72945 -0.765512 0
M  V30 3620 H 327.866 2.52792 -0.311149 0
M  V30 3621 H 328.649 2.82078 -1.95671 0
M  V30 3622 N 331.094 0.475555 1.50254 0
M  V30 3623 C 332.342 -0.077738 2.0195 0
M  V30 3624 C 332.663 -1.39813 1.35931 0
M  V30 3625 O 331.933 -1.89249 0.506123 0
M  V30 3626 H 330.513 -0.031719 0.746326 0
M  V30 3627 H 333.175 0.626995 1.84539 0
M  V30 3628 H 332.271 -0.225995 3.11281 0
M  V30 3629 N 332.573 -1.56217 0.208337 0
M  V30 3630 C 333.798 -2.02782 -0.435222 0
M  V30 3631 C 334.223 -1.08738 -1.53485 0
M  V30 3632 O 333.581 -0.0731855 -1.81152 0
M  V30 3633 C 333.629 -3.47687 -0.956335 0
M  V30 3634 O 332.733 -3.56773 -2.06849 0
M  V30 3635 H 332.074 -0.656403 -0.100158 0
M  V30 3636 H 334.604 -2.02033 0.3231 0
M  V30 3637 H 334.614 -3.87745 -1.26955 0
M  V30 3638 H 333.289 -4.15624 -0.15143 0
M  V30 3639 H 331.866 -3.28597 -1.76292 0
M  V30 3640 N 334.051 0.0651679 -1.57465 0
M  V30 3641 C 335.328 0.79644 -1.78651 0
M  V30 3642 C 335.708 1.95454 -0.797566 0
M  V30 3643 O 335.056 2.27882 0.167946 0
M  V30 3644 C 335.266 1.26322 -3.25337 0
M  V30 3645 C 336.614 1.6939 -3.89348 0
M  V30 3646 O 337.638 1.35872 -3.29268 0
M  V30 3647 O 336.497 2.31471 -4.95059 0
M  V30 3648 H 333.591 0.382157 -0.733407 0
M  V30 3649 H 336.137 0.0447311 -1.69641 0
M  V30 3650 H 334.909 0.434859 -3.88876 0
M  V30 3651 H 334.532 2.07604 -3.39096 0
M  V30 3652 N 335.529 1.53961 0.336706 0
M  V30 3653 C 336.759 1.75229 1.09446 0
M  V30 3654 C 337.167 0.494602 1.82621 0
M  V30 3655 O 336.51 -0.543764 1.75468 0
M  V30 3656 C 336.572 2.88288 2.1478 0
M  V30 3657 C 336.236 4.27656 1.6112 0
M  V30 3658 C 337.233 5.08981 1.0599 0
M  V30 3659 C 334.918 4.74161 1.6576 0
M  V30 3660 C 336.912 6.34916 0.562129 0
M  V30 3661 C 334.599 6.00067 1.15595 0
M  V30 3662 C 335.597 6.80278 0.609147 0
M  V30 3663 O 335.285 8.03818 0.114999 0
M  V30 3664 H 335.017 0.588881 0.331956 0
M  V30 3665 H 337.571 2.01614 0.392566 0
M  V30 3666 H 335.801 2.57443 2.88548 0
M  V30 3667 H 337.49 2.97461 2.76174 0
M  V30 3668 H 338.256 4.74213 1.01722 0
M  V30 3669 H 334.135 4.11781 2.07261 0
M  V30 3670 H 337.679 6.9747 0.134668 0
M  V30 3671 H 333.576 6.3433 1.19566 0
M  V30 3672 H 334.344 8.18172 0.231651 0
M  V30 3673 N 337.007 -0.598083 1.45811 0
M  V30 3674 C 338.256 -1.35295 1.49594 0
M  V30 3675 C 338.569 -1.95057 0.145679 0
M  V30 3676 O 339.775 -2.71431 0.0612099 0
M  V30 3677 C 338.231 -2.45124 2.63519 0
M  V30 3678 C 337.839 -1.91732 4.04899 0
M  V30 3679 C 339.583 -3.2205 2.76558 0
M  V30 3680 C 337.49 -2.991 5.1019 0
M  V30 3681 H 336.42 -0.508552 0.556679 0
M  V30 3682 H 339.071 -0.639977 1.71978 0
M  V30 3683 H 337.453 -3.19149 2.34435 0
M  V30 3684 H 338.627 -1.24352 4.43704 0
M  V30 3685 H 336.942 -1.27522 3.96393 0
M  V30 3686 H 339.539 -4.0215 3.52391 0
M  V30 3687 H 339.882 -3.73663 1.83526 0
M  V30 3688 H 340.415 -2.55127 3.05213 0
M  V30 3689 H 337.154 -2.52393 6.04961 0
M  V30 3690 H 336.674 -3.65017 4.75944 0
M  V30 3691 H 338.353 -3.63318 5.35359 0
M  V30 3692 N 338.485 -1.33259 -0.841409 0
M  V30 3693 C 339.762 -1.15174 -1.58096 0
M  V30 3694 C 340.142 0.282858 -2.09196 0
M  V30 3695 O 339.49 1.28151 -1.89181 0
M  V30 3696 C 339.7 -2.1907 -2.71679 0
M  V30 3697 C 341.048 -2.53093 -3.40924 0
M  V30 3698 O 342.072 -2.17717 -2.81918 0
M  V30 3699 O 340.931 -3.1379 -4.47435 0
M  V30 3700 H 338.025 -0.445303 -0.696875 0
M  V30 3701 H 340.571 -1.44833 -0.884385 0
M  V30 3702 H 339.343 -3.15443 -2.31541 0
M  V30 3703 H 338.966 -1.90481 -3.49002 0
M  V30 3704 N 339.963 1.05934 -1.16686 0
M  V30 3705 C 340.895 2.13468 -0.834503 0
M  V30 3706 C 341.908 1.62013 0.15984 0
M  V30 3707 O 343.097 1.7838 -0.0654228 0
M  V30 3708 C 340.197 3.3817 -0.222361 0
M  V30 3709 C 339.37 4.18928 -1.25771 0
M  V30 3710 C 338.429 5.21985 -0.664703 0
M  V30 3711 O 337.455 5.53334 -1.33453 0
M  V30 3712 N 338.657 5.77919 0.546834 0
M  V30 3713 H 341.422 2.42578 -1.75999 0
M  V30 3714 H 338.983 1.21967 -1.06469 0
M  V30 3715 H 340.975 4.04266 0.187472 0
M  V30 3716 H 339.545 3.06655 0.606758 0
M  V30 3717 H 338.765 3.48433 -1.84358 0
M  V30 3718 H 340.053 4.69687 -1.95631 0
M  V30 3719 H 339.451 5.54721 1.10912 0
M  V30 3720 H 338.008 6.45573 0.898829 0
M  V30 3721 N 341.441 0.965919 1.2453 0
M  V30 3722 C 342.371 0.513476 2.27784 0
M  V30 3723 C 343.352 -0.445974 1.6415 0
M  V30 3724 O 344.537 -0.342485 1.91156 0
M  V30 3725 C 341.667 -0.198839 3.4673 0
M  V30 3726 C 340.621 0.676456 4.2262 0
M  V30 3727 C 339.947 -0.167248 5.34438 0
M  V30 3728 C 341.247 1.96017 4.84123 0
M  V30 3729 H 342.941 1.3765 2.65881 0
M  V30 3730 H 340.487 0.663321 1.27813 0
M  V30 3731 H 342.44 -0.526567 4.18097 0
M  V30 3732 H 341.164 -1.0962 3.07654 0
M  V30 3733 H 339.823 0.98743 3.53052 0
M  V30 3734 H 339.471 -1.0647 4.91603 0
M  V30 3735 H 339.171 0.415181 5.86131 0
M  V30 3736 H 340.695 -0.489688 6.08633 0
M  V30 3737 H 342.109 1.69814 5.47573 0
M  V30 3738 H 340.506 2.48918 5.4604 0
M  V30 3739 H 341.576 2.65622 4.05676 0
M  V30 3740 N 342.919 -1.39368 0.735821 0
M  V30 3741 C 343.866 -2.30599 0.0963825 0
M  V30 3742 C 344.836 -1.49257 -0.728794 0
M  V30 3743 O 346.021 -1.77941 -0.688588 0
M  V30 3744 C 343.161 -3.35596 -0.804305 0
M  V30 3745 C 342.274 -4.31987 0.0335761 0
M  V30 3746 C 341.409 -5.24053 -0.868461 0
M  V30 3747 C 340.448 -6.12095 -0.0258776 0
M  V30 3748 N 339.585 -6.96514 -0.883893 0
M  V30 3749 H 344.425 -2.8471 0.880002 0
M  V30 3750 H 341.962 -1.40188 0.445619 0
M  V30 3751 H 343.92 -3.95062 -1.34096 0
M  V30 3752 H 342.55 -2.82938 -1.55389 0
M  V30 3753 H 341.602 -3.74133 0.68766 0
M  V30 3754 H 342.914 -4.94074 0.685036 0
M  V30 3755 H 342.068 -5.88549 -1.47293 0
M  V30 3756 H 340.807 -4.62289 -1.5537 0
M  V30 3757 H 339.812 -5.4661 0.591386 0
M  V30 3758 H 341.037 -6.75923 0.656156 0
M  V30 3759 H 338.983 -6.37318 -1.55441 0
M  V30 3760 H 338.9 -7.55448 -0.288931 0
M  V30 3761 H 340.168 -7.65439 -1.4739 0
M  V30 3762 N 344.397 -0.483516 -1.5 0
M  V30 3763 C 345.813 -0.138404 -1.58999 0
M  V30 3764 C 346.013 1.35597 -1.4905 0
M  V30 3765 O 345.069 2.13039 -1.35539 0
M  V30 3766 C 346.382 -0.699658 -2.92447 0
M  V30 3767 C 347.93 -0.664195 -3.05872 0
M  V30 3768 C 348.405 -1.20321 -4.41913 0
M  V30 3769 N 349.896 -1.16315 -4.48358 0
M  V30 3770 C 350.631 -1.55058 -5.52037 0
M  V30 3771 N 350.127 -2.01311 -6.62907 0
M  V30 3772 N 351.92 -1.46584 -5.42651 0
M  V30 3773 H 344.071 -1.45529 -1.5471 0
M  V30 3774 H 346.334 -0.60258 -0.731848 0
M  V30 3775 H 346.04 -1.747 -3.05242 0
M  V30 3776 H 345.914 -0.150194 -3.76901 0
M  V30 3777 H 348.301 0.374272 -2.92717 0
M  V30 3778 H 348.382 -1.25061 -2.23144 0
M  V30 3779 H 348.026 -2.24037 -4.55818 0
M  V30 3780 H 347.956 -0.592896 -5.23252 0
M  V30 3781 H 350.447 -0.824058 -3.68806 0
M  V30 3782 H 350.76 -2.2899 -7.38095 0
M  V30 3783 H 349.105 -2.05273 -6.63994 0
M  V30 3784 H 352.296 -1.10281 -4.54924 0
M  V30 3785 H 352.469 -1.77103 -6.23329 0
M  V30 3786 N 345.875 1.56104 -0.216619 0
M  V30 3787 C 347.124 1.97348 0.416744 0
M  V30 3788 C 347.437 1.10715 1.6125 0
M  V30 3789 O 348.643 1.41836 2.31506 0
M  V30 3790 C 347.099 3.51059 0.792835 0
M  V30 3791 C 346.707 4.46387 -0.379828 0
M  V30 3792 C 348.451 4.01026 1.39208 0
M  V30 3793 C 346.358 5.91397 0.0184223 0
M  V30 3794 H 345.288 0.736942 0.159475 0
M  V30 3795 H 347.939 1.80827 -0.31205 0
M  V30 3796 H 346.321 3.63162 1.57891 0
M  V30 3797 H 347.495 4.46029 -1.15737 0
M  V30 3798 H 345.81 4.06734 -0.891979 0
M  V30 3799 H 348.407 5.0686 1.70286 0
M  V30 3800 H 348.75 3.46587 2.30614 0
M  V30 3801 H 349.283 3.92125 0.669537 0
M  V30 3802 H 346.022 6.49807 -0.862002 0
M  V30 3803 H 345.542 5.94961 0.760384 0
M  V30 3804 H 347.221 6.45455 0.446818 0
M  V30 3805 N 347.353 -0.0568162 1.57498 0
M  V30 3806 C 348.286 -1.09817 2.00039 0
M  V30 3807 C 349.264 -1.3674 0.879819 0
M  V30 3808 O 350.448 -1.49863 1.14338 0
M  V30 3809 C 347.575 -2.43924 2.34986 0
M  V30 3810 C 346.621 -2.33039 3.57204 0
M  V30 3811 S 347.454 -1.7102 5.07457 0
M  V30 3812 C 348.61 -3.06674 5.45621 0
M  V30 3813 H 348.843 -0.735701 2.88053 0
M  V30 3814 H 346.376 -0.265871 1.52094 0
M  V30 3815 H 348.334 -3.2106 2.55795 0
M  V30 3816 H 346.995 -2.77327 1.47474 0
M  V30 3817 H 346.188 -3.31973 3.79223 0
M  V30 3818 H 345.79 -1.64043 3.36104 0
M  V30 3819 H 348.082 -4.03 5.44608 0
M  V30 3820 H 349.025 -2.8942 6.46252 0
M  V30 3821 H 349.433 -3.07969 4.73091 0
M  V30 3822 N 348.832 -1.54138 -0.328536 0
M  V30 3823 C 349.742 -1.86192 -1.42723 0
M  V30 3824 C 350.758 -0.753382 -1.56844 0
M  V30 3825 O 351.934 -1.04718 -1.72035 0
M  V30 3826 C 348.999 -2.07824 -2.77507 0
M  V30 3827 C 348.06 -3.31641 -2.72603 0
M  V30 3828 C 347.293 -3.52232 -4.00959 0
M  V30 3829 O 347.516 -2.7636 -4.9898 0
M  V30 3830 O 346.45 -4.45699 -4.0452 0
M  V30 3831 H 350.276 -2.79608 -1.18547 0
M  V30 3832 H 347.861 -1.3998 -0.522104 0
M  V30 3833 H 349.743 -2.23411 -3.57303 0
M  V30 3834 H 348.418 -1.17596 -3.01584 0
M  V30 3835 H 347.325 -3.21444 -1.91376 0
M  V30 3836 H 348.658 -4.2191 -2.53481 0
M  V30 3837 N 350.31 0.590341 -1.46126 0
M  V30 3838 C 351.556 1.35082 -1.51264 0
M  V30 3839 C 351.889 1.93534 -0.160711 0
M  V30 3840 O 351.164 1.76045 0.826956 0
M  V30 3841 C 351.447 2.48588 -2.6053 0
M  V30 3842 C 351.3 1.95221 -4.05227 0
M  V30 3843 C 352.619 3.50662 -2.6594 0
M  V30 3844 H 349.738 0.489803 -0.550692 0
M  V30 3845 H 352.38 0.663887 -1.78024 0
M  V30 3846 H 350.53 3.07186 -2.37843 0
M  V30 3847 H 352.202 1.41139 -4.39178 0
M  V30 3848 H 350.445 1.26101 -4.15068 0
M  V30 3849 H 351.116 2.77121 -4.77397 0
M  V30 3850 H 353.592 3.01934 -2.86313 0
M  V30 3851 H 352.468 4.27551 -3.44226 0
M  V30 3852 H 352.729 4.07399 -1.71694 0
M  V30 3853 N 351.788 1.33704 0.83433 0
M  V30 3854 C 353.034 1.25603 1.59222 0
M  V30 3855 C 353.367 -0.176659 1.93395 0
M  V30 3856 O 352.642 -1.11915 1.59076 0
M  V30 3857 C 352.925 2.13576 2.89926 0
M  V30 3858 C 352.778 3.65326 2.62406 0
M  V30 3859 C 354.097 2.01238 3.91397 0
M  V30 3860 H 351.216 0.457613 0.577719 0
M  V30 3861 H 353.858 1.63848 0.961972 0
M  V30 3862 H 352.008 1.8109 3.43713 0
M  V30 3863 H 353.68 4.08124 2.15017 0
M  V30 3864 H 351.923 3.8698 1.96033 0
M  V30 3865 H 352.594 4.22232 3.55562 0
M  V30 3866 H 355.07 2.29738 3.46929 0
M  V30 3867 H 353.946 2.65036 4.80673 0
M  V30 3868 H 354.207 0.985951 4.30966 0
M  V30 3869 N 353.266 -1.05314 1.17247 0
M  V30 3870 C 354.514 -1.77941 0.958194 0
M  V30 3871 C 354.835 -1.88089 -0.514556 0
M  V30 3872 O 354.105 -1.39676 -1.37359 0
M  V30 3873 H 352.685 -0.659116 0.351533 0
M  V30 3874 H 355.347 -1.27166 1.47699 0
M  V30 3875 H 354.443 -2.79663 1.38546 0
M  V30 3876 N 354.744 -0.972509 -1.24016 0
M  V30 3877 C 355.972 -0.654803 -1.96265 0
M  V30 3878 C 356.387 0.776708 -1.72083 0
M  V30 3879 O 355.744 1.52171 -1.00748 0
M  V30 3880 C 355.795 -0.92592 -3.49441 0
M  V30 3881 O 355.516 -2.30116 -3.72798 0
M  V30 3882 C 357.017 -0.623068 -4.38899 0
M  V30 3883 H 354.237 -0.243907 -0.6251 0
M  V30 3884 H 356.781 -1.30175 -1.57717 0
M  V30 3885 H 354.936 -0.325108 -3.86033 0
M  V30 3886 H 355.35 -2.38483 -4.67147 0
M  V30 3887 H 356.824 -0.863189 -5.45209 0
M  V30 3888 H 357.301 0.442754 -4.36963 0
M  V30 3889 H 357.907 -1.204 -4.07902 0
M  V30 3890 N 356.222 1.38976 -0.743202 0
M  V30 3891 C 357.633 1.83123 -0.363732 0
M  V30 3892 C 357.984 1.6205 1.10609 0
M  V30 3893 O 357.109 1.11606 1.854 0
M  V30 3894 C 357.704 3.32439 -0.653408 0
M  V30 3895 C 356.263 3.74974 -0.327338 0
M  V30 3896 C 355.41 2.61878 -0.911875 0
M  V30 3897 H 358.361 1.27852 -0.940191 0
M  V30 3898 H 358.382 3.80432 0.0720031 0
M  V30 3899 H 357.894 3.47745 -1.72323 0
M  V30 3900 H 355.995 3.65252 0.736314 0
M  V30 3901 H 356.108 4.72106 -0.815631 0
M  V30 3902 H 354.472 2.52448 -0.337944 0
M  V30 3903 H 355.255 2.79987 -1.98651 0
M  V30 3904 N 357.7 0.491464 1.49741 0
M  V30 3905 C 358.925 -0.0557177 2.07325 0
M  V30 3906 C 359.35 -1.30925 1.35056 0
M  V30 3907 O 358.708 -1.76733 0.404365 0
M  V30 3908 C 358.756 -0.302074 3.59333 0
M  V30 3909 O 357.86 -1.37868 3.88672 0
M  V30 3910 H 357.201 0.0219956 0.663636 0
M  V30 3911 H 359.731 0.688352 1.92673 0
M  V30 3912 H 359.741 -0.536464 4.04458 0
M  V30 3913 H 358.416 0.61383 4.11345 0
M  V30 3914 H 356.993 -1.12999 3.55367 0
M  V30 3915 N 359.178 -1.55987 0.224894 0
M  V30 3916 C 360.589 -1.84553 -0.282345 0
M  V30 3917 C 360.94 -1.14634 -1.59227 0
M  V30 3918 O 360.065 -0.417155 -2.12341 0
M  V30 3919 C 360.66 -3.348 -0.519062 0
M  V30 3920 C 359.219 -3.63671 -0.970604 0
M  V30 3921 C 358.366 -2.77277 -0.0355261 0
M  V30 3922 H 361.317 -1.52245 0.448006 0
M  V30 3923 H 361.338 -3.55187 -1.36463 0
M  V30 3924 H 360.85 -3.8566 0.43449 0
M  V30 3925 H 358.951 -3.1827 -1.9374 0
M  V30 3926 H 359.064 -4.71631 -0.842698 0
M  V30 3927 H 357.428 -2.48846 -0.542927 0
M  V30 3928 H 358.211 -3.30937 0.913003 0
M  V30 3929 N 360.656 0.0484629 -1.57525 0
M  V30 3930 C 361.566 1.07241 -2.08654 0
M  V30 3931 C 362.582 1.409 -1.02095 0
M  V30 3932 O 363.758 1.50609 -1.33712 0
M  V30 3933 C 360.823 2.36008 -2.5397 0
M  V30 3934 C 359.884 2.09108 -3.7493 0
M  V30 3935 C 359.117 3.31736 -4.18075 0
M  V30 3936 O 359.34 4.41714 -3.60895 0
M  V30 3937 O 358.274 3.18576 -5.10679 0
M  V30 3938 H 362.1 0.667965 -2.96263 0
M  V30 3939 H 359.685 0.26417 -1.47046 0
M  V30 3940 H 361.567 3.11747 -2.83535 0
M  V30 3941 H 360.242 2.75786 -1.69481 0
M  V30 3942 H 359.149 1.31 -3.50414 0
M  V30 3943 H 360.482 1.74198 -4.60343 0
M  V30 3944 N 362.134 1.5431 0.320358 0
M  V30 3945 C 363.38 1.72924 1.05949 0
M  V30 3946 C 363.713 0.503185 1.87568 0
M  V30 3947 O 362.988 -0.499839 1.87968 0
M  V30 3948 C 363.271 3.00676 1.98156 0
M  V30 3949 C 363.124 4.3354 1.19845 0
M  V30 3950 C 364.443 3.24198 2.9763 0
M  V30 3951 H 361.562 0.629195 0.383774 0
M  V30 3952 H 364.204 1.87008 0.335854 0
M  V30 3953 H 362.354 2.888 2.59859 0
M  V30 3954 H 364.026 4.57305 0.605773 0
M  V30 3955 H 362.269 4.309 0.500784 0
M  V30 3956 H 362.94 5.19156 1.87567 0
M  V30 3957 H 365.416 3.35557 2.4605 0
M  V30 3958 H 364.292 4.14938 3.59329 0
M  V30 3959 H 364.553 2.41577 3.7026 0
M  V30 3960 N 363.613 -0.582584 1.46437 0
M  V30 3961 C 364.543 -1.70187 1.59871 0
M  V30 3962 C 365.524 -1.64066 0.449042 0
M  V30 3963 O 366.709 -1.82081 0.6753 0
M  V30 3964 C 363.839 -3.08827 1.58881 0
M  V30 3965 C 362.793 -3.29779 2.72819 0
M  V30 3966 C 362.119 -4.68947 2.5689 0
M  V30 3967 C 363.419 -3.17601 4.1464 0
M  V30 3968 H 365.113 -1.592 2.53566 0
M  V30 3969 H 362.659 -0.764472 1.22032 0
M  V30 3970 H 364.612 -3.86951 1.66873 0
M  V30 3971 H 363.336 -3.20713 0.617306 0
M  V30 3972 H 361.995 -2.54054 2.64296 0
M  V30 3973 H 361.643 -4.77599 1.57823 0
M  V30 3974 H 361.343 -4.83919 3.33312 0
M  V30 3975 H 362.867 -5.4924 2.66773 0
M  V30 3976 H 364.281 -3.8557 4.24274 0
M  V30 3977 H 362.678 -3.44094 4.9165 0
M  V30 3978 H 363.748 -2.14681 4.34788 0
M  V30 3979 N 365.091 -1.34144 -0.827227 0
M  V30 3980 C 366.054 -1.25264 -1.91942 0
M  V30 3981 C 367.054 -0.168866 -1.59911 0
M  V30 3982 O 368.244 -0.421198 -1.69031 0
M  V30 3983 C 365.376 -0.932952 -3.27885 0
M  V30 3984 H 366.569 -2.22357 -2.0124 0
M  V30 3985 H 364.122 -1.1837 -1.0207 0
M  V30 3986 H 364.857 0.0349917 -3.24281 0
M  V30 3987 H 364.642 -1.71682 -3.52516 0
M  V30 3988 H 366.132 -0.895874 -4.07877 0
M  V30 3989 N 366.569 1.04691 -1.17803 0
M  V30 3990 C 367.516 2.12557 -0.899343 0
M  V30 3991 C 368.486 1.65339 0.158771 0
M  V30 3992 O 369.671 1.90789 0.0204797 0
M  V30 3993 C 366.811 3.42481 -0.424315 0
M  V30 3994 C 365.924 4.03346 -1.54713 0
M  V30 3995 C 365.059 5.21208 -1.02546 0
M  V30 3996 C 364.098 5.74089 -2.12339 0
M  V30 3997 N 363.235 6.83247 -1.61612 0
M  V30 3998 H 368.075 2.35734 -1.823 0
M  V30 3999 H 365.612 1.1564 -0.909159 0
M  V30 4000 H 367.57 4.16996 -0.130421 0
M  V30 4001 H 366.2 3.19471 0.462377 0
M  V30 4002 H 365.252 3.2622 -1.95664 0
M  V30 4003 H 366.564 4.38628 -2.37501 0
M  V30 4004 H 365.718 6.02812 -0.685718 0
M  V30 4005 H 364.457 4.87414 -0.167084 0
M  V30 4006 H 363.462 4.91111 -2.47165 0
M  V30 4007 H 364.687 6.0993 -2.98601 0
M  V30 4008 H 362.633 6.5134 -0.780533 0
M  V30 4009 H 362.55 7.17559 -2.38003 0
M  V30 4010 H 363.818 7.68491 -1.30545 0
M  V30 4011 N 368.047 0.979072 1.23499 0
M  V30 4012 C 369.296 0.642751 1.91185 0
M  V30 4013 C 369.609 -0.827253 1.77245 0
M  V30 4014 O 370.815 -1.27458 2.39722 0
M  V30 4015 C 369.271 1.09901 3.42709 0
M  V30 4016 C 368.879 2.59327 3.65313 0
M  V30 4017 C 370.623 0.836371 4.16179 0
M  V30 4018 C 368.53 2.98627 5.10467 0
M  V30 4019 H 367.46 0.236698 0.715884 0
M  V30 4020 H 370.111 1.1868 1.39955 0
M  V30 4021 H 368.493 0.48319 3.93041 0
M  V30 4022 H 369.667 3.26136 3.25533 0
M  V30 4023 H 367.982 2.83323 3.05151 0
M  V30 4024 H 370.579 1.10586 5.23139 0
M  V30 4025 H 370.922 -0.227509 4.15678 0
M  V30 4026 H 371.455 1.41371 3.71832 0
M  V30 4027 H 368.194 4.04133 5.16098 0
M  V30 4028 H 367.714 2.3651 5.51201 0
M  V30 4029 H 369.393 2.89159 5.78788 0
M  V30 4030 N 369.525 -1.3858 0.750561 0
M  V30 4031 C 370.75 -2.04997 0.314812 0
M  V30 4032 C 371.175 -1.56235 -1.04749 0
M  V30 4033 O 370.533 -0.712981 -1.66692 0
M  V30 4034 C 370.581 -3.58961 0.343415 0
M  V30 4035 O 369.685 -4.07025 -0.663628 0
M  V30 4036 H 369.026 -0.649081 0.139962 0
M  V30 4037 H 371.556 -1.77313 1.02084 0
M  V30 4038 H 371.566 -4.07542 0.193233 0
M  V30 4039 H 370.241 -3.93811 1.33738 0
M  V30 4040 H 368.818 -3.6982 -0.478307 0
M  V30 4041 N 371.003 -0.499398 -1.49478 0
M  V30 4042 C 372.228 0.044722 -2.07352 0
M  V30 4043 C 372.653 1.30207 -1.35749 0
M  V30 4044 O 372.011 1.76516 -0.413732 0
M  V30 4045 C 372.059 0.283013 -3.59488 0
M  V30 4046 O 371.163 1.35804 -3.89398 0
M  V30 4047 H 370.504 -0.0255147 -0.66351 0
M  V30 4048 H 373.034 -0.698561 -1.92305 0
M  V30 4049 H 373.044 0.515007 -4.04737 0
M  V30 4050 H 371.719 -0.635636 -4.11014 0
M  V30 4051 H 370.296 1.11113 -3.55961 0
M  V30 4052 N 372.481 1.55866 -0.233164 0
M  V30 4053 C 373.391 2.24431 0.683217 0
M  V30 4054 C 374.407 1.2558 1.2044 0
M  V30 4055 O 375.583 1.58422 1.24356 0
M  V30 4056 C 372.648 2.91979 1.86947 0
M  V30 4057 C 371.709 4.06204 1.38912 0
M  V30 4058 C 370.942 4.70522 2.51883 0
M  V30 4059 O 371.165 4.33865 3.70293 0
M  V30 4060 O 370.099 5.59296 2.22423 0
M  V30 4061 H 373.925 3.03426 0.129059 0
M  V30 4062 H 371.51 1.494 -0.0022283 0
M  V30 4063 H 373.392 3.34573 2.56201 0
M  V30 4064 H 372.067 2.15935 2.41151 0
M  V30 4065 H 370.974 3.68155 0.664259 0
M  V30 4066 H 372.307 4.84025 0.893328 0
M  V30 4067 N 373.959 -0.0401083 1.57549 0
M  V30 4068 C 374.909 -1.05175 2.02292 0
M  V30 4069 C 375.893 -1.32674 0.910294 0
M  V30 4070 O 377.085 -1.32444 1.17421 0
M  V30 4071 C 374.214 -2.35622 2.49674 0
M  V30 4072 C 373.3 -2.11261 3.67736 0
M  V30 4073 N 373.691 -1.56923 4.80842 0
M  V30 4074 C 371.989 -2.41596 3.74897 0
M  V30 4075 C 372.69 -1.48111 5.62528 0
M  V30 4076 N 371.666 -1.95282 5.07312 0
M  V30 4077 H 375.468 -0.625455 2.87168 0
M  V30 4078 H 372.982 -0.246624 1.60516 0
M  V30 4079 H 374.979 -3.08893 2.79983 0
M  V30 4080 H 373.639 -2.7894 1.662 0
M  V30 4081 H 374.65 -1.25345 5.02503 0
M  V30 4082 H 371.327 -2.88064 3.02201 0
M  V30 4083 H 372.717 -1.06683 6.63377 0
M  V30 4084 N 375.437 -1.54477 -0.31217 0
M  V30 4085 C 376.4 -1.83923 -1.36766 0
M  V30 4086 C 377.4 -0.711563 -1.44199 0
M  V30 4087 O 378.59 -0.979866 -1.44029 0
M  V30 4088 C 375.722 -2.0095 -2.75376 0
M  V30 4089 H 376.915 -2.78239 -1.11906 0
M  V30 4090 H 374.468 -1.46369 -0.548257 0
M  V30 4091 H 375.203 -1.08883 -3.05475 0
M  V30 4092 H 374.988 -2.83018 -2.71373 0
M  V30 4093 H 376.478 -2.2514 -3.51713 0
M  V30 4094 N 376.915 0.57481 -1.46744 0
M  V30 4095 C 378.331 0.898981 -1.31873 0
M  V30 4096 C 378.531 1.99313 -0.29605 0
M  V30 4097 O 377.587 2.50728 0.298621 0
M  V30 4098 C 378.9 1.30886 -2.7072 0
M  V30 4099 C 380.448 1.42127 -2.78871 0
M  V30 4100 C 380.923 1.86478 -4.18318 0
M  V30 4101 N 382.414 1.93658 -4.20774 0
M  V30 4102 C 383.149 2.29267 -5.2557 0
M  V30 4103 N 382.645 2.63612 -6.40688 0
M  V30 4104 N 384.438 2.29889 -5.1294 0
M  V30 4105 H 376.589 -0.147839 -2.11885 0
M  V30 4106 H 378.852 -0.00347013 -0.947994 0
M  V30 4107 H 378.558 0.578853 -3.46904 0
M  V30 4108 H 378.432 2.26874 -3.01343 0
M  V30 4109 H 380.819 2.14213 -2.0297 0
M  V30 4110 H 380.9 0.443705 -2.51922 0
M  V30 4111 H 380.544 1.14968 -4.94717 0
M  V30 4112 H 380.474 2.85207 -4.42679 0
M  V30 4113 H 382.965 1.69574 -3.37718 0
M  V30 4114 H 383.278 2.89759 -7.16421 0
M  V30 4115 H 381.623 2.61232 -6.44036 0
M  V30 4116 H 384.814 2.02485 -4.22039 0
M  V30 4117 H 384.987 2.57312 -5.94722 0
M  V30 4118 N 378.394 1.34581 0.820102 0
M  V30 4119 C 379.622 1.3018 1.60813 0
M  V30 4120 C 380.037 -0.123551 1.88395 0
M  V30 4121 O 379.394 -1.07148 1.47735 0
M  V30 4122 C 379.445 2.09312 2.94739 0
M  V30 4123 O 379.166 3.46288 2.68358 0
M  V30 4124 C 380.667 2.1234 3.89136 0
M  V30 4125 H 377.887 0.447726 0.499782 0
M  V30 4126 H 380.431 1.77237 1.02017 0
M  V30 4127 H 378.586 1.65889 3.50085 0
M  V30 4128 H 379 3.87227 3.53774 0
M  V30 4129 H 380.474 2.72126 4.80262 0
M  V30 4130 H 380.951 1.11854 4.24718 0
M  V30 4131 H 381.557 2.55864 3.39726 0
M  V30 4132 N 379.872 -1.04064 1.18357 0
M  V30 4133 C 381.102 -1.80654 1.00238 0
M  V30 4134 C 381.51 -1.83713 -0.452362 0
M  V30 4135 O 380.853 -1.27135 -1.32599 0
M  V30 4136 C 380.915 -3.27582 1.48088 0
M  V30 4137 C 380.579 -3.48184 2.96002 0
M  V30 4138 C 381.576 -3.39372 3.93856 0
M  V30 4139 C 379.261 -3.7478 3.34433 0
M  V30 4140 C 381.255 -3.5686 5.28138 0
M  V30 4141 C 378.942 -3.91915 4.68877 0
M  V30 4142 C 379.94 -3.82956 5.65539 0
M  V30 4143 O 379.628 -3.996 6.97549 0
M  V30 4144 H 379.36 -0.575751 0.354241 0
M  V30 4145 H 381.914 -1.32044 1.57333 0
M  V30 4146 H 380.144 -3.77161 0.853588 0
M  V30 4147 H 381.833 -3.8573 1.2636 0
M  V30 4148 H 382.599 -3.18789 3.65511 0
M  V30 4149 H 378.478 -3.80852 2.59756 0
M  V30 4150 H 382.022 -3.49783 6.03571 0
M  V30 4151 H 377.919 -4.11992 4.96923 0
M  V30 4152 H 378.687 -4.1676 7.04452 0
M  V30 4153 N 381.35 -0.985608 -1.22978 0
M  V30 4154 C 382.599 -0.652881 -1.90841 0
M  V30 4155 C 382.912 0.817842 -1.77681 0
M  V30 4156 O 384.118 1.26185 -2.40395 0
M  V30 4157 C 382.574 -1.11717 -3.42122 0
M  V30 4158 C 382.182 -2.6126 -3.63933 0
M  V30 4159 C 383.926 -0.85843 -4.1573 0
M  V30 4160 C 381.833 -3.0133 -5.08876 0
M  V30 4161 H 380.763 -0.240491 -0.714619 0
M  V30 4162 H 383.414 -1.1942 -1.39324 0
M  V30 4163 H 381.796 -0.504027 -3.92779 0
M  V30 4164 H 382.97 -3.27858 -3.23799 0
M  V30 4165 H 381.285 -2.84937 -3.03644 0
M  V30 4166 H 383.882 -1.13359 -5.22546 0
M  V30 4167 H 384.225 0.205461 -4.15793 0
M  V30 4168 H 384.758 -1.43341 -3.71077 0
M  V30 4169 H 381.497 -4.06864 -5.13947 0
M  V30 4170 H 381.017 -2.3943 -5.49939 0
M  V30 4171 H 382.696 -2.92224 -5.77247 0
M  V30 4172 N 382.828 1.3818 -0.7579 0
M  V30 4173 C 383.76 2.2901 -0.0932177 0
M  V30 4174 C 384.773 1.47958 0.679136 0
M  V30 4175 O 385.962 1.70773 0.519514 0
M  V30 4176 C 383.062 3.26953 0.89192 0
M  V30 4177 C 382.235 4.37045 0.176303 0
M  V30 4178 C 381.294 5.15148 1.07281 0
M  V30 4179 O 380.32 5.66616 0.541728 0
M  V30 4180 N 381.522 5.28542 2.40049 0
M  V30 4181 H 384.287 2.86694 -0.873303 0
M  V30 4182 H 381.848 1.50007 -0.609054 0
M  V30 4183 H 383.84 3.76083 1.49479 0
M  V30 4184 H 382.41 2.70136 1.57306 0
M  V30 4185 H 381.63 3.89493 -0.607328 0
M  V30 4186 H 382.918 5.07801 -0.318718 0
M  V30 4187 H 382.316 4.88285 2.85647 0
M  V30 4188 H 380.873 5.8103 2.95376 0
M  V30 4189 N 384.306 0.507319 1.49211 0
M  V30 4190 C 385.531 -0.033725 2.07373 0
M  V30 4191 C 385.956 -1.29485 1.36437 0
M  V30 4192 O 385.314 -1.76294 0.423087 0
M  V30 4193 C 385.362 -0.263945 3.59633 0
M  V30 4194 O 384.466 -1.33737 3.90113 0
M  V30 4195 H 383.807 0.0290331 0.663365 0
M  V30 4196 H 386.337 0.708749 1.91932 0
M  V30 4197 H 386.347 -0.493536 4.05004 0
M  V30 4198 H 385.022 0.657424 4.10671 0
M  V30 4199 H 383.599 -1.09224 3.56545 0
M  V30 4200 N 385.784 -1.5574 0.241426 0
M  V30 4201 C 386.714 -2.24133 -0.654722 0
M  V30 4202 C 387.695 -1.21974 -1.1856 0
M  V30 4203 O 388.88 -1.50612 -1.22595 0
M  V30 4204 C 386.01 -2.93659 -1.85423 0
M  V30 4205 C 384.964 -4.0246 -1.45636 0
M  V30 4206 C 384.29 -4.59383 -2.73626 0
M  V30 4207 C 385.59 -5.18468 -0.631506 0
M  V30 4208 H 387.284 -2.99281 -0.0844353 0
M  V30 4209 H 384.83 -1.43947 -0.0391707 0
M  V30 4210 H 386.783 -3.40203 -2.48676 0
M  V30 4211 H 385.507 -2.15991 -2.44981 0
M  V30 4212 H 384.166 -3.56676 -0.847202 0
M  V30 4213 H 383.814 -3.78422 -3.3137 0
M  V30 4214 H 383.514 -5.32826 -2.4773 0
M  V30 4215 H 385.038 -5.08658 -3.37786 0
M  V30 4216 H 386.452 -5.61272 -1.1682 0
M  V30 4217 H 384.849 -5.98266 -0.468831 0
M  V30 4218 H 385.919 -4.8358 0.357506 0
M  V30 4219 N 387.262 0.0317525 -1.57568 0
M  V30 4220 C 388.673 0.578692 -1.77505 0
M  V30 4221 C 389.024 1.75749 -0.872164 0
M  V30 4222 O 388.149 2.16298 -0.0663106 0
M  V30 4223 C 388.744 1.05658 -3.21904 0
M  V30 4224 C 387.303 1.54906 -3.43047 0
M  V30 4225 C 386.45 0.485939 -2.73009 0
M  V30 4226 H 389.401 -0.194475 -1.57504 0
M  V30 4227 H 389.422 1.92404 -3.28269 0
M  V30 4228 H 388.934 0.198422 -3.87592 0
M  V30 4229 H 387.035 2.42915 -2.82529 0
M  V30 4230 H 387.148 1.59841 -4.5165 0
M  V30 4231 H 385.512 0.940354 -2.36705 0
M  V30 4232 H 386.295 -0.362709 -3.41379 0
M  V30 4233 N 388.74 1.54641 0.303973 0
M  V30 4234 C 390.151 1.64811 0.877163 0
M  V30 4235 C 390.502 0.554838 1.88191 0
M  V30 4236 O 389.627 -0.309033 2.14182 0
M  V30 4237 C 390.222 2.9876 1.59775 0
M  V30 4238 C 388.781 3.11061 2.11938 0
M  V30 4239 C 387.928 2.60479 0.951097 0
M  V30 4240 H 390.879 1.58493 0.0810486 0
M  V30 4241 H 390.9 2.90017 2.46314 0
M  V30 4242 H 390.412 3.7831 0.866226 0
M  V30 4243 H 388.513 2.36225 2.88146 0
M  V30 4244 H 388.626 4.17171 2.35595 0
M  V30 4245 H 386.99 2.16859 1.33583 0
M  V30 4246 H 387.773 3.42504 0.233581 0
M  V30 4247 N 390.218 -0.567019 1.47046 0
M  V30 4248 C 391.151 -1.69016 1.53326 0
M  V30 4249 C 392.129 -1.57949 0.386126 0
M  V30 4250 O 393.313 -1.78945 0.592529 0
M  V30 4251 C 390.44 -3.07191 1.42658 0
M  V30 4252 C 389.486 -3.36733 2.6175 0
M  V30 4253 S 390.319 -3.27069 4.24012 0
M  V30 4254 C 391.475 -4.67755 4.1588 0
M  V30 4255 H 391.708 -1.63434 2.48348 0
M  V30 4256 H 389.241 -0.747048 1.35124 0
M  V30 4257 H 391.199 -3.86897 1.37191 0
M  V30 4258 H 389.86 -3.10249 0.490369 0
M  V30 4259 H 389.053 -4.37441 2.50323 0
M  V30 4260 H 388.655 -2.64627 2.64289 0
M  V30 4261 H 390.947 -5.58491 3.83529 0
M  V30 4262 H 391.89 -4.84239 5.16641 0
M  V30 4263 H 392.298 -4.45341 3.46889 0
M  V30 4264 N 391.696 -1.35014 -0.812953 0
M  V30 4265 C 393.107 -1.25035 -1.38648 0
M  V30 4266 C 393.458 0.119967 -1.95833 0
M  V30 4267 O 392.583 1.02069 -1.90816 0
M  V30 4268 C 393.178 -2.26394 -2.52054 0
M  V30 4269 C 391.737 -2.20175 -3.05287 0
M  V30 4270 C 390.884 -2.12451 -1.78213 0
M  V30 4271 H 393.835 -1.46235 -0.616516 0
M  V30 4272 H 393.856 -1.88672 -3.30429 0
M  V30 4273 H 393.368 -3.26116 -2.10404 0
M  V30 4274 H 391.469 -1.23841 -3.51417 0
M  V30 4275 H 391.582 -3.11863 -3.63701 0
M  V30 4276 H 389.946 -1.58328 -1.9951 0
M  V30 4277 H 390.729 -3.14024 -1.38723 0
M  V30 4278 N 393.175 1.03435 -1.18907 0
M  V30 4279 C 394.107 2.1165 -0.879595 0
M  V30 4280 C 395.12 1.62316 0.125439 0
M  V30 4281 O 396.309 1.78201 -0.103245 0
M  V30 4282 C 393.409 3.37622 -0.294042 0
M  V30 4283 C 392.582 4.16166 -1.34629 0
M  V30 4284 C 391.641 5.20457 -0.775274 0
M  V30 4285 O 390.667 5.50379 -1.4516 0
M  V30 4286 N 391.869 5.78949 0.424126 0
M  V30 4287 H 394.634 2.38791 -1.81105 0
M  V30 4288 H 392.195 1.19681 -1.09032 0
M  V30 4289 H 394.187 4.04572 0.101679 0
M  V30 4290 H 392.757 3.07873 0.541575 0
M  V30 4291 H 391.977 3.44444 -1.91707 0
M  V30 4292 H 393.265 4.65432 -2.05549 0
M  V30 4293 H 392.663 5.56948 0.991209 0
M  V30 4294 H 391.22 6.47334 0.761691 0
M  V30 4295 N 394.653 0.992116 1.22453 0
M  V30 4296 C 395.6 0.541731 2.24352 0
M  V30 4297 C 396.57 -0.425519 1.60557 0
M  V30 4298 O 397.755 -0.330453 1.87917 0
M  V30 4299 C 394.895 -0.138248 3.44823 0
M  V30 4300 C 394.008 0.870649 4.23136 0
M  V30 4301 C 393.143 0.164269 5.30946 0
M  V30 4302 C 392.182 1.16159 6.00977 0
M  V30 4303 N 391.319 0.483568 7.00433 0
M  V30 4304 H 396.159 1.41541 2.62241 0
M  V30 4305 H 393.696 0.709013 1.28885 0
M  V30 4306 H 395.654 -0.5494 4.13567 0
M  V30 4307 H 394.284 -0.975721 3.077 0
M  V30 4308 H 393.336 1.40013 3.53696 0
M  V30 4309 H 394.648 1.63014 4.7141 0
M  V30 4310 H 393.802 -0.303653 6.0594 0
M  V30 4311 H 392.541 -0.627733 4.83643 0
M  V30 4312 H 391.546 1.64015 5.24766 0
M  V30 4313 H 392.771 1.95445 6.50368 0
M  V30 4314 H 390.717 -0.289012 6.55363 0
M  V30 4315 H 390.634 1.18152 7.4671 0
M  V30 4316 H 391.902 0.0384219 7.79491 0
M  V30 4317 N 396.131 -1.37776 0.765217 0
M  V30 4318 C 397.408 -1.93975 0.251596 0
M  V30 4319 C 397.788 -1.69949 -1.25222 0
M  V30 4320 O 397.136 -1.04457 -2.03226 0
M  V30 4321 C 397.346 -3.43487 0.617895 0
M  V30 4322 C 398.694 -4.20564 0.584029 0
M  V30 4323 O 399.718 -3.5182 0.556888 0
M  V30 4324 O 398.577 -5.43138 0.605291 0
M  V30 4325 H 395.671 -0.82509 0.0561806 0
M  V30 4326 H 398.217 -1.47101 0.846128 0
M  V30 4327 H 396.989 -3.5453 1.65602 0
M  V30 4328 H 396.612 -3.976 -0.00403411 0
M  V30 4329 N 397.609 -0.515225 -1.4894 0
M  V30 4330 C 398.539 0.244628 -2.32215 0
M  V30 4331 C 399.52 0.949136 -1.41157 0
M  V30 4332 O 400.705 0.937783 -1.70057 0
M  V30 4333 C 397.835 1.30096 -3.22013 0
M  V30 4334 C 396.789 0.715486 -4.21977 0
M  V30 4335 C 396.115 1.87339 -5.00808 0
M  V30 4336 C 397.415 -0.302982 -5.2142 0
M  V30 4337 H 399.109 -0.450501 -2.95991 0
M  V30 4338 H 396.655 -0.218098 -1.42339 0
M  V30 4339 H 398.608 1.84037 -3.79089 0
M  V30 4340 H 397.332 2.02547 -2.56207 0
M  V30 4341 H 395.991 0.197715 -3.66066 0
M  V30 4342 H 395.639 2.58592 -4.31438 0
M  V30 4343 H 395.339 1.48764 -5.68457 0
M  V30 4344 H 396.863 2.41686 -5.60732 0
M  V30 4345 H 398.277 0.148802 -5.73107 0
M  V30 4346 H 396.674 -0.60532 -5.97039 0
M  V30 4347 H 397.744 -1.21395 -4.69459 0
M  V30 4348 N 399.087 1.5561 -0.249682 0
M  V30 4349 C 400.312 2.03865 0.381305 0
M  V30 4350 C 400.737 1.12769 1.50548 0
M  V30 4351 O 400.095 0.121189 1.80895 0
M  V30 4352 C 400.143 3.50101 0.863816 0
M  V30 4353 O 399.247 3.62132 1.97318 0
M  V30 4354 H 398.588 0.658827 0.0827194 0
M  V30 4355 H 401.118 2.01105 -0.376552 0
M  V30 4356 H 401.128 3.90975 1.1663 0
M  V30 4357 H 399.803 4.1588 0.0411816 0
M  V30 4358 H 398.38 3.33155 1.67517 0
M  V30 4359 N 400.565 -0.0233959 1.57583 0
M  V30 4360 C 401.79 -0.728376 1.94189 0
M  V30 4361 C 402.215 -1.67793 0.850119 0
M  V30 4362 O 401.573 -1.80262 -0.19371 0
M  V30 4363 C 401.621 -1.45669 3.29868 0
M  V30 4364 O 400.725 -2.57013 3.22518 0
M  V30 4365 H 400.066 -0.195493 0.63457 0
M  V30 4366 H 402.596 0.0228214 2.04587 0
M  V30 4367 H 402.606 -1.82535 3.6489 0
M  V30 4368 H 401.281 -0.760314 4.08891 0
M  V30 4369 H 399.858 -2.22648 2.99136 0
M  V30 4370 N 402.043 -1.548 -0.295768 0
M  V30 4371 C 403.292 -1.73538 -1.02798 0
M  V30 4372 C 403.605 -0.531159 -1.8825 0
M  V30 4373 O 404.811 -0.600458 -2.64777 0
M  V30 4374 C 403.267 -3.07051 -1.87744 0
M  V30 4375 C 402.875 -4.34968 -1.07269 0
M  V30 4376 C 404.619 -3.35146 -2.60533 0
M  V30 4377 C 402.526 -5.5953 -1.91521 0
M  V30 4378 H 401.456 -0.646794 -0.387522 0
M  V30 4379 H 404.107 -1.81278 -0.284718 0
M  V30 4380 H 402.489 -2.93289 -2.66078 0
M  V30 4381 H 403.663 -4.5958 -0.335117 0
M  V30 4382 H 401.978 -4.13847 -0.460384 0
M  V30 4383 H 404.575 -4.2541 -3.23929 0
M  V30 4384 H 404.918 -2.54255 -3.29636 0
M  V30 4385 H 405.451 -3.49902 -1.89244 0
M  V30 4386 H 402.19 -6.43103 -1.26878 0
M  V30 4387 H 401.71 -5.39096 -2.62937 0
M  V30 4388 H 403.389 -5.96982 -2.49442 0
M  V30 4389 N 403.521 0.559213 -1.47345 0
M  V30 4390 C 404.768 1.31648 -1.53867 0
M  V30 4391 C 405.096 1.93468 -0.200104 0
M  V30 4392 O 404.351 1.78295 0.806799 0
M  V30 4393 C 404.65 2.44853 -2.6035 0
M  V30 4394 C 404.316 2.00876 -4.03683 0
M  V30 4395 C 402.978 1.88599 -4.42701 0
M  V30 4396 C 405.33 1.67279 -4.93626 0
M  V30 4397 C 402.658 1.41017 -5.69501 0
M  V30 4398 C 405.01 1.21169 -6.20887 0
M  V30 4399 C 403.674 1.07487 -6.58789 0
M  V30 4400 H 402.944 0.481734 -0.56304 0
M  V30 4401 H 405.591 0.627301 -1.80934 0
M  V30 4402 H 403.896 3.19318 -2.27032 0
M  V30 4403 H 405.593 3.03039 -2.62619 0
M  V30 4404 H 402.183 2.11374 -3.72853 0
M  V30 4405 H 406.367 1.75638 -4.64182 0
M  V30 4406 H 401.623 1.29086 -5.97618 0
M  V30 4407 H 405.797 0.942345 -6.89995 0
M  V30 4408 H 403.424 0.703946 -7.56934 0
M  V30 4409 N 404.999 1.35443 0.805782 0
M  V30 4410 C 406.415 1.15499 1.10146 0
M  V30 4411 C 406.615 -0.0319975 2.01475 0
M  V30 4412 O 405.671 -0.70236 2.42535 0
M  V30 4413 C 406.984 2.45833 1.73166 0
M  V30 4414 C 408.532 2.52047 1.85583 0
M  V30 4415 C 409.007 3.82427 2.52019 0
M  V30 4416 N 410.498 3.83682 2.59504 0
M  V30 4417 C 411.233 4.81294 3.11679 0
M  V30 4418 N 410.729 5.89294 3.64287 0
M  V30 4419 N 412.522 4.6873 3.1024 0
M  V30 4420 H 404.673 2.11469 0.198678 0
M  V30 4421 H 406.936 0.93594 0.150731 0
M  V30 4422 H 406.642 3.32874 1.13526 0
M  V30 4423 H 406.516 2.6044 2.72857 0
M  V30 4424 H 408.903 1.65435 2.44367 0
M  V30 4425 H 408.984 2.41354 0.847455 0
M  V30 4426 H 408.628 4.69437 1.93885 0
M  V30 4427 H 408.558 3.90409 3.53395 0
M  V30 4428 H 411.049 3.05648 2.22234 0
M  V30 4429 H 411.362 6.59768 4.02401 0
M  V30 4430 H 409.707 5.92985 3.62483 0
M  V30 4431 H 412.898 3.83496 2.68419 0
M  V30 4432 H 413.071 5.44965 3.50596 0
M  V30 4433 N 406.477 -1.02803 1.19454 0
M  V30 4434 C 407.725 -1.75869 0.995722 0
M  V30 4435 C 408.046 -1.89138 -0.474543 0
M  V30 4436 O 407.316 -1.42558 -1.34366 0
M  V30 4437 H 405.896 -0.651511 0.365435 0
M  V30 4438 H 408.558 -1.24004 1.50363 0
M  V30 4439 H 407.654 -2.76661 1.44447 0
M  V30 4440 N 407.956 -0.998596 -1.21925 0
M  V30 4441 C 408.919 -0.558679 -2.22287 0
M  V30 4442 C 409.919 0.361525 -1.56683 0
M  V30 4443 O 411.109 0.152695 -1.73529 0
M  V30 4444 C 408.241 0.18661 -3.40389 0
M  V30 4445 H 409.434 -1.4463 -2.62721 0
M  V30 4446 H 406.987 -0.786413 -1.35075 0
M  V30 4447 H 407.722 1.08996 -3.05435 0
M  V30 4448 H 407.507 -0.474188 -3.89222 0
M  V30 4449 H 408.997 0.482367 -4.14805 0
M  V30 4450 N 409.434 1.37368 -0.772513 0
M  V30 4451 C 410.382 2.32134 -0.147111 0
M  V30 4452 C 411.376 1.54972 0.684106 0
M  V30 4453 O 412.582 1.70363 0.581083 0
M  V30 4454 H 408.957 0.751449 -0.028786 0
M  V30 4455 H 410.928 2.82464 -0.962112 0
M  V30 4456 C 409.677 3.40226 0.71703 0
M  V30 4457 H 409 3.99706 0.0867951 0
M  V30 4458 H 410.44 4.08897 1.12159 0
M  V30 4459 C 408.899 2.80372 1.86797 0
M  V30 4460 O 409.429 2.71183 2.96349 0
M  V30 4461 N 407.635 2.37904 1.66883 0
M  V30 4462 H 407.182 2.45578 0.777759 0
M  V30 4463 H 407.14 1.98202 2.44056 0
M  V30 4464 N 410.912 0.523116 1.48665 0
M  V30 4465 C 412.323 0.0808997 1.86525 0
M  V30 4466 C 412.674 -1.33975 1.43336 0
M  V30 4467 O 411.799 -2.00221 0.821009 0
M  V30 4468 C 412.394 0.140037 3.3851 0
M  V30 4469 C 410.953 -0.246948 3.75589 0
M  V30 4470 C 410.1 0.502845 2.72703 0
M  V30 4471 H 413.051 0.734736 1.40667 0
M  V30 4472 H 413.072 -0.649945 3.74908 0
M  V30 4473 H 412.584 1.17412 3.69914 0
M  V30 4474 H 410.685 -1.28343 3.49798 0
M  V30 4475 H 410.798 0.0878859 4.79019 0
M  V30 4476 H 409.162 -0.0500581 2.54651 0
M  V30 4477 H 409.945 1.53743 3.0695 0
M  V30 4478 N 412.39 -1.55475 0.257931 0
M  V30 4479 C 413.32 -2.24815 -0.630912 0
M  V30 4480 C 414.301 -1.23224 -1.17259 0
M  V30 4481 O 415.486 -1.51904 -1.20991 0
M  V30 4482 C 412.616 -2.95609 -1.82298 0
M  V30 4483 C 411.57 -4.03982 -1.41359 0
M  V30 4484 C 410.896 -4.6226 -2.68738 0
M  V30 4485 C 412.196 -5.19109 -0.57648 0
M  V30 4486 H 413.89 -2.99354 -0.0526878 0
M  V30 4487 H 411.436 -1.4398 -0.023901 0
M  V30 4488 H 413.389 -3.42822 -2.45054 0
M  V30 4489 H 412.113 -2.18577 -2.42676 0
M  V30 4490 H 410.772 -3.57555 -0.809324 0
M  V30 4491 H 410.42 -3.81915 -3.27338 0
M  V30 4492 H 410.12 -5.35424 -2.42065 0
M  V30 4493 H 411.644 -5.12212 -3.32372 0
M  V30 4494 H 413.058 -5.62479 -1.10861 0
M  V30 4495 H 411.455 -5.98729 -0.405351 0
M  V30 4496 H 412.525 -4.83174 0.408776 0
M  V30 4497 N 413.868 0.0150385 -1.57593 0
M  V30 4498 C 414.831 0.995996 -2.06428 0
M  V30 4499 C 415.831 1.2818 -0.970903 0
M  V30 4500 O 417.021 1.22949 -1.23406 0
M  V30 4501 C 414.153 2.32506 -2.49307 0
M  V30 4502 H 415.346 0.573873 -2.94358 0
M  V30 4503 H 412.899 0.262186 -1.54085 0
M  V30 4504 H 413.634 2.79438 -1.64575 0
M  V30 4505 H 413.419 2.13087 -3.29145 0
M  V30 4506 H 414.909 3.02906 -2.87468 0
M  V30 4507 N 415.346 1.54954 0.287554 0
M  V30 4508 C 416.595 1.74081 1.01877 0
M  V30 4509 C 416.908 0.541135 1.87966 0
M  V30 4510 O 418.114 0.614491 2.64455 0
M  V30 4511 C 416.57 3.08042 1.86113 0
M  V30 4512 C 416.178 4.35531 1.04961 0
M  V30 4513 C 417.922 3.36523 2.58752 0
M  V30 4514 C 415.829 5.60538 1.88551 0
M  V30 4515 H 414.759 0.64884 0.384087 0
M  V30 4516 H 417.41 1.81426 0.275101 0
M  V30 4517 H 415.792 2.94696 2.64519 0
M  V30 4518 H 416.966 4.59751 0.31074 0
M  V30 4519 H 415.281 4.14085 0.43843 0
M  V30 4520 H 417.878 4.27122 3.21668 0
M  V30 4521 H 418.221 2.56 3.28283 0
M  V30 4522 H 418.754 3.50901 1.87386 0
M  V30 4523 H 415.493 6.43767 1.23466 0
M  V30 4524 H 415.013 5.40483 2.60074 0
M  V30 4525 H 416.692 5.98297 2.46273 0
M  V30 4526 N 416.824 -0.551391 1.4764 0
M  V30 4527 C 418.101 -1.31229 1.45046 0
M  V30 4528 C 418.481 -2.10563 0.150527 0
M  V30 4529 O 417.829 -2.11374 -0.867956 0
M  V30 4530 C 418.039 -2.21189 2.69956 0
M  V30 4531 C 419.387 -2.82021 3.1741 0
M  V30 4532 O 420.411 -2.31488 2.70724 0
M  V30 4533 O 419.27 -3.73885 3.98588 0
M  V30 4534 H 416.364 -0.591193 0.578291 0
M  V30 4535 H 418.91 -0.569813 1.59847 0
M  V30 4536 H 417.682 -1.62207 3.56096 0
M  V30 4537 H 417.305 -3.02722 2.57769 0
M  V30 4538 N 418.302 -1.35869 -0.798587 0
M  V30 4539 C 419.232 -1.32118 -1.92528 0
M  V30 4540 C 420.213 -0.194209 -1.68988 0
M  V30 4541 O 421.398 -0.390426 -1.90235 0
M  V30 4542 C 418.528 -1.10047 -3.29404 0
M  V30 4543 C 417.482 -2.19471 -3.67446 0
M  V30 4544 C 416.808 -1.82555 -5.02571 0
M  V30 4545 C 418.108 -3.61495 -3.76987 0
M  V30 4546 H 419.802 -2.26394 -1.95924 0
M  V30 4547 H 417.348 -1.08981 -0.94123 0
M  V30 4548 H 419.301 -1.06061 -4.07835 0
M  V30 4549 H 418.025 -0.122195 -3.26371 0
M  V30 4550 H 416.684 -2.22568 -2.91306 0
M  V30 4551 H 416.332 -0.833249 -4.9605 0
M  V30 4552 H 416.032 -2.5581 -5.28995 0
M  V30 4553 H 417.556 -1.80108 -5.83432 0
M  V30 4554 H 418.97 -3.60676 -4.4563 0
M  V30 4555 H 417.367 -4.33577 -4.14887 0
M  V30 4556 H 418.437 -3.97065 -2.78329 0
M  V30 4557 N 419.78 1.02168 -1.19998 0
M  V30 4558 C 420.71 2.12488 -0.96804 0
M  V30 4559 C 421.691 1.69799 0.101185 0
M  V30 4560 O 422.876 1.94121 -0.0552993 0
M  V30 4561 C 420.006 3.43479 -0.513776 0
M  V30 4562 C 418.96 3.99884 -1.52566 0
M  V30 4563 C 418.286 5.26582 -0.928214 0
M  V30 4564 C 419.586 4.33861 -2.90795 0
M  V30 4565 H 421.28 2.32149 -1.89069 0
M  V30 4566 H 418.826 1.11564 -0.910468 0
M  V30 4567 H 420.779 4.20036 -0.338774 0
M  V30 4568 H 419.503 3.23561 0.444493 0
M  V30 4569 H 418.162 3.25429 -1.68794 0
M  V30 4570 H 417.81 5.02986 0.0378289 0
M  V30 4571 H 417.51 5.65284 -1.60397 0
M  V30 4572 H 419.034 6.05799 -0.764167 0
M  V30 4573 H 420.448 5.01327 -2.78109 0
M  V30 4574 H 418.845 4.83664 -3.55231 0
M  V30 4575 H 419.915 3.42848 -3.42904 0
M  V30 4576 N 421.258 1.00505 1.21394 0
M  V30 4577 C 422.506 0.686415 1.90086 0
M  V30 4578 C 422.827 -0.785264 1.7849 0
M  V30 4579 O 422.097 -1.56387 1.17983 0
M  V30 4580 H 420.677 0.2509 0.703604 0
M  V30 4581 H 423.339 1.27417 1.47482 0
M  V30 4582 H 422.435 0.959621 2.96981 0
M  V30 4583 N 422.737 -1.36956 0.779787 0
M  V30 4584 C 424.153 -1.52817 0.460342 0
M  V30 4585 C 424.353 -1.7361 -1.02283 0
M  V30 4586 O 423.409 -1.76207 -1.80852 0
M  V30 4587 C 424.722 -2.71983 1.28241 0
M  V30 4588 C 426.27 -2.85849 1.27512 0
M  V30 4589 C 426.745 -4.08008 2.08072 0
M  V30 4590 N 428.236 -4.15135 2.05467 0
M  V30 4591 C 428.971 -5.08711 2.64577 0
M  V30 4592 N 428.467 -6.07792 3.32506 0
M  V30 4593 N 430.26 -5.01254 2.54363 0
M  V30 4594 H 422.411 -1.21713 1.74068 0
M  V30 4595 H 424.674 -0.593294 0.739396 0
M  V30 4596 H 424.38 -2.63109 2.33381 0
M  V30 4597 H 424.254 -3.65882 0.917088 0
M  V30 4598 H 426.641 -2.94189 0.231686 0
M  V30 4599 H 426.722 -1.92886 1.68014 0
M  V30 4600 H 426.366 -4.00429 3.12441 0
M  V30 4601 H 426.296 -5.001 1.64947 0
M  V30 4602 H 428.787 -3.44189 1.5602 0
M  V30 4603 H 429.1 -6.75739 3.74963 0
M  V30 4604 H 427.445 -6.08047 3.36606 0
M  V30 4605 H 430.636 -4.22795 2.00902 0
M  V30 4606 H 430.809 -5.73995 3.00722 0
M  V30 4607 N 424.215 -0.530993 -1.48385 0
M  V30 4608 C 425.148 0.278511 -2.26494 0
M  V30 4609 C 426.126 0.943905 -1.32398 0
M  V30 4610 O 427.31 0.968098 -1.61741 0
M  V30 4611 C 424.437 1.39453 -3.08659 0
M  V30 4612 C 423.483 0.840434 -4.18137 0
M  V30 4613 S 424.316 -0.292496 -5.34701 0
M  V30 4614 C 425.472 0.825973 -6.20426 0
M  V30 4615 H 425.705 -0.384365 -2.94805 0
M  V30 4616 H 423.238 -0.316799 -1.51115 0
M  V30 4617 H 425.196 2.03382 -3.56575 0
M  V30 4618 H 423.857 2.02913 -2.3976 0
M  V30 4619 H 423.05 1.67769 -4.75257 0
M  V30 4620 H 422.652 0.277819 -3.72967 0
M  V30 4621 H 424.944 1.72438 -6.55188 0
M  V30 4622 H 425.887 0.292728 -7.07495 0
M  V30 4623 H 426.295 1.10683 -5.53543 0
M  V30 4624 N 425.693 1.55336 -0.266172 0
M  V30 4625 C 426.623 2.25146 0.618981 0
M  V30 4626 C 427.604 1.23845 1.16604 0
M  V30 4627 O 428.789 1.52544 1.20183 0
M  V30 4628 C 425.919 2.96572 1.80728 0
M  V30 4629 C 424.873 4.04726 1.39215 0
M  V30 4630 C 424.199 4.63678 2.66283 0
M  V30 4631 C 425.499 5.19407 0.548942 0
M  V30 4632 H 427.193 2.99377 0.0368116 0
M  V30 4633 H 424.739 1.43991 0.0162651 0
M  V30 4634 H 426.692 3.44116 2.43232 0
M  V30 4635 H 425.416 2.19861 2.41514 0
M  V30 4636 H 424.075 3.57979 0.790351 0
M  V30 4637 H 423.723 3.83646 3.25308 0
M  V30 4638 H 423.423 5.367 2.39222 0
M  V30 4639 H 424.947 5.13967 3.29651 0
M  V30 4640 H 426.361 5.63059 1.07876 0
M  V30 4641 H 424.758 5.98936 0.373593 0
M  V30 4642 H 425.828 4.8295 -0.434394 0
M  V30 4643 N 427.171 -0.0066808 1.57599 0
M  V30 4644 C 428.417 -0.693947 1.90558 0
M  V30 4645 C 428.75 -1.73792 0.866594 0
M  V30 4646 O 428.025 -1.94156 -0.115548 0
M  V30 4647 C 428.308 -1.34317 3.34112 0
M  V30 4648 C 428.161 -0.311189 4.48722 0
M  V30 4649 C 429.48 -2.27116 3.7697 0
M  V30 4650 H 426.599 -0.250803 0.693013 0
M  V30 4651 H 429.241 0.043242 1.89951 0
M  V30 4652 H 427.391 -1.9715 3.3476 0
M  V30 4653 H 429.063 0.316944 4.6021 0
M  V30 4654 H 427.306 0.367253 4.32243 0
M  V30 4655 H 427.977 -0.804366 5.46108 0
M  V30 4656 H 430.453 -1.74306 3.77831 0
M  V30 4657 H 429.329 -2.69511 4.78179 0
M  V30 4658 H 429.59 -3.14743 3.10466 0
M  V30 4659 N 428.649 -1.55105 -0.279332 0
M  V30 4660 C 429.579 -1.90557 -1.34945 0
M  V30 4661 C 430.56 -0.766738 -1.51839 0
M  V30 4662 O 431.745 -1.02434 -1.64988 0
M  V30 4663 C 428.875 -2.17193 -2.71006 0
M  V30 4664 C 427.829 -3.33021 -2.68851 0
M  V30 4665 C 427.155 -3.45123 -4.08405 0
M  V30 4666 C 428.455 -4.69578 -2.28678 0
M  V30 4667 H 430.149 -2.80188 -1.05522 0
M  V30 4668 H 427.695 -1.34811 -0.506173 0
M  V30 4669 H 429.648 -2.40581 -3.45975 0
M  V30 4670 H 428.372 -1.24355 -3.01999 0
M  V30 4671 H 427.031 -3.0959 -1.9634 0
M  V30 4672 H 426.679 -2.49762 -4.3661 0
M  V30 4673 H 426.379 -4.22995 -4.07859 0
M  V30 4674 H 427.903 -3.70796 -4.85121 0
M  V30 4675 H 429.317 -4.92553 -2.93368 0
M  V30 4676 H 427.714 -5.5032 -2.39306 0
M  V30 4677 H 428.784 -4.68828 -1.23807 0
M  V30 4678 N 430.127 0.543554 -1.4793 0
M  V30 4679 C 431.404 1.30458 -1.4574 0
M  V30 4680 C 431.784 2.1048 -0.161692 0
M  V30 4681 O 431.132 2.11831 0.856734 0
M  V30 4682 C 431.342 2.19754 -2.71126 0
M  V30 4683 C 432.69 2.80334 -3.18901 0
M  V30 4684 O 433.714 2.30049 -2.71948 0
M  V30 4685 O 432.573 3.71766 -4.00565 0
M  V30 4686 H 429.667 0.588117 -0.581418 0
M  V30 4687 H 432.213 0.561328 -1.60147 0
M  V30 4688 H 430.985 1.60316 -3.56952 0
M  V30 4689 H 430.608 3.01351 -2.59371 0
M  V30 4690 N 431.605 1.3629 0.791371 0
M  V30 4691 C 432.83 1.33726 1.58531 0
M  V30 4692 C 433.255 -0.0794933 1.87932 0
M  V30 4693 O 432.613 -1.05087 1.47738 0
M  V30 4694 C 432.661 2.16425 2.88431 0
M  V30 4695 O 431.765 1.5554 3.81944 0
M  V30 4696 H 431.106 0.457793 0.480959 0
M  V30 4697 H 433.636 1.79547 0.981031 0
M  V30 4698 H 433.646 2.28933 3.37718 0
M  V30 4699 H 432.321 3.19415 2.66359 0
M  V30 4700 H 430.898 1.51961 3.40532 0
M  V30 4701 N 433.083 -1.0153 1.20538 0
M  V30 4702 C 434.36 -1.72327 0.925343 0
M  V30 4703 C 434.74 -2.03383 -0.565547 0
M  V30 4704 O 434.088 -1.69934 -1.52757 0
M  V30 4705 C 434.298 -2.9902 1.79967 0
M  V30 4706 C 435.646 -3.72258 2.04228 0
M  V30 4707 O 436.67 -3.08979 1.77231 0
M  V30 4708 O 435.529 -4.86053 2.4983 0
M  V30 4709 H 432.623 -0.751099 0.346092 0
M  V30 4710 H 435.169 -1.07366 1.31417 0
M  V30 4711 H 433.941 -2.72402 2.80915 0
M  V30 4712 H 433.564 -3.71721 1.41099 0
M  V30 4713 N 434.561 -1.01147 -1.20859 0
M  V30 4714 C 435.493 -0.535546 -2.22855 0
M  V30 4715 C 436.506 0.379323 -1.58319 0
M  V30 4716 O 437.695 0.178489 -1.77605 0
M  V30 4717 C 434.795 0.240962 -3.38042 0
M  V30 4718 C 433.968 -0.674562 -4.32167 0
M  V30 4719 C 433.027 0.053467 -5.26173 0
M  V30 4720 O 432.053 -0.567339 -5.66366 0
M  V30 4721 N 433.255 1.32997 -5.65059 0
M  V30 4722 H 436.02 -1.41268 -2.64317 0
M  V30 4723 H 433.581 -0.888386 -1.35349 0
M  V30 4724 H 435.573 0.737115 -3.97931 0
M  V30 4725 H 434.143 1.01935 -2.95513 0
M  V30 4726 H 433.363 -1.35111 -3.70322 0
M  V30 4727 H 434.651 -1.2974 -4.91981 0
M  V30 4728 H 434.049 1.85536 -5.34409 0
M  V30 4729 H 432.606 1.77095 -6.2728 0
M  V30 4730 N 436.039 1.36541 -0.78704 0
M  V30 4731 C 437.455 1.52571 -0.46844 0
M  V30 4732 C 437.655 1.7415 1.01361 0
M  V30 4733 O 436.711 1.77163 1.79915 0
M  V30 4734 C 438.024 2.71299 -1.29682 0
M  V30 4735 C 439.572 2.85169 -1.29027 0
M  V30 4736 C 440.047 4.06898 -2.10233 0
M  V30 4737 N 441.538 4.1404 -2.07666 0
M  V30 4738 C 442.273 5.07301 -2.67271 0
M  V30 4739 N 441.769 6.06021 -3.35724 0
M  V30 4740 N 443.562 4.99898 -2.57018 0
M  V30 4741 H 435.713 1.20788 -1.74711 0
M  V30 4742 H 437.976 0.589364 -0.742532 0
M  V30 4743 H 437.682 2.61868 -2.34773 0
M  V30 4744 H 437.556 3.6539 -0.936479 0
M  V30 4745 H 439.943 2.94062 -0.247284 0
M  V30 4746 H 440.024 1.91992 -1.69035 0
M  V30 4747 H 439.668 3.98766 -3.1456 0
M  V30 4748 H 439.598 4.99218 -1.67597 0
M  V30 4749 H 442.089 3.43357 -1.57843 0
M  V30 4750 H 442.402 6.73741 -3.78541 0
M  V30 4751 H 440.747 6.06253 -3.39826 0
M  V30 4752 H 443.938 4.21724 -2.03142 0
M  V30 4753 H 444.111 5.72392 -3.03761 0
M  V30 4754 N 437.518 0.538854 1.48102 0
M  V30 4755 C 438.764 0.00801365 2.02798 0
M  V30 4756 C 439.097 -1.3309 1.41424 0
M  V30 4757 O 438.372 -1.86169 0.563158 0
M  V30 4758 C 438.655 -0.104589 3.59948 0
M  V30 4759 C 438.508 1.26012 4.31788 0
M  V30 4760 C 439.827 -0.827055 4.32259 0
M  V30 4761 H 436.946 0.00438624 0.736987 0
M  V30 4762 H 439.588 0.6976 1.7673 0
M  V30 4763 H 437.738 -0.691893 3.82289 0
M  V30 4764 H 439.41 1.88922 4.2084 0
M  V30 4765 H 437.653 1.83968 3.92859 0
M  V30 4766 H 438.324 1.13424 5.40221 0
M  V30 4767 H 440.8 -0.328578 4.14801 0
M  V30 4768 H 439.676 -0.87476 5.41885 0
M  V30 4769 H 439.937 -1.87927 4.0017 0
M  V30 4770 N 438.996 -1.55193 0.274407 0
M  V30 4771 C 440.221 -2.04446 -0.348824 0
M  V30 4772 C 440.646 -1.15149 -1.48735 0
M  V30 4773 O 440.004 -0.149952 -1.80679 0
M  V30 4774 C 440.052 -3.51431 -0.808009 0
M  V30 4775 O 439.156 -3.65225 -1.91531 0
M  V30 4776 H 438.497 -0.66006 -0.0722276 0
M  V30 4777 H 441.027 -2.00481 0.408498 0
M  V30 4778 H 441.037 -3.92781 -1.10395 0
M  V30 4779 H 439.712 -4.15892 0.0249865 0
M  V30 4780 H 438.289 -3.35778 -1.62196 0
M  V30 4781 N 440.474 -0.00167713 -1.576 0
M  V30 4782 C 441.437 0.974046 -2.07473 0
M  V30 4783 C 442.437 1.27143 -0.984444 0
M  V30 4784 O 443.627 1.21633 -1.24703 0
M  V30 4785 C 440.759 2.29849 -2.51759 0
M  V30 4786 H 441.952 0.54262 -2.9495 0
M  V30 4787 H 439.505 0.245829 -1.54355 0
M  V30 4788 H 440.24 2.77677 -1.67529 0
M  V30 4789 H 440.025 2.09584 -3.31386 0
M  V30 4790 H 441.515 2.9984 -2.90664 0
M  V30 4791 N 441.952 1.55251 0.271103 0
M  V30 4792 C 442.915 1.87484 1.31842 0
M  V30 4793 C 443.915 0.749545 1.42262 0
M  V30 4794 O 445.105 1.01771 1.4138 0
M  V30 4795 C 442.237 2.0818 2.69951 0
M  V30 4796 H 443.43 2.81108 1.0449 0
M  V30 4797 H 440.983 1.47771 0.509258 0
M  V30 4798 H 441.718 1.16944 3.02481 0
M  V30 4799 H 441.503 2.90114 2.63774 0
M  V30 4800 H 442.993 2.34385 3.4562 0
M  V30 4801 N 443.43 -0.535701 1.48216 0
M  V30 4802 C 444.34 -1.66785 1.64985 0
M  V30 4803 C 445.356 -1.65654 0.532414 0
M  V30 4804 O 446.532 -1.8471 0.80275 0
M  V30 4805 C 443.597 -3.0326 1.68031 0
M  V30 4806 C 442.658 -3.1529 2.9136 0
M  V30 4807 C 441.891 -4.45255 2.94252 0
M  V30 4808 O 442.114 -5.32011 2.05719 0
M  V30 4809 O 441.048 -4.6153 3.86359 0
M  V30 4810 H 444.874 -1.55576 2.60825 0
M  V30 4811 H 442.459 -0.70815 1.31551 0
M  V30 4812 H 444.341 -3.84436 1.72589 0
M  V30 4813 H 443.016 -3.14805 0.753628 0
M  V30 4814 H 441.923 -2.3343 2.92337 0
M  V30 4815 H 443.256 -3.08658 3.83394 0
M  V30 4816 N 444.908 -1.36708 -0.784132 0
M  V30 4817 C 445.871 -1.31307 -1.87859 0
M  V30 4818 C 446.871 -0.219654 -1.59293 0
M  V30 4819 O 448.061 -0.47476 -1.67606 0
M  V30 4820 C 445.193 -1.03679 -3.24751 0
M  V30 4821 H 446.386 -2.28647 -1.94064 0
M  V30 4822 H 443.939 -1.21558 -0.98252 0
M  V30 4823 H 444.674 -0.0681936 -3.24228 0
M  V30 4824 H 444.459 -1.82811 -3.46876 0
M  V30 4825 H 445.949 -1.02518 -4.04821 0
M  V30 4826 N 446.386 1.0089 -1.21074 0
M  V30 4827 C 447.316 2.1145 -0.990523 0
M  V30 4828 C 448.297 1.69897 0.0831699 0
M  V30 4829 O 449.482 1.94052 -0.0758853 0
M  V30 4830 C 446.612 3.42914 -0.550177 0
M  V30 4831 C 445.566 3.98244 -1.56799 0
M  V30 4832 C 444.892 5.25568 -0.984013 0
M  V30 4833 C 446.192 4.30752 -2.95381 0
M  V30 4834 H 447.886 2.3013 -1.91521 0
M  V30 4835 H 445.432 1.10592 -0.92225 0
M  V30 4836 H 447.385 4.19653 -0.383305 0
M  V30 4837 H 446.109 3.24014 0.41015 0
M  V30 4838 H 444.768 3.23621 -1.72236 0
M  V30 4839 H 444.416 5.02998 -0.0155216 0
M  V30 4840 H 444.116 5.63551 -1.66384 0
M  V30 4841 H 445.64 6.04955 -0.828378 0
M  V30 4842 H 447.054 4.98349 -2.8341 0
M  V30 4843 H 445.451 4.79869 -3.60341 0
M  V30 4844 H 446.521 3.39192 -3.46521 0
M  V30 4845 N 447.864 1.01787 1.20321 0
M  V30 4846 C 448.827 0.593972 2.2137 0
M  V30 4847 C 449.827 -0.336553 1.57239 0
M  V30 4848 O 451.017 -0.125069 1.7375 0
M  V30 4849 C 448.149 -0.132433 3.40643 0
M  V30 4850 H 449.342 1.48791 2.60387 0
M  V30 4851 H 446.895 0.807803 1.33807 0
M  V30 4852 H 447.63 -1.04123 3.0713 0
M  V30 4853 H 447.415 0.53605 3.88418 0
M  V30 4854 H 448.905 -0.416314 4.1552 0
M  V30 4855 N 449.342 -1.36122 0.79427 0
M  V30 4856 C 450.292 -2.27373 0.169017 0
M  V30 4857 C 451.276 -1.4719 -0.649913 0
M  V30 4858 O 452.468 -1.69518 -0.50919 0
M  V30 4859 C 449.597 -3.36264 -0.691455 0
M  V30 4860 C 448.683 -4.2388 0.13653 0
M  V30 4861 N 449.074 -4.91519 1.19345 0
M  V30 4862 C 447.372 -4.45921 -0.0838499 0
M  V30 4863 C 448.073 -5.56369 1.6979 0
M  V30 4864 N 447.049 -5.34204 1.00634 0
M  V30 4865 H 450.851 -2.77154 0.977897 0
M  V30 4866 H 448.365 -1.49504 0.634208 0
M  V30 4867 H 450.362 -4.00572 -1.15534 0
M  V30 4868 H 449.022 -2.88037 -1.49883 0
M  V30 4869 H 450.033 -4.9334 1.57594 0
M  V30 4870 H 446.71 -4.08518 -0.861341 0
M  V30 4871 H 448.1 -6.20368 2.58055 0
M  V30 4872 N 450.82 -0.546701 -1.47814 0
M  V30 4873 C 451.783 0.196287 -2.28358 0
M  V30 4874 C 452.783 0.852437 -1.36346 0
M  V30 4875 O 453.973 0.709913 -1.59078 0
M  V30 4876 C 451.105 1.28579 -3.15722 0
M  V30 4877 H 452.298 -0.511086 -2.95513 0
M  V30 4878 H 449.851 -0.303248 -1.5333 0
M  V30 4879 H 450.586 2.0259 -2.53235 0
M  V30 4880 H 450.371 0.820229 -3.83425 0
M  V30 4881 H 451.861 1.80793 -3.76435 0
M  V30 4882 N 452.299 1.55045 -0.282633 0
M  V30 4883 C 453.529 2.03872 0.334635 0
M  V30 4884 C 453.937 1.16018 1.49454 0
M  V30 4885 O 453.28 0.174449 1.8287 0
M  V30 4886 C 453.342 3.48791 0.870905 0
M  V30 4887 C 453.006 4.56715 -0.161338 0
M  V30 4888 C 454.003 5.10513 -0.983466 0
M  V30 4889 C 451.688 5.01417 -0.297745 0
M  V30 4890 C 453.682 6.07538 -1.92811 0
M  V30 4891 C 451.369 5.98265 -1.24586 0
M  V30 4892 C 452.367 6.51208 -2.05954 0
M  V30 4893 O 452.055 7.46162 -2.99162 0
M  V30 4894 H 451.787 0.671324 0.0793742 0
M  V30 4895 H 454.341 2.01169 -0.41473 0
M  V30 4896 H 452.571 3.48758 1.67047 0
M  V30 4897 H 454.26 3.80916 1.40207 0
M  V30 4898 H 455.026 4.76785 -0.888856 0
M  V30 4899 H 450.905 4.59849 0.325604 0
M  V30 4900 H 454.449 6.48787 -2.56363 0
M  V30 4901 H 450.346 6.31412 -1.34126 0
M  V30 4902 H 451.114 7.63903 -2.93929 0
M  V30 4903 N 453.777 0.010035 1.57597 0
M  V30 4904 C 455.024 -0.6727 1.91 0
M  V30 4905 C 455.352 -1.73219 0.884614 0
M  V30 4906 O 454.607 -1.95395 -0.109215 0
M  V30 4907 C 454.906 -1.34434 3.31153 0
M  V30 4908 C 454.572 -0.417083 4.48967 0
M  V30 4909 C 453.234 -0.161809 4.80928 0
M  V30 4910 C 455.586 0.220753 5.20732 0
M  V30 4911 C 452.914 0.739426 5.82022 0
M  V30 4912 C 455.266 1.10993 6.22787 0
M  V30 4913 C 453.93 1.37428 6.532 0
M  V30 4914 H 453.2 -0.246158 0.698918 0
M  V30 4915 H 455.847 0.0677145 1.9138 0
M  V30 4916 H 454.152 -2.15905 3.26944 0
M  V30 4917 H 455.849 -1.87883 3.54261 0
M  V30 4918 H 452.439 -0.626217 4.24001 0
M  V30 4919 H 456.623 0.0365643 4.96287 0
M  V30 4920 H 451.879 0.952139 6.03941 0
M  V30 4921 H 456.053 1.61046 6.77523 0
M  V30 4922 H 453.68 2.0743 7.31353 0
M  V30 4923 N 455.255 -1.55392 -0.262866 0
M  V30 4924 C 456.48 -1.80847 -1.01533 0
M  V30 4925 C 456.905 -0.584946 -1.78774 0
M  V30 4926 O 456.263 0.465701 -1.75217 0
M  V30 4927 C 456.311 -3.03866 -1.94159 0
M  V30 4928 O 455.415 -2.79662 -3.03089 0
M  V30 4929 H 454.756 -0.597441 -0.289759 0
M  V30 4930 H 457.286 -2.02553 -0.288698 0
M  V30 4931 H 457.296 -3.32872 -2.35924 0
M  V30 4932 H 455.971 -3.92564 -1.37354 0
M  V30 4933 H 454.548 -2.61781 -2.65566 0
M  V30 4934 N 456.733 0.527833 -1.48498 0
M  V30 4935 C 457.665 1.6482 -1.5927 0
M  V30 4936 C 458.678 1.55659 -0.476869 0
M  V30 4937 O 459.867 1.62081 -0.747806 0
M  V30 4938 C 456.967 3.0348 -1.50842 0
M  V30 4939 C 456.14 3.381 -2.77502 0
M  V30 4940 C 455.199 4.5605 -2.62497 0
M  V30 4941 O 454.225 4.59165 -3.36387 0
M  V30 4942 N 455.427 5.54353 -1.72257 0
M  V30 4943 H 458.192 1.56015 -2.55889 0
M  V30 4944 H 455.753 0.715152 -1.45249 0
M  V30 4945 H 457.745 3.80264 -1.38496 0
M  V30 4946 H 456.315 3.06352 -0.621887 0
M  V30 4947 H 455.535 2.50473 -3.04396 0
M  V30 4948 H 456.823 3.58017 -3.61527 0
M  V30 4949 H 456.221 5.54617 -1.11431 0
M  V30 4950 H 454.778 6.30347 -1.65849 0
M  V30 4951 N 458.211 1.37122 0.776871 0
M  V30 4952 C 459.441 1.35034 1.56363 0
M  V30 4953 C 459.849 -0.0674681 1.8908 0
M  V30 4954 O 459.192 -1.03826 1.51545 0
M  V30 4955 C 459.254 2.11894 2.90415 0
M  V30 4956 C 458.918 3.60897 2.80362 0
M  V30 4957 C 459.915 4.54887 2.51742 0
M  V30 4958 C 457.6 4.03951 2.98545 0
M  V30 4959 C 459.594 5.89909 2.41426 0
M  V30 4960 C 457.281 5.3906 2.87849 0
M  V30 4961 C 458.279 6.31852 2.5933 0
M  V30 4962 O 457.967 7.64479 2.48651 0
M  V30 4963 H 457.699 0.464402 0.49123 0
M  V30 4964 H 460.253 1.80992 0.971127 0
M  V30 4965 H 458.483 1.60618 3.51765 0
M  V30 4966 H 460.172 2.02505 3.51776 0
M  V30 4967 H 460.938 4.22934 2.37385 0
M  V30 4968 H 456.817 3.3209 3.19746 0
M  V30 4969 H 460.361 6.62304 2.19086 0
M  V30 4970 H 456.258 5.70617 3.01773 0
M  V30 4971 H 457.026 7.74742 2.64039 0
M  V30 4972 N 459.689 -1.00246 1.21608 0
M  V30 4973 C 460.639 -2.07492 0.945051 0
M  V30 4974 C 461.623 -1.60585 -0.100675 0
M  V30 4975 O 462.815 -1.76667 0.10859 0
M  V30 4976 C 459.944 -3.39425 0.514342 0
M  V30 4977 C 459.03 -3.92993 1.59428 0
M  V30 4978 N 459.421 -4.19898 2.81991 0
M  V30 4979 C 457.719 -4.21297 1.46374 0
M  V30 4980 C 458.42 -4.63297 3.51754 0
M  V30 4981 N 457.396 -4.66421 2.79199 0
M  V30 4982 H 461.198 -2.26222 1.87619 0
M  V30 4983 H 458.712 -1.18339 1.11219 0
M  V30 4984 H 460.709 -4.15808 0.301527 0
M  V30 4985 H 459.369 -3.22101 -0.410008 0
M  V30 4986 H 460.38 -4.08377 3.1851 0
M  V30 4987 H 457.057 -4.13095 0.604863 0
M  V30 4988 H 458.447 -4.92816 4.56708 0
M  V30 4989 N 461.167 -1.02423 -1.1978 0
M  V30 4990 C 462.444 -0.632802 -1.85081 0
M  V30 4991 C 462.824 0.888745 -1.9148 0
M  V30 4992 O 462.172 1.78357 -1.42832 0
M  V30 4993 C 462.382 -1.28947 -3.24305 0
M  V30 4994 C 463.73 -1.40976 -4.00513 0
M  V30 4995 O 464.754 -1.24628 -3.33686 0
M  V30 4996 O 463.613 -1.67467 -5.20209 0
M  V30 4997 H 460.707 -0.219348 -0.79738 0
M  V30 4998 H 463.253 -1.12209 -1.27307 0
M  V30 4999 H 462.025 -2.3288 -3.14456 0
M  V30 5000 H 461.648 -0.787748 -3.89718 0
M  V30 5001 N 462.645 1.35699 -0.801477 0
M  V30 5002 C 464.056 1.81415 -0.441073 0
M  V30 5003 C 464.407 1.66595 1.03636 0
M  V30 5004 O 463.532 1.19369 1.80499 0
M  V30 5005 C 464.127 3.29369 -0.793819 0
M  V30 5006 C 462.686 3.73248 -0.486083 0
M  V30 5007 C 461.833 2.57775 -1.02213 0
M  V30 5008 H 464.784 1.23749 -0.993572 0
M  V30 5009 H 464.805 3.80395 -0.0894158 0
M  V30 5010 H 464.317 3.40123 -1.86917 0
M  V30 5011 H 462.418 3.68046 0.580735 0
M  V30 5012 H 462.531 4.68222 -1.01513 0
M  V30 5013 H 460.895 2.50788 -0.444712 0
M  V30 5014 H 461.678 2.71309 -2.10348 0
M  V30 5015 N 464.123 0.554532 1.47522 0
M  V30 5016 C 465.033 -0.197865 2.33764 0
M  V30 5017 C 466.049 -0.914576 1.48025 0
M  V30 5018 O 467.225 -0.884067 1.80959 0
M  V30 5019 C 464.29 -1.21628 3.24665 0
M  V30 5020 C 463.351 -0.507283 4.26292 0
M  V30 5021 C 462.584 -1.47718 5.1285 0
M  V30 5022 O 462.807 -2.7118 5.01814 0
M  V30 5023 O 461.741 -1.00313 5.93482 0
M  V30 5024 H 465.567 0.50949 2.99396 0
M  V30 5025 H 463.152 0.315176 1.46038 0
M  V30 5026 H 465.034 -1.80421 3.80823 0
M  V30 5027 H 463.709 -1.9056 2.61665 0
M  V30 5028 H 462.616 0.121778 3.73902 0
M  V30 5029 H 463.949 0.140544 4.91999 0
M  V30 5030 N 465.601 -1.54893 0.290851 0
M  V30 5031 C 466.878 -1.91991 -0.373989 0
M  V30 5032 C 467.258 -1.21694 -1.72493 0
M  V30 5033 O 466.606 -0.34917 -2.25816 0
M  V30 5034 C 466.816 -3.45419 -0.498703 0
M  V30 5035 C 468.164 -4.1748 -0.774298 0
M  V30 5036 O 469.188 -3.51398 -0.582908 0
M  V30 5037 O 468.047 -5.3445 -1.14129 0
M  V30 5038 H 465.141 -0.800593 -0.207315 0
M  V30 5039 H 467.687 -1.66297 0.338164 0
M  V30 5040 H 466.459 -3.88688 0.451392 0
M  V30 5041 H 466.082 -3.77117 -1.25972 0
M  V30 5042 N 467.08 -0.0183926 -1.57589 0
M  V30 5043 C 467.99 0.982943 -2.13015 0
M  V30 5044 C 469.006 1.36443 -1.07979 0
M  V30 5045 O 470.182 1.44802 -1.3998 0
M  V30 5046 C 467.247 2.25024 -2.63752 0
M  V30 5047 C 466.308 1.93018 -3.83461 0
M  V30 5048 C 465.541 3.13706 -4.31769 0
M  V30 5049 O 465.764 4.2601 -3.79305 0
M  V30 5050 O 464.698 2.96629 -5.23732 0
M  V30 5051 H 468.524 0.541709 -2.9883 0
M  V30 5052 H 466.109 0.201565 -1.48034 0
M  V30 5053 H 467.991 2.99441 -2.96502 0
M  V30 5054 H 466.666 2.68349 -1.81026 0
M  V30 5055 H 465.573 1.16019 -3.55655 0
M  V30 5056 H 466.906 1.54516 -4.67317 0
M  V30 5057 N 468.558 1.5553 0.254621 0
M  V30 5058 C 469.969 1.67518 0.824286 0
M  V30 5059 C 470.32 0.614429 1.86331 0
M  V30 5060 O 469.445 -0.240736 2.15057 0
M  V30 5061 C 470.04 3.03692 1.50189 0
M  V30 5062 C 468.599 3.17646 2.01935 0
M  V30 5063 C 467.746 2.63373 0.867746 0
M  V30 5064 H 470.697 1.58671 0.0305843 0
M  V30 5065 H 470.718 2.97706 2.36962 0
M  V30 5066 H 470.23 3.80874 0.745431 0
M  V30 5067 H 468.331 2.45273 2.80485 0
M  V30 5068 H 468.444 4.24455 2.22204 0
M  V30 5069 H 466.808 2.20999 1.26616 0
M  V30 5070 H 467.591 3.43074 0.124498 0
M  V30 5071 N 470.036 -0.519951 1.48776 0
M  V30 5072 C 470.946 -1.65025 1.66745 0
M  V30 5073 C 471.962 -1.6508 0.549954 0
M  V30 5074 O 473.138 -1.83848 0.822295 0
M  V30 5075 C 470.203 -3.0146 1.71238 0
M  V30 5076 C 469.264 -3.12182 2.94688 0
M  V30 5077 C 468.497 -4.42109 2.98958 0
M  V30 5078 O 468.72 -5.29799 2.1135 0
M  V30 5079 O 467.654 -4.57406 3.91233 0
M  V30 5080 H 471.48 -1.52801 2.62461 0
M  V30 5081 H 469.065 -0.694157 1.32294 0
M  V30 5082 H 470.947 -3.82584 1.76657 0
M  V30 5083 H 469.622 -3.13988 0.786975 0
M  V30 5084 H 468.529 -2.30316 2.94797 0
M  V30 5085 H 469.862 -3.04574 3.86646 0
M  V30 5086 N 471.514 -1.37532 -0.769588 0
M  V30 5087 C 472.477 -1.33292 -1.86456 0
M  V30 5088 C 473.477 -0.236537 -1.59051 0
M  V30 5089 O 474.667 -0.492511 -1.67093 0
M  V30 5090 C 471.799 -1.07118 -3.23633 0
M  V30 5091 H 472.992 -2.30692 -1.91628 0
M  V30 5092 H 470.545 -1.22593 -0.969572 0
M  V30 5093 H 471.28 -0.102578 -3.24138 0
M  V30 5094 H 471.065 -1.86479 -3.44917 0
M  V30 5095 H 472.555 -1.06806 -4.03711 0
M  V30 5096 N 472.992 0.995999 -1.22138 0
M  V30 5097 C 473.902 2.11985 -1.00496 0
M  V30 5098 C 474.918 1.7394 0.0457701 0
M  V30 5099 O 476.094 2.00868 -0.146273 0
M  V30 5100 C 473.159 3.41779 -0.582086 0
M  V30 5101 C 472.22 3.93943 -1.70608 0
M  V30 5102 C 471.453 5.17542 -1.30328 0
M  V30 5103 O 471.676 5.70114 -0.180743 0
M  V30 5104 O 470.61 5.63382 -2.11861 0
M  V30 5105 H 474.436 2.33123 -1.94647 0
M  V30 5106 H 472.021 1.10358 -1.00705 0
M  V30 5107 H 473.903 4.1989 -0.356467 0
M  V30 5108 H 472.578 3.22007 0.330592 0
M  V30 5109 H 471.485 3.17019 -1.98619 0
M  V30 5110 H 472.818 4.18141 -2.59651 0
M  V30 5111 N 474.47 1.03057 1.19235 0
M  V30 5112 C 475.881 0.757449 1.70645 0
M  V30 5113 C 476.232 -0.722735 1.82403 0
M  V30 5114 O 475.357 -1.56325 1.49638 0
M  V30 5115 C 475.952 1.36833 3.09939 0
M  V30 5116 C 474.511 1.14375 3.58602 0
M  V30 5117 C 473.658 1.46533 2.35422 0
M  V30 5118 H 476.609 1.19828 1.04052 0
M  V30 5119 H 476.63 0.766184 3.72706 0
M  V30 5120 H 476.142 2.44562 3.01349 0
M  V30 5121 H 474.243 0.0847542 3.72504 0
M  V30 5122 H 474.356 1.83366 4.42622 0
M  V30 5123 H 472.72 0.884712 2.38841 0
M  V30 5124 H 473.503 2.55349 2.2946 0
M  V30 5125 N 475.948 -1.35272 0.808662 0
M  V30 5126 C 477.178 -2.02652 0.401953 0
M  V30 5127 C 477.586 -1.6108 -0.992462 0
M  V30 5128 O 476.929 -0.804984 -1.65123 0
M  V30 5129 C 476.991 -3.57174 0.408246 0
M  V30 5130 C 476.655 -4.22019 1.75353 0
M  V30 5131 C 477.652 -4.43552 2.71215 0
M  V30 5132 C 475.337 -4.59093 2.03811 0
M  V30 5133 C 477.331 -5.01264 3.93717 0
M  V30 5134 C 475.018 -5.16519 3.26576 0
M  V30 5135 C 476.016 -5.37546 4.21347 0
M  V30 5136 O 475.704 -5.93761 5.41944 0
M  V30 5137 H 475.436 -0.656495 0.161216 0
M  V30 5138 H 477.99 -1.73829 1.0942 0
M  V30 5139 H 476.22 -3.85197 -0.340608 0
M  V30 5140 H 477.909 -4.05893 0.0235623 0
M  V30 5141 H 478.675 -4.15288 2.50522 0
M  V30 5142 H 474.554 -4.42039 1.30854 0
M  V30 5143 H 478.098 -5.17592 4.67701 0
M  V30 5144 H 473.995 -5.4421 3.47139 0
M  V30 5145 H 474.763 -6.1221 5.43269 0
M  V30 5146 N 477.426 -0.562348 -1.47226 0
M  V30 5147 C 478.703 0.0256985 -1.95583 0
M  V30 5148 C 479.083 1.48032 -1.50498 0
M  V30 5149 O 478.431 2.15973 -0.746181 0
M  V30 5150 C 478.641 -0.125129 -3.48776 0
M  V30 5151 C 479.989 0.0175728 -4.24596 0
M  V30 5152 O 481.013 -0.0529341 -3.56161 0
M  V30 5153 O 479.872 0.170145 -5.46235 0
M  V30 5154 H 476.966 0.0612565 -0.824728 0
M  V30 5155 H 479.512 -0.629233 -1.57603 0
M  V30 5156 H 478.284 -1.13715 -3.74412 0
M  V30 5157 H 477.907 0.567178 -3.93534 0
M  V30 5158 N 478.904 1.54736 -0.299062 0
M  V30 5159 C 479.814 2.27127 0.587413 0
M  V30 5160 C 480.83 1.30575 1.15005 0
M  V30 5161 O 482.006 1.63554 1.17525 0
M  V30 5162 C 479.071 2.99645 1.74395 0
M  V30 5163 C 478.132 4.11731 1.21559 0
M  V30 5164 C 477.365 4.80781 2.317 0
M  V30 5165 O 477.588 4.4918 3.51558 0
M  V30 5166 O 476.522 5.68226 1.98501 0
M  V30 5167 H 480.348 3.037 0.000250109 0
M  V30 5168 H 477.933 1.49256 -0.0655919 0
M  V30 5169 H 479.815 3.45138 2.4178 0
M  V30 5170 H 478.49 2.25969 2.31775 0
M  V30 5171 H 477.397 3.70641 0.507514 0
M  V30 5172 H 478.73 4.87379 0.687233 0
M  V30 5173 N 480.382 0.0267497 1.57577 0
M  V30 5174 C 481.607 -0.666227 1.96408 0
M  V30 5175 C 482.032 -1.65004 0.903071 0
M  V30 5176 O 481.39 -1.80787 -0.136263 0
M  V30 5177 C 481.438 -1.35101 3.34335 0
M  V30 5178 O 480.542 -2.46623 3.30531 0
M  V30 5179 H 479.883 -0.175206 0.640468 0
M  V30 5180 H 482.413 0.0878977 2.04411 0
M  V30 5181 H 482.423 -1.70834 3.70513 0
M  V30 5182 H 481.098 -0.629844 4.11103 0
M  V30 5183 H 479.675 -2.13019 3.06068 0
M  V30 5184 N 481.861 -1.55662 -0.24637 0
M  V30 5185 C 483.107 -1.77782 -0.975779 0
M  V30 5186 C 483.44 -0.592103 -1.84953 0
M  V30 5187 O 482.715 0.409588 -1.90138 0
M  V30 5188 C 482.998 -3.09788 -1.83584 0
M  V30 5189 C 482.851 -4.38764 -0.990241 0
M  V30 5190 C 484.17 -3.38029 -2.81823 0
M  V30 5191 H 481.289 -0.646789 -0.353317 0
M  V30 5192 H 483.931 -1.88398 -0.246248 0
M  V30 5193 H 482.081 -3.00869 -2.45784 0
M  V30 5194 H 483.753 -4.59675 -0.386897 0
M  V30 5195 H 481.996 -4.32798 -0.294626 0
M  V30 5196 H 482.667 -5.27514 -1.62584 0
M  V30 5197 H 485.143 -3.46915 -2.2976 0
M  V30 5198 H 484.019 -4.3161 -3.39122 0
M  V30 5199 H 484.28 -2.58968 -3.58313 0
M  V30 5200 N 483.339 0.512053 -1.4905 0
M  V30 5201 C 484.249 1.64139 -1.67617 0
M  V30 5202 C 485.265 1.64786 -0.558701 0
M  V30 5203 O 486.441 1.8341 -0.832034 0
M  V30 5204 C 483.506 3.00548 -1.72835 0
M  V30 5205 C 482.567 3.10615 -2.96339 0
M  V30 5206 C 481.8 4.40517 -3.01298 0
M  V30 5207 O 482.023 5.28671 -2.14157 0
M  V30 5208 O 480.957 4.55325 -3.93653 0
M  V30 5209 H 484.783 1.51407 -2.63267 0
M  V30 5210 H 482.368 0.687131 -1.32661 0
M  V30 5211 H 484.25 3.81641 -1.78683 0
M  V30 5212 H 482.925 3.13566 -0.803616 0
M  V30 5213 H 481.832 2.2875 -2.96014 0
M  V30 5214 H 483.165 3.0252 -3.88256 0
M  V30 5215 N 484.817 1.37938 0.762283 0
M  V30 5216 C 485.78 1.34279 1.85747 0
M  V30 5217 C 486.78 0.244969 1.58923 0
M  V30 5218 O 487.97 0.501365 1.66829 0
M  V30 5219 C 485.102 1.08833 3.23061 0
M  V30 5220 H 486.295 2.31705 1.90401 0
M  V30 5221 H 483.848 1.23105 0.963057 0
M  V30 5222 H 484.583 0.119767 3.24079 0
M  V30 5223 H 484.368 1.88306 3.43923 0
M  V30 5224 H 485.858 1.08946 4.03138 0
M  V30 5225 N 486.295 -0.989507 1.22664 0
M  V30 5226 C 487.242 -2.08024 0.999733 0
M  V30 5227 C 488.212 -1.65909 -0.0797047 0
M  V30 5228 O 489.397 -1.90669 0.0705715 0
M  V30 5229 C 486.537 -3.40067 0.587234 0
M  V30 5230 C 485.65 -3.95505 1.73781 0
M  V30 5231 C 484.785 -5.15722 1.27297 0
M  V30 5232 C 483.824 -5.63305 2.39488 0
M  V30 5233 N 482.961 -6.74758 1.94026 0
M  V30 5234 H 487.801 -2.26768 1.9334 0
M  V30 5235 H 485.338 -1.11171 0.963297 0
M  V30 5236 H 487.296 -4.15899 0.329227 0
M  V30 5237 H 485.926 -3.21314 -0.309426 0
M  V30 5238 H 484.978 -3.16513 2.11006 0
M  V30 5239 H 486.29 -4.26797 2.58158 0
M  V30 5240 H 485.444 -5.98854 0.972546 0
M  V30 5241 H 484.183 -4.86061 0.399445 0
M  V30 5242 H 483.188 -4.78759 2.70315 0
M  V30 5243 H 484.413 -5.94988 3.27362 0
M  V30 5244 H 482.359 -6.46874 1.09041 0
M  V30 5245 H 482.276 -7.05386 2.71968 0
M  V30 5246 H 483.544 -7.61387 1.67062 0
M  V30 5247 N 487.773 -1.03688 -1.18687 0
M  V30 5248 C 488.683 -0.634908 -2.25845 0
M  V30 5249 C 489.699 0.337065 -1.70704 0
M  V30 5250 O 490.875 0.192943 -2.00474 0
M  V30 5251 C 487.94 -0.000180054 -3.467 0
M  V30 5252 C 487.001 -1.02067 -4.1699 0
M  V30 5253 C 486.234 -0.41614 -5.32075 0
M  V30 5254 O 486.457 0.778712 -5.65059 0
M  V30 5255 O 485.391 -1.14296 -5.90948 0
M  V30 5256 H 489.217 -1.52757 -2.62486 0
M  V30 5257 H 486.802 -0.807533 -1.25695 0
M  V30 5258 H 488.684 0.353342 -4.19916 0
M  V30 5259 H 487.359 0.866367 -3.11891 0
M  V30 5260 H 486.266 -1.42592 -3.45859 0
M  V30 5261 H 487.599 -1.85786 -4.5579 0
M  V30 5262 N 489.251 1.34841 -0.815825 0
M  V30 5263 C 490.667 1.51543 -0.500697 0
M  V30 5264 C 490.867 1.76261 0.976444 0
M  V30 5265 O 489.923 1.8094 1.76117 0
M  V30 5266 C 491.236 2.68487 -1.35407 0
M  V30 5267 C 492.784 2.82368 -1.35046 0
M  V30 5268 C 493.259 4.02347 -2.18816 0
M  V30 5269 N 494.75 4.09542 -2.16402 0
M  V30 5270 C 495.485 5.01517 -2.77971 0
M  V30 5271 N 494.981 5.98763 -3.48503 0
M  V30 5272 N 496.774 4.94334 -2.67563 0
M  V30 5273 H 488.925 1.17055 -1.77234 0
M  V30 5274 H 491.188 0.573481 -0.754866 0
M  V30 5275 H 490.894 2.56829 -2.40274 0
M  V30 5276 H 490.768 3.63321 -1.01377 0
M  V30 5277 H 493.155 2.93471 -0.309604 0
M  V30 5278 H 493.236 1.88363 -1.73069 0
M  V30 5279 H 492.88 3.92004 -3.22948 0
M  V30 5280 H 492.81 4.95551 -1.78148 0
M  V30 5281 H 495.301 3.39932 -1.65091 0
M  V30 5282 H 495.614 6.6556 -3.92747 0
M  V30 5283 H 493.959 5.98909 -3.52609 0
M  V30 5284 H 497.15 4.1732 -2.12041 0
M  V30 5285 H 497.323 5.6582 -3.15834 0
M  V30 5286 N 490.729 0.570148 1.46925 0
M  V30 5287 C 491.957 0.0561966 2.06824 0
M  V30 5288 C 492.372 -1.24326 1.42086 0
M  V30 5289 O 491.729 -1.74882 0.521794 0
M  V30 5290 C 491.78 -0.129517 3.61268 0
M  V30 5291 O 491.501 1.1185 4.23581 0
M  V30 5292 C 493.002 -0.679266 4.38065 0
M  V30 5293 H 490.222 0.0517261 0.669003 0
M  V30 5294 H 492.766 0.787243 1.8874 0
M  V30 5295 H 490.921 -0.810739 3.78822 0
M  V30 5296 H 491.335 0.924375 5.1629 0
M  V30 5297 H 492.809 -0.758445 5.46765 0
M  V30 5298 H 493.286 -1.69346 4.05239 0
M  V30 5299 H 493.892 -0.0333237 4.25287 0
M  V30 5300 N 492.207 -1.54576 0.307264 0
M  V30 5301 C 493.137 -2.26708 -0.55907 0
M  V30 5302 C 494.118 -1.26893 -1.1328 0
M  V30 5303 O 495.303 -1.55677 -1.16097 0
M  V30 5304 C 492.433 -3.01259 -1.72801 0
M  V30 5305 C 491.387 -4.08275 -1.28435 0
M  V30 5306 C 490.713 -4.70575 -2.53895 0
M  V30 5307 C 492.013 -5.2068 -0.411038 0
M  V30 5308 H 493.707 -2.9937 0.042576 0
M  V30 5309 H 491.253 -1.43983 0.0219173 0
M  V30 5310 H 493.206 -3.50444 -2.34023 0
M  V30 5311 H 491.93 -2.26187 -2.356 0
M  V30 5312 H 490.589 -3.59949 -0.695161 0
M  V30 5313 H 490.237 -3.92136 -3.15021 0
M  V30 5314 H 489.937 -5.42854 -2.24908 0
M  V30 5315 H 491.461 -5.22527 -3.15908 0
M  V30 5316 H 492.875 -5.65721 -0.929097 0
M  V30 5317 H 491.272 -5.99716 -0.214664 0
M  V30 5318 H 492.342 -4.81629 0.562287 0
M  V30 5319 N 493.685 -0.035106 -1.57561 0
M  V30 5320 C 494.595 0.960295 -2.14046 0
M  V30 5321 C 495.611 1.3529 -1.0942 0
M  V30 5322 O 496.787 1.43309 -1.41508 0
M  V30 5323 C 493.852 2.22214 -2.66124 0
M  V30 5324 C 492.913 1.8894 -3.85487 0
M  V30 5325 C 492.146 3.09109 -4.35072 0
M  V30 5326 O 492.369 4.21963 -3.83802 0
M  V30 5327 O 491.303 2.91058 -5.26848 0
M  V30 5328 H 495.129 0.509983 -2.99387 0
M  V30 5329 H 492.714 0.185853 -1.48239 0
M  V30 5330 H 494.596 2.96279 -2.99661 0
M  V30 5331 H 493.271 2.66414 -1.83862 0
M  V30 5332 H 492.178 1.12241 -3.56865 0
M  V30 5333 H 493.511 1.49551 -4.6893 0
M  V30 5334 N 495.163 1.55791 0.238111 0
M  V30 5335 C 496.073 1.94196 1.31625 0
M  V30 5336 C 497.089 0.843545 1.52185 0
M  V30 5337 O 498.265 1.1457 1.65637 0
M  V30 5338 C 495.33 2.2365 2.64918 0
M  V30 5339 C 494.391 3.46971 2.52804 0
M  V30 5340 C 493.624 3.7501 3.79741 0
M  V30 5341 O 493.847 3.04982 4.82019 0
M  V30 5342 O 492.781 4.68525 3.77846 0
M  V30 5343 H 496.607 2.86044 1.02043 0
M  V30 5344 H 494.192 1.42786 0.439603 0
M  V30 5345 H 496.074 2.43863 3.4367 0
M  V30 5346 H 494.749 1.34979 2.94215 0
M  V30 5347 H 493.656 3.32055 1.72309 0
M  V30 5348 H 494.989 4.35971 2.28451 0
M  V30 5349 N 496.642 -0.504142 1.49319 0
M  V30 5350 C 497.888 -1.25767 1.59857 0
M  V30 5351 C 498.243 -1.90348 0.280262 0
M  V30 5352 O 497.536 -1.77588 -0.719241 0
M  V30 5353 C 497.73 -2.35021 2.69258 0
M  V30 5354 C 497.559 -1.81154 4.11598 0
M  V30 5355 C 496.329 -1.62596 4.78425 0
M  V30 5356 C 498.527 -1.3252 4.96934 0
M  V30 5357 N 496.509 -1.03625 6.05091 0
M  V30 5358 C 497.88 -0.856633 6.14054 0
M  V30 5359 C 499.935 -1.21063 4.82958 0
M  V30 5360 C 498.638 -0.284841 7.18736 0
M  V30 5361 C 500.664 -0.652815 5.87786 0
M  V30 5362 C 500.026 -0.194461 7.04132 0
M  V30 5363 H 496.125 -0.450293 0.639343 0
M  V30 5364 H 498.709 -0.565344 1.86311 0
M  V30 5365 H 496.88 -3.01719 2.44581 0
M  V30 5366 H 498.612 -3.02061 2.69335 0
M  V30 5367 H 495.367 -1.86873 4.35173 0
M  V30 5368 H 495.791 -0.76076 6.72712 0
M  V30 5369 H 500.433 -1.551 3.93324 0
M  V30 5370 H 498.151 0.0677979 8.08072 0
M  V30 5371 H 501.737 -0.566994 5.79031 0
M  V30 5372 H 500.617 0.230442 7.83861 0
M  V30 5373 N 498.12 -1.38341 -0.754957 0
M  V30 5374 C 499.067 -1.3546 -1.86867 0
M  V30 5375 C 500.037 -0.217369 -1.64672 0
M  V30 5376 O 501.222 -0.409383 -1.86356 0
M  V30 5377 C 498.362 -1.18413 -3.24149 0
M  V30 5378 C 497.475 -2.41511 -3.58185 0
M  V30 5379 C 496.61 -2.17205 -4.84763 0
M  V30 5380 C 495.649 -3.36081 -5.11582 0
M  V30 5381 N 494.786 -3.11219 -6.29354 0
M  V30 5382 H 499.626 -2.30672 -1.88664 0
M  V30 5383 H 497.163 -1.14607 -0.922154 0
M  V30 5384 H 499.121 -1.06545 -4.03366 0
M  V30 5385 H 497.751 -0.268397 -3.21682 0
M  V30 5386 H 496.803 -2.64056 -2.73822 0
M  V30 5387 H 498.115 -3.30115 -3.73932 0
M  V30 5388 H 497.269 -2.02465 -5.7192 0
M  V30 5389 H 496.008 -1.25964 -4.71152 0
M  V30 5390 H 495.013 -3.51341 -4.22894 0
M  V30 5391 H 496.238 -4.28196 -5.27091 0
M  V30 5392 H 494.184 -2.22624 -6.17069 0
M  V30 5393 H 494.101 -3.93373 -6.45596 0
M  V30 5394 H 495.369 -3.00132 -7.19403 0
M  V30 5395 N 499.598 0.982988 -1.23187 0
M  V30 5396 C 500.508 2.10907 -1.02739 0
M  V30 5397 C 501.524 1.73979 0.0273188 0
M  V30 5398 O 502.7 2.00702 -0.16757 0
M  V30 5399 C 499.765 3.41142 -0.618304 0
M  V30 5400 C 498.826 3.92112 -1.74777 0
M  V30 5401 C 498.059 5.16131 -1.3581 0
M  V30 5402 O 498.282 5.6989 -0.241201 0
M  V30 5403 O 497.216 5.61103 -2.17824 0
M  V30 5404 H 501.042 2.31046 -1.97108 0
M  V30 5405 H 498.627 1.09284 -1.01869 0
M  V30 5406 H 500.509 4.19488 -0.400982 0
M  V30 5407 H 499.184 3.2234 0.296421 0
M  V30 5408 H 498.091 3.14895 -2.0197 0
M  V30 5409 H 499.424 4.15364 -2.64071 0
M  V30 5410 N 501.076 1.04316 1.18135 0
M  V30 5411 C 502.006 0.657299 2.24058 0
M  V30 5412 C 502.987 -0.340678 1.66654 0
M  V30 5413 O 504.172 -0.220223 1.92947 0
M  V30 5414 C 501.302 0.0220715 3.47293 0
M  V30 5415 C 500.256 0.943857 4.17463 0
M  V30 5416 C 499.582 0.172973 5.3442 0
M  V30 5417 C 500.882 2.26409 4.70677 0
M  V30 5418 H 502.576 1.5428 2.56589 0
M  V30 5419 H 500.122 0.743263 1.23335 0
M  V30 5420 H 502.075 -0.259607 4.206 0
M  V30 5421 H 500.799 -0.898323 3.14003 0
M  V30 5422 H 499.458 1.20996 3.46057 0
M  V30 5423 H 499.106 -0.749907 4.97379 0
M  V30 5424 H 498.806 0.787098 5.82304 0
M  V30 5425 H 500.33 -0.101628 6.10515 0
M  V30 5426 H 501.744 2.04294 5.35665 0
M  V30 5427 H 500.141 2.8314 5.29105 0
M  V30 5428 H 501.211 2.90883 3.87962 0
M  V30 5429 N 502.554 -1.34406 0.822964 0
M  V30 5430 C 503.782 -2.02508 0.424039 0
M  V30 5431 C 504.197 -1.61975 -0.970022 0
M  V30 5432 O 503.554 -0.825228 -1.62777 0
M  V30 5433 C 503.605 -3.57789 0.516657 0
M  V30 5434 O 503.326 -3.96853 1.85577 0
M  V30 5435 C 504.827 -4.43157 0.112637 0
M  V30 5436 H 502.047 -0.649063 0.170173 0
M  V30 5437 H 504.591 -1.7168 1.11113 0
M  V30 5438 H 502.746 -3.87207 -0.122353 0
M  V30 5439 H 503.16 -4.91538 1.83005 0
M  V30 5440 H 504.634 -5.51527 0.228526 0
M  V30 5441 H 505.111 -4.28939 -0.943837 0
M  V30 5442 H 505.717 -4.19067 0.725449 0
M  V30 5443 N 504.032 -0.577932 -1.46621 0
M  V30 5444 C 505.262 -0.0670668 -2.06491 0
M  V30 5445 C 505.67 1.24119 -1.42798 0
M  V30 5446 O 505.013 1.76016 -0.525759 0
M  V30 5447 C 505.075 0.177995 -3.59059 0
M  V30 5448 C 504.739 -1.04394 -4.44917 0
M  V30 5449 C 505.736 -1.95479 -4.81751 0
M  V30 5450 C 503.421 -1.26444 -4.86125 0
M  V30 5451 C 505.415 -3.06965 -5.58615 0
M  V30 5452 C 503.102 -2.38237 -5.62749 0
M  V30 5453 C 504.1 -3.28327 -5.98908 0
M  V30 5454 O 503.788 -4.38179 -6.73984 0
M  V30 5455 H 503.52 -0.0523159 -0.673973 0
M  V30 5456 H 506.074 -0.796966 -1.89308 0
M  V30 5457 H 504.304 0.962451 -3.74531 0
M  V30 5458 H 505.993 0.636782 -4.00874 0
M  V30 5459 H 506.759 -1.79657 -4.50498 0
M  V30 5460 H 502.638 -0.572316 -4.57434 0
M  V30 5461 H 506.182 -3.77309 -5.86757 0
M  V30 5462 H 502.079 -2.54023 -5.93416 0
M  V30 5463 H 502.847 -4.36486 -6.92403 0
M  V30 5464 N 505.51 1.54411 -0.315457 0
M  V30 5465 C 506.442 2.21527 0.588067 0
M  V30 5466 C 507.455 1.21263 1.08624 0
M  V30 5467 O 508.644 1.47777 1.00121 0
M  V30 5468 C 505.744 2.85963 1.81875 0
M  V30 5469 C 504.917 4.12291 1.46063 0
M  V30 5470 C 503.976 4.60396 2.54799 0
M  V30 5471 O 503.002 5.25265 2.19283 0
M  V30 5472 N 504.204 4.33935 3.85591 0
M  V30 5473 H 506.969 2.99697 0.013414 0
M  V30 5474 H 504.53 1.61308 -0.138295 0
M  V30 5475 H 506.522 3.15071 2.53993 0
M  V30 5476 H 505.092 2.11548 2.30144 0
M  V30 5477 H 504.312 3.90036 0.571445 0
M  V30 5478 H 505.6 4.9452 1.19695 0
M  V30 5479 H 504.998 3.81996 4.17248 0
M  V30 5480 H 503.555 4.67718 4.53964 0
M  V30 5481 N 506.988 0.0434614 1.5754 0
M  V30 5482 C 507.898 -0.94893 2.14552 0
M  V30 5483 C 508.914 -1.34707 1.10136 0
M  V30 5484 O 510.09 -1.42557 1.42266 0
M  V30 5485 C 507.155 -2.208 2.67298 0
M  V30 5486 C 506.216 -1.86893 3.86484 0
M  V30 5487 C 505.449 -3.06797 4.36705 0
M  V30 5488 O 505.672 -4.19921 3.86034 0
M  V30 5489 O 504.606 -2.8826 5.28384 0
M  V30 5490 H 508.432 -0.494099 2.99654 0
M  V30 5491 H 506.017 -0.177989 1.48336 0
M  V30 5492 H 507.899 -2.94686 3.01228 0
M  V30 5493 H 506.574 -2.65436 1.85272 0
M  V30 5494 H 505.481 -1.10347 3.57455 0
M  V30 5495 H 506.814 -1.47062 4.69716 0
M  V30 5496 N 508.466 -1.55915 -0.229846 0
M  V30 5497 C 509.712 -1.78807 -0.956868 0
M  V30 5498 C 510.045 -0.611687 -1.84315 0
M  V30 5499 O 509.32 0.389398 -1.90562 0
M  V30 5500 C 509.603 -3.11718 -1.80288 0
M  V30 5501 C 509.456 -4.3979 -0.943649 0
M  V30 5502 C 510.775 -3.40999 -2.78222 0
M  V30 5503 H 507.894 -0.6505 -0.346437 0
M  V30 5504 H 510.536 -1.88648 -0.226252 0
M  V30 5505 H 508.686 -3.03459 -2.42579 0
M  V30 5506 H 510.358 -4.60059 -0.338121 0
M  V30 5507 H 508.601 -4.33086 -0.248705 0
M  V30 5508 H 509.272 -5.29208 -1.5698 0
M  V30 5509 H 511.748 -3.49332 -2.26067 0
M  V30 5510 H 510.624 -4.35183 -3.34526 0
M  V30 5511 H 510.885 -2.62754 -3.55546 0
M  V30 5512 N 509.944 0.496216 -1.49584 0
M  V30 5513 C 510.874 1.60576 -1.69521 0
M  V30 5514 C 511.855 1.61169 -0.543933 0
M  V30 5515 O 513.04 1.77834 -0.78031 0
M  V30 5516 C 510.17 2.99038 -1.76616 0
M  V30 5517 C 509.124 3.13312 -2.91581 0
M  V30 5518 C 508.45 4.53172 -2.83794 0
M  V30 5519 C 509.75 2.92886 -4.32452 0
M  V30 5520 H 511.444 1.44146 -2.62416 0
M  V30 5521 H 508.99 0.692024 -1.26282 0
M  V30 5522 H 510.943 3.76564 -1.8915 0
M  V30 5523 H 509.667 3.16568 -0.80324 0
M  V30 5524 H 508.326 2.38213 -2.78658 0
M  V30 5525 H 507.974 4.67585 -1.854 0
M  V30 5526 H 507.674 4.63662 -3.60958 0
M  V30 5527 H 509.198 5.32752 -2.98342 0
M  V30 5528 H 510.612 3.60178 -4.46032 0
M  V30 5529 H 509.009 3.14844 -5.10875 0
M  V30 5530 H 510.079 1.88966 -4.46565 0
M  V30 5531 N 511.423 1.38739 0.74761 0
M  V30 5532 C 512.648 1.38702 1.54197 0
M  V30 5533 C 513.073 -0.019664 1.8809 0
M  V30 5534 O 512.431 -1.00333 1.51006 0
M  V30 5535 C 512.479 2.25492 2.814 0
M  V30 5536 O 511.583 1.67613 3.76802 0
M  V30 5537 H 510.924 0.472863 0.466151 0
M  V30 5538 H 513.454 1.82577 0.923413 0
M  V30 5539 H 513.464 2.39561 3.30264 0
M  V30 5540 H 512.139 3.27727 2.56062 0
M  V30 5541 H 510.716 1.62718 3.35526 0
M  V30 5542 N 512.901 -0.976442 1.23707 0
M  V30 5543 C 514.148 -1.71827 1.07153 0
M  V30 5544 C 514.476 -1.9053 -0.390982 0
M  V30 5545 O 513.731 -1.45779 -1.30564 0
M  V30 5546 C 514.03 -3.11814 1.74662 0
M  V30 5547 C 513.696 -3.12978 3.24585 0
M  V30 5548 C 512.358 -3.13003 3.6549 0
M  V30 5549 C 514.71 -3.07986 4.20469 0
M  V30 5550 C 512.038 -3.05757 5.00729 0
M  V30 5551 C 514.39 -3.02282 5.55705 0
M  V30 5552 C 513.054 -3.00631 5.95968 0
M  V30 5553 H 512.324 -0.628758 0.392102 0
M  V30 5554 H 514.971 -1.14239 1.53693 0
M  V30 5555 H 513.276 -3.72812 1.20492 0
M  V30 5556 H 514.973 -3.67989 1.59328 0
M  V30 5557 H 511.563 -3.13718 2.92026 0
M  V30 5558 H 515.747 -3.07103 3.89874 0
M  V30 5559 H 511.003 -3.02834 5.31132 0
M  V30 5560 H 515.177 -2.97376 6.29714 0
M  V30 5561 H 512.804 -2.94771 7.00724 0
M  V30 5562 N 514.379 -1.04941 -1.1758 0
M  V30 5563 C 515.326 -0.648155 -2.21512 0
M  V30 5564 C 516.296 0.348431 -1.62404 0
M  V30 5565 O 517.481 0.240419 -1.89279 0
M  V30 5566 C 514.621 -0.0264291 -3.4509 0
M  V30 5567 C 513.734 -1.07154 -4.185 0
M  V30 5568 C 512.869 -0.417403 -5.29558 0
M  V30 5569 C 511.908 -1.447 -5.94751 0
M  V30 5570 N 511.045 -0.817203 -6.97328 0
M  V30 5571 H 515.885 -1.53891 -2.55189 0
M  V30 5572 H 513.422 -0.769699 -1.25356 0
M  V30 5573 H 515.38 0.351456 -4.15717 0
M  V30 5574 H 514.01 0.827802 -3.12005 0
M  V30 5575 H 513.062 -1.56728 -3.46613 0
M  V30 5576 H 514.374 -1.8532 -4.63096 0
M  V30 5577 H 513.528 0.0142061 -6.06698 0
M  V30 5578 H 512.267 0.396265 -4.86087 0
M  V30 5579 H 511.272 -1.88865 -5.16343 0
M  V30 5580 H 512.497 -2.26252 -6.40302 0
M  V30 5581 H 510.443 -0.0239995 -6.55996 0
M  V30 5582 H 510.36 -1.53644 -7.40223 0
M  V30 5583 H 511.628 -0.410283 -7.7842 0
M  V30 5584 N 515.857 1.33968 -0.830081 0
M  V30 5585 C 517.268 1.80439 -0.479455 0
M  V30 5586 C 517.619 1.68756 1.00079 0
M  V30 5587 O 516.744 1.23171 1.77927 0
M  V30 5588 C 517.339 3.27611 -0.863505 0
M  V30 5589 C 515.898 3.72133 -0.565145 0
M  V30 5590 C 515.045 2.55549 -1.07657 0
M  V30 5591 H 517.996 1.21614 -1.0196 0
M  V30 5592 H 518.017 3.8012 -0.170083 0
M  V30 5593 H 517.529 3.36082 -1.94089 0
M  V30 5594 H 515.63 3.69196 0.502536 0
M  V30 5595 H 515.743 4.65963 -1.11422 0
M  V30 5596 H 514.107 2.49788 -0.497807 0
M  V30 5597 H 514.89 2.66786 -2.16055 0
M  V30 5598 N 517.335 0.585699 1.46312 0
M  V30 5599 C 518.746 0.159938 1.86014 0
M  V30 5600 C 519.097 -1.27775 1.48889 0
M  V30 5601 O 518.222 -1.96559 0.90519 0
M  V30 5602 C 518.817 0.283485 3.37612 0
M  V30 5603 C 517.376 -0.0874256 3.76298 0
M  V30 5604 C 516.523 0.618055 2.70325 0
M  V30 5605 H 519.474 0.793737 1.37425 0
M  V30 5606 H 519.495 -0.490348 3.77327 0
M  V30 5607 H 519.007 1.32995 3.64601 0
M  V30 5608 H 517.108 -1.13391 3.54927 0
M  V30 5609 H 517.221 0.290975 4.78216 0
M  V30 5610 H 515.585 0.057993 2.54634 0
M  V30 5611 H 516.368 1.66623 3.00153 0
M  V30 5612 N 518.813 -1.54241 0.323641 0
M  V30 5613 C 519.723 -2.28033 -0.551205 0
M  V30 5614 C 520.739 -1.32388 -1.12913 0
M  V30 5615 O 521.915 -1.65403 -1.14908 0
M  V30 5616 C 518.98 -3.02382 -1.69606 0
M  V30 5617 C 518.041 -4.13612 -1.14993 0
M  V30 5618 C 517.274 -4.84407 -2.24022 0
M  V30 5619 O 517.497 -4.54716 -3.44368 0
M  V30 5620 O 516.431 -5.71312 -1.89436 0
M  V30 5621 H 520.257 -3.03662 0.048066 0
M  V30 5622 H 517.842 -1.49133 0.0893289 0
M  V30 5623 H 519.724 -3.48941 -2.36259 0
M  V30 5624 H 518.399 -2.29628 -2.28151 0
M  V30 5625 H 517.306 -3.71402 -0.448484 0
M  V30 5626 H 518.639 -4.8841 -0.609608 0
M  V30 5627 N 520.291 -0.0518155 -1.57515 0
M  V30 5628 C 521.702 0.483787 -1.80323 0
M  V30 5629 C 522.053 1.70879 -0.964099 0
M  V30 5630 O 521.178 2.15643 -0.180872 0
M  V30 5631 C 521.773 0.884459 -3.27052 0
M  V30 5632 C 520.332 1.36504 -3.50776 0
M  V30 5633 C 519.479 0.340539 -2.75201 0
M  V30 5634 H 522.43 -0.277691 -1.56252 0
M  V30 5635 H 522.451 1.74733 -3.38007 0
M  V30 5636 H 521.963 -0.00731093 -3.88099 0
M  V30 5637 H 520.064 2.27598 -2.95009 0
M  V30 5638 H 520.177 1.35675 -4.59488 0
M  V30 5639 H 518.541 0.81356 -2.41357 0
M  V30 5640 H 519.324 -0.543156 -3.38976 0
M  V30 5641 N 521.769 1.56035 0.221574 0
M  V30 5642 C 523.18 1.69229 0.788567 0
M  V30 5643 C 523.531 0.653814 1.84986 0
M  V30 5644 O 522.656 -0.195065 2.15519 0
M  V30 5645 C 523.251 3.06809 1.43713 0
M  V30 5646 C 521.81 3.21858 1.95152 0
M  V30 5647 C 520.957 2.65155 0.811685 0
M  V30 5648 H 523.908 1.587 -0.00307894 0
M  V30 5649 H 523.929 3.02666 2.30594 0
M  V30 5650 H 523.441 3.82369 0.664475 0
M  V30 5651 H 521.542 2.51167 2.7522 0
M  V30 5652 H 521.655 4.29073 2.1315 0
M  V30 5653 H 520.019 2.23635 1.21899 0
M  V30 5654 H 520.802 3.43261 0.0516987 0
M  V30 5655 N 523.247 -0.488276 1.49845 0
M  V30 5656 C 524.194 -1.58836 1.67451 0
M  V30 5657 C 525.164 -1.57886 0.515857 0
M  V30 5658 O 526.349 -1.75679 0.744403 0
M  V30 5659 C 523.489 -2.96915 1.75885 0
M  V30 5660 C 522.602 -3.07784 3.03138 0
M  V30 5661 C 521.737 -4.36673 3.02473 0
M  V30 5662 C 520.776 -4.41222 4.24252 0
M  V30 5663 N 519.913 -5.61557 4.21424 0
M  V30 5664 H 524.753 -1.43131 2.61376 0
M  V30 5665 H 522.29 -0.696186 1.29583 0
M  V30 5666 H 524.248 -3.76965 1.78755 0
M  V30 5667 H 522.878 -3.11295 0.85414 0
M  V30 5668 H 521.93 -2.20717 3.09819 0
M  V30 5669 H 523.242 -3.07005 3.93128 0
M  V30 5670 H 522.396 -5.25055 3.03977 0
M  V30 5671 H 521.135 -4.40037 2.10283 0
M  V30 5672 H 520.14 -3.5124 4.22978 0
M  V30 5673 H 521.365 -4.39564 5.17649 0
M  V30 5674 H 519.311 -5.65738 3.32078 0
M  V30 5675 H 519.228 -5.62447 5.05163 0
M  V30 5676 H 520.496 -6.52111 4.2705 0
M  V30 5677 N 524.725 -1.39134 -0.740242 0
M  V30 5678 C 526.136 -1.32208 -1.31825 0
M  V30 5679 C 526.487 0.0159919 -1.96193 0
M  V30 5680 O 525.612 0.918111 -1.95958 0
M  V30 5681 C 526.207 -2.39436 -2.39699 0
M  V30 5682 C 524.766 -2.36048 -2.93187 0
M  V30 5683 C 523.913 -2.21599 -1.66701 0
M  V30 5684 H 526.864 -1.49298 -0.538133 0
M  V30 5685 H 526.885 -2.05922 -3.19963 0
M  V30 5686 H 526.397 -3.36811 -1.92821 0
M  V30 5687 H 524.498 -1.42295 -3.44359 0
M  V30 5688 H 524.611 -3.30704 -3.46658 0
M  V30 5689 H 522.975 -1.68681 -1.90837 0
M  V30 5690 H 523.758 -3.20936 -1.21882 0
M  V30 5691 N 526.204 0.969867 -1.24223 0
M  V30 5692 C 527.615 1.52717 -1.07399 0
M  V30 5693 C 527.966 1.92956 0.355298 0
M  V30 5694 O 527.091 1.77112 1.2434 0
M  V30 5695 C 527.686 2.77521 -1.94339 0
M  V30 5696 C 526.245 3.29615 -1.81744 0
M  V30 5697 C 525.392 2.02537 -1.89405 0
M  V30 5698 H 528.343 0.788399 -1.37732 0
M  V30 5699 H 528.364 3.50773 -1.47439 0
M  V30 5700 H 527.876 2.48203 -2.98357 0
M  V30 5701 H 525.977 3.63789 -0.805505 0
M  V30 5702 H 526.09 3.98661 -2.65718 0
M  V30 5703 H 524.454 2.17151 -1.33108 0
M  V30 5704 H 525.237 1.75587 -2.94999 0
M  V30 5705 N 527.682 1.05563 1.17022 0
M  V30 5706 C 528.93 0.76642 1.87004 0
M  V30 5707 C 529.251 -0.708854 1.8166 0
M  V30 5708 O 528.521 -1.51242 1.2451 0
M  V30 5709 H 527.101 0.280516 0.692329 0
M  V30 5710 H 529.763 1.33557 1.41945 0
M  V30 5711 H 528.859 1.08472 2.92644 0
M  V30 5712 N 529.16 -1.33526 0.837174 0
M  V30 5713 C 530.385 -2.0258 0.444545 0
M  V30 5714 C 530.81 -1.6258 -0.946006 0
M  V30 5715 O 530.168 -0.817548 -1.6182 0
M  V30 5716 C 530.216 -3.5605 0.571006 0
M  V30 5717 O 529.32 -4.10422 -0.403431 0
M  V30 5718 H 528.661 -0.638866 0.180958 0
M  V30 5719 H 531.191 -1.70462 1.13154 0
M  V30 5720 H 531.201 -4.05488 0.452024 0
M  V30 5721 H 529.876 -3.84509 1.58512 0
M  V30 5722 H 528.453 -3.72113 -0.242147 0
M  V30 5723 N 530.638 -0.59345 -1.46 0
M  V30 5724 C 531.568 0.121192 -2.33185 0
M  V30 5725 C 532.549 0.872977 -1.4599 0
M  V30 5726 O 533.734 0.846321 -1.74789 0
M  V30 5727 C 530.864 1.12844 -3.28456 0
M  V30 5728 C 529.818 0.4908 -4.25177 0
M  V30 5729 C 529.144 1.60529 -5.10034 0
M  V30 5730 C 530.444 -0.578949 -5.19081 0
M  V30 5731 H 532.138 -0.606767 -2.93187 0
M  V30 5732 H 529.684 -0.293242 -1.40983 0
M  V30 5733 H 531.637 1.63684 -3.88311 0
M  V30 5734 H 530.361 1.88681 -2.66584 0
M  V30 5735 H 529.02 0.00339328 -3.666 0
M  V30 5736 H 528.668 2.35359 -4.44539 0
M  V30 5737 H 528.368 1.18422 -5.75543 0
M  V30 5738 H 529.892 2.11623 -5.72755 0
M  V30 5739 H 531.306 -0.155199 -5.7309 0
M  V30 5740 H 529.703 -0.920947 -5.92991 0
M  V30 5741 H 530.773 -1.46109 -4.62364 0
M  V30 5742 N 532.116 1.54067 -0.331816 0
M  V30 5743 C 533.026 2.28322 0.539104 0
M  V30 5744 C 534.042 1.32985 1.1221 0
M  V30 5745 O 535.218 1.6601 1.1403 0
M  V30 5746 C 532.283 3.03277 1.68 0
M  V30 5747 C 531.344 4.14216 1.12798 0
M  V30 5748 C 530.577 4.85588 2.2145 0
M  V30 5749 O 530.8 4.56536 3.41952 0
M  V30 5750 O 529.734 5.72309 1.86404 0
M  V30 5751 H 533.56 3.03632 -0.0641692 0
M  V30 5752 H 531.145 1.49083 -0.0972365 0
M  V30 5753 H 533.027 3.50189 2.34405 0
M  V30 5754 H 531.702 2.30834 2.2693 0
M  V30 5755 H 530.609 3.71635 0.428782 0
M  V30 5756 H 531.942 4.88727 0.583698 0
M  V30 5757 N 533.594 0.0601682 1.57485 0
M  V30 5758 C 534.843 -0.611101 1.9222 0
M  V30 5759 C 535.156 -1.71469 0.941159 0
M  V30 5760 O 536.362 -2.44473 1.18089 0
M  V30 5761 C 534.818 -1.13832 3.41424 0
M  V30 5762 C 534.426 -0.0663596 4.47951 0
M  V30 5763 C 536.17 -1.78432 3.85178 0
M  V30 5764 C 534.077 -0.606965 5.88277 0
M  V30 5765 H 533.007 -0.232033 0.71741 0
M  V30 5766 H 535.658 0.130518 1.83035 0
M  V30 5767 H 534.04 -1.93254 3.45643 0
M  V30 5768 H 535.214 0.707682 4.55333 0
M  V30 5769 H 533.529 0.482715 4.13593 0
M  V30 5770 H 536.126 -2.1989 4.87394 0
M  V30 5771 H 536.469 -2.63966 3.21913 0
M  V30 5772 H 537.002 -1.05651 3.83514 0
M  V30 5773 H 533.741 0.21095 6.5516 0
M  V30 5774 H 533.261 -1.34879 5.84438 0
M  V30 5775 H 534.94 -1.08704 6.37803 0
M  V30 5776 N 535.072 -1.5615 -0.213296 0
M  V30 5777 C 535.982 -1.96265 -1.28519 0
M  V30 5778 C 536.998 -0.86765 -1.50824 0
M  V30 5779 O 538.174 -1.17191 -1.63793 0
M  V30 5780 C 535.239 -2.27836 -2.61327 0
M  V30 5781 C 534.3 -3.50949 -2.47252 0
M  V30 5782 C 533.533 -3.81004 -3.73727 0
M  V30 5783 O 533.756 -3.12612 -4.77106 0
M  V30 5784 O 532.69 -4.74477 -3.70344 0
M  V30 5785 H 536.516 -2.87631 -0.974795 0
M  V30 5786 H 534.101 -1.43467 -0.416832 0
M  V30 5787 H 535.983 -2.49299 -3.39747 0
M  V30 5788 H 534.658 -1.39643 -2.9203 0
M  V30 5789 H 533.565 -3.34754 -1.67004 0
M  V30 5790 H 534.898 -4.39551 -2.21486 0
M  V30 5791 N 536.55 0.480323 -1.50102 0
M  V30 5792 C 537.482 1.59669 -1.64433 0
M  V30 5793 C 538.495 1.54063 -0.52615 0
M  V30 5794 O 539.684 1.59619 -0.798992 0
M  V30 5795 C 536.784 2.98527 -1.6042 0
M  V30 5796 C 535.957 3.291 -2.88117 0
M  V30 5797 C 535.016 4.47468 -2.76873 0
M  V30 5798 O 534.042 4.4823 -3.50825 0
M  V30 5799 N 535.244 5.48593 -1.89806 0
M  V30 5800 H 538.009 1.47795 -2.60723 0
M  V30 5801 H 535.57 0.66858 -1.4745 0
M  V30 5802 H 537.562 3.75666 -1.50523 0
M  V30 5803 H 536.132 3.04218 -0.719036 0
M  V30 5804 H 535.352 2.40662 -3.12211 0
M  V30 5805 H 536.64 3.46334 -3.72734 0
M  V30 5806 H 536.038 5.50791 -1.2902 0
M  V30 5807 H 534.595 6.24752 -1.85819 0
M  V30 5808 O 538.067 1.48883 0.625791 0
M  V30 5809 H 538.758 1.45381 1.28 0
M  V30 END ATOM
M  V30 BEGIN BOND
M  V30 END BOND
M  V30 END CTAB
M  END
$$$$
